# Generated by pormake.
# Topology wjd, (6)-cn, num edge types: 1
# Building blocks:
#     Node 0, Type 0, BuildingBlock: GEDQOX_clean_sbu_0, # of connection points: 6
#     Node 1, Type 0, BuildingBlock: GEDQOX_clean_sbu_0, # of connection points: 6
#     Node 2, Type 0, BuildingBlock: GEDQOX_clean_sbu_0, # of connection points: 6
#     Node 3, Type 0, BuildingBlock: GEDQOX_clean_sbu_0, # of connection points: 6
#     Node 4, Type 0, BuildingBlock: GEDQOX_clean_sbu_0, # of connection points: 6
#     Node 5, Type 0, BuildingBlock: GEDQOX_clean_sbu_0, # of connection points: 6
#     Node 6, Type 0, BuildingBlock: GEDQOX_clean_sbu_0, # of connection points: 6
#     Node 7, Type 0, BuildingBlock: GEDQOX_clean_sbu_0, # of connection points: 6
#     Node 8, Type 0, BuildingBlock: GEDQOX_clean_sbu_0, # of connection points: 6
#     Node 9, Type 0, BuildingBlock: GEDQOX_clean_sbu_0, # of connection points: 6
#     Node 10, Type 0, BuildingBlock: GEDQOX_clean_sbu_0, # of connection points: 6
#     Node 11, Type 0, BuildingBlock: GEDQOX_clean_sbu_0, # of connection points: 6
#     Edge 12, Type (0, 0), BuildingBlock: XIVTED_clean_linker_0, # of connection points: 2
#     Edge 13, Type (0, 0), BuildingBlock: XIVTED_clean_linker_0, # of connection points: 2
#     Edge 14, Type (0, 0), BuildingBlock: XIVTED_clean_linker_0, # of connection points: 2
#     Edge 15, Type (0, 0), BuildingBlock: XIVTED_clean_linker_0, # of connection points: 2
#     Edge 16, Type (0, 0), BuildingBlock: XIVTED_clean_linker_0, # of connection points: 2
#     Edge 17, Type (0, 0), BuildingBlock: XIVTED_clean_linker_0, # of connection points: 2
#     Edge 18, Type (0, 0), BuildingBlock: XIVTED_clean_linker_0, # of connection points: 2
#     Edge 19, Type (0, 0), BuildingBlock: XIVTED_clean_linker_0, # of connection points: 2
#     Edge 20, Type (0, 0), BuildingBlock: XIVTED_clean_linker_0, # of connection points: 2
#     Edge 21, Type (0, 0), BuildingBlock: XIVTED_clean_linker_0, # of connection points: 2
#     Edge 22, Type (0, 0), BuildingBlock: XIVTED_clean_linker_0, # of connection points: 2
#     Edge 23, Type (0, 0), BuildingBlock: XIVTED_clean_linker_0, # of connection points: 2
#     Edge 24, Type (0, 0), BuildingBlock: XIVTED_clean_linker_0, # of connection points: 2
#     Edge 25, Type (0, 0), BuildingBlock: XIVTED_clean_linker_0, # of connection points: 2
#     Edge 26, Type (0, 0), BuildingBlock: XIVTED_clean_linker_0, # of connection points: 2
#     Edge 27, Type (0, 0), BuildingBlock: XIVTED_clean_linker_0, # of connection points: 2
#     Edge 28, Type (0, 0), BuildingBlock: XIVTED_clean_linker_0, # of connection points: 2
#     Edge 29, Type (0, 0), BuildingBlock: XIVTED_clean_linker_0, # of connection points: 2
#     Edge 30, Type (0, 0), BuildingBlock: XIVTED_clean_linker_0, # of connection points: 2
#     Edge 31, Type (0, 0), BuildingBlock: XIVTED_clean_linker_0, # of connection points: 2
#     Edge 32, Type (0, 0), BuildingBlock: XIVTED_clean_linker_0, # of connection points: 2
#     Edge 33, Type (0, 0), BuildingBlock: XIVTED_clean_linker_0, # of connection points: 2
#     Edge 34, Type (0, 0), BuildingBlock: XIVTED_clean_linker_0, # of connection points: 2
#     Edge 35, Type (0, 0), BuildingBlock: XIVTED_clean_linker_0, # of connection points: 2
#     Edge 36, Type (0, 0), BuildingBlock: XIVTED_clean_linker_0, # of connection points: 2
#     Edge 37, Type (0, 0), BuildingBlock: XIVTED_clean_linker_0, # of connection points: 2
#     Edge 38, Type (0, 0), BuildingBlock: XIVTED_clean_linker_0, # of connection points: 2
#     Edge 39, Type (0, 0), BuildingBlock: XIVTED_clean_linker_0, # of connection points: 2
#     Edge 40, Type (0, 0), BuildingBlock: XIVTED_clean_linker_0, # of connection points: 2
#     Edge 41, Type (0, 0), BuildingBlock: XIVTED_clean_linker_0, # of connection points: 2
#     Edge 42, Type (0, 0), BuildingBlock: XIVTED_clean_linker_0, # of connection points: 2
#     Edge 43, Type (0, 0), BuildingBlock: XIVTED_clean_linker_0, # of connection points: 2
#     Edge 44, Type (0, 0), BuildingBlock: XIVTED_clean_linker_0, # of connection points: 2
#     Edge 45, Type (0, 0), BuildingBlock: XIVTED_clean_linker_0, # of connection points: 2
#     Edge 46, Type (0, 0), BuildingBlock: XIVTED_clean_linker_0, # of connection points: 2
#     Edge 47, Type (0, 0), BuildingBlock: XIVTED_clean_linker_0, # of connection points: 2
# Relax obj value: 0.100
# Max RMSD: 0.219
# Mean RMSD: 0.219
data_MOF--net-wjd--node1-GEDQOX_clean_sbu_0--edge1-XIVTED_clean_linker_0
_symmetry_space_group_name_H-M    P1
_symmetry_Int_Tables_number       1
_symmetry_cell_setting            triclinic
loop_
_symmetry_equiv_pos_as_xyz
'x, y, z'
_cell_length_a     40.290451
_cell_length_b     40.382823
_cell_length_c     52.895987
_cell_angle_alpha  89.879812
_cell_angle_beta   90.095856
_cell_angle_gamma 119.97924
loop_
_atom_site_label
_atom_site_type_symbol
_atom_site_fract_x
_atom_site_fract_y
_atom_site_fract_z
_atom_type_partial_charge
Nd0 Nd 0.39001 0.12165 0.13643 0.0
Nd1 Nd 0.3384 0.15779 0.1222 0.0
C2 C 0.43465 0.09593 0.1535 0.0
C3 C 0.47501 0.10643 0.14839 0.0
C4 C 0.50166 0.11887 0.16829 0.0
C5 C 0.54036 0.13128 0.16362 0.0
C6 C 0.55336 0.13134 0.13892 0.0
C7 C 0.5265 0.11823 0.11906 0.0
C8 C 0.48784 0.10609 0.12371 0.0
C9 C 0.37434 0.12129 0.08537 0.0
C10 C 0.43053 0.21151 0.1223 0.0
C11 C 0.29491 0.18108 0.09979 0.0
C12 C 0.26469 0.18969 0.10778 0.0
C13 C 0.22612 0.16056 0.10896 0.0
C14 C 0.19779 0.16854 0.11692 0.0
C15 C 0.2072 0.20587 0.12383 0.0
C16 C 0.24569 0.23515 0.12225 0.0
C17 C 0.27409 0.22717 0.11427 0.0
C18 C 0.35451 0.16685 0.17341 0.0
C19 C 0.29581 0.06984 0.14328 0.0
O20 O 0.42972 0.12144 0.16555 0.0
O21 O 0.40977 0.07932 0.13522 0.0
O22 O 0.4078 0.13053 0.09457 0.0
O23 O 0.35159 0.11536 0.10336 0.0
O24 O 0.43256 0.18591 0.13674 0.0
O25 O 0.39903 0.20311 0.10958 0.0
O26 O 0.28634 0.14523 0.10044 0.0
O27 O 0.32989 0.2045 0.10752 0.0
O28 O 0.33382 0.17881 0.16219 0.0
O29 O 0.36521 0.15137 0.15738 0.0
O30 O 0.29217 0.09804 0.13359 0.0
O31 O 0.32952 0.07215 0.14725 0.0
H32 H 0.4926 0.11947 0.18748 0.0
H33 H 0.56012 0.1407 0.17942 0.0
H34 H 0.53552 0.11825 0.09978 0.0
H35 H 0.46818 0.09704 0.10786 0.0
H36 H 0.21771 0.13148 0.10377 0.0
H37 H 0.16834 0.14541 0.11735 0.0
H38 H 0.25402 0.26418 0.12752 0.0
H39 H 0.30347 0.25037 0.11335 0.0
Nd40 Nd 0.85341 0.71526 0.41801 0.0
Nd41 Nd 0.76705 0.65225 0.39603 0.0
C42 C 0.91559 0.76424 0.44307 0.0
C43 C 0.95606 0.78917 0.43572 0.0
C44 C 0.98488 0.80592 0.45413 0.0
C45 C 1.02303 0.83089 0.44702 0.0
C46 C 0.03295 0.83956 0.42135 0.0
C47 C 1.004 0.82184 0.40301 0.0
C48 C 0.96606 0.79705 0.41012 0.0
C49 C 0.85165 0.70878 0.36546 0.0
C50 C 0.79114 0.74118 0.40328 0.0
C51 C 0.70851 0.60111 0.36929 0.0
C52 C 0.67711 0.56187 0.37474 0.0
C53 C 0.66484 0.53363 0.35601 0.0
C54 C 0.63705 0.49575 0.36145 0.0
C55 C 0.62087 0.48529 0.38578 0.0
C56 C 0.63291 0.51384 0.40442 0.0
C57 C 0.66085 0.55165 0.39901 0.0
C58 C 0.76576 0.66392 0.44775 0.0
C59 C 0.82825 0.62413 0.41437 0.0
O60 O 0.89123 0.77325 0.43326 0.0
O61 O 0.90282 0.72733 0.44279 0.0
O62 O 0.88226 0.73107 0.37819 0.0
O63 O 0.82493 0.69198 0.38095 0.0
O64 O 0.81718 0.7443 0.41986 0.0
O65 O 0.77318 0.71147 0.38777 0.0
O66 O 0.74288 0.60529 0.36788 0.0
O67 O 0.70791 0.62907 0.3815 0.0
O68 O 0.73617 0.63983 0.43469 0.0
O69 O 0.79446 0.67706 0.43334 0.0
O70 O 0.79612 0.61625 0.40247 0.0
O71 O 0.85224 0.65823 0.42399 0.0
H72 H 0.97779 0.80022 0.474 0.0
H73 H 0.04449 0.84428 0.46167 0.0
H74 H 1.01059 0.82732 0.38307 0.0
H75 H 0.94445 0.78452 0.39556 0.0
H76 H 0.67713 0.54079 0.33722 0.0
H77 H 0.62817 0.47464 0.34655 0.0
H78 H 0.62147 0.50677 0.42342 0.0
H79 H 0.67018 0.57276 0.41393 0.0
Nd80 Nd 0.92285 0.2708 0.13513 0.0
Nd81 Nd 0.89031 0.18393 0.12212 0.0
C82 C 0.94685 0.3409 0.15201 0.0
C83 C 0.93395 0.3689 0.14789 0.0
C84 C 0.95842 0.40767 0.15336 0.0
C85 C 0.94646 0.4344 0.14915 0.0
C86 C 0.90969 0.42285 0.13941 0.0
C87 C 0.88528 0.38387 0.13392 0.0
C88 C 0.89734 0.35722 0.13804 0.0
C89 C 0.9278 0.25577 0.08452 0.0
C90 C 0.83381 0.21935 0.11927 0.0
C91 C 0.86926 0.11744 0.10007 0.0
C92 C 0.85685 0.07828 0.10878 0.0
C93 C 0.83965 0.04766 0.09178 0.0
C94 C 0.82873 1.01049 0.09974 0.0
C95 C 0.83492 1.0033 0.12487 0.0
C96 C 0.85154 0.03411 0.14195 0.0
C97 C 0.86236 0.07122 0.13399 0.0
C98 C 0.87755 0.19023 0.17285 0.0
C99 C 0.97765 0.23238 0.14419 0.0
O100 O 0.92338 0.31002 0.1646 0.0
O101 O 0.96191 0.3336 0.13243 0.0
O102 O 0.91641 0.27882 0.09265 0.0
O103 O 0.93316 0.23957 0.1032 0.0
O104 O 0.85819 0.24771 0.13373 0.0
O105 O 0.84395 0.19684 0.10763 0.0
O106 O 0.90497 0.14306 0.10466 0.0
O107 O 0.84562 0.13011 0.10442 0.0
O108 O 0.86718 0.15795 0.16173 0.0
O109 O 0.8933 0.2167 0.15693 0.0
O110 O 0.95064 0.2 0.13433 0.0
O111 O 0.97362 0.26278 0.14748 0.0
H112 H 0.98681 0.41727 0.16092 0.0
H113 H 0.96586 0.46406 0.15386 0.0
H114 H 0.85702 0.37399 0.12609 0.0
H115 H 0.87809 0.32747 0.13344 0.0
H116 H 0.83512 0.05258 0.07226 0.0
H117 H 0.81648 0.98758 0.086 0.0
H118 H 0.85629 0.02957 0.1615 0.0
H119 H 0.8754 0.09448 0.14745 0.0
Nd120 Nd 0.32993 0.15029 0.41171 0.0
Nd121 Nd 0.38632 0.11878 0.40047 0.0
C122 C 0.28317 0.17054 0.43284 0.0
C123 C 0.26365 0.19152 0.42505 0.0
C124 C 0.24484 0.20158 0.4431 0.0
C125 C 0.22199 0.21695 0.43554 0.0
C126 C 0.21738 0.22227 0.40972 0.0
C127 C 0.23774 0.21372 0.39178 0.0
C128 C 0.26068 0.19853 0.39937 0.0
C129 C 0.34986 0.16196 0.36126 0.0
C130 C 0.29336 0.06078 0.39448 0.0
C131 C 0.43424 0.09564 0.38562 0.0
C132 C 0.47553 0.10823 0.38978 0.0
C133 C 0.50339 0.13197 0.37209 0.0
C134 C 0.54226 0.14421 0.37603 0.0
C135 C 0.55443 0.13288 0.3977 0.0
C136 C 0.52647 0.10873 0.41524 0.0
C137 C 0.48759 0.09655 0.41133 0.0
C138 C 0.3661 0.11768 0.45067 0.0
C139 C 0.42215 0.20904 0.41281 0.0
O140 O 0.27156 0.13789 0.4214 0.0
O141 O 0.32047 0.1903 0.43551 0.0
O142 O 0.32741 0.17217 0.37182 0.0
O143 O 0.36082 0.14677 0.37752 0.0
O144 O 0.28756 0.0874 0.40445 0.0
O145 O 0.32801 0.06617 0.38948 0.0
O146 O 0.42637 0.11797 0.37196 0.0
O147 O 0.41106 0.0808 0.40492 0.0
O148 O 0.40075 0.12863 0.44304 0.0
O149 O 0.3446 0.10993 0.43177 0.0
O150 O 0.42696 0.18344 0.40038 0.0
O151 O 0.38904 0.20019 0.42347 0.0
H152 H 0.24665 0.19621 0.463 0.0
H153 H 0.20641 0.22284 0.44982 0.0
H154 H 0.23518 0.21789 0.37179 0.0
H155 H 0.27496 0.19098 0.38512 0.0
H156 H 0.49517 0.14116 0.35512 0.0
H157 H 0.56275 0.1622 0.36184 0.0
H158 H 0.53465 0.09965 0.43227 0.0
H159 H 0.46702 0.07808 0.42532 0.0
Nd160 Nd 0.77122 0.65288 0.14515 0.0
Nd161 Nd 0.85913 0.71263 0.12369 0.0
C162 C 0.71194 0.60219 0.1715 0.0
C163 C 0.68066 0.5633 0.16547 0.0
C164 C 0.66523 0.53534 0.18446 0.0
C165 C 0.63802 0.49752 0.17847 0.0
C166 C 0.62569 0.48693 0.15333 0.0
C167 C 0.64082 0.51524 0.13443 0.0
C168 C 0.66815 0.55297 0.14042 0.0
C169 C 0.77081 0.66686 0.09378 0.0
C170 C 0.82731 0.62007 0.12474 0.0
C171 C 0.92193 0.75874 0.09822 0.0
C172 C 0.9604 0.78935 0.10569 0.0
C173 C 0.99146 0.80109 0.08916 0.0
C174 C 1.02836 0.82905 0.09662 0.0
C175 C 0.03485 0.84575 0.12079 0.0
C176 C 1.0035 0.83369 0.1373 0.0
C177 C 0.96669 0.80575 0.12983 0.0
C178 C 0.85624 0.70393 0.17599 0.0
C179 C 0.80467 0.74574 0.14434 0.0
O180 O 0.74607 0.60587 0.17326 0.0
O181 O 0.71199 0.63049 0.15921 0.0
O182 O 0.74066 0.64347 0.10664 0.0
O183 O 0.79957 0.67844 0.10807 0.0
O184 O 0.79674 0.61393 0.13787 0.0
O185 O 0.85165 0.65365 0.11465 0.0
O186 O 0.8937 0.76567 0.10152 0.0
O187 O 0.91324 0.72421 0.10527 0.0
O188 O 0.88771 0.72568 0.16377 0.0
O189 O 0.82987 0.68865 0.16011 0.0
O190 O 0.83257 0.75045 0.12893 0.0
O191 O 0.78056 0.71272 0.15552 0.0
H192 H 0.67473 0.54263 0.20386 0.0
H193 H 0.62666 0.47654 0.19353 0.0
H194 H 0.63239 0.50804 0.11486 0.0
H195 H 0.68008 0.5739 0.12536 0.0
H196 H 0.98719 0.78856 0.0705 0.0
H197 H 0.0517 0.83797 0.0833 0.0
H198 H 1.00747 0.84551 0.15615 0.0
H199 H 0.94314 0.79676 0.14299 0.0
Nd200 Nd 0.89857 0.18633 0.41135 0.0
Nd201 Nd 0.92411 0.27295 0.39981 0.0
C202 C 0.88516 0.12154 0.43287 0.0
C203 C 0.86163 0.07986 0.42925 0.0
C204 C 0.85997 0.05537 0.44859 0.0
C205 C 0.84224 1.01594 0.4445 0.0
C206 C 0.82576 1.00008 0.42089 0.0
C207 C 0.82641 0.02473 0.40176 0.0
C208 C 0.84419 0.06426 0.4059 0.0
C209 C 0.88329 0.19303 0.36122 0.0
C210 C 0.98594 0.24356 0.3913 0.0
C211 C 0.94418 0.34274 0.38376 0.0
C212 C 0.93131 0.37056 0.38868 0.0
C213 C 0.955 0.40914 0.38229 0.0
C214 C 0.94316 0.43582 0.38694 0.0
C215 C 0.90728 0.42443 0.39806 0.0
C216 C 0.88369 0.38564 0.40454 0.0
C217 C 0.89564 0.35902 0.39996 0.0
C218 C 0.93177 0.25661 0.44981 0.0
C219 C 0.83456 0.2139 0.414 0.0
O220 O 0.91165 0.13979 0.41582 0.0
O221 O 0.86789 0.14024 0.43995 0.0
O222 O 0.87517 0.16087 0.37181 0.0
O223 O 0.89775 0.21917 0.37746 0.0
O224 O 0.96219 0.21148 0.40308 0.0
O225 O 0.97723 0.27041 0.38593 0.0
O226 O 0.92009 0.31159 0.37167 0.0
O227 O 0.96114 0.33602 0.40255 0.0
O228 O 0.9186 0.27877 0.44278 0.0
O229 O 0.9383 0.24273 0.43042 0.0
O230 O 0.85888 0.24601 0.4024 0.0
O231 O 0.84517 0.18988 0.4229 0.0
H232 H 0.87362 0.06688 0.46664 0.0
H233 H 0.84292 0.99811 0.45957 0.0
H234 H 0.81365 1.01357 0.38347 0.0
H235 H 0.84529 0.08275 0.39066 0.0
H236 H 0.98266 0.41863 0.3736 0.0
H237 H 0.96189 0.46528 0.38141 0.0
H238 H 0.85614 0.37589 0.41343 0.0
H239 H 0.87702 0.3294 0.40525 0.0
Nd240 Nd 0.17536 0.33133 0.62467 0.0
Nd241 Nd 0.13944 0.38164 0.6403 0.0
C242 C 0.19491 0.28518 0.60195 0.0
C243 C 0.20422 0.25555 0.60953 0.0
C244 C 0.20559 0.23127 0.59122 0.0
C245 C 0.21642 0.2044 0.59785 0.0
C246 C 0.22619 0.20128 0.62299 0.0
C247 C 0.22404 0.22528 0.64141 0.0
C248 C 0.21319 0.25214 0.63473 0.0
C249 C 0.1855 0.3458 0.67631 0.0
C250 C 0.08935 0.29092 0.65041 0.0
C251 C 0.12208 0.43482 0.65265 0.0
C252 C 0.13942 0.47675 0.65419 0.0
C253 C 0.11732 0.49211 0.66329 0.0
C254 C 0.13005 0.53116 0.66064 0.0
C255 C 0.16522 0.55576 0.64875 0.0
C256 C 0.18816 0.5405 0.6407 0.0
C257 C 0.17531 0.50134 0.64331 0.0
C258 C 0.11314 0.34277 0.59541 0.0
C259 C 0.23104 0.42256 0.62295 0.0
O260 O 0.15925 0.27692 0.60466 0.0
O261 O 0.21957 0.32018 0.60879 0.0
O262 O 0.19778 0.32619 0.66424 0.0
O263 O 0.16986 0.35713 0.66077 0.0
O264 O 0.11338 0.28765 0.63498 0.0
O265 O 0.09502 0.32451 0.65845 0.0
O266 O 0.13172 0.41723 0.66951 0.0
O267 O 0.11936 0.42144 0.62982 0.0
O268 O 0.09227 0.34705 0.61217 0.0
O269 O 0.14825 0.3601 0.60209 0.0
O270 O 0.20418 0.42565 0.63533 0.0
O271 O 0.22438 0.38986 0.61315 0.0
H272 H 0.19866 0.23334 0.57169 0.0
H273 H 0.217 0.18596 0.58323 0.0
H274 H 0.23163 0.22395 0.66088 0.0
H275 H 0.21238 0.27065 0.64919 0.0
H276 H 0.08941 0.4736 0.67155 0.0
H277 H 0.11195 0.54195 0.6675 0.0
H278 H 0.21525 0.55845 0.63132 0.0
H279 H 0.19263 0.49001 0.63585 0.0
Nd280 Nd 0.29587 0.91893 0.89636 0.0
Nd281 Nd 0.20899 0.89368 0.9189 0.0
C282 C 0.35517 0.92779 0.86983 0.0
C283 C 0.38461 0.91696 0.87503 0.0
C284 C 0.37605 0.88527 0.89044 0.0
C285 C 0.40408 0.87546 0.89586 0.0
C286 C 0.44148 0.89732 0.88623 0.0
C287 C 0.45004 0.92926 0.87097 0.0
C288 C 0.42185 0.93892 0.8654 0.0
C289 C 0.29623 0.92751 0.94852 0.0
C290 C 0.23463 0.82831 0.91154 0.0
C291 C 0.14686 0.87796 0.945 0.0
C292 C 0.10603 0.86156 0.93831 0.0
C293 C 0.07818 0.85124 0.9572 0.0
C294 C 0.03969 0.83745 0.9507 0.0
C295 C 1.02845 0.83391 0.92515 0.0
C296 C 0.05645 0.84345 0.90634 0.0
C297 C 0.09474 0.8571 0.91286 0.0
C298 C 0.21139 0.89319 0.86631 0.0
C299 C 0.27071 0.98276 0.90621 0.0
O300 O 0.32017 0.89943 0.86623 0.0
O301 O 0.35642 0.95489 0.88413 0.0
O302 O 0.32614 0.93458 0.93526 0.0
O303 O 0.26772 0.91244 0.93391 0.0
O304 O 0.26727 0.85368 0.90075 0.0
O305 O 0.20986 0.83721 0.92146 0.0
O306 O 0.17011 0.91175 0.93539 0.0
O307 O 0.16068 0.85469 0.94378 0.0
O308 O 0.1805 0.88389 0.87903 0.0
O309 O 0.23788 0.90177 0.88182 0.0
O310 O 0.24471 0.95873 0.92235 0.0
O311 O 0.28939 0.97239 0.89023 0.0
H312 H 0.34769 0.86818 0.89844 0.0
H313 H 0.39658 0.85106 0.90797 0.0
H314 H 0.47842 0.94654 0.86306 0.0
H315 H 0.42916 0.9636 0.85362 0.0
H316 H 0.08629 0.85446 0.97697 0.0
H317 H 1.01896 0.8307 0.96567 0.0
H318 H 0.0488 0.84058 0.8865 0.0
H319 H 0.11561 0.8647 0.89795 0.0
Nd320 Nd 0.73138 0.85431 0.62481 0.0
Nd321 Nd 0.6792 0.76691 0.63829 0.0
C322 C 0.77598 0.92145 0.60321 0.0
C323 C 0.80573 0.96013 0.61171 0.0
C324 C 0.84443 0.9734 0.6061 0.0
C325 C 0.873 1.00931 0.61444 0.0
C326 C 0.86363 0.03307 0.62848 0.0
C327 C 0.82483 1.02016 0.63369 0.0
C328 C 0.79619 0.98405 0.62546 0.0
C329 C 0.71618 0.8473 0.67615 0.0
C330 C 0.77345 0.80693 0.64369 0.0
C331 C 0.63228 0.69666 0.65467 0.0
C332 C 0.59106 0.66872 0.64999 0.0
C333 C 0.56559 0.65287 0.67042 0.0
C334 C 0.52636 0.62775 0.66629 0.0
C335 C 0.51159 0.61764 0.64159 0.0
C336 C 0.53722 0.63346 0.62115 0.0
C337 C 0.57637 0.65876 0.62528 0.0
C338 C 0.69405 0.78301 0.58713 0.0
C339 C 0.63945 0.81771 0.62552 0.0
O340 O 0.78483 0.8944 0.60453 0.0
O341 O 0.74045 0.90957 0.60979 0.0
O342 O 0.7369 0.87973 0.66482 0.0
O343 O 0.70476 0.82088 0.66019 0.0
O344 O 0.77711 0.83923 0.63489 0.0
O345 O 0.73962 0.77571 0.64765 0.0
O346 O 0.63964 0.72722 0.66758 0.0
O347 O 0.65608 0.70427 0.63581 0.0
O348 O 0.66058 0.75945 0.59653 0.0
O349 O 0.71719 0.79897 0.60508 0.0
O350 O 0.63745 0.78969 0.63949 0.0
O351 O 0.67091 0.84097 0.61287 0.0
H352 H 0.85267 0.95588 0.5953 0.0
H353 H 0.90252 1.01862 0.60967 0.0
H354 H 0.81664 0.03765 0.64454 0.0
H355 H 0.76665 0.97484 0.63006 0.0
H356 H 0.57603 0.66012 0.68965 0.0
H357 H 0.50766 0.61587 0.68251 0.0
H358 H 0.52693 0.62681 0.60187 0.0
H359 H 0.59503 0.67079 0.60906 0.0
Nd360 Nd 0.14077 0.38516 0.89674 0.0
Nd361 Nd 0.16294 0.32094 0.91785 0.0
C362 C 0.13432 0.43723 0.87038 0.0
C363 C 0.14501 0.47731 0.87564 0.0
C364 C 0.17596 0.50008 0.89169 0.0
C365 C 0.18584 0.53789 0.89686 0.0
C366 C 0.16476 0.55372 0.8863 0.0
C367 C 0.13348 0.53065 0.87046 0.0
C368 C 0.12377 0.49285 0.86515 0.0
C369 C 0.12588 0.37151 0.94817 0.0
C370 C 0.23005 0.41216 0.91494 0.0
C371 C 0.17405 0.27063 0.94303 0.0
C372 C 0.19273 0.24779 0.93811 0.0
C373 C 0.19082 0.22162 0.95628 0.0
C374 C 0.20632 0.19804 0.95129 0.0
C375 C 0.22406 0.20007 0.92793 0.0
C376 C 0.22627 0.22677 0.90985 0.0
C377 C 0.21079 0.25041 0.9149 0.0
C378 C 0.1693 0.32977 0.86549 0.0
C379 C 0.07505 0.29646 0.90283 0.0
O380 O 0.16282 0.43058 0.86758 0.0
O381 O 0.10623 0.41108 0.88397 0.0
O382 O 0.12171 0.39664 0.93534 0.0
O383 O 0.14153 0.35831 0.93384 0.0
O384 O 0.20561 0.42095 0.90427 0.0
O385 O 0.22004 0.37731 0.92321 0.0
O386 O 0.14323 0.26138 0.92965 0.0
O387 O 0.19653 0.30773 0.9453 0.0
O388 O 0.17739 0.30693 0.87784 0.0
O389 O 0.15879 0.34568 0.88125 0.0
O390 O 0.09757 0.29248 0.9193 0.0
O391 O 0.08727 0.32671 0.88774 0.0
H392 H 0.19248 0.48858 0.90032 0.0
H393 H 0.20971 0.55459 0.90942 0.0
H394 H 0.11683 0.54201 0.86184 0.0
H395 H 0.09968 0.47573 0.85283 0.0
H396 H 0.17674 0.21894 0.97422 0.0
H397 H 0.20346 0.17749 0.96554 0.0
H398 H 0.24004 0.22948 0.89179 0.0
H399 H 0.21255 0.27043 0.90059 0.0
Nd400 Nd 0.21515 0.89792 0.62426 0.0
Nd401 Nd 0.29705 0.92012 0.64966 0.0
C402 C 0.15446 0.88511 0.5973 0.0
C403 C 0.11484 0.87473 0.60427 0.0
C404 C 0.0845 0.85472 0.58725 0.0
C405 C 0.04678 0.84396 0.59413 0.0
C406 C 0.03861 0.85295 0.61823 0.0
C407 C 0.06921 0.87272 0.63526 0.0
C408 C 0.1068 0.88349 0.62836 0.0
C409 C 0.21097 0.8912 0.67687 0.0
C410 C 0.27043 0.98311 0.64584 0.0
C411 C 0.3534 0.92177 0.67635 0.0
C412 C 0.38328 0.91217 0.66994 0.0
C413 C 0.39872 0.89926 0.68871 0.0
C414 C 0.42602 0.88876 0.68248 0.0
C415 C 0.4385 0.89109 0.65733 0.0
C416 C 0.423 0.90421 0.6386 0.0
C417 C 0.39555 0.91445 0.64481 0.0
C418 C 0.30347 0.94661 0.6014 0.0
C419 C 0.2414 0.83267 0.62696 0.0
O420 O 0.1816 0.91942 0.60376 0.0
O421 O 0.16386 0.8589 0.60159 0.0
O422 O 0.1817 0.88384 0.66289 0.0
O423 O 0.23868 0.90077 0.6625 0.0
O424 O 0.24839 0.96298 0.62678 0.0
O425 O 0.28641 0.96934 0.6616 0.0
O426 O 0.31823 0.89301 0.67701 0.0
O427 O 0.35601 0.9519 0.6651 0.0
O428 O 0.33101 0.95916 0.6178 0.0
O429 O 0.27487 0.91532 0.60907 0.0
O430 O 0.27393 0.85767 0.63789 0.0
O431 O 0.21565 0.84159 0.61901 0.0
H432 H 0.08999 0.84746 0.56862 0.0
H433 H 1.02413 0.82919 0.58039 0.0
H434 H 0.06413 0.87963 0.65411 0.0
H435 H 0.12962 0.89864 0.64193 0.0
H436 H 0.3895 0.89708 0.70817 0.0
H437 H 0.43761 0.87912 0.69742 0.0
H438 H 0.43149 0.90585 0.61902 0.0
H439 H 0.38363 0.92383 0.62992 0.0
Nd440 Nd 0.67677 0.76591 0.90362 0.0
Nd441 Nd 0.73529 0.85315 0.91544 0.0
C442 C 0.62895 0.69536 0.88789 0.0
C443 C 0.58826 0.66672 0.89246 0.0
C444 C 0.57413 0.62843 0.88565 0.0
C445 C 0.53565 0.601 0.88997 0.0
C446 C 0.51036 0.61127 0.90118 0.0
C447 C 0.52481 0.64979 0.90806 0.0
C448 C 0.56334 0.67717 0.90379 0.0
C449 C 0.69608 0.78312 0.95418 0.0
C450 C 0.64324 0.82318 0.91468 0.0
C451 C 0.78407 0.91883 0.93718 0.0
C452 C 0.80273 0.96026 0.93229 0.0
C453 C 0.82535 0.98584 0.95122 0.0
C454 C 0.84772 0.02492 0.94601 0.0
C455 C 0.848 0.03933 0.92167 0.0
C456 C 0.82415 1.01363 0.90295 0.0
C457 C 0.80174 0.97445 0.90821 0.0
C458 C 0.71705 0.8455 0.86461 0.0
C459 C 0.76916 0.79773 0.8988 0.0
O460 O 0.6356 0.72603 0.87529 0.0
O461 O 0.65223 0.70308 0.90706 0.0
O462 O 0.6615 0.76061 0.94593 0.0
O463 O 0.7182 0.79735 0.93554 0.0
O464 O 0.63722 0.79142 0.90349 0.0
O465 O 0.67685 0.84785 0.92461 0.0
O466 O 0.79431 0.89986 0.92214 0.0
O467 O 0.74729 0.90038 0.94229 0.0
O468 O 0.73985 0.87793 0.87532 0.0
O469 O 0.70478 0.81948 0.88099 0.0
O470 O 0.77564 0.82957 0.91 0.0
O471 O 0.73437 0.77014 0.89239 0.0
H472 H 0.59287 0.61975 0.8769 0.0
H473 H 0.52557 0.57182 0.88411 0.0
H474 H 0.50646 0.65875 0.91703 0.0
H475 H 0.57371 0.70654 0.90938 0.0
H476 H 0.82684 0.97539 0.96983 0.0
H477 H 0.86608 0.04356 0.96082 0.0
H478 H 0.82322 0.02367 0.88411 0.0
H479 H 0.78456 0.95511 0.89328 0.0
H480 H 0.05012 0.29357 0.13758 0.0
H481 H 0.14573 0.16213 0.15452 0.0
H482 H 0.98924 0.17561 0.16131 0.0
H483 H 0.19923 0.26832 0.11284 0.0
H484 H 0.09309 0.17295 0.16535 0.0
H485 H 0.10998 0.29121 0.13723 0.0
C486 C 0.04956 0.26756 0.1434 0.0
C487 C 1.01476 0.23467 0.14935 0.0
C488 C 0.11647 0.19404 0.15398 0.0
C489 C 0.08264 0.23161 0.14875 0.0
C490 C 0.14646 0.18776 0.14763 0.0
C491 C 0.17674 0.214 0.13235 0.0
C492 C 0.11657 0.22686 0.14505 0.0
C493 C 0.17656 0.24728 0.12466 0.0
C494 C 0.08359 0.26609 0.14294 0.0
C495 C 1.01546 0.20152 0.15641 0.0
N496 N 0.14677 0.2526 0.13089 0.0
N497 N 0.04875 0.20077 0.15575 0.0
H498 H 0.2804 0.99105 0.41138 0.0
H499 H 0.05493 0.89478 0.38489 0.0
H500 H 0.22723 0.04576 0.37176 0.0
H501 H 0.1018 0.85065 0.44023 0.0
H502 H 0.11968 0.94354 0.37329 0.0
H503 H 0.2172 0.9327 0.4151 0.0
C504 C 0.25564 0.99026 0.40271 0.0
C505 C 0.25887 0.02299 0.39108 0.0
C506 C 0.1159 0.92307 0.38787 0.0
C507 C 0.18685 0.95711 0.39565 0.0
C508 C 0.07884 0.89499 0.39443 0.0
C509 C 0.07273 0.86847 0.41364 0.0
C510 C 0.14744 0.92494 0.40055 0.0
C511 C 0.10507 0.87078 0.42555 0.0
C512 C 0.21957 0.95724 0.40513 0.0
C513 C 0.22586 0.02098 0.38075 0.0
N514 N 0.14103 0.8986 0.41888 0.0
N515 N 0.19128 0.98875 0.38337 0.0
H516 H 0.87755 0.98378 0.1553 0.0
H517 H 0.74391 0.75748 0.1365 0.0
H518 H 0.77222 0.93368 0.11252 0.0
H519 H 0.86125 0.81305 0.1617 0.0
H520 H 0.74719 0.82015 0.13577 0.0
H521 H 0.86525 0.91984 0.16585 0.0
C522 C 0.85152 0.95935 0.1484 0.0
C523 C 0.82602 0.96426 0.13285 0.0
C524 C 0.77193 0.81844 0.14194 0.0
C525 C 0.81195 0.89058 0.14466 0.0
C526 C 0.76989 0.78272 0.14263 0.0
C527 C 0.8023 0.78034 0.14932 0.0
C528 C 0.80653 0.85163 0.1482 0.0
C529 C 0.83562 0.81383 0.15653 0.0
C530 C 0.84463 0.92276 0.15431 0.0
C531 C 0.793 0.93131 0.12422 0.0
N532 N 0.83694 0.84805 0.15568 0.0
N533 N 0.787 0.89587 0.13013 0.0
H534 H 0.16571 0.19169 0.37106 0.0
H535 H 0.05537 0.30503 0.40402 0.0
H536 H 0.20311 0.2769 0.42984 0.0
H537 H 1.00327 0.1945 0.36828 0.0
H538 H 0.11722 0.30636 0.40425 0.0
H539 H 0.11395 0.20418 0.36065 0.0
C540 C 0.16352 0.21358 0.38148 0.0
C541 C 0.18871 0.2331 0.40149 0.0
C542 C 0.09238 0.28226 0.39586 0.0
C543 C 0.12907 0.24725 0.38976 0.0
C544 C 0.05732 0.28171 0.39546 0.0
C545 C 1.02445 0.24966 0.38602 0.0
C546 C 0.09438 0.25076 0.38642 0.0
C547 C 1.02809 0.21973 0.37567 0.0
C548 C 0.13376 0.22049 0.37562 0.0
C549 C 0.18401 0.26079 0.41452 0.0
N550 N 0.06235 0.22093 0.37623 0.0
N551 N 0.1546 0.2669 0.40854 0.0
H552 H 0.28129 0.9963 0.13621 0.0
H553 H 0.05445 0.91111 0.14749 0.0
H554 H 0.22783 0.06115 0.15886 0.0
H555 H 0.10443 0.8503 0.11177 0.0
H556 H 0.11847 0.96219 0.15862 0.0
H557 H 0.2176 0.93846 0.13443 0.0
C558 C 0.25629 0.99813 0.14148 0.0
C559 C 0.25973 0.03351 0.1476 0.0
C560 C 0.1155 0.93759 0.14847 0.0
C561 C 0.18709 0.96794 0.14527 0.0
C562 C 0.07884 0.90824 0.14221 0.0
C563 C 0.0739 0.87632 0.12853 0.0
C564 C 0.14774 0.93526 0.14104 0.0
C565 C 0.10684 0.87462 0.12195 0.0
C566 C 0.21995 0.96526 0.14019 0.0
C567 C 0.2264 0.03446 0.15389 0.0
N568 N 0.14235 0.90373 0.12817 0.0
N569 N 0.19156 1.0023 0.1524 0.0
H570 H 0.78912 0.78273 0.36263 0.0
H571 H 0.78457 0.93964 0.45312 0.0
H572 H 0.77629 0.77256 0.44359 0.0
H573 H 0.83131 0.96516 0.3776 0.0
H574 H 0.76663 0.87289 0.44684 0.0
H575 H 0.78942 0.84391 0.36483 0.0
C576 C 0.78522 0.79284 0.38072 0.0
C577 C 0.78268 0.77276 0.40297 0.0
C578 C 0.78049 0.89303 0.43154 0.0
C579 C 0.78333 0.84235 0.4057 0.0
C580 C 0.79094 0.93126 0.43516 0.0
C581 C 0.81013 0.95843 0.41604 0.0
C582 C 0.78911 0.88154 0.4086 0.0
C583 C 0.81653 0.94538 0.39289 0.0
C584 C 0.7858 0.82784 0.38202 0.0
C585 C 0.77841 0.78731 0.42602 0.0
N586 N 0.80641 0.90798 0.38991 0.0
N587 N 0.77904 0.82122 0.4268 0.0
H588 H 0.30494 0.03933 0.61148 0.0
H589 H 0.20925 0.15626 0.66573 0.0
H590 H 0.24814 1.01423 0.68363 0.0
H591 H 0.27273 0.18289 0.59585 0.0
H592 H 0.22858 0.10885 0.67522 0.0
H593 H 0.30028 0.09713 0.60842 0.0
C594 C 0.29262 0.04682 0.6271 0.0
C595 C 0.2775 0.02247 0.64802 0.0
C596 C 0.23848 0.12528 0.6579 0.0
C597 C 0.27027 0.08776 0.6442 0.0
C598 C 0.22753 0.15246 0.65247 0.0
C599 C 0.23895 0.17342 0.62976 0.0
C600 C 0.26106 0.11894 0.64052 0.0
C601 C 0.26243 0.16692 0.6133 0.0
C602 C 0.28953 0.07962 0.62524 0.0
C603 C 0.26083 0.03279 0.66744 0.0
N604 N 0.27245 0.14022 0.61893 0.0
N605 N 0.25714 0.06445 0.66492 0.0
H606 H 0.96102 0.77764 0.94624 0.0
H607 H 0.83248 0.84418 0.87195 0.0
H608 H 1.0041 0.86394 0.88786 0.0
H609 H 0.78361 0.74391 0.91924 0.0
H610 H 0.89478 0.848 0.875 0.0
H611 H 0.89554 0.76195 0.9353 0.0
C612 C 0.95675 0.7932 0.93109 0.0
C613 C 0.98824 0.82227 0.91803 0.0
C614 C 0.8704 0.8246 0.8843 0.0
C615 C 0.91334 0.80431 0.90532 0.0
C616 C 0.83478 0.82225 0.88235 0.0
C617 C 0.80295 0.79337 0.89503 0.0
C618 C 0.87454 0.79847 0.89969 0.0
C619 C 0.80745 0.76616 0.90879 0.0
C620 C 0.91934 0.78401 0.92472 0.0
C621 C 0.98084 0.84108 0.89832 0.0
N622 N 0.84281 0.76971 0.91111 0.0
N623 N 0.94432 0.83201 0.89275 0.0
H624 H 0.93276 0.05074 0.64928 0.0
H625 H 1.01516 0.27711 0.65117 0.0
H626 H 0.86477 0.10198 0.62873 0.0
H627 H 0.08293 0.22275 0.66177 0.0
H628 H 0.95691 0.21355 0.65071 0.0
H629 H 0.98514 0.11362 0.66108 0.0
C630 C 0.92883 0.07525 0.64723 0.0
C631 C 0.89447 0.07105 0.63759 0.0
C632 C 0.9845 0.21565 0.65364 0.0
C633 C 0.95456 0.14356 0.65131 0.0
C634 C 1.01762 0.25189 0.65421 0.0
C635 C 0.05379 0.25504 0.65649 0.0
C636 C 0.9878 0.18262 0.65553 0.0
C637 C 0.05556 0.2215 0.65988 0.0
C638 C 0.95873 0.11121 0.65413 0.0
C639 C 0.89076 0.10384 0.63604 0.0
N640 N 1.02317 0.18681 0.65909 0.0
N641 N 0.92058 0.13878 0.64256 0.0
H642 H 0.22083 0.16348 0.88319 0.0
H643 H 0.28888 0.02859 0.94701 0.0
H644 H 0.26178 0.17619 0.95999 0.0
H645 H 0.26543 0.02511 0.86731 0.0
H646 H 0.28474 0.08662 0.95084 0.0
H647 H 0.24153 0.11671 0.8757 0.0
C648 C 0.23462 0.1569 0.89841 0.0
C649 C 0.23913 0.17368 0.92238 0.0
C650 C 0.28118 0.07376 0.93236 0.0
C651 C 0.26258 0.11964 0.91393 0.0
C652 C 0.28382 0.04074 0.93017 0.0
C653 C 0.27781 0.02232 0.90679 0.0
C654 C 0.27149 0.08812 0.91111 0.0
C655 C 0.2708 0.03887 0.8856 0.0
C656 C 0.24632 0.13003 0.89411 0.0
C657 C 0.25685 0.16351 0.94137 0.0
N658 N 0.26721 0.07055 0.88832 0.0
N659 N 0.26759 0.13706 0.93679 0.0
H660 H 1.01576 0.89538 0.646 0.0
H661 H 0.78994 0.7505 0.63099 0.0
H662 H 0.97004 0.78758 0.6069 0.0
H663 H 0.84014 0.86377 0.66253 0.0
H664 H 0.85455 0.75846 0.62746 0.0
H665 H 0.95091 0.87959 0.6571 0.0
C666 C 0.99215 0.86815 0.63993 0.0
C667 C 0.99869 0.84286 0.62543 0.0
C668 C 0.85128 0.78126 0.63557 0.0
C669 C 0.92354 0.82466 0.63789 0.0
C670 C 0.81439 0.77651 0.63788 0.0
C671 C 0.80973 0.80651 0.64711 0.0
C672 C 0.88351 0.81615 0.64268 0.0
C673 C 0.84246 0.83995 0.65527 0.0
C674 C 0.95493 0.8592 0.64619 0.0
C675 C 0.96652 0.80827 0.61779 0.0
N676 N 0.8778 0.84393 0.65272 0.0
N677 N 0.9304 0.80026 0.62403 0.0
H678 H 1.02624 0.27076 0.9423 0.0
H679 H 0.88969 0.07052 0.87811 0.0
H680 H 0.03367 0.25061 0.86315 0.0
H681 H 0.86824 0.10232 0.95156 0.0
H682 H 0.93899 0.13706 0.87076 0.0
H683 H 0.96525 0.21094 0.94477 0.0
C684 C 1.01441 0.25402 0.92528 0.0
C685 C 0.03471 0.2656 0.90247 0.0
C686 C 0.92314 0.12955 0.88834 0.0
C687 C 0.9655 0.19626 0.90525 0.0
C688 C 0.89478 0.09151 0.89254 0.0
C689 C 0.8749 0.08047 0.91567 0.0
C690 C 0.932 0.15684 0.90745 0.0
C691 C 0.88331 0.10912 0.9337 0.0
C692 C 0.97966 0.21977 0.92669 0.0
C693 C 1.01851 0.24279 0.881 0.0
N694 N 0.91141 0.14574 0.92933 0.0
N695 N 0.98508 0.20879 0.88299 0.0
H696 H 0.34312 0.21073 0.32995 0.0
H697 H 0.38319 0.13 0.20251 0.0
H698 H 0.37798 0.12568 0.33101 0.0
H699 H 0.34202 0.20999 0.20661 0.0
H700 H 0.38931 0.13237 0.24898 0.0
H701 H 0.3513 0.21598 0.28444 0.0
C702 C 0.35281 0.19329 0.32052 0.0
C703 C 0.35955 0.1675 0.33416 0.0
C704 C 0.37931 0.14963 0.23961 0.0
C705 C 0.36842 0.17279 0.28166 0.0
C706 C 0.37592 0.14836 0.21317 0.0
C707 C 0.36186 0.16967 0.20084 0.0
C708 C 0.36873 0.17254 0.25355 0.0
C709 C 0.35268 0.19288 0.21539 0.0
C710 C 0.35745 0.19624 0.29445 0.0
C711 C 0.37244 0.14587 0.32105 0.0
N712 N 0.35615 0.19356 0.24088 0.0
N713 N 0.37602 0.14862 0.29535 0.0
H714 H 0.91194 0.73973 0.33377 0.0
H715 H 0.79098 0.66665 0.20527 0.0
H716 H 0.7889 0.66866 0.33404 0.0
H717 H 0.91414 0.73369 0.20988 0.0
H718 H 0.78792 0.66463 0.25184 0.0
H719 H 0.9118 0.73564 0.28802 0.0
C720 C 0.88477 0.7231 0.32412 0.0
C721 C 0.85038 0.70452 0.3377 0.0
C722 C 0.81556 0.67956 0.2426 0.0
C723 C 0.84987 0.69978 0.28487 0.0
C724 C 0.81731 0.68061 0.21608 0.0
C725 C 0.85288 0.70032 0.20379 0.0
C726 C 0.84967 0.69842 0.25673 0.0
C727 C 0.88612 0.71823 0.21858 0.0
C728 C 0.88469 0.72074 0.29791 0.0
C729 C 0.81604 0.68332 0.3242 0.0
N730 N 0.88367 0.7169 0.24417 0.0
N731 N 0.8166 0.68163 0.29842 0.0
H732 H 0.83299 0.1338 0.20528 0.0
H733 H 0.91527 0.25833 0.33156 0.0
H734 H 0.91329 0.25489 0.20285 0.0
H735 H 0.83964 0.13629 0.32884 0.0
H736 H 0.91041 0.26075 0.28511 0.0
H737 H 0.83012 0.13716 0.251 0.0
C738 C 0.84987 0.16126 0.21444 0.0
C739 C 0.87356 0.19406 0.2003 0.0
C740 C 0.8946 0.23357 0.29479 0.0
C741 C 0.87093 0.1982 0.25306 0.0
C742 C 0.89723 0.23223 0.32124 0.0
C743 C 0.87797 0.19702 0.33396 0.0
C744 C 0.87238 0.19947 0.28122 0.0
C745 C 0.85519 0.16401 0.31978 0.0
C746 C 0.84828 0.1632 0.24063 0.0
C747 C 0.89463 0.22894 0.21314 0.0
N748 N 0.85319 0.16605 0.29429 0.0
N749 N 0.89316 0.23008 0.23891 0.0
H750 H 0.15131 0.37646 0.70613 0.0
H751 H 0.20363 0.30443 0.83339 0.0
H752 H 0.22034 0.32245 0.70982 0.0
H753 H 0.14498 0.36912 0.83478 0.0
H754 H 0.21001 0.31224 0.78778 0.0
H755 H 0.14898 0.37615 0.75273 0.0
C756 C 0.16628 0.36495 0.71675 0.0
C757 C 0.18598 0.34937 0.70416 0.0
C758 C 0.19586 0.32499 0.79791 0.0
C759 C 0.1832 0.34861 0.75716 0.0
C760 C 0.19216 0.32045 0.82403 0.0
C761 C 0.17379 0.33618 0.83787 0.0
C762 C 0.18077 0.34517 0.78525 0.0
C763 C 0.15952 0.35672 0.82475 0.0
C764 C 0.16486 0.36468 0.74328 0.0
C765 C 0.20472 0.33464 0.71873 0.0
N766 N 0.16311 0.36047 0.79907 0.0
N767 N 0.2027 0.33447 0.74433 0.0
H768 H 0.2747 0.9155 0.83599 0.0
H769 H 0.15069 0.86877 0.70863 0.0
H770 H 0.15248 0.86978 0.83352 0.0
H771 H 0.27255 0.91198 0.70822 0.0
H772 H 0.15157 0.86861 0.75473 0.0
H773 H 0.27559 0.91419 0.78947 0.0
C774 C 0.24813 0.90505 0.82565 0.0
C775 C 0.21347 0.89263 0.83851 0.0
C776 C 0.1782 0.87807 0.74466 0.0
C777 C 0.21417 0.89123 0.78563 0.0
C778 C 0.17765 0.87814 0.71832 0.0
C779 C 0.21156 0.89033 0.7047 0.0
C780 C 0.21298 0.89043 0.75755 0.0
C781 C 0.24576 0.90223 0.71813 0.0
C782 C 0.24861 0.90436 0.79916 0.0
C783 C 0.17983 0.87963 0.82432 0.0
N784 N 0.24565 0.90207 0.74388 0.0
N785 N 0.18104 0.8793 0.79871 0.0
H786 H 0.72842 0.90375 0.70839 0.0
H787 H 0.68491 0.77996 0.83528 0.0
H788 H 0.68776 0.78269 0.70636 0.0
H789 H 0.73119 0.90194 0.8317 0.0
H790 H 0.67859 0.77719 0.78875 0.0
H791 H 0.72209 0.90054 0.75404 0.0
C792 C 0.71794 0.87633 0.71764 0.0
C793 C 0.70887 0.84351 0.70363 0.0
C794 C 0.68976 0.80442 0.79826 0.0
C795 C 0.70192 0.83953 0.75634 0.0
C796 C 0.69321 0.80597 0.82474 0.0
C797 C 0.70881 0.84128 0.83724 0.0
C798 C 0.70178 0.8384 0.78447 0.0
C799 C 0.71931 0.87416 0.82282 0.0
C800 C 0.71431 0.87447 0.74379 0.0
C801 C 0.69509 0.80867 0.71658 0.0
N802 N 0.71574 0.87191 0.79733 0.0
N803 N 0.69237 0.8076 0.74234 0.0
H804 H 0.35658 0.9554 0.97981 0.0
H805 H 0.30051 0.07971 0.06758 0.0
H806 H 0.24717 0.94911 0.9709 0.0
H807 H 0.41633 0.10703 0.0511 0.0
H808 H 0.27706 0.02901 0.03543 0.0
H809 H 0.37419 1.00458 1.01168 0.0
C810 C 0.33589 0.96393 0.98491 0.0
C811 C 0.30062 0.94858 0.9723 0.0
C812 C 0.30758 0.0465 0.03867 0.0
C813 C 0.32108 1.0059 1.00865 0.0
C814 C 0.32106 0.07563 0.05684 0.0
C815 C 0.3605 0.09751 0.0622 0.0
C816 C 0.33373 0.03894 0.02609 0.0
C817 C 0.38574 0.09086 0.04777 0.0
C818 C 0.34622 0.99246 1.0029 0.0
C819 C 0.27486 0.96054 0.9799 0.0
N820 N 0.37189 0.0619 0.0307 0.0
N821 N 0.28575 0.9889 0.99749 0.0
H822 H 0.70389 0.63386 0.47792 0.0
H823 H 0.76744 0.81266 0.56886 0.0
H824 H 0.8156 0.73408 0.47024 0.0
H825 H 0.65013 0.72812 0.55253 0.0
H826 H 0.78864 0.78477 0.53567 0.0
H827 H 0.68777 0.66623 0.51013 0.0
C828 C 0.72536 0.6626 0.48332 0.0
C829 C 0.76102 0.68138 0.47113 0.0
C830 C 0.75829 0.77274 0.53917 0.0
C831 C 0.74232 0.7192 0.508 0.0
C832 C 0.7461 0.78878 0.55795 0.0
C833 C 0.70687 0.77257 0.56363 0.0
C834 C 0.73108 0.73999 0.52623 0.0
C835 C 0.6806 0.74154 0.54896 0.0
C836 C 0.71591 0.68127 0.50155 0.0
C837 C 0.7877 0.71859 0.47907 0.0
N838 N 0.6932 0.72604 0.53126 0.0
N839 N 0.77773 0.73647 0.49696 0.0
H840 H 0.09658 0.40339 0.9788 0.0
H841 H 0.97154 0.22487 0.06836 0.0
H842 H 0.10137 0.29973 0.97 0.0
H843 H 0.94323 0.31186 0.04968 0.0
H844 H 1.02252 0.2516 0.03617 0.0
H845 H 0.04688 0.37206 1.01053 0.0
C846 C 0.08761 0.37408 0.98386 0.0
C847 C 0.10302 0.35412 0.97146 0.0
C848 C 1.00478 0.26444 0.03895 0.0
C849 C 0.04504 0.31751 1.00784 0.0
C850 C 0.97551 0.2491 0.05719 0.0
C851 C 0.95304 0.26622 0.06186 0.0
C852 C 1.01202 0.2975 0.02561 0.0
C853 C 0.95972 0.29769 0.04689 0.0
C854 C 0.0588 0.35604 1.00183 0.0
C855 C 0.09025 0.3162 0.97901 0.0
N856 N 0.98879 0.31251 0.02978 0.0
N857 N 0.06174 0.29895 0.99665 0.0
H858 H 0.29329 0.05943 0.46158 0.0
H859 H 0.3622 1.01673 0.59284 0.0
H860 H 0.40624 0.12551 0.49386 0.0
H861 H 0.25381 0.934 0.56002 0.0
H862 H 0.37299 0.05956 0.55855 0.0
H863 H 0.27343 1.01697 0.49868 0.0
C864 C 0.3137 0.0655 0.4767 0.0
C865 C 0.35162 0.09614 0.47465 0.0
C866 C 0.34681 0.03212 0.5585 0.0
C867 C 0.32903 0.0475 0.51689 0.0
C868 C 0.34045 1.0072 0.57826 0.0
C869 C 0.30711 0.97109 0.57935 0.0
C870 C 0.31999 0.02133 0.53897 0.0
C871 C 0.28007 0.96134 0.55984 0.0
C872 C 0.30236 0.04101 0.49772 0.0
C873 C 0.37683 0.10235 0.49461 0.0
N874 N 0.28724 0.98633 0.54022 0.0
N875 N 0.36512 0.07823 0.51474 0.0
H876 H 0.71283 0.63463 0.0606 0.0
H877 H 0.76996 0.81404 0.97178 0.0
H878 H 0.81867 0.73953 0.07407 0.0
H879 H 0.65361 0.72801 0.98914 0.0
H880 H 0.79272 0.78724 1.00494 0.0
H881 H 0.69631 0.66649 0.028 0.0
C882 C 0.73307 0.66429 0.05627 0.0
C883 C 0.76717 0.68443 0.0701 0.0
C884 C 0.76224 0.77468 1.00167 0.0
C885 C 0.7479 0.72156 0.03293 0.0
C886 C 0.74916 0.79006 0.9829 0.0
C887 C 0.70974 0.77315 0.97756 0.0
C888 C 0.73573 0.74179 1.01482 0.0
C889 C 0.68419 0.74199 0.99246 0.0
C890 C 0.72334 0.6826 0.03786 0.0
C891 C 0.79224 0.72287 0.06369 0.0
N892 N 0.69764 0.72705 1.01007 0.0
N893 N 0.782 0.74038 0.04559 0.0
H894 H 0.09341 0.27752 0.56843 0.0
H895 H 0.94769 0.31175 0.48546 0.0
H896 H 0.09412 0.38437 0.56517 0.0
H897 H 0.97399 0.22388 0.46549 0.0
H898 H 0.99698 0.33405 0.51823 0.0
H899 H 0.0484 0.25424 0.53242 0.0
C900 C 0.08538 0.29662 0.55942 0.0
C901 C 0.09829 0.3333 0.5693 0.0
C902 C 0.99191 0.30976 0.50678 0.0
C903 C 0.04516 0.3062 0.52933 0.0
C904 C 0.96337 0.29669 0.48822 0.0
C905 C 0.95659 0.26586 0.47262 0.0
C906 C 1.01376 0.2917 0.51012 0.0
C907 C 0.97817 0.24771 0.47711 0.0
C908 C 0.0592 0.28313 0.53919 0.0
C909 C 0.08557 0.35626 0.55772 0.0
N910 N 1.00577 0.26087 0.49542 0.0
N911 N 0.05945 0.34222 0.53865 0.0
H912 H 0.80203 0.25847 0.14128 0.0
H913 H 0.58541 0.10119 0.107 0.0
H914 H 0.77245 0.15886 0.09576 0.0
H915 H 0.61601 0.19408 0.15916 0.0
H916 H 0.6536 0.12483 0.09942 0.0
H917 H 0.73418 0.23868 0.14433 0.0
C918 C 0.78136 0.23264 0.13167 0.0
C919 C 0.79317 0.21024 0.11834 0.0
C920 C 0.6454 0.14009 0.11249 0.0
C921 C 0.71495 0.18714 0.122 0.0
C922 C 0.60643 0.12668 0.11676 0.0
C923 C 0.59481 0.14551 0.13387 0.0
C924 C 0.67315 0.17276 0.12528 0.0
C925 C 0.62349 0.17823 0.14612 0.0
C926 C 0.7425 0.22125 0.13353 0.0
C927 C 0.76483 0.17707 0.10627 0.0
N928 N 0.66119 0.19076 0.1416 0.0
N929 N 0.7271 0.16643 0.10851 0.0
H930 H 0.55515 0.45756 0.41434 0.0
H931 H 0.49461 0.23774 0.39371 0.0
H932 H 0.62122 0.42026 0.37115 0.0
H933 H 0.42202 0.27297 0.43092 0.0
H934 H 0.54374 0.30466 0.38889 0.0
H935 H 0.50852 0.39065 0.42374 0.0
C936 C 0.56 0.43536 0.40694 0.0
C937 C 0.59217 0.44469 0.39179 0.0
C938 C 0.51718 0.29783 0.39825 0.0
C939 C 0.53871 0.36785 0.40247 0.0
C940 C 0.48905 0.25949 0.40112 0.0
C941 C 0.45387 0.24949 0.41266 0.0
C942 C 0.5103 0.3267 0.40692 0.0
C943 C 0.44861 0.27918 0.42189 0.0
C944 C 0.53325 0.39712 0.41223 0.0
C945 C 0.59663 0.41455 0.38254 0.0
N946 N 0.47639 0.3164 0.41869 0.0
N947 N 0.57028 0.37762 0.38802 0.0
H948 H 0.95096 0.49572 0.12007 0.0
H949 H 0.78362 0.54547 0.14057 0.0
H950 H 0.83891 0.41493 0.14883 0.0
H951 H 0.89232 0.62297 0.10589 0.0
H952 H 0.80246 0.49664 0.14235 0.0
H953 H 0.9296 0.54224 0.11404 0.0
C954 C 0.92189 0.48775 0.1252 0.0
C955 C 0.89679 0.45128 0.13508 0.0
C956 C 0.82209 0.52422 0.13417 0.0
C957 C 0.87196 0.50451 0.12799 0.0
C958 C 0.8113 0.55219 0.13308 0.0
C959 C 0.83642 0.58863 0.12313 0.0
C960 C 0.85841 0.53266 0.12542 0.0
C961 C 0.87191 0.5954 0.11372 0.0
C962 C 0.90961 0.51428 0.12158 0.0
C963 C 0.85922 0.44249 0.14095 0.0
N964 N 0.88193 0.56786 0.11528 0.0
N965 N 0.84805 0.46892 0.13744 0.0
H966 H 0.61688 0.20362 0.38771 0.0
H967 H 0.77304 0.14679 0.43123 0.0
H968 H 0.58725 0.0926 0.41743 0.0
H969 H 0.80175 0.25626 0.39908 0.0
H970 H 0.7051 0.12777 0.42896 0.0
H971 H 0.68461 0.22426 0.39375 0.0
C972 C 0.62452 0.18346 0.39541 0.0
C973 C 0.59602 0.14614 0.40191 0.0
C974 C 0.72628 0.15605 0.42255 0.0
C975 C 0.67406 0.16993 0.4092 0.0
C976 C 0.76519 0.16703 0.42394 0.0
C977 C 0.79341 0.20322 0.41526 0.0
C978 C 0.7153 0.18136 0.41239 0.0
C979 C 0.78121 0.22804 0.40593 0.0
C980 C 0.66332 0.19539 0.39901 0.0
C981 C 0.60799 0.12171 0.41233 0.0
N982 N 0.74322 0.2166 0.40465 0.0
N983 N 0.64597 0.13396 0.41554 0.0
H984 H 0.4999 0.23951 0.14607 0.0
H985 H 0.56492 0.45935 0.12021 0.0
H986 H 0.43449 0.2753 0.10039 0.0
H987 H 0.62338 0.42195 0.1712 0.0
H988 H 0.51997 0.3925 0.10967 0.0
H989 H 0.54876 0.30635 0.15186 0.0
C990 C 0.49595 0.26136 0.13698 0.0
C991 C 0.46278 0.2516 0.12282 0.0
C992 C 0.54267 0.39893 0.12313 0.0
C993 C 0.51874 0.3286 0.12966 0.0
C994 C 0.56845 0.43712 0.12911 0.0
C995 C 0.59793 0.44638 0.14675 0.0
C996 C 0.54643 0.36966 0.13476 0.0
C997 C 0.60078 0.41625 0.15783 0.0
C998 C 0.52387 0.29963 0.14041 0.0
C999 C 0.45949 0.28136 0.11149 0.0
N1000 N 0.57542 0.37935 0.15166 0.0
N1001 N 0.48695 0.31848 0.1153 0.0
H1002 H 0.89589 0.62982 0.43071 0.0
H1003 H 0.83538 0.41505 0.39126 0.0
H1004 H 0.78508 0.54887 0.40014 0.0
H1005 H 0.94957 0.49865 0.41504 0.0
H1006 H 0.8151 0.4622 0.39777 0.0
H1007 H 0.91448 0.58073 0.42859 0.0
C1008 C 0.87528 0.60167 0.42379 0.0
C1009 C 0.83884 0.59368 0.4155 0.0
C1010 C 0.84458 0.47025 0.40163 0.0
C1011 C 0.86016 0.53723 0.41288 0.0
C1012 C 0.85617 0.44321 0.39805 0.0
C1013 C 0.89433 0.45278 0.40253 0.0
C1014 C 0.87124 0.50729 0.40985 0.0
C1015 C 0.92 0.49004 0.41098 0.0
C1016 C 0.88602 0.57366 0.42247 0.0
C1017 C 0.81353 0.55658 0.40664 0.0
N1018 N 0.90802 0.51586 0.41434 0.0
N1019 N 0.8247 0.52989 0.4055 0.0
H1020 H 0.28871 0.80369 0.63764 0.0
H1021 H 0.12005 0.58518 0.63324 0.0
H1022 H 0.17304 0.76871 0.61434 0.0
H1023 H 0.23709 0.6197 0.65235 0.0
H1024 H 0.13928 0.65198 0.62524 0.0
H1025 H 0.27105 0.73659 0.64122 0.0
C1026 C 0.25967 0.78197 0.63297 0.0
C1027 C 0.23231 0.79212 0.62574 0.0
C1028 C 0.16082 0.645 0.63113 0.0
C1029 C 0.21175 0.71476 0.63017 0.0
C1030 C 0.14979 0.6068 0.63594 0.0
C1031 C 0.1769 0.59662 0.64373 0.0
C1032 C 0.1993 0.67356 0.63418 0.0
C1033 C 0.21518 0.62602 0.64627 0.0
C1034 C 0.24959 0.74354 0.63512 0.0
C1035 C 0.19517 0.76245 0.61994 0.0
N1036 N 0.22517 0.66306 0.64164 0.0
N1037 N 0.18594 0.72522 0.62249 0.0
H1038 H 0.51744 0.94466 0.89838 0.0
H1039 H 0.56755 0.77612 0.90264 0.0
H1040 H 0.43357 0.82568 0.88751 0.0
H1041 H 0.64764 0.89213 0.92477 0.0
H1042 H 0.5182 0.79382 0.89725 0.0
H1043 H 0.56573 0.92637 0.90763 0.0
C1044 C 0.50917 0.9147 0.89783 0.0
C1045 C 0.47129 0.88671 0.89208 0.0
C1046 C 0.54647 0.81538 0.90347 0.0
C1047 C 0.52654 0.8655 0.90284 0.0
C1048 C 0.57474 0.80527 0.90659 0.0
C1049 C 0.61198 0.83267 0.91414 0.0
C1050 C 0.5554 0.85331 0.90764 0.0
C1051 C 0.61938 0.86998 0.919 0.0
C1052 C 0.53673 0.90425 0.90331 0.0
C1053 C 0.46224 0.84826 0.89206 0.0
N1054 N 0.59149 0.87925 0.91547 0.0
N1055 N 0.48963 0.83886 0.89722 0.0
H1056 H 0.47802 0.55993 0.60644 0.0
H1057 H 0.26155 0.49079 0.64892 0.0
H1058 H 0.44941 0.61349 0.66645 0.0
H1059 H 0.29267 0.42901 0.59657 0.0
H1060 H 0.32932 0.54 0.65226 0.0
H1061 H 0.40975 0.51568 0.59964 0.0
C1062 C 0.45743 0.56264 0.6181 0.0
C1063 C 0.46976 0.59061 0.63711 0.0
C1064 C 0.32126 0.51581 0.6399 0.0
C1065 C 0.391 0.53954 0.62945 0.0
C1066 C 0.28246 0.48776 0.63783 0.0
C1067 C 0.27115 0.45544 0.62249 0.0
C1068 C 0.34911 0.51174 0.62646 0.0
C1069 C 0.29982 0.45321 0.60872 0.0
C1070 C 0.41834 0.53716 0.61427 0.0
C1071 C 0.44146 0.59216 0.6518 0.0
N1072 N 0.33729 0.48077 0.61111 0.0
N1073 N 0.40354 0.56708 0.64766 0.0
H1074 H 0.16516 0.76439 0.92204 0.0
H1075 H 0.23685 0.61674 0.88818 0.0
H1076 H 0.28096 0.79878 0.89959 0.0
H1077 H 0.11761 0.58316 0.89665 0.0
H1078 H 0.25427 0.68296 0.89669 0.0
H1079 H 0.14819 0.69741 0.91743 0.0
C1080 C 0.18715 0.75795 0.9164 0.0
C1081 C 0.22457 0.78747 0.91112 0.0
C1082 C 0.22428 0.66112 0.89672 0.0
C1083 C 0.20517 0.71063 0.90568 0.0
C1084 C 0.2143 0.62322 0.89199 0.0
C1085 C 0.17566 0.59421 0.89164 0.0
C1086 C 0.19548 0.67031 0.90133 0.0
C1087 C 0.14772 0.60457 0.89641 0.0
C1088 C 0.17734 0.71964 0.91363 0.0
C1089 C 0.25171 0.77716 0.90375 0.0
N1090 N 0.15817 0.64169 0.90109 0.0
N1091 N 0.24147 0.73972 0.90123 0.0
H1092 H 0.49959 0.92633 0.62462 0.0
H1093 H 0.56973 0.77471 0.64838 0.0
H1094 H 0.44282 0.82914 0.67455 0.0
H1095 H 0.63505 0.8784 0.60521 0.0
H1096 H 0.51982 0.79125 0.65442 0.0
H1097 H 0.5464 0.90665 0.61408 0.0
C1098 C 0.4968 0.90073 0.63327 0.0
C1099 C 0.46721 0.87946 0.65061 0.0
C1100 C 0.54493 0.81032 0.64349 0.0
C1101 C 0.52088 0.8568 0.63862 0.0
C1102 C 0.57349 0.80082 0.63992 0.0
C1103 C 0.60692 0.82528 0.62635 0.0
C1104 C 0.54959 0.84462 0.63346 0.0
C1105 C 0.60987 0.85864 0.61581 0.0
C1106 C 0.52366 0.8896 0.62731 0.0
C1107 C 0.46539 0.84677 0.66139 0.0
N1108 N 0.58172 0.86743 0.61972 0.0
N1109 N 0.49177 0.83648 0.65522 0.0
H1110 H 0.47944 0.53635 0.91678 0.0
H1111 H 0.26146 0.48855 0.904 0.0
H1112 H 0.44677 0.61924 0.89516 0.0
H1113 H 0.29291 0.40577 0.92828 0.0
H1114 H 0.32915 0.53713 0.90237 0.0
H1115 H 0.41169 0.48865 0.92223 0.0
C1116 C 0.45809 0.54458 0.91309 0.0
C1117 C 0.4691 0.58204 0.90538 0.0
C1118 C 0.32132 0.50841 0.9082 0.0
C1119 C 0.39109 0.52733 0.91185 0.0
C1120 C 0.28251 0.48053 0.90918 0.0
C1121 C 0.27116 0.44273 0.91622 0.0
C1122 C 0.34937 0.49867 0.91416 0.0
C1123 C 0.30008 0.43441 0.92276 0.0
C1124 C 0.41934 0.51731 0.91638 0.0
C1125 C 0.43992 0.59097 0.90137 0.0
N1126 N 0.33775 0.46203 0.92142 0.0
N1127 N 0.40243 0.56387 0.90454 0.0
loop_
_geom_bond_atom_site_label_1
_geom_bond_atom_site_label_2
_geom_bond_distance
_geom_bond_site_symmetry_2
_ccdc_geom_bond_type
Nd0 C2 2.836 . S
Nd0 O20 2.500 . S
Nd0 O21 2.492 . S
Nd0 O22 2.487 . S
Nd0 O23 2.682 . S
Nd0 O24 2.410 . S
Nd0 O29 2.414 . S
Nd0 O31 2.424 . S
Nd1 C11 2.836 . S
Nd1 O23 2.414 . S
Nd1 O25 2.424 . S
Nd1 O26 2.500 . S
Nd1 O27 2.492 . S
Nd1 O28 2.487 . S
Nd1 O29 2.682 . S
Nd1 O30 2.410 . S
C2 Nd0 2.836 . S
C2 C3 1.498 . S
C2 O20 1.258 . S
C2 O21 1.239 . S
C3 C2 1.498 . S
C3 C4 1.366 . S
C3 C8 1.407 . S
C4 C3 1.366 . S
C4 C5 1.392 . S
C4 H32 0.930 . S
C5 C4 1.392 . S
C5 C6 1.398 . S
C5 H33 0.929 . S
C6 C5 1.398 . S
C6 C7 1.352 . S
C7 C6 1.352 . S
C7 C8 1.384 . S
C7 H34 0.930 . S
C8 C3 1.407 . S
C8 C7 1.384 . S
C8 H35 0.929 . S
C9 O22 1.241 . S
C9 O23 1.273 . S
C10 O24 1.251 . S
C10 O25 1.268 . S
C11 Nd1 2.836 . S
C11 C12 1.498 . S
C11 O26 1.258 . S
C11 O27 1.239 . S
C12 C11 1.498 . S
C12 C13 1.366 . S
C12 C17 1.407 . S
C13 C12 1.366 . S
C13 C14 1.392 . S
C13 H36 0.930 . S
C14 C13 1.392 . S
C14 C15 1.398 . S
C14 H37 0.929 . S
C15 C14 1.398 . S
C15 C16 1.352 . S
C16 C15 1.352 . S
C16 C17 1.384 . S
C16 H38 0.930 . S
C17 C12 1.407 . S
C17 C16 1.384 . S
C17 H39 0.929 . S
C18 O28 1.241 . S
C18 O29 1.273 . S
C19 O30 1.251 . S
C19 O31 1.268 . S
O20 Nd0 2.500 . S
O20 C2 1.258 . S
O21 Nd0 2.492 . S
O21 C2 1.239 . S
O22 Nd0 2.487 . S
O22 C9 1.241 . S
O23 Nd0 2.682 . S
O23 Nd1 2.414 . S
O23 C9 1.273 . S
O24 Nd0 2.410 . S
O24 C10 1.251 . S
O25 Nd1 2.424 . S
O25 C10 1.268 . S
O26 Nd1 2.500 . S
O26 C11 1.258 . S
O27 Nd1 2.492 . S
O27 C11 1.239 . S
O28 Nd1 2.487 . S
O28 C18 1.241 . S
O29 Nd0 2.414 . S
O29 Nd1 2.682 . S
O29 C18 1.273 . S
O30 Nd1 2.410 . S
O30 C19 1.251 . S
O31 Nd0 2.424 . S
O31 C19 1.268 . S
H32 C4 0.930 . S
H33 C5 0.929 . S
H34 C7 0.930 . S
H35 C8 0.929 . S
H36 C13 0.930 . S
H37 C14 0.929 . S
H38 C16 0.930 . S
H39 C17 0.929 . S
Nd40 C42 2.836 . S
Nd40 O60 2.500 . S
Nd40 O61 2.492 . S
Nd40 O62 2.487 . S
Nd40 O63 2.682 . S
Nd40 O64 2.410 . S
Nd40 O69 2.414 . S
Nd40 O71 2.424 . S
Nd41 C51 2.836 . S
Nd41 O63 2.414 . S
Nd41 O65 2.424 . S
Nd41 O66 2.500 . S
Nd41 O67 2.492 . S
Nd41 O68 2.487 . S
Nd41 O69 2.682 . S
Nd41 O70 2.410 . S
C42 Nd40 2.836 . S
C42 C43 1.498 . S
C42 O60 1.258 . S
C42 O61 1.239 . S
C43 C42 1.498 . S
C43 C44 1.366 . S
C43 C48 1.407 . S
C44 C43 1.366 . S
C44 C45 1.392 . S
C44 H72 0.930 . S
C45 C44 1.392 . S
C45 C46 1.398 1_655 S
C45 H73 0.929 . S
C46 C45 1.398 1_455 S
C46 C47 1.352 . S
C47 C46 1.352 . S
C47 C48 1.384 1_455 S
C47 H74 0.930 . S
C48 C43 1.407 . S
C48 C47 1.384 1_655 S
C48 H75 0.929 . S
C49 O62 1.241 . S
C49 O63 1.273 . S
C50 O64 1.251 . S
C50 O65 1.268 . S
C51 Nd41 2.836 . S
C51 C52 1.498 . S
C51 O66 1.258 . S
C51 O67 1.239 . S
C52 C51 1.498 . S
C52 C53 1.366 . S
C52 C57 1.407 . S
C53 C52 1.366 . S
C53 C54 1.392 . S
C53 H76 0.930 . S
C54 C53 1.392 . S
C54 C55 1.398 . S
C54 H77 0.929 . S
C55 C54 1.398 . S
C55 C56 1.352 . S
C56 C55 1.352 . S
C56 C57 1.384 . S
C56 H78 0.930 . S
C57 C52 1.407 . S
C57 C56 1.384 . S
C57 H79 0.929 . S
C58 O68 1.241 . S
C58 O69 1.273 . S
C59 O70 1.251 . S
C59 O71 1.268 . S
O60 Nd40 2.500 . S
O60 C42 1.258 . S
O61 Nd40 2.492 . S
O61 C42 1.239 . S
O62 Nd40 2.487 . S
O62 C49 1.241 . S
O63 Nd40 2.682 . S
O63 Nd41 2.414 . S
O63 C49 1.273 . S
O64 Nd40 2.410 . S
O64 C50 1.251 . S
O65 Nd41 2.424 . S
O65 C50 1.268 . S
O66 Nd41 2.500 . S
O66 C51 1.258 . S
O67 Nd41 2.492 . S
O67 C51 1.239 . S
O68 Nd41 2.487 . S
O68 C58 1.241 . S
O69 Nd40 2.414 . S
O69 Nd41 2.682 . S
O69 C58 1.273 . S
O70 Nd41 2.410 . S
O70 C59 1.251 . S
O71 Nd40 2.424 . S
O71 C59 1.268 . S
H72 C44 0.930 . S
H73 C45 0.929 . S
H74 C47 0.930 . S
H75 C48 0.929 . S
H76 C53 0.930 . S
H77 C54 0.929 . S
H78 C56 0.930 . S
H79 C57 0.929 . S
Nd80 C82 2.836 . S
Nd80 O100 2.500 . S
Nd80 O101 2.492 . S
Nd80 O102 2.487 . S
Nd80 O103 2.682 . S
Nd80 O104 2.410 . S
Nd80 O109 2.414 . S
Nd80 O111 2.424 . S
Nd81 C91 2.836 . S
Nd81 O103 2.414 . S
Nd81 O105 2.424 . S
Nd81 O106 2.500 . S
Nd81 O107 2.492 . S
Nd81 O108 2.487 . S
Nd81 O109 2.682 . S
Nd81 O110 2.410 . S
C82 Nd80 2.836 . S
C82 C83 1.498 . S
C82 O100 1.258 . S
C82 O101 1.239 . S
C83 C82 1.498 . S
C83 C84 1.366 . S
C83 C88 1.407 . S
C84 C83 1.366 . S
C84 C85 1.392 . S
C84 H112 0.930 . S
C85 C84 1.392 . S
C85 C86 1.398 . S
C85 H113 0.929 . S
C86 C85 1.398 . S
C86 C87 1.352 . S
C87 C86 1.352 . S
C87 C88 1.384 . S
C87 H114 0.930 . S
C88 C83 1.407 . S
C88 C87 1.384 . S
C88 H115 0.929 . S
C89 O102 1.241 . S
C89 O103 1.273 . S
C90 O104 1.251 . S
C90 O105 1.268 . S
C91 Nd81 2.836 . S
C91 C92 1.498 . S
C91 O106 1.258 . S
C91 O107 1.239 . S
C92 C91 1.498 . S
C92 C93 1.366 . S
C92 C97 1.407 . S
C93 C92 1.366 . S
C93 C94 1.392 . S
C93 H116 0.930 . S
C94 C93 1.392 . S
C94 C95 1.398 1_545 S
C94 H117 0.929 . S
C95 C94 1.398 1_565 S
C95 C96 1.352 . S
C96 C95 1.352 . S
C96 C97 1.384 1_565 S
C96 H118 0.930 . S
C97 C92 1.407 . S
C97 C96 1.384 1_545 S
C97 H119 0.929 . S
C98 O108 1.241 . S
C98 O109 1.273 . S
C99 O110 1.251 . S
C99 O111 1.268 . S
O100 Nd80 2.500 . S
O100 C82 1.258 . S
O101 Nd80 2.492 . S
O101 C82 1.239 . S
O102 Nd80 2.487 . S
O102 C89 1.241 . S
O103 Nd80 2.682 . S
O103 Nd81 2.414 . S
O103 C89 1.273 . S
O104 Nd80 2.410 . S
O104 C90 1.251 . S
O105 Nd81 2.424 . S
O105 C90 1.268 . S
O106 Nd81 2.500 . S
O106 C91 1.258 . S
O107 Nd81 2.492 . S
O107 C91 1.239 . S
O108 Nd81 2.487 . S
O108 C98 1.241 . S
O109 Nd80 2.414 . S
O109 Nd81 2.682 . S
O109 C98 1.273 . S
O110 Nd81 2.410 . S
O110 C99 1.251 . S
O111 Nd80 2.424 . S
O111 C99 1.268 . S
H112 C84 0.930 . S
H113 C85 0.929 . S
H114 C87 0.930 . S
H115 C88 0.929 . S
H116 C93 0.930 . S
H117 C94 0.929 . S
H118 C96 0.930 . S
H119 C97 0.929 . S
Nd120 C122 2.836 . S
Nd120 O140 2.500 . S
Nd120 O141 2.492 . S
Nd120 O142 2.487 . S
Nd120 O143 2.682 . S
Nd120 O144 2.410 . S
Nd120 O149 2.414 . S
Nd120 O151 2.424 . S
Nd121 C131 2.836 . S
Nd121 O143 2.414 . S
Nd121 O145 2.424 . S
Nd121 O146 2.500 . S
Nd121 O147 2.492 . S
Nd121 O148 2.487 . S
Nd121 O149 2.682 . S
Nd121 O150 2.410 . S
C122 Nd120 2.836 . S
C122 C123 1.498 . S
C122 O140 1.258 . S
C122 O141 1.239 . S
C123 C122 1.498 . S
C123 C124 1.366 . S
C123 C128 1.407 . S
C124 C123 1.366 . S
C124 C125 1.392 . S
C124 H152 0.930 . S
C125 C124 1.392 . S
C125 C126 1.398 . S
C125 H153 0.929 . S
C126 C125 1.398 . S
C126 C127 1.352 . S
C127 C126 1.352 . S
C127 C128 1.384 . S
C127 H154 0.930 . S
C128 C123 1.407 . S
C128 C127 1.384 . S
C128 H155 0.929 . S
C129 O142 1.241 . S
C129 O143 1.273 . S
C130 O144 1.251 . S
C130 O145 1.268 . S
C131 Nd121 2.836 . S
C131 C132 1.498 . S
C131 O146 1.258 . S
C131 O147 1.239 . S
C132 C131 1.498 . S
C132 C133 1.366 . S
C132 C137 1.407 . S
C133 C132 1.366 . S
C133 C134 1.392 . S
C133 H156 0.930 . S
C134 C133 1.392 . S
C134 C135 1.398 . S
C134 H157 0.929 . S
C135 C134 1.398 . S
C135 C136 1.352 . S
C136 C135 1.352 . S
C136 C137 1.384 . S
C136 H158 0.930 . S
C137 C132 1.407 . S
C137 C136 1.384 . S
C137 H159 0.929 . S
C138 O148 1.241 . S
C138 O149 1.273 . S
C139 O150 1.251 . S
C139 O151 1.268 . S
O140 Nd120 2.500 . S
O140 C122 1.258 . S
O141 Nd120 2.492 . S
O141 C122 1.239 . S
O142 Nd120 2.487 . S
O142 C129 1.241 . S
O143 Nd120 2.682 . S
O143 Nd121 2.414 . S
O143 C129 1.273 . S
O144 Nd120 2.410 . S
O144 C130 1.251 . S
O145 Nd121 2.424 . S
O145 C130 1.268 . S
O146 Nd121 2.500 . S
O146 C131 1.258 . S
O147 Nd121 2.492 . S
O147 C131 1.239 . S
O148 Nd121 2.487 . S
O148 C138 1.241 . S
O149 Nd120 2.414 . S
O149 Nd121 2.682 . S
O149 C138 1.273 . S
O150 Nd121 2.410 . S
O150 C139 1.251 . S
O151 Nd120 2.424 . S
O151 C139 1.268 . S
H152 C124 0.930 . S
H153 C125 0.929 . S
H154 C127 0.930 . S
H155 C128 0.929 . S
H156 C133 0.930 . S
H157 C134 0.929 . S
H158 C136 0.930 . S
H159 C137 0.929 . S
Nd160 C162 2.836 . S
Nd160 O180 2.500 . S
Nd160 O181 2.492 . S
Nd160 O182 2.487 . S
Nd160 O183 2.682 . S
Nd160 O184 2.410 . S
Nd160 O189 2.414 . S
Nd160 O191 2.424 . S
Nd161 C171 2.836 . S
Nd161 O183 2.414 . S
Nd161 O185 2.424 . S
Nd161 O186 2.500 . S
Nd161 O187 2.492 . S
Nd161 O188 2.487 . S
Nd161 O189 2.682 . S
Nd161 O190 2.410 . S
C162 Nd160 2.836 . S
C162 C163 1.498 . S
C162 O180 1.258 . S
C162 O181 1.239 . S
C163 C162 1.498 . S
C163 C164 1.366 . S
C163 C168 1.407 . S
C164 C163 1.366 . S
C164 C165 1.392 . S
C164 H192 0.930 . S
C165 C164 1.392 . S
C165 C166 1.398 . S
C165 H193 0.929 . S
C166 C165 1.398 . S
C166 C167 1.352 . S
C167 C166 1.352 . S
C167 C168 1.384 . S
C167 H194 0.930 . S
C168 C163 1.407 . S
C168 C167 1.384 . S
C168 H195 0.929 . S
C169 O182 1.241 . S
C169 O183 1.273 . S
C170 O184 1.251 . S
C170 O185 1.268 . S
C171 Nd161 2.836 . S
C171 C172 1.498 . S
C171 O186 1.258 . S
C171 O187 1.239 . S
C172 C171 1.498 . S
C172 C173 1.366 . S
C172 C177 1.407 . S
C173 C172 1.366 . S
C173 C174 1.392 . S
C173 H196 0.930 . S
C174 C173 1.392 . S
C174 C175 1.398 1_655 S
C174 H197 0.929 . S
C175 C174 1.398 1_455 S
C175 C176 1.352 . S
C176 C175 1.352 . S
C176 C177 1.384 1_455 S
C176 H198 0.930 . S
C177 C172 1.407 . S
C177 C176 1.384 1_655 S
C177 H199 0.929 . S
C178 O188 1.241 . S
C178 O189 1.273 . S
C179 O190 1.251 . S
C179 O191 1.268 . S
O180 Nd160 2.500 . S
O180 C162 1.258 . S
O181 Nd160 2.492 . S
O181 C162 1.239 . S
O182 Nd160 2.487 . S
O182 C169 1.241 . S
O183 Nd160 2.682 . S
O183 Nd161 2.414 . S
O183 C169 1.273 . S
O184 Nd160 2.410 . S
O184 C170 1.251 . S
O185 Nd161 2.424 . S
O185 C170 1.268 . S
O186 Nd161 2.500 . S
O186 C171 1.258 . S
O187 Nd161 2.492 . S
O187 C171 1.239 . S
O188 Nd161 2.487 . S
O188 C178 1.241 . S
O189 Nd160 2.414 . S
O189 Nd161 2.682 . S
O189 C178 1.273 . S
O190 Nd161 2.410 . S
O190 C179 1.251 . S
O191 Nd160 2.424 . S
O191 C179 1.268 . S
H192 C164 0.930 . S
H193 C165 0.929 . S
H194 C167 0.930 . S
H195 C168 0.929 . S
H196 C173 0.930 . S
H197 C174 0.929 . S
H198 C176 0.930 . S
H199 C177 0.929 . S
Nd200 C202 2.836 . S
Nd200 O220 2.500 . S
Nd200 O221 2.492 . S
Nd200 O222 2.487 . S
Nd200 O223 2.682 . S
Nd200 O224 2.410 . S
Nd200 O229 2.414 . S
Nd200 O231 2.424 . S
Nd201 C211 2.836 . S
Nd201 O223 2.414 . S
Nd201 O225 2.424 . S
Nd201 O226 2.500 . S
Nd201 O227 2.492 . S
Nd201 O228 2.487 . S
Nd201 O229 2.682 . S
Nd201 O230 2.410 . S
C202 Nd200 2.836 . S
C202 C203 1.498 . S
C202 O220 1.258 . S
C202 O221 1.239 . S
C203 C202 1.498 . S
C203 C204 1.366 . S
C203 C208 1.407 . S
C204 C203 1.366 . S
C204 C205 1.392 . S
C204 H232 0.930 . S
C205 C204 1.392 . S
C205 C206 1.398 1_545 S
C205 H233 0.929 . S
C206 C205 1.398 1_565 S
C206 C207 1.352 . S
C207 C206 1.352 . S
C207 C208 1.384 1_565 S
C207 H234 0.930 . S
C208 C203 1.407 . S
C208 C207 1.384 1_545 S
C208 H235 0.929 . S
C209 O222 1.241 . S
C209 O223 1.273 . S
C210 O224 1.251 . S
C210 O225 1.268 . S
C211 Nd201 2.836 . S
C211 C212 1.498 . S
C211 O226 1.258 . S
C211 O227 1.239 . S
C212 C211 1.498 . S
C212 C213 1.366 . S
C212 C217 1.407 . S
C213 C212 1.366 . S
C213 C214 1.392 . S
C213 H236 0.930 . S
C214 C213 1.392 . S
C214 C215 1.398 . S
C214 H237 0.929 . S
C215 C214 1.398 . S
C215 C216 1.352 . S
C216 C215 1.352 . S
C216 C217 1.384 . S
C216 H238 0.930 . S
C217 C212 1.407 . S
C217 C216 1.384 . S
C217 H239 0.929 . S
C218 O228 1.241 . S
C218 O229 1.273 . S
C219 O230 1.251 . S
C219 O231 1.268 . S
O220 Nd200 2.500 . S
O220 C202 1.258 . S
O221 Nd200 2.492 . S
O221 C202 1.239 . S
O222 Nd200 2.487 . S
O222 C209 1.241 . S
O223 Nd200 2.682 . S
O223 Nd201 2.414 . S
O223 C209 1.273 . S
O224 Nd200 2.410 . S
O224 C210 1.251 . S
O225 Nd201 2.424 . S
O225 C210 1.268 . S
O226 Nd201 2.500 . S
O226 C211 1.258 . S
O227 Nd201 2.492 . S
O227 C211 1.239 . S
O228 Nd201 2.487 . S
O228 C218 1.241 . S
O229 Nd200 2.414 . S
O229 Nd201 2.682 . S
O229 C218 1.273 . S
O230 Nd201 2.410 . S
O230 C219 1.251 . S
O231 Nd200 2.424 . S
O231 C219 1.268 . S
H232 C204 0.930 . S
H233 C205 0.929 . S
H234 C207 0.930 . S
H235 C208 0.929 . S
H236 C213 0.930 . S
H237 C214 0.929 . S
H238 C216 0.930 . S
H239 C217 0.929 . S
Nd240 C242 2.836 . S
Nd240 O260 2.500 . S
Nd240 O261 2.492 . S
Nd240 O262 2.487 . S
Nd240 O263 2.682 . S
Nd240 O264 2.410 . S
Nd240 O269 2.414 . S
Nd240 O271 2.424 . S
Nd241 C251 2.836 . S
Nd241 O263 2.414 . S
Nd241 O265 2.424 . S
Nd241 O266 2.500 . S
Nd241 O267 2.492 . S
Nd241 O268 2.487 . S
Nd241 O269 2.682 . S
Nd241 O270 2.410 . S
C242 Nd240 2.836 . S
C242 C243 1.498 . S
C242 O260 1.258 . S
C242 O261 1.239 . S
C243 C242 1.498 . S
C243 C244 1.366 . S
C243 C248 1.407 . S
C244 C243 1.366 . S
C244 C245 1.392 . S
C244 H272 0.930 . S
C245 C244 1.392 . S
C245 C246 1.398 . S
C245 H273 0.929 . S
C246 C245 1.398 . S
C246 C247 1.352 . S
C247 C246 1.352 . S
C247 C248 1.384 . S
C247 H274 0.930 . S
C248 C243 1.407 . S
C248 C247 1.384 . S
C248 H275 0.929 . S
C249 O262 1.241 . S
C249 O263 1.273 . S
C250 O264 1.251 . S
C250 O265 1.268 . S
C251 Nd241 2.836 . S
C251 C252 1.498 . S
C251 O266 1.258 . S
C251 O267 1.239 . S
C252 C251 1.498 . S
C252 C253 1.366 . S
C252 C257 1.407 . S
C253 C252 1.366 . S
C253 C254 1.392 . S
C253 H276 0.930 . S
C254 C253 1.392 . S
C254 C255 1.398 . S
C254 H277 0.929 . S
C255 C254 1.398 . S
C255 C256 1.352 . S
C256 C255 1.352 . S
C256 C257 1.384 . S
C256 H278 0.930 . S
C257 C252 1.407 . S
C257 C256 1.384 . S
C257 H279 0.929 . S
C258 O268 1.241 . S
C258 O269 1.273 . S
C259 O270 1.251 . S
C259 O271 1.268 . S
O260 Nd240 2.500 . S
O260 C242 1.258 . S
O261 Nd240 2.492 . S
O261 C242 1.239 . S
O262 Nd240 2.487 . S
O262 C249 1.241 . S
O263 Nd240 2.682 . S
O263 Nd241 2.414 . S
O263 C249 1.273 . S
O264 Nd240 2.410 . S
O264 C250 1.251 . S
O265 Nd241 2.424 . S
O265 C250 1.268 . S
O266 Nd241 2.500 . S
O266 C251 1.258 . S
O267 Nd241 2.492 . S
O267 C251 1.239 . S
O268 Nd241 2.487 . S
O268 C258 1.241 . S
O269 Nd240 2.414 . S
O269 Nd241 2.682 . S
O269 C258 1.273 . S
O270 Nd241 2.410 . S
O270 C259 1.251 . S
O271 Nd240 2.424 . S
O271 C259 1.268 . S
H272 C244 0.930 . S
H273 C245 0.929 . S
H274 C247 0.930 . S
H275 C248 0.929 . S
H276 C253 0.930 . S
H277 C254 0.929 . S
H278 C256 0.930 . S
H279 C257 0.929 . S
Nd280 C282 2.836 . S
Nd280 O300 2.500 . S
Nd280 O301 2.492 . S
Nd280 O302 2.487 . S
Nd280 O303 2.682 . S
Nd280 O304 2.410 . S
Nd280 O309 2.414 . S
Nd280 O311 2.424 . S
Nd281 C291 2.836 . S
Nd281 O303 2.414 . S
Nd281 O305 2.424 . S
Nd281 O306 2.500 . S
Nd281 O307 2.492 . S
Nd281 O308 2.487 . S
Nd281 O309 2.682 . S
Nd281 O310 2.410 . S
C282 Nd280 2.836 . S
C282 C283 1.498 . S
C282 O300 1.258 . S
C282 O301 1.239 . S
C283 C282 1.498 . S
C283 C284 1.366 . S
C283 C288 1.407 . S
C284 C283 1.366 . S
C284 C285 1.392 . S
C284 H312 0.930 . S
C285 C284 1.392 . S
C285 C286 1.398 . S
C285 H313 0.929 . S
C286 C285 1.398 . S
C286 C287 1.352 . S
C287 C286 1.352 . S
C287 C288 1.384 . S
C287 H314 0.930 . S
C288 C283 1.407 . S
C288 C287 1.384 . S
C288 H315 0.929 . S
C289 O302 1.241 . S
C289 O303 1.273 . S
C290 O304 1.251 . S
C290 O305 1.268 . S
C291 Nd281 2.836 . S
C291 C292 1.498 . S
C291 O306 1.258 . S
C291 O307 1.239 . S
C292 C291 1.498 . S
C292 C293 1.366 . S
C292 C297 1.407 . S
C293 C292 1.366 . S
C293 C294 1.392 . S
C293 H316 0.930 . S
C294 C293 1.392 . S
C294 C295 1.398 1_455 S
C294 H317 0.929 . S
C295 C294 1.398 1_655 S
C295 C296 1.352 . S
C296 C295 1.352 . S
C296 C297 1.384 1_655 S
C296 H318 0.930 . S
C297 C292 1.407 . S
C297 C296 1.384 1_455 S
C297 H319 0.929 . S
C298 O308 1.241 . S
C298 O309 1.273 . S
C299 O310 1.251 . S
C299 O311 1.268 . S
O300 Nd280 2.500 . S
O300 C282 1.258 . S
O301 Nd280 2.492 . S
O301 C282 1.239 . S
O302 Nd280 2.487 . S
O302 C289 1.241 . S
O303 Nd280 2.682 . S
O303 Nd281 2.414 . S
O303 C289 1.273 . S
O304 Nd280 2.410 . S
O304 C290 1.251 . S
O305 Nd281 2.424 . S
O305 C290 1.268 . S
O306 Nd281 2.500 . S
O306 C291 1.258 . S
O307 Nd281 2.492 . S
O307 C291 1.239 . S
O308 Nd281 2.487 . S
O308 C298 1.241 . S
O309 Nd280 2.414 . S
O309 Nd281 2.682 . S
O309 C298 1.273 . S
O310 Nd281 2.410 . S
O310 C299 1.251 . S
O311 Nd280 2.424 . S
O311 C299 1.268 . S
H312 C284 0.930 . S
H313 C285 0.929 . S
H314 C287 0.930 . S
H315 C288 0.929 . S
H316 C293 0.930 . S
H317 C294 0.929 . S
H318 C296 0.930 . S
H319 C297 0.929 . S
Nd320 C322 2.836 . S
Nd320 O340 2.500 . S
Nd320 O341 2.492 . S
Nd320 O342 2.487 . S
Nd320 O343 2.682 . S
Nd320 O344 2.410 . S
Nd320 O349 2.414 . S
Nd320 O351 2.424 . S
Nd321 C331 2.836 . S
Nd321 O343 2.414 . S
Nd321 O345 2.424 . S
Nd321 O346 2.500 . S
Nd321 O347 2.492 . S
Nd321 O348 2.487 . S
Nd321 O349 2.682 . S
Nd321 O350 2.410 . S
C322 Nd320 2.836 . S
C322 C323 1.498 . S
C322 O340 1.258 . S
C322 O341 1.239 . S
C323 C322 1.498 . S
C323 C324 1.366 . S
C323 C328 1.407 . S
C324 C323 1.366 . S
C324 C325 1.392 . S
C324 H352 0.930 . S
C325 C324 1.392 . S
C325 C326 1.398 1_565 S
C325 H353 0.929 . S
C326 C325 1.398 1_545 S
C326 C327 1.352 . S
C327 C326 1.352 . S
C327 C328 1.384 1_545 S
C327 H354 0.930 . S
C328 C323 1.407 . S
C328 C327 1.384 1_565 S
C328 H355 0.929 . S
C329 O342 1.241 . S
C329 O343 1.273 . S
C330 O344 1.251 . S
C330 O345 1.268 . S
C331 Nd321 2.836 . S
C331 C332 1.498 . S
C331 O346 1.258 . S
C331 O347 1.239 . S
C332 C331 1.498 . S
C332 C333 1.366 . S
C332 C337 1.407 . S
C333 C332 1.366 . S
C333 C334 1.392 . S
C333 H356 0.930 . S
C334 C333 1.392 . S
C334 C335 1.398 . S
C334 H357 0.929 . S
C335 C334 1.398 . S
C335 C336 1.352 . S
C336 C335 1.352 . S
C336 C337 1.384 . S
C336 H358 0.930 . S
C337 C332 1.407 . S
C337 C336 1.384 . S
C337 H359 0.929 . S
C338 O348 1.241 . S
C338 O349 1.273 . S
C339 O350 1.251 . S
C339 O351 1.268 . S
O340 Nd320 2.500 . S
O340 C322 1.258 . S
O341 Nd320 2.492 . S
O341 C322 1.239 . S
O342 Nd320 2.487 . S
O342 C329 1.241 . S
O343 Nd320 2.682 . S
O343 Nd321 2.414 . S
O343 C329 1.273 . S
O344 Nd320 2.410 . S
O344 C330 1.251 . S
O345 Nd321 2.424 . S
O345 C330 1.268 . S
O346 Nd321 2.500 . S
O346 C331 1.258 . S
O347 Nd321 2.492 . S
O347 C331 1.239 . S
O348 Nd321 2.487 . S
O348 C338 1.241 . S
O349 Nd320 2.414 . S
O349 Nd321 2.682 . S
O349 C338 1.273 . S
O350 Nd321 2.410 . S
O350 C339 1.251 . S
O351 Nd320 2.424 . S
O351 C339 1.268 . S
H352 C324 0.930 . S
H353 C325 0.929 . S
H354 C327 0.930 . S
H355 C328 0.929 . S
H356 C333 0.930 . S
H357 C334 0.929 . S
H358 C336 0.930 . S
H359 C337 0.929 . S
Nd360 C362 2.836 . S
Nd360 O380 2.500 . S
Nd360 O381 2.492 . S
Nd360 O382 2.487 . S
Nd360 O383 2.682 . S
Nd360 O384 2.410 . S
Nd360 O389 2.414 . S
Nd360 O391 2.424 . S
Nd361 C371 2.836 . S
Nd361 O383 2.414 . S
Nd361 O385 2.424 . S
Nd361 O386 2.500 . S
Nd361 O387 2.492 . S
Nd361 O388 2.487 . S
Nd361 O389 2.682 . S
Nd361 O390 2.410 . S
C362 Nd360 2.836 . S
C362 C363 1.498 . S
C362 O380 1.258 . S
C362 O381 1.239 . S
C363 C362 1.498 . S
C363 C364 1.366 . S
C363 C368 1.407 . S
C364 C363 1.366 . S
C364 C365 1.392 . S
C364 H392 0.930 . S
C365 C364 1.392 . S
C365 C366 1.398 . S
C365 H393 0.929 . S
C366 C365 1.398 . S
C366 C367 1.352 . S
C367 C366 1.352 . S
C367 C368 1.384 . S
C367 H394 0.930 . S
C368 C363 1.407 . S
C368 C367 1.384 . S
C368 H395 0.929 . S
C369 O382 1.241 . S
C369 O383 1.273 . S
C370 O384 1.251 . S
C370 O385 1.268 . S
C371 Nd361 2.836 . S
C371 C372 1.498 . S
C371 O386 1.258 . S
C371 O387 1.239 . S
C372 C371 1.498 . S
C372 C373 1.366 . S
C372 C377 1.407 . S
C373 C372 1.366 . S
C373 C374 1.392 . S
C373 H396 0.930 . S
C374 C373 1.392 . S
C374 C375 1.398 . S
C374 H397 0.929 . S
C375 C374 1.398 . S
C375 C376 1.352 . S
C376 C375 1.352 . S
C376 C377 1.384 . S
C376 H398 0.930 . S
C377 C372 1.407 . S
C377 C376 1.384 . S
C377 H399 0.929 . S
C378 O388 1.241 . S
C378 O389 1.273 . S
C379 O390 1.251 . S
C379 O391 1.268 . S
O380 Nd360 2.500 . S
O380 C362 1.258 . S
O381 Nd360 2.492 . S
O381 C362 1.239 . S
O382 Nd360 2.487 . S
O382 C369 1.241 . S
O383 Nd360 2.682 . S
O383 Nd361 2.414 . S
O383 C369 1.273 . S
O384 Nd360 2.410 . S
O384 C370 1.251 . S
O385 Nd361 2.424 . S
O385 C370 1.268 . S
O386 Nd361 2.500 . S
O386 C371 1.258 . S
O387 Nd361 2.492 . S
O387 C371 1.239 . S
O388 Nd361 2.487 . S
O388 C378 1.241 . S
O389 Nd360 2.414 . S
O389 Nd361 2.682 . S
O389 C378 1.273 . S
O390 Nd361 2.410 . S
O390 C379 1.251 . S
O391 Nd360 2.424 . S
O391 C379 1.268 . S
H392 C364 0.930 . S
H393 C365 0.929 . S
H394 C367 0.930 . S
H395 C368 0.929 . S
H396 C373 0.930 . S
H397 C374 0.929 . S
H398 C376 0.930 . S
H399 C377 0.929 . S
Nd400 C402 2.836 . S
Nd400 O420 2.500 . S
Nd400 O421 2.492 . S
Nd400 O422 2.487 . S
Nd400 O423 2.682 . S
Nd400 O424 2.410 . S
Nd400 O429 2.414 . S
Nd400 O431 2.424 . S
Nd401 C411 2.836 . S
Nd401 O423 2.414 . S
Nd401 O425 2.424 . S
Nd401 O426 2.500 . S
Nd401 O427 2.492 . S
Nd401 O428 2.487 . S
Nd401 O429 2.682 . S
Nd401 O430 2.410 . S
C402 Nd400 2.836 . S
C402 C403 1.498 . S
C402 O420 1.258 . S
C402 O421 1.239 . S
C403 C402 1.498 . S
C403 C404 1.366 . S
C403 C408 1.407 . S
C404 C403 1.366 . S
C404 C405 1.392 . S
C404 H432 0.930 . S
C405 C404 1.392 . S
C405 C406 1.398 1_455 S
C405 H433 0.929 . S
C406 C405 1.398 1_655 S
C406 C407 1.352 . S
C407 C406 1.352 . S
C407 C408 1.384 1_655 S
C407 H434 0.930 . S
C408 C403 1.407 . S
C408 C407 1.384 1_455 S
C408 H435 0.929 . S
C409 O422 1.241 . S
C409 O423 1.273 . S
C410 O424 1.251 . S
C410 O425 1.268 . S
C411 Nd401 2.836 . S
C411 C412 1.498 . S
C411 O426 1.258 . S
C411 O427 1.239 . S
C412 C411 1.498 . S
C412 C413 1.366 . S
C412 C417 1.407 . S
C413 C412 1.366 . S
C413 C414 1.392 . S
C413 H436 0.930 . S
C414 C413 1.392 . S
C414 C415 1.398 . S
C414 H437 0.929 . S
C415 C414 1.398 . S
C415 C416 1.352 . S
C416 C415 1.352 . S
C416 C417 1.384 . S
C416 H438 0.930 . S
C417 C412 1.407 . S
C417 C416 1.384 . S
C417 H439 0.929 . S
C418 O428 1.241 . S
C418 O429 1.273 . S
C419 O430 1.251 . S
C419 O431 1.268 . S
O420 Nd400 2.500 . S
O420 C402 1.258 . S
O421 Nd400 2.492 . S
O421 C402 1.239 . S
O422 Nd400 2.487 . S
O422 C409 1.241 . S
O423 Nd400 2.682 . S
O423 Nd401 2.414 . S
O423 C409 1.273 . S
O424 Nd400 2.410 . S
O424 C410 1.251 . S
O425 Nd401 2.424 . S
O425 C410 1.268 . S
O426 Nd401 2.500 . S
O426 C411 1.258 . S
O427 Nd401 2.492 . S
O427 C411 1.239 . S
O428 Nd401 2.487 . S
O428 C418 1.241 . S
O429 Nd400 2.414 . S
O429 Nd401 2.682 . S
O429 C418 1.273 . S
O430 Nd401 2.410 . S
O430 C419 1.251 . S
O431 Nd400 2.424 . S
O431 C419 1.268 . S
H432 C404 0.930 . S
H433 C405 0.929 . S
H434 C407 0.930 . S
H435 C408 0.929 . S
H436 C413 0.930 . S
H437 C414 0.929 . S
H438 C416 0.930 . S
H439 C417 0.929 . S
Nd440 C442 2.836 . S
Nd440 O460 2.500 . S
Nd440 O461 2.492 . S
Nd440 O462 2.487 . S
Nd440 O463 2.682 . S
Nd440 O464 2.410 . S
Nd440 O469 2.414 . S
Nd440 O471 2.424 . S
Nd441 C451 2.836 . S
Nd441 O463 2.414 . S
Nd441 O465 2.424 . S
Nd441 O466 2.500 . S
Nd441 O467 2.492 . S
Nd441 O468 2.487 . S
Nd441 O469 2.682 . S
Nd441 O470 2.410 . S
C442 Nd440 2.836 . S
C442 C443 1.498 . S
C442 O460 1.258 . S
C442 O461 1.239 . S
C443 C442 1.498 . S
C443 C444 1.366 . S
C443 C448 1.407 . S
C444 C443 1.366 . S
C444 C445 1.392 . S
C444 H472 0.930 . S
C445 C444 1.392 . S
C445 C446 1.398 . S
C445 H473 0.929 . S
C446 C445 1.398 . S
C446 C447 1.352 . S
C447 C446 1.352 . S
C447 C448 1.384 . S
C447 H474 0.930 . S
C448 C443 1.407 . S
C448 C447 1.384 . S
C448 H475 0.929 . S
C449 O462 1.241 . S
C449 O463 1.273 . S
C450 O464 1.251 . S
C450 O465 1.268 . S
C451 Nd441 2.836 . S
C451 C452 1.498 . S
C451 O466 1.258 . S
C451 O467 1.239 . S
C452 C451 1.498 . S
C452 C453 1.366 . S
C452 C457 1.407 . S
C453 C452 1.366 . S
C453 C454 1.392 . S
C453 H476 0.930 . S
C454 C453 1.392 . S
C454 C455 1.398 1_565 S
C454 H477 0.929 . S
C455 C454 1.398 1_545 S
C455 C456 1.352 . S
C456 C455 1.352 . S
C456 C457 1.384 1_545 S
C456 H478 0.930 . S
C457 C452 1.407 . S
C457 C456 1.384 1_565 S
C457 H479 0.929 . S
C458 O468 1.241 . S
C458 O469 1.273 . S
C459 O470 1.251 . S
C459 O471 1.268 . S
O460 Nd440 2.500 . S
O460 C442 1.258 . S
O461 Nd440 2.492 . S
O461 C442 1.239 . S
O462 Nd440 2.487 . S
O462 C449 1.241 . S
O463 Nd440 2.682 . S
O463 Nd441 2.414 . S
O463 C449 1.273 . S
O464 Nd440 2.410 . S
O464 C450 1.251 . S
O465 Nd441 2.424 . S
O465 C450 1.268 . S
O466 Nd441 2.500 . S
O466 C451 1.258 . S
O467 Nd441 2.492 . S
O467 C451 1.239 . S
O468 Nd441 2.487 . S
O468 C458 1.241 . S
O469 Nd440 2.414 . S
O469 Nd441 2.682 . S
O469 C458 1.273 . S
O470 Nd441 2.410 . S
O470 C459 1.251 . S
O471 Nd440 2.424 . S
O471 C459 1.268 . S
H472 C444 0.930 . S
H473 C445 0.929 . S
H474 C447 0.930 . S
H475 C448 0.929 . S
H476 C453 0.930 . S
H477 C454 0.929 . S
H478 C456 0.930 . S
H479 C457 0.929 . S
H480 C486 0.930 . S
H481 C490 0.930 . S
H482 C495 0.929 . S
H483 C493 0.929 . S
H484 C488 0.902 1_655 S
H485 C494 0.929 . S
C486 H480 0.930 . S
C486 C487 1.367 . S
C486 C494 1.378 1_655 S
C487 C486 1.367 . S
C487 C495 1.433 . S
C488 H484 0.902 1_455 S
C488 C490 1.378 . S
C488 C492 1.350 . S
C489 C492 1.463 . S
C489 C494 1.350 . S
C489 N497 1.427 1_455 S
C490 H481 0.930 . S
C490 C488 1.378 . S
C490 C491 1.367 . S
C491 C490 1.367 . S
C491 C493 1.433 . S
C492 C488 1.350 . S
C492 C489 1.463 . S
C492 N496 1.427 . S
C493 H483 0.929 . S
C493 C491 1.433 . S
C493 N496 1.384 . S
C494 H485 0.929 . S
C494 C486 1.378 1_455 S
C494 C489 1.350 . S
C495 H482 0.929 . S
C495 C487 1.433 . S
C495 N497 1.384 . S
N496 C492 1.427 . S
N496 C493 1.384 . S
N497 C489 1.427 1_655 S
N497 C495 1.384 . S
H498 C504 0.930 . S
H499 C508 0.930 . S
H500 C513 0.929 . S
H501 C511 0.929 . S
H502 C506 0.929 . S
H503 C512 0.929 . S
C504 H498 0.930 . S
C504 C505 1.367 . S
C504 C512 1.378 . S
C505 C504 1.367 . S
C505 C513 1.433 . S
C506 H502 0.929 . S
C506 C508 1.378 . S
C506 C510 1.350 . S
C507 C510 1.463 . S
C507 C512 1.350 1_565 S
C507 N515 1.427 . S
C508 H499 0.930 . S
C508 C506 1.378 . S
C508 C509 1.367 . S
C509 C508 1.367 . S
C509 C511 1.433 . S
C510 C506 1.350 . S
C510 C507 1.463 . S
C510 N514 1.427 . S
C511 H501 0.929 . S
C511 C509 1.433 . S
C511 N514 1.384 . S
C512 H503 0.929 . S
C512 C504 1.378 . S
C512 C507 1.350 1_545 S
C513 H500 0.929 . S
C513 C505 1.433 . S
C513 N515 1.384 1_545 S
N514 C510 1.427 . S
N514 C511 1.384 . S
N515 C507 1.427 . S
N515 C513 1.384 1_565 S
H516 C522 0.930 . S
H517 C526 0.930 . S
H518 C531 0.929 . S
H519 C529 0.929 . S
H520 C524 0.929 . S
H521 C530 0.929 . S
C522 H516 0.930 . S
C522 C523 1.367 . S
C522 C530 1.378 . S
C523 C522 1.367 . S
C523 C531 1.433 . S
C524 H520 0.929 . S
C524 C526 1.378 . S
C524 C528 1.350 . S
C525 C528 1.463 . S
C525 C530 1.350 . S
C525 N533 1.427 . S
C526 H517 0.930 . S
C526 C524 1.378 . S
C526 C527 1.367 . S
C527 C526 1.367 . S
C527 C529 1.433 . S
C528 C524 1.350 . S
C528 C525 1.463 . S
C528 N532 1.427 . S
C529 H519 0.929 . S
C529 C527 1.433 . S
C529 N532 1.384 . S
C530 H521 0.929 . S
C530 C522 1.378 . S
C530 C525 1.350 . S
C531 H518 0.929 . S
C531 C523 1.433 . S
C531 N533 1.384 . S
N532 C528 1.427 . S
N532 C529 1.384 . S
N533 C525 1.427 . S
N533 C531 1.384 . S
H534 C540 0.930 . S
H535 C544 0.930 . S
H536 C549 0.929 . S
H537 C547 0.929 . S
H538 C542 0.929 . S
H539 C548 0.929 . S
C540 H534 0.930 . S
C540 C541 1.367 . S
C540 C548 1.378 . S
C541 C540 1.367 . S
C541 C549 1.433 . S
C542 H538 0.929 . S
C542 C544 1.378 . S
C542 C546 1.350 1_655 S
C543 C546 1.463 . S
C543 C548 1.350 . S
C543 N551 1.427 . S
C544 H535 0.930 . S
C544 C542 1.378 . S
C544 C545 1.367 . S
C545 C544 1.367 . S
C545 C547 1.433 . S
C546 C542 1.350 1_455 S
C546 C543 1.463 . S
C546 N550 1.427 . S
C547 H537 0.929 . S
C547 C545 1.433 . S
C547 N550 1.384 1_655 S
C548 H539 0.929 . S
C548 C540 1.378 . S
C548 C543 1.350 . S
C549 H536 0.929 . S
C549 C541 1.433 . S
C549 N551 1.384 . S
N550 C546 1.427 . S
N550 C547 1.384 1_455 S
N551 C543 1.427 . S
N551 C549 1.384 . S
H552 C558 0.930 . S
H553 C562 0.930 . S
H554 C567 0.929 . S
H555 C565 0.929 . S
H556 C560 0.929 . S
H557 C566 0.929 . S
C558 H552 0.930 . S
C558 C559 1.367 . S
C558 C566 1.378 . S
C559 C558 1.367 . S
C559 C567 1.433 . S
C560 H556 0.929 . S
C560 C562 1.378 . S
C560 C564 1.350 . S
C561 C564 1.463 . S
C561 C566 1.350 1_565 S
C561 N569 1.427 1_565 S
C562 H553 0.930 . S
C562 C560 1.378 . S
C562 C563 1.367 . S
C563 C562 1.367 . S
C563 C565 1.433 . S
C564 C560 1.350 . S
C564 C561 1.463 . S
C564 N568 1.427 . S
C565 H555 0.929 . S
C565 C563 1.433 . S
C565 N568 1.384 . S
C566 H557 0.929 . S
C566 C558 1.378 . S
C566 C561 1.350 1_545 S
C567 H554 0.929 . S
C567 C559 1.433 . S
C567 N569 1.384 . S
N568 C564 1.427 . S
N568 C565 1.384 . S
N569 C561 1.427 1_545 S
N569 C567 1.384 . S
H570 C576 0.930 . S
H571 C580 0.930 . S
H572 C585 0.929 . S
H573 C583 0.929 . S
H574 C578 0.929 . S
H575 C584 0.929 . S
C576 H570 0.930 . S
C576 C577 1.367 . S
C576 C584 1.378 . S
C577 C576 1.367 . S
C577 C585 1.433 . S
C578 H574 0.929 . S
C578 C580 1.378 . S
C578 C582 1.350 . S
C579 C582 1.463 . S
C579 C584 1.350 . S
C579 N587 1.427 . S
C580 H571 0.930 . S
C580 C578 1.378 . S
C580 C581 1.367 . S
C581 C580 1.367 . S
C581 C583 1.433 . S
C582 C578 1.350 . S
C582 C579 1.463 . S
C582 N586 1.427 . S
C583 H573 0.929 . S
C583 C581 1.433 . S
C583 N586 1.384 . S
C584 H575 0.929 . S
C584 C576 1.378 . S
C584 C579 1.350 . S
C585 H572 0.929 . S
C585 C577 1.433 . S
C585 N587 1.384 . S
N586 C582 1.427 . S
N586 C583 1.384 . S
N587 C579 1.427 . S
N587 C585 1.384 . S
H588 C594 0.930 . S
H589 C598 0.930 . S
H590 C603 0.929 . S
H591 C601 0.929 . S
H592 C596 0.929 . S
H593 C602 0.929 . S
C594 H588 0.930 . S
C594 C595 1.367 . S
C594 C602 1.378 . S
C595 C594 1.367 . S
C595 C603 1.433 . S
C596 H592 0.929 . S
C596 C598 1.378 . S
C596 C600 1.350 . S
C597 C600 1.463 . S
C597 C602 1.350 1_545 S
C597 N605 1.427 . S
C598 H589 0.930 . S
C598 C596 1.378 . S
C598 C599 1.367 . S
C599 C598 1.367 . S
C599 C601 1.433 . S
C600 C596 1.350 . S
C600 C597 1.463 . S
C600 N604 1.427 . S
C601 H591 0.929 . S
C601 C599 1.433 . S
C601 N604 1.384 . S
C602 H593 0.929 . S
C602 C594 1.378 . S
C602 C597 1.350 1_565 S
C603 H590 0.929 . S
C603 C595 1.433 . S
C603 N605 1.384 1_565 S
N604 C600 1.427 . S
N604 C601 1.384 . S
N605 C597 1.427 . S
N605 C603 1.384 1_545 S
H606 C612 0.930 . S
H607 C616 0.930 . S
H608 C621 0.929 . S
H609 C619 0.929 . S
H610 C614 0.929 . S
H611 C620 0.929 . S
C612 H606 0.930 . S
C612 C613 1.367 . S
C612 C620 1.378 . S
C613 C612 1.367 . S
C613 C621 1.433 . S
C614 H610 0.929 . S
C614 C616 1.378 . S
C614 C618 1.350 . S
C615 C618 1.463 . S
C615 C620 1.350 . S
C615 N623 1.427 . S
C616 H607 0.930 . S
C616 C614 1.378 . S
C616 C617 1.367 . S
C617 C616 1.367 . S
C617 C619 1.433 . S
C618 C614 1.350 . S
C618 C615 1.463 . S
C618 N622 1.427 . S
C619 H609 0.929 . S
C619 C617 1.433 . S
C619 N622 1.384 . S
C620 H611 0.929 . S
C620 C612 1.378 . S
C620 C615 1.350 . S
C621 H608 0.929 . S
C621 C613 1.433 . S
C621 N623 1.384 . S
N622 C618 1.427 . S
N622 C619 1.384 . S
N623 C615 1.427 . S
N623 C621 1.384 . S
H624 C630 0.930 . S
H625 C634 0.930 . S
H626 C639 0.929 . S
H627 C637 0.929 . S
H628 C632 0.929 . S
H629 C638 0.929 . S
C630 H624 0.930 . S
C630 C631 1.367 . S
C630 C638 1.378 . S
C631 C630 1.367 . S
C631 C639 1.433 . S
C632 H628 0.929 . S
C632 C634 1.378 1_655 S
C632 C636 1.350 . S
C633 C636 1.463 . S
C633 C638 1.350 . S
C633 N641 1.427 . S
C634 H625 0.930 . S
C634 C632 1.378 1_455 S
C634 C635 1.367 . S
C635 C634 1.367 . S
C635 C637 1.433 . S
C636 C632 1.350 . S
C636 C633 1.463 . S
C636 N640 1.427 1_655 S
C637 H627 0.929 . S
C637 C635 1.433 . S
C637 N640 1.384 . S
C638 H629 0.929 . S
C638 C630 1.378 . S
C638 C633 1.350 . S
C639 H626 0.929 . S
C639 C631 1.433 . S
C639 N641 1.384 . S
N640 C636 1.427 1_455 S
N640 C637 1.384 . S
N641 C633 1.427 . S
N641 C639 1.384 . S
H642 C648 0.930 . S
H643 C652 0.930 . S
H644 C657 0.929 . S
H645 C655 0.929 . S
H646 C650 0.929 . S
H647 C656 0.929 . S
C648 H642 0.930 . S
C648 C649 1.367 . S
C648 C656 1.378 . S
C649 C648 1.367 . S
C649 C657 1.433 . S
C650 H646 0.929 . S
C650 C652 1.378 1_545 S
C650 C654 1.350 . S
C651 C654 1.463 . S
C651 C656 1.350 . S
C651 N659 1.427 . S
C652 H643 0.930 . S
C652 C650 1.378 1_565 S
C652 C653 1.367 . S
C653 C652 1.367 . S
C653 C655 1.433 . S
C654 C650 1.350 . S
C654 C651 1.463 . S
C654 N658 1.427 1_545 S
C655 H645 0.929 . S
C655 C653 1.433 . S
C655 N658 1.384 . S
C656 H647 0.929 . S
C656 C648 1.378 . S
C656 C651 1.350 . S
C657 H644 0.929 . S
C657 C649 1.433 . S
C657 N659 1.384 . S
N658 C654 1.427 1_565 S
N658 C655 1.384 . S
N659 C651 1.427 . S
N659 C657 1.384 . S
H660 C666 0.930 . S
H661 C670 0.930 . S
H662 C675 0.929 . S
H663 C673 0.929 . S
H664 C668 0.929 . S
H665 C674 0.929 . S
C666 H660 0.930 . S
C666 C667 1.367 . S
C666 C674 1.378 . S
C667 C666 1.367 . S
C667 C675 1.433 . S
C668 H664 0.929 . S
C668 C670 1.378 . S
C668 C672 1.350 . S
C669 C672 1.463 . S
C669 C674 1.350 . S
C669 N677 1.427 . S
C670 H661 0.930 . S
C670 C668 1.378 . S
C670 C671 1.367 . S
C671 C670 1.367 . S
C671 C673 1.433 . S
C672 C668 1.350 . S
C672 C669 1.463 . S
C672 N676 1.427 . S
C673 H663 0.929 . S
C673 C671 1.433 . S
C673 N676 1.384 . S
C674 H665 0.929 . S
C674 C666 1.378 . S
C674 C669 1.350 . S
C675 H662 0.929 . S
C675 C667 1.433 . S
C675 N677 1.384 . S
N676 C672 1.427 . S
N676 C673 1.384 . S
N677 C669 1.427 . S
N677 C675 1.384 . S
H678 C684 0.930 . S
H679 C688 0.930 . S
H680 C693 0.929 . S
H681 C691 0.929 . S
H682 C686 0.929 . S
H683 C692 0.921 1_655 S
C684 H678 0.930 . S
C684 C685 1.367 . S
C684 C692 1.383 . S
C685 C684 1.367 . S
C685 C693 1.433 . S
C686 H682 0.929 . S
C686 C688 1.378 . S
C686 C690 1.350 . S
C687 C690 1.463 . S
C687 C692 1.353 1_655 S
C687 N695 1.427 1_655 S
C688 H679 0.930 . S
C688 C686 1.378 . S
C688 C689 1.367 . S
C689 C688 1.367 . S
C689 C691 1.433 . S
C690 C686 1.350 . S
C690 C687 1.463 . S
C690 N694 1.427 . S
C691 H681 0.929 . S
C691 C689 1.433 . S
C691 N694 1.384 . S
C692 H683 0.921 1_455 S
C692 C684 1.383 . S
C692 C687 1.353 1_455 S
C693 H680 0.929 . S
C693 C685 1.433 . S
C693 N695 1.384 . S
N694 C690 1.427 . S
N694 C691 1.384 . S
N695 C687 1.427 1_455 S
N695 C693 1.384 . S
H696 C702 0.930 . S
H697 C706 0.930 . S
H698 C711 0.929 . S
H699 C709 0.929 . S
H700 C704 0.929 . S
H701 C710 0.929 . S
C702 H696 0.930 . S
C702 C703 1.367 . S
C702 C710 1.378 . S
C703 C702 1.367 . S
C703 C711 1.433 . S
C704 H700 0.929 . S
C704 C706 1.378 . S
C704 C708 1.350 . S
C705 C708 1.463 . S
C705 C710 1.350 . S
C705 N713 1.427 . S
C706 H697 0.930 . S
C706 C704 1.378 . S
C706 C707 1.367 . S
C707 C706 1.367 . S
C707 C709 1.433 . S
C708 C704 1.350 . S
C708 C705 1.463 . S
C708 N712 1.427 . S
C709 H699 0.929 . S
C709 C707 1.433 . S
C709 N712 1.384 . S
C710 H701 0.929 . S
C710 C702 1.378 . S
C710 C705 1.350 . S
C711 H698 0.929 . S
C711 C703 1.433 . S
C711 N713 1.384 . S
N712 C708 1.427 . S
N712 C709 1.384 . S
N713 C705 1.427 . S
N713 C711 1.384 . S
H714 C720 0.930 . S
H715 C724 0.930 . S
H716 C729 0.929 . S
H717 C727 0.929 . S
H718 C722 0.929 . S
H719 C728 0.929 . S
C720 H714 0.930 . S
C720 C721 1.367 . S
C720 C728 1.378 . S
C721 C720 1.367 . S
C721 C729 1.433 . S
C722 H718 0.929 . S
C722 C724 1.378 . S
C722 C726 1.350 . S
C723 C726 1.463 . S
C723 C728 1.350 . S
C723 N731 1.427 . S
C724 H715 0.930 . S
C724 C722 1.378 . S
C724 C725 1.367 . S
C725 C724 1.367 . S
C725 C727 1.433 . S
C726 C722 1.350 . S
C726 C723 1.463 . S
C726 N730 1.427 . S
C727 H717 0.929 . S
C727 C725 1.433 . S
C727 N730 1.384 . S
C728 H719 0.929 . S
C728 C720 1.378 . S
C728 C723 1.350 . S
C729 H716 0.929 . S
C729 C721 1.433 . S
C729 N731 1.384 . S
N730 C726 1.427 . S
N730 C727 1.384 . S
N731 C723 1.427 . S
N731 C729 1.384 . S
H732 C738 0.930 . S
H733 C742 0.930 . S
H734 C747 0.929 . S
H735 C745 0.929 . S
H736 C740 0.929 . S
H737 C746 0.929 . S
C738 H732 0.930 . S
C738 C739 1.367 . S
C738 C746 1.378 . S
C739 C738 1.367 . S
C739 C747 1.433 . S
C740 H736 0.929 . S
C740 C742 1.378 . S
C740 C744 1.350 . S
C741 C744 1.463 . S
C741 C746 1.350 . S
C741 N749 1.427 . S
C742 H733 0.930 . S
C742 C740 1.378 . S
C742 C743 1.367 . S
C743 C742 1.367 . S
C743 C745 1.433 . S
C744 C740 1.350 . S
C744 C741 1.463 . S
C744 N748 1.427 . S
C745 H735 0.929 . S
C745 C743 1.433 . S
C745 N748 1.384 . S
C746 H737 0.929 . S
C746 C738 1.378 . S
C746 C741 1.350 . S
C747 H734 0.929 . S
C747 C739 1.433 . S
C747 N749 1.384 . S
N748 C744 1.427 . S
N748 C745 1.384 . S
N749 C741 1.427 . S
N749 C747 1.384 . S
H750 C756 0.930 . S
H751 C760 0.930 . S
H752 C765 0.929 . S
H753 C763 0.929 . S
H754 C758 0.929 . S
H755 C764 0.929 . S
C756 H750 0.930 . S
C756 C757 1.367 . S
C756 C764 1.378 . S
C757 C756 1.367 . S
C757 C765 1.433 . S
C758 H754 0.929 . S
C758 C760 1.378 . S
C758 C762 1.350 . S
C759 C762 1.463 . S
C759 C764 1.350 . S
C759 N767 1.427 . S
C760 H751 0.930 . S
C760 C758 1.378 . S
C760 C761 1.367 . S
C761 C760 1.367 . S
C761 C763 1.433 . S
C762 C758 1.350 . S
C762 C759 1.463 . S
C762 N766 1.427 . S
C763 H753 0.929 . S
C763 C761 1.433 . S
C763 N766 1.384 . S
C764 H755 0.929 . S
C764 C756 1.378 . S
C764 C759 1.350 . S
C765 H752 0.929 . S
C765 C757 1.433 . S
C765 N767 1.384 . S
N766 C762 1.427 . S
N766 C763 1.384 . S
N767 C759 1.427 . S
N767 C765 1.384 . S
H768 C774 0.930 . S
H769 C778 0.930 . S
H770 C783 0.929 . S
H771 C781 0.929 . S
H772 C776 0.929 . S
H773 C782 0.929 . S
C774 H768 0.930 . S
C774 C775 1.367 . S
C774 C782 1.378 . S
C775 C774 1.367 . S
C775 C783 1.433 . S
C776 H772 0.929 . S
C776 C778 1.378 . S
C776 C780 1.350 . S
C777 C780 1.463 . S
C777 C782 1.350 . S
C777 N785 1.427 . S
C778 H769 0.930 . S
C778 C776 1.378 . S
C778 C779 1.367 . S
C779 C778 1.367 . S
C779 C781 1.433 . S
C780 C776 1.350 . S
C780 C777 1.463 . S
C780 N784 1.427 . S
C781 H771 0.929 . S
C781 C779 1.433 . S
C781 N784 1.384 . S
C782 H773 0.929 . S
C782 C774 1.378 . S
C782 C777 1.350 . S
C783 H770 0.929 . S
C783 C775 1.433 . S
C783 N785 1.384 . S
N784 C780 1.427 . S
N784 C781 1.384 . S
N785 C777 1.427 . S
N785 C783 1.384 . S
H786 C792 0.930 . S
H787 C796 0.930 . S
H788 C801 0.929 . S
H789 C799 0.929 . S
H790 C794 0.929 . S
H791 C800 0.929 . S
C792 H786 0.930 . S
C792 C793 1.367 . S
C792 C800 1.378 . S
C793 C792 1.367 . S
C793 C801 1.433 . S
C794 H790 0.929 . S
C794 C796 1.378 . S
C794 C798 1.350 . S
C795 C798 1.463 . S
C795 C800 1.350 . S
C795 N803 1.427 . S
C796 H787 0.930 . S
C796 C794 1.378 . S
C796 C797 1.367 . S
C797 C796 1.367 . S
C797 C799 1.433 . S
C798 C794 1.350 . S
C798 C795 1.463 . S
C798 N802 1.427 . S
C799 H789 0.929 . S
C799 C797 1.433 . S
C799 N802 1.384 . S
C800 H791 0.929 . S
C800 C792 1.378 . S
C800 C795 1.350 . S
C801 H788 0.929 . S
C801 C793 1.433 . S
C801 N803 1.384 . S
N802 C798 1.427 . S
N802 C799 1.384 . S
N803 C795 1.427 . S
N803 C801 1.384 . S
H804 C810 0.930 . S
H805 C814 0.930 . S
H806 C819 0.929 . S
H807 C817 0.929 . S
H808 C812 0.929 1_556 S
H809 C818 0.929 1_554 S
C810 H804 0.930 . S
C810 C811 1.367 . S
C810 C818 1.378 . S
C811 C810 1.367 . S
C811 C819 1.433 . S
C812 H808 0.929 1_554 S
C812 C814 1.378 . S
C812 C816 1.350 . S
C813 C816 1.463 1_566 S
C813 C818 1.350 . S
C813 N821 1.427 . S
C814 H805 0.930 . S
C814 C812 1.378 . S
C814 C815 1.367 . S
C815 C814 1.367 . S
C815 C817 1.433 . S
C816 C812 1.350 . S
C816 C813 1.463 1_544 S
C816 N820 1.427 . S
C817 H807 0.929 . S
C817 C815 1.433 . S
C817 N820 1.384 . S
C818 H809 0.929 1_556 S
C818 C810 1.378 . S
C818 C813 1.350 . S
C819 H806 0.929 . S
C819 C811 1.433 . S
C819 N821 1.384 . S
N820 C816 1.427 . S
N820 C817 1.384 . S
N821 C813 1.427 . S
N821 C819 1.384 . S
H822 C828 0.930 . S
H823 C832 0.930 . S
H824 C837 0.929 . S
H825 C835 0.929 . S
H826 C830 0.929 . S
H827 C836 0.929 . S
C828 H822 0.930 . S
C828 C829 1.367 . S
C828 C836 1.378 . S
C829 C828 1.367 . S
C829 C837 1.433 . S
C830 H826 0.929 . S
C830 C832 1.378 . S
C830 C834 1.350 . S
C831 C834 1.463 . S
C831 C836 1.350 . S
C831 N839 1.427 . S
C832 H823 0.930 . S
C832 C830 1.378 . S
C832 C833 1.367 . S
C833 C832 1.367 . S
C833 C835 1.433 . S
C834 C830 1.350 . S
C834 C831 1.463 . S
C834 N838 1.427 . S
C835 H825 0.929 . S
C835 C833 1.433 . S
C835 N838 1.384 . S
C836 H827 0.929 . S
C836 C828 1.378 . S
C836 C831 1.350 . S
C837 H824 0.929 . S
C837 C829 1.433 . S
C837 N839 1.384 . S
N838 C834 1.427 . S
N838 C835 1.384 . S
N839 C831 1.427 . S
N839 C837 1.384 . S
H840 C846 0.930 . S
H841 C850 0.930 . S
H842 C855 0.929 . S
H843 C853 0.929 . S
H844 C848 0.929 1_556 S
H845 C854 0.929 1_554 S
C846 H840 0.930 . S
C846 C847 1.367 . S
C846 C854 1.378 . S
C847 C846 1.367 . S
C847 C855 1.433 . S
C848 H844 0.929 1_554 S
C848 C850 1.378 . S
C848 C852 1.350 . S
C849 C852 1.463 1_456 S
C849 C854 1.350 . S
C849 N857 1.427 . S
C850 H841 0.930 . S
C850 C848 1.378 . S
C850 C851 1.367 . S
C851 C850 1.367 . S
C851 C853 1.433 . S
C852 C848 1.350 . S
C852 C849 1.463 1_654 S
C852 N856 1.427 . S
C853 H843 0.929 . S
C853 C851 1.433 . S
C853 N856 1.384 . S
C854 H845 0.929 1_556 S
C854 C846 1.378 . S
C854 C849 1.350 . S
C855 H842 0.929 . S
C855 C847 1.433 . S
C855 N857 1.384 . S
N856 C852 1.427 . S
N856 C853 1.384 . S
N857 C849 1.427 . S
N857 C855 1.384 . S
H858 C864 0.930 . S
H859 C868 0.930 . S
H860 C873 0.929 . S
H861 C871 0.929 . S
H862 C866 0.929 1_545 S
H863 C872 0.929 1_565 S
C864 H858 0.930 . S
C864 C865 1.367 . S
C864 C872 1.378 . S
C865 C864 1.367 . S
C865 C873 1.433 . S
C866 H862 0.929 1_565 S
C866 C868 1.378 . S
C866 C870 1.350 . S
C867 C870 1.463 1_545 S
C867 C872 1.350 . S
C867 N875 1.427 . S
C868 H859 0.930 . S
C868 C866 1.378 . S
C868 C869 1.367 . S
C869 C868 1.367 . S
C869 C871 1.433 . S
C870 C866 1.350 . S
C870 C867 1.463 1_565 S
C870 N874 1.427 . S
C871 H861 0.929 . S
C871 C869 1.433 . S
C871 N874 1.384 . S
C872 H863 0.929 1_545 S
C872 C864 1.378 . S
C872 C867 1.350 . S
C873 H860 0.929 . S
C873 C865 1.433 . S
C873 N875 1.384 . S
N874 C870 1.427 . S
N874 C871 1.384 . S
N875 C867 1.427 . S
N875 C873 1.384 . S
H876 C882 0.930 . S
H877 C886 0.930 . S
H878 C891 0.929 . S
H879 C889 0.929 . S
H880 C884 0.929 1_554 S
H881 C890 0.929 1_556 S
C882 H876 0.930 . S
C882 C883 1.367 . S
C882 C890 1.378 . S
C883 C882 1.367 . S
C883 C891 1.433 . S
C884 H880 0.929 1_556 S
C884 C886 1.378 . S
C884 C888 1.350 . S
C885 C888 1.463 1_554 S
C885 C890 1.350 . S
C885 N893 1.427 . S
C886 H877 0.930 . S
C886 C884 1.378 . S
C886 C887 1.367 . S
C887 C886 1.367 . S
C887 C889 1.433 . S
C888 C884 1.350 . S
C888 C885 1.463 1_556 S
C888 N892 1.427 . S
C889 H879 0.929 . S
C889 C887 1.433 . S
C889 N892 1.384 . S
C890 H881 0.929 1_554 S
C890 C882 1.378 . S
C890 C885 1.350 . S
C891 H878 0.929 . S
C891 C883 1.433 . S
C891 N893 1.384 . S
N892 C888 1.427 . S
N892 C889 1.384 . S
N893 C885 1.427 . S
N893 C891 1.384 . S
H894 C900 0.930 . S
H895 C904 0.930 . S
H896 C909 0.929 . S
H897 C907 0.929 . S
H898 C902 0.929 1_455 S
H899 C908 0.929 1_655 S
C900 H894 0.930 . S
C900 C901 1.367 . S
C900 C908 1.378 . S
C901 C900 1.367 . S
C901 C909 1.433 . S
C902 H898 0.929 1_655 S
C902 C904 1.378 . S
C902 C906 1.350 . S
C903 C906 1.463 1_455 S
C903 C908 1.350 . S
C903 N911 1.427 . S
C904 H895 0.930 . S
C904 C902 1.378 . S
C904 C905 1.367 . S
C905 C904 1.367 . S
C905 C907 1.433 . S
C906 C902 1.350 . S
C906 C903 1.463 1_655 S
C906 N910 1.427 . S
C907 H897 0.929 . S
C907 C905 1.433 . S
C907 N910 1.384 . S
C908 H899 0.929 1_455 S
C908 C900 1.378 . S
C908 C903 1.350 . S
C909 H896 0.929 . S
C909 C901 1.433 . S
C909 N911 1.384 . S
N910 C906 1.427 . S
N910 C907 1.384 . S
N911 C903 1.427 . S
N911 C909 1.384 . S
H912 C918 0.930 . S
H913 C922 0.930 . S
H914 C927 0.929 . S
H915 C925 0.929 . S
H916 C920 0.929 . S
H917 C926 0.929 . S
C918 H912 0.930 . S
C918 C919 1.367 . S
C918 C926 1.378 . S
C919 C918 1.367 . S
C919 C927 1.433 . S
C920 H916 0.929 . S
C920 C922 1.378 . S
C920 C924 1.350 . S
C921 C924 1.463 . S
C921 C926 1.350 . S
C921 N929 1.427 . S
C922 H913 0.930 . S
C922 C920 1.378 . S
C922 C923 1.367 . S
C923 C922 1.367 . S
C923 C925 1.433 . S
C924 C920 1.350 . S
C924 C921 1.463 . S
C924 N928 1.427 . S
C925 H915 0.929 . S
C925 C923 1.433 . S
C925 N928 1.384 . S
C926 H917 0.929 . S
C926 C918 1.378 . S
C926 C921 1.350 . S
C927 H914 0.929 . S
C927 C919 1.433 . S
C927 N929 1.384 . S
N928 C924 1.427 . S
N928 C925 1.384 . S
N929 C921 1.427 . S
N929 C927 1.384 . S
H930 C936 0.930 . S
H931 C940 0.930 . S
H932 C945 0.929 . S
H933 C943 0.929 . S
H934 C938 0.929 . S
H935 C944 0.929 . S
C936 H930 0.930 . S
C936 C937 1.367 . S
C936 C944 1.378 . S
C937 C936 1.367 . S
C937 C945 1.433 . S
C938 H934 0.929 . S
C938 C940 1.378 . S
C938 C942 1.350 . S
C939 C942 1.463 . S
C939 C944 1.350 . S
C939 N947 1.427 . S
C940 H931 0.930 . S
C940 C938 1.378 . S
C940 C941 1.367 . S
C941 C940 1.367 . S
C941 C943 1.433 . S
C942 C938 1.350 . S
C942 C939 1.463 . S
C942 N946 1.427 . S
C943 H933 0.929 . S
C943 C941 1.433 . S
C943 N946 1.384 . S
C944 H935 0.929 . S
C944 C936 1.378 . S
C944 C939 1.350 . S
C945 H932 0.929 . S
C945 C937 1.433 . S
C945 N947 1.384 . S
N946 C942 1.427 . S
N946 C943 1.384 . S
N947 C939 1.427 . S
N947 C945 1.384 . S
H948 C954 0.930 . S
H949 C958 0.930 . S
H950 C963 0.929 . S
H951 C961 0.929 . S
H952 C956 0.929 . S
H953 C962 0.929 . S
C954 H948 0.930 . S
C954 C955 1.367 . S
C954 C962 1.378 . S
C955 C954 1.367 . S
C955 C963 1.433 . S
C956 H952 0.929 . S
C956 C958 1.378 . S
C956 C960 1.350 . S
C957 C960 1.463 . S
C957 C962 1.350 . S
C957 N965 1.427 . S
C958 H949 0.930 . S
C958 C956 1.378 . S
C958 C959 1.367 . S
C959 C958 1.367 . S
C959 C961 1.433 . S
C960 C956 1.350 . S
C960 C957 1.463 . S
C960 N964 1.427 . S
C961 H951 0.929 . S
C961 C959 1.433 . S
C961 N964 1.384 . S
C962 H953 0.929 . S
C962 C954 1.378 . S
C962 C957 1.350 . S
C963 H950 0.929 . S
C963 C955 1.433 . S
C963 N965 1.384 . S
N964 C960 1.427 . S
N964 C961 1.384 . S
N965 C957 1.427 . S
N965 C963 1.384 . S
H966 C972 0.930 . S
H967 C976 0.930 . S
H968 C981 0.929 . S
H969 C979 0.929 . S
H970 C974 0.929 . S
H971 C980 0.929 . S
C972 H966 0.930 . S
C972 C973 1.367 . S
C972 C980 1.378 . S
C973 C972 1.367 . S
C973 C981 1.433 . S
C974 H970 0.929 . S
C974 C976 1.378 . S
C974 C978 1.350 . S
C975 C978 1.463 . S
C975 C980 1.350 . S
C975 N983 1.427 . S
C976 H967 0.930 . S
C976 C974 1.378 . S
C976 C977 1.367 . S
C977 C976 1.367 . S
C977 C979 1.433 . S
C978 C974 1.350 . S
C978 C975 1.463 . S
C978 N982 1.427 . S
C979 H969 0.929 . S
C979 C977 1.433 . S
C979 N982 1.384 . S
C980 H971 0.929 . S
C980 C972 1.378 . S
C980 C975 1.350 . S
C981 H968 0.929 . S
C981 C973 1.433 . S
C981 N983 1.384 . S
N982 C978 1.427 . S
N982 C979 1.384 . S
N983 C975 1.427 . S
N983 C981 1.384 . S
H984 C990 0.930 . S
H985 C994 0.930 . S
H986 C999 0.929 . S
H987 C997 0.929 . S
H988 C992 0.929 . S
H989 C998 0.929 . S
C990 H984 0.930 . S
C990 C991 1.367 . S
C990 C998 1.378 . S
C991 C990 1.367 . S
C991 C999 1.433 . S
C992 H988 0.929 . S
C992 C994 1.378 . S
C992 C996 1.350 . S
C993 C996 1.463 . S
C993 C998 1.350 . S
C993 N1001 1.427 . S
C994 H985 0.930 . S
C994 C992 1.378 . S
C994 C995 1.367 . S
C995 C994 1.367 . S
C995 C997 1.433 . S
C996 C992 1.350 . S
C996 C993 1.463 . S
C996 N1000 1.427 . S
C997 H987 0.929 . S
C997 C995 1.433 . S
C997 N1000 1.384 . S
C998 H989 0.929 . S
C998 C990 1.378 . S
C998 C993 1.350 . S
C999 H986 0.929 . S
C999 C991 1.433 . S
C999 N1001 1.384 . S
N1000 C996 1.427 . S
N1000 C997 1.384 . S
N1001 C993 1.427 . S
N1001 C999 1.384 . S
H1002 C1008 0.930 . S
H1003 C1012 0.930 . S
H1004 C1017 0.929 . S
H1005 C1015 0.929 . S
H1006 C1010 0.929 . S
H1007 C1016 0.929 . S
C1008 H1002 0.930 . S
C1008 C1009 1.367 . S
C1008 C1016 1.378 . S
C1009 C1008 1.367 . S
C1009 C1017 1.433 . S
C1010 H1006 0.929 . S
C1010 C1012 1.378 . S
C1010 C1014 1.350 . S
C1011 C1014 1.463 . S
C1011 C1016 1.350 . S
C1011 N1019 1.427 . S
C1012 H1003 0.930 . S
C1012 C1010 1.378 . S
C1012 C1013 1.367 . S
C1013 C1012 1.367 . S
C1013 C1015 1.433 . S
C1014 C1010 1.350 . S
C1014 C1011 1.463 . S
C1014 N1018 1.427 . S
C1015 H1005 0.929 . S
C1015 C1013 1.433 . S
C1015 N1018 1.384 . S
C1016 H1007 0.929 . S
C1016 C1008 1.378 . S
C1016 C1011 1.350 . S
C1017 H1004 0.929 . S
C1017 C1009 1.433 . S
C1017 N1019 1.384 . S
N1018 C1014 1.427 . S
N1018 C1015 1.384 . S
N1019 C1011 1.427 . S
N1019 C1017 1.384 . S
H1020 C1026 0.930 . S
H1021 C1030 0.930 . S
H1022 C1035 0.929 . S
H1023 C1033 0.929 . S
H1024 C1028 0.929 . S
H1025 C1034 0.929 . S
C1026 H1020 0.930 . S
C1026 C1027 1.367 . S
C1026 C1034 1.378 . S
C1027 C1026 1.367 . S
C1027 C1035 1.433 . S
C1028 H1024 0.929 . S
C1028 C1030 1.378 . S
C1028 C1032 1.350 . S
C1029 C1032 1.463 . S
C1029 C1034 1.350 . S
C1029 N1037 1.427 . S
C1030 H1021 0.930 . S
C1030 C1028 1.378 . S
C1030 C1031 1.367 . S
C1031 C1030 1.367 . S
C1031 C1033 1.433 . S
C1032 C1028 1.350 . S
C1032 C1029 1.463 . S
C1032 N1036 1.427 . S
C1033 H1023 0.929 . S
C1033 C1031 1.433 . S
C1033 N1036 1.384 . S
C1034 H1025 0.929 . S
C1034 C1026 1.378 . S
C1034 C1029 1.350 . S
C1035 H1022 0.929 . S
C1035 C1027 1.433 . S
C1035 N1037 1.384 . S
N1036 C1032 1.427 . S
N1036 C1033 1.384 . S
N1037 C1029 1.427 . S
N1037 C1035 1.384 . S
H1038 C1044 0.930 . S
H1039 C1048 0.930 . S
H1040 C1053 0.929 . S
H1041 C1051 0.929 . S
H1042 C1046 0.929 . S
H1043 C1052 0.929 . S
C1044 H1038 0.930 . S
C1044 C1045 1.367 . S
C1044 C1052 1.378 . S
C1045 C1044 1.367 . S
C1045 C1053 1.433 . S
C1046 H1042 0.929 . S
C1046 C1048 1.378 . S
C1046 C1050 1.350 . S
C1047 C1050 1.463 . S
C1047 C1052 1.350 . S
C1047 N1055 1.427 . S
C1048 H1039 0.930 . S
C1048 C1046 1.378 . S
C1048 C1049 1.367 . S
C1049 C1048 1.367 . S
C1049 C1051 1.433 . S
C1050 C1046 1.350 . S
C1050 C1047 1.463 . S
C1050 N1054 1.427 . S
C1051 H1041 0.929 . S
C1051 C1049 1.433 . S
C1051 N1054 1.384 . S
C1052 H1043 0.929 . S
C1052 C1044 1.378 . S
C1052 C1047 1.350 . S
C1053 H1040 0.929 . S
C1053 C1045 1.433 . S
C1053 N1055 1.384 . S
N1054 C1050 1.427 . S
N1054 C1051 1.384 . S
N1055 C1047 1.427 . S
N1055 C1053 1.384 . S
H1056 C1062 0.930 . S
H1057 C1066 0.930 . S
H1058 C1071 0.929 . S
H1059 C1069 0.929 . S
H1060 C1064 0.929 . S
H1061 C1070 0.929 . S
C1062 H1056 0.930 . S
C1062 C1063 1.367 . S
C1062 C1070 1.378 . S
C1063 C1062 1.367 . S
C1063 C1071 1.433 . S
C1064 H1060 0.929 . S
C1064 C1066 1.378 . S
C1064 C1068 1.350 . S
C1065 C1068 1.463 . S
C1065 C1070 1.350 . S
C1065 N1073 1.427 . S
C1066 H1057 0.930 . S
C1066 C1064 1.378 . S
C1066 C1067 1.367 . S
C1067 C1066 1.367 . S
C1067 C1069 1.433 . S
C1068 C1064 1.350 . S
C1068 C1065 1.463 . S
C1068 N1072 1.427 . S
C1069 H1059 0.929 . S
C1069 C1067 1.433 . S
C1069 N1072 1.384 . S
C1070 H1061 0.929 . S
C1070 C1062 1.378 . S
C1070 C1065 1.350 . S
C1071 H1058 0.929 . S
C1071 C1063 1.433 . S
C1071 N1073 1.384 . S
N1072 C1068 1.427 . S
N1072 C1069 1.384 . S
N1073 C1065 1.427 . S
N1073 C1071 1.384 . S
H1074 C1080 0.930 . S
H1075 C1084 0.930 . S
H1076 C1089 0.929 . S
H1077 C1087 0.929 . S
H1078 C1082 0.929 . S
H1079 C1088 0.929 . S
C1080 H1074 0.930 . S
C1080 C1081 1.367 . S
C1080 C1088 1.378 . S
C1081 C1080 1.367 . S
C1081 C1089 1.433 . S
C1082 H1078 0.929 . S
C1082 C1084 1.378 . S
C1082 C1086 1.350 . S
C1083 C1086 1.463 . S
C1083 C1088 1.350 . S
C1083 N1091 1.427 . S
C1084 H1075 0.930 . S
C1084 C1082 1.378 . S
C1084 C1085 1.367 . S
C1085 C1084 1.367 . S
C1085 C1087 1.433 . S
C1086 C1082 1.350 . S
C1086 C1083 1.463 . S
C1086 N1090 1.427 . S
C1087 H1077 0.929 . S
C1087 C1085 1.433 . S
C1087 N1090 1.384 . S
C1088 H1079 0.929 . S
C1088 C1080 1.378 . S
C1088 C1083 1.350 . S
C1089 H1076 0.929 . S
C1089 C1081 1.433 . S
C1089 N1091 1.384 . S
N1090 C1086 1.427 . S
N1090 C1087 1.384 . S
N1091 C1083 1.427 . S
N1091 C1089 1.384 . S
H1092 C1098 0.930 . S
H1093 C1102 0.930 . S
H1094 C1107 0.929 . S
H1095 C1105 0.929 . S
H1096 C1100 0.929 . S
H1097 C1106 0.929 . S
C1098 H1092 0.930 . S
C1098 C1099 1.367 . S
C1098 C1106 1.378 . S
C1099 C1098 1.367 . S
C1099 C1107 1.433 . S
C1100 H1096 0.929 . S
C1100 C1102 1.378 . S
C1100 C1104 1.350 . S
C1101 C1104 1.463 . S
C1101 C1106 1.350 . S
C1101 N1109 1.427 . S
C1102 H1093 0.930 . S
C1102 C1100 1.378 . S
C1102 C1103 1.367 . S
C1103 C1102 1.367 . S
C1103 C1105 1.433 . S
C1104 C1100 1.350 . S
C1104 C1101 1.463 . S
C1104 N1108 1.427 . S
C1105 H1095 0.929 . S
C1105 C1103 1.433 . S
C1105 N1108 1.384 . S
C1106 H1097 0.929 . S
C1106 C1098 1.378 . S
C1106 C1101 1.350 . S
C1107 H1094 0.929 . S
C1107 C1099 1.433 . S
C1107 N1109 1.384 . S
N1108 C1104 1.427 . S
N1108 C1105 1.384 . S
N1109 C1101 1.427 . S
N1109 C1107 1.384 . S
H1110 C1116 0.930 . S
H1111 C1120 0.930 . S
H1112 C1125 0.929 . S
H1113 C1123 0.929 . S
H1114 C1118 0.929 . S
H1115 C1124 0.929 . S
C1116 H1110 0.930 . S
C1116 C1117 1.367 . S
C1116 C1124 1.378 . S
C1117 C1116 1.367 . S
C1117 C1125 1.433 . S
C1118 H1114 0.929 . S
C1118 C1120 1.378 . S
C1118 C1122 1.350 . S
C1119 C1122 1.463 . S
C1119 C1124 1.350 . S
C1119 N1127 1.427 . S
C1120 H1111 0.930 . S
C1120 C1118 1.378 . S
C1120 C1121 1.367 . S
C1121 C1120 1.367 . S
C1121 C1123 1.433 . S
C1122 C1118 1.350 . S
C1122 C1119 1.463 . S
C1122 N1126 1.427 . S
C1123 H1113 0.929 . S
C1123 C1121 1.433 . S
C1123 N1126 1.384 . S
C1124 H1115 0.929 . S
C1124 C1116 1.378 . S
C1124 C1119 1.350 . S
C1125 H1112 0.929 . S
C1125 C1117 1.433 . S
C1125 N1127 1.384 . S
N1126 C1122 1.427 . S
N1126 C1123 1.384 . S
N1127 C1119 1.427 . S
N1127 C1125 1.384 . S
C487 C99 1.413 . S
C491 C15 1.380 . S
C505 C130 1.410 . S
C509 C46 1.367 . S
C523 C95 1.372 . S
C527 C179 1.412 . S
C541 C126 1.367 . S
C545 C210 1.410 . S
C559 C19 1.411 . S
C563 C175 1.369 . S
C577 C50 1.413 . S
C581 C206 1.378 . S
C595 C410 1.410 . S
C599 C246 1.368 . S
C613 C295 1.376 . S
C617 C459 1.412 . S
C631 C326 1.379 . S
C635 C250 1.413 . S
C649 C375 1.376 . S
C653 C299 1.413 . S
C667 C406 1.368 . S
C671 C330 1.410 . S
C685 C379 1.412 . S
C689 C455 1.372 . S
C703 C129 1.791 . S
C707 C18 1.788 . S
C721 C49 1.789 . S
C725 C178 1.790 . S
C739 C98 1.784 . S
C743 C209 1.794 . S
C757 C249 1.793 . S
C761 C378 1.785 . S
C775 C298 1.792 . S
C779 C409 1.786 . S
C793 C329 1.787 . S
C797 C458 1.791 . S
C811 C289 2.114 . S
C815 C9 2.121 . S
C829 C58 2.113 . S
C833 C338 2.120 . S
C847 C369 2.114 . S
C851 C89 2.121 . S
C865 C138 2.104 . S
C869 C418 2.107 . S
C883 C169 2.112 . S
C887 C449 2.120 . S
C901 C258 2.108 . S
C905 C218 2.104 . S
C919 C90 1.688 . S
C923 C6 1.699 . S
C937 C55 1.698 . S
C941 C139 1.687 . S
C955 C86 1.701 . S
C959 C170 1.686 . S
C973 C135 1.700 . S
C977 C219 1.681 . S
C991 C10 1.688 . S
C995 C166 1.698 . S
C1009 C59 1.682 . S
C1013 C215 1.697 . S
C1027 C419 1.687 . S
C1031 C255 1.701 . S
C1045 C286 1.697 . S
C1049 C450 1.684 . S
C1063 C335 1.698 . S
C1067 C259 1.687 . S
C1081 C290 1.683 . S
C1085 C366 1.701 . S
C1099 C415 1.698 . S
C1103 C339 1.688 . S
C1117 C446 1.701 . S
C1121 C370 1.686 . S
