# Generated by pormake.
# Topology tsi, (8)-cn, num edge types: 1
# Building blocks:
#     Node 0, Type 0, BuildingBlock: TAGTUT_clean_sbu_3, # of connection points: 8
#     Node 1, Type 0, BuildingBlock: TAGTUT_clean_sbu_3, # of connection points: 8
#     Node 2, Type 0, BuildingBlock: TAGTUT_clean_sbu_3, # of connection points: 8
#     Node 3, Type 0, BuildingBlock: TAGTUT_clean_sbu_3, # of connection points: 8
#     Edge 4, Type (0, 0), BuildingBlock: FUNLAD_clean_linker_1, # of connection points: 2
#     Edge 5, Type (0, 0), BuildingBlock: FUNLAD_clean_linker_1, # of connection points: 2
#     Edge 6, Type (0, 0), BuildingBlock: FUNLAD_clean_linker_1, # of connection points: 2
#     Edge 7, Type (0, 0), BuildingBlock: FUNLAD_clean_linker_1, # of connection points: 2
#     Edge 8, Type (0, 0), BuildingBlock: FUNLAD_clean_linker_1, # of connection points: 2
#     Edge 9, Type (0, 0), BuildingBlock: FUNLAD_clean_linker_1, # of connection points: 2
#     Edge 10, Type (0, 0), BuildingBlock: FUNLAD_clean_linker_1, # of connection points: 2
#     Edge 11, Type (0, 0), BuildingBlock: FUNLAD_clean_linker_1, # of connection points: 2
#     Edge 12, Type (0, 0), BuildingBlock: FUNLAD_clean_linker_1, # of connection points: 2
#     Edge 13, Type (0, 0), BuildingBlock: FUNLAD_clean_linker_1, # of connection points: 2
#     Edge 14, Type (0, 0), BuildingBlock: FUNLAD_clean_linker_1, # of connection points: 2
#     Edge 15, Type (0, 0), BuildingBlock: FUNLAD_clean_linker_1, # of connection points: 2
#     Edge 16, Type (0, 0), BuildingBlock: FUNLAD_clean_linker_1, # of connection points: 2
#     Edge 17, Type (0, 0), BuildingBlock: FUNLAD_clean_linker_1, # of connection points: 2
#     Edge 18, Type (0, 0), BuildingBlock: FUNLAD_clean_linker_1, # of connection points: 2
#     Edge 19, Type (0, 0), BuildingBlock: FUNLAD_clean_linker_1, # of connection points: 2
# Relax obj value: 0.145
# Max RMSD: 0.223
# Mean RMSD: 0.223
data_MOF--net-tsi--node1-TAGTUT_clean_sbu_3--edge1-FUNLAD_clean_linker_1
_symmetry_space_group_name_H-M    P1
_symmetry_Int_Tables_number       1
_symmetry_cell_setting            triclinic
loop_
_symmetry_equiv_pos_as_xyz
'x, y, z'
_cell_length_a     16.457267
_cell_length_b     16.450263
_cell_length_c     68.380571
_cell_angle_alpha  89.031547
_cell_angle_beta   90.347028
_cell_angle_gamma 90.007477
loop_
_atom_site_label
_atom_site_type_symbol
_atom_site_fract_x
_atom_site_fract_y
_atom_site_fract_z
_atom_type_partial_charge
C0 C 0.2125 0.22382 0.36262 0.0
C1 C 0.05093 0.16199 0.29472 0.0
C2 C 0.85784 0.27236 0.3261 0.0
Mg3 Mg 0.13305 0.24978 0.40538 0.0
Mg4 Mg 0.9567 0.16364 0.41782 0.0
O5 O 0.0156 0.22654 0.39977 0.0
Mg6 Mg 0.02468 0.19438 0.37192 0.0
O7 O 0.03891 0.1683 0.34368 0.0
Mg8 Mg 0.06107 0.28186 0.334 0.0
Mg9 Mg 0.95066 0.11575 0.33183 0.0
C10 C 0.83019 0.17381 0.38284 0.0
O11 O 0.01957 0.05744 0.37737 0.0
O12 O 0.08869 0.30286 0.43452 0.0
O13 O 0.95234 0.00923 0.35108 0.0
O14 O 0.14996 0.12718 0.42212 0.0
O15 O 0.96596 0.24863 0.44145 0.0
O16 O 0.03199 0.06079 0.42531 0.0
O17 O 0.03263 0.32805 0.36464 0.0
O18 O 0.11147 0.37052 0.38912 0.0
C19 C 0.07138 0.38439 0.3733 0.0
C20 C 0.02521 0.29662 0.44528 0.0
O21 O 0.88672 0.19301 0.37084 0.0
O22 O 0.08132 0.22319 0.30372 0.0
O23 O 0.84375 0.15445 0.40087 0.0
O24 O 0.92731 0.30692 0.32466 0.0
O25 O -0.00062 0.11333 0.3026 0.0
O26 O 0.8504 0.19823 0.33141 0.0
O27 O 0.15994 0.19711 0.37483 0.0
O28 O 0.19171 0.25408 0.34581 0.0
C29 C 0.10873 0.06533 0.42787 0.0
C30 C 0.98782 -0.00092 0.36774 0.0
C31 C 0.16894 0.7757 0.63794 0.0
C32 C -0.00319 0.84871 0.70286 0.0
C33 C 0.80173 0.74941 0.66955 0.0
Mg34 Mg 0.0948 0.75212 0.59344 0.0
Mg35 Mg 0.93294 0.85753 0.57871 0.0
O36 O 0.97931 0.78742 0.59744 0.0
Mg37 Mg 0.98204 0.81797 0.62522 0.0
O38 O 0.99085 0.84252 0.65374 0.0
Mg39 Mg 0.00489 0.72797 0.66376 0.0
Mg40 Mg 0.9039 0.89939 0.66459 0.0
C41 C 0.79135 0.85908 0.60978 0.0
O42 O 0.98528 0.95447 0.61975 0.0
O43 O 0.04549 0.69855 0.56432 0.0
O44 O 0.91264 0.00371 0.64492 0.0
O45 O 0.12759 0.86865 0.57577 0.0
O46 O 0.93319 0.7703 0.5559 0.0
O47 O 0.02001 0.94924 0.57094 0.0
O48 O 0.97934 0.68407 0.63284 0.0
O49 O 0.06178 0.63682 0.60993 0.0
C50 C 0.0177 0.6258 0.62504 0.0
C51 C 0.98367 0.71258 0.55309 0.0
O52 O 0.83836 0.82912 0.62328 0.0
O53 O 0.02445 0.78561 0.6942 0.0
O54 O 0.8179 0.8819 0.59295 0.0
O55 O 0.86906 0.71124 0.67161 0.0
O56 O 0.94897 0.90007 0.69443 0.0
O57 O 0.79897 0.82335 0.66385 0.0
O58 O 0.12322 0.80683 0.62439 0.0
O59 O 0.1386 0.74645 0.65387 0.0
C60 C 0.09532 0.93378 0.5688 0.0
C61 C 0.95172 0.01308 0.62881 0.0
C62 C 0.52918 0.86306 0.87936 0.0
C63 C 0.47351 0.74818 0.94718 0.0
C64 C 0.56209 0.5222 0.92661 0.0
Mg65 Mg 0.52294 0.78003 0.83712 0.0
Mg66 Mg 0.41063 0.6191 0.82852 0.0
O67 O 0.49531 0.66313 0.84339 0.0
Mg68 Mg 0.47883 0.67273 0.87209 0.0
O69 O 0.4694 0.68992 0.90073 0.0
Mg70 Mg 0.58628 0.7115 0.90733 0.0
Mg71 Mg 0.40912 0.62278 0.91755 0.0
C72 C 0.42877 0.48133 0.86127 0.0
O73 O 0.34112 0.67395 0.87051 0.0
O74 O 0.55133 0.73424 0.80619 0.0
O75 O 0.29956 0.61854 0.89928 0.0
O76 O 0.39312 0.81263 0.82591 0.0
O77 O 0.47077 0.62603 0.80051 0.0
O78 O 0.31247 0.7039 0.82786 0.0
O79 O 0.6148 0.67094 0.87587 0.0
O80 O 0.6495 0.74424 0.84929 0.0
C81 C 0.66851 0.70367 0.86487 0.0
C82 C 0.52514 0.67748 0.79512 0.0
O83 O 0.46589 0.52949 0.87312 0.0
O84 O 0.53921 0.75484 0.93719 0.0
O85 O 0.39821 0.50564 0.84487 0.0
O86 O 0.60327 0.58349 0.92068 0.0
O87 O 0.41408 0.70269 0.94213 0.0
O88 O 0.48457 0.52017 0.92535 0.0
O89 O 0.48934 0.81318 0.86869 0.0
O90 O 0.56861 0.83836 0.89443 0.0
C91 C 0.32302 0.77959 0.82452 0.0
C92 C 0.28548 0.64676 0.8819 0.0
C93 C 0.72343 0.27994 0.13359 0.0
C94 C 0.58169 0.3393 0.20203 0.0
C95 C 0.38022 0.22151 0.17485 0.0
Mg96 Mg 0.64197 0.24555 0.09166 0.0
Mg97 Mg 0.45993 0.31578 0.07843 0.0
O98 O 0.52462 0.2664 0.09754 0.0
Mg99 Mg 0.53368 0.30174 0.12523 0.0
O100 O 0.55088 0.32917 0.15341 0.0
Mg101 Mg 0.58002 0.21712 0.16329 0.0
Mg102 Mg 0.46693 0.38004 0.16688 0.0
C103 C 0.33908 0.31319 0.11452 0.0
O104 O 0.51823 0.4394 0.1193 0.0
O105 O 0.59939 0.18274 0.06369 0.0
O106 O 0.45702 0.48262 0.14679 0.0
O107 O 0.65219 0.36436 0.07306 0.0
O108 O 0.47066 0.22135 0.05699 0.0
O109 O 0.5285 0.41768 0.06791 0.0
O110 O 0.54688 0.16835 0.13322 0.0
O111 O 0.62487 0.12735 0.10875 0.0
C112 C 0.58526 0.11248 0.12442 0.0
C113 C 0.53392 0.17849 0.05352 0.0
O114 O 0.39612 0.29746 0.12684 0.0
O115 O 0.60781 0.27767 0.19268 0.0
O116 O 0.35128 0.3276 0.09622 0.0
O117 O 0.45058 0.18863 0.17473 0.0
O118 O 0.52737 0.38793 0.19509 0.0
O119 O 0.3692 0.29538 0.16958 0.0
O120 O 0.66907 0.3051 0.12152 0.0
O121 O 0.70534 0.24837 0.15033 0.0
C122 C 0.60531 0.41874 0.06546 0.0
C123 C 0.4848 0.49524 0.12947 0.0
H124 H 0.07306 0.38728 0.46545 0.0
C125 C 0.02001 0.35039 0.46213 0.0
H126 H 0.89811 0.32352 0.46967 0.0
H127 H 0.93934 0.47666 0.55411 0.0
H128 H 0.88086 0.34428 0.56163 0.0
H129 H 0.86237 0.24264 0.53585 0.0
H130 H 0.89512 0.2756 0.50201 0.0
C131 C 0.95176 0.36003 0.47253 0.0
C132 C 0.94921 0.42245 0.48796 0.0
C133 C 0.9354 0.39977 0.50768 0.0
C134 C 0.95047 0.45671 0.52267 0.0
C135 C 0.93099 0.43493 0.5422 0.0
C136 C 0.89761 0.35912 0.54671 0.0
C137 C 0.88674 0.30204 0.53217 0.0
C138 C 0.906 0.32157 0.51284 0.0
H139 H 0.91603 0.67519 0.52697 0.0
C140 C 0.96635 0.65896 0.53666 0.0
H141 H 0.05419 0.56983 0.54396 0.0
H142 H 0.9412 0.49458 0.45181 0.0
H143 H 0.97453 0.63446 0.44374 0.0
H144 H 0.02746 0.72675 0.46908 0.0
H145 H 0.03743 0.68148 0.5029 0.0
C146 C 0.00716 0.58986 0.53374 0.0
C147 C 0.98276 0.53442 0.51786 0.0
C148 C 0.98836 0.55954 0.49796 0.0
C149 C 0.96681 0.50449 0.48308 0.0
C150 C 0.96222 0.53306 0.46349 0.0
C151 C 0.98155 0.61315 0.45867 0.0
C152 C 0.00999 0.66518 0.47298 0.0
C153 C 0.01454 0.63865 0.49241 0.0
H154 H 0.6128 0.71003 0.77238 0.0
C155 C 0.55845 0.67427 0.7753 0.0
H156 H 0.46739 0.59932 0.76299 0.0
H157 H 0.69633 0.82616 0.70124 0.0
H158 H 0.62765 0.94047 0.71514 0.0
H159 H 0.51789 0.92035 0.73914 0.0
H160 H 0.48092 0.78422 0.75034 0.0
C161 C 0.52168 0.63552 0.76051 0.0
C162 C 0.55586 0.64299 0.74046 0.0
C163 C 0.56899 0.72131 0.73216 0.0
C164 C 0.62624 0.73202 0.71691 0.0
C165 C 0.64851 0.81263 0.71148 0.0
C166 C 0.61 0.87951 0.71955 0.0
C167 C 0.5487 0.86827 0.73317 0.0
C168 C 0.52842 0.79015 0.73953 0.0
H169 H 0.66899 0.73821 0.67291 0.0
C170 C 0.72727 0.71407 0.67782 0.0
H171 H 0.79035 0.64929 0.70002 0.0
H172 H 0.52933 0.48364 0.75042 0.0
H173 H 0.58551 0.3659 0.73429 0.0
H174 H 0.67525 0.38275 0.70571 0.0
H175 H 0.71017 0.51748 0.69323 0.0
C176 C 0.73193 0.67173 0.69474 0.0
C177 C 0.66234 0.66257 0.70834 0.0
C178 C 0.63969 0.58352 0.71487 0.0
C179 C 0.58696 0.57369 0.73112 0.0
C180 C 0.56877 0.49427 0.73805 0.0
C181 C 0.60045 0.42629 0.72889 0.0
C182 C 0.65101 0.43577 0.7128 0.0
C183 C 0.67075 0.51333 0.70583 0.0
H184 H 0.66906 0.46022 0.93927 0.0
C185 C 0.6037 0.46747 0.94069 0.0
H186 H 0.50583 0.46938 0.96038 0.0
H187 H 0.698 0.28265 0.02866 0.0
H188 H 0.67083 0.16111 0.01039 0.0
H189 H 0.61986 0.16941 0.97647 0.0
H190 H 0.59519 0.30055 0.96058 0.0
C191 C 0.56968 0.45515 0.9583 0.0
C192 C 0.61967 0.44927 0.97646 0.0
C193 C 0.63471 0.37283 0.98546 0.0
C194 C 0.66533 0.36849 0.00497 0.0
C195 C 0.67628 0.29066 0.01383 0.0
C196 C 0.66047 0.21995 0.00352 0.0
C197 C 0.63176 0.2246 0.9844 0.0
C198 C 0.61798 0.30004 0.97547 0.0
H199 H 0.59078 0.5102 0.04228 0.0
C200 C 0.63435 0.46732 0.04859 0.0
H201 H 0.7354 0.39329 0.04304 0.0
H202 H 0.60974 0.60614 0.96225 0.0
H203 H 0.65394 0.72769 0.9787 0.0
H204 H 0.71198 0.71982 0.01204 0.0
H205 H 0.72695 0.58937 0.029 0.0
C206 C 0.6929 0.43759 0.037 0.0
C207 C 0.6814 0.44132 0.01531 0.0
C208 C 0.67559 0.51731 0.00536 0.0
C209 C 0.64348 0.52152 0.98603 0.0
C210 C 0.6349 0.59884 0.9768 0.0
C211 C 0.65998 0.66929 0.98611 0.0
C212 C 0.69265 0.66486 0.00487 0.0
C213 C 0.70037 0.58989 0.01448 0.0
H214 H 0.72693 0.30139 0.32468 0.0
C215 C 0.78566 0.31356 0.31806 0.0
H216 H 0.84888 0.35764 0.29346 0.0
H217 H 0.50601 0.27084 0.24942 0.0
H218 H 0.51011 0.13685 0.2651 0.0
H219 H 0.6142 0.1042 0.29012 0.0
H220 H 0.71118 0.20452 0.3002 0.0
C221 C 0.78981 0.34761 0.30014 0.0
C222 C 0.71762 0.36669 0.2877 0.0
C223 C 0.66374 0.3041 0.28155 0.0
C224 C 0.60779 0.32039 0.26609 0.0
C225 C 0.55165 0.25955 0.26062 0.0
C226 C 0.55323 0.18286 0.2695 0.0
C227 C 0.61147 0.16469 0.28367 0.0
C228 C 0.66661 0.22392 0.28954 0.0
H229 H 0.66411 0.31093 0.22637 0.0
C230 C 0.61378 0.35009 0.2219 0.0
H231 H 0.53002 0.4393 0.23132 0.0
H232 H 0.79877 0.50386 0.29863 0.0
H233 H 0.79124 0.637 0.28266 0.0
H234 H 0.70107 0.66045 0.25413 0.0
H235 H 0.6171 0.55094 0.24152 0.0
C236 C 0.58015 0.39902 0.23516 0.0
C237 C 0.6114 0.39518 0.2556 0.0
C238 C 0.65839 0.45974 0.26294 0.0
C239 C 0.71112 0.4457 0.27917 0.0
C240 C 0.75862 0.51103 0.28611 0.0
C241 C 0.75461 0.58766 0.27714 0.0
C242 C 0.70381 0.60088 0.26107 0.0
C243 C 0.65624 0.53771 0.25394 0.0
H244 H 0.33547 0.13659 0.19701 0.0
C245 C 0.31545 0.17962 0.18574 0.0
H246 H 0.21954 0.24891 0.17409 0.0
H247 H 0.15597 0.03317 0.25872 0.0
H248 H 0.1808 0.91116 0.24035 0.0
H249 H 0.20372 0.91855 0.20472 0.0
H250 H 0.20476 0.04936 0.18743 0.0
C251 C 0.23841 0.20682 0.18562 0.0
C252 C 0.18856 0.19824 0.20371 0.0
C253 C 0.18086 0.12152 0.21327 0.0
C254 C 0.16203 0.11702 0.23353 0.0
C255 C 0.1649 0.04016 0.24315 0.0
C256 C 0.17984 0.96951 0.23279 0.0
C257 C 0.1931 0.97366 0.21275 0.0
C258 C 0.19398 0.04875 0.20304 0.0
H259 H 0.03089 0.11137 0.26542 0.0
C260 C 0.07051 0.15018 0.27397 0.0
H261 H 0.17099 0.22922 0.27371 0.0
H262 H 0.1783 0.35471 0.18861 0.0
H263 H 0.13465 0.47394 0.20566 0.0
H264 H 0.09122 0.4647 0.24006 0.0
H265 H 0.09288 0.3357 0.25768 0.0
C266 C 0.13259 0.18885 0.26527 0.0
C267 C 0.14363 0.18924 0.24368 0.0
C268 C 0.13916 0.26452 0.23331 0.0
C269 C 0.16232 0.26936 0.21333 0.0
C270 C 0.16106 0.3464 0.2037 0.0
C271 C 0.13573 0.41581 0.21332 0.0
C272 C 0.11138 0.41066 0.23269 0.0
C273 C 0.11302 0.33618 0.24264 0.0
H274 H 0.97581 0.8982 0.73222 0.0
C275 C 0.01573 0.85989 0.72375 0.0
H276 H 0.11694 0.78189 0.72408 0.0
H277 H 0.14928 0.95412 0.81143 0.0
H278 H 0.14699 0.08632 0.79483 0.0
H279 H 0.12372 0.09681 0.75918 0.0
H280 H 0.09975 0.97637 0.74009 0.0
C281 C 0.07806 0.82123 0.73257 0.0
C282 C 0.08912 0.81899 0.75422 0.0
C283 C 0.10706 0.89027 0.76484 0.0
C284 C 0.12619 0.88401 0.78513 0.0
C285 C 0.13854 0.95594 0.79579 0.0
C286 C 0.13688 0.03187 0.78648 0.0
C287 C 0.12341 0.03778 0.76642 0.0
C288 C 0.10901 0.96802 0.75564 0.0
H289 H 0.27985 0.86958 0.80321 0.0
C290 C 0.25893 0.82447 0.81383 0.0
H291 H 0.16241 0.75296 0.82393 0.0
H292 H 0.04035 0.67346 0.73922 0.0
H293 H 0.04186 0.54252 0.75593 0.0
H294 H 0.08666 0.52998 0.79028 0.0
H295 H 0.12812 0.64772 0.80826 0.0
C296 C 0.18213 0.79676 0.81292 0.0
C297 C 0.13451 0.80647 0.79432 0.0
C298 C 0.10967 0.73596 0.78414 0.0
C299 C 0.08608 0.74262 0.76413 0.0
C300 C 0.06096 0.67164 0.75428 0.0
C301 C 0.0611 0.59603 0.76371 0.0
C302 C 0.08616 0.58904 0.78306 0.0
C303 C 0.1102 0.65773 0.79322 0.0
H304 H 0.40813 0.7915 0.97306 0.0
C305 C 0.46271 0.7995 0.96435 0.0
H306 H 0.56716 0.87142 0.95928 0.0
H307 H 0.43013 0.1867 0.99742 0.0
H308 H 0.4223 0.22379 0.96294 0.0
H309 H 0.44806 0.12206 0.93762 0.0
H310 H 0.48057 0.98249 0.94657 0.0
C311 C 0.5146 0.8598 0.96846 0.0
C312 C 0.49601 0.91936 0.9838 0.0
C313 C 0.47592 0.00038 0.97824 0.0
C314 C 0.46106 0.05893 0.99281 0.0
C315 C 0.44162 0.13964 0.98692 0.0
C316 C 0.43687 0.16176 0.96718 0.0
C317 C 0.45138 0.10451 0.95292 0.0
C318 C 0.4704 0.02463 0.95829 0.0
H319 H 0.58799 0.08561 0.03504 0.0
C320 C 0.53216 0.11865 0.03789 0.0
H321 H 0.40811 0.1327 0.03017 0.0
H322 H 0.53241 0.76885 -0.00064 0.0
H323 H 0.53929 0.73151 0.03372 0.0
H324 H 0.5104 0.83225 0.059 0.0
H325 H 0.4738 0.97108 0.05001 0.0
C326 C 0.46461 0.10016 0.02788 0.0
C327 C 0.46769 0.03645 0.01283 0.0
C328 C 0.4845 0.95461 0.01839 0.0
C329 C 0.49951 0.89609 0.00384 0.0
C330 C 0.51952 0.8156 0.00977 0.0
C331 C 0.52361 0.79329 0.02948 0.0
C332 C 0.50729 0.85007 0.04371 0.0
C333 C 0.48725 0.92969 0.03834 0.0
H334 H 0.13611 0.94767 0.44285 0.0
C335 C 0.14387 0.01317 0.44342 0.0
H336 H 0.16862 0.11522 0.46058 0.0
H337 H 0.0632 0.85517 0.53056 0.0
H338 H 0.94255 0.82407 0.51164 0.0
H339 H 0.92331 0.88194 0.47846 0.0
H340 H 0.0248 0.9684 0.46386 0.0
C341 C 0.16431 0.0492 0.46032 0.0
C342 C 0.17583 0.00662 0.47958 0.0
C343 C 0.11193 0.96042 0.4883 0.0
C344 C 0.11982 0.93223 0.50801 0.0
C345 C 0.05839 0.8814 0.51599 0.0
C346 C 0.98895 0.86272 0.50528 0.0
C347 C 0.97837 0.89494 0.48657 0.0
C348 C 0.03836 0.94381 0.47819 0.0
H349 H 0.10973 0.03447 0.5476 0.0
C350 C 0.13749 0.97822 0.55291 0.0
H351 H 0.21218 0.87897 0.54536 0.0
H352 H 0.31353 0.0842 0.46697 0.0
H353 H 0.43235 0.1167 0.48657 0.0
H354 H 0.43988 0.07667 0.52148 0.0
H355 H 0.32863 0.00314 0.53698 0.0
C356 C 0.18763 0.93782 0.54092 0.0
C357 C 0.18717 0.95673 0.51956 0.0
C358 C 0.25198 -0.00023 0.51078 0.0
C359 C 0.24686 0.02381 0.49072 0.0
C360 C 0.31337 0.0659 0.48225 0.0
C361 C 0.38209 0.08455 0.4933 0.0
C362 C 0.38638 0.06195 0.51296 0.0
C363 C 0.3222 0.02 0.52168 0.0
H364 H 0.06465 0.9084 0.38226 0.0
C365 C 0.00794 0.91625 0.37422 0.0
H366 H 0.91009 0.85986 0.36002 0.0
H367 H 0.10163 0.55113 0.3341 0.0
H368 H 0.05007 0.60716 0.30343 0.0
H369 H 0.97741 0.73826 0.30245 0.0
H370 H 0.95625 0.81392 0.33193 0.0
C371 C 0.96627 0.85113 0.36821 0.0
C372 C 0.00317 0.76845 0.36935 0.0
C373 C 0.01376 0.72448 0.35182 0.0
C374 C 0.05425 0.64817 0.35237 0.0
C375 C 0.06775 0.60739 0.33459 0.0
C376 C 0.0395 0.63942 0.31685 0.0
C377 C -0.00124 0.71326 0.3163 0.0
C378 C 0.98655 0.7559 0.33346 0.0
H379 H 0.00255 0.48267 0.35891 0.0
C380 C 0.05872 0.4687 0.36672 0.0
H381 H 0.16543 0.51381 0.37959 0.0
H382 H 0.98609 0.8313 0.40619 0.0
H383 H 0.05585 0.78545 0.43555 0.0
H384 H 0.13802 0.65996 0.4357 0.0
H385 H 0.14851 0.57912 0.4067 0.0
C386 C 0.10916 0.52875 0.37198 0.0
C387 C 0.08269 0.61516 0.37043 0.0
C388 C 0.07796 0.66188 0.38764 0.0
C389 C 0.03495 0.73681 0.3873 0.0
C390 C 0.02407 0.77799 0.40514 0.0
C391 C 0.0626 0.75146 0.42224 0.0
C392 C 0.10858 0.68076 0.42233 0.0
C393 C 0.11418 0.63489 0.40547 0.0
H394 H 0.29224 0.74018 0.64745 0.0
C395 C 0.25902 0.77487 0.63633 0.0
H396 H 0.27048 0.8533 0.61174 0.0
H397 H 0.63054 0.88748 0.65696 0.0
H398 H 0.55482 0.95184 0.68277 0.0
H399 H 0.40519 0.95668 0.68185 0.0
H400 H 0.33004 0.89868 0.65489 0.0
C401 C 0.30187 0.81868 0.62315 0.0
C402 C 0.39337 0.81926 0.62354 0.0
C403 C 0.43683 0.85409 0.6394 0.0
C404 C 0.52364 0.85222 0.63987 0.0
C405 C 0.56491 0.88734 0.65587 0.0
C406 C 0.52222 0.92429 0.67081 0.0
C407 C 0.43792 0.92717 0.67026 0.0
C408 C 0.39546 0.89297 0.65475 0.0
H409 H 0.669 0.9054 0.60255 0.0
C410 C 0.70207 0.86528 0.61259 0.0
H411 H 0.68972 0.77447 0.63459 0.0
H412 H 0.33076 0.74988 0.59071 0.0
H413 H 0.40679 0.68883 0.56449 0.0
H414 H 0.55653 0.68401 0.56553 0.0
H415 H 0.63134 0.74064 0.59272 0.0
C416 C 0.65892 0.81688 0.62474 0.0
C417 C 0.56756 0.81735 0.62434 0.0
C418 C 0.52422 0.78311 0.60842 0.0
C419 C 0.43743 0.78484 0.60795 0.0
C420 C 0.39637 0.75032 0.59183 0.0
C421 C 0.43926 0.7149 0.57669 0.0
C422 C 0.52358 0.71228 0.57726 0.0
C423 C 0.56583 0.74552 0.59292 0.0
H424 H 0.37201 0.36118 0.8585 0.0
C425 C 0.42156 0.3932 0.86562 0.0
H426 H 0.53338 0.3788 0.88051 0.0
H427 H 0.35725 0.01518 0.89331 0.0
H428 H 0.27091 0.08372 0.91642 0.0
H429 H 0.27877 0.2323 0.92031 0.0
H430 H 0.37323 0.31345 0.90107 0.0
C431 C 0.4795 0.34909 0.87477 0.0
C432 C 0.47835 0.25819 0.87359 0.0
C433 C 0.42256 0.21141 0.88479 0.0
C434 C 0.4183 0.12541 0.88257 0.0
C435 C 0.36276 0.08052 0.89424 0.0
C436 C 0.31285 0.1191 0.9076 0.0
C437 C 0.31725 0.20279 0.90979 0.0
C438 C 0.37145 0.24868 0.8986 0.0
H439 H 0.585 0.9839 0.88054 0.0
C440 C 0.53238 0.95133 0.875 0.0
H441 H 0.41312 0.96425 0.86402 0.0
H442 H 0.59367 0.32876 0.8502 0.0
H443 H 0.68009 0.26061 0.82702 0.0
H444 H 0.67001 0.11254 0.82245 0.0
H445 H 0.57374 0.03155 0.84111 0.0
C446 C 0.46924 0.99483 0.86798 0.0
C447 C 0.47017 0.08587 0.86918 0.0
C448 C 0.52584 0.13284 0.85792 0.0
C449 C 0.53061 0.21869 0.86031 0.0
C450 C 0.58723 0.26359 0.84895 0.0
C451 C 0.63718 0.22526 0.83557 0.0
C452 C 0.6316 0.14186 0.83302 0.0
C453 C 0.57648 0.09597 0.84395 0.0
H454 H 0.24659 0.28835 0.1368 0.0
C455 C 0.25588 0.31041 0.12189 0.0
H456 H 0.19942 0.35061 0.09563 0.0
H457 H 0.88202 0.14827 0.11413 0.0
H458 H 0.93527 0.0775 0.08614 0.0
H459 H 0.06885 0.11414 0.07236 0.0
H460 H 0.1498 0.22152 0.08651 0.0
C461 C 0.19172 0.33055 0.11073 0.0
C462 C 0.10877 0.31448 0.11797 0.0
C463 C 0.06201 0.25243 0.10922 0.0
C464 C 0.98483 0.23203 0.11696 0.0
C465 C 0.94016 0.16785 0.10845 0.0
C466 C 0.9703 0.12624 0.09248 0.0
C467 C 0.04552 0.14679 0.08475 0.0
C468 C 0.0913 0.20878 0.09301 0.0
H469 H 0.82164 0.31288 0.1134 0.0
C470 C 0.80847 0.28636 0.12772 0.0
H471 H 0.8583 0.23792 0.15407 0.0
H472 H 0.18093 0.44102 0.13719 0.0
H473 H 0.12855 0.50958 0.16558 0.0
H474 H -0.00385 0.47081 0.17968 0.0
H475 H 0.91504 0.36385 0.16528 0.0
C476 C 0.86958 0.2621 0.13945 0.0
C477 C 0.95428 0.27497 0.13313 0.0
C478 C 0.00171 0.33568 0.14216 0.0
C479 C 0.0787 0.35657 0.13435 0.0
C480 C 0.12321 0.42065 0.14294 0.0
C481 C 0.09348 0.4611 0.15914 0.0
C482 C 0.01889 0.43938 0.16705 0.0
C483 C 0.97302 0.37779 0.15865 0.0
H484 H 0.02996 0.10553 0.61558 0.0
C485 C 0.97103 0.09569 0.62232 0.0
H486 H 0.86584 0.1481 0.63395 0.0
H487 H 0.03959 0.45796 0.66552 0.0
H488 H 0.9846 0.39531 0.69494 0.0
H489 H 0.91778 0.26124 0.69381 0.0
H490 H 0.9058 0.18929 0.66344 0.0
C491 C 0.92438 0.15886 0.6271 0.0
C492 C 0.95863 0.24219 0.62715 0.0
C493 C 0.96363 0.28376 0.64517 0.0
C494 C 0.00104 0.36133 0.64585 0.0
C495 C 0.00877 0.40026 0.6641 0.0
C496 C 0.97834 0.36457 0.68114 0.0
C497 C 0.94084 0.28909 0.6805 0.0
C498 C 0.93395 0.24862 0.66284 0.0
H499 H 0.94566 0.52812 0.6386 0.0
C500 C 0.00416 0.54268 0.63211 0.0
H501 H 0.11631 0.49937 0.62196 0.0
H502 H 0.95558 0.18112 0.58989 0.0
H503 H 0.02524 0.23664 0.56165 0.0
H504 H 0.09469 0.36922 0.56317 0.0
H505 H 0.09637 0.44555 0.59301 0.0
C506 C 0.0577 0.48377 0.62822 0.0
C507 C 0.03181 0.39764 0.6285 0.0
C508 C 0.03117 0.35428 0.61074 0.0
C509 C 0.99273 0.27718 0.60994 0.0
C510 C 0.98859 0.23728 0.59174 0.0
C511 C 0.02726 0.26914 0.57528 0.0
C512 C 0.06619 0.3438 0.57613 0.0
C513 C 0.06678 0.38695 0.59346 0.0
H514 H 0.76724 0.66045 0.88408 0.0
C515 C 0.75389 0.69387 0.87057 0.0
H516 H 0.80358 0.75258 0.84559 0.0
H517 H 0.10098 0.72791 0.9127 0.0
H518 H 0.02457 0.82982 0.92997 0.0
H519 H 0.89101 0.87653 0.91766 0.0
H520 H 0.83321 0.82141 0.88798 0.0
C521 C 0.8151 0.7218 0.85952 0.0
C522 C 0.89991 0.70319 0.86532 0.0
C523 C 0.93314 0.73687 0.88255 0.0
C524 C 0.01035 0.71066 0.88949 0.0
C525 C 0.04234 0.7453 0.90675 0.0
C526 C -0.0008 0.80407 0.91681 0.0
C527 C 0.92398 0.83029 0.9099 0.0
C528 C 0.8912 0.79761 0.89293 0.0
H529 H 0.1915 0.68294 0.86059 0.0
C530 C 0.20158 0.6535 0.87477 0.0
H531 H 0.14617 0.60334 0.90002 0.0
H532 H 0.85555 0.63181 0.83093 0.0
H533 H 0.93206 0.53023 0.81348 0.0
H534 H 0.06396 0.48066 0.82621 0.0
H535 H 0.12078 0.53351 0.85621 0.0
C536 C 0.13771 0.63007 0.88551 0.0
C537 C 0.05452 0.65198 0.87896 0.0
C538 C 0.02169 0.6191 0.86157 0.0
C539 C 0.94477 0.64593 0.85455 0.0
C540 C 0.91353 0.61304 0.83702 0.0
C541 C 0.95674 0.55462 0.82687 0.0
C542 C 0.03109 0.52689 0.834 0.0
C543 C 0.06337 0.5583 0.85116 0.0
H544 H 0.51954 0.5919 0.10833 0.0
C545 C 0.48847 0.57969 0.12206 0.0
H546 H 0.43851 0.63043 0.14755 0.0
H547 H 0.68809 0.92036 0.14548 0.0
H548 H 0.74877 0.83344 0.17058 0.0
H549 H 0.69476 0.69587 0.17723 0.0
H550 H 0.58019 0.64432 0.15876 0.0
C551 C 0.46641 0.64174 0.1334 0.0
C552 C 0.49682 0.7249 0.12943 0.0
C553 C 0.56305 0.75434 0.14064 0.0
C554 C 0.59362 0.83375 0.13699 0.0
C555 C 0.66143 0.86098 0.14793 0.0
C556 C 0.6971 0.81157 0.16232 0.0
C557 C 0.66674 0.73412 0.16606 0.0
C558 C 0.60074 0.70539 0.15536 0.0
H559 H 0.54172 0.01525 0.14439 0.0
C560 C 0.57261 0.02757 0.13064 0.0
H561 H 0.61389 0.97867 0.10406 0.0
H562 H 0.36738 0.687 0.106 0.0
H563 H 0.30434 0.7752 0.08142 0.0
H564 H 0.35568 0.91427 0.07543 0.0
H565 H 0.471 0.9656 0.09372 0.0
C566 C 0.58798 0.96654 0.11841 0.0
C567 C 0.55688 0.88363 0.12238 0.0
C568 C 0.4901 0.85449 0.1113 0.0
C569 C 0.4601 0.77471 0.11482 0.0
C570 C 0.39275 0.74712 0.1038 0.0
C571 C 0.35585 0.79719 0.08971 0.0
C572 C 0.38471 0.87552 0.08635 0.0
C573 C 0.45115 0.90412 0.09693 0.0
H574 H 0.73788 0.20537 0.36072 0.0
C575 C 0.74651 0.18011 0.37539 0.0
H576 H 0.68797 0.13798 0.40099 0.0
H577 H 0.37473 0.35029 0.3837 0.0
H578 H 0.42822 0.41229 0.41302 0.0
H579 H 0.56041 0.3693 0.4269 0.0
H580 H 0.63984 0.2644 0.41154 0.0
C581 C 0.68116 0.16062 0.38605 0.0
C582 C 0.59858 0.18077 0.37851 0.0
C583 C 0.55238 0.24119 0.38796 0.0
C584 C 0.47572 0.26513 0.38016 0.0
C585 C 0.43213 0.32789 0.3894 0.0
C586 C 0.46247 0.36456 0.40613 0.0
C587 C 0.53693 0.34044 0.41393 0.0
C588 C 0.58182 0.27988 0.40496 0.0
H589 H 0.31209 0.19027 0.38258 0.0
C590 C 0.29833 0.21786 0.36836 0.0
H591 H 0.34767 0.2676 0.3423 0.0
H592 H 0.66901 0.05898 0.35748 0.0
H593 H 0.61736 0.00107 0.32752 0.0
H594 H 0.48616 0.04605 0.31346 0.0
H595 H 0.40578 0.14897 0.32936 0.0
C596 C 0.35948 0.24239 0.35683 0.0
C597 C 0.44463 0.22726 0.3632 0.0
C598 C 0.49181 0.1688 0.3534 0.0
C599 C 0.56831 0.14436 0.36125 0.0
C600 C 0.61209 0.08235 0.35176 0.0
C601 C 0.58271 0.04788 0.33465 0.0
C602 C 0.50876 0.07305 0.32676 0.0
C603 C 0.46328 0.1323 0.33604 0.0
loop_
_geom_bond_atom_site_label_1
_geom_bond_atom_site_label_2
_geom_bond_distance
_geom_bond_site_symmetry_2
_ccdc_geom_bond_type
C0 O27 1.312 . S
C0 O28 1.208 . S
C1 O22 1.331 . S
C1 O25 1.244 . S
C2 O24 1.264 . S
C2 O26 1.273 . S
Mg3 O5 1.936 1_455 S
Mg3 O12 2.081 1_455 S
Mg3 O14 2.023 . S
Mg3 O18 2.031 . S
Mg3 O27 2.291 . S
Mg4 O5 1.963 . S
Mg4 O15 1.942 . S
Mg4 O16 1.955 . S
Mg4 O23 1.986 . S
O5 Mg3 1.936 1_655 S
O5 Mg4 1.963 . S
O5 Mg6 1.915 . S
Mg6 O5 1.915 . S
Mg6 O7 1.915 1_655 S
Mg6 O11 2.013 . S
Mg6 O17 2.114 1_655 S
Mg6 O21 2.013 . S
Mg6 O27 2.114 1_655 S
O7 Mg6 1.915 1_455 S
O7 Mg8 1.936 . S
O7 Mg9 1.963 1_455 S
Mg8 O7 1.936 . S
Mg8 O17 2.291 . S
Mg8 O22 2.081 . S
Mg8 O24 2.023 1_455 S
Mg8 O28 2.031 . S
Mg9 O7 1.963 1_655 S
Mg9 O13 1.986 . S
Mg9 O25 1.942 1_655 S
Mg9 O26 1.955 . S
C10 O21 1.191 . S
C10 O23 1.307 . S
O11 Mg6 2.013 . S
O11 C30 1.191 . S
O12 Mg3 2.081 1_655 S
O12 C20 1.331 . S
O13 Mg9 1.986 . S
O13 C30 1.307 . S
O14 Mg3 2.023 . S
O14 C29 1.264 . S
O15 Mg4 1.942 . S
O15 C20 1.244 . S
O16 Mg4 1.955 . S
O16 C29 1.273 1_655 S
O17 Mg6 2.114 1_455 S
O17 Mg8 2.291 . S
O17 C19 1.312 . S
O18 Mg3 2.031 . S
O18 C19 1.208 . S
C19 O17 1.312 . S
C19 O18 1.208 . S
C20 O12 1.331 . S
C20 O15 1.244 . S
O21 Mg6 2.013 . S
O21 C10 1.191 . S
O22 C1 1.331 . S
O22 Mg8 2.081 . S
O23 Mg4 1.986 . S
O23 C10 1.307 . S
O24 C2 1.264 . S
O24 Mg8 2.023 1_655 S
O25 C1 1.244 . S
O25 Mg9 1.942 1_455 S
O26 C2 1.273 . S
O26 Mg9 1.955 . S
O27 C0 1.312 . S
O27 Mg3 2.291 . S
O27 Mg6 2.114 1_455 S
O28 C0 1.208 . S
O28 Mg8 2.031 . S
C29 O14 1.264 . S
C29 O16 1.273 1_455 S
C30 O11 1.191 . S
C30 O13 1.307 . S
C31 O58 1.312 . S
C31 O59 1.208 . S
C32 O53 1.331 . S
C32 O56 1.244 . S
C33 O55 1.264 . S
C33 O57 1.273 . S
Mg34 O36 1.936 1_455 S
Mg34 O43 2.081 1_455 S
Mg34 O45 2.023 . S
Mg34 O49 2.031 . S
Mg34 O58 2.291 . S
Mg35 O36 1.963 . S
Mg35 O46 1.942 . S
Mg35 O47 1.955 . S
Mg35 O54 1.986 . S
O36 Mg34 1.936 1_655 S
O36 Mg35 1.963 . S
O36 Mg37 1.915 . S
Mg37 O36 1.915 . S
Mg37 O38 1.915 1_655 S
Mg37 O42 2.013 . S
Mg37 O48 2.114 1_655 S
Mg37 O52 2.013 . S
Mg37 O58 2.114 1_655 S
O38 Mg37 1.915 1_455 S
O38 Mg39 1.936 . S
O38 Mg40 1.963 1_455 S
Mg39 O38 1.936 . S
Mg39 O48 2.291 . S
Mg39 O53 2.081 . S
Mg39 O55 2.023 1_455 S
Mg39 O59 2.031 . S
Mg40 O38 1.963 1_655 S
Mg40 O44 1.986 . S
Mg40 O56 1.942 1_655 S
Mg40 O57 1.955 . S
C41 O52 1.191 . S
C41 O54 1.307 . S
O42 Mg37 2.013 . S
O42 C61 1.191 . S
O43 Mg34 2.081 1_655 S
O43 C51 1.331 . S
O44 Mg40 1.986 . S
O44 C61 1.307 . S
O45 Mg34 2.023 . S
O45 C60 1.264 . S
O46 Mg35 1.942 . S
O46 C51 1.244 . S
O47 Mg35 1.955 . S
O47 C60 1.273 1_655 S
O48 Mg37 2.114 1_455 S
O48 Mg39 2.291 . S
O48 C50 1.312 . S
O49 Mg34 2.031 . S
O49 C50 1.208 . S
C50 O48 1.312 . S
C50 O49 1.208 . S
C51 O43 1.331 . S
C51 O46 1.244 . S
O52 Mg37 2.013 . S
O52 C41 1.191 . S
O53 C32 1.331 . S
O53 Mg39 2.081 . S
O54 Mg35 1.986 . S
O54 C41 1.307 . S
O55 C33 1.264 . S
O55 Mg39 2.023 1_655 S
O56 C32 1.244 . S
O56 Mg40 1.942 1_455 S
O57 C33 1.273 . S
O57 Mg40 1.955 . S
O58 C31 1.312 . S
O58 Mg34 2.291 . S
O58 Mg37 2.114 1_455 S
O59 C31 1.208 . S
O59 Mg39 2.031 . S
C60 O45 1.264 . S
C60 O47 1.273 1_455 S
C61 O42 1.191 . S
C61 O44 1.307 . S
C62 O89 1.312 . S
C62 O90 1.208 . S
C63 O84 1.331 . S
C63 O87 1.244 . S
C64 O86 1.264 . S
C64 O88 1.273 . S
Mg65 O67 1.936 . S
Mg65 O74 2.081 . S
Mg65 O76 2.023 . S
Mg65 O80 2.031 . S
Mg65 O89 2.291 . S
Mg66 O67 1.963 . S
Mg66 O77 1.942 . S
Mg66 O78 1.955 . S
Mg66 O85 1.986 . S
O67 Mg65 1.936 . S
O67 Mg66 1.963 . S
O67 Mg68 1.915 . S
Mg68 O67 1.915 . S
Mg68 O69 1.915 . S
Mg68 O73 2.013 . S
Mg68 O79 2.114 . S
Mg68 O83 2.013 . S
Mg68 O89 2.114 . S
O69 Mg68 1.915 . S
O69 Mg70 1.936 . S
O69 Mg71 1.963 . S
Mg70 O69 1.936 . S
Mg70 O79 2.291 . S
Mg70 O84 2.081 . S
Mg70 O86 2.023 . S
Mg70 O90 2.031 . S
Mg71 O69 1.963 . S
Mg71 O75 1.986 . S
Mg71 O87 1.942 . S
Mg71 O88 1.955 . S
C72 O83 1.191 . S
C72 O85 1.307 . S
O73 Mg68 2.013 . S
O73 C92 1.191 . S
O74 Mg65 2.081 . S
O74 C82 1.331 . S
O75 Mg71 1.986 . S
O75 C92 1.307 . S
O76 Mg65 2.023 . S
O76 C91 1.264 . S
O77 Mg66 1.942 . S
O77 C82 1.244 . S
O78 Mg66 1.955 . S
O78 C91 1.273 . S
O79 Mg68 2.114 . S
O79 Mg70 2.291 . S
O79 C81 1.312 . S
O80 Mg65 2.031 . S
O80 C81 1.208 . S
C81 O79 1.312 . S
C81 O80 1.208 . S
C82 O74 1.331 . S
C82 O77 1.244 . S
O83 Mg68 2.013 . S
O83 C72 1.191 . S
O84 C63 1.331 . S
O84 Mg70 2.081 . S
O85 Mg66 1.986 . S
O85 C72 1.307 . S
O86 C64 1.264 . S
O86 Mg70 2.023 . S
O87 C63 1.244 . S
O87 Mg71 1.942 . S
O88 C64 1.273 . S
O88 Mg71 1.955 . S
O89 C62 1.312 . S
O89 Mg65 2.291 . S
O89 Mg68 2.114 . S
O90 C62 1.208 . S
O90 Mg70 2.031 . S
C91 O76 1.264 . S
C91 O78 1.273 . S
C92 O73 1.191 . S
C92 O75 1.307 . S
C93 O120 1.312 . S
C93 O121 1.208 . S
C94 O115 1.331 . S
C94 O118 1.244 . S
C95 O117 1.264 . S
C95 O119 1.273 . S
Mg96 O98 1.936 . S
Mg96 O105 2.081 . S
Mg96 O107 2.023 . S
Mg96 O111 2.031 . S
Mg96 O120 2.291 . S
Mg97 O98 1.963 . S
Mg97 O108 1.942 . S
Mg97 O109 1.955 . S
Mg97 O116 1.986 . S
O98 Mg96 1.936 . S
O98 Mg97 1.963 . S
O98 Mg99 1.915 . S
Mg99 O98 1.915 . S
Mg99 O100 1.915 . S
Mg99 O104 2.013 . S
Mg99 O110 2.114 . S
Mg99 O114 2.013 . S
Mg99 O120 2.114 . S
O100 Mg99 1.915 . S
O100 Mg101 1.936 . S
O100 Mg102 1.963 . S
Mg101 O100 1.936 . S
Mg101 O110 2.291 . S
Mg101 O115 2.081 . S
Mg101 O117 2.023 . S
Mg101 O121 2.031 . S
Mg102 O100 1.963 . S
Mg102 O106 1.986 . S
Mg102 O118 1.942 . S
Mg102 O119 1.955 . S
C103 O114 1.191 . S
C103 O116 1.307 . S
O104 Mg99 2.013 . S
O104 C123 1.191 . S
O105 Mg96 2.081 . S
O105 C113 1.331 . S
O106 Mg102 1.986 . S
O106 C123 1.307 . S
O107 Mg96 2.023 . S
O107 C122 1.264 . S
O108 Mg97 1.942 . S
O108 C113 1.244 . S
O109 Mg97 1.955 . S
O109 C122 1.273 . S
O110 Mg99 2.114 . S
O110 Mg101 2.291 . S
O110 C112 1.312 . S
O111 Mg96 2.031 . S
O111 C112 1.208 . S
C112 O110 1.312 . S
C112 O111 1.208 . S
C113 O105 1.331 . S
C113 O108 1.244 . S
O114 Mg99 2.013 . S
O114 C103 1.191 . S
O115 C94 1.331 . S
O115 Mg101 2.081 . S
O116 Mg97 1.986 . S
O116 C103 1.307 . S
O117 C95 1.264 . S
O117 Mg101 2.023 . S
O118 C94 1.244 . S
O118 Mg102 1.942 . S
O119 C95 1.273 . S
O119 Mg102 1.955 . S
O120 C93 1.312 . S
O120 Mg96 2.291 . S
O120 Mg99 2.114 . S
O121 C93 1.208 . S
O121 Mg101 2.031 . S
C122 O107 1.264 . S
C122 O109 1.273 . S
C123 O104 1.191 . S
C123 O106 1.307 . S
H124 C125 0.951 . S
C125 H124 0.951 . S
C125 C131 1.265 . S
H126 C131 0.950 . S
H127 C135 0.949 . S
H128 C136 0.950 . S
H129 C137 0.951 . S
H130 C138 0.951 . S
C131 C125 1.265 . S
C131 H126 0.950 . S
C131 C132 1.478 . S
C132 C131 1.478 . S
C132 C133 1.397 . S
C132 C149 1.394 . S
C133 C132 1.397 . S
C133 C134 1.438 . S
C133 C138 1.429 . S
C134 C133 1.438 . S
C134 C135 1.428 . S
C134 C147 1.394 . S
C135 H127 0.949 . S
C135 C134 1.428 . S
C135 C136 1.345 . S
C136 H128 0.950 . S
C136 C135 1.345 . S
C136 C137 1.424 . S
C137 H129 0.951 . S
C137 C136 1.424 . S
C137 C138 1.347 . S
C138 H130 0.951 . S
C138 C133 1.429 . S
C138 C137 1.347 . S
H139 C140 0.951 . S
C140 H139 0.951 . S
C140 C146 1.265 . S
H141 C146 0.950 . S
H142 C150 0.949 . S
H143 C151 0.950 . S
H144 C152 0.951 1_455 S
H145 C153 0.951 . S
C146 C140 1.265 . S
C146 H141 0.950 . S
C146 C147 1.478 . S
C147 C134 1.394 . S
C147 C146 1.478 . S
C147 C148 1.397 . S
C148 C147 1.397 . S
C148 C149 1.438 . S
C148 C153 1.429 . S
C149 C132 1.394 . S
C149 C148 1.438 . S
C149 C150 1.428 . S
C150 H142 0.949 . S
C150 C149 1.428 . S
C150 C151 1.345 . S
C151 H143 0.950 . S
C151 C150 1.345 . S
C151 C152 1.424 . S
C152 H144 0.951 1_655 S
C152 C151 1.424 . S
C152 C153 1.347 . S
C153 H145 0.951 . S
C153 C148 1.429 . S
C153 C152 1.347 . S
H154 C155 0.951 . S
C155 H154 0.951 . S
C155 C161 1.265 . S
H156 C161 0.950 . S
H157 C165 0.949 . S
H158 C166 0.950 . S
H159 C167 0.951 . S
H160 C168 0.951 . S
C161 C155 1.265 . S
C161 H156 0.950 . S
C161 C162 1.478 . S
C162 C161 1.478 . S
C162 C163 1.397 . S
C162 C179 1.394 . S
C163 C162 1.397 . S
C163 C164 1.438 . S
C163 C168 1.429 . S
C164 C163 1.438 . S
C164 C165 1.428 . S
C164 C177 1.394 . S
C165 H157 0.949 . S
C165 C164 1.428 . S
C165 C166 1.345 . S
C166 H158 0.950 . S
C166 C165 1.345 . S
C166 C167 1.424 . S
C167 H159 0.951 . S
C167 C166 1.424 . S
C167 C168 1.347 . S
C168 H160 0.951 . S
C168 C163 1.429 . S
C168 C167 1.347 . S
H169 C170 0.951 . S
C170 H169 0.951 . S
C170 C176 1.265 . S
H171 C176 0.950 . S
H172 C180 0.949 . S
H173 C181 0.950 . S
H174 C182 0.951 . S
H175 C183 0.951 . S
C176 C170 1.265 . S
C176 H171 0.950 . S
C176 C177 1.478 . S
C177 C164 1.394 . S
C177 C176 1.478 . S
C177 C178 1.397 . S
C178 C177 1.397 . S
C178 C179 1.438 . S
C178 C183 1.429 . S
C179 C162 1.394 . S
C179 C178 1.438 . S
C179 C180 1.428 . S
C180 H172 0.949 . S
C180 C179 1.428 . S
C180 C181 1.345 . S
C181 H173 0.950 . S
C181 C180 1.345 . S
C181 C182 1.424 . S
C182 H174 0.951 . S
C182 C181 1.424 . S
C182 C183 1.347 . S
C183 H175 0.951 . S
C183 C178 1.429 . S
C183 C182 1.347 . S
H184 C185 0.951 . S
C185 H184 0.951 . S
C185 C191 1.265 . S
H186 C191 0.950 . S
H187 C195 0.949 . S
H188 C196 0.950 . S
H189 C197 0.951 . S
H190 C198 0.951 . S
C191 C185 1.265 . S
C191 H186 0.950 . S
C191 C192 1.478 . S
C192 C191 1.478 . S
C192 C193 1.397 . S
C192 C209 1.394 . S
C193 C192 1.397 . S
C193 C194 1.438 1_556 S
C193 C198 1.429 . S
C194 C193 1.438 1_554 S
C194 C195 1.428 . S
C194 C207 1.394 . S
C195 H187 0.949 . S
C195 C194 1.428 . S
C195 C196 1.345 1_554 S
C196 H188 0.950 . S
C196 C195 1.345 1_556 S
C196 C197 1.424 . S
C197 H189 0.951 . S
C197 C196 1.424 . S
C197 C198 1.347 . S
C198 H190 0.951 . S
C198 C193 1.429 . S
C198 C197 1.347 . S
H199 C200 0.951 . S
C200 H199 0.951 . S
C200 C206 1.265 . S
H201 C206 0.950 . S
H202 C210 0.949 . S
H203 C211 0.950 . S
H204 C212 0.951 . S
H205 C213 0.951 . S
C206 C200 1.265 . S
C206 H201 0.950 . S
C206 C207 1.478 . S
C207 C194 1.394 . S
C207 C206 1.478 . S
C207 C208 1.397 . S
C208 C207 1.397 . S
C208 C209 1.438 1_554 S
C208 C213 1.429 . S
C209 C192 1.394 . S
C209 C208 1.438 1_556 S
C209 C210 1.428 . S
C210 H202 0.949 . S
C210 C209 1.428 . S
C210 C211 1.345 1_556 S
C211 H203 0.950 . S
C211 C210 1.345 1_554 S
C211 C212 1.424 . S
C212 H204 0.951 . S
C212 C211 1.424 . S
C212 C213 1.347 . S
C213 H205 0.951 . S
C213 C208 1.429 . S
C213 C212 1.347 . S
H214 C215 0.951 . S
C215 H214 0.951 . S
C215 C221 1.265 . S
H216 C221 0.950 . S
H217 C225 0.949 . S
H218 C226 0.950 . S
H219 C227 0.951 . S
H220 C228 0.951 . S
C221 C215 1.265 . S
C221 H216 0.950 . S
C221 C222 1.478 . S
C222 C221 1.478 . S
C222 C223 1.397 . S
C222 C239 1.394 . S
C223 C222 1.397 . S
C223 C224 1.438 . S
C223 C228 1.429 . S
C224 C223 1.438 . S
C224 C225 1.428 . S
C224 C237 1.394 . S
C225 H217 0.949 . S
C225 C224 1.428 . S
C225 C226 1.345 . S
C226 H218 0.950 . S
C226 C225 1.345 . S
C226 C227 1.424 . S
C227 H219 0.951 . S
C227 C226 1.424 . S
C227 C228 1.347 . S
C228 H220 0.951 . S
C228 C223 1.429 . S
C228 C227 1.347 . S
H229 C230 0.951 . S
C230 H229 0.951 . S
C230 C236 1.265 . S
H231 C236 0.950 . S
H232 C240 0.949 . S
H233 C241 0.950 . S
H234 C242 0.951 . S
H235 C243 0.951 . S
C236 C230 1.265 . S
C236 H231 0.950 . S
C236 C237 1.478 . S
C237 C224 1.394 . S
C237 C236 1.478 . S
C237 C238 1.397 . S
C238 C237 1.397 . S
C238 C239 1.438 . S
C238 C243 1.429 . S
C239 C222 1.394 . S
C239 C238 1.438 . S
C239 C240 1.428 . S
C240 H232 0.949 . S
C240 C239 1.428 . S
C240 C241 1.345 . S
C241 H233 0.950 . S
C241 C240 1.345 . S
C241 C242 1.424 . S
C242 H234 0.951 . S
C242 C241 1.424 . S
C242 C243 1.347 . S
C243 H235 0.951 . S
C243 C238 1.429 . S
C243 C242 1.347 . S
H244 C245 0.951 . S
C245 H244 0.951 . S
C245 C251 1.265 . S
H246 C251 0.950 . S
H247 C255 0.949 . S
H248 C256 0.950 . S
H249 C257 0.951 . S
H250 C258 0.951 . S
C251 C245 1.265 . S
C251 H246 0.950 . S
C251 C252 1.478 . S
C252 C251 1.478 . S
C252 C253 1.397 . S
C252 C269 1.394 . S
C253 C252 1.397 . S
C253 C254 1.438 . S
C253 C258 1.429 . S
C254 C253 1.438 . S
C254 C255 1.428 . S
C254 C267 1.394 . S
C255 H247 0.949 . S
C255 C254 1.428 . S
C255 C256 1.345 1_545 S
C256 H248 0.950 . S
C256 C255 1.345 1_565 S
C256 C257 1.424 . S
C257 H249 0.951 . S
C257 C256 1.424 . S
C257 C258 1.347 1_565 S
C258 H250 0.951 . S
C258 C253 1.429 . S
C258 C257 1.347 1_545 S
H259 C260 0.951 . S
C260 H259 0.951 . S
C260 C266 1.265 . S
H261 C266 0.950 . S
H262 C270 0.949 . S
H263 C271 0.950 . S
H264 C272 0.951 . S
H265 C273 0.951 . S
C266 C260 1.265 . S
C266 H261 0.950 . S
C266 C267 1.478 . S
C267 C254 1.394 . S
C267 C266 1.478 . S
C267 C268 1.397 . S
C268 C267 1.397 . S
C268 C269 1.438 . S
C268 C273 1.429 . S
C269 C252 1.394 . S
C269 C268 1.438 . S
C269 C270 1.428 . S
C270 H262 0.949 . S
C270 C269 1.428 . S
C270 C271 1.345 . S
C271 H263 0.950 . S
C271 C270 1.345 . S
C271 C272 1.424 . S
C272 H264 0.951 . S
C272 C271 1.424 . S
C272 C273 1.347 . S
C273 H265 0.951 . S
C273 C268 1.429 . S
C273 C272 1.347 . S
H274 C275 0.951 . S
C275 H274 0.951 . S
C275 C281 1.265 . S
H276 C281 0.950 . S
H277 C285 0.949 . S
H278 C286 0.950 . S
H279 C287 0.951 . S
H280 C288 0.951 . S
C281 C275 1.265 . S
C281 H276 0.950 . S
C281 C282 1.478 . S
C282 C281 1.478 . S
C282 C283 1.397 . S
C282 C299 1.394 . S
C283 C282 1.397 . S
C283 C284 1.438 . S
C283 C288 1.429 . S
C284 C283 1.438 . S
C284 C285 1.428 . S
C284 C297 1.394 . S
C285 H277 0.949 . S
C285 C284 1.428 . S
C285 C286 1.345 1_565 S
C286 H278 0.950 . S
C286 C285 1.345 1_545 S
C286 C287 1.424 . S
C287 H279 0.951 . S
C287 C286 1.424 . S
C287 C288 1.347 1_545 S
C288 H280 0.951 . S
C288 C283 1.429 . S
C288 C287 1.347 1_565 S
H289 C290 0.951 . S
C290 H289 0.951 . S
C290 C296 1.265 . S
H291 C296 0.950 . S
H292 C300 0.949 . S
H293 C301 0.950 . S
H294 C302 0.951 . S
H295 C303 0.951 . S
C296 C290 1.265 . S
C296 H291 0.950 . S
C296 C297 1.478 . S
C297 C284 1.394 . S
C297 C296 1.478 . S
C297 C298 1.397 . S
C298 C297 1.397 . S
C298 C299 1.438 . S
C298 C303 1.429 . S
C299 C282 1.394 . S
C299 C298 1.438 . S
C299 C300 1.428 . S
C300 H292 0.949 . S
C300 C299 1.428 . S
C300 C301 1.345 . S
C301 H293 0.950 . S
C301 C300 1.345 . S
C301 C302 1.424 . S
C302 H294 0.951 . S
C302 C301 1.424 . S
C302 C303 1.347 . S
C303 H295 0.951 . S
C303 C298 1.429 . S
C303 C302 1.347 . S
H304 C305 0.951 . S
C305 H304 0.951 . S
C305 C311 1.265 . S
H306 C311 0.950 . S
H307 C315 0.949 . S
H308 C316 0.950 . S
H309 C317 0.951 . S
H310 C318 0.951 . S
C311 C305 1.265 . S
C311 H306 0.950 . S
C311 C312 1.478 . S
C312 C311 1.478 . S
C312 C313 1.397 1_565 S
C312 C329 1.394 . S
C313 C312 1.397 1_545 S
C313 C314 1.438 1_556 S
C313 C318 1.429 . S
C314 C313 1.438 1_554 S
C314 C315 1.428 . S
C314 C327 1.394 . S
C315 H307 0.949 . S
C315 C314 1.428 . S
C315 C316 1.345 1_554 S
C316 H308 0.950 . S
C316 C315 1.345 1_556 S
C316 C317 1.424 . S
C317 H309 0.951 . S
C317 C316 1.424 . S
C317 C318 1.347 . S
C318 H310 0.951 . S
C318 C313 1.429 . S
C318 C317 1.347 . S
H319 C320 0.951 . S
C320 H319 0.951 . S
C320 C326 1.265 . S
H321 C326 0.950 . S
H322 C330 0.949 . S
H323 C331 0.950 . S
H324 C332 0.951 . S
H325 C333 0.951 . S
C326 C320 1.265 . S
C326 H321 0.950 . S
C326 C327 1.478 . S
C327 C314 1.394 . S
C327 C326 1.478 . S
C327 C328 1.397 1_545 S
C328 C327 1.397 1_565 S
C328 C329 1.438 1_554 S
C328 C333 1.429 . S
C329 C312 1.394 . S
C329 C328 1.438 1_556 S
C329 C330 1.428 . S
C330 H322 0.949 . S
C330 C329 1.428 . S
C330 C331 1.345 1_556 S
C331 H323 0.950 . S
C331 C330 1.345 1_554 S
C331 C332 1.424 . S
C332 H324 0.951 . S
C332 C331 1.424 . S
C332 C333 1.347 . S
C333 H325 0.951 . S
C333 C328 1.429 . S
C333 C332 1.347 . S
H334 C335 0.951 . S
C335 H334 0.951 . S
C335 C341 1.265 . S
H336 C341 0.960 . S
H337 C345 0.949 . S
H338 C346 0.950 . S
H339 C347 0.951 . S
H340 C348 0.951 . S
C341 C335 1.265 . S
C341 H336 0.960 . S
C341 C342 1.478 . S
C342 C341 1.478 . S
C342 C343 1.397 1_545 S
C342 C359 1.394 . S
C343 C342 1.397 1_565 S
C343 C344 1.438 . S
C343 C348 1.429 1_455 S
C344 C343 1.438 . S
C344 C345 1.428 . S
C344 C357 1.394 . S
C345 H337 0.949 . S
C345 C344 1.428 . S
C345 C346 1.345 1_455 S
C346 H338 0.950 . S
C346 C345 1.345 1_655 S
C346 C347 1.424 . S
C347 H339 0.951 . S
C347 C346 1.424 . S
C347 C348 1.347 . S
C348 H340 0.951 . S
C348 C343 1.429 1_655 S
C348 C347 1.347 . S
H349 C350 0.951 . S
C350 H349 0.951 . S
C350 C356 1.265 . S
H351 C356 0.950 . S
H352 C360 0.949 . S
H353 C361 0.950 . S
H354 C362 0.951 . S
H355 C363 0.951 . S
C356 C350 1.265 . S
C356 H351 0.950 . S
C356 C357 1.478 . S
C357 C344 1.394 . S
C357 C356 1.478 . S
C357 C358 1.397 1_565 S
C358 C357 1.397 1_545 S
C358 C359 1.438 . S
C358 C363 1.429 . S
C359 C342 1.394 . S
C359 C358 1.438 . S
C359 C360 1.428 . S
C360 H352 0.949 . S
C360 C359 1.428 . S
C360 C361 1.345 . S
C361 H353 0.950 . S
C361 C360 1.345 . S
C361 C362 1.424 . S
C362 H354 0.951 . S
C362 C361 1.424 . S
C362 C363 1.347 . S
C363 H355 0.951 . S
C363 C358 1.429 . S
C363 C362 1.347 . S
H364 C365 0.951 . S
C365 H364 0.951 . S
C365 C371 1.265 1_455 S
H366 C371 0.950 . S
H367 C375 0.949 . S
H368 C376 0.950 . S
H369 C377 0.951 . S
H370 C378 0.951 . S
C371 C365 1.265 1_655 S
C371 H366 0.950 . S
C371 C372 1.478 . S
C372 C371 1.478 . S
C372 C373 1.397 . S
C372 C389 1.394 1_655 S
C373 C372 1.397 . S
C373 C374 1.438 . S
C373 C378 1.429 . S
C374 C373 1.438 . S
C374 C375 1.428 . S
C374 C387 1.394 1_655 S
C375 H367 0.949 . S
C375 C374 1.428 . S
C375 C376 1.345 . S
C376 H368 0.950 . S
C376 C375 1.345 . S
C376 C377 1.424 . S
C377 H369 0.951 . S
C377 C376 1.424 . S
C377 C378 1.347 . S
C378 H370 0.951 . S
C378 C373 1.429 . S
C378 C377 1.347 . S
H379 C380 0.951 . S
C380 H379 0.951 . S
C380 C386 1.265 1_655 S
H381 C386 0.950 . S
H382 C390 0.949 . S
H383 C391 0.950 . S
H384 C392 0.951 . S
H385 C393 0.951 . S
C386 C380 1.265 1_455 S
C386 H381 0.950 . S
C386 C387 1.478 . S
C387 C374 1.394 1_455 S
C387 C386 1.478 . S
C387 C388 1.397 . S
C388 C387 1.397 . S
C388 C389 1.438 . S
C388 C393 1.429 . S
C389 C372 1.394 1_455 S
C389 C388 1.438 . S
C389 C390 1.428 . S
C390 H382 0.949 . S
C390 C389 1.428 . S
C390 C391 1.345 . S
C391 H383 0.950 . S
C391 C390 1.345 . S
C391 C392 1.424 . S
C392 H384 0.951 . S
C392 C391 1.424 . S
C392 C393 1.347 . S
C393 H385 0.951 . S
C393 C388 1.429 . S
C393 C392 1.347 . S
H394 C395 0.951 . S
C395 H394 0.951 . S
C395 C401 1.265 . S
H396 C401 0.950 . S
H397 C405 0.949 . S
H398 C406 0.950 . S
H399 C407 0.951 . S
H400 C408 0.951 . S
C401 C395 1.265 . S
C401 H396 0.950 . S
C401 C402 1.478 . S
C402 C401 1.478 . S
C402 C403 1.397 . S
C402 C419 1.394 . S
C403 C402 1.397 . S
C403 C404 1.438 . S
C403 C408 1.429 . S
C404 C403 1.438 . S
C404 C405 1.428 . S
C404 C417 1.394 . S
C405 H397 0.949 . S
C405 C404 1.428 . S
C405 C406 1.345 . S
C406 H398 0.950 . S
C406 C405 1.345 . S
C406 C407 1.424 . S
C407 H399 0.951 . S
C407 C406 1.424 . S
C407 C408 1.347 . S
C408 H400 0.951 . S
C408 C403 1.429 . S
C408 C407 1.347 . S
H409 C410 0.951 . S
C410 H409 0.951 . S
C410 C416 1.265 . S
H411 C416 0.950 . S
H412 C420 0.949 . S
H413 C421 0.950 . S
H414 C422 0.951 . S
H415 C423 0.951 . S
C416 C410 1.265 . S
C416 H411 0.950 . S
C416 C417 1.478 . S
C417 C404 1.394 . S
C417 C416 1.478 . S
C417 C418 1.397 . S
C418 C417 1.397 . S
C418 C419 1.438 . S
C418 C423 1.429 . S
C419 C402 1.394 . S
C419 C418 1.438 . S
C419 C420 1.428 . S
C420 H412 0.949 . S
C420 C419 1.428 . S
C420 C421 1.345 . S
C421 H413 0.950 . S
C421 C420 1.345 . S
C421 C422 1.424 . S
C422 H414 0.951 . S
C422 C421 1.424 . S
C422 C423 1.347 . S
C423 H415 0.951 . S
C423 C418 1.429 . S
C423 C422 1.347 . S
H424 C425 0.951 . S
C425 H424 0.951 . S
C425 C431 1.265 . S
H426 C431 0.950 . S
H427 C435 0.949 . S
H428 C436 0.950 . S
H429 C437 0.951 . S
H430 C438 0.951 . S
C431 C425 1.265 . S
C431 H426 0.950 . S
C431 C432 1.478 . S
C432 C431 1.478 . S
C432 C433 1.397 . S
C432 C449 1.394 . S
C433 C432 1.397 . S
C433 C434 1.438 . S
C433 C438 1.429 . S
C434 C433 1.438 . S
C434 C435 1.428 . S
C434 C447 1.394 . S
C435 H427 0.949 . S
C435 C434 1.428 . S
C435 C436 1.345 . S
C436 H428 0.950 . S
C436 C435 1.345 . S
C436 C437 1.424 . S
C437 H429 0.951 . S
C437 C436 1.424 . S
C437 C438 1.347 . S
C438 H430 0.951 . S
C438 C433 1.429 . S
C438 C437 1.347 . S
H439 C440 0.951 . S
C440 H439 0.951 . S
C440 C446 1.265 . S
H441 C446 0.950 . S
H442 C450 0.949 . S
H443 C451 0.950 . S
H444 C452 0.951 . S
H445 C453 0.951 . S
C446 C440 1.265 . S
C446 H441 0.950 . S
C446 C447 1.478 . S
C447 C434 1.394 . S
C447 C446 1.478 . S
C447 C448 1.397 . S
C448 C447 1.397 . S
C448 C449 1.438 . S
C448 C453 1.429 . S
C449 C432 1.394 . S
C449 C448 1.438 . S
C449 C450 1.428 . S
C450 H442 0.949 . S
C450 C449 1.428 . S
C450 C451 1.345 . S
C451 H443 0.950 . S
C451 C450 1.345 . S
C451 C452 1.424 . S
C452 H444 0.951 . S
C452 C451 1.424 . S
C452 C453 1.347 . S
C453 H445 0.951 . S
C453 C448 1.429 . S
C453 C452 1.347 . S
H454 C455 0.951 . S
C455 H454 0.951 . S
C455 C461 1.265 . S
H456 C461 0.950 . S
H457 C465 0.949 . S
H458 C466 0.950 . S
H459 C467 0.951 . S
H460 C468 0.951 . S
C461 C455 1.265 . S
C461 H456 0.950 . S
C461 C462 1.478 . S
C462 C461 1.478 . S
C462 C463 1.397 . S
C462 C479 1.394 . S
C463 C462 1.397 . S
C463 C464 1.438 1_455 S
C463 C468 1.429 . S
C464 C463 1.438 1_655 S
C464 C465 1.428 . S
C464 C477 1.394 . S
C465 H457 0.949 . S
C465 C464 1.428 . S
C465 C466 1.345 . S
C466 H458 0.950 . S
C466 C465 1.345 . S
C466 C467 1.424 1_655 S
C467 H459 0.951 . S
C467 C466 1.424 1_455 S
C467 C468 1.347 . S
C468 H460 0.951 . S
C468 C463 1.429 . S
C468 C467 1.347 . S
H469 C470 0.951 . S
C470 H469 0.951 . S
C470 C476 1.265 . S
H471 C476 0.950 . S
H472 C480 0.949 . S
H473 C481 0.950 . S
H474 C482 0.951 . S
H475 C483 0.951 . S
C476 C470 1.265 . S
C476 H471 0.950 . S
C476 C477 1.478 . S
C477 C464 1.394 . S
C477 C476 1.478 . S
C477 C478 1.397 . S
C478 C477 1.397 . S
C478 C479 1.438 1_655 S
C478 C483 1.429 . S
C479 C462 1.394 . S
C479 C478 1.438 1_455 S
C479 C480 1.428 . S
C480 H472 0.949 . S
C480 C479 1.428 . S
C480 C481 1.345 . S
C481 H473 0.950 . S
C481 C480 1.345 . S
C481 C482 1.424 1_455 S
C482 H474 0.951 . S
C482 C481 1.424 1_655 S
C482 C483 1.347 . S
C483 H475 0.951 . S
C483 C478 1.429 . S
C483 C482 1.347 . S
H484 C485 0.951 . S
C485 H484 0.951 . S
C485 C491 1.265 1_455 S
H486 C491 0.950 . S
H487 C495 0.949 . S
H488 C496 0.950 . S
H489 C497 0.951 . S
H490 C498 0.951 . S
C491 C485 1.265 1_655 S
C491 H486 0.950 . S
C491 C492 1.478 . S
C492 C491 1.478 . S
C492 C493 1.397 . S
C492 C509 1.394 1_655 S
C493 C492 1.397 . S
C493 C494 1.438 . S
C493 C498 1.429 . S
C494 C493 1.438 . S
C494 C495 1.428 . S
C494 C507 1.394 1_655 S
C495 H487 0.949 . S
C495 C494 1.428 . S
C495 C496 1.345 . S
C496 H488 0.950 . S
C496 C495 1.345 . S
C496 C497 1.424 . S
C497 H489 0.951 . S
C497 C496 1.424 . S
C497 C498 1.347 . S
C498 H490 0.951 . S
C498 C493 1.429 . S
C498 C497 1.347 . S
H499 C500 0.951 . S
C500 H499 0.951 . S
C500 C506 1.265 1_655 S
H501 C506 0.950 . S
H502 C510 0.949 . S
H503 C511 0.950 . S
H504 C512 0.951 . S
H505 C513 0.951 . S
C506 C500 1.265 1_455 S
C506 H501 0.950 . S
C506 C507 1.478 . S
C507 C494 1.394 1_455 S
C507 C506 1.478 . S
C507 C508 1.397 . S
C508 C507 1.397 . S
C508 C509 1.438 . S
C508 C513 1.429 . S
C509 C492 1.394 1_455 S
C509 C508 1.438 . S
C509 C510 1.428 . S
C510 H502 0.949 . S
C510 C509 1.428 . S
C510 C511 1.345 . S
C511 H503 0.950 . S
C511 C510 1.345 . S
C511 C512 1.424 . S
C512 H504 0.951 . S
C512 C511 1.424 . S
C512 C513 1.347 . S
C513 H505 0.951 . S
C513 C508 1.429 . S
C513 C512 1.347 . S
H514 C515 0.951 . S
C515 H514 0.951 . S
C515 C521 1.265 . S
H516 C521 0.950 . S
H517 C525 0.949 . S
H518 C526 0.950 . S
H519 C527 0.951 . S
H520 C528 0.951 . S
C521 C515 1.265 . S
C521 H516 0.950 . S
C521 C522 1.478 . S
C522 C521 1.478 . S
C522 C523 1.397 . S
C522 C539 1.394 . S
C523 C522 1.397 . S
C523 C524 1.438 1_655 S
C523 C528 1.429 . S
C524 C523 1.438 1_455 S
C524 C525 1.428 . S
C524 C537 1.394 . S
C525 H517 0.949 . S
C525 C524 1.428 . S
C525 C526 1.345 . S
C526 H518 0.950 . S
C526 C525 1.345 . S
C526 C527 1.424 1_455 S
C527 H519 0.951 . S
C527 C526 1.424 1_655 S
C527 C528 1.347 . S
C528 H520 0.951 . S
C528 C523 1.429 . S
C528 C527 1.347 . S
H529 C530 0.951 . S
C530 H529 0.951 . S
C530 C536 1.265 . S
H531 C536 0.950 . S
H532 C540 0.949 . S
H533 C541 0.950 . S
H534 C542 0.951 . S
H535 C543 0.951 . S
C536 C530 1.265 . S
C536 H531 0.950 . S
C536 C537 1.478 . S
C537 C524 1.394 . S
C537 C536 1.478 . S
C537 C538 1.397 . S
C538 C537 1.397 . S
C538 C539 1.438 1_455 S
C538 C543 1.429 . S
C539 C522 1.394 . S
C539 C538 1.438 1_655 S
C539 C540 1.428 . S
C540 H532 0.949 . S
C540 C539 1.428 . S
C540 C541 1.345 . S
C541 H533 0.950 . S
C541 C540 1.345 . S
C541 C542 1.424 1_655 S
C542 H534 0.951 . S
C542 C541 1.424 1_455 S
C542 C543 1.347 . S
C543 H535 0.951 . S
C543 C538 1.429 . S
C543 C542 1.347 . S
H544 C545 0.951 . S
C545 H544 0.951 . S
C545 C551 1.265 . S
H546 C551 0.950 . S
H547 C555 0.949 . S
H548 C556 0.950 . S
H549 C557 0.951 . S
H550 C558 0.951 . S
C551 C545 1.265 . S
C551 H546 0.950 . S
C551 C552 1.478 . S
C552 C551 1.478 . S
C552 C553 1.397 . S
C552 C569 1.394 . S
C553 C552 1.397 . S
C553 C554 1.438 . S
C553 C558 1.429 . S
C554 C553 1.438 . S
C554 C555 1.428 . S
C554 C567 1.394 . S
C555 H547 0.949 . S
C555 C554 1.428 . S
C555 C556 1.345 . S
C556 H548 0.950 . S
C556 C555 1.345 . S
C556 C557 1.424 . S
C557 H549 0.951 . S
C557 C556 1.424 . S
C557 C558 1.347 . S
C558 H550 0.951 . S
C558 C553 1.429 . S
C558 C557 1.347 . S
H559 C560 0.951 . S
C560 H559 0.951 . S
C560 C566 1.265 . S
H561 C566 0.950 . S
H562 C570 0.949 . S
H563 C571 0.950 . S
H564 C572 0.951 . S
H565 C573 0.951 . S
C566 C560 1.265 . S
C566 H561 0.950 . S
C566 C567 1.478 . S
C567 C554 1.394 . S
C567 C566 1.478 . S
C567 C568 1.397 . S
C568 C567 1.397 . S
C568 C569 1.438 . S
C568 C573 1.429 . S
C569 C552 1.394 . S
C569 C568 1.438 . S
C569 C570 1.428 . S
C570 H562 0.949 . S
C570 C569 1.428 . S
C570 C571 1.345 . S
C571 H563 0.950 . S
C571 C570 1.345 . S
C571 C572 1.424 . S
C572 H564 0.951 . S
C572 C571 1.424 . S
C572 C573 1.347 . S
C573 H565 0.951 . S
C573 C568 1.429 . S
C573 C572 1.347 . S
H574 C575 0.951 . S
C575 H574 0.951 . S
C575 C581 1.265 . S
H576 C581 0.950 . S
H577 C585 0.949 . S
H578 C586 0.950 . S
H579 C587 0.951 . S
H580 C588 0.951 . S
C581 C575 1.265 . S
C581 H576 0.950 . S
C581 C582 1.478 . S
C582 C581 1.478 . S
C582 C583 1.397 . S
C582 C599 1.394 . S
C583 C582 1.397 . S
C583 C584 1.438 . S
C583 C588 1.429 . S
C584 C583 1.438 . S
C584 C585 1.428 . S
C584 C597 1.394 . S
C585 H577 0.949 . S
C585 C584 1.428 . S
C585 C586 1.345 . S
C586 H578 0.950 . S
C586 C585 1.345 . S
C586 C587 1.424 . S
C587 H579 0.951 . S
C587 C586 1.424 . S
C587 C588 1.347 . S
C588 H580 0.951 . S
C588 C583 1.429 . S
C588 C587 1.347 . S
H589 C590 0.951 . S
C590 H589 0.951 . S
C590 C596 1.265 . S
H591 C596 0.950 . S
H592 C600 0.949 . S
H593 C601 0.950 . S
H594 C602 0.951 . S
H595 C603 0.951 . S
C596 C590 1.265 . S
C596 H591 0.950 . S
C596 C597 1.478 . S
C597 C584 1.394 . S
C597 C596 1.478 . S
C597 C598 1.397 . S
C598 C597 1.397 . S
C598 C599 1.438 . S
C598 C603 1.429 . S
C599 C582 1.394 . S
C599 C598 1.438 . S
C599 C600 1.428 . S
C600 H592 0.949 . S
C600 C599 1.428 . S
C600 C601 1.345 . S
C601 H593 0.950 . S
C601 C600 1.345 . S
C601 C602 1.424 . S
C602 H594 0.951 . S
C602 C601 1.424 . S
C602 C603 1.347 . S
C603 H595 0.951 . S
C603 C598 1.429 . S
C603 C602 1.347 . S
C125 C20 1.195 . S
C140 C51 1.301 . S
C155 C82 1.400 . S
C170 C33 1.381 . S
C185 C64 1.482 . S
C200 C122 1.400 . S
C215 C2 1.396 . S
C230 C94 1.386 . S
C245 C95 1.313 . S
C260 C1 1.323 . S
C275 C32 1.319 . S
C290 C91 1.317 . S
C305 C63 1.243 . S
C320 C113 1.188 . S
C335 C29 1.519 . S
C350 C60 1.421 . S
C365 C30 1.504 1_465 S
C380 C19 1.500 1_655 S
C395 C31 1.443 . S
C410 C41 1.474 . S
C425 C72 1.451 . S
C440 C62 1.428 1_545 S
C455 C103 1.512 . S
C470 C93 1.507 . S
C485 C61 1.508 1_445 S
C500 C50 1.503 1_655 S
C515 C81 1.502 . S
C530 C92 1.506 . S
C545 C123 1.507 . S
C560 C112 1.502 1_565 S
C575 C10 1.516 . S
C590 C0 1.510 . S
