# Generated by pormake.
# Topology noy, (5)-cn, num edge types: 1
# Building blocks:
#     Node 0, Type 0, BuildingBlock: XOMCOT_clean_sbu_1, # of connection points: 5
#     Node 1, Type 0, BuildingBlock: XOMCOT_clean_sbu_1, # of connection points: 5
#     Node 2, Type 0, BuildingBlock: XOMCOT_clean_sbu_1, # of connection points: 5
#     Node 3, Type 0, BuildingBlock: XOMCOT_clean_sbu_1, # of connection points: 5
#     Node 4, Type 0, BuildingBlock: XOMCOT_clean_sbu_1, # of connection points: 5
#     Node 5, Type 0, BuildingBlock: XOMCOT_clean_sbu_1, # of connection points: 5
#     Node 6, Type 0, BuildingBlock: XOMCOT_clean_sbu_1, # of connection points: 5
#     Node 7, Type 0, BuildingBlock: XOMCOT_clean_sbu_1, # of connection points: 5
#     Edge 8, Type (0, 0), BuildingBlock: MIFKUJ_clean_linker_0, # of connection points: 2
#     Edge 9, Type (0, 0), BuildingBlock: MIFKUJ_clean_linker_0, # of connection points: 2
#     Edge 10, Type (0, 0), BuildingBlock: MIFKUJ_clean_linker_0, # of connection points: 2
#     Edge 11, Type (0, 0), BuildingBlock: MIFKUJ_clean_linker_0, # of connection points: 2
#     Edge 12, Type (0, 0), BuildingBlock: MIFKUJ_clean_linker_0, # of connection points: 2
#     Edge 13, Type (0, 0), BuildingBlock: MIFKUJ_clean_linker_0, # of connection points: 2
#     Edge 14, Type (0, 0), BuildingBlock: MIFKUJ_clean_linker_0, # of connection points: 2
#     Edge 15, Type (0, 0), BuildingBlock: MIFKUJ_clean_linker_0, # of connection points: 2
#     Edge 16, Type (0, 0), BuildingBlock: MIFKUJ_clean_linker_0, # of connection points: 2
#     Edge 17, Type (0, 0), BuildingBlock: MIFKUJ_clean_linker_0, # of connection points: 2
#     Edge 18, Type (0, 0), BuildingBlock: MIFKUJ_clean_linker_0, # of connection points: 2
#     Edge 19, Type (0, 0), BuildingBlock: MIFKUJ_clean_linker_0, # of connection points: 2
#     Edge 20, Type (0, 0), BuildingBlock: MIFKUJ_clean_linker_0, # of connection points: 2
#     Edge 21, Type (0, 0), BuildingBlock: MIFKUJ_clean_linker_0, # of connection points: 2
#     Edge 22, Type (0, 0), BuildingBlock: MIFKUJ_clean_linker_0, # of connection points: 2
#     Edge 23, Type (0, 0), BuildingBlock: MIFKUJ_clean_linker_0, # of connection points: 2
#     Edge 24, Type (0, 0), BuildingBlock: MIFKUJ_clean_linker_0, # of connection points: 2
#     Edge 25, Type (0, 0), BuildingBlock: MIFKUJ_clean_linker_0, # of connection points: 2
#     Edge 26, Type (0, 0), BuildingBlock: MIFKUJ_clean_linker_0, # of connection points: 2
#     Edge 27, Type (0, 0), BuildingBlock: MIFKUJ_clean_linker_0, # of connection points: 2
# Relax obj value: 0.149
# Max RMSD: 0.181
# Mean RMSD: 0.181
data_MOF--net-noy--node1-XOMCOT_clean_sbu_1--edge1-MIFKUJ_clean_linker_0
_symmetry_space_group_name_H-M    P1
_symmetry_Int_Tables_number       1
_symmetry_cell_setting            triclinic
loop_
_symmetry_equiv_pos_as_xyz
'x, y, z'
_cell_length_a     62.261182
_cell_length_b     58.593995
_cell_length_c     26.044571
_cell_angle_alpha  89.945774
_cell_angle_beta   89.738643
_cell_angle_gamma 90.119211
loop_
_atom_site_label
_atom_site_type_symbol
_atom_site_fract_x
_atom_site_fract_y
_atom_site_fract_z
_atom_type_partial_charge
C0 C 0.33394 0.38102 0.20364 0.0
C1 C 0.33385 0.39409 0.15981 0.0
N2 N 0.31988 0.41143 0.16635 0.0
N3 N 0.32012 0.38993 0.23801 0.0
C4 C 0.31171 0.40841 0.21424 0.0
H5 H 0.344 0.36633 0.21076 0.0
Co6 Co 0.31677 0.37864 0.30468 0.0
C7 C 0.28543 0.40973 0.35363 0.0
O8 O 0.27368 0.39221 0.36818 0.0
N9 N 0.31377 0.36713 0.37246 0.0
C10 C 0.31423 0.36597 0.45789 0.0
C11 C 0.3189 0.3789 0.4153 0.0
C12 C 0.30621 0.34687 0.39032 0.0
N13 N 0.30619 0.34581 0.44229 0.0
O14 O 0.29058 0.36376 0.28353 0.0
H15 H 0.32536 0.39605 0.41565 0.0
H16 H 0.30033 0.33333 0.36598 0.0
O17 O 0.30208 0.40644 0.32587 0.0
C18 C 0.29619 0.34454 0.26462 0.0
O19 O 0.31649 0.33865 0.26835 0.0
N20 N 0.34338 0.39137 0.32145 0.0
C21 C 0.38628 0.40505 0.32575 0.0
C22 C 0.36981 0.42124 0.32046 0.0
C23 C 0.34839 0.41403 0.31816 0.0
C24 C 0.35903 0.37552 0.32855 0.0
C25 C 0.38056 0.38198 0.3311 0.0
H26 H 0.33607 0.42655 0.3108 0.0
H27 H 0.35482 0.3576 0.3295 0.0
H28 H 0.30009 0.41961 0.23205 0.0
H29 H 0.34403 0.39146 0.12657 0.0
H30 H 0.31662 0.37107 0.49739 0.0
H31 H 0.37347 0.43922 0.31632 0.0
H32 H 0.39265 0.3688 0.33415 0.0
C33 C 0.69594 0.64436 0.70047 0.0
C34 C 0.69957 0.62686 0.66673 0.0
N35 N 0.69905 0.60706 0.69291 0.0
N36 N 0.6934 0.63589 0.74826 0.0
C37 C 0.6951 0.61294 0.74242 0.0
H38 H 0.69459 0.66216 0.69026 0.0
Co39 Co 0.68707 0.65488 0.8041 0.0
C40 C 0.69511 0.62831 0.89941 0.0
O41 O 0.67986 0.64023 0.92164 0.0
N42 N 0.68054 0.6754 0.85944 0.0
C43 C 0.66364 0.70069 0.90917 0.0
C44 C 0.66127 0.68473 0.87107 0.0
C45 C 0.69441 0.68618 0.89164 0.0
N46 N 0.68449 0.70169 0.92213 0.0
O47 O 0.71421 0.6705 0.79295 0.0
H48 H 0.64625 0.68088 0.85264 0.0
H49 H 0.71158 0.68327 0.89152 0.0
O50 O 0.69997 0.63237 0.85228 0.0
C51 C 0.70983 0.68873 0.76808 0.0
O52 O 0.68947 0.69422 0.76315 0.0
N53 N 0.65975 0.64113 0.80794 0.0
C54 C 0.61761 0.6258 0.79378 0.0
C55 C 0.6322 0.61306 0.82313 0.0
C56 C 0.65338 0.62081 0.82899 0.0
C57 C 0.64608 0.653 0.77727 0.0
C58 C 0.62493 0.64598 0.77055 0.0
H59 H 0.66454 0.60994 0.84877 0.0
H60 H 0.65166 0.66841 0.75852 0.0
H61 H 0.69323 0.60082 0.77351 0.0
H62 H 0.70154 0.62852 0.62557 0.0
H63 H 0.65097 0.71097 0.92578 0.0
H64 H 0.62747 0.59696 0.84026 0.0
H65 H 0.61436 0.65653 0.74773 0.0
C66 C 0.31363 0.64498 0.82296 0.0
C67 C 0.31066 0.62919 0.86121 0.0
N68 N 0.30965 0.60827 0.83984 0.0
N69 N 0.31441 0.63429 0.7773 0.0
C70 C 0.31205 0.61184 0.78864 0.0
H71 H 0.31558 0.66317 0.82814 0.0
Co72 Co 0.31955 0.65088 0.71759 0.0
C73 C 0.31418 0.61969 0.62885 0.0
O74 O 0.32983 0.631 0.60643 0.0
N75 N 0.32491 0.66926 0.65739 0.0
C76 C 0.34068 0.69077 0.59718 0.0
C77 C 0.344 0.67601 0.63721 0.0
C78 C 0.31024 0.6802 0.62772 0.0
N79 N 0.31942 0.69369 0.59142 0.0
O80 O 0.29134 0.66425 0.7252 0.0
H81 H 0.35965 0.67068 0.64977 0.0
H82 H 0.29309 0.67894 0.63372 0.0
O83 O 0.30819 0.62541 0.67434 0.0
C84 C 0.29226 0.6848 0.74151 0.0
O85 O 0.31112 0.69475 0.74507 0.0
N86 N 0.34765 0.63925 0.71694 0.0
C87 C 0.39077 0.62786 0.72936 0.0
C88 C 0.37614 0.61176 0.71035 0.0
C89 C 0.35447 0.61772 0.70489 0.0
C90 C 0.36137 0.65428 0.73962 0.0
C91 C 0.3831 0.64922 0.74484 0.0
H92 H 0.34332 0.60482 0.69227 0.0
H93 H 0.35541 0.67069 0.75226 0.0
H94 H 0.3123 0.59843 0.76011 0.0
H95 H 0.31008 0.63286 0.9019 0.0
H96 H 0.35311 0.69877 0.5742 0.0
H97 H 0.38142 0.59482 0.69955 0.0
H98 H 0.39379 0.66184 0.76124 0.0
C99 C 0.66822 0.38267 0.32339 0.0
C100 C 0.66816 0.39541 0.36751 0.0
N101 N 0.67895 0.41502 0.35863 0.0
N102 N 0.67917 0.39387 0.28645 0.0
C103 C 0.68558 0.41357 0.30899 0.0
H104 H 0.66039 0.36635 0.31828 0.0
Co105 Co 0.68169 0.38223 0.21969 0.0
C106 C 0.71018 0.41439 0.1652 0.0
O107 O 0.72227 0.39708 0.15138 0.0
N108 N 0.68372 0.37011 0.15227 0.0
C109 C 0.67901 0.36632 0.06795 0.0
C110 C 0.67579 0.38022 0.10974 0.0
C111 C 0.69194 0.35008 0.13496 0.0
N112 N 0.68918 0.34736 0.08379 0.0
O113 O 0.70928 0.36965 0.23787 0.0
H114 H 0.66803 0.39671 0.1091 0.0
H115 H 0.69943 0.33747 0.15928 0.0
O116 O 0.6941 0.41093 0.19487 0.0
C117 C 0.70512 0.35063 0.25987 0.0
O118 O 0.68531 0.34286 0.25784 0.0
N119 N 0.6539 0.39253 0.20652 0.0
C120 C 0.61022 0.40229 0.21332 0.0
C121 C 0.62544 0.42 0.21185 0.0
C122 C 0.64735 0.41474 0.20891 0.0
C123 C 0.6393 0.37523 0.20496 0.0
C124 C 0.61736 0.37973 0.20812 0.0
H125 H 0.65894 0.42839 0.21208 0.0
H126 H 0.6448 0.35774 0.20438 0.0
H127 H 0.69436 0.42684 0.28899 0.0
H128 H 0.66067 0.39045 0.40337 0.0
H129 H 0.67443 0.36999 0.02876 0.0
H130 H 0.62057 0.43762 0.21638 0.0
H131 H 0.60613 0.36558 0.20864 0.0
C132 C 0.82734 0.88187 0.19684 0.0
C133 C 0.82702 0.89528 0.15364 0.0
N134 N 0.81785 0.91541 0.16567 0.0
N135 N 0.81833 0.89328 0.23624 0.0
C136 C 0.81261 0.9137 0.21612 0.0
H137 H 0.83421 0.86499 0.19971 0.0
Co138 Co 0.81752 0.8812 0.30254 0.0
C139 C 0.79077 0.91307 0.36239 0.0
O140 O 0.77898 0.89567 0.37745 0.0
N141 N 0.81722 0.86846 0.36958 0.0
C142 C 0.82433 0.86289 0.45253 0.0
C143 C 0.82648 0.87766 0.41167 0.0
C144 C 0.80931 0.84819 0.38629 0.0
N145 N 0.81347 0.8444 0.4364 0.0
O146 O 0.78928 0.869 0.28843 0.0
H147 H 0.83452 0.89404 0.41253 0.0
H148 H 0.80104 0.83602 0.36237 0.0
O149 O 0.80608 0.90979 0.3304 0.0
C150 C 0.79159 0.84917 0.26877 0.0
O151 O 0.81106 0.84064 0.26579 0.0
N152 N 0.84573 0.8912 0.31194 0.0
C153 C 0.88952 0.90076 0.3041 0.0
C154 C 0.87443 0.91853 0.30648 0.0
C155 C 0.85249 0.91338 0.31004 0.0
C156 C 0.86018 0.8738 0.31189 0.0
C157 C 0.88215 0.87819 0.30837 0.0
H158 H 0.841 0.92714 0.30826 0.0
H159 H 0.85451 0.85634 0.31223 0.0
H160 H 0.80549 0.92734 0.23837 0.0
H161 H 0.8332 0.89053 0.11626 0.0
H162 H 0.83011 0.8656 0.49119 0.0
H163 H 0.87942 0.93617 0.30264 0.0
H164 H 0.89322 0.86397 0.3073 0.0
C165 C 0.19123 0.14326 0.69564 0.0
C166 C 0.19238 0.12751 0.65692 0.0
N167 N 0.18982 0.10652 0.6773 0.0
N168 N 0.18823 0.13249 0.74081 0.0
C169 C 0.18753 0.11001 0.72855 0.0
H170 H 0.19185 0.16157 0.69086 0.0
Co171 Co 0.18321 0.14917 0.80072 0.0
C172 C 0.18982 0.11845 0.88985 0.0
O173 O 0.17429 0.12963 0.91287 0.0
N174 N 0.17795 0.16759 0.86079 0.0
C175 C 0.16226 0.18973 0.9197 0.0
C176 C 0.15889 0.17477 0.8801 0.0
C177 C 0.19267 0.17846 0.89057 0.0
N178 N 0.18353 0.19231 0.92607 0.0
O179 O 0.21117 0.1632 0.79211 0.0
H180 H 0.14322 0.16979 0.86686 0.0
H181 H 0.20984 0.17698 0.88503 0.0
O182 O 0.19527 0.12406 0.84386 0.0
C183 C 0.20959 0.18379 0.77627 0.0
O184 O 0.19041 0.19299 0.77322 0.0
N185 N 0.15524 0.13694 0.80273 0.0
C186 C 0.1122 0.12476 0.79298 0.0
C187 C 0.12702 0.10923 0.81308 0.0
C188 C 0.14864 0.11559 0.81728 0.0
C189 C 0.14125 0.15137 0.77913 0.0
C190 C 0.11952 0.14592 0.77522 0.0
H191 H 0.1599 0.10307 0.83092 0.0
H192 H 0.14698 0.16763 0.76483 0.0
H193 H 0.18443 0.0966 0.75619 0.0
H194 H 0.19462 0.13136 0.61661 0.0
H195 H 0.14988 0.19821 0.94185 0.0
H196 H 0.12192 0.09244 0.82567 0.0
H197 H 0.10855 0.15807 0.7582 0.0
C198 C 0.80586 0.1485 0.82493 0.0
C199 C 0.80223 0.13194 0.86117 0.0
N200 N 0.80379 0.11143 0.83828 0.0
N201 N 0.80945 0.13865 0.77896 0.0
C202 C 0.80828 0.11591 0.78833 0.0
H203 H 0.80628 0.16667 0.83197 0.0
Co204 Co 0.81569 0.15601 0.72065 0.0
C205 C 0.80921 0.12646 0.62928 0.0
O206 O 0.82496 0.1378 0.60727 0.0
N207 N 0.82201 0.17493 0.66224 0.0
C208 C 0.83826 0.19742 0.60472 0.0
C209 C 0.84124 0.18275 0.64521 0.0
C210 C 0.80761 0.18531 0.63088 0.0
N211 N 0.81707 0.19918 0.59577 0.0
O212 O 0.78817 0.171 0.72873 0.0
H213 H 0.85669 0.17857 0.66099 0.0
H214 H 0.79043 0.18288 0.63405 0.0
O215 O 0.80346 0.13172 0.67526 0.0
C216 C 0.79107 0.19098 0.74733 0.0
O217 O 0.81087 0.19843 0.75237 0.0
N218 N 0.84328 0.14299 0.71949 0.0
C219 C 0.8857 0.12905 0.73519 0.0
C220 C 0.87086 0.11458 0.71091 0.0
C221 C 0.8496 0.12173 0.7041 0.0
C222 C 0.85715 0.15666 0.74561 0.0
C223 C 0.87847 0.15034 0.75274 0.0
H224 H 0.8383 0.10973 0.68831 0.0
H225 H 0.85161 0.17293 0.7601 0.0
H226 H 0.81076 0.10294 0.75937 0.0
H227 H 0.79939 0.13475 0.90171 0.0
H228 H 0.85078 0.20674 0.58474 0.0
H229 H 0.87544 0.09763 0.69857 0.0
H230 H 0.88919 0.16224 0.77151 0.0
C231 C 0.17194 0.87669 0.3178 0.0
C232 C 0.17225 0.88974 0.36165 0.0
N233 N 0.18177 0.90981 0.35056 0.0
N234 N 0.18143 0.88831 0.27914 0.0
C235 C 0.18715 0.90855 0.30024 0.0
H236 H 0.16486 0.85992 0.31413 0.0
Co237 Co 0.18406 0.87709 0.21209 0.0
C238 C 0.21496 0.90828 0.16169 0.0
O239 O 0.2267 0.8907 0.14784 0.0
N240 N 0.18645 0.86567 0.14391 0.0
C241 C 0.18451 0.86439 0.05859 0.0
C242 C 0.18012 0.87712 0.10159 0.0
C243 C 0.19464 0.84586 0.12525 0.0
N244 N 0.19374 0.84467 0.07329 0.0
O245 O 0.21058 0.86253 0.23183 0.0
H246 H 0.17295 0.89391 0.1018 0.0
H247 H 0.2016 0.83274 0.14903 0.0
O248 O 0.19835 0.9051 0.18971 0.0
C249 C 0.20527 0.84302 0.24994 0.0
O250 O 0.18522 0.8364 0.24429 0.0
N251 N 0.15712 0.88933 0.19725 0.0
C252 C 0.11399 0.90219 0.19514 0.0
C253 C 0.13034 0.91874 0.19734 0.0
C254 C 0.15188 0.91195 0.19869 0.0
C255 C 0.14157 0.8731 0.19343 0.0
C256 C 0.11993 0.87912 0.19213 0.0
H257 H 0.16414 0.92481 0.20345 0.0
H258 H 0.14599 0.85526 0.19391 0.0
H259 H 0.19501 0.92217 0.27924 0.0
H260 H 0.16538 0.88509 0.39846 0.0
H261 H 0.181 0.86935 0.01951 0.0
H262 H 0.12654 0.93674 0.1995 0.0
H263 H 0.10798 0.86568 0.19156 0.0
H264 H 0.42056 0.38837 0.37966 0.0
H265 H 0.45861 0.39464 0.36204 0.0
H266 H 0.44246 0.44311 0.24361 0.0
H267 H 0.40429 0.43612 0.25945 0.0
H268 H 0.47063 0.41412 0.20816 0.0
H269 H 0.4665 0.45996 0.35803 0.0
H270 H 0.45716 0.46988 0.44733 0.0
H271 H 0.49727 0.41572 0.50257 0.0
H272 H 0.50662 0.40523 0.41356 0.0
H273 H 0.58386 0.4349 0.17135 0.0
H274 H 0.54586 0.44194 0.19203 0.0
H275 H 0.54722 0.38746 0.30345 0.0
H276 H 0.58496 0.38046 0.28325 0.0
H277 H 0.52672 0.42631 0.34002 0.0
H278 H 0.5263 0.37793 0.18889 0.0
H279 H 0.53541 0.3682 0.09931 0.0
H280 H 0.5036 0.42878 0.04671 0.0
H281 H 0.49455 0.43902 0.13614 0.0
C282 C 0.42508 0.4005 0.3501 0.0
C283 C 0.40932 0.41163 0.32081 0.0
C284 C 0.44689 0.40427 0.34041 0.0
C285 C 0.45348 0.4195 0.30171 0.0
C286 C 0.43779 0.43132 0.27373 0.0
C287 C 0.41594 0.42746 0.28323 0.0
C288 C 0.47663 0.42158 0.2879 0.0
C289 C 0.48284 0.41734 0.23686 0.0
C290 C 0.49266 0.42544 0.32533 0.0
C291 C 0.48715 0.43172 0.37902 0.0
C292 C 0.47322 0.45005 0.38919 0.0
C293 C 0.46794 0.45579 0.43977 0.0
C294 C 0.47659 0.44342 0.48059 0.0
C295 C 0.49058 0.42529 0.47091 0.0
C296 C 0.4959 0.41946 0.42039 0.0
C297 C 0.57602 0.42452 0.20034 0.0
C298 C 0.58729 0.40695 0.22522 0.0
C299 C 0.55435 0.42851 0.21203 0.0
C300 C 0.54372 0.41514 0.24914 0.0
C301 C 0.55511 0.39797 0.27472 0.0
C302 C 0.57661 0.39384 0.26274 0.0
C303 C 0.52057 0.41841 0.26075 0.0
C304 C 0.51441 0.42359 0.31132 0.0
C305 C 0.50458 0.41555 0.2229 0.0
C306 C 0.51 0.40939 0.1692 0.0
C307 C 0.52142 0.38928 0.15825 0.0
C308 C 0.52654 0.38365 0.10751 0.0
C309 C 0.52016 0.3979 0.06736 0.0
C310 C 0.50858 0.41778 0.07786 0.0
C311 C 0.50345 0.4235 0.12856 0.0
H312 H 0.52412 0.39351 0.02809 0.0
H313 H 0.47248 0.44789 0.51973 0.0
H314 H 0.59296 0.62859 0.70717 0.0
H315 H 0.55425 0.62279 0.70037 0.0
H316 H 0.55178 0.59991 0.85752 0.0
H317 H 0.59054 0.60662 0.86566 0.0
H318 H 0.5243 0.57637 0.75169 0.0
H319 H 0.53498 0.64043 0.87549 0.0
H320 H 0.55438 0.67546 0.90043 0.0
H321 H 0.53946 0.70589 0.75485 0.0
H322 H 0.52025 0.67087 0.72888 0.0
H323 H 0.40995 0.59205 0.7787 0.0
H324 H 0.44856 0.58624 0.79217 0.0
H325 H 0.46221 0.64627 0.70128 0.0
H326 H 0.42376 0.65254 0.68984 0.0
H327 H 0.48456 0.64848 0.78202 0.0
H328 H 0.47128 0.58898 0.65917 0.0
H329 H 0.45367 0.55462 0.62436 0.0
H330 H 0.47441 0.5158 0.75491 0.0
H331 H 0.49192 0.55003 0.79083 0.0
C332 C 0.58427 0.62226 0.74037 0.0
C333 C 0.59483 0.61855 0.78734 0.0
C334 C 0.56218 0.61869 0.73615 0.0
C335 C 0.55025 0.61102 0.77847 0.0
C336 C 0.56083 0.60577 0.8244 0.0
C337 C 0.58297 0.60958 0.82891 0.0
C338 C 0.52653 0.61136 0.77594 0.0
C339 C 0.51542 0.59192 0.75931 0.0
C340 C 0.51523 0.63187 0.78421 0.0
C341 C 0.5264 0.65302 0.80013 0.0
C342 C 0.536 0.65454 0.84871 0.0
C343 C 0.54692 0.67439 0.86305 0.0
C344 C 0.5482 0.69287 0.8292 0.0
C345 C 0.53849 0.69156 0.78101 0.0
C346 C 0.52757 0.67173 0.76648 0.0
C347 C 0.42129 0.60378 0.76121 0.0
C348 C 0.41398 0.62277 0.73341 0.0
C349 C 0.44334 0.60044 0.76876 0.0
C350 C 0.45841 0.61576 0.74757 0.0
C351 C 0.45099 0.6343 0.71841 0.0
C352 C 0.42903 0.63785 0.71171 0.0
C353 C 0.48185 0.61338 0.75757 0.0
C354 C 0.4931 0.63263 0.77525 0.0
C355 C 0.49321 0.59271 0.74949 0.0
C356 C 0.48269 0.57213 0.72796 0.0
C357 C 0.47193 0.57316 0.68066 0.0
C358 C 0.462 0.5537 0.66069 0.0
C359 C 0.46286 0.53306 0.68748 0.0
C360 C 0.47372 0.53181 0.73424 0.0
C361 C 0.48366 0.55123 0.7544 0.0
H362 H 0.45516 0.51801 0.67196 0.0
H363 H 0.55667 0.70822 0.84035 0.0
H364 H 0.09607 0.93539 0.25619 0.0
H365 H 0.05796 0.94253 0.27182 0.0
H366 H 0.04144 0.88958 0.16392 0.0
H367 H 0.07943 0.88323 0.14593 0.0
H368 H 0.01396 0.92346 0.15604 0.0
H369 H 0.04429 0.88011 0.29754 0.0
H370 H 0.06988 0.87403 0.36828 0.0
H371 H 0.04799 0.93543 0.44146 0.0
H372 H 0.0224 0.94197 0.37084 0.0
H373 H 0.91554 0.87818 0.237 0.0
H374 H 0.9533 0.88529 0.21797 0.0
H375 H 0.95359 0.94137 0.3251 0.0
H376 H 0.91557 0.93402 0.34524 0.0
H377 H 0.98895 0.91338 0.33585 0.0
H378 H 0.95421 0.95285 0.19997 0.0
H379 H 0.92848 0.9581 0.12928 0.0
H380 H 0.95847 0.90373 0.04517 0.0
H381 H 0.98418 0.8979 0.1157 0.0
C382 C 0.08436 0.92566 0.23472 0.0
C383 C 0.09089 0.90853 0.20015 0.0
C384 C 0.06253 0.92958 0.24422 0.0
C385 C 0.0468 0.91623 0.21996 0.0
C386 C 0.05325 0.89999 0.18345 0.0
C387 C 0.07503 0.89622 0.17356 0.0
C388 C 0.02371 0.9181 0.23435 0.0
C389 C 0.0085 0.92117 0.19532 0.0
C390 C 0.01653 0.9158 0.28585 0.0
C391 C 0.03161 0.91164 0.32872 0.0
C392 C 0.04501 0.89235 0.32863 0.0
C393 C 0.0595 0.88882 0.36869 0.0
C394 C 0.0606 0.90437 0.40927 0.0
C395 C 0.04714 0.92342 0.40997 0.0
C396 C 0.03262 0.92704 0.36998 0.0
C397 C 0.92363 0.89191 0.25695 0.0
C398 C 0.91257 0.90543 0.29295 0.0
C399 C 0.94519 0.89612 0.24558 0.0
C400 C 0.95621 0.91403 0.26964 0.0
C401 C 0.94533 0.92753 0.3059 0.0
C402 C 0.92363 0.92338 0.31718 0.0
C403 C 0.97923 0.91806 0.25731 0.0
C404 C 0.99441 0.9161 0.2967 0.0
C405 C 0.98638 0.9213 0.20612 0.0
C406 C 0.97106 0.92486 0.16332 0.0
C407 C 0.95523 0.94191 0.16656 0.0
C408 C 0.94066 0.945 0.12649 0.0
C409 C 0.94182 0.93124 0.08279 0.0
C410 C 0.95759 0.91438 0.07904 0.0
C411 C 0.97219 0.91119 0.11903 0.0
H412 H 0.93052 0.93365 0.05182 0.0
H413 H 0.07185 0.90162 0.44021 0.0
H414 H 0.09284 0.09133 0.73674 0.0
H415 H 0.05396 0.08489 0.72665 0.0
H416 H 0.04107 0.13931 0.83376 0.0
H417 H 0.07976 0.14617 0.84268 0.0
H418 H 0.01556 0.09618 0.84652 0.0
H419 H 0.03804 0.15334 0.71986 0.0
H420 H 0.06023 0.16642 0.64685 0.0
H421 H 0.0372 0.11062 0.55544 0.0
H422 H 0.01511 0.09701 0.62829 0.0
H423 H 0.91165 0.1383 0.81747 0.0
H424 H 0.94975 0.13067 0.82613 0.0
H425 H 0.94969 0.09508 0.68113 0.0
H426 H 0.91167 0.10421 0.67028 0.0
H427 H 0.98246 0.12111 0.68289 0.0
H428 H 0.95558 0.06683 0.80127 0.0
H429 H 0.93374 0.05155 0.87267 0.0
H430 H 0.96493 0.0972 0.97759 0.0
H431 H 0.98675 0.11301 0.90671 0.0
C432 C 0.08162 0.10166 0.75847 0.0
C433 C 0.0891 0.11922 0.79043 0.0
C434 C 0.05953 0.09801 0.75269 0.0
C435 C 0.04473 0.11163 0.77955 0.0
C436 C 0.05227 0.12858 0.81296 0.0
C437 C 0.07428 0.13253 0.8179 0.0
C438 C 0.02137 0.10938 0.77067 0.0
C439 C 0.00821 0.10164 0.81088 0.0
C440 C 0.012 0.11571 0.72347 0.0
C441 C 0.02516 0.12399 0.67968 0.0
C442 C 0.03787 0.14373 0.68436 0.0
C443 C 0.0504 0.15127 0.64298 0.0
C444 C 0.05018 0.13932 0.59659 0.0
C445 C 0.03739 0.11983 0.59144 0.0
C446 C 0.02486 0.1122 0.63274 0.0
C447 C 0.91968 0.12899 0.78708 0.0
C448 C 0.90852 0.12214 0.74281 0.0
C449 C 0.9415 0.12424 0.79259 0.0
C450 C 0.95266 0.11195 0.75471 0.0
C451 C 0.94146 0.10451 0.71105 0.0
C452 C 0.91963 0.10957 0.70512 0.0
C453 C 0.97625 0.1084 0.75936 0.0
C454 C 0.98959 0.11511 0.71833 0.0
C455 C 0.98577 0.10069 0.80561 0.0
C456 C 0.97273 0.0912 0.84853 0.0
C457 C 0.95769 0.07373 0.8395 0.0
C458 C 0.94532 0.06495 0.8799 0.0
C459 C 0.94792 0.07342 0.92962 0.0
C460 C 0.96293 0.09066 0.93905 0.0
C461 C 0.97534 0.09951 0.89878 0.0
H462 H 0.93833 0.06661 0.96084 0.0
H463 H 0.05988 0.14518 0.56459 0.0
H464 H 0.32379 0.56621 0.81021 0.0
H465 H 0.3234 0.53116 0.86196 0.0
H466 H 0.29122 0.56703 0.98449 0.0
H467 H 0.29113 0.60173 0.93302 0.0
H468 H 0.32646 0.54379 0.01854 0.0
H469 H 0.26441 0.52889 0.91359 0.0
H470 H 0.24506 0.52426 0.83184 0.0
H471 H 0.28711 0.46936 0.7894 0.0
H472 H 0.3069 0.47388 0.87064 0.0
H473 H 0.30317 0.45341 0.18802 0.0
H474 H 0.29896 0.48539 0.129 0.0
H475 H 0.32454 0.44459 1.00541 0.0
H476 H 0.32772 0.41216 0.0634 0.0
H477 H 0.29344 0.46987 0.96971 0.0
H478 H 0.35583 0.48425 0.07157 0.0
H479 H 0.37642 0.48859 0.15164 0.0
H480 H 0.33586 0.54423 0.19735 0.0
H481 H 0.31483 0.54002 0.11783 0.0
C482 C 0.3163 0.56652 0.84777 0.0
C483 C 0.30774 0.58694 0.86758 0.0
C484 C 0.31615 0.54648 0.87741 0.0
C485 C 0.30738 0.54649 0.9273 0.0
C486 C 0.29828 0.56664 0.94639 0.0
C487 C 0.29833 0.58654 0.91685 0.0
C488 C 0.30839 0.52591 0.96083 0.0
C489 C 0.31901 0.52771 1.00811 0.0
C490 C 0.29924 0.50472 0.94665 0.0
C491 C 0.28728 0.50189 0.89795 0.0
C492 C 0.26964 0.51596 0.88664 0.0
C493 C 0.25857 0.51333 0.84043 0.0
C494 C 0.26489 0.49657 0.80538 0.0
C495 C 0.28225 0.48236 0.81655 0.0
C496 C 0.29339 0.48494 0.86269 0.0
C497 C 0.30759 0.451 0.1482 0.0
C498 C 0.31607 0.43009 0.13097 0.0
C499 C 0.30538 0.46948 0.11446 0.0
C500 C 0.31188 0.46764 0.06283 0.0
C501 C 0.31956 0.44657 0.04507 0.0
C502 C 0.3216 0.42804 0.07862 0.0
C503 C 0.31132 0.48782 0.0278 0.0
C504 C 0.30089 0.48595 0.98019 0.0
C505 C 0.32087 0.50893 0.04137 0.0
C506 C 0.33363 0.51168 0.08897 0.0
C507 C 0.35122 0.49732 0.09885 0.0
C508 C 0.36298 0.49976 0.14412 0.0
C509 C 0.35742 0.51663 0.17962 0.0
C510 C 0.34013 0.53115 0.16984 0.0
C511 C 0.32829 0.52876 0.12466 0.0
H512 H 0.36654 0.51849 0.21466 0.0
H513 H 0.2563 0.49456 0.76962 0.0
H514 H 0.70888 0.44918 0.35496 0.0
H515 H 0.71369 0.48007 0.41704 0.0
H516 H 0.66102 0.45365 0.50745 0.0
H517 H 0.65541 0.42366 0.44479 0.0
H518 H 0.6577 0.49742 0.50352 0.0
H519 H 0.71517 0.44603 0.54151 0.0
H520 H 0.74693 0.42239 0.52231 0.0
H521 H 0.78204 0.48212 0.47577 0.0
H522 H 0.75038 0.5061 0.49398 0.0
H523 H 0.67685 0.56873 0.71935 0.0
H524 H 0.67523 0.53302 0.66983 0.0
H525 H 0.72264 0.55959 0.56416 0.0
H526 H 0.72445 0.59489 0.61368 0.0
H527 H 0.72867 0.51412 0.58092 0.0
H528 H 0.66979 0.56461 0.53811 0.0
H529 H 0.63793 0.5879 0.55851 0.0
H530 H 0.60536 0.52854 0.61669 0.0
H531 H 0.63718 0.50494 0.59725 0.0
C532 C 0.6982 0.45002 0.38776 0.0
C533 C 0.68189 0.4336 0.39473 0.0
C534 C 0.70112 0.4676 0.42367 0.0
C535 C 0.68796 0.46905 0.46764 0.0
C536 C 0.6715 0.45292 0.47417 0.0
C537 C 0.66847 0.43551 0.43827 0.0
C538 C 0.69099 0.48746 0.50663 0.0
C539 C 0.67318 0.50077 0.52096 0.0
C540 C 0.7112 0.49217 0.5292 0.0
C541 C 0.73034 0.47784 0.51867 0.0
C542 C 0.72962 0.45411 0.52686 0.0
C543 C 0.74761 0.44065 0.51619 0.0
C544 C 0.76647 0.45074 0.49772 0.0
C545 C 0.76741 0.47433 0.49002 0.0
C546 C 0.74945 0.48786 0.50055 0.0
C547 C 0.68727 0.56666 0.6863 0.0
C548 C 0.70057 0.5847 0.66996 0.0
C549 C 0.68624 0.54635 0.65778 0.0
C550 C 0.69856 0.54376 0.61266 0.0
C551 C 0.7129 0.56117 0.59856 0.0
C552 C 0.71383 0.58141 0.62673 0.0
C553 C 0.6954 0.52396 0.57756 0.0
C554 C 0.71318 0.5105 0.5638 0.0
C555 C 0.67515 0.51897 0.55573 0.0
C556 C 0.65593 0.53307 0.56674 0.0
C557 C 0.65588 0.55656 0.55555 0.0
C558 C 0.63783 0.56981 0.56691 0.0
C559 C 0.61966 0.55972 0.58903 0.0
C560 C 0.61947 0.53634 0.59965 0.0
C561 C 0.6375 0.52302 0.58845 0.0
H562 H 0.6057 0.57001 0.59782 0.0
H563 H 0.78037 0.44028 0.48947 0.0
H564 H 0.72029 0.59303 0.86204 0.0
H565 H 0.72878 0.55702 0.90585 0.0
H566 H 0.69501 0.58039 0.04089 0.0
H567 H 0.68741 0.61636 0.99867 0.0
H568 H 0.72761 0.55786 0.071 0.0
H569 H 0.67216 0.54399 0.94517 0.0
H570 H 0.65744 0.54426 0.85739 0.0
H571 H 0.7078 0.49945 0.80714 0.0
H572 H 0.723 0.4992 0.89453 0.0
H573 H 0.69143 0.45526 0.19064 0.0
H574 H 0.69398 0.49154 0.14417 0.0
H575 H 0.73734 0.46093 0.03478 0.0
H576 H 0.73499 0.42464 0.08112 0.0
H577 H 0.70452 0.48582 0.98779 0.0
H578 H 0.75708 0.49703 0.11956 0.0
H579 H 0.77048 0.49748 0.2085 0.0
H580 H 0.72325 0.54769 0.24919 0.0
H581 H 0.70937 0.5473 0.16062 0.0
C582 C 0.71506 0.59062 0.90139 0.0
C583 C 0.703 0.60758 0.92655 0.0
C584 C 0.71973 0.56992 0.92631 0.0
C585 C 0.71215 0.56565 0.97653 0.0
C586 C 0.70103 0.58306 1.00224 0.0
C587 C 0.69659 0.6037 0.97775 0.0
C588 C 0.71469 0.54292 1.00211 0.0
C589 C 0.72243 0.54217 0.05275 0.0
C590 C 0.70834 0.52221 0.97835 0.0
C591 C 0.69884 0.52177 0.92622 0.0
C592 C 0.68013 0.53426 0.91535 0.0
C593 C 0.67171 0.53442 0.86566 0.0
C594 C 0.68172 0.52194 0.82666 0.0
C595 C 0.70009 0.50915 0.83736 0.0
C596 C 0.70861 0.50899 0.88696 0.0
C597 C 0.70167 0.45627 0.15698 0.0
C598 C 0.71306 0.43699 0.13982 0.0
C599 C 0.70312 0.47706 0.13042 0.0
C600 C 0.71589 0.47902 0.08594 0.0
C601 C 0.72737 0.45985 0.06891 0.0
C602 C 0.72612 0.43914 0.09575 0.0
C603 C 0.71695 0.50098 0.05688 0.0
C604 C 0.7099 0.50152 1.0057 0.0
C605 C 0.72363 0.52156 0.08035 0.0
C606 C 0.73208 0.522 0.13353 0.0
C607 C 0.74945 0.50805 0.14756 0.0
C608 C 0.75715 0.50831 0.19789 0.0
C609 C 0.74769 0.52257 0.2345 0.0
C610 C 0.73055 0.53664 0.2208 0.0
C611 C 0.72278 0.53643 0.17052 0.0
H612 H 0.75367 0.52274 0.27346 0.0
H613 H 0.67522 0.52214 0.78818 0.0
H614 H 0.30119 0.45111 0.32237 0.0
H615 H 0.30165 0.48676 0.37102 0.0
H616 H 0.26495 0.45481 0.49228 0.0
H617 H 0.26381 0.41929 0.44293 0.0
H618 H 0.25334 0.4982 0.4843 0.0
H619 H 0.32006 0.45883 0.49759 0.0
H620 H 0.35201 0.43885 0.46418 0.0
H621 H 0.37234 0.49989 0.38649 0.0
H622 H 0.34025 0.52013 0.41855 0.0
H623 H 0.29046 0.58361 0.66911 0.0
H624 H 0.28158 0.54746 0.6256 0.0
H625 H 0.31148 0.57235 0.48674 0.0
H626 H 0.32018 0.60804 0.52917 0.0
H627 H 0.32618 0.53018 0.51238 0.0
H628 H 0.25744 0.56841 0.49705 0.0
H629 H 0.225 0.58731 0.531 0.0
H630 H 0.20908 0.52715 0.61756 0.0
H631 H 0.2416 0.508 0.5846 0.0
C632 C 0.29289 0.45178 0.35898 0.0
C633 C 0.28263 0.43227 0.37892 0.0
C634 C 0.29325 0.47216 0.38696 0.0
C635 C 0.28384 0.47337 0.43611 0.0
C636 C 0.27246 0.45433 0.4547 0.0
C637 C 0.2718 0.434 0.42634 0.0
C638 C 0.28715 0.49391 0.46919 0.0
C639 C 0.2693 0.50501 0.49098 0.0
C640 C 0.30797 0.50287 0.47828 0.0
C641 C 0.32766 0.49096 0.46023 0.0
C642 C 0.3313 0.46798 0.47322 0.0
C643 C 0.34942 0.45659 0.45448 0.0
C644 C 0.36419 0.46809 0.42322 0.0
C645 C 0.36088 0.49101 0.41072 0.0
C646 C 0.34273 0.50245 0.42918 0.0
C647 C 0.2948 0.58146 0.6291 0.0
C648 C 0.30616 0.59873 0.60283 0.0
C649 C 0.28978 0.56078 0.60428 0.0
C650 C 0.29601 0.55709 0.55286 0.0
C651 C 0.30669 0.57463 0.52646 0.0
C652 C 0.31161 0.59513 0.55094 0.0
C653 C 0.29234 0.53486 0.52625 0.0
C654 C 0.31022 0.52331 0.50596 0.0
C655 C 0.27162 0.5254 0.51917 0.0
C656 C 0.25207 0.53688 0.53883 0.0
C657 C 0.24711 0.55929 0.52366 0.0
C658 C 0.22869 0.57003 0.54265 0.0
C659 C 0.21502 0.55847 0.57654 0.0
C660 C 0.21971 0.53611 0.59139 0.0
C661 C 0.23812 0.52529 0.57254 0.0
H662 H 0.20076 0.56681 0.59119 0.0
H663 H 0.37822 0.45925 0.40877 0.0
H664 H 0.8277 0.07357 0.82026 0.0
H665 H 0.82843 0.03876 0.87279 0.0
H666 H 0.77728 0.06555 0.96739 0.0
H667 H 0.77697 0.10037 0.91581 0.0
H668 H 0.80735 0.05052 0.0262 0.0
H669 H 0.77043 0.01999 0.88002 0.0
H670 H 0.76505 1.01116 0.78841 0.0
H671 H 0.82297 0.97153 0.78683 0.0
H672 H 0.82888 0.98039 0.87831 0.0
H673 H 0.78823 0.9494 0.17248 0.0
H674 H 0.78397 0.98179 0.11383 0.0
H675 H 0.83754 0.95785 0.02336 0.0
H676 H 0.84191 0.92567 0.08156 0.0
H677 H 0.80547 0.97091 0.96199 0.0
H678 H 0.84278 1.00257 0.10715 0.0
H679 H 0.84807 1.01124 0.19888 0.0
H680 H 0.78893 0.04879 0.20183 0.0
H681 H 0.78314 0.04008 0.11022 0.0
C682 C 0.81637 0.07175 0.85165 0.0
C683 C 0.80234 0.08969 0.86412 0.0
C684 C 0.81677 0.05187 0.88173 0.0
C685 C 0.80286 0.04941 0.92421 0.0
C686 C 0.7883 0.06702 0.93522 0.0
C687 C 0.78809 0.08691 0.90566 0.0
C688 C 0.80421 0.02925 0.95913 0.0
C689 C 0.80658 0.03313 0.01209 0.0
C690 C 0.80377 1.00647 0.9409 0.0
C691 C 0.8002 1.00104 0.88593 0.0
C692 C 0.78211 1.00954 0.86006 0.0
C693 C 0.77895 1.0045 0.80816 0.0
C694 C 0.79369 0.99085 0.78177 0.0
C695 C 0.81159 0.98214 0.8073 0.0
C696 C 0.81484 0.98714 0.85918 0.0
C697 C 0.79919 0.95112 0.14033 0.0
C698 C 0.81537 0.93481 0.13181 0.0
C699 C 0.79671 0.96963 0.1067 0.0
C700 C 0.8105 0.97235 0.06416 0.0
C701 C 0.82659 0.95607 0.05558 0.0
C702 C 0.82904 0.9376 0.089 0.0
C703 C 0.80847 0.99228 0.02886 0.0
C704 C 0.80608 0.98834 0.97594 0.0
C705 C 0.80885 1.01503 0.04704 0.0
C706 C 0.81242 0.02048 0.10197 0.0
C707 C 0.83083 1.01254 0.12745 0.0
C708 C 0.83392 0.01748 0.1794 0.0
C709 C 0.81881 0.0305 0.2062 0.0
C710 C 0.8006 0.03868 0.18104 0.0
C711 C 0.79741 0.03376 0.1291 0.0
H712 H 0.82123 0.0343 0.24643 0.0
H713 H 0.79122 0.98697 0.74159 0.0
H714 H 0.19841 0.06339 0.71096 0.0
H715 H 0.19685 0.02808 0.66033 0.0
H716 H 0.17656 0.06665 0.52807 0.0
H717 H 0.17723 0.10146 0.57845 0.0
H718 H 0.15415 0.0292 0.5333 0.0
H719 H 0.22943 0.04792 0.54439 0.0
H720 H 0.26344 0.05635 0.58879 0.0
H721 H 0.26113 0.99081 0.66257 0.0
H722 H 0.22694 0.98211 0.61906 0.0
H723 H 0.17953 0.95481 0.3269 0.0
H724 H 0.18116 0.98698 0.38703 0.0
H725 H 0.19121 0.9402 0.51248 0.0
H726 H 0.18954 0.90802 0.45255 0.0
H727 H 0.21814 0.97943 0.51592 0.0
H728 H 0.14353 0.96025 0.49918 0.0
H729 H 0.11022 0.9521 0.45166 0.0
H730 H 0.11195 0.01926 0.38566 0.0
H731 H 0.14547 0.0277 0.43221 0.0
C732 C 0.19343 0.06427 0.67126 0.0
C733 C 0.18826 0.0854 0.64875 0.0
C734 C 0.19271 0.0441 0.64217 0.0
C735 C 0.18688 0.04468 0.58999 0.0
C736 C 0.1812 0.06567 0.56806 0.0
C737 C 0.18185 0.0857 0.59696 0.0
C738 C 0.1868 0.0237 0.55752 0.0
C739 C 0.16824 0.01847 0.52929 0.0
C740 C 0.20498 1.0093 0.55282 0.0
C741 C 0.22551 1.01448 0.57896 0.0
C742 C 0.23609 0.03538 0.57041 0.0
C743 C 0.25541 0.04019 0.59535 0.0
C744 C 0.2644 0.02415 0.62861 0.0
C745 C 0.25412 1.00324 0.63688 0.0
C746 C 0.23478 0.99835 0.61208 0.0
C747 C 0.18237 0.95143 0.36717 0.0
C748 C 0.18431 0.92888 0.38505 0.0
C749 C 0.18316 0.96979 0.40154 0.0
C750 C 0.18613 0.96597 0.45433 0.0
C751 C 0.18886 0.94354 0.47198 0.0
C752 C 0.18777 0.92518 0.43776 0.0
C753 C 0.18567 0.98532 0.49127 0.0
C754 C 0.20406 0.99015 0.52032 0.0
C755 C 0.1674 0.99946 0.49648 0.0
C756 C 0.14713 0.99453 0.46881 0.0
C757 C 0.13691 0.97322 0.47421 0.0
C758 C 0.11797 0.96855 0.44751 0.0
C759 C 0.10901 0.98513 0.41556 0.0
C760 C 0.11893 1.00643 0.41038 0.0
C761 C 0.13789 1.01117 0.43695 0.0
H762 H 0.09435 0.98148 0.39491 0.0
H763 H 0.27937 0.02791 0.64787 0.0
H764 H 0.18182 0.10494 0.98772 0.0
H765 H 0.19215 0.0699 0.03003 0.0
H766 H 0.22756 0.0492 0.89523 0.0
H767 H 0.21646 0.0845 0.85118 0.0
H768 H 0.2049 1.01419 0.93167 0.0
H769 H 0.25359 0.0664 1.00787 0.0
H770 H 0.26535 0.10195 0.0499 0.0
H771 H 0.22494 0.08707 0.17975 0.0
H772 H 0.21268 0.05158 0.13822 0.0
H773 H 0.24056 0.91842 0.07874 0.0
H774 H 0.24239 0.95436 0.03095 0.0
H775 H 0.19863 0.98518 0.13915 0.0
H776 H 0.19676 0.94933 0.18728 0.0
H777 H 0.23187 1.01442 0.1107 0.0
H778 H 0.18052 0.96446 0.02793 0.0
H779 H 0.16959 0.92855 0.98614 0.0
H780 H 0.2168 0.93924 0.86777 0.0
H781 H 0.22829 0.97503 0.90945 0.0
C782 C 0.19195 0.09313 0.96679 0.0
C783 C 0.19833 0.09769 0.91585 0.0
C784 C 0.19802 0.07304 0.99144 0.0
C785 C 0.21101 0.05694 0.96645 0.0
C786 C 0.21764 0.0614 0.91559 0.0
C787 C 0.21141 0.08165 0.89052 0.0
C788 C 0.21659 0.03519 0.99345 0.0
C789 C 0.2113 1.01427 0.97035 0.0
C790 C 0.22467 0.0351 0.04434 0.0
C791 C 0.23214 0.05636 0.06976 0.0
C792 C 0.24711 0.07076 0.04526 0.0
C793 C 0.25388 0.0909 0.06902 0.0
C794 C 0.24588 0.09677 0.11743 0.0
C795 C 0.23113 0.08249 0.14225 0.0
C796 C 0.2243 0.06234 0.11865 0.0
C797 C 0.23158 0.93293 0.09293 0.0
C798 C 0.21838 0.93089 0.13676 0.0
C799 C 0.23256 0.95346 0.06531 0.0
C800 C 0.22043 0.97243 0.081 0.0
C801 C 0.20808 0.97078 0.12614 0.0
C802 C 0.20697 0.95022 0.15357 0.0
C803 C 0.21972 0.99365 0.0493 0.0
C804 C 0.22588 1.01441 0.07165 0.0
C805 C 0.21261 0.99356 0.99767 0.0
C806 C 0.20543 0.97228 0.97212 0.0
C807 C 0.18868 0.95907 0.9932 0.0
C808 C 0.18237 0.93875 0.96952 0.0
C809 C 0.19253 0.93159 0.9244 0.0
C810 C 0.20897 0.94478 0.90277 0.0
C811 C 0.21539 0.96509 0.92641 0.0
H812 H 0.18764 0.91584 0.90613 0.0
H813 H 0.25113 0.11238 0.13574 0.0
H814 H 0.81663 0.11426 0.53035 0.0
H815 H 0.80838 0.07852 0.48818 0.0
H816 H 0.77545 0.05487 0.62432 0.0
H817 H 0.78453 0.09084 0.66813 0.0
H818 H 0.79998 0.02219 0.58914 0.0
H819 H 0.74812 0.06952 0.50981 0.0
H820 H 0.73391 0.10348 0.46562 0.0
H821 H 0.77528 0.09051 0.33662 0.0
H822 H 0.78999 0.05666 0.38031 0.0
H823 H 0.76695 0.92321 0.44806 0.0
H824 H 0.76536 0.95934 0.49487 0.0
H825 H 0.80757 0.99022 0.38291 0.0
H826 H 0.80933 0.95406 0.33587 0.0
H827 H 0.77329 0.01838 0.41015 0.0
H828 H 0.8265 0.97214 0.49513 0.0
H829 H 0.83988 0.93821 0.54086 0.0
H830 H 0.79386 0.94921 0.66161 0.0
H831 H 0.77988 0.98293 0.61602 0.0
C832 C 0.80741 0.10165 0.55151 0.0
C833 C 0.80124 0.10555 0.60284 0.0
C834 C 0.80253 0.08114 0.52695 0.0
C835 C 0.79094 0.06394 0.55246 0.0
C836 C 0.78431 0.06787 0.60354 0.0
C837 C 0.78936 0.08851 0.62849 0.0
C838 C 0.78706 0.04158 0.52617 0.0
C839 C 0.79366 0.02135 0.55045 0.0
C840 C 0.77915 0.04031 0.4752 0.0
C841 C 0.77026 0.06061 0.44855 0.0
C842 C 0.7543 0.07399 0.47216 0.0
C843 C 0.74614 0.09321 0.44717 0.0
C844 C 0.75372 0.09917 0.39838 0.0
C845 C 0.76943 0.08588 0.37442 0.0
C846 C 0.77767 0.06665 0.39926 0.0
C847 C 0.77575 0.93772 0.433 0.0
C848 C 0.78833 0.93564 0.38815 0.0
C849 C 0.77491 0.95837 0.46007 0.0
C850 C 0.78652 0.97749 0.44283 0.0
C851 C 0.79851 0.97571 0.39711 0.0
C852 C 0.79954 0.95499 0.37027 0.0
C853 C 0.78656 0.99921 0.47284 0.0
C854 C 0.77928 0.01926 0.44915 0.0
C855 C 0.79359 1.00026 0.52451 0.0
C856 C 0.80192 0.97988 0.55174 0.0
C857 C 0.81905 0.96717 0.53111 0.0
C858 C 0.82677 0.94799 0.55706 0.0
C859 C 0.81766 0.9415 0.604 0.0
C860 C 0.80084 0.9542 0.62514 0.0
C861 C 0.793 0.97334 0.59923 0.0
H862 H 0.82369 0.92667 0.62408 0.0
H863 H 0.74739 0.11407 0.37912 0.0
H864 H 0.25517 0.35337 0.22852 0.0
H865 H 0.23366 0.32881 0.17154 0.0
H866 H 0.28292 0.27726 0.17739 0.0
H867 H 0.30415 0.30127 0.23369 0.0
H868 H 0.27122 0.28666 0.07891 0.0
H869 H 0.23635 0.27034 0.24167 0.0
H870 H 0.21675 0.2805 0.32088 0.0
H871 H 0.16543 0.30854 0.23125 0.0
H872 H 0.18488 0.2988 0.15146 0.0
H873 H 0.22332 0.18872 0.96805 0.0
H874 H 0.24061 0.21577 0.02657 0.0
H875 H 0.18474 0.25907 0.02042 0.0
H876 H 0.16743 0.23216 0.96248 0.0
H877 H 0.19817 0.2568 0.11571 0.0
H878 H 0.23101 0.2719 0.9535 0.0
H879 H 0.24984 0.26247 0.87279 0.0
H880 H 0.3043 0.23888 0.95818 0.0
H881 H 0.28563 0.24778 0.03947 0.0
C882 C 0.26119 0.33666 0.21823 0.0
C883 C 0.28143 0.32938 0.23551 0.0
C884 C 0.24894 0.32266 0.18556 0.0
C885 C 0.25677 0.30121 0.16982 0.0
C886 C 0.27662 0.29378 0.18845 0.0
C887 C 0.28873 0.30759 0.22093 0.0
C888 C 0.24489 0.28649 0.13285 0.0
C889 C 0.25531 0.27999 0.08716 0.0
C890 C 0.22388 0.27831 0.14273 0.0
C891 C 0.21218 0.28409 0.19064 0.0
C892 C 0.22097 0.27885 0.23887 0.0
C893 C 0.20987 0.28449 0.28386 0.0
C894 C 0.18988 0.29522 0.28111 0.0
C895 C 0.18093 0.30027 0.23333 0.0
C896 C 0.19197 0.29468 0.18822 0.0
C897 C 0.21478 0.20405 0.97896 0.0
C898 C 0.19395 0.20816 0.96057 0.0
C899 C 0.22467 0.21953 0.01247 0.0
C900 C 0.21407 0.23964 0.02771 0.0
C901 C 0.19324 0.24368 1.00959 0.0
C902 C 0.18333 0.22818 0.97643 0.0
C903 C 0.22469 0.25656 0.06218 0.0
C904 C 0.21403 0.26355 0.10723 0.0
C905 C 0.24542 0.26542 0.05146 0.0
C906 C 0.25683 0.26032 1.00262 0.0
C907 C 0.24694 0.26456 0.95509 0.0
C908 C 0.25759 0.25932 0.90923 0.0
C909 C 0.27823 0.25004 0.91036 0.0
C910 C 0.28829 0.24604 0.95737 0.0
C911 C 0.27769 0.25119 1.00336 0.0
H912 H 0.28645 0.24599 0.87482 0.0
H913 H 0.18132 0.29958 0.31598 0.0
H914 H 0.75449 0.68539 0.76695 0.0
H915 H 0.77952 0.706 0.7091 0.0
H916 H 0.72595 0.74014 0.63864 0.0
H917 H 0.70136 0.72061 0.6959 0.0
H918 H 0.75678 0.71987 0.56718 0.0
H919 H 0.75194 0.76897 0.71983 0.0
H920 H 0.75701 0.77677 0.81138 0.0
H921 H 0.82407 0.76048 0.79785 0.0
H922 H 0.8192 0.75228 0.70557 0.0
H923 H 0.77581 0.82162 0.43364 0.0
H924 H 0.76484 0.78956 0.48792 0.0
H925 H 0.82722 0.78987 0.55986 0.0
H926 H 0.8376 0.8229 0.50745 0.0
H927 H 0.80089 0.78456 0.62972 0.0
H928 H 0.80796 0.74681 0.47117 0.0
H929 H 0.80364 0.73879 0.37892 0.0
H930 H 0.73577 0.72988 0.40082 0.0
H931 H 0.73947 0.73879 0.49261 0.0
C932 C 0.74816 0.69742 0.73933 0.0
C933 C 0.7259 0.70136 0.7364 0.0
C934 C 0.76243 0.70908 0.70619 0.0
C935 C 0.75452 0.7244 0.66913 0.0
C936 C 0.73239 0.72823 0.66643 0.0
C937 C 0.71834 0.71708 0.69976 0.0
C938 C 0.76877 0.7374 0.63356 0.0
C939 C 0.76658 0.73398 0.58052 0.0
C940 C 0.78222 0.75515 0.65103 0.0
C941 C 0.78514 0.75971 0.70626 0.0
C942 C 0.76771 0.76681 0.73653 0.0
C943 C 0.77058 0.77138 0.78859 0.0
C944 C 0.79088 0.76908 0.81077 0.0
C945 C 0.80835 0.7622 0.78072 0.0
C946 C 0.80554 0.75759 0.72852 0.0
C947 C 0.78719 0.81465 0.46076 0.0
C948 C 0.80752 0.8247 0.46644 0.0
C949 C 0.78102 0.79617 0.49156 0.0
C950 C 0.79532 0.78676 0.52757 0.0
C951 C 0.81582 0.79665 0.53254 0.0
C952 C 0.82177 0.81553 0.50263 0.0
C953 C 0.78827 0.76782 0.56241 0.0
C954 C 0.79179 0.7701 0.61548 0.0
C955 C 0.77639 0.7487 0.5446 0.0
C956 C 0.77401 0.74363 0.48896 0.0
C957 C 0.79206 0.74344 0.45624 0.0
C958 C 0.78971 0.73878 0.40391 0.0
C959 C 0.76942 0.734 0.38388 0.0
C960 C 0.75145 0.73382 0.41617 0.0
C961 C 0.75366 0.73869 0.46839 0.0
H962 H 0.76762 0.73033 0.34339 0.0
H963 H 0.79311 0.77272 0.85112 0.0
H964 H 0.20025 0.79988 0.09765 0.0
H965 H 0.21247 0.76948 0.04014 0.0
H966 H 0.21651 0.8177 0.9153 0.0
H967 H 0.20463 0.84807 0.97227 0.0
H968 H 0.19834 0.77972 0.88236 0.0
H969 H 0.2614 0.79881 0.97573 0.0
H970 H 0.28531 0.80517 0.04956 0.0
H971 H 0.27651 0.73558 0.09711 0.0
H972 H 0.2523 0.72887 0.02381 0.0
H973 H 0.27841 0.72756 0.72072 0.0
H974 H 0.25515 0.75107 0.77527 0.0
H975 H 0.24307 0.69301 0.87318 0.0
H976 H 0.26586 0.66925 0.81749 0.0
H977 H 0.262 0.73232 0.92225 0.0
H978 H 0.20267 0.71368 0.81439 0.0
H979 H 0.18296 0.70955 0.73308 0.0
H980 H 0.18835 0.78162 0.70604 0.0
H981 H 0.20853 0.78615 0.78664 0.0
C982 C 0.20391 0.8041 0.05812 0.0
C983 C 0.20131 0.82656 0.03987 0.0
C984 C 0.21085 0.78664 0.02514 0.0
C985 C 0.21546 0.79123 0.9732 0.0
C986 C 0.21288 0.8136 0.95498 0.0
C987 C 0.206 0.83102 0.98781 0.0
C988 C 0.22313 0.77292 0.93772 0.0
C989 C 0.21234 0.76945 0.891 0.0
C990 C 0.2412 0.75919 0.9491 0.0
C991 C 0.25482 0.76342 0.99467 0.0
C992 C 0.2643 0.78496 1.00235 0.0
C993 C 0.27797 0.7886 0.04397 0.0
C994 C 0.28242 0.77079 0.07794 0.0
C995 C 0.27304 0.74935 0.07071 0.0
C996 C 0.25934 0.74562 0.02915 0.0
C997 C 0.27002 0.71962 0.75262 0.0
C998 C 0.27363 0.69655 0.76454 0.0
C999 C 0.25682 0.73307 0.78392 0.0
C1000 C 0.24741 0.72383 0.82843 0.0
C1001 C 0.25009 0.70046 0.83889 0.0
C1002 C 0.2629 0.68684 0.80681 0.0
C1003 C 0.23728 0.73924 0.86695 0.0
C1004 C 0.24773 0.74227 0.91412 0.0
C1005 C 0.21924 0.75291 0.85534 0.0
C1006 C 0.20729 0.75022 0.80648 0.0
C1007 C 0.19988 0.72863 0.79087 0.0
C1008 C 0.18857 0.72622 0.74493 0.0
C1009 C 0.1844 0.74531 0.71442 0.0
C1010 C 0.19154 0.76686 0.72978 0.0
C1011 C 0.20295 0.76935 0.77556 0.0
H1012 H 0.17566 0.74341 0.67885 0.0
H1013 H 0.29328 0.77355 0.1096 0.0
H1014 H 0.69535 0.32902 0.34787 0.0
H1015 H 0.71857 0.30639 0.40268 0.0
H1016 H 0.77266 0.32179 0.30452 0.0
H1017 H 0.74915 0.34512 0.249 0.0
H1018 H 0.76631 0.27356 0.32927 0.0
H1019 H 0.77289 0.34497 0.4159 0.0
H1020 H 0.75998 0.38066 0.45537 0.0
H1021 H 0.7237 0.34217 0.56624 0.0
H1022 H 0.73609 0.30624 0.52695 0.0
H1023 H 0.83401 0.21492 0.50627 0.0
H1024 H 0.8183 0.24277 0.44781 0.0
H1025 H 0.76134 0.24556 0.54243 0.0
H1026 H 0.77731 0.21822 0.60216 0.0
H1027 H 0.77361 0.28746 0.51628 0.0
H1028 H 0.76236 0.21722 0.4262 0.0
H1029 H 0.77252 0.18063 0.38632 0.0
H1030 H 0.81482 0.21581 0.28222 0.0
H1031 H 0.80513 0.25262 0.322 0.0
C1032 C 0.71223 0.32779 0.33795 0.0
C1033 C 0.72044 0.33876 0.29398 0.0
C1034 C 0.72551 0.3149 0.36956 0.0
C1035 C 0.74736 0.31244 0.35791 0.0
C1036 C 0.75582 0.32355 0.31425 0.0
C1037 C 0.74247 0.33692 0.28278 0.0
C1038 C 0.76068 0.29731 0.39078 0.0
C1039 C 0.76844 0.27684 0.36993 0.0
C1040 C 0.76273 0.30125 0.44418 0.0
C1041 C 0.75533 0.32287 0.46818 0.0
C1042 C 0.76202 0.3441 0.44843 0.0
C1043 C 0.75482 0.36438 0.47082 0.0
C1044 C 0.74099 0.36368 0.51321 0.0
C1045 C 0.7344 0.34269 0.53337 0.0
C1046 C 0.74153 0.32235 0.51109 0.0
C1047 C 0.81816 0.22147 0.51482 0.0
C1048 C 0.80697 0.21429 0.55914 0.0
C1049 C 0.8091 0.2373 0.48101 0.0
C1050 C 0.78855 0.24623 0.49037 0.0
C1051 C 0.77723 0.23894 0.53429 0.0
C1052 C 0.78629 0.22309 0.56819 0.0
C1053 C 0.77903 0.26349 0.45497 0.0
C1054 C 0.77188 0.28432 0.47547 0.0
C1055 C 0.7773 0.25975 0.40136 0.0
C1056 C 0.78323 0.23765 0.37751 0.0
C1057 C 0.77399 0.21714 0.39513 0.0
C1058 C 0.77963 0.19637 0.37249 0.0
C1059 C 0.79436 0.19589 0.33188 0.0
C1060 C 0.80345 0.2162 0.31376 0.0
C1061 C 0.79788 0.23703 0.33632 0.0
H1062 H 0.7987 0.17979 0.31437 0.0
H1063 H 0.73542 0.37939 0.53048 0.0
H1064 H 0.67288 0.7454 0.93931 0.0
H1065 H 0.68701 0.77139 1.00448 0.0
H1066 H 0.73106 0.71937 0.0547 0.0
H1067 H 0.717 0.69323 0.98871 0.0
H1068 H 0.70777 0.74251 0.13713 0.0
H1069 H 0.75133 0.76032 0.98943 0.0
H1070 H 0.75883 0.7711 0.9002 0.0
H1071 H 0.72321 0.83325 0.92008 0.0
H1072 H 0.71528 0.82256 1.00992 0.0
H1073 H 0.78765 0.80334 0.27095 0.0
H1074 H 0.76361 0.77975 0.21998 0.0
H1075 H 0.73144 0.84019 0.16544 0.0
H1076 H 0.75583 0.86406 0.21684 0.0
H1077 H 0.74427 0.81462 0.08746 0.0
H1078 H 0.70442 0.80019 0.23767 0.0
H1079 H 0.69687 0.79052 0.32804 0.0
H1080 H 0.72362 0.72378 0.30542 0.0
H1081 H 0.7317 0.73318 0.21507 0.0
C1082 C 0.68558 0.73948 0.96423 0.0
C1083 C 0.69381 0.71724 0.95895 0.0
C1084 C 0.69367 0.75437 1.0014 0.0
C1085 C 0.71004 0.74734 0.03467 0.0
C1086 C 0.71835 0.72514 0.02959 0.0
C1087 C 0.71047 0.7103 0.99167 0.0
C1088 C 0.71858 0.76339 0.07411 0.0
C1089 C 0.71598 0.75816 0.12641 0.0
C1090 C 0.7284 0.78432 0.06026 0.0
C1091 C 0.73248 0.79049 1.00603 0.0
C1092 C 0.74485 0.77613 0.97457 0.0
C1093 C 0.74925 0.7823 0.92386 0.0
C1094 C 0.74146 0.80288 0.90418 0.0
C1095 C 0.7292 0.8173 0.9353 0.0
C1096 C 0.72476 0.81119 0.98614 0.0
C1097 C 0.77506 0.8116 0.24922 0.0
C1098 C 0.77362 0.83554 0.24778 0.0
C1099 C 0.76122 0.79805 0.2202 0.0
C1100 C 0.7456 0.80809 0.18878 0.0
C1101 C 0.74332 0.83202 0.18946 0.0
C1102 C 0.75712 0.84566 0.21912 0.0
C1103 C 0.73383 0.79369 0.15086 0.0
C1104 C 0.7358 0.79917 0.09861 0.0
C1105 C 0.72323 0.77316 0.16498 0.0
C1106 C 0.7188 0.76747 0.21958 0.0
C1107 C 0.70891 0.78353 0.25206 0.0
C1108 C 0.7045 0.77808 0.30329 0.0
C1109 C 0.70977 0.75656 0.32247 0.0
C1110 C 0.71954 0.74045 0.2905 0.0
C1111 C 0.72403 0.74583 0.23925 0.0
H1112 H 0.7062 0.75236 0.36207 0.0
H1113 H 0.74498 0.80775 0.86496 0.0
H1114 H 0.22111 0.22724 0.79658 0.0
H1115 H 0.24248 0.25219 0.741 0.0
H1116 H 0.25832 0.19475 0.64462 0.0
H1117 H 0.23748 0.16952 0.7017 0.0
H1118 H 0.29106 0.22674 0.64459 0.0
H1119 H 0.21532 0.22601 0.61658 0.0
H1120 H 0.17715 0.22826 0.64161 0.0
H1121 H 0.18633 0.29721 0.69289 0.0
H1122 H 0.22468 0.29523 0.66895 0.0
H1123 H 0.30617 0.30016 0.42253 0.0
H1124 H 0.29348 0.26955 0.4799 0.0
H1125 H 0.27604 0.31973 0.5936 0.0
H1126 H 0.28837 0.35014 0.53665 0.0
H1127 H 0.24422 0.28851 0.57858 0.0
H1128 H 0.32097 0.28802 0.60704 0.0
H1129 H 0.3589 0.2848 0.58046 0.0
H1130 H 0.34716 0.21718 0.52354 0.0
H1131 H 0.30905 0.22013 0.54917 0.0
C1132 C 0.22992 0.21979 0.76477 0.0
C1133 C 0.22775 0.19649 0.75346 0.0
C1134 C 0.24196 0.23409 0.73271 0.0
C1135 C 0.25151 0.22549 0.68772 0.0
C1136 C 0.25101 0.20181 0.6789 0.0
C1137 C 0.23923 0.18737 0.7117 0.0
C1138 C 0.25947 0.24158 0.64744 0.0
C1139 C 0.28076 0.24007 0.62967 0.0
C1140 C 0.24605 0.259 0.6277 0.0
C1141 C 0.22291 0.26041 0.64134 0.0
C1142 C 0.20923 0.24161 0.63346 0.0
C1143 C 0.18756 0.24284 0.64745 0.0
C1144 C 0.17933 0.26285 0.66891 0.0
C1145 C 0.19274 0.28171 0.6763 0.0
C1146 C 0.21444 0.28055 0.6625 0.0
C1147 C 0.29953 0.30462 0.45965 0.0
C1148 C 0.29841 0.32761 0.47508 0.0
C1149 C 0.29245 0.28712 0.49258 0.0
C1150 C 0.28397 0.29231 0.54133 0.0
C1151 C 0.28259 0.31526 0.55634 0.0
C1152 C 0.28979 0.33265 0.52379 0.0
C1153 C 0.27599 0.27413 0.57673 0.0
C1154 C 0.25455 0.27515 0.59332 0.0
C1155 C 0.28922 0.25619 0.59474 0.0
C1156 C 0.31212 0.2544 0.57948 0.0
C1157 C 0.32643 0.27254 0.58845 0.0
C1158 C 0.34797 0.27075 0.57364 0.0
C1159 C 0.35542 0.25083 0.55018 0.0
C1160 C 0.34136 0.23262 0.54162 0.0
C1161 C 0.31979 0.23434 0.55631 0.0
H1162 H 0.37211 0.24947 0.53875 0.0
H1163 H 0.16255 0.26377 0.67973 0.0
H1164 H 0.7546 0.17627 0.79783 0.0
H1165 H 0.73087 0.19979 0.85212 0.0
H1166 H 0.76585 0.26009 0.80586 0.0
H1167 H 0.78914 0.2369 0.75178 0.0
H1168 H 0.7422 0.22448 0.93442 0.0
H1169 H 0.73534 0.3065 0.80856 0.0
H1170 H 0.73142 0.31656 0.71711 0.0
H1171 H 0.70322 0.25102 0.68705 0.0
H1172 H 0.70667 0.24068 0.7784 0.0
H1173 H 0.72582 0.32261 0.09023 0.0
H1174 H 0.73798 0.29288 0.03069 0.0
H1175 H 0.67879 0.29915 0.94619 0.0
H1176 H 0.66718 0.32949 1.00432 0.0
H1177 H 0.70837 0.29726 0.88123 0.0
H1178 H 0.69219 0.25113 0.02742 0.0
H1179 H 0.69339 0.23921 0.1182 0.0
H1180 H 0.76156 0.22939 0.10664 0.0
H1181 H 0.76082 0.24153 0.01596 0.0
C1182 C 0.75666 0.19464 0.79798 0.0
C1183 C 0.7736 0.20479 0.77028 0.0
C1184 C 0.7433 0.20803 0.82949 0.0
C1185 C 0.74649 0.23179 0.8331 0.0
C1186 C 0.76278 0.24192 0.80337 0.0
C1187 C 0.77613 0.22861 0.77239 0.0
C1188 C 0.73411 0.24603 0.8704 0.0
C1189 C 0.73461 0.24029 0.92277 0.0
C1190 C 0.72386 0.26651 0.85533 0.0
C1191 C 0.72141 0.27276 0.80036 0.0
C1192 C 0.72818 0.29428 0.78252 0.0
C1193 C 0.72607 0.30002 0.73066 0.0
C1194 C 0.71713 0.28442 0.69627 0.0
C1195 C 0.71021 0.26307 0.71369 0.0
C1196 C 0.71227 0.25724 0.7655 0.0
C1197 C 0.71535 0.31739 0.0593 0.0
C1198 C 0.69559 0.32841 0.05183 0.0
C1199 C 0.72225 0.30031 0.02528 0.0
C1200 C 0.70926 0.29342 0.98388 0.0
C1201 C 0.68925 0.3041 0.97741 0.0
C1202 C 0.68257 0.32144 1.01072 0.0
C1203 C 0.7169 0.27607 0.94573 0.0
C1204 C 0.71563 0.2813 0.89308 0.0
C1205 C 0.72597 0.25489 0.96054 0.0
C1206 C 0.72646 0.24739 0.01497 0.0
C1207 C 0.70746 0.24655 0.04431 0.0
C1208 C 0.70805 0.23974 0.09575 0.0
C1209 C 0.72754 0.23358 0.1182 0.0
C1210 C 0.74648 0.23417 0.08921 0.0
C1211 C 0.74597 0.24098 0.03777 0.0
H1212 H 0.72798 0.22833 0.15804 0.0
H1213 H 0.71553 0.28889 0.65613 0.0
H1214 H 0.24716 0.85157 0.28083 0.0
H1215 H 0.26886 0.82817 0.33977 0.0
H1216 H 0.21733 0.7791 0.35033 0.0
H1217 H 0.19597 0.80182 0.29189 0.0
H1218 H 0.23313 0.79092 0.44596 0.0
H1219 H 0.25965 0.7674 0.27933 0.0
H1220 H 0.27581 0.77417 0.19428 0.0
H1221 H 0.33248 0.80147 0.26515 0.0
H1222 H 0.3164 0.79522 0.35086 0.0
H1223 H 0.27852 0.69154 0.55499 0.0
H1224 H 0.26113 0.71865 0.49702 0.0
H1225 H 0.31928 0.75865 0.49037 0.0
H1226 H 0.33667 0.73187 0.5483 0.0
H1227 H 0.3022 0.75484 0.39649 0.0
H1228 H 0.27763 0.77606 0.56294 0.0
H1229 H 0.26238 0.76857 0.64886 0.0
H1230 H 0.20312 0.74681 0.58078 0.0
H1231 H 0.21816 0.75376 0.49425 0.0
C1232 C 0.24061 0.83567 0.29532 0.0
C1233 C 0.21981 0.82864 0.28152 0.0
C1234 C 0.25296 0.82237 0.32914 0.0
C1235 C 0.24462 0.80195 0.34985 0.0
C1236 C 0.22404 0.79486 0.3354 0.0
C1237 C 0.21187 0.80791 0.30155 0.0
C1238 C 0.25705 0.78758 0.38636 0.0
C1239 C 0.24819 0.78296 0.43506 0.0
C1240 C 0.27694 0.77758 0.37276 0.0
C1241 C 0.28672 0.78112 0.32142 0.0
C1242 C 0.27548 0.77503 0.27677 0.0
C1243 C 0.28465 0.77874 0.22842 0.0
C1244 C 0.30517 0.78831 0.22422 0.0
C1245 C 0.31657 0.79411 0.26844 0.0
C1246 C 0.30744 0.79049 0.31692 0.0
C1247 C 0.28758 0.70615 0.54146 0.0
C1248 C 0.30905 0.70939 0.55648 0.0
C1249 C 0.27763 0.72164 0.50818 0.0
C1250 C 0.28885 0.74084 0.48955 0.0
C1251 C 0.31032 0.74395 0.50394 0.0
C1252 C 0.32027 0.72849 0.53709 0.0
C1253 C 0.27811 0.75786 0.45576 0.0
C1254 C 0.28728 0.763 0.40769 0.0
C1255 C 0.25859 0.76851 0.47015 0.0
C1256 C 0.2491 0.76523 0.52206 0.0
C1257 C 0.26136 0.7696 0.56625 0.0
C1258 C 0.25277 0.76544 0.61504 0.0
C1259 C 0.23184 0.75714 0.62023 0.0
C1260 C 0.21936 0.75319 0.57664 0.0
C1261 C 0.2279 0.75726 0.52769 0.0
H1262 H 0.22533 0.75374 0.65803 0.0
H1263 H 0.31226 0.79119 0.18676 0.0
loop_
_geom_bond_atom_site_label_1
_geom_bond_atom_site_label_2
_geom_bond_distance
_geom_bond_site_symmetry_2
_ccdc_geom_bond_type
C0 C1 1.351 . S
C0 N3 1.368 . S
C0 H5 0.931 . S
C1 C0 1.351 . S
C1 N2 1.373 . S
C1 H29 0.930 . S
N2 C1 1.373 . S
N2 C4 1.340 . S
N3 C0 1.368 . S
N3 C4 1.321 . S
N3 Co6 2.135 . S
C4 N2 1.340 . S
C4 N3 1.321 . S
C4 H28 0.930 . S
H5 C0 0.931 . S
Co6 N3 2.135 . S
Co6 N9 2.121 . S
Co6 O14 2.055 . S
Co6 O17 2.039 . S
Co6 N20 2.140 . S
C7 O8 1.227 . S
C7 O17 1.265 . S
O8 C7 1.227 . S
N9 Co6 2.121 . S
N9 C11 1.375 . S
N9 C12 1.313 . S
C10 C11 1.338 . S
C10 N13 1.377 . S
C10 H30 0.930 . S
C11 N9 1.375 . S
C11 C10 1.338 . S
C11 H15 0.931 . S
C12 N9 1.313 . S
C12 N13 1.344 . S
C12 H16 0.930 . S
N13 C10 1.377 . S
N13 C12 1.344 . S
O14 Co6 2.055 . S
O14 C18 1.253 . S
H15 C11 0.931 . S
H16 C12 0.930 . S
O17 Co6 2.039 . S
O17 C7 1.265 . S
C18 O14 1.253 . S
C18 O19 1.227 . S
O19 C18 1.227 . S
N20 Co6 2.140 . S
N20 C23 1.346 . S
N20 C24 1.345 . S
C21 C22 1.387 . S
C21 C25 1.391 . S
C22 C21 1.387 . S
C22 C23 1.369 . S
C22 H31 0.929 . S
C23 N20 1.346 . S
C23 C22 1.369 . S
C23 H26 0.928 . S
C24 N20 1.345 . S
C24 C25 1.371 . S
C24 H27 0.931 . S
C25 C21 1.391 . S
C25 C24 1.371 . S
C25 H32 0.930 . S
H26 C23 0.928 . S
H27 C24 0.931 . S
H28 C4 0.930 . S
H29 C1 0.930 . S
H30 C10 0.930 . S
H31 C22 0.929 . S
H32 C25 0.930 . S
C33 C34 1.351 . S
C33 N36 1.368 . S
C33 H38 0.931 . S
C34 C33 1.351 . S
C34 N35 1.373 . S
C34 H62 0.930 . S
N35 C34 1.373 . S
N35 C37 1.340 . S
N36 C33 1.368 . S
N36 C37 1.321 . S
N36 Co39 2.135 . S
C37 N35 1.340 . S
C37 N36 1.321 . S
C37 H61 0.930 . S
H38 C33 0.931 . S
Co39 N36 2.135 . S
Co39 N42 2.121 . S
Co39 O47 2.055 . S
Co39 O50 2.039 . S
Co39 N53 2.140 . S
C40 O41 1.227 . S
C40 O50 1.265 . S
O41 C40 1.227 . S
N42 Co39 2.121 . S
N42 C44 1.375 . S
N42 C45 1.313 . S
C43 C44 1.338 . S
C43 N46 1.377 . S
C43 H63 0.930 . S
C44 N42 1.375 . S
C44 C43 1.338 . S
C44 H48 0.931 . S
C45 N42 1.313 . S
C45 N46 1.344 . S
C45 H49 0.930 . S
N46 C43 1.377 . S
N46 C45 1.344 . S
O47 Co39 2.055 . S
O47 C51 1.253 . S
H48 C44 0.931 . S
H49 C45 0.930 . S
O50 Co39 2.039 . S
O50 C40 1.265 . S
C51 O47 1.253 . S
C51 O52 1.227 . S
O52 C51 1.227 . S
N53 Co39 2.140 . S
N53 C56 1.346 . S
N53 C57 1.345 . S
C54 C55 1.387 . S
C54 C58 1.391 . S
C55 C54 1.387 . S
C55 C56 1.369 . S
C55 H64 0.929 . S
C56 N53 1.346 . S
C56 C55 1.369 . S
C56 H59 0.928 . S
C57 N53 1.345 . S
C57 C58 1.371 . S
C57 H60 0.931 . S
C58 C54 1.391 . S
C58 C57 1.371 . S
C58 H65 0.930 . S
H59 C56 0.928 . S
H60 C57 0.931 . S
H61 C37 0.930 . S
H62 C34 0.930 . S
H63 C43 0.930 . S
H64 C55 0.929 . S
H65 C58 0.930 . S
C66 C67 1.351 . S
C66 N69 1.368 . S
C66 H71 0.931 . S
C67 C66 1.351 . S
C67 N68 1.373 . S
C67 H95 0.930 . S
N68 C67 1.373 . S
N68 C70 1.340 . S
N69 C66 1.368 . S
N69 C70 1.321 . S
N69 Co72 2.135 . S
C70 N68 1.340 . S
C70 N69 1.321 . S
C70 H94 0.930 . S
H71 C66 0.931 . S
Co72 N69 2.135 . S
Co72 N75 2.121 . S
Co72 O80 2.055 . S
Co72 O83 2.039 . S
Co72 N86 2.140 . S
C73 O74 1.227 . S
C73 O83 1.265 . S
O74 C73 1.227 . S
N75 Co72 2.121 . S
N75 C77 1.375 . S
N75 C78 1.313 . S
C76 C77 1.338 . S
C76 N79 1.377 . S
C76 H96 0.930 . S
C77 N75 1.375 . S
C77 C76 1.338 . S
C77 H81 0.931 . S
C78 N75 1.313 . S
C78 N79 1.344 . S
C78 H82 0.930 . S
N79 C76 1.377 . S
N79 C78 1.344 . S
O80 Co72 2.055 . S
O80 C84 1.253 . S
H81 C77 0.931 . S
H82 C78 0.930 . S
O83 Co72 2.039 . S
O83 C73 1.265 . S
C84 O80 1.253 . S
C84 O85 1.227 . S
O85 C84 1.227 . S
N86 Co72 2.140 . S
N86 C89 1.346 . S
N86 C90 1.345 . S
C87 C88 1.387 . S
C87 C91 1.391 . S
C88 C87 1.387 . S
C88 C89 1.369 . S
C88 H97 0.929 . S
C89 N86 1.346 . S
C89 C88 1.369 . S
C89 H92 0.928 . S
C90 N86 1.345 . S
C90 C91 1.371 . S
C90 H93 0.931 . S
C91 C87 1.391 . S
C91 C90 1.371 . S
C91 H98 0.930 . S
H92 C89 0.928 . S
H93 C90 0.931 . S
H94 C70 0.930 . S
H95 C67 0.930 . S
H96 C76 0.930 . S
H97 C88 0.929 . S
H98 C91 0.930 . S
C99 C100 1.351 . S
C99 N102 1.368 . S
C99 H104 0.931 . S
C100 C99 1.351 . S
C100 N101 1.373 . S
C100 H128 0.930 . S
N101 C100 1.373 . S
N101 C103 1.340 . S
N102 C99 1.368 . S
N102 C103 1.321 . S
N102 Co105 2.135 . S
C103 N101 1.340 . S
C103 N102 1.321 . S
C103 H127 0.930 . S
H104 C99 0.931 . S
Co105 N102 2.135 . S
Co105 N108 2.121 . S
Co105 O113 2.055 . S
Co105 O116 2.039 . S
Co105 N119 2.140 . S
C106 O107 1.227 . S
C106 O116 1.265 . S
O107 C106 1.227 . S
N108 Co105 2.121 . S
N108 C110 1.375 . S
N108 C111 1.313 . S
C109 C110 1.338 . S
C109 N112 1.377 . S
C109 H129 0.930 . S
C110 N108 1.375 . S
C110 C109 1.338 . S
C110 H114 0.931 . S
C111 N108 1.313 . S
C111 N112 1.344 . S
C111 H115 0.930 . S
N112 C109 1.377 . S
N112 C111 1.344 . S
O113 Co105 2.055 . S
O113 C117 1.253 . S
H114 C110 0.931 . S
H115 C111 0.930 . S
O116 Co105 2.039 . S
O116 C106 1.265 . S
C117 O113 1.253 . S
C117 O118 1.227 . S
O118 C117 1.227 . S
N119 Co105 2.140 . S
N119 C122 1.346 . S
N119 C123 1.345 . S
C120 C121 1.387 . S
C120 C124 1.391 . S
C121 C120 1.387 . S
C121 C122 1.369 . S
C121 H130 0.929 . S
C122 N119 1.346 . S
C122 C121 1.369 . S
C122 H125 0.928 . S
C123 N119 1.345 . S
C123 C124 1.371 . S
C123 H126 0.931 . S
C124 C120 1.391 . S
C124 C123 1.371 . S
C124 H131 0.930 . S
H125 C122 0.928 . S
H126 C123 0.931 . S
H127 C103 0.930 . S
H128 C100 0.930 . S
H129 C109 0.930 . S
H130 C121 0.929 . S
H131 C124 0.930 . S
C132 C133 1.351 . S
C132 N135 1.368 . S
C132 H137 0.931 . S
C133 C132 1.351 . S
C133 N134 1.373 . S
C133 H161 0.930 . S
N134 C133 1.373 . S
N134 C136 1.340 . S
N135 C132 1.368 . S
N135 C136 1.321 . S
N135 Co138 2.135 . S
C136 N134 1.340 . S
C136 N135 1.321 . S
C136 H160 0.930 . S
H137 C132 0.931 . S
Co138 N135 2.135 . S
Co138 N141 2.121 . S
Co138 O146 2.055 . S
Co138 O149 2.039 . S
Co138 N152 2.140 . S
C139 O140 1.227 . S
C139 O149 1.265 . S
O140 C139 1.227 . S
N141 Co138 2.121 . S
N141 C143 1.375 . S
N141 C144 1.313 . S
C142 C143 1.338 . S
C142 N145 1.377 . S
C142 H162 0.930 . S
C143 N141 1.375 . S
C143 C142 1.338 . S
C143 H147 0.931 . S
C144 N141 1.313 . S
C144 N145 1.344 . S
C144 H148 0.930 . S
N145 C142 1.377 . S
N145 C144 1.344 . S
O146 Co138 2.055 . S
O146 C150 1.253 . S
H147 C143 0.931 . S
H148 C144 0.930 . S
O149 Co138 2.039 . S
O149 C139 1.265 . S
C150 O146 1.253 . S
C150 O151 1.227 . S
O151 C150 1.227 . S
N152 Co138 2.140 . S
N152 C155 1.346 . S
N152 C156 1.345 . S
C153 C154 1.387 . S
C153 C157 1.391 . S
C154 C153 1.387 . S
C154 C155 1.369 . S
C154 H163 0.929 . S
C155 N152 1.346 . S
C155 C154 1.369 . S
C155 H158 0.928 . S
C156 N152 1.345 . S
C156 C157 1.371 . S
C156 H159 0.931 . S
C157 C153 1.391 . S
C157 C156 1.371 . S
C157 H164 0.930 . S
H158 C155 0.928 . S
H159 C156 0.931 . S
H160 C136 0.930 . S
H161 C133 0.930 . S
H162 C142 0.930 . S
H163 C154 0.929 . S
H164 C157 0.930 . S
C165 C166 1.351 . S
C165 N168 1.368 . S
C165 H170 0.931 . S
C166 C165 1.351 . S
C166 N167 1.373 . S
C166 H194 0.930 . S
N167 C166 1.373 . S
N167 C169 1.340 . S
N168 C165 1.368 . S
N168 C169 1.321 . S
N168 Co171 2.135 . S
C169 N167 1.340 . S
C169 N168 1.321 . S
C169 H193 0.930 . S
H170 C165 0.931 . S
Co171 N168 2.135 . S
Co171 N174 2.121 . S
Co171 O179 2.055 . S
Co171 O182 2.039 . S
Co171 N185 2.140 . S
C172 O173 1.227 . S
C172 O182 1.265 . S
O173 C172 1.227 . S
N174 Co171 2.121 . S
N174 C176 1.375 . S
N174 C177 1.313 . S
C175 C176 1.338 . S
C175 N178 1.377 . S
C175 H195 0.930 . S
C176 N174 1.375 . S
C176 C175 1.338 . S
C176 H180 0.931 . S
C177 N174 1.313 . S
C177 N178 1.344 . S
C177 H181 0.930 . S
N178 C175 1.377 . S
N178 C177 1.344 . S
O179 Co171 2.055 . S
O179 C183 1.253 . S
H180 C176 0.931 . S
H181 C177 0.930 . S
O182 Co171 2.039 . S
O182 C172 1.265 . S
C183 O179 1.253 . S
C183 O184 1.227 . S
O184 C183 1.227 . S
N185 Co171 2.140 . S
N185 C188 1.346 . S
N185 C189 1.345 . S
C186 C187 1.387 . S
C186 C190 1.391 . S
C187 C186 1.387 . S
C187 C188 1.369 . S
C187 H196 0.929 . S
C188 N185 1.346 . S
C188 C187 1.369 . S
C188 H191 0.928 . S
C189 N185 1.345 . S
C189 C190 1.371 . S
C189 H192 0.931 . S
C190 C186 1.391 . S
C190 C189 1.371 . S
C190 H197 0.930 . S
H191 C188 0.928 . S
H192 C189 0.931 . S
H193 C169 0.930 . S
H194 C166 0.930 . S
H195 C175 0.930 . S
H196 C187 0.929 . S
H197 C190 0.930 . S
C198 C199 1.351 . S
C198 N201 1.368 . S
C198 H203 0.931 . S
C199 C198 1.351 . S
C199 N200 1.373 . S
C199 H227 0.930 . S
N200 C199 1.373 . S
N200 C202 1.340 . S
N201 C198 1.368 . S
N201 C202 1.321 . S
N201 Co204 2.135 . S
C202 N200 1.340 . S
C202 N201 1.321 . S
C202 H226 0.930 . S
H203 C198 0.931 . S
Co204 N201 2.135 . S
Co204 N207 2.121 . S
Co204 O212 2.055 . S
Co204 O215 2.039 . S
Co204 N218 2.140 . S
C205 O206 1.227 . S
C205 O215 1.265 . S
O206 C205 1.227 . S
N207 Co204 2.121 . S
N207 C209 1.375 . S
N207 C210 1.313 . S
C208 C209 1.338 . S
C208 N211 1.377 . S
C208 H228 0.930 . S
C209 N207 1.375 . S
C209 C208 1.338 . S
C209 H213 0.931 . S
C210 N207 1.313 . S
C210 N211 1.344 . S
C210 H214 0.930 . S
N211 C208 1.377 . S
N211 C210 1.344 . S
O212 Co204 2.055 . S
O212 C216 1.253 . S
H213 C209 0.931 . S
H214 C210 0.930 . S
O215 Co204 2.039 . S
O215 C205 1.265 . S
C216 O212 1.253 . S
C216 O217 1.227 . S
O217 C216 1.227 . S
N218 Co204 2.140 . S
N218 C221 1.346 . S
N218 C222 1.345 . S
C219 C220 1.387 . S
C219 C223 1.391 . S
C220 C219 1.387 . S
C220 C221 1.369 . S
C220 H229 0.929 . S
C221 N218 1.346 . S
C221 C220 1.369 . S
C221 H224 0.928 . S
C222 N218 1.345 . S
C222 C223 1.371 . S
C222 H225 0.931 . S
C223 C219 1.391 . S
C223 C222 1.371 . S
C223 H230 0.930 . S
H224 C221 0.928 . S
H225 C222 0.931 . S
H226 C202 0.930 . S
H227 C199 0.930 . S
H228 C208 0.930 . S
H229 C220 0.929 . S
H230 C223 0.930 . S
C231 C232 1.351 . S
C231 N234 1.368 . S
C231 H236 0.931 . S
C232 C231 1.351 . S
C232 N233 1.373 . S
C232 H260 0.930 . S
N233 C232 1.373 . S
N233 C235 1.340 . S
N234 C231 1.368 . S
N234 C235 1.321 . S
N234 Co237 2.135 . S
C235 N233 1.340 . S
C235 N234 1.321 . S
C235 H259 0.930 . S
H236 C231 0.931 . S
Co237 N234 2.135 . S
Co237 N240 2.121 . S
Co237 O245 2.055 . S
Co237 O248 2.039 . S
Co237 N251 2.140 . S
C238 O239 1.227 . S
C238 O248 1.265 . S
O239 C238 1.227 . S
N240 Co237 2.121 . S
N240 C242 1.375 . S
N240 C243 1.313 . S
C241 C242 1.338 . S
C241 N244 1.377 . S
C241 H261 0.930 . S
C242 N240 1.375 . S
C242 C241 1.338 . S
C242 H246 0.931 . S
C243 N240 1.313 . S
C243 N244 1.344 . S
C243 H247 0.930 . S
N244 C241 1.377 . S
N244 C243 1.344 . S
O245 Co237 2.055 . S
O245 C249 1.253 . S
H246 C242 0.931 . S
H247 C243 0.930 . S
O248 Co237 2.039 . S
O248 C238 1.265 . S
C249 O245 1.253 . S
C249 O250 1.227 . S
O250 C249 1.227 . S
N251 Co237 2.140 . S
N251 C254 1.346 . S
N251 C255 1.345 . S
C252 C253 1.387 . S
C252 C256 1.391 . S
C253 C252 1.387 . S
C253 C254 1.369 . S
C253 H262 0.929 . S
C254 N251 1.346 . S
C254 C253 1.369 . S
C254 H257 0.928 . S
C255 N251 1.345 . S
C255 C256 1.371 . S
C255 H258 0.931 . S
C256 C252 1.391 . S
C256 C255 1.371 . S
C256 H263 0.930 . S
H257 C254 0.928 . S
H258 C255 0.931 . S
H259 C235 0.930 . S
H260 C232 0.930 . S
H261 C241 0.930 . S
H262 C253 0.929 . S
H263 C256 0.930 . S
H264 C282 0.951 . S
H265 C284 0.951 . S
H266 C286 0.950 . S
H267 C287 0.950 . S
H268 C289 0.950 . S
H269 C292 0.950 . S
H270 C293 0.950 . S
H271 C295 0.950 . S
H272 C296 0.950 . S
H273 C297 0.951 . S
H274 C299 0.951 . S
H275 C301 0.950 . S
H276 C302 0.950 . S
H277 C304 0.950 . S
H278 C307 0.950 . S
H279 C308 0.950 . S
H280 C310 0.950 . S
H281 C311 0.950 . S
C282 H264 0.951 . S
C282 C283 1.366 . S
C282 C284 1.388 . S
C283 C282 1.366 . S
C283 C287 1.385 . S
C284 H265 0.951 . S
C284 C282 1.388 . S
C284 C285 1.366 . S
C285 C284 1.366 . S
C285 C286 1.414 . S
C285 C288 1.499 . S
C286 H266 0.950 . S
C286 C285 1.414 . S
C286 C287 1.374 . S
C287 H267 0.950 . S
C287 C283 1.385 . S
C287 C286 1.374 . S
C288 C285 1.499 . S
C288 C289 1.373 . S
C288 C290 1.389 . S
C289 H268 0.950 . S
C289 C288 1.373 . S
C289 C305 1.377 . S
C290 C288 1.389 . S
C290 C291 1.524 . S
C290 C304 1.377 . S
C291 C290 1.524 . S
C291 C292 1.397 . S
C291 C296 1.363 . S
C292 H269 0.950 . S
C292 C291 1.397 . S
C292 C293 1.334 . S
C293 H270 0.950 . S
C293 C292 1.334 . S
C293 C294 1.287 . S
C294 C293 1.287 . S
C294 C295 1.524 . S
C294 H313 0.913 . S
C295 H271 0.950 . S
C295 C294 1.524 . S
C295 C296 1.415 . S
C296 H272 0.950 . S
C296 C291 1.363 . S
C296 C295 1.415 . S
C297 H273 0.951 . S
C297 C298 1.366 . S
C297 C299 1.388 . S
C298 C297 1.366 . S
C298 C302 1.385 . S
C299 H274 0.951 . S
C299 C297 1.388 . S
C299 C300 1.366 . S
C300 C299 1.366 . S
C300 C301 1.414 . S
C300 C303 1.499 . S
C301 H275 0.950 . S
C301 C300 1.414 . S
C301 C302 1.374 . S
C302 H276 0.950 . S
C302 C298 1.385 . S
C302 C301 1.374 . S
C303 C300 1.499 . S
C303 C304 1.373 . S
C303 C305 1.389 . S
C304 H277 0.950 . S
C304 C290 1.377 . S
C304 C303 1.373 . S
C305 C289 1.377 . S
C305 C303 1.389 . S
C305 C306 1.524 . S
C306 C305 1.524 . S
C306 C307 1.397 . S
C306 C311 1.363 . S
C307 H278 0.950 . S
C307 C306 1.397 . S
C307 C308 1.334 . S
C308 H279 0.950 . S
C308 C307 1.334 . S
C308 C309 1.287 . S
C309 C308 1.287 . S
C309 C310 1.524 . S
C309 H312 0.999 . S
C310 H280 0.950 . S
C310 C309 1.524 . S
C310 C311 1.415 . S
C311 H281 0.950 . S
C311 C306 1.363 . S
C311 C310 1.415 . S
H312 C309 0.999 . S
H313 C294 0.913 . S
H314 C332 0.951 . S
H315 C334 0.951 . S
H316 C336 0.950 . S
H317 C337 0.950 . S
H318 C339 0.950 . S
H319 C342 0.950 . S
H320 C343 0.950 . S
H321 C345 0.950 . S
H322 C346 0.950 . S
H323 C347 0.951 . S
H324 C349 0.951 . S
H325 C351 0.950 . S
H326 C352 0.950 . S
H327 C354 0.950 . S
H328 C357 0.950 . S
H329 C358 0.950 . S
H330 C360 0.950 . S
H331 C361 0.950 . S
C332 H314 0.951 . S
C332 C333 1.366 . S
C332 C334 1.388 . S
C333 C332 1.366 . S
C333 C337 1.385 . S
C334 H315 0.951 . S
C334 C332 1.388 . S
C334 C335 1.366 . S
C335 C334 1.366 . S
C335 C336 1.414 . S
C335 C338 1.499 . S
C336 H316 0.950 . S
C336 C335 1.414 . S
C336 C337 1.374 . S
C337 H317 0.950 . S
C337 C333 1.385 . S
C337 C336 1.374 . S
C338 C335 1.499 . S
C338 C339 1.373 . S
C338 C340 1.389 . S
C339 H318 0.950 . S
C339 C338 1.373 . S
C339 C355 1.377 . S
C340 C338 1.389 . S
C340 C341 1.524 . S
C340 C354 1.377 . S
C341 C340 1.524 . S
C341 C342 1.397 . S
C341 C346 1.363 . S
C342 H319 0.950 . S
C342 C341 1.397 . S
C342 C343 1.334 . S
C343 H320 0.950 . S
C343 C342 1.334 . S
C343 C344 1.287 . S
C344 C343 1.287 . S
C344 C345 1.524 . S
C344 H363 0.913 . S
C345 H321 0.950 . S
C345 C344 1.524 . S
C345 C346 1.415 . S
C346 H322 0.950 . S
C346 C341 1.363 . S
C346 C345 1.415 . S
C347 H323 0.951 . S
C347 C348 1.366 . S
C347 C349 1.388 . S
C348 C347 1.366 . S
C348 C352 1.385 . S
C349 H324 0.951 . S
C349 C347 1.388 . S
C349 C350 1.366 . S
C350 C349 1.366 . S
C350 C351 1.414 . S
C350 C353 1.499 . S
C351 H325 0.950 . S
C351 C350 1.414 . S
C351 C352 1.374 . S
C352 H326 0.950 . S
C352 C348 1.385 . S
C352 C351 1.374 . S
C353 C350 1.499 . S
C353 C354 1.373 . S
C353 C355 1.389 . S
C354 H327 0.950 . S
C354 C340 1.377 . S
C354 C353 1.373 . S
C355 C339 1.377 . S
C355 C353 1.389 . S
C355 C356 1.524 . S
C356 C355 1.524 . S
C356 C357 1.397 . S
C356 C361 1.363 . S
C357 H328 0.950 . S
C357 C356 1.397 . S
C357 C358 1.334 . S
C358 H329 0.950 . S
C358 C357 1.334 . S
C358 C359 1.287 . S
C359 C358 1.287 . S
C359 C360 1.524 . S
C359 H362 0.999 . S
C360 H330 0.950 . S
C360 C359 1.524 . S
C360 C361 1.415 . S
C361 H331 0.950 . S
C361 C356 1.363 . S
C361 C360 1.415 . S
H362 C359 0.999 . S
H363 C344 0.913 . S
H364 C382 0.951 . S
H365 C384 0.951 . S
H366 C386 0.950 . S
H367 C387 0.950 . S
H368 C389 0.950 . S
H369 C392 0.950 . S
H370 C393 0.950 . S
H371 C395 0.950 . S
H372 C396 0.950 . S
H373 C397 0.951 . S
H374 C399 0.951 . S
H375 C401 0.950 . S
H376 C402 0.950 . S
H377 C404 0.950 . S
H378 C407 0.950 . S
H379 C408 0.950 . S
H380 C410 0.950 . S
H381 C411 0.950 . S
C382 H364 0.951 . S
C382 C383 1.366 . S
C382 C384 1.388 . S
C383 C382 1.366 . S
C383 C387 1.385 . S
C384 H365 0.951 . S
C384 C382 1.388 . S
C384 C385 1.366 . S
C385 C384 1.366 . S
C385 C386 1.414 . S
C385 C388 1.499 . S
C386 H366 0.950 . S
C386 C385 1.414 . S
C386 C387 1.374 . S
C387 H367 0.950 . S
C387 C383 1.385 . S
C387 C386 1.374 . S
C388 C385 1.499 . S
C388 C389 1.373 . S
C388 C390 1.389 . S
C389 H368 0.950 . S
C389 C388 1.373 . S
C389 C405 1.377 1_455 S
C390 C388 1.389 . S
C390 C391 1.524 . S
C390 C404 1.377 1_455 S
C391 C390 1.524 . S
C391 C392 1.397 . S
C391 C396 1.363 . S
C392 H369 0.950 . S
C392 C391 1.397 . S
C392 C393 1.334 . S
C393 H370 0.950 . S
C393 C392 1.334 . S
C393 C394 1.287 . S
C394 C393 1.287 . S
C394 C395 1.524 . S
C394 H413 0.913 . S
C395 H371 0.950 . S
C395 C394 1.524 . S
C395 C396 1.415 . S
C396 H372 0.950 . S
C396 C391 1.363 . S
C396 C395 1.415 . S
C397 H373 0.951 . S
C397 C398 1.366 . S
C397 C399 1.388 . S
C398 C397 1.366 . S
C398 C402 1.385 . S
C399 H374 0.951 . S
C399 C397 1.388 . S
C399 C400 1.366 . S
C400 C399 1.366 . S
C400 C401 1.414 . S
C400 C403 1.499 . S
C401 H375 0.950 . S
C401 C400 1.414 . S
C401 C402 1.374 . S
C402 H376 0.950 . S
C402 C398 1.385 . S
C402 C401 1.374 . S
C403 C400 1.499 . S
C403 C404 1.373 . S
C403 C405 1.389 . S
C404 H377 0.950 . S
C404 C390 1.377 1_655 S
C404 C403 1.373 . S
C405 C389 1.377 1_655 S
C405 C403 1.389 . S
C405 C406 1.524 . S
C406 C405 1.524 . S
C406 C407 1.397 . S
C406 C411 1.363 . S
C407 H378 0.950 . S
C407 C406 1.397 . S
C407 C408 1.334 . S
C408 H379 0.950 . S
C408 C407 1.334 . S
C408 C409 1.287 . S
C409 C408 1.287 . S
C409 C410 1.524 . S
C409 H412 0.999 . S
C410 H380 0.950 . S
C410 C409 1.524 . S
C410 C411 1.415 . S
C411 H381 0.950 . S
C411 C406 1.363 . S
C411 C410 1.415 . S
H412 C409 0.999 . S
H413 C394 0.913 . S
H414 C432 0.951 . S
H415 C434 0.951 . S
H416 C436 0.950 . S
H417 C437 0.950 . S
H418 C439 0.950 . S
H419 C442 0.950 . S
H420 C443 0.950 . S
H421 C445 0.950 . S
H422 C446 0.950 . S
H423 C447 0.951 . S
H424 C449 0.951 . S
H425 C451 0.950 . S
H426 C452 0.950 . S
H427 C454 0.950 . S
H428 C457 0.950 . S
H429 C458 0.950 . S
H430 C460 0.950 . S
H431 C461 0.950 . S
C432 H414 0.951 . S
C432 C433 1.366 . S
C432 C434 1.388 . S
C433 C432 1.366 . S
C433 C437 1.385 . S
C434 H415 0.951 . S
C434 C432 1.388 . S
C434 C435 1.366 . S
C435 C434 1.366 . S
C435 C436 1.414 . S
C435 C438 1.499 . S
C436 H416 0.950 . S
C436 C435 1.414 . S
C436 C437 1.374 . S
C437 H417 0.950 . S
C437 C433 1.385 . S
C437 C436 1.374 . S
C438 C435 1.499 . S
C438 C439 1.373 . S
C438 C440 1.389 . S
C439 H418 0.950 . S
C439 C438 1.373 . S
C439 C455 1.377 1_455 S
C440 C438 1.389 . S
C440 C441 1.524 . S
C440 C454 1.377 1_455 S
C441 C440 1.524 . S
C441 C442 1.397 . S
C441 C446 1.363 . S
C442 H419 0.950 . S
C442 C441 1.397 . S
C442 C443 1.334 . S
C443 H420 0.950 . S
C443 C442 1.334 . S
C443 C444 1.287 . S
C444 C443 1.287 . S
C444 C445 1.524 . S
C444 H463 0.913 . S
C445 H421 0.950 . S
C445 C444 1.524 . S
C445 C446 1.415 . S
C446 H422 0.950 . S
C446 C441 1.363 . S
C446 C445 1.415 . S
C447 H423 0.951 . S
C447 C448 1.366 . S
C447 C449 1.388 . S
C448 C447 1.366 . S
C448 C452 1.385 . S
C449 H424 0.951 . S
C449 C447 1.388 . S
C449 C450 1.366 . S
C450 C449 1.366 . S
C450 C451 1.414 . S
C450 C453 1.499 . S
C451 H425 0.950 . S
C451 C450 1.414 . S
C451 C452 1.374 . S
C452 H426 0.950 . S
C452 C448 1.385 . S
C452 C451 1.374 . S
C453 C450 1.499 . S
C453 C454 1.373 . S
C453 C455 1.389 . S
C454 H427 0.950 . S
C454 C440 1.377 1_655 S
C454 C453 1.373 . S
C455 C439 1.377 1_655 S
C455 C453 1.389 . S
C455 C456 1.524 . S
C456 C455 1.524 . S
C456 C457 1.397 . S
C456 C461 1.363 . S
C457 H428 0.950 . S
C457 C456 1.397 . S
C457 C458 1.334 . S
C458 H429 0.950 . S
C458 C457 1.334 . S
C458 C459 1.287 . S
C459 C458 1.287 . S
C459 C460 1.524 . S
C459 H462 0.999 . S
C460 H430 0.950 . S
C460 C459 1.524 . S
C460 C461 1.415 . S
C461 H431 0.950 . S
C461 C456 1.363 . S
C461 C460 1.415 . S
H462 C459 0.999 . S
H463 C444 0.913 . S
H464 C482 0.951 . S
H465 C484 0.951 . S
H466 C486 0.950 . S
H467 C487 0.950 . S
H468 C489 0.950 . S
H469 C492 0.950 . S
H470 C493 0.950 . S
H471 C495 0.950 . S
H472 C496 0.950 . S
H473 C497 0.951 . S
H474 C499 0.951 . S
H475 C501 0.950 . S
H476 C502 0.950 . S
H477 C504 0.950 . S
H478 C507 0.950 . S
H479 C508 0.950 . S
H480 C510 0.950 . S
H481 C511 0.950 . S
C482 H464 0.951 . S
C482 C483 1.366 . S
C482 C484 1.388 . S
C483 C482 1.366 . S
C483 C487 1.385 . S
C484 H465 0.951 . S
C484 C482 1.388 . S
C484 C485 1.366 . S
C485 C484 1.366 . S
C485 C486 1.414 . S
C485 C488 1.499 . S
C486 H466 0.950 . S
C486 C485 1.414 . S
C486 C487 1.374 . S
C487 H467 0.950 . S
C487 C483 1.385 . S
C487 C486 1.374 . S
C488 C485 1.499 . S
C488 C489 1.373 1_556 S
C488 C490 1.389 . S
C489 H468 0.950 . S
C489 C488 1.373 1_554 S
C489 C505 1.377 . S
C490 C488 1.389 . S
C490 C491 1.524 . S
C490 C504 1.377 . S
C491 C490 1.524 . S
C491 C492 1.397 . S
C491 C496 1.363 . S
C492 H469 0.950 . S
C492 C491 1.397 . S
C492 C493 1.334 . S
C493 H470 0.950 . S
C493 C492 1.334 . S
C493 C494 1.287 . S
C494 C493 1.287 . S
C494 C495 1.524 . S
C494 H513 0.913 . S
C495 H471 0.950 . S
C495 C494 1.524 . S
C495 C496 1.415 . S
C496 H472 0.950 . S
C496 C491 1.363 . S
C496 C495 1.415 . S
C497 H473 0.951 . S
C497 C498 1.366 . S
C497 C499 1.388 . S
C498 C497 1.366 . S
C498 C502 1.385 . S
C499 H474 0.951 . S
C499 C497 1.388 . S
C499 C500 1.366 . S
C500 C499 1.366 . S
C500 C501 1.414 . S
C500 C503 1.499 . S
C501 H475 0.950 . S
C501 C500 1.414 . S
C501 C502 1.374 . S
C502 H476 0.950 . S
C502 C498 1.385 . S
C502 C501 1.374 . S
C503 C500 1.499 . S
C503 C504 1.373 1_554 S
C503 C505 1.389 . S
C504 H477 0.950 . S
C504 C490 1.377 . S
C504 C503 1.373 1_556 S
C505 C489 1.377 . S
C505 C503 1.389 . S
C505 C506 1.524 . S
C506 C505 1.524 . S
C506 C507 1.397 . S
C506 C511 1.363 . S
C507 H478 0.950 . S
C507 C506 1.397 . S
C507 C508 1.334 . S
C508 H479 0.950 . S
C508 C507 1.334 . S
C508 C509 1.287 . S
C509 C508 1.287 . S
C509 C510 1.524 . S
C509 H512 0.999 . S
C510 H480 0.950 . S
C510 C509 1.524 . S
C510 C511 1.415 . S
C511 H481 0.950 . S
C511 C506 1.363 . S
C511 C510 1.415 . S
H512 C509 0.999 . S
H513 C494 0.913 . S
H514 C532 0.951 . S
H515 C534 0.951 . S
H516 C536 0.950 . S
H517 C537 0.950 . S
H518 C539 0.950 . S
H519 C542 0.950 . S
H520 C543 0.950 . S
H521 C545 0.950 . S
H522 C546 0.950 . S
H523 C547 0.951 . S
H524 C549 0.951 . S
H525 C551 0.950 . S
H526 C552 0.950 . S
H527 C554 0.950 . S
H528 C557 0.950 . S
H529 C558 0.950 . S
H530 C560 0.950 . S
H531 C561 0.950 . S
C532 H514 0.951 . S
C532 C533 1.366 . S
C532 C534 1.388 . S
C533 C532 1.366 . S
C533 C537 1.385 . S
C534 H515 0.951 . S
C534 C532 1.388 . S
C534 C535 1.366 . S
C535 C534 1.366 . S
C535 C536 1.414 . S
C535 C538 1.499 . S
C536 H516 0.950 . S
C536 C535 1.414 . S
C536 C537 1.374 . S
C537 H517 0.950 . S
C537 C533 1.385 . S
C537 C536 1.374 . S
C538 C535 1.499 . S
C538 C539 1.373 . S
C538 C540 1.389 . S
C539 H518 0.950 . S
C539 C538 1.373 . S
C539 C555 1.377 . S
C540 C538 1.389 . S
C540 C541 1.524 . S
C540 C554 1.377 . S
C541 C540 1.524 . S
C541 C542 1.397 . S
C541 C546 1.363 . S
C542 H519 0.950 . S
C542 C541 1.397 . S
C542 C543 1.334 . S
C543 H520 0.950 . S
C543 C542 1.334 . S
C543 C544 1.287 . S
C544 C543 1.287 . S
C544 C545 1.524 . S
C544 H563 0.913 . S
C545 H521 0.950 . S
C545 C544 1.524 . S
C545 C546 1.415 . S
C546 H522 0.950 . S
C546 C541 1.363 . S
C546 C545 1.415 . S
C547 H523 0.951 . S
C547 C548 1.366 . S
C547 C549 1.388 . S
C548 C547 1.366 . S
C548 C552 1.385 . S
C549 H524 0.951 . S
C549 C547 1.388 . S
C549 C550 1.366 . S
C550 C549 1.366 . S
C550 C551 1.414 . S
C550 C553 1.499 . S
C551 H525 0.950 . S
C551 C550 1.414 . S
C551 C552 1.374 . S
C552 H526 0.950 . S
C552 C548 1.385 . S
C552 C551 1.374 . S
C553 C550 1.499 . S
C553 C554 1.373 . S
C553 C555 1.389 . S
C554 H527 0.950 . S
C554 C540 1.377 . S
C554 C553 1.373 . S
C555 C539 1.377 . S
C555 C553 1.389 . S
C555 C556 1.524 . S
C556 C555 1.524 . S
C556 C557 1.397 . S
C556 C561 1.363 . S
C557 H528 0.950 . S
C557 C556 1.397 . S
C557 C558 1.334 . S
C558 H529 0.950 . S
C558 C557 1.334 . S
C558 C559 1.287 . S
C559 C558 1.287 . S
C559 C560 1.524 . S
C559 H562 0.999 . S
C560 H530 0.950 . S
C560 C559 1.524 . S
C560 C561 1.415 . S
C561 H531 0.950 . S
C561 C556 1.363 . S
C561 C560 1.415 . S
H562 C559 0.999 . S
H563 C544 0.913 . S
H564 C582 0.951 . S
H565 C584 0.951 . S
H566 C586 0.950 . S
H567 C587 0.950 . S
H568 C589 0.950 . S
H569 C592 0.950 . S
H570 C593 0.950 . S
H571 C595 0.950 . S
H572 C596 0.950 . S
H573 C597 0.951 . S
H574 C599 0.951 . S
H575 C601 0.950 . S
H576 C602 0.950 . S
H577 C604 0.950 . S
H578 C607 0.950 . S
H579 C608 0.950 . S
H580 C610 0.950 . S
H581 C611 0.950 . S
C582 H564 0.951 . S
C582 C583 1.366 . S
C582 C584 1.388 . S
C583 C582 1.366 . S
C583 C587 1.385 . S
C584 H565 0.951 . S
C584 C582 1.388 . S
C584 C585 1.366 . S
C585 C584 1.366 . S
C585 C586 1.414 . S
C585 C588 1.499 . S
C586 H566 0.950 . S
C586 C585 1.414 . S
C586 C587 1.374 . S
C587 H567 0.950 . S
C587 C583 1.385 . S
C587 C586 1.374 . S
C588 C585 1.499 . S
C588 C589 1.373 1_556 S
C588 C590 1.389 . S
C589 H568 0.950 . S
C589 C588 1.373 1_554 S
C589 C605 1.377 . S
C590 C588 1.389 . S
C590 C591 1.524 . S
C590 C604 1.377 . S
C591 C590 1.524 . S
C591 C592 1.397 . S
C591 C596 1.363 . S
C592 H569 0.950 . S
C592 C591 1.397 . S
C592 C593 1.334 . S
C593 H570 0.950 . S
C593 C592 1.334 . S
C593 C594 1.287 . S
C594 C593 1.287 . S
C594 C595 1.524 . S
C594 H613 0.913 . S
C595 H571 0.950 . S
C595 C594 1.524 . S
C595 C596 1.415 . S
C596 H572 0.950 . S
C596 C591 1.363 . S
C596 C595 1.415 . S
C597 H573 0.951 . S
C597 C598 1.366 . S
C597 C599 1.388 . S
C598 C597 1.366 . S
C598 C602 1.385 . S
C599 H574 0.951 . S
C599 C597 1.388 . S
C599 C600 1.366 . S
C600 C599 1.366 . S
C600 C601 1.414 . S
C600 C603 1.499 . S
C601 H575 0.950 . S
C601 C600 1.414 . S
C601 C602 1.374 . S
C602 H576 0.950 . S
C602 C598 1.385 . S
C602 C601 1.374 . S
C603 C600 1.499 . S
C603 C604 1.373 1_554 S
C603 C605 1.389 . S
C604 H577 0.950 . S
C604 C590 1.377 . S
C604 C603 1.373 1_556 S
C605 C589 1.377 . S
C605 C603 1.389 . S
C605 C606 1.524 . S
C606 C605 1.524 . S
C606 C607 1.397 . S
C606 C611 1.363 . S
C607 H578 0.950 . S
C607 C606 1.397 . S
C607 C608 1.334 . S
C608 H579 0.950 . S
C608 C607 1.334 . S
C608 C609 1.287 . S
C609 C608 1.287 . S
C609 C610 1.524 . S
C609 H612 0.999 . S
C610 H580 0.950 . S
C610 C609 1.524 . S
C610 C611 1.415 . S
C611 H581 0.950 . S
C611 C606 1.363 . S
C611 C610 1.415 . S
H612 C609 0.999 . S
H613 C594 0.913 . S
H614 C632 0.951 . S
H615 C634 0.951 . S
H616 C636 0.950 . S
H617 C637 0.950 . S
H618 C639 0.950 . S
H619 C642 0.950 . S
H620 C643 0.950 . S
H621 C645 0.950 . S
H622 C646 0.950 . S
H623 C647 0.951 . S
H624 C649 0.951 . S
H625 C651 0.950 . S
H626 C652 0.950 . S
H627 C654 0.950 . S
H628 C657 0.950 . S
H629 C658 0.950 . S
H630 C660 0.950 . S
H631 C661 0.950 . S
C632 H614 0.951 . S
C632 C633 1.366 . S
C632 C634 1.388 . S
C633 C632 1.366 . S
C633 C637 1.385 . S
C634 H615 0.951 . S
C634 C632 1.388 . S
C634 C635 1.366 . S
C635 C634 1.366 . S
C635 C636 1.414 . S
C635 C638 1.499 . S
C636 H616 0.950 . S
C636 C635 1.414 . S
C636 C637 1.374 . S
C637 H617 0.950 . S
C637 C633 1.385 . S
C637 C636 1.374 . S
C638 C635 1.499 . S
C638 C639 1.373 . S
C638 C640 1.389 . S
C639 H618 0.950 . S
C639 C638 1.373 . S
C639 C655 1.377 . S
C640 C638 1.389 . S
C640 C641 1.524 . S
C640 C654 1.377 . S
C641 C640 1.524 . S
C641 C642 1.397 . S
C641 C646 1.363 . S
C642 H619 0.950 . S
C642 C641 1.397 . S
C642 C643 1.334 . S
C643 H620 0.950 . S
C643 C642 1.334 . S
C643 C644 1.287 . S
C644 C643 1.287 . S
C644 C645 1.524 . S
C644 H663 0.913 . S
C645 H621 0.950 . S
C645 C644 1.524 . S
C645 C646 1.415 . S
C646 H622 0.950 . S
C646 C641 1.363 . S
C646 C645 1.415 . S
C647 H623 0.951 . S
C647 C648 1.366 . S
C647 C649 1.388 . S
C648 C647 1.366 . S
C648 C652 1.385 . S
C649 H624 0.951 . S
C649 C647 1.388 . S
C649 C650 1.366 . S
C650 C649 1.366 . S
C650 C651 1.414 . S
C650 C653 1.499 . S
C651 H625 0.950 . S
C651 C650 1.414 . S
C651 C652 1.374 . S
C652 H626 0.950 . S
C652 C648 1.385 . S
C652 C651 1.374 . S
C653 C650 1.499 . S
C653 C654 1.373 . S
C653 C655 1.389 . S
C654 H627 0.950 . S
C654 C640 1.377 . S
C654 C653 1.373 . S
C655 C639 1.377 . S
C655 C653 1.389 . S
C655 C656 1.524 . S
C656 C655 1.524 . S
C656 C657 1.397 . S
C656 C661 1.363 . S
C657 H628 0.950 . S
C657 C656 1.397 . S
C657 C658 1.334 . S
C658 H629 0.950 . S
C658 C657 1.334 . S
C658 C659 1.287 . S
C659 C658 1.287 . S
C659 C660 1.524 . S
C659 H662 0.999 . S
C660 H630 0.950 . S
C660 C659 1.524 . S
C660 C661 1.415 . S
C661 H631 0.950 . S
C661 C656 1.363 . S
C661 C660 1.415 . S
H662 C659 0.999 . S
H663 C644 0.913 . S
H664 C682 0.951 . S
H665 C684 0.951 . S
H666 C686 0.950 . S
H667 C687 0.950 . S
H668 C689 0.950 . S
H669 C692 0.950 . S
H670 C693 0.950 . S
H671 C695 0.950 . S
H672 C696 0.950 . S
H673 C697 0.951 . S
H674 C699 0.951 . S
H675 C701 0.950 . S
H676 C702 0.950 . S
H677 C704 0.950 . S
H678 C707 0.950 . S
H679 C708 0.950 . S
H680 C710 0.950 . S
H681 C711 0.950 . S
C682 H664 0.951 . S
C682 C683 1.366 . S
C682 C684 1.388 . S
C683 C682 1.366 . S
C683 C687 1.385 . S
C684 H665 0.951 . S
C684 C682 1.388 . S
C684 C685 1.366 . S
C685 C684 1.366 . S
C685 C686 1.414 . S
C685 C688 1.499 . S
C686 H666 0.950 . S
C686 C685 1.414 . S
C686 C687 1.374 . S
C687 H667 0.950 . S
C687 C683 1.385 . S
C687 C686 1.374 . S
C688 C685 1.499 . S
C688 C689 1.373 1_556 S
C688 C690 1.389 1_545 S
C689 H668 0.950 . S
C689 C688 1.373 1_554 S
C689 C705 1.377 . S
C690 C688 1.389 1_565 S
C690 C691 1.524 . S
C690 C704 1.377 . S
C691 C690 1.524 . S
C691 C692 1.397 . S
C691 C696 1.363 . S
C692 H669 0.950 . S
C692 C691 1.397 . S
C692 C693 1.334 . S
C693 H670 0.950 . S
C693 C692 1.334 . S
C693 C694 1.287 . S
C694 C693 1.287 . S
C694 C695 1.524 . S
C694 H713 0.913 . S
C695 H671 0.950 . S
C695 C694 1.524 . S
C695 C696 1.415 . S
C696 H672 0.950 . S
C696 C691 1.363 . S
C696 C695 1.415 . S
C697 H673 0.951 . S
C697 C698 1.366 . S
C697 C699 1.388 . S
C698 C697 1.366 . S
C698 C702 1.385 . S
C699 H674 0.951 . S
C699 C697 1.388 . S
C699 C700 1.366 . S
C700 C699 1.366 . S
C700 C701 1.414 . S
C700 C703 1.499 . S
C701 H675 0.950 . S
C701 C700 1.414 . S
C701 C702 1.374 . S
C702 H676 0.950 . S
C702 C698 1.385 . S
C702 C701 1.374 . S
C703 C700 1.499 . S
C703 C704 1.373 1_554 S
C703 C705 1.389 1_565 S
C704 H677 0.950 . S
C704 C690 1.377 . S
C704 C703 1.373 1_556 S
C705 C689 1.377 . S
C705 C703 1.389 1_545 S
C705 C706 1.524 . S
C706 C705 1.524 . S
C706 C707 1.397 . S
C706 C711 1.363 . S
C707 H678 0.950 . S
C707 C706 1.397 . S
C707 C708 1.334 . S
C708 H679 0.950 . S
C708 C707 1.334 . S
C708 C709 1.287 . S
C709 C708 1.287 . S
C709 C710 1.524 . S
C709 H712 0.999 . S
C710 H680 0.950 . S
C710 C709 1.524 . S
C710 C711 1.415 . S
C711 H681 0.950 . S
C711 C706 1.363 . S
C711 C710 1.415 . S
H712 C709 0.999 . S
H713 C694 0.913 . S
H714 C732 0.951 . S
H715 C734 0.951 . S
H716 C736 0.950 . S
H717 C737 0.950 . S
H718 C739 0.950 . S
H719 C742 0.950 . S
H720 C743 0.950 . S
H721 C745 0.950 . S
H722 C746 0.950 1_565 S
H723 C747 0.951 . S
H724 C749 0.951 . S
H725 C751 0.950 . S
H726 C752 0.950 . S
H727 C754 0.950 . S
H728 C757 0.950 . S
H729 C758 0.950 . S
H730 C760 0.950 . S
H731 C761 0.950 1_545 S
C732 H714 0.951 . S
C732 C733 1.366 . S
C732 C734 1.388 . S
C733 C732 1.366 . S
C733 C737 1.385 . S
C734 H715 0.951 . S
C734 C732 1.388 . S
C734 C735 1.366 . S
C735 C734 1.366 . S
C735 C736 1.414 . S
C735 C738 1.499 . S
C736 H716 0.950 . S
C736 C735 1.414 . S
C736 C737 1.374 . S
C737 H717 0.950 . S
C737 C733 1.385 . S
C737 C736 1.374 . S
C738 C735 1.499 . S
C738 C739 1.373 . S
C738 C740 1.389 . S
C739 H718 0.950 . S
C739 C738 1.373 . S
C739 C755 1.377 1_545 S
C740 C738 1.389 . S
C740 C741 1.524 . S
C740 C754 1.377 1_545 S
C741 C740 1.524 . S
C741 C742 1.397 . S
C741 C746 1.363 . S
C742 H719 0.950 . S
C742 C741 1.397 . S
C742 C743 1.334 . S
C743 H720 0.950 . S
C743 C742 1.334 . S
C743 C744 1.287 . S
C744 C743 1.287 . S
C744 C745 1.524 . S
C744 H763 0.913 . S
C745 H721 0.950 . S
C745 C744 1.524 . S
C745 C746 1.415 . S
C746 H722 0.950 1_545 S
C746 C741 1.363 . S
C746 C745 1.415 . S
C747 H723 0.951 . S
C747 C748 1.366 . S
C747 C749 1.388 . S
C748 C747 1.366 . S
C748 C752 1.385 . S
C749 H724 0.951 . S
C749 C747 1.388 . S
C749 C750 1.366 . S
C750 C749 1.366 . S
C750 C751 1.414 . S
C750 C753 1.499 . S
C751 H725 0.950 . S
C751 C750 1.414 . S
C751 C752 1.374 . S
C752 H726 0.950 . S
C752 C748 1.385 . S
C752 C751 1.374 . S
C753 C750 1.499 . S
C753 C754 1.373 . S
C753 C755 1.389 . S
C754 H727 0.950 . S
C754 C740 1.377 1_565 S
C754 C753 1.373 . S
C755 C739 1.377 1_565 S
C755 C753 1.389 . S
C755 C756 1.524 . S
C756 C755 1.524 . S
C756 C757 1.397 . S
C756 C761 1.363 . S
C757 H728 0.950 . S
C757 C756 1.397 . S
C757 C758 1.334 . S
C758 H729 0.950 . S
C758 C757 1.334 . S
C758 C759 1.287 . S
C759 C758 1.287 . S
C759 C760 1.524 . S
C759 H762 0.999 . S
C760 H730 0.950 . S
C760 C759 1.524 . S
C760 C761 1.415 . S
C761 H731 0.950 1_565 S
C761 C756 1.363 . S
C761 C760 1.415 . S
H762 C759 0.999 . S
H763 C744 0.913 . S
H764 C782 0.951 . S
H765 C784 0.951 . S
H766 C786 0.950 . S
H767 C787 0.950 . S
H768 C789 0.950 . S
H769 C792 0.950 . S
H770 C793 0.950 . S
H771 C795 0.950 . S
H772 C796 0.950 . S
H773 C797 0.951 . S
H774 C799 0.951 . S
H775 C801 0.950 . S
H776 C802 0.950 . S
H777 C804 0.950 . S
H778 C807 0.950 . S
H779 C808 0.950 . S
H780 C810 0.950 . S
H781 C811 0.950 . S
C782 H764 0.951 . S
C782 C783 1.366 . S
C782 C784 1.388 . S
C783 C782 1.366 . S
C783 C787 1.385 . S
C784 H765 0.951 . S
C784 C782 1.388 . S
C784 C785 1.366 . S
C785 C784 1.366 . S
C785 C786 1.414 . S
C785 C788 1.499 . S
C786 H766 0.950 . S
C786 C785 1.414 . S
C786 C787 1.374 . S
C787 H767 0.950 . S
C787 C783 1.385 . S
C787 C786 1.374 . S
C788 C785 1.499 . S
C788 C789 1.373 . S
C788 C790 1.389 1_556 S
C789 H768 0.950 . S
C789 C788 1.373 . S
C789 C805 1.377 1_545 S
C790 C788 1.389 1_554 S
C790 C791 1.524 . S
C790 C804 1.377 1_545 S
C791 C790 1.524 . S
C791 C792 1.397 . S
C791 C796 1.363 . S
C792 H769 0.950 . S
C792 C791 1.397 . S
C792 C793 1.334 . S
C793 H770 0.950 . S
C793 C792 1.334 . S
C793 C794 1.287 . S
C794 C793 1.287 . S
C794 C795 1.524 . S
C794 H813 0.913 . S
C795 H771 0.950 . S
C795 C794 1.524 . S
C795 C796 1.415 . S
C796 H772 0.950 . S
C796 C791 1.363 . S
C796 C795 1.415 . S
C797 H773 0.951 . S
C797 C798 1.366 . S
C797 C799 1.388 . S
C798 C797 1.366 . S
C798 C802 1.385 . S
C799 H774 0.951 . S
C799 C797 1.388 . S
C799 C800 1.366 . S
C800 C799 1.366 . S
C800 C801 1.414 . S
C800 C803 1.499 . S
C801 H775 0.950 . S
C801 C800 1.414 . S
C801 C802 1.374 . S
C802 H776 0.950 . S
C802 C798 1.385 . S
C802 C801 1.374 . S
C803 C800 1.499 . S
C803 C804 1.373 . S
C803 C805 1.389 1_554 S
C804 H777 0.950 . S
C804 C790 1.377 1_565 S
C804 C803 1.373 . S
C805 C789 1.377 1_565 S
C805 C803 1.389 1_556 S
C805 C806 1.524 . S
C806 C805 1.524 . S
C806 C807 1.397 . S
C806 C811 1.363 . S
C807 H778 0.950 . S
C807 C806 1.397 . S
C807 C808 1.334 . S
C808 H779 0.950 . S
C808 C807 1.334 . S
C808 C809 1.287 . S
C809 C808 1.287 . S
C809 C810 1.524 . S
C809 H812 0.999 . S
C810 H780 0.950 . S
C810 C809 1.524 . S
C810 C811 1.415 . S
C811 H781 0.950 . S
C811 C806 1.363 . S
C811 C810 1.415 . S
H812 C809 0.999 . S
H813 C794 0.913 . S
H814 C832 0.951 . S
H815 C834 0.951 . S
H816 C836 0.950 . S
H817 C837 0.950 . S
H818 C839 0.954 . S
H819 C842 0.950 . S
H820 C843 0.950 . S
H821 C845 0.950 . S
H822 C846 0.950 . S
H823 C847 0.951 . S
H824 C849 0.951 . S
H825 C851 0.950 . S
H826 C852 0.950 . S
H827 C854 0.954 . S
H828 C857 0.950 . S
H829 C858 0.950 . S
H830 C860 0.950 . S
H831 C861 0.950 . S
C832 H814 0.951 . S
C832 C833 1.366 . S
C832 C834 1.388 . S
C833 C832 1.366 . S
C833 C837 1.385 . S
C834 H815 0.951 . S
C834 C832 1.388 . S
C834 C835 1.366 . S
C835 C834 1.366 . S
C835 C836 1.414 . S
C835 C838 1.499 . S
C836 H816 0.950 . S
C836 C835 1.414 . S
C836 C837 1.374 . S
C837 H817 0.950 . S
C837 C833 1.385 . S
C837 C836 1.374 . S
C838 C835 1.499 . S
C838 C839 1.331 1_545 S
C838 C840 1.389 . S
C839 H818 0.954 . S
C839 C838 1.331 1_565 S
C839 C855 1.417 . S
C840 C838 1.389 . S
C840 C841 1.524 . S
C840 C854 1.417 . S
C841 C840 1.524 . S
C841 C842 1.397 . S
C841 C846 1.363 . S
C842 H819 0.950 . S
C842 C841 1.397 . S
C842 C843 1.334 . S
C843 H820 0.950 . S
C843 C842 1.334 . S
C843 C844 1.287 . S
C844 C843 1.287 . S
C844 C845 1.524 . S
C844 H863 0.913 . S
C845 H821 0.950 . S
C845 C844 1.524 . S
C845 C846 1.415 . S
C846 H822 0.950 . S
C846 C841 1.363 . S
C846 C845 1.415 . S
C847 H823 0.951 . S
C847 C848 1.366 . S
C847 C849 1.388 . S
C848 C847 1.366 . S
C848 C852 1.385 . S
C849 H824 0.951 . S
C849 C847 1.388 . S
C849 C850 1.366 . S
C850 C849 1.366 . S
C850 C851 1.414 . S
C850 C853 1.499 . S
C851 H825 0.950 . S
C851 C850 1.414 . S
C851 C852 1.374 . S
C852 H826 0.950 . S
C852 C848 1.385 . S
C852 C851 1.374 . S
C853 C850 1.499 . S
C853 C854 1.331 1_565 S
C853 C855 1.389 . S
C854 H827 0.954 . S
C854 C840 1.417 . S
C854 C853 1.331 1_545 S
C855 C839 1.417 . S
C855 C853 1.389 . S
C855 C856 1.524 . S
C856 C855 1.524 . S
C856 C857 1.397 . S
C856 C861 1.363 . S
C857 H828 0.950 . S
C857 C856 1.397 . S
C857 C858 1.334 . S
C858 H829 0.950 . S
C858 C857 1.334 . S
C858 C859 1.287 . S
C859 C858 1.287 . S
C859 C860 1.524 . S
C859 H862 0.999 . S
C860 H830 0.950 . S
C860 C859 1.524 . S
C860 C861 1.415 . S
C861 H831 0.950 . S
C861 C856 1.363 . S
C861 C860 1.415 . S
H862 C859 0.999 . S
H863 C844 0.913 . S
H864 C882 0.951 . S
H865 C884 0.951 . S
H866 C886 0.950 . S
H867 C887 0.950 . S
H868 C889 0.950 . S
H869 C892 0.950 . S
H870 C893 0.950 . S
H871 C895 0.950 . S
H872 C896 0.950 . S
H873 C897 0.951 . S
H874 C899 0.951 . S
H875 C901 0.950 . S
H876 C902 0.950 . S
H877 C904 0.950 . S
H878 C907 0.950 . S
H879 C908 0.950 . S
H880 C910 0.950 . S
H881 C911 0.950 1_554 S
C882 H864 0.951 . S
C882 C883 1.366 . S
C882 C884 1.388 . S
C883 C882 1.366 . S
C883 C887 1.385 . S
C884 H865 0.951 . S
C884 C882 1.388 . S
C884 C885 1.366 . S
C885 C884 1.366 . S
C885 C886 1.414 . S
C885 C888 1.499 . S
C886 H866 0.950 . S
C886 C885 1.414 . S
C886 C887 1.374 . S
C887 H867 0.950 . S
C887 C883 1.385 . S
C887 C886 1.374 . S
C888 C885 1.499 . S
C888 C889 1.373 . S
C888 C890 1.389 . S
C889 H868 0.950 . S
C889 C888 1.373 . S
C889 C905 1.377 . S
C890 C888 1.389 . S
C890 C891 1.524 . S
C890 C904 1.377 . S
C891 C890 1.524 . S
C891 C892 1.397 . S
C891 C896 1.363 . S
C892 H869 0.950 . S
C892 C891 1.397 . S
C892 C893 1.334 . S
C893 H870 0.950 . S
C893 C892 1.334 . S
C893 C894 1.287 . S
C894 C893 1.287 . S
C894 C895 1.524 . S
C894 H913 0.913 . S
C895 H871 0.950 . S
C895 C894 1.524 . S
C895 C896 1.415 . S
C896 H872 0.950 . S
C896 C891 1.363 . S
C896 C895 1.415 . S
C897 H873 0.951 . S
C897 C898 1.366 . S
C897 C899 1.388 . S
C898 C897 1.366 . S
C898 C902 1.385 . S
C899 H874 0.951 . S
C899 C897 1.388 . S
C899 C900 1.366 . S
C900 C899 1.366 . S
C900 C901 1.414 . S
C900 C903 1.499 1_556 S
C901 H875 0.950 . S
C901 C900 1.414 . S
C901 C902 1.374 . S
C902 H876 0.950 . S
C902 C898 1.385 . S
C902 C901 1.374 . S
C903 C900 1.499 1_554 S
C903 C904 1.373 . S
C903 C905 1.389 . S
C904 H877 0.950 . S
C904 C890 1.377 . S
C904 C903 1.373 . S
C905 C889 1.377 . S
C905 C903 1.389 . S
C905 C906 1.524 1_554 S
C906 C905 1.524 1_556 S
C906 C907 1.397 . S
C906 C911 1.363 . S
C907 H878 0.950 . S
C907 C906 1.397 . S
C907 C908 1.334 . S
C908 H879 0.950 . S
C908 C907 1.334 . S
C908 C909 1.287 . S
C909 C908 1.287 . S
C909 C910 1.524 . S
C909 H912 0.999 . S
C910 H880 0.950 . S
C910 C909 1.524 . S
C910 C911 1.415 . S
C911 H881 0.950 1_556 S
C911 C906 1.363 . S
C911 C910 1.415 . S
H912 C909 0.999 . S
H913 C894 0.913 . S
H914 C932 0.951 . S
H915 C934 0.951 . S
H916 C936 0.950 . S
H917 C937 0.950 . S
H918 C939 0.950 . S
H919 C942 0.950 . S
H920 C943 0.950 . S
H921 C945 0.950 . S
H922 C946 0.950 . S
H923 C947 0.951 . S
H924 C949 0.951 . S
H925 C951 0.950 . S
H926 C952 0.950 . S
H927 C954 0.950 . S
H928 C957 0.950 . S
H929 C958 0.950 . S
H930 C960 0.950 . S
H931 C961 0.950 . S
C932 H914 0.951 . S
C932 C933 1.366 . S
C932 C934 1.388 . S
C933 C932 1.366 . S
C933 C937 1.385 . S
C934 H915 0.951 . S
C934 C932 1.388 . S
C934 C935 1.366 . S
C935 C934 1.366 . S
C935 C936 1.414 . S
C935 C938 1.499 . S
C936 H916 0.950 . S
C936 C935 1.414 . S
C936 C937 1.374 . S
C937 H917 0.950 . S
C937 C933 1.385 . S
C937 C936 1.374 . S
C938 C935 1.499 . S
C938 C939 1.373 . S
C938 C940 1.389 . S
C939 H918 0.950 . S
C939 C938 1.373 . S
C939 C955 1.377 . S
C940 C938 1.389 . S
C940 C941 1.524 . S
C940 C954 1.377 . S
C941 C940 1.524 . S
C941 C942 1.397 . S
C941 C946 1.363 . S
C942 H919 0.950 . S
C942 C941 1.397 . S
C942 C943 1.334 . S
C943 H920 0.950 . S
C943 C942 1.334 . S
C943 C944 1.287 . S
C944 C943 1.287 . S
C944 C945 1.524 . S
C944 H963 0.913 . S
C945 H921 0.950 . S
C945 C944 1.524 . S
C945 C946 1.415 . S
C946 H922 0.950 . S
C946 C941 1.363 . S
C946 C945 1.415 . S
C947 H923 0.951 . S
C947 C948 1.366 . S
C947 C949 1.388 . S
C948 C947 1.366 . S
C948 C952 1.385 . S
C949 H924 0.951 . S
C949 C947 1.388 . S
C949 C950 1.366 . S
C950 C949 1.366 . S
C950 C951 1.414 . S
C950 C953 1.499 . S
C951 H925 0.950 . S
C951 C950 1.414 . S
C951 C952 1.374 . S
C952 H926 0.950 . S
C952 C948 1.385 . S
C952 C951 1.374 . S
C953 C950 1.499 . S
C953 C954 1.373 . S
C953 C955 1.389 . S
C954 H927 0.950 . S
C954 C940 1.377 . S
C954 C953 1.373 . S
C955 C939 1.377 . S
C955 C953 1.389 . S
C955 C956 1.524 . S
C956 C955 1.524 . S
C956 C957 1.397 . S
C956 C961 1.363 . S
C957 H928 0.950 . S
C957 C956 1.397 . S
C957 C958 1.334 . S
C958 H929 0.950 . S
C958 C957 1.334 . S
C958 C959 1.287 . S
C959 C958 1.287 . S
C959 C960 1.524 . S
C959 H962 0.999 . S
C960 H930 0.950 . S
C960 C959 1.524 . S
C960 C961 1.415 . S
C961 H931 0.950 . S
C961 C956 1.363 . S
C961 C960 1.415 . S
H962 C959 0.999 . S
H963 C944 0.913 . S
H964 C982 0.951 . S
H965 C984 0.951 . S
H966 C986 0.950 . S
H967 C987 0.950 . S
H968 C989 0.950 . S
H969 C992 0.950 1_556 S
H970 C993 0.950 . S
H971 C995 0.950 . S
H972 C996 0.950 . S
H973 C997 0.951 . S
H974 C999 0.951 . S
H975 C1001 0.950 . S
H976 C1002 0.950 . S
H977 C1004 0.950 . S
H978 C1007 0.950 . S
H979 C1008 0.950 . S
H980 C1010 0.950 . S
H981 C1011 0.950 . S
C982 H964 0.951 . S
C982 C983 1.366 . S
C982 C984 1.388 . S
C983 C982 1.366 . S
C983 C987 1.385 . S
C984 H965 0.951 . S
C984 C982 1.388 . S
C984 C985 1.366 . S
C985 C984 1.366 . S
C985 C986 1.414 1_554 S
C985 C988 1.499 1_554 S
C986 H966 0.950 . S
C986 C985 1.414 1_556 S
C986 C987 1.374 1_556 S
C987 H967 0.950 . S
C987 C983 1.385 . S
C987 C986 1.374 1_554 S
C988 C985 1.499 1_556 S
C988 C989 1.373 . S
C988 C990 1.389 . S
C989 H968 0.950 . S
C989 C988 1.373 . S
C989 C1005 1.377 . S
C990 C988 1.389 . S
C990 C991 1.524 1_556 S
C990 C1004 1.377 . S
C991 C990 1.524 1_554 S
C991 C992 1.397 . S
C991 C996 1.363 . S
C992 H969 0.950 1_554 S
C992 C991 1.397 . S
C992 C993 1.334 . S
C993 H970 0.950 . S
C993 C992 1.334 . S
C993 C994 1.287 . S
C994 C993 1.287 . S
C994 C995 1.524 . S
C994 H1013 0.913 . S
C995 H971 0.950 . S
C995 C994 1.524 . S
C995 C996 1.415 . S
C996 H972 0.950 . S
C996 C991 1.363 . S
C996 C995 1.415 . S
C997 H973 0.951 . S
C997 C998 1.366 . S
C997 C999 1.388 . S
C998 C997 1.366 . S
C998 C1002 1.385 . S
C999 H974 0.951 . S
C999 C997 1.388 . S
C999 C1000 1.366 . S
C1000 C999 1.366 . S
C1000 C1001 1.414 . S
C1000 C1003 1.499 . S
C1001 H975 0.950 . S
C1001 C1000 1.414 . S
C1001 C1002 1.374 . S
C1002 H976 0.950 . S
C1002 C998 1.385 . S
C1002 C1001 1.374 . S
C1003 C1000 1.499 . S
C1003 C1004 1.373 . S
C1003 C1005 1.389 . S
C1004 H977 0.950 . S
C1004 C990 1.377 . S
C1004 C1003 1.373 . S
C1005 C989 1.377 . S
C1005 C1003 1.389 . S
C1005 C1006 1.524 . S
C1006 C1005 1.524 . S
C1006 C1007 1.397 . S
C1006 C1011 1.363 . S
C1007 H978 0.950 . S
C1007 C1006 1.397 . S
C1007 C1008 1.334 . S
C1008 H979 0.950 . S
C1008 C1007 1.334 . S
C1008 C1009 1.287 . S
C1009 C1008 1.287 . S
C1009 C1010 1.524 . S
C1009 H1012 0.999 . S
C1010 H980 0.950 . S
C1010 C1009 1.524 . S
C1010 C1011 1.415 . S
C1011 H981 0.950 . S
C1011 C1006 1.363 . S
C1011 C1010 1.415 . S
H1012 C1009 0.999 . S
H1013 C994 0.913 . S
H1014 C1032 0.951 . S
H1015 C1034 0.951 . S
H1016 C1036 0.950 . S
H1017 C1037 0.950 . S
H1018 C1039 0.950 . S
H1019 C1042 0.950 . S
H1020 C1043 0.950 . S
H1021 C1045 0.950 . S
H1022 C1046 0.950 . S
H1023 C1047 0.951 . S
H1024 C1049 0.951 . S
H1025 C1051 0.950 . S
H1026 C1052 0.950 . S
H1027 C1054 0.950 . S
H1028 C1057 0.950 . S
H1029 C1058 0.950 . S
H1030 C1060 0.950 . S
H1031 C1061 0.950 . S
C1032 H1014 0.951 . S
C1032 C1033 1.366 . S
C1032 C1034 1.388 . S
C1033 C1032 1.366 . S
C1033 C1037 1.385 . S
C1034 H1015 0.951 . S
C1034 C1032 1.388 . S
C1034 C1035 1.366 . S
C1035 C1034 1.366 . S
C1035 C1036 1.414 . S
C1035 C1038 1.499 . S
C1036 H1016 0.950 . S
C1036 C1035 1.414 . S
C1036 C1037 1.374 . S
C1037 H1017 0.950 . S
C1037 C1033 1.385 . S
C1037 C1036 1.374 . S
C1038 C1035 1.499 . S
C1038 C1039 1.373 . S
C1038 C1040 1.389 . S
C1039 H1018 0.950 . S
C1039 C1038 1.373 . S
C1039 C1055 1.377 . S
C1040 C1038 1.389 . S
C1040 C1041 1.524 . S
C1040 C1054 1.377 . S
C1041 C1040 1.524 . S
C1041 C1042 1.397 . S
C1041 C1046 1.363 . S
C1042 H1019 0.950 . S
C1042 C1041 1.397 . S
C1042 C1043 1.334 . S
C1043 H1020 0.950 . S
C1043 C1042 1.334 . S
C1043 C1044 1.287 . S
C1044 C1043 1.287 . S
C1044 C1045 1.524 . S
C1044 H1063 0.913 . S
C1045 H1021 0.950 . S
C1045 C1044 1.524 . S
C1045 C1046 1.415 . S
C1046 H1022 0.950 . S
C1046 C1041 1.363 . S
C1046 C1045 1.415 . S
C1047 H1023 0.951 . S
C1047 C1048 1.366 . S
C1047 C1049 1.388 . S
C1048 C1047 1.366 . S
C1048 C1052 1.385 . S
C1049 H1024 0.951 . S
C1049 C1047 1.388 . S
C1049 C1050 1.366 . S
C1050 C1049 1.366 . S
C1050 C1051 1.414 . S
C1050 C1053 1.499 . S
C1051 H1025 0.950 . S
C1051 C1050 1.414 . S
C1051 C1052 1.374 . S
C1052 H1026 0.950 . S
C1052 C1048 1.385 . S
C1052 C1051 1.374 . S
C1053 C1050 1.499 . S
C1053 C1054 1.373 . S
C1053 C1055 1.389 . S
C1054 H1027 0.950 . S
C1054 C1040 1.377 . S
C1054 C1053 1.373 . S
C1055 C1039 1.377 . S
C1055 C1053 1.389 . S
C1055 C1056 1.524 . S
C1056 C1055 1.524 . S
C1056 C1057 1.397 . S
C1056 C1061 1.363 . S
C1057 H1028 0.950 . S
C1057 C1056 1.397 . S
C1057 C1058 1.334 . S
C1058 H1029 0.950 . S
C1058 C1057 1.334 . S
C1058 C1059 1.287 . S
C1059 C1058 1.287 . S
C1059 C1060 1.524 . S
C1059 H1062 0.999 . S
C1060 H1030 0.950 . S
C1060 C1059 1.524 . S
C1060 C1061 1.415 . S
C1061 H1031 0.950 . S
C1061 C1056 1.363 . S
C1061 C1060 1.415 . S
H1062 C1059 0.999 . S
H1063 C1044 0.913 . S
H1064 C1082 0.951 . S
H1065 C1084 0.951 . S
H1066 C1086 0.950 1_554 S
H1067 C1087 0.950 . S
H1068 C1089 0.950 . S
H1069 C1092 0.950 . S
H1070 C1093 0.950 . S
H1071 C1095 0.950 . S
H1072 C1096 0.950 . S
H1073 C1097 0.951 . S
H1074 C1099 0.951 . S
H1075 C1101 0.950 . S
H1076 C1102 0.950 . S
H1077 C1104 0.950 . S
H1078 C1107 0.950 . S
H1079 C1108 0.950 . S
H1080 C1110 0.950 . S
H1081 C1111 0.950 . S
C1082 H1064 0.951 . S
C1082 C1083 1.366 . S
C1082 C1084 1.388 . S
C1083 C1082 1.366 . S
C1083 C1087 1.385 . S
C1084 H1065 0.951 . S
C1084 C1082 1.388 . S
C1084 C1085 1.366 . S
C1085 C1084 1.366 . S
C1085 C1086 1.414 . S
C1085 C1088 1.499 1_556 S
C1086 H1066 0.950 1_556 S
C1086 C1085 1.414 . S
C1086 C1087 1.374 . S
C1087 H1067 0.950 . S
C1087 C1083 1.385 . S
C1087 C1086 1.374 . S
C1088 C1085 1.499 1_554 S
C1088 C1089 1.373 . S
C1088 C1090 1.389 . S
C1089 H1068 0.950 . S
C1089 C1088 1.373 . S
C1089 C1105 1.377 . S
C1090 C1088 1.389 . S
C1090 C1091 1.524 1_554 S
C1090 C1104 1.377 . S
C1091 C1090 1.524 1_556 S
C1091 C1092 1.397 . S
C1091 C1096 1.363 . S
C1092 H1069 0.950 . S
C1092 C1091 1.397 . S
C1092 C1093 1.334 . S
C1093 H1070 0.950 . S
C1093 C1092 1.334 . S
C1093 C1094 1.287 . S
C1094 C1093 1.287 . S
C1094 C1095 1.524 . S
C1094 H1113 0.913 . S
C1095 H1071 0.950 . S
C1095 C1094 1.524 . S
C1095 C1096 1.415 . S
C1096 H1072 0.950 . S
C1096 C1091 1.363 . S
C1096 C1095 1.415 . S
C1097 H1073 0.951 . S
C1097 C1098 1.366 . S
C1097 C1099 1.388 . S
C1098 C1097 1.366 . S
C1098 C1102 1.385 . S
C1099 H1074 0.951 . S
C1099 C1097 1.388 . S
C1099 C1100 1.366 . S
C1100 C1099 1.366 . S
C1100 C1101 1.414 . S
C1100 C1103 1.499 . S
C1101 H1075 0.950 . S
C1101 C1100 1.414 . S
C1101 C1102 1.374 . S
C1102 H1076 0.950 . S
C1102 C1098 1.385 . S
C1102 C1101 1.374 . S
C1103 C1100 1.499 . S
C1103 C1104 1.373 . S
C1103 C1105 1.389 . S
C1104 H1077 0.950 . S
C1104 C1090 1.377 . S
C1104 C1103 1.373 . S
C1105 C1089 1.377 . S
C1105 C1103 1.389 . S
C1105 C1106 1.524 . S
C1106 C1105 1.524 . S
C1106 C1107 1.397 . S
C1106 C1111 1.363 . S
C1107 H1078 0.950 . S
C1107 C1106 1.397 . S
C1107 C1108 1.334 . S
C1108 H1079 0.950 . S
C1108 C1107 1.334 . S
C1108 C1109 1.287 . S
C1109 C1108 1.287 . S
C1109 C1110 1.524 . S
C1109 H1112 0.999 . S
C1110 H1080 0.950 . S
C1110 C1109 1.524 . S
C1110 C1111 1.415 . S
C1111 H1081 0.950 . S
C1111 C1106 1.363 . S
C1111 C1110 1.415 . S
H1112 C1109 0.999 . S
H1113 C1094 0.913 . S
H1114 C1132 0.951 . S
H1115 C1134 0.951 . S
H1116 C1136 0.950 . S
H1117 C1137 0.950 . S
H1118 C1139 0.950 . S
H1119 C1142 0.950 . S
H1120 C1143 0.950 . S
H1121 C1145 0.950 . S
H1122 C1146 0.950 . S
H1123 C1147 0.951 . S
H1124 C1149 0.951 . S
H1125 C1151 0.950 . S
H1126 C1152 0.950 . S
H1127 C1154 0.950 . S
H1128 C1157 0.950 . S
H1129 C1158 0.950 . S
H1130 C1160 0.950 . S
H1131 C1161 0.950 . S
C1132 H1114 0.951 . S
C1132 C1133 1.366 . S
C1132 C1134 1.388 . S
C1133 C1132 1.366 . S
C1133 C1137 1.385 . S
C1134 H1115 0.951 . S
C1134 C1132 1.388 . S
C1134 C1135 1.366 . S
C1135 C1134 1.366 . S
C1135 C1136 1.414 . S
C1135 C1138 1.499 . S
C1136 H1116 0.950 . S
C1136 C1135 1.414 . S
C1136 C1137 1.374 . S
C1137 H1117 0.950 . S
C1137 C1133 1.385 . S
C1137 C1136 1.374 . S
C1138 C1135 1.499 . S
C1138 C1139 1.373 . S
C1138 C1140 1.389 . S
C1139 H1118 0.950 . S
C1139 C1138 1.373 . S
C1139 C1155 1.377 . S
C1140 C1138 1.389 . S
C1140 C1141 1.524 . S
C1140 C1154 1.377 . S
C1141 C1140 1.524 . S
C1141 C1142 1.397 . S
C1141 C1146 1.363 . S
C1142 H1119 0.950 . S
C1142 C1141 1.397 . S
C1142 C1143 1.334 . S
C1143 H1120 0.950 . S
C1143 C1142 1.334 . S
C1143 C1144 1.287 . S
C1144 C1143 1.287 . S
C1144 C1145 1.524 . S
C1144 H1163 0.913 . S
C1145 H1121 0.950 . S
C1145 C1144 1.524 . S
C1145 C1146 1.415 . S
C1146 H1122 0.950 . S
C1146 C1141 1.363 . S
C1146 C1145 1.415 . S
C1147 H1123 0.951 . S
C1147 C1148 1.366 . S
C1147 C1149 1.388 . S
C1148 C1147 1.366 . S
C1148 C1152 1.385 . S
C1149 H1124 0.951 . S
C1149 C1147 1.388 . S
C1149 C1150 1.366 . S
C1150 C1149 1.366 . S
C1150 C1151 1.414 . S
C1150 C1153 1.499 . S
C1151 H1125 0.950 . S
C1151 C1150 1.414 . S
C1151 C1152 1.374 . S
C1152 H1126 0.950 . S
C1152 C1148 1.385 . S
C1152 C1151 1.374 . S
C1153 C1150 1.499 . S
C1153 C1154 1.373 . S
C1153 C1155 1.389 . S
C1154 H1127 0.950 . S
C1154 C1140 1.377 . S
C1154 C1153 1.373 . S
C1155 C1139 1.377 . S
C1155 C1153 1.389 . S
C1155 C1156 1.524 . S
C1156 C1155 1.524 . S
C1156 C1157 1.397 . S
C1156 C1161 1.363 . S
C1157 H1128 0.950 . S
C1157 C1156 1.397 . S
C1157 C1158 1.334 . S
C1158 H1129 0.950 . S
C1158 C1157 1.334 . S
C1158 C1159 1.287 . S
C1159 C1158 1.287 . S
C1159 C1160 1.524 . S
C1159 H1162 0.999 . S
C1160 H1130 0.950 . S
C1160 C1159 1.524 . S
C1160 C1161 1.415 . S
C1161 H1131 0.950 . S
C1161 C1156 1.363 . S
C1161 C1160 1.415 . S
H1162 C1159 0.999 . S
H1163 C1144 0.913 . S
H1164 C1182 0.951 . S
H1165 C1184 0.951 . S
H1166 C1186 0.950 . S
H1167 C1187 0.950 . S
H1168 C1189 0.950 . S
H1169 C1192 0.950 . S
H1170 C1193 0.950 . S
H1171 C1195 0.950 . S
H1172 C1196 0.950 . S
H1173 C1197 0.951 . S
H1174 C1199 0.951 . S
H1175 C1201 0.950 . S
H1176 C1202 0.950 . S
H1177 C1204 0.950 . S
H1178 C1207 0.950 . S
H1179 C1208 0.950 . S
H1180 C1210 0.950 . S
H1181 C1211 0.950 1_556 S
C1182 H1164 0.951 . S
C1182 C1183 1.366 . S
C1182 C1184 1.388 . S
C1183 C1182 1.366 . S
C1183 C1187 1.385 . S
C1184 H1165 0.951 . S
C1184 C1182 1.388 . S
C1184 C1185 1.366 . S
C1185 C1184 1.366 . S
C1185 C1186 1.414 . S
C1185 C1188 1.499 . S
C1186 H1166 0.950 . S
C1186 C1185 1.414 . S
C1186 C1187 1.374 . S
C1187 H1167 0.950 . S
C1187 C1183 1.385 . S
C1187 C1186 1.374 . S
C1188 C1185 1.499 . S
C1188 C1189 1.373 . S
C1188 C1190 1.389 . S
C1189 H1168 0.950 . S
C1189 C1188 1.373 . S
C1189 C1205 1.377 . S
C1190 C1188 1.389 . S
C1190 C1191 1.524 . S
C1190 C1204 1.377 . S
C1191 C1190 1.524 . S
C1191 C1192 1.397 . S
C1191 C1196 1.363 . S
C1192 H1169 0.950 . S
C1192 C1191 1.397 . S
C1192 C1193 1.334 . S
C1193 H1170 0.950 . S
C1193 C1192 1.334 . S
C1193 C1194 1.287 . S
C1194 C1193 1.287 . S
C1194 C1195 1.524 . S
C1194 H1213 0.913 . S
C1195 H1171 0.950 . S
C1195 C1194 1.524 . S
C1195 C1196 1.415 . S
C1196 H1172 0.950 . S
C1196 C1191 1.363 . S
C1196 C1195 1.415 . S
C1197 H1173 0.951 . S
C1197 C1198 1.366 . S
C1197 C1199 1.388 . S
C1198 C1197 1.366 . S
C1198 C1202 1.385 . S
C1199 H1174 0.951 . S
C1199 C1197 1.388 . S
C1199 C1200 1.366 . S
C1200 C1199 1.366 . S
C1200 C1201 1.414 . S
C1200 C1203 1.499 1_554 S
C1201 H1175 0.950 . S
C1201 C1200 1.414 . S
C1201 C1202 1.374 . S
C1202 H1176 0.950 . S
C1202 C1198 1.385 . S
C1202 C1201 1.374 . S
C1203 C1200 1.499 1_556 S
C1203 C1204 1.373 . S
C1203 C1205 1.389 . S
C1204 H1177 0.950 . S
C1204 C1190 1.377 . S
C1204 C1203 1.373 . S
C1205 C1189 1.377 . S
C1205 C1203 1.389 . S
C1205 C1206 1.524 1_556 S
C1206 C1205 1.524 1_554 S
C1206 C1207 1.397 . S
C1206 C1211 1.363 . S
C1207 H1178 0.950 . S
C1207 C1206 1.397 . S
C1207 C1208 1.334 . S
C1208 H1179 0.950 . S
C1208 C1207 1.334 . S
C1208 C1209 1.287 . S
C1209 C1208 1.287 . S
C1209 C1210 1.524 . S
C1209 H1212 0.999 . S
C1210 H1180 0.950 . S
C1210 C1209 1.524 . S
C1210 C1211 1.415 . S
C1211 H1181 0.950 1_554 S
C1211 C1206 1.363 . S
C1211 C1210 1.415 . S
H1212 C1209 0.999 . S
H1213 C1194 0.913 . S
H1214 C1232 0.951 . S
H1215 C1234 0.951 . S
H1216 C1236 0.950 . S
H1217 C1237 0.950 . S
H1218 C1239 0.950 . S
H1219 C1242 0.950 . S
H1220 C1243 0.950 . S
H1221 C1245 0.950 . S
H1222 C1246 0.950 . S
H1223 C1247 0.951 . S
H1224 C1249 0.951 . S
H1225 C1251 0.950 . S
H1226 C1252 0.950 . S
H1227 C1254 0.950 . S
H1228 C1257 0.950 . S
H1229 C1258 0.950 . S
H1230 C1260 0.950 . S
H1231 C1261 0.950 . S
C1232 H1214 0.951 . S
C1232 C1233 1.366 . S
C1232 C1234 1.388 . S
C1233 C1232 1.366 . S
C1233 C1237 1.385 . S
C1234 H1215 0.951 . S
C1234 C1232 1.388 . S
C1234 C1235 1.366 . S
C1235 C1234 1.366 . S
C1235 C1236 1.414 . S
C1235 C1238 1.499 . S
C1236 H1216 0.950 . S
C1236 C1235 1.414 . S
C1236 C1237 1.374 . S
C1237 H1217 0.950 . S
C1237 C1233 1.385 . S
C1237 C1236 1.374 . S
C1238 C1235 1.499 . S
C1238 C1239 1.373 . S
C1238 C1240 1.389 . S
C1239 H1218 0.950 . S
C1239 C1238 1.373 . S
C1239 C1255 1.377 . S
C1240 C1238 1.389 . S
C1240 C1241 1.524 . S
C1240 C1254 1.377 . S
C1241 C1240 1.524 . S
C1241 C1242 1.397 . S
C1241 C1246 1.363 . S
C1242 H1219 0.950 . S
C1242 C1241 1.397 . S
C1242 C1243 1.334 . S
C1243 H1220 0.950 . S
C1243 C1242 1.334 . S
C1243 C1244 1.287 . S
C1244 C1243 1.287 . S
C1244 C1245 1.524 . S
C1244 H1263 0.913 . S
C1245 H1221 0.950 . S
C1245 C1244 1.524 . S
C1245 C1246 1.415 . S
C1246 H1222 0.950 . S
C1246 C1241 1.363 . S
C1246 C1245 1.415 . S
C1247 H1223 0.951 . S
C1247 C1248 1.366 . S
C1247 C1249 1.388 . S
C1248 C1247 1.366 . S
C1248 C1252 1.385 . S
C1249 H1224 0.951 . S
C1249 C1247 1.388 . S
C1249 C1250 1.366 . S
C1250 C1249 1.366 . S
C1250 C1251 1.414 . S
C1250 C1253 1.499 . S
C1251 H1225 0.950 . S
C1251 C1250 1.414 . S
C1251 C1252 1.374 . S
C1252 H1226 0.950 . S
C1252 C1248 1.385 . S
C1252 C1251 1.374 . S
C1253 C1250 1.499 . S
C1253 C1254 1.373 . S
C1253 C1255 1.389 . S
C1254 H1227 0.950 . S
C1254 C1240 1.377 . S
C1254 C1253 1.373 . S
C1255 C1239 1.377 . S
C1255 C1253 1.389 . S
C1255 C1256 1.524 . S
C1256 C1255 1.524 . S
C1256 C1257 1.397 . S
C1256 C1261 1.363 . S
C1257 H1228 0.950 . S
C1257 C1256 1.397 . S
C1257 C1258 1.334 . S
C1258 H1229 0.950 . S
C1258 C1257 1.334 . S
C1258 C1259 1.287 . S
C1259 C1258 1.287 . S
C1259 C1260 1.524 . S
C1259 H1262 0.999 . S
C1260 H1230 0.950 . S
C1260 C1259 1.524 . S
C1260 C1261 1.415 . S
C1261 H1231 0.950 . S
C1261 C1256 1.363 . S
C1261 C1260 1.415 . S
H1262 C1259 0.999 . S
H1263 C1244 0.913 . S
C283 C21 1.467 . S
C298 C120 1.466 . S
C333 C54 1.466 . S
C348 C87 1.466 . S
C383 C252 1.466 . S
C398 C153 1.467 . S
C433 C186 1.466 . S
C448 C219 1.467 . S
C483 N68 1.092 . S
C498 N2 1.091 . S
C533 N101 1.093 . S
C548 N35 1.092 . S
C583 C40 1.444 . S
C598 C106 1.443 . S
C633 C7 1.443 . S
C648 C73 1.443 . S
C683 N200 1.091 . S
C698 N134 1.091 . S
C733 N167 1.093 . S
C748 N233 1.092 . S
C783 C172 1.443 . S
C798 C238 1.443 . S
C833 C205 1.443 . S
C848 C139 1.443 . S
C883 C18 1.339 . S
C898 N178 1.317 . S
C933 C51 1.339 . S
C948 N145 1.317 . S
C983 N244 1.318 . S
C998 C84 1.339 . S
C1033 C117 1.339 . S
C1048 N211 1.318 . S
C1083 N46 1.317 . S
C1098 C150 1.339 . S
C1133 C183 1.339 . S
C1148 N13 1.318 . S
C1183 C216 1.339 . S
C1198 N112 1.317 . S
C1233 C249 1.339 . S
C1248 N79 1.317 . S
