# Generated by pormake.
# Topology wgl, (5)-cn, num edge types: 1
# Building blocks:
#     Node 0, Type 0, BuildingBlock: XOMCOT_clean_sbu_1, # of connection points: 5
#     Node 1, Type 0, BuildingBlock: XOMCOT_clean_sbu_1, # of connection points: 5
#     Node 2, Type 0, BuildingBlock: XOMCOT_clean_sbu_1, # of connection points: 5
#     Node 3, Type 0, BuildingBlock: XOMCOT_clean_sbu_1, # of connection points: 5
#     Node 4, Type 0, BuildingBlock: XOMCOT_clean_sbu_1, # of connection points: 5
#     Node 5, Type 0, BuildingBlock: XOMCOT_clean_sbu_1, # of connection points: 5
#     Node 6, Type 0, BuildingBlock: XOMCOT_clean_sbu_1, # of connection points: 5
#     Node 7, Type 0, BuildingBlock: XOMCOT_clean_sbu_1, # of connection points: 5
#     Node 8, Type 0, BuildingBlock: XOMCOT_clean_sbu_1, # of connection points: 5
#     Node 9, Type 0, BuildingBlock: XOMCOT_clean_sbu_1, # of connection points: 5
#     Node 10, Type 0, BuildingBlock: XOMCOT_clean_sbu_1, # of connection points: 5
#     Node 11, Type 0, BuildingBlock: XOMCOT_clean_sbu_1, # of connection points: 5
#     Node 12, Type 0, BuildingBlock: XOMCOT_clean_sbu_1, # of connection points: 5
#     Node 13, Type 0, BuildingBlock: XOMCOT_clean_sbu_1, # of connection points: 5
#     Node 14, Type 0, BuildingBlock: XOMCOT_clean_sbu_1, # of connection points: 5
#     Node 15, Type 0, BuildingBlock: XOMCOT_clean_sbu_1, # of connection points: 5
#     Node 16, Type 0, BuildingBlock: XOMCOT_clean_sbu_1, # of connection points: 5
#     Node 17, Type 0, BuildingBlock: XOMCOT_clean_sbu_1, # of connection points: 5
#     Node 18, Type 0, BuildingBlock: XOMCOT_clean_sbu_1, # of connection points: 5
#     Node 19, Type 0, BuildingBlock: XOMCOT_clean_sbu_1, # of connection points: 5
#     Node 20, Type 0, BuildingBlock: XOMCOT_clean_sbu_1, # of connection points: 5
#     Node 21, Type 0, BuildingBlock: XOMCOT_clean_sbu_1, # of connection points: 5
#     Node 22, Type 0, BuildingBlock: XOMCOT_clean_sbu_1, # of connection points: 5
#     Node 23, Type 0, BuildingBlock: XOMCOT_clean_sbu_1, # of connection points: 5
#     Node 24, Type 0, BuildingBlock: XOMCOT_clean_sbu_1, # of connection points: 5
#     Node 25, Type 0, BuildingBlock: XOMCOT_clean_sbu_1, # of connection points: 5
#     Node 26, Type 0, BuildingBlock: XOMCOT_clean_sbu_1, # of connection points: 5
#     Node 27, Type 0, BuildingBlock: XOMCOT_clean_sbu_1, # of connection points: 5
#     Node 28, Type 0, BuildingBlock: XOMCOT_clean_sbu_1, # of connection points: 5
#     Node 29, Type 0, BuildingBlock: XOMCOT_clean_sbu_1, # of connection points: 5
#     Node 30, Type 0, BuildingBlock: XOMCOT_clean_sbu_1, # of connection points: 5
#     Node 31, Type 0, BuildingBlock: XOMCOT_clean_sbu_1, # of connection points: 5
#     Edge 32, Type (0, 0), BuildingBlock: AJUNOK_clean_linker_0, # of connection points: 2
#     Edge 33, Type (0, 0), BuildingBlock: AJUNOK_clean_linker_0, # of connection points: 2
#     Edge 34, Type (0, 0), BuildingBlock: AJUNOK_clean_linker_0, # of connection points: 2
#     Edge 35, Type (0, 0), BuildingBlock: AJUNOK_clean_linker_0, # of connection points: 2
#     Edge 36, Type (0, 0), BuildingBlock: AJUNOK_clean_linker_0, # of connection points: 2
#     Edge 37, Type (0, 0), BuildingBlock: AJUNOK_clean_linker_0, # of connection points: 2
#     Edge 38, Type (0, 0), BuildingBlock: AJUNOK_clean_linker_0, # of connection points: 2
#     Edge 39, Type (0, 0), BuildingBlock: AJUNOK_clean_linker_0, # of connection points: 2
#     Edge 40, Type (0, 0), BuildingBlock: AJUNOK_clean_linker_0, # of connection points: 2
#     Edge 41, Type (0, 0), BuildingBlock: AJUNOK_clean_linker_0, # of connection points: 2
#     Edge 42, Type (0, 0), BuildingBlock: AJUNOK_clean_linker_0, # of connection points: 2
#     Edge 43, Type (0, 0), BuildingBlock: AJUNOK_clean_linker_0, # of connection points: 2
#     Edge 44, Type (0, 0), BuildingBlock: AJUNOK_clean_linker_0, # of connection points: 2
#     Edge 45, Type (0, 0), BuildingBlock: AJUNOK_clean_linker_0, # of connection points: 2
#     Edge 46, Type (0, 0), BuildingBlock: AJUNOK_clean_linker_0, # of connection points: 2
#     Edge 47, Type (0, 0), BuildingBlock: AJUNOK_clean_linker_0, # of connection points: 2
#     Edge 48, Type (0, 0), BuildingBlock: AJUNOK_clean_linker_0, # of connection points: 2
#     Edge 49, Type (0, 0), BuildingBlock: AJUNOK_clean_linker_0, # of connection points: 2
#     Edge 50, Type (0, 0), BuildingBlock: AJUNOK_clean_linker_0, # of connection points: 2
#     Edge 51, Type (0, 0), BuildingBlock: AJUNOK_clean_linker_0, # of connection points: 2
#     Edge 52, Type (0, 0), BuildingBlock: AJUNOK_clean_linker_0, # of connection points: 2
#     Edge 53, Type (0, 0), BuildingBlock: AJUNOK_clean_linker_0, # of connection points: 2
#     Edge 54, Type (0, 0), BuildingBlock: AJUNOK_clean_linker_0, # of connection points: 2
#     Edge 55, Type (0, 0), BuildingBlock: AJUNOK_clean_linker_0, # of connection points: 2
#     Edge 56, Type (0, 0), BuildingBlock: AJUNOK_clean_linker_0, # of connection points: 2
#     Edge 57, Type (0, 0), BuildingBlock: AJUNOK_clean_linker_0, # of connection points: 2
#     Edge 58, Type (0, 0), BuildingBlock: AJUNOK_clean_linker_0, # of connection points: 2
#     Edge 59, Type (0, 0), BuildingBlock: AJUNOK_clean_linker_0, # of connection points: 2
#     Edge 60, Type (0, 0), BuildingBlock: AJUNOK_clean_linker_0, # of connection points: 2
#     Edge 61, Type (0, 0), BuildingBlock: AJUNOK_clean_linker_0, # of connection points: 2
#     Edge 62, Type (0, 0), BuildingBlock: AJUNOK_clean_linker_0, # of connection points: 2
#     Edge 63, Type (0, 0), BuildingBlock: AJUNOK_clean_linker_0, # of connection points: 2
#     Edge 64, Type (0, 0), BuildingBlock: AJUNOK_clean_linker_0, # of connection points: 2
#     Edge 65, Type (0, 0), BuildingBlock: AJUNOK_clean_linker_0, # of connection points: 2
#     Edge 66, Type (0, 0), BuildingBlock: AJUNOK_clean_linker_0, # of connection points: 2
#     Edge 67, Type (0, 0), BuildingBlock: AJUNOK_clean_linker_0, # of connection points: 2
#     Edge 68, Type (0, 0), BuildingBlock: AJUNOK_clean_linker_0, # of connection points: 2
#     Edge 69, Type (0, 0), BuildingBlock: AJUNOK_clean_linker_0, # of connection points: 2
#     Edge 70, Type (0, 0), BuildingBlock: AJUNOK_clean_linker_0, # of connection points: 2
#     Edge 71, Type (0, 0), BuildingBlock: AJUNOK_clean_linker_0, # of connection points: 2
#     Edge 72, Type (0, 0), BuildingBlock: AJUNOK_clean_linker_0, # of connection points: 2
#     Edge 73, Type (0, 0), BuildingBlock: AJUNOK_clean_linker_0, # of connection points: 2
#     Edge 74, Type (0, 0), BuildingBlock: AJUNOK_clean_linker_0, # of connection points: 2
#     Edge 75, Type (0, 0), BuildingBlock: AJUNOK_clean_linker_0, # of connection points: 2
#     Edge 76, Type (0, 0), BuildingBlock: AJUNOK_clean_linker_0, # of connection points: 2
#     Edge 77, Type (0, 0), BuildingBlock: AJUNOK_clean_linker_0, # of connection points: 2
#     Edge 78, Type (0, 0), BuildingBlock: AJUNOK_clean_linker_0, # of connection points: 2
#     Edge 79, Type (0, 0), BuildingBlock: AJUNOK_clean_linker_0, # of connection points: 2
#     Edge 80, Type (0, 0), BuildingBlock: AJUNOK_clean_linker_0, # of connection points: 2
#     Edge 81, Type (0, 0), BuildingBlock: AJUNOK_clean_linker_0, # of connection points: 2
#     Edge 82, Type (0, 0), BuildingBlock: AJUNOK_clean_linker_0, # of connection points: 2
#     Edge 83, Type (0, 0), BuildingBlock: AJUNOK_clean_linker_0, # of connection points: 2
#     Edge 84, Type (0, 0), BuildingBlock: AJUNOK_clean_linker_0, # of connection points: 2
#     Edge 85, Type (0, 0), BuildingBlock: AJUNOK_clean_linker_0, # of connection points: 2
#     Edge 86, Type (0, 0), BuildingBlock: AJUNOK_clean_linker_0, # of connection points: 2
#     Edge 87, Type (0, 0), BuildingBlock: AJUNOK_clean_linker_0, # of connection points: 2
#     Edge 88, Type (0, 0), BuildingBlock: AJUNOK_clean_linker_0, # of connection points: 2
#     Edge 89, Type (0, 0), BuildingBlock: AJUNOK_clean_linker_0, # of connection points: 2
#     Edge 90, Type (0, 0), BuildingBlock: AJUNOK_clean_linker_0, # of connection points: 2
#     Edge 91, Type (0, 0), BuildingBlock: AJUNOK_clean_linker_0, # of connection points: 2
#     Edge 92, Type (0, 0), BuildingBlock: AJUNOK_clean_linker_0, # of connection points: 2
#     Edge 93, Type (0, 0), BuildingBlock: AJUNOK_clean_linker_0, # of connection points: 2
#     Edge 94, Type (0, 0), BuildingBlock: AJUNOK_clean_linker_0, # of connection points: 2
#     Edge 95, Type (0, 0), BuildingBlock: AJUNOK_clean_linker_0, # of connection points: 2
#     Edge 96, Type (0, 0), BuildingBlock: AJUNOK_clean_linker_0, # of connection points: 2
#     Edge 97, Type (0, 0), BuildingBlock: AJUNOK_clean_linker_0, # of connection points: 2
#     Edge 98, Type (0, 0), BuildingBlock: AJUNOK_clean_linker_0, # of connection points: 2
#     Edge 99, Type (0, 0), BuildingBlock: AJUNOK_clean_linker_0, # of connection points: 2
#     Edge 100, Type (0, 0), BuildingBlock: AJUNOK_clean_linker_0, # of connection points: 2
#     Edge 101, Type (0, 0), BuildingBlock: AJUNOK_clean_linker_0, # of connection points: 2
#     Edge 102, Type (0, 0), BuildingBlock: AJUNOK_clean_linker_0, # of connection points: 2
#     Edge 103, Type (0, 0), BuildingBlock: AJUNOK_clean_linker_0, # of connection points: 2
#     Edge 104, Type (0, 0), BuildingBlock: AJUNOK_clean_linker_0, # of connection points: 2
#     Edge 105, Type (0, 0), BuildingBlock: AJUNOK_clean_linker_0, # of connection points: 2
#     Edge 106, Type (0, 0), BuildingBlock: AJUNOK_clean_linker_0, # of connection points: 2
#     Edge 107, Type (0, 0), BuildingBlock: AJUNOK_clean_linker_0, # of connection points: 2
#     Edge 108, Type (0, 0), BuildingBlock: AJUNOK_clean_linker_0, # of connection points: 2
#     Edge 109, Type (0, 0), BuildingBlock: AJUNOK_clean_linker_0, # of connection points: 2
#     Edge 110, Type (0, 0), BuildingBlock: AJUNOK_clean_linker_0, # of connection points: 2
#     Edge 111, Type (0, 0), BuildingBlock: AJUNOK_clean_linker_0, # of connection points: 2
# Relax obj value: 0.051
# Max RMSD: 0.087
# Mean RMSD: 0.087
data_MOF--net-wgl--node1-XOMCOT_clean_sbu_1--edge1-AJUNOK_clean_linker_0
_symmetry_space_group_name_H-M    P1
_symmetry_Int_Tables_number       1
_symmetry_cell_setting            triclinic
loop_
_symmetry_equiv_pos_as_xyz
'x, y, z'
_cell_length_a     44.332452
_cell_length_b     44.259546
_cell_length_c     37.823819
_cell_angle_alpha  89.889514
_cell_angle_beta   90.001652
_cell_angle_gamma 89.894192
loop_
_atom_site_label
_atom_site_type_symbol
_atom_site_fract_x
_atom_site_fract_y
_atom_site_fract_z
_atom_type_partial_charge
C0 C 0.26517 0.37611 0.22841 0.0
C1 C 0.24305 0.39773 0.22609 0.0
N2 N 0.23714 0.40286 0.19168 0.0
N3 N 0.27326 0.36735 0.19564 0.0
C4 C 0.25598 0.38424 0.1737 0.0
H5 H 0.27489 0.36749 0.2526 0.0
Co6 Co 0.30307 0.33854 0.18719 0.0
C7 C 0.2969 0.31924 0.11068 0.0
O8 O 0.32532 0.31086 0.1105 0.0
N9 N 0.33355 0.30903 0.18045 0.0
C10 C 0.3775 0.28458 0.18127 0.0
C11 C 0.36385 0.31246 0.1814 0.0
C12 C 0.32953 0.27868 0.17939 0.0
N13 N 0.35583 0.26338 0.18059 0.0
O14 O 0.2785 0.30843 0.21068 0.0
H15 H 0.37569 0.33364 0.18322 0.0
H16 H 0.30766 0.26786 0.17931 0.0
O17 O 0.28522 0.32984 0.13928 0.0
C18 C 0.28913 0.30496 0.24198 0.0
O19 O 0.31248 0.32147 0.25105 0.0
N20 N 0.32842 0.36906 0.16982 0.0
C21 C 0.37983 0.40384 0.15924 0.0
C22 C 0.36246 0.39416 0.13034 0.0
C23 C 0.33633 0.37712 0.13621 0.0
C24 C 0.34273 0.38168 0.19803 0.0
C25 C 0.36868 0.3989 0.19341 0.0
H26 H 0.32375 0.36949 0.11367 0.0
H27 H 0.33577 0.37565 0.22451 0.0
H28 H 0.25781 0.38345 0.1452 0.0
H29 H 0.23201 0.40872 0.24814 0.0
H30 H 0.40153 0.28028 0.18211 0.0
H31 H 0.36994 0.39826 0.10349 0.0
H32 H 0.38136 0.40565 0.21654 0.0
C33 C 0.89253 0.02435 0.4924 0.0
C34 C 0.87061 1.00248 0.49036 0.0
N35 N 0.86747 0.99441 0.45624 0.0
N36 N 0.90355 0.02998 0.45982 0.0
C37 C 0.88787 1.01128 0.43838 0.0
H38 H 0.90007 0.03531 0.51631 0.0
Co39 Co 0.93427 0.05799 0.45053 0.0
C40 C 0.9615 0.02885 0.38474 0.0
O41 O 0.98789 0.02316 0.39902 0.0
N42 N 0.96555 0.08649 0.44245 0.0
C43 C 0.99174 0.12941 0.44026 0.0
C44 C 0.9634 0.11698 0.44219 0.0
C45 C 0.99566 0.08116 0.44128 0.0
N46 N 1.01202 0.1068 0.43971 0.0
O47 O 0.96259 0.0319 0.47377 0.0
H48 H 0.94275 0.12974 0.44479 0.0
H49 H 1.00566 0.05905 0.44422 0.0
O50 O 0.94059 0.04052 0.40349 0.0
C51 C 0.96585 0.0422 0.50513 0.0
O52 O 0.95033 0.06636 0.51395 0.0
N53 N 0.906 0.0847 0.4316 0.0
C54 C 0.87505 0.13765 0.41578 0.0
C55 C 0.88975 0.12135 0.389 0.0
C56 C 0.90547 0.09498 0.39752 0.0
C57 C 0.88926 0.09845 0.4571 0.0
C58 C 0.87374 0.12513 0.44984 0.0
H59 H 0.91947 0.08488 0.37743 0.0
H60 H 0.89055 0.09043 0.48408 0.0
H61 H 0.89118 1.01002 0.41023 0.0
H62 H 0.85857 0.9928 0.51251 0.0
H63 H 0.99704 0.15327 0.44015 0.0
H64 H 0.89123 0.13027 0.36237 0.0
H65 H 0.8634 0.13722 0.47155 0.0
C66 C 0.25605 0.65077 0.72914 0.0
C67 C 0.2773 0.62827 0.72855 0.0
N68 N 0.28419 0.62232 0.69461 0.0
N69 N 0.24978 0.65956 0.6958 0.0
C70 C 0.26731 0.64179 0.6752 0.0
H71 H 0.24581 0.66008 0.75262 0.0
Co72 Co 0.22157 0.68963 0.68583 0.0
C73 C 0.23096 0.70937 0.60972 0.0
O74 O 0.20322 0.71976 0.6086 0.0
N75 N 0.19254 0.72041 0.67777 0.0
C76 C 0.14953 0.74637 0.67524 0.0
C77 C 0.16218 0.71803 0.6756 0.0
C78 C 0.19758 0.7506 0.67845 0.0
N79 N 0.17183 0.76686 0.67731 0.0
O80 O 0.24696 0.71853 0.70954 0.0
H81 H 0.14957 0.69723 0.67559 0.0
H82 H 0.21966 0.76049 0.68168 0.0
O83 O 0.24089 0.69729 0.6385 0.0
C84 C 0.23638 0.72234 0.74075 0.0
O85 O 0.21182 0.70749 0.74945 0.0
N86 N 0.19547 0.66029 0.668 0.0
C87 C 0.14357 0.62661 0.65659 0.0
C88 C 0.16128 0.63627 0.62793 0.0
C89 C 0.18763 0.65284 0.63421 0.0
C90 C 0.18046 0.64807 0.69597 0.0
C91 C 0.15432 0.63134 0.69093 0.0
H92 H 0.2004 0.66071 0.61189 0.0
H93 H 0.18724 0.65387 0.72257 0.0
H94 H 0.2674 0.64278 0.6466 0.0
H95 H 0.28733 0.61764 0.75149 0.0
H96 H 0.12565 0.75147 0.67451 0.0
H97 H 0.15394 0.6325 0.60098 0.0
H98 H 0.14127 0.6247 0.71386 0.0
C99 C 0.62945 1.00928 0.9739 0.0
C100 C 0.65098 0.03142 0.9724 0.0
N101 N 0.65626 0.03815 0.93822 0.0
N102 N 0.62078 1.00202 0.94086 0.0
C103 C 0.63771 0.01977 0.91955 0.0
H104 H 0.62075 0.99908 0.99776 0.0
Co105 Co 0.59138 0.97302 0.93174 0.0
C106 C 0.57033 0.98247 0.85607 0.0
O107 O 0.56087 0.9544 0.85469 0.0
N108 N 0.56131 0.94341 0.92441 0.0
C109 C 0.536 0.89999 0.9244 0.0
C110 C 0.56412 0.91297 0.92446 0.0
C111 C 0.53111 0.9482 0.92403 0.0
N112 N 0.5153 0.92224 0.92471 0.0
O113 O 0.56215 0.99766 0.95645 0.0
H114 H 0.58505 0.90058 0.92574 0.0
H115 H 0.52077 0.97036 0.92485 0.0
O116 O 0.58238 0.99246 0.88476 0.0
C117 C 0.5588 0.98662 0.98757 0.0
O118 O 0.57453 0.96242 0.99583 0.0
N119 N 0.62106 0.94744 0.91291 0.0
C120 C 0.65242 0.89421 0.90014 0.0
C121 C 0.64261 0.91236 0.87187 0.0
C122 C 0.62718 0.93934 0.87883 0.0
C123 C 0.63438 0.93242 0.94028 0.0
C124 C 0.65013 0.90562 0.93452 0.0
H125 H 0.61896 0.95232 0.85683 0.0
H126 H 0.62986 0.93949 0.96712 0.0
H127 H 0.63689 0.01864 0.89101 0.0
H128 H 0.66174 0.04194 0.99491 0.0
H129 H 0.5312 0.87603 0.9247 0.0
H130 H 0.64508 0.90478 0.84481 0.0
H131 H 0.65764 0.89249 0.95707 0.0
C132 C 0.26918 0.65431 0.35536 0.0
C133 C 0.2479 0.63192 0.35588 0.0
N134 N 0.24207 0.62478 0.3898 0.0
N135 N 0.27653 0.66189 0.38877 0.0
C136 C 0.25959 0.64348 0.40932 0.0
H137 H 0.27877 0.66428 0.33186 0.0
Co138 Co 0.3056 0.69102 0.3989 0.0
C139 C 0.29747 0.7097 0.47521 0.0
O140 O 0.32572 0.71849 0.47602 0.0
N141 N 0.33552 0.72088 0.4071 0.0
C142 C 0.37928 0.74553 0.40817 0.0
C143 C 0.36585 0.71758 0.40829 0.0
C144 C 0.33128 0.75124 0.40678 0.0
N145 N 0.35748 0.76665 0.40654 0.0
O146 O 0.28128 0.72087 0.37477 0.0
H147 H 0.3779 0.69641 0.40802 0.0
H148 H 0.30939 0.76197 0.40492 0.0
O149 O 0.28638 0.69906 0.44631 0.0
C150 C 0.29313 0.72442 0.3441 0.0
O151 O 0.31723 0.7084 0.33645 0.0
N152 N 0.33078 0.66068 0.4168 0.0
C153 C 0.38191 0.62568 0.42832 0.0
C154 C 0.36394 0.63504 0.45688 0.0
C155 C 0.33793 0.6522 0.45051 0.0
C156 C 0.34576 0.64846 0.38881 0.0
C157 C 0.37156 0.63109 0.39392 0.0
H158 H 0.32484 0.65959 0.47278 0.0
H159 H 0.33936 0.6548 0.36223 0.0
H160 H 0.2605 0.64337 0.43792 0.0
H161 H 0.2372 0.62207 0.33294 0.0
H162 H 0.40329 0.74989 0.4086 0.0
H163 H 0.37089 0.63062 0.48386 0.0
H164 H 0.38476 0.62459 0.37106 0.0
C165 C 0.63099 0.02468 0.6033 0.0
C166 C 0.65227 1.00216 0.60395 0.0
N167 N 0.6541 0.99152 0.6372 0.0
N168 N 0.61929 0.02827 0.63594 0.0
C169 C 0.63411 1.00791 0.65627 0.0
H170 H 0.62464 0.03785 0.5804 0.0
Co171 Co 0.58896 0.05625 0.64499 0.0
C172 C 0.57069 0.04956 0.7216 0.0
O173 O 0.56244 0.07805 0.72161 0.0
N174 N 0.55779 0.08494 0.65203 0.0
C175 C 0.53045 0.12719 0.65231 0.0
C176 C 0.55913 0.11547 0.65127 0.0
C177 C 0.52788 0.07885 0.65383 0.0
N178 N 0.51082 0.10411 0.65375 0.0
O179 O 0.56048 0.03015 0.6219 0.0
H180 H 0.57934 0.12881 0.64902 0.0
H181 H 0.51866 0.05624 0.65355 0.0
O182 O 0.58118 0.03781 0.69295 0.0
C183 C 0.55684 0.03958 0.59014 0.0
O184 O 0.57211 0.06348 0.57993 0.0
N185 N 0.61798 0.08304 0.66236 0.0
C186 C 0.65111 0.13506 0.67492 0.0
C187 C 0.64403 0.11533 0.70286 0.0
C188 C 0.62772 0.08893 0.6959 0.0
C189 C 0.62864 0.09953 0.63463 0.0
C190 C 0.64503 0.12583 0.64028 0.0
H191 H 0.6222 0.07427 0.71765 0.0
H192 H 0.62172 0.09386 0.60805 0.0
H193 H 0.63029 1.00499 0.68433 0.0
H194 H 0.66591 0.99468 0.58188 0.0
H195 H 0.52445 0.1509 0.65137 0.0
H196 H 0.6497 0.12101 0.72989 0.0
H197 H 0.65043 0.14013 0.61788 0.0
C198 C 0.25558 0.37829 0.85696 0.0
C199 C 0.27669 0.40084 0.85815 0.0
N200 N 0.28355 0.40615 0.89224 0.0
N201 N 0.24936 0.36887 0.89008 0.0
C202 C 0.26678 0.38629 0.91113 0.0
H203 H 0.24542 0.36935 0.83325 0.0
Co204 Co 0.22147 0.33854 0.89964 0.0
C205 C 0.23095 0.31868 0.97572 0.0
O206 O 0.20321 0.3084 0.97685 0.0
N207 N 0.19286 0.30753 0.90745 0.0
C208 C 0.15033 0.28105 0.91067 0.0
C209 C 0.16248 0.30955 0.90956 0.0
C210 C 0.19844 0.27742 0.90737 0.0
N211 N 0.17299 0.26081 0.90908 0.0
O212 O 0.24713 0.30999 0.87542 0.0
H213 H 0.14955 0.33021 0.90927 0.0
H214 H 0.22072 0.26783 0.90442 0.0
O215 O 0.2409 0.33068 0.94692 0.0
C216 C 0.23643 0.30669 0.84416 0.0
O217 O 0.21171 0.32157 0.83602 0.0
N218 N 0.19504 0.36759 0.91779 0.0
C219 C 0.14316 0.40162 0.92902 0.0
C220 C 0.16067 0.39167 0.95776 0.0
C221 C 0.18702 0.37496 0.95157 0.0
C222 C 0.1801 0.37991 0.88979 0.0
C223 C 0.15401 0.39682 0.89474 0.0
H224 H 0.19971 0.36701 0.97394 0.0
H225 H 0.18699 0.37419 0.86321 0.0
H226 H 0.26688 0.38478 0.9397 0.0
H227 H 0.28666 0.41196 0.8355 0.0
H228 H 0.12655 0.27565 0.91185 0.0
H229 H 0.15322 0.39544 0.98468 0.0
H230 H 0.14111 0.40368 0.87176 0.0
C231 C 0.89215 0.98642 0.12911 0.0
C232 C 0.86865 1.00692 0.12913 0.0
N233 N 0.87591 0.03015 0.15056 0.0
N234 N 0.91403 0.99636 0.15094 0.0
C235 C 0.90384 0.02333 0.16274 0.0
H236 H 0.89299 0.96532 0.11477 0.0
Co237 Co 0.95155 0.97865 0.1623 0.0
C238 C 0.94282 0.98988 0.24073 0.0
O239 O 0.93381 0.96204 0.24559 0.0
N240 N 0.99014 0.96312 0.17364 0.0
C241 C 0.03128 0.9489 0.20306 0.0
C242 C 1.0012 0.95555 0.20582 0.0
C243 C 1.01403 0.95999 0.15158 0.0
N244 N 0.03924 0.95183 0.16902 0.0
O245 O 0.97156 1.01192 0.13947 0.0
H246 H 0.98858 0.95463 0.23004 0.0
H247 H 1.01326 0.96411 0.12343 0.0
O248 O 0.95095 0.9991 0.20988 0.0
C249 C 0.9712 1.00576 0.10633 0.0
O250 O 0.95495 0.98263 0.09588 0.0
N251 N 0.93188 0.94244 0.17902 0.0
C252 C 0.90314 0.8862 0.18643 0.0
C253 C 0.88757 0.91312 0.19374 0.0
C254 C 0.90243 0.94098 0.19022 0.0
C255 C 0.94691 0.9161 0.17204 0.0
C256 C 0.93366 0.88816 0.17747 0.0
H257 H 0.88986 0.96139 0.19567 0.0
H258 H 0.96887 0.91593 0.15994 0.0
H259 H 0.9172 0.03794 0.17932 0.0
H260 H 0.84753 1.00444 0.11509 0.0
H261 H 0.04621 0.94218 0.22434 0.0
H262 H 0.86378 0.91294 0.20013 0.0
H263 H 0.94684 0.8681 0.17181 0.0
C264 C 0.74901 0.64404 0.84585 0.0
C265 C 0.77112 0.62221 0.8461 0.0
N266 N 0.78227 0.62032 0.8791 0.0
N267 N 0.74625 0.65594 0.87851 0.0
C268 C 0.7667 0.64079 0.8983 0.0
H269 H 0.73563 0.65062 0.82324 0.0
Co270 Co 0.71952 0.68701 0.89 0.0
C271 C 0.74564 0.711 0.95909 0.0
O272 O 0.74537 0.73935 0.9489 0.0
N273 N 0.69192 0.71899 0.90044 0.0
C274 C 0.64965 0.74564 0.90844 0.0
C275 C 0.66202 0.71719 0.90758 0.0
C276 C 0.69689 0.74915 0.89725 0.0
N277 N 0.67159 0.76566 0.90151 0.0
O278 O 0.74649 0.71541 0.86827 0.0
H279 H 0.64923 0.69668 0.91072 0.0
H280 H 0.71838 0.75908 0.89048 0.0
O281 O 0.73767 0.69041 0.93737 0.0
C282 C 0.73735 0.71948 0.83647 0.0
O283 O 0.71323 0.70474 0.82605 0.0
N284 N 0.69222 0.65848 0.90691 0.0
C285 C 0.63936 0.62759 0.92194 0.0
C286 C 0.65861 0.63668 0.94939 0.0
C287 C 0.68506 0.65237 0.94133 0.0
C288 C 0.67567 0.64661 0.88001 0.0
C289 C 0.64903 0.63109 0.88692 0.0
H290 H 0.69804 0.66158 0.96285 0.0
H291 H 0.6817 0.65171 0.85295 0.0
H292 H 0.7704 0.64473 0.92617 0.0
H293 H 0.77795 0.60832 0.82396 0.0
H294 H 0.6262 0.75111 0.91329 0.0
H295 H 0.65218 0.63369 0.9768 0.0
H296 H 0.63485 0.6244 0.86498 0.0
C297 C 0.12531 1.01035 0.61634 0.0
C298 C 0.14719 0.03207 0.6179 0.0
N299 N 0.15274 0.0383 0.6521 0.0
N300 N 0.11663 1.00282 0.64935 0.0
C301 C 0.13397 0.02006 0.67073 0.0
H302 H 0.11648 1.00053 0.59239 0.0
Co303 Co 0.08685 0.97388 0.65763 0.0
C304 C 0.06031 0.98669 0.73093 0.0
O305 O 0.03861 0.96704 0.72644 0.0
N306 N 0.05636 0.9439 0.66322 0.0
C307 C 0.03204 0.89983 0.66104 0.0
C308 C 0.05972 0.91349 0.66404 0.0
C309 C 0.02617 0.94784 0.6592 0.0
N310 N 1.01101 0.92154 0.65756 0.0
O311 O 0.05795 0.99998 0.63518 0.0
H312 H 0.08092 0.90152 0.66499 0.0
H313 H 0.01533 0.96965 0.65665 0.0
O314 O 0.0795 0.99145 0.70603 0.0
C315 C 0.05404 0.99123 0.60325 0.0
O316 O 0.06943 0.96764 0.59221 0.0
N317 N 0.11596 0.94749 0.67522 0.0
C318 C 0.1488 0.89473 0.68603 0.0
C319 C 0.13467 0.90937 0.71457 0.0
C320 C 0.11822 0.93594 0.70862 0.0
C321 C 0.13204 0.9353 0.6481 0.0
C322 C 0.14853 0.90886 0.65286 0.0
H323 H 0.10524 0.94529 0.73006 0.0
H324 H 0.12948 0.94442 0.62172 0.0
H325 H 0.13332 0.01868 0.69923 0.0
H326 H 0.15803 0.04265 0.59543 0.0
H327 H 0.02783 0.87575 0.66096 0.0
H328 H 0.13441 0.89915 0.74061 0.0
H329 H 0.15837 0.89813 0.62988 0.0
C330 C 0.77034 0.38242 0.35456 0.0
C331 C 0.74788 0.40375 0.35592 0.0
N332 N 0.73923 0.40676 0.38981 0.0
N333 N 0.77585 0.37189 0.38742 0.0
C334 C 0.75674 0.38743 0.40851 0.0
H335 H 0.78222 0.37539 0.33105 0.0
Co336 Co 0.80479 0.34255 0.39676 0.0
C337 C 0.79835 0.32434 0.47379 0.0
O338 O 0.82692 0.31651 0.47419 0.0
N339 N 0.83434 0.31255 0.40445 0.0
C340 C 0.87715 0.28652 0.40866 0.0
C341 C 0.86472 0.31486 0.4057 0.0
C342 C 0.82905 0.2825 0.40666 0.0
N343 N 0.85464 0.26615 0.40912 0.0
O344 O 0.77964 0.31279 0.37383 0.0
H345 H 0.87743 0.33555 0.40399 0.0
H346 H 0.80679 0.27274 0.40519 0.0
O347 O 0.78657 0.33456 0.44496 0.0
C348 C 0.78919 0.30906 0.34212 0.0
O349 O 0.81224 0.32535 0.33152 0.0
N350 N 0.83075 0.37264 0.41358 0.0
C351 C 0.88255 0.40683 0.42372 0.0
C352 C 0.86464 0.39825 0.45268 0.0
C353 C 0.83823 0.38157 0.44698 0.0
C354 C 0.84584 0.38401 0.38515 0.0
C355 C 0.87192 0.401 0.38957 0.0
H356 H 0.82505 0.37492 0.46953 0.0
H357 H 0.83923 0.37727 0.35881 0.0
H358 H 0.75562 0.38471 0.43693 0.0
H359 H 0.73918 0.41668 0.33383 0.0
H360 H 0.90099 0.28132 0.40994 0.0
H361 H 0.87181 0.40301 0.47947 0.0
H362 H 0.88508 0.40693 0.36646 0.0
C363 C 0.40123 0.0238 0.10403 0.0
C364 C 0.37941 1.00189 0.10587 0.0
N365 N 0.37662 0.99329 0.13983 0.0
N366 N 0.41247 0.02883 0.13661 0.0
C367 C 0.39691 1.00997 0.15803 0.0
H368 H 0.40834 0.03547 0.08035 0.0
Co369 Co 0.44294 0.05667 0.14505 0.0
C370 C 0.46158 0.04992 0.2216 0.0
O371 O 0.47023 0.07826 0.22159 0.0
N372 N 0.47426 0.08523 0.15169 0.0
C373 C 0.50145 0.1275 0.15208 0.0
C374 C 0.47281 0.11577 0.15158 0.0
C375 C 0.50423 0.07914 0.15262 0.0
N376 N 0.52119 0.10442 0.15255 0.0
O377 O 0.4712 0.03018 0.12184 0.0
H378 H 0.45252 0.12915 0.15023 0.0
H379 H 0.51354 0.05655 0.15172 0.0
O380 O 0.45091 0.03834 0.19299 0.0
C381 C 0.47513 0.03954 0.09008 0.0
O382 O 0.4603 0.06379 0.07991 0.0
N383 N 0.41409 0.08378 0.16252 0.0
C384 C 0.38092 0.13596 0.17514 0.0
C385 C 0.38821 0.11627 0.20308 0.0
C386 C 0.40456 0.08982 0.19611 0.0
C387 C 0.40331 0.10027 0.13481 0.0
C388 C 0.38693 0.12666 0.14049 0.0
H389 H 0.41021 0.07521 0.21787 0.0
H390 H 0.41006 0.09446 0.10819 0.0
H391 H 0.40057 1.00824 0.18625 0.0
H392 H 0.3662 0.99328 0.08403 0.0
H393 H 0.50732 0.15122 0.15149 0.0
H394 H 0.38256 0.12194 0.23013 0.0
H395 H 0.38137 0.14089 0.11808 0.0
C396 C 0.75692 0.37947 0.72742 0.0
C397 C 0.77932 0.40078 0.72625 0.0
N398 N 0.78823 0.40382 0.69245 0.0
N399 N 0.75166 0.36899 0.69453 0.0
C400 C 0.77088 0.38457 0.67361 0.0
H401 H 0.74497 0.37233 0.75086 0.0
Co402 Co 0.72313 0.33927 0.68516 0.0
C403 C 0.73253 0.31917 0.60887 0.0
O404 O 0.70516 0.30791 0.60783 0.0
N405 N 0.69392 0.30893 0.67775 0.0
C406 C 0.6507 0.28341 0.67843 0.0
C407 C 0.66353 0.31162 0.67822 0.0
C408 C 0.69885 0.2787 0.67745 0.0
N409 N 0.67299 0.26278 0.67852 0.0
O410 O 0.74849 0.31007 0.70899 0.0
H411 H 0.65111 0.33255 0.67976 0.0
H412 H 0.72101 0.26844 0.67811 0.0
O413 O 0.74208 0.33147 0.63761 0.0
C414 C 0.73828 0.30708 0.74052 0.0
O415 O 0.71408 0.32256 0.74916 0.0
N416 N 0.69698 0.36891 0.66731 0.0
C417 C 0.64478 0.40271 0.65668 0.0
C418 C 0.6614 0.39181 0.62773 0.0
C419 C 0.68786 0.37517 0.63359 0.0
C420 C 0.68297 0.38223 0.69532 0.0
C421 C 0.65677 0.3991 0.69067 0.0
H422 H 0.69958 0.3662 0.61109 0.0
H423 H 0.69049 0.37716 0.72187 0.0
H424 H 0.77226 0.38187 0.64522 0.0
H425 H 0.78783 0.41363 0.74842 0.0
H426 H 0.62679 0.2785 0.6791 0.0
H427 H 0.65306 0.39461 0.60101 0.0
H428 H 0.64456 0.40667 0.71382 0.0
C429 C 0.4016 1.00968 0.47427 0.0
C430 C 0.37951 0.03133 0.4728 0.0
N431 N 0.37427 0.03821 0.43864 0.0
N432 N 0.41072 1.00284 0.44126 0.0
C433 C 0.39346 0.02041 0.41996 0.0
H434 H 0.41029 0.99944 0.49813 0.0
Co435 Co 0.4407 0.97412 0.4322 0.0
C436 C 0.46074 0.98297 0.35619 0.0
O437 O 0.47025 0.95488 0.35501 0.0
N438 N 0.47139 0.94472 0.42489 0.0
C439 C 0.49679 0.90125 0.42336 0.0
C440 C 0.46868 0.91431 0.42315 0.0
C441 C 0.50163 0.94938 0.42578 0.0
N442 N 0.51748 0.92333 0.42567 0.0
O443 O 0.46955 0.99937 0.45625 0.0
H444 H 0.44779 0.9019 0.42275 0.0
H445 H 0.51196 0.97142 0.42802 0.0
O446 O 0.44899 0.99321 0.38493 0.0
C447 C 0.47246 0.98881 0.48767 0.0
O448 O 0.4571 0.96445 0.49599 0.0
N449 N 0.41132 0.94799 0.41423 0.0
C450 C 0.37946 0.89483 0.40325 0.0
C451 C 0.38838 0.91283 0.37441 0.0
C452 C 0.40419 0.93973 0.38049 0.0
C453 C 0.39901 0.93309 0.44226 0.0
C454 C 0.38311 0.90635 0.43742 0.0
H455 H 0.4118 0.9526 0.35809 0.0
H456 H 0.40429 0.94033 0.46883 0.0
H457 H 0.39446 0.01951 0.39141 0.0
H458 H 0.36828 0.04138 0.49531 0.0
H459 H 0.50156 0.87727 0.42232 0.0
H460 H 0.38475 0.90531 0.34752 0.0
H461 H 0.37636 0.89344 0.46045 0.0
C462 C 0.78668 0.63431 0.20982 0.0
C463 C 0.76408 0.61315 0.21157 0.0
N464 N 0.74 0.62369 0.19369 0.0
N465 N 0.77727 0.65817 0.19042 0.0
C466 C 0.7483 0.65146 0.18222 0.0
H467 H 0.80873 0.63177 0.22148 0.0
Co468 Co 0.79955 0.69268 0.17643 0.0
C469 C 0.77029 0.67522 0.10649 0.0
O470 O 0.7746 0.64629 0.11263 0.0
N471 N 0.82096 0.72692 0.16228 0.0
C472 C 0.84089 0.76158 0.12701 0.0
C473 C 0.82704 0.73415 0.12834 0.0
C474 C 0.83193 0.75034 0.18128 0.0
N475 N 0.84414 0.77188 0.16025 0.0
O476 O 0.77052 0.71847 0.19964 0.0
H477 H 0.82157 0.72063 0.10552 0.0
H478 H 0.83125 0.75134 0.20982 0.0
O479 O 0.77787 0.69446 0.13019 0.0
C480 C 0.77777 0.7192 0.23248 0.0
O481 O 0.7992 0.70089 0.24337 0.0
N482 N 0.83126 0.66843 0.15913 0.0
C483 C 0.88704 0.64007 0.14965 0.0
C484 C 0.87733 0.64868 0.18328 0.0
C485 C 0.84978 0.66325 0.18724 0.0
C486 C 0.8405 0.66082 0.12578 0.0
C487 C 0.86839 0.64638 0.12054 0.0
H488 H 0.84342 0.67142 0.21308 0.0
H489 H 0.82767 0.66721 0.10282 0.0
H490 H 0.73384 0.66652 0.16735 0.0
H491 H 0.76586 0.59099 0.22358 0.0
H492 H 0.84779 0.77322 0.10316 0.0
H493 H 0.89163 0.64559 0.20625 0.0
H494 H 0.87572 0.64107 0.09394 0.0
C495 C 0.13048 0.01894 0.98437 0.0
C496 C 0.15173 0.99648 0.98188 0.0
N497 N 0.15473 0.98901 0.94762 0.0
N498 N 0.1199 0.02573 0.95185 0.0
C499 C 0.13544 1.0073 0.92984 0.0
H500 H 0.12361 0.02997 1.00851 0.0
Co501 Co 0.09042 0.05534 0.94387 0.0
C502 C 0.06331 0.04288 0.87078 0.0
O503 O 0.04725 0.06777 0.87154 0.0
N504 N 0.06054 0.08554 0.93807 0.0
C505 C 0.03612 0.12958 0.93883 0.0
C506 C 0.06398 0.1159 0.93783 0.0
C507 C 0.03026 0.08153 0.9398 0.0
N508 N 0.01498 0.10786 0.9404 0.0
O509 O 0.06167 0.03163 0.97049 0.0
H510 H 0.08527 0.12767 0.93808 0.0
H511 H 0.0195 0.05964 0.94114 0.0
O512 O 0.08021 0.03574 0.8972 0.0
C513 C 0.06053 0.04283 1.00174 0.0
O514 O 0.0782 0.06581 1.00903 0.0
N515 N 0.11938 0.08017 0.92282 0.0
C516 C 0.15177 0.13245 0.90804 0.0
C517 C 0.13692 0.11677 0.88087 0.0
C518 C 0.12069 0.09054 0.88883 0.0
C519 C 0.13648 0.09314 0.94853 0.0
C520 C 0.1527 0.11941 0.94182 0.0
H521 H 0.10739 0.08051 0.86825 0.0
H522 H 0.1348 0.08498 0.97542 0.0
H523 H 0.13273 1.00722 0.90143 0.0
H524 H 0.16466 0.98701 1.00352 0.0
H525 H 0.03182 0.15366 0.93847 0.0
H526 H 0.13589 0.12599 0.85435 0.0
H527 H 0.1632 0.13092 0.96384 0.0
C528 C 0.76879 0.87698 0.72185 0.0
C529 C 0.74704 0.89895 0.72005 0.0
N530 N 0.74005 0.90363 0.68583 0.0
N531 N 0.77556 0.86748 0.68896 0.0
C532 C 0.75789 0.88433 0.66742 0.0
H533 H 0.7791 0.86858 0.7458 0.0
Co534 Co 0.804 0.8374 0.68039 0.0
C535 C 0.79676 0.81767 0.60416 0.0
O536 O 0.82485 0.80824 0.60411 0.0
N537 N 0.83307 0.80662 0.67374 0.0
C538 C 0.87571 0.78 0.67433 0.0
C539 C 0.86351 0.80854 0.67451 0.0
C540 C 0.82751 0.77655 0.67288 0.0
N541 N 0.853 0.7599 0.67349 0.0
O542 O 0.77833 0.80865 0.70423 0.0
H543 H 0.87637 0.82912 0.67645 0.0
H544 H 0.8051 0.76698 0.67364 0.0
O545 O 0.78552 0.82911 0.63258 0.0
C546 C 0.78862 0.80546 0.7357 0.0
O547 O 0.81286 0.8208 0.74438 0.0
N548 N 0.83051 0.86662 0.66265 0.0
C549 C 0.8835 0.89872 0.65198 0.0
C550 C 0.86573 0.88986 0.62305 0.0
C551 C 0.83884 0.87404 0.62897 0.0
C552 C 0.84525 0.87882 0.69079 0.0
C553 C 0.87191 0.89484 0.68611 0.0
H554 H 0.82597 0.86682 0.60648 0.0
H555 H 0.83791 0.8734 0.71731 0.0
H556 H 0.7587 0.88293 0.6389 0.0
H557 H 0.73694 0.91041 0.74237 0.0
H558 H 0.89947 0.77443 0.6756 0.0
H559 H 0.87335 0.89367 0.5962 0.0
H560 H 0.88469 0.90157 0.70919 0.0
C561 C 0.39774 0.51824 0.98088 0.0
C562 C 0.37596 0.49632 0.97851 0.0
N563 N 0.3713 0.49033 0.94409 0.0
N564 N 0.40711 0.52582 0.94813 0.0
C565 C 0.39047 0.5085 0.92615 0.0
H566 H 0.40592 0.52827 1.00504 0.0
Co567 Co 0.43618 0.55502 0.93923 0.0
C568 C 0.45642 0.54683 0.86303 0.0
O569 O 0.46491 0.57522 0.8618 0.0
N570 N 0.46594 0.58493 0.93184 0.0
C571 C 0.49084 0.6285 0.92858 0.0
C572 C 0.46288 0.61532 0.92986 0.0
C573 C 0.49616 0.58039 0.93141 0.0
N574 N 0.51172 0.60648 0.93014 0.0
O575 O 0.46583 0.53029 0.9633 0.0
H576 H 0.44191 0.62764 0.92983 0.0
H577 H 0.50674 0.55838 0.93303 0.0
O578 O 0.44515 0.53621 0.89189 0.0
C579 C 0.46955 0.53991 0.99497 0.0
O580 O 0.45347 0.56328 1.00525 0.0
N581 N 0.40616 0.58048 0.92087 0.0
C582 C 0.37422 0.63313 0.90665 0.0
C583 C 0.38238 0.61351 0.87906 0.0
C584 C 0.3982 0.58688 0.8868 0.0
C585 C 0.39404 0.59663 0.94804 0.0
C586 C 0.37816 0.62326 0.94156 0.0
H587 H 0.40516 0.57269 0.86525 0.0
H588 H 0.39974 0.59066 0.97497 0.0
H589 H 0.39242 0.50915 0.89764 0.0
H590 H 0.36393 0.48607 1.00035 0.0
H591 H 0.4954 0.65246 0.92672 0.0
H592 H 0.37829 0.61962 0.85174 0.0
H593 H 0.37183 0.6374 0.9637 0.0
C594 C 0.75691 0.14415 0.22446 0.0
C595 C 0.77887 0.1224 0.22335 0.0
N596 N 0.79177 0.12295 0.19114 0.0
N597 N 0.7555 0.1585 0.19306 0.0
C598 C 0.7769 0.14485 0.17297 0.0
H599 H 0.74244 0.14884 0.24677 0.0
Co600 Co 0.72724 0.18933 0.18569 0.0
C601 C 0.73364 0.21019 0.10989 0.0
O602 O 0.70552 0.21951 0.11037 0.0
N603 N 0.69818 0.22073 0.18032 0.0
C604 C 0.65514 0.24682 0.18106 0.0
C605 C 0.66774 0.2185 0.18008 0.0
C606 C 0.70331 0.25096 0.18118 0.0
N607 N 0.67751 0.26725 0.18195 0.0
O608 O 0.75341 0.21742 0.20992 0.0
H609 H 0.65499 0.1978 0.18015 0.0
H610 H 0.72555 0.26086 0.18282 0.0
O611 O 0.74521 0.19845 0.13799 0.0
C612 C 0.74415 0.2193 0.24198 0.0
O613 O 0.72069 0.20298 0.25116 0.0
N614 N 0.7003 0.16063 0.16748 0.0
C615 C 0.64871 0.12652 0.15527 0.0
C616 C 0.66689 0.136 0.12693 0.0
C617 C 0.69315 0.15262 0.13365 0.0
C618 C 0.68479 0.14859 0.19523 0.0
C619 C 0.65882 0.13168 0.18977 0.0
H620 H 0.7066 0.1598 0.11155 0.0
H621 H 0.69095 0.15469 0.22191 0.0
H622 H 0.78156 0.15078 0.14574 0.0
H623 H 0.78433 0.10674 0.24443 0.0
H624 H 0.63126 0.25199 0.18164 0.0
H625 H 0.66011 0.13182 0.09986 0.0
H626 H 0.6454 0.12516 0.21246 0.0
C627 C 0.12974 0.50813 0.47396 0.0
C628 C 0.15178 0.52981 0.47234 0.0
N629 N 0.15537 0.5379 0.43833 0.0
N630 N 0.11912 0.50273 0.44116 0.0
C631 C 0.13531 0.52114 0.41985 0.0
H632 H 0.12213 0.49684 0.49766 0.0
Co633 Co 0.08864 0.47489 0.43218 0.0
C634 C 0.06933 0.48352 0.35581 0.0
O635 O 0.05999 0.45539 0.3547 0.0
N636 N 0.05743 0.44646 0.42499 0.0
C637 C 0.03017 0.40427 0.4252 0.0
C638 C 0.05885 0.41594 0.42574 0.0
C639 C 0.02748 0.45261 0.42372 0.0
N640 N 1.01046 0.42738 0.42412 0.0
O641 O 0.06028 0.501 0.45563 0.0
H642 H 0.07917 0.40265 0.42791 0.0
H643 H 0.01824 0.47523 0.42434 0.0
O644 O 0.08082 0.49385 0.38463 0.0
C645 C 0.05662 0.49129 0.48728 0.0
O646 O 0.07194 0.46728 0.49722 0.0
N647 N 0.11749 0.44791 0.41454 0.0
C648 C 0.14986 0.395 0.4032 0.0
C649 C 0.14151 0.41352 0.37457 0.0
C650 C 0.12549 0.44032 0.38085 0.0
C651 C 0.12915 0.43243 0.44256 0.0
C652 C 0.14525 0.40579 0.43753 0.0
H653 H 0.11863 0.45378 0.35857 0.0
H654 H 0.12329 0.43923 0.46913 0.0
H655 H 0.13233 0.52245 0.3915 0.0
H656 H 0.16464 0.53856 0.49439 0.0
H657 H 0.02425 0.38057 0.4264 0.0
H658 H 0.14587 0.40656 0.34761 0.0
H659 H 0.15154 0.39243 0.46042 0.0
C660 C 0.77764 0.1473 0.85714 0.0
C661 C 0.75546 0.12574 0.85768 0.0
N662 N 0.74408 0.12444 0.8906 0.0
N663 N 0.78031 0.1597 0.88952 0.0
C664 C 0.75973 0.14503 0.9096 0.0
H665 H 0.79119 0.1534 0.83449 0.0
Co666 Co 0.80758 0.19066 0.89847 0.0
C667 C 0.79864 0.21069 0.97431 0.0
O668 O 0.82668 0.22014 0.97522 0.0
N669 N 0.83558 0.22238 0.90546 0.0
C670 C 0.87757 0.24988 0.90707 0.0
C671 C 0.86606 0.22112 0.90673 0.0
C672 C 0.8293 0.25237 0.90538 0.0
N673 N 0.85442 0.26951 0.90602 0.0
O674 O 0.7812 0.2185 0.87429 0.0
H675 H 0.87957 0.20087 0.90645 0.0
H676 H 0.80676 0.26155 0.90327 0.0
O677 O 0.78828 0.19883 0.94569 0.0
C678 C 0.79037 0.2222 0.84245 0.0
O679 O 0.81445 0.20722 0.83222 0.0
N680 N 0.83466 0.16228 0.91717 0.0
C681 C 0.88748 0.13092 0.932 0.0
C682 C 0.86752 0.13874 0.95934 0.0
C683 C 0.84074 0.15411 0.95128 0.0
C684 C 0.85163 0.15104 0.89019 0.0
C685 C 0.8783 0.13545 0.89698 0.0
H686 H 0.82597 0.16028 0.97262 0.0
H687 H 0.84599 0.15691 0.86322 0.0
H688 H 0.75609 0.14939 0.93742 0.0
H689 H 0.7487 0.11159 0.83576 0.0
H690 H 0.90123 0.2559 0.90734 0.0
H691 H 0.87325 0.13432 0.98671 0.0
H692 H 0.89284 0.12945 0.87505 0.0
C693 C 0.12943 0.52281 0.10419 0.0
C694 C 0.15028 0.49992 0.10585 0.0
N695 N 0.15221 0.49053 0.13961 0.0
N696 N 0.11812 0.528 0.13672 0.0
C697 C 0.13272 0.50814 0.15796 0.0
H698 H 0.12323 0.5352 0.08065 0.0
Co699 Co 0.08875 0.55746 0.14491 0.0
C700 C 0.06809 0.55034 0.22111 0.0
O701 O 0.05808 0.57827 0.22114 0.0
N702 N 0.05881 0.58765 0.15102 0.0
C703 C 0.03432 0.6316 0.14871 0.0
C704 C 0.06216 0.61799 0.14933 0.0
C705 C 0.0285 0.58356 0.15152 0.0
N706 N 1.01317 0.60991 0.14993 0.0
O707 O 0.05943 0.53239 0.12138 0.0
H708 H 0.08329 0.62986 0.14716 0.0
H709 H 0.01784 0.5616 0.15125 0.0
O710 O 0.07994 0.53942 0.19278 0.0
C711 C 0.05718 0.54206 0.08951 0.0
O712 O 0.07338 0.56566 0.0804 0.0
N713 N 0.11862 0.58332 0.16255 0.0
C714 C 0.15256 0.63539 0.17267 0.0
C715 C 0.1418 0.61884 0.20178 0.0
C716 C 0.12513 0.59242 0.19618 0.0
C717 C 0.13202 0.59709 0.13439 0.0
C718 C 0.14888 0.62328 0.13878 0.0
H719 H 0.11645 0.58065 0.21882 0.0
H720 H 0.12688 0.58951 0.10792 0.0
H721 H 0.12916 0.50649 0.18621 0.0
H722 H 0.16361 0.49143 0.08404 0.0
H723 H 0.02994 0.65562 0.14667 0.0
H724 H 0.14479 0.62717 0.22846 0.0
H725 H 0.15639 0.63538 0.11549 0.0
C726 C 0.76345 0.87958 0.35535 0.0
C727 C 0.7848 0.90159 0.3606 0.0
N728 N 0.78818 0.90566 0.39563 0.0
N729 N 0.75356 0.86943 0.38692 0.0
C730 C 0.76896 0.88588 0.41105 0.0
H731 H 0.75548 0.87176 0.33 0.0
Co732 Co 0.7242 0.83967 0.39305 0.0
C733 C 0.73164 0.817 0.46857 0.0
O734 O 0.70341 0.80806 0.46923 0.0
N735 N 0.69453 0.80935 0.39806 0.0
C736 C 0.65162 0.78334 0.3972 0.0
C737 C 0.66415 0.81171 0.39669 0.0
C738 C 0.69976 0.7792 0.39936 0.0
N739 N 0.67408 0.76291 0.3988 0.0
O740 O 0.74912 0.81097 0.36744 0.0
H741 H 0.65154 0.83248 0.39447 0.0
H742 H 0.7221 0.76935 0.39939 0.0
O743 O 0.7423 0.82899 0.44016 0.0
C744 C 0.73902 0.80978 0.33565 0.0
O745 O 0.71627 0.82747 0.3273 0.0
N746 N 0.6982 0.86876 0.41241 0.0
C747 C 0.64551 0.90097 0.42557 0.0
C748 C 0.66381 0.89111 0.4537 0.0
C749 C 0.69045 0.87516 0.44654 0.0
C750 C 0.68322 0.88224 0.38516 0.0
C751 C 0.65664 0.89825 0.39108 0.0
H752 H 0.70363 0.86705 0.46843 0.0
H753 H 0.69022 0.87777 0.35829 0.0
H754 H 0.76627 0.88328 0.43932 0.0
H755 H 0.79653 0.91412 0.3402 0.0
H756 H 0.62779 0.77814 0.39603 0.0
H757 H 0.65675 0.89418 0.48088 0.0
H758 H 0.64356 0.90584 0.36855 0.0
C759 C 0.39912 0.50868 0.60953 0.0
C760 C 0.37695 0.5303 0.61132 0.0
N761 N 0.37269 0.5374 0.6455 0.0
N762 N 0.40916 0.50237 0.64239 0.0
C763 C 0.39247 0.52014 0.6639 0.0
H764 H 0.40715 0.49801 0.58566 0.0
Co765 Co 0.43931 0.47409 0.65132 0.0
C766 C 0.4573 0.4806 0.72816 0.0
O767 O 0.46602 0.45225 0.72843 0.0
N768 N 0.47029 0.44509 0.65851 0.0
C769 C 0.4969 0.40238 0.65982 0.0
C770 C 0.46841 0.41459 0.65929 0.0
C771 C 0.50035 0.45065 0.65897 0.0
N772 N 0.51699 0.4251 0.65938 0.0
O773 O 0.4681 0.50028 0.62857 0.0
H774 H 0.4479 0.40158 0.65849 0.0
H775 H 0.50996 0.47303 0.65726 0.0
O776 O 0.44683 0.49222 0.6994 0.0
C777 C 0.47195 0.49097 0.59682 0.0
O778 O 0.45667 0.46715 0.58645 0.0
N779 N 0.41003 0.44725 0.66817 0.0
C780 C 0.37704 0.3948 0.67923 0.0
C781 C 0.38444 0.41367 0.70778 0.0
C782 C 0.4007 0.44028 0.70161 0.0
C783 C 0.39918 0.43154 0.63998 0.0
C784 C 0.3828 0.40508 0.64487 0.0
H785 H 0.40661 0.45416 0.72385 0.0
H786 H 0.40589 0.438 0.61354 0.0
H787 H 0.39486 0.52056 0.69237 0.0
H788 H 0.36443 0.53964 0.58927 0.0
H789 H 0.50242 0.37854 0.65973 0.0
H790 H 0.37912 0.40712 0.73467 0.0
H791 H 0.37719 0.39145 0.62205 0.0
C792 C 0.25111 0.14671 0.35845 0.0
C793 C 0.27365 0.12541 0.3587 0.0
N794 N 0.28448 0.12329 0.39182 0.0
N795 N 0.24762 0.15811 0.39123 0.0
C796 C 0.26811 0.14311 0.41122 0.0
H797 H 0.23799 0.15341 0.33567 0.0
Co798 Co 0.21995 0.18888 0.40053 0.0
C799 C 0.2302 0.20958 0.47625 0.0
O800 O 0.20289 0.22105 0.47735 0.0
N801 N 0.19152 0.22039 0.40776 0.0
C802 C 0.14868 0.24679 0.40858 0.0
C803 C 0.16109 0.21838 0.40948 0.0
C804 C 0.19685 0.25055 0.40624 0.0
N805 N 0.1712 0.26696 0.40591 0.0
O806 O 0.24604 0.21697 0.37625 0.0
H807 H 0.14822 0.19776 0.41013 0.0
H808 H 0.21908 0.26039 0.40376 0.0
O809 O 0.23948 0.19674 0.44769 0.0
C810 C 0.23632 0.22115 0.34469 0.0
O811 O 0.21172 0.20684 0.33502 0.0
N812 N 0.19306 0.16025 0.41917 0.0
C813 C 0.14002 0.12854 0.43235 0.0
C814 C 0.15823 0.13844 0.46043 0.0
C815 C 0.1851 0.15395 0.45328 0.0
C816 C 0.17743 0.1478 0.39182 0.0
C817 C 0.15074 0.13204 0.39776 0.0
H818 H 0.1982 0.16199 0.47521 0.0
H819 H 0.18411 0.1528 0.36495 0.0
H820 H 0.27125 0.1468 0.43926 0.0
H821 H 0.28109 0.11207 0.33637 0.0
H822 H 0.12485 0.25215 0.40922 0.0
H823 H 0.15097 0.1356 0.48758 0.0
H824 H 0.13735 0.12514 0.37524 0.0
C825 C 0.63166 0.50339 0.11521 0.0
C826 C 0.65219 0.52646 0.11687 0.0
N827 N 0.65008 0.53949 0.14892 0.0
N828 N 0.61669 0.50148 0.14613 0.0
C829 C 0.6286 0.52368 0.1664 0.0
H830 H 0.628 0.48876 0.09278 0.0
Co831 Co 0.58598 0.47334 0.1532 0.0
C832 C 0.5652 0.48014 0.22913 0.0
O833 O 0.55544 0.45216 0.229 0.0
N834 N 0.55461 0.44476 0.15855 0.0
C835 C 0.5275 0.40249 0.15748 0.0
C836 C 0.55614 0.41426 0.15758 0.0
C837 C 0.52463 0.45082 0.15915 0.0
N838 N 0.50769 0.42553 0.15833 0.0
O839 O 0.55811 0.5 0.12893 0.0
H840 H 0.57653 0.40103 0.15595 0.0
H841 H 0.51535 0.47343 0.15861 0.0
O842 O 0.57705 0.49124 0.20089 0.0
C843 C 0.55633 0.49071 0.09689 0.0
O844 O 0.57263 0.4671 0.08802 0.0
N845 N 0.61451 0.4458 0.17132 0.0
C846 C 0.64928 0.39406 0.18257 0.0
C847 C 0.6391 0.41146 0.21127 0.0
C848 C 0.62212 0.43775 0.20507 0.0
C849 C 0.62673 0.43074 0.14335 0.0
C850 C 0.64397 0.40479 0.14831 0.0
H851 H 0.61445 0.45056 0.22745 0.0
H852 H 0.62078 0.43741 0.11675 0.0
H853 H 0.62159 0.5284 0.19323 0.0
H854 H 0.66803 0.53264 0.09633 0.0
H855 H 0.52167 0.37878 0.15623 0.0
H856 H 0.64322 0.40415 0.2382 0.0
H857 H 0.65092 0.39195 0.12535 0.0
C858 C 0.2726 0.88195 0.85525 0.0
C859 C 0.25047 0.90349 0.85832 0.0
N860 N 0.2429 0.90599 0.89268 0.0
N861 N 0.27906 0.87061 0.88745 0.0
C862 C 0.26082 0.88589 0.90987 0.0
H863 H 0.28329 0.87496 0.83093 0.0
Co864 Co 0.30754 0.84016 0.89442 0.0
C865 C 0.30313 0.82089 0.97069 0.0
O866 O 0.33171 0.8131 0.97015 0.0
N867 N 0.33661 0.80882 0.89981 0.0
C868 C 0.37916 0.78193 0.90037 0.0
C869 C 0.36709 0.81052 0.90015 0.0
C870 C 0.33093 0.7787 0.90026 0.0
N871 N 0.35637 0.76194 0.89985 0.0
O872 O 0.28086 0.81189 0.87209 0.0
H873 H 0.3802 0.83098 0.89989 0.0
H874 H 0.30853 0.76907 0.89979 0.0
O875 O 0.29072 0.8315 0.94252 0.0
C876 C 0.28925 0.80831 0.83998 0.0
O877 O 0.3127 0.82375 0.82879 0.0
N878 N 0.33473 0.86906 0.91117 0.0
C879 C 0.38739 0.90137 0.92255 0.0
C880 C 0.36821 0.89432 0.95096 0.0
C881 C 0.34146 0.87845 0.94461 0.0
C882 C 0.35063 0.87985 0.88305 0.0
C883 C 0.37726 0.89584 0.88811 0.0
H884 H 0.32724 0.87287 0.96671 0.0
H885 H 0.34423 0.87326 0.85658 0.0
H886 H 0.26117 0.88274 0.93822 0.0
H887 H 0.24044 0.9161 0.83675 0.0
H888 H 0.40294 0.77635 0.90088 0.0
H889 H 0.37458 0.89963 0.97789 0.0
H890 H 0.39109 0.90128 0.86537 0.0
C891 C 0.90027 0.51864 0.60414 0.0
C892 C 0.87862 0.49665 0.60647 0.0
N893 N 0.87438 0.48992 0.64084 0.0
N894 N 0.90993 0.52578 0.63685 0.0
C895 C 0.89355 0.50812 0.65879 0.0
H896 H 0.90831 0.52887 0.57997 0.0
Co897 Co 0.93938 0.5547 0.64542 0.0
C898 C 0.95933 0.54687 0.72154 0.0
O899 O 0.96749 0.57536 0.72264 0.0
N900 N 0.96951 0.58415 0.65238 0.0
C901 C 0.99559 0.62705 0.65232 0.0
C902 C 0.96723 0.6146 0.65129 0.0
C903 C 0.99955 0.5788 0.65418 0.0
N904 N 0.01589 0.60445 0.654 0.0
O905 O 0.96849 0.52972 0.62123 0.0
H906 H 0.94655 0.62727 0.6486 0.0
H907 H 1.00933 0.5564 0.65388 0.0
O908 O 0.94828 0.53598 0.69277 0.0
C909 C 0.97109 0.5403 0.5898 0.0
O910 O 0.95515 0.56433 0.58146 0.0
N911 N 0.90977 0.58054 0.66354 0.0
C912 C 0.87518 0.63208 0.67447 0.0
C913 C 0.88503 0.61459 0.7033 0.0
C914 C 0.90198 0.58835 0.69724 0.0
C915 C 0.8972 0.59516 0.63545 0.0
C916 C 0.88005 0.62114 0.64025 0.0
H917 H 0.90967 0.57556 0.71967 0.0
H918 H 0.90305 0.58827 0.60891 0.0
H919 H 0.89514 0.5092 0.68729 0.0
H920 H 0.86704 0.48625 0.58445 0.0
H921 H 1.0009 0.65089 0.6511 0.0
H922 H 0.88105 0.622 0.73018 0.0
H923 H 0.8732 0.63397 0.61719 0.0
C924 C 0.26627 0.8744 0.2245 0.0
C925 C 0.28748 0.89686 0.22372 0.0
N926 N 0.29248 0.9045 0.18976 0.0
N927 N 0.25817 0.8673 0.19119 0.0
C928 C 0.27457 0.88603 0.17046 0.0
H929 H 0.25718 0.86407 0.24808 0.0
Co930 Co 0.22886 0.83845 0.18127 0.0
C931 C 0.23776 0.8186 0.10566 0.0
O932 O 0.20937 0.81031 0.10422 0.0
N933 N 0.19888 0.80897 0.17324 0.0
C934 C 0.1553 0.78413 0.17212 0.0
C935 C 0.16856 0.81218 0.17323 0.0
C936 C 0.20334 0.7787 0.17198 0.0
N937 N 0.17725 0.7631 0.17148 0.0
O938 O 0.25276 0.80867 0.20582 0.0
H939 H 0.15653 0.83331 0.17531 0.0
H940 H 0.22537 0.76824 0.17325 0.0
O941 O 0.24833 0.82968 0.13457 0.0
C942 C 0.24164 0.80432 0.23669 0.0
O943 O 0.21706 0.81921 0.24536 0.0
N944 N 0.20431 0.86878 0.16231 0.0
C945 C 0.15763 0.90946 0.14997 0.0
C946 C 0.17442 0.89783 0.12163 0.0
C947 C 0.19823 0.87774 0.12842 0.0
C948 C 0.18992 0.882 0.19003 0.0
C949 C 0.16649 0.90227 0.18451 0.0
H950 H 0.21086 0.86918 0.10636 0.0
H951 H 0.19547 0.87513 0.21671 0.0
H952 H 0.27294 0.88657 0.14191 0.0
H953 H 0.29864 0.90648 0.2465 0.0
H954 H 0.13133 0.77955 0.17267 0.0
H955 H 0.16868 0.90355 0.09459 0.0
H956 H 0.15413 0.91068 0.20718 0.0
C957 C 0.90038 0.51447 0.97169 0.0
C958 C 0.8779 0.53551 0.96781 0.0
N959 N 0.8723 0.53908 0.93305 0.0
N960 N 0.90928 0.50483 0.93957 0.0
C961 C 0.89158 0.52003 0.91644 0.0
H962 H 0.90939 0.50653 0.99655 0.0
Co963 Co 0.93896 0.47568 0.93295 0.0
C964 C 0.9603 0.48141 0.85701 0.0
O965 O 0.97004 0.4534 0.85787 0.0
N966 N 0.96932 0.44595 0.92805 0.0
C967 C 0.99532 0.40293 0.93025 0.0
C968 C 0.96697 0.41554 0.9298 0.0
C969 C 0.99943 0.45109 0.92737 0.0
N970 N 0.01572 0.42536 0.92888 0.0
O971 O 0.96776 0.50151 0.95619 0.0
H972 H 0.94621 0.403 0.93185 0.0
H973 H 1.00925 0.47342 0.92738 0.0
O974 O 0.94823 0.49292 0.88489 0.0
C975 C 0.97096 0.4926 0.98824 0.0
O976 O 0.95476 0.46951 0.99904 0.0
N977 N 0.90968 0.44921 0.91539 0.0
C978 C 0.8755 0.39747 0.90465 0.0
C979 C 0.88589 0.41449 0.87575 0.0
C980 C 0.90266 0.44077 0.88168 0.0
C981 C 0.89656 0.43509 0.94346 0.0
C982 C 0.87959 0.40899 0.93877 0.0
H983 H 0.91085 0.45307 0.85916 0.0
H984 H 0.90184 0.44248 0.96999 0.0
H985 H 0.89226 0.51646 0.88817 0.0
H986 H 0.8666 0.54735 0.98904 0.0
H987 H 1.00051 0.37907 0.93215 0.0
H988 H 0.88253 0.40662 0.84893 0.0
H989 H 0.87226 0.39653 0.96188 0.0
C990 C 0.274 0.14883 0.73056 0.0
C991 C 0.25165 0.12747 0.73094 0.0
N992 N 0.2406 0.12499 0.69797 0.0
N993 N 0.27716 0.15992 0.69753 0.0
C994 C 0.25665 0.14468 0.67803 0.0
H995 H 0.28743 0.15557 0.75302 0.0
Co996 Co 0.30525 0.18987 0.68725 0.0
C997 C 0.29733 0.20785 0.6105 0.0
O998 O 0.32552 0.21685 0.60976 0.0
N999 N 0.33423 0.22063 0.67914 0.0
C1000 C 0.37735 0.2464 0.67761 0.0
C1001 C 0.36465 0.21815 0.67769 0.0
C1002 C 0.3292 0.25088 0.67938 0.0
N1003 N 0.35502 0.26692 0.67929 0.0
O1004 O 0.27956 0.21897 0.71015 0.0
H1005 H 0.3773 0.19733 0.67774 0.0
H1006 H 0.30708 0.2611 0.68128 0.0
O1007 O 0.28626 0.19716 0.63943 0.0
C1008 C 0.2891 0.22301 0.74178 0.0
O1009 O 0.31319 0.20799 0.75196 0.0
N1010 N 0.33164 0.16019 0.67012 0.0
C1011 C 0.38317 0.12573 0.65855 0.0
C1012 C 0.36457 0.13421 0.63013 0.0
C1013 C 0.33835 0.15105 0.63655 0.0
C1014 C 0.34747 0.14903 0.69813 0.0
C1015 C 0.37345 0.13193 0.69298 0.0
H1016 H 0.32462 0.15756 0.61439 0.0
H1017 H 0.34151 0.15596 0.72462 0.0
H1018 H 0.25345 0.14793 0.64991 0.0
H1019 H 0.24465 0.11415 0.75352 0.0
H1020 H 0.40123 0.25143 0.677 0.0
H1021 H 0.37105 0.1292 0.60315 0.0
H1022 H 0.38718 0.12611 0.71569 0.0
C1023 C 0.62853 0.5225 0.47908 0.0
C1024 C 0.65041 0.50067 0.47654 0.0
N1025 N 0.65389 0.49347 0.4422 0.0
N1026 N 0.61798 0.52906 0.44655 0.0
C1027 C 0.63406 0.51124 0.42449 0.0
H1028 H 0.62085 0.53294 0.50325 0.0
Co1029 Co 0.58763 0.55718 0.43822 0.0
C1030 C 0.56669 0.54801 0.36269 0.0
O1031 O 0.55794 0.57635 0.36104 0.0
N1032 N 0.55662 0.58581 0.43149 0.0
C1033 C 0.52937 0.62807 0.43172 0.0
C1034 C 0.55807 0.61631 0.43234 0.0
C1035 C 0.52672 0.57973 0.43021 0.0
N1036 N 0.5097 0.605 0.43052 0.0
O1037 O 0.55957 0.53165 0.46331 0.0
H1038 H 0.5784 0.62949 0.4346 0.0
H1039 H 0.51754 0.55711 0.43079 0.0
O1040 O 0.57844 0.53778 0.39146 0.0
C1041 C 0.55686 0.54194 0.4948 0.0
O1042 O 0.57221 0.56628 0.50315 0.0
N1043 N 0.61626 0.58361 0.419 0.0
C1044 C 0.64989 0.6354 0.40567 0.0
C1045 C 0.64002 0.61708 0.37767 0.0
C1046 C 0.62358 0.59077 0.38493 0.0
C1047 C 0.62873 0.59917 0.44636 0.0
C1048 C 0.64535 0.6253 0.44036 0.0
H1049 H 0.616 0.57728 0.36309 0.0
H1050 H 0.62327 0.5928 0.47322 0.0
H1051 H 0.63172 0.51187 0.39604 0.0
H1052 H 0.6626 0.49064 0.49841 0.0
H1053 H 0.52341 0.65178 0.43289 0.0
H1054 H 0.64377 0.62379 0.35047 0.0
H1055 H 0.65221 0.63877 0.46283 0.0
C1056 C 0.24901 0.26837 0.26152 0.0
C1057 C 0.27646 0.28306 0.26809 0.0
C1058 C 0.23644 0.24848 0.28647 0.0
C1059 C 0.25075 0.24234 0.31912 0.0
H1060 H 0.23692 0.27245 0.23708 0.0
H1061 H 0.21509 0.23799 0.28002 0.0
S1062 S 0.32391 0.27379 0.34875 0.0
N1063 N 0.31825 0.28916 0.30951 0.0
N1064 N 0.29441 0.25198 0.35606 0.0
C1065 C 0.27839 0.25657 0.32588 0.0
C1066 C 0.29127 0.27682 0.30049 0.0
C1067 C 0.02988 0.9953 0.54363 0.0
C1068 C 0.0315 1.00513 0.57909 0.0
C1069 C 1.00845 1.00703 0.52002 0.0
C1070 C 0.9877 0.02914 0.53081 0.0
H1071 H 0.04536 0.97832 0.53381 0.0
H1072 H 1.00838 0.99887 0.49303 0.0
S1073 S 0.98177 0.06211 0.62107 0.0
N1074 N 1.01009 0.03799 0.62389 0.0
N1075 N 0.96975 0.06011 0.57985 0.0
C1076 C 0.98893 0.03911 0.56629 0.0
C1077 C 1.01083 0.02714 0.59031 0.0
C1078 C 0.28441 0.78509 0.77991 0.0
C1079 C 0.27488 0.78634 0.81553 0.0
C1080 C 0.27219 0.76423 0.756 0.0
C1081 C 0.24986 0.74371 0.76663 0.0
H1082 H 0.30154 0.80041 0.77019 0.0
H1083 H 0.28017 0.7644 0.72893 0.0
S1084 S 0.21754 0.73692 0.8572 0.0
N1085 N 0.24206 0.76479 0.86029 0.0
N1086 N 0.21904 0.72554 0.81571 0.0
C1087 C 0.24017 0.74458 0.80227 0.0
C1088 C 0.25266 0.76588 0.82659 0.0
C1089 C 0.49961 0.03725 1.03038 0.0
C1090 C 0.49648 0.02511 0.06478 0.0
C1091 C 0.51969 0.02482 1.00564 0.0
C1092 C 0.53758 0.99964 1.01413 0.0
H1093 H 0.48645 0.05671 1.02228 0.0
H1094 H 0.52115 0.03507 0.97967 0.0
S1095 S 0.53803 0.95907 0.10058 0.0
N1096 N 0.51304 0.98635 0.10591 0.0
N1097 N 0.55073 0.96281 0.0598 0.0
C1098 C 0.53465 0.98716 0.04848 0.0
C1099 C 0.51416 0.9999 0.07366 0.0
C1100 C 0.23936 0.77646 0.29435 0.0
C1101 C 0.25545 0.78365 0.2632 0.0
C1102 C 0.25173 0.75775 0.32065 0.0
C1103 C 0.28072 0.7454 0.31692 0.0
H1104 H 0.21683 0.78525 0.29854 0.0
H1105 H 0.2383 0.75268 0.34384 0.0
S1106 S 0.33296 0.75846 0.24129 0.0
N1107 N 0.3023 0.77766 0.23079 0.0
N1108 N 0.32579 0.74271 0.27996 0.0
C1109 C 0.29724 0.75271 0.28605 0.0
C1110 C 0.28456 0.77171 0.25926 0.0
C1111 C 0.51583 0.02243 0.50406 0.0
C1112 C 0.49326 1.00205 0.51432 0.0
C1113 C 0.53638 0.034 0.5288 0.0
C1114 C 0.53524 0.02571 0.56487 0.0
H1115 H 0.51793 0.02926 0.47665 0.0
H1116 H 0.55342 0.04956 0.51937 0.0
S1117 S 0.47938 0.9743 0.60591 0.0
N1118 N 0.47026 0.97486 0.5636 0.0
N1119 N 0.50898 0.99661 0.6097 0.0
C1120 C 0.51265 1.00556 0.57558 0.0
C1121 C 0.49164 0.99378 0.55044 0.0
C1122 C 0.28443 0.24476 0.80265 0.0
C1123 C 0.27492 0.24456 0.76698 0.0
C1124 C 0.27226 0.26504 0.82735 0.0
C1125 C 0.25003 0.28603 0.81749 0.0
H1126 H 0.30142 0.22898 0.81182 0.0
H1127 H 0.28015 0.26401 0.85444 0.0
S1128 S 0.21817 0.29583 0.72703 0.0
N1129 N 0.24246 0.26777 0.72296 0.0
N1130 N 0.21957 0.30598 0.76896 0.0
C1131 C 0.24048 0.28629 0.78176 0.0
C1132 C 0.25289 0.26555 0.75666 0.0
C1133 C 1.0103 0.02099 1.01868 0.0
C1134 C 0.03817 0.03319 1.02878 0.0
C1135 C 0.98824 1.01389 0.04402 0.0
C1136 C 0.99312 0.01855 0.08054 0.0
H1137 H 1.00532 0.0172 0.991 0.0
H1138 H 0.96726 1.00414 1.03484 0.0
S1139 S 0.06298 0.04877 0.12089 0.0
N1140 N 0.0698 0.04912 0.07798 0.0
N1141 N 0.0284 0.03553 0.12534 0.0
C1142 C 0.02085 0.0309 0.09096 0.0
C1143 C 0.04334 0.03817 0.06517 0.0
C1144 C 0.74294 0.74115 0.77562 0.0
C1145 C 0.75147 0.74137 0.81161 0.0
C1146 C 0.75461 0.76209 0.75131 0.0
C1147 C 0.77536 0.78418 0.76195 0.0
H1148 H 0.72705 0.72455 0.76591 0.0
H1149 H 0.74755 0.76071 0.72395 0.0
S1150 S 0.80416 0.79543 0.8535 0.0
N1151 N 0.7814 0.76611 0.85675 0.0
N1152 N 0.80335 0.80558 0.81149 0.0
C1153 C 0.78396 0.78482 0.79798 0.0
C1154 C 0.77207 0.7634 0.82268 0.0
C1155 C 0.78322 0.28823 0.28096 0.0
C1156 C 0.77676 0.28603 0.31747 0.0
C1157 C 0.77338 0.26629 0.25676 0.0
C1158 C 0.75668 0.24115 0.26804 0.0
H1159 H 0.79593 0.30723 0.27079 0.0
H1160 H 0.77844 0.26939 0.22898 0.0
S1161 S 0.73563 0.22343 0.36112 0.0
N1162 N 0.75374 0.2559 0.36378 0.0
N1163 N 0.73538 0.21454 0.31874 0.0
C1164 C 0.75048 0.23839 0.30462 0.0
C1165 C 0.76041 0.26084 0.32919 0.0
C1166 C 0.77249 0.26376 0.7566 0.0
C1167 C 0.75175 0.28603 0.767 0.0
C1168 C 0.7844 0.24311 0.78119 0.0
C1169 C 0.77611 0.24381 0.81726 0.0
H1170 H 0.77939 0.26202 0.7292 0.0
H1171 H 0.80026 0.22636 0.77166 0.0
S1172 S 0.72371 0.29865 0.85864 0.0
N1173 N 0.72415 0.30818 0.81644 0.0
N1174 N 0.74652 0.2693 0.86221 0.0
C1175 C 0.75556 0.26606 0.82809 0.0
C1176 C 0.74344 0.28717 0.80311 0.0
C1177 C 0.7639 0.76054 0.3194 0.0
C1178 C 0.74986 0.78754 0.3089 0.0
C1179 C 0.77182 0.73836 0.29448 0.0
C1180 C 0.76614 0.74217 0.25793 0.0
H1181 H 0.76832 0.75622 0.34712 0.0
H1182 H 0.78264 0.71798 0.3041 0.0
S1183 S 0.73156 0.80973 0.21636 0.0
N1184 N 0.73162 0.81742 0.25906 0.0
N1185 N 0.74663 0.77576 0.21259 0.0
C1186 C 0.75236 0.76918 0.24704 0.0
C1187 C 0.74428 0.79182 0.27239 0.0
C1188 C 0.49134 0.53538 0.05604 0.0
C1189 C 0.49192 0.52669 1.02009 0.0
C1190 C 0.51241 0.5242 0.0806 0.0
C1191 C 0.53507 0.50383 0.07032 0.0
H1192 H 0.47429 0.55093 0.06553 0.0
H1193 H 0.51064 0.53129 0.10791 0.0
S1194 S 0.54755 0.47498 0.97896 0.0
N1195 N 0.51772 0.49713 0.97538 0.0
N1196 N 0.55741 0.47618 1.02101 0.0
C1197 C 0.53616 0.49522 1.03428 0.0
C1198 C 0.51459 0.50657 1.00935 0.0
C1199 C 0.0154 0.50772 0.57343 0.0
C1200 C 0.99222 0.52751 0.56314 0.0
C1201 C 0.03624 0.49663 0.54868 0.0
C1202 C 0.03483 0.50483 0.5126 0.0
H1203 H 0.01771 0.50101 0.60085 0.0
H1204 H 0.05372 0.4815 0.5581 0.0
S1205 S 0.97747 0.55474 0.47151 0.0
N1206 N 0.96841 0.55402 0.51384 0.0
N1207 N 1.0077 0.53319 0.46774 0.0
C1208 C 1.01166 0.52441 0.50188 0.0
C1209 C 0.99035 0.53569 0.52702 0.0
C1210 C 1.01187 0.51065 0.07416 0.0
C1211 C 0.03597 0.52892 0.06322 0.0
C1212 C 0.99085 0.49951 0.04967 0.0
C1213 C 0.99302 0.50615 1.0132 0.0
H1214 H 1.00892 0.50524 0.10189 0.0
H1215 H 0.97262 0.48562 0.05958 0.0
S1216 S 0.0531 0.5514 0.97045 0.0
N1217 N 0.06158 0.55209 1.01294 0.0
N1218 N 0.02197 0.53121 0.96731 0.0
C1219 C 0.01717 0.52412 1.00183 0.0
C1220 C 0.03866 0.53543 1.02671 0.0
C1221 C 0.51319 0.50858 0.51094 0.0
C1222 C 0.53602 0.52857 0.5214 0.0
C1223 C 0.49249 0.497 0.53556 0.0
C1224 C 0.49372 0.50489 0.57172 0.0
H1225 H 0.51098 0.5021 0.48346 0.0
H1226 H 0.47526 0.48177 0.52597 0.0
S1227 S 0.55027 0.5551 0.61326 0.0
N1228 N 0.55937 0.5549 0.57094 0.0
N1229 N 0.52038 0.53314 0.61684 0.0
C1230 C 0.51659 0.52463 0.58263 0.0
C1231 C 0.53775 0.53641 0.55759 0.0
C1232 C 0.34244 0.21183 0.16149 0.0
C1233 C 0.35984 0.23114 0.18271 0.0
C1234 C 0.34809 0.18062 0.16072 0.0
C1235 C 0.37108 0.1676 0.18151 0.0
H1236 H 0.32527 0.2211 0.14423 0.0
H1237 H 0.33506 0.1667 0.14283 0.0
S1238 S 0.4206 0.2082 0.24465 0.0
N1239 N 0.39889 0.23482 0.22754 0.0
N1240 N 0.41002 0.1764 0.22563 0.0
C1241 C 0.38746 0.18655 0.20432 0.0
C1242 C 0.38177 0.21826 0.20498 0.0
C1243 C 0.0579 0.13357 0.45918 0.0
C1244 C 0.04443 0.10974 0.44039 0.0
C1245 C 0.08914 0.13823 0.45823 0.0
C1246 C 0.10818 0.11935 0.43827 0.0
H1247 H 0.0441 0.14905 0.47432 0.0
H1248 H 0.09826 0.15768 0.47188 0.0
S1249 S 0.08447 0.05257 0.38616 0.0
N1250 N 0.0527 0.06622 0.40247 0.0
N1251 N 0.11153 0.07475 0.40107 0.0
C1252 C 0.09517 0.0947 0.42051 0.0
C1253 C 0.0633 0.08991 0.42153 0.0
C1254 C 0.13825 0.84149 0.70365 0.0
C1255 C 0.15825 0.86257 0.68866 0.0
C1256 C 0.14323 0.8104 0.70041 0.0
C1257 C 0.16836 0.79903 0.68198 0.0
H1258 H 0.11772 0.84899 0.71649 0.0
H1259 H 0.12695 0.79512 0.71202 0.0
S1260 S 0.22886 0.84472 0.64031 0.0
N1261 N 0.20546 0.86996 0.65713 0.0
N1262 N 0.21431 0.81139 0.64998 0.0
C1263 C 0.18926 0.81982 0.66815 0.0
C1264 C 0.18429 0.85158 0.67169 0.0
C1265 C 0.46384 0.93761 0.90741 0.0
C1266 C 0.48309 0.91907 0.92754 0.0
C1267 C 0.43252 0.93304 0.90751 0.0
C1268 C 0.41936 0.91005 0.92814 0.0
H1269 H 0.4732 0.95488 0.89035 0.0
H1270 H 0.41859 0.94691 0.89041 0.0
S1271 S 0.45987 0.85762 0.98846 0.0
N1272 N 0.48667 0.87882 0.9711 0.0
N1273 N 0.42801 0.86975 0.97082 0.0
C1274 C 0.43831 0.89246 0.94983 0.0
C1275 C 0.47013 0.89705 0.94959 0.0
C1276 C 0.34693 0.85032 0.4188 0.0
C1277 C 0.37084 0.8626 0.3989 0.0
C1278 C 0.34212 0.819 0.42035 0.0
C1279 C 0.36124 0.79881 0.40242 0.0
H1280 H 0.33245 0.86498 0.43422 0.0
H1281 H 0.32407 0.81043 0.43682 0.0
S1282 S 0.42528 0.81939 0.34406 0.0
N1283 N 0.41277 0.85201 0.35928 0.0
N1284 N 0.40315 0.79338 0.3615 0.0
C1285 C 0.38425 0.81083 0.38106 0.0
C1286 C 0.38914 0.84266 0.3794 0.0
C1287 C 0.43366 0.13336 0.63126 0.0
C1288 C 0.41472 0.11567 0.65272 0.0
C1289 C 0.46491 0.12884 0.63103 0.0
C1290 C 0.47843 0.10634 0.65206 0.0
H1291 H 0.42449 0.152 0.61603 0.0
H1292 H 0.4787 0.14354 0.61484 0.0
S1293 S 0.43856 0.05203 0.71027 0.0
N1294 N 0.41141 0.07321 0.69339 0.0
N1295 N 0.47034 0.06488 0.69316 0.0
C1296 C 0.45965 0.08738 0.67215 0.0
C1297 C 0.42775 0.09205 0.67248 0.0
C1298 C 0.14474 0.21606 0.88904 0.0
C1299 C 0.17004 0.22845 0.90612 0.0
C1300 C 0.14013 0.18483 0.88777 0.0
C1301 C 0.16071 0.16458 0.90342 0.0
H1302 H 0.12801 0.23066 0.87702 0.0
H1303 H 0.11946 0.17663 0.87595 0.0
S1304 S 0.23202 0.18511 0.94865 0.0
N1305 N 0.21679 0.21785 0.93754 0.0
N1306 N 0.20867 0.15898 0.93392 0.0
C1307 C 0.18693 0.17652 0.91896 0.0
C1308 C 0.19151 0.20845 0.92055 0.0
C1309 C 0.12298 0.95166 0.16571 0.0
C1310 C 0.12891 0.92606 0.14481 0.0
C1311 C 0.09343 0.96176 0.1711 0.0
C1312 C 0.06895 0.94694 0.15533 0.0
H1313 H 0.14104 0.96237 0.18034 0.0
H1314 H 0.08943 0.97995 0.18964 0.0
S1315 S 0.0725 0.88192 0.09425 0.0
N1316 N 0.10802 0.88823 0.10517 0.0
N1317 N 0.05243 0.90797 0.11488 0.0
C1318 C 0.0747 0.92347 0.13148 0.0
C1319 C 0.1048 0.91287 0.12622 0.0
C1320 C 0.68964 0.81754 0.91269 0.0
C1321 C 0.66841 0.79787 0.89751 0.0
C1322 C 0.68531 0.84899 0.91184 0.0
C1323 C 0.65993 0.8618 0.89513 0.0
H1324 H 0.70898 0.80846 0.92662 0.0
H1325 H 0.70141 0.86333 0.92527 0.0
S1326 S 0.59929 0.81998 0.84863 0.0
N1327 N 0.62243 0.79341 0.86302 0.0
N1328 N 0.61409 0.85231 0.86163 0.0
C1329 C 0.63938 0.84235 0.87836 0.0
C1330 C 0.64365 0.81043 0.87953 0.0
C1331 C 0.95848 0.93701 0.66946 0.0
C1332 C 0.97905 0.91772 0.65237 0.0
C1333 C 0.9273 0.93196 0.66739 0.0
C1334 C 0.91557 0.90767 0.64778 0.0
H1335 H 0.96662 0.9553 0.68584 0.0
H1336 H 0.91231 0.94651 0.68229 0.0
S1337 S 0.95989 0.85271 0.59492 0.0
N1338 N 0.98546 0.87523 0.61247 0.0
N1339 N 0.92699 0.86528 0.60914 0.0
C1340 C 0.93587 0.88925 0.62898 0.0
C1341 C 0.96758 0.89434 0.63121 0.0
C1342 C 0.88757 0.18916 0.39367 0.0
C1343 C 0.86672 0.1698 0.41019 0.0
C1344 C 0.8831 0.2204 0.39292 0.0
C1345 C 0.85771 0.23371 0.40886 0.0
H1346 H 0.90826 0.18029 0.38249 0.0
H1347 H 0.89993 0.23427 0.38006 0.0
S1348 S 0.79528 0.19282 0.45358 0.0
N1349 N 0.8186 0.16589 0.44064 0.0
N1350 N 0.81077 0.22489 0.44068 0.0
C1351 C 0.83611 0.21457 0.4245 0.0
C1352 C 0.84052 0.18259 0.42489 0.0
C1353 C 0.56656 0.12971 0.12939 0.0
C1354 C 0.55354 0.10675 0.15009 0.0
C1355 C 0.59778 0.13438 0.12907 0.0
C1356 C 0.6172 0.11634 0.14962 0.0
H1357 H 0.5524 0.14469 0.11393 0.0
H1358 H 0.60656 0.15338 0.11421 0.0
S1359 S 0.59477 0.05138 0.2058 0.0
N1360 N 0.56262 0.06448 0.18981 0.0
N1361 N 0.62148 0.073 0.18889 0.0
C1362 C 0.60465 0.09223 0.16892 0.0
C1363 C 0.5728 0.08745 0.16919 0.0
C1364 C 0.68807 0.21133 0.66076 0.0
C1365 C 0.66994 0.2305 0.68137 0.0
C1366 C 0.68327 0.18 0.66052 0.0
C1367 C 0.66042 0.16678 0.68127 0.0
H1368 H 0.70512 0.22077 0.6435 0.0
H1369 H 0.69674 0.16615 0.64297 0.0
S1370 S 0.60933 0.20704 0.7431 0.0
N1371 N 0.63045 0.23391 0.72572 0.0
N1372 N 0.62093 0.17523 0.72483 0.0
C1373 C 0.64339 0.18562 0.70359 0.0
C1374 C 0.64821 0.21745 0.70369 0.0
C1375 C 0.60082 0.93413 0.41197 0.0
C1376 C 0.6134 0.90973 0.43094 0.0
C1377 C 0.56952 0.93915 0.41138 0.0
C1378 C 0.54966 0.91975 0.42937 0.0
H1379 H 0.61521 0.94885 0.3965 0.0
H1380 H 0.5607 0.95753 0.3955 0.0
S1381 S 0.57111 0.85445 0.48571 0.0
N1382 N 0.60342 0.86709 0.46992 0.0
N1383 N 0.54489 0.87709 0.46949 0.0
C1384 C 0.56201 0.89629 0.44992 0.0
C1385 C 0.5938 0.89119 0.4506 0.0
C1386 C 0.89564 0.8383 0.15333 0.0
C1387 C 0.88751 0.85661 0.18221 0.0
C1388 C 0.88221 0.81041 0.14759 0.0
C1389 C 0.85911 0.79963 0.1696 0.0
H1390 H 0.91237 0.84568 0.13434 0.0
H1391 H 0.88993 0.79728 0.12523 0.0
S1392 S 0.82847 0.83865 0.24865 0.0
N1393 N 0.85499 0.86161 0.23379 0.0
N1394 N 0.8281 0.80951 0.2214 0.0
C1395 C 0.85038 0.81752 0.19862 0.0
C1396 C 0.86472 0.84601 0.20507 0.0
C1397 C 0.96375 0.09282 0.92212 0.0
C1398 C 0.98275 0.11175 0.94193 0.0
C1399 C 0.93255 0.09802 0.92059 0.0
C1400 C 0.91921 0.12208 0.93922 0.0
H1401 H 0.97325 0.07469 0.90646 0.0
H1402 H 0.91888 0.08373 0.90379 0.0
S1403 S 0.95886 0.17628 0.99773 0.0
N1404 N 0.98579 0.15383 0.98289 0.0
N1405 N 0.9273 0.164 0.97962 0.0
C1406 C 0.93782 0.14021 0.96055 0.0
C1407 C 0.96956 0.13499 0.96193 0.0
C1408 C 0.88317 0.6836 0.69893 0.0
C1409 C 0.86507 0.66379 0.67915 0.0
C1410 C 0.87857 0.71487 0.69759 0.0
C1411 C 0.85564 0.72756 0.67655 0.0
H1412 H 0.90215 0.67505 0.71401 0.0
H1413 H 0.89351 0.7293 0.71261 0.0
S1414 S 0.80024 0.68528 0.62241 0.0
N1415 N 0.82174 0.65882 0.64023 0.0
N1416 N 0.81344 0.71776 0.63718 0.0
C1417 C 0.83635 0.70794 0.65812 0.0
C1418 C 0.84101 0.67603 0.65951 0.0
C1419 C 0.59408 0.59505 0.91108 0.0
C1420 C 0.60749 0.61947 0.9289 0.0
C1421 C 0.56283 0.59029 0.91254 0.0
C1422 C 0.54394 0.61003 0.93146 0.0
H1423 H 0.60773 0.58008 0.89503 0.0
H1424 H 0.55323 0.57182 0.89759 0.0
S1425 S 0.56801 0.67589 0.98487 0.0
N1426 N 0.59951 0.66276 0.96739 0.0
N1427 N 0.54103 0.65325 0.97082 0.0
C1428 C 0.5572 0.63367 0.95067 0.0
C1429 C 0.58893 0.63849 0.94927 0.0
C1430 C 0.64398 0.34212 0.20752 0.0
C1431 C 0.66095 0.3628 0.18749 0.0
C1432 C 0.65027 0.3111 0.20653 0.0
C1433 C 0.67389 0.2995 0.18568 0.0
H1434 H 0.62456 0.34972 0.22247 0.0
H1435 H 0.63599 0.29593 0.2215 0.0
S1436 S 0.72712 0.34444 0.13138 0.0
N1437 N 0.70409 0.36981 0.14867 0.0
N1438 N 0.7157 0.31137 0.14656 0.0
C1439 C 0.69219 0.32006 0.16721 0.0
C1440 C 0.68573 0.35172 0.16813 0.0
C1441 C 0.96502 0.40268 0.44805 0.0
C1442 C 0.9781 0.42527 0.42683 0.0
C1443 C 0.93374 0.39845 0.44896 0.0
C1444 C 0.91431 0.41655 0.4285 0.0
H1445 H 0.97916 0.38771 0.46354 0.0
H1446 H 0.92489 0.37975 0.46428 0.0
S1447 S 0.93691 0.48056 0.37095 0.0
N1448 N 0.96907 0.46723 0.38662 0.0
N1449 N 0.91012 0.45945 0.38858 0.0
C1450 C 0.92694 0.44023 0.40857 0.0
C1451 C 0.95886 0.44459 0.40773 0.0
C1452 C 0.88456 0.34578 0.88119 0.0
C1453 C 0.86583 0.36562 0.90021 0.0
C1454 C 0.88009 0.31452 0.88246 0.0
C1455 C 0.85665 0.30184 0.90263 0.0
H1456 H 0.90389 0.3543 0.86678 0.0
H1457 H 0.89555 0.30007 0.86813 0.0
S1458 S 0.79949 0.34411 0.95438 0.0
N1459 N 0.82143 0.37059 0.93748 0.0
N1460 N 0.81323 0.31162 0.94016 0.0
C1461 C 0.83672 0.32146 0.92021 0.0
C1462 C 0.84132 0.35338 0.91899 0.0
C1463 C 0.93864 0.64376 0.1236 0.0
C1464 C 0.91816 0.62825 0.14537 0.0
C1465 C 0.96955 0.63702 0.12451 0.0
C1466 C 0.98106 0.61435 0.14697 0.0
H1467 H 0.93098 0.66231 0.10714 0.0
H1468 H 0.98468 0.65008 0.10804 0.0
S1469 S 0.9364 0.56546 0.20689 0.0
N1470 N 0.91115 0.58784 0.18818 0.0
N1471 N 0.9693 0.57527 0.18994 0.0
C1472 C 0.96062 0.59762 0.16747 0.0
C1473 C 0.92916 0.60458 0.1667 0.0
C1474 C 0.64771 0.71739 0.37764 0.0
C1475 C 0.67094 0.7305 0.39773 0.0
C1476 C 0.64248 0.6862 0.37842 0.0
C1477 C 0.66022 0.66688 0.39947 0.0
H1478 H 0.63303 0.73146 0.3617 0.0
H1479 H 0.62336 0.67742 0.36388 0.0
S1480 S 0.72549 0.68945 0.45474 0.0
N1481 N 0.71292 0.7215 0.43779 0.0
N1482 N 0.70347 0.66272 0.4387 0.0
C1483 C 0.6845 0.67946 0.4183 0.0
C1484 C 0.68981 0.71128 0.41753 0.0
C1485 C 0.59275 0.39363 0.63437 0.0
C1486 C 0.61291 0.41249 0.65263 0.0
C1487 C 0.56156 0.39839 0.63606 0.0
C1488 C 0.54926 0.42224 0.65597 0.0
H1489 H 0.60098 0.37404 0.62017 0.0
H1490 H 0.54691 0.3829 0.62216 0.0
S1491 S 0.5925 0.47973 0.70596 0.0
N1492 N 0.61858 0.45736 0.68895 0.0
N1493 N 0.5598 0.46604 0.69261 0.0
C1494 C 0.56921 0.44219 0.67291 0.0
C1495 C 0.60105 0.43734 0.67118 0.0
C1496 C 0.1825 0.35037 0.41842 0.0
C1497 C 0.15885 0.36292 0.39825 0.0
C1498 C 0.18727 0.31901 0.41968 0.0
C1499 C 0.16829 0.29913 0.40123 0.0
H1500 H 0.1967 0.36484 0.43439 0.0
H1501 H 0.20498 0.31016 0.43651 0.0
S1502 S 0.10519 0.32048 0.34178 0.0
N1503 N 0.11758 0.35292 0.35754 0.0
N1504 N 0.12701 0.29421 0.35941 0.0
C1505 C 0.1457 0.31144 0.37945 0.0
C1506 C 0.1409 0.34328 0.37802 0.0
C1507 C 0.46239 0.40045 0.13473 0.0
C1508 C 0.47533 0.4232 0.15572 0.0
C1509 C 0.43116 0.39586 0.13408 0.0
C1510 C 0.41159 0.41376 0.15454 0.0
H1511 H 0.4766 0.38563 0.11922 0.0
H1512 H 0.42248 0.37704 0.1189 0.0
S1513 S 0.4338 0.47806 0.2116 0.0
N1514 N 0.46603 0.46503 0.19584 0.0
N1515 N 0.40716 0.45671 0.19419 0.0
C1516 C 0.42407 0.43761 0.17424 0.0
C1517 C 0.45596 0.44229 0.17489 0.0
C1518 C 0.33924 0.71106 0.91789 0.0
C1519 C 0.35873 0.72949 0.898 0.0
C1520 C 0.34316 0.67956 0.91901 0.0
C1521 C 0.36647 0.66535 0.89989 0.0
H1522 H 0.32168 0.72119 0.93388 0.0
H1523 H 0.32848 0.66632 0.93586 0.0
S1524 S 0.42162 0.70343 0.84094 0.0
N1525 N 0.40038 0.73111 0.85631 0.0
N1526 N 0.40831 0.67222 0.85902 0.0
C1527 C 0.38511 0.68349 0.8785 0.0
C1528 C 0.38115 0.71547 0.87746 0.0
C1529 C 0.09243 0.63495 0.63115 0.0
C1530 C 0.11189 0.61678 0.6515 0.0
C1531 C 0.06121 0.63032 0.63155 0.0
C1532 C 0.04822 0.60731 0.65219 0.0
H1533 H 0.10118 0.65393 0.61624 0.0
H1534 H 0.04705 0.64525 0.61602 0.0
S1535 S 0.08953 0.55194 0.70789 0.0
N1536 N 0.11622 0.57346 0.69078 0.0
N1537 N 0.05737 0.56513 0.69208 0.0
C1538 C 0.06751 0.58806 0.67136 0.0
C1539 C 0.09936 0.59275 0.67092 0.0
C1540 C 0.14429 0.68761 0.19533 0.0
C1541 C 0.16261 0.66722 0.17654 0.0
C1542 C 0.14956 0.71877 0.19401 0.0
C1543 C 0.17341 0.73082 0.17394 0.0
H1544 H 0.12479 0.67959 0.20982 0.0
H1545 H 0.13456 0.73361 0.20845 0.0
S1546 S 0.22931 0.68693 0.12203 0.0
N1547 N 0.20682 0.66107 0.1392 0.0
N1548 N 0.21636 0.71978 0.13609 0.0
C1549 C 0.19269 0.71062 0.1562 0.0
C1550 C 0.18734 0.67882 0.1576 0.0
C1551 C 0.06048 0.39909 0.95261 0.0
C1552 C 0.04801 0.42231 0.93174 0.0
C1553 C 0.09165 0.39405 0.9537 0.0
C1554 C 0.1116 0.41202 0.93387 0.0
H1555 H 0.04595 0.38425 0.96769 0.0
H1556 H 0.09999 0.37488 0.96865 0.0
S1557 S 0.09084 0.47754 0.8776 0.0
N1558 N 0.05829 0.46465 0.89246 0.0
N1559 N 0.11701 0.45556 0.89516 0.0
C1560 C 0.09963 0.43637 0.91443 0.0
C1561 C 0.06782 0.44146 0.91324 0.0
C1562 C 0.34461 0.3502 0.66401 0.0
C1563 C 0.36788 0.36286 0.68455 0.0
C1564 C 0.33969 0.31887 0.66346 0.0
C1565 C 0.35818 0.29913 0.68296 0.0
H1566 H 0.33082 0.36454 0.64728 0.0
H1567 H 0.32224 0.30989 0.64643 0.0
S1568 S 0.42023 0.32087 0.74348 0.0
N1569 N 0.4083 0.35316 0.7266 0.0
N1570 N 0.39866 0.2945 0.72592 0.0
C1571 C 0.38044 0.31157 0.70498 0.0
C1572 C 0.38535 0.34339 0.70573 0.0
C1573 C 0.43275 0.63392 0.45431 0.0
C1574 C 0.41357 0.61583 0.43367 0.0
C1575 C 0.46403 0.62969 0.45381 0.0
C1576 C 0.47735 0.60714 0.4328 0.0
H1577 H 0.42373 0.65264 0.46942 0.0
H1578 H 0.47798 0.64463 0.46943 0.0
S1579 S 0.43689 0.55192 0.37653 0.0
N1580 N 0.40987 0.57294 0.39387 0.0
N1581 N 0.46886 0.56527 0.39251 0.0
C1582 C 0.45836 0.58783 0.4135 0.0
C1583 C 0.42644 0.59215 0.414 0.0
C1584 C 0.24895 0.3161 0.07482 0.0
C1585 C 0.28032 0.32032 0.07621 0.0
C1586 C 0.23346 0.3155 1.04228 0.0
C1587 C 0.2485 0.31973 1.00962 0.0
H1588 H 0.23633 0.31257 0.099 0.0
H1589 H 0.20933 0.31178 0.0429 0.0
S1590 S 0.33031 0.33454 0.99891 0.0
N1591 N 0.32574 0.33052 1.04199 0.0
N1592 N 0.29654 0.32999 0.9813 0.0
C1593 C 0.27973 0.32499 1.01077 0.0
C1594 C 0.29561 0.32511 0.04386 0.0
C1595 C 0.97694 1.00872 0.28805 0.0
C1596 C 0.94795 1.00768 0.27311 0.0
C1597 C 0.98115 0.01623 0.32389 0.0
C1598 C 0.9565 0.02308 0.34616 0.0
H1599 H 0.99632 1.00176 0.27261 0.0
H1600 H 1.00387 0.01578 0.3344 0.0
S1601 S 0.87602 0.0253 0.31838 0.0
N1602 N 0.89442 1.01494 0.28244 0.0
N1603 N 0.90205 0.03042 0.34897 0.0
C1604 C 0.92752 0.02373 0.33066 0.0
C1605 C 0.92333 0.01562 0.29441 0.0
C1606 C 0.23376 0.71355 0.54323 0.0
C1607 C 0.24859 0.70843 0.57587 0.0
C1608 C 0.24935 0.71309 0.51075 0.0
C1609 C 0.28061 0.70811 0.50944 0.0
H1610 H 0.20972 0.71791 0.54258 0.0
H1611 H 0.23693 0.7174 0.48659 0.0
S1612 S 0.33004 0.69152 0.58663 0.0
N1613 N 0.29632 0.69658 0.60418 0.0
N1614 N 0.3257 0.69629 0.54362 0.0
C1615 C 0.29568 0.70244 0.54175 0.0
C1616 C 0.27971 0.70243 0.57475 0.0
C1617 C 0.57054 0.98523 0.78947 0.0
C1618 C 0.57102 1.00033 0.82239 0.0
C1619 C 0.57099 1.00109 0.75711 0.0
C1620 C 0.5713 0.03283 0.75613 0.0
H1621 H 0.57005 0.96078 0.78856 0.0
H1622 H 0.57058 0.98834 0.7327 0.0
S1623 S 0.57314 0.08334 0.83479 0.0
N1624 N 0.57253 0.04895 0.85175 0.0
N1625 N 0.57276 0.07886 0.79147 0.0
C1626 C 0.57197 0.04824 0.78892 0.0
C1627 C 0.57201 0.03202 0.82183 0.0
C1628 C 0.75881 0.66373 1.04265 0.0
C1629 C 0.76227 0.68533 0.06973 0.0
C1630 C 0.75386 0.67224 1.00725 0.0
C1631 C 0.7521 0.70283 0.99695 0.0
H1632 H 0.7603 0.63984 0.04863 0.0
H1633 H 0.75148 0.6545 0.9878 0.0
S1634 S 0.75817 0.76859 0.05764 0.0
N1635 N 0.76239 0.73895 0.08371 0.0
N1636 N 0.75337 0.75493 1.01745 0.0
C1637 C 0.75511 0.72475 1.02382 0.0
C1638 C 0.76004 0.71604 0.06001 0.0
C1639 C 0.03662 0.01992 0.81946 0.0
C1640 C 0.06401 0.02594 0.83679 0.0
C1641 C 0.03593 1.0076 0.78527 0.0
C1642 C 0.0626 1.00161 0.76624 0.0
H1643 H 0.0154 0.02496 0.83243 0.0
H1644 H 1.01415 1.00308 0.77344 0.0
S1645 S 0.14044 1.01416 0.7992 0.0
N1646 N 0.11867 0.02524 0.83221 0.0
N1647 N 0.11741 1.00273 0.76758 0.0
C1648 C 0.09026 1.00779 0.78309 0.0
C1649 C 0.09095 0.01973 0.81843 0.0
C1650 C 0.73503 0.31708 0.54214 0.0
C1651 C 0.74994 0.32128 0.57488 0.0
C1652 C 0.75043 0.31895 0.50956 0.0
C1653 C 0.78159 0.32453 0.5082 0.0
H1654 H 0.71107 0.3124 0.54152 0.0
H1655 H 0.73794 0.31528 0.48533 0.0
S1656 S 0.83119 0.33881 0.58579 0.0
N1657 N 0.79766 0.3326 0.60332 0.0
N1658 N 0.82664 0.33568 0.54262 0.0
C1659 C 0.79673 0.32922 0.54066 0.0
C1660 C 0.78095 0.32773 0.57377 0.0
C1661 C 0.46128 0.98566 0.28956 0.0
C1662 C 0.46021 1.00079 0.32246 0.0
C1663 C 0.46114 1.00148 0.25718 0.0
C1664 C 0.46059 0.03323 0.25614 0.0
H1665 H 0.46202 0.96121 0.2887 0.0
H1666 H 0.46202 0.98872 0.23279 0.0
S1667 S 0.45693 0.08381 0.3346 0.0
N1668 N 0.45771 0.04946 0.35166 0.0
N1669 N 0.45805 0.07928 0.29131 0.0
C1670 C 0.45927 0.04867 0.28886 0.0
C1671 C 0.45889 0.03248 0.3218 0.0
C1672 C 0.74888 0.81455 0.56798 0.0
C1673 C 0.78025 0.81871 0.56963 0.0
C1674 C 0.73361 0.81368 0.53527 0.0
C1675 C 0.74891 0.81755 0.50271 0.0
H1676 H 0.73609 0.81129 0.59209 0.0
H1677 H 0.70945 0.81014 0.53565 0.0
S1678 S 0.83091 0.83179 0.49268 0.0
N1679 N 0.82597 0.82827 0.53576 0.0
N1680 N 0.79727 0.82722 0.4748 0.0
C1681 C 0.78018 0.82261 0.50414 0.0
C1682 C 0.7958 0.82303 0.53738 0.0
C1683 C 0.46007 0.54427 0.79645 0.0
C1684 C 0.45612 0.52917 0.82916 0.0
C1685 C 0.45975 0.52872 0.76394 0.0
C1686 C 0.45605 0.49723 0.76261 0.0
H1687 H 0.46331 0.56851 0.79576 0.0
H1688 H 0.46302 0.54142 0.73973 0.0
S1689 S 0.44318 0.4469 0.84008 0.0
N1690 N 0.44704 0.48081 0.85758 0.0
N1691 N 0.44695 0.45155 0.79698 0.0
C1692 C 0.4517 0.48184 0.79503 0.0
C1693 C 0.45159 0.49776 0.82808 0.0
C1694 C 0.78143 0.2119 0.07359 0.0
C1695 C 0.74988 0.20943 0.07518 0.0
C1696 C 0.79673 0.21247 1.04094 0.0
C1697 C 0.78128 0.20994 1.00833 0.0
H1698 H 0.7944 0.21401 0.09774 0.0
H1699 H 0.82105 0.21472 1.04139 0.0
S1700 S 0.69864 0.20074 0.99791 0.0
N1701 N 0.7037 0.20313 1.04106 0.0
N1702 N 0.73254 0.20362 0.98014 0.0
C1703 C 0.74979 0.20663 1.00961 0.0
C1704 C 0.73412 0.20655 0.04283 0.0
C1705 C 0.06691 0.48622 0.28917 0.0
C1706 C 0.0698 0.50129 0.32198 0.0
C1707 C 0.06706 0.50197 0.25672 0.0
C1708 C 0.06944 0.53361 0.25555 0.0
H1709 H 0.06466 0.46187 0.2884 0.0
H1710 H 0.06467 0.48929 0.23242 0.0
S1711 S 0.07909 0.58396 0.33342 0.0
N1712 N 0.07647 0.54979 0.35074 0.0
N1713 N 0.07612 0.57942 0.29023 0.0
C1714 C 0.07271 0.54897 0.28809 0.0
C1715 C 0.07308 0.53286 0.32108 0.0
C1716 C 0.24894 0.21118 0.57527 0.0
C1717 C 0.28031 0.20671 0.57629 0.0
C1718 C 0.23318 0.21216 0.54288 0.0
C1719 C 0.24794 0.20809 0.51003 0.0
H1720 H 0.23655 0.2147 0.59961 0.0
H1721 H 0.20908 0.21607 0.54374 0.0
S1722 S 0.32968 0.19319 0.49829 0.0
N1723 N 0.32544 0.1967 0.54147 0.0
N1724 N 0.29577 0.19801 0.48111 0.0
C1725 C 0.27917 0.20266 0.51081 0.0
C1726 C 0.29532 0.20213 0.54372 0.0
C1727 C 0.56727 0.5448 0.29617 0.0
C1728 C 0.56678 0.52991 0.32928 0.0
C1729 C 0.56722 0.52871 0.26405 0.0
C1730 C 0.56598 0.49698 0.26349 0.0
H1731 H 0.568 0.56924 0.29495 0.0
H1732 H 0.56769 0.5413 0.23947 0.0
S1733 S 0.56466 0.44699 0.34279 0.0
N1734 N 0.56563 0.48147 0.3593 0.0
N1735 N 0.56484 0.45117 0.2994 0.0
C1736 C 0.56557 0.48177 0.29646 0.0
C1737 C 0.56618 0.4982 0.32915 0.0
C1738 C 0.25552 0.81696 1.00669 0.0
C1739 C 0.2869 0.82097 1.00529 0.0
C1740 C 0.24013 0.8159 1.03921 0.0
C1741 C 0.25532 0.81939 0.07185 0.0
H1742 H 0.24276 0.81412 0.9825 0.0
H1743 H 0.21595 0.81254 1.03858 0.0
S1744 S 0.33734 0.83297 0.08262 0.0
N1745 N 0.33259 0.82988 1.03947 0.0
N1746 N 0.30358 0.82845 0.10025 0.0
C1747 C 0.28663 0.82421 0.07075 0.0
C1748 C 0.3024 0.82483 1.03764 0.0
C1749 C 0.95792 0.54484 0.78811 0.0
C1750 C 0.959 0.52937 0.75545 0.0
C1751 C 0.95786 0.52934 0.82069 0.0
C1752 C 0.95954 0.49764 0.82218 0.0
H1753 H 0.95684 0.56929 0.78862 0.0
H1754 H 0.95695 0.54236 0.84489 0.0
S1755 S 0.96203 0.44625 0.74436 0.0
N1756 N 0.9609 0.48042 0.72685 0.0
N1757 N 0.96145 0.45121 0.7876 0.0
C1758 C 0.9604 0.48185 0.78966 0.0
C1759 C 0.95993 0.49768 0.7565 0.0
C1760 C 0.20959 0.45134 0.19677 0.0
C1761 C 0.21562 0.42449 0.17798 0.0
C1762 C 0.18833 0.47245 0.1846 0.0
C1763 C 0.17244 0.46769 0.15301 0.0
H1764 H 0.22173 0.45634 0.22087 0.0
H1765 H 0.18486 0.49302 0.19952 0.0
S1766 S 0.17761 0.40004 0.09547 0.0
N1767 N 0.20226 0.39353 0.12732 0.0
N1768 N 0.16269 0.43342 0.10422 0.0
C1769 C 0.17781 0.44078 0.13422 0.0
C1770 C 0.19933 0.41917 0.14671 0.0
C1771 C 0.856 0.95467 0.4123 0.0
C1772 C 0.8473 0.97187 0.44188 0.0
C1773 C 0.83677 0.93282 0.39777 0.0
C1774 C 0.80809 0.92713 0.41228 0.0
H1775 H 0.87797 0.95793 0.40042 0.0
H1776 H 0.84445 0.92013 0.37504 0.0
S1777 S 0.7734 0.96735 0.48796 0.0
N1778 N 0.80715 0.98269 0.48394 0.0
N1779 N 0.77135 0.94133 0.45684 0.0
C1780 C 0.79901 0.94413 0.44175 0.0
C1781 C 0.8185 0.96656 0.45646 0.0
C1782 C 0.32362 0.60655 0.65225 0.0
C1783 C 0.30587 0.60039 0.68221 0.0
C1784 C 0.34565 0.58601 0.6407 0.0
C1785 C 0.35086 0.55866 0.65878 0.0
H1786 H 0.32082 0.6276 0.63799 0.0
H1787 H 0.35895 0.59168 0.61763 0.0
S1788 S 0.30852 0.53031 0.73643 0.0
N1789 N 0.29352 0.56374 0.72808 0.0
N1790 N 0.33531 0.52561 0.70662 0.0
C1791 C 0.33305 0.552 0.68841 0.0
C1792 C 0.31043 0.57274 0.70003 0.0
C1793 C 0.70397 0.06643 0.94563 0.0
C1794 C 0.67794 0.06002 0.92549 0.0
C1795 C 0.72504 0.08807 0.93462 0.0
C1796 C 0.72117 0.10391 0.90279 0.0
H1797 H 0.70841 0.05429 0.96994 0.0
H1798 H 0.74493 0.09188 0.9506 0.0
S1799 S 0.65622 0.09773 0.84146 0.0
N1800 N 0.64882 0.07303 0.87307 0.0
N1801 N 0.6889 0.1131 0.85203 0.0
C1802 C 0.69522 0.09812 0.88253 0.0
C1803 C 0.67354 0.0763 0.8939 0.0
C1804 C 0.18222 0.58644 0.44424 0.0
C1805 C 0.17677 0.55966 0.42525 0.0
C1806 C 0.20384 0.60742 0.43284 0.0
C1807 C 0.22092 0.60233 0.40209 0.0
H1808 H 0.16942 0.5913 0.46794 0.0
H1809 H 0.20685 0.62801 0.44783 0.0
S1810 S 0.21755 0.53402 0.34526 0.0
N1811 N 0.19147 0.52824 0.37567 0.0
N1812 N 0.23247 0.56724 0.35444 0.0
C1813 C 0.21614 0.57525 0.38334 0.0
C1814 C 0.19395 0.55405 0.39484 0.0
C1815 C 0.69125 0.97328 0.6807 0.0
C1816 C 0.67467 0.96867 0.64962 0.0
C1817 C 0.71281 0.95215 0.69194 0.0
C1818 C 0.71837 0.92538 0.67278 0.0
H1819 H 0.68805 0.99374 0.69591 0.0
H1820 H 0.72552 0.95709 0.71566 0.0
S1821 S 0.67861 0.90166 0.59107 0.0
N1822 N 0.66394 0.93499 0.60061 0.0
N1823 N 0.70387 0.89481 0.62217 0.0
C1824 C 0.7014 0.92029 0.64193 0.0
C1825 C 0.67967 0.94201 0.6303 0.0
C1826 C 0.34473 0.44145 0.94726 0.0
C1827 C 0.3496 0.4693 0.93016 0.0
C1828 C 0.32292 0.42107 0.93501 0.0
C1829 C 0.30508 0.42785 0.90529 0.0
H1830 H 0.35813 0.43527 0.97009 0.0
H1831 H 0.32035 0.39965 0.94854 0.0
S1832 S 0.30691 0.49925 0.85348 0.0
N1833 N 0.33363 0.50342 0.88347 0.0
N1834 N 0.29232 0.46549 0.86067 0.0
C1835 C 0.30933 0.45596 0.88842 0.0
C1836 C 0.33169 0.47657 0.90077 0.0
C1837 C 0.83421 0.06592 0.13634 0.0
C1838 C 0.85689 0.05573 0.15979 0.0
C1839 C 0.81387 0.089 0.14587 0.0
C1840 C 0.81535 0.10278 0.17927 0.0
H1841 H 0.83182 0.05567 0.11054 0.0
H1842 H 0.79612 0.09524 0.12758 0.0
S1843 S 0.87179 0.087 0.24935 0.0
N1844 N 0.88003 0.0628 0.21765 0.0
N1845 N 0.84289 0.10679 0.23449 0.0
C1846 C 0.83874 0.09398 0.20222 0.0
C1847 C 0.85923 0.07037 0.19278 0.0
C1848 C 0.82299 0.56484 0.93712 0.0
C1849 C 0.84959 0.55868 0.918 0.0
C1850 C 0.80125 0.58506 0.92433 0.0
C1851 C 0.80501 0.59969 0.89169 0.0
H1852 H 0.81882 0.55384 0.96222 0.0
H1853 H 0.78112 0.58904 0.93988 0.0
S1854 S 0.87095 0.59277 0.83185 0.0
N1855 N 0.87883 0.56991 0.86517 0.0
N1856 N 0.83753 0.60746 0.84078 0.0
C1857 C 0.83131 0.59372 0.87208 0.0
C1858 C 0.85367 0.5733 0.88528 0.0
C1859 C 0.20079 0.06585 0.64462 0.0
C1860 C 0.17469 0.05982 0.66479 0.0
C1861 C 0.22183 0.08762 0.65516 0.0
C1862 C 0.21786 0.10398 0.68653 0.0
H1863 H 0.20521 0.05343 0.62055 0.0
H1864 H 0.24173 0.0912 0.6391 0.0
S1865 S 0.15288 0.09839 0.74803 0.0
N1866 N 0.14556 0.07329 0.71695 0.0
N1867 N 0.18553 0.11372 0.73714 0.0
C1868 C 0.19194 0.09837 0.70698 0.0
C1869 C 0.1703 0.07637 0.69608 0.0
C1870 C 0.7025 0.46619 0.44592 0.0
C1871 C 0.67498 0.4716 0.42826 0.0
C1872 C 0.72309 0.44455 0.43368 0.0
C1873 C 0.71713 0.4277 0.40309 0.0
H1874 H 0.70841 0.47906 0.46919 0.0
H1875 H 0.74415 0.44145 0.44774 0.0
S1876 S 0.64773 0.43121 0.34851 0.0
N1877 N 0.64228 0.45674 0.37966 0.0
N1878 N 0.68136 0.41657 0.3563 0.0
C1879 C 0.68969 0.43255 0.38532 0.0
C1880 C 0.66855 0.4544 0.39794 0.0
C1881 C 0.3503 0.94445 0.13391 0.0
C1882 C 0.35581 0.97108 0.15316 0.0
C1883 C 0.32935 0.92295 0.14573 0.0
C1884 C 0.31303 0.92738 0.17718 0.0
H1885 H 0.36256 0.94008 0.10969 0.0
H1886 H 0.32627 0.9025 0.1305 0.0
S1887 S 0.31675 0.99505 0.23502 0.0
N1888 N 0.3419 1.00164 0.20377 0.0
N1889 N 0.30215 0.96168 0.22582 0.0
C1890 C 0.31784 0.95431 0.19621 0.0
C1891 C 0.33934 0.97603 0.18427 0.0
C1892 C 0.80515 0.44118 0.64836 0.0
C1893 C 0.81056 0.4246 0.67938 0.0
C1894 C 0.82593 0.46267 0.63629 0.0
C1895 C 0.85308 0.46822 0.65457 0.0
H1896 H 0.78437 0.43799 0.6338 0.0
H1897 H 0.82045 0.47534 0.61264 0.0
S1898 S 0.879 0.42847 0.73558 0.0
N1899 N 0.84556 0.41378 0.72719 0.0
N1900 N 0.88493 0.45377 0.7042 0.0
C1901 C 0.85899 0.45128 0.68532 0.0
C1902 C 0.83769 0.42955 0.69774 0.0
C1903 C 0.30406 0.08644 0.43512 0.0
C1904 C 0.30778 0.10292 0.40373 0.0
C1905 C 0.32563 0.0651 0.44592 0.0
C1906 C 0.35201 0.05964 0.42599 0.0
H1907 H 0.28395 0.08954 0.45097 0.0
H1908 H 0.32132 0.0525 0.46992 0.0
S1909 S 0.37347 0.09921 0.34313 0.0
N1910 N 0.3403 0.11368 0.35361 0.0
N1911 N 0.38122 0.07414 0.37424 0.0
C1912 C 0.35622 0.07651 0.39481 0.0
C1913 C 0.33406 0.09804 0.38366 0.0
C1914 C 0.70296 0.5834 0.20704 0.0
C1915 C 0.71369 0.60616 0.1841 0.0
C1916 C 0.68086 0.56267 0.19618 0.0
C1917 C 0.66877 0.56376 0.16185 0.0
H1918 H 0.71248 0.58098 0.23325 0.0
H1919 H 0.67437 0.54471 0.21409 0.0
S1920 S 0.68615 0.62084 0.09283 0.0
N1921 N 0.70842 0.6297 0.12617 0.0
N1922 N 0.66653 0.59133 0.10633 0.0
C1923 C 0.6778 0.58749 0.13945 0.0
C1924 C 0.70029 0.60858 0.15043 0.0
C1925 C 0.19258 0.97425 0.90299 0.0
C1926 C 0.17576 0.96733 0.93337 0.0
C1927 C 0.21461 0.95426 0.8902 0.0
C1928 C 0.2205 0.92638 0.90706 0.0
H1929 H 0.18922 0.99563 0.88957 0.0
H1930 H 0.22746 0.96097 0.86717 0.0
S1931 S 0.18011 0.8964 0.9856 0.0
N1932 N 0.16499 0.93005 0.97884 0.0
N1933 N 0.20587 0.89218 0.95446 0.0
C1934 C 0.20321 0.91892 0.93702 0.0
C1935 C 0.18096 0.93942 0.9502 0.0
loop_
_geom_bond_atom_site_label_1
_geom_bond_atom_site_label_2
_geom_bond_distance
_geom_bond_site_symmetry_2
_ccdc_geom_bond_type
C0 C1 1.351 . S
C0 N3 1.368 . S
C0 H5 0.931 . S
C1 C0 1.351 . S
C1 N2 1.373 . S
C1 H29 0.930 . S
N2 C1 1.373 . S
N2 C4 1.340 . S
N3 C0 1.368 . S
N3 C4 1.321 . S
N3 Co6 2.135 . S
C4 N2 1.340 . S
C4 N3 1.321 . S
C4 H28 0.930 . S
H5 C0 0.931 . S
Co6 N3 2.135 . S
Co6 N9 2.121 . S
Co6 O14 2.055 . S
Co6 O17 2.039 . S
Co6 N20 2.140 . S
C7 O8 1.227 . S
C7 O17 1.265 . S
O8 C7 1.227 . S
N9 Co6 2.121 . S
N9 C11 1.375 . S
N9 C12 1.313 . S
C10 C11 1.338 . S
C10 N13 1.377 . S
C10 H30 0.930 . S
C11 N9 1.375 . S
C11 C10 1.338 . S
C11 H15 0.931 . S
C12 N9 1.313 . S
C12 N13 1.344 . S
C12 H16 0.930 . S
N13 C10 1.377 . S
N13 C12 1.344 . S
O14 Co6 2.055 . S
O14 C18 1.253 . S
H15 C11 0.931 . S
H16 C12 0.930 . S
O17 Co6 2.039 . S
O17 C7 1.265 . S
C18 O14 1.253 . S
C18 O19 1.227 . S
O19 C18 1.227 . S
N20 Co6 2.140 . S
N20 C23 1.346 . S
N20 C24 1.345 . S
C21 C22 1.387 . S
C21 C25 1.391 . S
C22 C21 1.387 . S
C22 C23 1.369 . S
C22 H31 0.929 . S
C23 N20 1.346 . S
C23 C22 1.369 . S
C23 H26 0.928 . S
C24 N20 1.345 . S
C24 C25 1.371 . S
C24 H27 0.931 . S
C25 C21 1.391 . S
C25 C24 1.371 . S
C25 H32 0.930 . S
H26 C23 0.928 . S
H27 C24 0.931 . S
H28 C4 0.930 . S
H29 C1 0.930 . S
H30 C10 0.930 . S
H31 C22 0.929 . S
H32 C25 0.930 . S
C33 C34 1.351 . S
C33 N36 1.369 . S
C33 H38 0.931 1_565 S
C34 C33 1.351 . S
C34 N35 1.373 . S
C34 H62 0.930 . S
N35 C34 1.373 . S
N35 C37 1.340 . S
N36 C33 1.369 . S
N36 C37 1.336 . S
N36 Co39 2.118 1_565 S
C37 N35 1.340 . S
C37 N36 1.336 . S
C37 H61 0.930 . S
H38 C33 0.931 1_545 S
Co39 N36 2.118 1_545 S
Co39 N42 2.121 . S
Co39 O47 2.055 . S
Co39 O50 2.039 . S
Co39 N53 2.140 . S
C40 O41 1.227 . S
C40 O50 1.265 . S
O41 C40 1.227 . S
N42 Co39 2.121 . S
N42 C44 1.375 . S
N42 C45 1.313 1_655 S
C43 C44 1.338 1_455 S
C43 N46 1.377 . S
C43 H63 0.930 . S
C44 N42 1.375 . S
C44 C43 1.338 1_655 S
C44 H48 0.931 . S
C45 N42 1.313 1_455 S
C45 N46 1.344 . S
C45 H49 0.930 . S
N46 C43 1.377 . S
N46 C45 1.344 . S
O47 Co39 2.055 . S
O47 C51 1.253 . S
H48 C44 0.931 . S
H49 C45 0.930 . S
O50 Co39 2.039 . S
O50 C40 1.265 . S
C51 O47 1.253 . S
C51 O52 1.227 . S
O52 C51 1.227 . S
N53 Co39 2.140 . S
N53 C56 1.346 . S
N53 C57 1.345 . S
C54 C55 1.387 . S
C54 C58 1.391 . S
C55 C54 1.387 . S
C55 C56 1.369 . S
C55 H64 0.929 . S
C56 N53 1.346 . S
C56 C55 1.369 . S
C56 H59 0.928 . S
C57 N53 1.345 . S
C57 C58 1.371 . S
C57 H60 0.931 . S
C58 C54 1.391 . S
C58 C57 1.371 . S
C58 H65 0.930 . S
H59 C56 0.928 . S
H60 C57 0.931 . S
H61 C37 0.930 . S
H62 C34 0.930 . S
H63 C43 0.930 . S
H64 C55 0.929 . S
H65 C58 0.930 . S
C66 C67 1.351 . S
C66 N69 1.368 . S
C66 H71 0.931 . S
C67 C66 1.351 . S
C67 N68 1.373 . S
C67 H95 0.930 . S
N68 C67 1.373 . S
N68 C70 1.340 . S
N69 C66 1.368 . S
N69 C70 1.321 . S
N69 Co72 2.135 . S
C70 N68 1.340 . S
C70 N69 1.321 . S
C70 H94 0.930 . S
H71 C66 0.931 . S
Co72 N69 2.135 . S
Co72 N75 2.121 . S
Co72 O80 2.055 . S
Co72 O83 2.039 . S
Co72 N86 2.140 . S
C73 O74 1.227 . S
C73 O83 1.265 . S
O74 C73 1.227 . S
N75 Co72 2.121 . S
N75 C77 1.375 . S
N75 C78 1.313 . S
C76 C77 1.338 . S
C76 N79 1.377 . S
C76 H96 0.930 . S
C77 N75 1.375 . S
C77 C76 1.338 . S
C77 H81 0.931 . S
C78 N75 1.313 . S
C78 N79 1.344 . S
C78 H82 0.930 . S
N79 C76 1.377 . S
N79 C78 1.344 . S
O80 Co72 2.055 . S
O80 C84 1.253 . S
H81 C77 0.931 . S
H82 C78 0.930 . S
O83 Co72 2.039 . S
O83 C73 1.265 . S
C84 O80 1.253 . S
C84 O85 1.227 . S
O85 C84 1.227 . S
N86 Co72 2.140 . S
N86 C89 1.346 . S
N86 C90 1.345 . S
C87 C88 1.387 . S
C87 C91 1.391 . S
C88 C87 1.387 . S
C88 C89 1.369 . S
C88 H97 0.929 . S
C89 N86 1.346 . S
C89 C88 1.369 . S
C89 H92 0.928 . S
C90 N86 1.345 . S
C90 C91 1.371 . S
C90 H93 0.931 . S
C91 C87 1.391 . S
C91 C90 1.371 . S
C91 H98 0.930 . S
H92 C89 0.928 . S
H93 C90 0.931 . S
H94 C70 0.930 . S
H95 C67 0.930 . S
H96 C76 0.930 . S
H97 C88 0.929 . S
H98 C91 0.930 . S
C99 C100 1.351 . S
C99 N102 1.369 . S
C99 H104 0.931 1_545 S
C100 C99 1.351 . S
C100 N101 1.373 . S
C100 H128 0.930 . S
N101 C100 1.373 . S
N101 C103 1.340 . S
N102 C99 1.369 . S
N102 C103 1.336 . S
N102 Co105 2.118 1_545 S
C103 N101 1.340 . S
C103 N102 1.336 . S
C103 H127 0.930 . S
H104 C99 0.931 1_565 S
Co105 N102 2.118 1_565 S
Co105 N108 2.121 . S
Co105 O113 2.055 . S
Co105 O116 2.039 . S
Co105 N119 2.140 . S
C106 O107 1.227 . S
C106 O116 1.265 . S
O107 C106 1.227 . S
N108 Co105 2.121 . S
N108 C110 1.375 . S
N108 C111 1.313 . S
C109 C110 1.338 . S
C109 N112 1.377 . S
C109 H129 0.930 . S
C110 N108 1.375 . S
C110 C109 1.338 . S
C110 H114 0.931 . S
C111 N108 1.313 . S
C111 N112 1.344 . S
C111 H115 0.930 . S
N112 C109 1.377 . S
N112 C111 1.344 . S
O113 Co105 2.055 . S
O113 C117 1.253 . S
H114 C110 0.931 . S
H115 C111 0.930 . S
O116 Co105 2.039 . S
O116 C106 1.265 . S
C117 O113 1.253 . S
C117 O118 1.227 . S
O118 C117 1.227 . S
N119 Co105 2.140 . S
N119 C122 1.346 . S
N119 C123 1.345 . S
C120 C121 1.387 . S
C120 C124 1.391 . S
C121 C120 1.387 . S
C121 C122 1.369 . S
C121 H130 0.929 . S
C122 N119 1.346 . S
C122 C121 1.369 . S
C122 H125 0.928 . S
C123 N119 1.345 . S
C123 C124 1.371 . S
C123 H126 0.931 . S
C124 C120 1.391 . S
C124 C123 1.371 . S
C124 H131 0.930 . S
H125 C122 0.928 . S
H126 C123 0.931 . S
H127 C103 0.930 . S
H128 C100 0.930 . S
H129 C109 0.930 . S
H130 C121 0.929 . S
H131 C124 0.930 . S
C132 C133 1.351 . S
C132 N135 1.368 . S
C132 H137 0.931 . S
C133 C132 1.351 . S
C133 N134 1.373 . S
C133 H161 0.930 . S
N134 C133 1.373 . S
N134 C136 1.340 . S
N135 C132 1.368 . S
N135 C136 1.321 . S
N135 Co138 2.135 . S
C136 N134 1.340 . S
C136 N135 1.321 . S
C136 H160 0.930 . S
H137 C132 0.931 . S
Co138 N135 2.135 . S
Co138 N141 2.121 . S
Co138 O146 2.055 . S
Co138 O149 2.039 . S
Co138 N152 2.140 . S
C139 O140 1.227 . S
C139 O149 1.265 . S
O140 C139 1.227 . S
N141 Co138 2.121 . S
N141 C143 1.375 . S
N141 C144 1.313 . S
C142 C143 1.338 . S
C142 N145 1.377 . S
C142 H162 0.930 . S
C143 N141 1.375 . S
C143 C142 1.338 . S
C143 H147 0.931 . S
C144 N141 1.313 . S
C144 N145 1.344 . S
C144 H148 0.930 . S
N145 C142 1.377 . S
N145 C144 1.344 . S
O146 Co138 2.055 . S
O146 C150 1.253 . S
H147 C143 0.931 . S
H148 C144 0.930 . S
O149 Co138 2.039 . S
O149 C139 1.265 . S
C150 O146 1.253 . S
C150 O151 1.227 . S
O151 C150 1.227 . S
N152 Co138 2.140 . S
N152 C155 1.346 . S
N152 C156 1.345 . S
C153 C154 1.387 . S
C153 C157 1.391 . S
C154 C153 1.387 . S
C154 C155 1.369 . S
C154 H163 0.929 . S
C155 N152 1.346 . S
C155 C154 1.369 . S
C155 H158 0.928 . S
C156 N152 1.345 . S
C156 C157 1.371 . S
C156 H159 0.931 . S
C157 C153 1.391 . S
C157 C156 1.371 . S
C157 H164 0.930 . S
H158 C155 0.928 . S
H159 C156 0.931 . S
H160 C136 0.930 . S
H161 C133 0.930 . S
H162 C142 0.930 . S
H163 C154 0.929 . S
H164 C157 0.930 . S
C165 C166 1.351 . S
C165 N168 1.369 . S
C165 H170 0.931 1_565 S
C166 C165 1.351 . S
C166 N167 1.373 . S
C166 H194 0.930 . S
N167 C166 1.373 . S
N167 C169 1.340 . S
N168 C165 1.369 . S
N168 C169 1.336 . S
N168 Co171 2.118 1_565 S
C169 N167 1.340 . S
C169 N168 1.336 . S
C169 H193 0.930 . S
H170 C165 0.931 1_545 S
Co171 N168 2.118 1_545 S
Co171 N174 2.121 . S
Co171 O179 2.055 . S
Co171 O182 2.039 . S
Co171 N185 2.140 . S
C172 O173 1.227 . S
C172 O182 1.265 . S
O173 C172 1.227 . S
N174 Co171 2.121 . S
N174 C176 1.375 . S
N174 C177 1.313 . S
C175 C176 1.338 . S
C175 N178 1.377 . S
C175 H195 0.930 . S
C176 N174 1.375 . S
C176 C175 1.338 . S
C176 H180 0.931 . S
C177 N174 1.313 . S
C177 N178 1.344 . S
C177 H181 0.930 . S
N178 C175 1.377 . S
N178 C177 1.344 . S
O179 Co171 2.055 . S
O179 C183 1.253 . S
H180 C176 0.931 . S
H181 C177 0.930 . S
O182 Co171 2.039 . S
O182 C172 1.265 . S
C183 O179 1.253 . S
C183 O184 1.227 . S
O184 C183 1.227 . S
N185 Co171 2.140 . S
N185 C188 1.346 . S
N185 C189 1.345 . S
C186 C187 1.387 . S
C186 C190 1.391 . S
C187 C186 1.387 . S
C187 C188 1.369 . S
C187 H196 0.929 . S
C188 N185 1.346 . S
C188 C187 1.369 . S
C188 H191 0.928 . S
C189 N185 1.345 . S
C189 C190 1.371 . S
C189 H192 0.931 . S
C190 C186 1.391 . S
C190 C189 1.371 . S
C190 H197 0.930 . S
H191 C188 0.928 . S
H192 C189 0.931 . S
H193 C169 0.930 . S
H194 C166 0.930 . S
H195 C175 0.930 . S
H196 C187 0.929 . S
H197 C190 0.930 . S
C198 C199 1.351 . S
C198 N201 1.368 . S
C198 H203 0.931 . S
C199 C198 1.351 . S
C199 N200 1.373 . S
C199 H227 0.930 . S
N200 C199 1.373 . S
N200 C202 1.340 . S
N201 C198 1.368 . S
N201 C202 1.321 . S
N201 Co204 2.135 . S
C202 N200 1.340 . S
C202 N201 1.321 . S
C202 H226 0.930 . S
H203 C198 0.931 . S
Co204 N201 2.135 . S
Co204 N207 2.121 . S
Co204 O212 2.055 . S
Co204 O215 2.039 . S
Co204 N218 2.140 . S
C205 O206 1.227 . S
C205 O215 1.265 . S
O206 C205 1.227 . S
N207 Co204 2.121 . S
N207 C209 1.375 . S
N207 C210 1.313 . S
C208 C209 1.338 . S
C208 N211 1.377 . S
C208 H228 0.930 . S
C209 N207 1.375 . S
C209 C208 1.338 . S
C209 H213 0.931 . S
C210 N207 1.313 . S
C210 N211 1.344 . S
C210 H214 0.930 . S
N211 C208 1.377 . S
N211 C210 1.344 . S
O212 Co204 2.055 . S
O212 C216 1.253 . S
H213 C209 0.931 . S
H214 C210 0.930 . S
O215 Co204 2.039 . S
O215 C205 1.265 . S
C216 O212 1.253 . S
C216 O217 1.227 . S
O217 C216 1.227 . S
N218 Co204 2.140 . S
N218 C221 1.346 . S
N218 C222 1.345 . S
C219 C220 1.387 . S
C219 C223 1.391 . S
C220 C219 1.387 . S
C220 C221 1.369 . S
C220 H229 0.929 . S
C221 N218 1.346 . S
C221 C220 1.369 . S
C221 H224 0.928 . S
C222 N218 1.345 . S
C222 C223 1.371 . S
C222 H225 0.931 . S
C223 C219 1.391 . S
C223 C222 1.371 . S
C223 H230 0.930 . S
H224 C221 0.928 . S
H225 C222 0.931 . S
H226 C202 0.930 . S
H227 C199 0.930 . S
H228 C208 0.930 . S
H229 C220 0.929 . S
H230 C223 0.930 . S
C231 C232 1.351 . S
C231 N234 1.369 . S
C231 H236 0.931 1_545 S
C232 C231 1.351 . S
C232 N233 1.373 . S
C232 H260 0.930 . S
N233 C232 1.373 . S
N233 C235 1.340 . S
N234 C231 1.369 . S
N234 C235 1.336 . S
N234 Co237 2.118 1_545 S
C235 N233 1.340 . S
C235 N234 1.336 . S
C235 H259 0.930 . S
H236 C231 0.931 1_565 S
Co237 N234 2.118 1_565 S
Co237 N240 2.121 . S
Co237 O245 2.055 . S
Co237 O248 2.039 . S
Co237 N251 2.140 . S
C238 O239 1.227 . S
C238 O248 1.265 . S
O239 C238 1.227 . S
N240 Co237 2.121 . S
N240 C242 1.375 . S
N240 C243 1.313 1_655 S
C241 C242 1.338 1_455 S
C241 N244 1.377 . S
C241 H261 0.930 . S
C242 N240 1.375 . S
C242 C241 1.338 1_655 S
C242 H246 0.931 . S
C243 N240 1.313 1_455 S
C243 N244 1.344 . S
C243 H247 0.930 . S
N244 C241 1.377 . S
N244 C243 1.344 . S
O245 Co237 2.055 . S
O245 C249 1.253 . S
H246 C242 0.931 . S
H247 C243 0.930 . S
O248 Co237 2.039 . S
O248 C238 1.265 . S
C249 O245 1.253 . S
C249 O250 1.227 . S
O250 C249 1.227 . S
N251 Co237 2.140 . S
N251 C254 1.346 . S
N251 C255 1.345 . S
C252 C253 1.387 . S
C252 C256 1.391 . S
C253 C252 1.387 . S
C253 C254 1.369 . S
C253 H262 0.929 . S
C254 N251 1.346 . S
C254 C253 1.369 . S
C254 H257 0.928 . S
C255 N251 1.345 . S
C255 C256 1.371 . S
C255 H258 0.931 . S
C256 C252 1.391 . S
C256 C255 1.371 . S
C256 H263 0.930 . S
H257 C254 0.928 . S
H258 C255 0.931 . S
H259 C235 0.930 . S
H260 C232 0.930 . S
H261 C241 0.930 . S
H262 C253 0.929 . S
H263 C256 0.930 . S
C264 C265 1.351 . S
C264 N267 1.368 . S
C264 H269 0.931 . S
C265 C264 1.351 . S
C265 N266 1.373 . S
C265 H293 0.930 . S
N266 C265 1.373 . S
N266 C268 1.340 . S
N267 C264 1.368 . S
N267 C268 1.321 . S
N267 Co270 2.135 . S
C268 N266 1.340 . S
C268 N267 1.321 . S
C268 H292 0.930 . S
H269 C264 0.931 . S
Co270 N267 2.135 . S
Co270 N273 2.121 . S
Co270 O278 2.055 . S
Co270 O281 2.039 . S
Co270 N284 2.140 . S
C271 O272 1.227 . S
C271 O281 1.265 . S
O272 C271 1.227 . S
N273 Co270 2.121 . S
N273 C275 1.375 . S
N273 C276 1.313 . S
C274 C275 1.338 . S
C274 N277 1.377 . S
C274 H294 0.930 . S
C275 N273 1.375 . S
C275 C274 1.338 . S
C275 H279 0.931 . S
C276 N273 1.313 . S
C276 N277 1.344 . S
C276 H280 0.930 . S
N277 C274 1.377 . S
N277 C276 1.344 . S
O278 Co270 2.055 . S
O278 C282 1.253 . S
H279 C275 0.931 . S
H280 C276 0.930 . S
O281 Co270 2.039 . S
O281 C271 1.265 . S
C282 O278 1.253 . S
C282 O283 1.227 . S
O283 C282 1.227 . S
N284 Co270 2.140 . S
N284 C287 1.346 . S
N284 C288 1.345 . S
C285 C286 1.387 . S
C285 C289 1.391 . S
C286 C285 1.387 . S
C286 C287 1.369 . S
C286 H295 0.929 . S
C287 N284 1.346 . S
C287 C286 1.369 . S
C287 H290 0.928 . S
C288 N284 1.345 . S
C288 C289 1.371 . S
C288 H291 0.931 . S
C289 C285 1.391 . S
C289 C288 1.371 . S
C289 H296 0.930 . S
H290 C287 0.928 . S
H291 C288 0.931 . S
H292 C268 0.930 . S
H293 C265 0.930 . S
H294 C274 0.930 . S
H295 C286 0.929 . S
H296 C289 0.930 . S
C297 C298 1.351 . S
C297 N300 1.369 . S
C297 H302 0.931 1_545 S
C298 C297 1.351 . S
C298 N299 1.373 . S
C298 H326 0.930 . S
N299 C298 1.373 . S
N299 C301 1.340 . S
N300 C297 1.369 . S
N300 C301 1.336 . S
N300 Co303 2.118 1_545 S
C301 N299 1.340 . S
C301 N300 1.336 . S
C301 H325 0.930 . S
H302 C297 0.931 1_565 S
Co303 N300 2.118 1_565 S
Co303 N306 2.121 . S
Co303 O311 2.055 . S
Co303 O314 2.039 . S
Co303 N317 2.140 . S
C304 O305 1.227 . S
C304 O314 1.265 . S
O305 C304 1.227 . S
N306 Co303 2.121 . S
N306 C308 1.375 . S
N306 C309 1.313 1_455 S
C307 C308 1.338 1_655 S
C307 N310 1.377 . S
C307 H327 0.930 . S
C308 N306 1.375 . S
C308 C307 1.338 1_455 S
C308 H312 0.931 . S
C309 N306 1.313 1_655 S
C309 N310 1.344 . S
C309 H313 0.930 . S
N310 C307 1.377 . S
N310 C309 1.344 . S
O311 Co303 2.055 . S
O311 C315 1.253 . S
H312 C308 0.931 . S
H313 C309 0.930 . S
O314 Co303 2.039 . S
O314 C304 1.265 . S
C315 O311 1.253 . S
C315 O316 1.227 . S
O316 C315 1.227 . S
N317 Co303 2.140 . S
N317 C320 1.346 . S
N317 C321 1.345 . S
C318 C319 1.387 . S
C318 C322 1.391 . S
C319 C318 1.387 . S
C319 C320 1.369 . S
C319 H328 0.929 . S
C320 N317 1.346 . S
C320 C319 1.369 . S
C320 H323 0.928 . S
C321 N317 1.345 . S
C321 C322 1.371 . S
C321 H324 0.931 . S
C322 C318 1.391 . S
C322 C321 1.371 . S
C322 H329 0.930 . S
H323 C320 0.928 . S
H324 C321 0.931 . S
H325 C301 0.930 . S
H326 C298 0.930 . S
H327 C307 0.930 . S
H328 C319 0.929 . S
H329 C322 0.930 . S
C330 C331 1.351 . S
C330 N333 1.368 . S
C330 H335 0.931 . S
C331 C330 1.351 . S
C331 N332 1.373 . S
C331 H359 0.930 . S
N332 C331 1.373 . S
N332 C334 1.340 . S
N333 C330 1.368 . S
N333 C334 1.321 . S
N333 Co336 2.135 . S
C334 N332 1.340 . S
C334 N333 1.321 . S
C334 H358 0.930 . S
H335 C330 0.931 . S
Co336 N333 2.135 . S
Co336 N339 2.121 . S
Co336 O344 2.055 . S
Co336 O347 2.039 . S
Co336 N350 2.140 . S
C337 O338 1.227 . S
C337 O347 1.265 . S
O338 C337 1.227 . S
N339 Co336 2.121 . S
N339 C341 1.375 . S
N339 C342 1.313 . S
C340 C341 1.338 . S
C340 N343 1.377 . S
C340 H360 0.930 . S
C341 N339 1.375 . S
C341 C340 1.338 . S
C341 H345 0.931 . S
C342 N339 1.313 . S
C342 N343 1.344 . S
C342 H346 0.930 . S
N343 C340 1.377 . S
N343 C342 1.344 . S
O344 Co336 2.055 . S
O344 C348 1.253 . S
H345 C341 0.931 . S
H346 C342 0.930 . S
O347 Co336 2.039 . S
O347 C337 1.265 . S
C348 O344 1.253 . S
C348 O349 1.227 . S
O349 C348 1.227 . S
N350 Co336 2.140 . S
N350 C353 1.346 . S
N350 C354 1.345 . S
C351 C352 1.387 . S
C351 C355 1.391 . S
C352 C351 1.387 . S
C352 C353 1.369 . S
C352 H361 0.929 . S
C353 N350 1.346 . S
C353 C352 1.369 . S
C353 H356 0.928 . S
C354 N350 1.345 . S
C354 C355 1.371 . S
C354 H357 0.931 . S
C355 C351 1.391 . S
C355 C354 1.371 . S
C355 H362 0.930 . S
H356 C353 0.928 . S
H357 C354 0.931 . S
H358 C334 0.930 . S
H359 C331 0.930 . S
H360 C340 0.930 . S
H361 C352 0.929 . S
H362 C355 0.930 . S
C363 C364 1.351 . S
C363 N366 1.369 . S
C363 H368 0.931 1_565 S
C364 C363 1.351 . S
C364 N365 1.373 . S
C364 H392 0.930 . S
N365 C364 1.373 . S
N365 C367 1.340 . S
N366 C363 1.369 . S
N366 C367 1.336 . S
N366 Co369 2.118 1_565 S
C367 N365 1.340 . S
C367 N366 1.336 . S
C367 H391 0.930 . S
H368 C363 0.931 1_545 S
Co369 N366 2.118 1_545 S
Co369 N372 2.121 . S
Co369 O377 2.055 . S
Co369 O380 2.039 . S
Co369 N383 2.140 . S
C370 O371 1.227 . S
C370 O380 1.265 . S
O371 C370 1.227 . S
N372 Co369 2.121 . S
N372 C374 1.375 . S
N372 C375 1.313 . S
C373 C374 1.338 . S
C373 N376 1.377 . S
C373 H393 0.930 . S
C374 N372 1.375 . S
C374 C373 1.338 . S
C374 H378 0.931 . S
C375 N372 1.313 . S
C375 N376 1.344 . S
C375 H379 0.930 . S
N376 C373 1.377 . S
N376 C375 1.344 . S
O377 Co369 2.055 . S
O377 C381 1.253 . S
H378 C374 0.931 . S
H379 C375 0.930 . S
O380 Co369 2.039 . S
O380 C370 1.265 . S
C381 O377 1.253 . S
C381 O382 1.227 . S
O382 C381 1.227 . S
N383 Co369 2.140 . S
N383 C386 1.346 . S
N383 C387 1.345 . S
C384 C385 1.387 . S
C384 C388 1.391 . S
C385 C384 1.387 . S
C385 C386 1.369 . S
C385 H394 0.929 . S
C386 N383 1.346 . S
C386 C385 1.369 . S
C386 H389 0.928 . S
C387 N383 1.345 . S
C387 C388 1.371 . S
C387 H390 0.931 . S
C388 C384 1.391 . S
C388 C387 1.371 . S
C388 H395 0.930 . S
H389 C386 0.928 . S
H390 C387 0.931 . S
H391 C367 0.930 . S
H392 C364 0.930 . S
H393 C373 0.930 . S
H394 C385 0.929 . S
H395 C388 0.930 . S
C396 C397 1.351 . S
C396 N399 1.368 . S
C396 H401 0.931 . S
C397 C396 1.351 . S
C397 N398 1.373 . S
C397 H425 0.930 . S
N398 C397 1.373 . S
N398 C400 1.340 . S
N399 C396 1.368 . S
N399 C400 1.321 . S
N399 Co402 2.135 . S
C400 N398 1.340 . S
C400 N399 1.321 . S
C400 H424 0.930 . S
H401 C396 0.931 . S
Co402 N399 2.135 . S
Co402 N405 2.121 . S
Co402 O410 2.055 . S
Co402 O413 2.039 . S
Co402 N416 2.140 . S
C403 O404 1.227 . S
C403 O413 1.265 . S
O404 C403 1.227 . S
N405 Co402 2.121 . S
N405 C407 1.375 . S
N405 C408 1.313 . S
C406 C407 1.338 . S
C406 N409 1.377 . S
C406 H426 0.930 . S
C407 N405 1.375 . S
C407 C406 1.338 . S
C407 H411 0.931 . S
C408 N405 1.313 . S
C408 N409 1.344 . S
C408 H412 0.930 . S
N409 C406 1.377 . S
N409 C408 1.344 . S
O410 Co402 2.055 . S
O410 C414 1.253 . S
H411 C407 0.931 . S
H412 C408 0.930 . S
O413 Co402 2.039 . S
O413 C403 1.265 . S
C414 O410 1.253 . S
C414 O415 1.227 . S
O415 C414 1.227 . S
N416 Co402 2.140 . S
N416 C419 1.346 . S
N416 C420 1.345 . S
C417 C418 1.387 . S
C417 C421 1.391 . S
C418 C417 1.387 . S
C418 C419 1.369 . S
C418 H427 0.929 . S
C419 N416 1.346 . S
C419 C418 1.369 . S
C419 H422 0.928 . S
C420 N416 1.345 . S
C420 C421 1.371 . S
C420 H423 0.931 . S
C421 C417 1.391 . S
C421 C420 1.371 . S
C421 H428 0.930 . S
H422 C419 0.928 . S
H423 C420 0.931 . S
H424 C400 0.930 . S
H425 C397 0.930 . S
H426 C406 0.930 . S
H427 C418 0.929 . S
H428 C421 0.930 . S
C429 C430 1.351 . S
C429 N432 1.369 . S
C429 H434 0.931 1_545 S
C430 C429 1.351 . S
C430 N431 1.373 . S
C430 H458 0.930 . S
N431 C430 1.373 . S
N431 C433 1.340 . S
N432 C429 1.369 . S
N432 C433 1.336 . S
N432 Co435 2.118 1_545 S
C433 N431 1.340 . S
C433 N432 1.336 . S
C433 H457 0.930 . S
H434 C429 0.931 1_565 S
Co435 N432 2.118 1_565 S
Co435 N438 2.121 . S
Co435 O443 2.055 . S
Co435 O446 2.039 . S
Co435 N449 2.140 . S
C436 O437 1.227 . S
C436 O446 1.265 . S
O437 C436 1.227 . S
N438 Co435 2.121 . S
N438 C440 1.375 . S
N438 C441 1.313 . S
C439 C440 1.338 . S
C439 N442 1.377 . S
C439 H459 0.930 . S
C440 N438 1.375 . S
C440 C439 1.338 . S
C440 H444 0.931 . S
C441 N438 1.313 . S
C441 N442 1.344 . S
C441 H445 0.930 . S
N442 C439 1.377 . S
N442 C441 1.344 . S
O443 Co435 2.055 . S
O443 C447 1.253 . S
H444 C440 0.931 . S
H445 C441 0.930 . S
O446 Co435 2.039 . S
O446 C436 1.265 . S
C447 O443 1.253 . S
C447 O448 1.227 . S
O448 C447 1.227 . S
N449 Co435 2.140 . S
N449 C452 1.346 . S
N449 C453 1.345 . S
C450 C451 1.387 . S
C450 C454 1.391 . S
C451 C450 1.387 . S
C451 C452 1.369 . S
C451 H460 0.929 . S
C452 N449 1.346 . S
C452 C451 1.369 . S
C452 H455 0.928 . S
C453 N449 1.345 . S
C453 C454 1.371 . S
C453 H456 0.931 . S
C454 C450 1.391 . S
C454 C453 1.371 . S
C454 H461 0.930 . S
H455 C452 0.928 . S
H456 C453 0.931 . S
H457 C433 0.930 . S
H458 C430 0.930 . S
H459 C439 0.930 . S
H460 C451 0.929 . S
H461 C454 0.930 . S
C462 C463 1.351 . S
C462 N465 1.368 . S
C462 H467 0.931 . S
C463 C462 1.351 . S
C463 N464 1.373 . S
C463 H491 0.930 . S
N464 C463 1.373 . S
N464 C466 1.340 . S
N465 C462 1.368 . S
N465 C466 1.321 . S
N465 Co468 2.135 . S
C466 N464 1.340 . S
C466 N465 1.321 . S
C466 H490 0.930 . S
H467 C462 0.931 . S
Co468 N465 2.135 . S
Co468 N471 2.121 . S
Co468 O476 2.055 . S
Co468 O479 2.039 . S
Co468 N482 2.140 . S
C469 O470 1.227 . S
C469 O479 1.265 . S
O470 C469 1.227 . S
N471 Co468 2.121 . S
N471 C473 1.375 . S
N471 C474 1.313 . S
C472 C473 1.338 . S
C472 N475 1.377 . S
C472 H492 0.930 . S
C473 N471 1.375 . S
C473 C472 1.338 . S
C473 H477 0.931 . S
C474 N471 1.313 . S
C474 N475 1.344 . S
C474 H478 0.930 . S
N475 C472 1.377 . S
N475 C474 1.344 . S
O476 Co468 2.055 . S
O476 C480 1.253 . S
H477 C473 0.931 . S
H478 C474 0.930 . S
O479 Co468 2.039 . S
O479 C469 1.265 . S
C480 O476 1.253 . S
C480 O481 1.227 . S
O481 C480 1.227 . S
N482 Co468 2.140 . S
N482 C485 1.346 . S
N482 C486 1.345 . S
C483 C484 1.387 . S
C483 C487 1.391 . S
C484 C483 1.387 . S
C484 C485 1.369 . S
C484 H493 0.929 . S
C485 N482 1.346 . S
C485 C484 1.369 . S
C485 H488 0.928 . S
C486 N482 1.345 . S
C486 C487 1.371 . S
C486 H489 0.931 . S
C487 C483 1.391 . S
C487 C486 1.371 . S
C487 H494 0.930 . S
H488 C485 0.928 . S
H489 C486 0.931 . S
H490 C466 0.930 . S
H491 C463 0.930 . S
H492 C472 0.930 . S
H493 C484 0.929 . S
H494 C487 0.930 . S
C495 C496 1.351 . S
C495 N498 1.369 . S
C495 H500 0.931 1_565 S
C496 C495 1.351 . S
C496 N497 1.373 . S
C496 H524 0.930 . S
N497 C496 1.373 . S
N497 C499 1.340 . S
N498 C495 1.369 . S
N498 C499 1.336 . S
N498 Co501 2.118 1_565 S
C499 N497 1.340 . S
C499 N498 1.336 . S
C499 H523 0.930 . S
H500 C495 0.931 1_545 S
Co501 N498 2.118 1_545 S
Co501 N504 2.121 . S
Co501 O509 2.055 . S
Co501 O512 2.039 . S
Co501 N515 2.140 . S
C502 O503 1.227 . S
C502 O512 1.265 . S
O503 C502 1.227 . S
N504 Co501 2.121 . S
N504 C506 1.375 . S
N504 C507 1.313 1_455 S
C505 C506 1.338 1_655 S
C505 N508 1.377 . S
C505 H525 0.930 . S
C506 N504 1.375 . S
C506 C505 1.338 1_455 S
C506 H510 0.931 . S
C507 N504 1.313 1_655 S
C507 N508 1.344 . S
C507 H511 0.930 . S
N508 C505 1.377 . S
N508 C507 1.344 . S
O509 Co501 2.055 . S
O509 C513 1.253 . S
H510 C506 0.931 . S
H511 C507 0.930 . S
O512 Co501 2.039 . S
O512 C502 1.265 . S
C513 O509 1.253 . S
C513 O514 1.227 . S
O514 C513 1.227 . S
N515 Co501 2.140 . S
N515 C518 1.346 . S
N515 C519 1.345 . S
C516 C517 1.387 . S
C516 C520 1.391 . S
C517 C516 1.387 . S
C517 C518 1.369 . S
C517 H526 0.929 . S
C518 N515 1.346 . S
C518 C517 1.369 . S
C518 H521 0.928 . S
C519 N515 1.345 . S
C519 C520 1.371 . S
C519 H522 0.931 . S
C520 C516 1.391 . S
C520 C519 1.371 . S
C520 H527 0.930 . S
H521 C518 0.928 . S
H522 C519 0.931 . S
H523 C499 0.930 . S
H524 C496 0.930 . S
H525 C505 0.930 . S
H526 C517 0.929 . S
H527 C520 0.930 . S
C528 C529 1.351 . S
C528 N531 1.368 . S
C528 H533 0.931 . S
C529 C528 1.351 . S
C529 N530 1.373 . S
C529 H557 0.930 . S
N530 C529 1.373 . S
N530 C532 1.340 . S
N531 C528 1.368 . S
N531 C532 1.321 . S
N531 Co534 2.135 . S
C532 N530 1.340 . S
C532 N531 1.321 . S
C532 H556 0.930 . S
H533 C528 0.931 . S
Co534 N531 2.135 . S
Co534 N537 2.121 . S
Co534 O542 2.055 . S
Co534 O545 2.039 . S
Co534 N548 2.140 . S
C535 O536 1.227 . S
C535 O545 1.265 . S
O536 C535 1.227 . S
N537 Co534 2.121 . S
N537 C539 1.375 . S
N537 C540 1.313 . S
C538 C539 1.338 . S
C538 N541 1.377 . S
C538 H558 0.930 . S
C539 N537 1.375 . S
C539 C538 1.338 . S
C539 H543 0.931 . S
C540 N537 1.313 . S
C540 N541 1.344 . S
C540 H544 0.930 . S
N541 C538 1.377 . S
N541 C540 1.344 . S
O542 Co534 2.055 . S
O542 C546 1.253 . S
H543 C539 0.931 . S
H544 C540 0.930 . S
O545 Co534 2.039 . S
O545 C535 1.265 . S
C546 O542 1.253 . S
C546 O547 1.227 . S
O547 C546 1.227 . S
N548 Co534 2.140 . S
N548 C551 1.346 . S
N548 C552 1.345 . S
C549 C550 1.387 . S
C549 C553 1.391 . S
C550 C549 1.387 . S
C550 C551 1.369 . S
C550 H559 0.929 . S
C551 N548 1.346 . S
C551 C550 1.369 . S
C551 H554 0.928 . S
C552 N548 1.345 . S
C552 C553 1.371 . S
C552 H555 0.931 . S
C553 C549 1.391 . S
C553 C552 1.371 . S
C553 H560 0.930 . S
H554 C551 0.928 . S
H555 C552 0.931 . S
H556 C532 0.930 . S
H557 C529 0.930 . S
H558 C538 0.930 . S
H559 C550 0.929 . S
H560 C553 0.930 . S
C561 C562 1.351 . S
C561 N564 1.368 . S
C561 H566 0.931 . S
C562 C561 1.351 . S
C562 N563 1.373 . S
C562 H590 0.930 . S
N563 C562 1.373 . S
N563 C565 1.340 . S
N564 C561 1.368 . S
N564 C565 1.321 . S
N564 Co567 2.135 . S
C565 N563 1.340 . S
C565 N564 1.321 . S
C565 H589 0.930 . S
H566 C561 0.931 . S
Co567 N564 2.135 . S
Co567 N570 2.121 . S
Co567 O575 2.055 . S
Co567 O578 2.039 . S
Co567 N581 2.140 . S
C568 O569 1.227 . S
C568 O578 1.265 . S
O569 C568 1.227 . S
N570 Co567 2.121 . S
N570 C572 1.375 . S
N570 C573 1.313 . S
C571 C572 1.338 . S
C571 N574 1.377 . S
C571 H591 0.930 . S
C572 N570 1.375 . S
C572 C571 1.338 . S
C572 H576 0.931 . S
C573 N570 1.313 . S
C573 N574 1.344 . S
C573 H577 0.930 . S
N574 C571 1.377 . S
N574 C573 1.344 . S
O575 Co567 2.055 . S
O575 C579 1.253 . S
H576 C572 0.931 . S
H577 C573 0.930 . S
O578 Co567 2.039 . S
O578 C568 1.265 . S
C579 O575 1.253 . S
C579 O580 1.227 . S
O580 C579 1.227 . S
N581 Co567 2.140 . S
N581 C584 1.346 . S
N581 C585 1.345 . S
C582 C583 1.387 . S
C582 C586 1.391 . S
C583 C582 1.387 . S
C583 C584 1.369 . S
C583 H592 0.929 . S
C584 N581 1.346 . S
C584 C583 1.369 . S
C584 H587 0.928 . S
C585 N581 1.345 . S
C585 C586 1.371 . S
C585 H588 0.931 . S
C586 C582 1.391 . S
C586 C585 1.371 . S
C586 H593 0.930 . S
H587 C584 0.928 . S
H588 C585 0.931 . S
H589 C565 0.930 . S
H590 C562 0.930 . S
H591 C571 0.930 . S
H592 C583 0.929 . S
H593 C586 0.930 . S
C594 C595 1.351 . S
C594 N597 1.368 . S
C594 H599 0.931 . S
C595 C594 1.351 . S
C595 N596 1.373 . S
C595 H623 0.930 . S
N596 C595 1.373 . S
N596 C598 1.340 . S
N597 C594 1.368 . S
N597 C598 1.321 . S
N597 Co600 2.135 . S
C598 N596 1.340 . S
C598 N597 1.321 . S
C598 H622 0.930 . S
H599 C594 0.931 . S
Co600 N597 2.135 . S
Co600 N603 2.121 . S
Co600 O608 2.055 . S
Co600 O611 2.039 . S
Co600 N614 2.140 . S
C601 O602 1.227 . S
C601 O611 1.265 . S
O602 C601 1.227 . S
N603 Co600 2.121 . S
N603 C605 1.375 . S
N603 C606 1.313 . S
C604 C605 1.338 . S
C604 N607 1.377 . S
C604 H624 0.930 . S
C605 N603 1.375 . S
C605 C604 1.338 . S
C605 H609 0.931 . S
C606 N603 1.313 . S
C606 N607 1.344 . S
C606 H610 0.930 . S
N607 C604 1.377 . S
N607 C606 1.344 . S
O608 Co600 2.055 . S
O608 C612 1.253 . S
H609 C605 0.931 . S
H610 C606 0.930 . S
O611 Co600 2.039 . S
O611 C601 1.265 . S
C612 O608 1.253 . S
C612 O613 1.227 . S
O613 C612 1.227 . S
N614 Co600 2.140 . S
N614 C617 1.346 . S
N614 C618 1.345 . S
C615 C616 1.387 . S
C615 C619 1.391 . S
C616 C615 1.387 . S
C616 C617 1.369 . S
C616 H625 0.929 . S
C617 N614 1.346 . S
C617 C616 1.369 . S
C617 H620 0.928 . S
C618 N614 1.345 . S
C618 C619 1.371 . S
C618 H621 0.931 . S
C619 C615 1.391 . S
C619 C618 1.371 . S
C619 H626 0.930 . S
H620 C617 0.928 . S
H621 C618 0.931 . S
H622 C598 0.930 . S
H623 C595 0.930 . S
H624 C604 0.930 . S
H625 C616 0.929 . S
H626 C619 0.930 . S
C627 C628 1.351 . S
C627 N630 1.368 . S
C627 H632 0.931 . S
C628 C627 1.351 . S
C628 N629 1.373 . S
C628 H656 0.930 . S
N629 C628 1.373 . S
N629 C631 1.340 . S
N630 C627 1.368 . S
N630 C631 1.321 . S
N630 Co633 2.135 . S
C631 N629 1.340 . S
C631 N630 1.321 . S
C631 H655 0.930 . S
H632 C627 0.931 . S
Co633 N630 2.135 . S
Co633 N636 2.121 . S
Co633 O641 2.055 . S
Co633 O644 2.039 . S
Co633 N647 2.140 . S
C634 O635 1.227 . S
C634 O644 1.265 . S
O635 C634 1.227 . S
N636 Co633 2.121 . S
N636 C638 1.375 . S
N636 C639 1.313 1_455 S
C637 C638 1.338 1_655 S
C637 N640 1.377 . S
C637 H657 0.930 . S
C638 N636 1.375 . S
C638 C637 1.338 1_455 S
C638 H642 0.931 . S
C639 N636 1.313 1_655 S
C639 N640 1.344 . S
C639 H643 0.930 . S
N640 C637 1.377 . S
N640 C639 1.344 . S
O641 Co633 2.055 . S
O641 C645 1.253 . S
H642 C638 0.931 . S
H643 C639 0.930 . S
O644 Co633 2.039 . S
O644 C634 1.265 . S
C645 O641 1.253 . S
C645 O646 1.227 . S
O646 C645 1.227 . S
N647 Co633 2.140 . S
N647 C650 1.346 . S
N647 C651 1.345 . S
C648 C649 1.387 . S
C648 C652 1.391 . S
C649 C648 1.387 . S
C649 C650 1.369 . S
C649 H658 0.929 . S
C650 N647 1.346 . S
C650 C649 1.369 . S
C650 H653 0.928 . S
C651 N647 1.345 . S
C651 C652 1.371 . S
C651 H654 0.931 . S
C652 C648 1.391 . S
C652 C651 1.371 . S
C652 H659 0.930 . S
H653 C650 0.928 . S
H654 C651 0.931 . S
H655 C631 0.930 . S
H656 C628 0.930 . S
H657 C637 0.930 . S
H658 C649 0.929 . S
H659 C652 0.930 . S
C660 C661 1.351 . S
C660 N663 1.368 . S
C660 H665 0.931 . S
C661 C660 1.351 . S
C661 N662 1.373 . S
C661 H689 0.930 . S
N662 C661 1.373 . S
N662 C664 1.340 . S
N663 C660 1.368 . S
N663 C664 1.321 . S
N663 Co666 2.135 . S
C664 N662 1.340 . S
C664 N663 1.321 . S
C664 H688 0.930 . S
H665 C660 0.931 . S
Co666 N663 2.135 . S
Co666 N669 2.121 . S
Co666 O674 2.055 . S
Co666 O677 2.039 . S
Co666 N680 2.140 . S
C667 O668 1.227 . S
C667 O677 1.265 . S
O668 C667 1.227 . S
N669 Co666 2.121 . S
N669 C671 1.375 . S
N669 C672 1.313 . S
C670 C671 1.338 . S
C670 N673 1.377 . S
C670 H690 0.930 . S
C671 N669 1.375 . S
C671 C670 1.338 . S
C671 H675 0.931 . S
C672 N669 1.313 . S
C672 N673 1.344 . S
C672 H676 0.930 . S
N673 C670 1.377 . S
N673 C672 1.344 . S
O674 Co666 2.055 . S
O674 C678 1.253 . S
H675 C671 0.931 . S
H676 C672 0.930 . S
O677 Co666 2.039 . S
O677 C667 1.265 . S
C678 O674 1.253 . S
C678 O679 1.227 . S
O679 C678 1.227 . S
N680 Co666 2.140 . S
N680 C683 1.346 . S
N680 C684 1.345 . S
C681 C682 1.387 . S
C681 C685 1.391 . S
C682 C681 1.387 . S
C682 C683 1.369 . S
C682 H691 0.929 . S
C683 N680 1.346 . S
C683 C682 1.369 . S
C683 H686 0.928 . S
C684 N680 1.345 . S
C684 C685 1.371 . S
C684 H687 0.931 . S
C685 C681 1.391 . S
C685 C684 1.371 . S
C685 H692 0.930 . S
H686 C683 0.928 . S
H687 C684 0.931 . S
H688 C664 0.930 . S
H689 C661 0.930 . S
H690 C670 0.930 . S
H691 C682 0.929 . S
H692 C685 0.930 . S
C693 C694 1.351 . S
C693 N696 1.368 . S
C693 H698 0.931 . S
C694 C693 1.351 . S
C694 N695 1.373 . S
C694 H722 0.930 . S
N695 C694 1.373 . S
N695 C697 1.340 . S
N696 C693 1.368 . S
N696 C697 1.321 . S
N696 Co699 2.135 . S
C697 N695 1.340 . S
C697 N696 1.321 . S
C697 H721 0.930 . S
H698 C693 0.931 . S
Co699 N696 2.135 . S
Co699 N702 2.121 . S
Co699 O707 2.055 . S
Co699 O710 2.039 . S
Co699 N713 2.140 . S
C700 O701 1.227 . S
C700 O710 1.265 . S
O701 C700 1.227 . S
N702 Co699 2.121 . S
N702 C704 1.375 . S
N702 C705 1.313 1_455 S
C703 C704 1.338 1_655 S
C703 N706 1.377 . S
C703 H723 0.930 . S
C704 N702 1.375 . S
C704 C703 1.338 1_455 S
C704 H708 0.931 . S
C705 N702 1.313 1_655 S
C705 N706 1.344 . S
C705 H709 0.930 . S
N706 C703 1.377 . S
N706 C705 1.344 . S
O707 Co699 2.055 . S
O707 C711 1.253 . S
H708 C704 0.931 . S
H709 C705 0.930 . S
O710 Co699 2.039 . S
O710 C700 1.265 . S
C711 O707 1.253 . S
C711 O712 1.227 . S
O712 C711 1.227 . S
N713 Co699 2.140 . S
N713 C716 1.346 . S
N713 C717 1.345 . S
C714 C715 1.387 . S
C714 C718 1.391 . S
C715 C714 1.387 . S
C715 C716 1.369 . S
C715 H724 0.929 . S
C716 N713 1.346 . S
C716 C715 1.369 . S
C716 H719 0.928 . S
C717 N713 1.345 . S
C717 C718 1.371 . S
C717 H720 0.931 . S
C718 C714 1.391 . S
C718 C717 1.371 . S
C718 H725 0.930 . S
H719 C716 0.928 . S
H720 C717 0.931 . S
H721 C697 0.930 . S
H722 C694 0.930 . S
H723 C703 0.930 . S
H724 C715 0.929 . S
H725 C718 0.930 . S
C726 C727 1.351 . S
C726 N729 1.368 . S
C726 H731 0.931 . S
C727 C726 1.351 . S
C727 N728 1.373 . S
C727 H755 0.930 . S
N728 C727 1.373 . S
N728 C730 1.340 . S
N729 C726 1.368 . S
N729 C730 1.321 . S
N729 Co732 2.135 . S
C730 N728 1.340 . S
C730 N729 1.321 . S
C730 H754 0.930 . S
H731 C726 0.931 . S
Co732 N729 2.135 . S
Co732 N735 2.121 . S
Co732 O740 2.055 . S
Co732 O743 2.039 . S
Co732 N746 2.140 . S
C733 O734 1.227 . S
C733 O743 1.265 . S
O734 C733 1.227 . S
N735 Co732 2.121 . S
N735 C737 1.375 . S
N735 C738 1.313 . S
C736 C737 1.338 . S
C736 N739 1.377 . S
C736 H756 0.930 . S
C737 N735 1.375 . S
C737 C736 1.338 . S
C737 H741 0.931 . S
C738 N735 1.313 . S
C738 N739 1.344 . S
C738 H742 0.930 . S
N739 C736 1.377 . S
N739 C738 1.344 . S
O740 Co732 2.055 . S
O740 C744 1.253 . S
H741 C737 0.931 . S
H742 C738 0.930 . S
O743 Co732 2.039 . S
O743 C733 1.265 . S
C744 O740 1.253 . S
C744 O745 1.227 . S
O745 C744 1.227 . S
N746 Co732 2.140 . S
N746 C749 1.346 . S
N746 C750 1.345 . S
C747 C748 1.387 . S
C747 C751 1.391 . S
C748 C747 1.387 . S
C748 C749 1.369 . S
C748 H757 0.929 . S
C749 N746 1.346 . S
C749 C748 1.369 . S
C749 H752 0.928 . S
C750 N746 1.345 . S
C750 C751 1.371 . S
C750 H753 0.931 . S
C751 C747 1.391 . S
C751 C750 1.371 . S
C751 H758 0.930 . S
H752 C749 0.928 . S
H753 C750 0.931 . S
H754 C730 0.930 . S
H755 C727 0.930 . S
H756 C736 0.930 . S
H757 C748 0.929 . S
H758 C751 0.930 . S
C759 C760 1.351 . S
C759 N762 1.368 . S
C759 H764 0.931 . S
C760 C759 1.351 . S
C760 N761 1.373 . S
C760 H788 0.930 . S
N761 C760 1.373 . S
N761 C763 1.340 . S
N762 C759 1.368 . S
N762 C763 1.321 . S
N762 Co765 2.135 . S
C763 N761 1.340 . S
C763 N762 1.321 . S
C763 H787 0.930 . S
H764 C759 0.931 . S
Co765 N762 2.135 . S
Co765 N768 2.121 . S
Co765 O773 2.055 . S
Co765 O776 2.039 . S
Co765 N779 2.140 . S
C766 O767 1.227 . S
C766 O776 1.265 . S
O767 C766 1.227 . S
N768 Co765 2.121 . S
N768 C770 1.375 . S
N768 C771 1.313 . S
C769 C770 1.338 . S
C769 N772 1.377 . S
C769 H789 0.930 . S
C770 N768 1.375 . S
C770 C769 1.338 . S
C770 H774 0.931 . S
C771 N768 1.313 . S
C771 N772 1.344 . S
C771 H775 0.930 . S
N772 C769 1.377 . S
N772 C771 1.344 . S
O773 Co765 2.055 . S
O773 C777 1.253 . S
H774 C770 0.931 . S
H775 C771 0.930 . S
O776 Co765 2.039 . S
O776 C766 1.265 . S
C777 O773 1.253 . S
C777 O778 1.227 . S
O778 C777 1.227 . S
N779 Co765 2.140 . S
N779 C782 1.346 . S
N779 C783 1.345 . S
C780 C781 1.387 . S
C780 C784 1.391 . S
C781 C780 1.387 . S
C781 C782 1.369 . S
C781 H790 0.929 . S
C782 N779 1.346 . S
C782 C781 1.369 . S
C782 H785 0.928 . S
C783 N779 1.345 . S
C783 C784 1.371 . S
C783 H786 0.931 . S
C784 C780 1.391 . S
C784 C783 1.371 . S
C784 H791 0.930 . S
H785 C782 0.928 . S
H786 C783 0.931 . S
H787 C763 0.930 . S
H788 C760 0.930 . S
H789 C769 0.930 . S
H790 C781 0.929 . S
H791 C784 0.930 . S
C792 C793 1.351 . S
C792 N795 1.368 . S
C792 H797 0.931 . S
C793 C792 1.351 . S
C793 N794 1.373 . S
C793 H821 0.930 . S
N794 C793 1.373 . S
N794 C796 1.340 . S
N795 C792 1.368 . S
N795 C796 1.321 . S
N795 Co798 2.135 . S
C796 N794 1.340 . S
C796 N795 1.321 . S
C796 H820 0.930 . S
H797 C792 0.931 . S
Co798 N795 2.135 . S
Co798 N801 2.121 . S
Co798 O806 2.055 . S
Co798 O809 2.039 . S
Co798 N812 2.140 . S
C799 O800 1.227 . S
C799 O809 1.265 . S
O800 C799 1.227 . S
N801 Co798 2.121 . S
N801 C803 1.375 . S
N801 C804 1.313 . S
C802 C803 1.338 . S
C802 N805 1.377 . S
C802 H822 0.930 . S
C803 N801 1.375 . S
C803 C802 1.338 . S
C803 H807 0.931 . S
C804 N801 1.313 . S
C804 N805 1.344 . S
C804 H808 0.930 . S
N805 C802 1.377 . S
N805 C804 1.344 . S
O806 Co798 2.055 . S
O806 C810 1.253 . S
H807 C803 0.931 . S
H808 C804 0.930 . S
O809 Co798 2.039 . S
O809 C799 1.265 . S
C810 O806 1.253 . S
C810 O811 1.227 . S
O811 C810 1.227 . S
N812 Co798 2.140 . S
N812 C815 1.346 . S
N812 C816 1.345 . S
C813 C814 1.387 . S
C813 C817 1.391 . S
C814 C813 1.387 . S
C814 C815 1.369 . S
C814 H823 0.929 . S
C815 N812 1.346 . S
C815 C814 1.369 . S
C815 H818 0.928 . S
C816 N812 1.345 . S
C816 C817 1.371 . S
C816 H819 0.931 . S
C817 C813 1.391 . S
C817 C816 1.371 . S
C817 H824 0.930 . S
H818 C815 0.928 . S
H819 C816 0.931 . S
H820 C796 0.930 . S
H821 C793 0.930 . S
H822 C802 0.930 . S
H823 C814 0.929 . S
H824 C817 0.930 . S
C825 C826 1.351 . S
C825 N828 1.368 . S
C825 H830 0.931 . S
C826 C825 1.351 . S
C826 N827 1.373 . S
C826 H854 0.930 . S
N827 C826 1.373 . S
N827 C829 1.340 . S
N828 C825 1.368 . S
N828 C829 1.321 . S
N828 Co831 2.135 . S
C829 N827 1.340 . S
C829 N828 1.321 . S
C829 H853 0.930 . S
H830 C825 0.931 . S
Co831 N828 2.135 . S
Co831 N834 2.121 . S
Co831 O839 2.055 . S
Co831 O842 2.039 . S
Co831 N845 2.140 . S
C832 O833 1.227 . S
C832 O842 1.265 . S
O833 C832 1.227 . S
N834 Co831 2.121 . S
N834 C836 1.375 . S
N834 C837 1.313 . S
C835 C836 1.338 . S
C835 N838 1.377 . S
C835 H855 0.930 . S
C836 N834 1.375 . S
C836 C835 1.338 . S
C836 H840 0.931 . S
C837 N834 1.313 . S
C837 N838 1.344 . S
C837 H841 0.930 . S
N838 C835 1.377 . S
N838 C837 1.344 . S
O839 Co831 2.055 . S
O839 C843 1.253 . S
H840 C836 0.931 . S
H841 C837 0.930 . S
O842 Co831 2.039 . S
O842 C832 1.265 . S
C843 O839 1.253 . S
C843 O844 1.227 . S
O844 C843 1.227 . S
N845 Co831 2.140 . S
N845 C848 1.346 . S
N845 C849 1.345 . S
C846 C847 1.387 . S
C846 C850 1.391 . S
C847 C846 1.387 . S
C847 C848 1.369 . S
C847 H856 0.929 . S
C848 N845 1.346 . S
C848 C847 1.369 . S
C848 H851 0.928 . S
C849 N845 1.345 . S
C849 C850 1.371 . S
C849 H852 0.931 . S
C850 C846 1.391 . S
C850 C849 1.371 . S
C850 H857 0.930 . S
H851 C848 0.928 . S
H852 C849 0.931 . S
H853 C829 0.930 . S
H854 C826 0.930 . S
H855 C835 0.930 . S
H856 C847 0.929 . S
H857 C850 0.930 . S
C858 C859 1.351 . S
C858 N861 1.368 . S
C858 H863 0.931 . S
C859 C858 1.351 . S
C859 N860 1.373 . S
C859 H887 0.930 . S
N860 C859 1.373 . S
N860 C862 1.340 . S
N861 C858 1.368 . S
N861 C862 1.321 . S
N861 Co864 2.135 . S
C862 N860 1.340 . S
C862 N861 1.321 . S
C862 H886 0.930 . S
H863 C858 0.931 . S
Co864 N861 2.135 . S
Co864 N867 2.121 . S
Co864 O872 2.055 . S
Co864 O875 2.039 . S
Co864 N878 2.140 . S
C865 O866 1.227 . S
C865 O875 1.265 . S
O866 C865 1.227 . S
N867 Co864 2.121 . S
N867 C869 1.375 . S
N867 C870 1.313 . S
C868 C869 1.338 . S
C868 N871 1.377 . S
C868 H888 0.930 . S
C869 N867 1.375 . S
C869 C868 1.338 . S
C869 H873 0.931 . S
C870 N867 1.313 . S
C870 N871 1.344 . S
C870 H874 0.930 . S
N871 C868 1.377 . S
N871 C870 1.344 . S
O872 Co864 2.055 . S
O872 C876 1.253 . S
H873 C869 0.931 . S
H874 C870 0.930 . S
O875 Co864 2.039 . S
O875 C865 1.265 . S
C876 O872 1.253 . S
C876 O877 1.227 . S
O877 C876 1.227 . S
N878 Co864 2.140 . S
N878 C881 1.346 . S
N878 C882 1.345 . S
C879 C880 1.387 . S
C879 C883 1.391 . S
C880 C879 1.387 . S
C880 C881 1.369 . S
C880 H889 0.929 . S
C881 N878 1.346 . S
C881 C880 1.369 . S
C881 H884 0.928 . S
C882 N878 1.345 . S
C882 C883 1.371 . S
C882 H885 0.931 . S
C883 C879 1.391 . S
C883 C882 1.371 . S
C883 H890 0.930 . S
H884 C881 0.928 . S
H885 C882 0.931 . S
H886 C862 0.930 . S
H887 C859 0.930 . S
H888 C868 0.930 . S
H889 C880 0.929 . S
H890 C883 0.930 . S
C891 C892 1.351 . S
C891 N894 1.368 . S
C891 H896 0.931 . S
C892 C891 1.351 . S
C892 N893 1.373 . S
C892 H920 0.930 . S
N893 C892 1.373 . S
N893 C895 1.340 . S
N894 C891 1.368 . S
N894 C895 1.321 . S
N894 Co897 2.135 . S
C895 N893 1.340 . S
C895 N894 1.321 . S
C895 H919 0.930 . S
H896 C891 0.931 . S
Co897 N894 2.135 . S
Co897 N900 2.121 . S
Co897 O905 2.055 . S
Co897 O908 2.039 . S
Co897 N911 2.140 . S
C898 O899 1.227 . S
C898 O908 1.265 . S
O899 C898 1.227 . S
N900 Co897 2.121 . S
N900 C902 1.375 . S
N900 C903 1.313 1_655 S
C901 C902 1.338 1_455 S
C901 N904 1.377 . S
C901 H921 0.930 . S
C902 N900 1.375 . S
C902 C901 1.338 1_655 S
C902 H906 0.931 . S
C903 N900 1.313 1_455 S
C903 N904 1.344 . S
C903 H907 0.930 . S
N904 C901 1.377 . S
N904 C903 1.344 . S
O905 Co897 2.055 . S
O905 C909 1.253 . S
H906 C902 0.931 . S
H907 C903 0.930 . S
O908 Co897 2.039 . S
O908 C898 1.265 . S
C909 O905 1.253 . S
C909 O910 1.227 . S
O910 C909 1.227 . S
N911 Co897 2.140 . S
N911 C914 1.346 . S
N911 C915 1.345 . S
C912 C913 1.387 . S
C912 C916 1.391 . S
C913 C912 1.387 . S
C913 C914 1.369 . S
C913 H922 0.929 . S
C914 N911 1.346 . S
C914 C913 1.369 . S
C914 H917 0.928 . S
C915 N911 1.345 . S
C915 C916 1.371 . S
C915 H918 0.931 . S
C916 C912 1.391 . S
C916 C915 1.371 . S
C916 H923 0.930 . S
H917 C914 0.928 . S
H918 C915 0.931 . S
H919 C895 0.930 . S
H920 C892 0.930 . S
H921 C901 0.930 . S
H922 C913 0.929 . S
H923 C916 0.930 . S
C924 C925 1.351 . S
C924 N927 1.368 . S
C924 H929 0.931 . S
C925 C924 1.351 . S
C925 N926 1.373 . S
C925 H953 0.930 . S
N926 C925 1.373 . S
N926 C928 1.340 . S
N927 C924 1.368 . S
N927 C928 1.321 . S
N927 Co930 2.135 . S
C928 N926 1.340 . S
C928 N927 1.321 . S
C928 H952 0.930 . S
H929 C924 0.931 . S
Co930 N927 2.135 . S
Co930 N933 2.121 . S
Co930 O938 2.055 . S
Co930 O941 2.039 . S
Co930 N944 2.140 . S
C931 O932 1.227 . S
C931 O941 1.265 . S
O932 C931 1.227 . S
N933 Co930 2.121 . S
N933 C935 1.375 . S
N933 C936 1.313 . S
C934 C935 1.338 . S
C934 N937 1.377 . S
C934 H954 0.930 . S
C935 N933 1.375 . S
C935 C934 1.338 . S
C935 H939 0.931 . S
C936 N933 1.313 . S
C936 N937 1.344 . S
C936 H940 0.930 . S
N937 C934 1.377 . S
N937 C936 1.344 . S
O938 Co930 2.055 . S
O938 C942 1.253 . S
H939 C935 0.931 . S
H940 C936 0.930 . S
O941 Co930 2.039 . S
O941 C931 1.265 . S
C942 O938 1.253 . S
C942 O943 1.227 . S
O943 C942 1.227 . S
N944 Co930 2.140 . S
N944 C947 1.346 . S
N944 C948 1.345 . S
C945 C946 1.387 . S
C945 C949 1.391 . S
C946 C945 1.387 . S
C946 C947 1.369 . S
C946 H955 0.929 . S
C947 N944 1.346 . S
C947 C946 1.369 . S
C947 H950 0.928 . S
C948 N944 1.345 . S
C948 C949 1.371 . S
C948 H951 0.931 . S
C949 C945 1.391 . S
C949 C948 1.371 . S
C949 H956 0.930 . S
H950 C947 0.928 . S
H951 C948 0.931 . S
H952 C928 0.930 . S
H953 C925 0.930 . S
H954 C934 0.930 . S
H955 C946 0.929 . S
H956 C949 0.930 . S
C957 C958 1.351 . S
C957 N960 1.368 . S
C957 H962 0.931 . S
C958 C957 1.351 . S
C958 N959 1.373 . S
C958 H986 0.930 . S
N959 C958 1.373 . S
N959 C961 1.340 . S
N960 C957 1.368 . S
N960 C961 1.321 . S
N960 Co963 2.135 . S
C961 N959 1.340 . S
C961 N960 1.321 . S
C961 H985 0.930 . S
H962 C957 0.931 . S
Co963 N960 2.135 . S
Co963 N966 2.121 . S
Co963 O971 2.055 . S
Co963 O974 2.039 . S
Co963 N977 2.140 . S
C964 O965 1.227 . S
C964 O974 1.265 . S
O965 C964 1.227 . S
N966 Co963 2.121 . S
N966 C968 1.375 . S
N966 C969 1.313 1_655 S
C967 C968 1.338 1_455 S
C967 N970 1.377 . S
C967 H987 0.930 . S
C968 N966 1.375 . S
C968 C967 1.338 1_655 S
C968 H972 0.931 . S
C969 N966 1.313 1_455 S
C969 N970 1.344 . S
C969 H973 0.930 . S
N970 C967 1.377 . S
N970 C969 1.344 . S
O971 Co963 2.055 . S
O971 C975 1.253 . S
H972 C968 0.931 . S
H973 C969 0.930 . S
O974 Co963 2.039 . S
O974 C964 1.265 . S
C975 O971 1.253 . S
C975 O976 1.227 . S
O976 C975 1.227 . S
N977 Co963 2.140 . S
N977 C980 1.346 . S
N977 C981 1.345 . S
C978 C979 1.387 . S
C978 C982 1.391 . S
C979 C978 1.387 . S
C979 C980 1.369 . S
C979 H988 0.929 . S
C980 N977 1.346 . S
C980 C979 1.369 . S
C980 H983 0.928 . S
C981 N977 1.345 . S
C981 C982 1.371 . S
C981 H984 0.931 . S
C982 C978 1.391 . S
C982 C981 1.371 . S
C982 H989 0.930 . S
H983 C980 0.928 . S
H984 C981 0.931 . S
H985 C961 0.930 . S
H986 C958 0.930 . S
H987 C967 0.930 . S
H988 C979 0.929 . S
H989 C982 0.930 . S
C990 C991 1.351 . S
C990 N993 1.368 . S
C990 H995 0.931 . S
C991 C990 1.351 . S
C991 N992 1.373 . S
C991 H1019 0.930 . S
N992 C991 1.373 . S
N992 C994 1.340 . S
N993 C990 1.368 . S
N993 C994 1.321 . S
N993 Co996 2.135 . S
C994 N992 1.340 . S
C994 N993 1.321 . S
C994 H1018 0.930 . S
H995 C990 0.931 . S
Co996 N993 2.135 . S
Co996 N999 2.121 . S
Co996 O1004 2.055 . S
Co996 O1007 2.039 . S
Co996 N1010 2.140 . S
C997 O998 1.227 . S
C997 O1007 1.265 . S
O998 C997 1.227 . S
N999 Co996 2.121 . S
N999 C1001 1.375 . S
N999 C1002 1.313 . S
C1000 C1001 1.338 . S
C1000 N1003 1.377 . S
C1000 H1020 0.930 . S
C1001 N999 1.375 . S
C1001 C1000 1.338 . S
C1001 H1005 0.931 . S
C1002 N999 1.313 . S
C1002 N1003 1.344 . S
C1002 H1006 0.930 . S
N1003 C1000 1.377 . S
N1003 C1002 1.344 . S
O1004 Co996 2.055 . S
O1004 C1008 1.253 . S
H1005 C1001 0.931 . S
H1006 C1002 0.930 . S
O1007 Co996 2.039 . S
O1007 C997 1.265 . S
C1008 O1004 1.253 . S
C1008 O1009 1.227 . S
O1009 C1008 1.227 . S
N1010 Co996 2.140 . S
N1010 C1013 1.346 . S
N1010 C1014 1.345 . S
C1011 C1012 1.387 . S
C1011 C1015 1.391 . S
C1012 C1011 1.387 . S
C1012 C1013 1.369 . S
C1012 H1021 0.929 . S
C1013 N1010 1.346 . S
C1013 C1012 1.369 . S
C1013 H1016 0.928 . S
C1014 N1010 1.345 . S
C1014 C1015 1.371 . S
C1014 H1017 0.931 . S
C1015 C1011 1.391 . S
C1015 C1014 1.371 . S
C1015 H1022 0.930 . S
H1016 C1013 0.928 . S
H1017 C1014 0.931 . S
H1018 C994 0.930 . S
H1019 C991 0.930 . S
H1020 C1000 0.930 . S
H1021 C1012 0.929 . S
H1022 C1015 0.930 . S
C1023 C1024 1.351 . S
C1023 N1026 1.368 . S
C1023 H1028 0.931 . S
C1024 C1023 1.351 . S
C1024 N1025 1.373 . S
C1024 H1052 0.930 . S
N1025 C1024 1.373 . S
N1025 C1027 1.340 . S
N1026 C1023 1.368 . S
N1026 C1027 1.321 . S
N1026 Co1029 2.135 . S
C1027 N1025 1.340 . S
C1027 N1026 1.321 . S
C1027 H1051 0.930 . S
H1028 C1023 0.931 . S
Co1029 N1026 2.135 . S
Co1029 N1032 2.121 . S
Co1029 O1037 2.055 . S
Co1029 O1040 2.039 . S
Co1029 N1043 2.140 . S
C1030 O1031 1.227 . S
C1030 O1040 1.265 . S
O1031 C1030 1.227 . S
N1032 Co1029 2.121 . S
N1032 C1034 1.375 . S
N1032 C1035 1.313 . S
C1033 C1034 1.338 . S
C1033 N1036 1.377 . S
C1033 H1053 0.930 . S
C1034 N1032 1.375 . S
C1034 C1033 1.338 . S
C1034 H1038 0.931 . S
C1035 N1032 1.313 . S
C1035 N1036 1.344 . S
C1035 H1039 0.930 . S
N1036 C1033 1.377 . S
N1036 C1035 1.344 . S
O1037 Co1029 2.055 . S
O1037 C1041 1.253 . S
H1038 C1034 0.931 . S
H1039 C1035 0.930 . S
O1040 Co1029 2.039 . S
O1040 C1030 1.265 . S
C1041 O1037 1.253 . S
C1041 O1042 1.227 . S
O1042 C1041 1.227 . S
N1043 Co1029 2.140 . S
N1043 C1046 1.346 . S
N1043 C1047 1.345 . S
C1044 C1045 1.387 . S
C1044 C1048 1.391 . S
C1045 C1044 1.387 . S
C1045 C1046 1.369 . S
C1045 H1054 0.929 . S
C1046 N1043 1.346 . S
C1046 C1045 1.369 . S
C1046 H1049 0.928 . S
C1047 N1043 1.345 . S
C1047 C1048 1.371 . S
C1047 H1050 0.931 . S
C1048 C1044 1.391 . S
C1048 C1047 1.371 . S
C1048 H1055 0.930 . S
H1049 C1046 0.928 . S
H1050 C1047 0.931 . S
H1051 C1027 0.930 . S
H1052 C1024 0.930 . S
H1053 C1033 0.930 . S
H1054 C1045 0.929 . S
H1055 C1048 0.930 . S
C1056 C1057 1.369 . S
C1056 C1058 1.419 . S
C1056 H1060 0.930 . S
C1057 C1056 1.369 . S
C1057 C1066 1.429 . S
C1058 C1056 1.419 . S
C1058 C1059 1.363 . S
C1058 H1061 0.929 . S
C1059 C1058 1.363 . S
C1059 C1065 1.428 . S
H1060 C1056 0.930 . S
H1061 C1058 0.929 . S
S1062 N1063 1.613 . S
S1062 N1064 1.610 . S
N1063 S1062 1.613 . S
N1063 C1066 1.350 . S
N1064 S1062 1.610 . S
N1064 C1065 1.351 . S
C1065 C1059 1.428 . S
C1065 N1064 1.351 . S
C1065 C1066 1.434 . S
C1066 C1057 1.429 . S
C1066 N1063 1.350 . S
C1066 C1065 1.434 . S
C1067 C1068 1.385 . S
C1067 C1069 1.403 1_455 S
C1067 H1071 0.930 . S
C1068 C1067 1.385 . S
C1068 C1077 1.429 1_565 S
C1069 C1067 1.403 1_655 S
C1069 C1070 1.363 1_565 S
C1069 H1072 0.929 . S
C1070 C1069 1.363 1_545 S
C1070 C1076 1.442 . S
H1071 C1067 0.930 . S
H1072 C1069 0.929 . S
S1073 N1074 1.613 . S
S1073 N1075 1.602 1_455 S
N1074 S1073 1.613 . S
N1074 C1077 1.350 . S
N1075 S1073 1.602 1_655 S
N1075 C1076 1.351 . S
C1076 C1070 1.442 . S
C1076 N1075 1.351 . S
C1076 C1077 1.420 1_655 S
C1077 C1068 1.429 1_545 S
C1077 N1074 1.350 . S
C1077 C1076 1.420 1_455 S
C1078 C1079 1.369 . S
C1078 C1080 1.419 . S
C1078 H1082 0.930 . S
C1079 C1078 1.369 . S
C1079 C1088 1.429 . S
C1080 C1078 1.419 . S
C1080 C1081 1.363 . S
C1080 H1083 0.929 . S
C1081 C1080 1.363 . S
C1081 C1087 1.428 . S
H1082 C1078 0.930 . S
H1083 C1080 0.929 . S
S1084 N1085 1.613 . S
S1084 N1086 1.610 . S
N1085 S1084 1.613 . S
N1085 C1088 1.350 . S
N1086 S1084 1.610 . S
N1086 C1087 1.351 . S
C1087 C1081 1.428 . S
C1087 N1086 1.351 . S
C1087 C1088 1.434 . S
C1088 C1079 1.429 . S
C1088 N1085 1.350 . S
C1088 C1087 1.434 . S
C1089 C1090 1.369 . S
C1089 C1091 1.419 1_554 S
C1089 H1093 0.930 . S
C1090 C1089 1.369 . S
C1090 C1099 1.429 1_545 S
C1091 C1089 1.419 1_556 S
C1091 C1092 1.363 1_545 S
C1091 H1094 0.929 . S
C1092 C1091 1.363 1_565 S
C1092 C1098 1.428 . S
H1093 C1089 0.930 . S
H1094 C1091 0.929 . S
S1095 N1096 1.613 . S
S1095 N1097 1.610 1_554 S
N1096 S1095 1.613 . S
N1096 C1099 1.350 . S
N1097 S1095 1.610 1_556 S
N1097 C1098 1.351 . S
C1098 C1092 1.428 . S
C1098 N1097 1.351 . S
C1098 C1099 1.434 1_556 S
C1099 C1090 1.429 1_565 S
C1099 N1096 1.350 . S
C1099 C1098 1.434 1_554 S
C1100 C1101 1.369 . S
C1100 C1102 1.419 . S
C1100 H1104 0.930 . S
C1101 C1100 1.369 . S
C1101 C1110 1.429 . S
C1102 C1100 1.419 . S
C1102 C1103 1.363 . S
C1102 H1105 0.929 . S
C1103 C1102 1.363 . S
C1103 C1109 1.428 . S
H1104 C1100 0.930 . S
H1105 C1102 0.929 . S
S1106 N1107 1.613 . S
S1106 N1108 1.610 . S
N1107 S1106 1.613 . S
N1107 C1110 1.350 . S
N1108 S1106 1.610 . S
N1108 C1109 1.351 . S
C1109 C1103 1.428 . S
C1109 N1108 1.351 . S
C1109 C1110 1.434 . S
C1110 C1101 1.429 . S
C1110 N1107 1.350 . S
C1110 C1109 1.434 . S
C1111 C1112 1.369 . S
C1111 C1113 1.419 . S
C1111 H1115 0.930 . S
C1112 C1111 1.369 . S
C1112 C1121 1.429 1_565 S
C1113 C1111 1.419 . S
C1113 C1114 1.363 1_565 S
C1113 H1116 0.929 . S
C1114 C1113 1.363 1_545 S
C1114 C1120 1.428 . S
H1115 C1111 0.930 . S
H1116 C1113 0.929 . S
S1117 N1118 1.613 . S
S1117 N1119 1.610 . S
N1118 S1117 1.613 . S
N1118 C1121 1.350 . S
N1119 S1117 1.610 . S
N1119 C1120 1.351 . S
C1120 C1114 1.428 . S
C1120 N1119 1.351 . S
C1120 C1121 1.434 . S
C1121 C1112 1.429 1_545 S
C1121 N1118 1.350 . S
C1121 C1120 1.434 . S
C1122 C1123 1.369 . S
C1122 C1124 1.419 . S
C1122 H1126 0.930 . S
C1123 C1122 1.369 . S
C1123 C1132 1.429 . S
C1124 C1122 1.419 . S
C1124 C1125 1.363 . S
C1124 H1127 0.929 . S
C1125 C1124 1.363 . S
C1125 C1131 1.428 . S
H1126 C1122 0.930 . S
H1127 C1124 0.929 . S
S1128 N1129 1.613 . S
S1128 N1130 1.610 . S
N1129 S1128 1.613 . S
N1129 C1132 1.350 . S
N1130 S1128 1.610 . S
N1130 C1131 1.351 . S
C1131 C1125 1.428 . S
C1131 N1130 1.351 . S
C1131 C1132 1.434 . S
C1132 C1123 1.429 . S
C1132 N1129 1.350 . S
C1132 C1131 1.434 . S
C1133 C1134 1.369 1_655 S
C1133 C1135 1.419 1_556 S
C1133 H1137 0.930 . S
C1134 C1133 1.369 1_455 S
C1134 C1143 1.429 1_545 S
C1135 C1133 1.419 1_554 S
C1135 C1136 1.363 1_545 S
C1135 H1138 0.929 . S
C1136 C1135 1.363 1_565 S
C1136 C1142 1.428 1_655 S
H1137 C1133 0.930 . S
H1138 C1135 0.929 . S
S1139 N1140 1.613 1_554 S
S1139 N1141 1.610 . S
N1140 S1139 1.613 1_556 S
N1140 C1143 1.350 . S
N1141 S1139 1.610 . S
N1141 C1142 1.351 . S
C1142 C1136 1.428 1_455 S
C1142 N1141 1.351 . S
C1142 C1143 1.434 1_554 S
C1143 C1134 1.429 1_565 S
C1143 N1140 1.350 . S
C1143 C1142 1.434 1_556 S
C1144 C1145 1.369 . S
C1144 C1146 1.419 . S
C1144 H1148 0.930 . S
C1145 C1144 1.369 . S
C1145 C1154 1.429 . S
C1146 C1144 1.419 . S
C1146 C1147 1.363 . S
C1146 H1149 0.929 . S
C1147 C1146 1.363 . S
C1147 C1153 1.428 . S
H1148 C1144 0.930 . S
H1149 C1146 0.929 . S
S1150 N1151 1.613 . S
S1150 N1152 1.610 . S
N1151 S1150 1.613 . S
N1151 C1154 1.350 . S
N1152 S1150 1.610 . S
N1152 C1153 1.351 . S
C1153 C1147 1.428 . S
C1153 N1152 1.351 . S
C1153 C1154 1.434 . S
C1154 C1145 1.429 . S
C1154 N1151 1.350 . S
C1154 C1153 1.434 . S
C1155 C1156 1.369 . S
C1155 C1157 1.419 . S
C1155 H1159 0.930 . S
C1156 C1155 1.369 . S
C1156 C1165 1.429 . S
C1157 C1155 1.419 . S
C1157 C1158 1.363 . S
C1157 H1160 0.929 . S
C1158 C1157 1.363 . S
C1158 C1164 1.428 . S
H1159 C1155 0.930 . S
H1160 C1157 0.929 . S
S1161 N1162 1.613 . S
S1161 N1163 1.610 . S
N1162 S1161 1.613 . S
N1162 C1165 1.350 . S
N1163 S1161 1.610 . S
N1163 C1164 1.351 . S
C1164 C1158 1.428 . S
C1164 N1163 1.351 . S
C1164 C1165 1.434 . S
C1165 C1156 1.429 . S
C1165 N1162 1.350 . S
C1165 C1164 1.434 . S
C1166 C1167 1.369 . S
C1166 C1168 1.419 . S
C1166 H1170 0.930 . S
C1167 C1166 1.369 . S
C1167 C1176 1.429 . S
C1168 C1166 1.419 . S
C1168 C1169 1.363 . S
C1168 H1171 0.929 . S
C1169 C1168 1.363 . S
C1169 C1175 1.428 . S
H1170 C1166 0.930 . S
H1171 C1168 0.929 . S
S1172 N1173 1.613 . S
S1172 N1174 1.610 . S
N1173 S1172 1.613 . S
N1173 C1176 1.350 . S
N1174 S1172 1.610 . S
N1174 C1175 1.351 . S
C1175 C1169 1.428 . S
C1175 N1174 1.351 . S
C1175 C1176 1.434 . S
C1176 C1167 1.429 . S
C1176 N1173 1.350 . S
C1176 C1175 1.434 . S
C1177 C1178 1.369 . S
C1177 C1179 1.419 . S
C1177 H1181 0.930 . S
C1178 C1177 1.369 . S
C1178 C1187 1.429 . S
C1179 C1177 1.419 . S
C1179 C1180 1.363 . S
C1179 H1182 0.929 . S
C1180 C1179 1.363 . S
C1180 C1186 1.428 . S
H1181 C1177 0.930 . S
H1182 C1179 0.929 . S
S1183 N1184 1.613 . S
S1183 N1185 1.610 . S
N1184 S1183 1.613 . S
N1184 C1187 1.350 . S
N1185 S1183 1.610 . S
N1185 C1186 1.351 . S
C1186 C1180 1.428 . S
C1186 N1185 1.351 . S
C1186 C1187 1.434 . S
C1187 C1178 1.429 . S
C1187 N1184 1.350 . S
C1187 C1186 1.434 . S
C1188 C1189 1.369 . S
C1188 C1190 1.419 1_556 S
C1188 H1192 0.930 . S
C1189 C1188 1.369 . S
C1189 C1198 1.429 . S
C1190 C1188 1.419 1_554 S
C1190 C1191 1.363 . S
C1190 H1193 0.929 . S
C1191 C1190 1.363 . S
C1191 C1197 1.428 . S
H1192 C1188 0.930 . S
H1193 C1190 0.929 . S
S1194 N1195 1.593 1_554 S
S1194 N1196 1.630 . S
N1195 S1194 1.593 1_556 S
N1195 C1198 1.350 . S
N1196 S1194 1.630 . S
N1196 C1197 1.351 . S
C1197 C1191 1.428 . S
C1197 N1196 1.351 . S
C1197 C1198 1.434 1_554 S
C1198 C1189 1.429 . S
C1198 N1195 1.350 . S
C1198 C1197 1.434 1_556 S
C1199 C1200 1.369 1_455 S
C1199 C1201 1.419 . S
C1199 H1203 0.930 . S
C1200 C1199 1.369 1_655 S
C1200 C1209 1.429 . S
C1201 C1199 1.419 . S
C1201 C1202 1.363 . S
C1201 H1204 0.929 . S
C1202 C1201 1.363 . S
C1202 C1208 1.428 1_455 S
H1203 C1199 0.930 . S
H1204 C1201 0.929 . S
S1205 N1206 1.613 . S
S1205 N1207 1.610 . S
N1206 S1205 1.613 . S
N1206 C1209 1.350 . S
N1207 S1205 1.610 . S
N1207 C1208 1.351 . S
C1208 C1202 1.428 1_655 S
C1208 N1207 1.351 . S
C1208 C1209 1.434 . S
C1209 C1200 1.429 . S
C1209 N1206 1.350 . S
C1209 C1208 1.434 . S
C1210 C1211 1.369 1_655 S
C1210 C1212 1.419 1_554 S
C1210 H1214 0.930 . S
C1211 C1210 1.369 1_455 S
C1211 C1220 1.429 . S
C1212 C1210 1.419 1_556 S
C1212 C1213 1.363 . S
C1212 H1215 0.929 . S
C1213 C1212 1.363 . S
C1213 C1219 1.428 1_655 S
H1214 C1210 0.930 . S
H1215 C1212 0.929 . S
S1216 N1217 1.637 . S
S1216 N1218 1.610 . S
N1217 S1216 1.637 . S
N1217 C1220 1.348 1_556 S
N1218 S1216 1.610 . S
N1218 C1219 1.351 . S
C1219 C1213 1.428 1_455 S
C1219 N1218 1.351 . S
C1219 C1220 1.434 1_556 S
C1220 C1211 1.429 . S
C1220 N1217 1.348 1_554 S
C1220 C1219 1.434 1_554 S
C1221 C1222 1.369 . S
C1221 C1223 1.419 . S
C1221 H1225 0.930 . S
C1222 C1221 1.369 . S
C1222 C1231 1.429 . S
C1223 C1221 1.419 . S
C1223 C1224 1.363 . S
C1223 H1226 0.929 . S
C1224 C1223 1.363 . S
C1224 C1230 1.428 . S
H1225 C1221 0.930 . S
H1226 C1223 0.929 . S
S1227 N1228 1.613 . S
S1227 N1229 1.610 . S
N1228 S1227 1.613 . S
N1228 C1231 1.350 . S
N1229 S1227 1.610 . S
N1229 C1230 1.351 . S
C1230 C1224 1.428 . S
C1230 N1229 1.351 . S
C1230 C1231 1.434 . S
C1231 C1222 1.429 . S
C1231 N1228 1.350 . S
C1231 C1230 1.434 . S
C1232 C1233 1.369 . S
C1232 C1234 1.419 . S
C1232 H1236 0.930 . S
C1233 C1232 1.369 . S
C1233 C1242 1.429 . S
C1234 C1232 1.419 . S
C1234 C1235 1.363 . S
C1234 H1237 0.929 . S
C1235 C1234 1.363 . S
C1235 C1241 1.428 . S
H1236 C1232 0.930 . S
H1237 C1234 0.929 . S
S1238 N1239 1.613 . S
S1238 N1240 1.610 . S
N1239 S1238 1.613 . S
N1239 C1242 1.350 . S
N1240 S1238 1.610 . S
N1240 C1241 1.351 . S
C1241 C1235 1.428 . S
C1241 N1240 1.351 . S
C1241 C1242 1.434 . S
C1242 C1233 1.429 . S
C1242 N1239 1.350 . S
C1242 C1241 1.434 . S
C1243 C1244 1.369 . S
C1243 C1245 1.419 . S
C1243 H1247 0.930 . S
C1244 C1243 1.369 . S
C1244 C1253 1.429 . S
C1245 C1243 1.419 . S
C1245 C1246 1.363 . S
C1245 H1248 0.929 . S
C1246 C1245 1.363 . S
C1246 C1252 1.428 . S
H1247 C1243 0.930 . S
H1248 C1245 0.929 . S
S1249 N1250 1.613 . S
S1249 N1251 1.610 . S
N1250 S1249 1.613 . S
N1250 C1253 1.350 . S
N1251 S1249 1.610 . S
N1251 C1252 1.351 . S
C1252 C1246 1.428 . S
C1252 N1251 1.351 . S
C1252 C1253 1.434 . S
C1253 C1244 1.429 . S
C1253 N1250 1.350 . S
C1253 C1252 1.434 . S
C1254 C1255 1.369 . S
C1254 C1256 1.419 . S
C1254 H1258 0.930 . S
C1255 C1254 1.369 . S
C1255 C1264 1.429 . S
C1256 C1254 1.419 . S
C1256 C1257 1.363 . S
C1256 H1259 0.929 . S
C1257 C1256 1.363 . S
C1257 C1263 1.428 . S
H1258 C1254 0.930 . S
H1259 C1256 0.929 . S
S1260 N1261 1.613 . S
S1260 N1262 1.610 . S
N1261 S1260 1.613 . S
N1261 C1264 1.350 . S
N1262 S1260 1.610 . S
N1262 C1263 1.351 . S
C1263 C1257 1.428 . S
C1263 N1262 1.351 . S
C1263 C1264 1.434 . S
C1264 C1255 1.429 . S
C1264 N1261 1.350 . S
C1264 C1263 1.434 . S
C1265 C1266 1.369 . S
C1265 C1267 1.419 . S
C1265 H1269 0.930 . S
C1266 C1265 1.369 . S
C1266 C1275 1.429 . S
C1267 C1265 1.419 . S
C1267 C1268 1.363 . S
C1267 H1270 0.929 . S
C1268 C1267 1.363 . S
C1268 C1274 1.428 . S
H1269 C1265 0.930 . S
H1270 C1267 0.929 . S
S1271 N1272 1.613 . S
S1271 N1273 1.610 . S
N1272 S1271 1.613 . S
N1272 C1275 1.350 . S
N1273 S1271 1.610 . S
N1273 C1274 1.351 . S
C1274 C1268 1.428 . S
C1274 N1273 1.351 . S
C1274 C1275 1.434 . S
C1275 C1266 1.429 . S
C1275 N1272 1.350 . S
C1275 C1274 1.434 . S
C1276 C1277 1.369 . S
C1276 C1278 1.419 . S
C1276 H1280 0.930 . S
C1277 C1276 1.369 . S
C1277 C1286 1.429 . S
C1278 C1276 1.419 . S
C1278 C1279 1.363 . S
C1278 H1281 0.929 . S
C1279 C1278 1.363 . S
C1279 C1285 1.428 . S
H1280 C1276 0.930 . S
H1281 C1278 0.929 . S
S1282 N1283 1.613 . S
S1282 N1284 1.610 . S
N1283 S1282 1.613 . S
N1283 C1286 1.350 . S
N1284 S1282 1.610 . S
N1284 C1285 1.351 . S
C1285 C1279 1.428 . S
C1285 N1284 1.351 . S
C1285 C1286 1.434 . S
C1286 C1277 1.429 . S
C1286 N1283 1.350 . S
C1286 C1285 1.434 . S
C1287 C1288 1.369 . S
C1287 C1289 1.419 . S
C1287 H1291 0.930 . S
C1288 C1287 1.369 . S
C1288 C1297 1.429 . S
C1289 C1287 1.419 . S
C1289 C1290 1.363 . S
C1289 H1292 0.929 . S
C1290 C1289 1.363 . S
C1290 C1296 1.428 . S
H1291 C1287 0.930 . S
H1292 C1289 0.929 . S
S1293 N1294 1.613 . S
S1293 N1295 1.610 . S
N1294 S1293 1.613 . S
N1294 C1297 1.350 . S
N1295 S1293 1.610 . S
N1295 C1296 1.351 . S
C1296 C1290 1.428 . S
C1296 N1295 1.351 . S
C1296 C1297 1.434 . S
C1297 C1288 1.429 . S
C1297 N1294 1.350 . S
C1297 C1296 1.434 . S
C1298 C1299 1.369 . S
C1298 C1300 1.419 . S
C1298 H1302 0.930 . S
C1299 C1298 1.369 . S
C1299 C1308 1.429 . S
C1300 C1298 1.419 . S
C1300 C1301 1.363 . S
C1300 H1303 0.929 . S
C1301 C1300 1.363 . S
C1301 C1307 1.428 . S
H1302 C1298 0.930 . S
H1303 C1300 0.929 . S
S1304 N1305 1.613 . S
S1304 N1306 1.610 . S
N1305 S1304 1.613 . S
N1305 C1308 1.350 . S
N1306 S1304 1.610 . S
N1306 C1307 1.351 . S
C1307 C1301 1.428 . S
C1307 N1306 1.351 . S
C1307 C1308 1.434 . S
C1308 C1299 1.429 . S
C1308 N1305 1.350 . S
C1308 C1307 1.434 . S
C1309 C1310 1.369 . S
C1309 C1311 1.419 . S
C1309 H1313 0.930 . S
C1310 C1309 1.369 . S
C1310 C1319 1.429 . S
C1311 C1309 1.419 . S
C1311 C1312 1.363 . S
C1311 H1314 0.929 . S
C1312 C1311 1.363 . S
C1312 C1318 1.428 . S
H1313 C1309 0.930 . S
H1314 C1311 0.929 . S
S1315 N1316 1.613 . S
S1315 N1317 1.610 . S
N1316 S1315 1.613 . S
N1316 C1319 1.350 . S
N1317 S1315 1.610 . S
N1317 C1318 1.351 . S
C1318 C1312 1.428 . S
C1318 N1317 1.351 . S
C1318 C1319 1.434 . S
C1319 C1310 1.429 . S
C1319 N1316 1.350 . S
C1319 C1318 1.434 . S
C1320 C1321 1.369 . S
C1320 C1322 1.419 . S
C1320 H1324 0.930 . S
C1321 C1320 1.369 . S
C1321 C1330 1.429 . S
C1322 C1320 1.419 . S
C1322 C1323 1.363 . S
C1322 H1325 0.929 . S
C1323 C1322 1.363 . S
C1323 C1329 1.428 . S
H1324 C1320 0.930 . S
H1325 C1322 0.929 . S
S1326 N1327 1.613 . S
S1326 N1328 1.610 . S
N1327 S1326 1.613 . S
N1327 C1330 1.350 . S
N1328 S1326 1.610 . S
N1328 C1329 1.351 . S
C1329 C1323 1.428 . S
C1329 N1328 1.351 . S
C1329 C1330 1.434 . S
C1330 C1321 1.429 . S
C1330 N1327 1.350 . S
C1330 C1329 1.434 . S
C1331 C1332 1.369 . S
C1331 C1333 1.419 . S
C1331 H1335 0.930 . S
C1332 C1331 1.369 . S
C1332 C1341 1.429 . S
C1333 C1331 1.419 . S
C1333 C1334 1.363 . S
C1333 H1336 0.929 . S
C1334 C1333 1.363 . S
C1334 C1340 1.428 . S
H1335 C1331 0.930 . S
H1336 C1333 0.929 . S
S1337 N1338 1.613 . S
S1337 N1339 1.610 . S
N1338 S1337 1.613 . S
N1338 C1341 1.350 . S
N1339 S1337 1.610 . S
N1339 C1340 1.351 . S
C1340 C1334 1.428 . S
C1340 N1339 1.351 . S
C1340 C1341 1.434 . S
C1341 C1332 1.429 . S
C1341 N1338 1.350 . S
C1341 C1340 1.434 . S
C1342 C1343 1.369 . S
C1342 C1344 1.419 . S
C1342 H1346 0.930 . S
C1343 C1342 1.369 . S
C1343 C1352 1.429 . S
C1344 C1342 1.419 . S
C1344 C1345 1.363 . S
C1344 H1347 0.929 . S
C1345 C1344 1.363 . S
C1345 C1351 1.428 . S
H1346 C1342 0.930 . S
H1347 C1344 0.929 . S
S1348 N1349 1.613 . S
S1348 N1350 1.610 . S
N1349 S1348 1.613 . S
N1349 C1352 1.350 . S
N1350 S1348 1.610 . S
N1350 C1351 1.351 . S
C1351 C1345 1.428 . S
C1351 N1350 1.351 . S
C1351 C1352 1.434 . S
C1352 C1343 1.429 . S
C1352 N1349 1.350 . S
C1352 C1351 1.434 . S
C1353 C1354 1.369 . S
C1353 C1355 1.419 . S
C1353 H1357 0.930 . S
C1354 C1353 1.369 . S
C1354 C1363 1.429 . S
C1355 C1353 1.419 . S
C1355 C1356 1.363 . S
C1355 H1358 0.929 . S
C1356 C1355 1.363 . S
C1356 C1362 1.428 . S
H1357 C1353 0.930 . S
H1358 C1355 0.929 . S
S1359 N1360 1.613 . S
S1359 N1361 1.610 . S
N1360 S1359 1.613 . S
N1360 C1363 1.350 . S
N1361 S1359 1.610 . S
N1361 C1362 1.351 . S
C1362 C1356 1.428 . S
C1362 N1361 1.351 . S
C1362 C1363 1.434 . S
C1363 C1354 1.429 . S
C1363 N1360 1.350 . S
C1363 C1362 1.434 . S
C1364 C1365 1.369 . S
C1364 C1366 1.419 . S
C1364 H1368 0.930 . S
C1365 C1364 1.369 . S
C1365 C1374 1.429 . S
C1366 C1364 1.419 . S
C1366 C1367 1.363 . S
C1366 H1369 0.929 . S
C1367 C1366 1.363 . S
C1367 C1373 1.428 . S
H1368 C1364 0.930 . S
H1369 C1366 0.929 . S
S1370 N1371 1.613 . S
S1370 N1372 1.610 . S
N1371 S1370 1.613 . S
N1371 C1374 1.350 . S
N1372 S1370 1.610 . S
N1372 C1373 1.351 . S
C1373 C1367 1.428 . S
C1373 N1372 1.351 . S
C1373 C1374 1.434 . S
C1374 C1365 1.429 . S
C1374 N1371 1.350 . S
C1374 C1373 1.434 . S
C1375 C1376 1.369 . S
C1375 C1377 1.419 . S
C1375 H1379 0.930 . S
C1376 C1375 1.369 . S
C1376 C1385 1.429 . S
C1377 C1375 1.419 . S
C1377 C1378 1.363 . S
C1377 H1380 0.929 . S
C1378 C1377 1.363 . S
C1378 C1384 1.428 . S
H1379 C1375 0.930 . S
H1380 C1377 0.929 . S
S1381 N1382 1.613 . S
S1381 N1383 1.610 . S
N1382 S1381 1.613 . S
N1382 C1385 1.350 . S
N1383 S1381 1.610 . S
N1383 C1384 1.351 . S
C1384 C1378 1.428 . S
C1384 N1383 1.351 . S
C1384 C1385 1.434 . S
C1385 C1376 1.429 . S
C1385 N1382 1.350 . S
C1385 C1384 1.434 . S
C1386 C1387 1.369 . S
C1386 C1388 1.419 . S
C1386 H1390 0.930 . S
C1387 C1386 1.369 . S
C1387 C1396 1.429 . S
C1388 C1386 1.419 . S
C1388 C1389 1.363 . S
C1388 H1391 0.929 . S
C1389 C1388 1.363 . S
C1389 C1395 1.428 . S
H1390 C1386 0.930 . S
H1391 C1388 0.929 . S
S1392 N1393 1.613 . S
S1392 N1394 1.610 . S
N1393 S1392 1.613 . S
N1393 C1396 1.350 . S
N1394 S1392 1.610 . S
N1394 C1395 1.351 . S
C1395 C1389 1.428 . S
C1395 N1394 1.351 . S
C1395 C1396 1.434 . S
C1396 C1387 1.429 . S
C1396 N1393 1.350 . S
C1396 C1395 1.434 . S
C1397 C1398 1.369 . S
C1397 C1399 1.419 . S
C1397 H1401 0.930 . S
C1398 C1397 1.369 . S
C1398 C1407 1.429 . S
C1399 C1397 1.419 . S
C1399 C1400 1.363 . S
C1399 H1402 0.929 . S
C1400 C1399 1.363 . S
C1400 C1406 1.428 . S
H1401 C1397 0.930 . S
H1402 C1399 0.929 . S
S1403 N1404 1.613 . S
S1403 N1405 1.610 . S
N1404 S1403 1.613 . S
N1404 C1407 1.350 . S
N1405 S1403 1.610 . S
N1405 C1406 1.351 . S
C1406 C1400 1.428 . S
C1406 N1405 1.351 . S
C1406 C1407 1.434 . S
C1407 C1398 1.429 . S
C1407 N1404 1.350 . S
C1407 C1406 1.434 . S
C1408 C1409 1.369 . S
C1408 C1410 1.419 . S
C1408 H1412 0.930 . S
C1409 C1408 1.369 . S
C1409 C1418 1.429 . S
C1410 C1408 1.419 . S
C1410 C1411 1.363 . S
C1410 H1413 0.929 . S
C1411 C1410 1.363 . S
C1411 C1417 1.428 . S
H1412 C1408 0.930 . S
H1413 C1410 0.929 . S
S1414 N1415 1.613 . S
S1414 N1416 1.610 . S
N1415 S1414 1.613 . S
N1415 C1418 1.350 . S
N1416 S1414 1.610 . S
N1416 C1417 1.351 . S
C1417 C1411 1.428 . S
C1417 N1416 1.351 . S
C1417 C1418 1.434 . S
C1418 C1409 1.429 . S
C1418 N1415 1.350 . S
C1418 C1417 1.434 . S
C1419 C1420 1.369 . S
C1419 C1421 1.419 . S
C1419 H1423 0.930 . S
C1420 C1419 1.369 . S
C1420 C1429 1.429 . S
C1421 C1419 1.419 . S
C1421 C1422 1.363 . S
C1421 H1424 0.929 . S
C1422 C1421 1.363 . S
C1422 C1428 1.428 . S
H1423 C1419 0.930 . S
H1424 C1421 0.929 . S
S1425 N1426 1.613 . S
S1425 N1427 1.610 . S
N1426 S1425 1.613 . S
N1426 C1429 1.350 . S
N1427 S1425 1.610 . S
N1427 C1428 1.351 . S
C1428 C1422 1.428 . S
C1428 N1427 1.351 . S
C1428 C1429 1.434 . S
C1429 C1420 1.429 . S
C1429 N1426 1.350 . S
C1429 C1428 1.434 . S
C1430 C1431 1.369 . S
C1430 C1432 1.419 . S
C1430 H1434 0.930 . S
C1431 C1430 1.369 . S
C1431 C1440 1.429 . S
C1432 C1430 1.419 . S
C1432 C1433 1.363 . S
C1432 H1435 0.929 . S
C1433 C1432 1.363 . S
C1433 C1439 1.428 . S
H1434 C1430 0.930 . S
H1435 C1432 0.929 . S
S1436 N1437 1.613 . S
S1436 N1438 1.610 . S
N1437 S1436 1.613 . S
N1437 C1440 1.350 . S
N1438 S1436 1.610 . S
N1438 C1439 1.351 . S
C1439 C1433 1.428 . S
C1439 N1438 1.351 . S
C1439 C1440 1.434 . S
C1440 C1431 1.429 . S
C1440 N1437 1.350 . S
C1440 C1439 1.434 . S
C1441 C1442 1.369 . S
C1441 C1443 1.419 . S
C1441 H1445 0.930 . S
C1442 C1441 1.369 . S
C1442 C1451 1.429 . S
C1443 C1441 1.419 . S
C1443 C1444 1.363 . S
C1443 H1446 0.929 . S
C1444 C1443 1.363 . S
C1444 C1450 1.428 . S
H1445 C1441 0.930 . S
H1446 C1443 0.929 . S
S1447 N1448 1.613 . S
S1447 N1449 1.610 . S
N1448 S1447 1.613 . S
N1448 C1451 1.350 . S
N1449 S1447 1.610 . S
N1449 C1450 1.351 . S
C1450 C1444 1.428 . S
C1450 N1449 1.351 . S
C1450 C1451 1.434 . S
C1451 C1442 1.429 . S
C1451 N1448 1.350 . S
C1451 C1450 1.434 . S
C1452 C1453 1.369 . S
C1452 C1454 1.419 . S
C1452 H1456 0.930 . S
C1453 C1452 1.369 . S
C1453 C1462 1.429 . S
C1454 C1452 1.419 . S
C1454 C1455 1.363 . S
C1454 H1457 0.929 . S
C1455 C1454 1.363 . S
C1455 C1461 1.428 . S
H1456 C1452 0.930 . S
H1457 C1454 0.929 . S
S1458 N1459 1.613 . S
S1458 N1460 1.610 . S
N1459 S1458 1.613 . S
N1459 C1462 1.350 . S
N1460 S1458 1.610 . S
N1460 C1461 1.351 . S
C1461 C1455 1.428 . S
C1461 N1460 1.351 . S
C1461 C1462 1.434 . S
C1462 C1453 1.429 . S
C1462 N1459 1.350 . S
C1462 C1461 1.434 . S
C1463 C1464 1.369 . S
C1463 C1465 1.419 . S
C1463 H1467 0.930 . S
C1464 C1463 1.369 . S
C1464 C1473 1.429 . S
C1465 C1463 1.419 . S
C1465 C1466 1.363 . S
C1465 H1468 0.929 . S
C1466 C1465 1.363 . S
C1466 C1472 1.428 . S
H1467 C1463 0.930 . S
H1468 C1465 0.929 . S
S1469 N1470 1.613 . S
S1469 N1471 1.610 . S
N1470 S1469 1.613 . S
N1470 C1473 1.350 . S
N1471 S1469 1.610 . S
N1471 C1472 1.351 . S
C1472 C1466 1.428 . S
C1472 N1471 1.351 . S
C1472 C1473 1.434 . S
C1473 C1464 1.429 . S
C1473 N1470 1.350 . S
C1473 C1472 1.434 . S
C1474 C1475 1.369 . S
C1474 C1476 1.419 . S
C1474 H1478 0.930 . S
C1475 C1474 1.369 . S
C1475 C1484 1.429 . S
C1476 C1474 1.419 . S
C1476 C1477 1.363 . S
C1476 H1479 0.929 . S
C1477 C1476 1.363 . S
C1477 C1483 1.428 . S
H1478 C1474 0.930 . S
H1479 C1476 0.929 . S
S1480 N1481 1.613 . S
S1480 N1482 1.610 . S
N1481 S1480 1.613 . S
N1481 C1484 1.350 . S
N1482 S1480 1.610 . S
N1482 C1483 1.351 . S
C1483 C1477 1.428 . S
C1483 N1482 1.351 . S
C1483 C1484 1.434 . S
C1484 C1475 1.429 . S
C1484 N1481 1.350 . S
C1484 C1483 1.434 . S
C1485 C1486 1.369 . S
C1485 C1487 1.419 . S
C1485 H1489 0.930 . S
C1486 C1485 1.369 . S
C1486 C1495 1.429 . S
C1487 C1485 1.419 . S
C1487 C1488 1.363 . S
C1487 H1490 0.929 . S
C1488 C1487 1.363 . S
C1488 C1494 1.428 . S
H1489 C1485 0.930 . S
H1490 C1487 0.929 . S
S1491 N1492 1.613 . S
S1491 N1493 1.610 . S
N1492 S1491 1.613 . S
N1492 C1495 1.350 . S
N1493 S1491 1.610 . S
N1493 C1494 1.351 . S
C1494 C1488 1.428 . S
C1494 N1493 1.351 . S
C1494 C1495 1.434 . S
C1495 C1486 1.429 . S
C1495 N1492 1.350 . S
C1495 C1494 1.434 . S
C1496 C1497 1.369 . S
C1496 C1498 1.419 . S
C1496 H1500 0.930 . S
C1497 C1496 1.369 . S
C1497 C1506 1.429 . S
C1498 C1496 1.419 . S
C1498 C1499 1.363 . S
C1498 H1501 0.929 . S
C1499 C1498 1.363 . S
C1499 C1505 1.428 . S
H1500 C1496 0.930 . S
H1501 C1498 0.929 . S
S1502 N1503 1.613 . S
S1502 N1504 1.610 . S
N1503 S1502 1.613 . S
N1503 C1506 1.350 . S
N1504 S1502 1.610 . S
N1504 C1505 1.351 . S
C1505 C1499 1.428 . S
C1505 N1504 1.351 . S
C1505 C1506 1.434 . S
C1506 C1497 1.429 . S
C1506 N1503 1.350 . S
C1506 C1505 1.434 . S
C1507 C1508 1.369 . S
C1507 C1509 1.419 . S
C1507 H1511 0.930 . S
C1508 C1507 1.369 . S
C1508 C1517 1.429 . S
C1509 C1507 1.419 . S
C1509 C1510 1.363 . S
C1509 H1512 0.929 . S
C1510 C1509 1.363 . S
C1510 C1516 1.428 . S
H1511 C1507 0.930 . S
H1512 C1509 0.929 . S
S1513 N1514 1.613 . S
S1513 N1515 1.610 . S
N1514 S1513 1.613 . S
N1514 C1517 1.350 . S
N1515 S1513 1.610 . S
N1515 C1516 1.351 . S
C1516 C1510 1.428 . S
C1516 N1515 1.351 . S
C1516 C1517 1.434 . S
C1517 C1508 1.429 . S
C1517 N1514 1.350 . S
C1517 C1516 1.434 . S
C1518 C1519 1.369 . S
C1518 C1520 1.419 . S
C1518 H1522 0.930 . S
C1519 C1518 1.369 . S
C1519 C1528 1.429 . S
C1520 C1518 1.419 . S
C1520 C1521 1.363 . S
C1520 H1523 0.929 . S
C1521 C1520 1.363 . S
C1521 C1527 1.428 . S
H1522 C1518 0.930 . S
H1523 C1520 0.929 . S
S1524 N1525 1.613 . S
S1524 N1526 1.610 . S
N1525 S1524 1.613 . S
N1525 C1528 1.350 . S
N1526 S1524 1.610 . S
N1526 C1527 1.351 . S
C1527 C1521 1.428 . S
C1527 N1526 1.351 . S
C1527 C1528 1.434 . S
C1528 C1519 1.429 . S
C1528 N1525 1.350 . S
C1528 C1527 1.434 . S
C1529 C1530 1.369 . S
C1529 C1531 1.419 . S
C1529 H1533 0.930 . S
C1530 C1529 1.369 . S
C1530 C1539 1.429 . S
C1531 C1529 1.419 . S
C1531 C1532 1.363 . S
C1531 H1534 0.929 . S
C1532 C1531 1.363 . S
C1532 C1538 1.428 . S
H1533 C1529 0.930 . S
H1534 C1531 0.929 . S
S1535 N1536 1.613 . S
S1535 N1537 1.610 . S
N1536 S1535 1.613 . S
N1536 C1539 1.350 . S
N1537 S1535 1.610 . S
N1537 C1538 1.351 . S
C1538 C1532 1.428 . S
C1538 N1537 1.351 . S
C1538 C1539 1.434 . S
C1539 C1530 1.429 . S
C1539 N1536 1.350 . S
C1539 C1538 1.434 . S
C1540 C1541 1.369 . S
C1540 C1542 1.419 . S
C1540 H1544 0.930 . S
C1541 C1540 1.369 . S
C1541 C1550 1.429 . S
C1542 C1540 1.419 . S
C1542 C1543 1.363 . S
C1542 H1545 0.929 . S
C1543 C1542 1.363 . S
C1543 C1549 1.428 . S
H1544 C1540 0.930 . S
H1545 C1542 0.929 . S
S1546 N1547 1.613 . S
S1546 N1548 1.610 . S
N1547 S1546 1.613 . S
N1547 C1550 1.350 . S
N1548 S1546 1.610 . S
N1548 C1549 1.351 . S
C1549 C1543 1.428 . S
C1549 N1548 1.351 . S
C1549 C1550 1.434 . S
C1550 C1541 1.429 . S
C1550 N1547 1.350 . S
C1550 C1549 1.434 . S
C1551 C1552 1.369 . S
C1551 C1553 1.419 . S
C1551 H1555 0.930 . S
C1552 C1551 1.369 . S
C1552 C1561 1.429 . S
C1553 C1551 1.419 . S
C1553 C1554 1.363 . S
C1553 H1556 0.929 . S
C1554 C1553 1.363 . S
C1554 C1560 1.428 . S
H1555 C1551 0.930 . S
H1556 C1553 0.929 . S
S1557 N1558 1.613 . S
S1557 N1559 1.610 . S
N1558 S1557 1.613 . S
N1558 C1561 1.350 . S
N1559 S1557 1.610 . S
N1559 C1560 1.351 . S
C1560 C1554 1.428 . S
C1560 N1559 1.351 . S
C1560 C1561 1.434 . S
C1561 C1552 1.429 . S
C1561 N1558 1.350 . S
C1561 C1560 1.434 . S
C1562 C1563 1.369 . S
C1562 C1564 1.419 . S
C1562 H1566 0.930 . S
C1563 C1562 1.369 . S
C1563 C1572 1.429 . S
C1564 C1562 1.419 . S
C1564 C1565 1.363 . S
C1564 H1567 0.929 . S
C1565 C1564 1.363 . S
C1565 C1571 1.428 . S
H1566 C1562 0.930 . S
H1567 C1564 0.929 . S
S1568 N1569 1.613 . S
S1568 N1570 1.610 . S
N1569 S1568 1.613 . S
N1569 C1572 1.350 . S
N1570 S1568 1.610 . S
N1570 C1571 1.351 . S
C1571 C1565 1.428 . S
C1571 N1570 1.351 . S
C1571 C1572 1.434 . S
C1572 C1563 1.429 . S
C1572 N1569 1.350 . S
C1572 C1571 1.434 . S
C1573 C1574 1.369 . S
C1573 C1575 1.419 . S
C1573 H1577 0.930 . S
C1574 C1573 1.369 . S
C1574 C1583 1.429 . S
C1575 C1573 1.419 . S
C1575 C1576 1.363 . S
C1575 H1578 0.929 . S
C1576 C1575 1.363 . S
C1576 C1582 1.428 . S
H1577 C1573 0.930 . S
H1578 C1575 0.929 . S
S1579 N1580 1.613 . S
S1579 N1581 1.610 . S
N1580 S1579 1.613 . S
N1580 C1583 1.350 . S
N1581 S1579 1.610 . S
N1581 C1582 1.351 . S
C1582 C1576 1.428 . S
C1582 N1581 1.351 . S
C1582 C1583 1.434 . S
C1583 C1574 1.429 . S
C1583 N1580 1.350 . S
C1583 C1582 1.434 . S
C1584 C1585 1.369 . S
C1584 C1586 1.419 1_554 S
C1584 H1588 0.930 . S
C1585 C1584 1.369 . S
C1585 C1594 1.429 . S
C1586 C1584 1.419 1_556 S
C1586 C1587 1.363 . S
C1586 H1589 0.929 . S
C1587 C1586 1.363 . S
C1587 C1593 1.428 . S
H1588 C1584 0.930 . S
H1589 C1586 0.929 . S
S1590 N1591 1.613 1_556 S
S1590 N1592 1.610 . S
N1591 S1590 1.613 1_554 S
N1591 C1594 1.350 . S
N1592 S1590 1.610 . S
N1592 C1593 1.351 . S
C1593 C1587 1.428 . S
C1593 N1592 1.351 . S
C1593 C1594 1.434 1_556 S
C1594 C1585 1.429 . S
C1594 N1591 1.350 . S
C1594 C1593 1.434 1_554 S
C1595 C1596 1.369 1_545 S
C1595 C1597 1.419 . S
C1595 H1599 0.930 . S
C1596 C1595 1.369 1_565 S
C1596 C1605 1.429 . S
C1597 C1595 1.419 . S
C1597 C1598 1.363 . S
C1597 H1600 0.929 . S
C1598 C1597 1.363 . S
C1598 C1604 1.428 1_545 S
H1599 C1595 0.930 . S
H1600 C1597 0.929 . S
S1601 N1602 1.613 . S
S1601 N1603 1.610 . S
N1602 S1601 1.613 . S
N1602 C1605 1.350 . S
N1603 S1601 1.610 . S
N1603 C1604 1.351 . S
C1604 C1598 1.428 1_565 S
C1604 N1603 1.351 . S
C1604 C1605 1.434 . S
C1605 C1596 1.429 . S
C1605 N1602 1.350 . S
C1605 C1604 1.434 . S
C1606 C1607 1.369 . S
C1606 C1608 1.419 . S
C1606 H1610 0.930 . S
C1607 C1606 1.369 . S
C1607 C1616 1.429 . S
C1608 C1606 1.419 . S
C1608 C1609 1.363 . S
C1608 H1611 0.929 . S
C1609 C1608 1.363 . S
C1609 C1615 1.428 . S
H1610 C1606 0.930 . S
H1611 C1608 0.929 . S
S1612 N1613 1.613 . S
S1612 N1614 1.610 . S
N1613 S1612 1.613 . S
N1613 C1616 1.350 . S
N1614 S1612 1.610 . S
N1614 C1615 1.351 . S
C1615 C1609 1.428 . S
C1615 N1614 1.351 . S
C1615 C1616 1.434 . S
C1616 C1607 1.429 . S
C1616 N1613 1.350 . S
C1616 C1615 1.434 . S
C1617 C1618 1.369 . S
C1617 C1619 1.419 . S
C1617 H1621 0.930 . S
C1618 C1617 1.369 . S
C1618 C1627 1.429 1_565 S
C1619 C1617 1.419 . S
C1619 C1620 1.363 1_565 S
C1619 H1622 0.929 . S
C1620 C1619 1.363 1_545 S
C1620 C1626 1.428 . S
H1621 C1617 0.930 . S
H1622 C1619 0.929 . S
S1623 N1624 1.613 . S
S1623 N1625 1.610 . S
N1624 S1623 1.613 . S
N1624 C1627 1.350 . S
N1625 S1623 1.610 . S
N1625 C1626 1.351 . S
C1626 C1620 1.428 . S
C1626 N1625 1.351 . S
C1626 C1627 1.434 . S
C1627 C1618 1.429 1_545 S
C1627 N1624 1.350 . S
C1627 C1626 1.434 . S
C1628 C1629 1.369 . S
C1628 C1630 1.419 1_554 S
C1628 H1632 0.930 . S
C1629 C1628 1.369 . S
C1629 C1638 1.429 . S
C1630 C1628 1.419 1_556 S
C1630 C1631 1.363 . S
C1630 H1633 0.929 . S
C1631 C1630 1.363 . S
C1631 C1637 1.428 . S
H1632 C1628 0.930 . S
H1633 C1630 0.929 . S
S1634 N1635 1.613 . S
S1634 N1636 1.610 1_554 S
N1635 S1634 1.613 . S
N1635 C1638 1.350 . S
N1636 S1634 1.610 1_556 S
N1636 C1637 1.351 . S
C1637 C1631 1.428 . S
C1637 N1636 1.351 . S
C1637 C1638 1.434 1_556 S
C1638 C1629 1.429 . S
C1638 N1635 1.350 . S
C1638 C1637 1.434 1_554 S
C1639 C1640 1.369 1_565 S
C1639 C1641 1.419 . S
C1639 H1643 0.930 . S
C1640 C1639 1.369 1_545 S
C1640 C1649 1.429 . S
C1641 C1639 1.419 . S
C1641 C1642 1.363 . S
C1641 H1644 0.929 . S
C1642 C1641 1.363 . S
C1642 C1648 1.428 1_565 S
H1643 C1639 0.930 . S
H1644 C1641 0.929 . S
S1645 N1646 1.613 . S
S1645 N1647 1.610 . S
N1646 S1645 1.613 . S
N1646 C1649 1.350 . S
N1647 S1645 1.610 . S
N1647 C1648 1.351 . S
C1648 C1642 1.428 1_545 S
C1648 N1647 1.351 . S
C1648 C1649 1.434 . S
C1649 C1640 1.429 . S
C1649 N1646 1.350 . S
C1649 C1648 1.434 . S
C1650 C1651 1.369 . S
C1650 C1652 1.419 . S
C1650 H1654 0.930 . S
C1651 C1650 1.369 . S
C1651 C1660 1.429 . S
C1652 C1650 1.419 . S
C1652 C1653 1.363 . S
C1652 H1655 0.929 . S
C1653 C1652 1.363 . S
C1653 C1659 1.428 . S
H1654 C1650 0.930 . S
H1655 C1652 0.929 . S
S1656 N1657 1.613 . S
S1656 N1658 1.610 . S
N1657 S1656 1.613 . S
N1657 C1660 1.350 . S
N1658 S1656 1.610 . S
N1658 C1659 1.351 . S
C1659 C1653 1.428 . S
C1659 N1658 1.351 . S
C1659 C1660 1.434 . S
C1660 C1651 1.429 . S
C1660 N1657 1.350 . S
C1660 C1659 1.434 . S
C1661 C1662 1.369 . S
C1661 C1663 1.419 . S
C1661 H1665 0.930 . S
C1662 C1661 1.369 . S
C1662 C1671 1.429 1_565 S
C1663 C1661 1.419 . S
C1663 C1664 1.363 1_565 S
C1663 H1666 0.929 . S
C1664 C1663 1.363 1_545 S
C1664 C1670 1.428 . S
H1665 C1661 0.930 . S
H1666 C1663 0.929 . S
S1667 N1668 1.613 . S
S1667 N1669 1.610 . S
N1668 S1667 1.613 . S
N1668 C1671 1.350 . S
N1669 S1667 1.610 . S
N1669 C1670 1.351 . S
C1670 C1664 1.428 . S
C1670 N1669 1.351 . S
C1670 C1671 1.434 . S
C1671 C1662 1.429 1_545 S
C1671 N1668 1.350 . S
C1671 C1670 1.434 . S
C1672 C1673 1.369 . S
C1672 C1674 1.419 . S
C1672 H1676 0.930 . S
C1673 C1672 1.369 . S
C1673 C1682 1.429 . S
C1674 C1672 1.419 . S
C1674 C1675 1.363 . S
C1674 H1677 0.929 . S
C1675 C1674 1.363 . S
C1675 C1681 1.428 . S
H1676 C1672 0.930 . S
H1677 C1674 0.929 . S
S1678 N1679 1.613 . S
S1678 N1680 1.610 . S
N1679 S1678 1.613 . S
N1679 C1682 1.350 . S
N1680 S1678 1.610 . S
N1680 C1681 1.351 . S
C1681 C1675 1.428 . S
C1681 N1680 1.351 . S
C1681 C1682 1.434 . S
C1682 C1673 1.429 . S
C1682 N1679 1.350 . S
C1682 C1681 1.434 . S
C1683 C1684 1.369 . S
C1683 C1685 1.419 . S
C1683 H1687 0.930 . S
C1684 C1683 1.369 . S
C1684 C1693 1.429 . S
C1685 C1683 1.419 . S
C1685 C1686 1.363 . S
C1685 H1688 0.929 . S
C1686 C1685 1.363 . S
C1686 C1692 1.428 . S
H1687 C1683 0.930 . S
H1688 C1685 0.929 . S
S1689 N1690 1.613 . S
S1689 N1691 1.610 . S
N1690 S1689 1.613 . S
N1690 C1693 1.350 . S
N1691 S1689 1.610 . S
N1691 C1692 1.351 . S
C1692 C1686 1.428 . S
C1692 N1691 1.351 . S
C1692 C1693 1.434 . S
C1693 C1684 1.429 . S
C1693 N1690 1.350 . S
C1693 C1692 1.434 . S
C1694 C1695 1.369 . S
C1694 C1696 1.419 1_554 S
C1694 H1698 0.930 . S
C1695 C1694 1.369 . S
C1695 C1704 1.429 . S
C1696 C1694 1.419 1_556 S
C1696 C1697 1.363 . S
C1696 H1699 0.929 . S
C1697 C1696 1.363 . S
C1697 C1703 1.428 . S
H1698 C1694 0.930 . S
H1699 C1696 0.929 . S
S1700 N1701 1.613 1_556 S
S1700 N1702 1.610 . S
N1701 S1700 1.613 1_554 S
N1701 C1704 1.350 . S
N1702 S1700 1.610 . S
N1702 C1703 1.351 . S
C1703 C1697 1.428 . S
C1703 N1702 1.351 . S
C1703 C1704 1.434 1_556 S
C1704 C1695 1.429 . S
C1704 N1701 1.350 . S
C1704 C1703 1.434 1_554 S
C1705 C1706 1.369 . S
C1705 C1707 1.419 . S
C1705 H1709 0.930 . S
C1706 C1705 1.369 . S
C1706 C1715 1.429 . S
C1707 C1705 1.419 . S
C1707 C1708 1.363 . S
C1707 H1710 0.929 . S
C1708 C1707 1.363 . S
C1708 C1714 1.428 . S
H1709 C1705 0.930 . S
H1710 C1707 0.929 . S
S1711 N1712 1.613 . S
S1711 N1713 1.610 . S
N1712 S1711 1.613 . S
N1712 C1715 1.350 . S
N1713 S1711 1.610 . S
N1713 C1714 1.351 . S
C1714 C1708 1.428 . S
C1714 N1713 1.351 . S
C1714 C1715 1.434 . S
C1715 C1706 1.429 . S
C1715 N1712 1.350 . S
C1715 C1714 1.434 . S
C1716 C1717 1.369 . S
C1716 C1718 1.419 . S
C1716 H1720 0.930 . S
C1717 C1716 1.369 . S
C1717 C1726 1.429 . S
C1718 C1716 1.419 . S
C1718 C1719 1.363 . S
C1718 H1721 0.929 . S
C1719 C1718 1.363 . S
C1719 C1725 1.428 . S
H1720 C1716 0.930 . S
H1721 C1718 0.929 . S
S1722 N1723 1.613 . S
S1722 N1724 1.610 . S
N1723 S1722 1.613 . S
N1723 C1726 1.350 . S
N1724 S1722 1.610 . S
N1724 C1725 1.351 . S
C1725 C1719 1.428 . S
C1725 N1724 1.351 . S
C1725 C1726 1.434 . S
C1726 C1717 1.429 . S
C1726 N1723 1.350 . S
C1726 C1725 1.434 . S
C1727 C1728 1.369 . S
C1727 C1729 1.419 . S
C1727 H1731 0.930 . S
C1728 C1727 1.369 . S
C1728 C1737 1.429 . S
C1729 C1727 1.419 . S
C1729 C1730 1.363 . S
C1729 H1732 0.929 . S
C1730 C1729 1.363 . S
C1730 C1736 1.428 . S
H1731 C1727 0.930 . S
H1732 C1729 0.929 . S
S1733 N1734 1.613 . S
S1733 N1735 1.610 . S
N1734 S1733 1.613 . S
N1734 C1737 1.350 . S
N1735 S1733 1.610 . S
N1735 C1736 1.351 . S
C1736 C1730 1.428 . S
C1736 N1735 1.351 . S
C1736 C1737 1.434 . S
C1737 C1728 1.429 . S
C1737 N1734 1.350 . S
C1737 C1736 1.434 . S
C1738 C1739 1.369 . S
C1738 C1740 1.419 1_556 S
C1738 H1742 0.930 . S
C1739 C1738 1.369 . S
C1739 C1748 1.429 . S
C1740 C1738 1.419 1_554 S
C1740 C1741 1.363 . S
C1740 H1743 0.929 . S
C1741 C1740 1.363 . S
C1741 C1747 1.428 . S
H1742 C1738 0.930 . S
H1743 C1740 0.929 . S
S1744 N1745 1.613 1_554 S
S1744 N1746 1.610 . S
N1745 S1744 1.613 1_556 S
N1745 C1748 1.350 . S
N1746 S1744 1.610 . S
N1746 C1747 1.351 . S
C1747 C1741 1.428 . S
C1747 N1746 1.351 . S
C1747 C1748 1.434 1_554 S
C1748 C1739 1.429 . S
C1748 N1745 1.350 . S
C1748 C1747 1.434 1_556 S
C1749 C1750 1.369 . S
C1749 C1751 1.419 . S
C1749 H1753 0.930 . S
C1750 C1749 1.369 . S
C1750 C1759 1.429 . S
C1751 C1749 1.419 . S
C1751 C1752 1.363 . S
C1751 H1754 0.929 . S
C1752 C1751 1.363 . S
C1752 C1758 1.428 . S
H1753 C1749 0.930 . S
H1754 C1751 0.929 . S
S1755 N1756 1.613 . S
S1755 N1757 1.610 . S
N1756 S1755 1.613 . S
N1756 C1759 1.350 . S
N1757 S1755 1.610 . S
N1757 C1758 1.351 . S
C1758 C1752 1.428 . S
C1758 N1757 1.351 . S
C1758 C1759 1.434 . S
C1759 C1750 1.429 . S
C1759 N1756 1.350 . S
C1759 C1758 1.434 . S
C1760 C1761 1.369 . S
C1760 C1762 1.419 . S
C1760 H1764 0.930 . S
C1761 C1760 1.369 . S
C1761 C1770 1.429 . S
C1762 C1760 1.419 . S
C1762 C1763 1.363 . S
C1762 H1765 0.929 . S
C1763 C1762 1.363 . S
C1763 C1769 1.428 . S
H1764 C1760 0.930 . S
H1765 C1762 0.929 . S
S1766 N1767 1.613 . S
S1766 N1768 1.610 . S
N1767 S1766 1.613 . S
N1767 C1770 1.350 . S
N1768 S1766 1.610 . S
N1768 C1769 1.351 . S
C1769 C1763 1.428 . S
C1769 N1768 1.351 . S
C1769 C1770 1.434 . S
C1770 C1761 1.429 . S
C1770 N1767 1.350 . S
C1770 C1769 1.434 . S
C1771 C1772 1.369 . S
C1771 C1773 1.419 . S
C1771 H1775 0.930 . S
C1772 C1771 1.369 . S
C1772 C1781 1.429 . S
C1773 C1771 1.419 . S
C1773 C1774 1.363 . S
C1773 H1776 0.929 . S
C1774 C1773 1.363 . S
C1774 C1780 1.428 . S
H1775 C1771 0.930 . S
H1776 C1773 0.929 . S
S1777 N1778 1.613 . S
S1777 N1779 1.610 . S
N1778 S1777 1.613 . S
N1778 C1781 1.350 . S
N1779 S1777 1.610 . S
N1779 C1780 1.351 . S
C1780 C1774 1.428 . S
C1780 N1779 1.351 . S
C1780 C1781 1.434 . S
C1781 C1772 1.429 . S
C1781 N1778 1.350 . S
C1781 C1780 1.434 . S
C1782 C1783 1.369 . S
C1782 C1784 1.419 . S
C1782 H1786 0.930 . S
C1783 C1782 1.369 . S
C1783 C1792 1.429 . S
C1784 C1782 1.419 . S
C1784 C1785 1.363 . S
C1784 H1787 0.929 . S
C1785 C1784 1.363 . S
C1785 C1791 1.428 . S
H1786 C1782 0.930 . S
H1787 C1784 0.929 . S
S1788 N1789 1.613 . S
S1788 N1790 1.610 . S
N1789 S1788 1.613 . S
N1789 C1792 1.350 . S
N1790 S1788 1.610 . S
N1790 C1791 1.351 . S
C1791 C1785 1.428 . S
C1791 N1790 1.351 . S
C1791 C1792 1.434 . S
C1792 C1783 1.429 . S
C1792 N1789 1.350 . S
C1792 C1791 1.434 . S
C1793 C1794 1.369 . S
C1793 C1795 1.419 . S
C1793 H1797 0.930 . S
C1794 C1793 1.369 . S
C1794 C1803 1.429 . S
C1795 C1793 1.419 . S
C1795 C1796 1.363 . S
C1795 H1798 0.929 . S
C1796 C1795 1.363 . S
C1796 C1802 1.428 . S
H1797 C1793 0.930 . S
H1798 C1795 0.929 . S
S1799 N1800 1.613 . S
S1799 N1801 1.610 . S
N1800 S1799 1.613 . S
N1800 C1803 1.350 . S
N1801 S1799 1.610 . S
N1801 C1802 1.351 . S
C1802 C1796 1.428 . S
C1802 N1801 1.351 . S
C1802 C1803 1.434 . S
C1803 C1794 1.429 . S
C1803 N1800 1.350 . S
C1803 C1802 1.434 . S
C1804 C1805 1.369 . S
C1804 C1806 1.419 . S
C1804 H1808 0.930 . S
C1805 C1804 1.369 . S
C1805 C1814 1.429 . S
C1806 C1804 1.419 . S
C1806 C1807 1.363 . S
C1806 H1809 0.929 . S
C1807 C1806 1.363 . S
C1807 C1813 1.428 . S
H1808 C1804 0.930 . S
H1809 C1806 0.929 . S
S1810 N1811 1.613 . S
S1810 N1812 1.610 . S
N1811 S1810 1.613 . S
N1811 C1814 1.350 . S
N1812 S1810 1.610 . S
N1812 C1813 1.351 . S
C1813 C1807 1.428 . S
C1813 N1812 1.351 . S
C1813 C1814 1.434 . S
C1814 C1805 1.429 . S
C1814 N1811 1.350 . S
C1814 C1813 1.434 . S
C1815 C1816 1.369 . S
C1815 C1817 1.419 . S
C1815 H1819 0.930 . S
C1816 C1815 1.369 . S
C1816 C1825 1.429 . S
C1817 C1815 1.419 . S
C1817 C1818 1.363 . S
C1817 H1820 0.929 . S
C1818 C1817 1.363 . S
C1818 C1824 1.428 . S
H1819 C1815 0.930 . S
H1820 C1817 0.929 . S
S1821 N1822 1.613 . S
S1821 N1823 1.610 . S
N1822 S1821 1.613 . S
N1822 C1825 1.350 . S
N1823 S1821 1.610 . S
N1823 C1824 1.351 . S
C1824 C1818 1.428 . S
C1824 N1823 1.351 . S
C1824 C1825 1.434 . S
C1825 C1816 1.429 . S
C1825 N1822 1.350 . S
C1825 C1824 1.434 . S
C1826 C1827 1.369 . S
C1826 C1828 1.419 . S
C1826 H1830 0.930 . S
C1827 C1826 1.369 . S
C1827 C1836 1.429 . S
C1828 C1826 1.419 . S
C1828 C1829 1.363 . S
C1828 H1831 0.929 . S
C1829 C1828 1.363 . S
C1829 C1835 1.428 . S
H1830 C1826 0.930 . S
H1831 C1828 0.929 . S
S1832 N1833 1.613 . S
S1832 N1834 1.610 . S
N1833 S1832 1.613 . S
N1833 C1836 1.350 . S
N1834 S1832 1.610 . S
N1834 C1835 1.351 . S
C1835 C1829 1.428 . S
C1835 N1834 1.351 . S
C1835 C1836 1.434 . S
C1836 C1827 1.429 . S
C1836 N1833 1.350 . S
C1836 C1835 1.434 . S
C1837 C1838 1.369 . S
C1837 C1839 1.419 . S
C1837 H1841 0.930 . S
C1838 C1837 1.369 . S
C1838 C1847 1.429 . S
C1839 C1837 1.419 . S
C1839 C1840 1.363 . S
C1839 H1842 0.929 . S
C1840 C1839 1.363 . S
C1840 C1846 1.428 . S
H1841 C1837 0.930 . S
H1842 C1839 0.929 . S
S1843 N1844 1.613 . S
S1843 N1845 1.610 . S
N1844 S1843 1.613 . S
N1844 C1847 1.350 . S
N1845 S1843 1.610 . S
N1845 C1846 1.351 . S
C1846 C1840 1.428 . S
C1846 N1845 1.351 . S
C1846 C1847 1.434 . S
C1847 C1838 1.429 . S
C1847 N1844 1.350 . S
C1847 C1846 1.434 . S
C1848 C1849 1.369 . S
C1848 C1850 1.419 . S
C1848 H1852 0.930 . S
C1849 C1848 1.369 . S
C1849 C1858 1.429 . S
C1850 C1848 1.419 . S
C1850 C1851 1.363 . S
C1850 H1853 0.929 . S
C1851 C1850 1.363 . S
C1851 C1857 1.428 . S
H1852 C1848 0.930 . S
H1853 C1850 0.929 . S
S1854 N1855 1.613 . S
S1854 N1856 1.610 . S
N1855 S1854 1.613 . S
N1855 C1858 1.350 . S
N1856 S1854 1.610 . S
N1856 C1857 1.351 . S
C1857 C1851 1.428 . S
C1857 N1856 1.351 . S
C1857 C1858 1.434 . S
C1858 C1849 1.429 . S
C1858 N1855 1.350 . S
C1858 C1857 1.434 . S
C1859 C1860 1.369 . S
C1859 C1861 1.419 . S
C1859 H1863 0.930 . S
C1860 C1859 1.369 . S
C1860 C1869 1.429 . S
C1861 C1859 1.419 . S
C1861 C1862 1.363 . S
C1861 H1864 0.929 . S
C1862 C1861 1.363 . S
C1862 C1868 1.428 . S
H1863 C1859 0.930 . S
H1864 C1861 0.929 . S
S1865 N1866 1.613 . S
S1865 N1867 1.610 . S
N1866 S1865 1.613 . S
N1866 C1869 1.350 . S
N1867 S1865 1.610 . S
N1867 C1868 1.351 . S
C1868 C1862 1.428 . S
C1868 N1867 1.351 . S
C1868 C1869 1.434 . S
C1869 C1860 1.429 . S
C1869 N1866 1.350 . S
C1869 C1868 1.434 . S
C1870 C1871 1.369 . S
C1870 C1872 1.419 . S
C1870 H1874 0.930 . S
C1871 C1870 1.369 . S
C1871 C1880 1.429 . S
C1872 C1870 1.419 . S
C1872 C1873 1.363 . S
C1872 H1875 0.929 . S
C1873 C1872 1.363 . S
C1873 C1879 1.428 . S
H1874 C1870 0.930 . S
H1875 C1872 0.929 . S
S1876 N1877 1.613 . S
S1876 N1878 1.610 . S
N1877 S1876 1.613 . S
N1877 C1880 1.350 . S
N1878 S1876 1.610 . S
N1878 C1879 1.351 . S
C1879 C1873 1.428 . S
C1879 N1878 1.351 . S
C1879 C1880 1.434 . S
C1880 C1871 1.429 . S
C1880 N1877 1.350 . S
C1880 C1879 1.434 . S
C1881 C1882 1.369 . S
C1881 C1883 1.419 . S
C1881 H1885 0.930 . S
C1882 C1881 1.369 . S
C1882 C1891 1.429 . S
C1883 C1881 1.419 . S
C1883 C1884 1.363 . S
C1883 H1886 0.929 . S
C1884 C1883 1.363 . S
C1884 C1890 1.428 . S
H1885 C1881 0.930 . S
H1886 C1883 0.929 . S
S1887 N1888 1.613 . S
S1887 N1889 1.610 . S
N1888 S1887 1.613 . S
N1888 C1891 1.350 . S
N1889 S1887 1.610 . S
N1889 C1890 1.351 . S
C1890 C1884 1.428 . S
C1890 N1889 1.351 . S
C1890 C1891 1.434 . S
C1891 C1882 1.429 . S
C1891 N1888 1.350 . S
C1891 C1890 1.434 . S
C1892 C1893 1.369 . S
C1892 C1894 1.419 . S
C1892 H1896 0.930 . S
C1893 C1892 1.369 . S
C1893 C1902 1.429 . S
C1894 C1892 1.419 . S
C1894 C1895 1.363 . S
C1894 H1897 0.929 . S
C1895 C1894 1.363 . S
C1895 C1901 1.428 . S
H1896 C1892 0.930 . S
H1897 C1894 0.929 . S
S1898 N1899 1.613 . S
S1898 N1900 1.610 . S
N1899 S1898 1.613 . S
N1899 C1902 1.350 . S
N1900 S1898 1.610 . S
N1900 C1901 1.351 . S
C1901 C1895 1.428 . S
C1901 N1900 1.351 . S
C1901 C1902 1.434 . S
C1902 C1893 1.429 . S
C1902 N1899 1.350 . S
C1902 C1901 1.434 . S
C1903 C1904 1.369 . S
C1903 C1905 1.419 . S
C1903 H1907 0.930 . S
C1904 C1903 1.369 . S
C1904 C1913 1.429 . S
C1905 C1903 1.419 . S
C1905 C1906 1.363 . S
C1905 H1908 0.929 . S
C1906 C1905 1.363 . S
C1906 C1912 1.428 . S
H1907 C1903 0.930 . S
H1908 C1905 0.929 . S
S1909 N1910 1.613 . S
S1909 N1911 1.610 . S
N1910 S1909 1.613 . S
N1910 C1913 1.350 . S
N1911 S1909 1.610 . S
N1911 C1912 1.351 . S
C1912 C1906 1.428 . S
C1912 N1911 1.351 . S
C1912 C1913 1.434 . S
C1913 C1904 1.429 . S
C1913 N1910 1.350 . S
C1913 C1912 1.434 . S
C1914 C1915 1.369 . S
C1914 C1916 1.419 . S
C1914 H1918 0.930 . S
C1915 C1914 1.369 . S
C1915 C1924 1.429 . S
C1916 C1914 1.419 . S
C1916 C1917 1.363 . S
C1916 H1919 0.929 . S
C1917 C1916 1.363 . S
C1917 C1923 1.428 . S
H1918 C1914 0.930 . S
H1919 C1916 0.929 . S
S1920 N1921 1.613 . S
S1920 N1922 1.610 . S
N1921 S1920 1.613 . S
N1921 C1924 1.350 . S
N1922 S1920 1.610 . S
N1922 C1923 1.351 . S
C1923 C1917 1.428 . S
C1923 N1922 1.351 . S
C1923 C1924 1.434 . S
C1924 C1915 1.429 . S
C1924 N1921 1.350 . S
C1924 C1923 1.434 . S
C1925 C1926 1.369 . S
C1925 C1927 1.419 . S
C1925 H1929 0.930 . S
C1926 C1925 1.369 . S
C1926 C1935 1.429 . S
C1927 C1925 1.419 . S
C1927 C1928 1.363 . S
C1927 H1930 0.929 . S
C1928 C1927 1.363 . S
C1928 C1934 1.428 . S
H1929 C1925 0.930 . S
H1930 C1927 0.929 . S
S1931 N1932 1.613 . S
S1931 N1933 1.610 . S
N1932 S1931 1.613 . S
N1932 C1935 1.350 . S
N1933 S1931 1.610 . S
N1933 C1934 1.351 . S
C1934 C1928 1.428 . S
C1934 N1933 1.351 . S
C1934 C1935 1.434 . S
C1935 C1926 1.429 . S
C1935 N1932 1.350 . S
C1935 C1934 1.434 . S
C1057 C18 1.532 . S
C1059 C810 1.534 . S
C1068 C315 1.535 . S
C1070 C51 1.532 . S
C1079 C876 1.535 . S
C1081 C84 1.532 . S
C1090 C381 1.535 . S
C1092 C117 1.532 . S
C1101 C942 1.535 . S
C1103 C150 1.532 . S
C1112 C447 1.534 . S
C1114 C183 1.532 . S
C1123 C1008 1.533 . S
C1125 C216 1.533 . S
C1134 C513 1.534 . S
C1136 C249 1.532 . S
C1145 C282 1.534 . S
C1147 C546 1.532 . S
C1156 C348 1.532 . S
C1158 C612 1.534 . S
C1167 C414 1.534 . S
C1169 C678 1.533 . S
C1178 C744 1.532 . S
C1180 C480 1.534 . S
C1189 C579 1.534 . S
C1191 C843 1.532 . S
C1200 C909 1.534 . S
C1202 C645 1.532 . S
C1211 C711 1.533 . S
C1213 C975 1.533 . S
C1222 C1041 1.534 . S
C1224 C777 1.532 . S
C1233 N13 1.387 . S
C1235 C384 1.415 . S
C1244 N46 1.381 . S
C1246 C813 1.418 . S
C1255 C318 1.418 . S
C1257 N79 1.385 . S
C1266 N112 1.389 . S
C1268 C879 1.415 . S
C1277 C450 1.417 . S
C1279 N145 1.388 . S
C1288 C1011 1.418 . S
C1290 N178 1.385 . S
C1299 N211 1.383 . S
C1301 C516 1.418 . S
C1310 C945 1.417 . S
C1312 N244 1.387 . S
C1321 N277 1.388 . S
C1323 C120 1.415 . S
C1332 N310 1.389 . S
C1334 C549 1.416 . S
C1343 C54 1.418 . S
C1345 N343 1.386 . S
C1354 N376 1.386 . S
C1356 C615 1.418 . S
C1365 N409 1.388 . S
C1367 C186 1.415 . S
C1376 C747 1.416 . S
C1378 N442 1.388 . S
C1387 C252 1.416 . S
C1389 N475 1.388 . S
C1398 N508 1.387 . S
C1400 C681 1.417 . S
C1409 C912 1.417 . S
C1411 N541 1.383 . S
C1420 C285 1.414 . S
C1422 N574 1.387 . S
C1431 C846 1.418 . S
C1433 N607 1.382 . S
C1442 N640 1.387 . S
C1444 C351 1.418 . S
C1453 C978 1.419 . S
C1455 N673 1.383 . S
C1464 C483 1.418 . S
C1466 N706 1.387 . S
C1475 N739 1.387 . S
C1477 C1044 1.417 . S
C1486 C417 1.417 . S
C1488 N772 1.382 . S
C1497 C648 1.415 . S
C1499 N805 1.389 . S
C1508 N838 1.383 . S
C1510 C21 1.418 . S
C1519 N871 1.390 . S
C1521 C582 1.416 . S
C1530 C87 1.417 . S
C1532 N904 1.386 . S
C1541 C714 1.419 . S
C1543 N937 1.384 . S
C1552 N970 1.384 . S
C1554 C219 1.418 . S
C1563 C780 1.416 . S
C1565 N1003 1.384 . S
C1574 C153 1.417 . S
C1576 N1036 1.387 . S
C1585 C7 1.181 . S
C1587 C205 1.183 . S
C1596 C238 1.182 . S
C1598 C40 1.182 . S
C1607 C73 1.188 . S
C1609 C139 1.186 . S
C1618 C106 1.188 . S
C1620 C172 1.183 . S
C1629 C469 1.188 . S
C1631 C271 1.185 . S
C1640 C502 1.181 . S
C1642 C304 1.185 . S
C1651 C403 1.181 . S
C1653 C337 1.183 . S
C1662 C436 1.188 . S
C1664 C370 1.183 . S
C1673 C535 1.184 . S
C1675 C733 1.188 . S
C1684 C568 1.188 . S
C1686 C766 1.184 . S
C1695 C601 1.181 . S
C1697 C667 1.183 . S
C1706 C634 1.187 . S
C1708 C700 1.182 . S
C1717 C997 1.181 . S
C1719 C799 1.183 . S
C1728 C1030 1.183 . S
C1730 C832 1.182 . S
C1739 C865 1.187 . S
C1741 C931 1.187 . S
C1750 C898 1.188 . S
C1752 C964 1.183 . S
C1761 N2 1.642 . S
C1763 N695 1.640 . S
C1772 N35 1.641 . S
C1774 N728 1.645 . S
C1783 N68 1.643 . S
C1785 N761 1.645 . S
C1794 N101 1.643 . S
C1796 N662 1.640 . S
C1805 N629 1.645 . S
C1807 N134 1.644 . S
C1816 N167 1.641 . S
C1818 N530 1.641 . S
C1827 N563 1.646 . S
C1829 N200 1.643 . S
C1838 N233 1.644 . S
C1840 N596 1.640 . S
C1849 N959 1.643 . S
C1851 N266 1.640 . S
C1860 N299 1.641 . S
C1862 N992 1.640 . S
C1871 N1025 1.642 . S
C1873 N332 1.640 . S
C1882 N365 1.646 . S
C1884 N926 1.642 . S
C1893 N398 1.639 . S
C1895 N893 1.643 . S
C1904 N794 1.639 . S
C1906 N431 1.642 . S
C1915 N464 1.643 . S
C1917 N827 1.640 . S
C1926 N497 1.639 . S
C1928 N860 1.642 . S
