# Generated by pormake.
# Topology sxg, (6)-cn, num edge types: 1
# Building blocks:
#     Node 0, Type 0, BuildingBlock: OJICUG_clean_sbu_0, # of connection points: 6
#     Node 1, Type 0, BuildingBlock: OJICUG_clean_sbu_0, # of connection points: 6
#     Node 2, Type 0, BuildingBlock: OJICUG_clean_sbu_0, # of connection points: 6
#     Node 3, Type 0, BuildingBlock: OJICUG_clean_sbu_0, # of connection points: 6
#     Node 4, Type 0, BuildingBlock: OJICUG_clean_sbu_0, # of connection points: 6
#     Node 5, Type 0, BuildingBlock: OJICUG_clean_sbu_0, # of connection points: 6
#     Node 6, Type 0, BuildingBlock: OJICUG_clean_sbu_0, # of connection points: 6
#     Node 7, Type 0, BuildingBlock: OJICUG_clean_sbu_0, # of connection points: 6
#     Node 8, Type 0, BuildingBlock: OJICUG_clean_sbu_0, # of connection points: 6
#     Node 9, Type 0, BuildingBlock: OJICUG_clean_sbu_0, # of connection points: 6
#     Node 10, Type 0, BuildingBlock: OJICUG_clean_sbu_0, # of connection points: 6
#     Node 11, Type 0, BuildingBlock: OJICUG_clean_sbu_0, # of connection points: 6
#     Node 12, Type 0, BuildingBlock: OJICUG_clean_sbu_0, # of connection points: 6
#     Node 13, Type 0, BuildingBlock: OJICUG_clean_sbu_0, # of connection points: 6
#     Node 14, Type 0, BuildingBlock: OJICUG_clean_sbu_0, # of connection points: 6
#     Node 15, Type 0, BuildingBlock: OJICUG_clean_sbu_0, # of connection points: 6
#     Node 16, Type 0, BuildingBlock: OJICUG_clean_sbu_0, # of connection points: 6
#     Node 17, Type 0, BuildingBlock: OJICUG_clean_sbu_0, # of connection points: 6
#     Node 18, Type 0, BuildingBlock: OJICUG_clean_sbu_0, # of connection points: 6
#     Node 19, Type 0, BuildingBlock: OJICUG_clean_sbu_0, # of connection points: 6
#     Node 20, Type 0, BuildingBlock: OJICUG_clean_sbu_0, # of connection points: 6
#     Node 21, Type 0, BuildingBlock: OJICUG_clean_sbu_0, # of connection points: 6
#     Node 22, Type 0, BuildingBlock: OJICUG_clean_sbu_0, # of connection points: 6
#     Node 23, Type 0, BuildingBlock: OJICUG_clean_sbu_0, # of connection points: 6
#     Edge 24, Type (0, 0), BuildingBlock: UVAHIK_clean_linker_0, # of connection points: 2
#     Edge 25, Type (0, 0), BuildingBlock: UVAHIK_clean_linker_0, # of connection points: 2
#     Edge 26, Type (0, 0), BuildingBlock: UVAHIK_clean_linker_0, # of connection points: 2
#     Edge 27, Type (0, 0), BuildingBlock: UVAHIK_clean_linker_0, # of connection points: 2
#     Edge 28, Type (0, 0), BuildingBlock: UVAHIK_clean_linker_0, # of connection points: 2
#     Edge 29, Type (0, 0), BuildingBlock: UVAHIK_clean_linker_0, # of connection points: 2
#     Edge 30, Type (0, 0), BuildingBlock: UVAHIK_clean_linker_0, # of connection points: 2
#     Edge 31, Type (0, 0), BuildingBlock: UVAHIK_clean_linker_0, # of connection points: 2
#     Edge 32, Type (0, 0), BuildingBlock: UVAHIK_clean_linker_0, # of connection points: 2
#     Edge 33, Type (0, 0), BuildingBlock: UVAHIK_clean_linker_0, # of connection points: 2
#     Edge 34, Type (0, 0), BuildingBlock: UVAHIK_clean_linker_0, # of connection points: 2
#     Edge 35, Type (0, 0), BuildingBlock: UVAHIK_clean_linker_0, # of connection points: 2
#     Edge 36, Type (0, 0), BuildingBlock: UVAHIK_clean_linker_0, # of connection points: 2
#     Edge 37, Type (0, 0), BuildingBlock: UVAHIK_clean_linker_0, # of connection points: 2
#     Edge 38, Type (0, 0), BuildingBlock: UVAHIK_clean_linker_0, # of connection points: 2
#     Edge 39, Type (0, 0), BuildingBlock: UVAHIK_clean_linker_0, # of connection points: 2
#     Edge 40, Type (0, 0), BuildingBlock: UVAHIK_clean_linker_0, # of connection points: 2
#     Edge 41, Type (0, 0), BuildingBlock: UVAHIK_clean_linker_0, # of connection points: 2
#     Edge 42, Type (0, 0), BuildingBlock: UVAHIK_clean_linker_0, # of connection points: 2
#     Edge 43, Type (0, 0), BuildingBlock: UVAHIK_clean_linker_0, # of connection points: 2
#     Edge 44, Type (0, 0), BuildingBlock: UVAHIK_clean_linker_0, # of connection points: 2
#     Edge 45, Type (0, 0), BuildingBlock: UVAHIK_clean_linker_0, # of connection points: 2
#     Edge 46, Type (0, 0), BuildingBlock: UVAHIK_clean_linker_0, # of connection points: 2
#     Edge 47, Type (0, 0), BuildingBlock: UVAHIK_clean_linker_0, # of connection points: 2
#     Edge 48, Type (0, 0), BuildingBlock: UVAHIK_clean_linker_0, # of connection points: 2
#     Edge 49, Type (0, 0), BuildingBlock: UVAHIK_clean_linker_0, # of connection points: 2
#     Edge 50, Type (0, 0), BuildingBlock: UVAHIK_clean_linker_0, # of connection points: 2
#     Edge 51, Type (0, 0), BuildingBlock: UVAHIK_clean_linker_0, # of connection points: 2
#     Edge 52, Type (0, 0), BuildingBlock: UVAHIK_clean_linker_0, # of connection points: 2
#     Edge 53, Type (0, 0), BuildingBlock: UVAHIK_clean_linker_0, # of connection points: 2
#     Edge 54, Type (0, 0), BuildingBlock: UVAHIK_clean_linker_0, # of connection points: 2
#     Edge 55, Type (0, 0), BuildingBlock: UVAHIK_clean_linker_0, # of connection points: 2
#     Edge 56, Type (0, 0), BuildingBlock: UVAHIK_clean_linker_0, # of connection points: 2
#     Edge 57, Type (0, 0), BuildingBlock: UVAHIK_clean_linker_0, # of connection points: 2
#     Edge 58, Type (0, 0), BuildingBlock: UVAHIK_clean_linker_0, # of connection points: 2
#     Edge 59, Type (0, 0), BuildingBlock: UVAHIK_clean_linker_0, # of connection points: 2
#     Edge 60, Type (0, 0), BuildingBlock: UVAHIK_clean_linker_0, # of connection points: 2
#     Edge 61, Type (0, 0), BuildingBlock: UVAHIK_clean_linker_0, # of connection points: 2
#     Edge 62, Type (0, 0), BuildingBlock: UVAHIK_clean_linker_0, # of connection points: 2
#     Edge 63, Type (0, 0), BuildingBlock: UVAHIK_clean_linker_0, # of connection points: 2
#     Edge 64, Type (0, 0), BuildingBlock: UVAHIK_clean_linker_0, # of connection points: 2
#     Edge 65, Type (0, 0), BuildingBlock: UVAHIK_clean_linker_0, # of connection points: 2
#     Edge 66, Type (0, 0), BuildingBlock: UVAHIK_clean_linker_0, # of connection points: 2
#     Edge 67, Type (0, 0), BuildingBlock: UVAHIK_clean_linker_0, # of connection points: 2
#     Edge 68, Type (0, 0), BuildingBlock: UVAHIK_clean_linker_0, # of connection points: 2
#     Edge 69, Type (0, 0), BuildingBlock: UVAHIK_clean_linker_0, # of connection points: 2
#     Edge 70, Type (0, 0), BuildingBlock: UVAHIK_clean_linker_0, # of connection points: 2
#     Edge 71, Type (0, 0), BuildingBlock: UVAHIK_clean_linker_0, # of connection points: 2
#     Edge 72, Type (0, 0), BuildingBlock: UVAHIK_clean_linker_0, # of connection points: 2
#     Edge 73, Type (0, 0), BuildingBlock: UVAHIK_clean_linker_0, # of connection points: 2
#     Edge 74, Type (0, 0), BuildingBlock: UVAHIK_clean_linker_0, # of connection points: 2
#     Edge 75, Type (0, 0), BuildingBlock: UVAHIK_clean_linker_0, # of connection points: 2
#     Edge 76, Type (0, 0), BuildingBlock: UVAHIK_clean_linker_0, # of connection points: 2
#     Edge 77, Type (0, 0), BuildingBlock: UVAHIK_clean_linker_0, # of connection points: 2
#     Edge 78, Type (0, 0), BuildingBlock: UVAHIK_clean_linker_0, # of connection points: 2
#     Edge 79, Type (0, 0), BuildingBlock: UVAHIK_clean_linker_0, # of connection points: 2
#     Edge 80, Type (0, 0), BuildingBlock: UVAHIK_clean_linker_0, # of connection points: 2
#     Edge 81, Type (0, 0), BuildingBlock: UVAHIK_clean_linker_0, # of connection points: 2
#     Edge 82, Type (0, 0), BuildingBlock: UVAHIK_clean_linker_0, # of connection points: 2
#     Edge 83, Type (0, 0), BuildingBlock: UVAHIK_clean_linker_0, # of connection points: 2
#     Edge 84, Type (0, 0), BuildingBlock: UVAHIK_clean_linker_0, # of connection points: 2
#     Edge 85, Type (0, 0), BuildingBlock: UVAHIK_clean_linker_0, # of connection points: 2
#     Edge 86, Type (0, 0), BuildingBlock: UVAHIK_clean_linker_0, # of connection points: 2
#     Edge 87, Type (0, 0), BuildingBlock: UVAHIK_clean_linker_0, # of connection points: 2
#     Edge 88, Type (0, 0), BuildingBlock: UVAHIK_clean_linker_0, # of connection points: 2
#     Edge 89, Type (0, 0), BuildingBlock: UVAHIK_clean_linker_0, # of connection points: 2
#     Edge 90, Type (0, 0), BuildingBlock: UVAHIK_clean_linker_0, # of connection points: 2
#     Edge 91, Type (0, 0), BuildingBlock: UVAHIK_clean_linker_0, # of connection points: 2
#     Edge 92, Type (0, 0), BuildingBlock: UVAHIK_clean_linker_0, # of connection points: 2
#     Edge 93, Type (0, 0), BuildingBlock: UVAHIK_clean_linker_0, # of connection points: 2
#     Edge 94, Type (0, 0), BuildingBlock: UVAHIK_clean_linker_0, # of connection points: 2
#     Edge 95, Type (0, 0), BuildingBlock: UVAHIK_clean_linker_0, # of connection points: 2
# Relax obj value: 0.142
# Max RMSD: 0.235
# Mean RMSD: 0.235
data_MOF--net-sxg--node1-OJICUG_clean_sbu_0--edge1-UVAHIK_clean_linker_0
_symmetry_space_group_name_H-M    P1
_symmetry_Int_Tables_number       1
_symmetry_cell_setting            triclinic
loop_
_symmetry_equiv_pos_as_xyz
'x, y, z'
_cell_length_a     59.343041
_cell_length_b     59.312955
_cell_length_c     59.346339
_cell_angle_alpha  89.998984
_cell_angle_beta   89.983029
_cell_angle_gamma 89.999846
loop_
_atom_site_label
_atom_site_type_symbol
_atom_site_fract_x
_atom_site_fract_y
_atom_site_fract_z
_atom_type_partial_charge
Sc0 Sc 0.07729 0.36998 0.17015 0.0
Sc1 Sc 0.05854 0.35788 0.22539 0.0
Sc2 Sc 0.06968 0.31371 0.18732 0.0
O3 O 0.06839 0.3472 0.19428 0.0
C4 C 0.04893 0.33357 0.14203 0.0
C5 C 0.03505 0.39414 0.19294 0.0
C6 C 0.02529 0.31652 0.21805 0.0
C7 C 0.0998 0.39072 0.21452 0.0
C8 C 0.11399 0.33185 0.16241 0.0
C9 C 0.08916 0.31503 0.23711 0.0
O10 O 0.05753 0.3531 0.14452 0.0
O11 O 0.03668 0.38376 0.21165 0.0
O12 O 0.03806 0.30648 0.20403 0.0
O13 O 0.0982 0.38891 0.19322 0.0
O14 O 0.10197 0.31624 0.17081 0.0
O15 O 0.0789 0.33298 0.24292 0.0
O16 O 0.10729 0.35209 0.16098 0.0
O17 O 0.08653 0.38071 0.22804 0.0
O18 O 0.08788 0.30665 0.21748 0.0
O19 O 0.0485 0.39076 0.17665 0.0
O20 O 0.0516 0.31779 0.15628 0.0
O21 O 0.02995 0.33575 0.22628 0.0
Sc22 Sc 0.41697 0.62629 0.6708 0.0
Sc23 Sc 0.43455 0.63852 0.72648 0.0
Sc24 Sc 0.42777 0.68229 0.68709 0.0
O25 O 0.42653 0.649 0.6948 0.0
C26 C 0.44829 0.66043 0.64271 0.0
C27 C 0.45717 0.60045 0.69538 0.0
C28 C 0.47065 0.67752 0.71959 0.0
C29 C 0.39212 0.60743 0.71489 0.0
C30 C 0.38305 0.66649 0.66127 0.0
C31 C 0.4065 0.68357 0.73619 0.0
O32 O 0.43821 0.64159 0.64514 0.0
O33 O 0.45531 0.61114 0.71391 0.0
O34 O 0.45918 0.68791 0.70473 0.0
O35 O 0.39456 0.60859 0.6936 0.0
O36 O 0.39606 0.6814 0.66948 0.0
O37 O 0.41517 0.66507 0.74284 0.0
O38 O 0.38817 0.64573 0.66066 0.0
O39 O 0.40525 0.61737 0.72858 0.0
O40 O 0.40914 0.69126 0.71642 0.0
O41 O 0.44457 0.60427 0.6785 0.0
O42 O 0.44652 0.67641 0.65684 0.0
O43 O 0.46439 0.6589 0.72813 0.0
Sc44 Sc 0.56863 0.17709 0.80634 0.0
Sc45 Sc 0.5593 0.13309 0.7676 0.0
Sc46 Sc 0.57731 0.12084 0.82305 0.0
O47 O 0.56831 0.14367 0.79899 0.0
C48 C 0.61296 0.15973 0.83178 0.0
C49 C 0.58929 0.17668 0.75696 0.0
C50 C 0.60089 0.10075 0.77891 0.0
C51 C 0.52511 0.17381 0.77449 0.0
C52 C 0.54754 0.15628 0.85104 0.0
C53 C 0.53572 0.09634 0.79945 0.0
O54 O 0.60063 0.17513 0.82345 0.0
O55 O 0.57972 0.15847 0.75074 0.0
O56 O 0.59901 0.10248 0.8002 0.0
O57 O 0.5372 0.18387 0.78907 0.0
O58 O 0.55674 0.13702 0.84856 0.0
O59 O 0.5374 0.10695 0.78086 0.0
O60 O 0.55003 0.17224 0.83696 0.0
O61 O 0.53045 0.15483 0.76611 0.0
O62 O 0.54902 0.09961 0.81587 0.0
O63 O 0.58722 0.18488 0.7766 0.0
O64 O 0.60678 0.13929 0.83282 0.0
O65 O 0.58761 0.1106 0.76529 0.0
Sc66 Sc 0.92792 0.81711 0.30317 0.0
Sc67 Sc 0.93331 0.86056 0.26317 0.0
Sc68 Sc 0.9178 0.87328 0.3194 0.0
O69 O 0.92648 0.85035 0.29524 0.0
C70 C 0.88406 0.83311 0.3302 0.0
C71 C 0.90477 0.81572 0.25482 0.0
C72 C 0.89128 0.8917 0.27629 0.0
C73 C 0.96964 0.82147 0.26926 0.0
C74 C 0.9498 0.83939 0.34677 0.0
C75 C 0.95708 0.89879 0.29301 0.0
O76 O 0.89652 0.81812 0.32133 0.0
O77 O 0.91282 0.83434 0.24779 0.0
O78 O 0.89433 0.89031 0.29746 0.0
O79 O 0.959 0.81148 0.28498 0.0
O80 O 0.94009 0.8584 0.34428 0.0
O81 O 0.95505 0.88744 0.2749 0.0
O82 O 0.94723 0.82317 0.33304 0.0
O83 O 0.96274 0.83969 0.26036 0.0
O84 O 0.94473 0.89568 0.31022 0.0
O85 O 0.90865 0.8079 0.27433 0.0
O86 O 0.88957 0.85376 0.33096 0.0
O87 O 0.90418 0.88216 0.26208 0.0
Sc88 Sc 0.17037 0.07724 0.37108 0.0
Sc89 Sc 0.22576 0.05904 0.35909 0.0
Sc90 Sc 0.18743 0.06896 0.31481 0.0
O91 O 0.19451 0.06829 0.34832 0.0
C92 C 0.14235 0.04813 0.33521 0.0
C93 C 0.19378 0.03556 0.39571 0.0
C94 C 0.2187 0.02503 0.31816 0.0
C95 C 0.21446 0.10059 0.39155 0.0
C96 C 0.16209 0.11328 0.33229 0.0
C97 C 0.23704 0.08913 0.3158 0.0
O98 O 0.14511 0.05645 0.35481 0.0
O99 O 0.21233 0.03704 0.38503 0.0
O100 O 0.20425 0.03721 0.30798 0.0
O101 O 0.19316 0.099 0.38951 0.0
O102 O 0.17092 0.10125 0.31693 0.0
O103 O 0.24298 0.07958 0.33408 0.0
O104 O 0.16047 0.10673 0.35257 0.0
O105 O 0.22804 0.08715 0.38185 0.0
O106 O 0.21753 0.08708 0.30733 0.0
O107 O 0.17747 0.04902 0.39245 0.0
O108 O 0.15621 0.05113 0.31914 0.0
O109 O 0.22709 0.03035 0.33713 0.0
Sc110 Sc 0.30247 0.92944 0.82005 0.0
Sc111 Sc 0.26148 0.93265 0.86269 0.0
Sc112 Sc 0.31803 0.91913 0.87633 0.0
O113 O 0.29398 0.92717 0.85306 0.0
C114 C 0.33151 0.88675 0.83594 0.0
C115 C 0.25538 0.90401 0.81753 0.0
C116 C 0.27557 0.89088 0.89379 0.0
C117 C 0.26647 0.96948 0.824 0.0
C118 C 0.34446 0.95306 0.8434 0.0
C119 C 0.28968 0.95722 0.90159 0.0
O120 O 0.32267 0.89932 0.82104 0.0
O121 O 0.24757 0.91186 0.83593 0.0
O122 O 0.29664 0.8947 0.89286 0.0
O123 O 0.28265 0.95945 0.81415 0.0
O124 O 0.34236 0.94254 0.86203 0.0
O125 O 0.27186 0.95456 0.88995 0.0
O126 O 0.33092 0.95046 0.82703 0.0
O127 O 0.25776 0.96225 0.84217 0.0
O128 O 0.30742 0.94556 0.8987 0.0
O129 O 0.27495 0.90856 0.8102 0.0
O130 O 0.33103 0.8915 0.85679 0.0
O131 O 0.26113 0.90329 0.88398 0.0
Sc132 Sc 0.68652 0.42518 0.6803 0.0
Sc133 Sc 0.72566 0.43238 0.63635 0.0
Sc134 Sc 0.66965 0.41616 0.62416 0.0
O135 O 0.69395 0.42469 0.64692 0.0
C136 C 0.65982 0.38129 0.66345 0.0
C137 C 0.73506 0.40284 0.68049 0.0
C138 C 0.7131 0.39085 0.60458 0.0
C139 C 0.71993 0.46762 0.67622 0.0
C140 C 0.64247 0.44718 0.65931 0.0
C141 C 0.69468 0.4564 0.59903 0.0
O142 O 0.66803 0.39386 0.67873 0.0
O143 O 0.74174 0.41226 0.66239 0.0
O144 O 0.69191 0.39403 0.60545 0.0
O145 O 0.7052 0.45596 0.68662 0.0
O146 O 0.64452 0.43724 0.64037 0.0
O147 O 0.71336 0.45378 0.6093 0.0
O148 O 0.65672 0.44499 0.67514 0.0
O149 O 0.72785 0.4619 0.65716 0.0
O150 O 0.67751 0.44425 0.60295 0.0
O151 O 0.71537 0.40537 0.68842 0.0
O152 O 0.65942 0.38693 0.64283 0.0
O153 O 0.72715 0.40318 0.615 0.0
Sc154 Sc 0.82087 0.57642 0.11901 0.0
Sc155 Sc 0.76491 0.55972 0.13085 0.0
Sc156 Sc 0.80404 0.56557 0.17486 0.0
O157 O 0.79661 0.56716 0.14154 0.0
C158 C 0.84787 0.54404 0.1531 0.0
C159 C 0.79583 0.53657 0.09306 0.0
C160 C 0.77042 0.52358 0.16987 0.0
C161 C 0.77736 0.602 0.09994 0.0
C162 C 0.8312 0.60971 0.15945 0.0
C163 C 0.75573 0.58838 0.17563 0.0
O164 O 0.84599 0.5547 0.13453 0.0
O165 O 0.77728 0.53875 0.10363 0.0
O166 O 0.78518 0.53485 0.18059 0.0
O167 O 0.79861 0.59929 0.10117 0.0
O168 O 0.82298 0.59653 0.17419 0.0
O169 O 0.74895 0.57952 0.15728 0.0
O170 O 0.83131 0.60503 0.13859 0.0
O171 O 0.76347 0.58902 0.10978 0.0
O172 O 0.77538 0.58542 0.18351 0.0
O173 O 0.81289 0.54893 0.09691 0.0
O174 O 0.83354 0.54569 0.16892 0.0
O175 O 0.76253 0.52987 0.15102 0.0
Sc176 Sc 0.36882 0.17117 0.07684 0.0
Sc177 Sc 0.35862 0.22727 0.05971 0.0
Sc178 Sc 0.31313 0.19019 0.069 0.0
O179 O 0.34685 0.19619 0.06837 0.0
C180 C 0.33204 0.1448 0.0474 0.0
C181 C 0.39439 0.19469 0.03579 0.0
C182 C 0.31758 0.22208 0.02556 0.0
C183 C 0.39041 0.21416 0.10116 0.0
C184 C 0.32979 0.16348 0.11279 0.0
C185 C 0.31577 0.23942 0.08997 0.0
O186 O 0.35176 0.14685 0.05563 0.0
O187 O 0.38428 0.21353 0.03767 0.0
O188 O 0.30693 0.20777 0.03753 0.0
O189 O 0.38785 0.19295 0.09907 0.0
O190 O 0.31471 0.17308 0.10102 0.0
O191 O 0.33417 0.24493 0.08043 0.0
O192 O 0.34998 0.16128 0.10611 0.0
O193 O 0.38121 0.2283 0.08797 0.0
O194 O 0.30665 0.22022 0.08764 0.0
O195 O 0.3905 0.17815 0.0488 0.0
O196 O 0.31641 0.1591 0.0507 0.0
O197 O 0.33682 0.22975 0.031 0.0
Sc198 Sc 0.81533 0.30086 0.92681 0.0
Sc199 Sc 0.86037 0.26269 0.93319 0.0
Sc200 Sc 0.87085 0.31913 0.91699 0.0
O201 O 0.84887 0.29422 0.92581 0.0
C202 C 0.83071 0.3281 0.88283 0.0
C203 C 0.81617 0.25226 0.90427 0.0
C204 C 0.89112 0.27637 0.89115 0.0
C205 C 0.82077 0.26758 0.96906 0.0
C206 C 0.83567 0.34551 0.94848 0.0
C207 C 0.89728 0.29437 0.95669 0.0
O208 O 0.81588 0.31902 0.89534 0.0
O209 O 0.83479 0.24609 0.91296 0.0
O210 O 0.8891 0.29752 0.89405 0.0
O211 O 0.81012 0.28249 0.95789 0.0
O212 O 0.85471 0.34367 0.93871 0.0
O213 O 0.88707 0.2756 0.95455 0.0
O214 O 0.82001 0.33108 0.94615 0.0
O215 O 0.83962 0.25962 0.96271 0.0
O216 O 0.89303 0.31136 0.94437 0.0
O217 O 0.80756 0.27158 0.90748 0.0
O218 O 0.8513 0.32941 0.88842 0.0
O219 O 0.88188 0.26198 0.90405 0.0
Sc220 Sc 0.68067 0.68674 0.42506 0.0
Sc221 Sc 0.63677 0.72582 0.43174 0.0
Sc222 Sc 0.62455 0.66987 0.41556 0.0
O223 O 0.64731 0.69411 0.42426 0.0
C224 C 0.6642 0.65975 0.38123 0.0
C225 C 0.68164 0.73529 0.40321 0.0
C226 C 0.60631 0.71337 0.3894 0.0
C227 C 0.6757 0.72001 0.46759 0.0
C228 C 0.65939 0.64286 0.44709 0.0
C229 C 0.59856 0.69511 0.45491 0.0
O230 O 0.67942 0.66782 0.39398 0.0
O231 O 0.66374 0.74202 0.41294 0.0
O232 O 0.60615 0.69223 0.39317 0.0
O233 O 0.68667 0.70592 0.45566 0.0
O234 O 0.64061 0.64476 0.43682 0.0
O235 O 0.60868 0.71383 0.45198 0.0
O236 O 0.67518 0.6572 0.44514 0.0
O237 O 0.65636 0.72735 0.46204 0.0
O238 O 0.60303 0.67765 0.4434 0.0
O239 O 0.68907 0.71532 0.40499 0.0
O240 O 0.64351 0.65964 0.38659 0.0
O241 O 0.61696 0.72738 0.40157 0.0
Sc242 Sc 0.11901 0.82167 0.57817 0.0
Sc243 Sc 0.1297 0.76534 0.56146 0.0
Sc244 Sc 0.17434 0.80401 0.56669 0.0
O245 O 0.14098 0.79699 0.56867 0.0
C246 C 0.15307 0.84819 0.54536 0.0
C247 C 0.09235 0.79697 0.53855 0.0
C248 C 0.16867 0.77016 0.52499 0.0
C249 C 0.09936 0.77856 0.60401 0.0
C250 C 0.15997 0.8314 0.61095 0.0
C251 C 0.17443 0.75574 0.58987 0.0
O252 O 0.13455 0.84653 0.55615 0.0
O253 O 0.10275 0.77825 0.5404 0.0
O254 O 0.17934 0.7852 0.53591 0.0
O255 O 0.10126 0.79977 0.60136 0.0
O256 O 0.17441 0.82287 0.59766 0.0
O257 O 0.15587 0.74906 0.58138 0.0
O258 O 0.13908 0.83195 0.60647 0.0
O259 O 0.10854 0.76441 0.59082 0.0
O260 O 0.18264 0.77519 0.5864 0.0
O261 O 0.09646 0.81384 0.55109 0.0
O262 O 0.16872 0.83367 0.54693 0.0
O263 O 0.14993 0.7622 0.53161 0.0
Sc264 Sc 0.92427 0.67747 0.80663 0.0
Sc265 Sc 0.93149 0.63376 0.76714 0.0
Sc266 Sc 0.91515 0.62126 0.82314 0.0
O267 O 0.92375 0.64414 0.79895 0.0
C268 C 0.94612 0.6561 0.85067 0.0
C269 C 0.96675 0.67369 0.77344 0.0
C270 C 0.95558 0.59635 0.79792 0.0
C271 C 0.90217 0.67804 0.75787 0.0
C272 C 0.88026 0.66061 0.83303 0.0
C273 C 0.88991 0.6018 0.77956 0.0
O274 O 0.9436 0.67212 0.83668 0.0
O275 O 0.96075 0.65496 0.76494 0.0
O276 O 0.94309 0.59984 0.81495 0.0
O277 O 0.90502 0.6859 0.77754 0.0
O278 O 0.88608 0.64004 0.83376 0.0
O279 O 0.90266 0.61183 0.76556 0.0
O280 O 0.89271 0.67586 0.82457 0.0
O281 O 0.91114 0.65974 0.75109 0.0
O282 O 0.8927 0.60318 0.80078 0.0
O283 O 0.95534 0.68378 0.78855 0.0
O284 O 0.93652 0.63701 0.84834 0.0
O285 O 0.95322 0.60699 0.77941 0.0
Sc286 Sc 0.56597 0.31553 0.30162 0.0
Sc287 Sc 0.55683 0.36039 0.264 0.0
Sc288 Sc 0.57609 0.37114 0.31944 0.0
O289 O 0.56618 0.34906 0.29502 0.0
C290 C 0.54599 0.33549 0.34702 0.0
C291 C 0.5223 0.31994 0.27012 0.0
C292 C 0.53439 0.39672 0.2971 0.0
C293 C 0.58652 0.31705 0.25228 0.0
C294 C 0.61091 0.33135 0.32703 0.0
C295 C 0.59893 0.39203 0.27533 0.0
O296 O 0.54747 0.32 0.3323 0.0
O297 O 0.52759 0.33915 0.26228 0.0
O298 O 0.54783 0.39284 0.3133 0.0
O299 O 0.58461 0.30848 0.27178 0.0
O300 O 0.60562 0.35204 0.32813 0.0
O301 O 0.58534 0.38251 0.26181 0.0
O302 O 0.59781 0.3165 0.31891 0.0
O303 O 0.57672 0.33519 0.2463 0.0
O304 O 0.59747 0.38993 0.29662 0.0
O305 O 0.53454 0.30945 0.28424 0.0
O306 O 0.55593 0.35446 0.34503 0.0
O307 O 0.53567 0.38654 0.27824 0.0
Sc308 Sc 0.42928 0.8166 0.18911 0.0
Sc309 Sc 0.43182 0.85966 0.22968 0.0
Sc310 Sc 0.4171 0.87263 0.17334 0.0
O311 O 0.42615 0.84966 0.19737 0.0
C312 C 0.45108 0.84027 0.1462 0.0
C313 C 0.46954 0.82168 0.2245 0.0
C314 C 0.45543 0.8986 0.20069 0.0
C315 C 0.40441 0.81397 0.23666 0.0
C316 C 0.38534 0.83129 0.16128 0.0
C317 C 0.38951 0.89028 0.21613 0.0
O318 O 0.44905 0.82386 0.15981 0.0
O319 O 0.46134 0.83929 0.23346 0.0
O320 O 0.44319 0.89565 0.18336 0.0
O321 O 0.40967 0.8063 0.21739 0.0
O322 O 0.38983 0.85221 0.16108 0.0
O323 O 0.40256 0.88089 0.23025 0.0
O324 O 0.39834 0.81673 0.17011 0.0
O325 O 0.41118 0.83298 0.24402 0.0
O326 O 0.39258 0.88899 0.19495 0.0
O327 O 0.46022 0.81174 0.20794 0.0
O328 O 0.44039 0.85877 0.14863 0.0
O329 O 0.45352 0.88686 0.21858 0.0
Sc330 Sc 0.06725 0.18086 0.68839 0.0
Sc331 Sc 0.05865 0.13614 0.72636 0.0
Sc332 Sc 0.07724 0.12511 0.67077 0.0
O333 O 0.0676 0.14734 0.69517 0.0
C334 C 0.04712 0.16062 0.64311 0.0
C335 C 0.0237 0.17629 0.71996 0.0
C336 C 0.03586 0.09957 0.69376 0.0
C337 C 0.08803 0.17988 0.73768 0.0
C338 C 0.1121 0.16485 0.66297 0.0
C339 C 0.1006 0.10443 0.71477 0.0
O340 O 0.04891 0.17622 0.65767 0.0
O341 O 0.02941 0.15735 0.72815 0.0
O342 O 0.0491 0.10338 0.67736 0.0
O343 O 0.08569 0.18842 0.71823 0.0
O344 O 0.10659 0.14423 0.66166 0.0
O345 O 0.08717 0.11399 0.72842 0.0
O346 O 0.09922 0.17978 0.67132 0.0
O347 O 0.07872 0.16147 0.74367 0.0
O348 O 0.09893 0.10651 0.69349 0.0
O349 O 0.03566 0.18678 0.70558 0.0
O350 O 0.05681 0.14155 0.64523 0.0
O351 O 0.03735 0.10987 0.71254 0.0
Sc352 Sc 0.82156 0.9176 0.62019 0.0
Sc353 Sc 0.76566 0.93492 0.63168 0.0
Sc354 Sc 0.80448 0.92843 0.67594 0.0
O355 O 0.79723 0.92708 0.64257 0.0
C356 C 0.83119 0.884 0.66059 0.0
C357 C 0.77799 0.89274 0.60046 0.0
C358 C 0.75591 0.90593 0.67608 0.0
C359 C 0.79721 0.95813 0.59446 0.0
C360 C 0.84876 0.94949 0.65454 0.0
C361 C 0.77113 0.97066 0.67123 0.0
O362 O 0.83162 0.88878 0.63975 0.0
O363 O 0.76416 0.90597 0.61005 0.0
O364 O 0.77543 0.90899 0.68428 0.0
O365 O 0.81396 0.94528 0.59814 0.0
O366 O 0.83437 0.9479 0.67032 0.0
O367 O 0.76302 0.96445 0.65243 0.0
O368 O 0.84678 0.93899 0.63589 0.0
O369 O 0.77859 0.95628 0.60501 0.0
O370 O 0.7861 0.9594 0.68164 0.0
O371 O 0.79925 0.89502 0.60215 0.0
O372 O 0.82292 0.8972 0.67528 0.0
O373 O 0.7494 0.91472 0.6576 0.0
Sc374 Sc 0.68725 0.0659 0.18034 0.0
Sc375 Sc 0.72662 0.05836 0.13654 0.0
Sc376 Sc 0.67096 0.0757 0.12414 0.0
O377 O 0.69493 0.06653 0.14699 0.0
C378 C 0.64263 0.0454 0.1587 0.0
C379 C 0.71925 0.02271 0.1761 0.0
C380 C 0.69577 0.0352 0.09885 0.0
C381 C 0.73653 0.08708 0.18093 0.0
C382 C 0.66166 0.11039 0.16389 0.0
C383 C 0.71489 0.10041 0.10493 0.0
O384 O 0.65622 0.04814 0.17501 0.0
O385 O 0.72835 0.02916 0.15781 0.0
O386 O 0.67909 0.0482 0.10216 0.0
O387 O 0.71704 0.08393 0.18912 0.0
O388 O 0.66021 0.10446 0.14339 0.0
O389 O 0.72862 0.08703 0.11448 0.0
O390 O 0.67059 0.09804 0.17892 0.0
O391 O 0.74292 0.07868 0.16225 0.0
O392 O 0.69361 0.09836 0.10668 0.0
O393 O 0.70403 0.03402 0.18614 0.0
O394 O 0.64567 0.0541 0.13931 0.0
O395 O 0.71409 0.03679 0.10989 0.0
Sc396 Sc 0.30107 0.56427 0.31804 0.0
Sc397 Sc 0.26237 0.5576 0.36246 0.0
Sc398 Sc 0.31818 0.57544 0.37364 0.0
O399 O 0.29387 0.56568 0.35141 0.0
C400 C 0.34557 0.54364 0.33939 0.0
C401 C 0.26822 0.52172 0.32311 0.0
C402 C 0.29419 0.53493 0.39977 0.0
C403 C 0.25229 0.58633 0.31793 0.0
C404 C 0.32757 0.6089 0.33306 0.0
C405 C 0.27446 0.60011 0.39329 0.0
O406 O 0.33116 0.54515 0.32363 0.0
O407 O 0.26001 0.52796 0.34186 0.0
O408 O 0.31077 0.54794 0.39592 0.0
O409 O 0.27182 0.58339 0.30971 0.0
O410 O 0.32812 0.60416 0.3539 0.0
O411 O 0.26065 0.58665 0.38399 0.0
O412 O 0.31924 0.59566 0.31845 0.0
O413 O 0.24586 0.57755 0.33647 0.0
O414 O 0.29571 0.59802 0.39141 0.0
O415 O 0.28304 0.5331 0.31261 0.0
O416 O 0.34352 0.55409 0.35806 0.0
O417 O 0.27553 0.53646 0.38925 0.0
Sc418 Sc 0.17282 0.41774 0.86908 0.0
Sc419 Sc 0.22872 0.43458 0.85749 0.0
Sc420 Sc 0.19002 0.42734 0.81309 0.0
O421 O 0.19719 0.42666 0.84656 0.0
C422 C 0.16329 0.38327 0.82939 0.0
C423 C 0.21628 0.39263 0.88891 0.0
C424 C 0.23877 0.40534 0.81325 0.0
C425 C 0.19741 0.45794 0.89482 0.0
C426 C 0.14567 0.44895 0.8341 0.0
C427 C 0.22298 0.47001 0.81772 0.0
O428 O 0.16254 0.38892 0.84998 0.0
O429 O 0.23023 0.40559 0.87909 0.0
O430 O 0.2192 0.40798 0.80506 0.0
O431 O 0.18052 0.44541 0.89087 0.0
O432 O 0.15989 0.44674 0.81822 0.0
O433 O 0.23088 0.46407 0.8367 0.0
O434 O 0.14782 0.43911 0.85308 0.0
O435 O 0.21606 0.45591 0.88438 0.0
O436 O 0.20838 0.45842 0.80707 0.0
O437 O 0.19504 0.39521 0.88736 0.0
O438 O 0.17187 0.39576 0.81425 0.0
O439 O 0.24516 0.41449 0.83159 0.0
Sc440 Sc 0.62277 0.82421 0.91474 0.0
Sc441 Sc 0.63332 0.76825 0.93219 0.0
Sc442 Sc 0.67844 0.80587 0.9238 0.0
O443 O 0.64484 0.79944 0.92368 0.0
C444 C 0.66226 0.83245 0.87966 0.0
C445 C 0.60197 0.78088 0.8903 0.0
C446 C 0.67703 0.75678 0.90263 0.0
C447 C 0.59701 0.80077 0.95565 0.0
C448 C 0.65863 0.85082 0.94524 0.0
C449 C 0.67369 0.7736 0.96692 0.0
O450 O 0.64176 0.83373 0.88552 0.0
O451 O 0.61145 0.76679 0.90336 0.0
O452 O 0.68558 0.77628 0.90469 0.0
O453 O 0.60108 0.8174 0.94281 0.0
O454 O 0.67419 0.83627 0.94294 0.0
O455 O 0.65439 0.76609 0.96148 0.0
O456 O 0.63951 0.84903 0.93563 0.0
O457 O 0.607 0.78186 0.95366 0.0
O458 O 0.68446 0.78775 0.95492 0.0
O459 O 0.60398 0.8021 0.89269 0.0
O460 O 0.67732 0.82371 0.89212 0.0
O461 O 0.65872 0.7509 0.91219 0.0
Sc462 Sc 0.17922 0.68696 0.06943 0.0
Sc463 Sc 0.13533 0.72576 0.06004 0.0
Sc464 Sc 0.12302 0.67017 0.07783 0.0
O465 O 0.14584 0.6943 0.06899 0.0
C466 C 0.15863 0.64234 0.04807 0.0
C467 C 0.17583 0.71882 0.0258 0.0
C468 C 0.09827 0.69409 0.03658 0.0
C469 C 0.17898 0.73628 0.08997 0.0
C470 C 0.16176 0.66115 0.11356 0.0
C471 C 0.10315 0.71436 0.10166 0.0
O472 O 0.17448 0.65652 0.05058 0.0
O473 O 0.15668 0.72694 0.0309 0.0
O474 O 0.1019 0.6774 0.04947 0.0
O475 O 0.18684 0.71647 0.08832 0.0
O476 O 0.14133 0.66029 0.10737 0.0
O477 O 0.11325 0.72807 0.08865 0.0
O478 O 0.17721 0.6695 0.10129 0.0
O479 O 0.16108 0.74271 0.08 0.0
O480 O 0.10458 0.69305 0.09946 0.0
O481 O 0.18606 0.70456 0.03816 0.0
O482 O 0.13936 0.64468 0.05729 0.0
O483 O 0.1087 0.71276 0.03856 0.0
Sc484 Sc 0.31889 0.30129 0.56811 0.0
Sc485 Sc 0.36372 0.26305 0.56101 0.0
Sc486 Sc 0.37451 0.3195 0.57709 0.0
O487 O 0.3524 0.29461 0.56859 0.0
C488 C 0.33891 0.34573 0.54583 0.0
C489 C 0.32341 0.2676 0.52601 0.0
C490 C 0.40022 0.29476 0.53689 0.0
C491 C 0.32017 0.25291 0.59098 0.0
C492 C 0.33489 0.32881 0.61173 0.0
C493 C 0.39514 0.27668 0.60259 0.0
O494 O 0.32333 0.33122 0.54829 0.0
O495 O 0.3425 0.25986 0.53186 0.0
O496 O 0.39624 0.31171 0.54935 0.0
O497 O 0.31165 0.2723 0.588 0.0
O498 O 0.35546 0.32984 0.60601 0.0
O499 O 0.3857 0.26235 0.58978 0.0
O500 O 0.3199 0.31989 0.59933 0.0
O501 O 0.33841 0.24645 0.58169 0.0
O502 O 0.39311 0.29785 0.59978 0.0
O503 O 0.31296 0.28249 0.53741 0.0
O504 O 0.35799 0.34405 0.55556 0.0
O505 O 0.39003 0.27599 0.53916 0.0
Sc506 Sc 0.87298 0.17425 0.41609 0.0
Sc507 Sc 0.86236 0.23124 0.43026 0.0
Sc508 Sc 0.81756 0.19242 0.42656 0.0
O509 O 0.85099 0.19932 0.42444 0.0
C510 C 0.83221 0.16371 0.3832 0.0
C511 C 0.89284 0.21604 0.38847 0.0
C512 C 0.81771 0.23997 0.40162 0.0
C513 C 0.89964 0.20066 0.45462 0.0
C514 C 0.83872 0.14872 0.44931 0.0
C515 C 0.82314 0.22791 0.46686 0.0
O516 O 0.85291 0.16272 0.3884 0.0
O517 O 0.88391 0.23079 0.40117 0.0
O518 O 0.80919 0.22093 0.40637 0.0
O519 O 0.8956 0.18337 0.44265 0.0
O520 O 0.8229 0.16294 0.44681 0.0
O521 O 0.84157 0.23594 0.45947 0.0
O522 O 0.85754 0.15038 0.43908 0.0
O523 O 0.88907 0.21922 0.45224 0.0
O524 O 0.81277 0.21184 0.45711 0.0
O525 O 0.89066 0.19499 0.39189 0.0
O526 O 0.81758 0.17318 0.39568 0.0
O527 O 0.83662 0.24669 0.40925 0.0
C528 C 0.12101 0.40596 0.2477 0.0
C529 C 0.11884 0.40373 0.2242 0.0
C530 C 0.13984 0.41647 0.25707 0.0
C531 C 0.18602 0.45586 0.24444 0.0
H532 H 0.21225 0.43014 0.29852 0.0
C533 C 0.26094 0.49858 0.28845 0.0
C534 C 0.25764 0.50217 0.31165 0.0
C535 C 0.24734 0.48337 0.27665 0.0
C536 C 0.20511 0.43753 0.28343 0.0
H537 H 0.13476 0.41127 0.19213 0.0
H538 H 0.16767 0.42967 0.20856 0.0
H539 H 0.18115 0.41082 0.27982 0.0
H540 H 0.23873 0.4911 0.34096 0.0
H541 H 0.21511 0.46472 0.32044 0.0
H542 H 0.20961 0.48285 0.24834 0.0
C543 C 0.15467 0.42332 0.21969 0.0
C544 C 0.18725 0.42652 0.27276 0.0
C545 C 0.13579 0.41277 0.21029 0.0
C546 C 0.24166 0.4889 0.32307 0.0
C547 C 0.22814 0.47366 0.31131 0.0
C548 C 0.20389 0.46688 0.25511 0.0
C549 C 0.15703 0.42503 0.24321 0.0
C550 C 0.1772 0.43579 0.25341 0.0
C551 C 0.23028 0.47132 0.28783 0.0
C552 C 0.21336 0.45807 0.27498 0.0
H553 H 0.10829 0.39932 0.25899 0.0
H554 H 0.14091 0.41794 0.27523 0.0
H555 H 0.17854 0.46354 0.22967 0.0
H556 H 0.27315 0.50843 0.2791 0.0
H557 H 0.24965 0.48163 0.25863 0.0
C558 C 0.23424 0.49111 0.78278 0.0
C559 C 0.23381 0.48951 0.80643 0.0
C560 C 0.24884 0.50629 0.77207 0.0
C561 C 0.30319 0.53343 0.78346 0.0
H562 H 0.29228 0.56651 0.72818 0.0
C563 C 0.36914 0.59432 0.7478 0.0
C564 C 0.37287 0.5945 0.72439 0.0
C565 C 0.35098 0.58256 0.757 0.0
C566 C 0.29563 0.55717 0.7435 0.0
H567 H 0.24666 0.50417 0.83735 0.0
H568 H 0.27163 0.53085 0.81875 0.0
H569 H 0.26145 0.54548 0.74589 0.0
H570 H 0.3601 0.58249 0.6923 0.0
H571 H 0.32849 0.56157 0.70851 0.0
H572 H 0.33728 0.54467 0.78107 0.0
C573 C 0.26126 0.51992 0.80844 0.0
C574 C 0.27796 0.5452 0.75367 0.0
C575 C 0.24681 0.50473 0.81911 0.0
C576 C 0.3578 0.58267 0.7104 0.0
C577 C 0.33958 0.57082 0.71967 0.0
C578 C 0.32077 0.54528 0.77332 0.0
C579 C 0.26318 0.5202 0.78483 0.0
C580 C 0.28153 0.53335 0.77388 0.0
C581 C 0.33605 0.57053 0.74311 0.0
C582 C 0.31722 0.55745 0.75332 0.0
H583 H 0.22449 0.4796 0.7725 0.0
H584 H 0.24991 0.50609 0.75385 0.0
H585 H 0.30672 0.52398 0.79867 0.0
H586 H 0.38019 0.60339 0.75915 0.0
H587 H 0.34855 0.58307 0.77508 0.0
C588 C 0.62269 0.08592 0.74589 0.0
C589 C 0.62018 0.08795 0.76938 0.0
C590 C 0.64164 0.07546 0.73669 0.0
C591 C 0.68756 0.03579 0.7496 0.0
H592 H 0.71449 0.06174 0.69595 0.0
C593 C 0.76311 0.99328 0.70611 0.0
C594 C 0.76024 0.98999 0.6828 0.0
C595 C 0.74925 0.00829 0.71788 0.0
C596 C 0.70715 0.05427 0.71091 0.0
H597 H 0.63565 0.08012 0.80159 0.0
H598 H 0.66877 0.0618 0.78544 0.0
H599 H 0.68323 0.08104 0.71441 0.0
H600 H 0.74177 0.00137 0.65335 0.0
H601 H 0.71771 0.02741 0.67382 0.0
H602 H 0.71112 0.00876 0.74579 0.0
C603 C 0.65594 0.06827 0.77419 0.0
C604 C 0.6892 0.06528 0.72145 0.0
C605 C 0.63694 0.07879 0.78344 0.0
C606 C 0.74438 0.00334 0.67131 0.0
C607 C 0.73061 0.01839 0.68306 0.0
C608 C 0.70553 0.02477 0.73904 0.0
C609 C 0.65862 0.06673 0.75069 0.0
C610 C 0.67889 0.05594 0.74065 0.0
C611 C 0.73235 0.02047 0.70659 0.0
C612 C 0.71525 0.03366 0.71932 0.0
H613 H 0.61013 0.09266 0.73449 0.0
H614 H 0.64294 0.07413 0.71853 0.0
H615 H 0.67989 0.02805 0.76424 0.0
H616 H 0.7752 0.98334 0.71552 0.0
H617 H 0.75126 0.00981 0.73596 0.0
C618 C 0.86682 0.90498 0.24449 0.0
C619 C 0.87111 0.90381 0.26777 0.0
C620 C 0.84717 0.91509 0.23641 0.0
C621 C 0.8028 0.95563 0.25154 0.0
H622 H 0.77201 0.92905 0.20037 0.0
C623 C 0.72693 -1e-05 0.21095 0.0
C624 C 0.72921 0.00285 0.18752 0.0
C625 C 0.7404 0.98441 0.22244 0.0
C626 C 0.7804 0.93666 0.21468 0.0
H627 H 0.85801 0.91261 0.30079 0.0
H628 H 0.82371 0.93029 0.2866 0.0
H629 H 0.80391 0.90944 0.21735 0.0
H630 H 0.74594 0.99012 0.15759 0.0
H631 H 0.76929 0.96308 0.17756 0.0
H632 H 0.77972 0.98315 0.24849 0.0
C633 C 0.83567 0.92345 0.27463 0.0
C634 C 0.79872 0.92548 0.22435 0.0
C635 C 0.85535 0.9133 0.28275 0.0
C636 C 0.74387 0.98849 0.17566 0.0
C637 C 0.7572 0.97286 0.18712 0.0
C638 C 0.78447 0.96681 0.24186 0.0
C639 C 0.83128 0.92429 0.25137 0.0
C640 C 0.81047 0.93509 0.24255 0.0
C641 C 0.75625 0.97125 0.21072 0.0
C642 C 0.77338 0.95771 0.22299 0.0
H643 H 0.87854 0.89792 0.23241 0.0
H644 H 0.84453 0.91585 0.21836 0.0
H645 H 0.81158 0.96358 0.26542 0.0
H646 H 0.71578 0.01075 0.22061 0.0
H647 H 0.73903 0.98329 0.24061 0.0
C648 C 0.3231 0.24066 0.49346 0.0
C649 C 0.31168 0.25654 0.50687 0.0
C650 C 0.31131 0.22704 0.4783 0.0
C651 C 0.25505 0.20258 0.4708 0.0
H652 H 0.28001 0.18155 0.41421 0.0
C653 C 0.2102 0.1363 0.4142 0.0
C654 C 0.22411 0.11956 0.40476 0.0
C655 C 0.21962 0.15486 0.42537 0.0
C656 C 0.27288 0.18716 0.43004 0.0
H657 H 0.27899 0.27151 0.51365 0.0
H658 H 0.25848 0.24785 0.48699 0.0
H659 H 0.29872 0.21192 0.43462 0.0
H660 H 0.25891 0.10913 0.40016 0.0
H661 H 0.27514 0.14116 0.41976 0.0
H662 H 0.22947 0.17748 0.46643 0.0
C663 C 0.27654 0.24572 0.48854 0.0
C664 C 0.28358 0.2046 0.44171 0.0
C665 C 0.28836 0.25944 0.50367 0.0
C666 C 0.24762 0.12169 0.4071 0.0
C667 C 0.25698 0.1402 0.41819 0.0
C668 C 0.24434 0.18512 0.45911 0.0
C669 C 0.2878 0.22893 0.47616 0.0
C670 C 0.27504 0.21225 0.46244 0.0
C671 C 0.24314 0.15713 0.42728 0.0
C672 C 0.25338 0.1769 0.43882 0.0
H673 H 0.34106 0.23798 0.49538 0.0
H674 H 0.32052 0.2142 0.46915 0.0
H675 H 0.24818 0.20784 0.48687 0.0
H676 H 0.19204 0.1353 0.41267 0.0
H677 H 0.20848 0.16767 0.43211 0.0
C678 C 0.28258 0.85558 0.91636 0.0
C679 C 0.26741 0.87054 0.90591 0.0
C680 C 0.27478 0.83591 0.92682 0.0
C681 C 0.22568 0.79728 0.92835 0.0
H682 H 0.24801 0.78121 0.98758 0.0
C683 C 0.17613 0.74273 0.99106 0.0
C684 C 0.18783 0.7289 0.00633 0.0
C685 C 0.18781 0.75612 0.97563 0.0
C686 C 0.24191 0.78514 0.97084 0.0
H687 H 0.23204 0.87647 0.89854 0.0
H688 H 0.21856 0.84248 0.91694 0.0
H689 H 0.26478 0.81286 0.96746 0.0
H690 H 0.22101 0.71705 0.01614 0.0
H691 H 0.24139 0.74035 0.98902 0.0
H692 H 0.20239 0.76996 0.932 0.0
C693 C 0.23652 0.84575 0.91673 0.0
C694 C 0.25149 0.80335 0.95933 0.0
C695 C 0.24427 0.86539 0.90635 0.0
C696 C 0.21145 0.72753 0.00467 0.0
C697 C 0.22316 0.74105 0.98927 0.0
C698 C 0.2161 0.77909 0.93985 0.0
C699 C 0.25166 0.8307 0.92698 0.0
C700 C 0.24313 0.80996 0.93819 0.0
C701 C 0.21149 0.75604 0.9751 0.0
C702 C 0.22375 0.77313 0.96145 0.0
H703 H 0.30052 0.85893 0.91628 0.0
H704 H 0.28689 0.82461 0.93448 0.0
H705 H 0.21918 0.80165 0.91187 0.0
H706 H 0.15794 0.74412 0.99177 0.0
H707 H 0.17827 0.76754 0.96506 0.0
C708 C 0.79135 0.23228 0.49476 0.0
C709 C 0.81187 0.24004 0.48565 0.0
C710 C 0.77895 0.24586 0.50961 0.0
C711 C 0.76304 0.30189 0.51779 0.0
H712 H 0.75758 0.29484 0.58253 0.0
C713 C 0.74294 0.36199 0.59741 0.0
C714 C 0.72197 0.37142 0.59164 0.0
C715 C 0.75153 0.3436 0.58549 0.0
C716 C 0.75883 0.29687 0.56444 0.0
H717 H 0.83584 0.26778 0.48604 0.0
H718 H 0.81395 0.29135 0.5115 0.0
H719 H 0.77758 0.26612 0.56032 0.0
H720 H 0.69351 0.36884 0.5689 0.0
H721 H 0.70898 0.337 0.5475 0.0
H722 H 0.74464 0.33273 0.52177 0.0
C723 C 0.80763 0.27476 0.50716 0.0
C724 C 0.77015 0.28046 0.55181 0.0
C725 C 0.82017 0.26116 0.49265 0.0
C726 C 0.70972 0.36196 0.57371 0.0
C727 C 0.71855 0.34379 0.56148 0.0
C728 C 0.75141 0.31808 0.53032 0.0
C729 C 0.78676 0.26743 0.51534 0.0
C730 C 0.77267 0.28312 0.52848 0.0
C731 C 0.73953 0.33445 0.56729 0.0
C732 C 0.74959 0.31597 0.55382 0.0
H733 H 0.78446 0.21613 0.48977 0.0
H734 H 0.76283 0.23994 0.51583 0.0
H735 H 0.76494 0.30424 0.49978 0.0
H736 H 0.75272 0.36873 0.61128 0.0
H737 H 0.76784 0.33688 0.59018 0.0
C738 C 0.78218 0.63664 0.07565 0.0
C739 C 0.76807 0.62144 0.08717 0.0
C740 C 0.77302 0.65511 0.06407 0.0
C741 C 0.71944 0.67452 0.03888 0.0
H742 H 0.74649 0.73401 0.04095 0.0
C743 C 0.67282 0.74937 0.00137 0.0
C744 C 0.68524 0.76264 0.98617 0.0
C745 C 0.68377 0.73468 0.01611 0.0
C746 C 0.73882 0.71746 0.04017 0.0
H747 H 0.73322 0.61411 0.09579 0.0
H748 H 0.71751 0.64612 0.07601 0.0
H749 H 0.76447 0.7026 0.0609 0.0
H750 H 0.71901 0.77229 0.97595 0.0
H751 H 0.73811 0.74648 0.00167 0.0
H752 H 0.6939 0.68912 0.0182 0.0
C753 C 0.73559 0.64363 0.07549 0.0
C754 C 0.74915 0.69947 0.05149 0.0
C755 C 0.74467 0.62525 0.08695 0.0
C756 C 0.70892 0.7623 0.98743 0.0
C757 C 0.7199 0.74749 0.00217 0.0
C758 C 0.70914 0.69242 0.02769 0.0
C759 C 0.74958 0.65871 0.06378 0.0
C760 C 0.73943 0.67782 0.05112 0.0
C761 C 0.70738 0.73282 0.01595 0.0
C762 C 0.71855 0.71414 0.02835 0.0
H763 H 0.80027 0.63428 0.07552 0.0
H764 H 0.78424 0.66634 0.05507 0.0
H765 H 0.71178 0.65798 0.03776 0.0
H766 H 0.65457 0.74944 0.00108 0.0
H767 H 0.67367 0.72402 0.02697 0.0
C768 C 0.40557 0.24646 0.12373 0.0
C769 C 0.40337 0.22304 0.12064 0.0
C770 C 0.41608 0.2551 0.14289 0.0
C771 C 0.45602 0.24127 0.18798 0.0
H772 H 0.42984 0.29397 0.21654 0.0
C773 C 0.50015 0.28466 0.2626 0.0
C774 C 0.50283 0.30807 0.25986 0.0
C775 C 0.48486 0.27271 0.24921 0.0
C776 C 0.43737 0.27927 0.20876 0.0
H777 H 0.41101 0.19036 0.13524 0.0
H778 H 0.42956 0.20558 0.16872 0.0
H779 H 0.41018 0.27583 0.18534 0.0
H780 H 0.49014 0.33749 0.24217 0.0
H781 H 0.46367 0.31672 0.21891 0.0
H782 H 0.48354 0.2451 0.21093 0.0
C783 C 0.42308 0.21718 0.15621 0.0
C784 C 0.42614 0.26891 0.19086 0.0
C785 C 0.41246 0.20848 0.13701 0.0
C786 C 0.48864 0.31946 0.24467 0.0
C787 C 0.47334 0.30753 0.23136 0.0
C788 C 0.46729 0.25167 0.20588 0.0
C789 C 0.42473 0.2406 0.15948 0.0
C790 C 0.43559 0.25012 0.17992 0.0
C791 C 0.47183 0.28393 0.23291 0.0
C792 C 0.45833 0.2711 0.21614 0.0
H793 H 0.39888 0.25824 0.1115 0.0
H794 H 0.4175 0.27322 0.14467 0.0
H795 H 0.4638 0.22691 0.17982 0.0
H796 H 0.51072 0.27533 0.27419 0.0
H797 H 0.4838 0.25457 0.25107 0.0
C798 C 0.91304 0.28309 0.85544 0.0
C799 C 0.9036 0.26801 0.87114 0.0
C800 C 0.92348 0.27505 0.83587 0.0
C801 C 0.92615 0.22479 0.79899 0.0
H802 H 0.984 0.24893 0.78059 0.0
C803 C 0.98946 0.17597 0.74458 0.0
C804 C 0.00396 0.18782 0.73005 0.0
C805 C 0.97383 0.18747 0.75788 0.0
C806 C 0.96762 0.2423 0.78517 0.0
H807 H 0.89814 0.23256 0.87859 0.0
H808 H 0.91652 0.21868 0.84477 0.0
H809 H 0.96405 0.26593 0.81221 0.0
H810 H 0.01212 0.22097 0.71684 0.0
H811 H 0.98466 0.24101 0.74 0.0
H812 H 0.93001 0.20077 0.77233 0.0
C813 C 0.91551 0.23673 0.84738 0.0
C814 C 0.95622 0.25202 0.80336 0.0
C815 C 0.90515 0.24472 0.86692 0.0
C816 C 0.00128 0.2113 0.7279 0.0
C817 C 0.98569 0.22283 0.74132 0.0
C818 C 0.93753 0.21509 0.7808 0.0
C819 C 0.92463 0.25178 0.83154 0.0
C820 C 0.93563 0.24302 0.81081 0.0
C821 C 0.97234 0.21111 0.75701 0.0
C822 C 0.95865 0.2234 0.77401 0.0
H823 H 0.91209 0.30114 0.85807 0.0
H824 H 0.93029 0.28708 0.82394 0.0
H825 H 0.91007 0.21778 0.80402 0.0
H826 H 0.99094 0.15788 0.74656 0.0
H827 H 0.96392 0.17791 0.76986 0.0
C828 C 0.4984 0.82125 0.25515 0.0
C829 C 0.48919 0.81107 0.23583 0.0
C830 C 0.51412 0.8099 0.26838 0.0
C831 C 0.53351 0.75209 0.28176 0.0
H832 H 0.57615 0.78545 0.31819 0.0
C833 C 0.6055 0.73923 0.3565 0.0
C834 C 0.59501 0.72218 0.36908 0.0
C835 C 0.59504 0.74827 0.33751 0.0
C836 C 0.56473 0.77561 0.30794 0.0
H837 H 0.49054 0.78138 0.21453 0.0
H838 H 0.51875 0.7618 0.23728 0.0
H839 H 0.55586 0.80459 0.28862 0.0
H840 H 0.56557 0.70082 0.37155 0.0
H841 H 0.5464 0.71761 0.33916 0.0
H842 H 0.54313 0.72286 0.30057 0.0
C843 C 0.5132 0.77838 0.24254 0.0
C844 C 0.55271 0.78678 0.29112 0.0
C845 C 0.4972 0.78971 0.22934 0.0
C846 C 0.57396 0.71401 0.3621 0.0
C847 C 0.56312 0.72353 0.3434 0.0
C848 C 0.54592 0.74075 0.29834 0.0
C849 C 0.52144 0.78811 0.26256 0.0
C850 C 0.53646 0.77537 0.2782 0.0
C851 C 0.57342 0.74102 0.33096 0.0
C852 C 0.56137 0.75246 0.31202 0.0
H853 H 0.49273 0.83768 0.26076 0.0
H854 H 0.51968 0.81792 0.28379 0.0
H855 H 0.52105 0.7427 0.2723 0.0
H856 H 0.62199 0.74548 0.36126 0.0
H857 H 0.60396 0.76108 0.32807 0.0
C858 C 0.07755 0.78438 0.64003 0.0
C859 C 0.0869 0.76974 0.62387 0.0
C860 C 0.06693 0.77579 0.65929 0.0
C861 C 0.06357 0.72416 0.69435 0.0
H862 H 0.00601 0.74825 0.71367 0.0
C863 C 0.00022 0.67404 0.74771 0.0
C864 C 0.98616 0.68551 0.76297 0.0
C865 C 0.01559 0.68586 0.73438 0.0
C866 C 0.0223 0.7416 0.70881 0.0
H867 H 0.09202 0.7345 0.61528 0.0
H868 H 0.07338 0.71969 0.64852 0.0
H869 H 0.02621 0.76625 0.68272 0.0
H870 H 0.97843 0.71831 0.77725 0.0
H871 H 0.00545 0.73891 0.75403 0.0
H872 H 0.0594 0.69916 0.72004 0.0
C873 C 0.07459 0.7378 0.64655 0.0
C874 C 0.03385 0.7519 0.69102 0.0
C875 C 0.08511 0.74634 0.62734 0.0
C876 C 0.98895 0.70892 0.76565 0.0
C877 C 0.00428 0.72077 0.75219 0.0
C878 C 0.05205 0.71388 0.71213 0.0
C879 C 0.06552 0.75238 0.66285 0.0
C880 C 0.05436 0.74297 0.68323 0.0
C881 C 0.01728 0.70946 0.73593 0.0
C882 C 0.03103 0.72216 0.71924 0.0
H883 H 0.07867 0.80249 0.63798 0.0
H884 H 0.06018 0.78747 0.67159 0.0
H885 H 0.07959 0.71716 0.68908 0.0
H886 H -0.00138 0.65602 0.74526 0.0
H887 H 0.02523 0.6766 0.72194 0.0
C888 C 0.85463 0.57881 0.78524 0.0
C889 C 0.87035 0.58894 0.77063 0.0
C890 C 0.83558 0.56783 0.77665 0.0
C891 C 0.79995 0.5645 0.72542 0.0
H892 H 0.78185 0.50645 0.74935 0.0
C893 C 0.74551 0.50122 0.67615 0.0
C894 C 0.73069 0.48694 0.68793 0.0
C895 C 0.75917 0.51652 0.68771 0.0
C896 C 0.78637 0.52286 0.74274 0.0
H897 H 0.87838 0.59505 0.73544 0.0
H898 H 0.84549 0.57575 0.72061 0.0
H899 H 0.8129 0.52686 0.76687 0.0
H900 H 0.71754 0.47874 0.72107 0.0
H901 H 0.7413 0.50564 0.7412 0.0
H902 H 0.77377 0.56026 0.70097 0.0
C903 C 0.84765 0.57663 0.73871 0.0
C904 C 0.80423 0.53453 0.75276 0.0
C905 C 0.86666 0.58754 0.74725 0.0
C906 C 0.72878 0.48943 0.71144 0.0
C907 C 0.74256 0.50469 0.72302 0.0
C908 C 0.7821 0.55283 0.71541 0.0
C909 C 0.83177 0.56679 0.75327 0.0
C910 C 0.81154 0.55527 0.74393 0.0
C911 C 0.75839 0.51792 0.71134 0.0
C912 C 0.77538 0.53166 0.72366 0.0
H913 H 0.85684 0.57962 0.80333 0.0
H914 H 0.82361 0.56052 0.78833 0.0
H915 H 0.80484 0.58067 0.7185 0.0
H916 H 0.74737 0.49986 0.65805 0.0
H917 H 0.77124 0.52633 0.67816 0.0
C918 C 0.63407 0.4156 0.27936 0.0
C919 C 0.61785 0.40516 0.26556 0.0
C920 C 0.65239 0.42704 0.26979 0.0
C921 C 0.67057 0.45364 0.21641 0.0
H922 H 0.73085 0.44792 0.24101 0.0
C923 C 0.74521 0.48988 0.16857 0.0
C924 C 0.75931 0.50423 0.18109 0.0
C925 C 0.7304 0.47522 0.17945 0.0
C926 C 0.71408 0.44971 0.23403 0.0
H927 H 0.60838 0.39856 0.2308 0.0
H928 H 0.64018 0.41811 0.21434 0.0
H929 H 0.69932 0.42857 0.25938 0.0
H930 H 0.77032 0.51293 0.21486 0.0
H931 H 0.74431 0.48732 0.23386 0.0
H932 H 0.68512 0.4747 0.19114 0.0
C933 C 0.63862 0.41784 0.23253 0.0
C934 C 0.69602 0.43874 0.24459 0.0
C935 C 0.62037 0.40651 0.24203 0.0
C936 C 0.75968 0.50212 0.2047 0.0
C937 C 0.74475 0.48745 0.21562 0.0
C938 C 0.68854 0.46445 0.20586 0.0
C939 C 0.65485 0.42828 0.24625 0.0
C940 C 0.67407 0.44048 0.23578 0.0
C941 C 0.72928 0.47461 0.2031 0.0
C942 C 0.71053 0.4625 0.21441 0.0
H943 H 0.63272 0.41485 0.29754 0.0
H944 H 0.66449 0.43509 0.28082 0.0
H945 H 0.65383 0.45578 0.20947 0.0
H946 H 0.74473 0.49083 0.15035 0.0
H947 H 0.71908 0.46508 0.16934 0.0
C948 C 0.36474 0.90186 0.24823 0.0
C949 C 0.36965 0.90266 0.22505 0.0
C950 C 0.34618 0.91327 0.257 0.0
C951 C 0.29172 0.93983 0.24226 0.0
H952 H 0.30105 0.97048 0.2992 0.0
C953 C 0.22999 0.00508 0.2826 0.0
C954 C 0.22893 0.00557 0.30628 0.0
C955 C 0.24451 0.99003 0.2716 0.0
C956 C 0.298 0.96173 0.28347 0.0
H957 H 0.35845 0.91592 0.19287 0.0
H958 H 0.32608 0.9363 0.20838 0.0
H959 H 0.33206 0.95034 0.28182 0.0
H960 H 0.24036 0.98908 0.33682 0.0
H961 H 0.26516 0.96261 0.31767 0.0
H962 H 0.25757 0.95174 0.24393 0.0
C963 C 0.3366 0.92655 0.21967 0.0
C964 C 0.31584 0.9502 0.27346 0.0
C965 C 0.35524 0.915 0.21081 0.0
C966 C 0.24104 0.98936 0.31858 0.0
C967 C 0.25538 0.97429 0.30761 0.0
C968 C 0.27378 0.95151 0.2523 0.0
C969 C 0.332 0.92597 0.24293 0.0
C970 C 0.31292 0.9389 0.25285 0.0
C971 C 0.2581 0.97517 0.28409 0.0
C972 C 0.2767 0.96239 0.27316 0.0
H973 H 0.37521 0.89232 0.25974 0.0
H974 H 0.34289 0.91204 0.27492 0.0
H975 H 0.28888 0.93119 0.22644 0.0
H976 H 0.22093 0.0174 0.27263 0.0
H977 H 0.2462 0.99111 0.25346 0.0
C978 C 0.25934 0.99307 0.78958 0.0
C979 C 0.25537 0.98875 0.81256 0.0
C980 C 0.24587 0.00842 0.77778 0.0
C981 C 0.20371 0.05416 0.78482 0.0
H982 H 0.17889 0.03088 0.72901 0.0
C983 C 0.12125 0.0882 0.74781 0.0
C984 C 0.11963 0.0913 0.72436 0.0
C985 C 0.13978 0.07722 0.75722 0.0
C986 C 0.18591 0.03782 0.74436 0.0
H987 H 0.23515 -0.00157 0.84147 0.0
H988 H 0.2118 0.0251 0.82096 0.0
H989 H 0.209 0.01033 0.74801 0.0
H990 H 0.13626 0.08488 0.69242 0.0
H991 H 0.16871 0.06564 0.70896 0.0
H992 H 0.18031 0.08139 0.78143 0.0
C993 C 0.22528 0.01664 0.81201 0.0
C994 C 0.2032 0.02607 0.75524 0.0
C995 C 0.23863 0.00123 0.82377 0.0
C996 C 0.13689 0.08272 0.71053 0.0
C997 C 0.15548 0.07169 0.72 0.0
C998 C 0.18645 0.06591 0.77394 0.0
C999 C 0.2283 0.01992 0.78875 0.0
C1000 C 0.21198 0.03387 0.77583 0.0
C1001 C 0.15724 0.06904 0.74349 0.0
C1002 C 0.177 0.05762 0.75384 0.0
H1003 H 0.27211 0.9838 0.7804 0.0
H1004 H 0.24882 0.01084 0.75993 0.0
H1005 H 0.21036 0.06081 0.80046 0.0
H1006 H 0.10828 0.09443 0.75903 0.0
H1007 H 0.14034 0.07503 0.77534 0.0
C1008 C 0.74525 0.86977 0.58704 0.0
C1009 C 0.76867 0.8734 0.58756 0.0
C1010 C 0.73619 0.85134 0.57561 0.0
C1011 C 0.75001 0.79516 0.55231 0.0
H1012 H 0.69492 0.80496 0.5186 0.0
C1013 C 0.71071 0.73171 0.48827 0.0
C1014 C 0.68704 0.73115 0.48687 0.0
C1015 C 0.72147 0.74671 0.503 0.0
C1016 C 0.71011 0.80182 0.52821 0.0
H1017 H 0.80092 0.86025 0.57641 0.0
H1018 H 0.78496 0.82816 0.55602 0.0
H1019 H 0.71249 0.83634 0.53806 0.0
H1020 H 0.65617 0.74415 0.50155 0.0
H1021 H 0.67489 0.76988 0.5274 0.0
H1022 H 0.74764 0.76054 0.54195 0.0
C1023 C 0.77368 0.83953 0.56477 0.0
C1024 C 0.72024 0.81985 0.53935 0.0
C1025 C 0.78281 0.85803 0.57631 0.0
C1026 C 0.67442 0.74439 0.50194 0.0
C1027 C 0.68515 0.75926 0.51666 0.0
C1028 C 0.73987 0.77704 0.54102 0.0
C1029 C 0.75024 0.83603 0.56424 0.0
C1030 C 0.74018 0.81676 0.55172 0.0
C1031 C 0.70874 0.76133 0.51663 0.0
C1032 C 0.71968 0.78016 0.52903 0.0
H1033 H 0.73377 0.88106 0.59565 0.0
H1034 H 0.7181 0.84896 0.57593 0.0
H1035 H 0.76528 0.79217 0.56184 0.0
H1036 H 0.72096 0.72177 0.47689 0.0
H1037 H 0.73968 0.74788 0.50261 0.0
C1038 C 0.82122 0.24098 0.00188 0.0
C1039 C 0.80952 0.25678 0.98863 0.0
C1040 C 0.80977 0.22756 0.01746 0.0
C1041 C 0.78271 0.20543 0.0548 0.0
H1042 H 0.72841 0.17797 0.03093 0.0
C1043 C 0.71014 0.13643 0.08292 0.0
C1044 C 0.72429 0.11976 0.09211 0.0
C1045 C 0.71929 0.1552 0.0719 0.0
C1046 C 0.74333 0.18572 0.03804 0.0
H1047 H 0.77675 0.27188 0.98259 0.0
H1048 H 0.75682 0.24854 0.00996 0.0
H1049 H 0.74664 0.20838 0.01018 0.0
H1050 H 0.75922 0.10971 0.09651 0.0
H1051 H 0.77499 0.14209 0.0771 0.0
H1052 H 0.77967 0.18242 0.08241 0.0
C1053 C 0.77483 0.24633 0.00798 0.0
C1054 C 0.75377 0.2032 0.02616 0.0
C1055 C 0.78631 0.25985 0.99243 0.0
C1056 C 0.74776 0.1222 0.08975 0.0
C1057 C 0.75686 0.14092 0.07878 0.0
C1058 C 0.77227 0.18797 0.06667 0.0
C1059 C 0.78632 0.22958 0.02017 0.0
C1060 C 0.77382 0.21297 0.03419 0.0
C1061 C 0.74277 0.15773 0.06986 0.0
C1062 C 0.75271 0.17759 0.05821 0.0
H1063 H 0.83911 0.23821 -0.0005 0.0
H1064 H 0.81914 0.21475 0.02647 0.0
H1065 H 0.79795 0.21282 0.06161 0.0
H1066 H 0.692 0.13518 0.0845 0.0
H1067 H 0.70797 0.16792 0.06532 0.0
C1068 C 0.16819 0.743 0.49264 0.0
C1069 C 0.17984 0.75916 0.5055 0.0
C1070 C 0.17968 0.72934 0.4773 0.0
C1071 C 0.20681 0.70639 0.44053 0.0
H1072 H 0.26121 0.67982 0.4652 0.0
C1073 C 0.27934 0.63664 0.41441 0.0
C1074 C 0.26515 0.61969 0.40582 0.0
C1075 C 0.27024 0.65572 0.42492 0.0
C1076 C 0.24627 0.68732 0.45787 0.0
H1077 H 0.21251 0.7747 0.51101 0.0
H1078 H 0.23249 0.75092 0.48407 0.0
H1079 H 0.24291 0.71082 0.48501 0.0
H1080 H 0.2302 0.60943 0.40203 0.0
H1081 H 0.21452 0.64236 0.42054 0.0
H1082 H 0.20989 0.68253 0.41366 0.0
C1083 C 0.21451 0.74862 0.48618 0.0
C1084 C 0.23579 0.70514 0.4692 0.0
C1085 C 0.20299 0.76238 0.50148 0.0
C1086 C 0.2417 0.62214 0.40832 0.0
C1087 C 0.23265 0.64116 0.41878 0.0
C1088 C 0.21729 0.6886 0.42921 0.0
C1089 C 0.2031 0.73148 0.47445 0.0
C1090 C 0.21569 0.71458 0.46089 0.0
C1091 C 0.24677 0.65829 0.42702 0.0
C1092 C 0.23687 0.67853 0.438 0.0
H1093 H 0.15035 0.74012 0.49519 0.0
H1094 H 0.17038 0.71624 0.46864 0.0
H1095 H 0.19155 0.71353 0.43351 0.0
H1096 H 0.29747 0.63539 0.4127 0.0
H1097 H 0.28158 0.66867 0.43101 0.0
C1098 C 0.28238 0.23383 0.00519 0.0
C1099 C 0.30606 0.23292 0.00622 0.0
C1100 C 0.27162 0.24859 0.9902 0.0
C1101 C 0.28348 0.3027 0.96296 0.0
H1102 H 0.22768 0.29285 0.93046 0.0
C1103 C 0.24877 0.36924 0.90228 0.0
C1104 C 0.22542 0.37336 0.90205 0.0
C1105 C 0.25764 0.35098 0.91412 0.0
C1106 C 0.24314 0.29591 0.93966 0.0
H1107 H 0.33689 0.24505 0.99075 0.0
H1108 H 0.31817 0.27032 0.96445 0.0
H1109 H 0.24502 0.26166 0.95127 0.0
H1110 H 0.1931 0.3612 0.91411 0.0
H1111 H 0.20875 0.32941 0.9352 0.0
H1112 H 0.28161 0.33687 0.95183 0.0
C1113 C 0.30792 0.26019 0.97565 0.0
C1114 C 0.2531 0.27803 0.95149 0.0
C1115 C 0.31864 0.24557 0.99063 0.0
C1116 C 0.21116 0.3586 0.91395 0.0
C1117 C 0.22011 0.34027 0.92591 0.0
C1118 C 0.27354 0.3205 0.95127 0.0
C1119 C 0.28436 0.26262 0.97595 0.0
C1120 C 0.27353 0.2812 0.96308 0.0
C1121 C 0.24349 0.33633 0.92621 0.0
C1122 C 0.25337 0.31733 0.93929 0.0
H1123 H 0.27218 0.22436 0.017 0.0
H1124 H 0.25344 0.25005 0.99083 0.0
H1125 H 0.29887 0.30592 0.97223 0.0
H1126 H 0.26031 0.38004 0.89315 0.0
H1127 H 0.27568 0.34822 0.91359 0.0
C1128 C 0.49349 0.71233 0.7272 0.0
C1129 C 0.49035 0.68896 0.72987 0.0
C1130 C 0.50888 0.72395 0.74077 0.0
C1131 C 0.55579 0.7165 0.78173 0.0
H1132 H 0.52947 0.76877 0.8109 0.0
C1133 C 0.58736 0.74861 0.86725 0.0
C1134 C 0.58929 0.77201 0.87063 0.0
C1135 C 0.57701 0.74008 0.84794 0.0
C1136 C 0.53725 0.75444 0.80269 0.0
H1137 H 0.50238 0.65926 0.74751 0.0
H1138 H 0.52906 0.67945 0.77106 0.0
H1139 H 0.50996 0.7511 0.77938 0.0
H1140 H 0.58144 0.80477 0.85631 0.0
H1141 H 0.56328 0.78978 0.82257 0.0
H1142 H 0.58278 0.71948 0.80546 0.0
C1143 C 0.51965 0.68886 0.75856 0.0
C1144 C 0.5261 0.74434 0.78455 0.0
C1145 C 0.50423 0.67726 0.7451 0.0
C1146 C 0.58018 0.78666 0.85435 0.0
C1147 C 0.56976 0.77809 0.835 0.0
C1148 C 0.56692 0.72658 0.79986 0.0
C1149 C 0.52156 0.71244 0.75714 0.0
C1150 C 0.535 0.72495 0.77418 0.0
C1151 C 0.5683 0.75469 0.83147 0.0
C1152 C 0.55752 0.74535 0.81088 0.0
H1153 H 0.48314 0.72188 0.7156 0.0
H1154 H 0.51025 0.74208 0.73902 0.0
H1155 H 0.56327 0.70181 0.77388 0.0
H1156 H 0.59409 0.73678 0.87941 0.0
H1157 H 0.57574 0.72197 0.84597 0.0
C1158 C 0.00244 0.82151 0.24271 0.0
C1159 C 0.9892 0.81005 0.25869 0.0
C1160 C 0.0179 0.80983 0.22937 0.0
C1161 C 0.02578 0.75365 0.20536 0.0
H1162 H 0.08199 0.77896 0.18372 0.0
C1163 C 0.08112 0.70965 0.13763 0.0
C1164 C 0.09026 0.72379 0.12092 0.0
C1165 C 0.07036 0.71882 0.15653 0.0
C1166 C 0.06626 0.77173 0.18951 0.0
H1167 H 0.98307 0.77749 0.27423 0.0
H1168 H 0.01023 0.75713 0.25098 0.0
H1169 H 0.06188 0.79745 0.21445 0.0
H1170 H 0.09474 0.75873 0.11087 0.0
H1171 H 0.07577 0.77455 0.14348 0.0
H1172 H 0.02984 0.72827 0.18003 0.0
C1173 C 0.00835 0.77514 0.2486 0.0
C1174 C 0.05479 0.78228 0.20716 0.0
C1175 C 0.99293 0.78686 0.26206 0.0
C1176 C 0.08802 0.74727 0.1234 0.0
C1177 C 0.07731 0.7564 0.14224 0.0
C1178 C 0.03724 0.7431 0.18768 0.0
C1179 C 0.02048 0.78638 0.23164 0.0
C1180 C 0.03419 0.77363 0.21499 0.0
C1181 C 0.06855 0.74232 0.15915 0.0
C1182 C 0.05737 0.75229 0.17923 0.0
H1183 H 0.00011 0.83938 0.23973 0.0
H1184 H 0.02688 0.81901 0.21639 0.0
H1185 H 0.00978 0.74672 0.21078 0.0
H1186 H 0.08261 0.6915 0.13635 0.0
H1187 H 0.06387 0.70752 0.16931 0.0
C1188 C 0.50387 0.20948 0.76618 0.0
C1189 C 0.50576 0.1859 0.76428 0.0
C1190 C 0.48877 0.22141 0.75254 0.0
C1191 C 0.44055 0.2148 0.71288 0.0
H1192 H 0.46846 0.26486 0.68139 0.0
C1193 C 0.4091 0.24486 0.62663 0.0
C1194 C 0.40779 0.26818 0.62245 0.0
C1195 C 0.41941 0.23671 0.64612 0.0
C1196 C 0.46027 0.25116 0.69026 0.0
H1197 H 0.49184 0.15627 0.74797 0.0
H1198 H 0.46566 0.17697 0.72432 0.0
H1199 H 0.48786 0.24744 0.71315 0.0
H1200 H 0.41678 0.30117 0.6355 0.0
H1201 H 0.43497 0.28682 0.66955 0.0
H1202 H 0.41328 0.21809 0.68953 0.0
C1203 C 0.47582 0.18632 0.73626 0.0
C1204 C 0.47135 0.24121 0.70853 0.0
C1205 C 0.49095 0.17442 0.74978 0.0
C1206 C 0.41753 0.28311 0.63811 0.0
C1207 C 0.42796 0.27491 0.65762 0.0
C1208 C 0.42951 0.22471 0.6946 0.0
C1209 C 0.47512 0.21 0.73688 0.0
C1210 C 0.46185 0.22258 0.71973 0.0
C1211 C 0.42876 0.25161 0.66196 0.0
C1212 C 0.43949 0.24266 0.68275 0.0
H1213 H 0.51499 0.21888 0.77719 0.0
H1214 H 0.48835 0.23963 0.75368 0.0
H1215 H 0.43261 0.20072 0.72137 0.0
H1216 H 0.40187 0.2328 0.61499 0.0
H1217 H 0.42016 0.21865 0.64873 0.0
C1218 C 0.90619 0.24707 0.36312 0.0
C1219 C 0.9052 0.22391 0.36818 0.0
C1220 C 0.91654 0.25463 0.34342 0.0
C1221 C 0.92745 0.26514 0.29479 0.0
H1222 H 0.98678 0.24302 0.27875 0.0
C1223 C 0.00434 0.2806 0.22597 0.0
C1224 C 0.00579 0.30421 0.22771 0.0
C1225 C 0.98884 0.26857 0.23908 0.0
C1226 C 0.97 0.24905 0.28266 0.0
H1227 H 0.91466 0.19057 0.3564 0.0
H1228 H 0.93295 0.20391 0.32196 0.0
H1229 H 0.96658 0.22597 0.31022 0.0
H1230 H 0.99077 0.33379 0.24313 0.0
H1231 H 0.96393 0.31292 0.26588 0.0
H1232 H 0.93111 0.28862 0.26764 0.0
C1233 C 0.92565 0.21615 0.33337 0.0
C1234 C 0.95846 0.23931 0.30075 0.0
C1235 C 0.91516 0.20853 0.35311 0.0
C1236 C 0.99023 0.31561 0.24148 0.0
C1237 C 0.97472 0.30362 0.25447 0.0
C1238 C 0.93896 0.27484 0.27669 0.0
C1239 C 0.92625 0.23928 0.32823 0.0
C1240 C 0.93733 0.24767 0.3074 0.0
C1241 C 0.97438 0.27992 0.25404 0.0
C1242 C 0.96063 0.26732 0.27079 0.0
H1243 H 0.89876 0.25946 0.37428 0.0
H1244 H 0.91712 0.27259 0.34018 0.0
H1245 H 0.91097 0.27163 0.2992 0.0
H1246 H 0.01602 0.27127 0.2155 0.0
H1247 H 0.98874 0.25034 0.23812 0.0
C1248 C 0.14225 0.14941 0.34204 0.0
C1249 C 0.15494 0.13653 0.32667 0.0
C1250 C 0.13692 0.17189 0.33731 0.0
C1251 C 0.15572 0.22015 0.30327 0.0
H1252 H 0.09369 0.2404 0.30656 0.0
C1253 C 0.09443 0.30017 0.27631 0.0
C1254 C 0.10195 0.30198 0.25394 0.0
C1255 C 0.10364 0.28378 0.29061 0.0
C1256 C 0.1112 0.23528 0.30611 0.0
H1257 H 0.17188 0.13724 0.29424 0.0
H1258 H 0.16257 0.17634 0.28608 0.0
H1259 H 0.10372 0.20316 0.32088 0.0
H1260 H 0.12623 0.28967 0.22958 0.0
H1261 H 0.14224 0.26137 0.2543 0.0
H1262 H 0.16314 0.25191 0.2879 0.0
C1263 C 0.15689 0.16908 0.30184 0.0
C1264 C 0.11691 0.21389 0.3142 0.0
C1265 C 0.16199 0.14659 0.30641 0.0
C1266 C 0.12002 0.28852 0.24672 0.0
C1267 C 0.12932 0.27239 0.26098 0.0
C1268 C 0.15007 0.24156 0.29534 0.0
C1269 C 0.14445 0.18201 0.31729 0.0
C1270 C 0.13905 0.20582 0.31206 0.0
C1271 C 0.12068 0.26922 0.2828 0.0
C1272 C 0.12758 0.24901 0.29585 0.0
H1273 H 0.13657 0.14219 0.35781 0.0
H1274 H 0.12728 0.18149 0.34949 0.0
H1275 H 0.17303 0.2145 0.30187 0.0
H1276 H 0.08047 0.31032 0.28225 0.0
H1277 H 0.09681 0.28187 0.30743 0.0
C1278 C 0.34127 0.85889 0.80584 0.0
C1279 C 0.34163 0.86507 0.8287 0.0
C1280 C 0.34933 0.83792 0.79898 0.0
C1281 C 0.36085 0.78034 0.81924 0.0
H1282 H 0.3914 0.77602 0.76164 0.0
C1283 C 0.40181 0.70057 0.77467 0.0
C1284 C 0.39459 0.69842 0.7522 0.0
C1285 C 0.39471 0.719 0.78769 0.0
C1286 C 0.38292 0.77701 0.77779 0.0
H1287 H 0.35112 0.85399 0.86226 0.0
H1288 H 0.36558 0.81736 0.85011 0.0
H1289 H 0.38257 0.81297 0.77711 0.0
H1290 H 0.37248 0.71225 0.72659 0.0
H1291 H 0.36021 0.74417 0.74923 0.0
H1292 H 0.36143 0.74404 0.81963 0.0
C1293 C 0.35875 0.82875 0.83759 0.0
C1294 C 0.37777 0.79813 0.7866 0.0
C1295 C 0.35061 0.84981 0.8445 0.0
C1296 C 0.37854 0.71365 0.74376 0.0
C1297 C 0.37154 0.73192 0.75666 0.0
C1298 C 0.36627 0.75907 0.81045 0.0
C1299 C 0.35811 0.82256 0.81474 0.0
C1300 C 0.36607 0.80008 0.80709 0.0
C1301 C 0.38036 0.73532 0.7783 0.0
C1302 C 0.37676 0.75732 0.78935 0.0
H1303 H 0.33434 0.87007 0.79318 0.0
H1304 H 0.34817 0.83356 0.7813 0.0
H1305 H 0.35176 0.78128 0.83504 0.0
H1306 H 0.41427 0.68912 0.78153 0.0
H1307 H 0.40166 0.72136 0.8044 0.0
C1308 C 0.64007 0.34499 0.65418 0.0
C1309 C 0.65222 0.35831 0.6696 0.0
C1310 C 0.63478 0.32257 0.65924 0.0
C1311 C 0.65384 0.27522 0.69413 0.0
H1312 H 0.59264 0.25291 0.68911 0.0
C1313 C 0.5948 0.19253 0.71819 0.0
C1314 C 0.60207 0.19034 0.7406 0.0
C1315 C 0.60367 0.20961 0.70447 0.0
C1316 C 0.60995 0.25862 0.69006 0.0
H1317 H 0.66803 0.35852 0.70259 0.0
H1318 H 0.65881 0.31949 0.71134 0.0
H1319 H 0.60177 0.29061 0.67535 0.0
H1320 H 0.62559 0.20274 0.76563 0.0
H1321 H 0.641 0.23223 0.74195 0.0
H1322 H 0.66199 0.24354 0.70926 0.0
C1323 C 0.65353 0.32637 0.69528 0.0
C1324 C 0.61512 0.28028 0.68231 0.0
C1325 C 0.65858 0.34882 0.69035 0.0
C1326 C 0.6196 0.20415 0.74843 0.0
C1327 C 0.62854 0.22099 0.73476 0.0
C1328 C 0.64873 0.25354 0.70169 0.0
C1329 C 0.64181 0.31296 0.67968 0.0
C1330 C 0.63693 0.28905 0.685 0.0
C1331 C 0.62009 0.22452 0.71293 0.0
C1332 C 0.62655 0.24529 0.70051 0.0
H1333 H 0.63491 0.35178 0.63804 0.0
H1334 H 0.62569 0.31259 0.64695 0.0
H1335 H 0.67092 0.28141 0.69595 0.0
H1336 H 0.58123 0.18214 0.71178 0.0
H1337 H 0.59701 0.21176 0.68762 0.0
C1338 C 0.85015 0.64685 0.15158 0.0
C1339 C 0.83976 0.63197 0.16687 0.0
C1340 C 0.85708 0.66831 0.15855 0.0
C1341 C 0.8702 0.70067 0.21023 0.0
H1342 H 0.85978 0.75347 0.17302 0.0
C1343 C 0.87513 0.78704 0.24886 0.0
C1344 C 0.8918 0.80104 0.23959 0.0
C1345 C 0.8671 0.76858 0.23685 0.0
C1346 C 0.86287 0.73881 0.18344 0.0
H1347 H 0.82838 0.62815 0.20145 0.0
H1348 H 0.84005 0.6654 0.21339 0.0
H1349 H 0.85035 0.71586 0.15846 0.0
H1350 H 0.91157 0.80812 0.20972 0.0
H1351 H 0.89732 0.77551 0.18847 0.0
H1352 H 0.88213 0.72348 0.23536 0.0
C1353 C 0.84334 0.6604 0.19614 0.0
C1354 C 0.85761 0.71731 0.17514 0.0
C1355 C 0.83655 0.63901 0.18925 0.0
C1356 C 0.89864 0.79761 0.21717 0.0
C1357 C 0.89057 0.77896 0.20508 0.0
C1358 C 0.87519 0.72202 0.21854 0.0
C1359 C 0.85372 0.67532 0.18092 0.0
C1360 C 0.86085 0.69804 0.18865 0.0
C1361 C 0.87561 0.76372 0.21534 0.0
C1362 C 0.8712 0.7413 0.20543 0.0
H1363 H 0.85285 0.64199 0.1342 0.0
H1364 H 0.86521 0.67932 0.14647 0.0
H1365 H 0.87352 0.68619 0.22084 0.0
H1366 H 0.8694 0.78948 0.26604 0.0
H1367 H 0.85525 0.75727 0.24494 0.0
C1368 C 0.2759 0.09473 0.30019 0.0
C1369 C 0.25354 0.10212 0.30252 0.0
C1370 C 0.28975 0.104 0.28345 0.0
C1371 C 0.29324 0.15045 0.24111 0.0
H1372 H 0.31837 0.10427 0.20225 0.0
C1373 C 0.30391 0.16325 0.14613 0.0
C1374 C 0.32406 0.15607 0.13594 0.0
C1375 C 0.2993 0.15792 0.16856 0.0
C1376 C 0.31179 0.11741 0.21309 0.0
H1377 H 0.22873 0.1262 0.29076 0.0
H1378 H 0.25268 0.14238 0.26189 0.0
H1379 H 0.3047 0.09411 0.23968 0.0
H1380 H 0.35495 0.13719 0.14131 0.0
H1381 H 0.34663 0.12758 0.18047 0.0
H1382 H 0.29931 0.17352 0.21404 0.0
C1383 C 0.25971 0.1295 0.27275 0.0
C1384 C 0.30408 0.11163 0.23459 0.0
C1385 C 0.24589 0.12013 0.28923 0.0
C1386 C 0.33926 0.14299 0.14862 0.0
C1387 C 0.33453 0.13747 0.17104 0.0
C1388 C 0.30081 0.15618 0.2196 0.0
C1389 C 0.28149 0.12098 0.26906 0.0
C1390 C 0.29402 0.12796 0.24854 0.0
C1391 C 0.31464 0.14513 0.1813 0.0
C1392 C 0.30949 0.13959 0.20511 0.0
H1393 H 0.28214 0.08078 0.31019 0.0
H1394 H 0.30655 0.09726 0.28113 0.0
H1395 H 0.28595 0.16349 0.25161 0.0
H1396 H 0.29185 0.17342 0.13694 0.0
H1397 H 0.28364 0.16372 0.17593 0.0
C1398 C 0.21811 0.89642 0.79922 0.0
C1399 C 0.24086 0.89068 0.80244 0.0
C1400 C 0.20639 0.88815 0.78045 0.0
C1401 C 0.22041 0.87372 0.72314 0.0
H1402 H 0.16035 0.84875 0.71717 0.0
C1403 C 0.19019 0.83629 0.63987 0.0
C1404 C 0.16775 0.83972 0.63316 0.0
C1405 C 0.19737 0.84271 0.66127 0.0
C1406 C 0.17702 0.85603 0.71858 0.0
H1407 H 0.26838 0.8699 0.79034 0.0
H1408 H 0.2479 0.85533 0.75795 0.0
H1409 H 0.17515 0.85778 0.75474 0.0
H1410 H 0.13526 0.85284 0.64377 0.0
H1411 H 0.14804 0.86454 0.6811 0.0
H1412 H 0.22242 0.87249 0.68729 0.0
C1413 C 0.23927 0.86656 0.76949 0.0
C1414 C 0.18548 0.86106 0.74005 0.0
C1415 C 0.25093 0.87482 0.78806 0.0
C1416 C 0.15269 0.84998 0.64836 0.0
C1417 C 0.15994 0.85652 0.66982 0.0
C1418 C 0.21195 0.86894 0.70181 0.0
C1419 C 0.21733 0.87406 0.76486 0.0
C1420 C 0.20744 0.8695 0.74247 0.0
C1421 C 0.18237 0.85291 0.67652 0.0
C1422 C 0.19035 0.85961 0.69926 0.0
H1423 H 0.21002 0.9087 0.81005 0.0
H1424 H 0.18943 0.89411 0.77723 0.0
H1425 H 0.23719 0.88079 0.72452 0.0
H1426 H 0.20222 0.82821 0.62876 0.0
H1427 H 0.21465 0.83927 0.66601 0.0
C1428 C 0.74253 0.37258 0.70836 0.0
C1429 C 0.75096 0.38959 0.69423 0.0
C1430 C 0.75613 0.36299 0.72488 0.0
C1431 C 0.80249 0.37928 0.76128 0.0
H1432 H 0.79492 0.31834 0.78374 0.0
C1433 C 0.83937 0.34789 0.84645 0.0
C1434 C 0.82413 0.33578 0.86002 0.0
C1435 C 0.83388 0.35334 0.8242 0.0
C1436 C 0.79719 0.33541 0.77765 0.0
H1437 H 0.78065 0.40882 0.68517 0.0
H1438 H 0.80464 0.39196 0.71429 0.0
H1439 H 0.78087 0.32812 0.74636 0.0
H1440 H 0.791 0.32025 0.86087 0.0
H1441 H 0.78146 0.32987 0.82217 0.0
H1442 H 0.81828 0.38667 0.7929 0.0
C1443 C 0.7874 0.3862 0.7126 0.0
C1444 C 0.78924 0.34099 0.75625 0.0
C1445 C 0.77377 0.3957 0.69584 0.0
C1446 C 0.80313 0.32964 0.85096 0.0
C1447 C 0.79775 0.33492 0.8287 0.0
C1448 C 0.81058 0.37365 0.78267 0.0
C1449 C 0.77847 0.37028 0.72776 0.0
C1450 C 0.79109 0.36318 0.74814 0.0
C1451 C 0.81315 0.3466 0.81502 0.0
C1452 C 0.80731 0.35186 0.79134 0.0
H1453 H 0.72503 0.36744 0.70737 0.0
H1454 H 0.74861 0.35095 0.73635 0.0
H1455 H 0.80396 0.39659 0.75566 0.0
H1456 H 0.85571 0.35288 0.85288 0.0
H1457 H 0.84606 0.36237 0.81402 0.0
C1458 C 0.74867 0.61833 0.20391 0.0
C1459 C 0.74002 0.60146 0.18976 0.0
C1460 C 0.73546 0.62751 0.22097 0.0
C1461 C 0.69013 0.61017 0.25835 0.0
H1462 H 0.69836 0.67055 0.28204 0.0
C1463 C 0.65492 0.64032 0.34482 0.0
C1464 C 0.67051 0.65202 0.35836 0.0
C1465 C 0.66006 0.63507 0.32244 0.0
C1466 C 0.69591 0.65363 0.27561 0.0
H1467 H 0.71028 0.58209 0.18122 0.0
H1468 H 0.68692 0.59829 0.21126 0.0
H1469 H 0.71137 0.66167 0.24407 0.0
H1470 H 0.7039 0.66696 0.35902 0.0
H1471 H 0.71281 0.65775 0.32003 0.0
H1472 H 0.67511 0.60207 0.29019 0.0
C1473 C 0.70406 0.60423 0.20919 0.0
C1474 C 0.70328 0.64856 0.25387 0.0
C1475 C 0.71731 0.59513 0.19188 0.0
C1476 C 0.69153 0.65788 0.34914 0.0
C1477 C 0.69655 0.65284 0.32673 0.0
C1478 C 0.68259 0.6153 0.28008 0.0
C1479 C 0.71328 0.61997 0.22438 0.0
C1480 C 0.7012 0.62657 0.24528 0.0
C1481 C 0.68077 0.64164 0.31308 0.0
C1482 C 0.68611 0.63687 0.28917 0.0
H1483 H 0.76611 0.6236 0.20255 0.0
H1484 H 0.74322 0.63941 0.23243 0.0
H1485 H 0.68849 0.59299 0.25237 0.0
H1486 H 0.63857 0.63555 0.35139 0.0
H1487 H 0.64762 0.6264 0.31228 0.0
C1488 C 0.28966 0.24866 0.12121 0.0
C1489 C 0.30317 0.25614 0.1033 0.0
C1490 C 0.27376 0.26292 0.13089 0.0
C1491 C 0.2371 0.30844 0.11334 0.0
H1492 H 0.21547 0.30277 0.17476 0.0
C1493 C 0.15028 0.34243 0.14341 0.0
C1494 C 0.13742 0.32665 0.15561 0.0
C1495 C 0.17293 0.33819 0.13851 0.0
C1496 C 0.22136 0.30457 0.15757 0.0
H1497 H 0.31198 0.28487 0.08256 0.0
H1498 H 0.28389 0.31005 0.09954 0.0
H1499 H 0.25316 0.28936 0.16514 0.0
H1500 H 0.13833 0.29397 0.17208 0.0
H1501 H 0.17775 0.28662 0.16344 0.0
H1502 H 0.20496 0.32297 0.10567 0.0
C1503 C 0.28559 0.29305 0.10597 0.0
C1504 C 0.24293 0.29698 0.15208 0.0
C1505 C 0.30176 0.27874 0.09639 0.0
C1506 C 0.14766 0.30645 0.16256 0.0
C1507 C 0.17033 0.30234 0.15786 0.0
C1508 C 0.21556 0.31618 0.11889 0.0
C1509 C 0.27089 0.28499 0.12277 0.0
C1510 C 0.25068 0.29797 0.12972 0.0
C1511 C 0.18323 0.31823 0.14594 0.0
C1512 C 0.20719 0.31349 0.14085 0.0
H1513 H 0.29053 0.23132 0.12693 0.0
H1514 H 0.26263 0.25605 0.14362 0.0
H1515 H 0.24245 0.30924 0.09591 0.0
H1516 H 0.14292 0.35818 0.13783 0.0
H1517 H 0.1825 0.3507 0.12926 0.0
C1518 C 0.80142 0.21336 0.89689 0.0
C1519 C 0.80275 0.23622 0.89089 0.0
C1520 C 0.78481 0.19956 0.88734 0.0
C1521 C 0.74094 0.19759 0.84235 0.0
H1522 H 0.70434 0.16898 0.88835 0.0
C1523 C 0.64577 0.18622 0.83269 0.0
C1524 C 0.63618 0.16545 0.83888 0.0
C1525 C 0.66833 0.19083 0.83746 0.0
C1526 C 0.71455 0.17654 0.87523 0.0
H1527 H 0.78936 0.2621 0.86886 0.0
H1528 H 0.76068 0.23825 0.85223 0.0
H1529 H 0.74186 0.18282 0.8979 0.0
H1530 H 0.64271 0.13346 0.85545 0.0
H1531 H 0.68209 0.14179 0.8641 0.0
H1532 H 0.71312 0.19235 0.82001 0.0
C1533 C 0.77223 0.23079 0.86424 0.0
C1534 C 0.7361 0.18435 0.88065 0.0
C1535 C 0.78857 0.24455 0.8739 0.0
C1536 C 0.64956 0.14963 0.85046 0.0
C1537 C 0.67209 0.15436 0.85542 0.0
C1538 C 0.71937 0.18992 0.83698 0.0
C1539 C 0.76957 0.20839 0.87145 0.0
C1540 C 0.7492 0.19568 0.86446 0.0
C1541 C 0.68177 0.17488 0.84867 0.0
C1542 C 0.70569 0.18002 0.85357 0.0
H1543 H 0.81214 0.20657 0.91001 0.0
H1544 H 0.78327 0.18228 0.89306 0.0
H1545 H 0.75079 0.2059 0.82941 0.0
H1546 H 0.63603 0.19876 0.82368 0.0
H1547 H 0.67525 0.20697 0.83243 0.0
C1548 C 0.71024 0.74332 0.37371 0.0
C1549 C 0.69577 0.75141 0.3906 0.0
C1550 C 0.72684 0.75716 0.3646 0.0
C1551 C 0.76265 0.8039 0.38154 0.0
H1552 H 0.78537 0.79714 0.32064 0.0
C1553 C 0.84763 0.84185 0.35 0.0
C1554 C 0.86132 0.82652 0.33813 0.0
C1555 C 0.82541 0.83624 0.35556 0.0
C1556 C 0.77919 0.79921 0.33769 0.0
H1557 H 0.68631 0.78078 0.41016 0.0
H1558 H 0.71557 0.80519 0.39411 0.0
H1559 H 0.74815 0.78253 0.33018 0.0
H1560 H 0.86241 0.79311 0.32317 0.0
H1561 H 0.8238 0.78343 0.33289 0.0
H1562 H 0.79405 0.8201 0.38911 0.0
C1563 C 0.71408 0.78802 0.38809 0.0
C1564 C 0.75789 0.79091 0.34314 0.0
C1565 C 0.69723 0.77414 0.39712 0.0
C1566 C 0.85242 0.80532 0.33236 0.0
C1567 C 0.8302 0.79985 0.33771 0.0
C1568 C 0.78395 0.81236 0.37603 0.0
C1569 C 0.72947 0.77944 0.37221 0.0
C1570 C 0.74972 0.79242 0.36533 0.0
C1571 C 0.81639 0.81533 0.3491 0.0
C1572 C 0.79271 0.80937 0.35425 0.0
H1573 H 0.7094 0.7259 0.36825 0.0
H1574 H 0.73851 0.74989 0.35258 0.0
H1575 H 0.75695 0.80514 0.39884 0.0
H1576 H 0.85394 0.85833 0.3547 0.0
H1577 H 0.81511 0.84846 0.3644 0.0
C1578 C 0.35212 0.69499 0.65898 0.0
C1579 C 0.3604 0.6735 0.65349 0.0
C1580 C 0.33031 0.70128 0.65297 0.0
C1581 C 0.27476 0.67844 0.63574 0.0
H1582 H 0.26502 0.74052 0.61778 0.0
C1583 C 0.1938 0.71865 0.59484 0.0
C1584 C 0.18856 0.74024 0.60305 0.0
C1585 C 0.21262 0.70707 0.60324 0.0
C1586 C 0.26746 0.72317 0.62295 0.0
H1587 H 0.35223 0.6418 0.63713 0.0
H1588 H 0.31426 0.65311 0.62602 0.0
H1589 H 0.30295 0.72767 0.62599 0.0
H1590 H 0.19693 0.76554 0.628 0.0
H1591 H 0.22938 0.74525 0.64284 0.0
H1592 H 0.23895 0.67411 0.63198 0.0
C1593 C 0.32454 0.6649 0.6354 0.0
C1594 C 0.28919 0.7158 0.62771 0.0
C1595 C 0.34637 0.6585 0.64161 0.0
C1596 C 0.20077 0.74897 0.62132 0.0
C1597 C 0.21937 0.73744 0.62972 0.0
C1598 C 0.25289 0.68582 0.63068 0.0
C1599 C 0.31625 0.68638 0.64105 0.0
C1600 C 0.29312 0.69348 0.63458 0.0
C1601 C 0.2262 0.71704 0.6199 0.0
C1602 C 0.24907 0.70838 0.62468 0.0
H1603 H 0.36229 0.70687 0.6684 0.0
H1604 H 0.32434 0.71778 0.65804 0.0
H1605 H 0.27719 0.66116 0.6411 0.0
H1606 H 0.18471 0.71171 0.58062 0.0
H1607 H 0.21759 0.69133 0.59545 0.0
C1608 C 0.85014 0.84676 0.65299 0.0
C1609 C 0.83942 0.86162 0.66807 0.0
C1610 C 0.85685 0.82525 0.66006 0.0
C1611 C 0.86856 0.79275 0.71206 0.0
H1612 H 0.85945 0.74 0.67444 0.0
C1613 C 0.87235 0.70631 0.7507 0.0
C1614 C 0.88954 0.6925 0.7421 0.0
C1615 C 0.86463 0.72471 0.73839 0.0
C1616 C 0.86217 0.75466 0.68499 0.0
H1617 H 0.82712 0.86529 0.70235 0.0
H1618 H 0.83838 0.82799 0.71444 0.0
H1619 H 0.85039 0.77764 0.65967 0.0
H1620 H 0.91058 0.68569 0.71305 0.0
H1621 H 0.89684 0.71817 0.69127 0.0
H1622 H 0.87972 0.76991 0.73753 0.0
C1623 C 0.84214 0.83304 0.6973 0.0
C1624 C 0.85712 0.77617 0.67656 0.0
C1625 C 0.83559 0.85448 0.69032 0.0
C1626 C 0.89723 0.69603 0.71998 0.0
C1627 C 0.88946 0.71462 0.70758 0.0
C1628 C 0.87332 0.77139 0.72049 0.0
C1629 C 0.85292 0.81816 0.68232 0.0
C1630 C 0.85988 0.79542 0.69021 0.0
C1631 C 0.87396 0.7297 0.71725 0.0
C1632 C 0.86979 0.75213 0.70723 0.0
H1633 H 0.85331 0.8517 0.63571 0.0
H1634 H 0.86528 0.81428 0.64816 0.0
H1635 H 0.87153 0.80721 0.72281 0.0
H1636 H 0.86597 0.7038 0.76763 0.0
H1637 H 0.85237 0.73591 0.74601 0.0
C1638 C 0.66093 0.14261 0.19091 0.0
C1639 C 0.65392 0.13319 0.17037 0.0
C1640 C 0.65469 0.16447 0.19676 0.0
C1641 C 0.63302 0.21834 0.17366 0.0
H1642 H 0.61936 0.22919 0.23661 0.0
C1643 C 0.59011 0.2976 0.21516 0.0
C1644 C 0.59959 0.30386 0.23591 0.0
C1645 C 0.59901 0.27925 0.2032 0.0
C1646 C 0.62334 0.22646 0.219 0.0
H1647 H 0.63479 0.1394 0.13983 0.0
H1648 H 0.62324 0.17749 0.15046 0.0
H1649 H 0.62855 0.19133 0.22428 0.0
H1650 H 0.62708 0.29802 0.25918 0.0
H1651 H 0.64279 0.26642 0.23819 0.0
H1652 H 0.62698 0.25377 0.1686 0.0
C1653 C 0.63397 0.16805 0.1618 0.0
C1654 C 0.62866 0.20476 0.21192 0.0
C1655 C 0.64043 0.14617 0.15581 0.0
C1656 C 0.61944 0.29335 0.24325 0.0
C1657 C 0.62835 0.27525 0.23132 0.0
C1658 C 0.62738 0.24017 0.18077 0.0
C1659 C 0.641 0.17742 0.18239 0.0
C1660 C 0.63398 0.20046 0.18927 0.0
C1661 C 0.61743 0.26721 0.21196 0.0
C1662 C 0.62293 0.24441 0.2036 0.0
H1663 H 0.67165 0.13327 0.20236 0.0
H1664 H 0.66087 0.17132 0.21251 0.0
H1665 H 0.63712 0.2156 0.15609 0.0
H1666 H 0.57467 0.30539 0.20932 0.0
H1667 H 0.59033 0.27331 0.18829 0.0
C1668 C 0.37561 0.78414 0.24101 0.0
C1669 C 0.39111 0.79885 0.25118 0.0
C1670 C 0.36717 0.76574 0.25284 0.0
C1671 C 0.35988 0.73759 0.30705 0.0
H1672 H 0.37154 0.68391 0.2715 0.0
C1673 C 0.34599 0.64636 0.34071 0.0
C1674 C 0.33596 0.63118 0.32548 0.0
C1675 C 0.35304 0.6677 0.33349 0.0
C1676 C 0.36794 0.6987 0.28158 0.0
H1677 H 0.40837 0.80714 0.28225 0.0
H1678 H 0.39344 0.77459 0.30315 0.0
H1679 H 0.38111 0.72071 0.25636 0.0
H1680 H 0.32529 0.62673 0.29076 0.0
H1681 H 0.33726 0.66375 0.27837 0.0
H1682 H 0.34625 0.71538 0.33214 0.0
C1683 C 0.38791 0.77745 0.28599 0.0
C1684 C 0.37346 0.71978 0.27292 0.0
C1685 C 0.39638 0.79605 0.27409 0.0
C1686 C 0.33316 0.63783 0.30293 0.0
C1687 C 0.34011 0.65909 0.29578 0.0
C1688 C 0.35414 0.71636 0.31571 0.0
C1689 C 0.37412 0.7616 0.27505 0.0
C1690 C 0.36911 0.73945 0.28535 0.0
C1691 C 0.35022 0.67426 0.31092 0.0
C1692 C 0.35776 0.69672 0.30285 0.0
H1693 H 0.37106 0.78609 0.22343 0.0
H1694 H 0.35617 0.75401 0.24418 0.0
H1695 H 0.35649 0.75254 0.31696 0.0
H1696 H 0.34835 0.64182 0.35823 0.0
H1697 H 0.36093 0.67894 0.34552 0.0
C1698 C 0.11921 0.20631 0.74604 0.0
C1699 C 0.10121 0.19317 0.75397 0.0
C1700 C 0.12868 0.22294 0.75958 0.0
C1701 C 0.11093 0.26165 0.80354 0.0
H1702 H 0.17255 0.28267 0.79775 0.0
C1703 C 0.14258 0.34755 0.8385 0.0
C1704 C 0.15542 0.3604 0.82323 0.0
C1705 C 0.1369 0.32523 0.83357 0.0
C1706 C 0.15529 0.27698 0.79952 0.0
H1707 H 0.08006 0.18585 0.7828 0.0
H1708 H 0.09676 0.21517 0.80675 0.0
H1709 H 0.16269 0.24482 0.78501 0.0
H1710 H 0.1721 0.35989 0.79068 0.0
H1711 H 0.16213 0.32095 0.78211 0.0
H1712 H 0.10349 0.29409 0.81759 0.0
C1713 C 0.10339 0.21264 0.78993 0.0
C1714 C 0.14966 0.25531 0.79231 0.0
C1715 C 0.09399 0.19574 0.77635 0.0
C1716 C 0.16211 0.35054 0.80276 0.0
C1717 C 0.15663 0.32816 0.79796 0.0
C1718 C 0.11662 0.28329 0.81092 0.0
C1719 C 0.12029 0.22693 0.78135 0.0
C1720 C 0.12725 0.24769 0.79349 0.0
C1721 C 0.14417 0.31522 0.81341 0.0
C1722 C 0.13869 0.29141 0.80827 0.0
H1723 H 0.12515 0.20456 0.72886 0.0
H1724 H 0.1415 0.23372 0.7523 0.0
H1725 H 0.09347 0.25643 0.80445 0.0
H1726 H 0.13715 0.35464 0.85442 0.0
H1727 H 0.12727 0.31563 0.84576 0.0
C1728 C 0.65303 0.85172 0.84313 0.0
C1729 C 0.66849 0.83982 0.85663 0.0
C1730 C 0.65823 0.85697 0.82075 0.0
C1731 C 0.69448 0.83884 0.77389 0.0
H1732 H 0.68733 0.89986 0.75157 0.0
C1733 C 0.74858 0.87574 0.70403 0.0
C1734 C 0.74007 0.89266 0.68986 0.0
C1735 C 0.73508 0.86621 0.72067 0.0
C1736 C 0.6889 0.88259 0.75729 0.0
H1737 H 0.70168 0.82441 0.8572 0.0
H1738 H 0.7107 0.83367 0.81827 0.0
H1739 H 0.67336 0.89013 0.789 0.0
H1740 H 0.71032 0.91181 0.68086 0.0
H1741 H 0.68648 0.89505 0.71021 0.0
H1742 H 0.71055 0.8314 0.74249 0.0
C1743 C 0.69448 0.83872 0.82496 0.0
C1744 C 0.68102 0.87707 0.77879 0.0
C1745 C 0.68939 0.83364 0.84735 0.0
C1746 C 0.71726 0.89874 0.69155 0.0
C1747 C 0.70371 0.8893 0.70845 0.0
C1748 C 0.70223 0.84431 0.75237 0.0
C1749 C 0.67887 0.85023 0.81137 0.0
C1750 C 0.68443 0.85535 0.78758 0.0
C1751 C 0.71274 0.87346 0.72364 0.0
C1752 C 0.70025 0.86645 0.74415 0.0
H1753 H 0.63676 0.85672 0.84973 0.0
H1754 H 0.6459 0.86587 0.81065 0.0
H1755 H 0.69687 0.82182 0.78007 0.0
H1756 H 0.7661 0.87065 0.70299 0.0
H1757 H 0.74269 0.85423 0.73216 0.0
C1758 C 0.77511 0.09383 0.19677 0.0
C1759 C 0.75239 0.10016 0.19485 0.0
C1760 C 0.78859 0.1032 0.21375 0.0
C1761 C 0.79029 0.14862 0.25715 0.0
H1762 H 0.81862 0.10304 0.29448 0.0
C1763 C 0.80424 0.16138 0.35171 0.0
C1764 C 0.82526 0.15529 0.36076 0.0
C1765 C 0.79865 0.15559 0.32961 0.0
C1766 C 0.81109 0.11602 0.28408 0.0
H1767 H 0.72645 0.12246 0.20768 0.0
H1768 H 0.74977 0.13878 0.23697 0.0
H1769 H 0.80452 0.09289 0.25719 0.0
H1770 H 0.8566 0.13768 0.35385 0.0
H1771 H 0.84661 0.12733 0.31531 0.0
H1772 H 0.79596 0.17149 0.28446 0.0
C1773 C 0.75735 0.12667 0.2256 0.0
C1774 C 0.80314 0.11026 0.26266 0.0
C1775 C 0.7439 0.1172 0.2089 0.0
C1776 C 0.84027 0.14265 0.34741 0.0
C1777 C 0.83457 0.1367 0.32535 0.0
C1778 C 0.79811 0.15433 0.27857 0.0
C1779 C 0.77959 0.11922 0.22877 0.0
C1780 C 0.79203 0.12635 0.24926 0.0
C1781 C 0.81387 0.14346 0.31611 0.0
C1782 C 0.80798 0.13793 0.2925 0.0
H1783 H 0.782 0.08065 0.18618 0.0
H1784 H 0.80575 0.0973 0.21568 0.0
H1785 H 0.78215 0.16148 0.24706 0.0
H1786 H 0.79229 0.17117 0.36145 0.0
H1787 H 0.7824 0.16068 0.32304 0.0
C1788 C 0.18814 0.65984 0.14647 0.0
C1789 C 0.16747 0.65368 0.13669 0.0
C1790 C 0.19277 0.65456 0.16892 0.0
C1791 C 0.17871 0.61558 0.21433 0.0
H1792 H 0.20696 0.66107 0.25182 0.0
C1793 C 0.21376 0.59305 0.30191 0.0
C1794 C 0.23641 0.59954 0.30414 0.0
C1795 C 0.20037 0.6025 0.28489 0.0
C1796 C 0.199 0.6482 0.24161 0.0
H1797 H 0.13565 0.63663 0.14278 0.0
H1798 H 0.14401 0.62709 0.18195 0.0
H1799 H 0.19393 0.67101 0.21412 0.0
H1800 H 0.26226 0.62224 0.29186 0.0
H1801 H 0.23913 0.63869 0.26251 0.0
H1802 H 0.18479 0.59247 0.24134 0.0
C1803 C 0.1565 0.63615 0.1722 0.0
C1804 C 0.19162 0.65388 0.22002 0.0
C1805 C 0.15175 0.64163 0.14977 0.0
C1806 C 0.24487 0.61685 0.29041 0.0
C1807 C 0.23152 0.62639 0.27366 0.0
C1808 C 0.18626 0.60984 0.2359 0.0
C1809 C 0.17693 0.64285 0.18207 0.0
C1810 C 0.18204 0.63746 0.20591 0.0
C1811 C 0.20939 0.61877 0.27013 0.0
C1812 C 0.19717 0.62592 0.24949 0.0
H1813 H 0.2006 0.6692 0.13696 0.0
H1814 H 0.20882 0.6596 0.17599 0.0
H1815 H 0.1714 0.60258 0.20379 0.0
H1816 H 0.20689 0.57966 0.31224 0.0
H1817 H 0.18329 0.59646 0.2827 0.0
C1818 C 0.24654 0.375 0.78556 0.0
C1819 C 0.25481 0.39213 0.79962 0.0
C1820 C 0.26027 0.36536 0.76916 0.0
C1821 C 0.30685 0.38132 0.73282 0.0
H1822 H 0.29949 0.32008 0.71114 0.0
C1823 C 0.34383 0.34881 0.64796 0.0
C1824 C 0.32848 0.33667 0.63454 0.0
C1825 C 0.33841 0.35452 0.67018 0.0
C1826 C 0.30172 0.33723 0.71701 0.0
H1827 H 0.28434 0.41161 0.80864 0.0
H1828 H 0.30858 0.39466 0.77972 0.0
H1829 H 0.28527 0.33032 0.74832 0.0
H1830 H 0.29528 0.32128 0.63396 0.0
H1831 H 0.2859 0.3313 0.6726 0.0
H1832 H 0.32279 0.38831 0.70116 0.0
C1833 C 0.29136 0.38883 0.78138 0.0
C1834 C 0.29366 0.34307 0.73831 0.0
C1835 C 0.27759 0.39837 0.79804 0.0
C1836 C 0.30748 0.3307 0.64374 0.0
C1837 C 0.30219 0.33621 0.66598 0.0
C1838 C 0.31506 0.37542 0.71153 0.0
C1839 C 0.2826 0.37271 0.76633 0.0
C1840 C 0.29539 0.36538 0.74612 0.0
C1841 C 0.31767 0.34797 0.67949 0.0
C1842 C 0.31186 0.35351 0.70313 0.0
H1843 H 0.22906 0.36978 0.78651 0.0
H1844 H 0.25286 0.35318 0.75776 0.0
H1845 H 0.30826 0.3987 0.73822 0.0
H1846 H 0.36016 0.35366 0.64142 0.0
H1847 H 0.35064 0.3636 0.68023 0.0
C1848 C 0.84378 0.65134 0.8525 0.0
C1849 C 0.85722 0.66675 0.84046 0.0
C1850 C 0.82134 0.65647 0.85765 0.0
C1851 C 0.7743 0.69172 0.8384 0.0
H1852 H 0.75184 0.68727 0.89958 0.0
C1853 C 0.70448 0.74763 0.87246 0.0
C1854 C 0.69042 0.74012 0.88994 0.0
C1855 C 0.72102 0.73356 0.86358 0.0
C1856 C 0.75759 0.68806 0.88228 0.0
H1857 H 0.85761 0.69979 0.82469 0.0
H1858 H 0.8186 0.70864 0.83365 0.0
H1859 H 0.78931 0.67285 0.89054 0.0
H1860 H 0.68149 0.71148 0.91076 0.0
H1861 H 0.71061 0.68663 0.89511 0.0
H1862 H 0.74292 0.7074 0.83017 0.0
C1863 C 0.82539 0.69253 0.83896 0.0
C1864 C 0.77911 0.67992 0.87715 0.0
C1865 C 0.84783 0.68755 0.83405 0.0
C1866 C 0.69208 0.71765 0.89723 0.0
C1867 C 0.70887 0.70354 0.88843 0.0
C1868 C 0.75276 0.69967 0.84345 0.0
C1869 C 0.81185 0.67697 0.85058 0.0
C1870 C 0.78796 0.68244 0.85535 0.0
C1871 C 0.724 0.71164 0.87204 0.0
C1872 C 0.74449 0.69873 0.86564 0.0
H1873 H 0.85048 0.63516 0.85769 0.0
H1874 H 0.81127 0.64421 0.86667 0.0
H1875 H 0.78055 0.69341 0.82133 0.0
H1876 H 0.70348 0.76486 0.86646 0.0
H1877 H 0.73246 0.74049 0.85115 0.0
C1878 C 0.19777 0.77392 0.09317 0.0
C1879 C 0.19311 0.75255 0.10228 0.0
C1880 C 0.2165 0.78619 0.10077 0.0
C1881 C 0.27205 0.77225 0.1193 0.0
H1882 H 0.28027 0.83404 0.13885 0.0
C1883 C 0.35564 0.80173 0.15678 0.0
C1884 C 0.36331 0.82369 0.15232 0.0
C1885 C 0.33422 0.79493 0.14997 0.0
C1886 C 0.27827 0.81685 0.13305 0.0
H1887 H 0.20246 0.72844 0.12807 0.0
H1888 H 0.23484 0.74985 0.14138 0.0
H1889 H 0.2423 0.82025 0.12984 0.0
H1890 H 0.35449 0.85563 0.13679 0.0
H1891 H 0.31721 0.84349 0.12433 0.0
H1892 H 0.3077 0.76865 0.12189 0.0
C1893 C 0.2244 0.75697 0.12819 0.0
C1894 C 0.25656 0.80899 0.12805 0.0
C1895 C 0.20584 0.74479 0.12065 0.0
C1896 C 0.34912 0.83858 0.14051 0.0
C1897 C 0.32767 0.8317 0.13352 0.0
C1898 C 0.29364 0.78011 0.12397 0.0
C1899 C 0.23059 0.77713 0.11752 0.0
C1900 C 0.2533 0.78646 0.12164 0.0
C1901 C 0.31993 0.80981 0.13829 0.0
C1902 C 0.29702 0.80234 0.13141 0.0
H1903 H 0.18829 0.78017 0.07888 0.0
H1904 H 0.221 0.80175 0.09234 0.0
H1905 H 0.26999 0.75493 0.11386 0.0
H1906 H 0.36595 0.78987 0.16608 0.0
H1907 H 0.32868 0.7781 0.15436 0.0
C1908 C 0.30082 0.2159 0.59604 0.0
C1909 C 0.30675 0.23716 0.60458 0.0
C1910 C 0.28233 0.2043 0.60508 0.0
C1911 C 0.22889 0.22089 0.62805 0.0
H1912 H 0.21806 0.15802 0.64217 0.0
C1913 C 0.14394 0.19236 0.66302 0.0
C1914 C 0.13504 0.17161 0.65589 0.0
C1915 C 0.16595 0.19841 0.65754 0.0
C1916 C 0.2208 0.17558 0.63799 0.0
H1917 H 0.30011 0.26179 0.63069 0.0
H1918 H 0.26827 0.2414 0.64672 0.0
H1919 H 0.25636 0.17064 0.63285 0.0
H1920 H 0.14232 0.14094 0.63733 0.0
H1921 H 0.18065 0.15191 0.62708 0.0
H1922 H 0.19362 0.226 0.63233 0.0
C1923 C 0.27745 0.23387 0.63284 0.0
C1924 C 0.2427 0.18276 0.63281 0.0
C1925 C 0.29571 0.24545 0.62376 0.0
C1926 C 0.14867 0.15708 0.64304 0.0
C1927 C 0.1707 0.16327 0.63733 0.0
C1928 C 0.20712 0.21373 0.63293 0.0
C1929 C 0.26977 0.21391 0.62273 0.0
C1930 C 0.24693 0.20558 0.62817 0.0
C1931 C 0.17958 0.18404 0.64452 0.0
C1932 C 0.2028 0.19107 0.6383 0.0
H1933 H 0.30902 0.20931 0.58111 0.0
H1934 H 0.2767 0.1889 0.59703 0.0
H1935 H 0.23159 0.23847 0.6239 0.0
H1936 H 0.13408 0.2038 0.67328 0.0
H1937 H 0.17238 0.21431 0.66381 0.0
C1938 C 0.648 0.33913 0.34606 0.0
C1939 C 0.63371 0.32429 0.33431 0.0
C1940 C 0.66979 0.33246 0.35216 0.0
C1941 C 0.70384 0.28094 0.36061 0.0
H1942 H 0.75523 0.3212 0.35632 0.0
C1943 C 0.79117 0.2455 0.37008 0.0
C1944 C 0.8037 0.25497 0.38775 0.0
C1945 C 0.7729 0.25705 0.361 0.0
C1946 C 0.74097 0.30987 0.35763 0.0
H1947 H 0.63139 0.29097 0.31931 0.0
H1948 H 0.66922 0.27958 0.32954 0.0
H1949 H 0.71747 0.335 0.34649 0.0
H1950 H 0.80843 0.28467 0.40843 0.0
H1951 H 0.77607 0.30504 0.39249 0.0
H1952 H 0.72714 0.25579 0.37143 0.0
C1953 C 0.6635 0.29616 0.33459 0.0
C1954 C 0.71938 0.31775 0.35214 0.0
C1955 C 0.64176 0.30274 0.32867 0.0
C1956 C 0.79907 0.27713 0.39468 0.0
C1957 C 0.78056 0.28871 0.38564 0.0
C1958 C 0.72529 0.27309 0.36584 0.0
C1959 C 0.67774 0.31084 0.34655 0.0
C1960 C 0.70062 0.30324 0.35332 0.0
C1961 C 0.76666 0.2782 0.36958 0.0
C1962 C 0.74411 0.28733 0.36413 0.0
H1963 H 0.64235 0.35589 0.35061 0.0
H1964 H 0.68027 0.34409 0.36154 0.0
H1965 H 0.68974 0.26949 0.36235 0.0
H1966 H 0.79456 0.22847 0.36436 0.0
H1967 H 0.76271 0.24877 0.34831 0.0
C1968 C 0.02461 0.30774 0.11905 0.0
C1969 C 0.03481 0.32897 0.12192 0.0
C1970 C 0.01075 0.30348 0.10053 0.0
C1971 C 0.97583 0.3326 0.05833 0.0
H1972 H 0.97753 0.27503 0.02734 0.0
C1973 C 0.92636 0.31748 0.97667 0.0
C1974 C 0.91447 0.29705 0.97463 0.0
C1975 C 0.94175 0.32073 0.9941 0.0
C1976 C 0.97672 0.29109 0.03597 0.0
H1977 H 0.03863 0.36227 0.10722 0.0
H1978 H 0.0146 0.35472 0.07478 0.0
H1979 H 0.00344 0.28216 0.05851 0.0
H1980 H 0.90993 0.2638 0.98922 0.0
H1981 H 0.93685 0.26958 0.01985 0.0
H1982 H 0.94912 0.34154 0.03587 0.0
C1983 C 0.01712 0.34147 0.08708 0.0
C1984 C 0.99155 0.2952 0.05381 0.0
C1985 C 0.031 0.34575 0.10562 0.0
C1986 C 0.91878 0.27974 0.99025 0.0
C1987 C 0.93426 0.28301 0.00775 0.0
C1988 C 0.96104 0.32851 0.0405 0.0
C1989 C 0.00672 0.32033 0.08441 0.0
C1990 C 0.99128 0.31601 0.06518 0.0
C1991 C 0.9457 0.30366 0.01 0.0
C1992 C 0.96134 0.30774 0.02909 0.0
H1993 H 0.0271 0.29439 0.13125 0.0
H1994 H 0.00277 0.28712 0.09914 0.0
H1995 H 0.97486 0.34863 0.067 0.0
H1996 H 0.92366 0.33117 0.96489 0.0
H1997 H 0.95059 0.33667 0.99512 0.0
C1998 C 0.56932 0.67277 0.47564 0.0
C1999 C 0.58132 0.69307 0.47294 0.0
C2000 C 0.55396 0.67011 0.49324 0.0
C2001 C 0.54044 0.69199 0.54962 0.0
H2002 H 0.48432 0.65961 0.54086 0.0
C2003 C 0.47356 0.68514 0.61958 0.0
C2004 C 0.4628 0.6642 0.62265 0.0
C2005 C 0.48739 0.68895 0.60095 0.0
C2006 C 0.50003 0.66847 0.54363 0.0
H2007 H 0.58611 0.72668 0.48654 0.0
H2008 H 0.55908 0.72206 0.51726 0.0
H2009 H 0.50906 0.66656 0.50875 0.0
H2010 H 0.45822 0.63087 0.60831 0.0
H2011 H 0.4826 0.63752 0.57579 0.0
H2012 H 0.53151 0.69379 0.58449 0.0
C2013 C 0.56183 0.70812 0.5058 0.0
C2014 C 0.51419 0.6725 0.52523 0.0
C2015 C 0.57721 0.71082 0.48811 0.0
C2016 C 0.46618 0.6472 0.60648 0.0
C2017 C 0.48007 0.65105 0.58778 0.0
C2018 C 0.52629 0.68796 0.56801 0.0
C2019 C 0.55016 0.68766 0.50866 0.0
C2020 C 0.5346 0.68424 0.52802 0.0
C2021 C 0.4909 0.67195 0.58487 0.0
C2022 C 0.50594 0.67611 0.56525 0.0
H2023 H 0.57199 0.65869 0.46433 0.0
H2024 H 0.5455 0.65404 0.49511 0.0
H2025 H 0.55621 0.70072 0.55244 0.0
H2026 H 0.47132 0.69872 0.63156 0.0
H2027 H 0.49517 0.70536 0.59905 0.0
C2028 C 0.4222 0.17064 0.01502 0.0
C2029 C 0.41111 0.19148 0.01747 0.0
C2030 C 0.43748 0.16714 -0.00251 0.0
C2031 C 0.4738 0.19681 0.95674 0.0
H2032 H 0.47165 0.13992 0.92457 0.0
C2033 C 0.52274 0.18156 0.87412 0.0
C2034 C 0.53294 0.16037 0.87095 0.0
C2035 C 0.50851 0.18542 0.89246 0.0
C2036 C 0.47269 0.15577 0.93357 0.0
H2037 H 0.40766 0.22506 0.00336 0.0
H2038 H 0.43433 0.21886 0.97262 0.0
H2039 H 0.44547 0.14681 0.95544 0.0
H2040 H 0.53627 0.12669 0.88486 0.0
H2041 H 0.51156 0.13355 0.91701 0.0
H2042 H 0.50101 0.20579 0.93481 0.0
C2043 C 0.43127 0.20531 0.98447 0.0
C2044 C 0.45765 0.15974 0.95124 0.0
C2045 C 0.41591 0.20882 0.00203 0.0
C2046 C 0.52869 0.14319 0.88673 0.0
C2047 C 0.51441 0.14708 0.90509 0.0
C2048 C 0.48886 0.19284 0.93906 0.0
C2049 C 0.4421 0.18436 0.98193 0.0
C2050 C 0.45803 0.1803 0.96304 0.0
C2051 C 0.5041 0.16822 0.90811 0.0
C2052 C 0.48846 0.17227 0.92725 0.0
H2053 H 0.41904 0.15688 0.02659 0.0
H2054 H 0.4458 0.15094 0.99623 0.0
H2055 H 0.47474 0.2127 0.9657 0.0
H2056 H 0.52554 0.19521 0.86233 0.0
H2057 H 0.50061 0.2018 0.8941 0.0
C2058 C 0.07266 0.78353 0.50346 0.0
C2059 C 0.07553 0.79995 0.52031 0.0
C2060 C 0.05814 0.78746 0.48529 0.0
C2061 C 0.03217 0.83426 0.45368 0.0
H2062 H 0.99356 0.7876 0.42922 0.0
C2063 C 0.96646 0.85189 0.38375 0.0
C2064 C 0.96438 0.83554 0.36671 0.0
C2065 C 0.97965 0.84764 0.40284 0.0
C2066 C 0.00441 0.80075 0.43572 0.0
H2067 H 0.06458 0.83304 0.53165 0.0
H2068 H 0.03924 0.83966 0.50025 0.0
H2069 H 0.0169 0.77946 0.46206 0.0
H2070 H 0.97502 0.80206 0.35628 0.0
H2071 H -0.00191 0.7949 0.38926 0.0
H2072 H 0.01983 0.85551 0.42727 0.0
C2073 C 0.04853 0.82395 0.50081 0.0
C2074 C 0.01778 0.79608 0.45453 0.0
C2075 C 0.063 0.82005 0.51891 0.0
C2076 C 0.97605 0.81502 0.3691 0.0
C2077 C 0.9892 0.81081 0.38811 0.0
C2078 C 0.01883 0.83893 0.43486 0.0
C2079 C 0.04619 0.80788 0.48361 0.0
C2080 C 0.03182 0.81277 0.46372 0.0
C2081 C 0.99104 0.82698 0.40528 0.0
C2082 C 0.00485 0.82221 0.42561 0.0
H2083 H 0.08207 0.76789 0.50395 0.0
H2084 H 0.0568 0.77479 0.47222 0.0
H2085 H 0.04309 0.84739 0.46012 0.0
H2086 H 0.95768 0.86785 0.38251 0.0
H2087 H 0.98059 0.86039 0.41587 0.0
C2088 C 0.11255 0.02098 0.34787 0.0
C2089 C 0.12224 0.03413 0.33073 0.0
C2090 C 0.09429 0.00681 0.34314 0.0
C2091 C 0.04606 -0.00064 0.30691 0.0
H2092 H 0.05208 0.93514 0.31791 0.0
C2093 C 0.9958 0.91266 0.28343 0.0
C2094 C 0.97519 0.91581 0.29467 0.0
C2095 C 0.01365 0.92768 0.28688 0.0
C2096 C 0.05026 0.95303 0.31472 0.0
H2097 H 0.12005 0.04334 0.29542 0.0
H2098 H 0.08761 0.01916 0.28742 0.0
H2099 H 0.08339 0.96058 0.32709 0.0
H2100 H 0.95676 0.93757 0.31755 0.0
H2101 H 0.98776 0.96426 0.32286 0.0
H2102 H 0.01268 0.99188 0.29515 0.0
C2103 C 0.09441 0.01957 0.30436 0.0
C2104 C 0.06802 0.96754 0.3201 0.0
C2105 C 0.11297 0.0333 0.30894 0.0
C2106 C 0.97249 0.9347 0.30872 0.0
C2107 C 0.99014 0.94999 0.31172 0.0
C2108 C 0.02809 0.98492 0.30202 0.0
C2109 C 0.08509 0.00603 0.32135 0.0
C2110 C 0.06609 0.99079 0.31616 0.0
C2111 C 0.01098 0.94638 0.30115 0.0
C2112 C 0.03011 0.96164 0.30579 0.0
H2113 H 0.11943 0.0212 0.36478 0.0
H2114 H 0.08728 0.99652 0.3565 0.0
H2115 H 0.04424 0.01726 0.30376 0.0
H2116 H -0.00162 0.89815 0.27264 0.0
H2117 H 0.0296 0.92464 0.27852 0.0
C2118 C 0.49942 0.07823 0.78694 0.0
C2119 C 0.51691 0.08019 0.80281 0.0
C2120 C 0.48095 0.06416 0.79118 0.0
C2121 C 0.46209 0.01626 0.8266 0.0
H2122 H 0.40232 0.03911 0.81346 0.0
C2123 C 0.38116 0.97034 0.85606 0.0
C2124 C 0.36376 0.96864 0.84006 0.0
C2125 C 0.39979 0.98427 0.85203 0.0
C2126 C 0.41891 0.0324 0.81706 0.0
H2127 H 0.52885 0.06835 0.83535 0.0
H2128 H 0.49675 0.0441 0.84266 0.0
H2129 H 0.43524 0.06194 0.80432 0.0
H2130 H 0.35222 0.98072 0.80745 0.0
H2131 H 0.38458 0.00465 0.80049 0.0
H2132 H 0.44574 0.9867 0.83933 0.0
C2133 C 0.49735 0.05327 0.82689 0.0
C2134 C 0.43777 0.04545 0.81174 0.0
C2135 C 0.51573 0.06732 0.82271 0.0
C2136 C 0.36526 0.98152 0.82019 0.0
C2137 C 0.38379 0.99542 0.81622 0.0
C2138 C 0.44322 0.00319 0.83191 0.0
C2139 C 0.47962 0.05169 0.81131 0.0
C2140 C 0.45959 0.03753 0.81643 0.0
C2141 C 0.40136 0.99686 0.83199 0.0
C2142 C 0.42141 0.01109 0.82715 0.0
H2143 H 0.49976 0.08787 0.77145 0.0
H2144 H 0.46768 0.06308 0.7787 0.0
H2145 H 0.47868 0.00955 0.83019 0.0
H2146 H 0.38055 0.96071 0.87155 0.0
H2147 H 0.41295 0.98522 0.86464 0.0
C2148 C 0.60638 0.46539 0.6464 0.0
C2149 C 0.62274 0.46208 0.66323 0.0
C2150 C 0.588 0.47967 0.65019 0.0
C2151 C 0.55512 0.50687 0.69583 0.0
H2152 H 0.53615 0.54744 0.64826 0.0
C2153 C 0.49108 0.57947 0.71 0.0
C2154 C 0.4752 0.58327 0.69282 0.0
C2155 C 0.50869 0.56406 0.70685 0.0
C2156 C 0.54106 0.53603 0.66164 0.0
H2157 H 0.63242 0.4713 0.69732 0.0
H2158 H 0.6006 0.49625 0.70375 0.0
H2159 H 0.56739 0.52164 0.64165 0.0
H2160 H 0.46517 0.57331 0.65904 0.0
H2161 H 0.49558 0.54646 0.65374 0.0
H2162 H 0.52881 0.5214 0.71584 0.0
C2163 C 0.60181 0.48758 0.68773 0.0
C2164 C 0.55896 0.52122 0.65784 0.0
C2165 C 0.62016 0.47334 0.68396 0.0
C2166 C 0.47713 0.57098 0.67262 0.0
C2167 C 0.49468 0.55565 0.66949 0.0
C2168 C 0.5372 0.52171 0.69964 0.0
C2169 C 0.58552 0.49096 0.6709 0.0
C2170 C 0.56622 0.50646 0.67487 0.0
C2171 C 0.51081 0.55216 0.68644 0.0
C2172 C 0.52994 0.53644 0.68257 0.0
H2173 H 0.60776 0.45698 0.63026 0.0
H2174 H 0.5756 0.48171 0.63696 0.0
H2175 H 0.56009 0.49551 0.70922 0.0
H2176 H 0.49017 0.58865 0.72575 0.0
H2177 H 0.52095 0.56188 0.72018 0.0
C2178 C -1e-05 0.4141 0.20617 0.0
C2179 C 0.01645 0.41052 0.1895 0.0
C2180 C 0.98211 0.42902 0.20233 0.0
C2181 C 0.95047 0.45632 0.15613 0.0
H2182 H 0.9299 0.49672 0.20317 0.0
C2183 C 0.88417 0.52622 0.1401 0.0
C2184 C 0.86757 0.52906 0.15678 0.0
C2185 C 0.9027 0.5121 0.14392 0.0
C2186 C 0.93531 0.4854 0.18991 0.0
H2187 H 0.02711 0.4202 0.15581 0.0
H2188 H 0.99623 0.44621 0.14933 0.0
H2189 H 0.96138 0.47133 0.21052 0.0
H2190 H 0.85749 0.51905 0.19056 0.0
H2191 H 0.8895 0.49447 0.19701 0.0
H2192 H 0.92436 0.47033 0.13555 0.0
C2193 C -0.00309 0.43725 0.16522 0.0
C2194 C 0.95333 0.47083 0.19415 0.0
C2195 C 0.01473 0.4224 0.16904 0.0
C2196 C 0.86994 0.51741 0.17731 0.0
C2197 C 0.88841 0.50338 0.18112 0.0
C2198 C 0.93245 0.47089 0.15189 0.0
C2199 C 0.9803 0.44063 0.18173 0.0
C2200 C 0.9611 0.4561 0.17731 0.0
C2201 C 0.90504 0.50058 0.16452 0.0
C2202 C 0.92462 0.48554 0.16876 0.0
H2203 H 0.00073 0.40521 0.22209 0.0
H2204 H 0.96946 0.4311 0.21532 0.0
H2205 H 0.95583 0.44495 0.14289 0.0
H2206 H 0.88292 0.53492 0.1241 0.0
H2207 H 0.91534 0.51044 0.13086 0.0
C2208 C 0.34369 0.11455 0.02032 0.0
C2209 C 0.32685 0.1249 0.03336 0.0
C2210 C 0.33842 0.09623 0.00644 0.0
C2211 C 0.30138 0.04864 0.00027 0.0
H2212 H 0.3124 0.05278 0.93594 0.0
C2213 C 0.27875 0.99575 0.91486 0.0
C2214 C 0.29047 0.97548 0.91848 0.0
C2215 C 0.28164 0.01396 0.92956 0.0
C2216 C 0.30918 0.05149 0.95386 0.0
H2217 H 0.29148 0.12388 0.0426 0.0
H2218 H 0.28253 0.09132 0.0189 0.0
H2219 H 0.32173 0.08477 0.96044 0.0
H2220 H 0.3135 0.95796 0.94079 0.0
H2221 H 0.31785 0.98959 0.96693 0.0
H2222 H 0.28954 0.01506 0.99377 0.0
C2223 C 0.29965 0.09767 0.01918 0.0
C2224 C 0.31463 0.06965 0.96783 0.0
C2225 C 0.30477 0.1163 0.03263 0.0
C2226 C 0.30432 0.97342 0.93758 0.0
C2227 C 0.30676 0.99143 0.95254 0.0
C2228 C 0.29641 0.03027 0.98636 0.0
C2229 C 0.31638 0.08763 0.00583 0.0
C2230 C 0.31074 0.06836 0.99112 0.0
C2231 C 0.29582 0.01197 0.94839 0.0
C2232 C 0.30022 0.0316 0.96305 0.0
H2233 H 0.3608 0.1209 0.02048 0.0
H2234 H 0.35158 0.08865 0.99629 0.0
H2235 H 0.29828 0.04733 0.01821 0.0
H2236 H 0.2681 -0.00216 0.90018 0.0
H2237 H 0.27302 0.02969 0.9261 0.0
C2238 C 0.84762 0.38235 0.96579 0.0
C2239 C 0.83128 0.36541 0.96301 0.0
C2240 C 0.84315 0.40122 0.97922 0.0
C2241 C 0.80607 0.42123 0.02508 0.0
H2242 H 0.82466 0.48055 0.00487 0.0
C2243 C 0.78101 0.50223 0.07302 0.0
C2244 C 0.79823 0.51821 0.07623 0.0
C2245 C 0.7841 0.48408 0.05828 0.0
C2246 C 0.81951 0.46407 0.01083 0.0
H2247 H 0.79739 0.3551 0.97233 0.0
H2248 H 0.78965 0.38797 0.99549 0.0
H2249 H 0.83245 0.44769 0.9814 0.0
H2250 H 0.83203 0.52781 0.06592 0.0
H2251 H 0.83739 0.49621 0.04048 0.0
H2252 H 0.79327 0.43757 0.05458 0.0
C2253 C 0.806 0.38657 0.9875 0.0
C2254 C 0.82401 0.44525 -0.00259 0.0
C2255 C 0.81043 0.36775 0.97408 0.0
C2256 C 0.81837 0.51588 0.06391 0.0
C2257 C 0.82142 0.49779 0.04918 0.0
C2258 C 0.80157 0.44005 0.03851 0.0
C2259 C 0.82228 0.40355 0.9902 0.0
C2260 C 0.81742 0.4236 0.00441 0.0
C2261 C 0.80444 0.48154 0.04636 0.0
C2262 C 0.80833 0.46168 0.03159 0.0
H2263 H 0.86388 0.3811 0.95758 0.0
H2264 H 0.85616 0.41388 0.98119 0.0
H2265 H 0.80103 0.40475 0.03111 0.0
H2266 H 0.76527 0.50348 0.08219 0.0
H2267 H 0.77058 0.47199 0.05625 0.0
C2268 C 0.6839 0.62065 0.4734 0.0
C2269 C 0.66321 0.62318 0.46207 0.0
C2270 C 0.68765 0.60229 0.48764 0.0
C2271 C 0.65779 0.55941 0.52118 0.0
H2272 H 0.71568 0.52901 0.52102 0.0
C2273 C 0.67212 0.47702 0.56994 0.0
C2274 C 0.69232 0.47474 0.58217 0.0
C2275 C 0.66913 0.4948 0.55487 0.0
C2276 C 0.69952 0.53748 0.52144 0.0
H2277 H 0.63027 0.60815 0.45686 0.0
H2278 H 0.63693 0.57599 0.48161 0.0
H2279 H 0.7091 0.56047 0.49532 0.0
H2280 H 0.72538 0.48934 0.58772 0.0
H2281 H 0.72005 0.52059 0.5614 0.0
H2282 H 0.64819 0.5365 0.54729 0.0
C2283 C 0.65015 0.58842 0.47961 0.0
C2284 C 0.69573 0.55549 0.5067 0.0
C2285 C 0.64638 0.6068 0.46532 0.0
C2286 C 0.70964 0.49053 0.57858 0.0
C2287 C 0.70661 0.5084 0.56344 0.0
C2288 C 0.66157 0.54143 0.53589 0.0
C2289 C 0.67083 0.58597 0.49094 0.0
C2290 C 0.67481 0.56665 0.50639 0.0
C2291 C 0.68621 0.51085 0.55161 0.0
C2292 C 0.68245 0.5302 0.53615 0.0
H2293 H 0.69727 0.63292 0.4714 0.0
H2294 H 0.70364 0.6011 0.49635 0.0
H2295 H 0.64163 0.56789 0.52166 0.0
H2296 H 0.65843 0.46513 0.57208 0.0
H2297 H 0.65338 0.49594 0.54572 0.0
C2298 C 0.17732 0.86992 0.51846 0.0
C2299 C 0.1569 0.86787 0.53036 0.0
C2300 C 0.18128 0.88839 0.50445 0.0
C2301 C 0.15244 0.93321 0.47261 0.0
H2302 H 0.21161 0.96104 0.47232 0.0
C2303 C 0.17021 0.01557 0.4245 0.0
C2304 C 0.19046 0.01703 0.41222 0.0
C2305 C 0.16638 -0.00228 0.43932 0.0
C2306 C 0.19508 0.9533 0.47203 0.0
H2307 H 0.12458 0.88379 0.53669 0.0
H2308 H 0.13162 0.91619 0.51226 0.0
H2309 H 0.20406 0.92948 0.49757 0.0
H2310 H 0.22271 0.00085 0.40625 0.0
H2311 H 0.21592 0.96954 0.43213 0.0
H2312 H 0.14347 0.95698 0.44703 0.0
C2313 C 0.14447 0.90331 0.5137 0.0
C2314 C 0.19073 0.93523 0.48651 0.0
C2315 C 0.14048 0.88479 0.52779 0.0
C2316 C 0.20695 0.00031 0.41545 0.0
C2317 C 0.2031 0.9824 0.43035 0.0
C2318 C 0.15678 0.95128 0.45814 0.0
C2319 C 0.16496 0.90534 0.50193 0.0
C2320 C 0.16938 0.92493 0.48693 0.0
C2321 C 0.18267 0.98082 0.4423 0.0
C2322 C 0.17816 0.96153 0.45766 0.0
H2323 H 0.19036 0.85723 0.51989 0.0
H2324 H 0.19709 0.88922 0.49534 0.0
H2325 H 0.13593 0.92543 0.47226 0.0
H2326 H 0.15713 0.02816 0.42259 0.0
H2327 H 0.15064 -0.00276 0.44855 0.0
C2328 C 0.97184 0.68097 0.87318 0.0
C2329 C 0.96104 0.66003 0.87039 0.0
C2330 C 0.98609 0.68483 0.89149 0.0
C2331 C 0.02061 0.65526 0.93388 0.0
H2332 H 0.01954 0.71303 0.96452 0.0
C2333 C 0.06987 0.67062 0.01594 0.0
C2334 C 0.08157 0.69115 0.01817 0.0
C2335 C 0.05482 0.6672 -0.00179 0.0
C2336 C 0.02021 0.6969 0.95598 0.0
H2337 H 0.95679 0.62672 0.88493 0.0
H2338 H 0.98155 0.63356 0.91705 0.0
H2339 H 0.99368 0.70604 0.93333 0.0
H2340 H 0.08623 0.72433 0.00348 0.0
H2341 H 0.05992 0.71828 0.97239 0.0
H2342 H 0.04713 0.64611 0.95651 0.0
C2343 C 0.97913 0.64692 0.90485 0.0
C2344 C 0.00538 0.69288 0.93812 0.0
C2345 C 0.96483 0.64304 0.88649 0.0
C2346 C 0.07751 0.70833 0.00234 0.0
C2347 C 0.06236 0.7049 0.98456 0.0
C2348 C 0.03541 0.65927 0.95174 0.0
C2349 C 0.98994 0.66787 0.90755 0.0
C2350 C 0.00541 0.67201 0.92684 0.0
C2351 C 0.051 0.6842 0.9822 0.0
C2352 C 0.03538 0.68013 0.96303 0.0
H2353 H 0.96944 0.69447 0.86113 0.0
H2354 H 0.9944 0.70103 0.89285 0.0
H2355 H 0.02136 0.63915 0.92532 0.0
H2356 H 0.07242 0.65699 0.02782 0.0
H2357 H 0.04606 0.65122 -0.00287 0.0
C2358 C 0.52945 0.34747 0.38419 0.0
C2359 C 0.53201 0.33107 0.36728 0.0
C2360 C 0.51605 0.34315 0.40311 0.0
C2361 C 0.49052 0.29661 0.43598 0.0
H2362 H 0.45041 0.34345 0.45759 0.0
C2363 C 0.42029 0.28068 0.5022 0.0
C2364 C 0.41696 0.29756 0.51852 0.0
C2365 C 0.43514 0.28421 0.48421 0.0
C2366 C 0.4617 0.33027 0.45193 0.0
H2367 H 0.52242 0.29718 0.35714 0.0
H2368 H 0.499 0.28986 0.38988 0.0
H2369 H 0.47491 0.35097 0.42553 0.0
H2370 H 0.42733 0.33111 0.52902 0.0
H2371 H 0.45321 0.33704 0.49795 0.0
H2372 H 0.47716 0.27588 0.46237 0.0
C2373 C 0.50758 0.30594 0.38869 0.0
C2374 C 0.47577 0.3346 0.43357 0.0
C2375 C 0.52093 0.31024 0.36981 0.0
C2376 C 0.42925 0.31777 0.51671 0.0
C2377 C 0.44405 0.32127 0.49879 0.0
C2378 C 0.47643 0.29228 0.45437 0.0
C2379 C 0.50494 0.32234 0.40554 0.0
C2380 C 0.49033 0.31783 0.42537 0.0
C2381 C 0.44695 0.30468 0.48217 0.0
C2382 C 0.46188 0.30908 0.46256 0.0
H2383 H 0.53776 0.36367 0.38285 0.0
H2384 H 0.51456 0.35606 0.41593 0.0
H2385 H 0.50176 0.28342 0.43025 0.0
H2386 H 0.41109 0.26493 0.50305 0.0
H2387 H 0.43692 0.27115 0.47158 0.0
C2388 C 0.57717 0.78753 0.9908 0.0
C2389 C 0.58052 0.80412 0.9742 0.0
C2390 C 0.56257 0.7915 0.00892 0.0
C2391 C 0.53604 0.8381 0.04084 0.0
H2392 H 0.49701 0.79093 0.06362 0.0
C2393 C 0.46837 0.85387 0.1098 0.0
C2394 C 0.46619 0.83716 0.12647 0.0
C2395 C 0.48207 0.85023 0.09091 0.0
C2396 C 0.50797 0.80423 0.05759 0.0
H2397 H 0.57058 0.83772 0.96346 0.0
H2398 H 0.54507 0.84439 0.99474 0.0
H2399 H 0.52113 0.78341 0.03123 0.0
H2400 H 0.47722 0.80365 0.13644 0.0
H2401 H 0.50106 0.79753 0.10383 0.0
H2402 H 0.52289 0.8589 0.06726 0.0
C2403 C 0.55402 0.82849 0.99401 0.0
C2404 C 0.52181 0.7999 0.03903 0.0
C2405 C 0.56858 0.82456 0.97595 0.0
C2406 C 0.47829 0.8169 0.12392 0.0
C2407 C 0.4919 0.81328 0.1051 0.0
C2408 C 0.52218 0.84243 0.0594 0.0
C2409 C 0.551 0.81213 0.01084 0.0
C2410 C 0.53608 0.81676 0.03047 0.0
C2411 C 0.49383 0.82979 0.08827 0.0
C2412 C 0.50807 0.82551 0.06807 0.0
H2413 H 0.58613 0.77164 0.99006 0.0
H2414 H 0.56078 0.7786 0.02171 0.0
H2415 H 0.54707 0.85137 0.03488 0.0
H2416 H 0.45931 0.86966 0.11118 0.0
H2417 H 0.48311 0.86325 0.07815 0.0
C2418 C 0.92996 0.17866 0.47391 0.0
C2419 C 0.91688 0.1984 0.47258 0.0
C2420 C 0.94503 0.1754 0.49162 0.0
C2421 C 0.97667 0.20436 0.53651 0.0
H2422 H 0.97643 0.14514 0.5643 0.0
C2423 C 0.02176 0.18583 0.62063 0.0
C2424 C 0.03307 0.16509 0.62291 0.0
C2425 C 0.00836 0.19021 0.60181 0.0
C2426 C 0.97695 0.16166 0.55655 0.0
H2427 H 0.91 0.23056 0.48861 0.0
H2428 H 0.9364 0.22476 0.51974 0.0
H2429 H 0.95176 0.1527 0.53243 0.0
H2430 H 0.03922 0.13276 0.60694 0.0
H2431 H 0.01595 0.14053 0.57394 0.0
H2432 H 0.00187 0.21331 0.56072 0.0
C2433 C 0.93497 0.21187 0.50689 0.0
C2434 C 0.96278 0.16602 0.53829 0.0
C2435 C 0.91981 0.21516 0.48909 0.0
C2436 C 0.03071 0.14887 0.6058 0.0
C2437 C 0.01728 0.15329 0.58693 0.0
C2438 C 0.9909 0.19998 0.55478 0.0
C2439 C 0.94745 0.19177 0.50852 0.0
C2440 C 0.96249 0.1874 0.52804 0.0
C2441 C 0.00591 0.174 0.58475 0.0
C2442 C 0.99119 0.17857 0.56501 0.0
H2443 H 0.9284 0.16545 0.4614 0.0
H2444 H 0.95475 0.15994 0.49211 0.0
H2445 H 0.97702 0.22091 0.52881 0.0
H2446 H 0.02308 0.19874 0.63347 0.0
H2447 H -0.00042 0.20619 0.60085 0.0
C2448 C 0.87128 0.97564 0.6789 0.0
C2449 C 0.86864 0.96422 0.65827 0.0
C2450 C 0.88988 0.98952 0.68266 0.0
C2451 C 0.93371 0.02208 0.65318 0.0
H2452 H 0.96323 0.02128 0.7115 0.0
C2453 C 0.01586 0.07102 0.66989 0.0
C2454 C 0.01757 0.08283 0.69039 0.0
C2455 C -0.0018 0.05595 0.66613 0.0
C2456 C 0.95503 0.02186 0.69521 0.0
H2457 H 0.88368 0.95856 0.62541 0.0
H2458 H 0.9163 0.98275 0.6321 0.0
H2459 H 0.93166 0.99595 0.70433 0.0
H2460 H 0.00203 0.08773 0.72314 0.0
H2461 H 0.97108 0.06148 0.71648 0.0
H2462 H 0.95701 0.04806 0.64409 0.0
C2463 C 0.90377 0.98105 0.64527 0.0
C2464 C 0.93695 0.00734 0.69109 0.0
C2465 C 0.88513 0.96709 0.64148 0.0
C2466 C 0.0013 0.07891 0.70718 0.0
C2467 C 0.9836 0.06378 0.7034 0.0
C2468 C 0.95179 0.0366 0.65731 0.0
C2469 C 0.90636 0.99238 0.66593 0.0
C2470 C 0.92602 0.00734 0.67005 0.0
C2471 C 0.98176 0.05227 0.68276 0.0
C2472 C 0.96263 0.0367 0.67839 0.0
H2473 H 0.85893 0.97394 0.69223 0.0
H2474 H 0.89117 -0.00172 0.69863 0.0
H2475 H 0.92545 0.02275 0.63693 0.0
H2476 H 0.0281 0.07349 0.65657 0.0
H2477 H -0.00252 0.04709 0.65019 0.0
C2478 C 0.61276 0.03088 0.1845 0.0
C2479 C 0.62231 0.03161 0.16283 0.0
C2480 C 0.59391 0.01749 0.18883 0.0
C2481 C 0.5667 0.96604 0.17275 0.0
H2482 H 0.51197 0.99135 0.19815 0.0
C2483 C 0.47078 0.93472 0.18542 0.0
C2484 C 0.4735 0.91566 0.19925 0.0
C2485 C 0.48857 0.94982 0.18224 0.0
C2486 C 0.5272 0.98412 0.19113 0.0
H2487 H 0.61968 0.01888 0.1287 0.0
H2488 H 0.58697 0.99473 0.13655 0.0
H2489 H 0.54388 0.01617 0.18925 0.0
H2490 H 0.49682 0.89757 0.22077 0.0
H2491 H 0.52823 0.92375 0.21462 0.0
H2492 H 0.55025 0.93392 0.17514 0.0
C2493 C 0.59401 0.00485 0.15001 0.0
C2494 C 0.54537 -0.00175 0.18607 0.0
C2495 C 0.61259 0.01869 0.14552 0.0
C2496 C 0.49422 0.91222 0.21017 0.0
C2497 C 0.51219 0.92705 0.20655 0.0
C2498 C 0.54873 0.95185 0.1783 0.0
C2499 C 0.58454 0.00419 0.1717 0.0
C2500 C 0.5652 0.98933 0.17671 0.0
C2501 C 0.50953 0.94585 0.19241 0.0
C2502 C 0.52882 0.9608 0.18743 0.0
H2503 H 0.61982 0.04076 0.19814 0.0
H2504 H 0.58692 0.01716 0.2057 0.0
H2505 H 0.58191 0.95881 0.1657 0.0
H2506 H 0.45497 0.9378 0.17683 0.0
H2507 H 0.48619 0.96418 0.17122 0.0
C2508 C 0.51456 0.42502 0.32142 0.0
C2509 C 0.51606 0.41333 0.30083 0.0
C2510 C 0.4968 0.43989 0.32554 0.0
C2511 C 0.45272 0.47355 0.29738 0.0
H2512 H 0.42391 0.47173 0.35605 0.0
C2513 C 0.36824 0.51779 0.31488 0.0
C2514 C 0.36561 0.52917 0.33553 0.0
C2515 C 0.38707 0.5043 0.3109 0.0
C2516 C 0.43196 0.47266 0.33969 0.0
H2517 H 0.50007 0.40845 0.2683 0.0
H2518 H 0.46895 0.43434 0.27561 0.0
H2519 H 0.45585 0.44706 0.34829 0.0
H2520 H 0.38086 0.53511 0.36823 0.0
H2521 H 0.41389 0.51157 0.36117 0.0
H2522 H 0.42874 0.49905 0.28874 0.0
C2523 C 0.48171 0.43211 0.28847 0.0
C2524 C 0.45026 0.45852 0.33523 0.0
C2525 C 0.4995 0.4172 0.28432 0.0
C2526 C 0.3823 0.5266 0.35215 0.0
C2527 C 0.40119 0.51303 0.34815 0.0
C2528 C 0.43443 0.48769 0.30184 0.0
C2529 C 0.48006 0.44347 0.30921 0.0
C2530 C 0.4608 0.45874 0.314 0.0
C2531 C 0.4038 0.50179 0.32743 0.0
C2532 C 0.42376 0.48733 0.32301 0.0
H2533 H 0.52702 0.4226 0.33452 0.0
H2534 H 0.49624 0.44865 0.34155 0.0
H2535 H 0.46069 0.47439 0.28098 0.0
H2536 H 0.35573 0.51925 0.30168 0.0
H2537 H 0.38837 0.49558 0.29491 0.0
C2538 C 0.12312 0.47492 0.80945 0.0
C2539 C 0.12578 0.46364 0.83016 0.0
C2540 C 0.10448 0.48876 0.80559 0.0
C2541 C 0.06034 0.52108 0.83523 0.0
H2542 H 0.03051 0.52027 0.77707 0.0
C2543 C 0.97657 0.56741 0.82042 0.0
C2544 C 0.97419 0.57976 0.8003 0.0
C2545 C 0.99473 0.55279 0.82348 0.0
C2546 C 0.0388 0.52086 0.79332 0.0
H2547 H 0.11069 0.45815 0.86302 0.0
H2548 H 0.07805 0.48217 0.85617 0.0
H2549 H 0.06275 0.4956 0.78378 0.0
H2550 H 0.98897 0.58592 0.76742 0.0
H2551 H 0.02081 0.56038 0.77287 0.0
H2552 H 0.03644 0.54632 0.84478 0.0
C2553 C 0.09059 0.48047 0.84302 0.0
C2554 C 0.05727 0.50672 0.79718 0.0
C2555 C 0.10926 0.46659 0.8469 0.0
C2556 C 0.99022 0.57667 0.78311 0.0
C2557 C 0.00845 0.56198 0.7862 0.0
C2558 C 0.04188 0.53518 0.83138 0.0
C2559 C 0.08798 0.49172 0.82231 0.0
C2560 C 0.06824 0.50664 0.8182 0.0
C2561 C 0.01104 0.55008 0.80655 0.0
C2562 C 0.03085 0.53521 0.81041 0.0
H2563 H 0.1355 0.47316 0.79615 0.0
H2564 H 0.10318 0.49743 0.78958 0.0
H2565 H 0.06863 0.52176 0.85147 0.0
H2566 H 0.96452 0.56917 0.83401 0.0
H2567 H 0.99598 0.54357 0.83919 0.0
C2568 C 0.6838 0.87275 0.97116 0.0
C2569 C 0.66298 0.8705 0.96004 0.0
C2570 C 0.68784 0.89094 0.98552 0.0
C2571 C 0.65832 0.93346 0.0198 0.0
H2572 H 0.71635 0.96358 0.02004 0.0
C2573 C 0.67311 0.01521 0.06942 0.0
C2574 C 0.69323 0.01707 0.08183 0.0
C2575 C 0.67002 -0.00236 0.05413 0.0
C2576 C 0.70014 0.95518 0.02032 0.0
H2577 H 0.63015 0.8859 0.9552 0.0
H2578 H 0.63731 0.91777 0.98011 0.0
H2579 H 0.70961 0.93252 0.99388 0.0
H2580 H 0.72605 0.00195 0.08751 0.0
H2581 H 0.72055 0.97111 0.06079 0.0
H2582 H 0.64883 0.95606 0.04622 0.0
C2583 C 0.65041 0.90525 0.9779 0.0
C2584 C 0.69627 0.9374 0.00534 0.0
C2585 C 0.64635 0.88703 0.96352 0.0
C2586 C 0.71036 0.00108 0.07823 0.0
C2587 C 0.70725 0.98345 0.06286 0.0
C2588 C 0.66218 0.95121 0.03474 0.0
C2589 C 0.67116 0.90735 0.98914 0.0
C2590 C 0.67529 0.92637 0.00489 0.0
C2591 C 0.68694 0.98143 0.05083 0.0
C2592 C 0.6831 0.96233 0.03513 0.0
H2593 H 0.69701 0.86034 0.96897 0.0
H2594 H 0.70389 0.89191 0.99414 0.0
H2595 H 0.64212 0.92504 0.02019 0.0
H2596 H 0.65956 0.02725 0.0716 0.0
H2597 H 0.65434 0.99678 0.04484 0.0
C2598 C 0.2119 0.49174 0.9161 0.0
C2599 C 0.1947 0.47596 0.91194 0.0
C2600 C 0.20858 0.50926 0.93158 0.0
C2601 C 0.16304 0.54164 0.95888 0.0
H2602 H 0.20953 0.55961 0.00109 0.0
C2603 C 0.14611 0.60622 0.02966 0.0
C2604 C 0.16293 0.62247 0.0335 0.0
C2605 C 0.15025 0.58784 0.01548 0.0
C2606 C 0.19645 0.55492 0.98926 0.0
H2607 H 0.16071 0.466 0.92135 0.0
H2608 H 0.15513 0.49624 0.94825 0.0
H2609 H 0.2167 0.52869 0.97488 0.0
H2610 H 0.1974 0.63193 0.02545 0.0
H2611 H 0.2044 0.60016 0.00065 0.0
H2612 H 0.14284 0.5679 0.97308 0.0
C2613 C 0.17102 0.49533 0.93931 0.0
C2614 C 0.20058 0.53723 0.97424 0.0
C2615 C 0.17432 0.47789 0.92393 0.0
C2616 C 0.18402 0.61976 0.02297 0.0
C2617 C 0.18813 0.60143 0.00882 0.0
C2618 C 0.15893 0.55932 0.97385 0.0
C2619 C 0.18798 0.51136 0.94315 0.0
C2620 C 0.18389 0.53036 0.95892 0.0
C2621 C 0.17129 0.58529 0.00483 0.0
C2622 C 0.17557 0.56617 0.98923 0.0
H2623 H 0.22779 0.4908 0.90717 0.0
H2624 H 0.22192 0.52145 0.93409 0.0
H2625 H 0.14997 0.537 0.94702 0.0
H2626 H 0.12971 0.60771 0.03752 0.0
H2627 H 0.137 0.57554 0.01295 0.0
C2628 C 0.31358 0.36742 0.51984 0.0
C2629 C 0.33435 0.36548 0.53113 0.0
C2630 C 0.30898 0.38605 0.50622 0.0
C2631 C 0.33661 0.43195 0.47459 0.0
H2632 H 0.27714 0.45908 0.47601 0.0
C2633 C 0.31762 0.51524 0.42887 0.0
C2634 C 0.2974 0.51662 0.41655 0.0
C2635 C 0.3216 0.49725 0.44348 0.0
C2636 C 0.29375 0.45156 0.47526 0.0
H2637 H 0.3666 0.38178 0.5368 0.0
H2638 H 0.35846 0.41442 0.51315 0.0
H2639 H 0.28543 0.42689 0.50024 0.0
H2640 H 0.26526 0.50027 0.41047 0.0
H2641 H 0.2723 0.46873 0.43599 0.0
H2642 H 0.34494 0.45657 0.44961 0.0
C2643 C 0.34583 0.40133 0.51469 0.0
C2644 C 0.29852 0.43311 0.48914 0.0
C2645 C 0.35045 0.38265 0.52834 0.0
C2646 C 0.28099 0.49979 0.4197 0.0
C2647 C 0.285 0.48174 0.43438 0.0
C2648 C 0.33186 0.45039 0.46075 0.0
C2649 C 0.32501 0.40327 0.50351 0.0
C2650 C 0.32001 0.42307 0.48896 0.0
C2651 C 0.30549 0.48012 0.4462 0.0
C2652 C 0.31039 0.46044 0.46093 0.0
H2653 H 0.30077 0.35451 0.52146 0.0
H2654 H 0.29293 0.38681 0.49757 0.0
H2655 H 0.35321 0.42439 0.47374 0.0
H2656 H 0.33062 0.52793 0.42705 0.0
H2657 H 0.33737 0.49675 0.45265 0.0
C2658 C 0.81411 0.12714 0.47607 0.0
C2659 C 0.83469 0.12919 0.46445 0.0
C2660 C 0.80986 0.10853 0.48982 0.0
C2661 C 0.82747 0.04972 0.49962 0.0
H2662 H 0.79715 0.05772 0.55697 0.0
C2663 C 0.82032 0.97864 0.56561 0.0
C2664 C 0.8001 0.97666 0.57787 0.0
C2665 C 0.82385 0.99683 0.5511 0.0
C2666 C 0.80535 0.05516 0.54086 0.0
H2667 H 0.86706 0.11321 0.4585 0.0
H2668 H 0.85966 0.08077 0.48271 0.0
H2669 H 0.80533 0.09049 0.53356 0.0
H2670 H 0.76754 0.99216 0.584 0.0
H2671 H 0.77368 0.02383 0.55845 0.0
H2672 H 0.82755 0.01439 0.50697 0.0
C2673 C 0.84672 0.09352 0.4809 0.0
C2674 C 0.81009 0.07395 0.52746 0.0
C2675 C 0.85101 0.11219 0.46713 0.0
C2676 C 0.78332 0.99313 0.57486 0.0
C2677 C 0.78689 0.01138 0.56034 0.0
C2678 C 0.82273 0.03093 0.51302 0.0
C2679 C 0.82605 0.09144 0.49234 0.0
C2680 C 0.82123 0.07146 0.50669 0.0
C2681 C 0.8073 0.01354 0.54846 0.0
C2682 C 0.81165 0.03343 0.53383 0.0
H2683 H 0.8011 0.13984 0.47443 0.0
H2684 H 0.79367 0.10733 0.49816 0.0
H2685 H 0.83573 0.04717 0.48354 0.0
H2686 H 0.83367 0.96633 0.56747 0.0
H2687 H 0.83986 -0.00191 0.54242 0.0
loop_
_geom_bond_atom_site_label_1
_geom_bond_atom_site_label_2
_geom_bond_distance
_geom_bond_site_symmetry_2
_ccdc_geom_bond_type
Sc0 O3 2.025 . S
Sc0 O10 2.105 . S
Sc0 O13 2.105 . S
Sc0 O16 2.105 . S
Sc0 O19 2.105 . S
Sc1 O3 2.025 . S
Sc1 O11 2.105 . S
Sc1 O15 2.105 . S
Sc1 O17 2.105 . S
Sc1 O21 2.105 . S
Sc2 O3 2.025 . S
Sc2 O12 2.105 . S
Sc2 O14 2.105 . S
Sc2 O18 2.105 . S
Sc2 O20 2.105 . S
O3 Sc0 2.025 . S
O3 Sc1 2.025 . S
O3 Sc2 2.025 . S
C4 O10 1.268 . S
C4 O20 1.268 . S
C5 O11 1.268 . S
C5 O19 1.268 . S
C6 O12 1.267 1_655 S
C6 O21 1.266 1_655 S
C7 O13 1.268 . S
C7 O17 1.268 . S
C8 O14 1.268 . S
C8 O16 1.268 . S
C9 O15 1.268 . S
C9 O18 1.268 . S
O10 Sc0 2.105 . S
O10 C4 1.268 . S
O11 Sc1 2.105 . S
O11 C5 1.268 . S
O12 Sc2 2.105 . S
O12 C6 1.267 1_455 S
O13 Sc0 2.105 . S
O13 C7 1.268 . S
O14 Sc2 2.105 . S
O14 C8 1.268 . S
O15 Sc1 2.105 . S
O15 C9 1.268 . S
O16 Sc0 2.105 . S
O16 C8 1.268 . S
O17 Sc1 2.105 . S
O17 C7 1.268 . S
O18 Sc2 2.105 . S
O18 C9 1.268 . S
O19 Sc0 2.105 . S
O19 C5 1.268 . S
O20 Sc2 2.105 . S
O20 C4 1.268 . S
O21 Sc1 2.105 . S
O21 C6 1.266 1_455 S
Sc22 O25 2.025 . S
Sc22 O32 2.105 . S
Sc22 O35 2.105 . S
Sc22 O38 2.105 . S
Sc22 O41 2.105 . S
Sc23 O25 2.025 . S
Sc23 O33 2.105 . S
Sc23 O37 2.105 . S
Sc23 O39 2.105 . S
Sc23 O43 2.105 . S
Sc24 O25 2.025 . S
Sc24 O34 2.105 . S
Sc24 O36 2.105 . S
Sc24 O40 2.105 . S
Sc24 O42 2.105 . S
O25 Sc22 2.025 . S
O25 Sc23 2.025 . S
O25 Sc24 2.025 . S
C26 O32 1.268 . S
C26 O42 1.268 . S
C27 O33 1.268 . S
C27 O41 1.268 . S
C28 O34 1.268 . S
C28 O43 1.268 . S
C29 O35 1.268 . S
C29 O39 1.268 . S
C30 O36 1.268 . S
C30 O38 1.268 . S
C31 O37 1.268 . S
C31 O40 1.268 . S
O32 Sc22 2.105 . S
O32 C26 1.268 . S
O33 Sc23 2.105 . S
O33 C27 1.268 . S
O34 Sc24 2.105 . S
O34 C28 1.268 . S
O35 Sc22 2.105 . S
O35 C29 1.268 . S
O36 Sc24 2.105 . S
O36 C30 1.268 . S
O37 Sc23 2.105 . S
O37 C31 1.268 . S
O38 Sc22 2.105 . S
O38 C30 1.268 . S
O39 Sc23 2.105 . S
O39 C29 1.268 . S
O40 Sc24 2.105 . S
O40 C31 1.268 . S
O41 Sc22 2.105 . S
O41 C27 1.268 . S
O42 Sc24 2.105 . S
O42 C26 1.268 . S
O43 Sc23 2.105 . S
O43 C28 1.268 . S
Sc44 O47 2.025 . S
Sc44 O54 2.105 . S
Sc44 O57 2.105 . S
Sc44 O60 2.105 . S
Sc44 O63 2.105 . S
Sc45 O47 2.025 . S
Sc45 O55 2.105 . S
Sc45 O59 2.105 . S
Sc45 O61 2.105 . S
Sc45 O65 2.105 . S
Sc46 O47 2.025 . S
Sc46 O56 2.105 . S
Sc46 O58 2.105 . S
Sc46 O62 2.105 . S
Sc46 O64 2.105 . S
O47 Sc44 2.025 . S
O47 Sc45 2.025 . S
O47 Sc46 2.025 . S
C48 O54 1.268 . S
C48 O64 1.268 . S
C49 O55 1.268 . S
C49 O63 1.268 . S
C50 O56 1.268 . S
C50 O65 1.268 . S
C51 O57 1.268 . S
C51 O61 1.268 . S
C52 O58 1.268 . S
C52 O60 1.268 . S
C53 O59 1.268 . S
C53 O62 1.268 . S
O54 Sc44 2.105 . S
O54 C48 1.268 . S
O55 Sc45 2.105 . S
O55 C49 1.268 . S
O56 Sc46 2.105 . S
O56 C50 1.268 . S
O57 Sc44 2.105 . S
O57 C51 1.268 . S
O58 Sc46 2.105 . S
O58 C52 1.268 . S
O59 Sc45 2.105 . S
O59 C53 1.268 . S
O60 Sc44 2.105 . S
O60 C52 1.268 . S
O61 Sc45 2.105 . S
O61 C51 1.268 . S
O62 Sc46 2.105 . S
O62 C53 1.268 . S
O63 Sc44 2.105 . S
O63 C49 1.268 . S
O64 Sc46 2.105 . S
O64 C48 1.268 . S
O65 Sc45 2.105 . S
O65 C50 1.268 . S
Sc66 O69 2.025 . S
Sc66 O76 2.105 . S
Sc66 O79 2.105 . S
Sc66 O82 2.105 . S
Sc66 O85 2.105 . S
Sc67 O69 2.025 . S
Sc67 O77 2.105 . S
Sc67 O81 2.105 . S
Sc67 O83 2.105 . S
Sc67 O87 2.105 . S
Sc68 O69 2.025 . S
Sc68 O78 2.105 . S
Sc68 O80 2.105 . S
Sc68 O84 2.105 . S
Sc68 O86 2.105 . S
O69 Sc66 2.025 . S
O69 Sc67 2.025 . S
O69 Sc68 2.025 . S
C70 O76 1.268 . S
C70 O86 1.268 . S
C71 O77 1.268 . S
C71 O85 1.268 . S
C72 O78 1.268 . S
C72 O87 1.268 . S
C73 O79 1.267 1_455 S
C73 O83 1.266 1_455 S
C74 O80 1.268 . S
C74 O82 1.268 . S
C75 O81 1.268 . S
C75 O84 1.268 . S
O76 Sc66 2.105 . S
O76 C70 1.268 . S
O77 Sc67 2.105 . S
O77 C71 1.268 . S
O78 Sc68 2.105 . S
O78 C72 1.268 . S
O79 Sc66 2.105 . S
O79 C73 1.267 1_655 S
O80 Sc68 2.105 . S
O80 C74 1.268 . S
O81 Sc67 2.105 . S
O81 C75 1.268 . S
O82 Sc66 2.105 . S
O82 C74 1.268 . S
O83 Sc67 2.105 . S
O83 C73 1.266 1_655 S
O84 Sc68 2.105 . S
O84 C75 1.268 . S
O85 Sc66 2.105 . S
O85 C71 1.268 . S
O86 Sc68 2.105 . S
O86 C70 1.268 . S
O87 Sc67 2.105 . S
O87 C72 1.268 . S
Sc88 O91 2.025 . S
Sc88 O98 2.105 . S
Sc88 O101 2.105 . S
Sc88 O104 2.105 . S
Sc88 O107 2.105 . S
Sc89 O91 2.025 . S
Sc89 O99 2.105 . S
Sc89 O103 2.105 . S
Sc89 O105 2.105 . S
Sc89 O109 2.105 . S
Sc90 O91 2.025 . S
Sc90 O100 2.105 . S
Sc90 O102 2.105 . S
Sc90 O106 2.105 . S
Sc90 O108 2.105 . S
O91 Sc88 2.025 . S
O91 Sc89 2.025 . S
O91 Sc90 2.025 . S
C92 O98 1.268 . S
C92 O108 1.268 . S
C93 O99 1.268 . S
C93 O107 1.268 . S
C94 O100 1.267 1_565 S
C94 O109 1.266 1_565 S
C95 O101 1.268 . S
C95 O105 1.268 . S
C96 O102 1.268 . S
C96 O104 1.268 . S
C97 O103 1.268 . S
C97 O106 1.268 . S
O98 Sc88 2.105 . S
O98 C92 1.268 . S
O99 Sc89 2.105 . S
O99 C93 1.268 . S
O100 Sc90 2.105 . S
O100 C94 1.267 1_545 S
O101 Sc88 2.105 . S
O101 C95 1.268 . S
O102 Sc90 2.105 . S
O102 C96 1.268 . S
O103 Sc89 2.105 . S
O103 C97 1.268 . S
O104 Sc88 2.105 . S
O104 C96 1.268 . S
O105 Sc89 2.105 . S
O105 C95 1.268 . S
O106 Sc90 2.105 . S
O106 C97 1.268 . S
O107 Sc88 2.105 . S
O107 C93 1.268 . S
O108 Sc90 2.105 . S
O108 C92 1.268 . S
O109 Sc89 2.105 . S
O109 C94 1.266 1_545 S
Sc110 O113 2.025 . S
Sc110 O120 2.105 . S
Sc110 O123 2.105 . S
Sc110 O126 2.105 . S
Sc110 O129 2.105 . S
Sc111 O113 2.025 . S
Sc111 O121 2.105 . S
Sc111 O125 2.105 . S
Sc111 O127 2.105 . S
Sc111 O131 2.105 . S
Sc112 O113 2.025 . S
Sc112 O122 2.105 . S
Sc112 O124 2.105 . S
Sc112 O128 2.105 . S
Sc112 O130 2.105 . S
O113 Sc110 2.025 . S
O113 Sc111 2.025 . S
O113 Sc112 2.025 . S
C114 O120 1.268 . S
C114 O130 1.268 . S
C115 O121 1.268 . S
C115 O129 1.268 . S
C116 O122 1.268 . S
C116 O131 1.268 . S
C117 O123 1.267 1_545 S
C117 O127 1.266 1_545 S
C118 O124 1.268 . S
C118 O126 1.268 . S
C119 O125 1.268 . S
C119 O128 1.268 . S
O120 Sc110 2.105 . S
O120 C114 1.268 . S
O121 Sc111 2.105 . S
O121 C115 1.268 . S
O122 Sc112 2.105 . S
O122 C116 1.268 . S
O123 Sc110 2.105 . S
O123 C117 1.267 1_565 S
O124 Sc112 2.105 . S
O124 C118 1.268 . S
O125 Sc111 2.105 . S
O125 C119 1.268 . S
O126 Sc110 2.105 . S
O126 C118 1.268 . S
O127 Sc111 2.105 . S
O127 C117 1.266 1_565 S
O128 Sc112 2.105 . S
O128 C119 1.268 . S
O129 Sc110 2.105 . S
O129 C115 1.268 . S
O130 Sc112 2.105 . S
O130 C114 1.268 . S
O131 Sc111 2.105 . S
O131 C116 1.268 . S
Sc132 O135 2.025 . S
Sc132 O142 2.105 . S
Sc132 O145 2.105 . S
Sc132 O148 2.105 . S
Sc132 O151 2.105 . S
Sc133 O135 2.025 . S
Sc133 O143 2.105 . S
Sc133 O147 2.105 . S
Sc133 O149 2.105 . S
Sc133 O153 2.105 . S
Sc134 O135 2.025 . S
Sc134 O144 2.105 . S
Sc134 O146 2.105 . S
Sc134 O150 2.105 . S
Sc134 O152 2.105 . S
O135 Sc132 2.025 . S
O135 Sc133 2.025 . S
O135 Sc134 2.025 . S
C136 O142 1.268 . S
C136 O152 1.268 . S
C137 O143 1.268 . S
C137 O151 1.268 . S
C138 O144 1.268 . S
C138 O153 1.268 . S
C139 O145 1.268 . S
C139 O149 1.268 . S
C140 O146 1.268 . S
C140 O148 1.268 . S
C141 O147 1.268 . S
C141 O150 1.268 . S
O142 Sc132 2.105 . S
O142 C136 1.268 . S
O143 Sc133 2.105 . S
O143 C137 1.268 . S
O144 Sc134 2.105 . S
O144 C138 1.268 . S
O145 Sc132 2.105 . S
O145 C139 1.268 . S
O146 Sc134 2.105 . S
O146 C140 1.268 . S
O147 Sc133 2.105 . S
O147 C141 1.268 . S
O148 Sc132 2.105 . S
O148 C140 1.268 . S
O149 Sc133 2.105 . S
O149 C139 1.268 . S
O150 Sc134 2.105 . S
O150 C141 1.268 . S
O151 Sc132 2.105 . S
O151 C137 1.268 . S
O152 Sc134 2.105 . S
O152 C136 1.268 . S
O153 Sc133 2.105 . S
O153 C138 1.268 . S
Sc154 O157 2.025 . S
Sc154 O164 2.105 . S
Sc154 O167 2.105 . S
Sc154 O170 2.105 . S
Sc154 O173 2.105 . S
Sc155 O157 2.025 . S
Sc155 O165 2.105 . S
Sc155 O169 2.105 . S
Sc155 O171 2.105 . S
Sc155 O175 2.105 . S
Sc156 O157 2.025 . S
Sc156 O166 2.105 . S
Sc156 O168 2.105 . S
Sc156 O172 2.105 . S
Sc156 O174 2.105 . S
O157 Sc154 2.025 . S
O157 Sc155 2.025 . S
O157 Sc156 2.025 . S
C158 O164 1.268 . S
C158 O174 1.268 . S
C159 O165 1.268 . S
C159 O173 1.268 . S
C160 O166 1.268 . S
C160 O175 1.268 . S
C161 O167 1.268 . S
C161 O171 1.268 . S
C162 O168 1.268 . S
C162 O170 1.268 . S
C163 O169 1.268 . S
C163 O172 1.268 . S
O164 Sc154 2.105 . S
O164 C158 1.268 . S
O165 Sc155 2.105 . S
O165 C159 1.268 . S
O166 Sc156 2.105 . S
O166 C160 1.268 . S
O167 Sc154 2.105 . S
O167 C161 1.268 . S
O168 Sc156 2.105 . S
O168 C162 1.268 . S
O169 Sc155 2.105 . S
O169 C163 1.268 . S
O170 Sc154 2.105 . S
O170 C162 1.268 . S
O171 Sc155 2.105 . S
O171 C161 1.268 . S
O172 Sc156 2.105 . S
O172 C163 1.268 . S
O173 Sc154 2.105 . S
O173 C159 1.268 . S
O174 Sc156 2.105 . S
O174 C158 1.268 . S
O175 Sc155 2.105 . S
O175 C160 1.268 . S
Sc176 O179 2.025 . S
Sc176 O186 2.105 . S
Sc176 O189 2.105 . S
Sc176 O192 2.105 . S
Sc176 O195 2.105 . S
Sc177 O179 2.025 . S
Sc177 O187 2.105 . S
Sc177 O191 2.105 . S
Sc177 O193 2.105 . S
Sc177 O197 2.105 . S
Sc178 O179 2.025 . S
Sc178 O188 2.105 . S
Sc178 O190 2.105 . S
Sc178 O194 2.105 . S
Sc178 O196 2.105 . S
O179 Sc176 2.025 . S
O179 Sc177 2.025 . S
O179 Sc178 2.025 . S
C180 O186 1.268 . S
C180 O196 1.268 . S
C181 O187 1.268 . S
C181 O195 1.268 . S
C182 O188 1.267 1_556 S
C182 O197 1.266 1_556 S
C183 O189 1.268 . S
C183 O193 1.268 . S
C184 O190 1.268 . S
C184 O192 1.268 . S
C185 O191 1.268 . S
C185 O194 1.268 . S
O186 Sc176 2.105 . S
O186 C180 1.268 . S
O187 Sc177 2.105 . S
O187 C181 1.268 . S
O188 Sc178 2.105 . S
O188 C182 1.267 1_554 S
O189 Sc176 2.105 . S
O189 C183 1.268 . S
O190 Sc178 2.105 . S
O190 C184 1.268 . S
O191 Sc177 2.105 . S
O191 C185 1.268 . S
O192 Sc176 2.105 . S
O192 C184 1.268 . S
O193 Sc177 2.105 . S
O193 C183 1.268 . S
O194 Sc178 2.105 . S
O194 C185 1.268 . S
O195 Sc176 2.105 . S
O195 C181 1.268 . S
O196 Sc178 2.105 . S
O196 C180 1.268 . S
O197 Sc177 2.105 . S
O197 C182 1.266 1_554 S
Sc198 O201 2.025 . S
Sc198 O208 2.105 . S
Sc198 O211 2.105 . S
Sc198 O214 2.105 . S
Sc198 O217 2.105 . S
Sc199 O201 2.025 . S
Sc199 O209 2.105 . S
Sc199 O213 2.105 . S
Sc199 O215 2.105 . S
Sc199 O219 2.105 . S
Sc200 O201 2.025 . S
Sc200 O210 2.105 . S
Sc200 O212 2.105 . S
Sc200 O216 2.105 . S
Sc200 O218 2.105 . S
O201 Sc198 2.025 . S
O201 Sc199 2.025 . S
O201 Sc200 2.025 . S
C202 O208 1.268 . S
C202 O218 1.268 . S
C203 O209 1.268 . S
C203 O217 1.268 . S
C204 O210 1.268 . S
C204 O219 1.268 . S
C205 O211 1.267 1_554 S
C205 O215 1.266 1_554 S
C206 O212 1.268 . S
C206 O214 1.268 . S
C207 O213 1.268 . S
C207 O216 1.268 . S
O208 Sc198 2.105 . S
O208 C202 1.268 . S
O209 Sc199 2.105 . S
O209 C203 1.268 . S
O210 Sc200 2.105 . S
O210 C204 1.268 . S
O211 Sc198 2.105 . S
O211 C205 1.267 1_556 S
O212 Sc200 2.105 . S
O212 C206 1.268 . S
O213 Sc199 2.105 . S
O213 C207 1.268 . S
O214 Sc198 2.105 . S
O214 C206 1.268 . S
O215 Sc199 2.105 . S
O215 C205 1.266 1_556 S
O216 Sc200 2.105 . S
O216 C207 1.268 . S
O217 Sc198 2.105 . S
O217 C203 1.268 . S
O218 Sc200 2.105 . S
O218 C202 1.268 . S
O219 Sc199 2.105 . S
O219 C204 1.268 . S
Sc220 O223 2.025 . S
Sc220 O230 2.105 . S
Sc220 O233 2.105 . S
Sc220 O236 2.105 . S
Sc220 O239 2.105 . S
Sc221 O223 2.025 . S
Sc221 O231 2.105 . S
Sc221 O235 2.105 . S
Sc221 O237 2.105 . S
Sc221 O241 2.105 . S
Sc222 O223 2.025 . S
Sc222 O232 2.105 . S
Sc222 O234 2.105 . S
Sc222 O238 2.105 . S
Sc222 O240 2.105 . S
O223 Sc220 2.025 . S
O223 Sc221 2.025 . S
O223 Sc222 2.025 . S
C224 O230 1.268 . S
C224 O240 1.268 . S
C225 O231 1.268 . S
C225 O239 1.268 . S
C226 O232 1.268 . S
C226 O241 1.268 . S
C227 O233 1.268 . S
C227 O237 1.268 . S
C228 O234 1.268 . S
C228 O236 1.268 . S
C229 O235 1.268 . S
C229 O238 1.268 . S
O230 Sc220 2.105 . S
O230 C224 1.268 . S
O231 Sc221 2.105 . S
O231 C225 1.268 . S
O232 Sc222 2.105 . S
O232 C226 1.268 . S
O233 Sc220 2.105 . S
O233 C227 1.268 . S
O234 Sc222 2.105 . S
O234 C228 1.268 . S
O235 Sc221 2.105 . S
O235 C229 1.268 . S
O236 Sc220 2.105 . S
O236 C228 1.268 . S
O237 Sc221 2.105 . S
O237 C227 1.268 . S
O238 Sc222 2.105 . S
O238 C229 1.268 . S
O239 Sc220 2.105 . S
O239 C225 1.268 . S
O240 Sc222 2.105 . S
O240 C224 1.268 . S
O241 Sc221 2.105 . S
O241 C226 1.268 . S
Sc242 O245 2.025 . S
Sc242 O252 2.105 . S
Sc242 O255 2.105 . S
Sc242 O258 2.105 . S
Sc242 O261 2.105 . S
Sc243 O245 2.025 . S
Sc243 O253 2.105 . S
Sc243 O257 2.105 . S
Sc243 O259 2.105 . S
Sc243 O263 2.105 . S
Sc244 O245 2.025 . S
Sc244 O254 2.105 . S
Sc244 O256 2.105 . S
Sc244 O260 2.105 . S
Sc244 O262 2.105 . S
O245 Sc242 2.025 . S
O245 Sc243 2.025 . S
O245 Sc244 2.025 . S
C246 O252 1.268 . S
C246 O262 1.268 . S
C247 O253 1.268 . S
C247 O261 1.268 . S
C248 O254 1.268 . S
C248 O263 1.268 . S
C249 O255 1.268 . S
C249 O259 1.268 . S
C250 O256 1.268 . S
C250 O258 1.268 . S
C251 O257 1.268 . S
C251 O260 1.268 . S
O252 Sc242 2.105 . S
O252 C246 1.268 . S
O253 Sc243 2.105 . S
O253 C247 1.268 . S
O254 Sc244 2.105 . S
O254 C248 1.268 . S
O255 Sc242 2.105 . S
O255 C249 1.268 . S
O256 Sc244 2.105 . S
O256 C250 1.268 . S
O257 Sc243 2.105 . S
O257 C251 1.268 . S
O258 Sc242 2.105 . S
O258 C250 1.268 . S
O259 Sc243 2.105 . S
O259 C249 1.268 . S
O260 Sc244 2.105 . S
O260 C251 1.268 . S
O261 Sc242 2.105 . S
O261 C247 1.268 . S
O262 Sc244 2.105 . S
O262 C246 1.268 . S
O263 Sc243 2.105 . S
O263 C248 1.268 . S
Sc264 O267 2.025 . S
Sc264 O274 2.105 . S
Sc264 O277 2.105 . S
Sc264 O280 2.105 . S
Sc264 O283 2.105 . S
Sc265 O267 2.025 . S
Sc265 O275 2.105 . S
Sc265 O279 2.105 . S
Sc265 O281 2.105 . S
Sc265 O285 2.105 . S
Sc266 O267 2.025 . S
Sc266 O276 2.105 . S
Sc266 O278 2.105 . S
Sc266 O282 2.105 . S
Sc266 O284 2.105 . S
O267 Sc264 2.025 . S
O267 Sc265 2.025 . S
O267 Sc266 2.025 . S
C268 O274 1.268 . S
C268 O284 1.268 . S
C269 O275 1.266 1_455 S
C269 O283 1.267 1_455 S
C270 O276 1.268 . S
C270 O285 1.268 . S
C271 O277 1.268 . S
C271 O281 1.268 . S
C272 O278 1.268 . S
C272 O280 1.268 . S
C273 O279 1.268 . S
C273 O282 1.268 . S
O274 Sc264 2.105 . S
O274 C268 1.268 . S
O275 Sc265 2.105 . S
O275 C269 1.266 1_655 S
O276 Sc266 2.105 . S
O276 C270 1.268 . S
O277 Sc264 2.105 . S
O277 C271 1.268 . S
O278 Sc266 2.105 . S
O278 C272 1.268 . S
O279 Sc265 2.105 . S
O279 C273 1.268 . S
O280 Sc264 2.105 . S
O280 C272 1.268 . S
O281 Sc265 2.105 . S
O281 C271 1.268 . S
O282 Sc266 2.105 . S
O282 C273 1.268 . S
O283 Sc264 2.105 . S
O283 C269 1.267 1_655 S
O284 Sc266 2.105 . S
O284 C268 1.268 . S
O285 Sc265 2.105 . S
O285 C270 1.268 . S
Sc286 O289 2.025 . S
Sc286 O296 2.105 . S
Sc286 O299 2.105 . S
Sc286 O302 2.105 . S
Sc286 O305 2.105 . S
Sc287 O289 2.025 . S
Sc287 O297 2.105 . S
Sc287 O301 2.105 . S
Sc287 O303 2.105 . S
Sc287 O307 2.105 . S
Sc288 O289 2.025 . S
Sc288 O298 2.105 . S
Sc288 O300 2.105 . S
Sc288 O304 2.105 . S
Sc288 O306 2.105 . S
O289 Sc286 2.025 . S
O289 Sc287 2.025 . S
O289 Sc288 2.025 . S
C290 O296 1.268 . S
C290 O306 1.268 . S
C291 O297 1.268 . S
C291 O305 1.268 . S
C292 O298 1.268 . S
C292 O307 1.268 . S
C293 O299 1.268 . S
C293 O303 1.268 . S
C294 O300 1.268 . S
C294 O302 1.268 . S
C295 O301 1.268 . S
C295 O304 1.268 . S
O296 Sc286 2.105 . S
O296 C290 1.268 . S
O297 Sc287 2.105 . S
O297 C291 1.268 . S
O298 Sc288 2.105 . S
O298 C292 1.268 . S
O299 Sc286 2.105 . S
O299 C293 1.268 . S
O300 Sc288 2.105 . S
O300 C294 1.268 . S
O301 Sc287 2.105 . S
O301 C295 1.268 . S
O302 Sc286 2.105 . S
O302 C294 1.268 . S
O303 Sc287 2.105 . S
O303 C293 1.268 . S
O304 Sc288 2.105 . S
O304 C295 1.268 . S
O305 Sc286 2.105 . S
O305 C291 1.268 . S
O306 Sc288 2.105 . S
O306 C290 1.268 . S
O307 Sc287 2.105 . S
O307 C292 1.268 . S
Sc308 O311 2.025 . S
Sc308 O318 2.105 . S
Sc308 O321 2.105 . S
Sc308 O324 2.105 . S
Sc308 O327 2.105 . S
Sc309 O311 2.025 . S
Sc309 O319 2.105 . S
Sc309 O323 2.105 . S
Sc309 O325 2.105 . S
Sc309 O329 2.105 . S
Sc310 O311 2.025 . S
Sc310 O320 2.105 . S
Sc310 O322 2.105 . S
Sc310 O326 2.105 . S
Sc310 O328 2.105 . S
O311 Sc308 2.025 . S
O311 Sc309 2.025 . S
O311 Sc310 2.025 . S
C312 O318 1.268 . S
C312 O328 1.268 . S
C313 O319 1.268 . S
C313 O327 1.268 . S
C314 O320 1.268 . S
C314 O329 1.268 . S
C315 O321 1.268 . S
C315 O325 1.268 . S
C316 O322 1.268 . S
C316 O324 1.268 . S
C317 O323 1.268 . S
C317 O326 1.268 . S
O318 Sc308 2.105 . S
O318 C312 1.268 . S
O319 Sc309 2.105 . S
O319 C313 1.268 . S
O320 Sc310 2.105 . S
O320 C314 1.268 . S
O321 Sc308 2.105 . S
O321 C315 1.268 . S
O322 Sc310 2.105 . S
O322 C316 1.268 . S
O323 Sc309 2.105 . S
O323 C317 1.268 . S
O324 Sc308 2.105 . S
O324 C316 1.268 . S
O325 Sc309 2.105 . S
O325 C315 1.268 . S
O326 Sc310 2.105 . S
O326 C317 1.268 . S
O327 Sc308 2.105 . S
O327 C313 1.268 . S
O328 Sc310 2.105 . S
O328 C312 1.268 . S
O329 Sc309 2.105 . S
O329 C314 1.268 . S
Sc330 O333 2.025 . S
Sc330 O340 2.105 . S
Sc330 O343 2.105 . S
Sc330 O346 2.105 . S
Sc330 O349 2.105 . S
Sc331 O333 2.025 . S
Sc331 O341 2.105 . S
Sc331 O345 2.105 . S
Sc331 O347 2.105 . S
Sc331 O351 2.105 . S
Sc332 O333 2.025 . S
Sc332 O342 2.105 . S
Sc332 O344 2.105 . S
Sc332 O348 2.105 . S
Sc332 O350 2.105 . S
O333 Sc330 2.025 . S
O333 Sc331 2.025 . S
O333 Sc332 2.025 . S
C334 O340 1.268 . S
C334 O350 1.268 . S
C335 O341 1.266 1_655 S
C335 O349 1.267 1_655 S
C336 O342 1.268 . S
C336 O351 1.268 . S
C337 O343 1.268 . S
C337 O347 1.268 . S
C338 O344 1.268 . S
C338 O346 1.268 . S
C339 O345 1.268 . S
C339 O348 1.268 . S
O340 Sc330 2.105 . S
O340 C334 1.268 . S
O341 Sc331 2.105 . S
O341 C335 1.266 1_455 S
O342 Sc332 2.105 . S
O342 C336 1.268 . S
O343 Sc330 2.105 . S
O343 C337 1.268 . S
O344 Sc332 2.105 . S
O344 C338 1.268 . S
O345 Sc331 2.105 . S
O345 C339 1.268 . S
O346 Sc330 2.105 . S
O346 C338 1.268 . S
O347 Sc331 2.105 . S
O347 C337 1.268 . S
O348 Sc332 2.105 . S
O348 C339 1.268 . S
O349 Sc330 2.105 . S
O349 C335 1.267 1_455 S
O350 Sc332 2.105 . S
O350 C334 1.268 . S
O351 Sc331 2.105 . S
O351 C336 1.268 . S
Sc352 O355 2.025 . S
Sc352 O362 2.105 . S
Sc352 O365 2.105 . S
Sc352 O368 2.105 . S
Sc352 O371 2.105 . S
Sc353 O355 2.025 . S
Sc353 O363 2.105 . S
Sc353 O367 2.105 . S
Sc353 O369 2.105 . S
Sc353 O373 2.105 . S
Sc354 O355 2.025 . S
Sc354 O364 2.105 . S
Sc354 O366 2.105 . S
Sc354 O370 2.105 . S
Sc354 O372 2.105 . S
O355 Sc352 2.025 . S
O355 Sc353 2.025 . S
O355 Sc354 2.025 . S
C356 O362 1.268 . S
C356 O372 1.268 . S
C357 O363 1.268 . S
C357 O371 1.268 . S
C358 O364 1.268 . S
C358 O373 1.268 . S
C359 O365 1.268 . S
C359 O369 1.268 . S
C360 O366 1.268 . S
C360 O368 1.268 . S
C361 O367 1.266 1_545 S
C361 O370 1.267 1_545 S
O362 Sc352 2.105 . S
O362 C356 1.268 . S
O363 Sc353 2.105 . S
O363 C357 1.268 . S
O364 Sc354 2.105 . S
O364 C358 1.268 . S
O365 Sc352 2.105 . S
O365 C359 1.268 . S
O366 Sc354 2.105 . S
O366 C360 1.268 . S
O367 Sc353 2.105 . S
O367 C361 1.266 1_565 S
O368 Sc352 2.105 . S
O368 C360 1.268 . S
O369 Sc353 2.105 . S
O369 C359 1.268 . S
O370 Sc354 2.105 . S
O370 C361 1.267 1_565 S
O371 Sc352 2.105 . S
O371 C357 1.268 . S
O372 Sc354 2.105 . S
O372 C356 1.268 . S
O373 Sc353 2.105 . S
O373 C358 1.268 . S
Sc374 O377 2.025 . S
Sc374 O384 2.105 . S
Sc374 O387 2.105 . S
Sc374 O390 2.105 . S
Sc374 O393 2.105 . S
Sc375 O377 2.025 . S
Sc375 O385 2.105 . S
Sc375 O389 2.105 . S
Sc375 O391 2.105 . S
Sc375 O395 2.105 . S
Sc376 O377 2.025 . S
Sc376 O386 2.105 . S
Sc376 O388 2.105 . S
Sc376 O392 2.105 . S
Sc376 O394 2.105 . S
O377 Sc374 2.025 . S
O377 Sc375 2.025 . S
O377 Sc376 2.025 . S
C378 O384 1.268 . S
C378 O394 1.268 . S
C379 O385 1.266 1_565 S
C379 O393 1.267 1_565 S
C380 O386 1.268 . S
C380 O395 1.268 . S
C381 O387 1.268 . S
C381 O391 1.268 . S
C382 O388 1.268 . S
C382 O390 1.268 . S
C383 O389 1.268 . S
C383 O392 1.268 . S
O384 Sc374 2.105 . S
O384 C378 1.268 . S
O385 Sc375 2.105 . S
O385 C379 1.266 1_545 S
O386 Sc376 2.105 . S
O386 C380 1.268 . S
O387 Sc374 2.105 . S
O387 C381 1.268 . S
O388 Sc376 2.105 . S
O388 C382 1.268 . S
O389 Sc375 2.105 . S
O389 C383 1.268 . S
O390 Sc374 2.105 . S
O390 C382 1.268 . S
O391 Sc375 2.105 . S
O391 C381 1.268 . S
O392 Sc376 2.105 . S
O392 C383 1.268 . S
O393 Sc374 2.105 . S
O393 C379 1.267 1_545 S
O394 Sc376 2.105 . S
O394 C378 1.268 . S
O395 Sc375 2.105 . S
O395 C380 1.268 . S
Sc396 O399 2.025 . S
Sc396 O406 2.105 . S
Sc396 O409 2.105 . S
Sc396 O412 2.105 . S
Sc396 O415 2.105 . S
Sc397 O399 2.025 . S
Sc397 O407 2.105 . S
Sc397 O411 2.105 . S
Sc397 O413 2.105 . S
Sc397 O417 2.105 . S
Sc398 O399 2.025 . S
Sc398 O408 2.105 . S
Sc398 O410 2.105 . S
Sc398 O414 2.105 . S
Sc398 O416 2.105 . S
O399 Sc396 2.025 . S
O399 Sc397 2.025 . S
O399 Sc398 2.025 . S
C400 O406 1.268 . S
C400 O416 1.268 . S
C401 O407 1.268 . S
C401 O415 1.268 . S
C402 O408 1.268 . S
C402 O417 1.268 . S
C403 O409 1.268 . S
C403 O413 1.268 . S
C404 O410 1.268 . S
C404 O412 1.268 . S
C405 O411 1.268 . S
C405 O414 1.268 . S
O406 Sc396 2.105 . S
O406 C400 1.268 . S
O407 Sc397 2.105 . S
O407 C401 1.268 . S
O408 Sc398 2.105 . S
O408 C402 1.268 . S
O409 Sc396 2.105 . S
O409 C403 1.268 . S
O410 Sc398 2.105 . S
O410 C404 1.268 . S
O411 Sc397 2.105 . S
O411 C405 1.268 . S
O412 Sc396 2.105 . S
O412 C404 1.268 . S
O413 Sc397 2.105 . S
O413 C403 1.268 . S
O414 Sc398 2.105 . S
O414 C405 1.268 . S
O415 Sc396 2.105 . S
O415 C401 1.268 . S
O416 Sc398 2.105 . S
O416 C400 1.268 . S
O417 Sc397 2.105 . S
O417 C402 1.268 . S
Sc418 O421 2.025 . S
Sc418 O428 2.105 . S
Sc418 O431 2.105 . S
Sc418 O434 2.105 . S
Sc418 O437 2.105 . S
Sc419 O421 2.025 . S
Sc419 O429 2.105 . S
Sc419 O433 2.105 . S
Sc419 O435 2.105 . S
Sc419 O439 2.105 . S
Sc420 O421 2.025 . S
Sc420 O430 2.105 . S
Sc420 O432 2.105 . S
Sc420 O436 2.105 . S
Sc420 O438 2.105 . S
O421 Sc418 2.025 . S
O421 Sc419 2.025 . S
O421 Sc420 2.025 . S
C422 O428 1.268 . S
C422 O438 1.268 . S
C423 O429 1.268 . S
C423 O437 1.268 . S
C424 O430 1.268 . S
C424 O439 1.268 . S
C425 O431 1.268 . S
C425 O435 1.268 . S
C426 O432 1.268 . S
C426 O434 1.268 . S
C427 O433 1.268 . S
C427 O436 1.268 . S
O428 Sc418 2.105 . S
O428 C422 1.268 . S
O429 Sc419 2.105 . S
O429 C423 1.268 . S
O430 Sc420 2.105 . S
O430 C424 1.268 . S
O431 Sc418 2.105 . S
O431 C425 1.268 . S
O432 Sc420 2.105 . S
O432 C426 1.268 . S
O433 Sc419 2.105 . S
O433 C427 1.268 . S
O434 Sc418 2.105 . S
O434 C426 1.268 . S
O435 Sc419 2.105 . S
O435 C425 1.268 . S
O436 Sc420 2.105 . S
O436 C427 1.268 . S
O437 Sc418 2.105 . S
O437 C423 1.268 . S
O438 Sc420 2.105 . S
O438 C422 1.268 . S
O439 Sc419 2.105 . S
O439 C424 1.268 . S
Sc440 O443 2.025 . S
Sc440 O450 2.105 . S
Sc440 O453 2.105 . S
Sc440 O456 2.105 . S
Sc440 O459 2.105 . S
Sc441 O443 2.025 . S
Sc441 O451 2.105 . S
Sc441 O455 2.105 . S
Sc441 O457 2.105 . S
Sc441 O461 2.105 . S
Sc442 O443 2.025 . S
Sc442 O452 2.105 . S
Sc442 O454 2.105 . S
Sc442 O458 2.105 . S
Sc442 O460 2.105 . S
O443 Sc440 2.025 . S
O443 Sc441 2.025 . S
O443 Sc442 2.025 . S
C444 O450 1.268 . S
C444 O460 1.268 . S
C445 O451 1.268 . S
C445 O459 1.268 . S
C446 O452 1.268 . S
C446 O461 1.268 . S
C447 O453 1.268 . S
C447 O457 1.268 . S
C448 O454 1.268 . S
C448 O456 1.268 . S
C449 O455 1.266 1_554 S
C449 O458 1.267 1_554 S
O450 Sc440 2.105 . S
O450 C444 1.268 . S
O451 Sc441 2.105 . S
O451 C445 1.268 . S
O452 Sc442 2.105 . S
O452 C446 1.268 . S
O453 Sc440 2.105 . S
O453 C447 1.268 . S
O454 Sc442 2.105 . S
O454 C448 1.268 . S
O455 Sc441 2.105 . S
O455 C449 1.266 1_556 S
O456 Sc440 2.105 . S
O456 C448 1.268 . S
O457 Sc441 2.105 . S
O457 C447 1.268 . S
O458 Sc442 2.105 . S
O458 C449 1.267 1_556 S
O459 Sc440 2.105 . S
O459 C445 1.268 . S
O460 Sc442 2.105 . S
O460 C444 1.268 . S
O461 Sc441 2.105 . S
O461 C446 1.268 . S
Sc462 O465 2.025 . S
Sc462 O472 2.105 . S
Sc462 O475 2.105 . S
Sc462 O478 2.105 . S
Sc462 O481 2.105 . S
Sc463 O465 2.025 . S
Sc463 O473 2.105 . S
Sc463 O477 2.105 . S
Sc463 O479 2.105 . S
Sc463 O483 2.105 . S
Sc464 O465 2.025 . S
Sc464 O474 2.105 . S
Sc464 O476 2.105 . S
Sc464 O480 2.105 . S
Sc464 O482 2.105 . S
O465 Sc462 2.025 . S
O465 Sc463 2.025 . S
O465 Sc464 2.025 . S
C466 O472 1.268 . S
C466 O482 1.268 . S
C467 O473 1.266 1_556 S
C467 O481 1.267 1_556 S
C468 O474 1.268 . S
C468 O483 1.268 . S
C469 O475 1.268 . S
C469 O479 1.268 . S
C470 O476 1.268 . S
C470 O478 1.268 . S
C471 O477 1.268 . S
C471 O480 1.268 . S
O472 Sc462 2.105 . S
O472 C466 1.268 . S
O473 Sc463 2.105 . S
O473 C467 1.266 1_554 S
O474 Sc464 2.105 . S
O474 C468 1.268 . S
O475 Sc462 2.105 . S
O475 C469 1.268 . S
O476 Sc464 2.105 . S
O476 C470 1.268 . S
O477 Sc463 2.105 . S
O477 C471 1.268 . S
O478 Sc462 2.105 . S
O478 C470 1.268 . S
O479 Sc463 2.105 . S
O479 C469 1.268 . S
O480 Sc464 2.105 . S
O480 C471 1.268 . S
O481 Sc462 2.105 . S
O481 C467 1.267 1_554 S
O482 Sc464 2.105 . S
O482 C466 1.268 . S
O483 Sc463 2.105 . S
O483 C468 1.268 . S
Sc484 O487 2.025 . S
Sc484 O494 2.105 . S
Sc484 O497 2.105 . S
Sc484 O500 2.105 . S
Sc484 O503 2.105 . S
Sc485 O487 2.025 . S
Sc485 O495 2.105 . S
Sc485 O499 2.105 . S
Sc485 O501 2.105 . S
Sc485 O505 2.105 . S
Sc486 O487 2.025 . S
Sc486 O496 2.105 . S
Sc486 O498 2.105 . S
Sc486 O502 2.105 . S
Sc486 O504 2.105 . S
O487 Sc484 2.025 . S
O487 Sc485 2.025 . S
O487 Sc486 2.025 . S
C488 O494 1.268 . S
C488 O504 1.268 . S
C489 O495 1.268 . S
C489 O503 1.268 . S
C490 O496 1.268 . S
C490 O505 1.268 . S
C491 O497 1.268 . S
C491 O501 1.268 . S
C492 O498 1.268 . S
C492 O500 1.268 . S
C493 O499 1.268 . S
C493 O502 1.268 . S
O494 Sc484 2.105 . S
O494 C488 1.268 . S
O495 Sc485 2.105 . S
O495 C489 1.268 . S
O496 Sc486 2.105 . S
O496 C490 1.268 . S
O497 Sc484 2.105 . S
O497 C491 1.268 . S
O498 Sc486 2.105 . S
O498 C492 1.268 . S
O499 Sc485 2.105 . S
O499 C493 1.268 . S
O500 Sc484 2.105 . S
O500 C492 1.268 . S
O501 Sc485 2.105 . S
O501 C491 1.268 . S
O502 Sc486 2.105 . S
O502 C493 1.268 . S
O503 Sc484 2.105 . S
O503 C489 1.268 . S
O504 Sc486 2.105 . S
O504 C488 1.268 . S
O505 Sc485 2.105 . S
O505 C490 1.268 . S
Sc506 O509 2.025 . S
Sc506 O516 2.105 . S
Sc506 O519 2.105 . S
Sc506 O522 2.105 . S
Sc506 O525 2.105 . S
Sc507 O509 2.025 . S
Sc507 O517 2.105 . S
Sc507 O521 2.105 . S
Sc507 O523 2.105 . S
Sc507 O527 2.105 . S
Sc508 O509 2.025 . S
Sc508 O518 2.105 . S
Sc508 O520 2.105 . S
Sc508 O524 2.105 . S
Sc508 O526 2.105 . S
O509 Sc506 2.025 . S
O509 Sc507 2.025 . S
O509 Sc508 2.025 . S
C510 O516 1.268 . S
C510 O526 1.268 . S
C511 O517 1.268 . S
C511 O525 1.268 . S
C512 O518 1.268 . S
C512 O527 1.268 . S
C513 O519 1.268 . S
C513 O523 1.268 . S
C514 O520 1.268 . S
C514 O522 1.268 . S
C515 O521 1.268 . S
C515 O524 1.268 . S
O516 Sc506 2.105 . S
O516 C510 1.268 . S
O517 Sc507 2.105 . S
O517 C511 1.268 . S
O518 Sc508 2.105 . S
O518 C512 1.268 . S
O519 Sc506 2.105 . S
O519 C513 1.268 . S
O520 Sc508 2.105 . S
O520 C514 1.268 . S
O521 Sc507 2.105 . S
O521 C515 1.268 . S
O522 Sc506 2.105 . S
O522 C514 1.268 . S
O523 Sc507 2.105 . S
O523 C513 1.268 . S
O524 Sc508 2.105 . S
O524 C515 1.268 . S
O525 Sc506 2.105 . S
O525 C511 1.268 . S
O526 Sc508 2.105 . S
O526 C510 1.268 . S
O527 Sc507 2.105 . S
O527 C512 1.268 . S
C528 C529 1.349 . S
C528 C530 1.327 . S
C528 H553 0.950 . S
C529 C528 1.349 . S
C529 C545 1.349 . S
C530 C528 1.327 . S
C530 C549 1.429 . S
C530 H554 0.950 . S
C531 C548 1.574 . S
C531 C550 1.368 . S
C531 H555 0.949 . S
H532 C536 0.949 . S
C533 C534 1.349 . S
C533 C535 1.327 . S
C533 H556 0.950 . S
C534 C533 1.349 . S
C534 C546 1.349 . S
C535 C533 1.327 . S
C535 C551 1.429 . S
C535 H557 0.950 . S
C536 H532 0.949 . S
C536 C544 1.574 . S
C536 C552 1.368 . S
H537 C545 0.950 . S
H538 C543 0.950 . S
H539 C544 0.949 . S
H540 C546 0.950 . S
H541 C547 0.950 . S
H542 C548 0.949 . S
C543 H538 0.950 . S
C543 C545 1.327 . S
C543 C549 1.429 . S
C544 C536 1.574 . S
C544 H539 0.949 . S
C544 C550 1.368 . S
C545 C529 1.349 . S
C545 H537 0.950 . S
C545 C543 1.327 . S
C546 C534 1.349 . S
C546 H540 0.950 . S
C546 C547 1.327 . S
C547 H541 0.950 . S
C547 C546 1.327 . S
C547 C551 1.429 . S
C548 C531 1.574 . S
C548 H542 0.949 . S
C548 C552 1.368 . S
C549 C530 1.429 . S
C549 C543 1.429 . S
C549 C550 1.523 . S
C550 C531 1.368 . S
C550 C544 1.368 . S
C550 C549 1.523 . S
C551 C535 1.429 . S
C551 C547 1.429 . S
C551 C552 1.523 . S
C552 C536 1.368 . S
C552 C548 1.368 . S
C552 C551 1.523 . S
H553 C528 0.950 . S
H554 C530 0.950 . S
H555 C531 0.949 . S
H556 C533 0.950 . S
H557 C535 0.950 . S
C558 C559 1.349 . S
C558 C560 1.327 . S
C558 H583 0.950 . S
C559 C558 1.349 . S
C559 C575 1.349 . S
C560 C558 1.327 . S
C560 C579 1.429 . S
C560 H584 0.950 . S
C561 C578 1.574 . S
C561 C580 1.368 . S
C561 H585 0.949 . S
H562 C566 0.949 . S
C563 C564 1.349 . S
C563 C565 1.327 . S
C563 H586 0.950 . S
C564 C563 1.349 . S
C564 C576 1.349 . S
C565 C563 1.327 . S
C565 C581 1.429 . S
C565 H587 0.950 . S
C566 H562 0.949 . S
C566 C574 1.574 . S
C566 C582 1.368 . S
H567 C575 0.950 . S
H568 C573 0.950 . S
H569 C574 0.949 . S
H570 C576 0.950 . S
H571 C577 0.950 . S
H572 C578 0.949 . S
C573 H568 0.950 . S
C573 C575 1.327 . S
C573 C579 1.429 . S
C574 C566 1.574 . S
C574 H569 0.949 . S
C574 C580 1.368 . S
C575 C559 1.349 . S
C575 H567 0.950 . S
C575 C573 1.327 . S
C576 C564 1.349 . S
C576 H570 0.950 . S
C576 C577 1.327 . S
C577 H571 0.950 . S
C577 C576 1.327 . S
C577 C581 1.429 . S
C578 C561 1.574 . S
C578 H572 0.949 . S
C578 C582 1.368 . S
C579 C560 1.429 . S
C579 C573 1.429 . S
C579 C580 1.523 . S
C580 C561 1.368 . S
C580 C574 1.368 . S
C580 C579 1.523 . S
C581 C565 1.429 . S
C581 C577 1.429 . S
C581 C582 1.523 . S
C582 C566 1.368 . S
C582 C578 1.368 . S
C582 C581 1.523 . S
H583 C558 0.950 . S
H584 C560 0.950 . S
H585 C561 0.949 . S
H586 C563 0.950 . S
H587 C565 0.950 . S
C588 C589 1.349 . S
C588 C590 1.327 . S
C588 H613 0.950 . S
C589 C588 1.349 . S
C589 C605 1.349 . S
C590 C588 1.327 . S
C590 C609 1.429 . S
C590 H614 0.950 . S
C591 C608 1.574 . S
C591 C610 1.368 . S
C591 H615 0.949 . S
H592 C596 0.949 . S
C593 C594 1.349 . S
C593 C595 1.327 . S
C593 H616 0.917 1_545 S
C594 C593 1.349 . S
C594 C606 1.349 . S
C595 C593 1.327 . S
C595 C611 1.429 . S
C595 H617 0.950 . S
C596 H592 0.949 . S
C596 C604 1.574 . S
C596 C612 1.368 . S
H597 C605 0.950 . S
H598 C603 0.950 . S
H599 C604 0.949 . S
H600 C606 0.950 . S
H601 C607 0.950 . S
H602 C608 0.949 . S
C603 H598 0.950 . S
C603 C605 1.327 . S
C603 C609 1.429 . S
C604 C596 1.574 . S
C604 H599 0.949 . S
C604 C610 1.368 . S
C605 C589 1.349 . S
C605 H597 0.950 . S
C605 C603 1.327 . S
C606 C594 1.349 . S
C606 H600 0.950 . S
C606 C607 1.327 . S
C607 H601 0.950 . S
C607 C606 1.327 . S
C607 C611 1.429 . S
C608 C591 1.574 . S
C608 H602 0.949 . S
C608 C612 1.368 . S
C609 C590 1.429 . S
C609 C603 1.429 . S
C609 C610 1.523 . S
C610 C591 1.368 . S
C610 C604 1.368 . S
C610 C609 1.523 . S
C611 C595 1.429 . S
C611 C607 1.429 . S
C611 C612 1.523 . S
C612 C596 1.368 . S
C612 C608 1.368 . S
C612 C611 1.523 . S
H613 C588 0.950 . S
H614 C590 0.950 . S
H615 C591 0.949 . S
H616 C593 0.917 1_565 S
H617 C595 0.950 . S
C618 C619 1.349 . S
C618 C620 1.327 . S
C618 H643 0.950 . S
C619 C618 1.349 . S
C619 C635 1.349 . S
C620 C618 1.327 . S
C620 C639 1.429 . S
C620 H644 0.950 . S
C621 C638 1.574 . S
C621 C640 1.368 . S
C621 H645 0.949 . S
H622 C626 0.949 . S
C623 C624 1.349 . S
C623 C625 1.327 . S
C623 H646 0.950 . S
C624 C623 1.349 . S
C624 C636 1.349 . S
C625 C623 1.327 . S
C625 C641 1.429 . S
C625 H647 0.950 . S
C626 H622 0.949 . S
C626 C634 1.574 . S
C626 C642 1.368 . S
H627 C635 0.950 . S
H628 C633 0.950 . S
H629 C634 0.949 . S
H630 C636 0.950 . S
H631 C637 0.950 . S
H632 C638 0.949 . S
C633 H628 0.950 . S
C633 C635 1.327 . S
C633 C639 1.429 . S
C634 C626 1.574 . S
C634 H629 0.949 . S
C634 C640 1.368 . S
C635 C619 1.349 . S
C635 H627 0.950 . S
C635 C633 1.327 . S
C636 C624 1.349 . S
C636 H630 0.950 . S
C636 C637 1.327 . S
C637 H631 0.950 . S
C637 C636 1.327 . S
C637 C641 1.429 . S
C638 C621 1.574 . S
C638 H632 0.949 . S
C638 C642 1.368 . S
C639 C620 1.429 . S
C639 C633 1.429 . S
C639 C640 1.523 . S
C640 C621 1.368 . S
C640 C634 1.368 . S
C640 C639 1.523 . S
C641 C625 1.429 . S
C641 C637 1.429 . S
C641 C642 1.523 . S
C642 C626 1.368 . S
C642 C638 1.368 . S
C642 C641 1.523 . S
H643 C618 0.950 . S
H644 C620 0.950 . S
H645 C621 0.949 . S
H646 C623 0.950 . S
H647 C625 0.950 . S
C648 C649 1.349 . S
C648 C650 1.327 . S
C648 H673 0.950 . S
C649 C648 1.349 . S
C649 C665 1.349 . S
C650 C648 1.327 . S
C650 C669 1.429 . S
C650 H674 0.950 . S
C651 C668 1.574 . S
C651 C670 1.368 . S
C651 H675 0.949 . S
H652 C656 0.949 . S
C653 C654 1.349 . S
C653 C655 1.327 . S
C653 H676 0.950 . S
C654 C653 1.349 . S
C654 C666 1.349 . S
C655 C653 1.327 . S
C655 C671 1.429 . S
C655 H677 0.950 . S
C656 H652 0.949 . S
C656 C664 1.574 . S
C656 C672 1.368 . S
H657 C665 0.950 . S
H658 C663 0.950 . S
H659 C664 0.949 . S
H660 C666 0.950 . S
H661 C667 0.950 . S
H662 C668 0.949 . S
C663 H658 0.950 . S
C663 C665 1.327 . S
C663 C669 1.429 . S
C664 C656 1.574 . S
C664 H659 0.949 . S
C664 C670 1.368 . S
C665 C649 1.349 . S
C665 H657 0.950 . S
C665 C663 1.327 . S
C666 C654 1.349 . S
C666 H660 0.950 . S
C666 C667 1.327 . S
C667 H661 0.950 . S
C667 C666 1.327 . S
C667 C671 1.429 . S
C668 C651 1.574 . S
C668 H662 0.949 . S
C668 C672 1.368 . S
C669 C650 1.429 . S
C669 C663 1.429 . S
C669 C670 1.523 . S
C670 C651 1.368 . S
C670 C664 1.368 . S
C670 C669 1.523 . S
C671 C655 1.429 . S
C671 C667 1.429 . S
C671 C672 1.523 . S
C672 C656 1.368 . S
C672 C668 1.368 . S
C672 C671 1.523 . S
H673 C648 0.950 . S
H674 C650 0.950 . S
H675 C651 0.949 . S
H676 C653 0.950 . S
H677 C655 0.950 . S
C678 C679 1.349 . S
C678 C680 1.327 . S
C678 H703 0.950 . S
C679 C678 1.349 . S
C679 C695 1.349 . S
C680 C678 1.327 . S
C680 C699 1.429 . S
C680 H704 0.950 . S
C681 C698 1.574 . S
C681 C700 1.368 . S
C681 H705 0.949 . S
H682 C686 0.949 . S
C683 C684 1.349 . S
C683 C685 1.327 . S
C683 H706 0.991 . S
C684 C683 1.349 . S
C684 C696 1.349 . S
C685 C683 1.327 . S
C685 C701 1.429 . S
C685 H707 0.950 . S
C686 H682 0.949 . S
C686 C694 1.574 . S
C686 C702 1.368 . S
H687 C695 0.950 . S
H688 C693 0.950 . S
H689 C694 0.949 . S
H690 C696 0.950 . S
H691 C697 0.950 . S
H692 C698 0.949 . S
C693 H688 0.950 . S
C693 C695 1.327 . S
C693 C699 1.429 . S
C694 C686 1.574 . S
C694 H689 0.949 . S
C694 C700 1.368 . S
C695 C679 1.349 . S
C695 H687 0.950 . S
C695 C693 1.327 . S
C696 C684 1.349 . S
C696 H690 0.950 . S
C696 C697 1.327 . S
C697 H691 0.950 . S
C697 C696 1.327 . S
C697 C701 1.429 . S
C698 C681 1.574 . S
C698 H692 0.949 . S
C698 C702 1.368 . S
C699 C680 1.429 . S
C699 C693 1.429 . S
C699 C700 1.523 . S
C700 C681 1.368 . S
C700 C694 1.368 . S
C700 C699 1.523 . S
C701 C685 1.429 . S
C701 C697 1.429 . S
C701 C702 1.523 . S
C702 C686 1.368 . S
C702 C698 1.368 . S
C702 C701 1.523 . S
H703 C678 0.950 . S
H704 C680 0.950 . S
H705 C681 0.949 . S
H706 C683 0.991 . S
H707 C685 0.950 . S
C708 C709 1.349 . S
C708 C710 1.327 . S
C708 H733 0.950 . S
C709 C708 1.349 . S
C709 C725 1.349 . S
C710 C708 1.327 . S
C710 C729 1.429 . S
C710 H734 0.950 . S
C711 C728 1.574 . S
C711 C730 1.368 . S
C711 H735 0.949 . S
H712 C716 0.949 . S
C713 C714 1.349 . S
C713 C715 1.327 . S
C713 H736 0.950 . S
C714 C713 1.349 . S
C714 C726 1.349 . S
C715 C713 1.327 . S
C715 C731 1.429 . S
C715 H737 0.950 . S
C716 H712 0.949 . S
C716 C724 1.574 . S
C716 C732 1.368 . S
H717 C725 0.950 . S
H718 C723 0.950 . S
H719 C724 0.949 . S
H720 C726 0.950 . S
H721 C727 0.950 . S
H722 C728 0.949 . S
C723 H718 0.950 . S
C723 C725 1.327 . S
C723 C729 1.429 . S
C724 C716 1.574 . S
C724 H719 0.949 . S
C724 C730 1.368 . S
C725 C709 1.349 . S
C725 H717 0.950 . S
C725 C723 1.327 . S
C726 C714 1.349 . S
C726 H720 0.950 . S
C726 C727 1.327 . S
C727 H721 0.950 . S
C727 C726 1.327 . S
C727 C731 1.429 . S
C728 C711 1.574 . S
C728 H722 0.949 . S
C728 C732 1.368 . S
C729 C710 1.429 . S
C729 C723 1.429 . S
C729 C730 1.523 . S
C730 C711 1.368 . S
C730 C724 1.368 . S
C730 C729 1.523 . S
C731 C715 1.429 . S
C731 C727 1.429 . S
C731 C732 1.523 . S
C732 C716 1.368 . S
C732 C728 1.368 . S
C732 C731 1.523 . S
H733 C708 0.950 . S
H734 C710 0.950 . S
H735 C711 0.949 . S
H736 C713 0.950 . S
H737 C715 0.950 . S
C738 C739 1.349 . S
C738 C740 1.327 . S
C738 H763 0.950 . S
C739 C738 1.349 . S
C739 C755 1.349 . S
C740 C738 1.327 . S
C740 C759 1.429 . S
C740 H764 0.950 . S
C741 C758 1.574 . S
C741 C760 1.368 . S
C741 H765 0.949 . S
H742 C746 0.949 . S
C743 C744 1.349 . S
C743 C745 1.327 . S
C743 H766 0.950 . S
C744 C743 1.349 . S
C744 C756 1.349 . S
C745 C743 1.327 . S
C745 C761 1.429 . S
C745 H767 0.950 . S
C746 H742 0.949 . S
C746 C754 1.574 . S
C746 C762 1.368 . S
H747 C755 0.950 . S
H748 C753 0.950 . S
H749 C754 0.949 . S
H750 C756 0.950 . S
H751 C757 0.950 . S
H752 C758 0.949 . S
C753 H748 0.950 . S
C753 C755 1.327 . S
C753 C759 1.429 . S
C754 C746 1.574 . S
C754 H749 0.949 . S
C754 C760 1.368 . S
C755 C739 1.349 . S
C755 H747 0.950 . S
C755 C753 1.327 . S
C756 C744 1.349 . S
C756 H750 0.950 . S
C756 C757 1.327 . S
C757 H751 0.950 . S
C757 C756 1.327 . S
C757 C761 1.429 . S
C758 C741 1.574 . S
C758 H752 0.949 . S
C758 C762 1.368 . S
C759 C740 1.429 . S
C759 C753 1.429 . S
C759 C760 1.523 . S
C760 C741 1.368 . S
C760 C754 1.368 . S
C760 C759 1.523 . S
C761 C745 1.429 . S
C761 C757 1.429 . S
C761 C762 1.523 . S
C762 C746 1.368 . S
C762 C758 1.368 . S
C762 C761 1.523 . S
H763 C738 0.950 . S
H764 C740 0.950 . S
H765 C741 0.949 . S
H766 C743 0.950 . S
H767 C745 0.950 . S
C768 C769 1.349 . S
C768 C770 1.327 . S
C768 H793 0.950 . S
C769 C768 1.349 . S
C769 C785 1.349 . S
C770 C768 1.327 . S
C770 C789 1.429 . S
C770 H794 0.950 . S
C771 C788 1.574 . S
C771 C790 1.368 . S
C771 H795 0.949 . S
H772 C776 0.949 . S
C773 C774 1.349 . S
C773 C775 1.327 . S
C773 H796 0.950 . S
C774 C773 1.349 . S
C774 C786 1.349 . S
C775 C773 1.327 . S
C775 C791 1.429 . S
C775 H797 0.950 . S
C776 H772 0.949 . S
C776 C784 1.574 . S
C776 C792 1.368 . S
H777 C785 0.950 . S
H778 C783 0.950 . S
H779 C784 0.949 . S
H780 C786 0.950 . S
H781 C787 0.950 . S
H782 C788 0.949 . S
C783 H778 0.950 . S
C783 C785 1.327 . S
C783 C789 1.429 . S
C784 C776 1.574 . S
C784 H779 0.949 . S
C784 C790 1.368 . S
C785 C769 1.349 . S
C785 H777 0.950 . S
C785 C783 1.327 . S
C786 C774 1.349 . S
C786 H780 0.950 . S
C786 C787 1.327 . S
C787 H781 0.950 . S
C787 C786 1.327 . S
C787 C791 1.429 . S
C788 C771 1.574 . S
C788 H782 0.949 . S
C788 C792 1.368 . S
C789 C770 1.429 . S
C789 C783 1.429 . S
C789 C790 1.523 . S
C790 C771 1.368 . S
C790 C784 1.368 . S
C790 C789 1.523 . S
C791 C775 1.429 . S
C791 C787 1.429 . S
C791 C792 1.523 . S
C792 C776 1.368 . S
C792 C788 1.368 . S
C792 C791 1.523 . S
H793 C768 0.950 . S
H794 C770 0.950 . S
H795 C771 0.949 . S
H796 C773 0.950 . S
H797 C775 0.950 . S
C798 C799 1.349 . S
C798 C800 1.327 . S
C798 H823 0.950 . S
C799 C798 1.349 . S
C799 C815 1.349 . S
C800 C798 1.327 . S
C800 C819 1.429 . S
C800 H824 0.950 . S
C801 C818 1.574 . S
C801 C820 1.368 . S
C801 H825 0.949 . S
H802 C806 0.949 . S
C803 C804 1.349 . S
C803 C805 1.327 . S
C803 H826 0.950 . S
C804 C803 1.349 . S
C804 C816 1.349 . S
C805 C803 1.327 . S
C805 C821 1.429 . S
C805 H827 0.950 . S
C806 H802 0.949 . S
C806 C814 1.574 . S
C806 C822 1.368 . S
H807 C815 0.950 . S
H808 C813 0.950 . S
H809 C814 0.949 . S
H810 C816 0.950 . S
H811 C817 0.950 . S
H812 C818 0.949 . S
C813 H808 0.950 . S
C813 C815 1.327 . S
C813 C819 1.429 . S
C814 C806 1.574 . S
C814 H809 0.949 . S
C814 C820 1.368 . S
C815 C799 1.349 . S
C815 H807 0.950 . S
C815 C813 1.327 . S
C816 C804 1.349 . S
C816 H810 0.950 . S
C816 C817 1.327 . S
C817 H811 0.950 . S
C817 C816 1.327 . S
C817 C821 1.429 . S
C818 C801 1.574 . S
C818 H812 0.949 . S
C818 C822 1.368 . S
C819 C800 1.429 . S
C819 C813 1.429 . S
C819 C820 1.523 . S
C820 C801 1.368 . S
C820 C814 1.368 . S
C820 C819 1.523 . S
C821 C805 1.429 . S
C821 C817 1.429 . S
C821 C822 1.523 . S
C822 C806 1.368 . S
C822 C818 1.368 . S
C822 C821 1.523 . S
H823 C798 0.950 . S
H824 C800 0.950 . S
H825 C801 0.949 . S
H826 C803 0.950 . S
H827 C805 0.950 . S
C828 C829 1.349 . S
C828 C830 1.327 . S
C828 H853 0.950 . S
C829 C828 1.349 . S
C829 C845 1.349 . S
C830 C828 1.327 . S
C830 C849 1.429 . S
C830 H854 0.950 . S
C831 C848 1.574 . S
C831 C850 1.368 . S
C831 H855 0.949 . S
H832 C836 0.949 . S
C833 C834 1.349 . S
C833 C835 1.327 . S
C833 H856 0.950 . S
C834 C833 1.349 . S
C834 C846 1.349 . S
C835 C833 1.327 . S
C835 C851 1.429 . S
C835 H857 0.950 . S
C836 H832 0.949 . S
C836 C844 1.574 . S
C836 C852 1.368 . S
H837 C845 0.950 . S
H838 C843 0.950 . S
H839 C844 0.949 . S
H840 C846 0.950 . S
H841 C847 0.950 . S
H842 C848 0.949 . S
C843 H838 0.950 . S
C843 C845 1.327 . S
C843 C849 1.429 . S
C844 C836 1.574 . S
C844 H839 0.949 . S
C844 C850 1.368 . S
C845 C829 1.349 . S
C845 H837 0.950 . S
C845 C843 1.327 . S
C846 C834 1.349 . S
C846 H840 0.950 . S
C846 C847 1.327 . S
C847 H841 0.950 . S
C847 C846 1.327 . S
C847 C851 1.429 . S
C848 C831 1.574 . S
C848 H842 0.949 . S
C848 C852 1.368 . S
C849 C830 1.429 . S
C849 C843 1.429 . S
C849 C850 1.523 . S
C850 C831 1.368 . S
C850 C844 1.368 . S
C850 C849 1.523 . S
C851 C835 1.429 . S
C851 C847 1.429 . S
C851 C852 1.523 . S
C852 C836 1.368 . S
C852 C848 1.368 . S
C852 C851 1.523 . S
H853 C828 0.950 . S
H854 C830 0.950 . S
H855 C831 0.949 . S
H856 C833 0.950 . S
H857 C835 0.950 . S
C858 C859 1.349 . S
C858 C860 1.327 . S
C858 H883 0.950 . S
C859 C858 1.349 . S
C859 C875 1.349 . S
C860 C858 1.327 . S
C860 C879 1.429 . S
C860 H884 0.950 . S
C861 C878 1.574 . S
C861 C880 1.368 . S
C861 H885 0.949 . S
H862 C866 0.949 . S
C863 C864 1.349 . S
C863 C865 1.327 . S
C863 H886 0.950 . S
C864 C863 1.349 . S
C864 C876 1.349 . S
C865 C863 1.327 . S
C865 C881 1.429 . S
C865 H887 0.950 . S
C866 H862 0.949 . S
C866 C874 1.574 . S
C866 C882 1.368 . S
H867 C875 0.950 . S
H868 C873 0.950 . S
H869 C874 0.949 . S
H870 C876 0.950 . S
H871 C877 0.950 . S
H872 C878 0.949 . S
C873 H868 0.950 . S
C873 C875 1.327 . S
C873 C879 1.429 . S
C874 C866 1.574 . S
C874 H869 0.949 . S
C874 C880 1.368 . S
C875 C859 1.349 . S
C875 H867 0.950 . S
C875 C873 1.327 . S
C876 C864 1.349 . S
C876 H870 0.950 . S
C876 C877 1.327 . S
C877 H871 0.950 . S
C877 C876 1.327 . S
C877 C881 1.429 . S
C878 C861 1.574 . S
C878 H872 0.949 . S
C878 C882 1.368 . S
C879 C860 1.429 . S
C879 C873 1.429 . S
C879 C880 1.523 . S
C880 C861 1.368 . S
C880 C874 1.368 . S
C880 C879 1.523 . S
C881 C865 1.429 . S
C881 C877 1.429 . S
C881 C882 1.523 . S
C882 C866 1.368 . S
C882 C878 1.368 . S
C882 C881 1.523 . S
H883 C858 0.950 . S
H884 C860 0.950 . S
H885 C861 0.949 . S
H886 C863 0.950 . S
H887 C865 0.950 . S
C888 C889 1.349 . S
C888 C890 1.327 . S
C888 H913 0.950 . S
C889 C888 1.349 . S
C889 C905 1.349 . S
C890 C888 1.327 . S
C890 C909 1.429 . S
C890 H914 0.950 . S
C891 C908 1.574 . S
C891 C910 1.368 . S
C891 H915 0.949 . S
H892 C896 0.949 . S
C893 C894 1.349 . S
C893 C895 1.327 . S
C893 H916 0.950 . S
C894 C893 1.349 . S
C894 C906 1.349 . S
C895 C893 1.327 . S
C895 C911 1.429 . S
C895 H917 0.950 . S
C896 H892 0.949 . S
C896 C904 1.574 . S
C896 C912 1.368 . S
H897 C905 0.950 . S
H898 C903 0.950 . S
H899 C904 0.949 . S
H900 C906 0.950 . S
H901 C907 0.950 . S
H902 C908 0.949 . S
C903 H898 0.950 . S
C903 C905 1.327 . S
C903 C909 1.429 . S
C904 C896 1.574 . S
C904 H899 0.949 . S
C904 C910 1.368 . S
C905 C889 1.349 . S
C905 H897 0.950 . S
C905 C903 1.327 . S
C906 C894 1.349 . S
C906 H900 0.950 . S
C906 C907 1.327 . S
C907 H901 0.950 . S
C907 C906 1.327 . S
C907 C911 1.429 . S
C908 C891 1.574 . S
C908 H902 0.949 . S
C908 C912 1.368 . S
C909 C890 1.429 . S
C909 C903 1.429 . S
C909 C910 1.523 . S
C910 C891 1.368 . S
C910 C904 1.368 . S
C910 C909 1.523 . S
C911 C895 1.429 . S
C911 C907 1.429 . S
C911 C912 1.523 . S
C912 C896 1.368 . S
C912 C908 1.368 . S
C912 C911 1.523 . S
H913 C888 0.950 . S
H914 C890 0.950 . S
H915 C891 0.949 . S
H916 C893 0.950 . S
H917 C895 0.950 . S
C918 C919 1.349 . S
C918 C920 1.327 . S
C918 H943 0.950 . S
C919 C918 1.349 . S
C919 C935 1.349 . S
C920 C918 1.327 . S
C920 C939 1.429 . S
C920 H944 0.950 . S
C921 C938 1.574 . S
C921 C940 1.368 . S
C921 H945 0.949 . S
H922 C926 0.949 . S
C923 C924 1.349 . S
C923 C925 1.327 . S
C923 H946 0.950 . S
C924 C923 1.349 . S
C924 C936 1.349 . S
C925 C923 1.327 . S
C925 C941 1.429 . S
C925 H947 0.950 . S
C926 H922 0.949 . S
C926 C934 1.574 . S
C926 C942 1.368 . S
H927 C935 0.950 . S
H928 C933 0.950 . S
H929 C934 0.949 . S
H930 C936 0.950 . S
H931 C937 0.950 . S
H932 C938 0.949 . S
C933 H928 0.950 . S
C933 C935 1.327 . S
C933 C939 1.429 . S
C934 C926 1.574 . S
C934 H929 0.949 . S
C934 C940 1.368 . S
C935 C919 1.349 . S
C935 H927 0.950 . S
C935 C933 1.327 . S
C936 C924 1.349 . S
C936 H930 0.950 . S
C936 C937 1.327 . S
C937 H931 0.950 . S
C937 C936 1.327 . S
C937 C941 1.429 . S
C938 C921 1.574 . S
C938 H932 0.949 . S
C938 C942 1.368 . S
C939 C920 1.429 . S
C939 C933 1.429 . S
C939 C940 1.523 . S
C940 C921 1.368 . S
C940 C934 1.368 . S
C940 C939 1.523 . S
C941 C925 1.429 . S
C941 C937 1.429 . S
C941 C942 1.523 . S
C942 C926 1.368 . S
C942 C938 1.368 . S
C942 C941 1.523 . S
H943 C918 0.950 . S
H944 C920 0.950 . S
H945 C921 0.949 . S
H946 C923 0.950 . S
H947 C925 0.950 . S
C948 C949 1.349 . S
C948 C950 1.327 . S
C948 H973 0.950 . S
C949 C948 1.349 . S
C949 C965 1.349 . S
C950 C948 1.327 . S
C950 C969 1.429 . S
C950 H974 0.950 . S
C951 C968 1.574 . S
C951 C970 1.368 . S
C951 H975 0.949 . S
H952 C956 0.949 . S
C953 C954 1.349 . S
C953 C955 1.327 . S
C953 H976 0.950 . S
C954 C953 1.349 . S
C954 C966 1.349 . S
C955 C953 1.327 . S
C955 C971 1.429 . S
C955 H977 0.950 . S
C956 H952 0.949 . S
C956 C964 1.574 . S
C956 C972 1.368 . S
H957 C965 0.950 . S
H958 C963 0.950 . S
H959 C964 0.949 . S
H960 C966 0.950 . S
H961 C967 0.950 . S
H962 C968 0.949 . S
C963 H958 0.950 . S
C963 C965 1.327 . S
C963 C969 1.429 . S
C964 C956 1.574 . S
C964 H959 0.949 . S
C964 C970 1.368 . S
C965 C949 1.349 . S
C965 H957 0.950 . S
C965 C963 1.327 . S
C966 C954 1.349 . S
C966 H960 0.950 . S
C966 C967 1.327 . S
C967 H961 0.950 . S
C967 C966 1.327 . S
C967 C971 1.429 . S
C968 C951 1.574 . S
C968 H962 0.949 . S
C968 C972 1.368 . S
C969 C950 1.429 . S
C969 C963 1.429 . S
C969 C970 1.523 . S
C970 C951 1.368 . S
C970 C964 1.368 . S
C970 C969 1.523 . S
C971 C955 1.429 . S
C971 C967 1.429 . S
C971 C972 1.523 . S
C972 C956 1.368 . S
C972 C968 1.368 . S
C972 C971 1.523 . S
H973 C948 0.950 . S
H974 C950 0.950 . S
H975 C951 0.949 . S
H976 C953 0.950 . S
H977 C955 0.950 . S
C978 C979 1.349 . S
C978 C980 1.327 . S
C978 H1003 0.950 . S
C979 C978 1.349 . S
C979 C995 1.349 . S
C980 C978 1.327 . S
C980 C999 1.429 . S
C980 H1004 0.950 . S
C981 C998 1.574 . S
C981 C1000 1.368 . S
C981 H1005 0.949 . S
H982 C986 0.949 . S
C983 C984 1.349 . S
C983 C985 1.327 . S
C983 H1006 0.950 . S
C984 C983 1.349 . S
C984 C996 1.349 . S
C985 C983 1.327 . S
C985 C1001 1.429 . S
C985 H1007 0.950 . S
C986 H982 0.949 . S
C986 C994 1.574 . S
C986 C1002 1.368 . S
H987 C995 0.950 . S
H988 C993 0.950 . S
H989 C994 0.949 . S
H990 C996 0.950 . S
H991 C997 0.950 . S
H992 C998 0.949 . S
C993 H988 0.950 . S
C993 C995 1.327 . S
C993 C999 1.429 . S
C994 C986 1.574 . S
C994 H989 0.949 . S
C994 C1000 1.368 . S
C995 C979 1.349 . S
C995 H987 0.950 . S
C995 C993 1.327 . S
C996 C984 1.349 . S
C996 H990 0.950 . S
C996 C997 1.327 . S
C997 H991 0.950 . S
C997 C996 1.327 . S
C997 C1001 1.429 . S
C998 C981 1.574 . S
C998 H992 0.949 . S
C998 C1002 1.368 . S
C999 C980 1.429 . S
C999 C993 1.429 . S
C999 C1000 1.523 . S
C1000 C981 1.368 . S
C1000 C994 1.368 . S
C1000 C999 1.523 . S
C1001 C985 1.429 . S
C1001 C997 1.429 . S
C1001 C1002 1.523 . S
C1002 C986 1.368 . S
C1002 C998 1.368 . S
C1002 C1001 1.523 . S
H1003 C978 0.950 . S
H1004 C980 0.950 . S
H1005 C981 0.949 . S
H1006 C983 0.950 . S
H1007 C985 0.950 . S
C1008 C1009 1.349 . S
C1008 C1010 1.327 . S
C1008 H1033 0.950 . S
C1009 C1008 1.349 . S
C1009 C1025 1.349 . S
C1010 C1008 1.327 . S
C1010 C1029 1.429 . S
C1010 H1034 0.950 . S
C1011 C1028 1.574 . S
C1011 C1030 1.368 . S
C1011 H1035 0.949 . S
H1012 C1016 0.949 . S
C1013 C1014 1.349 . S
C1013 C1015 1.327 . S
C1013 H1036 0.950 . S
C1014 C1013 1.349 . S
C1014 C1026 1.349 . S
C1015 C1013 1.327 . S
C1015 C1031 1.429 . S
C1015 H1037 0.950 . S
C1016 H1012 0.949 . S
C1016 C1024 1.574 . S
C1016 C1032 1.368 . S
H1017 C1025 0.950 . S
H1018 C1023 0.950 . S
H1019 C1024 0.949 . S
H1020 C1026 0.950 . S
H1021 C1027 0.950 . S
H1022 C1028 0.949 . S
C1023 H1018 0.950 . S
C1023 C1025 1.327 . S
C1023 C1029 1.429 . S
C1024 C1016 1.574 . S
C1024 H1019 0.949 . S
C1024 C1030 1.368 . S
C1025 C1009 1.349 . S
C1025 H1017 0.950 . S
C1025 C1023 1.327 . S
C1026 C1014 1.349 . S
C1026 H1020 0.950 . S
C1026 C1027 1.327 . S
C1027 H1021 0.950 . S
C1027 C1026 1.327 . S
C1027 C1031 1.429 . S
C1028 C1011 1.574 . S
C1028 H1022 0.949 . S
C1028 C1032 1.368 . S
C1029 C1010 1.429 . S
C1029 C1023 1.429 . S
C1029 C1030 1.523 . S
C1030 C1011 1.368 . S
C1030 C1024 1.368 . S
C1030 C1029 1.523 . S
C1031 C1015 1.429 . S
C1031 C1027 1.429 . S
C1031 C1032 1.523 . S
C1032 C1016 1.368 . S
C1032 C1028 1.368 . S
C1032 C1031 1.523 . S
H1033 C1008 0.950 . S
H1034 C1010 0.950 . S
H1035 C1011 0.949 . S
H1036 C1013 0.950 . S
H1037 C1015 0.950 . S
C1038 C1039 1.349 . S
C1038 C1040 1.327 . S
C1038 H1063 0.950 . S
C1039 C1038 1.349 . S
C1039 C1055 1.349 . S
C1040 C1038 1.327 . S
C1040 C1059 1.429 . S
C1040 H1064 0.950 . S
C1041 C1058 1.574 . S
C1041 C1060 1.368 . S
C1041 H1065 0.949 . S
H1042 C1046 0.949 . S
C1043 C1044 1.349 . S
C1043 C1045 1.327 . S
C1043 H1066 0.950 . S
C1044 C1043 1.349 . S
C1044 C1056 1.349 . S
C1045 C1043 1.327 . S
C1045 C1061 1.429 . S
C1045 H1067 0.950 . S
C1046 H1042 0.949 . S
C1046 C1054 1.574 . S
C1046 C1062 1.368 . S
H1047 C1055 0.950 . S
H1048 C1053 0.950 . S
H1049 C1054 0.949 . S
H1050 C1056 0.950 . S
H1051 C1057 0.950 . S
H1052 C1058 0.949 . S
C1053 H1048 0.950 . S
C1053 C1055 1.327 . S
C1053 C1059 1.429 . S
C1054 C1046 1.574 . S
C1054 H1049 0.949 . S
C1054 C1060 1.368 . S
C1055 C1039 1.349 . S
C1055 H1047 0.950 . S
C1055 C1053 1.327 . S
C1056 C1044 1.349 . S
C1056 H1050 0.950 . S
C1056 C1057 1.327 . S
C1057 H1051 0.950 . S
C1057 C1056 1.327 . S
C1057 C1061 1.429 . S
C1058 C1041 1.574 . S
C1058 H1052 0.949 . S
C1058 C1062 1.368 . S
C1059 C1040 1.429 . S
C1059 C1053 1.429 . S
C1059 C1060 1.523 . S
C1060 C1041 1.368 . S
C1060 C1054 1.368 . S
C1060 C1059 1.523 . S
C1061 C1045 1.429 . S
C1061 C1057 1.429 . S
C1061 C1062 1.523 . S
C1062 C1046 1.368 . S
C1062 C1058 1.368 . S
C1062 C1061 1.523 . S
H1063 C1038 0.950 . S
H1064 C1040 0.950 . S
H1065 C1041 0.949 . S
H1066 C1043 0.950 . S
H1067 C1045 0.950 . S
C1068 C1069 1.349 . S
C1068 C1070 1.327 . S
C1068 H1093 0.950 . S
C1069 C1068 1.349 . S
C1069 C1085 1.349 . S
C1070 C1068 1.327 . S
C1070 C1089 1.429 . S
C1070 H1094 0.950 . S
C1071 C1088 1.574 . S
C1071 C1090 1.368 . S
C1071 H1095 0.949 . S
H1072 C1076 0.949 . S
C1073 C1074 1.349 . S
C1073 C1075 1.327 . S
C1073 H1096 0.950 . S
C1074 C1073 1.349 . S
C1074 C1086 1.349 . S
C1075 C1073 1.327 . S
C1075 C1091 1.429 . S
C1075 H1097 0.950 . S
C1076 H1072 0.949 . S
C1076 C1084 1.574 . S
C1076 C1092 1.368 . S
H1077 C1085 0.950 . S
H1078 C1083 0.950 . S
H1079 C1084 0.949 . S
H1080 C1086 0.950 . S
H1081 C1087 0.950 . S
H1082 C1088 0.949 . S
C1083 H1078 0.950 . S
C1083 C1085 1.327 . S
C1083 C1089 1.429 . S
C1084 C1076 1.574 . S
C1084 H1079 0.949 . S
C1084 C1090 1.368 . S
C1085 C1069 1.349 . S
C1085 H1077 0.950 . S
C1085 C1083 1.327 . S
C1086 C1074 1.349 . S
C1086 H1080 0.950 . S
C1086 C1087 1.327 . S
C1087 H1081 0.950 . S
C1087 C1086 1.327 . S
C1087 C1091 1.429 . S
C1088 C1071 1.574 . S
C1088 H1082 0.949 . S
C1088 C1092 1.368 . S
C1089 C1070 1.429 . S
C1089 C1083 1.429 . S
C1089 C1090 1.523 . S
C1090 C1071 1.368 . S
C1090 C1084 1.368 . S
C1090 C1089 1.523 . S
C1091 C1075 1.429 . S
C1091 C1087 1.429 . S
C1091 C1092 1.523 . S
C1092 C1076 1.368 . S
C1092 C1088 1.368 . S
C1092 C1091 1.523 . S
H1093 C1068 0.950 . S
H1094 C1070 0.950 . S
H1095 C1071 0.949 . S
H1096 C1073 0.950 . S
H1097 C1075 0.950 . S
C1098 C1099 1.349 . S
C1098 C1100 1.327 . S
C1098 H1123 0.950 . S
C1099 C1098 1.349 . S
C1099 C1115 1.349 . S
C1100 C1098 1.327 . S
C1100 C1119 1.429 . S
C1100 H1124 0.950 . S
C1101 C1118 1.574 . S
C1101 C1120 1.368 . S
C1101 H1125 0.949 . S
H1102 C1106 0.949 . S
C1103 C1104 1.349 . S
C1103 C1105 1.327 . S
C1103 H1126 0.950 . S
C1104 C1103 1.349 . S
C1104 C1116 1.349 . S
C1105 C1103 1.327 . S
C1105 C1121 1.429 . S
C1105 H1127 0.950 . S
C1106 H1102 0.949 . S
C1106 C1114 1.574 . S
C1106 C1122 1.368 . S
H1107 C1115 0.950 . S
H1108 C1113 0.950 . S
H1109 C1114 0.949 . S
H1110 C1116 0.950 . S
H1111 C1117 0.950 . S
H1112 C1118 0.949 . S
C1113 H1108 0.950 . S
C1113 C1115 1.327 . S
C1113 C1119 1.429 . S
C1114 C1106 1.574 . S
C1114 H1109 0.949 . S
C1114 C1120 1.368 . S
C1115 C1099 1.349 . S
C1115 H1107 0.950 . S
C1115 C1113 1.327 . S
C1116 C1104 1.349 . S
C1116 H1110 0.950 . S
C1116 C1117 1.327 . S
C1117 H1111 0.950 . S
C1117 C1116 1.327 . S
C1117 C1121 1.429 . S
C1118 C1101 1.574 . S
C1118 H1112 0.949 . S
C1118 C1122 1.368 . S
C1119 C1100 1.429 . S
C1119 C1113 1.429 . S
C1119 C1120 1.523 . S
C1120 C1101 1.368 . S
C1120 C1114 1.368 . S
C1120 C1119 1.523 . S
C1121 C1105 1.429 . S
C1121 C1117 1.429 . S
C1121 C1122 1.523 . S
C1122 C1106 1.368 . S
C1122 C1118 1.368 . S
C1122 C1121 1.523 . S
H1123 C1098 0.950 . S
H1124 C1100 0.950 . S
H1125 C1101 0.949 . S
H1126 C1103 0.950 . S
H1127 C1105 0.950 . S
C1128 C1129 1.349 . S
C1128 C1130 1.327 . S
C1128 H1153 0.950 . S
C1129 C1128 1.349 . S
C1129 C1145 1.349 . S
C1130 C1128 1.327 . S
C1130 C1149 1.429 . S
C1130 H1154 0.950 . S
C1131 C1148 1.574 . S
C1131 C1150 1.368 . S
C1131 H1155 0.949 . S
H1132 C1136 0.949 . S
C1133 C1134 1.349 . S
C1133 C1135 1.327 . S
C1133 H1156 0.950 . S
C1134 C1133 1.349 . S
C1134 C1146 1.349 . S
C1135 C1133 1.327 . S
C1135 C1151 1.429 . S
C1135 H1157 0.950 . S
C1136 H1132 0.949 . S
C1136 C1144 1.574 . S
C1136 C1152 1.368 . S
H1137 C1145 0.950 . S
H1138 C1143 0.950 . S
H1139 C1144 0.949 . S
H1140 C1146 0.950 . S
H1141 C1147 0.950 . S
H1142 C1148 0.949 . S
C1143 H1138 0.950 . S
C1143 C1145 1.327 . S
C1143 C1149 1.429 . S
C1144 C1136 1.574 . S
C1144 H1139 0.949 . S
C1144 C1150 1.368 . S
C1145 C1129 1.349 . S
C1145 H1137 0.950 . S
C1145 C1143 1.327 . S
C1146 C1134 1.349 . S
C1146 H1140 0.950 . S
C1146 C1147 1.327 . S
C1147 H1141 0.950 . S
C1147 C1146 1.327 . S
C1147 C1151 1.429 . S
C1148 C1131 1.574 . S
C1148 H1142 0.949 . S
C1148 C1152 1.368 . S
C1149 C1130 1.429 . S
C1149 C1143 1.429 . S
C1149 C1150 1.523 . S
C1150 C1131 1.368 . S
C1150 C1144 1.368 . S
C1150 C1149 1.523 . S
C1151 C1135 1.429 . S
C1151 C1147 1.429 . S
C1151 C1152 1.523 . S
C1152 C1136 1.368 . S
C1152 C1148 1.368 . S
C1152 C1151 1.523 . S
H1153 C1128 0.950 . S
H1154 C1130 0.950 . S
H1155 C1131 0.949 . S
H1156 C1133 0.950 . S
H1157 C1135 0.950 . S
C1158 C1159 1.349 . S
C1158 C1160 1.327 . S
C1158 H1183 0.950 . S
C1159 C1158 1.349 . S
C1159 C1175 1.349 . S
C1160 C1158 1.327 . S
C1160 C1179 1.429 . S
C1160 H1184 0.950 . S
C1161 C1178 1.574 . S
C1161 C1180 1.368 . S
C1161 H1185 0.949 . S
H1162 C1166 0.949 . S
C1163 C1164 1.349 . S
C1163 C1165 1.327 . S
C1163 H1186 0.950 . S
C1164 C1163 1.349 . S
C1164 C1176 1.349 . S
C1165 C1163 1.327 . S
C1165 C1181 1.429 . S
C1165 H1187 0.950 . S
C1166 H1162 0.949 . S
C1166 C1174 1.574 . S
C1166 C1182 1.368 . S
H1167 C1175 0.950 . S
H1168 C1173 0.950 . S
H1169 C1174 0.949 . S
H1170 C1176 0.950 . S
H1171 C1177 0.950 . S
H1172 C1178 0.949 . S
C1173 H1168 0.950 . S
C1173 C1175 1.327 . S
C1173 C1179 1.429 . S
C1174 C1166 1.574 . S
C1174 H1169 0.949 . S
C1174 C1180 1.368 . S
C1175 C1159 1.349 . S
C1175 H1167 0.950 . S
C1175 C1173 1.327 . S
C1176 C1164 1.349 . S
C1176 H1170 0.950 . S
C1176 C1177 1.327 . S
C1177 H1171 0.950 . S
C1177 C1176 1.327 . S
C1177 C1181 1.429 . S
C1178 C1161 1.574 . S
C1178 H1172 0.949 . S
C1178 C1182 1.368 . S
C1179 C1160 1.429 . S
C1179 C1173 1.429 . S
C1179 C1180 1.523 . S
C1180 C1161 1.368 . S
C1180 C1174 1.368 . S
C1180 C1179 1.523 . S
C1181 C1165 1.429 . S
C1181 C1177 1.429 . S
C1181 C1182 1.523 . S
C1182 C1166 1.368 . S
C1182 C1178 1.368 . S
C1182 C1181 1.523 . S
H1183 C1158 0.950 . S
H1184 C1160 0.950 . S
H1185 C1161 0.949 . S
H1186 C1163 0.950 . S
H1187 C1165 0.950 . S
C1188 C1189 1.349 . S
C1188 C1190 1.327 . S
C1188 H1213 0.950 . S
C1189 C1188 1.349 . S
C1189 C1205 1.349 . S
C1190 C1188 1.327 . S
C1190 C1209 1.429 . S
C1190 H1214 0.950 . S
C1191 C1208 1.574 . S
C1191 C1210 1.368 . S
C1191 H1215 0.949 . S
H1192 C1196 0.949 . S
C1193 C1194 1.349 . S
C1193 C1195 1.327 . S
C1193 H1216 0.950 . S
C1194 C1193 1.349 . S
C1194 C1206 1.349 . S
C1195 C1193 1.327 . S
C1195 C1211 1.429 . S
C1195 H1217 0.950 . S
C1196 H1192 0.949 . S
C1196 C1204 1.574 . S
C1196 C1212 1.368 . S
H1197 C1205 0.950 . S
H1198 C1203 0.950 . S
H1199 C1204 0.949 . S
H1200 C1206 0.950 . S
H1201 C1207 0.950 . S
H1202 C1208 0.949 . S
C1203 H1198 0.950 . S
C1203 C1205 1.327 . S
C1203 C1209 1.429 . S
C1204 C1196 1.574 . S
C1204 H1199 0.949 . S
C1204 C1210 1.368 . S
C1205 C1189 1.349 . S
C1205 H1197 0.950 . S
C1205 C1203 1.327 . S
C1206 C1194 1.349 . S
C1206 H1200 0.950 . S
C1206 C1207 1.327 . S
C1207 H1201 0.950 . S
C1207 C1206 1.327 . S
C1207 C1211 1.429 . S
C1208 C1191 1.574 . S
C1208 H1202 0.949 . S
C1208 C1212 1.368 . S
C1209 C1190 1.429 . S
C1209 C1203 1.429 . S
C1209 C1210 1.523 . S
C1210 C1191 1.368 . S
C1210 C1204 1.368 . S
C1210 C1209 1.523 . S
C1211 C1195 1.429 . S
C1211 C1207 1.429 . S
C1211 C1212 1.523 . S
C1212 C1196 1.368 . S
C1212 C1208 1.368 . S
C1212 C1211 1.523 . S
H1213 C1188 0.950 . S
H1214 C1190 0.950 . S
H1215 C1191 0.949 . S
H1216 C1193 0.950 . S
H1217 C1195 0.950 . S
C1218 C1219 1.349 . S
C1218 C1220 1.327 . S
C1218 H1243 0.950 . S
C1219 C1218 1.349 . S
C1219 C1235 1.349 . S
C1220 C1218 1.327 . S
C1220 C1239 1.429 . S
C1220 H1244 0.950 . S
C1221 C1238 1.574 . S
C1221 C1240 1.368 . S
C1221 H1245 0.949 . S
H1222 C1226 0.949 . S
C1223 C1224 1.349 . S
C1223 C1225 1.327 . S
C1223 H1246 0.950 . S
C1224 C1223 1.349 . S
C1224 C1236 1.349 . S
C1225 C1223 1.327 . S
C1225 C1241 1.429 . S
C1225 H1247 0.950 . S
C1226 H1222 0.949 . S
C1226 C1234 1.574 . S
C1226 C1242 1.368 . S
H1227 C1235 0.950 . S
H1228 C1233 0.950 . S
H1229 C1234 0.949 . S
H1230 C1236 0.950 . S
H1231 C1237 0.950 . S
H1232 C1238 0.949 . S
C1233 H1228 0.950 . S
C1233 C1235 1.327 . S
C1233 C1239 1.429 . S
C1234 C1226 1.574 . S
C1234 H1229 0.949 . S
C1234 C1240 1.368 . S
C1235 C1219 1.349 . S
C1235 H1227 0.950 . S
C1235 C1233 1.327 . S
C1236 C1224 1.349 . S
C1236 H1230 0.950 . S
C1236 C1237 1.327 . S
C1237 H1231 0.950 . S
C1237 C1236 1.327 . S
C1237 C1241 1.429 . S
C1238 C1221 1.574 . S
C1238 H1232 0.949 . S
C1238 C1242 1.368 . S
C1239 C1220 1.429 . S
C1239 C1233 1.429 . S
C1239 C1240 1.523 . S
C1240 C1221 1.368 . S
C1240 C1234 1.368 . S
C1240 C1239 1.523 . S
C1241 C1225 1.429 . S
C1241 C1237 1.429 . S
C1241 C1242 1.523 . S
C1242 C1226 1.368 . S
C1242 C1238 1.368 . S
C1242 C1241 1.523 . S
H1243 C1218 0.950 . S
H1244 C1220 0.950 . S
H1245 C1221 0.949 . S
H1246 C1223 0.950 . S
H1247 C1225 0.950 . S
C1248 C1249 1.349 . S
C1248 C1250 1.327 . S
C1248 H1273 0.950 . S
C1249 C1248 1.349 . S
C1249 C1265 1.349 . S
C1250 C1248 1.327 . S
C1250 C1269 1.429 . S
C1250 H1274 0.950 . S
C1251 C1268 1.574 . S
C1251 C1270 1.368 . S
C1251 H1275 0.949 . S
H1252 C1256 0.949 . S
C1253 C1254 1.349 . S
C1253 C1255 1.327 . S
C1253 H1276 0.950 . S
C1254 C1253 1.349 . S
C1254 C1266 1.349 . S
C1255 C1253 1.327 . S
C1255 C1271 1.429 . S
C1255 H1277 0.950 . S
C1256 H1252 0.949 . S
C1256 C1264 1.574 . S
C1256 C1272 1.368 . S
H1257 C1265 0.950 . S
H1258 C1263 0.950 . S
H1259 C1264 0.949 . S
H1260 C1266 0.950 . S
H1261 C1267 0.950 . S
H1262 C1268 0.949 . S
C1263 H1258 0.950 . S
C1263 C1265 1.327 . S
C1263 C1269 1.429 . S
C1264 C1256 1.574 . S
C1264 H1259 0.949 . S
C1264 C1270 1.368 . S
C1265 C1249 1.349 . S
C1265 H1257 0.950 . S
C1265 C1263 1.327 . S
C1266 C1254 1.349 . S
C1266 H1260 0.950 . S
C1266 C1267 1.327 . S
C1267 H1261 0.950 . S
C1267 C1266 1.327 . S
C1267 C1271 1.429 . S
C1268 C1251 1.574 . S
C1268 H1262 0.949 . S
C1268 C1272 1.368 . S
C1269 C1250 1.429 . S
C1269 C1263 1.429 . S
C1269 C1270 1.523 . S
C1270 C1251 1.368 . S
C1270 C1264 1.368 . S
C1270 C1269 1.523 . S
C1271 C1255 1.429 . S
C1271 C1267 1.429 . S
C1271 C1272 1.523 . S
C1272 C1256 1.368 . S
C1272 C1268 1.368 . S
C1272 C1271 1.523 . S
H1273 C1248 0.950 . S
H1274 C1250 0.950 . S
H1275 C1251 0.949 . S
H1276 C1253 0.950 . S
H1277 C1255 0.950 . S
C1278 C1279 1.349 . S
C1278 C1280 1.327 . S
C1278 H1303 0.950 . S
C1279 C1278 1.349 . S
C1279 C1295 1.349 . S
C1280 C1278 1.327 . S
C1280 C1299 1.429 . S
C1280 H1304 0.950 . S
C1281 C1298 1.574 . S
C1281 C1300 1.368 . S
C1281 H1305 0.949 . S
H1282 C1286 0.949 . S
C1283 C1284 1.349 . S
C1283 C1285 1.327 . S
C1283 H1306 0.950 . S
C1284 C1283 1.349 . S
C1284 C1296 1.349 . S
C1285 C1283 1.327 . S
C1285 C1301 1.429 . S
C1285 H1307 0.950 . S
C1286 H1282 0.949 . S
C1286 C1294 1.574 . S
C1286 C1302 1.368 . S
H1287 C1295 0.950 . S
H1288 C1293 0.950 . S
H1289 C1294 0.949 . S
H1290 C1296 0.950 . S
H1291 C1297 0.950 . S
H1292 C1298 0.949 . S
C1293 H1288 0.950 . S
C1293 C1295 1.327 . S
C1293 C1299 1.429 . S
C1294 C1286 1.574 . S
C1294 H1289 0.949 . S
C1294 C1300 1.368 . S
C1295 C1279 1.349 . S
C1295 H1287 0.950 . S
C1295 C1293 1.327 . S
C1296 C1284 1.349 . S
C1296 H1290 0.950 . S
C1296 C1297 1.327 . S
C1297 H1291 0.950 . S
C1297 C1296 1.327 . S
C1297 C1301 1.429 . S
C1298 C1281 1.574 . S
C1298 H1292 0.949 . S
C1298 C1302 1.368 . S
C1299 C1280 1.429 . S
C1299 C1293 1.429 . S
C1299 C1300 1.523 . S
C1300 C1281 1.368 . S
C1300 C1294 1.368 . S
C1300 C1299 1.523 . S
C1301 C1285 1.429 . S
C1301 C1297 1.429 . S
C1301 C1302 1.523 . S
C1302 C1286 1.368 . S
C1302 C1298 1.368 . S
C1302 C1301 1.523 . S
H1303 C1278 0.950 . S
H1304 C1280 0.950 . S
H1305 C1281 0.949 . S
H1306 C1283 0.950 . S
H1307 C1285 0.950 . S
C1308 C1309 1.349 . S
C1308 C1310 1.327 . S
C1308 H1333 0.950 . S
C1309 C1308 1.349 . S
C1309 C1325 1.349 . S
C1310 C1308 1.327 . S
C1310 C1329 1.429 . S
C1310 H1334 0.950 . S
C1311 C1328 1.574 . S
C1311 C1330 1.368 . S
C1311 H1335 0.949 . S
H1312 C1316 0.949 . S
C1313 C1314 1.349 . S
C1313 C1315 1.327 . S
C1313 H1336 0.950 . S
C1314 C1313 1.349 . S
C1314 C1326 1.349 . S
C1315 C1313 1.327 . S
C1315 C1331 1.429 . S
C1315 H1337 0.950 . S
C1316 H1312 0.949 . S
C1316 C1324 1.574 . S
C1316 C1332 1.368 . S
H1317 C1325 0.950 . S
H1318 C1323 0.950 . S
H1319 C1324 0.949 . S
H1320 C1326 0.950 . S
H1321 C1327 0.950 . S
H1322 C1328 0.949 . S
C1323 H1318 0.950 . S
C1323 C1325 1.327 . S
C1323 C1329 1.429 . S
C1324 C1316 1.574 . S
C1324 H1319 0.949 . S
C1324 C1330 1.368 . S
C1325 C1309 1.349 . S
C1325 H1317 0.950 . S
C1325 C1323 1.327 . S
C1326 C1314 1.349 . S
C1326 H1320 0.950 . S
C1326 C1327 1.327 . S
C1327 H1321 0.950 . S
C1327 C1326 1.327 . S
C1327 C1331 1.429 . S
C1328 C1311 1.574 . S
C1328 H1322 0.949 . S
C1328 C1332 1.368 . S
C1329 C1310 1.429 . S
C1329 C1323 1.429 . S
C1329 C1330 1.523 . S
C1330 C1311 1.368 . S
C1330 C1324 1.368 . S
C1330 C1329 1.523 . S
C1331 C1315 1.429 . S
C1331 C1327 1.429 . S
C1331 C1332 1.523 . S
C1332 C1316 1.368 . S
C1332 C1328 1.368 . S
C1332 C1331 1.523 . S
H1333 C1308 0.950 . S
H1334 C1310 0.950 . S
H1335 C1311 0.949 . S
H1336 C1313 0.950 . S
H1337 C1315 0.950 . S
C1338 C1339 1.349 . S
C1338 C1340 1.327 . S
C1338 H1363 0.950 . S
C1339 C1338 1.349 . S
C1339 C1355 1.349 . S
C1340 C1338 1.327 . S
C1340 C1359 1.429 . S
C1340 H1364 0.950 . S
C1341 C1358 1.574 . S
C1341 C1360 1.368 . S
C1341 H1365 0.949 . S
H1342 C1346 0.949 . S
C1343 C1344 1.349 . S
C1343 C1345 1.327 . S
C1343 H1366 0.950 . S
C1344 C1343 1.349 . S
C1344 C1356 1.349 . S
C1345 C1343 1.327 . S
C1345 C1361 1.429 . S
C1345 H1367 0.950 . S
C1346 H1342 0.949 . S
C1346 C1354 1.574 . S
C1346 C1362 1.368 . S
H1347 C1355 0.950 . S
H1348 C1353 0.950 . S
H1349 C1354 0.949 . S
H1350 C1356 0.950 . S
H1351 C1357 0.950 . S
H1352 C1358 0.949 . S
C1353 H1348 0.950 . S
C1353 C1355 1.327 . S
C1353 C1359 1.429 . S
C1354 C1346 1.574 . S
C1354 H1349 0.949 . S
C1354 C1360 1.368 . S
C1355 C1339 1.349 . S
C1355 H1347 0.950 . S
C1355 C1353 1.327 . S
C1356 C1344 1.349 . S
C1356 H1350 0.950 . S
C1356 C1357 1.327 . S
C1357 H1351 0.950 . S
C1357 C1356 1.327 . S
C1357 C1361 1.429 . S
C1358 C1341 1.574 . S
C1358 H1352 0.949 . S
C1358 C1362 1.368 . S
C1359 C1340 1.429 . S
C1359 C1353 1.429 . S
C1359 C1360 1.523 . S
C1360 C1341 1.368 . S
C1360 C1354 1.368 . S
C1360 C1359 1.523 . S
C1361 C1345 1.429 . S
C1361 C1357 1.429 . S
C1361 C1362 1.523 . S
C1362 C1346 1.368 . S
C1362 C1358 1.368 . S
C1362 C1361 1.523 . S
H1363 C1338 0.950 . S
H1364 C1340 0.950 . S
H1365 C1341 0.949 . S
H1366 C1343 0.950 . S
H1367 C1345 0.950 . S
C1368 C1369 1.349 . S
C1368 C1370 1.327 . S
C1368 H1393 0.950 . S
C1369 C1368 1.349 . S
C1369 C1385 1.349 . S
C1370 C1368 1.327 . S
C1370 C1389 1.429 . S
C1370 H1394 0.950 . S
C1371 C1388 1.574 . S
C1371 C1390 1.368 . S
C1371 H1395 0.949 . S
H1372 C1376 0.949 . S
C1373 C1374 1.349 . S
C1373 C1375 1.327 . S
C1373 H1396 0.950 . S
C1374 C1373 1.349 . S
C1374 C1386 1.349 . S
C1375 C1373 1.327 . S
C1375 C1391 1.429 . S
C1375 H1397 0.950 . S
C1376 H1372 0.949 . S
C1376 C1384 1.574 . S
C1376 C1392 1.368 . S
H1377 C1385 0.950 . S
H1378 C1383 0.950 . S
H1379 C1384 0.949 . S
H1380 C1386 0.950 . S
H1381 C1387 0.950 . S
H1382 C1388 0.949 . S
C1383 H1378 0.950 . S
C1383 C1385 1.327 . S
C1383 C1389 1.429 . S
C1384 C1376 1.574 . S
C1384 H1379 0.949 . S
C1384 C1390 1.368 . S
C1385 C1369 1.349 . S
C1385 H1377 0.950 . S
C1385 C1383 1.327 . S
C1386 C1374 1.349 . S
C1386 H1380 0.950 . S
C1386 C1387 1.327 . S
C1387 H1381 0.950 . S
C1387 C1386 1.327 . S
C1387 C1391 1.429 . S
C1388 C1371 1.574 . S
C1388 H1382 0.949 . S
C1388 C1392 1.368 . S
C1389 C1370 1.429 . S
C1389 C1383 1.429 . S
C1389 C1390 1.523 . S
C1390 C1371 1.368 . S
C1390 C1384 1.368 . S
C1390 C1389 1.523 . S
C1391 C1375 1.429 . S
C1391 C1387 1.429 . S
C1391 C1392 1.523 . S
C1392 C1376 1.368 . S
C1392 C1388 1.368 . S
C1392 C1391 1.523 . S
H1393 C1368 0.950 . S
H1394 C1370 0.950 . S
H1395 C1371 0.949 . S
H1396 C1373 0.950 . S
H1397 C1375 0.950 . S
C1398 C1399 1.349 . S
C1398 C1400 1.327 . S
C1398 H1423 0.950 . S
C1399 C1398 1.349 . S
C1399 C1415 1.349 . S
C1400 C1398 1.327 . S
C1400 C1419 1.429 . S
C1400 H1424 0.950 . S
C1401 C1418 1.574 . S
C1401 C1420 1.368 . S
C1401 H1425 0.949 . S
H1402 C1406 0.949 . S
C1403 C1404 1.349 . S
C1403 C1405 1.327 . S
C1403 H1426 0.950 . S
C1404 C1403 1.349 . S
C1404 C1416 1.349 . S
C1405 C1403 1.327 . S
C1405 C1421 1.429 . S
C1405 H1427 0.950 . S
C1406 H1402 0.949 . S
C1406 C1414 1.574 . S
C1406 C1422 1.368 . S
H1407 C1415 0.950 . S
H1408 C1413 0.950 . S
H1409 C1414 0.949 . S
H1410 C1416 0.950 . S
H1411 C1417 0.950 . S
H1412 C1418 0.949 . S
C1413 H1408 0.950 . S
C1413 C1415 1.327 . S
C1413 C1419 1.429 . S
C1414 C1406 1.574 . S
C1414 H1409 0.949 . S
C1414 C1420 1.368 . S
C1415 C1399 1.349 . S
C1415 H1407 0.950 . S
C1415 C1413 1.327 . S
C1416 C1404 1.349 . S
C1416 H1410 0.950 . S
C1416 C1417 1.327 . S
C1417 H1411 0.950 . S
C1417 C1416 1.327 . S
C1417 C1421 1.429 . S
C1418 C1401 1.574 . S
C1418 H1412 0.949 . S
C1418 C1422 1.368 . S
C1419 C1400 1.429 . S
C1419 C1413 1.429 . S
C1419 C1420 1.523 . S
C1420 C1401 1.368 . S
C1420 C1414 1.368 . S
C1420 C1419 1.523 . S
C1421 C1405 1.429 . S
C1421 C1417 1.429 . S
C1421 C1422 1.523 . S
C1422 C1406 1.368 . S
C1422 C1418 1.368 . S
C1422 C1421 1.523 . S
H1423 C1398 0.950 . S
H1424 C1400 0.950 . S
H1425 C1401 0.949 . S
H1426 C1403 0.950 . S
H1427 C1405 0.950 . S
C1428 C1429 1.349 . S
C1428 C1430 1.327 . S
C1428 H1453 0.950 . S
C1429 C1428 1.349 . S
C1429 C1445 1.349 . S
C1430 C1428 1.327 . S
C1430 C1449 1.429 . S
C1430 H1454 0.950 . S
C1431 C1448 1.574 . S
C1431 C1450 1.368 . S
C1431 H1455 0.949 . S
H1432 C1436 0.949 . S
C1433 C1434 1.349 . S
C1433 C1435 1.327 . S
C1433 H1456 0.950 . S
C1434 C1433 1.349 . S
C1434 C1446 1.349 . S
C1435 C1433 1.327 . S
C1435 C1451 1.429 . S
C1435 H1457 0.950 . S
C1436 H1432 0.949 . S
C1436 C1444 1.574 . S
C1436 C1452 1.368 . S
H1437 C1445 0.950 . S
H1438 C1443 0.950 . S
H1439 C1444 0.949 . S
H1440 C1446 0.950 . S
H1441 C1447 0.950 . S
H1442 C1448 0.949 . S
C1443 H1438 0.950 . S
C1443 C1445 1.327 . S
C1443 C1449 1.429 . S
C1444 C1436 1.574 . S
C1444 H1439 0.949 . S
C1444 C1450 1.368 . S
C1445 C1429 1.349 . S
C1445 H1437 0.950 . S
C1445 C1443 1.327 . S
C1446 C1434 1.349 . S
C1446 H1440 0.950 . S
C1446 C1447 1.327 . S
C1447 H1441 0.950 . S
C1447 C1446 1.327 . S
C1447 C1451 1.429 . S
C1448 C1431 1.574 . S
C1448 H1442 0.949 . S
C1448 C1452 1.368 . S
C1449 C1430 1.429 . S
C1449 C1443 1.429 . S
C1449 C1450 1.523 . S
C1450 C1431 1.368 . S
C1450 C1444 1.368 . S
C1450 C1449 1.523 . S
C1451 C1435 1.429 . S
C1451 C1447 1.429 . S
C1451 C1452 1.523 . S
C1452 C1436 1.368 . S
C1452 C1448 1.368 . S
C1452 C1451 1.523 . S
H1453 C1428 0.950 . S
H1454 C1430 0.950 . S
H1455 C1431 0.949 . S
H1456 C1433 0.950 . S
H1457 C1435 0.950 . S
C1458 C1459 1.349 . S
C1458 C1460 1.327 . S
C1458 H1483 0.950 . S
C1459 C1458 1.349 . S
C1459 C1475 1.349 . S
C1460 C1458 1.327 . S
C1460 C1479 1.429 . S
C1460 H1484 0.950 . S
C1461 C1478 1.574 . S
C1461 C1480 1.368 . S
C1461 H1485 0.949 . S
H1462 C1466 0.949 . S
C1463 C1464 1.349 . S
C1463 C1465 1.327 . S
C1463 H1486 0.950 . S
C1464 C1463 1.349 . S
C1464 C1476 1.349 . S
C1465 C1463 1.327 . S
C1465 C1481 1.429 . S
C1465 H1487 0.950 . S
C1466 H1462 0.949 . S
C1466 C1474 1.574 . S
C1466 C1482 1.368 . S
H1467 C1475 0.950 . S
H1468 C1473 0.950 . S
H1469 C1474 0.949 . S
H1470 C1476 0.950 . S
H1471 C1477 0.950 . S
H1472 C1478 0.949 . S
C1473 H1468 0.950 . S
C1473 C1475 1.327 . S
C1473 C1479 1.429 . S
C1474 C1466 1.574 . S
C1474 H1469 0.949 . S
C1474 C1480 1.368 . S
C1475 C1459 1.349 . S
C1475 H1467 0.950 . S
C1475 C1473 1.327 . S
C1476 C1464 1.349 . S
C1476 H1470 0.950 . S
C1476 C1477 1.327 . S
C1477 H1471 0.950 . S
C1477 C1476 1.327 . S
C1477 C1481 1.429 . S
C1478 C1461 1.574 . S
C1478 H1472 0.949 . S
C1478 C1482 1.368 . S
C1479 C1460 1.429 . S
C1479 C1473 1.429 . S
C1479 C1480 1.523 . S
C1480 C1461 1.368 . S
C1480 C1474 1.368 . S
C1480 C1479 1.523 . S
C1481 C1465 1.429 . S
C1481 C1477 1.429 . S
C1481 C1482 1.523 . S
C1482 C1466 1.368 . S
C1482 C1478 1.368 . S
C1482 C1481 1.523 . S
H1483 C1458 0.950 . S
H1484 C1460 0.950 . S
H1485 C1461 0.949 . S
H1486 C1463 0.950 . S
H1487 C1465 0.950 . S
C1488 C1489 1.349 . S
C1488 C1490 1.327 . S
C1488 H1513 0.950 . S
C1489 C1488 1.349 . S
C1489 C1505 1.349 . S
C1490 C1488 1.327 . S
C1490 C1509 1.429 . S
C1490 H1514 0.950 . S
C1491 C1508 1.574 . S
C1491 C1510 1.368 . S
C1491 H1515 0.949 . S
H1492 C1496 0.949 . S
C1493 C1494 1.349 . S
C1493 C1495 1.327 . S
C1493 H1516 0.950 . S
C1494 C1493 1.349 . S
C1494 C1506 1.349 . S
C1495 C1493 1.327 . S
C1495 C1511 1.429 . S
C1495 H1517 0.950 . S
C1496 H1492 0.949 . S
C1496 C1504 1.574 . S
C1496 C1512 1.368 . S
H1497 C1505 0.950 . S
H1498 C1503 0.950 . S
H1499 C1504 0.949 . S
H1500 C1506 0.950 . S
H1501 C1507 0.950 . S
H1502 C1508 0.949 . S
C1503 H1498 0.950 . S
C1503 C1505 1.327 . S
C1503 C1509 1.429 . S
C1504 C1496 1.574 . S
C1504 H1499 0.949 . S
C1504 C1510 1.368 . S
C1505 C1489 1.349 . S
C1505 H1497 0.950 . S
C1505 C1503 1.327 . S
C1506 C1494 1.349 . S
C1506 H1500 0.950 . S
C1506 C1507 1.327 . S
C1507 H1501 0.950 . S
C1507 C1506 1.327 . S
C1507 C1511 1.429 . S
C1508 C1491 1.574 . S
C1508 H1502 0.949 . S
C1508 C1512 1.368 . S
C1509 C1490 1.429 . S
C1509 C1503 1.429 . S
C1509 C1510 1.523 . S
C1510 C1491 1.368 . S
C1510 C1504 1.368 . S
C1510 C1509 1.523 . S
C1511 C1495 1.429 . S
C1511 C1507 1.429 . S
C1511 C1512 1.523 . S
C1512 C1496 1.368 . S
C1512 C1508 1.368 . S
C1512 C1511 1.523 . S
H1513 C1488 0.950 . S
H1514 C1490 0.950 . S
H1515 C1491 0.949 . S
H1516 C1493 0.950 . S
H1517 C1495 0.950 . S
C1518 C1519 1.349 . S
C1518 C1520 1.327 . S
C1518 H1543 0.950 . S
C1519 C1518 1.349 . S
C1519 C1535 1.349 . S
C1520 C1518 1.327 . S
C1520 C1539 1.429 . S
C1520 H1544 0.950 . S
C1521 C1538 1.574 . S
C1521 C1540 1.368 . S
C1521 H1545 0.949 . S
H1522 C1526 0.949 . S
C1523 C1524 1.349 . S
C1523 C1525 1.327 . S
C1523 H1546 0.950 . S
C1524 C1523 1.349 . S
C1524 C1536 1.349 . S
C1525 C1523 1.327 . S
C1525 C1541 1.429 . S
C1525 H1547 0.950 . S
C1526 H1522 0.949 . S
C1526 C1534 1.574 . S
C1526 C1542 1.368 . S
H1527 C1535 0.950 . S
H1528 C1533 0.950 . S
H1529 C1534 0.949 . S
H1530 C1536 0.950 . S
H1531 C1537 0.950 . S
H1532 C1538 0.949 . S
C1533 H1528 0.950 . S
C1533 C1535 1.327 . S
C1533 C1539 1.429 . S
C1534 C1526 1.574 . S
C1534 H1529 0.949 . S
C1534 C1540 1.368 . S
C1535 C1519 1.349 . S
C1535 H1527 0.950 . S
C1535 C1533 1.327 . S
C1536 C1524 1.349 . S
C1536 H1530 0.950 . S
C1536 C1537 1.327 . S
C1537 H1531 0.950 . S
C1537 C1536 1.327 . S
C1537 C1541 1.429 . S
C1538 C1521 1.574 . S
C1538 H1532 0.949 . S
C1538 C1542 1.368 . S
C1539 C1520 1.429 . S
C1539 C1533 1.429 . S
C1539 C1540 1.523 . S
C1540 C1521 1.368 . S
C1540 C1534 1.368 . S
C1540 C1539 1.523 . S
C1541 C1525 1.429 . S
C1541 C1537 1.429 . S
C1541 C1542 1.523 . S
C1542 C1526 1.368 . S
C1542 C1538 1.368 . S
C1542 C1541 1.523 . S
H1543 C1518 0.950 . S
H1544 C1520 0.950 . S
H1545 C1521 0.949 . S
H1546 C1523 0.950 . S
H1547 C1525 0.950 . S
C1548 C1549 1.349 . S
C1548 C1550 1.327 . S
C1548 H1573 0.950 . S
C1549 C1548 1.349 . S
C1549 C1565 1.349 . S
C1550 C1548 1.327 . S
C1550 C1569 1.429 . S
C1550 H1574 0.950 . S
C1551 C1568 1.574 . S
C1551 C1570 1.368 . S
C1551 H1575 0.949 . S
H1552 C1556 0.949 . S
C1553 C1554 1.349 . S
C1553 C1555 1.327 . S
C1553 H1576 0.950 . S
C1554 C1553 1.349 . S
C1554 C1566 1.349 . S
C1555 C1553 1.327 . S
C1555 C1571 1.429 . S
C1555 H1577 0.950 . S
C1556 H1552 0.949 . S
C1556 C1564 1.574 . S
C1556 C1572 1.368 . S
H1557 C1565 0.950 . S
H1558 C1563 0.950 . S
H1559 C1564 0.949 . S
H1560 C1566 0.950 . S
H1561 C1567 0.950 . S
H1562 C1568 0.949 . S
C1563 H1558 0.950 . S
C1563 C1565 1.327 . S
C1563 C1569 1.429 . S
C1564 C1556 1.574 . S
C1564 H1559 0.949 . S
C1564 C1570 1.368 . S
C1565 C1549 1.349 . S
C1565 H1557 0.950 . S
C1565 C1563 1.327 . S
C1566 C1554 1.349 . S
C1566 H1560 0.950 . S
C1566 C1567 1.327 . S
C1567 H1561 0.950 . S
C1567 C1566 1.327 . S
C1567 C1571 1.429 . S
C1568 C1551 1.574 . S
C1568 H1562 0.949 . S
C1568 C1572 1.368 . S
C1569 C1550 1.429 . S
C1569 C1563 1.429 . S
C1569 C1570 1.523 . S
C1570 C1551 1.368 . S
C1570 C1564 1.368 . S
C1570 C1569 1.523 . S
C1571 C1555 1.429 . S
C1571 C1567 1.429 . S
C1571 C1572 1.523 . S
C1572 C1556 1.368 . S
C1572 C1568 1.368 . S
C1572 C1571 1.523 . S
H1573 C1548 0.950 . S
H1574 C1550 0.950 . S
H1575 C1551 0.949 . S
H1576 C1553 0.950 . S
H1577 C1555 0.950 . S
C1578 C1579 1.349 . S
C1578 C1580 1.327 . S
C1578 H1603 0.950 . S
C1579 C1578 1.349 . S
C1579 C1595 1.349 . S
C1580 C1578 1.327 . S
C1580 C1599 1.429 . S
C1580 H1604 0.950 . S
C1581 C1598 1.574 . S
C1581 C1600 1.368 . S
C1581 H1605 0.949 . S
H1582 C1586 0.949 . S
C1583 C1584 1.349 . S
C1583 C1585 1.327 . S
C1583 H1606 0.950 . S
C1584 C1583 1.349 . S
C1584 C1596 1.349 . S
C1585 C1583 1.327 . S
C1585 C1601 1.429 . S
C1585 H1607 0.950 . S
C1586 H1582 0.949 . S
C1586 C1594 1.574 . S
C1586 C1602 1.368 . S
H1587 C1595 0.950 . S
H1588 C1593 0.950 . S
H1589 C1594 0.949 . S
H1590 C1596 0.950 . S
H1591 C1597 0.950 . S
H1592 C1598 0.949 . S
C1593 H1588 0.950 . S
C1593 C1595 1.327 . S
C1593 C1599 1.429 . S
C1594 C1586 1.574 . S
C1594 H1589 0.949 . S
C1594 C1600 1.368 . S
C1595 C1579 1.349 . S
C1595 H1587 0.950 . S
C1595 C1593 1.327 . S
C1596 C1584 1.349 . S
C1596 H1590 0.950 . S
C1596 C1597 1.327 . S
C1597 H1591 0.950 . S
C1597 C1596 1.327 . S
C1597 C1601 1.429 . S
C1598 C1581 1.574 . S
C1598 H1592 0.949 . S
C1598 C1602 1.368 . S
C1599 C1580 1.429 . S
C1599 C1593 1.429 . S
C1599 C1600 1.523 . S
C1600 C1581 1.368 . S
C1600 C1594 1.368 . S
C1600 C1599 1.523 . S
C1601 C1585 1.429 . S
C1601 C1597 1.429 . S
C1601 C1602 1.523 . S
C1602 C1586 1.368 . S
C1602 C1598 1.368 . S
C1602 C1601 1.523 . S
H1603 C1578 0.950 . S
H1604 C1580 0.950 . S
H1605 C1581 0.949 . S
H1606 C1583 0.950 . S
H1607 C1585 0.950 . S
C1608 C1609 1.349 . S
C1608 C1610 1.327 . S
C1608 H1633 0.950 . S
C1609 C1608 1.349 . S
C1609 C1625 1.349 . S
C1610 C1608 1.327 . S
C1610 C1629 1.429 . S
C1610 H1634 0.950 . S
C1611 C1628 1.574 . S
C1611 C1630 1.368 . S
C1611 H1635 0.949 . S
H1612 C1616 0.949 . S
C1613 C1614 1.349 . S
C1613 C1615 1.327 . S
C1613 H1636 0.950 . S
C1614 C1613 1.349 . S
C1614 C1626 1.349 . S
C1615 C1613 1.327 . S
C1615 C1631 1.429 . S
C1615 H1637 0.950 . S
C1616 H1612 0.949 . S
C1616 C1624 1.574 . S
C1616 C1632 1.368 . S
H1617 C1625 0.950 . S
H1618 C1623 0.950 . S
H1619 C1624 0.949 . S
H1620 C1626 0.950 . S
H1621 C1627 0.950 . S
H1622 C1628 0.949 . S
C1623 H1618 0.950 . S
C1623 C1625 1.327 . S
C1623 C1629 1.429 . S
C1624 C1616 1.574 . S
C1624 H1619 0.949 . S
C1624 C1630 1.368 . S
C1625 C1609 1.349 . S
C1625 H1617 0.950 . S
C1625 C1623 1.327 . S
C1626 C1614 1.349 . S
C1626 H1620 0.950 . S
C1626 C1627 1.327 . S
C1627 H1621 0.950 . S
C1627 C1626 1.327 . S
C1627 C1631 1.429 . S
C1628 C1611 1.574 . S
C1628 H1622 0.949 . S
C1628 C1632 1.368 . S
C1629 C1610 1.429 . S
C1629 C1623 1.429 . S
C1629 C1630 1.523 . S
C1630 C1611 1.368 . S
C1630 C1624 1.368 . S
C1630 C1629 1.523 . S
C1631 C1615 1.429 . S
C1631 C1627 1.429 . S
C1631 C1632 1.523 . S
C1632 C1616 1.368 . S
C1632 C1628 1.368 . S
C1632 C1631 1.523 . S
H1633 C1608 0.950 . S
H1634 C1610 0.950 . S
H1635 C1611 0.949 . S
H1636 C1613 0.950 . S
H1637 C1615 0.950 . S
C1638 C1639 1.349 . S
C1638 C1640 1.327 . S
C1638 H1663 0.950 . S
C1639 C1638 1.349 . S
C1639 C1655 1.349 . S
C1640 C1638 1.327 . S
C1640 C1659 1.429 . S
C1640 H1664 0.950 . S
C1641 C1658 1.574 . S
C1641 C1660 1.368 . S
C1641 H1665 0.949 . S
H1642 C1646 0.949 . S
C1643 C1644 1.349 . S
C1643 C1645 1.327 . S
C1643 H1666 0.950 . S
C1644 C1643 1.349 . S
C1644 C1656 1.349 . S
C1645 C1643 1.327 . S
C1645 C1661 1.429 . S
C1645 H1667 0.950 . S
C1646 H1642 0.949 . S
C1646 C1654 1.574 . S
C1646 C1662 1.368 . S
H1647 C1655 0.950 . S
H1648 C1653 0.950 . S
H1649 C1654 0.949 . S
H1650 C1656 0.950 . S
H1651 C1657 0.950 . S
H1652 C1658 0.949 . S
C1653 H1648 0.950 . S
C1653 C1655 1.327 . S
C1653 C1659 1.429 . S
C1654 C1646 1.574 . S
C1654 H1649 0.949 . S
C1654 C1660 1.368 . S
C1655 C1639 1.349 . S
C1655 H1647 0.950 . S
C1655 C1653 1.327 . S
C1656 C1644 1.349 . S
C1656 H1650 0.950 . S
C1656 C1657 1.327 . S
C1657 H1651 0.950 . S
C1657 C1656 1.327 . S
C1657 C1661 1.429 . S
C1658 C1641 1.574 . S
C1658 H1652 0.949 . S
C1658 C1662 1.368 . S
C1659 C1640 1.429 . S
C1659 C1653 1.429 . S
C1659 C1660 1.523 . S
C1660 C1641 1.368 . S
C1660 C1654 1.368 . S
C1660 C1659 1.523 . S
C1661 C1645 1.429 . S
C1661 C1657 1.429 . S
C1661 C1662 1.523 . S
C1662 C1646 1.368 . S
C1662 C1658 1.368 . S
C1662 C1661 1.523 . S
H1663 C1638 0.950 . S
H1664 C1640 0.950 . S
H1665 C1641 0.949 . S
H1666 C1643 0.950 . S
H1667 C1645 0.950 . S
C1668 C1669 1.349 . S
C1668 C1670 1.327 . S
C1668 H1693 0.950 . S
C1669 C1668 1.349 . S
C1669 C1685 1.349 . S
C1670 C1668 1.327 . S
C1670 C1689 1.429 . S
C1670 H1694 0.950 . S
C1671 C1688 1.574 . S
C1671 C1690 1.368 . S
C1671 H1695 0.949 . S
H1672 C1676 0.949 . S
C1673 C1674 1.349 . S
C1673 C1675 1.327 . S
C1673 H1696 0.950 . S
C1674 C1673 1.349 . S
C1674 C1686 1.349 . S
C1675 C1673 1.327 . S
C1675 C1691 1.429 . S
C1675 H1697 0.950 . S
C1676 H1672 0.949 . S
C1676 C1684 1.574 . S
C1676 C1692 1.368 . S
H1677 C1685 0.950 . S
H1678 C1683 0.950 . S
H1679 C1684 0.949 . S
H1680 C1686 0.950 . S
H1681 C1687 0.950 . S
H1682 C1688 0.949 . S
C1683 H1678 0.950 . S
C1683 C1685 1.327 . S
C1683 C1689 1.429 . S
C1684 C1676 1.574 . S
C1684 H1679 0.949 . S
C1684 C1690 1.368 . S
C1685 C1669 1.349 . S
C1685 H1677 0.950 . S
C1685 C1683 1.327 . S
C1686 C1674 1.349 . S
C1686 H1680 0.950 . S
C1686 C1687 1.327 . S
C1687 H1681 0.950 . S
C1687 C1686 1.327 . S
C1687 C1691 1.429 . S
C1688 C1671 1.574 . S
C1688 H1682 0.949 . S
C1688 C1692 1.368 . S
C1689 C1670 1.429 . S
C1689 C1683 1.429 . S
C1689 C1690 1.523 . S
C1690 C1671 1.368 . S
C1690 C1684 1.368 . S
C1690 C1689 1.523 . S
C1691 C1675 1.429 . S
C1691 C1687 1.429 . S
C1691 C1692 1.523 . S
C1692 C1676 1.368 . S
C1692 C1688 1.368 . S
C1692 C1691 1.523 . S
H1693 C1668 0.950 . S
H1694 C1670 0.950 . S
H1695 C1671 0.949 . S
H1696 C1673 0.950 . S
H1697 C1675 0.950 . S
C1698 C1699 1.349 . S
C1698 C1700 1.327 . S
C1698 H1723 0.950 . S
C1699 C1698 1.349 . S
C1699 C1715 1.349 . S
C1700 C1698 1.327 . S
C1700 C1719 1.429 . S
C1700 H1724 0.950 . S
C1701 C1718 1.574 . S
C1701 C1720 1.368 . S
C1701 H1725 0.949 . S
H1702 C1706 0.949 . S
C1703 C1704 1.349 . S
C1703 C1705 1.327 . S
C1703 H1726 0.950 . S
C1704 C1703 1.349 . S
C1704 C1716 1.349 . S
C1705 C1703 1.327 . S
C1705 C1721 1.429 . S
C1705 H1727 0.950 . S
C1706 H1702 0.949 . S
C1706 C1714 1.574 . S
C1706 C1722 1.368 . S
H1707 C1715 0.950 . S
H1708 C1713 0.950 . S
H1709 C1714 0.949 . S
H1710 C1716 0.950 . S
H1711 C1717 0.950 . S
H1712 C1718 0.949 . S
C1713 H1708 0.950 . S
C1713 C1715 1.327 . S
C1713 C1719 1.429 . S
C1714 C1706 1.574 . S
C1714 H1709 0.949 . S
C1714 C1720 1.368 . S
C1715 C1699 1.349 . S
C1715 H1707 0.950 . S
C1715 C1713 1.327 . S
C1716 C1704 1.349 . S
C1716 H1710 0.950 . S
C1716 C1717 1.327 . S
C1717 H1711 0.950 . S
C1717 C1716 1.327 . S
C1717 C1721 1.429 . S
C1718 C1701 1.574 . S
C1718 H1712 0.949 . S
C1718 C1722 1.368 . S
C1719 C1700 1.429 . S
C1719 C1713 1.429 . S
C1719 C1720 1.523 . S
C1720 C1701 1.368 . S
C1720 C1714 1.368 . S
C1720 C1719 1.523 . S
C1721 C1705 1.429 . S
C1721 C1717 1.429 . S
C1721 C1722 1.523 . S
C1722 C1706 1.368 . S
C1722 C1718 1.368 . S
C1722 C1721 1.523 . S
H1723 C1698 0.950 . S
H1724 C1700 0.950 . S
H1725 C1701 0.949 . S
H1726 C1703 0.950 . S
H1727 C1705 0.950 . S
C1728 C1729 1.349 . S
C1728 C1730 1.327 . S
C1728 H1753 0.950 . S
C1729 C1728 1.349 . S
C1729 C1745 1.349 . S
C1730 C1728 1.327 . S
C1730 C1749 1.429 . S
C1730 H1754 0.950 . S
C1731 C1748 1.574 . S
C1731 C1750 1.368 . S
C1731 H1755 0.949 . S
H1732 C1736 0.949 . S
C1733 C1734 1.349 . S
C1733 C1735 1.327 . S
C1733 H1756 0.950 . S
C1734 C1733 1.349 . S
C1734 C1746 1.349 . S
C1735 C1733 1.327 . S
C1735 C1751 1.429 . S
C1735 H1757 0.950 . S
C1736 H1732 0.949 . S
C1736 C1744 1.574 . S
C1736 C1752 1.368 . S
H1737 C1745 0.950 . S
H1738 C1743 0.950 . S
H1739 C1744 0.949 . S
H1740 C1746 0.950 . S
H1741 C1747 0.950 . S
H1742 C1748 0.949 . S
C1743 H1738 0.950 . S
C1743 C1745 1.327 . S
C1743 C1749 1.429 . S
C1744 C1736 1.574 . S
C1744 H1739 0.949 . S
C1744 C1750 1.368 . S
C1745 C1729 1.349 . S
C1745 H1737 0.950 . S
C1745 C1743 1.327 . S
C1746 C1734 1.349 . S
C1746 H1740 0.950 . S
C1746 C1747 1.327 . S
C1747 H1741 0.950 . S
C1747 C1746 1.327 . S
C1747 C1751 1.429 . S
C1748 C1731 1.574 . S
C1748 H1742 0.949 . S
C1748 C1752 1.368 . S
C1749 C1730 1.429 . S
C1749 C1743 1.429 . S
C1749 C1750 1.523 . S
C1750 C1731 1.368 . S
C1750 C1744 1.368 . S
C1750 C1749 1.523 . S
C1751 C1735 1.429 . S
C1751 C1747 1.429 . S
C1751 C1752 1.523 . S
C1752 C1736 1.368 . S
C1752 C1748 1.368 . S
C1752 C1751 1.523 . S
H1753 C1728 0.950 . S
H1754 C1730 0.950 . S
H1755 C1731 0.949 . S
H1756 C1733 0.950 . S
H1757 C1735 0.950 . S
C1758 C1759 1.349 . S
C1758 C1760 1.327 . S
C1758 H1783 0.950 . S
C1759 C1758 1.349 . S
C1759 C1775 1.349 . S
C1760 C1758 1.327 . S
C1760 C1779 1.429 . S
C1760 H1784 0.950 . S
C1761 C1778 1.574 . S
C1761 C1780 1.368 . S
C1761 H1785 0.949 . S
H1762 C1766 0.949 . S
C1763 C1764 1.349 . S
C1763 C1765 1.327 . S
C1763 H1786 0.950 . S
C1764 C1763 1.349 . S
C1764 C1776 1.349 . S
C1765 C1763 1.327 . S
C1765 C1781 1.429 . S
C1765 H1787 0.950 . S
C1766 H1762 0.949 . S
C1766 C1774 1.574 . S
C1766 C1782 1.368 . S
H1767 C1775 0.950 . S
H1768 C1773 0.950 . S
H1769 C1774 0.949 . S
H1770 C1776 0.950 . S
H1771 C1777 0.950 . S
H1772 C1778 0.949 . S
C1773 H1768 0.950 . S
C1773 C1775 1.327 . S
C1773 C1779 1.429 . S
C1774 C1766 1.574 . S
C1774 H1769 0.949 . S
C1774 C1780 1.368 . S
C1775 C1759 1.349 . S
C1775 H1767 0.950 . S
C1775 C1773 1.327 . S
C1776 C1764 1.349 . S
C1776 H1770 0.950 . S
C1776 C1777 1.327 . S
C1777 H1771 0.950 . S
C1777 C1776 1.327 . S
C1777 C1781 1.429 . S
C1778 C1761 1.574 . S
C1778 H1772 0.949 . S
C1778 C1782 1.368 . S
C1779 C1760 1.429 . S
C1779 C1773 1.429 . S
C1779 C1780 1.523 . S
C1780 C1761 1.368 . S
C1780 C1774 1.368 . S
C1780 C1779 1.523 . S
C1781 C1765 1.429 . S
C1781 C1777 1.429 . S
C1781 C1782 1.523 . S
C1782 C1766 1.368 . S
C1782 C1778 1.368 . S
C1782 C1781 1.523 . S
H1783 C1758 0.950 . S
H1784 C1760 0.950 . S
H1785 C1761 0.949 . S
H1786 C1763 0.950 . S
H1787 C1765 0.950 . S
C1788 C1789 1.349 . S
C1788 C1790 1.327 . S
C1788 H1813 0.950 . S
C1789 C1788 1.349 . S
C1789 C1805 1.349 . S
C1790 C1788 1.327 . S
C1790 C1809 1.429 . S
C1790 H1814 0.950 . S
C1791 C1808 1.574 . S
C1791 C1810 1.368 . S
C1791 H1815 0.949 . S
H1792 C1796 0.949 . S
C1793 C1794 1.349 . S
C1793 C1795 1.327 . S
C1793 H1816 0.950 . S
C1794 C1793 1.349 . S
C1794 C1806 1.349 . S
C1795 C1793 1.327 . S
C1795 C1811 1.429 . S
C1795 H1817 0.950 . S
C1796 H1792 0.949 . S
C1796 C1804 1.574 . S
C1796 C1812 1.368 . S
H1797 C1805 0.950 . S
H1798 C1803 0.950 . S
H1799 C1804 0.949 . S
H1800 C1806 0.950 . S
H1801 C1807 0.950 . S
H1802 C1808 0.949 . S
C1803 H1798 0.950 . S
C1803 C1805 1.327 . S
C1803 C1809 1.429 . S
C1804 C1796 1.574 . S
C1804 H1799 0.949 . S
C1804 C1810 1.368 . S
C1805 C1789 1.349 . S
C1805 H1797 0.950 . S
C1805 C1803 1.327 . S
C1806 C1794 1.349 . S
C1806 H1800 0.950 . S
C1806 C1807 1.327 . S
C1807 H1801 0.950 . S
C1807 C1806 1.327 . S
C1807 C1811 1.429 . S
C1808 C1791 1.574 . S
C1808 H1802 0.949 . S
C1808 C1812 1.368 . S
C1809 C1790 1.429 . S
C1809 C1803 1.429 . S
C1809 C1810 1.523 . S
C1810 C1791 1.368 . S
C1810 C1804 1.368 . S
C1810 C1809 1.523 . S
C1811 C1795 1.429 . S
C1811 C1807 1.429 . S
C1811 C1812 1.523 . S
C1812 C1796 1.368 . S
C1812 C1808 1.368 . S
C1812 C1811 1.523 . S
H1813 C1788 0.950 . S
H1814 C1790 0.950 . S
H1815 C1791 0.949 . S
H1816 C1793 0.950 . S
H1817 C1795 0.950 . S
C1818 C1819 1.349 . S
C1818 C1820 1.327 . S
C1818 H1843 0.950 . S
C1819 C1818 1.349 . S
C1819 C1835 1.349 . S
C1820 C1818 1.327 . S
C1820 C1839 1.429 . S
C1820 H1844 0.950 . S
C1821 C1838 1.574 . S
C1821 C1840 1.368 . S
C1821 H1845 0.949 . S
H1822 C1826 0.949 . S
C1823 C1824 1.349 . S
C1823 C1825 1.327 . S
C1823 H1846 0.950 . S
C1824 C1823 1.349 . S
C1824 C1836 1.349 . S
C1825 C1823 1.327 . S
C1825 C1841 1.429 . S
C1825 H1847 0.950 . S
C1826 H1822 0.949 . S
C1826 C1834 1.574 . S
C1826 C1842 1.368 . S
H1827 C1835 0.950 . S
H1828 C1833 0.950 . S
H1829 C1834 0.949 . S
H1830 C1836 0.950 . S
H1831 C1837 0.950 . S
H1832 C1838 0.949 . S
C1833 H1828 0.950 . S
C1833 C1835 1.327 . S
C1833 C1839 1.429 . S
C1834 C1826 1.574 . S
C1834 H1829 0.949 . S
C1834 C1840 1.368 . S
C1835 C1819 1.349 . S
C1835 H1827 0.950 . S
C1835 C1833 1.327 . S
C1836 C1824 1.349 . S
C1836 H1830 0.950 . S
C1836 C1837 1.327 . S
C1837 H1831 0.950 . S
C1837 C1836 1.327 . S
C1837 C1841 1.429 . S
C1838 C1821 1.574 . S
C1838 H1832 0.949 . S
C1838 C1842 1.368 . S
C1839 C1820 1.429 . S
C1839 C1833 1.429 . S
C1839 C1840 1.523 . S
C1840 C1821 1.368 . S
C1840 C1834 1.368 . S
C1840 C1839 1.523 . S
C1841 C1825 1.429 . S
C1841 C1837 1.429 . S
C1841 C1842 1.523 . S
C1842 C1826 1.368 . S
C1842 C1838 1.368 . S
C1842 C1841 1.523 . S
H1843 C1818 0.950 . S
H1844 C1820 0.950 . S
H1845 C1821 0.949 . S
H1846 C1823 0.950 . S
H1847 C1825 0.950 . S
C1848 C1849 1.349 . S
C1848 C1850 1.327 . S
C1848 H1873 0.950 . S
C1849 C1848 1.349 . S
C1849 C1865 1.349 . S
C1850 C1848 1.327 . S
C1850 C1869 1.429 . S
C1850 H1874 0.950 . S
C1851 C1868 1.574 . S
C1851 C1870 1.368 . S
C1851 H1875 0.949 . S
H1852 C1856 0.949 . S
C1853 C1854 1.349 . S
C1853 C1855 1.327 . S
C1853 H1876 0.950 . S
C1854 C1853 1.349 . S
C1854 C1866 1.349 . S
C1855 C1853 1.327 . S
C1855 C1871 1.429 . S
C1855 H1877 0.950 . S
C1856 H1852 0.949 . S
C1856 C1864 1.574 . S
C1856 C1872 1.368 . S
H1857 C1865 0.950 . S
H1858 C1863 0.950 . S
H1859 C1864 0.949 . S
H1860 C1866 0.950 . S
H1861 C1867 0.950 . S
H1862 C1868 0.949 . S
C1863 H1858 0.950 . S
C1863 C1865 1.327 . S
C1863 C1869 1.429 . S
C1864 C1856 1.574 . S
C1864 H1859 0.949 . S
C1864 C1870 1.368 . S
C1865 C1849 1.349 . S
C1865 H1857 0.950 . S
C1865 C1863 1.327 . S
C1866 C1854 1.349 . S
C1866 H1860 0.950 . S
C1866 C1867 1.327 . S
C1867 H1861 0.950 . S
C1867 C1866 1.327 . S
C1867 C1871 1.429 . S
C1868 C1851 1.574 . S
C1868 H1862 0.949 . S
C1868 C1872 1.368 . S
C1869 C1850 1.429 . S
C1869 C1863 1.429 . S
C1869 C1870 1.523 . S
C1870 C1851 1.368 . S
C1870 C1864 1.368 . S
C1870 C1869 1.523 . S
C1871 C1855 1.429 . S
C1871 C1867 1.429 . S
C1871 C1872 1.523 . S
C1872 C1856 1.368 . S
C1872 C1868 1.368 . S
C1872 C1871 1.523 . S
H1873 C1848 0.950 . S
H1874 C1850 0.950 . S
H1875 C1851 0.949 . S
H1876 C1853 0.950 . S
H1877 C1855 0.950 . S
C1878 C1879 1.349 . S
C1878 C1880 1.327 . S
C1878 H1903 0.950 . S
C1879 C1878 1.349 . S
C1879 C1895 1.349 . S
C1880 C1878 1.327 . S
C1880 C1899 1.429 . S
C1880 H1904 0.950 . S
C1881 C1898 1.574 . S
C1881 C1900 1.368 . S
C1881 H1905 0.949 . S
H1882 C1886 0.949 . S
C1883 C1884 1.349 . S
C1883 C1885 1.327 . S
C1883 H1906 0.950 . S
C1884 C1883 1.349 . S
C1884 C1896 1.349 . S
C1885 C1883 1.327 . S
C1885 C1901 1.429 . S
C1885 H1907 0.950 . S
C1886 H1882 0.949 . S
C1886 C1894 1.574 . S
C1886 C1902 1.368 . S
H1887 C1895 0.950 . S
H1888 C1893 0.950 . S
H1889 C1894 0.949 . S
H1890 C1896 0.950 . S
H1891 C1897 0.950 . S
H1892 C1898 0.949 . S
C1893 H1888 0.950 . S
C1893 C1895 1.327 . S
C1893 C1899 1.429 . S
C1894 C1886 1.574 . S
C1894 H1889 0.949 . S
C1894 C1900 1.368 . S
C1895 C1879 1.349 . S
C1895 H1887 0.950 . S
C1895 C1893 1.327 . S
C1896 C1884 1.349 . S
C1896 H1890 0.950 . S
C1896 C1897 1.327 . S
C1897 H1891 0.950 . S
C1897 C1896 1.327 . S
C1897 C1901 1.429 . S
C1898 C1881 1.574 . S
C1898 H1892 0.949 . S
C1898 C1902 1.368 . S
C1899 C1880 1.429 . S
C1899 C1893 1.429 . S
C1899 C1900 1.523 . S
C1900 C1881 1.368 . S
C1900 C1894 1.368 . S
C1900 C1899 1.523 . S
C1901 C1885 1.429 . S
C1901 C1897 1.429 . S
C1901 C1902 1.523 . S
C1902 C1886 1.368 . S
C1902 C1898 1.368 . S
C1902 C1901 1.523 . S
H1903 C1878 0.950 . S
H1904 C1880 0.950 . S
H1905 C1881 0.949 . S
H1906 C1883 0.950 . S
H1907 C1885 0.950 . S
C1908 C1909 1.349 . S
C1908 C1910 1.327 . S
C1908 H1933 0.950 . S
C1909 C1908 1.349 . S
C1909 C1925 1.349 . S
C1910 C1908 1.327 . S
C1910 C1929 1.429 . S
C1910 H1934 0.950 . S
C1911 C1928 1.574 . S
C1911 C1930 1.368 . S
C1911 H1935 0.949 . S
H1912 C1916 0.949 . S
C1913 C1914 1.349 . S
C1913 C1915 1.327 . S
C1913 H1936 0.950 . S
C1914 C1913 1.349 . S
C1914 C1926 1.349 . S
C1915 C1913 1.327 . S
C1915 C1931 1.429 . S
C1915 H1937 0.950 . S
C1916 H1912 0.949 . S
C1916 C1924 1.574 . S
C1916 C1932 1.368 . S
H1917 C1925 0.950 . S
H1918 C1923 0.950 . S
H1919 C1924 0.949 . S
H1920 C1926 0.950 . S
H1921 C1927 0.950 . S
H1922 C1928 0.949 . S
C1923 H1918 0.950 . S
C1923 C1925 1.327 . S
C1923 C1929 1.429 . S
C1924 C1916 1.574 . S
C1924 H1919 0.949 . S
C1924 C1930 1.368 . S
C1925 C1909 1.349 . S
C1925 H1917 0.950 . S
C1925 C1923 1.327 . S
C1926 C1914 1.349 . S
C1926 H1920 0.950 . S
C1926 C1927 1.327 . S
C1927 H1921 0.950 . S
C1927 C1926 1.327 . S
C1927 C1931 1.429 . S
C1928 C1911 1.574 . S
C1928 H1922 0.949 . S
C1928 C1932 1.368 . S
C1929 C1910 1.429 . S
C1929 C1923 1.429 . S
C1929 C1930 1.523 . S
C1930 C1911 1.368 . S
C1930 C1924 1.368 . S
C1930 C1929 1.523 . S
C1931 C1915 1.429 . S
C1931 C1927 1.429 . S
C1931 C1932 1.523 . S
C1932 C1916 1.368 . S
C1932 C1928 1.368 . S
C1932 C1931 1.523 . S
H1933 C1908 0.950 . S
H1934 C1910 0.950 . S
H1935 C1911 0.949 . S
H1936 C1913 0.950 . S
H1937 C1915 0.950 . S
C1938 C1939 1.349 . S
C1938 C1940 1.327 . S
C1938 H1963 0.950 . S
C1939 C1938 1.349 . S
C1939 C1955 1.349 . S
C1940 C1938 1.327 . S
C1940 C1959 1.429 . S
C1940 H1964 0.950 . S
C1941 C1958 1.574 . S
C1941 C1960 1.368 . S
C1941 H1965 0.949 . S
H1942 C1946 0.949 . S
C1943 C1944 1.349 . S
C1943 C1945 1.327 . S
C1943 H1966 0.950 . S
C1944 C1943 1.349 . S
C1944 C1956 1.349 . S
C1945 C1943 1.327 . S
C1945 C1961 1.429 . S
C1945 H1967 0.950 . S
C1946 H1942 0.949 . S
C1946 C1954 1.574 . S
C1946 C1962 1.368 . S
H1947 C1955 0.950 . S
H1948 C1953 0.950 . S
H1949 C1954 0.949 . S
H1950 C1956 0.950 . S
H1951 C1957 0.950 . S
H1952 C1958 0.949 . S
C1953 H1948 0.950 . S
C1953 C1955 1.327 . S
C1953 C1959 1.429 . S
C1954 C1946 1.574 . S
C1954 H1949 0.949 . S
C1954 C1960 1.368 . S
C1955 C1939 1.349 . S
C1955 H1947 0.950 . S
C1955 C1953 1.327 . S
C1956 C1944 1.349 . S
C1956 H1950 0.950 . S
C1956 C1957 1.327 . S
C1957 H1951 0.950 . S
C1957 C1956 1.327 . S
C1957 C1961 1.429 . S
C1958 C1941 1.574 . S
C1958 H1952 0.949 . S
C1958 C1962 1.368 . S
C1959 C1940 1.429 . S
C1959 C1953 1.429 . S
C1959 C1960 1.523 . S
C1960 C1941 1.368 . S
C1960 C1954 1.368 . S
C1960 C1959 1.523 . S
C1961 C1945 1.429 . S
C1961 C1957 1.429 . S
C1961 C1962 1.523 . S
C1962 C1946 1.368 . S
C1962 C1958 1.368 . S
C1962 C1961 1.523 . S
H1963 C1938 0.950 . S
H1964 C1940 0.950 . S
H1965 C1941 0.949 . S
H1966 C1943 0.950 . S
H1967 C1945 0.950 . S
C1968 C1969 1.349 . S
C1968 C1970 1.327 . S
C1968 H1993 0.950 . S
C1969 C1968 1.349 . S
C1969 C1985 1.349 . S
C1970 C1968 1.327 . S
C1970 C1989 1.429 . S
C1970 H1994 0.950 . S
C1971 C1988 1.574 . S
C1971 C1990 1.368 . S
C1971 H1995 0.949 . S
H1972 C1976 0.949 . S
C1973 C1974 1.349 . S
C1973 C1975 1.327 . S
C1973 H1996 0.950 1_554 S
C1974 C1973 1.349 . S
C1974 C1986 1.349 . S
C1975 C1973 1.327 . S
C1975 C1991 1.429 . S
C1975 H1997 0.950 . S
C1976 H1972 0.949 . S
C1976 C1984 1.574 . S
C1976 C1992 1.368 . S
H1977 C1985 0.950 1_455 S
H1978 C1983 0.950 . S
H1979 C1984 0.949 . S
H1980 C1986 0.950 . S
H1981 C1987 0.950 . S
H1982 C1988 0.949 . S
C1983 H1978 0.950 . S
C1983 C1985 1.327 . S
C1983 C1989 1.429 . S
C1984 C1976 1.574 . S
C1984 H1979 0.949 . S
C1984 C1990 1.368 . S
C1985 C1969 1.349 . S
C1985 H1977 0.950 1_655 S
C1985 C1983 1.327 . S
C1986 C1974 1.349 . S
C1986 H1980 0.950 . S
C1986 C1987 1.327 . S
C1987 H1981 0.950 . S
C1987 C1986 1.327 . S
C1987 C1991 1.429 . S
C1988 C1971 1.574 . S
C1988 H1982 0.949 . S
C1988 C1992 1.368 . S
C1989 C1970 1.429 . S
C1989 C1983 1.429 . S
C1989 C1990 1.523 . S
C1990 C1971 1.368 . S
C1990 C1984 1.368 . S
C1990 C1989 1.523 . S
C1991 C1975 1.429 . S
C1991 C1987 1.429 . S
C1991 C1992 1.523 . S
C1992 C1976 1.368 . S
C1992 C1988 1.368 . S
C1992 C1991 1.523 . S
H1993 C1968 0.950 . S
H1994 C1970 0.950 . S
H1995 C1971 0.949 . S
H1996 C1973 0.950 1_556 S
H1997 C1975 0.950 . S
C1998 C1999 1.349 . S
C1998 C2000 1.327 . S
C1998 H2023 0.950 . S
C1999 C1998 1.349 . S
C1999 C2015 1.349 . S
C2000 C1998 1.327 . S
C2000 C2019 1.429 . S
C2000 H2024 0.950 . S
C2001 C2018 1.574 . S
C2001 C2020 1.368 . S
C2001 H2025 0.949 . S
H2002 C2006 0.949 . S
C2003 C2004 1.349 . S
C2003 C2005 1.327 . S
C2003 H2026 0.950 . S
C2004 C2003 1.349 . S
C2004 C2016 1.349 . S
C2005 C2003 1.327 . S
C2005 C2021 1.429 . S
C2005 H2027 0.950 . S
C2006 H2002 0.949 . S
C2006 C2014 1.574 . S
C2006 C2022 1.368 . S
H2007 C2015 0.950 . S
H2008 C2013 0.950 . S
H2009 C2014 0.949 . S
H2010 C2016 0.950 . S
H2011 C2017 0.950 . S
H2012 C2018 0.949 . S
C2013 H2008 0.950 . S
C2013 C2015 1.327 . S
C2013 C2019 1.429 . S
C2014 C2006 1.574 . S
C2014 H2009 0.949 . S
C2014 C2020 1.368 . S
C2015 C1999 1.349 . S
C2015 H2007 0.950 . S
C2015 C2013 1.327 . S
C2016 C2004 1.349 . S
C2016 H2010 0.950 . S
C2016 C2017 1.327 . S
C2017 H2011 0.950 . S
C2017 C2016 1.327 . S
C2017 C2021 1.429 . S
C2018 C2001 1.574 . S
C2018 H2012 0.949 . S
C2018 C2022 1.368 . S
C2019 C2000 1.429 . S
C2019 C2013 1.429 . S
C2019 C2020 1.523 . S
C2020 C2001 1.368 . S
C2020 C2014 1.368 . S
C2020 C2019 1.523 . S
C2021 C2005 1.429 . S
C2021 C2017 1.429 . S
C2021 C2022 1.523 . S
C2022 C2006 1.368 . S
C2022 C2018 1.368 . S
C2022 C2021 1.523 . S
H2023 C1998 0.950 . S
H2024 C2000 0.950 . S
H2025 C2001 0.949 . S
H2026 C2003 0.950 . S
H2027 C2005 0.950 . S
C2028 C2029 1.349 . S
C2028 C2030 1.327 . S
C2028 H2053 0.950 . S
C2029 C2028 1.349 . S
C2029 C2045 1.349 . S
C2030 C2028 1.327 . S
C2030 C2049 1.429 . S
C2030 H2054 0.950 . S
C2031 C2048 1.574 . S
C2031 C2050 1.368 . S
C2031 H2055 0.949 . S
H2032 C2036 0.949 . S
C2033 C2034 1.349 . S
C2033 C2035 1.327 . S
C2033 H2056 0.950 . S
C2034 C2033 1.349 . S
C2034 C2046 1.349 . S
C2035 C2033 1.327 . S
C2035 C2051 1.429 . S
C2035 H2057 0.950 . S
C2036 H2032 0.949 . S
C2036 C2044 1.574 . S
C2036 C2052 1.368 . S
H2037 C2045 0.950 1_554 S
H2038 C2043 0.950 . S
H2039 C2044 0.949 . S
H2040 C2046 0.950 . S
H2041 C2047 0.950 . S
H2042 C2048 0.949 . S
C2043 H2038 0.950 . S
C2043 C2045 1.327 . S
C2043 C2049 1.429 . S
C2044 C2036 1.574 . S
C2044 H2039 0.949 . S
C2044 C2050 1.368 . S
C2045 C2029 1.349 . S
C2045 H2037 0.950 1_556 S
C2045 C2043 1.327 . S
C2046 C2034 1.349 . S
C2046 H2040 0.950 . S
C2046 C2047 1.327 . S
C2047 H2041 0.950 . S
C2047 C2046 1.327 . S
C2047 C2051 1.429 . S
C2048 C2031 1.574 . S
C2048 H2042 0.949 . S
C2048 C2052 1.368 . S
C2049 C2030 1.429 . S
C2049 C2043 1.429 . S
C2049 C2050 1.523 . S
C2050 C2031 1.368 . S
C2050 C2044 1.368 . S
C2050 C2049 1.523 . S
C2051 C2035 1.429 . S
C2051 C2047 1.429 . S
C2051 C2052 1.523 . S
C2052 C2036 1.368 . S
C2052 C2048 1.368 . S
C2052 C2051 1.523 . S
H2053 C2028 0.950 . S
H2054 C2030 0.950 . S
H2055 C2031 0.949 . S
H2056 C2033 0.950 . S
H2057 C2035 0.950 . S
C2058 C2059 1.349 . S
C2058 C2060 1.327 . S
C2058 H2083 0.950 . S
C2059 C2058 1.349 . S
C2059 C2075 1.349 . S
C2060 C2058 1.327 . S
C2060 C2079 1.429 . S
C2060 H2084 0.950 . S
C2061 C2078 1.574 . S
C2061 C2080 1.368 . S
C2061 H2085 0.949 . S
H2062 C2066 0.949 . S
C2063 C2064 1.349 . S
C2063 C2065 1.327 . S
C2063 H2086 0.950 . S
C2064 C2063 1.349 . S
C2064 C2076 1.349 . S
C2065 C2063 1.327 . S
C2065 C2081 1.429 . S
C2065 H2087 0.950 . S
C2066 H2062 0.949 . S
C2066 C2074 1.574 . S
C2066 C2082 1.368 . S
H2067 C2075 0.950 . S
H2068 C2073 0.950 . S
H2069 C2074 0.949 . S
H2070 C2076 0.950 . S
H2071 C2077 0.950 . S
H2072 C2078 0.949 . S
C2073 H2068 0.950 . S
C2073 C2075 1.327 . S
C2073 C2079 1.429 . S
C2074 C2066 1.574 . S
C2074 H2069 0.949 . S
C2074 C2080 1.368 . S
C2075 C2059 1.349 . S
C2075 H2067 0.950 . S
C2075 C2073 1.327 . S
C2076 C2064 1.349 . S
C2076 H2070 0.950 . S
C2076 C2077 1.327 . S
C2077 H2071 0.950 . S
C2077 C2076 1.327 . S
C2077 C2081 1.429 . S
C2078 C2061 1.574 . S
C2078 H2072 0.949 . S
C2078 C2082 1.368 . S
C2079 C2060 1.429 . S
C2079 C2073 1.429 . S
C2079 C2080 1.523 . S
C2080 C2061 1.368 . S
C2080 C2074 1.368 . S
C2080 C2079 1.523 . S
C2081 C2065 1.429 . S
C2081 C2077 1.429 . S
C2081 C2082 1.523 . S
C2082 C2066 1.368 . S
C2082 C2078 1.368 . S
C2082 C2081 1.523 . S
H2083 C2058 0.950 . S
H2084 C2060 0.950 . S
H2085 C2061 0.949 . S
H2086 C2063 0.950 . S
H2087 C2065 0.950 . S
C2088 C2089 1.349 . S
C2088 C2090 1.327 . S
C2088 H2113 0.950 1_565 S
C2089 C2088 1.349 . S
C2089 C2105 1.349 . S
C2090 C2088 1.327 . S
C2090 C2109 1.429 . S
C2090 H2114 0.950 . S
C2091 C2108 1.574 . S
C2091 C2110 1.368 . S
C2091 H2115 0.949 . S
H2092 C2096 0.949 . S
C2093 C2094 1.349 . S
C2093 C2095 1.327 . S
C2093 H2116 0.950 . S
C2094 C2093 1.349 . S
C2094 C2106 1.349 . S
C2095 C2093 1.327 . S
C2095 C2111 1.429 . S
C2095 H2117 0.950 . S
C2096 H2092 0.949 . S
C2096 C2104 1.574 . S
C2096 C2112 1.368 . S
H2097 C2105 0.950 . S
H2098 C2103 0.950 . S
H2099 C2104 0.949 . S
H2100 C2106 0.950 1_655 S
H2101 C2107 0.950 . S
H2102 C2108 0.949 . S
C2103 H2098 0.950 . S
C2103 C2105 1.327 . S
C2103 C2109 1.429 . S
C2104 C2096 1.574 . S
C2104 H2099 0.949 . S
C2104 C2110 1.368 . S
C2105 C2089 1.349 . S
C2105 H2097 0.950 . S
C2105 C2103 1.327 . S
C2106 C2094 1.349 . S
C2106 H2100 0.950 1_455 S
C2106 C2107 1.327 . S
C2107 H2101 0.950 . S
C2107 C2106 1.327 . S
C2107 C2111 1.429 . S
C2108 C2091 1.574 . S
C2108 H2102 0.949 . S
C2108 C2112 1.368 . S
C2109 C2090 1.429 . S
C2109 C2103 1.429 . S
C2109 C2110 1.523 . S
C2110 C2091 1.368 . S
C2110 C2104 1.368 . S
C2110 C2109 1.523 . S
C2111 C2095 1.429 . S
C2111 C2107 1.429 . S
C2111 C2112 1.523 . S
C2112 C2096 1.368 . S
C2112 C2108 1.368 . S
C2112 C2111 1.523 . S
H2113 C2088 0.950 1_545 S
H2114 C2090 0.950 . S
H2115 C2091 0.949 . S
H2116 C2093 0.950 . S
H2117 C2095 0.950 . S
C2118 C2119 1.349 . S
C2118 C2120 1.327 . S
C2118 H2143 0.950 . S
C2119 C2118 1.349 . S
C2119 C2135 1.349 . S
C2120 C2118 1.327 . S
C2120 C2139 1.429 . S
C2120 H2144 0.950 . S
C2121 C2138 1.574 . S
C2121 C2140 1.368 . S
C2121 H2145 0.949 . S
H2122 C2126 0.949 . S
C2123 C2124 1.349 . S
C2123 C2125 1.327 . S
C2123 H2146 0.950 1_545 S
C2124 C2123 1.349 . S
C2124 C2136 1.349 . S
C2125 C2123 1.327 . S
C2125 C2141 1.429 . S
C2125 H2147 0.950 . S
C2126 H2122 0.949 . S
C2126 C2134 1.574 . S
C2126 C2142 1.368 . S
H2127 C2135 0.950 . S
H2128 C2133 0.950 . S
H2129 C2134 0.949 . S
H2130 C2136 0.950 . S
H2131 C2137 0.950 . S
H2132 C2138 0.949 . S
C2133 H2128 0.950 . S
C2133 C2135 1.327 . S
C2133 C2139 1.429 . S
C2134 C2126 1.574 . S
C2134 H2129 0.949 . S
C2134 C2140 1.368 . S
C2135 C2119 1.349 . S
C2135 H2127 0.950 . S
C2135 C2133 1.327 . S
C2136 C2124 1.349 . S
C2136 H2130 0.950 . S
C2136 C2137 1.327 . S
C2137 H2131 0.950 . S
C2137 C2136 1.327 . S
C2137 C2141 1.429 . S
C2138 C2121 1.574 . S
C2138 H2132 0.949 . S
C2138 C2142 1.368 . S
C2139 C2120 1.429 . S
C2139 C2133 1.429 . S
C2139 C2140 1.523 . S
C2140 C2121 1.368 . S
C2140 C2134 1.368 . S
C2140 C2139 1.523 . S
C2141 C2125 1.429 . S
C2141 C2137 1.429 . S
C2141 C2142 1.523 . S
C2142 C2126 1.368 . S
C2142 C2138 1.368 . S
C2142 C2141 1.523 . S
H2143 C2118 0.950 . S
H2144 C2120 0.950 . S
H2145 C2121 0.949 . S
H2146 C2123 0.950 1_565 S
H2147 C2125 0.950 . S
C2148 C2149 1.349 . S
C2148 C2150 1.327 . S
C2148 H2173 0.950 . S
C2149 C2148 1.349 . S
C2149 C2165 1.349 . S
C2150 C2148 1.327 . S
C2150 C2169 1.429 . S
C2150 H2174 0.950 . S
C2151 C2168 1.574 . S
C2151 C2170 1.368 . S
C2151 H2175 0.949 . S
H2152 C2156 0.949 . S
C2153 C2154 1.349 . S
C2153 C2155 1.327 . S
C2153 H2176 0.950 . S
C2154 C2153 1.349 . S
C2154 C2166 1.349 . S
C2155 C2153 1.327 . S
C2155 C2171 1.429 . S
C2155 H2177 0.950 . S
C2156 H2152 0.949 . S
C2156 C2164 1.574 . S
C2156 C2172 1.368 . S
H2157 C2165 0.950 . S
H2158 C2163 0.950 . S
H2159 C2164 0.949 . S
H2160 C2166 0.950 . S
H2161 C2167 0.950 . S
H2162 C2168 0.949 . S
C2163 H2158 0.950 . S
C2163 C2165 1.327 . S
C2163 C2169 1.429 . S
C2164 C2156 1.574 . S
C2164 H2159 0.949 . S
C2164 C2170 1.368 . S
C2165 C2149 1.349 . S
C2165 H2157 0.950 . S
C2165 C2163 1.327 . S
C2166 C2154 1.349 . S
C2166 H2160 0.950 . S
C2166 C2167 1.327 . S
C2167 H2161 0.950 . S
C2167 C2166 1.327 . S
C2167 C2171 1.429 . S
C2168 C2151 1.574 . S
C2168 H2162 0.949 . S
C2168 C2172 1.368 . S
C2169 C2150 1.429 . S
C2169 C2163 1.429 . S
C2169 C2170 1.523 . S
C2170 C2151 1.368 . S
C2170 C2164 1.368 . S
C2170 C2169 1.523 . S
C2171 C2155 1.429 . S
C2171 C2167 1.429 . S
C2171 C2172 1.523 . S
C2172 C2156 1.368 . S
C2172 C2168 1.368 . S
C2172 C2171 1.523 . S
H2173 C2148 0.950 . S
H2174 C2150 0.950 . S
H2175 C2151 0.949 . S
H2176 C2153 0.950 . S
H2177 C2155 0.950 . S
C2178 C2179 1.349 . S
C2178 C2180 1.327 . S
C2178 H2203 0.950 1_655 S
C2179 C2178 1.349 . S
C2179 C2195 1.349 . S
C2180 C2178 1.327 . S
C2180 C2199 1.429 . S
C2180 H2204 0.950 . S
C2181 C2198 1.574 . S
C2181 C2200 1.368 . S
C2181 H2205 0.949 . S
H2182 C2186 0.949 . S
C2183 C2184 1.349 . S
C2183 C2185 1.327 . S
C2183 H2206 0.950 . S
C2184 C2183 1.349 . S
C2184 C2196 1.349 . S
C2185 C2183 1.327 . S
C2185 C2201 1.429 . S
C2185 H2207 0.950 . S
C2186 H2182 0.949 . S
C2186 C2194 1.574 . S
C2186 C2202 1.368 . S
H2187 C2195 0.950 . S
H2188 C2193 0.950 . S
H2189 C2194 0.949 . S
H2190 C2196 0.950 . S
H2191 C2197 0.950 . S
H2192 C2198 0.949 . S
C2193 H2188 0.950 . S
C2193 C2195 1.327 . S
C2193 C2199 1.429 . S
C2194 C2186 1.574 . S
C2194 H2189 0.949 . S
C2194 C2200 1.368 . S
C2195 C2179 1.349 . S
C2195 H2187 0.950 . S
C2195 C2193 1.327 . S
C2196 C2184 1.349 . S
C2196 H2190 0.950 . S
C2196 C2197 1.327 . S
C2197 H2191 0.950 . S
C2197 C2196 1.327 . S
C2197 C2201 1.429 . S
C2198 C2181 1.574 . S
C2198 H2192 0.949 . S
C2198 C2202 1.368 . S
C2199 C2180 1.429 . S
C2199 C2193 1.429 . S
C2199 C2200 1.523 . S
C2200 C2181 1.368 . S
C2200 C2194 1.368 . S
C2200 C2199 1.523 . S
C2201 C2185 1.429 . S
C2201 C2197 1.429 . S
C2201 C2202 1.523 . S
C2202 C2186 1.368 . S
C2202 C2198 1.368 . S
C2202 C2201 1.523 . S
H2203 C2178 0.950 1_455 S
H2204 C2180 0.950 . S
H2205 C2181 0.949 . S
H2206 C2183 0.950 . S
H2207 C2185 0.950 . S
C2208 C2209 1.349 . S
C2208 C2210 1.327 . S
C2208 H2233 0.950 . S
C2209 C2208 1.349 . S
C2209 C2225 1.349 . S
C2210 C2208 1.327 . S
C2210 C2229 1.429 . S
C2210 H2234 0.950 . S
C2211 C2228 1.574 . S
C2211 C2230 1.368 . S
C2211 H2235 0.949 . S
H2212 C2216 0.949 . S
C2213 C2214 1.349 . S
C2213 C2215 1.327 . S
C2213 H2236 0.950 1_545 S
C2214 C2213 1.349 . S
C2214 C2226 1.349 . S
C2215 C2213 1.327 . S
C2215 C2231 1.429 . S
C2215 H2237 0.950 . S
C2216 H2212 0.949 . S
C2216 C2224 1.574 . S
C2216 C2232 1.368 . S
H2217 C2225 0.950 1_554 S
H2218 C2223 0.950 . S
H2219 C2224 0.949 . S
H2220 C2226 0.950 . S
H2221 C2227 0.950 . S
H2222 C2228 0.949 . S
C2223 H2218 0.950 . S
C2223 C2225 1.327 . S
C2223 C2229 1.429 . S
C2224 C2216 1.574 . S
C2224 H2219 0.949 . S
C2224 C2230 1.368 . S
C2225 C2209 1.349 . S
C2225 H2217 0.950 1_556 S
C2225 C2223 1.327 . S
C2226 C2214 1.349 . S
C2226 H2220 0.950 . S
C2226 C2227 1.327 . S
C2227 H2221 0.950 . S
C2227 C2226 1.327 . S
C2227 C2231 1.429 . S
C2228 C2211 1.574 . S
C2228 H2222 0.949 . S
C2228 C2232 1.368 . S
C2229 C2210 1.429 . S
C2229 C2223 1.429 . S
C2229 C2230 1.523 . S
C2230 C2211 1.368 . S
C2230 C2224 1.368 . S
C2230 C2229 1.523 . S
C2231 C2215 1.429 . S
C2231 C2227 1.429 . S
C2231 C2232 1.523 . S
C2232 C2216 1.368 . S
C2232 C2228 1.368 . S
C2232 C2231 1.523 . S
H2233 C2208 0.950 . S
H2234 C2210 0.950 . S
H2235 C2211 0.949 . S
H2236 C2213 0.950 1_565 S
H2237 C2215 0.950 . S
C2238 C2239 1.349 . S
C2238 C2240 1.327 . S
C2238 H2263 0.950 . S
C2239 C2238 1.349 . S
C2239 C2255 1.349 . S
C2240 C2238 1.327 . S
C2240 C2259 1.429 . S
C2240 H2264 0.950 . S
C2241 C2258 1.574 . S
C2241 C2260 1.368 . S
C2241 H2265 0.949 . S
H2242 C2246 0.949 . S
C2243 C2244 1.349 . S
C2243 C2245 1.327 . S
C2243 H2266 0.950 . S
C2244 C2243 1.349 . S
C2244 C2256 1.349 . S
C2245 C2243 1.327 . S
C2245 C2261 1.429 . S
C2245 H2267 0.950 . S
C2246 H2242 0.949 . S
C2246 C2254 1.574 . S
C2246 C2262 1.368 . S
H2247 C2255 0.950 . S
H2248 C2253 0.950 . S
H2249 C2254 0.949 . S
H2250 C2256 0.950 . S
H2251 C2257 0.950 . S
H2252 C2258 0.949 . S
C2253 H2248 0.950 . S
C2253 C2255 1.327 . S
C2253 C2259 1.429 . S
C2254 C2246 1.574 . S
C2254 H2249 0.949 . S
C2254 C2260 1.368 . S
C2255 C2239 1.349 . S
C2255 H2247 0.950 . S
C2255 C2253 1.327 . S
C2256 C2244 1.349 . S
C2256 H2250 0.950 . S
C2256 C2257 1.327 . S
C2257 H2251 0.950 . S
C2257 C2256 1.327 . S
C2257 C2261 1.429 . S
C2258 C2241 1.574 . S
C2258 H2252 0.949 . S
C2258 C2262 1.368 . S
C2259 C2240 1.429 . S
C2259 C2253 1.429 . S
C2259 C2260 1.523 . S
C2260 C2241 1.368 . S
C2260 C2254 1.368 . S
C2260 C2259 1.523 . S
C2261 C2245 1.429 . S
C2261 C2257 1.429 . S
C2261 C2262 1.523 . S
C2262 C2246 1.368 . S
C2262 C2258 1.368 . S
C2262 C2261 1.523 . S
H2263 C2238 0.950 . S
H2264 C2240 0.950 . S
H2265 C2241 0.949 . S
H2266 C2243 0.950 . S
H2267 C2245 0.950 . S
C2268 C2269 1.349 . S
C2268 C2270 1.327 . S
C2268 H2293 0.950 . S
C2269 C2268 1.349 . S
C2269 C2285 1.349 . S
C2270 C2268 1.327 . S
C2270 C2289 1.429 . S
C2270 H2294 0.950 . S
C2271 C2288 1.574 . S
C2271 C2290 1.368 . S
C2271 H2295 0.949 . S
H2272 C2276 0.949 . S
C2273 C2274 1.349 . S
C2273 C2275 1.327 . S
C2273 H2296 0.950 . S
C2274 C2273 1.349 . S
C2274 C2286 1.349 . S
C2275 C2273 1.327 . S
C2275 C2291 1.429 . S
C2275 H2297 0.950 . S
C2276 H2272 0.949 . S
C2276 C2284 1.574 . S
C2276 C2292 1.368 . S
H2277 C2285 0.950 . S
H2278 C2283 0.950 . S
H2279 C2284 0.949 . S
H2280 C2286 0.950 . S
H2281 C2287 0.950 . S
H2282 C2288 0.949 . S
C2283 H2278 0.950 . S
C2283 C2285 1.327 . S
C2283 C2289 1.429 . S
C2284 C2276 1.574 . S
C2284 H2279 0.949 . S
C2284 C2290 1.368 . S
C2285 C2269 1.349 . S
C2285 H2277 0.950 . S
C2285 C2283 1.327 . S
C2286 C2274 1.349 . S
C2286 H2280 0.950 . S
C2286 C2287 1.327 . S
C2287 H2281 0.950 . S
C2287 C2286 1.327 . S
C2287 C2291 1.429 . S
C2288 C2271 1.574 . S
C2288 H2282 0.949 . S
C2288 C2292 1.368 . S
C2289 C2270 1.429 . S
C2289 C2283 1.429 . S
C2289 C2290 1.523 . S
C2290 C2271 1.368 . S
C2290 C2284 1.368 . S
C2290 C2289 1.523 . S
C2291 C2275 1.429 . S
C2291 C2287 1.429 . S
C2291 C2292 1.523 . S
C2292 C2276 1.368 . S
C2292 C2288 1.368 . S
C2292 C2291 1.523 . S
H2293 C2268 0.950 . S
H2294 C2270 0.950 . S
H2295 C2271 0.949 . S
H2296 C2273 0.950 . S
H2297 C2275 0.950 . S
C2298 C2299 1.349 . S
C2298 C2300 1.327 . S
C2298 H2323 0.950 . S
C2299 C2298 1.349 . S
C2299 C2315 1.349 . S
C2300 C2298 1.327 . S
C2300 C2319 1.429 . S
C2300 H2324 0.950 . S
C2301 C2318 1.574 . S
C2301 C2320 1.368 . S
C2301 H2325 0.949 . S
H2302 C2306 0.949 . S
C2303 C2304 1.349 . S
C2303 C2305 1.327 . S
C2303 H2326 0.950 . S
C2304 C2303 1.349 . S
C2304 C2316 1.349 . S
C2305 C2303 1.327 . S
C2305 C2321 1.429 . S
C2305 H2327 0.950 . S
C2306 H2302 0.949 . S
C2306 C2314 1.574 . S
C2306 C2322 1.368 . S
H2307 C2315 0.950 . S
H2308 C2313 0.950 . S
H2309 C2314 0.949 . S
H2310 C2316 0.950 1_545 S
H2311 C2317 0.950 . S
H2312 C2318 0.949 . S
C2313 H2308 0.950 . S
C2313 C2315 1.327 . S
C2313 C2319 1.429 . S
C2314 C2306 1.574 . S
C2314 H2309 0.949 . S
C2314 C2320 1.368 . S
C2315 C2299 1.349 . S
C2315 H2307 0.950 . S
C2315 C2313 1.327 . S
C2316 C2304 1.349 . S
C2316 H2310 0.950 1_565 S
C2316 C2317 1.327 . S
C2317 H2311 0.950 . S
C2317 C2316 1.327 . S
C2317 C2321 1.429 . S
C2318 C2301 1.574 . S
C2318 H2312 0.949 . S
C2318 C2322 1.368 . S
C2319 C2300 1.429 . S
C2319 C2313 1.429 . S
C2319 C2320 1.523 . S
C2320 C2301 1.368 . S
C2320 C2314 1.368 . S
C2320 C2319 1.523 . S
C2321 C2305 1.429 . S
C2321 C2317 1.429 . S
C2321 C2322 1.523 . S
C2322 C2306 1.368 . S
C2322 C2318 1.368 . S
C2322 C2321 1.523 . S
H2323 C2298 0.950 . S
H2324 C2300 0.950 . S
H2325 C2301 0.949 . S
H2326 C2303 0.950 . S
H2327 C2305 0.950 . S
C2328 C2329 1.349 . S
C2328 C2330 1.327 . S
C2328 H2353 0.950 1_455 S
C2329 C2328 1.349 . S
C2329 C2345 1.349 . S
C2330 C2328 1.327 . S
C2330 C2349 1.429 . S
C2330 H2354 0.950 . S
C2331 C2348 1.574 . S
C2331 C2350 1.368 . S
C2331 H2355 0.949 . S
H2332 C2336 0.949 . S
C2333 C2334 1.349 . S
C2333 C2335 1.327 . S
C2333 H2356 0.950 . S
C2334 C2333 1.349 . S
C2334 C2346 1.349 . S
C2335 C2333 1.327 . S
C2335 C2351 1.429 . S
C2335 H2357 0.950 . S
C2336 H2332 0.949 . S
C2336 C2344 1.574 . S
C2336 C2352 1.368 . S
H2337 C2345 0.950 . S
H2338 C2343 0.950 . S
H2339 C2344 0.949 . S
H2340 C2346 0.950 1_554 S
H2341 C2347 0.950 . S
H2342 C2348 0.949 . S
C2343 H2338 0.950 . S
C2343 C2345 1.327 . S
C2343 C2349 1.429 . S
C2344 C2336 1.574 . S
C2344 H2339 0.949 . S
C2344 C2350 1.368 . S
C2345 C2329 1.349 . S
C2345 H2337 0.950 . S
C2345 C2343 1.327 . S
C2346 C2334 1.349 . S
C2346 H2340 0.950 1_556 S
C2346 C2347 1.327 . S
C2347 H2341 0.950 . S
C2347 C2346 1.327 . S
C2347 C2351 1.429 . S
C2348 C2331 1.574 . S
C2348 H2342 0.949 . S
C2348 C2352 1.368 . S
C2349 C2330 1.429 . S
C2349 C2343 1.429 . S
C2349 C2350 1.523 . S
C2350 C2331 1.368 . S
C2350 C2344 1.368 . S
C2350 C2349 1.523 . S
C2351 C2335 1.429 . S
C2351 C2347 1.429 . S
C2351 C2352 1.523 . S
C2352 C2336 1.368 . S
C2352 C2348 1.368 . S
C2352 C2351 1.523 . S
H2353 C2328 0.950 1_655 S
H2354 C2330 0.950 . S
H2355 C2331 0.949 . S
H2356 C2333 0.950 . S
H2357 C2335 0.950 . S
C2358 C2359 1.349 . S
C2358 C2360 1.327 . S
C2358 H2383 0.950 . S
C2359 C2358 1.349 . S
C2359 C2375 1.349 . S
C2360 C2358 1.327 . S
C2360 C2379 1.429 . S
C2360 H2384 0.950 . S
C2361 C2378 1.574 . S
C2361 C2380 1.368 . S
C2361 H2385 0.949 . S
H2362 C2366 0.949 . S
C2363 C2364 1.349 . S
C2363 C2365 1.327 . S
C2363 H2386 0.950 . S
C2364 C2363 1.349 . S
C2364 C2376 1.349 . S
C2365 C2363 1.327 . S
C2365 C2381 1.429 . S
C2365 H2387 0.950 . S
C2366 H2362 0.949 . S
C2366 C2374 1.574 . S
C2366 C2382 1.368 . S
H2367 C2375 0.950 . S
H2368 C2373 0.950 . S
H2369 C2374 0.949 . S
H2370 C2376 0.950 . S
H2371 C2377 0.950 . S
H2372 C2378 0.949 . S
C2373 H2368 0.950 . S
C2373 C2375 1.327 . S
C2373 C2379 1.429 . S
C2374 C2366 1.574 . S
C2374 H2369 0.949 . S
C2374 C2380 1.368 . S
C2375 C2359 1.349 . S
C2375 H2367 0.950 . S
C2375 C2373 1.327 . S
C2376 C2364 1.349 . S
C2376 H2370 0.950 . S
C2376 C2377 1.327 . S
C2377 H2371 0.950 . S
C2377 C2376 1.327 . S
C2377 C2381 1.429 . S
C2378 C2361 1.574 . S
C2378 H2372 0.949 . S
C2378 C2382 1.368 . S
C2379 C2360 1.429 . S
C2379 C2373 1.429 . S
C2379 C2380 1.523 . S
C2380 C2361 1.368 . S
C2380 C2374 1.368 . S
C2380 C2379 1.523 . S
C2381 C2365 1.429 . S
C2381 C2377 1.429 . S
C2381 C2382 1.523 . S
C2382 C2366 1.368 . S
C2382 C2378 1.368 . S
C2382 C2381 1.523 . S
H2383 C2358 0.950 . S
H2384 C2360 0.950 . S
H2385 C2361 0.949 . S
H2386 C2363 0.950 . S
H2387 C2365 0.950 . S
C2388 C2389 1.349 . S
C2388 C2390 1.327 . S
C2388 H2413 0.950 . S
C2389 C2388 1.349 . S
C2389 C2405 1.349 . S
C2390 C2388 1.327 . S
C2390 C2409 1.429 . S
C2390 H2414 0.950 . S
C2391 C2408 1.574 . S
C2391 C2410 1.368 . S
C2391 H2415 0.949 . S
H2392 C2396 0.949 . S
C2393 C2394 1.349 . S
C2393 C2395 1.327 . S
C2393 H2416 0.950 . S
C2394 C2393 1.349 . S
C2394 C2406 1.349 . S
C2395 C2393 1.327 . S
C2395 C2411 1.429 . S
C2395 H2417 0.950 . S
C2396 H2392 0.949 . S
C2396 C2404 1.574 . S
C2396 C2412 1.368 . S
H2397 C2405 0.950 1_556 S
H2398 C2403 0.950 . S
H2399 C2404 0.949 . S
H2400 C2406 0.950 . S
H2401 C2407 0.950 . S
H2402 C2408 0.949 . S
C2403 H2398 0.950 . S
C2403 C2405 1.327 . S
C2403 C2409 1.429 . S
C2404 C2396 1.574 . S
C2404 H2399 0.949 . S
C2404 C2410 1.368 . S
C2405 C2389 1.349 . S
C2405 H2397 0.950 1_554 S
C2405 C2403 1.327 . S
C2406 C2394 1.349 . S
C2406 H2400 0.950 . S
C2406 C2407 1.327 . S
C2407 H2401 0.950 . S
C2407 C2406 1.327 . S
C2407 C2411 1.429 . S
C2408 C2391 1.574 . S
C2408 H2402 0.949 . S
C2408 C2412 1.368 . S
C2409 C2390 1.429 . S
C2409 C2403 1.429 . S
C2409 C2410 1.523 . S
C2410 C2391 1.368 . S
C2410 C2404 1.368 . S
C2410 C2409 1.523 . S
C2411 C2395 1.429 . S
C2411 C2407 1.429 . S
C2411 C2412 1.523 . S
C2412 C2396 1.368 . S
C2412 C2408 1.368 . S
C2412 C2411 1.523 . S
H2413 C2388 0.950 . S
H2414 C2390 0.950 . S
H2415 C2391 0.949 . S
H2416 C2393 0.950 . S
H2417 C2395 0.950 . S
C2418 C2419 1.349 . S
C2418 C2420 1.327 . S
C2418 H2443 0.950 . S
C2419 C2418 1.349 . S
C2419 C2435 1.349 . S
C2420 C2418 1.327 . S
C2420 C2439 1.429 . S
C2420 H2444 0.950 . S
C2421 C2438 1.574 . S
C2421 C2440 1.368 . S
C2421 H2445 0.949 . S
H2422 C2426 0.949 . S
C2423 C2424 1.349 . S
C2423 C2425 1.327 . S
C2423 H2446 0.950 . S
C2424 C2423 1.349 . S
C2424 C2436 1.349 . S
C2425 C2423 1.327 . S
C2425 C2441 1.429 . S
C2425 H2447 0.950 . S
C2426 H2422 0.949 . S
C2426 C2434 1.574 . S
C2426 C2442 1.368 . S
H2427 C2435 0.950 . S
H2428 C2433 0.950 . S
H2429 C2434 0.949 . S
H2430 C2436 0.950 1_455 S
H2431 C2437 0.950 . S
H2432 C2438 0.949 . S
C2433 H2428 0.950 . S
C2433 C2435 1.327 . S
C2433 C2439 1.429 . S
C2434 C2426 1.574 . S
C2434 H2429 0.949 . S
C2434 C2440 1.368 . S
C2435 C2419 1.349 . S
C2435 H2427 0.950 . S
C2435 C2433 1.327 . S
C2436 C2424 1.349 . S
C2436 H2430 0.950 1_655 S
C2436 C2437 1.327 . S
C2437 H2431 0.950 . S
C2437 C2436 1.327 . S
C2437 C2441 1.429 . S
C2438 C2421 1.574 . S
C2438 H2432 0.949 . S
C2438 C2442 1.368 . S
C2439 C2420 1.429 . S
C2439 C2433 1.429 . S
C2439 C2440 1.523 . S
C2440 C2421 1.368 . S
C2440 C2434 1.368 . S
C2440 C2439 1.523 . S
C2441 C2425 1.429 . S
C2441 C2437 1.429 . S
C2441 C2442 1.523 . S
C2442 C2426 1.368 . S
C2442 C2438 1.368 . S
C2442 C2441 1.523 . S
H2443 C2418 0.950 . S
H2444 C2420 0.950 . S
H2445 C2421 0.949 . S
H2446 C2423 0.950 . S
H2447 C2425 0.950 . S
C2448 C2449 1.349 . S
C2448 C2450 1.327 . S
C2448 H2473 0.950 1_545 S
C2449 C2448 1.349 . S
C2449 C2465 1.349 . S
C2450 C2448 1.327 . S
C2450 C2469 1.429 . S
C2450 H2474 0.950 . S
C2451 C2468 1.574 . S
C2451 C2470 1.368 . S
C2451 H2475 0.949 . S
H2452 C2456 0.949 . S
C2453 C2454 1.349 . S
C2453 C2455 1.327 . S
C2453 H2476 0.950 . S
C2454 C2453 1.349 . S
C2454 C2466 1.349 . S
C2455 C2453 1.327 . S
C2455 C2471 1.429 . S
C2455 H2477 0.950 . S
C2456 H2452 0.949 . S
C2456 C2464 1.574 . S
C2456 C2472 1.368 . S
H2457 C2465 0.950 . S
H2458 C2463 0.950 . S
H2459 C2464 0.949 . S
H2460 C2466 0.950 1_455 S
H2461 C2467 0.950 . S
H2462 C2468 0.949 . S
C2463 H2458 0.950 . S
C2463 C2465 1.327 . S
C2463 C2469 1.429 . S
C2464 C2456 1.574 . S
C2464 H2459 0.949 . S
C2464 C2470 1.368 . S
C2465 C2449 1.349 . S
C2465 H2457 0.950 . S
C2465 C2463 1.327 . S
C2466 C2454 1.349 . S
C2466 H2460 0.950 1_655 S
C2466 C2467 1.327 . S
C2467 H2461 0.950 . S
C2467 C2466 1.327 . S
C2467 C2471 1.429 . S
C2468 C2451 1.574 . S
C2468 H2462 0.949 . S
C2468 C2472 1.368 . S
C2469 C2450 1.429 . S
C2469 C2463 1.429 . S
C2469 C2470 1.523 . S
C2470 C2451 1.368 . S
C2470 C2464 1.368 . S
C2470 C2469 1.523 . S
C2471 C2455 1.429 . S
C2471 C2467 1.429 . S
C2471 C2472 1.523 . S
C2472 C2456 1.368 . S
C2472 C2468 1.368 . S
C2472 C2471 1.523 . S
H2473 C2448 0.950 1_565 S
H2474 C2450 0.950 . S
H2475 C2451 0.949 . S
H2476 C2453 0.950 . S
H2477 C2455 0.950 . S
C2478 C2479 1.349 . S
C2478 C2480 1.327 . S
C2478 H2503 0.921 1_565 S
C2479 C2478 1.349 . S
C2479 C2495 1.349 . S
C2480 C2478 1.327 . S
C2480 C2499 1.429 . S
C2480 H2504 0.950 . S
C2481 C2498 1.574 . S
C2481 C2500 1.368 . S
C2481 H2505 0.949 . S
H2482 C2486 0.949 . S
C2483 C2484 1.349 . S
C2483 C2485 1.327 . S
C2483 H2506 0.950 . S
C2484 C2483 1.349 . S
C2484 C2496 1.349 . S
C2485 C2483 1.327 . S
C2485 C2501 1.429 . S
C2485 H2507 0.950 . S
C2486 H2482 0.949 . S
C2486 C2494 1.574 . S
C2486 C2502 1.368 . S
H2487 C2495 0.950 . S
H2488 C2493 0.950 . S
H2489 C2494 0.949 . S
H2490 C2496 0.950 . S
H2491 C2497 0.950 . S
H2492 C2498 0.949 . S
C2493 H2488 0.950 . S
C2493 C2495 1.327 . S
C2493 C2499 1.429 . S
C2494 C2486 1.574 . S
C2494 H2489 0.949 . S
C2494 C2500 1.368 . S
C2495 C2479 1.349 . S
C2495 H2487 0.950 . S
C2495 C2493 1.327 . S
C2496 C2484 1.349 . S
C2496 H2490 0.950 . S
C2496 C2497 1.327 . S
C2497 H2491 0.950 . S
C2497 C2496 1.327 . S
C2497 C2501 1.429 . S
C2498 C2481 1.574 . S
C2498 H2492 0.949 . S
C2498 C2502 1.368 . S
C2499 C2480 1.429 . S
C2499 C2493 1.429 . S
C2499 C2500 1.523 . S
C2500 C2481 1.368 . S
C2500 C2494 1.368 . S
C2500 C2499 1.523 . S
C2501 C2485 1.429 . S
C2501 C2497 1.429 . S
C2501 C2502 1.523 . S
C2502 C2486 1.368 . S
C2502 C2498 1.368 . S
C2502 C2501 1.523 . S
H2503 C2478 0.921 1_545 S
H2504 C2480 0.950 . S
H2505 C2481 0.949 . S
H2506 C2483 0.950 . S
H2507 C2485 0.950 . S
C2508 C2509 1.349 . S
C2508 C2510 1.327 . S
C2508 H2533 0.950 . S
C2509 C2508 1.349 . S
C2509 C2525 1.349 . S
C2510 C2508 1.327 . S
C2510 C2529 1.429 . S
C2510 H2534 0.950 . S
C2511 C2528 1.574 . S
C2511 C2530 1.368 . S
C2511 H2535 0.949 . S
H2512 C2516 0.949 . S
C2513 C2514 1.349 . S
C2513 C2515 1.327 . S
C2513 H2536 0.950 . S
C2514 C2513 1.349 . S
C2514 C2526 1.349 . S
C2515 C2513 1.327 . S
C2515 C2531 1.429 . S
C2515 H2537 0.950 . S
C2516 H2512 0.949 . S
C2516 C2524 1.574 . S
C2516 C2532 1.368 . S
H2517 C2525 0.950 . S
H2518 C2523 0.950 . S
H2519 C2524 0.949 . S
H2520 C2526 0.950 . S
H2521 C2527 0.950 . S
H2522 C2528 0.949 . S
C2523 H2518 0.950 . S
C2523 C2525 1.327 . S
C2523 C2529 1.429 . S
C2524 C2516 1.574 . S
C2524 H2519 0.949 . S
C2524 C2530 1.368 . S
C2525 C2509 1.349 . S
C2525 H2517 0.950 . S
C2525 C2523 1.327 . S
C2526 C2514 1.349 . S
C2526 H2520 0.950 . S
C2526 C2527 1.327 . S
C2527 H2521 0.950 . S
C2527 C2526 1.327 . S
C2527 C2531 1.429 . S
C2528 C2511 1.574 . S
C2528 H2522 0.949 . S
C2528 C2532 1.368 . S
C2529 C2510 1.429 . S
C2529 C2523 1.429 . S
C2529 C2530 1.523 . S
C2530 C2511 1.368 . S
C2530 C2524 1.368 . S
C2530 C2529 1.523 . S
C2531 C2515 1.429 . S
C2531 C2527 1.429 . S
C2531 C2532 1.523 . S
C2532 C2516 1.368 . S
C2532 C2528 1.368 . S
C2532 C2531 1.523 . S
H2533 C2508 0.950 . S
H2534 C2510 0.950 . S
H2535 C2511 0.949 . S
H2536 C2513 0.950 . S
H2537 C2515 0.950 . S
C2538 C2539 1.349 . S
C2538 C2540 1.327 . S
C2538 H2563 0.950 . S
C2539 C2538 1.349 . S
C2539 C2555 1.349 . S
C2540 C2538 1.327 . S
C2540 C2559 1.429 . S
C2540 H2564 0.950 . S
C2541 C2558 1.574 . S
C2541 C2560 1.368 . S
C2541 H2565 0.949 . S
H2542 C2546 0.949 . S
C2543 C2544 1.349 . S
C2543 C2545 1.327 . S
C2543 H2566 0.950 . S
C2544 C2543 1.349 . S
C2544 C2556 1.349 . S
C2545 C2543 1.327 . S
C2545 C2561 1.429 . S
C2545 H2567 0.950 . S
C2546 H2542 0.949 . S
C2546 C2554 1.574 . S
C2546 C2562 1.368 . S
H2547 C2555 0.950 . S
H2548 C2553 0.950 . S
H2549 C2554 0.949 . S
H2550 C2556 0.950 1_655 S
H2551 C2557 0.950 . S
H2552 C2558 0.949 . S
C2553 H2548 0.950 . S
C2553 C2555 1.327 . S
C2553 C2559 1.429 . S
C2554 C2546 1.574 . S
C2554 H2549 0.949 . S
C2554 C2560 1.368 . S
C2555 C2539 1.349 . S
C2555 H2547 0.950 . S
C2555 C2553 1.327 . S
C2556 C2544 1.349 . S
C2556 H2550 0.950 1_455 S
C2556 C2557 1.327 . S
C2557 H2551 0.950 . S
C2557 C2556 1.327 . S
C2557 C2561 1.429 . S
C2558 C2541 1.574 . S
C2558 H2552 0.949 . S
C2558 C2562 1.368 . S
C2559 C2540 1.429 . S
C2559 C2553 1.429 . S
C2559 C2560 1.523 . S
C2560 C2541 1.368 . S
C2560 C2554 1.368 . S
C2560 C2559 1.523 . S
C2561 C2545 1.429 . S
C2561 C2557 1.429 . S
C2561 C2562 1.523 . S
C2562 C2546 1.368 . S
C2562 C2558 1.368 . S
C2562 C2561 1.523 . S
H2563 C2538 0.950 . S
H2564 C2540 0.950 . S
H2565 C2541 0.949 . S
H2566 C2543 0.950 . S
H2567 C2545 0.950 . S
C2568 C2569 1.349 . S
C2568 C2570 1.327 . S
C2568 H2593 0.950 . S
C2569 C2568 1.349 . S
C2569 C2585 1.349 . S
C2570 C2568 1.327 . S
C2570 C2589 1.429 . S
C2570 H2594 0.950 . S
C2571 C2588 1.574 . S
C2571 C2590 1.368 . S
C2571 H2595 0.949 . S
H2572 C2576 0.949 . S
C2573 C2574 1.349 . S
C2573 C2575 1.327 . S
C2573 H2596 0.950 1_565 S
C2574 C2573 1.349 . S
C2574 C2586 1.349 . S
C2575 C2573 1.327 . S
C2575 C2591 1.429 . S
C2575 H2597 0.950 . S
C2576 H2572 0.949 . S
C2576 C2584 1.574 . S
C2576 C2592 1.368 . S
H2577 C2585 0.950 1_556 S
H2578 C2583 0.950 . S
H2579 C2584 0.949 . S
H2580 C2586 0.950 . S
H2581 C2587 0.950 . S
H2582 C2588 0.949 . S
C2583 H2578 0.950 . S
C2583 C2585 1.327 . S
C2583 C2589 1.429 . S
C2584 C2576 1.574 . S
C2584 H2579 0.949 . S
C2584 C2590 1.368 . S
C2585 C2569 1.349 . S
C2585 H2577 0.950 1_554 S
C2585 C2583 1.327 . S
C2586 C2574 1.349 . S
C2586 H2580 0.950 . S
C2586 C2587 1.327 . S
C2587 H2581 0.950 . S
C2587 C2586 1.327 . S
C2587 C2591 1.429 . S
C2588 C2571 1.574 . S
C2588 H2582 0.949 . S
C2588 C2592 1.368 . S
C2589 C2570 1.429 . S
C2589 C2583 1.429 . S
C2589 C2590 1.523 . S
C2590 C2571 1.368 . S
C2590 C2584 1.368 . S
C2590 C2589 1.523 . S
C2591 C2575 1.429 . S
C2591 C2587 1.429 . S
C2591 C2592 1.523 . S
C2592 C2576 1.368 . S
C2592 C2588 1.368 . S
C2592 C2591 1.523 . S
H2593 C2568 0.950 . S
H2594 C2570 0.950 . S
H2595 C2571 0.949 . S
H2596 C2573 0.950 1_545 S
H2597 C2575 0.950 . S
C2598 C2599 1.349 . S
C2598 C2600 1.327 . S
C2598 H2623 0.950 . S
C2599 C2598 1.349 . S
C2599 C2615 1.349 . S
C2600 C2598 1.327 . S
C2600 C2619 1.429 . S
C2600 H2624 0.950 . S
C2601 C2618 1.574 . S
C2601 C2620 1.368 . S
C2601 H2625 0.949 . S
H2602 C2606 0.949 . S
C2603 C2604 1.349 . S
C2603 C2605 1.327 . S
C2603 H2626 0.950 . S
C2604 C2603 1.349 . S
C2604 C2616 1.349 . S
C2605 C2603 1.327 . S
C2605 C2621 1.429 . S
C2605 H2627 0.950 . S
C2606 H2602 0.949 . S
C2606 C2614 1.574 . S
C2606 C2622 1.368 . S
H2607 C2615 0.950 . S
H2608 C2613 0.950 . S
H2609 C2614 0.949 . S
H2610 C2616 0.950 1_554 S
H2611 C2617 0.950 . S
H2612 C2618 0.949 . S
C2613 H2608 0.950 . S
C2613 C2615 1.327 . S
C2613 C2619 1.429 . S
C2614 C2606 1.574 . S
C2614 H2609 0.949 . S
C2614 C2620 1.368 . S
C2615 C2599 1.349 . S
C2615 H2607 0.950 . S
C2615 C2613 1.327 . S
C2616 C2604 1.349 . S
C2616 H2610 0.950 1_556 S
C2616 C2617 1.327 . S
C2617 H2611 0.950 . S
C2617 C2616 1.327 . S
C2617 C2621 1.429 . S
C2618 C2601 1.574 . S
C2618 H2612 0.949 . S
C2618 C2622 1.368 . S
C2619 C2600 1.429 . S
C2619 C2613 1.429 . S
C2619 C2620 1.523 . S
C2620 C2601 1.368 . S
C2620 C2614 1.368 . S
C2620 C2619 1.523 . S
C2621 C2605 1.429 . S
C2621 C2617 1.429 . S
C2621 C2622 1.523 . S
C2622 C2606 1.368 . S
C2622 C2618 1.368 . S
C2622 C2621 1.523 . S
H2623 C2598 0.950 . S
H2624 C2600 0.950 . S
H2625 C2601 0.949 . S
H2626 C2603 0.950 . S
H2627 C2605 0.950 . S
C2628 C2629 1.349 . S
C2628 C2630 1.327 . S
C2628 H2653 0.950 . S
C2629 C2628 1.349 . S
C2629 C2645 1.349 . S
C2630 C2628 1.327 . S
C2630 C2649 1.429 . S
C2630 H2654 0.950 . S
C2631 C2648 1.574 . S
C2631 C2650 1.368 . S
C2631 H2655 0.949 . S
H2632 C2636 0.949 . S
C2633 C2634 1.349 . S
C2633 C2635 1.327 . S
C2633 H2656 0.950 . S
C2634 C2633 1.349 . S
C2634 C2646 1.349 . S
C2635 C2633 1.327 . S
C2635 C2651 1.429 . S
C2635 H2657 0.950 . S
C2636 H2632 0.949 . S
C2636 C2644 1.574 . S
C2636 C2652 1.368 . S
H2637 C2645 0.950 . S
H2638 C2643 0.950 . S
H2639 C2644 0.949 . S
H2640 C2646 0.950 . S
H2641 C2647 0.950 . S
H2642 C2648 0.949 . S
C2643 H2638 0.950 . S
C2643 C2645 1.327 . S
C2643 C2649 1.429 . S
C2644 C2636 1.574 . S
C2644 H2639 0.949 . S
C2644 C2650 1.368 . S
C2645 C2629 1.349 . S
C2645 H2637 0.950 . S
C2645 C2643 1.327 . S
C2646 C2634 1.349 . S
C2646 H2640 0.950 . S
C2646 C2647 1.327 . S
C2647 H2641 0.950 . S
C2647 C2646 1.327 . S
C2647 C2651 1.429 . S
C2648 C2631 1.574 . S
C2648 H2642 0.949 . S
C2648 C2652 1.368 . S
C2649 C2630 1.429 . S
C2649 C2643 1.429 . S
C2649 C2650 1.523 . S
C2650 C2631 1.368 . S
C2650 C2644 1.368 . S
C2650 C2649 1.523 . S
C2651 C2635 1.429 . S
C2651 C2647 1.429 . S
C2651 C2652 1.523 . S
C2652 C2636 1.368 . S
C2652 C2648 1.368 . S
C2652 C2651 1.523 . S
H2653 C2628 0.950 . S
H2654 C2630 0.950 . S
H2655 C2631 0.949 . S
H2656 C2633 0.950 . S
H2657 C2635 0.950 . S
C2658 C2659 1.349 . S
C2658 C2660 1.327 . S
C2658 H2683 0.950 . S
C2659 C2658 1.349 . S
C2659 C2675 1.349 . S
C2660 C2658 1.327 . S
C2660 C2679 1.429 . S
C2660 H2684 0.950 . S
C2661 C2678 1.574 . S
C2661 C2680 1.368 . S
C2661 H2685 0.949 . S
H2662 C2666 0.949 . S
C2663 C2664 1.349 . S
C2663 C2665 1.327 . S
C2663 H2686 0.950 1_545 S
C2664 C2663 1.349 . S
C2664 C2676 1.349 . S
C2665 C2663 1.327 . S
C2665 C2681 1.429 . S
C2665 H2687 0.950 . S
C2666 H2662 0.949 . S
C2666 C2674 1.574 . S
C2666 C2682 1.368 . S
H2667 C2675 0.950 . S
H2668 C2673 0.950 . S
H2669 C2674 0.949 . S
H2670 C2676 0.950 . S
H2671 C2677 0.950 . S
H2672 C2678 0.949 . S
C2673 H2668 0.950 . S
C2673 C2675 1.327 . S
C2673 C2679 1.429 . S
C2674 C2666 1.574 . S
C2674 H2669 0.949 . S
C2674 C2680 1.368 . S
C2675 C2659 1.349 . S
C2675 H2667 0.950 . S
C2675 C2673 1.327 . S
C2676 C2664 1.349 . S
C2676 H2670 0.950 . S
C2676 C2677 1.327 . S
C2677 H2671 0.950 . S
C2677 C2676 1.327 . S
C2677 C2681 1.429 . S
C2678 C2661 1.574 . S
C2678 H2672 0.949 . S
C2678 C2682 1.368 . S
C2679 C2660 1.429 . S
C2679 C2673 1.429 . S
C2679 C2680 1.523 . S
C2680 C2661 1.368 . S
C2680 C2674 1.368 . S
C2680 C2679 1.523 . S
C2681 C2665 1.429 . S
C2681 C2677 1.429 . S
C2681 C2682 1.523 . S
C2682 C2666 1.368 . S
C2682 C2678 1.368 . S
C2682 C2681 1.523 . S
H2683 C2658 0.950 . S
H2684 C2660 0.950 . S
H2685 C2661 0.949 . S
H2686 C2663 0.950 1_565 S
H2687 C2665 0.950 . S
C529 C7 1.821 . S
C534 C401 1.779 . S
C559 C427 1.779 . S
C564 C29 1.821 . S
C589 C50 1.821 . S
C594 C361 1.782 . S
C619 C72 1.821 . S
C624 C379 1.781 . S
C649 C489 1.779 . S
C654 C95 1.821 . S
C679 C116 1.821 . S
C684 C467 1.781 . S
C709 C515 1.779 . S
C714 C138 1.821 . S
C739 C161 1.821 . S
C744 C449 1.782 . S
C769 C183 1.821 . S
C774 C291 1.779 . S
C799 C204 1.821 . S
C804 C335 1.781 . S
C829 C313 1.779 . S
C834 C226 1.821 . S
C859 C249 1.821 . S
C864 C269 1.782 . S
C889 C273 1.821 . S
C894 C139 1.779 . S
C919 C295 1.821 . S
C924 C160 1.779 . S
C949 C317 1.821 . S
C954 C94 1.782 . S
C979 C117 1.781 . S
C984 C339 1.821 . S
C1009 C357 1.821 . S
C1014 C227 1.779 . S
C1039 C205 1.781 . S
C1044 C383 1.821 . S
C1069 C248 1.779 . S
C1074 C405 1.821 . S
C1099 C182 1.782 . S
C1104 C423 1.821 . S
C1129 C28 1.779 . S
C1134 C445 1.821 . S
C1159 C73 1.781 . S
C1164 C471 1.821 . S
C1189 C51 1.779 . S
C1194 C493 1.821 . S
C1219 C511 1.821 . S
C1224 C6 1.782 . S
C1249 C96 1.016 . S
C1254 C9 0.979 . S
C1279 C114 1.016 . S
C1284 C31 0.979 . S
C1309 C136 1.016 . S
C1314 C49 0.979 . S
C1339 C162 1.015 . S
C1344 C71 0.979 . S
C1369 C97 0.979 . S
C1374 C184 1.016 . S
C1399 C115 0.979 . S
C1404 C250 1.015 . S
C1429 C137 0.979 . S
C1434 C202 1.016 . S
C1459 C163 0.979 . S
C1464 C224 1.016 . S
C1489 C185 0.979 . S
C1494 C8 1.016 . S
C1519 C203 0.979 . S
C1524 C48 1.015 . S
C1549 C225 0.979 . S
C1554 C70 1.016 . S
C1579 C30 1.016 . S
C1584 C251 0.979 . S
C1609 C356 1.016 . S
C1614 C271 0.979 . S
C1639 C382 1.016 . S
C1644 C293 0.979 . S
C1669 C315 0.979 . S
C1674 C404 1.016 . S
C1699 C337 0.979 . S
C1704 C422 1.015 . S
C1729 C444 1.016 . S
C1734 C358 0.979 . S
C1759 C381 0.979 . S
C1764 C510 1.015 . S
C1789 C470 1.016 . S
C1794 C403 0.979 . S
C1819 C424 0.979 . S
C1824 C492 1.016 . S
C1849 C272 1.016 . S
C1854 C446 0.979 . S
C1879 C469 0.979 . S
C1884 C316 1.015 . S
C1909 C491 0.979 . S
C1914 C338 1.016 . S
C1939 C294 1.016 . S
C1944 C512 0.979 . S
C1969 C4 1.215 1_655 S
C1974 C207 1.224 1_554 S
C1999 C229 1.224 . S
C2004 C26 1.215 . S
C2029 C181 1.224 1_556 S
C2034 C52 1.215 . S
C2059 C247 1.224 . S
C2064 C74 1.215 1_455 S
C2089 C92 1.215 1_565 S
C2094 C75 1.224 1_455 S
C2119 C53 1.224 . S
C2124 C118 1.215 1_545 S
C2149 C140 1.215 . S
C2154 C27 1.224 . S
C2179 C5 1.224 1_655 S
C2184 C158 1.215 . S
C2209 C180 1.215 1_556 S
C2214 C119 1.224 1_545 S
C2239 C206 1.215 1_554 S
C2244 C159 1.224 . S
C2269 C228 1.215 . S
C2274 C141 1.224 . S
C2299 C246 1.215 . S
C2304 C93 1.224 1_565 S
C2329 C268 1.215 1_455 S
C2334 C468 1.224 1_556 S
C2359 C290 1.215 . S
C2364 C490 1.224 . S
C2389 C447 1.224 1_554 S
C2394 C312 1.215 . S
C2419 C513 1.224 . S
C2424 C334 1.215 1_655 S
C2449 C360 1.215 1_545 S
C2454 C336 1.224 1_655 S
C2479 C378 1.215 1_565 S
C2484 C314 1.224 . S
C2509 C292 1.224 . S
C2514 C400 1.215 . S
C2539 C426 1.215 . S
C2544 C270 1.224 1_455 S
C2569 C448 1.215 1_554 S
C2574 C380 1.224 1_565 S
C2599 C425 1.224 . S
C2604 C466 1.215 1_556 S
C2629 C488 1.215 . S
C2634 C402 1.224 . S
C2659 C514 1.215 . S
C2664 C359 1.224 1_545 S
