# Generated by pormake.
# Topology vmp, (7)-cn, num edge types: 1
# Building blocks:
#     Node 0, Type 0, BuildingBlock: HICVOG_clean_sbu_0, # of connection points: 7
#     Node 1, Type 0, BuildingBlock: HICVOG_clean_sbu_0, # of connection points: 7
#     Node 2, Type 0, BuildingBlock: HICVOG_clean_sbu_0, # of connection points: 7
#     Node 3, Type 0, BuildingBlock: HICVOG_clean_sbu_0, # of connection points: 7
#     Node 4, Type 0, BuildingBlock: HICVOG_clean_sbu_0, # of connection points: 7
#     Node 5, Type 0, BuildingBlock: HICVOG_clean_sbu_0, # of connection points: 7
#     Node 6, Type 0, BuildingBlock: HICVOG_clean_sbu_0, # of connection points: 7
#     Node 7, Type 0, BuildingBlock: HICVOG_clean_sbu_0, # of connection points: 7
#     Edge 8, Type (0, 0), BuildingBlock: EZIPEK_clean_linker_0, # of connection points: 2
#     Edge 9, Type (0, 0), BuildingBlock: EZIPEK_clean_linker_0, # of connection points: 2
#     Edge 10, Type (0, 0), BuildingBlock: EZIPEK_clean_linker_0, # of connection points: 2
#     Edge 11, Type (0, 0), BuildingBlock: EZIPEK_clean_linker_0, # of connection points: 2
#     Edge 12, Type (0, 0), BuildingBlock: EZIPEK_clean_linker_0, # of connection points: 2
#     Edge 13, Type (0, 0), BuildingBlock: EZIPEK_clean_linker_0, # of connection points: 2
#     Edge 14, Type (0, 0), BuildingBlock: EZIPEK_clean_linker_0, # of connection points: 2
#     Edge 15, Type (0, 0), BuildingBlock: EZIPEK_clean_linker_0, # of connection points: 2
#     Edge 16, Type (0, 0), BuildingBlock: EZIPEK_clean_linker_0, # of connection points: 2
#     Edge 17, Type (0, 0), BuildingBlock: EZIPEK_clean_linker_0, # of connection points: 2
#     Edge 18, Type (0, 0), BuildingBlock: EZIPEK_clean_linker_0, # of connection points: 2
#     Edge 19, Type (0, 0), BuildingBlock: EZIPEK_clean_linker_0, # of connection points: 2
#     Edge 20, Type (0, 0), BuildingBlock: EZIPEK_clean_linker_0, # of connection points: 2
#     Edge 21, Type (0, 0), BuildingBlock: EZIPEK_clean_linker_0, # of connection points: 2
#     Edge 22, Type (0, 0), BuildingBlock: EZIPEK_clean_linker_0, # of connection points: 2
#     Edge 23, Type (0, 0), BuildingBlock: EZIPEK_clean_linker_0, # of connection points: 2
#     Edge 24, Type (0, 0), BuildingBlock: EZIPEK_clean_linker_0, # of connection points: 2
#     Edge 25, Type (0, 0), BuildingBlock: EZIPEK_clean_linker_0, # of connection points: 2
#     Edge 26, Type (0, 0), BuildingBlock: EZIPEK_clean_linker_0, # of connection points: 2
#     Edge 27, Type (0, 0), BuildingBlock: EZIPEK_clean_linker_0, # of connection points: 2
#     Edge 28, Type (0, 0), BuildingBlock: EZIPEK_clean_linker_0, # of connection points: 2
#     Edge 29, Type (0, 0), BuildingBlock: EZIPEK_clean_linker_0, # of connection points: 2
#     Edge 30, Type (0, 0), BuildingBlock: EZIPEK_clean_linker_0, # of connection points: 2
#     Edge 31, Type (0, 0), BuildingBlock: EZIPEK_clean_linker_0, # of connection points: 2
#     Edge 32, Type (0, 0), BuildingBlock: EZIPEK_clean_linker_0, # of connection points: 2
#     Edge 33, Type (0, 0), BuildingBlock: EZIPEK_clean_linker_0, # of connection points: 2
#     Edge 34, Type (0, 0), BuildingBlock: EZIPEK_clean_linker_0, # of connection points: 2
#     Edge 35, Type (0, 0), BuildingBlock: EZIPEK_clean_linker_0, # of connection points: 2
# Relax obj value: 0.170
# Max RMSD: 0.214
# Mean RMSD: 0.214
data_MOF--net-vmp--node1-HICVOG_clean_sbu_0--edge1-EZIPEK_clean_linker_0
_symmetry_space_group_name_H-M    P1
_symmetry_Int_Tables_number       1
_symmetry_cell_setting            triclinic
loop_
_symmetry_equiv_pos_as_xyz
'x, y, z'
_cell_length_a     14.082438
_cell_length_b     63.745905
_cell_length_c     20.334721
_cell_angle_alpha  90.016213
_cell_angle_beta   112.13745
_cell_angle_gamma 89.944048
loop_
_atom_site_label
_atom_site_type_symbol
_atom_site_fract_x
_atom_site_fract_y
_atom_site_fract_z
_atom_type_partial_charge
Zn0 Zn 0.27311 0.15774 0.25221 0.0
C1 C 0.36911 0.1393 0.10336 0.0
N2 N 0.27705 0.14613 0.06033 0.0
C3 C 0.22778 0.14888 0.10427 0.0
N4 N 0.28765 0.14421 0.17193 0.0
N5 N 0.37693 0.13792 0.17134 0.0
C6 C 0.67889 0.13774 0.2631 0.0
O7 O 0.6569 0.15163 0.30294 0.0
O8 O 0.1255 0.15902 0.24529 0.0
Zn9 Zn 0.47974 0.12239 0.24674 0.0
N10 N 0.33219 0.18546 0.25656 0.0
C11 C 0.4807 0.20403 0.25995 0.0
C12 C 0.42881 0.18526 0.25671 0.0
C13 C 0.28568 0.20385 0.2611 0.0
N14 N 0.43461 0.22238 0.26416 0.0
C15 C 0.33856 0.22285 0.26504 0.0
O16 O 0.50074 0.13105 0.3475 0.0
C17 C 0.44313 0.13725 0.37926 0.0
O18 O 0.35459 0.14502 0.34667 0.0
H19 H 0.46555 0.17053 0.25468 0.0
H20 H 0.20931 0.20371 0.26196 0.0
C21 C 0.47938 0.076 0.23777 0.0
C22 C 0.43048 0.05657 0.23524 0.0
C23 C 0.28324 0.07427 0.23695 0.0
C24 C 0.33204 0.0934 0.2406 0.0
N25 N 0.42813 0.094 0.24003 0.0
N26 N 0.33358 0.05635 0.23462 0.0
H27 H 0.55674 0.07677 0.23888 0.0
C28 C 0.07298 0.14222 0.23422 0.0
O29 O 0.11317 0.1247 0.22254 0.0
O30 O 0.61497 0.12328 0.23326 0.0
H31 H 0.29402 0.10779 0.24441 0.0
H32 H 0.55736 0.20402 0.25964 0.0
H33 H 0.20643 0.07362 0.23687 0.0
Zn34 Zn 0.74736 0.15704 0.81338 0.0
C35 C 0.65177 0.13665 0.96381 0.0
N36 N 0.74604 0.14224 1.00742 0.0
C37 C 0.79252 0.1463 0.96239 0.0
N38 N 0.7296 0.14352 0.89394 0.0
N39 N 0.64029 0.13717 0.89464 0.0
C40 C 0.32679 0.13597 0.77403 0.0
O41 O 0.35409 0.14768 0.73103 0.0
O42 O 0.89459 0.15609 0.81697 0.0
Zn43 Zn 0.5369 0.12153 0.81694 0.0
N44 N 0.6933 0.18525 0.80995 0.0
C45 C 0.545 0.20428 0.80504 0.0
C46 C 0.59677 0.18538 0.81006 0.0
C47 C 0.73988 0.20344 0.80355 0.0
N48 N 0.59092 0.2224 0.79862 0.0
C49 C 0.68684 0.22255 0.79755 0.0
O50 O 0.5239 0.12852 0.71666 0.0
C51 C 0.57743 0.13659 0.685 0.0
O52 O 0.66102 0.14602 0.71799 0.0
H53 H 0.55955 0.1708 0.813 0.0
H54 H 0.81587 0.20303 0.80204 0.0
C55 C 0.53315 0.07499 0.82754 0.0
C56 C 0.58244 0.05541 0.83331 0.0
C57 C 0.73548 0.0727 0.84146 0.0
C58 C 0.68643 0.09195 0.8343 0.0
N59 N 0.58703 0.09285 0.8283 0.0
N60 N 0.68241 0.05493 0.8405 0.0
H61 H 0.4535 0.07596 0.8213 0.0
C62 C 0.91721 0.1425 0.77894 0.0
O63 O 0.84798 0.12872 0.74274 0.0
O64 O 0.39286 0.12385 0.81796 0.0
H65 H 0.72718 0.10618 0.83285 0.0
H66 H 0.46834 0.20452 0.80531 0.0
H67 H 0.81475 0.07183 0.84673 0.0
Zn68 Zn 0.73986 0.8686 0.81328 0.0
C69 C 0.6454 0.89103 0.96144 0.0
N70 N 0.73997 0.88569 1.00518 0.0
C71 C 0.78464 0.8805 0.95996 0.0
N72 N 0.72023 0.88242 0.89166 0.0
N73 N 0.63197 0.88934 0.89221 0.0
C74 C 0.3465 0.88782 0.82537 0.0
O75 O 0.39743 0.87012 0.83435 0.0
O76 O 0.89023 0.86853 0.82862 0.0
Zn77 Zn 0.53096 0.90461 0.8132 0.0
N78 N 0.68693 0.84038 0.80976 0.0
C79 C 0.54364 0.8204 0.80885 0.0
C80 C 0.59174 0.83964 0.81186 0.0
C81 C 0.73534 0.82254 0.80242 0.0
N82 N 0.59181 0.80258 0.80217 0.0
C83 C 0.68629 0.80307 0.7986 0.0
O84 O 0.51654 0.89563 0.7135 0.0
C85 C 0.57279 0.88828 0.68233 0.0
O86 O 0.65993 0.88005 0.71596 0.0
H87 H 0.55323 0.854 0.8151 0.0
H88 H 0.81019 0.82347 0.79917 0.0
C89 C 0.53226 0.95095 0.823 0.0
C90 C 0.58171 0.97039 0.82695 0.0
C91 C 0.72969 0.95271 0.82636 0.0
C92 C 0.68043 0.93357 0.82147 0.0
N93 N 0.58359 0.93295 0.82072 0.0
N94 N 0.67921 0.97062 0.82867 0.0
H95 H 0.45442 0.95017 0.82093 0.0
C96 C 0.92436 0.88391 0.80426 0.0
O97 O 0.8618 0.89909 0.77069 0.0
O98 O 0.3886 0.90468 0.81671 0.0
H99 H 0.71903 0.91918 0.81818 0.0
H100 H 0.46811 0.81965 0.81097 0.0
H101 H 0.80709 0.95337 0.82756 0.0
Zn102 Zn 0.47434 0.90554 0.24493 0.0
C103 C 0.21857 0.88306 0.09576 0.0
N104 N 0.26547 0.88839 0.05201 0.0
C105 C 0.35928 0.89365 0.09729 0.0
N106 N 0.36924 0.89179 0.16565 0.0
N107 N 0.28039 0.88485 0.16485 0.0
C108 C 0.06723 0.88522 0.23185 0.0
O109 O 0.1102 0.90313 0.22721 0.0
O110 O 0.61 0.9046 0.23192 0.0
Zn111 Zn 0.26526 0.87003 0.24371 0.0
N112 N 0.42656 0.93411 0.24325 0.0
C113 C 0.28594 0.95406 0.24716 0.0
C114 C 0.33256 0.93484 0.24737 0.0
C115 C 0.47731 0.95205 0.23972 0.0
N116 N 0.33578 0.97192 0.24357 0.0
C117 C 0.43027 0.97155 0.23998 0.0
O118 O 0.34626 0.88156 0.34105 0.0
C119 C 0.43546 0.88884 0.37515 0.0
O120 O 0.49359 0.89546 0.34438 0.0
H121 H 0.29451 0.92046 0.25126 0.0
H122 H 0.55248 0.95116 0.23699 0.0
C123 C 0.27873 0.82397 0.25135 0.0
C124 C 0.33254 0.80503 0.25625 0.0
C125 C 0.47244 0.82387 0.24793 0.0
C126 C 0.41984 0.84261 0.24414 0.0
N127 N 0.32393 0.84237 0.24525 0.0
N128 N 0.42795 0.80554 0.25428 0.0
H129 H 0.20323 0.8241 0.25372 0.0
C130 C 0.67085 0.88932 0.25771 0.0
O131 O 0.64544 0.87457 0.29304 0.0
O132 O 0.11756 0.86832 0.23657 0.0
H133 H 0.45563 0.85735 0.24108 0.0
H134 H 0.21096 0.95482 0.2502 0.0
H135 H 0.54863 0.82392 0.24679 0.0
Zn136 Zn 0.78043 0.6576 0.74372 0.0
C137 C 0.87309 0.63614 0.59414 0.0
N138 N 0.77979 0.64211 0.55001 0.0
C139 C 0.73349 0.64673 0.59482 0.0
N140 N 0.7954 0.6438 0.66332 0.0
N141 N 0.88369 0.63688 0.66292 0.0
C142 C 0.18699 0.63752 0.75809 0.0
O143 O 0.16524 0.6512 0.79867 0.0
O144 O 0.633 0.65918 0.73745 0.0
Zn145 Zn 0.98748 0.62208 0.74058 0.0
N146 N 0.83984 0.68523 0.74818 0.0
C147 C 0.98922 0.70393 0.75405 0.0
C148 C 0.93658 0.68513 0.74854 0.0
C149 C 0.79367 0.70352 0.75417 0.0
N150 N 0.94372 0.72217 0.76028 0.0
C151 C 0.84735 0.72251 0.7606 0.0
O152 O 1.00704 0.63101 0.84164 0.0
C153 C 0.94938 0.63756 0.87298 0.0
O154 O 0.86107 0.64531 0.83949 0.0
H155 H 0.97301 0.67045 0.74537 0.0
H156 H 0.71728 0.70327 0.755 0.0
C157 C 0.99082 0.57568 0.73226 0.0
C158 C 0.94324 0.55607 0.72954 0.0
C159 C 0.79502 0.57326 0.73178 0.0
C160 C 0.84237 0.59256 0.7353 0.0
N161 N 0.93837 0.5935 0.73465 0.0
N162 N 0.84653 0.55552 0.72925 0.0
H163 H 0.06803 0.57671 0.7332 0.0
C164 C 0.57923 0.64256 0.72633 0.0
O165 O 0.61796 0.62495 0.71391 0.0
O166 O 0.12281 0.6232 0.72743 0.0
H167 H 0.80318 0.60683 0.73893 0.0
H168 H 0.06612 0.70401 0.7542 0.0
H169 H 0.71835 0.57235 0.73182 0.0
Zn170 Zn 0.25096 0.65825 0.30917 0.0
C171 C 0.16168 0.63557 0.45932 0.0
N172 N 0.25578 0.64119 0.50304 0.0
C173 C 0.30059 0.64623 0.45774 0.0
N174 N 0.23721 0.6439 0.38931 0.0
N175 N 0.14938 0.6369 0.39027 0.0
C176 C 0.84735 0.6383 0.29725 0.0
O177 O 0.87209 0.6526 0.26004 0.0
O178 O 0.39843 0.65998 0.31517 0.0
Zn179 Zn 0.04489 0.62231 0.31248 0.0
N180 N 0.19201 0.68593 0.30673 0.0
C181 C 0.04714 0.70468 0.30951 0.0
C182 C 0.09805 0.68585 0.31113 0.0
C183 C 0.23627 0.70424 0.29863 0.0
N184 N 0.09118 0.72295 0.30196 0.0
C185 C 0.18429 0.7233 0.29619 0.0
O186 O 0.02504 0.63132 0.2115 0.0
C187 C 0.08189 0.63811 0.17994 0.0
O188 O 0.16953 0.64617 0.21318 0.0
H189 H 0.06269 0.67118 0.31559 0.0
H190 H 0.31023 0.70399 0.29381 0.0
C191 C 0.04389 0.57583 0.32149 0.0
C192 C 0.09125 0.55631 0.32183 0.0
C193 C 0.23531 0.57378 0.31414 0.0
C194 C 0.18809 0.593 0.31285 0.0
N195 N 0.09418 0.59375 0.31711 0.0
N196 N 0.18583 0.55594 0.31838 0.0
H197 H 0.96849 0.57672 0.32384 0.0
C198 C 0.45097 0.64325 0.32298 0.0
O199 O 0.41044 0.62538 0.33121 0.0
O200 O 0.90925 0.62337 0.32542 0.0
H201 H 0.22558 0.60736 0.30793 0.0
H202 H 0.97272 0.70477 0.31358 0.0
H203 H 0.3103 0.57302 0.31111 0.0
Zn204 Zn 0.04252 0.40544 0.31009 0.0
C205 C 0.29438 0.37903 0.4528 0.0
N206 N 0.24499 0.38179 0.49665 0.0
C207 C 0.15296 0.38859 0.45351 0.0
N208 N 0.14536 0.38995 0.38557 0.0
N209 N 0.23475 0.38369 0.38509 0.0
C210 C 0.44952 0.38552 0.32303 0.0
O211 O 0.40924 0.40304 0.3346 0.0
O212 O 0.90715 0.40444 0.32339 0.0
Zn213 Zn 0.24953 0.37002 0.3052 0.0
N214 N 0.09382 0.43388 0.31727 0.0
C215 C 0.23851 0.45375 0.32067 0.0
C216 C 0.18975 0.43458 0.31643 0.0
C217 C 0.04276 0.45183 0.3205 0.0
N218 N 0.18835 0.47161 0.32394 0.0
C219 C 0.09164 0.4713 0.32369 0.0
O220 O 0.16824 0.38263 0.21055 0.0
C221 C 0.07982 0.39044 0.17776 0.0
O222 O 0.02223 0.39678 0.20936 0.0
H223 H 0.22773 0.42024 0.31204 0.0
H224 H 0.9656 0.45099 0.31973 0.0
C225 C 0.23691 0.32391 0.29745 0.0
C226 C 0.18256 0.305 0.29131 0.0
C227 C 0.03899 0.32399 0.29314 0.0
C228 C 0.09229 0.34269 0.29841 0.0
N229 N 0.19009 0.34236 0.30083 0.0
N230 N 0.08506 0.3056 0.28941 0.0
H231 H 0.31433 0.32394 0.2985 0.0
C232 C 0.84313 0.39001 0.29338 0.0
O233 O 0.86493 0.37618 0.25327 0.0
O234 O 0.39714 0.36871 0.31217 0.0
H235 H 0.05557 0.35747 0.29982 0.0
H236 H 0.31518 0.45447 0.32053 0.0
H237 H 0.96122 0.32411 0.29134 0.0
Zn238 Zn 0.77594 0.36969 0.74401 0.0
C239 C 0.87018 0.39017 0.59304 0.0
N240 N 0.77579 0.38461 0.54964 0.0
C241 C 0.7296 0.38056 0.59487 0.0
N242 N 0.79289 0.38333 0.66326 0.0
N243 N 0.88207 0.38966 0.66228 0.0
C244 C 0.19557 0.3904 0.78237 0.0
O245 O 0.16768 0.37864 0.82499 0.0
O246 O 0.62882 0.37053 0.74067 0.0
Zn247 Zn 0.98622 0.40517 0.73987 0.0
N248 N 0.82989 0.34147 0.74691 0.0
C249 C 0.97549 0.32232 0.74722 0.0
C250 C 0.92501 0.34127 0.74434 0.0
C251 C 0.78403 0.32331 0.75451 0.0
N252 N 0.92994 0.30421 0.75428 0.0
C253 C 0.83575 0.30413 0.7583 0.0
O254 O 0.99927 0.39829 0.84019 0.0
C255 C 0.94591 0.39026 0.87204 0.0
O256 O 0.86242 0.38077 0.83926 0.0
H257 H 0.962 0.35582 0.74078 0.0
H258 H 0.70931 0.32377 0.75812 0.0
C259 C 0.99134 0.45166 0.72903 0.0
C260 C 0.94291 0.47131 0.72374 0.0
C261 C 0.78994 0.45429 0.7171 0.0
C262 C 0.83817 0.43495 0.72375 0.0
N263 N 0.93711 0.43389 0.72879 0.0
N264 N 0.84337 0.47196 0.71753 0.0
H265 H 0.07063 0.45056 0.73445 0.0
C266 C 0.60607 0.38397 0.7791 0.0
O267 O 0.67523 0.39769 0.81583 0.0
O268 O 0.13003 0.40265 0.73867 0.0
H269 H 0.79718 0.42078 0.72556 0.0
H270 H 0.05085 0.32201 0.74471 0.0
H271 H 0.71104 0.45528 0.71259 0.0
C272 C 0.51601 0.15563 0.5692 0.0
C273 C 0.53928 0.1363 0.60654 0.0
C274 C 0.49639 0.11725 0.49415 0.0
C275 C 0.48179 0.13671 0.45773 0.0
N276 N 0.496 0.17445 0.46136 0.0
N277 N 0.56635 0.09893 0.60699 0.0
C278 C 0.49676 0.15593 0.49552 0.0
C279 C 0.53331 0.11712 0.56971 0.0
N280 N 0.50875 0.17361 0.60376 0.0
N281 N 0.47162 0.09894 0.45648 0.0
H282 H 0.59298 0.0982 0.66225 0.0
H283 H 0.57468 0.08486 0.5837 0.0
H284 H 0.44561 0.09839 0.40122 0.0
H285 H 0.46956 0.08443 0.47942 0.0
H286 H 0.48175 0.18778 0.57797 0.0
H287 H 0.52032 0.17396 0.65751 0.0
H288 H 0.51704 0.18876 0.48747 0.0
H289 H 0.48381 0.17528 0.40757 0.0
C290 C 0.49047 0.86952 0.49106 0.0
C291 C 0.47342 0.8889 0.45396 0.0
C292 C 0.52608 0.90802 0.56715 0.0
C293 C 0.53498 0.88867 0.60357 0.0
N294 N 0.51027 0.85119 0.59999 0.0
N295 N 0.46062 0.92662 0.45474 0.0
C296 C 0.513 0.86945 0.56543 0.0
C297 C 0.48752 0.90819 0.49149 0.0
N298 N 0.48858 0.8512 0.45552 0.0
N299 N 0.55797 0.92616 0.60495 0.0
H300 H 0.43333 0.9274 0.3995 0.0
H301 H 0.45785 0.94097 0.47845 0.0
H302 H 0.58567 0.9267 0.66026 0.0
H303 H 0.56447 0.94042 0.58203 0.0
H304 H 0.51109 0.83678 0.48062 0.0
H305 H 0.47313 0.85063 0.4012 0.0
H306 H 0.48418 0.837 0.57414 0.0
H307 H 0.5256 0.85052 0.65429 0.0
C308 C 0.99818 0.61809 0.98903 0.0
C309 C 0.98733 0.63735 0.95182 0.0
C310 C 0.02499 0.65684 0.06306 0.0
C311 C 0.04399 0.63762 0.10111 0.0
N312 N 0.06264 0.6 0.10251 0.0
N313 N 1.0068 0.67496 0.9541 0.0
C314 C 0.03415 0.61823 0.06468 0.0
C315 C 1.00525 0.65671 0.98909 0.0
N316 N 0.97071 0.59972 0.95193 0.0
N317 N 0.02245 0.67519 0.09729 0.0
H318 H 0.99392 0.67546 0.90016 0.0
H319 H 0.02993 0.68932 0.97949 0.0
H320 H 0.03543 0.67589 0.15125 0.0
H321 H 0.99845 0.68944 0.07129 0.0
H322 H 0.96558 0.58544 0.97515 0.0
H323 H 0.94567 0.59897 0.89674 0.0
H324 H 0.06854 0.58566 0.07987 0.0
H325 H 0.08779 0.59944 0.15771 0.0
C326 C 0.98984 0.41005 0.98672 0.0
C327 C 0.98394 0.39076 0.95046 0.0
C328 C 0.02628 0.37145 0.06203 0.0
C329 C 0.0412 0.39077 0.09926 0.0
N330 N 0.05151 0.42853 0.0994 0.0
N331 N 0.0145 0.35344 0.95436 0.0
C332 C 0.0267 0.41013 0.06227 0.0
C333 C 1.00718 0.37154 0.98837 0.0
N334 N 0.95678 0.42816 0.94889 0.0
N335 N 0.02688 0.35303 0.09668 0.0
H336 H 1.0029 0.35293 0.90061 0.0
H337 H 0.04155 0.33934 0.9806 0.0
H338 H 0.03878 0.35237 0.15043 0.0
H339 H 1.00593 0.33865 0.07099 0.0
H340 H 0.94841 0.4423 0.97177 0.0
H341 H 0.93012 0.42874 0.89361 0.0
H342 H 0.05367 0.44296 0.07601 0.0
H343 H 0.07748 0.42923 0.15463 0.0
C344 C 0.44942 1.00275 0.17178 0.0
C345 C 0.47873 0.99202 0.23751 0.0
C346 C 0.52377 0.02527 0.30204 0.0
C347 C 0.48046 0.03602 0.23645 0.0
N348 N 0.4342 0.03616 0.11035 0.0
N349 N 0.57296 0.99179 0.36337 0.0
C350 C 0.45543 0.02505 0.17164 0.0
C351 C 0.52726 1.00294 0.30215 0.0
N352 N 0.40943 0.99162 0.11002 0.0
N353 N 0.55452 0.03645 0.36387 0.0
H354 H 0.57532 0.97542 0.36368 0.0
H355 H 0.61504 0.99854 0.4123 0.0
H356 H 0.55592 0.05283 0.36447 0.0
H357 H 0.57646 0.02973 0.41403 0.0
H358 H 0.37678 0.9984 0.05994 0.0
H359 H 0.40712 0.97527 0.10952 0.0
H360 H 0.42107 0.02936 0.06117 0.0
H361 H 0.4383 0.05251 0.11036 0.0
C362 C 0.49529 1.00234 0.76071 0.0
C363 C 0.53127 0.99094 0.82533 0.0
C364 C 0.55063 0.02353 0.89295 0.0
C365 C 0.53055 0.03494 0.82933 0.0
N366 N 0.45375 0.03638 0.70223 0.0
N367 N 0.56251 0.98938 0.94956 0.0
C368 C 0.49114 0.02464 0.76282 0.0
C369 C 0.54727 1.00118 0.89042 0.0
N370 N 0.47192 0.99176 0.69811 0.0
N371 N 0.57893 0.03419 0.9557 0.0
H372 H 0.55977 0.97303 0.9476 0.0
H373 H 0.57024 0.99553 0.99869 0.0
H374 H 0.57793 0.05055 0.95748 0.0
H375 H 0.60384 0.0271 1.0054 0.0
H376 H 0.45528 0.99893 0.6491 0.0
H377 H 0.47079 0.97539 0.69571 0.0
H378 H 0.41899 0.03013 0.65152 0.0
H379 H 0.45085 0.05272 0.70354 0.0
C380 C 0.97666 0.52539 0.6653 0.0
C381 C 0.99466 0.53567 0.73061 0.0
C382 C 0.03666 0.50202 0.79325 0.0
C383 C 0.99518 0.49169 0.72686 0.0
N384 N 0.94337 0.49235 0.60023 0.0
N385 N 0.05866 0.53498 0.85793 0.0
C386 C 0.97335 0.50305 0.66297 0.0
C387 C 0.03288 0.52433 0.79528 0.0
N388 N 0.95929 0.53716 0.6058 0.0
N389 N 0.07552 0.49031 0.85381 0.0
H390 H 0.05986 0.55135 0.86007 0.0
H391 H 0.07748 0.52787 0.90725 0.0
H392 H 0.07819 0.47396 0.85251 0.0
H393 H 0.11151 0.49657 0.9044 0.0
H394 H 0.9498 0.53099 0.55637 0.0
H395 H 0.96191 0.55351 0.6077 0.0
H396 H 0.9173 0.49939 0.55044 0.0
H397 H 0.94428 0.47598 0.5986 0.0
C398 C 0.99358 0.52506 0.25904 0.0
C399 C 0.04263 0.53583 0.32394 0.0
C400 C 0.06761 0.50259 0.38882 0.0
C401 C 0.04182 0.49181 0.32356 0.0
N402 N 0.96583 0.49174 0.19618 0.0
N403 N 0.11236 0.53592 0.45137 0.0
C404 C 0.99738 0.50274 0.25839 0.0
C405 C 0.07272 0.5249 0.38934 0.0
N406 N 0.9471 0.53637 0.19826 0.0
N407 N 0.09036 0.49128 0.44987 0.0
H408 H 0.11357 0.55228 0.45221 0.0
H409 H 0.14537 0.52906 0.5013 0.0
H410 H 0.08683 0.47492 0.44937 0.0
H411 H 0.10444 0.49789 0.49943 0.0
H412 H 0.90468 0.52974 0.14919 0.0
H413 H 0.9445 0.55273 0.19849 0.0
H414 H 0.94291 0.4986 0.14618 0.0
H415 H 0.96465 0.47536 0.19504 0.0
C416 C 0.95515 0.16697 1.00405 0.0
C417 C 0.90494 0.14727 0.98924 0.0
C418 C 0.06503 0.12914 0.058 0.0
C419 C 0.11514 0.14888 0.07497 0.0
N420 N 0.11484 0.18628 0.05928 0.0
N421 N 0.90681 0.10975 1.00603 0.0
C422 C 0.06204 0.16775 0.04644 0.0
C423 C 0.95868 0.12841 1.0171 0.0
N424 N 0.89896 0.18489 0.98101 0.0
N425 N 0.12072 0.11095 0.07663 0.0
H426 H 0.83096 0.10808 0.97099 0.0
H427 H 0.93685 0.09605 0.03402 0.0
H428 H 0.19846 0.11049 0.10829 0.0
H429 H 0.09211 0.09622 0.05701 0.0
H430 H 0.92744 0.19997 0.99488 0.0
H431 H 0.8209 0.18462 0.94963 0.0
H432 H 0.08461 0.20044 0.03501 0.0
H433 H 0.19157 0.18737 0.09349 0.0
C434 C 0.05037 0.90021 0.05425 0.0
C435 C 0.10692 0.88123 0.06797 0.0
C436 C 0.95206 0.86139 1.00018 0.0
C437 C 0.89671 0.88049 0.98475 0.0
N438 N 0.89355 0.91831 0.9851 0.0
N439 N 0.11854 0.84427 0.0479 0.0
C440 C 0.94626 0.89997 1.00823 0.0
C441 C 0.05985 0.86193 0.03887 0.0
N442 N 0.09653 0.91848 0.08563 0.0
N443 N 0.90072 0.84282 0.98079 0.0
H444 H 0.19665 0.84403 0.07949 0.0
H445 H 0.09125 0.83015 1.02197 0.0
H446 H 0.82207 0.84213 0.95126 0.0
H447 H 0.93447 0.82821 0.99694 0.0
H448 H 0.05708 0.93236 0.08466 0.0
H449 H 0.1739 0.91949 0.11809 0.0
H450 H 0.92751 0.93307 0.99339 0.0
H451 H 0.81653 0.91877 0.95169 0.0
C452 C 0.56973 0.66682 0.54773 0.0
C453 C 0.62163 0.64743 0.56808 0.0
C454 C 0.46587 0.62806 0.50089 0.0
C455 C 0.41224 0.64736 0.48343 0.0
N456 N 0.4066 0.68491 0.49193 0.0
N457 N 0.62003 0.6096 0.57284 0.0
C458 C 0.46237 0.66675 0.50715 0.0
C459 C 0.56976 0.62805 0.54719 0.0
N460 N 0.62384 0.68513 0.5659 0.0
N461 N 0.41709 0.60972 0.47234 0.0
H462 H 0.69716 0.60889 0.60597 0.0
H463 H 0.58419 0.59507 0.56661 0.0
H464 H 0.33989 0.60901 0.43938 0.0
H465 H 0.45419 0.5954 0.47598 0.0
H466 H 0.59338 0.69982 0.54732 0.0
H467 H 0.70169 0.68548 0.59803 0.0
H468 H 0.4356 0.69947 0.51319 0.0
H469 H 0.32886 0.68523 0.4595 0.0
C470 C 0.45813 0.39839 0.49955 0.0
C471 C 0.40699 0.37876 0.48215 0.0
C472 C 0.56584 0.36029 0.5529 0.0
C473 C 0.61713 0.37987 0.56825 0.0
N474 N 0.61731 0.41741 0.5525 0.0
N475 N 0.40515 0.34136 0.49716 0.0
C476 C 0.56444 0.39887 0.54079 0.0
C477 C 0.45898 0.35977 0.51036 0.0
N478 N 0.40344 0.4167 0.4809 0.0
N479 N 0.621 0.34224 0.5756 0.0
H480 H 0.32842 0.34044 0.46283 0.0
H481 H 0.43452 0.32713 0.5213 0.0
H482 H 0.69891 0.34232 0.60742 0.0
H483 H 0.59176 0.32724 0.56094 0.0
H484 H 0.43267 0.43137 0.50076 0.0
H485 H 0.32589 0.41732 0.4488 0.0
H486 H 0.58815 0.43121 0.5249 0.0
H487 H 0.69314 0.41889 0.58776 0.0
C488 C 0.54069 0.11727 1.01461 0.0
C489 C 0.56907 0.13632 0.99115 0.0
C490 C 0.4888 0.15645 0.05869 0.0
C491 C 0.45263 0.1375 0.07711 0.0
N492 N 0.42972 0.10008 0.06477 0.0
N493 N 0.55966 0.17404 0.98207 0.0
C494 C 0.47474 0.11791 0.05309 0.0
C495 C 0.54012 0.15592 1.01084 0.0
N496 N 0.57939 0.09871 1.00211 0.0
N497 N 0.4737 0.17501 0.0872 0.0
H498 H 0.59734 0.17425 0.94673 0.0
H499 H 0.53097 0.18867 0.98794 0.0
H500 H 0.43558 0.17597 0.12218 0.0
H501 H 0.50685 0.18916 0.08181 0.0
H502 H 0.57077 0.08453 1.02465 0.0
H503 H 0.62584 0.09777 0.97256 0.0
H504 H 0.43326 0.0857 0.04147 0.0
H505 H 0.38327 0.10002 0.09442 0.0
C506 C 0.54813 0.91211 1.01807 0.0
C507 C 0.56435 0.89277 0.98956 0.0
C508 C 0.4702 0.87411 0.05059 0.0
C509 C 0.44438 0.89366 0.07259 0.0
N510 N 0.44783 0.93138 0.07221 0.0
N511 N 0.53901 0.85534 0.97512 0.0
C512 C 0.48127 0.91274 0.05574 0.0
C513 C 0.52458 0.87376 1.00474 0.0
N514 N 0.59788 0.92973 1.01005 0.0
N515 N 0.44378 0.85584 0.07473 0.0
H516 H 0.58212 0.85423 0.9434 0.0
H517 H 0.50204 0.84136 0.97703 0.0
H518 H 0.40272 0.85547 0.10791 0.0
H519 H 0.46983 0.84108 0.06745 0.0
H520 H 0.59917 0.94369 0.03695 0.0
H521 H 0.64298 0.92998 0.97942 0.0
H522 H 0.46251 0.94582 0.05408 0.0
H523 H 0.39922 0.93222 0.10016 0.0
C524 C 0.04795 0.65423 0.50622 0.0
C525 C 0.07873 0.63485 0.48623 0.0
C526 C 0.98084 0.61565 0.54367 0.0
C527 C 0.95683 0.63497 0.56818 0.0
N528 N 0.97491 0.67254 0.58033 0.0
N529 N 0.08919 0.59719 0.49414 0.0
C530 C 0.99302 0.65423 0.55181 0.0
C531 C 0.04917 0.61553 0.50708 0.0
N532 N 0.07057 0.67266 0.48075 0.0
N533 N 0.93559 0.59759 0.55323 0.0
H534 H 0.13744 0.59661 0.46583 0.0
H535 H 0.07983 0.58282 0.5153 0.0
H536 H 0.88836 0.59708 0.58231 0.0
H537 H 0.93968 0.58349 0.52858 0.0
H538 H 0.04092 0.68718 0.48663 0.0
H539 H 0.11251 0.67334 0.44817 0.0
H540 H 1.00808 0.68686 0.57685 0.0
H541 H 0.93319 0.67321 0.61306 0.0
C542 C 0.04623 0.40958 0.50387 0.0
C543 C 0.06906 0.39012 0.47944 0.0
C544 C 0.98183 0.37128 0.54503 0.0
C545 C 0.95245 0.39076 0.56533 0.0
N546 N 0.94043 0.42837 0.55481 0.0
N547 N 0.0489 0.35261 0.46819 0.0
C548 C 0.9801 0.40994 0.54221 0.0
C549 C 0.03327 0.37103 0.49723 0.0
N550 N 0.09075 0.42755 0.49271 0.0
N551 N 0.96254 0.35302 0.57313 0.0
H552 H 0.08712 0.35187 0.43322 0.0
H553 H 0.01611 0.33837 0.47313 0.0
H554 H 0.92453 0.35259 0.60825 0.0
H555 H 0.9916 0.33847 0.56686 0.0
H556 H 0.08674 0.44182 0.51643 0.0
H557 H 0.13726 0.42781 0.46312 0.0
H558 H 0.94841 0.44261 0.53235 0.0
H559 H 0.89365 0.42913 0.58415 0.0
C560 C 0.32599 0.25305 0.34023 0.0
C561 C 0.29429 0.24341 0.27234 0.0
C562 C 0.20048 0.27526 0.21653 0.0
C563 C 0.22709 0.28442 0.28479 0.0
N564 N 0.30418 0.28167 0.41223 0.0
N565 N 0.1936 0.24395 0.14672 0.0
C566 C 0.28712 0.27323 0.34688 0.0
C567 C 0.22904 0.25412 0.21067 0.0
N568 N 0.39461 0.243 0.39814 0.0
N569 N 0.15031 0.28706 0.15732 0.0
H570 H 0.21566 0.22872 0.14008 0.0
H571 H 0.13716 0.24993 0.10106 0.0
H572 H 0.12771 0.30255 0.15975 0.0
H573 H 0.13752 0.28221 0.10583 0.0
H574 H 0.43055 0.25008 0.44746 0.0
H575 H 0.42029 0.22775 0.39612 0.0
H576 H 0.33707 0.27346 0.45968 0.0
H577 H 0.27965 0.29667 0.41909 0.0
C578 C 0.70055 0.25137 0.71821 0.0
C579 C 0.73044 0.24289 0.78766 0.0
C580 C 0.82782 0.27482 0.8381 0.0
C581 C 0.79285 0.28379 0.76907 0.0
N582 N 0.68847 0.28198 0.64427 0.0
N583 N 0.81184 0.24688 0.91451 0.0
C584 C 0.72683 0.27245 0.70931 0.0
C585 C 0.79144 0.2547 0.8479 0.0
N586 N 0.64923 0.23899 0.66078 0.0
N587 N 0.89731 0.28545 0.89404 0.0
H588 H 0.78944 0.23192 0.9236 0.0
H589 H 0.84558 0.25557 0.96084 0.0
H590 H 0.92136 0.30069 0.88972 0.0
H591 H 0.93549 0.27887 0.94394 0.0
H592 H 0.6338 0.24334 0.60845 0.0
H593 H 0.62826 0.22353 0.66548 0.0
H594 H 0.63147 0.27554 0.59987 0.0
H595 H 0.70873 0.29715 0.63551 0.0
C596 C 0.80529 0.77266 0.84726 0.0
C597 C 0.73241 0.78308 0.78798 0.0
C598 C 0.73575 0.75384 0.7101 0.0
C599 C 0.80337 0.74286 0.7702 0.0
N600 N 0.89404 0.74021 0.89676 0.0
N601 N 0.62048 0.78335 0.66434 0.0
C602 C 0.83615 0.75187 0.83904 0.0
C603 C 0.69539 0.77358 0.71972 0.0
N604 N 0.84536 0.78275 0.91125 0.0
N605 N 0.7129 0.74567 0.64366 0.0
H606 H 0.59361 0.79838 0.66815 0.0
H607 H 0.58094 0.77625 0.61556 0.0
H608 H 0.73909 0.73103 0.63476 0.0
H609 H 0.67351 0.75382 0.59696 0.0
H610 H 0.907 0.77711 0.9546 0.0
H611 H 0.82135 0.7976 0.91997 0.0
H612 H 0.91201 0.74488 0.9491 0.0
H613 H 0.91826 0.72496 0.89265 0.0
C614 C 0.32685 0.77536 0.33523 0.0
C615 C 0.29035 0.78454 0.26654 0.0
C616 C 0.18479 0.75346 0.21716 0.0
C617 C 0.22606 0.74376 0.28506 0.0
N618 N 0.34345 0.74414 0.40724 0.0
N619 N 0.19488 0.78191 0.14054 0.0
C620 C 0.29945 0.75432 0.34368 0.0
C621 C 0.22177 0.7735 0.20703 0.0
N622 N 0.38513 0.78708 0.39265 0.0
N623 N 0.10925 0.74355 0.16261 0.0
H624 H 0.21835 0.79676 0.13135 0.0
H625 H 0.15465 0.77377 0.09397 0.0
H626 H 0.08471 0.72834 0.16665 0.0
H627 H 0.06691 0.7507 0.1144 0.0
H628 H 0.40582 0.78223 0.44507 0.0
H629 H 0.40673 0.80251 0.38835 0.0
H630 H 0.40561 0.74995 0.44982 0.0
H631 H 0.32225 0.72907 0.41622 0.0
C632 C 0.85601 0.12385 0.28899 0.0
C633 C 0.77873 0.13882 0.25448 0.0
C634 C 0.89227 0.15574 0.20369 0.0
C635 C 0.97231 0.14171 0.2425 0.0
N636 N 0.03755 0.11603 0.33629 0.0
N637 N 0.72737 0.17099 0.18806 0.0
C638 C 0.95605 0.12666 0.2888 0.0
C639 C 0.79819 0.15539 0.21462 0.0
N640 N 0.8344 0.10703 0.32265 0.0
N641 N 0.90453 0.16891 0.15451 0.0
H642 H 0.65683 0.17106 0.19364 0.0
H643 H 0.74129 0.18467 0.16519 0.0
H644 H 0.97289 0.17014 0.1464 0.0
H645 H 0.84484 0.17748 0.11805 0.0
H646 H 0.88388 0.09431 0.34116 0.0
H647 H 0.764 0.10497 0.32768 0.0
H648 H 0.03202 0.10649 0.37625 0.0
H649 H 0.11313 0.11854 0.34132 0.0
C650 C 0.20768 0.14146 0.83832 0.0
C651 C 0.22118 0.13789 0.77387 0.0
C652 C 0.03456 0.14097 0.71055 0.0
C653 C 0.02161 0.1415 0.77661 0.0
N654 N 0.09795 0.13553 0.9026 0.0
N655 N 0.14386 0.13054 0.64822 0.0
C656 C 0.10863 0.13996 0.8403 0.0
C657 C 0.13353 0.13665 0.70958 0.0
N658 N 0.28803 0.14774 0.89713 0.0
N659 N 0.95348 0.14524 0.64902 0.0
H660 H 0.21431 0.12653 0.64585 0.0
H661 H 0.08153 0.12743 0.60144 0.0
H662 H 0.88085 0.14908 0.64786 0.0
H663 H 0.96084 0.14703 0.60023 0.0
H664 H 0.27706 0.15342 0.94162 0.0
H665 H 0.36112 0.15023 0.89723 0.0
H666 H 0.16032 0.13086 0.94716 0.0
H667 H 0.02688 0.13353 0.90643 0.0
C668 C 0.16839 0.87317 0.77133 0.0
C669 C 0.23751 0.88761 0.81885 0.0
C670 C 0.09859 0.90057 0.8537 0.0
C671 C 0.03313 0.88465 0.81167 0.0
N672 N 1.00811 0.85416 0.73659 0.0
N673 N 0.2714 0.91399 0.91006 0.0
C674 C 0.06911 0.87035 0.77284 0.0
C675 C 0.20327 0.90113 0.86109 0.0
N676 N 0.19496 0.86322 0.72111 0.0
N677 N 0.06038 0.91529 0.88617 0.0
H678 H 0.34757 0.91541 0.91569 0.0
H679 H 0.25471 0.9223 0.94845 0.0
H680 H 0.98586 0.91481 0.88508 0.0
H681 H 0.09996 0.92872 0.91062 0.0
H682 H 0.14415 0.85422 0.68023 0.0
H683 H 0.26435 0.86579 0.71507 0.0
H684 H 0.03484 0.84175 0.71495 0.0
H685 H 0.93243 0.85225 0.73213 0.0
C686 C 0.78886 0.87267 0.20589 0.0
C687 C 0.77126 0.88827 0.24988 0.0
C688 C 0.95124 0.89904 0.2901 0.0
C689 C 0.96625 0.88521 0.23997 0.0
N690 N 0.89671 0.85987 0.14568 0.0
N691 N 0.83154 0.91805 0.32778 0.0
C692 C 0.88446 0.87218 0.19689 0.0
C693 C 0.85103 0.90208 0.2897 0.0
N694 N 0.7144 0.85818 0.1732 0.0
N695 N 0.03392 0.90818 0.34156 0.0
H696 H 0.76085 0.92017 0.33234 0.0
H697 H 0.88335 0.93012 0.35066 0.0
H698 H 0.10942 0.90524 0.3471 0.0
H699 H 0.02892 0.9167 0.38383 0.0
H700 H 0.72586 0.84501 0.14686 0.0
H701 H 0.64225 0.85851 0.17635 0.0
H702 H 0.83693 0.85198 0.10695 0.0
H703 H 0.96583 0.85856 0.13867 0.0
C704 C 0.36352 0.62369 0.78152 0.0
C705 C 0.28635 0.63884 0.74886 0.0
C706 C 0.39994 0.65668 0.69998 0.0
C707 C 0.47953 0.64223 0.73632 0.0
N708 N 0.5449 0.61579 0.82747 0.0
N709 N 0.23411 0.67142 0.68513 0.0
C710 C 0.46335 0.6267 0.7812 0.0
C711 C 0.30561 0.65587 0.71063 0.0
N712 N 0.34198 0.60648 0.81353 0.0
N713 N 0.4128 0.67075 0.65341 0.0
H714 H 0.16262 0.67098 0.68929 0.0
H715 H 0.24775 0.68546 0.66408 0.0
H716 H 0.48183 0.6727 0.64673 0.0
H717 H 0.35337 0.67962 0.61803 0.0
H718 H 0.39124 0.59367 0.83042 0.0
H719 H 0.2718 0.60422 0.81871 0.0
H720 H 0.5395 0.6058 0.86642 0.0
H721 H 0.62047 0.61851 0.83286 0.0
C722 C 0.56747 0.62855 0.26654 0.0
C723 C 0.55159 0.6432 0.31417 0.0
C724 C 0.7286 0.65586 0.34649 0.0
C725 C 0.74695 0.63959 0.30505 0.0
N726 N 0.68822 0.60881 0.23191 0.0
N727 N 0.61917 0.67016 0.40309 0.0
C728 C 0.66785 0.62536 0.2674 0.0
C729 C 0.63258 0.6568 0.35483 0.0
N730 N 0.4853 0.61873 0.21683 0.0
N731 N 0.80277 0.67057 0.37734 0.0
H732 H 0.54905 0.67229 0.40804 0.0
H733 H 0.67866 0.67832 0.44113 0.0
H734 H 0.87545 0.66988 0.37513 0.0
H735 H 0.79082 0.6842 0.40136 0.0
H736 H 0.49068 0.60952 0.17607 0.0
H737 H 0.40967 0.62169 0.21092 0.0
H738 H 0.63707 0.59651 0.21091 0.0
H739 H 0.75907 0.60651 0.22777 0.0
C740 C 0.56616 0.40109 0.26819 0.0
C741 C 0.55009 0.38604 0.31457 0.0
C742 C 0.72402 0.37232 0.34196 0.0
C743 C 0.74337 0.38891 0.30211 0.0
N744 N 0.68761 0.42074 0.23418 0.0
N745 N 0.61815 0.35883 0.40248 0.0
C746 C 0.66609 0.40389 0.26782 0.0
C747 C 0.63015 0.37199 0.35319 0.0
N748 N 0.48458 0.41172 0.2208 0.0
N749 N 0.79472 0.35668 0.36823 0.0
H750 H 0.55004 0.35767 0.41097 0.0
H751 H 0.67787 0.35022 0.43873 0.0
H752 H 0.86507 0.35659 0.36236 0.0
H753 H 0.78084 0.343 0.3911 0.0
H754 H 0.48999 0.42127 0.18081 0.0
H755 H 0.40904 0.40921 0.21586 0.0
H756 H 0.63815 0.43346 0.21582 0.0
H757 H 0.75793 0.42279 0.22902 0.0
C758 C 0.48786 0.38532 0.84687 0.0
C759 C 0.50143 0.38492 0.78103 0.0
C760 C 0.31547 0.38502 0.71863 0.0
C761 C 0.30138 0.38847 0.78295 0.0
N762 N 0.37781 0.39564 0.90877 0.0
N763 N 0.42608 0.39117 0.65518 0.0
C764 C 0.38867 0.38963 0.84749 0.0
C765 C 0.41479 0.38657 0.71714 0.0
N766 N 0.56856 0.38098 0.90853 0.0
N767 N 0.23542 0.37886 0.65945 0.0
H768 H 0.49735 0.39326 0.65174 0.0
H769 H 0.364 0.39592 0.61059 0.0
H770 H 0.16205 0.37641 0.65889 0.0
H771 H 0.24684 0.37323 0.61503 0.0
H772 H 0.56071 0.3791 0.95713 0.0
H773 H 0.64133 0.37715 0.90993 0.0
H774 H 0.4399 0.39869 0.95574 0.0
H775 H 0.30722 0.39964 0.91091 0.0
loop_
_geom_bond_atom_site_label_1
_geom_bond_atom_site_label_2
_geom_bond_distance
_geom_bond_site_symmetry_2
_ccdc_geom_bond_type
Zn0 N4 2.020 . S
Zn0 O8 2.019 . S
Zn0 N10 2.119 . S
Zn0 O18 1.975 . S
C1 N2 1.334 . S
C1 N5 1.336 . S
N2 C1 1.334 . S
N2 C3 1.334 . S
C3 N2 1.334 . S
C3 N4 1.336 . S
N4 Zn0 2.020 . S
N4 C3 1.336 . S
N4 N5 1.354 . S
N5 C1 1.336 . S
N5 N4 1.354 . S
N5 Zn9 2.020 . S
C6 O7 1.244 . S
C6 O30 1.257 . S
O7 C6 1.244 . S
O8 Zn0 2.019 . S
O8 C28 1.257 . S
Zn9 N5 2.020 . S
Zn9 O16 1.975 . S
Zn9 N25 2.119 . S
Zn9 O30 2.019 . S
N10 Zn0 2.119 . S
N10 C12 1.334 . S
N10 C13 1.328 . S
C11 C12 1.391 . S
C11 N14 1.329 . S
C11 H32 0.930 . S
C12 N10 1.334 . S
C12 C11 1.391 . S
C12 H19 0.930 . S
C13 N10 1.328 . S
C13 C15 1.392 . S
C13 H20 0.930 . S
N14 C11 1.329 . S
N14 C15 1.331 . S
C15 C13 1.392 . S
C15 N14 1.331 . S
O16 Zn9 1.975 . S
O16 C17 1.252 . S
C17 O16 1.252 . S
C17 O18 1.252 . S
O18 Zn0 1.975 . S
O18 C17 1.252 . S
H19 C12 0.930 . S
H20 C13 0.930 . S
C21 C22 1.392 . S
C21 N25 1.328 . S
C21 H27 0.930 . S
C22 C21 1.392 . S
C22 N26 1.331 . S
C23 C24 1.391 . S
C23 N26 1.329 . S
C23 H33 0.930 . S
C24 C23 1.391 . S
C24 N25 1.334 . S
C24 H31 0.930 . S
N25 Zn9 2.119 . S
N25 C21 1.328 . S
N25 C24 1.334 . S
N26 C22 1.331 . S
N26 C23 1.329 . S
H27 C21 0.930 . S
C28 O8 1.257 . S
C28 O29 1.244 . S
O29 C28 1.244 . S
O30 C6 1.257 . S
O30 Zn9 2.019 . S
H31 C24 0.930 . S
H32 C11 0.930 . S
H33 C23 0.930 . S
Zn34 N38 2.020 . S
Zn34 O42 2.019 . S
Zn34 N44 2.119 . S
Zn34 O52 1.975 . S
C35 N36 1.334 . S
C35 N39 1.336 . S
N36 C35 1.334 . S
N36 C37 1.334 . S
C37 N36 1.334 . S
C37 N38 1.336 . S
N38 Zn34 2.020 . S
N38 C37 1.336 . S
N38 N39 1.354 . S
N39 C35 1.336 . S
N39 N38 1.354 . S
N39 Zn43 2.020 . S
C40 O41 1.244 . S
C40 O64 1.257 . S
O41 C40 1.244 . S
O42 Zn34 2.019 . S
O42 C62 1.257 . S
Zn43 N39 2.020 . S
Zn43 O50 1.975 . S
Zn43 N59 2.119 . S
Zn43 O64 2.019 . S
N44 Zn34 2.119 . S
N44 C46 1.334 . S
N44 C47 1.328 . S
C45 C46 1.391 . S
C45 N48 1.329 . S
C45 H66 0.930 . S
C46 N44 1.334 . S
C46 C45 1.391 . S
C46 H53 0.930 . S
C47 N44 1.328 . S
C47 C49 1.392 . S
C47 H54 0.930 . S
N48 C45 1.329 . S
N48 C49 1.331 . S
C49 C47 1.392 . S
C49 N48 1.331 . S
O50 Zn43 1.975 . S
O50 C51 1.252 . S
C51 O50 1.252 . S
C51 O52 1.252 . S
O52 Zn34 1.975 . S
O52 C51 1.252 . S
H53 C46 0.930 . S
H54 C47 0.930 . S
C55 C56 1.392 . S
C55 N59 1.328 . S
C55 H61 0.930 . S
C56 C55 1.392 . S
C56 N60 1.331 . S
C57 C58 1.391 . S
C57 N60 1.329 . S
C57 H67 0.930 . S
C58 C57 1.391 . S
C58 N59 1.334 . S
C58 H65 0.930 . S
N59 Zn43 2.119 . S
N59 C55 1.328 . S
N59 C58 1.334 . S
N60 C56 1.331 . S
N60 C57 1.329 . S
H61 C55 0.930 . S
C62 O42 1.257 . S
C62 O63 1.244 . S
O63 C62 1.244 . S
O64 C40 1.257 . S
O64 Zn43 2.019 . S
H65 C58 0.930 . S
H66 C45 0.930 . S
H67 C57 0.930 . S
Zn68 N72 2.020 . S
Zn68 O76 2.019 . S
Zn68 N78 2.119 . S
Zn68 O86 1.975 . S
C69 N70 1.334 . S
C69 N73 1.336 . S
N70 C69 1.334 . S
N70 C71 1.334 . S
C71 N70 1.334 . S
C71 N72 1.336 . S
N72 Zn68 2.020 . S
N72 C71 1.336 . S
N72 N73 1.354 . S
N73 C69 1.336 . S
N73 N72 1.354 . S
N73 Zn77 2.020 . S
C74 O75 1.244 . S
C74 O98 1.257 . S
O75 C74 1.244 . S
O76 Zn68 2.019 . S
O76 C96 1.257 . S
Zn77 N73 2.020 . S
Zn77 O84 1.975 . S
Zn77 N93 2.119 . S
Zn77 O98 2.019 . S
N78 Zn68 2.119 . S
N78 C80 1.334 . S
N78 C81 1.328 . S
C79 C80 1.391 . S
C79 N82 1.329 . S
C79 H100 0.930 . S
C80 N78 1.334 . S
C80 C79 1.391 . S
C80 H87 0.930 . S
C81 N78 1.328 . S
C81 C83 1.392 . S
C81 H88 0.930 . S
N82 C79 1.329 . S
N82 C83 1.331 . S
C83 C81 1.392 . S
C83 N82 1.331 . S
O84 Zn77 1.975 . S
O84 C85 1.252 . S
C85 O84 1.252 . S
C85 O86 1.252 . S
O86 Zn68 1.975 . S
O86 C85 1.252 . S
H87 C80 0.930 . S
H88 C81 0.930 . S
C89 C90 1.392 . S
C89 N93 1.328 . S
C89 H95 0.930 . S
C90 C89 1.392 . S
C90 N94 1.331 . S
C91 C92 1.391 . S
C91 N94 1.329 . S
C91 H101 0.930 . S
C92 C91 1.391 . S
C92 N93 1.334 . S
C92 H99 0.930 . S
N93 Zn77 2.119 . S
N93 C89 1.328 . S
N93 C92 1.334 . S
N94 C90 1.331 . S
N94 C91 1.329 . S
H95 C89 0.930 . S
C96 O76 1.257 . S
C96 O97 1.244 . S
O97 C96 1.244 . S
O98 C74 1.257 . S
O98 Zn77 2.019 . S
H99 C92 0.930 . S
H100 C79 0.930 . S
H101 C91 0.930 . S
Zn102 N106 2.020 . S
Zn102 O110 2.019 . S
Zn102 N112 2.119 . S
Zn102 O120 1.975 . S
C103 N104 1.334 . S
C103 N107 1.336 . S
N104 C103 1.334 . S
N104 C105 1.334 . S
C105 N104 1.334 . S
C105 N106 1.336 . S
N106 Zn102 2.020 . S
N106 C105 1.336 . S
N106 N107 1.354 . S
N107 C103 1.336 . S
N107 N106 1.354 . S
N107 Zn111 2.020 . S
C108 O109 1.244 . S
C108 O132 1.257 . S
O109 C108 1.244 . S
O110 Zn102 2.019 . S
O110 C130 1.257 . S
Zn111 N107 2.020 . S
Zn111 O118 1.975 . S
Zn111 N127 2.119 . S
Zn111 O132 2.019 . S
N112 Zn102 2.119 . S
N112 C114 1.334 . S
N112 C115 1.328 . S
C113 C114 1.391 . S
C113 N116 1.329 . S
C113 H134 0.930 . S
C114 N112 1.334 . S
C114 C113 1.391 . S
C114 H121 0.930 . S
C115 N112 1.328 . S
C115 C117 1.392 . S
C115 H122 0.930 . S
N116 C113 1.329 . S
N116 C117 1.331 . S
C117 C115 1.392 . S
C117 N116 1.331 . S
O118 Zn111 1.975 . S
O118 C119 1.252 . S
C119 O118 1.252 . S
C119 O120 1.252 . S
O120 Zn102 1.975 . S
O120 C119 1.252 . S
H121 C114 0.930 . S
H122 C115 0.930 . S
C123 C124 1.392 . S
C123 N127 1.328 . S
C123 H129 0.930 . S
C124 C123 1.392 . S
C124 N128 1.331 . S
C125 C126 1.391 . S
C125 N128 1.329 . S
C125 H135 0.930 . S
C126 C125 1.391 . S
C126 N127 1.334 . S
C126 H133 0.930 . S
N127 Zn111 2.119 . S
N127 C123 1.328 . S
N127 C126 1.334 . S
N128 C124 1.331 . S
N128 C125 1.329 . S
H129 C123 0.930 . S
C130 O110 1.257 . S
C130 O131 1.244 . S
O131 C130 1.244 . S
O132 C108 1.257 . S
O132 Zn111 2.019 . S
H133 C126 0.930 . S
H134 C113 0.930 . S
H135 C125 0.930 . S
Zn136 N140 2.020 . S
Zn136 O144 2.019 . S
Zn136 N146 2.119 . S
Zn136 O154 1.975 . S
C137 N138 1.334 . S
C137 N141 1.336 . S
N138 C137 1.334 . S
N138 C139 1.334 . S
C139 N138 1.334 . S
C139 N140 1.336 . S
N140 Zn136 2.020 . S
N140 C139 1.336 . S
N140 N141 1.354 . S
N141 C137 1.336 . S
N141 N140 1.354 . S
N141 Zn145 2.020 1_655 S
C142 O143 1.244 . S
C142 O166 1.257 . S
O143 C142 1.244 . S
O144 Zn136 2.019 . S
O144 C164 1.257 . S
Zn145 N141 2.020 1_455 S
Zn145 O152 1.975 . S
Zn145 N161 2.119 1_455 S
Zn145 O166 2.019 . S
N146 Zn136 2.119 . S
N146 C148 1.334 . S
N146 C149 1.328 . S
C147 C148 1.391 . S
C147 N150 1.329 . S
C147 H168 0.930 1_655 S
C148 N146 1.334 . S
C148 C147 1.391 . S
C148 H155 0.930 . S
C149 N146 1.328 . S
C149 C151 1.392 . S
C149 H156 0.930 . S
N150 C147 1.329 . S
N150 C151 1.331 . S
C151 C149 1.392 . S
C151 N150 1.331 . S
O152 Zn145 1.975 . S
O152 C153 1.252 1_455 S
C153 O152 1.252 1_655 S
C153 O154 1.252 . S
O154 Zn136 1.975 . S
O154 C153 1.252 . S
H155 C148 0.930 . S
H156 C149 0.930 . S
C157 C158 1.392 . S
C157 N161 1.328 1_455 S
C157 H163 0.930 . S
C158 C157 1.392 . S
C158 N162 1.331 1_455 S
C159 C160 1.391 . S
C159 N162 1.329 . S
C159 H169 0.930 . S
C160 C159 1.391 . S
C160 N161 1.334 . S
C160 H167 0.930 . S
N161 Zn145 2.119 1_655 S
N161 C157 1.328 1_655 S
N161 C160 1.334 . S
N162 C158 1.331 1_655 S
N162 C159 1.329 . S
H163 C157 0.930 . S
C164 O144 1.257 . S
C164 O165 1.244 . S
O165 C164 1.244 . S
O166 C142 1.257 . S
O166 Zn145 2.019 . S
H167 C160 0.930 . S
H168 C147 0.930 1_455 S
H169 C159 0.930 . S
Zn170 N174 2.020 . S
Zn170 O178 2.019 . S
Zn170 N180 2.119 . S
Zn170 O188 1.975 . S
C171 N172 1.334 . S
C171 N175 1.336 . S
N172 C171 1.334 . S
N172 C173 1.334 . S
C173 N172 1.334 . S
C173 N174 1.336 . S
N174 Zn170 2.020 . S
N174 C173 1.336 . S
N174 N175 1.354 . S
N175 C171 1.336 . S
N175 N174 1.354 . S
N175 Zn179 2.020 1_455 S
C176 O177 1.244 . S
C176 O200 1.257 . S
O177 C176 1.244 . S
O178 Zn170 2.019 . S
O178 C198 1.257 . S
Zn179 N175 2.020 1_655 S
Zn179 O186 1.975 . S
Zn179 N195 2.119 1_655 S
Zn179 O200 2.019 . S
N180 Zn170 2.119 . S
N180 C182 1.334 . S
N180 C183 1.328 . S
C181 C182 1.391 . S
C181 N184 1.329 . S
C181 H202 0.930 1_455 S
C182 N180 1.334 . S
C182 C181 1.391 . S
C182 H189 0.930 . S
C183 N180 1.328 . S
C183 C185 1.392 . S
C183 H190 0.930 . S
N184 C181 1.329 . S
N184 C185 1.331 . S
C185 C183 1.392 . S
C185 N184 1.331 . S
O186 Zn179 1.975 . S
O186 C187 1.252 1_655 S
C187 O186 1.252 1_455 S
C187 O188 1.252 . S
O188 Zn170 1.975 . S
O188 C187 1.252 . S
H189 C182 0.930 . S
H190 C183 0.930 . S
C191 C192 1.392 . S
C191 N195 1.328 1_655 S
C191 H197 0.930 . S
C192 C191 1.392 . S
C192 N196 1.331 1_655 S
C193 C194 1.391 . S
C193 N196 1.329 . S
C193 H203 0.930 . S
C194 C193 1.391 . S
C194 N195 1.334 . S
C194 H201 0.930 . S
N195 Zn179 2.119 1_455 S
N195 C191 1.328 1_455 S
N195 C194 1.334 . S
N196 C192 1.331 1_455 S
N196 C193 1.329 . S
H197 C191 0.930 . S
C198 O178 1.257 . S
C198 O199 1.244 . S
O199 C198 1.244 . S
O200 C176 1.257 . S
O200 Zn179 2.019 . S
H201 C194 0.930 . S
H202 C181 0.930 1_655 S
H203 C193 0.930 . S
Zn204 N208 2.020 1_655 S
Zn204 O212 2.019 . S
Zn204 N214 2.119 1_655 S
Zn204 O222 1.975 . S
C205 N206 1.334 . S
C205 N209 1.336 . S
N206 C205 1.334 . S
N206 C207 1.334 . S
C207 N206 1.334 . S
C207 N208 1.336 . S
N208 Zn204 2.020 1_455 S
N208 C207 1.336 . S
N208 N209 1.354 . S
N209 C205 1.336 . S
N209 N208 1.354 . S
N209 Zn213 2.020 . S
C210 O211 1.244 . S
C210 O234 1.257 . S
O211 C210 1.244 . S
O212 Zn204 2.019 . S
O212 C232 1.257 . S
Zn213 N209 2.020 . S
Zn213 O220 1.975 . S
Zn213 N229 2.119 . S
Zn213 O234 2.019 . S
N214 Zn204 2.119 1_455 S
N214 C216 1.334 . S
N214 C217 1.328 1_455 S
C215 C216 1.391 . S
C215 N218 1.329 . S
C215 H236 0.930 . S
C216 N214 1.334 . S
C216 C215 1.391 . S
C216 H223 0.930 . S
C217 N214 1.328 1_655 S
C217 C219 1.392 . S
C217 H224 0.930 . S
N218 C215 1.329 . S
N218 C219 1.331 1_455 S
C219 C217 1.392 . S
C219 N218 1.331 1_655 S
O220 Zn213 1.975 . S
O220 C221 1.252 . S
C221 O220 1.252 . S
C221 O222 1.252 1_455 S
O222 Zn204 1.975 . S
O222 C221 1.252 1_655 S
H223 C216 0.930 . S
H224 C217 0.930 . S
C225 C226 1.392 . S
C225 N229 1.328 . S
C225 H231 0.930 . S
C226 C225 1.392 . S
C226 N230 1.331 . S
C227 C228 1.391 . S
C227 N230 1.329 . S
C227 H237 0.930 1_455 S
C228 C227 1.391 . S
C228 N229 1.334 . S
C228 H235 0.930 . S
N229 Zn213 2.119 . S
N229 C225 1.328 . S
N229 C228 1.334 . S
N230 C226 1.331 . S
N230 C227 1.329 . S
H231 C225 0.930 . S
C232 O212 1.257 . S
C232 O233 1.244 . S
O233 C232 1.244 . S
O234 C210 1.257 . S
O234 Zn213 2.019 . S
H235 C228 0.930 . S
H236 C215 0.930 . S
H237 C227 0.930 1_655 S
Zn238 N242 2.020 . S
Zn238 O246 2.019 . S
Zn238 N248 2.119 . S
Zn238 O256 1.975 . S
C239 N240 1.334 . S
C239 N243 1.336 . S
N240 C239 1.334 . S
N240 C241 1.334 . S
C241 N240 1.334 . S
C241 N242 1.336 . S
N242 Zn238 2.020 . S
N242 C241 1.336 . S
N242 N243 1.354 . S
N243 C239 1.336 . S
N243 N242 1.354 . S
N243 Zn247 2.020 1_655 S
C244 O245 1.244 . S
C244 O268 1.257 . S
O245 C244 1.244 . S
O246 Zn238 2.019 . S
O246 C266 1.257 . S
Zn247 N243 2.020 1_455 S
Zn247 O254 1.975 . S
Zn247 N263 2.119 1_455 S
Zn247 O268 2.019 . S
N248 Zn238 2.119 . S
N248 C250 1.334 . S
N248 C251 1.328 . S
C249 C250 1.391 . S
C249 N252 1.329 . S
C249 H270 0.930 1_655 S
C250 N248 1.334 . S
C250 C249 1.391 . S
C250 H257 0.930 . S
C251 N248 1.328 . S
C251 C253 1.392 . S
C251 H258 0.930 . S
N252 C249 1.329 . S
N252 C253 1.331 . S
C253 C251 1.392 . S
C253 N252 1.331 . S
O254 Zn247 1.975 . S
O254 C255 1.252 1_455 S
C255 O254 1.252 1_655 S
C255 O256 1.252 . S
O256 Zn238 1.975 . S
O256 C255 1.252 . S
H257 C250 0.930 . S
H258 C251 0.930 . S
C259 C260 1.392 . S
C259 N263 1.328 1_455 S
C259 H265 0.930 . S
C260 C259 1.392 . S
C260 N264 1.331 1_455 S
C261 C262 1.391 . S
C261 N264 1.329 . S
C261 H271 0.930 . S
C262 C261 1.391 . S
C262 N263 1.334 . S
C262 H269 0.930 . S
N263 Zn247 2.119 1_655 S
N263 C259 1.328 1_655 S
N263 C262 1.334 . S
N264 C260 1.331 1_655 S
N264 C261 1.329 . S
H265 C259 0.930 . S
C266 O246 1.257 . S
C266 O267 1.244 . S
O267 C266 1.244 . S
O268 C244 1.257 . S
O268 Zn247 2.019 . S
H269 C262 0.930 . S
H270 C249 0.930 1_455 S
H271 C261 0.930 . S
C272 C273 1.363 . S
C272 C278 1.379 . S
C272 N280 1.356 . S
C273 C272 1.363 . S
C273 C279 1.363 . S
C274 C275 1.363 . S
C274 C279 1.379 . S
C274 N281 1.356 . S
C275 C274 1.363 . S
C275 C278 1.363 . S
N276 C278 1.356 . S
N276 H288 0.984 . S
N276 H289 0.985 . S
N277 C279 1.356 . S
N277 H282 0.984 . S
N277 H283 0.985 . S
C278 C272 1.379 . S
C278 C275 1.363 . S
C278 N276 1.356 . S
C279 C273 1.363 . S
C279 C274 1.379 . S
C279 N277 1.356 . S
N280 C272 1.356 . S
N280 H286 0.984 . S
N280 H287 0.984 . S
N281 C274 1.356 . S
N281 H284 0.984 . S
N281 H285 0.985 . S
H282 N277 0.984 . S
H283 N277 0.985 . S
H284 N281 0.984 . S
H285 N281 0.985 . S
H286 N280 0.984 . S
H287 N280 0.984 . S
H288 N276 0.984 . S
H289 N276 0.985 . S
C290 C291 1.363 . S
C290 C296 1.379 . S
C290 N298 1.356 . S
C291 C290 1.363 . S
C291 C297 1.363 . S
C292 C293 1.363 . S
C292 C297 1.379 . S
C292 N299 1.356 . S
C293 C292 1.363 . S
C293 C296 1.363 . S
N294 C296 1.356 . S
N294 H306 0.984 . S
N294 H307 0.985 . S
N295 C297 1.356 . S
N295 H300 0.984 . S
N295 H301 0.985 . S
C296 C290 1.379 . S
C296 C293 1.363 . S
C296 N294 1.356 . S
C297 C291 1.363 . S
C297 C292 1.379 . S
C297 N295 1.356 . S
N298 C290 1.356 . S
N298 H304 0.984 . S
N298 H305 0.984 . S
N299 C292 1.356 . S
N299 H302 0.984 . S
N299 H303 0.985 . S
H300 N295 0.984 . S
H301 N295 0.985 . S
H302 N299 0.984 . S
H303 N299 0.985 . S
H304 N298 0.984 . S
H305 N298 0.984 . S
H306 N294 0.984 . S
H307 N294 0.985 . S
C308 C309 1.363 . S
C308 C314 1.379 1_556 S
C308 N316 1.356 . S
C309 C308 1.363 . S
C309 C315 1.363 1_655 S
C310 C311 1.363 . S
C310 C315 1.379 1_554 S
C310 N317 1.356 . S
C311 C310 1.363 . S
C311 C314 1.363 1_455 S
N312 C314 1.356 . S
N312 H324 0.984 . S
N312 H325 0.985 . S
N313 C315 1.356 . S
N313 H318 0.984 . S
N313 H319 0.985 . S
C314 C308 1.379 1_554 S
C314 C311 1.363 1_655 S
C314 N312 1.356 . S
C315 C309 1.363 1_455 S
C315 C310 1.379 1_556 S
C315 N313 1.356 . S
N316 C308 1.356 . S
N316 H322 0.984 . S
N316 H323 0.984 . S
N317 C310 1.356 . S
N317 H320 0.984 . S
N317 H321 0.985 . S
H318 N313 0.984 . S
H319 N313 0.985 . S
H320 N317 0.984 . S
H321 N317 0.985 . S
H322 N316 0.984 . S
H323 N316 0.984 . S
H324 N312 0.984 . S
H325 N312 0.985 . S
C326 C327 1.363 1_455 S
C326 C332 1.379 1_556 S
C326 N334 1.356 . S
C327 C326 1.363 1_655 S
C327 C333 1.363 . S
C328 C329 1.363 1_655 S
C328 C333 1.379 1_554 S
C328 N335 1.356 . S
C329 C328 1.363 1_455 S
C329 C332 1.363 . S
N330 C332 1.356 . S
N330 H342 0.984 . S
N330 H343 0.985 . S
N331 C333 1.356 . S
N331 H336 0.984 . S
N331 H337 0.985 . S
C332 C326 1.379 1_554 S
C332 C329 1.363 . S
C332 N330 1.356 . S
C333 C327 1.363 . S
C333 C328 1.379 1_556 S
C333 N331 1.356 . S
N334 C326 1.356 . S
N334 H340 0.984 . S
N334 H341 0.984 . S
N335 C328 1.356 . S
N335 H338 0.984 . S
N335 H339 0.985 . S
H336 N331 0.984 . S
H337 N331 0.985 . S
H338 N335 0.984 . S
H339 N335 0.985 . S
H340 N334 0.984 . S
H341 N334 0.984 . S
H342 N330 0.984 . S
H343 N330 0.985 . S
C344 C345 1.363 . S
C344 C350 1.379 1_565 S
C344 N352 1.356 . S
C345 C344 1.363 . S
C345 C351 1.363 . S
C346 C347 1.363 . S
C346 C351 1.379 1_545 S
C346 N353 1.356 . S
C347 C346 1.363 . S
C347 C350 1.363 . S
N348 C350 1.356 . S
N348 H360 0.984 . S
N348 H361 0.985 . S
N349 C351 1.356 . S
N349 H354 0.984 . S
N349 H355 0.985 . S
C350 C344 1.379 1_545 S
C350 C347 1.363 . S
C350 N348 1.356 . S
C351 C345 1.363 . S
C351 C346 1.379 1_565 S
C351 N349 1.356 . S
N352 C344 1.356 . S
N352 H358 0.984 . S
N352 H359 0.984 . S
N353 C346 1.356 . S
N353 H356 0.984 . S
N353 H357 0.985 . S
H354 N349 0.984 . S
H355 N349 0.985 . S
H356 N353 0.984 . S
H357 N353 0.985 . S
H358 N352 0.984 . S
H359 N352 0.984 . S
H360 N348 0.984 . S
H361 N348 0.985 . S
C362 C363 1.363 . S
C362 C368 1.379 1_565 S
C362 N370 1.356 . S
C363 C362 1.363 . S
C363 C369 1.363 . S
C364 C365 1.363 . S
C364 C369 1.379 1_545 S
C364 N371 1.356 . S
C365 C364 1.363 . S
C365 C368 1.363 . S
N366 C368 1.356 . S
N366 H378 0.984 . S
N366 H379 0.985 . S
N367 C369 1.356 . S
N367 H372 0.984 . S
N367 H373 0.985 . S
C368 C362 1.379 1_545 S
C368 C365 1.363 . S
C368 N366 1.356 . S
C369 C363 1.363 . S
C369 C364 1.379 1_565 S
C369 N367 1.356 . S
N370 C362 1.356 . S
N370 H376 0.984 . S
N370 H377 0.984 . S
N371 C364 1.356 . S
N371 H374 0.984 . S
N371 H375 0.985 . S
H372 N367 0.984 . S
H373 N367 0.985 . S
H374 N371 0.984 . S
H375 N371 0.985 . S
H376 N370 0.984 . S
H377 N370 0.984 . S
H378 N366 0.984 . S
H379 N366 0.985 . S
C380 C381 1.363 . S
C380 C386 1.379 . S
C380 N388 1.356 1_455 S
C381 C380 1.363 . S
C381 C387 1.363 . S
C382 C383 1.363 . S
C382 C387 1.379 . S
C382 N389 1.356 . S
C383 C382 1.363 . S
C383 C386 1.363 . S
N384 C386 1.356 1_655 S
N384 H396 0.984 . S
N384 H397 0.985 . S
N385 C387 1.356 . S
N385 H390 0.984 . S
N385 H391 0.985 . S
C386 C380 1.379 . S
C386 C383 1.363 . S
C386 N384 1.356 1_455 S
C387 C381 1.363 . S
C387 C382 1.379 . S
C387 N385 1.356 . S
N388 C380 1.356 1_655 S
N388 H394 0.984 . S
N388 H395 0.984 . S
N389 C382 1.356 . S
N389 H392 0.984 . S
N389 H393 0.985 . S
H390 N385 0.984 . S
H391 N385 0.985 . S
H392 N389 0.984 . S
H393 N389 0.985 . S
H394 N388 0.984 . S
H395 N388 0.984 . S
H396 N384 0.984 . S
H397 N384 0.985 . S
C398 C399 1.363 . S
C398 C404 1.379 . S
C398 N406 1.356 . S
C399 C398 1.363 . S
C399 C405 1.363 . S
C400 C401 1.363 . S
C400 C405 1.379 . S
C400 N407 1.356 1_655 S
C401 C400 1.363 . S
C401 C404 1.363 . S
N402 C404 1.356 . S
N402 H414 0.984 . S
N402 H415 0.985 . S
N403 C405 1.356 1_455 S
N403 H408 0.984 . S
N403 H409 0.985 . S
C404 C398 1.379 . S
C404 C401 1.363 . S
C404 N402 1.356 . S
C405 C399 1.363 . S
C405 C400 1.379 . S
C405 N403 1.356 1_655 S
N406 C398 1.356 . S
N406 H412 0.984 . S
N406 H413 0.984 . S
N407 C400 1.356 1_455 S
N407 H410 0.984 . S
N407 H411 0.985 . S
H408 N403 0.984 . S
H409 N403 0.985 . S
H410 N407 0.984 . S
H411 N407 0.985 . S
H412 N406 0.984 . S
H413 N406 0.984 . S
H414 N402 0.984 . S
H415 N402 0.985 . S
C416 C417 1.363 . S
C416 C422 1.379 1_655 S
C416 N424 1.356 . S
C417 C416 1.363 . S
C417 C423 1.363 1_556 S
C418 C419 1.363 . S
C418 C423 1.379 1_455 S
C418 N425 1.356 . S
C419 C418 1.363 . S
C419 C422 1.363 1_554 S
N420 C422 1.356 1_554 S
N420 H432 0.984 1_554 S
N420 H433 0.985 . S
N421 C423 1.356 1_556 S
N421 H426 0.984 . S
N421 H427 0.985 1_556 S
C422 C416 1.379 1_455 S
C422 C419 1.363 1_556 S
C422 N420 1.356 1_556 S
C423 C417 1.363 1_554 S
C423 C418 1.379 1_655 S
C423 N421 1.356 1_554 S
N424 C416 1.356 . S
N424 H430 0.984 . S
N424 H431 0.984 . S
N425 C418 1.356 . S
N425 H428 0.984 . S
N425 H429 0.985 . S
H426 N421 0.984 . S
H427 N421 0.985 1_554 S
H428 N425 0.984 . S
H429 N425 0.985 . S
H430 N424 0.984 . S
H431 N424 0.984 . S
H432 N420 0.984 1_556 S
H433 N420 0.985 . S
C434 C435 1.363 . S
C434 C440 1.379 1_455 S
C434 N442 1.356 . S
C435 C434 1.363 . S
C435 C441 1.363 1_554 S
C436 C437 1.363 . S
C436 C441 1.379 1_655 S
C436 N443 1.356 . S
C437 C436 1.363 . S
C437 C440 1.363 1_556 S
N438 C440 1.356 1_556 S
N438 H450 0.984 1_556 S
N438 H451 0.985 . S
N439 C441 1.356 1_554 S
N439 H444 0.984 . S
N439 H445 0.985 1_554 S
C440 C434 1.379 1_655 S
C440 C437 1.363 1_554 S
C440 N438 1.356 1_554 S
C441 C435 1.363 1_556 S
C441 C436 1.379 1_455 S
C441 N439 1.356 1_556 S
N442 C434 1.356 . S
N442 H448 0.984 . S
N442 H449 0.984 . S
N443 C436 1.356 . S
N443 H446 0.984 . S
N443 H447 0.985 . S
H444 N439 0.984 . S
H445 N439 0.985 1_556 S
H446 N443 0.984 . S
H447 N443 0.985 . S
H448 N442 0.984 . S
H449 N442 0.984 . S
H450 N438 0.984 1_554 S
H451 N438 0.985 . S
C452 C453 1.363 . S
C452 C458 1.379 . S
C452 N460 1.356 . S
C453 C452 1.363 . S
C453 C459 1.363 . S
C454 C455 1.363 . S
C454 C459 1.379 . S
C454 N461 1.356 . S
C455 C454 1.363 . S
C455 C458 1.363 . S
N456 C458 1.356 . S
N456 H468 0.984 . S
N456 H469 0.985 . S
N457 C459 1.356 . S
N457 H462 0.984 . S
N457 H463 0.985 . S
C458 C452 1.379 . S
C458 C455 1.363 . S
C458 N456 1.356 . S
C459 C453 1.363 . S
C459 C454 1.379 . S
C459 N457 1.356 . S
N460 C452 1.356 . S
N460 H466 0.984 . S
N460 H467 0.984 . S
N461 C454 1.356 . S
N461 H464 0.984 . S
N461 H465 0.985 . S
H462 N457 0.984 . S
H463 N457 0.985 . S
H464 N461 0.984 . S
H465 N461 0.985 . S
H466 N460 0.984 . S
H467 N460 0.984 . S
H468 N456 0.984 . S
H469 N456 0.985 . S
C470 C471 1.363 . S
C470 C476 1.379 . S
C470 N478 1.356 . S
C471 C470 1.363 . S
C471 C477 1.363 . S
C472 C473 1.363 . S
C472 C477 1.379 . S
C472 N479 1.356 . S
C473 C472 1.363 . S
C473 C476 1.363 . S
N474 C476 1.356 . S
N474 H486 0.984 . S
N474 H487 0.985 . S
N475 C477 1.356 . S
N475 H480 0.984 . S
N475 H481 0.985 . S
C476 C470 1.379 . S
C476 C473 1.363 . S
C476 N474 1.356 . S
C477 C471 1.363 . S
C477 C472 1.379 . S
C477 N475 1.356 . S
N478 C470 1.356 . S
N478 H484 0.984 . S
N478 H485 0.984 . S
N479 C472 1.356 . S
N479 H482 0.984 . S
N479 H483 0.985 . S
H480 N475 0.984 . S
H481 N475 0.985 . S
H482 N479 0.984 . S
H483 N479 0.985 . S
H484 N478 0.984 . S
H485 N478 0.984 . S
H486 N474 0.984 . S
H487 N474 0.985 . S
C488 C489 1.363 . S
C488 C494 1.379 1_556 S
C488 N496 1.356 . S
C489 C488 1.363 . S
C489 C495 1.363 . S
C490 C491 1.363 . S
C490 C495 1.379 1_554 S
C490 N497 1.356 . S
C491 C490 1.363 . S
C491 C494 1.363 . S
N492 C494 1.356 . S
N492 H504 0.984 1_554 S
N492 H505 0.985 . S
N493 C495 1.356 . S
N493 H498 0.984 . S
N493 H499 0.985 1_556 S
C494 C488 1.379 1_554 S
C494 C491 1.363 . S
C494 N492 1.356 . S
C495 C489 1.363 . S
C495 C490 1.379 1_556 S
C495 N493 1.356 . S
N496 C488 1.356 . S
N496 H502 0.984 . S
N496 H503 0.984 . S
N497 C490 1.356 . S
N497 H500 0.984 . S
N497 H501 0.985 . S
H498 N493 0.984 . S
H499 N493 0.985 1_554 S
H500 N497 0.984 . S
H501 N497 0.985 . S
H502 N496 0.984 . S
H503 N496 0.984 . S
H504 N492 0.984 1_556 S
H505 N492 0.985 . S
C506 C507 1.363 . S
C506 C512 1.379 1_556 S
C506 N514 1.356 . S
C507 C506 1.363 . S
C507 C513 1.363 . S
C508 C509 1.363 . S
C508 C513 1.379 1_554 S
C508 N515 1.356 . S
C509 C508 1.363 . S
C509 C512 1.363 . S
N510 C512 1.356 . S
N510 H522 0.984 . S
N510 H523 0.985 . S
N511 C513 1.356 . S
N511 H516 0.984 . S
N511 H517 0.985 . S
C512 C506 1.379 1_554 S
C512 C509 1.363 . S
C512 N510 1.356 . S
C513 C507 1.363 . S
C513 C508 1.379 1_556 S
C513 N511 1.356 . S
N514 C506 1.356 . S
N514 H520 0.984 1_556 S
N514 H521 0.984 . S
N515 C508 1.356 . S
N515 H518 0.984 . S
N515 H519 0.985 1_554 S
H516 N511 0.984 . S
H517 N511 0.985 . S
H518 N515 0.984 . S
H519 N515 0.985 1_556 S
H520 N514 0.984 1_554 S
H521 N514 0.984 . S
H522 N510 0.984 . S
H523 N510 0.985 . S
C524 C525 1.363 . S
C524 C530 1.379 . S
C524 N532 1.356 . S
C525 C524 1.363 . S
C525 C531 1.363 1_455 S
C526 C527 1.363 . S
C526 C531 1.379 . S
C526 N533 1.356 . S
C527 C526 1.363 . S
C527 C530 1.363 1_655 S
N528 C530 1.356 . S
N528 H540 0.984 . S
N528 H541 0.985 1_455 S
N529 C531 1.356 . S
N529 H534 0.984 1_655 S
N529 H535 0.985 . S
C530 C524 1.379 . S
C530 C527 1.363 1_455 S
C530 N528 1.356 . S
C531 C525 1.363 1_655 S
C531 C526 1.379 . S
C531 N529 1.356 . S
N532 C524 1.356 . S
N532 H538 0.984 . S
N532 H539 0.984 . S
N533 C526 1.356 . S
N533 H536 0.984 . S
N533 H537 0.985 . S
H534 N529 0.984 1_455 S
H535 N529 0.985 . S
H536 N533 0.984 . S
H537 N533 0.985 . S
H538 N532 0.984 . S
H539 N532 0.984 . S
H540 N528 0.984 . S
H541 N528 0.985 1_655 S
C542 C543 1.363 . S
C542 C548 1.379 . S
C542 N550 1.356 . S
C543 C542 1.363 . S
C543 C549 1.363 1_455 S
C544 C545 1.363 . S
C544 C549 1.379 . S
C544 N551 1.356 . S
C545 C544 1.363 . S
C545 C548 1.363 1_655 S
N546 C548 1.356 . S
N546 H558 0.984 . S
N546 H559 0.985 1_455 S
N547 C549 1.356 . S
N547 H552 0.984 1_655 S
N547 H553 0.985 . S
C548 C542 1.379 . S
C548 C545 1.363 1_455 S
C548 N546 1.356 . S
C549 C543 1.363 1_655 S
C549 C544 1.379 . S
C549 N547 1.356 . S
N550 C542 1.356 . S
N550 H556 0.984 . S
N550 H557 0.984 . S
N551 C544 1.356 . S
N551 H554 0.984 . S
N551 H555 0.985 . S
H552 N547 0.984 1_455 S
H553 N547 0.985 . S
H554 N551 0.984 . S
H555 N551 0.985 . S
H556 N550 0.984 . S
H557 N550 0.984 . S
H558 N546 0.984 . S
H559 N546 0.985 1_655 S
C560 C561 1.363 . S
C560 C566 1.379 . S
C560 N568 1.356 . S
C561 C560 1.363 . S
C561 C567 1.363 . S
C562 C563 1.363 . S
C562 C567 1.379 . S
C562 N569 1.356 . S
C563 C562 1.363 . S
C563 C566 1.363 . S
N564 C566 1.356 . S
N564 H576 0.984 . S
N564 H577 0.985 . S
N565 C567 1.356 . S
N565 H570 0.984 . S
N565 H571 0.985 . S
C566 C560 1.379 . S
C566 C563 1.363 . S
C566 N564 1.356 . S
C567 C561 1.363 . S
C567 C562 1.379 . S
C567 N565 1.356 . S
N568 C560 1.356 . S
N568 H574 0.984 . S
N568 H575 0.984 . S
N569 C562 1.356 . S
N569 H572 0.984 . S
N569 H573 0.985 . S
H570 N565 0.984 . S
H571 N565 0.985 . S
H572 N569 0.984 . S
H573 N569 0.985 . S
H574 N568 0.984 . S
H575 N568 0.984 . S
H576 N564 0.984 . S
H577 N564 0.985 . S
C578 C579 1.363 . S
C578 C584 1.379 . S
C578 N586 1.356 . S
C579 C578 1.363 . S
C579 C585 1.363 . S
C580 C581 1.363 . S
C580 C585 1.379 . S
C580 N587 1.356 . S
C581 C580 1.363 . S
C581 C584 1.363 . S
N582 C584 1.356 . S
N582 H594 0.984 . S
N582 H595 0.985 . S
N583 C585 1.356 . S
N583 H588 0.984 . S
N583 H589 0.985 . S
C584 C578 1.379 . S
C584 C581 1.363 . S
C584 N582 1.356 . S
C585 C579 1.363 . S
C585 C580 1.379 . S
C585 N583 1.356 . S
N586 C578 1.356 . S
N586 H592 0.984 . S
N586 H593 0.984 . S
N587 C580 1.356 . S
N587 H590 0.984 . S
N587 H591 0.985 . S
H588 N583 0.984 . S
H589 N583 0.985 . S
H590 N587 0.984 . S
H591 N587 0.985 . S
H592 N586 0.984 . S
H593 N586 0.984 . S
H594 N582 0.984 . S
H595 N582 0.985 . S
C596 C597 1.363 . S
C596 C602 1.379 . S
C596 N604 1.356 . S
C597 C596 1.363 . S
C597 C603 1.363 . S
C598 C599 1.363 . S
C598 C603 1.379 . S
C598 N605 1.356 . S
C599 C598 1.363 . S
C599 C602 1.363 . S
N600 C602 1.356 . S
N600 H612 0.984 . S
N600 H613 0.985 . S
N601 C603 1.356 . S
N601 H606 0.984 . S
N601 H607 0.985 . S
C602 C596 1.379 . S
C602 C599 1.363 . S
C602 N600 1.356 . S
C603 C597 1.363 . S
C603 C598 1.379 . S
C603 N601 1.356 . S
N604 C596 1.356 . S
N604 H610 0.984 . S
N604 H611 0.984 . S
N605 C598 1.356 . S
N605 H608 0.984 . S
N605 H609 0.985 . S
H606 N601 0.984 . S
H607 N601 0.985 . S
H608 N605 0.984 . S
H609 N605 0.985 . S
H610 N604 0.984 . S
H611 N604 0.984 . S
H612 N600 0.984 . S
H613 N600 0.985 . S
C614 C615 1.363 . S
C614 C620 1.379 . S
C614 N622 1.356 . S
C615 C614 1.363 . S
C615 C621 1.363 . S
C616 C617 1.363 . S
C616 C621 1.379 . S
C616 N623 1.356 . S
C617 C616 1.363 . S
C617 C620 1.363 . S
N618 C620 1.356 . S
N618 H630 0.984 . S
N618 H631 0.985 . S
N619 C621 1.356 . S
N619 H624 0.984 . S
N619 H625 0.985 . S
C620 C614 1.379 . S
C620 C617 1.363 . S
C620 N618 1.356 . S
C621 C615 1.363 . S
C621 C616 1.379 . S
C621 N619 1.356 . S
N622 C614 1.356 . S
N622 H628 0.984 . S
N622 H629 0.984 . S
N623 C616 1.356 . S
N623 H626 0.984 . S
N623 H627 0.985 . S
H624 N619 0.984 . S
H625 N619 0.985 . S
H626 N623 0.984 . S
H627 N623 0.985 . S
H628 N622 0.984 . S
H629 N622 0.984 . S
H630 N618 0.984 . S
H631 N618 0.985 . S
C632 C633 1.363 . S
C632 C638 1.379 . S
C632 N640 1.356 . S
C633 C632 1.363 . S
C633 C639 1.363 . S
C634 C635 1.363 1_655 S
C634 C639 1.379 . S
C634 N641 1.356 . S
C635 C634 1.363 1_455 S
C635 C638 1.363 1_455 S
N636 C638 1.356 1_455 S
N636 H648 0.984 . S
N636 H649 0.985 . S
N637 C639 1.356 . S
N637 H642 0.984 . S
N637 H643 0.985 . S
C638 C632 1.379 . S
C638 C635 1.363 1_655 S
C638 N636 1.356 1_655 S
C639 C633 1.363 . S
C639 C634 1.379 . S
C639 N637 1.356 . S
N640 C632 1.356 . S
N640 H646 0.984 . S
N640 H647 0.984 . S
N641 C634 1.356 . S
N641 H644 0.984 1_655 S
N641 H645 0.985 . S
H642 N637 0.984 . S
H643 N637 0.985 . S
H644 N641 0.984 1_455 S
H645 N641 0.985 . S
H646 N640 0.984 . S
H647 N640 0.984 . S
H648 N636 0.984 . S
H649 N636 0.985 . S
C650 C651 1.363 . S
C650 C656 1.379 . S
C650 N658 1.356 . S
C651 C650 1.363 . S
C651 C657 1.363 . S
C652 C653 1.363 1_455 S
C652 C657 1.379 . S
C652 N659 1.356 1_455 S
C653 C652 1.363 1_655 S
C653 C656 1.363 1_655 S
N654 C656 1.356 . S
N654 H666 0.984 . S
N654 H667 0.985 1_455 S
N655 C657 1.356 . S
N655 H660 0.984 . S
N655 H661 0.985 . S
C656 C650 1.379 . S
C656 C653 1.363 1_455 S
C656 N654 1.356 . S
C657 C651 1.363 . S
C657 C652 1.379 . S
C657 N655 1.356 . S
N658 C650 1.356 . S
N658 H664 0.984 . S
N658 H665 0.984 . S
N659 C652 1.356 1_655 S
N659 H662 0.984 . S
N659 H663 0.985 . S
H660 N655 0.984 . S
H661 N655 0.985 . S
H662 N659 0.984 . S
H663 N659 0.985 . S
H664 N658 0.984 . S
H665 N658 0.984 . S
H666 N654 0.984 . S
H667 N654 0.985 1_655 S
C668 C669 1.363 . S
C668 C674 1.379 . S
C668 N676 1.356 . S
C669 C668 1.363 . S
C669 C675 1.363 . S
C670 C671 1.363 1_455 S
C670 C675 1.379 . S
C670 N677 1.356 1_455 S
C671 C670 1.363 1_655 S
C671 C674 1.363 1_655 S
N672 C674 1.356 1_655 S
N672 H684 0.984 . S
N672 H685 0.985 . S
N673 C675 1.356 . S
N673 H678 0.984 . S
N673 H679 0.985 . S
C674 C668 1.379 . S
C674 C671 1.363 1_455 S
C674 N672 1.356 1_455 S
C675 C669 1.363 . S
C675 C670 1.379 . S
C675 N673 1.356 . S
N676 C668 1.356 . S
N676 H682 0.984 . S
N676 H683 0.984 . S
N677 C670 1.356 1_655 S
N677 H680 0.984 . S
N677 H681 0.985 . S
H678 N673 0.984 . S
H679 N673 0.985 . S
H680 N677 0.984 . S
H681 N677 0.985 . S
H682 N676 0.984 . S
H683 N676 0.984 . S
H684 N672 0.984 . S
H685 N672 0.985 . S
C686 C687 1.363 . S
C686 C692 1.379 . S
C686 N694 1.356 . S
C687 C686 1.363 . S
C687 C693 1.363 . S
C688 C689 1.366 . S
C688 C693 1.373 1_455 S
C688 N695 1.361 . S
C689 C688 1.366 . S
C689 C692 1.363 1_455 S
N690 C692 1.356 . S
N690 H702 0.984 . S
N690 H703 0.985 1_655 S
N691 C693 1.356 . S
N691 H696 0.984 . S
N691 H697 0.985 . S
C692 C686 1.379 . S
C692 C689 1.363 1_655 S
C692 N690 1.356 . S
C693 C687 1.363 . S
C693 C688 1.373 1_655 S
C693 N691 1.356 . S
N694 C686 1.356 . S
N694 H700 0.984 . S
N694 H701 0.984 . S
N695 C688 1.361 . S
N695 H698 0.984 . S
N695 H699 0.985 . S
H696 N691 0.984 . S
H697 N691 0.985 . S
H698 N695 0.984 . S
H699 N695 0.985 . S
H700 N694 0.984 . S
H701 N694 0.984 . S
H702 N690 0.984 . S
H703 N690 0.985 1_455 S
C704 C705 1.363 . S
C704 C710 1.379 . S
C704 N712 1.356 . S
C705 C704 1.363 . S
C705 C711 1.363 . S
C706 C707 1.363 . S
C706 C711 1.379 . S
C706 N713 1.356 . S
C707 C706 1.363 . S
C707 C710 1.363 . S
N708 C710 1.356 . S
N708 H720 0.984 . S
N708 H721 0.985 . S
N709 C711 1.356 . S
N709 H714 0.984 . S
N709 H715 0.985 . S
C710 C704 1.379 . S
C710 C707 1.363 . S
C710 N708 1.356 . S
C711 C705 1.363 . S
C711 C706 1.379 . S
C711 N709 1.356 . S
N712 C704 1.356 . S
N712 H718 0.984 . S
N712 H719 0.984 . S
N713 C706 1.356 . S
N713 H716 0.984 . S
N713 H717 0.985 . S
H714 N709 0.984 . S
H715 N709 0.985 . S
H716 N713 0.984 . S
H717 N713 0.985 . S
H718 N712 0.984 . S
H719 N712 0.984 . S
H720 N708 0.984 . S
H721 N708 0.985 . S
C722 C723 1.363 . S
C722 C728 1.379 . S
C722 N730 1.356 . S
C723 C722 1.363 . S
C723 C729 1.363 . S
C724 C725 1.363 . S
C724 C729 1.379 . S
C724 N731 1.356 . S
C725 C724 1.363 . S
C725 C728 1.363 . S
N726 C728 1.356 . S
N726 H738 0.984 . S
N726 H739 0.985 . S
N727 C729 1.356 . S
N727 H732 0.984 . S
N727 H733 0.985 . S
C728 C722 1.379 . S
C728 C725 1.363 . S
C728 N726 1.356 . S
C729 C723 1.363 . S
C729 C724 1.379 . S
C729 N727 1.356 . S
N730 C722 1.356 . S
N730 H736 0.984 . S
N730 H737 0.984 . S
N731 C724 1.356 . S
N731 H734 0.984 . S
N731 H735 0.985 . S
H732 N727 0.984 . S
H733 N727 0.985 . S
H734 N731 0.984 . S
H735 N731 0.985 . S
H736 N730 0.984 . S
H737 N730 0.984 . S
H738 N726 0.984 . S
H739 N726 0.985 . S
C740 C741 1.363 . S
C740 C746 1.379 . S
C740 N748 1.356 . S
C741 C740 1.363 . S
C741 C747 1.363 . S
C742 C743 1.363 . S
C742 C747 1.379 . S
C742 N749 1.356 . S
C743 C742 1.363 . S
C743 C746 1.363 . S
N744 C746 1.356 . S
N744 H756 0.984 . S
N744 H757 0.985 . S
N745 C747 1.356 . S
N745 H750 0.984 . S
N745 H751 0.985 . S
C746 C740 1.379 . S
C746 C743 1.363 . S
C746 N744 1.356 . S
C747 C741 1.363 . S
C747 C742 1.379 . S
C747 N745 1.356 . S
N748 C740 1.356 . S
N748 H754 0.984 . S
N748 H755 0.984 . S
N749 C742 1.356 . S
N749 H752 0.984 . S
N749 H753 0.985 . S
H750 N745 0.984 . S
H751 N745 0.985 . S
H752 N749 0.984 . S
H753 N749 0.985 . S
H754 N748 0.984 . S
H755 N748 0.984 . S
H756 N744 0.984 . S
H757 N744 0.985 . S
C758 C759 1.363 . S
C758 C764 1.379 . S
C758 N766 1.356 . S
C759 C758 1.363 . S
C759 C765 1.363 . S
C760 C761 1.363 . S
C760 C765 1.379 . S
C760 N767 1.356 . S
C761 C760 1.363 . S
C761 C764 1.363 . S
N762 C764 1.356 . S
N762 H774 0.984 . S
N762 H775 0.985 . S
N763 C765 1.356 . S
N763 H768 0.984 . S
N763 H769 0.985 . S
C764 C758 1.379 . S
C764 C761 1.363 . S
C764 N762 1.356 . S
C765 C759 1.363 . S
C765 C760 1.379 . S
C765 N763 1.356 . S
N766 C758 1.356 . S
N766 H772 0.984 . S
N766 H773 0.984 . S
N767 C760 1.356 . S
N767 H770 0.984 . S
N767 H771 0.985 . S
H768 N763 0.984 . S
H769 N763 0.985 . S
H770 N767 0.984 . S
H771 N767 0.985 . S
H772 N766 0.984 . S
H773 N766 0.984 . S
H774 N762 0.984 . S
H775 N762 0.985 . S
C273 C51 1.725 . S
C275 C17 1.725 . S
C291 C119 1.725 . S
C293 C85 1.725 . S
C309 C153 1.725 . S
C311 C187 1.725 . S
C327 C255 1.725 . S
C329 C221 1.725 . S
C345 C117 1.798 . S
C347 C22 1.798 . S
C363 C90 1.798 . S
C365 C56 1.798 . S
C381 C158 1.798 . S
C383 C260 1.798 . S
C399 C192 1.798 . S
C401 C219 1.798 . S
C417 C37 2.055 . S
C419 C3 2.055 . S
C435 C103 2.055 . S
C437 C71 2.055 . S
C453 C139 2.055 . S
C455 C173 2.055 . S
C471 C205 2.055 . S
C473 C241 2.055 . S
C489 C35 1.573 . S
C491 C1 1.573 . S
C507 C69 1.573 . S
C509 C105 1.573 . S
C525 C171 1.573 . S
C527 C137 1.573 . S
C543 C207 1.573 . S
C545 C239 1.573 . S
C561 C15 1.544 . S
C563 C226 1.544 . S
C579 C49 1.544 . S
C581 C253 1.544 . S
C597 C83 1.544 . S
C599 C151 1.544 . S
C615 C124 1.544 . S
C617 C185 1.544 . S
C633 C6 1.375 . S
C635 C28 1.381 . S
C651 C40 1.375 . S
C653 C62 1.381 . S
C669 C74 1.375 . S
C671 C96 1.381 . S
C687 C130 1.375 . S
C689 C108 1.381 . S
C705 C142 1.375 . S
C707 C164 1.381 . S
C723 C198 1.381 . S
C725 C176 1.375 . S
C741 C210 1.381 . S
C743 C232 1.375 . S
C759 C266 1.381 . S
C761 C244 1.375 . S
