# Generated by pormake.
# Topology wga, (5)-cn, num edge types: 1
# Building blocks:
#     Node 0, Type 0, BuildingBlock: XOMCOT_clean_sbu_0, # of connection points: 5
#     Node 1, Type 0, BuildingBlock: XOMCOT_clean_sbu_0, # of connection points: 5
#     Node 2, Type 0, BuildingBlock: XOMCOT_clean_sbu_0, # of connection points: 5
#     Node 3, Type 0, BuildingBlock: XOMCOT_clean_sbu_0, # of connection points: 5
#     Node 4, Type 0, BuildingBlock: XOMCOT_clean_sbu_0, # of connection points: 5
#     Node 5, Type 0, BuildingBlock: XOMCOT_clean_sbu_0, # of connection points: 5
#     Node 6, Type 0, BuildingBlock: XOMCOT_clean_sbu_0, # of connection points: 5
#     Node 7, Type 0, BuildingBlock: XOMCOT_clean_sbu_0, # of connection points: 5
#     Node 8, Type 0, BuildingBlock: XOMCOT_clean_sbu_0, # of connection points: 5
#     Node 9, Type 0, BuildingBlock: XOMCOT_clean_sbu_0, # of connection points: 5
#     Node 10, Type 0, BuildingBlock: XOMCOT_clean_sbu_0, # of connection points: 5
#     Node 11, Type 0, BuildingBlock: XOMCOT_clean_sbu_0, # of connection points: 5
#     Node 12, Type 0, BuildingBlock: XOMCOT_clean_sbu_0, # of connection points: 5
#     Node 13, Type 0, BuildingBlock: XOMCOT_clean_sbu_0, # of connection points: 5
#     Node 14, Type 0, BuildingBlock: XOMCOT_clean_sbu_0, # of connection points: 5
#     Node 15, Type 0, BuildingBlock: XOMCOT_clean_sbu_0, # of connection points: 5
#     Node 16, Type 0, BuildingBlock: XOMCOT_clean_sbu_0, # of connection points: 5
#     Node 17, Type 0, BuildingBlock: XOMCOT_clean_sbu_0, # of connection points: 5
#     Node 18, Type 0, BuildingBlock: XOMCOT_clean_sbu_0, # of connection points: 5
#     Node 19, Type 0, BuildingBlock: XOMCOT_clean_sbu_0, # of connection points: 5
#     Node 20, Type 0, BuildingBlock: XOMCOT_clean_sbu_0, # of connection points: 5
#     Node 21, Type 0, BuildingBlock: XOMCOT_clean_sbu_0, # of connection points: 5
#     Node 22, Type 0, BuildingBlock: XOMCOT_clean_sbu_0, # of connection points: 5
#     Node 23, Type 0, BuildingBlock: XOMCOT_clean_sbu_0, # of connection points: 5
#     Node 24, Type 0, BuildingBlock: XOMCOT_clean_sbu_0, # of connection points: 5
#     Node 25, Type 0, BuildingBlock: XOMCOT_clean_sbu_0, # of connection points: 5
#     Node 26, Type 0, BuildingBlock: XOMCOT_clean_sbu_0, # of connection points: 5
#     Node 27, Type 0, BuildingBlock: XOMCOT_clean_sbu_0, # of connection points: 5
#     Node 28, Type 0, BuildingBlock: XOMCOT_clean_sbu_0, # of connection points: 5
#     Node 29, Type 0, BuildingBlock: XOMCOT_clean_sbu_0, # of connection points: 5
#     Node 30, Type 0, BuildingBlock: XOMCOT_clean_sbu_0, # of connection points: 5
#     Node 31, Type 0, BuildingBlock: XOMCOT_clean_sbu_0, # of connection points: 5
#     Edge 32, Type (0, 0), None
#     Edge 33, Type (0, 0), None
#     Edge 34, Type (0, 0), None
#     Edge 35, Type (0, 0), None
#     Edge 36, Type (0, 0), None
#     Edge 37, Type (0, 0), None
#     Edge 38, Type (0, 0), None
#     Edge 39, Type (0, 0), None
#     Edge 40, Type (0, 0), None
#     Edge 41, Type (0, 0), None
#     Edge 42, Type (0, 0), None
#     Edge 43, Type (0, 0), None
#     Edge 44, Type (0, 0), None
#     Edge 45, Type (0, 0), None
#     Edge 46, Type (0, 0), None
#     Edge 47, Type (0, 0), None
#     Edge 48, Type (0, 0), None
#     Edge 49, Type (0, 0), None
#     Edge 50, Type (0, 0), None
#     Edge 51, Type (0, 0), None
#     Edge 52, Type (0, 0), None
#     Edge 53, Type (0, 0), None
#     Edge 54, Type (0, 0), None
#     Edge 55, Type (0, 0), None
#     Edge 56, Type (0, 0), None
#     Edge 57, Type (0, 0), None
#     Edge 58, Type (0, 0), None
#     Edge 59, Type (0, 0), None
#     Edge 60, Type (0, 0), None
#     Edge 61, Type (0, 0), None
#     Edge 62, Type (0, 0), None
#     Edge 63, Type (0, 0), None
#     Edge 64, Type (0, 0), None
#     Edge 65, Type (0, 0), None
#     Edge 66, Type (0, 0), None
#     Edge 67, Type (0, 0), None
#     Edge 68, Type (0, 0), None
#     Edge 69, Type (0, 0), None
#     Edge 70, Type (0, 0), None
#     Edge 71, Type (0, 0), None
#     Edge 72, Type (0, 0), None
#     Edge 73, Type (0, 0), None
#     Edge 74, Type (0, 0), None
#     Edge 75, Type (0, 0), None
#     Edge 76, Type (0, 0), None
#     Edge 77, Type (0, 0), None
#     Edge 78, Type (0, 0), None
#     Edge 79, Type (0, 0), None
#     Edge 80, Type (0, 0), None
#     Edge 81, Type (0, 0), None
#     Edge 82, Type (0, 0), None
#     Edge 83, Type (0, 0), None
#     Edge 84, Type (0, 0), None
#     Edge 85, Type (0, 0), None
#     Edge 86, Type (0, 0), None
#     Edge 87, Type (0, 0), None
#     Edge 88, Type (0, 0), None
#     Edge 89, Type (0, 0), None
#     Edge 90, Type (0, 0), None
#     Edge 91, Type (0, 0), None
#     Edge 92, Type (0, 0), None
#     Edge 93, Type (0, 0), None
#     Edge 94, Type (0, 0), None
#     Edge 95, Type (0, 0), None
#     Edge 96, Type (0, 0), None
#     Edge 97, Type (0, 0), None
#     Edge 98, Type (0, 0), None
#     Edge 99, Type (0, 0), None
#     Edge 100, Type (0, 0), None
#     Edge 101, Type (0, 0), None
#     Edge 102, Type (0, 0), None
#     Edge 103, Type (0, 0), None
#     Edge 104, Type (0, 0), None
#     Edge 105, Type (0, 0), None
#     Edge 106, Type (0, 0), None
#     Edge 107, Type (0, 0), None
#     Edge 108, Type (0, 0), None
#     Edge 109, Type (0, 0), None
#     Edge 110, Type (0, 0), None
#     Edge 111, Type (0, 0), None
# Relax obj value: 0.111
# Max RMSD: 0.118
# Mean RMSD: 0.118
data_MOF--net-wga--node1-XOMCOT_clean_sbu_0--edge1-none
_symmetry_space_group_name_H-M    P1
_symmetry_Int_Tables_number       1
_symmetry_cell_setting            triclinic
loop_
_symmetry_equiv_pos_as_xyz
'x, y, z'
_cell_length_a     52.306681
_cell_length_b     52.256103
_cell_length_c     9.4998168
_cell_angle_alpha  89.999484
_cell_angle_beta   90.000333
_cell_angle_gamma 90.27997
loop_
_atom_site_label
_atom_site_type_symbol
_atom_site_fract_x
_atom_site_fract_y
_atom_site_fract_z
_atom_type_partial_charge
Co0 Co 0.11526 0.57583 0.14203 0.0
C1 C 0.1123 0.58237 0.44908 0.0
C2 C 0.13452 0.54932 0.39443 0.0
C3 C 0.13407 0.55149 0.53936 0.0
N4 N 0.12079 0.56861 0.33874 0.0
N5 N 0.12016 0.57229 0.57239 0.0
H6 H 0.10065 0.5993 0.43877 0.0
H7 H 0.14426 0.53479 0.33399 0.0
C8 C 0.09945 0.52567 1.0174 0.0
O9 O 0.08122 0.5378 0.95015 0.0
N10 N 0.11036 0.58333 0.94281 0.0
C11 C 0.09784 0.60326 0.88427 0.0
C12 C 0.09992 0.60185 0.74005 0.0
C13 C 0.12083 0.57069 0.83281 0.0
N14 N 0.11421 0.58131 0.70857 0.0
C15 C 0.06601 0.59967 0.17578 0.0
C16 C 0.03846 0.55574 0.23275 0.0
C17 C 0.02492 0.57864 0.21153 0.0
C18 C 0.03948 0.60105 0.19104 0.0
C19 C 0.06515 0.55551 0.2223 0.0
N20 N 0.07836 0.57675 0.17918 0.0
H21 H 0.07659 0.61724 0.16198 0.0
H22 H 0.07502 0.53797 0.24627 0.0
H23 H 0.08842 0.61838 0.94055 0.0
H24 H 0.1329 0.55407 0.84372 0.0
O25 O 0.1233 0.61145 0.1744 0.0
O26 O 0.15175 0.58179 0.11886 0.0
O27 O 0.11446 0.53772 0.10086 0.0
C28 C 0.14694 0.60561 0.14843 0.0
H29 H 0.14321 0.53882 0.6138 0.0
H30 H 0.09175 0.61504 0.66491 0.0
H31 H 0.02878 0.53783 0.2541 0.0
H32 H 0.0307 0.61971 0.18616 0.0
Co33 Co 0.69854 0.8668 0.39591 0.0
C34 C 0.69184 0.86391 0.70302 0.0
C35 C 0.72485 0.88646 0.64846 0.0
C36 C 0.72269 0.88599 0.79336 0.0
N37 N 0.70558 0.87254 0.59271 0.0
N38 N 0.70191 0.87187 0.82634 0.0
H39 H 0.67494 0.85205 0.69271 0.0
H40 H 0.73943 0.89629 0.58813 0.0
C41 C 0.74884 0.85233 0.27033 0.0
O42 O 0.73701 0.83437 0.19849 0.0
N43 N 0.69119 0.86167 0.1967 0.0
C44 C 0.67185 0.8481 0.13818 0.0
C45 C 0.67315 0.85026 0.99399 0.0
C46 C 0.70336 0.8728 0.08676 0.0
N47 N 0.69304 0.86563 0.96252 0.0
C48 C 0.67458 0.81746 0.43315 0.0
C49 C 0.71856 0.78992 0.48196 0.0
C50 C 0.69547 0.77638 0.46395 0.0
C51 C 0.67308 0.79089 0.44753 0.0
C52 C 0.71894 0.81665 0.47225 0.0
N53 N 0.69759 0.82987 0.4334 0.0
H54 H 0.65705 0.828 0.42134 0.0
H55 H 0.73666 0.82649 0.49403 0.0
H56 H 0.65723 0.83777 0.19442 0.0
H57 H 0.7195 0.88566 0.09774 0.0
O58 O 0.66294 0.87455 0.42663 0.0
O59 O 0.69275 0.90321 0.37162 0.0
O60 O 0.7366 0.86644 0.35679 0.0
C61 C 0.6689 0.89822 0.39999 0.0
H62 H 0.73543 0.89515 0.86784 0.0
H63 H 0.6604 0.84132 0.91884 0.0
H64 H 0.73646 0.78022 0.50007 0.0
H65 H 0.65438 0.782 0.44471 0.0
Co66 Co 0.40815 0.4485 0.64203 0.0
C67 C 0.41111 0.44197 0.94909 0.0
C68 C 0.38889 0.47501 0.89443 0.0
C69 C 0.38934 0.47285 0.03936 0.0
N70 N 0.40262 0.45572 0.83875 0.0
N71 N 0.40325 0.45204 0.0724 0.0
H72 H 0.42276 0.42503 0.93878 0.0
H73 H 0.37916 0.48954 0.83399 0.0
C74 C 0.42396 0.49866 0.5174 0.0
O75 O 0.44219 0.48654 0.45016 0.0
N76 N 0.41305 0.441 0.44282 0.0
C77 C 0.42557 0.42108 0.38429 0.0
C78 C 0.42349 0.42248 0.24006 0.0
C79 C 0.40258 0.45364 0.33282 0.0
N80 N 0.4092 0.44302 0.20858 0.0
C81 C 0.4574 0.42466 0.67579 0.0
C82 C 0.48496 0.4686 0.73275 0.0
C83 C 0.49849 0.44569 0.71154 0.0
C84 C 0.48393 0.42328 0.69105 0.0
C85 C 0.45826 0.46882 0.72231 0.0
N86 N 0.44505 0.44758 0.67919 0.0
H87 H 0.44682 0.40709 0.66199 0.0
H88 H 0.44839 0.48637 0.74627 0.0
H89 H 0.43499 0.40595 0.44056 0.0
H90 H 0.39051 0.47026 0.34372 0.0
O91 O 0.40011 0.41288 0.67442 0.0
O92 O 0.37166 0.44255 0.61886 0.0
O93 O 0.40895 0.48662 0.60087 0.0
C94 C 0.37647 0.41873 0.64843 0.0
H95 H 0.3802 0.48551 0.1138 0.0
H96 H 0.43166 0.40929 0.16493 0.0
H97 H 0.49463 0.4865 0.75411 0.0
H98 H 0.49271 0.40462 0.68617 0.0
Co99 Co 0.82487 0.15753 0.89591 0.0
C100 C 0.83157 0.16042 0.20301 0.0
C101 C 0.79856 0.13787 0.14846 0.0
C102 C 0.80072 0.13834 0.29336 0.0
N103 N 0.81783 0.15179 0.09271 0.0
N104 N 0.82151 0.15246 0.32634 0.0
H105 H 0.84847 0.17228 0.19271 0.0
H106 H 0.78398 0.12804 0.08813 0.0
C107 C 0.77457 0.172 0.77032 0.0
O108 O 0.7864 0.18996 0.69848 0.0
N109 N 0.83222 0.16267 0.69669 0.0
C110 C 0.85156 0.17624 0.63818 0.0
C111 C 0.85026 0.17407 0.49399 0.0
C112 C 0.82005 0.15153 0.58675 0.0
N113 N 0.83037 0.1587 0.46252 0.0
C114 C 0.84883 0.20687 0.93315 0.0
C115 C 0.80485 0.23441 0.98196 0.0
C116 C 0.82794 0.24795 0.96396 0.0
C117 C 0.85033 0.23344 0.94753 0.0
C118 C 0.80447 0.20768 0.97225 0.0
N119 N 0.82583 0.19446 0.9334 0.0
H120 H 0.86636 0.19633 0.92135 0.0
H121 H 0.78675 0.19784 0.99403 0.0
H122 H 0.86618 0.18656 0.69442 0.0
H123 H 0.80391 0.13868 0.59774 0.0
O124 O 0.86047 0.14978 0.92663 0.0
O125 O 0.83066 0.12112 0.87162 0.0
O126 O 0.78681 0.15789 0.85679 0.0
C127 C 0.85451 0.12612 0.89999 0.0
H128 H 0.78798 0.12918 0.36784 0.0
H129 H 0.86301 0.18301 0.41884 0.0
H130 H 0.78695 0.24411 1.00007 0.0
H131 H 0.86903 0.24233 0.94471 0.0
Co132 Co 0.11784 0.44752 0.9083 0.0
C133 C 0.11563 0.44077 0.60111 0.0
C134 C 0.13433 0.47609 0.65651 0.0
C135 C 0.134 0.4741 0.51171 0.0
N136 N 0.12265 0.4553 0.71167 0.0
N137 N 0.12234 0.45187 0.47847 0.0
H138 H 0.10568 0.42265 0.61053 0.0
H139 H 0.14267 0.49153 0.71711 0.0
C140 C 0.09927 0.49773 1.01601 0.0
O141 O 0.07991 0.48556 0.07365 0.0
N142 N 0.11424 0.43946 0.10848 0.0
C143 C 0.11027 0.41605 0.16619 0.0
C144 C 0.11198 0.41772 0.31021 0.0
C145 C 0.11997 0.4547 0.2194 0.0
N146 N 0.11799 0.44202 0.3425 0.0
C147 C 0.06673 0.42612 0.92626 0.0
C148 C 0.04232 0.46459 0.78052 0.0
C149 C 0.02723 0.44521 0.84219 0.0
C150 C 0.04014 0.42561 0.91422 0.0
C151 C 0.06889 0.46477 0.79938 0.0
N152 N 0.08075 0.44627 0.87726 0.0
H153 H 0.07583 0.41009 0.97502 0.0
H154 H 0.0799 0.48021 0.7534 0.0
H155 H 0.10774 0.39841 0.10846 0.0
H156 H 0.12643 0.47429 0.21088 0.0
O157 O 0.12561 0.41215 0.87117 0.0
O158 O 0.1544 0.44197 0.92541 0.0
O159 O 0.11662 0.48554 0.94961 0.0
C160 C 0.14937 0.41818 0.89436 0.0
H161 H 0.14197 0.48765 0.43748 0.0
H162 H 0.11018 0.4021 0.38444 0.0
H163 H 0.03393 0.47969 0.7183 0.0
H164 H 0.03002 0.40998 0.96412 0.0
Co165 Co 0.82707 0.86712 0.14699 0.0
C166 C 0.83369 0.8642 0.83993 0.0
C167 C 0.80086 0.8867 0.8945 0.0
C168 C 0.803 0.88622 0.74959 0.0
N169 N 0.82003 0.87282 0.95024 0.0
N170 N 0.82368 0.87214 0.71661 0.0
H171 H 0.85049 0.85237 0.85026 0.0
H172 H 0.78637 0.89652 0.95485 0.0
C173 C 0.77671 0.85243 0.27254 0.0
O174 O 0.78847 0.83447 0.3438 0.0
N175 N 0.83441 0.86205 0.34623 0.0
C176 C 0.85379 0.84871 0.40478 0.0
C177 C 0.85246 0.85084 0.54898 0.0
C178 C 0.82222 0.87304 0.45619 0.0
N179 N 0.83254 0.86597 0.58043 0.0
C180 C 0.85021 0.81748 0.11241 0.0
C181 C 0.80569 0.79044 0.06247 0.0
C182 C 0.82836 0.77661 0.08402 0.0
C183 C 0.85108 0.79085 0.10051 0.0
C184 C 0.80595 0.81719 0.06969 0.0
N185 N 0.8275 0.83019 0.10982 0.0
H186 H 0.86795 0.82785 0.12426 0.0
H187 H 0.78854 0.82725 0.04579 0.0
H188 H 0.86847 0.83862 0.34859 0.0
H189 H 0.80607 0.88573 0.44521 0.0
O190 O 0.86279 0.87485 0.11587 0.0
O191 O 0.83328 0.90352 0.17095 0.0
O192 O 0.789 0.86674 0.18667 0.0
C193 C 0.85708 0.89853 0.14247 0.0
H194 H 0.79035 0.89537 0.67511 0.0
H195 H 0.86524 0.84206 0.62413 0.0
H196 H 0.78758 0.78098 0.04379 0.0
H197 H 0.86955 0.7817 0.10545 0.0
Co198 Co 0.40557 0.57682 0.4083 0.0
C199 C 0.40778 0.58357 0.10111 0.0
C200 C 0.38908 0.54824 0.15651 0.0
C201 C 0.38941 0.55023 1.01171 0.0
N202 N 0.40076 0.56903 0.21167 0.0
N203 N 0.40107 0.57247 0.97846 0.0
H204 H 0.41773 0.60168 0.11052 0.0
H205 H 0.38074 0.5328 0.21711 0.0
C206 C 0.42414 0.5266 0.51601 0.0
O207 O 0.4435 0.53878 0.57365 0.0
N208 N 0.40917 0.58487 0.60847 0.0
C209 C 0.41314 0.60828 0.66618 0.0
C210 C 0.41143 0.60662 0.81021 0.0
C211 C 0.40344 0.56964 0.7194 0.0
N212 N 0.40542 0.58232 0.8425 0.0
C213 C 0.45669 0.59822 0.42626 0.0
C214 C 0.48109 0.55974 0.28052 0.0
C215 C 0.49618 0.57912 0.34218 0.0
C216 C 0.48327 0.59872 0.41421 0.0
C217 C 0.45452 0.55956 0.29938 0.0
N218 N 0.44266 0.57806 0.37726 0.0
H219 H 0.44758 0.61425 0.47502 0.0
H220 H 0.44351 0.54412 0.2534 0.0
H221 H 0.41567 0.62592 0.60846 0.0
H222 H 0.39698 0.55005 0.71088 0.0
O223 O 0.39781 0.61218 0.37116 0.0
O224 O 0.36901 0.58237 0.42541 0.0
O225 O 0.40679 0.53879 0.44961 0.0
C226 C 0.37404 0.60616 0.39436 0.0
H227 H 0.38144 0.53668 0.93748 0.0
H228 H 0.41323 0.62223 0.88444 0.0
H229 H 0.48948 0.54464 0.2183 0.0
H230 H 0.49339 0.61435 0.46411 0.0
Co231 Co 0.69634 0.15721 0.64698 0.0
C232 C 0.68972 0.16013 0.33992 0.0
C233 C 0.72256 0.13763 0.39449 0.0
C234 C 0.72041 0.13811 0.24959 0.0
N235 N 0.70338 0.15151 0.45023 0.0
N236 N 0.69973 0.1522 0.2166 0.0
H237 H 0.67293 0.17197 0.35025 0.0
H238 H 0.73704 0.12782 0.45484 0.0
C239 C 0.74671 0.1719 0.77254 0.0
O240 O 0.73494 0.18987 0.84379 0.0
N241 N 0.689 0.16229 0.84623 0.0
C242 C 0.66963 0.17562 0.90477 0.0
C243 C 0.67095 0.17349 0.04897 0.0
C244 C 0.70119 0.15129 0.95618 0.0
N245 N 0.69087 0.15836 0.08043 0.0
C246 C 0.6732 0.20685 0.6124 0.0
C247 C 0.71772 0.23389 0.56247 0.0
C248 C 0.69505 0.24773 0.58401 0.0
C249 C 0.67233 0.23349 0.6005 0.0
C250 C 0.71746 0.20715 0.56969 0.0
N251 N 0.69591 0.19415 0.60981 0.0
H252 H 0.65546 0.19648 0.62424 0.0
H253 H 0.73487 0.19709 0.54578 0.0
H254 H 0.65494 0.18571 0.84857 0.0
H255 H 0.71734 0.1386 0.94521 0.0
O256 O 0.66062 0.14948 0.61585 0.0
O257 O 0.69013 0.12081 0.67095 0.0
O258 O 0.73441 0.15759 0.68666 0.0
C259 C 0.66634 0.1258 0.64246 0.0
H260 H 0.73306 0.12896 0.17511 0.0
H261 H 0.65817 0.18227 0.12412 0.0
H262 H 0.73583 0.24335 0.54378 0.0
H263 H 0.65386 0.24264 0.60544 0.0
Co264 Co 0.90813 0.4485 0.9064 0.0
C265 C 0.91109 0.44197 0.59934 0.0
C266 C 0.88887 0.47501 0.65399 0.0
C267 C 0.88931 0.47284 0.50907 0.0
N268 N 0.9026 0.45572 0.70968 0.0
N269 N 0.90323 0.45204 0.47603 0.0
H270 H 0.92275 0.42504 0.60965 0.0
H271 H 0.87912 0.48953 0.71443 0.0
C272 C 0.92394 0.49867 0.03101 0.0
O273 O 0.94216 0.48655 0.09827 0.0
N274 N 0.91304 0.441 0.10562 0.0
C275 C 0.92557 0.42109 0.16415 0.0
C276 C 0.92349 0.42249 0.30837 0.0
C277 C 0.90256 0.45364 0.21561 0.0
N278 N 0.90919 0.44303 0.33985 0.0
C279 C 0.95738 0.42467 0.87258 0.0
C280 C 0.98494 0.46861 0.81566 0.0
C281 C 0.99847 0.4457 0.83684 0.0
C282 C 0.98391 0.42329 0.8573 0.0
C283 C 0.95824 0.46883 0.82612 0.0
N284 N 0.94504 0.44759 0.86922 0.0
H285 H 0.9468 0.4071 0.88637 0.0
H286 H 0.94837 0.48638 0.80219 0.0
H287 H 0.93501 0.40597 0.10788 0.0
H288 H 0.89048 0.47026 0.2047 0.0
O289 O 0.9001 0.41288 0.87404 0.0
O290 O 0.87164 0.44254 0.92959 0.0
O291 O 0.90892 0.48662 0.94754 0.0
C292 C 0.87646 0.41872 0.90003 0.0
H293 H 0.88017 0.48551 0.43462 0.0
H294 H 0.93167 0.40931 0.38351 0.0
H295 H 0.99461 0.48651 0.79432 0.0
H296 H 0.99269 0.40463 0.86215 0.0
Co297 Co 0.32486 0.15755 0.65256 0.0
C298 C 0.33156 0.16044 0.34545 0.0
C299 C 0.29854 0.1379 0.40001 0.0
C300 C 0.3007 0.13837 0.25511 0.0
N301 N 0.31782 0.15181 0.45576 0.0
N302 N 0.32149 0.15248 0.22213 0.0
H303 H 0.34847 0.17229 0.35577 0.0
H304 H 0.28396 0.12808 0.46034 0.0
C305 C 0.27457 0.17204 0.77815 0.0
O306 O 0.28641 0.19 0.84996 0.0
N307 N 0.33221 0.16268 0.85177 0.0
C308 C 0.35156 0.17624 0.91029 0.0
C309 C 0.35026 0.17408 0.05448 0.0
C310 C 0.32004 0.15155 0.96171 0.0
N311 N 0.33036 0.15872 0.08595 0.0
C312 C 0.34883 0.20689 0.61536 0.0
C313 C 0.30485 0.23443 0.56649 0.0
C314 C 0.32794 0.24797 0.58454 0.0
C315 C 0.35032 0.23346 0.60099 0.0
C316 C 0.30446 0.2077 0.57619 0.0
N317 N 0.32582 0.19448 0.61507 0.0
H318 H 0.36636 0.19635 0.62718 0.0
H319 H 0.28675 0.19786 0.55438 0.0
H320 H 0.36619 0.18656 0.85405 0.0
H321 H 0.30389 0.13871 0.95073 0.0
O322 O 0.36046 0.14979 0.62182 0.0
O323 O 0.33065 0.12114 0.67683 0.0
O324 O 0.2868 0.15792 0.6917 0.0
C325 C 0.35449 0.12613 0.64845 0.0
H326 H 0.28796 0.12921 0.18063 0.0
H327 H 0.36302 0.18301 0.12963 0.0
H328 H 0.28695 0.24413 0.54836 0.0
H329 H 0.36902 0.24235 0.60384 0.0
Co330 Co 0.61528 0.57583 0.40639 0.0
C331 C 0.61232 0.58237 0.09933 0.0
C332 C 0.63454 0.54933 0.15399 0.0
C333 C 0.6341 0.55149 1.00906 0.0
N334 N 0.62081 0.56861 0.20967 0.0
N335 N 0.62018 0.57229 0.97602 0.0
H336 H 0.60066 0.59929 0.10964 0.0
H337 H 0.64429 0.5348 0.21443 0.0
C338 C 0.59948 0.52567 0.53101 0.0
O339 O 0.58125 0.53779 0.59827 0.0
N340 N 0.61037 0.58333 0.60561 0.0
C341 C 0.59784 0.60324 0.66414 0.0
C342 C 0.59992 0.60184 0.80836 0.0
C343 C 0.62085 0.57069 0.7156 0.0
N344 N 0.61422 0.5813 0.83984 0.0
C345 C 0.56603 0.59967 0.37257 0.0
C346 C 0.53847 0.55573 0.31565 0.0
C347 C 0.52494 0.57863 0.33683 0.0
C348 C 0.5395 0.60105 0.35728 0.0
C349 C 0.56517 0.5555 0.32612 0.0
N350 N 0.57838 0.57674 0.36921 0.0
H351 H 0.57661 0.61723 0.38636 0.0
H352 H 0.57504 0.53796 0.30218 0.0
H353 H 0.5884 0.61836 0.60786 0.0
H354 H 0.63293 0.55408 0.7047 0.0
O355 O 0.62332 0.61145 0.37403 0.0
O356 O 0.65177 0.58179 0.42958 0.0
O357 O 0.61449 0.53771 0.44754 0.0
C358 C 0.64695 0.60561 0.40003 0.0
H359 H 0.64324 0.53883 0.93462 0.0
H360 H 0.59174 0.61502 0.8835 0.0
H361 H 0.5288 0.53782 0.29432 0.0
H362 H 0.53072 0.61971 0.36213 0.0
Co363 Co 0.19855 0.86678 0.15256 0.0
C364 C 0.19185 0.86389 0.84546 0.0
C365 C 0.22487 0.88644 0.90001 0.0
C366 C 0.22271 0.88597 0.75511 0.0
N367 N 0.20559 0.87252 0.95576 0.0
N368 N 0.20192 0.87185 0.72213 0.0
H369 H 0.17495 0.85204 0.85577 0.0
H370 H 0.23945 0.89626 0.96034 0.0
C371 C 0.24884 0.8523 0.27816 0.0
O372 O 0.237 0.83434 0.34996 0.0
N373 N 0.1912 0.86165 0.35178 0.0
C374 C 0.17185 0.84809 0.41029 0.0
C375 C 0.17315 0.85026 0.55448 0.0
C376 C 0.20337 0.87278 0.46172 0.0
N377 N 0.19305 0.86562 0.58595 0.0
C378 C 0.17459 0.81744 0.11536 0.0
C379 C 0.21856 0.78991 0.06649 0.0
C380 C 0.19547 0.77636 0.08454 0.0
C381 C 0.17309 0.79087 0.10099 0.0
C382 C 0.21895 0.81663 0.07619 0.0
N383 N 0.19759 0.82985 0.11508 0.0
H384 H 0.15705 0.82798 0.12718 0.0
H385 H 0.23666 0.82648 0.05439 0.0
H386 H 0.15723 0.83777 0.35405 0.0
H387 H 0.21952 0.88563 0.45073 0.0
O388 O 0.16295 0.87454 0.12182 0.0
O389 O 0.19277 0.9032 0.17683 0.0
O390 O 0.23661 0.86641 0.1917 0.0
C391 C 0.16892 0.8982 0.14845 0.0
H392 H 0.23545 0.89512 0.68063 0.0
H393 H 0.1604 0.84132 0.62963 0.0
H394 H 0.23646 0.7802 0.04836 0.0
H395 H 0.15439 0.78198 0.10384 0.0
Co396 Co 0.90555 0.57683 0.14007 0.0
C397 C 0.90776 0.58358 0.44726 0.0
C398 C 0.88906 0.54825 0.39187 0.0
C399 C 0.8894 0.55024 0.53667 0.0
N400 N 0.90074 0.56904 0.3367 0.0
N401 N 0.90105 0.57248 0.56991 0.0
H402 H 0.91771 0.60169 0.43785 0.0
H403 H 0.88073 0.53281 0.33127 0.0
C404 C 0.92411 0.52661 0.03237 0.0
O405 O 0.94347 0.53878 0.97472 0.0
N406 N 0.90915 0.58488 0.9399 0.0
C407 C 0.91311 0.6083 0.88219 0.0
C408 C 0.9114 0.60663 0.73816 0.0
C409 C 0.90342 0.56965 0.82898 0.0
N410 N 0.9054 0.58233 0.70587 0.0
C411 C 0.95667 0.59822 0.12207 0.0
C412 C 0.98107 0.55975 0.26784 0.0
C413 C 0.99616 0.57913 0.20616 0.0
C414 C 0.98325 0.59873 0.13412 0.0
C415 C 0.9545 0.55957 0.24898 0.0
N416 N 0.94264 0.57807 0.17109 0.0
H417 H 0.94756 0.61425 0.0733 0.0
H418 H 0.94349 0.54413 0.29497 0.0
H419 H 0.91564 0.62593 0.93992 0.0
H420 H 0.89696 0.55006 0.83749 0.0
O421 O 0.89779 0.61219 0.17722 0.0
O422 O 0.86899 0.58238 0.123 0.0
O423 O 0.90676 0.5388 0.09877 0.0
C424 C 0.87402 0.60617 0.15405 0.0
H425 H 0.88142 0.53669 0.6109 0.0
H426 H 0.91321 0.62224 0.66393 0.0
H427 H 0.98946 0.54465 0.33007 0.0
H428 H 0.99337 0.61436 0.0842 0.0
Co429 Co 0.19634 0.15724 0.90154 0.0
C430 C 0.18973 0.16016 0.2086 0.0
C431 C 0.22256 0.13766 0.15403 0.0
C432 C 0.22042 0.13814 0.29894 0.0
N433 N 0.20339 0.15153 0.09829 0.0
N434 N 0.19974 0.15222 0.33192 0.0
H435 H 0.17293 0.17198 0.19827 0.0
H436 H 0.23705 0.12785 0.09368 0.0
C437 C 0.2467 0.17194 0.77599 0.0
O438 O 0.23493 0.1899 0.70475 0.0
N439 N 0.189 0.16231 0.70229 0.0
C440 C 0.16962 0.17563 0.64374 0.0
C441 C 0.17095 0.17351 0.49955 0.0
C442 C 0.20119 0.15132 0.59234 0.0
N443 N 0.19088 0.15839 0.46809 0.0
C444 C 0.1732 0.20687 0.9361 0.0
C445 C 0.21772 0.23391 0.98608 0.0
C446 C 0.19504 0.24775 0.9645 0.0
C447 C 0.17232 0.23351 0.94799 0.0
C448 C 0.21745 0.20717 0.97886 0.0
N449 N 0.19591 0.19417 0.93871 0.0
H450 H 0.15546 0.1965 0.92425 0.0
H451 H 0.23487 0.19711 1.00278 0.0
H452 H 0.15493 0.18572 0.69994 0.0
H453 H 0.21734 0.13863 0.60332 0.0
O454 O 0.16063 0.14949 0.93266 0.0
O455 O 0.19014 0.12083 0.87757 0.0
O456 O 0.23441 0.15762 0.86185 0.0
C457 C 0.16635 0.12581 0.90606 0.0
H458 H 0.23307 0.12899 0.37342 0.0
H459 H 0.15817 0.18228 0.4244 0.0
H460 H 0.23582 0.24337 1.00478 0.0
H461 H 0.15385 0.24266 0.94304 0.0
Co462 Co 0.61786 0.4475 0.64007 0.0
C463 C 0.61565 0.44076 0.94727 0.0
C464 C 0.63435 0.47608 0.89187 0.0
C465 C 0.63402 0.47409 0.03667 0.0
N466 N 0.62267 0.45529 0.8367 0.0
N467 N 0.62236 0.45185 0.06991 0.0
H468 H 0.6057 0.42264 0.93786 0.0
H469 H 0.64268 0.49152 0.83127 0.0
C470 C 0.5993 0.49772 0.53236 0.0
O471 O 0.57994 0.48555 0.47472 0.0
N472 N 0.61426 0.43945 0.4399 0.0
C473 C 0.6103 0.41604 0.3822 0.0
C474 C 0.61201 0.4177 0.23817 0.0
C475 C 0.61999 0.45469 0.32898 0.0
N476 N 0.61801 0.442 0.20587 0.0
C477 C 0.56675 0.42611 0.62208 0.0
C478 C 0.54234 0.46458 0.76784 0.0
C479 C 0.52725 0.4452 0.70616 0.0
C480 C 0.54016 0.4256 0.63412 0.0
C481 C 0.56891 0.46477 0.74898 0.0
N482 N 0.58077 0.44626 0.6711 0.0
H483 H 0.57585 0.41008 0.57331 0.0
H484 H 0.57992 0.4802 0.79496 0.0
H485 H 0.60777 0.3984 0.43992 0.0
H486 H 0.62645 0.47427 0.33749 0.0
O487 O 0.62562 0.41214 0.67723 0.0
O488 O 0.65442 0.44195 0.623 0.0
O489 O 0.61665 0.48553 0.59876 0.0
C490 C 0.64939 0.41816 0.65405 0.0
H491 H 0.64199 0.48764 0.1109 0.0
H492 H 0.6102 0.40209 0.16394 0.0
H493 H 0.53395 0.47968 0.83007 0.0
H494 H 0.53004 0.40998 0.58421 0.0
Co495 Co 0.32707 0.8671 0.40155 0.0
C496 C 0.33369 0.86418 0.70861 0.0
C497 C 0.30085 0.88667 0.65404 0.0
C498 C 0.30299 0.88619 0.79894 0.0
N499 N 0.32002 0.8728 0.5983 0.0
N500 N 0.32367 0.87211 0.83193 0.0
H501 H 0.35049 0.85235 0.69828 0.0
H502 H 0.28636 0.89648 0.59369 0.0
C503 C 0.27671 0.8524 0.27599 0.0
O504 O 0.28848 0.83443 0.20476 0.0
N505 N 0.33441 0.86202 0.2023 0.0
C506 C 0.35379 0.8487 0.14376 0.0
C507 C 0.35246 0.85082 0.99956 0.0
C508 C 0.32222 0.87301 0.09235 0.0
N509 N 0.33253 0.86595 0.9681 0.0
C510 C 0.35021 0.81746 0.43611 0.0
C511 C 0.30569 0.79042 0.48608 0.0
C512 C 0.32837 0.77658 0.46451 0.0
C513 C 0.35109 0.79082 0.448 0.0
C514 C 0.30596 0.81716 0.47887 0.0
N515 N 0.3275 0.83016 0.43872 0.0
H516 H 0.36795 0.82783 0.42426 0.0
H517 H 0.28854 0.82722 0.50279 0.0
H518 H 0.36848 0.83861 0.19996 0.0
H519 H 0.30607 0.8857 0.10332 0.0
O520 O 0.36278 0.87484 0.43267 0.0
O521 O 0.33327 0.9035 0.37758 0.0
O522 O 0.289 0.86671 0.36186 0.0
C523 C 0.35706 0.89852 0.40607 0.0
H524 H 0.29034 0.89534 0.87342 0.0
H525 H 0.36525 0.84205 0.92441 0.0
H526 H 0.28759 0.78096 0.50478 0.0
H527 H 0.36956 0.78168 0.44305 0.0
Co528 Co 0.61492 0.07603 0.64059 0.0
C529 C 0.61205 0.08262 0.94767 0.0
C530 C 0.63465 0.04985 0.89301 0.0
C531 C 0.63404 0.0519 0.03798 0.0
N532 N 0.62079 0.06904 0.8373 0.0
N533 N 0.61987 0.07253 0.07102 0.0
H534 H 0.60016 0.09939 0.93739 0.0
H535 H 0.64449 0.03538 0.8326 0.0
C536 C 0.59933 0.02569 0.51761 0.0
O537 O 0.58105 0.03765 0.44999 0.0
N538 N 0.60964 0.08327 0.44141 0.0
C539 C 0.59653 0.10278 0.38278 0.0
C540 C 0.59865 0.10142 0.23857 0.0
C541 C 0.62044 0.07088 0.3315 0.0
N542 N 0.61354 0.0813 0.20719 0.0
C543 C 0.56578 0.09977 0.67774 0.0
C544 C 0.53828 0.05575 0.73356 0.0
C545 C 0.52476 0.07869 0.71354 0.0
C546 C 0.53929 0.10114 0.69402 0.0
C547 C 0.56496 0.05554 0.72239 0.0
N548 N 0.57811 0.07684 0.67957 0.0
H549 H 0.57634 0.11735 0.66385 0.0
H550 H 0.57485 0.03798 0.74557 0.0
H551 H 0.58664 0.11763 0.43893 0.0
H552 H 0.63297 0.0546 0.34258 0.0
O553 O 0.62286 0.11175 0.67108 0.0
O554 O 0.6513 0.08209 0.61515 0.0
O555 O 0.61426 0.03788 0.60082 0.0
C556 C 0.64644 0.10594 0.64361 0.0
H557 H 0.64314 0.03922 0.11246 0.0
H558 H 0.59011 0.11435 0.16338 0.0
H559 H 0.52862 0.03782 0.75434 0.0
H560 H 0.53051 0.11981 0.69025 0.0
Co561 Co 0.19848 0.36687 0.87783 0.0
C562 C 0.19174 0.36472 0.185 0.0
C563 C 0.2269 0.3837 0.12965 0.0
C564 C 0.22495 0.38324 0.27451 0.0
N565 N 0.20619 0.37191 0.07443 0.0
N566 N 0.20283 0.37139 0.30771 0.0
H567 H 0.17373 0.3546 0.17553 0.0
H568 H 0.24228 0.39212 0.06904 0.0
C569 C 0.24869 0.34795 0.77204 0.0
O570 O 0.23647 0.32835 0.71717 0.0
N571 N 0.1905 0.36301 0.67771 0.0
C572 C 0.16711 0.35909 0.61994 0.0
C573 C 0.16878 0.36084 0.47593 0.0
C574 C 0.20575 0.3687 0.56678 0.0
N575 N 0.19306 0.36682 0.44365 0.0
C576 C 0.17679 0.31585 0.86329 0.0
C577 C 0.21477 0.29154 1.01322 0.0
C578 C 0.19512 0.27648 0.95413 0.0
C579 C 0.17581 0.28932 0.87961 0.0
C580 C 0.21542 0.31802 0.99021 0.0
N581 N 0.19711 0.32981 0.9107 0.0
H582 H 0.16093 0.32497 0.81306 0.0
H583 H 0.23098 0.32902 0.03487 0.0
H584 H 0.14947 0.35665 0.67759 0.0
H585 H 0.22534 0.37512 0.57536 0.0
O586 O 0.16315 0.37466 0.91452 0.0
O587 O 0.19291 0.40344 0.8593 0.0
O588 O 0.23653 0.3656 0.83644 0.0
C589 C 0.16914 0.39842 0.89048 0.0
H590 H 0.23845 0.39125 0.34883 0.0
H591 H 0.15316 0.35916 0.40174 0.0
H592 H 0.22969 0.28319 0.07687 0.0
H593 H 0.16004 0.27918 0.83131 0.0
Co594 Co 0.90849 0.9483 0.1406 0.0
C595 C 0.91136 0.94171 0.44768 0.0
C596 C 0.88876 0.97448 0.39302 0.0
C597 C 0.88937 0.97243 0.53799 0.0
N598 N 0.90262 0.95529 0.3373 0.0
N599 N 0.90354 0.9518 0.57103 0.0
H600 H 0.92325 0.92494 0.4374 0.0
H601 H 0.87892 0.98895 0.3326 0.0
C602 C 0.92409 0.99865 1.01762 0.0
O603 O 0.94236 0.98668 0.95 0.0
N604 N 0.91377 0.94107 0.94142 0.0
C605 C 0.92688 0.92155 0.88279 0.0
C606 C 0.92476 0.92291 0.73859 0.0
C607 C 0.90297 0.95345 0.83151 0.0
N608 N 0.90987 0.94303 0.7072 0.0
C609 C 0.95763 0.92456 0.17775 0.0
C610 C 0.98513 0.96858 0.23357 0.0
C611 C 0.99865 0.94564 0.21355 0.0
C612 C 0.98412 0.92319 0.19404 0.0
C613 C 0.95845 0.96879 0.2224 0.0
N614 N 0.9453 0.94749 0.17958 0.0
H615 H 0.94707 0.90698 0.16387 0.0
H616 H 0.94856 0.98635 0.24558 0.0
H617 H 0.93677 0.90671 0.93895 0.0
H618 H 0.89044 0.96973 0.84258 0.0
O619 O 0.90055 0.91259 0.17109 0.0
O620 O 0.87211 0.94224 0.11516 0.0
O621 O 0.90915 0.98646 0.10083 0.0
C622 C 0.87697 0.91839 0.14362 0.0
H623 H 0.88027 0.98512 0.61247 0.0
H624 H 0.9333 0.90998 0.6634 0.0
H625 H 0.99479 0.98651 0.25434 0.0
H626 H 0.9929 0.90452 0.19027 0.0
Co627 Co 0.32493 0.65746 0.37783 0.0
C628 C 0.33167 0.65961 0.68499 0.0
C629 C 0.29651 0.64064 0.62965 0.0
C630 C 0.29846 0.64109 0.77451 0.0
N631 N 0.31722 0.65242 0.57443 0.0
N632 N 0.32058 0.65294 0.80771 0.0
H633 H 0.34968 0.66973 0.67553 0.0
H634 H 0.28113 0.63221 0.56904 0.0
C635 C 0.27472 0.67638 0.27204 0.0
O636 O 0.28694 0.69599 0.21716 0.0
N637 N 0.33291 0.66132 0.1777 0.0
C638 C 0.3563 0.66524 0.11994 0.0
C639 C 0.35463 0.66349 0.97593 0.0
C640 C 0.31766 0.65563 0.06678 0.0
N641 N 0.33035 0.65752 0.94365 0.0
C642 C 0.34662 0.70849 0.36329 0.0
C643 C 0.30864 0.73279 0.51322 0.0
C644 C 0.32829 0.74785 0.45414 0.0
C645 C 0.3476 0.73501 0.37961 0.0
C646 C 0.308 0.70631 0.4902 0.0
N647 N 0.32631 0.69452 0.4107 0.0
H648 H 0.36248 0.69937 0.31306 0.0
H649 H 0.29243 0.69532 0.53486 0.0
H650 H 0.37394 0.66768 0.17759 0.0
H651 H 0.29807 0.64921 0.07536 0.0
O652 O 0.36026 0.64967 0.41452 0.0
O653 O 0.3305 0.62089 0.3593 0.0
O654 O 0.28688 0.65874 0.33644 0.0
C655 C 0.35427 0.62591 0.39048 0.0
H656 H 0.28496 0.63309 0.84883 0.0
H657 H 0.37025 0.66517 0.90174 0.0
H658 H 0.29372 0.74114 0.57687 0.0
H659 H 0.36337 0.74515 0.33132 0.0
Co660 Co 0.61777 0.94747 0.41117 0.0
C661 C 0.61564 0.94071 0.10403 0.0
C662 C 0.63465 0.97586 0.15938 0.0
C663 C 0.63413 0.97396 1.01453 0.0
N664 N 0.6229 0.95512 0.2146 0.0
N665 N 0.62227 0.95183 0.98132 0.0
H666 H 0.60548 0.92271 0.11352 0.0
H667 H 0.64306 0.99127 0.21994 0.0
C668 C 0.59922 0.99775 0.51756 0.0
O669 O 0.57983 0.98561 0.57512 0.0
N670 N 0.61382 0.93957 0.61133 0.0
C671 C 0.60954 0.91622 0.66919 0.0
C672 C 0.61126 0.91789 0.81316 0.0
C673 C 0.61974 0.95475 0.72219 0.0
N674 N 0.6176 0.94211 0.84538 0.0
C675 C 0.56674 0.92601 0.42555 0.0
C676 C 0.54248 0.96465 0.28043 0.0
C677 C 0.52737 0.94516 0.34077 0.0
C678 C 0.54019 0.92547 0.41241 0.0
C679 C 0.56902 0.96486 0.30046 0.0
N680 N 0.58078 0.94628 0.37827 0.0
H681 H 0.57582 0.9099 0.47367 0.0
H682 H 0.58008 0.98034 0.25538 0.0
H683 H 0.60691 0.89858 0.6117 0.0
H684 H 0.62647 0.97425 0.71347 0.0
O685 O 0.62548 0.91204 0.37533 0.0
O686 O 0.65424 0.94184 0.43045 0.0
O687 O 0.61659 0.98551 0.45158 0.0
C688 C 0.6492 0.91802 0.40019 0.0
H689 H 0.64205 0.98754 0.94023 0.0
H690 H 0.60931 0.9023 0.88739 0.0
H691 H 0.53414 0.97981 0.21847 0.0
H692 H 0.53005 0.90975 0.46127 0.0
Co693 Co 0.32691 0.36723 0.66275 0.0
C694 C 0.3336 0.36504 0.35561 0.0
C695 C 0.29869 0.38412 0.41098 0.0
C696 C 0.30062 0.38365 0.2661 0.0
N697 N 0.31925 0.37229 0.46618 0.0
N698 N 0.32259 0.37174 0.23288 0.0
H699 H 0.35148 0.35487 0.36509 0.0
H700 H 0.28342 0.39259 0.47163 0.0
C701 C 0.27665 0.34809 0.76924 0.0
O702 O 0.28886 0.32866 0.8248 0.0
N703 N 0.33483 0.36335 0.86286 0.0
C704 C 0.35815 0.35927 0.92067 0.0
C705 C 0.35649 0.36099 0.06469 0.0
C706 C 0.31967 0.36914 0.97375 0.0
N707 N 0.3323 0.36713 0.09693 0.0
C708 C 0.34798 0.31612 0.67776 0.0
C709 C 0.30936 0.29184 0.53069 0.0
C710 C 0.32864 0.27672 0.59135 0.0
C711 C 0.34834 0.28954 0.66393 0.0
C712 C 0.30936 0.31839 0.55107 0.0
N713 N 0.32791 0.33017 0.62978 0.0
H714 H 0.36406 0.3252 0.72698 0.0
H715 H 0.294 0.32945 0.50577 0.0
H716 H 0.37576 0.35674 0.86307 0.0
H717 H 0.30019 0.37568 0.96507 0.0
O718 O 0.36235 0.37514 0.62625 0.0
O719 O 0.33279 0.40382 0.68152 0.0
O720 O 0.28883 0.36579 0.70424 0.0
C721 C 0.35654 0.39889 0.65051 0.0
H722 H 0.28721 0.39169 0.19179 0.0
H723 H 0.37206 0.35917 0.13893 0.0
H724 H 0.29421 0.28347 0.46819 0.0
H725 H 0.3639 0.27932 0.71291 0.0
Co726 Co 0.90564 0.07687 0.91117 0.0
C727 C 0.90777 0.08363 0.60403 0.0
C728 C 0.88876 0.04847 0.65938 0.0
C729 C 0.88928 0.05037 0.51453 0.0
N730 N 0.90051 0.06921 0.7146 0.0
N731 N 0.90114 0.0725 0.48132 0.0
H732 H 0.91793 0.10163 0.61351 0.0
H733 H 0.88035 0.03306 0.71994 0.0
C734 C 0.92419 0.02659 1.01756 0.0
O735 O 0.94358 0.03872 0.07512 0.0
N736 N 0.90959 0.08477 0.11133 0.0
C737 C 0.91387 0.10811 0.16919 0.0
C738 C 0.91215 0.10644 0.31316 0.0
C739 C 0.90367 0.06958 0.22219 0.0
N740 N 0.90581 0.08223 0.34538 0.0
C741 C 0.95667 0.09833 0.92554 0.0
C742 C 0.98093 0.05968 0.78042 0.0
C743 C 0.99605 0.07917 0.84076 0.0
C744 C 0.98322 0.09886 0.9124 0.0
C745 C 0.95439 0.05948 0.80046 0.0
N746 N 0.94263 0.07805 0.87827 0.0
H747 H 0.9476 0.11443 0.97367 0.0
H748 H 0.94333 0.04399 0.75539 0.0
H749 H 0.9165 0.12576 0.1117 0.0
H750 H 0.89694 0.05009 0.21347 0.0
O751 O 0.89793 0.1123 0.87533 0.0
O752 O 0.86917 0.08249 0.93045 0.0
O753 O 0.90682 0.03882 0.95158 0.0
C754 C 0.87421 0.10631 0.90019 0.0
H755 H 0.88136 0.03679 0.44024 0.0
H756 H 0.9141 0.12204 0.38739 0.0
H757 H 0.98927 0.04452 0.71847 0.0
H758 H 0.99336 0.11458 0.96126 0.0
Co759 Co 0.1965 0.6571 0.16274 0.0
C760 C 0.18981 0.6593 0.8556 0.0
C761 C 0.22472 0.64021 0.91097 0.0
C762 C 0.22279 0.64068 0.7661 0.0
N763 N 0.20416 0.65205 0.96617 0.0
N764 N 0.20082 0.6526 0.73287 0.0
H765 H 0.17193 0.66947 0.86508 0.0
H766 H 0.23999 0.63174 0.97163 0.0
C767 C 0.24676 0.67624 0.26923 0.0
O768 O 0.23455 0.69567 0.32479 0.0
N769 N 0.18858 0.66098 0.36285 0.0
C770 C 0.16526 0.66506 0.42066 0.0
C771 C 0.16692 0.66334 0.56468 0.0
C772 C 0.20374 0.65519 0.47374 0.0
N773 N 0.19111 0.6572 0.59693 0.0
C774 C 0.17543 0.70822 0.17775 0.0
C775 C 0.21405 0.73249 0.03068 0.0
C776 C 0.19477 0.74761 0.09135 0.0
C777 C 0.17507 0.7348 0.16393 0.0
C778 C 0.21405 0.70594 0.05106 0.0
N779 N 0.1955 0.69416 0.12977 0.0
H780 H 0.15935 0.69914 0.22697 0.0
H781 H 0.22941 0.69489 1.00576 0.0
H782 H 0.14765 0.66759 0.36306 0.0
H783 H 0.22322 0.64865 0.46506 0.0
O784 O 0.16107 0.64919 0.12624 0.0
O785 O 0.19062 0.62052 0.18151 0.0
O786 O 0.23458 0.65854 0.20424 0.0
C787 C 0.16687 0.62545 0.1505 0.0
H788 H 0.2362 0.63264 0.69179 0.0
H789 H 0.15135 0.66516 0.63892 0.0
H790 H 0.2292 0.74087 0.96818 0.0
H791 H 0.15951 0.74501 0.2129 0.0
Co792 Co 0.40847 0.9483 0.40788 0.0
C793 C 0.41134 0.9417 0.1008 0.0
C794 C 0.38873 0.97447 0.15546 0.0
C795 C 0.38934 0.97242 1.01049 0.0
N796 N 0.40259 0.95528 0.21117 0.0
N797 N 0.40351 0.95179 0.97745 0.0
H798 H 0.42323 0.92494 0.11108 0.0
H799 H 0.37888 0.98894 0.21587 0.0
C800 C 0.42405 0.99865 0.53084 0.0
O801 O 0.44233 0.98668 0.59848 0.0
N802 N 0.41375 0.94107 0.60706 0.0
C803 C 0.42687 0.92156 0.66569 0.0
C804 C 0.42475 0.92292 0.8099 0.0
C805 C 0.40295 0.95345 0.71697 0.0
N806 N 0.40985 0.94303 0.84128 0.0
C807 C 0.45761 0.92456 0.37069 0.0
C808 C 0.4851 0.96858 0.31489 0.0
C809 C 0.49863 0.94565 0.33488 0.0
C810 C 0.4841 0.92319 0.35438 0.0
C811 C 0.45842 0.96879 0.32608 0.0
N812 N 0.44528 0.94749 0.36888 0.0
H813 H 0.44705 0.90698 0.38457 0.0
H814 H 0.44854 0.98636 0.30291 0.0
H815 H 0.43677 0.90672 0.60954 0.0
H816 H 0.39041 0.96972 0.70589 0.0
O817 O 0.40054 0.91258 0.37741 0.0
O818 O 0.37209 0.94223 0.43334 0.0
O819 O 0.40912 0.98645 0.44763 0.0
C820 C 0.37695 0.91838 0.4049 0.0
H821 H 0.38024 0.98511 0.93601 0.0
H822 H 0.4333 0.90999 0.88509 0.0
H823 H 0.49476 0.98651 0.29412 0.0
H824 H 0.49288 0.90452 0.35813 0.0
Co825 Co 0.82492 0.65749 0.17063 0.0
C826 C 0.83166 0.65964 0.86346 0.0
C827 C 0.7965 0.64066 0.91881 0.0
C828 C 0.79845 0.64112 0.77395 0.0
N829 N 0.81721 0.65244 0.97403 0.0
N830 N 0.82057 0.65296 0.74075 0.0
H831 H 0.84967 0.66975 0.87293 0.0
H832 H 0.78112 0.63224 0.97942 0.0
C833 C 0.77471 0.67641 0.27643 0.0
O834 O 0.78693 0.69601 0.33131 0.0
N835 N 0.8329 0.66134 0.37075 0.0
C836 C 0.85629 0.66526 0.42852 0.0
C837 C 0.85463 0.66351 0.57253 0.0
C838 C 0.81765 0.65565 0.48168 0.0
N839 N 0.83034 0.65754 0.60481 0.0
C840 C 0.84662 0.70851 0.1852 0.0
C841 C 0.80864 0.73282 0.03527 0.0
C842 C 0.82829 0.74787 0.09437 0.0
C843 C 0.84759 0.73503 0.16889 0.0
C844 C 0.80799 0.70634 0.05827 0.0
N845 N 0.8263 0.69454 0.13777 0.0
H846 H 0.86247 0.69939 0.23542 0.0
H847 H 0.79243 0.69534 1.0136 0.0
H848 H 0.87393 0.66769 0.37087 0.0
H849 H 0.79806 0.64923 0.4731 0.0
O850 O 0.86025 0.64969 0.13393 0.0
O851 O 0.83049 0.62091 0.18914 0.0
O852 O 0.78687 0.65876 0.21203 0.0
C853 C 0.85426 0.62593 0.15795 0.0
H854 H 0.78494 0.63311 0.69963 0.0
H855 H 0.87024 0.66519 0.64672 0.0
H856 H 0.79372 0.74117 0.97163 0.0
H857 H 0.86337 0.74517 0.21719 0.0
Co858 Co 0.11494 0.07603 0.90788 0.0
C859 C 0.11207 0.08263 0.60079 0.0
C860 C 0.13468 0.04986 0.65545 0.0
C861 C 0.13407 0.05191 0.51048 0.0
N862 N 0.12082 0.06905 0.71117 0.0
N863 N 0.1199 0.07254 0.47744 0.0
H864 H 0.10018 0.09939 0.61107 0.0
H865 H 0.14453 0.0354 0.71587 0.0
C866 C 0.09936 0.02568 0.03084 0.0
O867 O 0.08108 0.03765 0.09847 0.0
N868 N 0.10966 0.08327 0.10705 0.0
C869 C 0.09654 0.10278 0.16568 0.0
C870 C 0.09866 0.10141 0.30988 0.0
C871 C 0.12046 0.07089 0.21696 0.0
N872 N 0.11356 0.0813 0.34127 0.0
C873 C 0.0658 0.09977 0.87067 0.0
C874 C 0.03831 0.05575 0.81489 0.0
C875 C 0.02478 0.07869 0.83487 0.0
C876 C 0.03931 0.10114 0.85437 0.0
C877 C 0.06499 0.05554 0.82607 0.0
N878 N 0.07813 0.07684 0.86887 0.0
H879 H 0.07636 0.11735 0.88455 0.0
H880 H 0.07487 0.03798 0.8029 0.0
H881 H 0.08664 0.11761 0.10953 0.0
H882 H 0.133 0.05462 0.20588 0.0
O883 O 0.12287 0.11175 0.8774 0.0
O884 O 0.15132 0.0821 0.93333 0.0
O885 O 0.11429 0.03788 0.94762 0.0
C886 C 0.14646 0.10595 0.90489 0.0
H887 H 0.14317 0.03923 0.436 0.0
H888 H 0.09011 0.11434 0.38507 0.0
H889 H 0.02865 0.03782 0.79412 0.0
H890 H 0.03053 0.11981 0.85811 0.0
Co891 Co 0.69849 0.36685 0.67063 0.0
C892 C 0.69175 0.3647 0.36346 0.0
C893 C 0.72691 0.38367 0.41881 0.0
C894 C 0.72496 0.38321 0.27395 0.0
N895 N 0.7062 0.37189 0.47403 0.0
N896 N 0.70284 0.37137 0.24075 0.0
H897 H 0.67374 0.35458 0.37293 0.0
H898 H 0.74229 0.3921 0.47942 0.0
C899 C 0.7487 0.34792 0.77644 0.0
O900 O 0.73648 0.32832 0.83131 0.0
N901 N 0.69051 0.36299 0.87075 0.0
C902 C 0.66712 0.35908 0.92852 0.0
C903 C 0.66878 0.36083 0.07253 0.0
C904 C 0.70576 0.36868 0.98168 0.0
N905 N 0.69307 0.3668 0.10481 0.0
C906 C 0.67679 0.31582 0.68519 0.0
C907 C 0.71478 0.29151 0.53527 0.0
C908 C 0.69512 0.27646 0.59437 0.0
C909 C 0.67582 0.2893 0.66889 0.0
C910 C 0.71542 0.31799 0.55827 0.0
N911 N 0.69711 0.32979 0.63777 0.0
H912 H 0.66094 0.32494 0.73542 0.0
H913 H 0.73098 0.32899 0.51361 0.0
H914 H 0.64948 0.35664 0.87087 0.0
H915 H 0.72535 0.3751 0.9731 0.0
O916 O 0.66316 0.37464 0.63393 0.0
O917 O 0.69292 0.40342 0.68914 0.0
O918 O 0.73654 0.36557 0.71203 0.0
C919 C 0.66915 0.3984 0.65795 0.0
H920 H 0.73847 0.39122 0.19963 0.0
H921 H 0.65317 0.35915 0.14672 0.0
H922 H 0.72969 0.28316 0.47163 0.0
H923 H 0.66004 0.27916 0.71719 0.0
Co924 Co 0.40561 0.07687 0.63724 0.0
C925 C 0.40775 0.08363 0.94437 0.0
C926 C 0.38873 0.04848 0.88903 0.0
C927 C 0.38926 0.05038 0.03388 0.0
N928 N 0.40049 0.06922 0.83381 0.0
N929 N 0.40111 0.07251 0.06709 0.0
H930 H 0.41791 0.10163 0.93489 0.0
H931 H 0.38032 0.03307 0.82847 0.0
C932 C 0.42416 0.02659 0.53086 0.0
O933 O 0.44355 0.03872 0.47329 0.0
N934 N 0.40957 0.08477 0.43707 0.0
C935 C 0.41384 0.10812 0.37921 0.0
C936 C 0.41212 0.10645 0.23524 0.0
C937 C 0.40365 0.06959 0.32621 0.0
N938 N 0.40578 0.08223 0.20302 0.0
C939 C 0.45665 0.09833 0.62283 0.0
C940 C 0.4809 0.05969 0.76798 0.0
C941 C 0.49602 0.07917 0.70763 0.0
C942 C 0.4832 0.09886 0.63598 0.0
C943 C 0.45437 0.05948 0.74794 0.0
N944 N 0.44261 0.07805 0.67012 0.0
H945 H 0.44757 0.11443 0.5747 0.0
H946 H 0.4433 0.044 0.79302 0.0
H947 H 0.41647 0.12576 0.4367 0.0
H948 H 0.39691 0.05009 0.33494 0.0
O949 O 0.39791 0.1123 0.67308 0.0
O950 O 0.36915 0.0825 0.61797 0.0
O951 O 0.40679 0.03882 0.59682 0.0
C952 C 0.37419 0.10632 0.64823 0.0
H953 H 0.38134 0.0368 0.10817 0.0
H954 H 0.41407 0.12204 0.16102 0.0
H955 H 0.48924 0.04452 0.82994 0.0
H956 H 0.49334 0.11458 0.58711 0.0
Co957 Co 0.6965 0.65712 0.38576 0.0
C958 C 0.68981 0.65931 0.69291 0.0
C959 C 0.72472 0.64023 0.63754 0.0
C960 C 0.72279 0.6407 0.78241 0.0
N961 N 0.70416 0.65206 0.58234 0.0
N962 N 0.70082 0.65261 0.81564 0.0
H963 H 0.67193 0.66948 0.68342 0.0
H964 H 0.73999 0.63176 0.57689 0.0
C965 C 0.74675 0.67627 0.27927 0.0
O966 O 0.73455 0.69569 0.22371 0.0
N967 N 0.68857 0.661 0.18566 0.0
C968 C 0.66526 0.66508 0.12784 0.0
C969 C 0.66692 0.66336 0.98383 0.0
C970 C 0.70374 0.65521 0.07477 0.0
N971 N 0.69111 0.65722 0.95158 0.0
C972 C 0.67542 0.70823 0.37078 0.0
C973 C 0.71404 0.73251 0.51782 0.0
C974 C 0.69476 0.74763 0.45716 0.0
C975 C 0.67506 0.73481 0.38461 0.0
C976 C 0.71405 0.70596 0.49745 0.0
N977 N 0.69549 0.69418 0.41875 0.0
H978 H 0.65934 0.69915 0.32158 0.0
H979 H 0.7294 0.69491 0.54274 0.0
H980 H 0.64765 0.66761 0.18545 0.0
H981 H 0.72322 0.64867 0.08345 0.0
O982 O 0.66107 0.6492 0.42225 0.0
O983 O 0.69063 0.62053 0.36697 0.0
O984 O 0.73458 0.65857 0.34427 0.0
C985 C 0.66688 0.62546 0.39798 0.0
H986 H 0.73619 0.63266 0.85672 0.0
H987 H 0.65135 0.66519 0.90959 0.0
H988 H 0.72919 0.74089 0.58031 0.0
H989 H 0.6595 0.74503 0.33564 0.0
Co990 Co 0.1178 0.94746 0.13724 0.0
C991 C 0.11566 0.9407 0.44437 0.0
C992 C 0.13468 0.97586 0.38903 0.0
C993 C 0.13416 0.97396 0.53388 0.0
N994 N 0.12292 0.95511 0.33381 0.0
N995 N 0.1223 0.95183 0.56709 0.0
H996 H 0.1055 0.9227 0.43489 0.0
H997 H 0.14309 0.99126 0.32847 0.0
C998 C 0.09925 0.99774 0.03085 0.0
O999 O 0.07986 0.98561 0.97328 0.0
N1000 N 0.11384 0.93956 0.93708 0.0
C1001 C 0.10956 0.91621 0.87922 0.0
C1002 C 0.11129 0.91788 0.73524 0.0
C1003 C 0.11976 0.95475 0.82621 0.0
N1004 N 0.11763 0.9421 0.70303 0.0
C1005 C 0.06676 0.92601 0.12284 0.0
C1006 C 0.04251 0.96465 0.26798 0.0
C1007 C 0.02739 0.94516 0.20763 0.0
C1008 C 0.04021 0.92547 0.13598 0.0
C1009 C 0.06904 0.96485 0.24794 0.0
N1010 N 0.0808 0.94628 0.17012 0.0
H1011 H 0.07584 0.9099 0.07471 0.0
H1012 H 0.08011 0.98034 0.29302 0.0
H1013 H 0.10694 0.89857 0.93671 0.0
H1014 H 0.1265 0.97424 0.83494 0.0
O1015 O 0.1255 0.91203 0.17309 0.0
O1016 O 0.15427 0.94183 0.11797 0.0
O1017 O 0.11662 0.98551 0.09682 0.0
C1018 C 0.14922 0.91801 0.14824 0.0
H1019 H 0.14207 0.98753 0.60817 0.0
H1020 H 0.10934 0.90229 0.66102 0.0
H1021 H 0.03417 0.97981 0.32995 0.0
H1022 H 0.03007 0.90975 0.08712 0.0
Co1023 Co 0.82691 0.36721 0.88577 0.0
C1024 C 0.8336 0.36502 0.19291 0.0
C1025 C 0.79869 0.3841 0.13754 0.0
C1026 C 0.80062 0.38363 0.28242 0.0
N1027 N 0.81925 0.37227 0.08234 0.0
N1028 N 0.82259 0.37172 0.31564 0.0
H1029 H 0.85148 0.35485 0.18343 0.0
H1030 H 0.78342 0.39257 0.07689 0.0
C1031 C 0.77666 0.34807 0.77927 0.0
O1032 O 0.78887 0.32864 0.72372 0.0
N1033 N 0.83484 0.36333 0.68566 0.0
C1034 C 0.85816 0.35925 0.62785 0.0
C1035 C 0.85649 0.36097 0.48384 0.0
C1036 C 0.81967 0.36912 0.57477 0.0
N1037 N 0.8323 0.36711 0.45159 0.0
C1038 C 0.84799 0.3161 0.87079 0.0
C1039 C 0.80937 0.29182 1.01783 0.0
C1040 C 0.82865 0.2767 0.95717 0.0
C1041 C 0.84835 0.28952 0.88461 0.0
C1042 C 0.80936 0.31837 0.99746 0.0
N1043 N 0.82792 0.33015 0.91876 0.0
H1044 H 0.86407 0.32518 0.8216 0.0
H1045 H 0.79401 0.32943 0.04275 0.0
H1046 H 0.87576 0.35672 0.68546 0.0
H1047 H 0.80019 0.37566 0.58345 0.0
O1048 O 0.86235 0.37513 0.92226 0.0
O1049 O 0.83279 0.4038 0.86698 0.0
O1050 O 0.78884 0.36577 0.84428 0.0
C1051 C 0.85653 0.39887 0.89799 0.0
H1052 H 0.78722 0.39167 0.35672 0.0
H1053 H 0.87206 0.35915 0.4096 0.0
H1054 H 0.79422 0.28345 0.08031 0.0
H1055 H 0.86391 0.27931 0.83565 0.0
loop_
_geom_bond_atom_site_label_1
_geom_bond_atom_site_label_2
_geom_bond_distance
_geom_bond_site_symmetry_2
_ccdc_geom_bond_type
Co0 N4 2.148 . S
Co0 N10 2.128 1_554 S
Co0 N20 2.194 . S
Co0 O25 2.351 . S
Co0 O26 2.155 . S
Co0 O27 2.096 . S
C1 N4 1.301 . S
C1 N5 1.328 . S
C1 H6 0.930 . S
C2 C3 1.333 . S
C2 N4 1.317 . S
C2 H7 0.930 . S
C3 C2 1.333 . S
C3 N5 1.350 . S
C3 H29 0.931 . S
N4 Co0 2.148 . S
N4 C1 1.301 . S
N4 C2 1.317 . S
N5 C1 1.328 . S
N5 C3 1.350 . S
H6 C1 0.930 . S
H7 C2 0.930 . S
C8 O9 1.224 . S
C8 O27 1.247 . S
O9 C8 1.224 . S
N10 Co0 2.128 1_556 S
N10 C11 1.355 . S
N10 C13 1.311 . S
C11 N10 1.355 . S
C11 C12 1.363 . S
C11 H23 0.929 . S
C12 C11 1.363 . S
C12 N14 1.375 . S
C12 H30 0.931 . S
C13 N10 1.311 . S
C13 N14 1.347 . S
C13 H24 0.929 . S
N14 C12 1.375 . S
N14 C13 1.347 . S
C15 C18 1.365 . S
C15 N20 1.328 . S
C15 H21 0.929 . S
C16 C17 1.362 . S
C16 C19 1.378 . S
C16 H31 0.929 . S
C17 C16 1.362 . S
C17 C18 1.366 . S
C18 C15 1.365 . S
C18 C17 1.366 . S
C18 H32 0.930 . S
C19 C16 1.378 . S
C19 N20 1.315 . S
C19 H22 0.930 . S
N20 Co0 2.194 . S
N20 C15 1.328 . S
N20 C19 1.315 . S
H21 C15 0.929 . S
H22 C19 0.930 . S
H23 C11 0.929 . S
H24 C13 0.929 . S
O25 Co0 2.351 . S
O25 C28 1.244 . S
O26 Co0 2.155 . S
O26 C28 1.240 . S
O27 Co0 2.096 . S
O27 C8 1.247 . S
C28 O25 1.244 . S
C28 O26 1.240 . S
H29 C3 0.931 . S
H30 C12 0.931 . S
H31 C16 0.929 . S
H32 C18 0.930 . S
Co33 N37 2.148 . S
Co33 N43 2.128 . S
Co33 N53 2.194 . S
Co33 O58 2.351 . S
Co33 O59 2.155 . S
Co33 O60 2.096 . S
C34 N37 1.301 . S
C34 N38 1.328 . S
C34 H39 0.930 . S
C35 C36 1.333 . S
C35 N37 1.317 . S
C35 H40 0.930 . S
C36 C35 1.333 . S
C36 N38 1.350 . S
C36 H62 0.931 . S
N37 Co33 2.148 . S
N37 C34 1.301 . S
N37 C35 1.317 . S
N38 C34 1.328 . S
N38 C36 1.350 . S
H39 C34 0.930 . S
H40 C35 0.930 . S
C41 O42 1.224 . S
C41 O60 1.247 . S
O42 C41 1.224 . S
N43 Co33 2.128 . S
N43 C44 1.355 . S
N43 C46 1.311 . S
C44 N43 1.355 . S
C44 C45 1.363 1_554 S
C44 H56 0.929 . S
C45 C44 1.363 1_556 S
C45 N47 1.375 . S
C45 H63 0.931 . S
C46 N43 1.311 . S
C46 N47 1.347 1_554 S
C46 H57 0.929 . S
N47 C45 1.375 . S
N47 C46 1.347 1_556 S
C48 C51 1.365 . S
C48 N53 1.328 . S
C48 H54 0.929 . S
C49 C50 1.362 . S
C49 C52 1.378 . S
C49 H64 0.929 . S
C50 C49 1.362 . S
C50 C51 1.366 . S
C51 C48 1.365 . S
C51 C50 1.366 . S
C51 H65 0.930 . S
C52 C49 1.378 . S
C52 N53 1.315 . S
C52 H55 0.930 . S
N53 Co33 2.194 . S
N53 C48 1.328 . S
N53 C52 1.315 . S
H54 C48 0.929 . S
H55 C52 0.930 . S
H56 C44 0.929 . S
H57 C46 0.929 . S
O58 Co33 2.351 . S
O58 C61 1.244 . S
O59 Co33 2.155 . S
O59 C61 1.240 . S
O60 Co33 2.096 . S
O60 C41 1.247 . S
C61 O58 1.244 . S
C61 O59 1.240 . S
H62 C36 0.931 . S
H63 C45 0.931 . S
H64 C49 0.929 . S
H65 C51 0.930 . S
Co66 N70 2.148 . S
Co66 N76 2.128 . S
Co66 N86 2.194 . S
Co66 O91 2.351 . S
Co66 O92 2.155 . S
Co66 O93 2.096 . S
C67 N70 1.301 . S
C67 N71 1.328 1_556 S
C67 H72 0.930 . S
C68 C69 1.333 . S
C68 N70 1.317 . S
C68 H73 0.930 . S
C69 C68 1.333 . S
C69 N71 1.350 1_556 S
C69 H95 0.931 1_556 S
N70 Co66 2.148 . S
N70 C67 1.301 . S
N70 C68 1.317 . S
N71 C67 1.328 1_554 S
N71 C69 1.350 1_554 S
H72 C67 0.930 . S
H73 C68 0.930 . S
C74 O75 1.224 . S
C74 O93 1.247 . S
O75 C74 1.224 . S
N76 Co66 2.128 . S
N76 C77 1.355 . S
N76 C79 1.311 . S
C77 N76 1.355 . S
C77 C78 1.363 . S
C77 H89 0.929 . S
C78 C77 1.363 . S
C78 N80 1.375 . S
C78 H96 0.931 . S
C79 N76 1.311 . S
C79 N80 1.347 . S
C79 H90 0.929 . S
N80 C78 1.375 . S
N80 C79 1.347 . S
C81 C84 1.365 . S
C81 N86 1.328 . S
C81 H87 0.929 . S
C82 C83 1.362 . S
C82 C85 1.378 . S
C82 H97 0.929 . S
C83 C82 1.362 . S
C83 C84 1.366 . S
C84 C81 1.365 . S
C84 C83 1.366 . S
C84 H98 0.930 . S
C85 C82 1.378 . S
C85 N86 1.315 . S
C85 H88 0.930 . S
N86 Co66 2.194 . S
N86 C81 1.328 . S
N86 C85 1.315 . S
H87 C81 0.929 . S
H88 C85 0.930 . S
H89 C77 0.929 . S
H90 C79 0.929 . S
O91 Co66 2.351 . S
O91 C94 1.244 . S
O92 Co66 2.155 . S
O92 C94 1.240 . S
O93 Co66 2.096 . S
O93 C74 1.247 . S
C94 O91 1.244 . S
C94 O92 1.240 . S
H95 C69 0.931 1_554 S
H96 C78 0.931 . S
H97 C82 0.929 . S
H98 C84 0.930 . S
Co99 N103 2.148 1_556 S
Co99 N109 2.128 . S
Co99 N119 2.194 . S
Co99 O124 2.351 . S
Co99 O125 2.155 . S
Co99 O126 2.096 . S
C100 N103 1.301 . S
C100 N104 1.328 . S
C100 H105 0.930 . S
C101 C102 1.333 . S
C101 N103 1.317 . S
C101 H106 0.930 . S
C102 C101 1.333 . S
C102 N104 1.350 . S
C102 H128 0.931 . S
N103 Co99 2.148 1_554 S
N103 C100 1.301 . S
N103 C101 1.317 . S
N104 C100 1.328 . S
N104 C102 1.350 . S
H105 C100 0.930 . S
H106 C101 0.930 . S
C107 O108 1.224 . S
C107 O126 1.247 . S
O108 C107 1.224 . S
N109 Co99 2.128 . S
N109 C110 1.355 . S
N109 C112 1.311 . S
C110 N109 1.355 . S
C110 C111 1.363 . S
C110 H122 0.929 . S
C111 C110 1.363 . S
C111 N113 1.375 . S
C111 H129 0.931 . S
C112 N109 1.311 . S
C112 N113 1.347 . S
C112 H123 0.929 . S
N113 C111 1.375 . S
N113 C112 1.347 . S
C114 C117 1.365 . S
C114 N119 1.328 . S
C114 H120 0.929 . S
C115 C116 1.362 . S
C115 C118 1.378 . S
C115 H130 0.929 . S
C116 C115 1.362 . S
C116 C117 1.366 . S
C117 C114 1.365 . S
C117 C116 1.366 . S
C117 H131 0.930 . S
C118 C115 1.378 . S
C118 N119 1.315 . S
C118 H121 0.930 . S
N119 Co99 2.194 . S
N119 C114 1.328 . S
N119 C118 1.315 . S
H120 C114 0.929 . S
H121 C118 0.930 . S
H122 C110 0.929 . S
H123 C112 0.929 . S
O124 Co99 2.351 . S
O124 C127 1.244 . S
O125 Co99 2.155 . S
O125 C127 1.240 . S
O126 Co99 2.096 . S
O126 C107 1.247 . S
C127 O124 1.244 . S
C127 O125 1.240 . S
H128 C102 0.931 . S
H129 C111 0.931 . S
H130 C115 0.929 . S
H131 C117 0.930 . S
Co132 N136 2.148 . S
Co132 N142 2.128 1_556 S
Co132 N152 2.194 . S
Co132 O157 2.351 . S
Co132 O158 2.155 . S
Co132 O159 2.096 . S
C133 N136 1.301 . S
C133 N137 1.328 . S
C133 H138 0.930 . S
C134 C135 1.333 . S
C134 N136 1.317 . S
C134 H139 0.930 . S
C135 C134 1.333 . S
C135 N137 1.350 . S
C135 H161 0.931 . S
N136 Co132 2.148 . S
N136 C133 1.301 . S
N136 C134 1.317 . S
N137 C133 1.328 . S
N137 C135 1.350 . S
H138 C133 0.930 . S
H139 C134 0.930 . S
C140 O141 1.224 . S
C140 O159 1.247 . S
O141 C140 1.224 . S
N142 Co132 2.128 1_554 S
N142 C143 1.355 . S
N142 C145 1.311 . S
C143 N142 1.355 . S
C143 C144 1.363 . S
C143 H155 0.929 . S
C144 C143 1.363 . S
C144 N146 1.375 . S
C144 H162 0.931 . S
C145 N142 1.311 . S
C145 N146 1.347 . S
C145 H156 0.929 . S
N146 C144 1.375 . S
N146 C145 1.347 . S
C147 C150 1.365 . S
C147 N152 1.328 . S
C147 H153 0.929 . S
C148 C149 1.362 . S
C148 C151 1.378 . S
C148 H163 0.929 . S
C149 C148 1.362 . S
C149 C150 1.366 . S
C150 C147 1.365 . S
C150 C149 1.366 . S
C150 H164 0.930 . S
C151 C148 1.378 . S
C151 N152 1.315 . S
C151 H154 0.930 . S
N152 Co132 2.194 . S
N152 C147 1.328 . S
N152 C151 1.315 . S
H153 C147 0.929 . S
H154 C151 0.930 . S
H155 C143 0.929 . S
H156 C145 0.929 . S
O157 Co132 2.351 . S
O157 C160 1.244 . S
O158 Co132 2.155 . S
O158 C160 1.240 . S
O159 Co132 2.096 . S
O159 C140 1.247 . S
C160 O157 1.244 . S
C160 O158 1.240 . S
H161 C135 0.931 . S
H162 C144 0.931 . S
H163 C148 0.929 . S
H164 C150 0.930 . S
Co165 N169 2.148 1_554 S
Co165 N175 2.128 . S
Co165 N185 2.194 . S
Co165 O190 2.351 . S
Co165 O191 2.155 . S
Co165 O192 2.096 . S
C166 N169 1.301 . S
C166 N170 1.328 . S
C166 H171 0.930 . S
C167 C168 1.333 . S
C167 N169 1.317 . S
C167 H172 0.930 . S
C168 C167 1.333 . S
C168 N170 1.350 . S
C168 H194 0.931 . S
N169 Co165 2.148 1_556 S
N169 C166 1.301 . S
N169 C167 1.317 . S
N170 C166 1.328 . S
N170 C168 1.350 . S
H171 C166 0.930 . S
H172 C167 0.930 . S
C173 O174 1.224 . S
C173 O192 1.247 . S
O174 C173 1.224 . S
N175 Co165 2.128 . S
N175 C176 1.355 . S
N175 C178 1.311 . S
C176 N175 1.355 . S
C176 C177 1.363 . S
C176 H188 0.929 . S
C177 C176 1.363 . S
C177 N179 1.375 . S
C177 H195 0.931 . S
C178 N175 1.311 . S
C178 N179 1.347 . S
C178 H189 0.929 . S
N179 C177 1.375 . S
N179 C178 1.347 . S
C180 C183 1.365 . S
C180 N185 1.328 . S
C180 H186 0.929 . S
C181 C182 1.362 . S
C181 C184 1.378 . S
C181 H196 0.929 . S
C182 C181 1.362 . S
C182 C183 1.366 . S
C183 C180 1.365 . S
C183 C182 1.366 . S
C183 H197 0.930 . S
C184 C181 1.378 . S
C184 N185 1.315 . S
C184 H187 0.930 . S
N185 Co165 2.194 . S
N185 C180 1.328 . S
N185 C184 1.315 . S
H186 C180 0.929 . S
H187 C184 0.930 . S
H188 C176 0.929 . S
H189 C178 0.929 . S
O190 Co165 2.351 . S
O190 C193 1.244 . S
O191 Co165 2.155 . S
O191 C193 1.240 . S
O192 Co165 2.096 . S
O192 C173 1.247 . S
C193 O190 1.244 . S
C193 O191 1.240 . S
H194 C168 0.931 . S
H195 C177 0.931 . S
H196 C181 0.929 . S
H197 C183 0.930 . S
Co198 N202 2.148 . S
Co198 N208 2.128 . S
Co198 N218 2.194 . S
Co198 O223 2.351 . S
Co198 O224 2.155 . S
Co198 O225 2.096 . S
C199 N202 1.301 . S
C199 N203 1.328 1_554 S
C199 H204 0.930 . S
C200 C201 1.333 . S
C200 N202 1.317 . S
C200 H205 0.930 . S
C201 C200 1.333 . S
C201 N203 1.350 1_554 S
C201 H227 0.931 1_554 S
N202 Co198 2.148 . S
N202 C199 1.301 . S
N202 C200 1.317 . S
N203 C199 1.328 1_556 S
N203 C201 1.350 1_556 S
H204 C199 0.930 . S
H205 C200 0.930 . S
C206 O207 1.224 . S
C206 O225 1.247 . S
O207 C206 1.224 . S
N208 Co198 2.128 . S
N208 C209 1.355 . S
N208 C211 1.311 . S
C209 N208 1.355 . S
C209 C210 1.363 . S
C209 H221 0.929 . S
C210 C209 1.363 . S
C210 N212 1.375 . S
C210 H228 0.931 . S
C211 N208 1.311 . S
C211 N212 1.347 . S
C211 H222 0.929 . S
N212 C210 1.375 . S
N212 C211 1.347 . S
C213 C216 1.365 . S
C213 N218 1.328 . S
C213 H219 0.929 . S
C214 C215 1.362 . S
C214 C217 1.378 . S
C214 H229 0.929 . S
C215 C214 1.362 . S
C215 C216 1.366 . S
C216 C213 1.365 . S
C216 C215 1.366 . S
C216 H230 0.930 . S
C217 C214 1.378 . S
C217 N218 1.315 . S
C217 H220 0.930 . S
N218 Co198 2.194 . S
N218 C213 1.328 . S
N218 C217 1.315 . S
H219 C213 0.929 . S
H220 C217 0.930 . S
H221 C209 0.929 . S
H222 C211 0.929 . S
O223 Co198 2.351 . S
O223 C226 1.244 . S
O224 Co198 2.155 . S
O224 C226 1.240 . S
O225 Co198 2.096 . S
O225 C206 1.247 . S
C226 O223 1.244 . S
C226 O224 1.240 . S
H227 C201 0.931 1_556 S
H228 C210 0.931 . S
H229 C214 0.929 . S
H230 C216 0.930 . S
Co231 N235 2.148 . S
Co231 N241 2.128 . S
Co231 N251 2.194 . S
Co231 O256 2.351 . S
Co231 O257 2.155 . S
Co231 O258 2.096 . S
C232 N235 1.301 . S
C232 N236 1.328 . S
C232 H237 0.930 . S
C233 C234 1.333 . S
C233 N235 1.317 . S
C233 H238 0.930 . S
C234 C233 1.333 . S
C234 N236 1.350 . S
C234 H260 0.931 . S
N235 Co231 2.148 . S
N235 C232 1.301 . S
N235 C233 1.317 . S
N236 C232 1.328 . S
N236 C234 1.350 . S
H237 C232 0.930 . S
H238 C233 0.930 . S
C239 O240 1.224 . S
C239 O258 1.247 . S
O240 C239 1.224 . S
N241 Co231 2.128 . S
N241 C242 1.355 . S
N241 C244 1.311 . S
C242 N241 1.355 . S
C242 C243 1.363 1_556 S
C242 H254 0.929 . S
C243 C242 1.363 1_554 S
C243 N245 1.375 . S
C243 H261 0.931 . S
C244 N241 1.311 . S
C244 N245 1.347 1_556 S
C244 H255 0.929 . S
N245 C243 1.375 . S
N245 C244 1.347 1_554 S
C246 C249 1.365 . S
C246 N251 1.328 . S
C246 H252 0.929 . S
C247 C248 1.362 . S
C247 C250 1.378 . S
C247 H262 0.929 . S
C248 C247 1.362 . S
C248 C249 1.366 . S
C249 C246 1.365 . S
C249 C248 1.366 . S
C249 H263 0.930 . S
C250 C247 1.378 . S
C250 N251 1.315 . S
C250 H253 0.930 . S
N251 Co231 2.194 . S
N251 C246 1.328 . S
N251 C250 1.315 . S
H252 C246 0.929 . S
H253 C250 0.930 . S
H254 C242 0.929 . S
H255 C244 0.929 . S
O256 Co231 2.351 . S
O256 C259 1.244 . S
O257 Co231 2.155 . S
O257 C259 1.240 . S
O258 Co231 2.096 . S
O258 C239 1.247 . S
C259 O256 1.244 . S
C259 O257 1.240 . S
H260 C234 0.931 . S
H261 C243 0.931 . S
H262 C247 0.929 . S
H263 C249 0.930 . S
Co264 N268 2.148 . S
Co264 N274 2.128 1_556 S
Co264 N284 2.194 . S
Co264 O289 2.351 . S
Co264 O290 2.155 . S
Co264 O291 2.096 . S
C265 N268 1.301 . S
C265 N269 1.328 . S
C265 H270 0.930 . S
C266 C267 1.333 . S
C266 N268 1.317 . S
C266 H271 0.930 . S
C267 C266 1.333 . S
C267 N269 1.350 . S
C267 H293 0.931 . S
N268 Co264 2.148 . S
N268 C265 1.301 . S
N268 C266 1.317 . S
N269 C265 1.328 . S
N269 C267 1.350 . S
H270 C265 0.930 . S
H271 C266 0.930 . S
C272 O273 1.224 . S
C272 O291 1.247 . S
O273 C272 1.224 . S
N274 Co264 2.128 1_554 S
N274 C275 1.355 . S
N274 C277 1.311 . S
C275 N274 1.355 . S
C275 C276 1.363 . S
C275 H287 0.929 . S
C276 C275 1.363 . S
C276 N278 1.375 . S
C276 H294 0.931 . S
C277 N274 1.311 . S
C277 N278 1.347 . S
C277 H288 0.929 . S
N278 C276 1.375 . S
N278 C277 1.347 . S
C279 C282 1.365 . S
C279 N284 1.328 . S
C279 H285 0.929 . S
C280 C281 1.362 . S
C280 C283 1.378 . S
C280 H295 0.929 . S
C281 C280 1.362 . S
C281 C282 1.366 . S
C282 C279 1.365 . S
C282 C281 1.366 . S
C282 H296 0.930 . S
C283 C280 1.378 . S
C283 N284 1.315 . S
C283 H286 0.930 . S
N284 Co264 2.194 . S
N284 C279 1.328 . S
N284 C283 1.315 . S
H285 C279 0.929 . S
H286 C283 0.930 . S
H287 C275 0.929 . S
H288 C277 0.929 . S
O289 Co264 2.351 . S
O289 C292 1.244 . S
O290 Co264 2.155 . S
O290 C292 1.240 . S
O291 Co264 2.096 . S
O291 C272 1.247 . S
C292 O289 1.244 . S
C292 O290 1.240 . S
H293 C267 0.931 . S
H294 C276 0.931 . S
H295 C280 0.929 . S
H296 C282 0.930 . S
Co297 N301 2.148 . S
Co297 N307 2.128 . S
Co297 N317 2.194 . S
Co297 O322 2.351 . S
Co297 O323 2.155 . S
Co297 O324 2.096 . S
C298 N301 1.301 . S
C298 N302 1.328 . S
C298 H303 0.930 . S
C299 C300 1.333 . S
C299 N301 1.317 . S
C299 H304 0.930 . S
C300 C299 1.333 . S
C300 N302 1.350 . S
C300 H326 0.931 . S
N301 Co297 2.148 . S
N301 C298 1.301 . S
N301 C299 1.317 . S
N302 C298 1.328 . S
N302 C300 1.350 . S
H303 C298 0.930 . S
H304 C299 0.930 . S
C305 O306 1.224 . S
C305 O324 1.247 . S
O306 C305 1.224 . S
N307 Co297 2.128 . S
N307 C308 1.355 . S
N307 C310 1.311 . S
C308 N307 1.355 . S
C308 C309 1.363 1_556 S
C308 H320 0.929 . S
C309 C308 1.363 1_554 S
C309 N311 1.375 . S
C309 H327 0.931 . S
C310 N307 1.311 . S
C310 N311 1.347 1_556 S
C310 H321 0.929 . S
N311 C309 1.375 . S
N311 C310 1.347 1_554 S
C312 C315 1.365 . S
C312 N317 1.328 . S
C312 H318 0.929 . S
C313 C314 1.362 . S
C313 C316 1.378 . S
C313 H328 0.929 . S
C314 C313 1.362 . S
C314 C315 1.366 . S
C315 C312 1.365 . S
C315 C314 1.366 . S
C315 H329 0.930 . S
C316 C313 1.378 . S
C316 N317 1.315 . S
C316 H319 0.930 . S
N317 Co297 2.194 . S
N317 C312 1.328 . S
N317 C316 1.315 . S
H318 C312 0.929 . S
H319 C316 0.930 . S
H320 C308 0.929 . S
H321 C310 0.929 . S
O322 Co297 2.351 . S
O322 C325 1.244 . S
O323 Co297 2.155 . S
O323 C325 1.240 . S
O324 Co297 2.096 . S
O324 C305 1.247 . S
C325 O322 1.244 . S
C325 O323 1.240 . S
H326 C300 0.931 . S
H327 C309 0.931 . S
H328 C313 0.929 . S
H329 C315 0.930 . S
Co330 N334 2.148 . S
Co330 N340 2.128 . S
Co330 N350 2.194 . S
Co330 O355 2.351 . S
Co330 O356 2.155 . S
Co330 O357 2.096 . S
C331 N334 1.301 . S
C331 N335 1.328 1_554 S
C331 H336 0.930 . S
C332 C333 1.333 . S
C332 N334 1.317 . S
C332 H337 0.930 . S
C333 C332 1.333 . S
C333 N335 1.350 1_554 S
C333 H359 0.931 1_554 S
N334 Co330 2.148 . S
N334 C331 1.301 . S
N334 C332 1.317 . S
N335 C331 1.328 1_556 S
N335 C333 1.350 1_556 S
H336 C331 0.930 . S
H337 C332 0.930 . S
C338 O339 1.224 . S
C338 O357 1.247 . S
O339 C338 1.224 . S
N340 Co330 2.128 . S
N340 C341 1.355 . S
N340 C343 1.311 . S
C341 N340 1.355 . S
C341 C342 1.363 . S
C341 H353 0.929 . S
C342 C341 1.363 . S
C342 N344 1.375 . S
C342 H360 0.931 . S
C343 N340 1.311 . S
C343 N344 1.347 . S
C343 H354 0.929 . S
N344 C342 1.375 . S
N344 C343 1.347 . S
C345 C348 1.365 . S
C345 N350 1.328 . S
C345 H351 0.929 . S
C346 C347 1.362 . S
C346 C349 1.378 . S
C346 H361 0.929 . S
C347 C346 1.362 . S
C347 C348 1.366 . S
C348 C345 1.365 . S
C348 C347 1.366 . S
C348 H362 0.930 . S
C349 C346 1.378 . S
C349 N350 1.315 . S
C349 H352 0.930 . S
N350 Co330 2.194 . S
N350 C345 1.328 . S
N350 C349 1.315 . S
H351 C345 0.929 . S
H352 C349 0.930 . S
H353 C341 0.929 . S
H354 C343 0.929 . S
O355 Co330 2.351 . S
O355 C358 1.244 . S
O356 Co330 2.155 . S
O356 C358 1.240 . S
O357 Co330 2.096 . S
O357 C338 1.247 . S
C358 O355 1.244 . S
C358 O356 1.240 . S
H359 C333 0.931 1_556 S
H360 C342 0.931 . S
H361 C346 0.929 . S
H362 C348 0.930 . S
Co363 N367 2.148 1_554 S
Co363 N373 2.128 . S
Co363 N383 2.194 . S
Co363 O388 2.351 . S
Co363 O389 2.155 . S
Co363 O390 2.096 . S
C364 N367 1.301 . S
C364 N368 1.328 . S
C364 H369 0.930 . S
C365 C366 1.333 . S
C365 N367 1.317 . S
C365 H370 0.930 . S
C366 C365 1.333 . S
C366 N368 1.350 . S
C366 H392 0.931 . S
N367 Co363 2.148 1_556 S
N367 C364 1.301 . S
N367 C365 1.317 . S
N368 C364 1.328 . S
N368 C366 1.350 . S
H369 C364 0.930 . S
H370 C365 0.930 . S
C371 O372 1.224 . S
C371 O390 1.247 . S
O372 C371 1.224 . S
N373 Co363 2.128 . S
N373 C374 1.355 . S
N373 C376 1.311 . S
C374 N373 1.355 . S
C374 C375 1.363 . S
C374 H386 0.929 . S
C375 C374 1.363 . S
C375 N377 1.375 . S
C375 H393 0.931 . S
C376 N373 1.311 . S
C376 N377 1.347 . S
C376 H387 0.929 . S
N377 C375 1.375 . S
N377 C376 1.347 . S
C378 C381 1.365 . S
C378 N383 1.328 . S
C378 H384 0.929 . S
C379 C380 1.362 . S
C379 C382 1.378 . S
C379 H394 0.929 . S
C380 C379 1.362 . S
C380 C381 1.366 . S
C381 C378 1.365 . S
C381 C380 1.366 . S
C381 H395 0.930 . S
C382 C379 1.378 . S
C382 N383 1.315 . S
C382 H385 0.930 . S
N383 Co363 2.194 . S
N383 C378 1.328 . S
N383 C382 1.315 . S
H384 C378 0.929 . S
H385 C382 0.930 . S
H386 C374 0.929 . S
H387 C376 0.929 . S
O388 Co363 2.351 . S
O388 C391 1.244 . S
O389 Co363 2.155 . S
O389 C391 1.240 . S
O390 Co363 2.096 . S
O390 C371 1.247 . S
C391 O388 1.244 . S
C391 O389 1.240 . S
H392 C366 0.931 . S
H393 C375 0.931 . S
H394 C379 0.929 . S
H395 C381 0.930 . S
Co396 N400 2.148 . S
Co396 N406 2.128 1_554 S
Co396 N416 2.194 . S
Co396 O421 2.351 . S
Co396 O422 2.155 . S
Co396 O423 2.096 . S
C397 N400 1.301 . S
C397 N401 1.328 . S
C397 H402 0.930 . S
C398 C399 1.333 . S
C398 N400 1.317 . S
C398 H403 0.930 . S
C399 C398 1.333 . S
C399 N401 1.350 . S
C399 H425 0.931 . S
N400 Co396 2.148 . S
N400 C397 1.301 . S
N400 C398 1.317 . S
N401 C397 1.328 . S
N401 C399 1.350 . S
H402 C397 0.930 . S
H403 C398 0.930 . S
C404 O405 1.224 . S
C404 O423 1.247 . S
O405 C404 1.224 . S
N406 Co396 2.128 1_556 S
N406 C407 1.355 . S
N406 C409 1.311 . S
C407 N406 1.355 . S
C407 C408 1.363 . S
C407 H419 0.929 . S
C408 C407 1.363 . S
C408 N410 1.375 . S
C408 H426 0.931 . S
C409 N406 1.311 . S
C409 N410 1.347 . S
C409 H420 0.929 . S
N410 C408 1.375 . S
N410 C409 1.347 . S
C411 C414 1.365 . S
C411 N416 1.328 . S
C411 H417 0.929 . S
C412 C413 1.362 . S
C412 C415 1.378 . S
C412 H427 0.929 . S
C413 C412 1.362 . S
C413 C414 1.366 . S
C414 C411 1.365 . S
C414 C413 1.366 . S
C414 H428 0.930 . S
C415 C412 1.378 . S
C415 N416 1.315 . S
C415 H418 0.930 . S
N416 Co396 2.194 . S
N416 C411 1.328 . S
N416 C415 1.315 . S
H417 C411 0.929 . S
H418 C415 0.930 . S
H419 C407 0.929 . S
H420 C409 0.929 . S
O421 Co396 2.351 . S
O421 C424 1.244 . S
O422 Co396 2.155 . S
O422 C424 1.240 . S
O423 Co396 2.096 . S
O423 C404 1.247 . S
C424 O421 1.244 . S
C424 O422 1.240 . S
H425 C399 0.931 . S
H426 C408 0.931 . S
H427 C412 0.929 . S
H428 C414 0.930 . S
Co429 N433 2.148 1_556 S
Co429 N439 2.128 . S
Co429 N449 2.194 . S
Co429 O454 2.351 . S
Co429 O455 2.155 . S
Co429 O456 2.096 . S
C430 N433 1.301 . S
C430 N434 1.328 . S
C430 H435 0.930 . S
C431 C432 1.333 . S
C431 N433 1.317 . S
C431 H436 0.930 . S
C432 C431 1.333 . S
C432 N434 1.350 . S
C432 H458 0.931 . S
N433 Co429 2.148 1_554 S
N433 C430 1.301 . S
N433 C431 1.317 . S
N434 C430 1.328 . S
N434 C432 1.350 . S
H435 C430 0.930 . S
H436 C431 0.930 . S
C437 O438 1.224 . S
C437 O456 1.247 . S
O438 C437 1.224 . S
N439 Co429 2.128 . S
N439 C440 1.355 . S
N439 C442 1.311 . S
C440 N439 1.355 . S
C440 C441 1.363 . S
C440 H452 0.929 . S
C441 C440 1.363 . S
C441 N443 1.375 . S
C441 H459 0.931 . S
C442 N439 1.311 . S
C442 N443 1.347 . S
C442 H453 0.929 . S
N443 C441 1.375 . S
N443 C442 1.347 . S
C444 C447 1.365 . S
C444 N449 1.328 . S
C444 H450 0.929 . S
C445 C446 1.362 . S
C445 C448 1.378 . S
C445 H460 0.929 . S
C446 C445 1.362 . S
C446 C447 1.366 . S
C447 C444 1.365 . S
C447 C446 1.366 . S
C447 H461 0.930 . S
C448 C445 1.378 . S
C448 N449 1.315 . S
C448 H451 0.930 . S
N449 Co429 2.194 . S
N449 C444 1.328 . S
N449 C448 1.315 . S
H450 C444 0.929 . S
H451 C448 0.930 . S
H452 C440 0.929 . S
H453 C442 0.929 . S
O454 Co429 2.351 . S
O454 C457 1.244 . S
O455 Co429 2.155 . S
O455 C457 1.240 . S
O456 Co429 2.096 . S
O456 C437 1.247 . S
C457 O454 1.244 . S
C457 O455 1.240 . S
H458 C432 0.931 . S
H459 C441 0.931 . S
H460 C445 0.929 . S
H461 C447 0.930 . S
Co462 N466 2.148 . S
Co462 N472 2.128 . S
Co462 N482 2.194 . S
Co462 O487 2.351 . S
Co462 O488 2.155 . S
Co462 O489 2.096 . S
C463 N466 1.301 . S
C463 N467 1.328 1_556 S
C463 H468 0.930 . S
C464 C465 1.333 . S
C464 N466 1.317 . S
C464 H469 0.930 . S
C465 C464 1.333 . S
C465 N467 1.350 1_556 S
C465 H491 0.931 1_556 S
N466 Co462 2.148 . S
N466 C463 1.301 . S
N466 C464 1.317 . S
N467 C463 1.328 1_554 S
N467 C465 1.350 1_554 S
H468 C463 0.930 . S
H469 C464 0.930 . S
C470 O471 1.224 . S
C470 O489 1.247 . S
O471 C470 1.224 . S
N472 Co462 2.128 . S
N472 C473 1.355 . S
N472 C475 1.311 . S
C473 N472 1.355 . S
C473 C474 1.363 . S
C473 H485 0.929 . S
C474 C473 1.363 . S
C474 N476 1.375 . S
C474 H492 0.931 . S
C475 N472 1.311 . S
C475 N476 1.347 . S
C475 H486 0.929 . S
N476 C474 1.375 . S
N476 C475 1.347 . S
C477 C480 1.365 . S
C477 N482 1.328 . S
C477 H483 0.929 . S
C478 C479 1.362 . S
C478 C481 1.378 . S
C478 H493 0.929 . S
C479 C478 1.362 . S
C479 C480 1.366 . S
C480 C477 1.365 . S
C480 C479 1.366 . S
C480 H494 0.930 . S
C481 C478 1.378 . S
C481 N482 1.315 . S
C481 H484 0.930 . S
N482 Co462 2.194 . S
N482 C477 1.328 . S
N482 C481 1.315 . S
H483 C477 0.929 . S
H484 C481 0.930 . S
H485 C473 0.929 . S
H486 C475 0.929 . S
O487 Co462 2.351 . S
O487 C490 1.244 . S
O488 Co462 2.155 . S
O488 C490 1.240 . S
O489 Co462 2.096 . S
O489 C470 1.247 . S
C490 O487 1.244 . S
C490 O488 1.240 . S
H491 C465 0.931 1_554 S
H492 C474 0.931 . S
H493 C478 0.929 . S
H494 C480 0.930 . S
Co495 N499 2.148 . S
Co495 N505 2.128 . S
Co495 N515 2.194 . S
Co495 O520 2.351 . S
Co495 O521 2.155 . S
Co495 O522 2.096 . S
C496 N499 1.301 . S
C496 N500 1.328 . S
C496 H501 0.930 . S
C497 C498 1.333 . S
C497 N499 1.317 . S
C497 H502 0.930 . S
C498 C497 1.333 . S
C498 N500 1.350 . S
C498 H524 0.931 . S
N499 Co495 2.148 . S
N499 C496 1.301 . S
N499 C497 1.317 . S
N500 C496 1.328 . S
N500 C498 1.350 . S
H501 C496 0.930 . S
H502 C497 0.930 . S
C503 O504 1.224 . S
C503 O522 1.247 . S
O504 C503 1.224 . S
N505 Co495 2.128 . S
N505 C506 1.355 . S
N505 C508 1.311 . S
C506 N505 1.355 . S
C506 C507 1.363 1_554 S
C506 H518 0.929 . S
C507 C506 1.363 1_556 S
C507 N509 1.375 . S
C507 H525 0.931 . S
C508 N505 1.311 . S
C508 N509 1.347 1_554 S
C508 H519 0.929 . S
N509 C507 1.375 . S
N509 C508 1.347 1_556 S
C510 C513 1.365 . S
C510 N515 1.328 . S
C510 H516 0.929 . S
C511 C512 1.362 . S
C511 C514 1.378 . S
C511 H526 0.929 . S
C512 C511 1.362 . S
C512 C513 1.366 . S
C513 C510 1.365 . S
C513 C512 1.366 . S
C513 H527 0.930 . S
C514 C511 1.378 . S
C514 N515 1.315 . S
C514 H517 0.930 . S
N515 Co495 2.194 . S
N515 C510 1.328 . S
N515 C514 1.315 . S
H516 C510 0.929 . S
H517 C514 0.930 . S
H518 C506 0.929 . S
H519 C508 0.929 . S
O520 Co495 2.351 . S
O520 C523 1.244 . S
O521 Co495 2.155 . S
O521 C523 1.240 . S
O522 Co495 2.096 . S
O522 C503 1.247 . S
C523 O520 1.244 . S
C523 O521 1.240 . S
H524 C498 0.931 . S
H525 C507 0.931 . S
H526 C511 0.929 . S
H527 C513 0.930 . S
Co528 N532 2.148 . S
Co528 N538 2.128 . S
Co528 N548 2.194 . S
Co528 O553 2.351 . S
Co528 O554 2.155 . S
Co528 O555 2.096 . S
C529 N532 1.301 . S
C529 N533 1.328 1_556 S
C529 H534 0.930 . S
C530 C531 1.333 . S
C530 N532 1.317 . S
C530 H535 0.930 . S
C531 C530 1.333 . S
C531 N533 1.350 1_556 S
C531 H557 0.931 1_556 S
N532 Co528 2.148 . S
N532 C529 1.301 . S
N532 C530 1.317 . S
N533 C529 1.328 1_554 S
N533 C531 1.350 1_554 S
H534 C529 0.930 . S
H535 C530 0.930 . S
C536 O537 1.224 . S
C536 O555 1.247 . S
O537 C536 1.224 . S
N538 Co528 2.128 . S
N538 C539 1.355 . S
N538 C541 1.311 . S
C539 N538 1.355 . S
C539 C540 1.363 . S
C539 H551 0.929 . S
C540 C539 1.363 . S
C540 N542 1.375 . S
C540 H558 0.931 . S
C541 N538 1.311 . S
C541 N542 1.347 . S
C541 H552 0.929 . S
N542 C540 1.375 . S
N542 C541 1.347 . S
C543 C546 1.365 . S
C543 N548 1.328 . S
C543 H549 0.929 . S
C544 C545 1.362 . S
C544 C547 1.378 . S
C544 H559 0.929 . S
C545 C544 1.362 . S
C545 C546 1.366 . S
C546 C543 1.365 . S
C546 C545 1.366 . S
C546 H560 0.930 . S
C547 C544 1.378 . S
C547 N548 1.315 . S
C547 H550 0.930 . S
N548 Co528 2.194 . S
N548 C543 1.328 . S
N548 C547 1.315 . S
H549 C543 0.929 . S
H550 C547 0.930 . S
H551 C539 0.929 . S
H552 C541 0.929 . S
O553 Co528 2.351 . S
O553 C556 1.244 . S
O554 Co528 2.155 . S
O554 C556 1.240 . S
O555 Co528 2.096 . S
O555 C536 1.247 . S
C556 O553 1.244 . S
C556 O554 1.240 . S
H557 C531 0.931 1_554 S
H558 C540 0.931 . S
H559 C544 0.929 . S
H560 C546 0.930 . S
Co561 N565 2.148 1_556 S
Co561 N571 2.128 . S
Co561 N581 2.194 . S
Co561 O586 2.351 . S
Co561 O587 2.155 . S
Co561 O588 2.096 . S
C562 N565 1.301 . S
C562 N566 1.328 . S
C562 H567 0.930 . S
C563 C564 1.333 . S
C563 N565 1.317 . S
C563 H568 0.930 . S
C564 C563 1.333 . S
C564 N566 1.350 . S
C564 H590 0.931 . S
N565 Co561 2.148 1_554 S
N565 C562 1.301 . S
N565 C563 1.317 . S
N566 C562 1.328 . S
N566 C564 1.350 . S
H567 C562 0.930 . S
H568 C563 0.930 . S
C569 O570 1.224 . S
C569 O588 1.247 . S
O570 C569 1.224 . S
N571 Co561 2.128 . S
N571 C572 1.355 . S
N571 C574 1.311 . S
C572 N571 1.355 . S
C572 C573 1.363 . S
C572 H584 0.929 . S
C573 C572 1.363 . S
C573 N575 1.375 . S
C573 H591 0.931 . S
C574 N571 1.311 . S
C574 N575 1.347 . S
C574 H585 0.929 . S
N575 C573 1.375 . S
N575 C574 1.347 . S
C576 C579 1.365 . S
C576 N581 1.328 . S
C576 H582 0.929 . S
C577 C578 1.362 . S
C577 C580 1.378 . S
C577 H592 0.929 . S
C578 C577 1.362 . S
C578 C579 1.366 . S
C579 C576 1.365 . S
C579 C578 1.366 . S
C579 H593 0.930 . S
C580 C577 1.378 . S
C580 N581 1.315 . S
C580 H583 0.930 . S
N581 Co561 2.194 . S
N581 C576 1.328 . S
N581 C580 1.315 . S
H582 C576 0.929 . S
H583 C580 0.930 . S
H584 C572 0.929 . S
H585 C574 0.929 . S
O586 Co561 2.351 . S
O586 C589 1.244 . S
O587 Co561 2.155 . S
O587 C589 1.240 . S
O588 Co561 2.096 . S
O588 C569 1.247 . S
C589 O586 1.244 . S
C589 O587 1.240 . S
H590 C564 0.931 . S
H591 C573 0.931 . S
H592 C577 0.929 . S
H593 C579 0.930 . S
Co594 N598 2.148 . S
Co594 N604 2.128 1_554 S
Co594 N614 2.194 . S
Co594 O619 2.351 . S
Co594 O620 2.155 . S
Co594 O621 2.096 . S
C595 N598 1.301 . S
C595 N599 1.328 . S
C595 H600 0.930 . S
C596 C597 1.333 . S
C596 N598 1.317 . S
C596 H601 0.930 . S
C597 C596 1.333 . S
C597 N599 1.350 . S
C597 H623 0.931 . S
N598 Co594 2.148 . S
N598 C595 1.301 . S
N598 C596 1.317 . S
N599 C595 1.328 . S
N599 C597 1.350 . S
H600 C595 0.930 . S
H601 C596 0.930 . S
C602 O603 1.224 . S
C602 O621 1.247 . S
O603 C602 1.224 . S
N604 Co594 2.128 1_556 S
N604 C605 1.355 . S
N604 C607 1.311 . S
C605 N604 1.355 . S
C605 C606 1.363 . S
C605 H617 0.929 . S
C606 C605 1.363 . S
C606 N608 1.375 . S
C606 H624 0.931 . S
C607 N604 1.311 . S
C607 N608 1.347 . S
C607 H618 0.929 . S
N608 C606 1.375 . S
N608 C607 1.347 . S
C609 C612 1.365 . S
C609 N614 1.328 . S
C609 H615 0.929 . S
C610 C611 1.362 . S
C610 C613 1.378 . S
C610 H625 0.929 . S
C611 C610 1.362 . S
C611 C612 1.366 . S
C612 C609 1.365 . S
C612 C611 1.366 . S
C612 H626 0.930 . S
C613 C610 1.378 . S
C613 N614 1.315 . S
C613 H616 0.930 . S
N614 Co594 2.194 . S
N614 C609 1.328 . S
N614 C613 1.315 . S
H615 C609 0.929 . S
H616 C613 0.930 . S
H617 C605 0.929 . S
H618 C607 0.929 . S
O619 Co594 2.351 . S
O619 C622 1.244 . S
O620 Co594 2.155 . S
O620 C622 1.240 . S
O621 Co594 2.096 . S
O621 C602 1.247 . S
C622 O619 1.244 . S
C622 O620 1.240 . S
H623 C597 0.931 . S
H624 C606 0.931 . S
H625 C610 0.929 . S
H626 C612 0.930 . S
Co627 N631 2.148 . S
Co627 N637 2.128 . S
Co627 N647 2.194 . S
Co627 O652 2.351 . S
Co627 O653 2.155 . S
Co627 O654 2.096 . S
C628 N631 1.301 . S
C628 N632 1.328 . S
C628 H633 0.930 . S
C629 C630 1.333 . S
C629 N631 1.317 . S
C629 H634 0.930 . S
C630 C629 1.333 . S
C630 N632 1.350 . S
C630 H656 0.931 . S
N631 Co627 2.148 . S
N631 C628 1.301 . S
N631 C629 1.317 . S
N632 C628 1.328 . S
N632 C630 1.350 . S
H633 C628 0.930 . S
H634 C629 0.930 . S
C635 O636 1.224 . S
C635 O654 1.247 . S
O636 C635 1.224 . S
N637 Co627 2.128 . S
N637 C638 1.355 . S
N637 C640 1.311 . S
C638 N637 1.355 . S
C638 C639 1.363 1_554 S
C638 H650 0.929 . S
C639 C638 1.363 1_556 S
C639 N641 1.375 . S
C639 H657 0.931 . S
C640 N637 1.311 . S
C640 N641 1.347 1_554 S
C640 H651 0.929 . S
N641 C639 1.375 . S
N641 C640 1.347 1_556 S
C642 C645 1.365 . S
C642 N647 1.328 . S
C642 H648 0.929 . S
C643 C644 1.362 . S
C643 C646 1.378 . S
C643 H658 0.929 . S
C644 C643 1.362 . S
C644 C645 1.366 . S
C645 C642 1.365 . S
C645 C644 1.366 . S
C645 H659 0.930 . S
C646 C643 1.378 . S
C646 N647 1.315 . S
C646 H649 0.930 . S
N647 Co627 2.194 . S
N647 C642 1.328 . S
N647 C646 1.315 . S
H648 C642 0.929 . S
H649 C646 0.930 . S
H650 C638 0.929 . S
H651 C640 0.929 . S
O652 Co627 2.351 . S
O652 C655 1.244 . S
O653 Co627 2.155 . S
O653 C655 1.240 . S
O654 Co627 2.096 . S
O654 C635 1.247 . S
C655 O652 1.244 . S
C655 O653 1.240 . S
H656 C630 0.931 . S
H657 C639 0.931 . S
H658 C643 0.929 . S
H659 C645 0.930 . S
Co660 N664 2.148 . S
Co660 N670 2.128 . S
Co660 N680 2.194 . S
Co660 O685 2.351 . S
Co660 O686 2.155 . S
Co660 O687 2.096 . S
C661 N664 1.301 . S
C661 N665 1.328 1_554 S
C661 H666 0.930 . S
C662 C663 1.333 . S
C662 N664 1.317 . S
C662 H667 0.930 . S
C663 C662 1.333 . S
C663 N665 1.350 1_554 S
C663 H689 0.931 1_554 S
N664 Co660 2.148 . S
N664 C661 1.301 . S
N664 C662 1.317 . S
N665 C661 1.328 1_556 S
N665 C663 1.350 1_556 S
H666 C661 0.930 . S
H667 C662 0.930 . S
C668 O669 1.224 . S
C668 O687 1.247 . S
O669 C668 1.224 . S
N670 Co660 2.128 . S
N670 C671 1.355 . S
N670 C673 1.311 . S
C671 N670 1.355 . S
C671 C672 1.363 . S
C671 H683 0.929 . S
C672 C671 1.363 . S
C672 N674 1.375 . S
C672 H690 0.931 . S
C673 N670 1.311 . S
C673 N674 1.347 . S
C673 H684 0.929 . S
N674 C672 1.375 . S
N674 C673 1.347 . S
C675 C678 1.365 . S
C675 N680 1.328 . S
C675 H681 0.929 . S
C676 C677 1.362 . S
C676 C679 1.378 . S
C676 H691 0.929 . S
C677 C676 1.362 . S
C677 C678 1.366 . S
C678 C675 1.365 . S
C678 C677 1.366 . S
C678 H692 0.930 . S
C679 C676 1.378 . S
C679 N680 1.315 . S
C679 H682 0.930 . S
N680 Co660 2.194 . S
N680 C675 1.328 . S
N680 C679 1.315 . S
H681 C675 0.929 . S
H682 C679 0.930 . S
H683 C671 0.929 . S
H684 C673 0.929 . S
O685 Co660 2.351 . S
O685 C688 1.244 . S
O686 Co660 2.155 . S
O686 C688 1.240 . S
O687 Co660 2.096 . S
O687 C668 1.247 . S
C688 O685 1.244 . S
C688 O686 1.240 . S
H689 C663 0.931 1_556 S
H690 C672 0.931 . S
H691 C676 0.929 . S
H692 C678 0.930 . S
Co693 N697 2.148 . S
Co693 N703 2.128 . S
Co693 N713 2.194 . S
Co693 O718 2.351 . S
Co693 O719 2.155 . S
Co693 O720 2.096 . S
C694 N697 1.301 . S
C694 N698 1.328 . S
C694 H699 0.930 . S
C695 C696 1.333 . S
C695 N697 1.317 . S
C695 H700 0.930 . S
C696 C695 1.333 . S
C696 N698 1.350 . S
C696 H722 0.931 . S
N697 Co693 2.148 . S
N697 C694 1.301 . S
N697 C695 1.317 . S
N698 C694 1.328 . S
N698 C696 1.350 . S
H699 C694 0.930 . S
H700 C695 0.930 . S
C701 O702 1.224 . S
C701 O720 1.247 . S
O702 C701 1.224 . S
N703 Co693 2.128 . S
N703 C704 1.355 . S
N703 C706 1.311 . S
C704 N703 1.355 . S
C704 C705 1.363 1_556 S
C704 H716 0.929 . S
C705 C704 1.363 1_554 S
C705 N707 1.375 . S
C705 H723 0.931 . S
C706 N703 1.311 . S
C706 N707 1.347 1_556 S
C706 H717 0.929 . S
N707 C705 1.375 . S
N707 C706 1.347 1_554 S
C708 C711 1.365 . S
C708 N713 1.328 . S
C708 H714 0.929 . S
C709 C710 1.362 . S
C709 C712 1.378 . S
C709 H724 0.929 . S
C710 C709 1.362 . S
C710 C711 1.366 . S
C711 C708 1.365 . S
C711 C710 1.366 . S
C711 H725 0.930 . S
C712 C709 1.378 . S
C712 N713 1.315 . S
C712 H715 0.930 . S
N713 Co693 2.194 . S
N713 C708 1.328 . S
N713 C712 1.315 . S
H714 C708 0.929 . S
H715 C712 0.930 . S
H716 C704 0.929 . S
H717 C706 0.929 . S
O718 Co693 2.351 . S
O718 C721 1.244 . S
O719 Co693 2.155 . S
O719 C721 1.240 . S
O720 Co693 2.096 . S
O720 C701 1.247 . S
C721 O718 1.244 . S
C721 O719 1.240 . S
H722 C696 0.931 . S
H723 C705 0.931 . S
H724 C709 0.929 . S
H725 C711 0.930 . S
Co726 N730 2.148 . S
Co726 N736 2.128 1_556 S
Co726 N746 2.194 . S
Co726 O751 2.351 . S
Co726 O752 2.155 . S
Co726 O753 2.096 . S
C727 N730 1.301 . S
C727 N731 1.328 . S
C727 H732 0.930 . S
C728 C729 1.333 . S
C728 N730 1.317 . S
C728 H733 0.930 . S
C729 C728 1.333 . S
C729 N731 1.350 . S
C729 H755 0.931 . S
N730 Co726 2.148 . S
N730 C727 1.301 . S
N730 C728 1.317 . S
N731 C727 1.328 . S
N731 C729 1.350 . S
H732 C727 0.930 . S
H733 C728 0.930 . S
C734 O735 1.224 . S
C734 O753 1.247 . S
O735 C734 1.224 . S
N736 Co726 2.128 1_554 S
N736 C737 1.355 . S
N736 C739 1.311 . S
C737 N736 1.355 . S
C737 C738 1.363 . S
C737 H749 0.929 . S
C738 C737 1.363 . S
C738 N740 1.375 . S
C738 H756 0.931 . S
C739 N736 1.311 . S
C739 N740 1.347 . S
C739 H750 0.929 . S
N740 C738 1.375 . S
N740 C739 1.347 . S
C741 C744 1.365 . S
C741 N746 1.328 . S
C741 H747 0.929 . S
C742 C743 1.362 . S
C742 C745 1.378 . S
C742 H757 0.929 . S
C743 C742 1.362 . S
C743 C744 1.366 . S
C744 C741 1.365 . S
C744 C743 1.366 . S
C744 H758 0.930 . S
C745 C742 1.378 . S
C745 N746 1.315 . S
C745 H748 0.930 . S
N746 Co726 2.194 . S
N746 C741 1.328 . S
N746 C745 1.315 . S
H747 C741 0.929 . S
H748 C745 0.930 . S
H749 C737 0.929 . S
H750 C739 0.929 . S
O751 Co726 2.351 . S
O751 C754 1.244 . S
O752 Co726 2.155 . S
O752 C754 1.240 . S
O753 Co726 2.096 . S
O753 C734 1.247 . S
C754 O751 1.244 . S
C754 O752 1.240 . S
H755 C729 0.931 . S
H756 C738 0.931 . S
H757 C742 0.929 . S
H758 C744 0.930 . S
Co759 N763 2.148 1_554 S
Co759 N769 2.128 . S
Co759 N779 2.194 . S
Co759 O784 2.351 . S
Co759 O785 2.155 . S
Co759 O786 2.096 . S
C760 N763 1.301 . S
C760 N764 1.328 . S
C760 H765 0.930 . S
C761 C762 1.333 . S
C761 N763 1.317 . S
C761 H766 0.930 . S
C762 C761 1.333 . S
C762 N764 1.350 . S
C762 H788 0.931 . S
N763 Co759 2.148 1_556 S
N763 C760 1.301 . S
N763 C761 1.317 . S
N764 C760 1.328 . S
N764 C762 1.350 . S
H765 C760 0.930 . S
H766 C761 0.930 . S
C767 O768 1.224 . S
C767 O786 1.247 . S
O768 C767 1.224 . S
N769 Co759 2.128 . S
N769 C770 1.355 . S
N769 C772 1.311 . S
C770 N769 1.355 . S
C770 C771 1.363 . S
C770 H782 0.929 . S
C771 C770 1.363 . S
C771 N773 1.375 . S
C771 H789 0.931 . S
C772 N769 1.311 . S
C772 N773 1.347 . S
C772 H783 0.929 . S
N773 C771 1.375 . S
N773 C772 1.347 . S
C774 C777 1.365 . S
C774 N779 1.328 . S
C774 H780 0.929 . S
C775 C776 1.362 . S
C775 C778 1.378 . S
C775 H790 0.929 . S
C776 C775 1.362 . S
C776 C777 1.366 . S
C777 C774 1.365 . S
C777 C776 1.366 . S
C777 H791 0.930 . S
C778 C775 1.378 . S
C778 N779 1.315 . S
C778 H781 0.930 . S
N779 Co759 2.194 . S
N779 C774 1.328 . S
N779 C778 1.315 . S
H780 C774 0.929 . S
H781 C778 0.930 . S
H782 C770 0.929 . S
H783 C772 0.929 . S
O784 Co759 2.351 . S
O784 C787 1.244 . S
O785 Co759 2.155 . S
O785 C787 1.240 . S
O786 Co759 2.096 . S
O786 C767 1.247 . S
C787 O784 1.244 . S
C787 O785 1.240 . S
H788 C762 0.931 . S
H789 C771 0.931 . S
H790 C775 0.929 . S
H791 C777 0.930 . S
Co792 N796 2.148 . S
Co792 N802 2.128 . S
Co792 N812 2.194 . S
Co792 O817 2.351 . S
Co792 O818 2.155 . S
Co792 O819 2.096 . S
C793 N796 1.301 . S
C793 N797 1.328 1_554 S
C793 H798 0.930 . S
C794 C795 1.333 . S
C794 N796 1.317 . S
C794 H799 0.930 . S
C795 C794 1.333 . S
C795 N797 1.350 1_554 S
C795 H821 0.931 1_554 S
N796 Co792 2.148 . S
N796 C793 1.301 . S
N796 C794 1.317 . S
N797 C793 1.328 1_556 S
N797 C795 1.350 1_556 S
H798 C793 0.930 . S
H799 C794 0.930 . S
C800 O801 1.224 . S
C800 O819 1.247 . S
O801 C800 1.224 . S
N802 Co792 2.128 . S
N802 C803 1.355 . S
N802 C805 1.311 . S
C803 N802 1.355 . S
C803 C804 1.363 . S
C803 H815 0.929 . S
C804 C803 1.363 . S
C804 N806 1.375 . S
C804 H822 0.931 . S
C805 N802 1.311 . S
C805 N806 1.347 . S
C805 H816 0.929 . S
N806 C804 1.375 . S
N806 C805 1.347 . S
C807 C810 1.365 . S
C807 N812 1.328 . S
C807 H813 0.929 . S
C808 C809 1.362 . S
C808 C811 1.378 . S
C808 H823 0.929 . S
C809 C808 1.362 . S
C809 C810 1.366 . S
C810 C807 1.365 . S
C810 C809 1.366 . S
C810 H824 0.930 . S
C811 C808 1.378 . S
C811 N812 1.315 . S
C811 H814 0.930 . S
N812 Co792 2.194 . S
N812 C807 1.328 . S
N812 C811 1.315 . S
H813 C807 0.929 . S
H814 C811 0.930 . S
H815 C803 0.929 . S
H816 C805 0.929 . S
O817 Co792 2.351 . S
O817 C820 1.244 . S
O818 Co792 2.155 . S
O818 C820 1.240 . S
O819 Co792 2.096 . S
O819 C800 1.247 . S
C820 O817 1.244 . S
C820 O818 1.240 . S
H821 C795 0.931 1_556 S
H822 C804 0.931 . S
H823 C808 0.929 . S
H824 C810 0.930 . S
Co825 N829 2.148 1_554 S
Co825 N835 2.128 . S
Co825 N845 2.194 . S
Co825 O850 2.351 . S
Co825 O851 2.155 . S
Co825 O852 2.096 . S
C826 N829 1.301 . S
C826 N830 1.328 . S
C826 H831 0.930 . S
C827 C828 1.333 . S
C827 N829 1.317 . S
C827 H832 0.930 . S
C828 C827 1.333 . S
C828 N830 1.350 . S
C828 H854 0.931 . S
N829 Co825 2.148 1_556 S
N829 C826 1.301 . S
N829 C827 1.317 . S
N830 C826 1.328 . S
N830 C828 1.350 . S
H831 C826 0.930 . S
H832 C827 0.930 . S
C833 O834 1.224 . S
C833 O852 1.247 . S
O834 C833 1.224 . S
N835 Co825 2.128 . S
N835 C836 1.355 . S
N835 C838 1.311 . S
C836 N835 1.355 . S
C836 C837 1.363 . S
C836 H848 0.929 . S
C837 C836 1.363 . S
C837 N839 1.375 . S
C837 H855 0.931 . S
C838 N835 1.311 . S
C838 N839 1.347 . S
C838 H849 0.929 . S
N839 C837 1.375 . S
N839 C838 1.347 . S
C840 C843 1.365 . S
C840 N845 1.328 . S
C840 H846 0.929 . S
C841 C842 1.362 . S
C841 C844 1.378 . S
C841 H856 0.929 . S
C842 C841 1.362 . S
C842 C843 1.366 . S
C843 C840 1.365 . S
C843 C842 1.366 . S
C843 H857 0.930 . S
C844 C841 1.378 . S
C844 N845 1.315 . S
C844 H847 0.930 . S
N845 Co825 2.194 . S
N845 C840 1.328 . S
N845 C844 1.315 . S
H846 C840 0.929 . S
H847 C844 0.930 . S
H848 C836 0.929 . S
H849 C838 0.929 . S
O850 Co825 2.351 . S
O850 C853 1.244 . S
O851 Co825 2.155 . S
O851 C853 1.240 . S
O852 Co825 2.096 . S
O852 C833 1.247 . S
C853 O850 1.244 . S
C853 O851 1.240 . S
H854 C828 0.931 . S
H855 C837 0.931 . S
H856 C841 0.929 . S
H857 C843 0.930 . S
Co858 N862 2.148 . S
Co858 N868 2.128 1_556 S
Co858 N878 2.194 . S
Co858 O883 2.351 . S
Co858 O884 2.155 . S
Co858 O885 2.096 . S
C859 N862 1.301 . S
C859 N863 1.328 . S
C859 H864 0.930 . S
C860 C861 1.333 . S
C860 N862 1.317 . S
C860 H865 0.930 . S
C861 C860 1.333 . S
C861 N863 1.350 . S
C861 H887 0.931 . S
N862 Co858 2.148 . S
N862 C859 1.301 . S
N862 C860 1.317 . S
N863 C859 1.328 . S
N863 C861 1.350 . S
H864 C859 0.930 . S
H865 C860 0.930 . S
C866 O867 1.224 . S
C866 O885 1.247 . S
O867 C866 1.224 . S
N868 Co858 2.128 1_554 S
N868 C869 1.355 . S
N868 C871 1.311 . S
C869 N868 1.355 . S
C869 C870 1.363 . S
C869 H881 0.929 . S
C870 C869 1.363 . S
C870 N872 1.375 . S
C870 H888 0.931 . S
C871 N868 1.311 . S
C871 N872 1.347 . S
C871 H882 0.929 . S
N872 C870 1.375 . S
N872 C871 1.347 . S
C873 C876 1.365 . S
C873 N878 1.328 . S
C873 H879 0.929 . S
C874 C875 1.362 . S
C874 C877 1.378 . S
C874 H889 0.929 . S
C875 C874 1.362 . S
C875 C876 1.366 . S
C876 C873 1.365 . S
C876 C875 1.366 . S
C876 H890 0.930 . S
C877 C874 1.378 . S
C877 N878 1.315 . S
C877 H880 0.930 . S
N878 Co858 2.194 . S
N878 C873 1.328 . S
N878 C877 1.315 . S
H879 C873 0.929 . S
H880 C877 0.930 . S
H881 C869 0.929 . S
H882 C871 0.929 . S
O883 Co858 2.351 . S
O883 C886 1.244 . S
O884 Co858 2.155 . S
O884 C886 1.240 . S
O885 Co858 2.096 . S
O885 C866 1.247 . S
C886 O883 1.244 . S
C886 O884 1.240 . S
H887 C861 0.931 . S
H888 C870 0.931 . S
H889 C874 0.929 . S
H890 C876 0.930 . S
Co891 N895 2.148 . S
Co891 N901 2.128 . S
Co891 N911 2.194 . S
Co891 O916 2.351 . S
Co891 O917 2.155 . S
Co891 O918 2.096 . S
C892 N895 1.301 . S
C892 N896 1.328 . S
C892 H897 0.930 . S
C893 C894 1.333 . S
C893 N895 1.317 . S
C893 H898 0.930 . S
C894 C893 1.333 . S
C894 N896 1.350 . S
C894 H920 0.931 . S
N895 Co891 2.148 . S
N895 C892 1.301 . S
N895 C893 1.317 . S
N896 C892 1.328 . S
N896 C894 1.350 . S
H897 C892 0.930 . S
H898 C893 0.930 . S
C899 O900 1.224 . S
C899 O918 1.247 . S
O900 C899 1.224 . S
N901 Co891 2.128 . S
N901 C902 1.355 . S
N901 C904 1.311 . S
C902 N901 1.355 . S
C902 C903 1.363 1_556 S
C902 H914 0.929 . S
C903 C902 1.363 1_554 S
C903 N905 1.375 . S
C903 H921 0.931 . S
C904 N901 1.311 . S
C904 N905 1.347 1_556 S
C904 H915 0.929 . S
N905 C903 1.375 . S
N905 C904 1.347 1_554 S
C906 C909 1.365 . S
C906 N911 1.328 . S
C906 H912 0.929 . S
C907 C908 1.362 . S
C907 C910 1.378 . S
C907 H922 0.929 . S
C908 C907 1.362 . S
C908 C909 1.366 . S
C909 C906 1.365 . S
C909 C908 1.366 . S
C909 H923 0.930 . S
C910 C907 1.378 . S
C910 N911 1.315 . S
C910 H913 0.930 . S
N911 Co891 2.194 . S
N911 C906 1.328 . S
N911 C910 1.315 . S
H912 C906 0.929 . S
H913 C910 0.930 . S
H914 C902 0.929 . S
H915 C904 0.929 . S
O916 Co891 2.351 . S
O916 C919 1.244 . S
O917 Co891 2.155 . S
O917 C919 1.240 . S
O918 Co891 2.096 . S
O918 C899 1.247 . S
C919 O916 1.244 . S
C919 O917 1.240 . S
H920 C894 0.931 . S
H921 C903 0.931 . S
H922 C907 0.929 . S
H923 C909 0.930 . S
Co924 N928 2.148 . S
Co924 N934 2.128 . S
Co924 N944 2.194 . S
Co924 O949 2.351 . S
Co924 O950 2.155 . S
Co924 O951 2.096 . S
C925 N928 1.301 . S
C925 N929 1.328 1_556 S
C925 H930 0.930 . S
C926 C927 1.333 . S
C926 N928 1.317 . S
C926 H931 0.930 . S
C927 C926 1.333 . S
C927 N929 1.350 1_556 S
C927 H953 0.931 1_556 S
N928 Co924 2.148 . S
N928 C925 1.301 . S
N928 C926 1.317 . S
N929 C925 1.328 1_554 S
N929 C927 1.350 1_554 S
H930 C925 0.930 . S
H931 C926 0.930 . S
C932 O933 1.224 . S
C932 O951 1.247 . S
O933 C932 1.224 . S
N934 Co924 2.128 . S
N934 C935 1.355 . S
N934 C937 1.311 . S
C935 N934 1.355 . S
C935 C936 1.363 . S
C935 H947 0.929 . S
C936 C935 1.363 . S
C936 N938 1.375 . S
C936 H954 0.931 . S
C937 N934 1.311 . S
C937 N938 1.347 . S
C937 H948 0.929 . S
N938 C936 1.375 . S
N938 C937 1.347 . S
C939 C942 1.365 . S
C939 N944 1.328 . S
C939 H945 0.929 . S
C940 C941 1.362 . S
C940 C943 1.378 . S
C940 H955 0.929 . S
C941 C940 1.362 . S
C941 C942 1.366 . S
C942 C939 1.365 . S
C942 C941 1.366 . S
C942 H956 0.930 . S
C943 C940 1.378 . S
C943 N944 1.315 . S
C943 H946 0.930 . S
N944 Co924 2.194 . S
N944 C939 1.328 . S
N944 C943 1.315 . S
H945 C939 0.929 . S
H946 C943 0.930 . S
H947 C935 0.929 . S
H948 C937 0.929 . S
O949 Co924 2.351 . S
O949 C952 1.244 . S
O950 Co924 2.155 . S
O950 C952 1.240 . S
O951 Co924 2.096 . S
O951 C932 1.247 . S
C952 O949 1.244 . S
C952 O950 1.240 . S
H953 C927 0.931 1_554 S
H954 C936 0.931 . S
H955 C940 0.929 . S
H956 C942 0.930 . S
Co957 N961 2.148 . S
Co957 N967 2.128 . S
Co957 N977 2.194 . S
Co957 O982 2.351 . S
Co957 O983 2.155 . S
Co957 O984 2.096 . S
C958 N961 1.301 . S
C958 N962 1.328 . S
C958 H963 0.930 . S
C959 C960 1.333 . S
C959 N961 1.317 . S
C959 H964 0.930 . S
C960 C959 1.333 . S
C960 N962 1.350 . S
C960 H986 0.931 . S
N961 Co957 2.148 . S
N961 C958 1.301 . S
N961 C959 1.317 . S
N962 C958 1.328 . S
N962 C960 1.350 . S
H963 C958 0.930 . S
H964 C959 0.930 . S
C965 O966 1.224 . S
C965 O984 1.247 . S
O966 C965 1.224 . S
N967 Co957 2.128 . S
N967 C968 1.355 . S
N967 C970 1.311 . S
C968 N967 1.355 . S
C968 C969 1.363 1_554 S
C968 H980 0.929 . S
C969 C968 1.363 1_556 S
C969 N971 1.375 . S
C969 H987 0.931 . S
C970 N967 1.311 . S
C970 N971 1.347 1_554 S
C970 H981 0.929 . S
N971 C969 1.375 . S
N971 C970 1.347 1_556 S
C972 C975 1.365 . S
C972 N977 1.328 . S
C972 H978 0.929 . S
C973 C974 1.362 . S
C973 C976 1.378 . S
C973 H988 0.929 . S
C974 C973 1.362 . S
C974 C975 1.366 . S
C975 C972 1.365 . S
C975 C974 1.366 . S
C975 H989 0.930 . S
C976 C973 1.378 . S
C976 N977 1.315 . S
C976 H979 0.930 . S
N977 Co957 2.194 . S
N977 C972 1.328 . S
N977 C976 1.315 . S
H978 C972 0.929 . S
H979 C976 0.930 . S
H980 C968 0.929 . S
H981 C970 0.929 . S
O982 Co957 2.351 . S
O982 C985 1.244 . S
O983 Co957 2.155 . S
O983 C985 1.240 . S
O984 Co957 2.096 . S
O984 C965 1.247 . S
C985 O982 1.244 . S
C985 O983 1.240 . S
H986 C960 0.931 . S
H987 C969 0.931 . S
H988 C973 0.929 . S
H989 C975 0.930 . S
Co990 N994 2.148 . S
Co990 N1000 2.128 1_554 S
Co990 N1010 2.194 . S
Co990 O1015 2.351 . S
Co990 O1016 2.155 . S
Co990 O1017 2.096 . S
C991 N994 1.301 . S
C991 N995 1.328 . S
C991 H996 0.930 . S
C992 C993 1.333 . S
C992 N994 1.317 . S
C992 H997 0.930 . S
C993 C992 1.333 . S
C993 N995 1.350 . S
C993 H1019 0.931 . S
N994 Co990 2.148 . S
N994 C991 1.301 . S
N994 C992 1.317 . S
N995 C991 1.328 . S
N995 C993 1.350 . S
H996 C991 0.930 . S
H997 C992 0.930 . S
C998 O999 1.224 . S
C998 O1017 1.247 . S
O999 C998 1.224 . S
N1000 Co990 2.128 1_556 S
N1000 C1001 1.355 . S
N1000 C1003 1.311 . S
C1001 N1000 1.355 . S
C1001 C1002 1.363 . S
C1001 H1013 0.929 . S
C1002 C1001 1.363 . S
C1002 N1004 1.375 . S
C1002 H1020 0.931 . S
C1003 N1000 1.311 . S
C1003 N1004 1.347 . S
C1003 H1014 0.929 . S
N1004 C1002 1.375 . S
N1004 C1003 1.347 . S
C1005 C1008 1.365 . S
C1005 N1010 1.328 . S
C1005 H1011 0.929 . S
C1006 C1007 1.362 . S
C1006 C1009 1.378 . S
C1006 H1021 0.929 . S
C1007 C1006 1.362 . S
C1007 C1008 1.366 . S
C1008 C1005 1.365 . S
C1008 C1007 1.366 . S
C1008 H1022 0.930 . S
C1009 C1006 1.378 . S
C1009 N1010 1.315 . S
C1009 H1012 0.930 . S
N1010 Co990 2.194 . S
N1010 C1005 1.328 . S
N1010 C1009 1.315 . S
H1011 C1005 0.929 . S
H1012 C1009 0.930 . S
H1013 C1001 0.929 . S
H1014 C1003 0.929 . S
O1015 Co990 2.351 . S
O1015 C1018 1.244 . S
O1016 Co990 2.155 . S
O1016 C1018 1.240 . S
O1017 Co990 2.096 . S
O1017 C998 1.247 . S
C1018 O1015 1.244 . S
C1018 O1016 1.240 . S
H1019 C993 0.931 . S
H1020 C1002 0.931 . S
H1021 C1006 0.929 . S
H1022 C1008 0.930 . S
Co1023 N1027 2.148 1_556 S
Co1023 N1033 2.128 . S
Co1023 N1043 2.194 . S
Co1023 O1048 2.351 . S
Co1023 O1049 2.155 . S
Co1023 O1050 2.096 . S
C1024 N1027 1.301 . S
C1024 N1028 1.328 . S
C1024 H1029 0.930 . S
C1025 C1026 1.333 . S
C1025 N1027 1.317 . S
C1025 H1030 0.930 . S
C1026 C1025 1.333 . S
C1026 N1028 1.350 . S
C1026 H1052 0.931 . S
N1027 Co1023 2.148 1_554 S
N1027 C1024 1.301 . S
N1027 C1025 1.317 . S
N1028 C1024 1.328 . S
N1028 C1026 1.350 . S
H1029 C1024 0.930 . S
H1030 C1025 0.930 . S
C1031 O1032 1.224 . S
C1031 O1050 1.247 . S
O1032 C1031 1.224 . S
N1033 Co1023 2.128 . S
N1033 C1034 1.355 . S
N1033 C1036 1.311 . S
C1034 N1033 1.355 . S
C1034 C1035 1.363 . S
C1034 H1046 0.929 . S
C1035 C1034 1.363 . S
C1035 N1037 1.375 . S
C1035 H1053 0.931 . S
C1036 N1033 1.311 . S
C1036 N1037 1.347 . S
C1036 H1047 0.929 . S
N1037 C1035 1.375 . S
N1037 C1036 1.347 . S
C1038 C1041 1.365 . S
C1038 N1043 1.328 . S
C1038 H1044 0.929 . S
C1039 C1040 1.362 . S
C1039 C1042 1.378 . S
C1039 H1054 0.929 . S
C1040 C1039 1.362 . S
C1040 C1041 1.366 . S
C1041 C1038 1.365 . S
C1041 C1040 1.366 . S
C1041 H1055 0.930 . S
C1042 C1039 1.378 . S
C1042 N1043 1.315 . S
C1042 H1045 0.930 . S
N1043 Co1023 2.194 . S
N1043 C1038 1.328 . S
N1043 C1042 1.315 . S
H1044 C1038 0.929 . S
H1045 C1042 0.930 . S
H1046 C1034 0.929 . S
H1047 C1036 0.929 . S
O1048 Co1023 2.351 . S
O1048 C1051 1.244 . S
O1049 Co1023 2.155 . S
O1049 C1051 1.240 . S
O1050 Co1023 2.096 . S
O1050 C1031 1.247 . S
C1051 O1048 1.244 . S
C1051 O1049 1.240 . S
H1052 C1026 0.931 . S
H1053 C1035 0.931 . S
H1054 C1039 0.929 . S
H1055 C1041 0.930 . S
N14 N5 1.505 . S
N38 N47 1.505 . S
N71 N80 1.505 . S
N104 N113 1.505 . S
N137 N146 1.505 . S
N170 N179 1.505 . S
N212 N203 1.505 . S
N245 N236 1.505 . S
N278 N269 1.505 . S
N311 N302 1.505 . S
N344 N335 1.505 . S
N368 N377 1.505 . S
N410 N401 1.505 . S
N443 N434 1.505 . S
N467 N476 1.505 . S
N509 N500 1.505 . S
N533 N542 1.505 . S
N566 N575 1.505 . S
N599 N608 1.505 . S
N632 N641 1.505 . S
N665 N674 1.505 . S
N698 N707 1.505 . S
N731 N740 1.505 . S
N773 N764 1.505 . S
N797 N806 1.505 . S
N830 N839 1.505 . S
N863 N872 1.505 . S
N905 N896 1.505 . S
N938 N929 1.505 . S
N971 N962 1.505 . S
N995 N1004 1.505 . S
N1037 N1028 1.505 . S
C787 C28 0.955 . S
C688 C61 0.955 . S
C721 C94 0.955 . S
C754 C127 0.955 . S
C589 C160 0.955 . S
C622 C193 0.955 . S
C655 C226 0.955 . S
C556 C259 0.955 . S
C1051 C292 0.955 . S
C952 C325 0.955 . S
C358 C985 0.955 . S
C391 C1018 0.955 . S
C424 C853 0.955 . S
C457 C886 0.955 . S
C490 C919 0.955 . S
C820 C523 0.955 . S
C140 C8 1.535 1_556 S
C41 C173 1.535 . S
C206 C74 1.535 . S
C107 C239 1.535 . S
C272 C404 1.535 1_556 S
C437 C305 1.535 . S
C470 C338 1.535 . S
C503 C371 1.535 . S
C668 C536 1.535 1_565 S
C569 C701 1.535 . S
C602 C734 1.535 1_564 S
C635 C767 1.535 . S
C932 C800 1.535 1_545 S
C965 C833 1.535 . S
C998 C866 1.535 1_564 S
C899 C1031 1.535 . S
C17 C413 1.623 1_455 S
C974 C50 1.623 . S
C83 C479 1.623 . S
C1040 C116 1.623 . S
C281 C149 1.623 1_655 S
C182 C842 1.623 . S
C215 C347 1.623 . S
C248 C908 1.623 . S
C710 C314 1.623 . S
C776 C380 1.623 . S
C578 C446 1.623 . S
C644 C512 1.623 . S
C545 C941 1.623 . S
C1007 C611 1.623 1_455 S
C677 C809 1.623 . S
C875 C743 1.623 1_455 S
