# Generated by pormake.
# Topology sml, (6)-cn, num edge types: 1
# Building blocks:
#     Node 0, Type 0, BuildingBlock: KUMBUR_clean_sbu_1, # of connection points: 6
#     Node 1, Type 0, BuildingBlock: KUMBUR_clean_sbu_1, # of connection points: 6
#     Node 2, Type 0, BuildingBlock: KUMBUR_clean_sbu_1, # of connection points: 6
#     Node 3, Type 0, BuildingBlock: KUMBUR_clean_sbu_1, # of connection points: 6
#     Node 4, Type 0, BuildingBlock: KUMBUR_clean_sbu_1, # of connection points: 6
#     Node 5, Type 0, BuildingBlock: KUMBUR_clean_sbu_1, # of connection points: 6
#     Edge 6, Type (0, 0), BuildingBlock: EYOCIG_clean_linker_4, # of connection points: 2
#     Edge 7, Type (0, 0), BuildingBlock: EYOCIG_clean_linker_4, # of connection points: 2
#     Edge 8, Type (0, 0), BuildingBlock: EYOCIG_clean_linker_4, # of connection points: 2
#     Edge 9, Type (0, 0), BuildingBlock: EYOCIG_clean_linker_4, # of connection points: 2
#     Edge 10, Type (0, 0), BuildingBlock: EYOCIG_clean_linker_4, # of connection points: 2
#     Edge 11, Type (0, 0), BuildingBlock: EYOCIG_clean_linker_4, # of connection points: 2
#     Edge 12, Type (0, 0), BuildingBlock: EYOCIG_clean_linker_4, # of connection points: 2
#     Edge 13, Type (0, 0), BuildingBlock: EYOCIG_clean_linker_4, # of connection points: 2
#     Edge 14, Type (0, 0), BuildingBlock: EYOCIG_clean_linker_4, # of connection points: 2
#     Edge 15, Type (0, 0), BuildingBlock: EYOCIG_clean_linker_4, # of connection points: 2
#     Edge 16, Type (0, 0), BuildingBlock: EYOCIG_clean_linker_4, # of connection points: 2
#     Edge 17, Type (0, 0), BuildingBlock: EYOCIG_clean_linker_4, # of connection points: 2
#     Edge 18, Type (0, 0), BuildingBlock: EYOCIG_clean_linker_4, # of connection points: 2
#     Edge 19, Type (0, 0), BuildingBlock: EYOCIG_clean_linker_4, # of connection points: 2
#     Edge 20, Type (0, 0), BuildingBlock: EYOCIG_clean_linker_4, # of connection points: 2
#     Edge 21, Type (0, 0), BuildingBlock: EYOCIG_clean_linker_4, # of connection points: 2
#     Edge 22, Type (0, 0), BuildingBlock: EYOCIG_clean_linker_4, # of connection points: 2
#     Edge 23, Type (0, 0), BuildingBlock: EYOCIG_clean_linker_4, # of connection points: 2
# Relax obj value: 0.085
# Max RMSD: 0.200
# Mean RMSD: 0.200
data_MOF--net-sml--node1-KUMBUR_clean_sbu_1--edge1-EYOCIG_clean_linker_4
_symmetry_space_group_name_H-M    P1
_symmetry_Int_Tables_number       1
_symmetry_cell_setting            triclinic
loop_
_symmetry_equiv_pos_as_xyz
'x, y, z'
_cell_length_a     25.083235
_cell_length_b     25.070231
_cell_length_c     20.222275
_cell_angle_alpha  89.984429
_cell_angle_beta   90.088567
_cell_angle_gamma 119.96732
loop_
_atom_site_label
_atom_site_type_symbol
_atom_site_fract_x
_atom_site_fract_y
_atom_site_fract_z
_atom_type_partial_charge
Tb0 Tb 0.16428 0.42727 0.99062 0.0
C1 C 0.40568 0.43757 0.13077 0.0
N2 N 0.3496 0.39015 0.1134 0.0
C3 C 0.39223 0.32381 0.10122 0.0
C4 C 0.4567 0.42893 0.13781 0.0
C5 C 0.34212 0.3337 0.09809 0.0
C6 C 0.44958 0.37133 0.12215 0.0
C7 C 0.46876 0.54485 0.16231 0.0
C8 C 0.41173 0.49497 0.14227 0.0
C9 C 0.5187 0.53542 0.17352 0.0
C10 C 0.51276 0.47775 0.16082 0.0
Tb11 Tb 0.27138 0.41034 0.12644 0.0
N12 N 0.36154 0.50162 0.13409 0.0
C13 C 0.47369 0.60251 0.17099 0.0
C14 C 0.36587 0.55761 0.14364 0.0
C15 C 0.42224 0.60908 0.16056 0.0
H16 H 0.29718 0.29542 0.08641 0.0
H17 H 0.42553 0.65343 0.16761 0.0
H18 H 0.13249 0.53533 0.03917 0.0
H19 H 0.02247 0.18169 0.95656 0.0
H20 H 0.32625 0.56303 0.13892 0.0
H21 H 0.51685 0.6421 0.18593 0.0
H22 H 0.11889 0.28107 0.95349 0.0
H23 H 0.3861 0.27903 0.08926 0.0
H24 H 0.56257 0.57282 0.19036 0.0
H25 H 0.55213 0.47175 0.16774 0.0
H26 H 0.04125 0.5392 0.07789 0.0
H27 H 0.48795 0.36309 0.12618 0.0
H28 H 0.92612 0.17729 0.99107 0.0
N29 N 0.08302 0.43876 1.02088 0.0
C30 C 0.02722 0.3864 1.02032 0.0
C31 C 0.03677 0.49584 0.06231 0.0
C32 C 0.97388 0.38665 0.04168 0.0
C33 C 0.08848 0.49335 0.04075 0.0
C34 C 0.97919 0.44232 0.0626 0.0
N35 N 0.07789 0.33259 0.98728 0.0
C36 C 0.07741 0.28002 0.96892 0.0
C37 C 0.9683 0.27571 1.00509 0.0
C38 C 0.02442 0.33156 1.00224 0.0
C39 C 0.96799 0.22127 0.98893 0.0
C40 C 0.02257 0.22352 0.96998 0.0
H41 H 0.93925 0.44447 0.07914 0.0
H42 H 0.87607 0.33024 0.0602 0.0
H43 H 0.87187 0.23337 1.03012 0.0
O44 O 0.15856 0.40759 0.88892 0.0
O45 O 0.12185 0.37837 0.08354 0.0
O46 O 0.17719 0.33268 0.11773 0.0
O47 O 0.14941 0.48326 0.92469 0.0
O48 O 0.21793 0.38446 0.95928 0.0
O49 O 0.23276 0.33764 0.05073 0.0
O50 O 0.27382 0.43619 0.22552 0.0
O51 O 0.32043 0.46455 0.0388 0.0
O52 O 0.25855 0.50277 1.00301 0.0
O53 O 0.28217 0.35708 0.19984 0.0
O54 O 0.22015 0.45731 0.1534 0.0
O55 O 0.21037 0.5042 0.0592 0.0
C56 C 0.12734 0.33733 0.11864 0.0
C57 C 0.19948 0.49555 0.82166 0.0
C58 C 0.23943 0.50682 0.70971 0.0
C59 C 0.28589 0.56685 0.72445 0.0
C60 C 0.24659 0.55585 0.836 0.0
C61 C 0.28931 0.59128 0.78739 0.0
C62 C 0.19617 0.4713 0.75814 0.0
C63 C 0.23407 0.347 0.9864 0.0
C64 C 0.15539 0.45615 0.87276 0.0
C65 C 0.91757 0.33114 0.04359 0.0
C66 C 0.91498 0.27586 1.02588 0.0
C67 C 0.30931 0.50004 1.00011 0.0
C68 C 0.24576 0.36 0.30759 0.0
C69 C 0.2273 0.36758 0.42421 0.0
C70 C 0.18963 0.30347 0.42713 0.0
C71 C 0.20699 0.29585 0.3106 0.0
C72 C 0.25542 0.39573 0.3646 0.0
C73 C 0.17901 0.26788 0.37029 0.0
C74 C 0.20993 0.49803 0.12376 0.0
C75 C 0.28019 0.39086 0.24755 0.0
H76 H 0.31981 0.59456 0.68754 0.0
H77 H 0.25083 0.57542 0.88478 0.0
H78 H 0.32553 0.63759 0.79873 0.0
H79 H 0.16064 0.4245 0.74685 0.0
H80 H 0.16748 0.28114 0.47301 0.0
H81 H 0.19887 0.26735 0.26731 0.0
H82 H 0.28492 0.44537 0.36258 0.0
H83 H 0.14918 0.21847 0.3726 0.0
Tb84 Tb 0.82317 0.25963 0.42073 0.0
C85 C 0.58973 0.03505 0.26965 0.0
N86 N 0.64391 0.04057 0.28994 0.0
C87 C 0.59589 0.93117 0.30241 0.0
C88 C 0.53709 0.97675 0.26125 0.0
C89 C 0.64773 0.9899 0.3072 0.0
C90 C 0.54061 0.9244 0.27811 0.0
C91 C 0.5313 0.08423 0.23747 0.0
C92 C 0.58697 0.0883 0.25772 0.0
C93 C 0.47981 0.02622 0.22496 0.0
C94 C 0.48276 0.9727 0.23679 0.0
Tb95 Tb 0.72556 0.13693 0.27834 0.0
N96 N 0.63865 0.1439 0.2671 0.0
C97 C 0.52903 0.13854 0.23053 0.0
C98 C 0.63702 0.19714 0.25869 0.0
C99 C 0.5819 0.19519 0.2422 0.0
H100 H 0.69117 0.99428 0.3218 0.0
H101 H 0.58064 0.23749 0.23648 0.0
H102 H 0.86705 0.39841 0.35785 0.0
H103 H 0.95237 0.15896 0.52322 0.0
H104 H 0.67761 0.24122 0.26459 0.0
H105 H 0.48674 0.13717 0.21624 0.0
H106 H 0.85893 0.16183 0.49576 0.0
H107 H 0.59908 0.89115 0.31601 0.0
H108 H 0.43694 0.02217 0.20795 0.0
H109 H 0.4422 0.92848 0.22874 0.0
H110 H 0.96452 0.48937 0.32395 0.0
H111 H 0.50089 0.87871 0.27313 0.0
H112 H 0.05445 0.2479 0.49704 0.0
N113 N 0.91005 0.34939 0.3942 0.0
C114 C 0.96401 0.3513 0.40771 0.0
C115 C 0.96498 0.45055 0.3468 0.0
C116 C 0.02085 0.40302 0.39072 0.0
C117 C 0.90973 0.39861 0.36559 0.0
C118 C 0.02082 0.4527 0.35914 0.0
N119 N 0.90606 0.24943 0.44824 0.0
C120 C 0.90236 0.19991 0.4808 0.0
C121 C 0.01682 0.30079 0.45297 0.0
C122 C 0.96194 0.3001 0.43679 0.0
C123 C 0.01322 0.24904 0.48355 0.0
C124 C 0.9557 0.1986 0.49799 0.0
H125 H 0.06359 0.49337 0.34549 0.0
H126 H 0.11997 0.44336 0.39494 0.0
H127 H 0.11554 0.35455 0.45168 0.0
O128 O 0.80456 0.24365 0.52232 0.0
O129 O 0.8755 0.25345 0.3368 0.0
O130 O 0.82045 0.15545 0.29152 0.0
O131 O 0.83503 0.33445 0.47988 0.0
O132 O 0.77161 0.16162 0.44788 0.0
O133 O 0.76144 0.10156 0.3557 0.0
O134 O 0.72039 0.15487 0.17798 0.0
O135 O 0.67245 0.13738 0.36477 0.0
O136 O 0.73129 0.23849 0.39161 0.0
O137 O 0.71876 0.0716 0.20853 0.0
O138 O 0.78165 0.2345 0.2508 0.0
O139 O 0.78446 0.2904 0.34283 0.0
C140 C 0.87125 0.20894 0.29891 0.0
C141 C 0.81503 0.32307 0.5988 0.0
C142 C 0.79907 0.30646 0.71743 0.0
C143 C 0.80641 0.3653 0.72463 0.0
C144 C 0.82214 0.38195 0.60665 0.0
C145 C 0.81799 0.40291 0.66937 0.0
C146 C 0.80338 0.28536 0.65464 0.0
C147 C 0.75986 0.10933 0.42011 0.0
C148 C 0.81818 0.3003 0.53263 0.0
C149 C 0.07567 0.40371 0.40648 0.0
C150 C 0.07342 0.35307 0.43839 0.0
C151 C 0.68266 0.18482 0.40115 0.0
C152 C 0.75039 0.10626 0.09795 0.0
C153 C 0.77084 0.13506 0.9819 0.0
C154 C 0.80229 0.10231 0.97656 0.0
C155 C 0.78326 0.07464 0.09239 0.0
C156 C 0.74443 0.13657 0.04229 0.0
C157 C 0.8092 0.07299 0.0319 0.0
C158 C 0.79244 0.28604 0.27922 0.0
C159 C 0.71714 0.10373 0.1588 0.0
H160 H 0.80307 0.38216 0.77278 0.0
H161 H 0.83029 0.41157 0.56437 0.0
H162 H 0.8235 0.44831 0.67511 0.0
H163 H 0.79768 0.23972 0.64943 0.0
H164 H 0.82326 0.10112 0.93019 0.0
H165 H 0.78831 0.05061 0.1343 0.0
H166 H 0.71952 0.16152 0.046 0.0
H167 H 0.83501 0.04917 1.02787 0.0
Tb168 Tb 0.56444 0.7395 0.65703 0.0
C169 C 0.56488 0.97247 0.80107 0.0
N170 N 0.61224 0.96429 0.78213 0.0
C171 C 0.67728 0.07319 0.76844 0.0
C172 C 0.57294 0.03193 0.80771 0.0
C173 C 0.66792 0.01338 0.76511 0.0
C174 C 0.62989 0.08262 0.79074 0.0
C175 C 0.45797 0.92766 0.83425 0.0
C176 C 0.50793 0.92082 0.81394 0.0
C177 C 0.46694 0.98692 0.84498 0.0
C178 C 0.52416 0.03881 0.83141 0.0
Tb179 Tb 0.59344 0.86657 0.79581 0.0
N180 N 0.50163 0.86403 0.80603 0.0
C181 C 0.40057 0.87479 0.84314 0.0
C182 C 0.4459 0.81224 0.8158 0.0
C183 C 0.39431 0.81689 0.83267 0.0
H184 H 0.70602 0.00691 0.75194 0.0
H185 H 0.35012 0.7757 0.83968 0.0
H186 H 0.45856 0.60287 0.71546 0.0
H187 H 0.79894 0.82699 0.57631 0.0
H188 H 0.44061 0.76727 0.81104 0.0
H189 H 0.36089 0.87817 0.85805 0.0
H190 H 0.70456 0.83141 0.59451 0.0
H191 H 0.72154 0.11205 0.75546 0.0
H192 H 0.42948 0.99318 0.86199 0.0
H193 H 0.52974 0.08401 0.83791 0.0
H194 H 0.45534 0.50787 0.75383 0.0
H195 H 0.63772 0.12911 0.79468 0.0
H196 H 0.80255 0.7334 0.60628 0.0
N197 N 0.55237 0.64599 0.68551 0.0
C198 C 0.60276 0.63981 0.67741 0.0
C199 C 0.49729 0.54489 0.733 0.0
C200 C 0.60265 0.58598 0.69772 0.0
C201 C 0.49944 0.59902 0.71157 0.0
C202 C 0.54916 0.53835 0.7262 0.0
N203 N 0.65525 0.74199 0.63733 0.0
C204 C 0.70545 0.7907 0.60934 0.0
C205 C 0.7088 0.68459 0.64189 0.0
C206 C 0.65552 0.68893 0.65104 0.0
C207 C 0.76091 0.73502 0.61486 0.0
C208 C 0.75908 0.7881 0.59811 0.0
H209 H 0.54713 0.4961 0.74214 0.0
H210 H 0.65662 0.5404 0.70391 0.0
H211 H 0.74901 0.62649 0.65479 0.0
O212 O 0.56692 0.75711 0.55505 0.0
O213 O 0.62235 0.7461 0.74216 0.0
O214 O 0.66806 0.84535 0.78421 0.0
O215 O 0.50113 0.66715 0.59561 0.0
O216 O 0.61384 0.83673 0.62698 0.0
O217 O 0.66387 0.89879 0.71795 0.0
O218 O 0.56967 0.85029 0.89603 0.0
O219 O 0.54011 0.86587 0.70885 0.0
O220 O 0.49553 0.76409 0.68342 0.0
O221 O 0.65325 0.93133 0.86537 0.0
O222 O 0.54914 0.76915 0.82523 0.0
O223 O 0.49483 0.7135 0.73373 0.0
C224 C 0.66346 0.79083 0.77924 0.0
C225 C 0.49729 0.68049 0.47624 0.0
C226 C 0.49914 0.70011 0.35805 0.0
C227 C 0.4479 0.64143 0.34912 0.0
C228 C 0.44557 0.6219 0.46659 0.0
C229 C 0.42131 0.60247 0.40325 0.0
C230 C 0.52395 0.7196 0.42146 0.0
C231 C 0.6539 0.88976 0.6537 0.0
C232 C 0.5217 0.70178 0.54336 0.0
C233 C 0.65581 0.58153 0.68904 0.0
C234 C 0.70851 0.63054 0.6608 0.0
C235 C 0.50225 0.81841 0.67283 0.0
C236 C 0.64893 0.89525 0.97544 0.0
C237 C 0.64043 0.86738 0.09173 0.0
C238 C 0.70432 0.89252 0.09491 0.0
C239 C 0.71285 0.91919 0.9788 0.0
C240 C 0.61285 0.86908 0.03222 0.0
C241 C 0.74021 0.91753 0.0384 0.0
C242 C 0.50706 0.71799 0.79736 0.0
C243 C 0.61891 0.90021 0.91514 0.0
H244 H 0.42825 0.62581 0.30047 0.0
H245 H 0.42333 0.59136 0.50797 0.0
H246 H 0.38149 0.55726 0.39618 0.0
H247 H 0.56361 0.76518 0.42805 0.0
H248 H 0.72618 0.89117 0.14062 0.0
H249 H 0.7417 0.93965 0.93583 0.0
H250 H 0.56331 0.84962 1.02993 0.0
H251 H 0.7894 0.93576 0.04088 0.0
Tb252 Tb 0.74232 0.56512 0.08447 0.0
C253 C 0.97269 0.56356 0.93685 0.0
N254 N 0.96445 0.61097 0.95554 0.0
C255 C 0.07339 0.67693 0.96672 0.0
C256 C 0.03214 0.57219 0.92839 0.0
C257 C 0.01355 0.66707 0.97146 0.0
C258 C 0.08286 0.6297 0.94384 0.0
C259 C 0.92803 0.45565 0.90752 0.0
C260 C 0.92113 0.50606 0.92598 0.0
C261 C 0.98721 0.46486 0.89564 0.0
C262 C 0.03901 0.52325 0.90507 0.0
Tb263 Tb 0.8663 0.59127 0.94387 0.0
N264 N 0.86438 0.49964 0.93432 0.0
C265 C 0.87524 0.39774 0.90101 0.0
C266 C 0.81261 0.44362 0.92571 0.0
C267 C 0.81733 0.39161 0.91095 0.0
H268 H 0.00698 0.70512 0.98475 0.0
H269 H 0.77621 0.34711 0.90527 0.0
H270 H 0.60408 0.47014 1.02108 0.0
H271 H 0.84292 0.79607 0.18404 0.0
H272 H 0.76767 0.43855 0.93026 0.0
H273 H 0.87869 0.35766 0.88795 0.0
H274 H 0.83943 0.69888 0.1598 0.0
H275 H 0.11216 0.72146 0.97912 0.0
H276 H 0.99349 0.42704 0.87992 0.0
H277 H 0.08432 0.52994 0.89568 0.0
H278 H 0.51373 0.47688 0.98456 0.0
H279 H 0.12936 0.63788 0.93885 0.0
H280 H 0.75513 0.81002 0.15406 0.0
N281 N 0.65278 0.56231 0.05681 0.0
C282 C 0.6511 0.61474 0.06873 0.0
C283 C 0.55234 0.51621 1.00755 0.0
C284 C 0.59989 0.62015 0.04985 0.0
C285 C 0.60387 0.51273 1.02792 0.0
C286 C 0.55043 0.57028 1.01823 0.0
N287 N 0.75255 0.65855 0.11057 0.0
C288 C 0.80181 0.70447 0.14333 0.0
C289 C 0.70203 0.71891 0.11151 0.0
C290 C 0.70226 0.66408 0.09753 0.0
C291 C 0.75364 0.7672 0.14211 0.0
C292 C 0.80346 0.75965 0.15869 0.0
H293 H 0.51018 0.57262 1.0031 0.0
H294 H 0.56063 0.68 0.04982 0.0
H295 H 0.64951 0.76519 0.10523 0.0
O296 O 0.75821 0.56317 0.18609 0.0
O297 O 0.74722 0.6213 0.99851 0.0
O298 O 0.84632 0.66667 0.95692 0.0
O299 O 0.66761 0.50204 0.14363 0.0
O300 O 0.84 0.61171 0.1127 0.0
O301 O 0.89982 0.66248 1.02111 0.0
O302 O 0.84642 0.56695 0.84393 0.0
O303 O 0.86557 0.53731 1.03033 0.0
O304 O 0.76438 0.49468 0.05682 0.0
O305 O 0.92995 0.64914 0.8727 0.0
O306 O 0.76857 0.5469 0.91569 0.0
O307 O 0.71216 0.4945 1.00782 0.0
C308 C 0.79192 0.6623 0.96152 0.0
C309 C 0.67969 0.49388 0.26267 0.0
C310 C 0.69805 0.49431 0.38092 0.0
C311 C 0.64001 0.44188 0.38845 0.0
C312 C 0.62167 0.44111 0.27083 0.0
C313 C 0.60191 0.41551 0.33355 0.0
C314 C 0.71782 0.52037 0.31819 0.0
C315 C 0.8923 0.65236 0.08538 0.0
C316 C 0.70193 0.51948 0.19633 0.0
C317 C 0.59976 0.67497 0.06318 0.0
C318 C 0.65042 0.72376 0.09457 0.0
C319 C 0.81817 0.50004 0.06665 0.0
C320 C 0.89192 0.64571 0.76388 0.0
C321 C 0.86408 0.63811 0.64763 0.0
C322 C 0.8918 0.70225 0.64434 0.0
C323 C 0.91811 0.70997 0.76054 0.0
C324 C 0.86444 0.6099 0.70717 0.0
C325 C 0.91776 0.73792 0.7009 0.0
C326 C 0.71725 0.50558 0.94386 0.0
C327 C 0.89676 0.61507 0.82368 0.0
H328 H 0.62421 0.4211 0.43651 0.0
H329 H 0.59203 0.41893 0.22875 0.0
H330 H 0.55719 0.37479 0.33955 0.0
H331 H 0.76294 0.56092 0.31271 0.0
H332 H 0.89232 0.72464 0.59834 0.0
H333 H 0.9396 0.73865 0.80347 0.0
H334 H 0.84343 0.56017 0.70939 0.0
H335 H 0.93798 0.7874 0.69836 0.0
Tb336 Tb 0.26161 0.82697 0.32196 0.0
C337 C 0.0367 0.59025 0.47107 0.0
N338 N 0.0418 0.64406 0.44997 0.0
C339 C 0.93234 0.59515 0.43735 0.0
C340 C 0.97859 0.5374 0.47976 0.0
C341 C 0.99087 0.64725 0.43228 0.0
C342 C 0.92603 0.54026 0.46226 0.0
C343 C 0.08655 0.53338 0.50679 0.0
C344 C 0.09017 0.58827 0.4842 0.0
C345 C 0.02868 0.48171 0.51937 0.0
C346 C 0.97491 0.48368 0.50568 0.0
Tb347 Tb 0.13763 0.72651 0.46258 0.0
N348 N 0.14552 0.64015 0.47462 0.0
C349 C 0.14118 0.5322 0.51655 0.0
C350 C 0.19899 0.63936 0.48472 0.0
C351 C 0.19759 0.58519 0.50456 0.0
H352 H 0.99487 0.69044 0.41728 0.0
H353 H 0.2401 0.58474 0.51216 0.0
H354 H 0.40061 0.86695 0.38084 0.0
H355 H 0.16108 0.96186 0.23596 0.0
H356 H 0.24286 0.68002 0.47831 0.0
H357 H 0.14029 0.49069 0.53321 0.0
H358 H 0.16372 0.8668 0.25514 0.0
H359 H 0.89206 0.59788 0.42369 0.0
H360 H 0.02496 0.43946 0.53804 0.0
H361 H 0.93078 0.44294 0.51394 0.0
H362 H 0.49283 0.96262 0.41693 0.0
H363 H 0.88051 0.5004 0.46756 0.0
H364 H 0.25065 0.06244 0.26597 0.0
N365 N 0.35268 0.91241 0.34867 0.0
C366 C 0.35516 0.96721 0.33899 0.0
C367 C 0.45417 0.96449 0.39567 0.0
C368 C 0.40722 0.02301 0.35818 0.0
C369 C 0.40163 0.9103 0.37547 0.0
C370 C 0.45694 0.02111 0.38719 0.0
N371 N 0.25282 0.91167 0.29948 0.0
C372 C 0.20261 0.90961 0.27045 0.0
C373 C 0.30434 0.02258 0.30218 0.0
C374 C 0.30392 0.96688 0.31247 0.0
C375 C 0.25207 0.02057 0.27494 0.0
C376 C 0.20126 0.96385 0.25836 0.0
H377 H 0.49789 0.06304 0.40233 0.0
H378 H 0.44735 0.12214 0.3623 0.0
H379 H 0.35723 0.12112 0.31336 0.0
O380 O 0.24459 0.80981 0.22004 0.0
O381 O 0.25477 0.8778 0.40719 0.0
O382 O 0.15643 0.82171 0.45079 0.0
O383 O 0.33503 0.83738 0.26176 0.0
O384 O 0.16411 0.77589 0.29316 0.0
O385 O 0.10211 0.76183 0.38474 0.0
O386 O 0.15334 0.71943 0.56305 0.0
O387 O 0.13891 0.67419 0.37575 0.0
O388 O 0.23995 0.73487 0.35096 0.0
O389 O 0.07172 0.72042 0.53114 0.0
O390 O 0.23507 0.78241 0.49148 0.0
O391 O 0.29161 0.78713 0.39939 0.0
C392 C 0.2101 0.87259 0.44538 0.0
C393 C 0.32266 0.81807 0.14275 0.0
C394 C 0.30462 0.80007 1.02438 0.0
C395 C 0.36294 0.8063 1.01704 0.0
C396 C 0.38094 0.82384 0.13465 0.0
C397 C 0.401 0.81832 0.072 0.0
C398 C 0.28452 0.80611 0.08711 0.0
C399 C 0.11096 0.7616 0.32038 0.0
C400 C 0.30053 0.82145 0.20923 0.0
C401 C 0.40773 0.07865 0.34824 0.0
C402 C 0.3565 0.07827 0.32012 0.0
C403 C 0.18682 0.68613 0.33946 0.0
C404 C 0.10562 0.75074 0.64233 0.0
C405 C 0.13444 0.77037 0.75843 0.0
C406 C 0.10351 0.80374 0.76367 0.0
C407 C 0.07538 0.78496 0.64789 0.0
C408 C 0.1353 0.74378 0.69798 0.0
C409 C 0.07476 0.81156 0.70836 0.0
C410 C 0.28705 0.79464 0.46309 0.0
C411 C 0.10261 0.71739 0.58137 0.0
H412 H 0.37895 0.80146 0.96903 0.0
H413 H 0.41067 0.83162 0.17675 0.0
H414 H 0.44592 0.82275 0.06613 0.0
H415 H 0.23918 0.80103 0.09253 0.0
H416 H 0.10307 0.82514 0.81006 0.0
H417 H 0.05177 0.79066 0.60597 0.0
H418 H 0.15911 0.71775 0.69425 0.0
H419 H 0.05191 0.83833 0.71244 0.0
Tb420 Tb 0.43259 0.1761 0.75378 0.0
C421 C 0.44449 0.41062 0.60351 0.0
N422 N 0.39586 0.35654 0.62389 0.0
C423 C 0.3357 0.40547 0.6391 0.0
C424 C 0.43928 0.46366 0.59622 0.0
C425 C 0.34193 0.3532 0.6423 0.0
C426 C 0.38401 0.46065 0.61454 0.0
C427 C 0.55172 0.46848 0.57056 0.0
C428 C 0.50006 0.41291 0.5907 0.0
C429 C 0.54562 0.52041 0.55906 0.0
C430 C 0.48955 0.51795 0.57185 0.0
Tb431 Tb 0.40948 0.27432 0.61093 0.0
N432 N 0.50355 0.36089 0.59936 0.0
C433 C 0.60795 0.47025 0.5628 0.0
C434 C 0.5581 0.36207 0.59033 0.0
C435 C 0.61133 0.41703 0.57374 0.0
H436 H 0.30277 0.30991 0.65689 0.0
H437 H 0.65462 0.41791 0.56748 0.0
H438 H 0.5225 0.12646 0.69078 0.0
H439 H 0.2032 0.05513 0.85826 0.0
H440 H 0.56129 0.32125 0.59578 0.0
H441 H 0.64892 0.51243 0.54855 0.0
H442 H 0.30178 0.14587 0.83183 0.0
H443 H 0.29308 0.40253 0.65435 0.0
H444 H 0.58449 0.56325 0.54225 0.0
H445 H 0.48625 0.55888 0.5648 0.0
H446 H 0.51154 0.02676 0.65755 0.0
H447 H 0.37853 0.50077 0.61079 0.0
H448 H 0.18484 0.95121 0.8307 0.0
N449 N 0.43142 0.08684 0.72868 0.0
C450 C 0.37824 0.03414 0.74253 0.0
C451 C 0.47348 0.02824 0.68084 0.0
C452 C 0.3705 0.97612 0.72574 0.0
C453 C 0.47936 0.08474 0.69937 0.0
C454 C 0.41871 0.97366 0.69382 0.0
N455 N 0.33824 0.0958 0.7825 0.0
C456 C 0.29412 0.1018 0.81579 0.0
C457 C 0.27492 0.98532 0.78706 0.0
C458 C 0.33044 0.03881 0.77113 0.0
C459 C 0.22821 0.99137 0.81754 0.0
C460 C 0.2382 0.04992 0.83267 0.0
H461 H 0.41454 0.92994 0.68013 0.0
H462 H 0.30821 0.87752 0.7296 0.0
H463 H 0.22583 0.88665 0.78504 0.0
O464 O 0.43622 0.19621 0.85493 0.0
O465 O 0.37586 0.12396 0.66851 0.0
O466 O 0.33329 0.17914 0.62293 0.0
O467 O 0.49523 0.16382 0.81331 0.0
O468 O 0.38827 0.2298 0.78008 0.0
O469 O 0.33795 0.23846 0.68773 0.0
O470 O 0.43196 0.27992 0.51045 0.0
O471 O 0.46374 0.32735 0.69728 0.0
O472 O 0.50449 0.26716 0.72415 0.0
O473 O 0.3507 0.2817 0.54178 0.0
O474 O 0.45146 0.21854 0.58343 0.0
O475 O 0.50252 0.21305 0.67633 0.0
C476 C 0.33633 0.12843 0.62956 0.0
C477 C 0.50506 0.18643 0.9319 0.0
C478 C 0.50478 0.20474 0.05006 0.0
C479 C 0.5579 0.20026 0.05761 0.0
C480 C 0.55856 0.18243 0.94008 0.0
C481 C 0.58454 0.18894 1.00278 0.0
C482 C 0.47827 0.19764 0.98737 0.0
C483 C 0.34769 0.24128 0.75211 0.0
C484 C 0.47905 0.18243 0.86557 0.0
C485 C 0.31501 0.9227 0.7412 0.0
C486 C 0.26783 0.92756 0.77241 0.0
C487 C 0.5008 0.31661 0.73335 0.0
C488 C 0.35295 0.24995 0.43103 0.0
C489 C 0.36067 0.23017 0.31467 0.0
C490 C 0.29641 0.1964 0.31027 0.0
C491 C 0.28847 0.21557 0.42625 0.0
C492 C 0.38885 0.257 0.37485 0.0
C493 C 0.26052 0.18882 0.36603 0.0
C494 C 0.49123 0.2065 0.61236 0.0
C495 C 0.38405 0.28333 0.49175 0.0
H496 H 0.5791 0.20598 0.1056 0.0
H497 H 0.58112 0.17562 0.89802 0.0
H498 H 0.62584 0.18592 1.00877 0.0
H499 H 0.4372 0.20132 0.98185 0.0
H500 H 0.27406 0.17494 0.26407 0.0
H501 H 0.2597 0.20989 0.46857 0.0
H502 H 0.4387 0.28329 0.37797 0.0
H503 H 0.21088 0.16218 0.36252 0.0
C504 C 0.29212 0.27494 0.84117 0.0
C505 C 0.31456 0.26008 0.79654 0.0
C506 C 0.27062 0.29482 0.8962 0.0
C507 C 0.25467 0.31601 0.94113 0.0
C508 C 0.02899 0.26888 0.1928 0.0
C509 C 0.0759 0.29758 0.16081 0.0
C510 C 0.97276 0.24107 0.22923 0.0
C511 C 0.92482 0.22288 0.25927 0.0
C512 C 0.72734 0.02012 0.50899 0.0
C513 C 0.74169 0.0577 0.46474 0.0
C514 C 0.70733 0.97818 0.56343 0.0
C515 C 0.68553 0.94091 0.60812 0.0
C516 C 0.73103 0.75769 0.85142 0.0
C517 C 0.70217 0.77633 0.82013 0.0
C518 C 0.75898 0.72969 0.88873 0.0
C519 C 0.77755 0.70091 0.9203 0.0
C520 C 0.02264 0.72763 0.23001 0.0
C521 C 0.05971 0.74249 0.27491 0.0
C522 C 0.98118 0.70702 0.17503 0.0
C523 C 0.94393 0.68493 0.13028 0.0
C524 C 0.26957 0.02819 0.55635 0.0
C525 C 0.29819 0.07551 0.58801 0.0
C526 C 0.24196 0.97241 0.5187 0.0
C527 C 0.22384 0.9252 0.48699 0.0
C528 C 0.23679 0.45962 0.5921 0.0
C529 C 0.23786 0.48099 0.64574 0.0
C530 C 0.23669 0.43165 0.53162 0.0
C531 C 0.23381 0.40441 0.4815 0.0
C532 C 0.77174 0.20029 0.87894 0.0
C533 C 0.77034 0.17115 0.92688 0.0
C534 C 0.77878 0.23623 0.82254 0.0
C535 C 0.78802 0.26813 0.77455 0.0
C536 C 0.54825 0.77217 0.254 0.0
C537 C 0.52641 0.73989 0.3019 0.0
C538 C 0.57609 0.80759 0.197 0.0
C539 C 0.60313 0.8343 0.1477 0.0
C540 C 0.80432 0.57364 0.54226 0.0
C541 C 0.83108 0.60137 0.59128 0.0
C542 C 0.76919 0.54457 0.48543 0.0
C543 C 0.73697 0.52186 0.43763 0.0
C544 C 0.19798 0.76934 0.86222 0.0
C545 C 0.16975 0.76837 0.81359 0.0
C546 C 0.2338 0.77749 0.91915 0.0
C547 C 0.26569 0.78777 0.96742 0.0
C548 C 0.42527 0.23247 0.21056 0.0
C549 C 0.39738 0.23245 0.25897 0.0
C550 C 0.45441 0.22569 0.15427 0.0
C551 C 0.47723 0.21614 0.10667 0.0
C552 C 0.19204 0.57103 0.20316 0.0
C553 C 0.19997 0.53883 0.16488 0.0
C554 C 0.18535 0.60846 0.25069 0.0
C555 C 0.18331 0.64218 0.29178 0.0
C556 C 0.60126 0.18087 0.48609 0.0
C557 C 0.63676 0.17998 0.44669 0.0
C558 C 0.56258 0.18691 0.53232 0.0
C559 C 0.53082 0.19575 0.57023 0.0
C560 C 0.39458 0.58157 0.92147 0.0
C561 C 0.3575 0.5434 0.95829 0.0
C562 C 0.43456 0.62752 0.87717 0.0
C563 C 0.46719 0.66834 0.83997 0.0
C564 C 0.81395 0.37728 0.19856 0.0
C565 C 0.8042 0.33654 0.23674 0.0
C566 C 0.82126 0.42232 0.15201 0.0
C567 C 0.82298 0.45898 0.11235 0.0
C568 C 0.37859 0.81573 0.54318 0.0
C569 C 0.33753 0.80618 0.50551 0.0
C570 C 0.42404 0.82252 0.58891 0.0
C571 C 0.46094 0.82365 0.62786 0.0
C572 C 0.62599 0.43521 0.86347 0.0
C573 C 0.66685 0.4666 0.90139 0.0
C574 C 0.58035 0.39738 0.81749 0.0
C575 C 0.54295 0.36243 0.77839 0.0
loop_
_geom_bond_atom_site_label_1
_geom_bond_atom_site_label_2
_geom_bond_distance
_geom_bond_site_symmetry_2
_ccdc_geom_bond_type
Tb0 N29 2.617 . S
Tb0 N35 2.572 . S
Tb0 O44 2.465 . S
Tb0 O45 2.387 1_556 S
Tb0 O47 2.428 . S
Tb0 O48 2.308 . S
Tb0 O52 2.349 . S
Tb0 O55 2.398 . S
Tb0 C64 2.802 . S
C1 N2 1.379 . S
C1 C4 1.416 . S
C1 C8 1.424 . S
N2 C1 1.379 . S
N2 C5 1.334 . S
N2 Tb11 2.617 . S
C3 C5 1.390 . S
C3 C6 1.339 . S
C3 H23 0.930 . S
C4 C1 1.416 . S
C4 C6 1.416 . S
C4 C10 1.448 . S
C5 N2 1.334 . S
C5 C3 1.390 . S
C5 H16 0.930 . S
C6 C3 1.339 . S
C6 C4 1.416 . S
C6 H27 0.930 . S
C7 C8 1.413 . S
C7 C9 1.427 . S
C7 C13 1.416 . S
C8 C1 1.424 . S
C8 C7 1.413 . S
C8 N12 1.361 . S
C9 C7 1.427 . S
C9 C10 1.328 . S
C9 H24 0.929 . S
C10 C4 1.448 . S
C10 C9 1.328 . S
C10 H25 0.930 . S
Tb11 N2 2.617 . S
Tb11 N12 2.572 . S
Tb11 O46 2.349 . S
Tb11 O49 2.393 . S
Tb11 O50 2.465 . S
Tb11 O51 2.387 1_554 S
Tb11 O53 2.428 . S
Tb11 O54 2.308 . S
Tb11 C75 2.802 . S
N12 C8 1.361 . S
N12 Tb11 2.572 . S
N12 C14 1.340 . S
C13 C7 1.416 . S
C13 C15 1.332 . S
C13 H21 0.931 . S
C14 N12 1.340 . S
C14 C15 1.407 . S
C14 H20 0.930 . S
C15 C13 1.332 . S
C15 C14 1.407 . S
C15 H17 0.929 . S
H16 C5 0.930 . S
H17 C15 0.929 . S
H18 C33 0.930 . S
H19 C40 0.929 . S
H20 C14 0.930 . S
H21 C13 0.931 . S
H22 C36 0.930 . S
H23 C3 0.930 . S
H24 C9 0.929 . S
H25 C10 0.930 . S
H26 C31 0.930 . S
H27 C6 0.930 . S
H28 C39 0.931 . S
N29 Tb0 2.617 . S
N29 C30 1.379 1_455 S
N29 C33 1.334 . S
C30 N29 1.379 1_655 S
C30 C32 1.416 . S
C30 C38 1.424 . S
C31 H26 0.930 . S
C31 C33 1.390 1_655 S
C31 C34 1.339 . S
C32 C30 1.416 . S
C32 C34 1.416 . S
C32 C65 1.448 . S
C33 H18 0.930 . S
C33 N29 1.334 . S
C33 C31 1.390 1_455 S
C34 C31 1.339 . S
C34 C32 1.416 . S
C34 H41 0.930 . S
N35 Tb0 2.572 . S
N35 C36 1.340 . S
N35 C38 1.361 1_455 S
C36 H22 0.930 . S
C36 N35 1.340 . S
C36 C40 1.407 1_455 S
C37 C38 1.413 . S
C37 C39 1.416 . S
C37 C66 1.427 . S
C38 C30 1.424 . S
C38 N35 1.361 1_655 S
C38 C37 1.413 . S
C39 H28 0.931 . S
C39 C37 1.416 . S
C39 C40 1.332 . S
C40 H19 0.929 . S
C40 C36 1.407 1_655 S
C40 C39 1.332 . S
H41 C34 0.930 . S
H42 C65 0.930 . S
H43 C66 0.929 . S
O44 Tb0 2.465 . S
O44 C64 1.264 . S
O45 Tb0 2.387 1_554 S
O45 C56 1.264 . S
O46 Tb11 2.349 . S
O46 C56 1.243 . S
O47 Tb0 2.428 . S
O47 C64 1.256 . S
O48 Tb0 2.308 . S
O48 C63 1.266 . S
O49 Tb11 2.393 . S
O49 C63 1.248 1_554 S
O50 Tb11 2.465 . S
O50 C75 1.264 . S
O51 Tb11 2.387 1_556 S
O51 C67 1.264 . S
O52 Tb0 2.349 . S
O52 C67 1.243 . S
O53 Tb11 2.428 . S
O53 C75 1.256 . S
O54 Tb11 2.308 . S
O54 C74 1.266 . S
O55 Tb0 2.398 . S
O55 C74 1.240 1_556 S
C56 O45 1.264 . S
C56 O46 1.243 . S
C57 C60 1.399 . S
C57 C62 1.383 . S
C57 C64 1.496 . S
C58 C59 1.399 . S
C58 C62 1.389 . S
C59 C58 1.399 . S
C59 C61 1.380 . S
C59 H76 0.929 . S
C60 C57 1.399 . S
C60 C61 1.392 . S
C60 H77 0.929 . S
C61 C59 1.380 . S
C61 C60 1.392 . S
C61 H78 0.929 . S
C62 C57 1.383 . S
C62 C58 1.389 . S
C62 H79 0.931 . S
C63 O48 1.266 . S
C63 O49 1.248 1_556 S
C64 Tb0 2.802 . S
C64 O44 1.264 . S
C64 O47 1.256 . S
C64 C57 1.496 . S
C65 C32 1.448 . S
C65 H42 0.930 . S
C65 C66 1.328 . S
C66 C37 1.427 . S
C66 H43 0.929 . S
C66 C65 1.328 . S
C67 O51 1.264 . S
C67 O52 1.243 . S
C68 C71 1.399 . S
C68 C72 1.383 . S
C68 C75 1.496 . S
C69 C70 1.399 . S
C69 C72 1.389 . S
C70 C69 1.399 . S
C70 C73 1.380 . S
C70 H80 0.929 . S
C71 C68 1.399 . S
C71 C73 1.392 . S
C71 H81 0.929 . S
C72 C68 1.383 . S
C72 C69 1.389 . S
C72 H82 0.931 . S
C73 C70 1.380 . S
C73 C71 1.392 . S
C73 H83 0.929 . S
C74 O54 1.266 . S
C74 O55 1.240 1_554 S
C75 Tb11 2.802 . S
C75 O50 1.264 . S
C75 O53 1.256 . S
C75 C68 1.496 . S
H76 C59 0.929 . S
H77 C60 0.929 . S
H78 C61 0.929 . S
H79 C62 0.931 . S
H80 C70 0.929 . S
H81 C71 0.929 . S
H82 C72 0.931 . S
H83 C73 0.929 . S
Tb84 N113 2.617 . S
Tb84 N119 2.572 . S
Tb84 O128 2.465 . S
Tb84 O129 2.387 . S
Tb84 O131 2.428 . S
Tb84 O132 2.308 . S
Tb84 O136 2.349 . S
Tb84 O139 2.393 . S
Tb84 C148 2.802 . S
C85 N86 1.379 . S
C85 C88 1.416 1_545 S
C85 C92 1.424 . S
N86 C85 1.379 . S
N86 C89 1.334 1_545 S
N86 Tb95 2.617 . S
C87 C89 1.390 . S
C87 C90 1.339 . S
C87 H107 0.930 . S
C88 C85 1.416 1_565 S
C88 C90 1.416 . S
C88 C94 1.448 . S
C89 N86 1.334 1_565 S
C89 C87 1.390 . S
C89 H100 0.930 . S
C90 C87 1.339 . S
C90 C88 1.416 . S
C90 H111 0.930 . S
C91 C92 1.413 . S
C91 C93 1.427 . S
C91 C97 1.416 . S
C92 C85 1.424 . S
C92 C91 1.413 . S
C92 N96 1.361 . S
C93 C91 1.427 . S
C93 C94 1.328 1_545 S
C93 H108 0.929 . S
C94 C88 1.448 . S
C94 C93 1.328 1_565 S
C94 H109 0.930 . S
Tb95 N86 2.617 . S
Tb95 N96 2.572 . S
Tb95 O130 2.349 . S
Tb95 O133 2.393 . S
Tb95 O134 2.465 . S
Tb95 O135 2.387 . S
Tb95 O137 2.428 . S
Tb95 O138 2.308 . S
Tb95 C159 2.802 . S
N96 C92 1.361 . S
N96 Tb95 2.572 . S
N96 C98 1.340 . S
C97 C91 1.416 . S
C97 C99 1.332 . S
C97 H105 0.931 . S
C98 N96 1.340 . S
C98 C99 1.407 . S
C98 H104 0.930 . S
C99 C97 1.332 . S
C99 C98 1.407 . S
C99 H101 0.929 . S
H100 C89 0.930 . S
H101 C99 0.929 . S
H102 C117 0.930 . S
H103 C124 0.929 . S
H104 C98 0.930 . S
H105 C97 0.931 . S
H106 C120 0.930 . S
H107 C87 0.930 . S
H108 C93 0.929 . S
H109 C94 0.930 . S
H110 C115 0.930 . S
H111 C90 0.930 . S
H112 C123 0.931 . S
N113 Tb84 2.617 . S
N113 C114 1.379 1_655 S
N113 C117 1.334 . S
C114 N113 1.379 1_455 S
C114 C116 1.416 . S
C114 C122 1.424 . S
C115 H110 0.930 . S
C115 C117 1.390 1_455 S
C115 C118 1.339 . S
C116 C114 1.416 . S
C116 C118 1.416 . S
C116 C149 1.448 . S
C117 H102 0.930 . S
C117 N113 1.334 . S
C117 C115 1.390 1_655 S
C118 C115 1.339 . S
C118 C116 1.416 . S
C118 H125 0.930 . S
N119 Tb84 2.572 . S
N119 C120 1.340 . S
N119 C122 1.361 1_655 S
C120 H106 0.930 . S
C120 N119 1.340 . S
C120 C124 1.407 1_655 S
C121 C122 1.413 . S
C121 C123 1.416 . S
C121 C150 1.427 . S
C122 C114 1.424 . S
C122 N119 1.361 1_455 S
C122 C121 1.413 . S
C123 H112 0.931 . S
C123 C121 1.416 . S
C123 C124 1.332 . S
C124 H103 0.929 . S
C124 C120 1.407 1_455 S
C124 C123 1.332 . S
H125 C118 0.930 . S
H126 C149 0.930 . S
H127 C150 0.929 . S
O128 Tb84 2.465 . S
O128 C148 1.264 . S
O129 Tb84 2.387 . S
O129 C140 1.264 . S
O130 Tb95 2.349 . S
O130 C140 1.243 . S
O131 Tb84 2.428 . S
O131 C148 1.256 . S
O132 Tb84 2.308 . S
O132 C147 1.266 . S
O133 Tb95 2.393 . S
O133 C147 1.248 . S
O134 Tb95 2.465 . S
O134 C159 1.264 . S
O135 Tb95 2.387 . S
O135 C151 1.264 . S
O136 Tb84 2.349 . S
O136 C151 1.243 . S
O137 Tb95 2.428 . S
O137 C159 1.256 . S
O138 Tb95 2.308 . S
O138 C158 1.266 . S
O139 Tb84 2.393 . S
O139 C158 1.248 . S
C140 O129 1.264 . S
C140 O130 1.243 . S
C141 C144 1.399 . S
C141 C146 1.383 . S
C141 C148 1.496 . S
C142 C143 1.399 . S
C142 C146 1.389 . S
C143 C142 1.399 . S
C143 C145 1.380 . S
C143 H160 0.929 . S
C144 C141 1.399 . S
C144 C145 1.392 . S
C144 H161 0.929 . S
C145 C143 1.380 . S
C145 C144 1.392 . S
C145 H162 0.929 . S
C146 C141 1.383 . S
C146 C142 1.389 . S
C146 H163 0.931 . S
C147 O132 1.266 . S
C147 O133 1.248 . S
C148 Tb84 2.802 . S
C148 O128 1.264 . S
C148 O131 1.256 . S
C148 C141 1.496 . S
C149 C116 1.448 . S
C149 H126 0.930 . S
C149 C150 1.328 . S
C150 C121 1.427 . S
C150 H127 0.929 . S
C150 C149 1.328 . S
C151 O135 1.264 . S
C151 O136 1.243 . S
C152 C155 1.399 . S
C152 C156 1.383 . S
C152 C159 1.496 . S
C153 C154 1.399 . S
C153 C156 1.389 1_556 S
C154 C153 1.399 . S
C154 C157 1.380 . S
C154 H164 0.929 . S
C155 C152 1.399 . S
C155 C157 1.392 1_554 S
C155 H165 0.929 . S
C156 C152 1.383 . S
C156 C153 1.389 1_554 S
C156 H166 0.931 . S
C157 C154 1.380 . S
C157 C155 1.392 1_556 S
C157 H167 0.929 1_545 S
C158 O138 1.266 . S
C158 O139 1.248 . S
C159 Tb95 2.802 . S
C159 O134 1.264 . S
C159 O137 1.256 . S
C159 C152 1.496 . S
H160 C143 0.929 . S
H161 C144 0.929 . S
H162 C145 0.929 . S
H163 C146 0.931 . S
H164 C154 0.929 . S
H165 C155 0.929 . S
H166 C156 0.931 . S
H167 C157 0.929 1_565 S
Tb168 N197 2.617 . S
Tb168 N203 2.572 . S
Tb168 O212 2.465 . S
Tb168 O213 2.387 . S
Tb168 O215 2.428 . S
Tb168 O216 2.308 . S
Tb168 O220 2.349 . S
Tb168 O223 2.393 . S
Tb168 C232 2.802 . S
C169 N170 1.379 . S
C169 C172 1.416 1_565 S
C169 C176 1.424 . S
N170 C169 1.379 . S
N170 C173 1.334 1_565 S
N170 Tb179 2.617 . S
C171 C173 1.390 . S
C171 C174 1.339 . S
C171 H191 0.930 . S
C172 C169 1.416 1_545 S
C172 C174 1.416 . S
C172 C178 1.448 . S
C173 N170 1.334 1_545 S
C173 C171 1.390 . S
C173 H184 0.930 . S
C174 C171 1.339 . S
C174 C172 1.416 . S
C174 H195 0.930 . S
C175 C176 1.413 . S
C175 C177 1.427 . S
C175 C181 1.416 . S
C176 C169 1.424 . S
C176 C175 1.413 . S
C176 N180 1.361 . S
C177 C175 1.427 . S
C177 C178 1.328 1_565 S
C177 H192 0.929 . S
C178 C172 1.448 . S
C178 C177 1.328 1_545 S
C178 H193 0.930 . S
Tb179 N170 2.617 . S
Tb179 N180 2.572 . S
Tb179 O214 2.349 . S
Tb179 O217 2.393 . S
Tb179 O218 2.465 . S
Tb179 O219 2.387 . S
Tb179 O221 2.428 . S
Tb179 O222 2.308 . S
Tb179 C243 2.802 . S
N180 C176 1.361 . S
N180 Tb179 2.572 . S
N180 C182 1.340 . S
C181 C175 1.416 . S
C181 C183 1.332 . S
C181 H189 0.931 . S
C182 N180 1.340 . S
C182 C183 1.407 . S
C182 H188 0.930 . S
C183 C181 1.332 . S
C183 C182 1.407 . S
C183 H185 0.929 . S
H184 C173 0.930 . S
H185 C183 0.929 . S
H186 C201 0.930 . S
H187 C208 0.929 . S
H188 C182 0.930 . S
H189 C181 0.931 . S
H190 C204 0.930 . S
H191 C171 0.930 . S
H192 C177 0.929 . S
H193 C178 0.930 . S
H194 C199 0.930 . S
H195 C174 0.930 . S
H196 C207 0.931 . S
N197 Tb168 2.617 . S
N197 C198 1.379 . S
N197 C201 1.334 . S
C198 N197 1.379 . S
C198 C200 1.416 . S
C198 C206 1.424 . S
C199 H194 0.930 . S
C199 C201 1.390 . S
C199 C202 1.339 . S
C200 C198 1.416 . S
C200 C202 1.416 . S
C200 C233 1.448 . S
C201 H186 0.930 . S
C201 N197 1.334 . S
C201 C199 1.390 . S
C202 C199 1.339 . S
C202 C200 1.416 . S
C202 H209 0.930 . S
N203 Tb168 2.572 . S
N203 C204 1.340 . S
N203 C206 1.361 . S
C204 H190 0.930 . S
C204 N203 1.340 . S
C204 C208 1.407 . S
C205 C206 1.413 . S
C205 C207 1.416 . S
C205 C234 1.427 . S
C206 C198 1.424 . S
C206 N203 1.361 . S
C206 C205 1.413 . S
C207 H196 0.931 . S
C207 C205 1.416 . S
C207 C208 1.332 . S
C208 H187 0.929 . S
C208 C204 1.407 . S
C208 C207 1.332 . S
H209 C202 0.930 . S
H210 C233 0.930 . S
H211 C234 0.929 . S
O212 Tb168 2.465 . S
O212 C232 1.264 . S
O213 Tb168 2.387 . S
O213 C224 1.264 . S
O214 Tb179 2.349 . S
O214 C224 1.243 . S
O215 Tb168 2.428 . S
O215 C232 1.256 . S
O216 Tb168 2.308 . S
O216 C231 1.266 . S
O217 Tb179 2.393 . S
O217 C231 1.248 . S
O218 Tb179 2.465 . S
O218 C243 1.264 . S
O219 Tb179 2.387 . S
O219 C235 1.264 . S
O220 Tb168 2.349 . S
O220 C235 1.243 . S
O221 Tb179 2.428 . S
O221 C243 1.256 . S
O222 Tb179 2.308 . S
O222 C242 1.266 . S
O223 Tb168 2.393 . S
O223 C242 1.248 . S
C224 O213 1.264 . S
C224 O214 1.243 . S
C225 C228 1.399 . S
C225 C230 1.383 . S
C225 C232 1.496 . S
C226 C227 1.399 . S
C226 C230 1.389 . S
C227 C226 1.399 . S
C227 C229 1.380 . S
C227 H244 0.929 . S
C228 C225 1.399 . S
C228 C229 1.392 . S
C228 H245 0.929 . S
C229 C227 1.380 . S
C229 C228 1.392 . S
C229 H246 0.929 . S
C230 C225 1.383 . S
C230 C226 1.389 . S
C230 H247 0.931 . S
C231 O216 1.266 . S
C231 O217 1.248 . S
C232 Tb168 2.802 . S
C232 O212 1.264 . S
C232 O215 1.256 . S
C232 C225 1.496 . S
C233 C200 1.448 . S
C233 H210 0.930 . S
C233 C234 1.328 . S
C234 C205 1.427 . S
C234 H211 0.929 . S
C234 C233 1.328 . S
C235 O219 1.264 . S
C235 O220 1.243 . S
C236 C239 1.399 . S
C236 C240 1.383 . S
C236 C243 1.496 . S
C237 C238 1.399 . S
C237 C240 1.389 1_554 S
C238 C237 1.399 . S
C238 C241 1.380 . S
C238 H248 0.929 . S
C239 C236 1.399 . S
C239 C241 1.392 1_556 S
C239 H249 0.929 . S
C240 C236 1.383 . S
C240 C237 1.389 1_556 S
C240 H250 0.931 . S
C241 C238 1.380 . S
C241 C239 1.392 1_554 S
C241 H251 0.929 1_565 S
C242 O222 1.266 . S
C242 O223 1.248 . S
C243 Tb179 2.802 . S
C243 O218 1.264 . S
C243 O221 1.256 . S
C243 C236 1.496 . S
H244 C227 0.929 . S
H245 C228 0.929 . S
H246 C229 0.929 . S
H247 C230 0.931 . S
H248 C238 0.929 . S
H249 C239 0.929 . S
H250 C240 0.931 . S
H251 C241 0.929 1_545 S
Tb252 N281 2.617 . S
Tb252 N287 2.572 . S
Tb252 O296 2.465 . S
Tb252 O297 2.387 1_554 S
Tb252 O299 2.428 . S
Tb252 O300 2.308 . S
Tb252 O304 2.349 . S
Tb252 O307 2.393 . S
Tb252 C316 2.802 . S
C253 N254 1.379 . S
C253 C256 1.416 1_655 S
C253 C260 1.424 . S
N254 C253 1.379 . S
N254 C257 1.334 1_655 S
N254 Tb263 2.617 . S
C255 C257 1.390 . S
C255 C258 1.339 . S
C255 H275 0.930 . S
C256 C253 1.416 1_455 S
C256 C258 1.416 . S
C256 C262 1.448 . S
C257 N254 1.334 1_455 S
C257 C255 1.390 . S
C257 H268 0.930 . S
C258 C255 1.339 . S
C258 C256 1.416 . S
C258 H279 0.930 . S
C259 C260 1.413 . S
C259 C261 1.427 . S
C259 C265 1.416 . S
C260 C253 1.424 . S
C260 C259 1.413 . S
C260 N264 1.361 . S
C261 C259 1.427 . S
C261 C262 1.328 1_655 S
C261 H276 0.929 . S
C262 C256 1.448 . S
C262 C261 1.328 1_455 S
C262 H277 0.930 . S
Tb263 N254 2.617 . S
Tb263 N264 2.572 . S
Tb263 O298 2.349 . S
Tb263 O301 2.393 1_556 S
Tb263 O302 2.465 . S
Tb263 O303 2.387 1_556 S
Tb263 O305 2.428 . S
Tb263 O306 2.308 . S
Tb263 C327 2.802 . S
N264 C260 1.361 . S
N264 Tb263 2.572 . S
N264 C266 1.340 . S
C265 C259 1.416 . S
C265 C267 1.332 . S
C265 H273 0.931 . S
C266 N264 1.340 . S
C266 C267 1.407 . S
C266 H272 0.930 . S
C267 C265 1.332 . S
C267 C266 1.407 . S
C267 H269 0.929 . S
H268 C257 0.930 . S
H269 C267 0.929 . S
H270 C285 0.930 . S
H271 C292 0.929 . S
H272 C266 0.930 . S
H273 C265 0.931 . S
H274 C288 0.930 . S
H275 C255 0.930 . S
H276 C261 0.929 . S
H277 C262 0.930 . S
H278 C283 0.930 . S
H279 C258 0.930 . S
H280 C291 0.931 . S
N281 Tb252 2.617 . S
N281 C282 1.379 . S
N281 C285 1.334 . S
C282 N281 1.379 . S
C282 C284 1.416 . S
C282 C290 1.424 . S
C283 H278 0.930 . S
C283 C285 1.390 . S
C283 C286 1.339 . S
C284 C282 1.416 . S
C284 C286 1.416 . S
C284 C317 1.448 . S
C285 H270 0.930 . S
C285 N281 1.334 . S
C285 C283 1.390 . S
C286 C283 1.339 . S
C286 C284 1.416 . S
C286 H293 0.930 . S
N287 Tb252 2.572 . S
N287 C288 1.340 . S
N287 C290 1.361 . S
C288 H274 0.930 . S
C288 N287 1.340 . S
C288 C292 1.407 . S
C289 C290 1.413 . S
C289 C291 1.416 . S
C289 C318 1.427 . S
C290 C282 1.424 . S
C290 N287 1.361 . S
C290 C289 1.413 . S
C291 H280 0.931 . S
C291 C289 1.416 . S
C291 C292 1.332 . S
C292 H271 0.929 . S
C292 C288 1.407 . S
C292 C291 1.332 . S
H293 C286 0.930 . S
H294 C317 0.930 . S
H295 C318 0.929 . S
O296 Tb252 2.465 . S
O296 C316 1.264 . S
O297 Tb252 2.387 1_556 S
O297 C308 1.264 . S
O298 Tb263 2.349 . S
O298 C308 1.243 . S
O299 Tb252 2.428 . S
O299 C316 1.256 . S
O300 Tb252 2.308 . S
O300 C315 1.266 . S
O301 Tb263 2.393 1_554 S
O301 C315 1.248 . S
O302 Tb263 2.465 . S
O302 C327 1.264 . S
O303 Tb263 2.387 1_554 S
O303 C319 1.264 . S
O304 Tb252 2.349 . S
O304 C319 1.243 . S
O305 Tb263 2.428 . S
O305 C327 1.256 . S
O306 Tb263 2.308 . S
O306 C326 1.266 . S
O307 Tb252 2.393 . S
O307 C326 1.248 1_554 S
C308 O297 1.264 . S
C308 O298 1.243 . S
C309 C312 1.399 . S
C309 C314 1.383 . S
C309 C316 1.496 . S
C310 C311 1.399 . S
C310 C314 1.389 . S
C311 C310 1.399 . S
C311 C313 1.380 . S
C311 H328 0.929 . S
C312 C309 1.399 . S
C312 C313 1.392 . S
C312 H329 0.929 . S
C313 C311 1.380 . S
C313 C312 1.392 . S
C313 H330 0.929 . S
C314 C309 1.383 . S
C314 C310 1.389 . S
C314 H331 0.931 . S
C315 O300 1.266 . S
C315 O301 1.248 . S
C316 Tb252 2.802 . S
C316 O296 1.264 . S
C316 O299 1.256 . S
C316 C309 1.496 . S
C317 C284 1.448 . S
C317 H294 0.930 . S
C317 C318 1.328 . S
C318 C289 1.427 . S
C318 H295 0.929 . S
C318 C317 1.328 . S
C319 O303 1.264 . S
C319 O304 1.243 . S
C320 C323 1.399 . S
C320 C324 1.383 . S
C320 C327 1.496 . S
C321 C322 1.399 . S
C321 C324 1.389 . S
C322 C321 1.399 . S
C322 C325 1.380 . S
C322 H332 0.929 . S
C323 C320 1.399 . S
C323 C325 1.392 . S
C323 H333 0.929 . S
C324 C320 1.383 . S
C324 C321 1.389 . S
C324 H334 0.931 . S
C325 C322 1.380 . S
C325 C323 1.392 . S
C325 H335 0.929 1_655 S
C326 O306 1.266 . S
C326 O307 1.248 1_556 S
C327 Tb263 2.802 . S
C327 O302 1.264 . S
C327 O305 1.256 . S
C327 C320 1.496 . S
H328 C311 0.929 . S
H329 C312 0.929 . S
H330 C313 0.929 . S
H331 C314 0.931 . S
H332 C322 0.929 . S
H333 C323 0.929 . S
H334 C324 0.931 . S
H335 C325 0.929 1_455 S
Tb336 N365 2.617 . S
Tb336 N371 2.572 . S
Tb336 O380 2.465 . S
Tb336 O381 2.387 . S
Tb336 O383 2.428 . S
Tb336 O384 2.308 . S
Tb336 O388 2.349 . S
Tb336 O391 2.393 . S
Tb336 C400 2.802 . S
C337 N338 1.379 . S
C337 C340 1.416 1_455 S
C337 C344 1.424 . S
N338 C337 1.379 . S
N338 C341 1.334 1_455 S
N338 Tb347 2.617 . S
C339 C341 1.390 . S
C339 C342 1.339 . S
C339 H359 0.930 . S
C340 C337 1.416 1_655 S
C340 C342 1.416 . S
C340 C346 1.448 . S
C341 N338 1.334 1_655 S
C341 C339 1.390 . S
C341 H352 0.930 . S
C342 C339 1.339 . S
C342 C340 1.416 . S
C342 H363 0.930 . S
C343 C344 1.413 . S
C343 C345 1.427 . S
C343 C349 1.416 . S
C344 C337 1.424 . S
C344 C343 1.413 . S
C344 N348 1.361 . S
C345 C343 1.427 . S
C345 C346 1.328 1_455 S
C345 H360 0.929 . S
C346 C340 1.448 . S
C346 C345 1.328 1_655 S
C346 H361 0.930 . S
Tb347 N338 2.617 . S
Tb347 N348 2.572 . S
Tb347 O382 2.349 . S
Tb347 O385 2.393 . S
Tb347 O386 2.465 . S
Tb347 O387 2.387 . S
Tb347 O389 2.428 . S
Tb347 O390 2.308 . S
Tb347 C411 2.802 . S
N348 C344 1.361 . S
N348 Tb347 2.572 . S
N348 C350 1.340 . S
C349 C343 1.416 . S
C349 C351 1.332 . S
C349 H357 0.931 . S
C350 N348 1.340 . S
C350 C351 1.407 . S
C350 H356 0.930 . S
C351 C349 1.332 . S
C351 C350 1.407 . S
C351 H353 0.929 . S
H352 C341 0.930 . S
H353 C351 0.929 . S
H354 C369 0.930 . S
H355 C376 0.929 . S
H356 C350 0.930 . S
H357 C349 0.931 . S
H358 C372 0.930 . S
H359 C339 0.930 . S
H360 C345 0.929 . S
H361 C346 0.930 . S
H362 C367 0.930 . S
H363 C342 0.930 . S
H364 C375 0.931 . S
N365 Tb336 2.617 . S
N365 C366 1.379 1_565 S
N365 C369 1.334 . S
C366 N365 1.379 1_545 S
C366 C368 1.416 . S
C366 C374 1.424 . S
C367 H362 0.930 . S
C367 C369 1.390 1_545 S
C367 C370 1.339 . S
C368 C366 1.416 . S
C368 C370 1.416 . S
C368 C401 1.448 . S
C369 H354 0.930 . S
C369 N365 1.334 . S
C369 C367 1.390 1_565 S
C370 C367 1.339 . S
C370 C368 1.416 . S
C370 H377 0.930 . S
N371 Tb336 2.572 . S
N371 C372 1.340 . S
N371 C374 1.361 1_565 S
C372 H358 0.930 . S
C372 N371 1.340 . S
C372 C376 1.407 1_565 S
C373 C374 1.413 . S
C373 C375 1.416 . S
C373 C402 1.427 . S
C374 C366 1.424 . S
C374 N371 1.361 1_545 S
C374 C373 1.413 . S
C375 H364 0.931 . S
C375 C373 1.416 . S
C375 C376 1.332 . S
C376 H355 0.929 . S
C376 C372 1.407 1_545 S
C376 C375 1.332 . S
H377 C370 0.930 . S
H378 C401 0.930 . S
H379 C402 0.929 . S
O380 Tb336 2.465 . S
O380 C400 1.264 . S
O381 Tb336 2.387 . S
O381 C392 1.264 . S
O382 Tb347 2.349 . S
O382 C392 1.243 . S
O383 Tb336 2.428 . S
O383 C400 1.256 . S
O384 Tb336 2.308 . S
O384 C399 1.266 . S
O385 Tb347 2.393 . S
O385 C399 1.248 . S
O386 Tb347 2.465 . S
O386 C411 1.264 . S
O387 Tb347 2.387 . S
O387 C403 1.264 . S
O388 Tb336 2.349 . S
O388 C403 1.243 . S
O389 Tb347 2.428 . S
O389 C411 1.256 . S
O390 Tb347 2.308 . S
O390 C410 1.266 . S
O391 Tb336 2.393 . S
O391 C410 1.248 . S
C392 O381 1.264 . S
C392 O382 1.243 . S
C393 C396 1.399 . S
C393 C398 1.383 . S
C393 C400 1.496 . S
C394 C395 1.399 . S
C394 C398 1.389 1_556 S
C395 C394 1.399 . S
C395 C397 1.380 . S
C395 H412 0.929 . S
C396 C393 1.399 . S
C396 C397 1.392 1_554 S
C396 H413 0.929 . S
C397 C395 1.380 . S
C397 C396 1.392 1_556 S
C397 H414 0.929 . S
C398 C393 1.383 . S
C398 C394 1.389 1_554 S
C398 H415 0.931 . S
C399 O384 1.266 . S
C399 O385 1.248 . S
C400 Tb336 2.802 . S
C400 O380 1.264 . S
C400 O383 1.256 . S
C400 C393 1.496 . S
C401 C368 1.448 . S
C401 H378 0.930 . S
C401 C402 1.328 . S
C402 C373 1.427 . S
C402 H379 0.929 . S
C402 C401 1.328 . S
C403 O387 1.264 . S
C403 O388 1.243 . S
C404 C407 1.399 . S
C404 C408 1.383 . S
C404 C411 1.496 . S
C405 C406 1.399 . S
C405 C408 1.389 . S
C406 C405 1.399 . S
C406 C409 1.380 . S
C406 H416 0.929 . S
C407 C404 1.399 . S
C407 C409 1.392 . S
C407 H417 0.929 . S
C408 C404 1.383 . S
C408 C405 1.389 . S
C408 H418 0.931 . S
C409 C406 1.380 . S
C409 C407 1.392 . S
C409 H419 0.929 1_455 S
C410 O390 1.266 . S
C410 O391 1.248 . S
C411 Tb347 2.802 . S
C411 O386 1.264 . S
C411 O389 1.256 . S
C411 C404 1.496 . S
H412 C395 0.929 . S
H413 C396 0.929 . S
H414 C397 0.929 . S
H415 C398 0.931 . S
H416 C406 0.929 . S
H417 C407 0.929 . S
H418 C408 0.931 . S
H419 C409 0.929 1_655 S
Tb420 N449 2.617 . S
Tb420 N455 2.572 . S
Tb420 O464 2.465 . S
Tb420 O465 2.387 . S
Tb420 O467 2.428 . S
Tb420 O468 2.308 . S
Tb420 O472 2.349 . S
Tb420 O475 2.393 . S
Tb420 C484 2.802 . S
C421 N422 1.379 . S
C421 C424 1.416 . S
C421 C428 1.424 . S
N422 C421 1.379 . S
N422 C425 1.334 . S
N422 Tb431 2.617 . S
C423 C425 1.390 . S
C423 C426 1.339 . S
C423 H443 0.930 . S
C424 C421 1.416 . S
C424 C426 1.416 . S
C424 C430 1.448 . S
C425 N422 1.334 . S
C425 C423 1.390 . S
C425 H436 0.930 . S
C426 C423 1.339 . S
C426 C424 1.416 . S
C426 H447 0.930 . S
C427 C428 1.413 . S
C427 C429 1.427 . S
C427 C433 1.416 . S
C428 C421 1.424 . S
C428 C427 1.413 . S
C428 N432 1.361 . S
C429 C427 1.427 . S
C429 C430 1.328 . S
C429 H444 0.929 . S
C430 C424 1.448 . S
C430 C429 1.328 . S
C430 H445 0.930 . S
Tb431 N422 2.617 . S
Tb431 N432 2.572 . S
Tb431 O466 2.349 . S
Tb431 O469 2.393 . S
Tb431 O470 2.465 . S
Tb431 O471 2.387 . S
Tb431 O473 2.428 . S
Tb431 O474 2.308 . S
Tb431 C495 2.802 . S
N432 C428 1.361 . S
N432 Tb431 2.572 . S
N432 C434 1.340 . S
C433 C427 1.416 . S
C433 C435 1.332 . S
C433 H441 0.931 . S
C434 N432 1.340 . S
C434 C435 1.407 . S
C434 H440 0.930 . S
C435 C433 1.332 . S
C435 C434 1.407 . S
C435 H437 0.929 . S
H436 C425 0.930 . S
H437 C435 0.929 . S
H438 C453 0.930 . S
H439 C460 0.929 . S
H440 C434 0.930 . S
H441 C433 0.931 . S
H442 C456 0.930 . S
H443 C423 0.930 . S
H444 C429 0.929 . S
H445 C430 0.930 . S
H446 C451 0.930 . S
H447 C426 0.930 . S
H448 C459 0.931 . S
N449 Tb420 2.617 . S
N449 C450 1.379 1_545 S
N449 C453 1.334 . S
C450 N449 1.379 1_565 S
C450 C452 1.416 . S
C450 C458 1.424 . S
C451 H446 0.930 . S
C451 C453 1.390 1_565 S
C451 C454 1.339 . S
C452 C450 1.416 . S
C452 C454 1.416 . S
C452 C485 1.448 . S
C453 H438 0.930 . S
C453 N449 1.334 . S
C453 C451 1.390 1_545 S
C454 C451 1.339 . S
C454 C452 1.416 . S
C454 H461 0.930 . S
N455 Tb420 2.572 . S
N455 C456 1.340 . S
N455 C458 1.361 1_545 S
C456 H442 0.930 . S
C456 N455 1.340 . S
C456 C460 1.407 1_545 S
C457 C458 1.413 . S
C457 C459 1.416 . S
C457 C486 1.427 . S
C458 C450 1.424 . S
C458 N455 1.361 1_565 S
C458 C457 1.413 . S
C459 H448 0.931 . S
C459 C457 1.416 . S
C459 C460 1.332 . S
C460 H439 0.929 . S
C460 C456 1.407 1_565 S
C460 C459 1.332 . S
H461 C454 0.930 . S
H462 C485 0.930 . S
H463 C486 0.929 . S
O464 Tb420 2.465 . S
O464 C484 1.264 . S
O465 Tb420 2.387 . S
O465 C476 1.264 . S
O466 Tb431 2.349 . S
O466 C476 1.243 . S
O467 Tb420 2.428 . S
O467 C484 1.256 . S
O468 Tb420 2.308 . S
O468 C483 1.266 . S
O469 Tb431 2.393 . S
O469 C483 1.248 . S
O470 Tb431 2.465 . S
O470 C495 1.264 . S
O471 Tb431 2.387 . S
O471 C487 1.264 . S
O472 Tb420 2.349 . S
O472 C487 1.243 . S
O473 Tb431 2.428 . S
O473 C495 1.256 . S
O474 Tb431 2.308 . S
O474 C494 1.266 . S
O475 Tb420 2.393 . S
O475 C494 1.248 . S
C476 O465 1.264 . S
C476 O466 1.243 . S
C477 C480 1.399 . S
C477 C482 1.383 . S
C477 C484 1.496 . S
C478 C479 1.399 . S
C478 C482 1.389 1_554 S
C479 C478 1.399 . S
C479 C481 1.380 . S
C479 H496 0.929 . S
C480 C477 1.399 . S
C480 C481 1.392 1_556 S
C480 H497 0.929 . S
C481 C479 1.380 . S
C481 C480 1.392 1_554 S
C481 H498 0.929 . S
C482 C477 1.383 . S
C482 C478 1.389 1_556 S
C482 H499 0.931 . S
C483 O468 1.266 . S
C483 O469 1.248 . S
C484 Tb420 2.802 . S
C484 O464 1.264 . S
C484 O467 1.256 . S
C484 C477 1.496 . S
C485 C452 1.448 . S
C485 H462 0.930 . S
C485 C486 1.328 . S
C486 C457 1.427 . S
C486 H463 0.929 . S
C486 C485 1.328 . S
C487 O471 1.264 . S
C487 O472 1.243 . S
C488 C491 1.399 . S
C488 C492 1.383 . S
C488 C495 1.496 . S
C489 C490 1.399 . S
C489 C492 1.389 . S
C490 C489 1.399 . S
C490 C493 1.380 . S
C490 H500 0.929 . S
C491 C488 1.399 . S
C491 C493 1.392 . S
C491 H501 0.929 . S
C492 C488 1.383 . S
C492 C489 1.389 . S
C492 H502 0.931 . S
C493 C490 1.380 . S
C493 C491 1.392 . S
C493 H503 0.929 . S
C494 O474 1.266 . S
C494 O475 1.248 . S
C495 Tb431 2.802 . S
C495 O470 1.264 . S
C495 O473 1.256 . S
C495 C488 1.496 . S
H496 C479 0.929 . S
H497 C480 0.929 . S
H498 C481 0.929 . S
H499 C482 0.931 . S
H500 C490 0.929 . S
H501 C491 0.929 . S
H502 C492 0.931 . S
H503 C493 0.929 . S
C504 C505 1.170 . S
C504 C506 1.380 . S
C505 C504 1.170 . S
C506 C504 1.380 . S
C506 C507 1.170 . S
C507 C506 1.170 . S
C508 C509 1.170 . S
C508 C510 1.380 1_455 S
C509 C508 1.170 . S
C510 C508 1.380 1_655 S
C510 C511 1.170 . S
C511 C510 1.170 . S
C512 C513 1.170 . S
C512 C514 1.380 1_545 S
C513 C512 1.170 . S
C514 C512 1.380 1_565 S
C514 C515 1.170 . S
C515 C514 1.170 . S
C516 C517 1.170 . S
C516 C518 1.380 . S
C517 C516 1.170 . S
C518 C516 1.380 . S
C518 C519 1.170 . S
C519 C518 1.170 . S
C520 C521 1.170 . S
C520 C522 1.380 1_455 S
C521 C520 1.170 . S
C522 C520 1.380 1_655 S
C522 C523 1.170 . S
C523 C522 1.170 . S
C524 C525 1.170 . S
C524 C526 1.380 1_545 S
C525 C524 1.170 . S
C526 C524 1.380 1_565 S
C526 C527 1.170 . S
C527 C526 1.170 . S
C528 C529 1.170 . S
C528 C530 1.380 . S
C529 C528 1.170 . S
C530 C528 1.380 . S
C530 C531 1.170 . S
C531 C530 1.170 . S
C532 C533 1.170 . S
C532 C534 1.380 . S
C533 C532 1.170 . S
C534 C532 1.380 . S
C534 C535 1.170 . S
C535 C534 1.170 . S
C536 C537 1.170 . S
C536 C538 1.380 . S
C537 C536 1.170 . S
C538 C536 1.380 . S
C538 C539 1.170 . S
C539 C538 1.170 . S
C540 C541 1.170 . S
C540 C542 1.380 . S
C541 C540 1.170 . S
C542 C540 1.380 . S
C542 C543 1.170 . S
C543 C542 1.170 . S
C544 C545 1.170 . S
C544 C546 1.380 . S
C545 C544 1.170 . S
C546 C544 1.380 . S
C546 C547 1.170 . S
C547 C546 1.170 . S
C548 C549 1.170 . S
C548 C550 1.380 . S
C549 C548 1.170 . S
C550 C548 1.380 . S
C550 C551 1.170 . S
C551 C550 1.170 . S
C552 C553 1.170 . S
C552 C554 1.380 . S
C553 C552 1.170 . S
C554 C552 1.380 . S
C554 C555 1.170 . S
C555 C554 1.170 . S
C556 C557 1.170 . S
C556 C558 1.380 . S
C557 C556 1.170 . S
C558 C556 1.380 . S
C558 C559 1.170 . S
C559 C558 1.170 . S
C560 C561 1.170 . S
C560 C562 1.380 . S
C561 C560 1.170 . S
C562 C560 1.380 . S
C562 C563 1.170 . S
C563 C562 1.170 . S
C564 C565 1.170 . S
C564 C566 1.380 . S
C565 C564 1.170 . S
C566 C564 1.380 . S
C566 C567 1.170 . S
C567 C566 1.170 . S
C568 C569 1.170 . S
C568 C570 1.380 . S
C569 C568 1.170 . S
C570 C568 1.380 . S
C570 C571 1.170 . S
C571 C570 1.170 . S
C572 C573 1.170 . S
C572 C574 1.380 . S
C573 C572 1.170 . S
C574 C572 1.380 . S
C574 C575 1.170 . S
C575 C574 1.170 . S
C505 C483 1.449 . S
C507 C63 1.449 . S
C509 C56 1.394 . S
C511 C140 1.426 . S
C513 C147 1.456 . S
C515 C231 1.458 . S
C517 C224 1.382 . S
C519 C308 1.402 . S
C521 C399 1.449 . S
C523 C315 1.449 . S
C525 C476 1.401 . S
C527 C392 1.382 . S
C529 C58 1.226 . S
C531 C69 1.270 . S
C533 C153 1.271 . S
C535 C142 1.226 . S
C537 C226 1.257 . S
C539 C237 1.257 . S
C541 C321 1.226 . S
C543 C310 1.269 . S
C545 C405 1.235 . S
C547 C394 1.273 . S
C549 C489 1.248 . S
C551 C478 1.265 . S
C553 C74 1.687 . S
C555 C403 1.661 . S
C557 C151 1.667 . S
C559 C494 1.686 . S
C561 C67 1.661 . S
C563 C242 1.686 . S
C565 C158 1.679 . S
C567 C319 1.655 . S
C569 C410 1.682 . S
C571 C235 1.674 . S
C573 C326 1.676 . S
C575 C487 1.663 . S
