# Generated by pormake.
# Topology wjd, (6)-cn, num edge types: 1
# Building blocks:
#     Node 0, Type 0, BuildingBlock: KUMBOL_clean_sbu_0, # of connection points: 6
#     Node 1, Type 0, BuildingBlock: KUMBOL_clean_sbu_0, # of connection points: 6
#     Node 2, Type 0, BuildingBlock: KUMBOL_clean_sbu_0, # of connection points: 6
#     Node 3, Type 0, BuildingBlock: KUMBOL_clean_sbu_0, # of connection points: 6
#     Node 4, Type 0, BuildingBlock: KUMBOL_clean_sbu_0, # of connection points: 6
#     Node 5, Type 0, BuildingBlock: KUMBOL_clean_sbu_0, # of connection points: 6
#     Node 6, Type 0, BuildingBlock: KUMBOL_clean_sbu_0, # of connection points: 6
#     Node 7, Type 0, BuildingBlock: KUMBOL_clean_sbu_0, # of connection points: 6
#     Node 8, Type 0, BuildingBlock: KUMBOL_clean_sbu_0, # of connection points: 6
#     Node 9, Type 0, BuildingBlock: KUMBOL_clean_sbu_0, # of connection points: 6
#     Node 10, Type 0, BuildingBlock: KUMBOL_clean_sbu_0, # of connection points: 6
#     Node 11, Type 0, BuildingBlock: KUMBOL_clean_sbu_0, # of connection points: 6
#     Edge 12, Type (0, 0), BuildingBlock: KIFKEQ_clean_linker_1, # of connection points: 2
#     Edge 13, Type (0, 0), BuildingBlock: KIFKEQ_clean_linker_1, # of connection points: 2
#     Edge 14, Type (0, 0), BuildingBlock: KIFKEQ_clean_linker_1, # of connection points: 2
#     Edge 15, Type (0, 0), BuildingBlock: KIFKEQ_clean_linker_1, # of connection points: 2
#     Edge 16, Type (0, 0), BuildingBlock: KIFKEQ_clean_linker_1, # of connection points: 2
#     Edge 17, Type (0, 0), BuildingBlock: KIFKEQ_clean_linker_1, # of connection points: 2
#     Edge 18, Type (0, 0), BuildingBlock: KIFKEQ_clean_linker_1, # of connection points: 2
#     Edge 19, Type (0, 0), BuildingBlock: KIFKEQ_clean_linker_1, # of connection points: 2
#     Edge 20, Type (0, 0), BuildingBlock: KIFKEQ_clean_linker_1, # of connection points: 2
#     Edge 21, Type (0, 0), BuildingBlock: KIFKEQ_clean_linker_1, # of connection points: 2
#     Edge 22, Type (0, 0), BuildingBlock: KIFKEQ_clean_linker_1, # of connection points: 2
#     Edge 23, Type (0, 0), BuildingBlock: KIFKEQ_clean_linker_1, # of connection points: 2
#     Edge 24, Type (0, 0), BuildingBlock: KIFKEQ_clean_linker_1, # of connection points: 2
#     Edge 25, Type (0, 0), BuildingBlock: KIFKEQ_clean_linker_1, # of connection points: 2
#     Edge 26, Type (0, 0), BuildingBlock: KIFKEQ_clean_linker_1, # of connection points: 2
#     Edge 27, Type (0, 0), BuildingBlock: KIFKEQ_clean_linker_1, # of connection points: 2
#     Edge 28, Type (0, 0), BuildingBlock: KIFKEQ_clean_linker_1, # of connection points: 2
#     Edge 29, Type (0, 0), BuildingBlock: KIFKEQ_clean_linker_1, # of connection points: 2
#     Edge 30, Type (0, 0), BuildingBlock: KIFKEQ_clean_linker_1, # of connection points: 2
#     Edge 31, Type (0, 0), BuildingBlock: KIFKEQ_clean_linker_1, # of connection points: 2
#     Edge 32, Type (0, 0), BuildingBlock: KIFKEQ_clean_linker_1, # of connection points: 2
#     Edge 33, Type (0, 0), BuildingBlock: KIFKEQ_clean_linker_1, # of connection points: 2
#     Edge 34, Type (0, 0), BuildingBlock: KIFKEQ_clean_linker_1, # of connection points: 2
#     Edge 35, Type (0, 0), BuildingBlock: KIFKEQ_clean_linker_1, # of connection points: 2
#     Edge 36, Type (0, 0), BuildingBlock: KIFKEQ_clean_linker_1, # of connection points: 2
#     Edge 37, Type (0, 0), BuildingBlock: KIFKEQ_clean_linker_1, # of connection points: 2
#     Edge 38, Type (0, 0), BuildingBlock: KIFKEQ_clean_linker_1, # of connection points: 2
#     Edge 39, Type (0, 0), BuildingBlock: KIFKEQ_clean_linker_1, # of connection points: 2
#     Edge 40, Type (0, 0), BuildingBlock: KIFKEQ_clean_linker_1, # of connection points: 2
#     Edge 41, Type (0, 0), BuildingBlock: KIFKEQ_clean_linker_1, # of connection points: 2
#     Edge 42, Type (0, 0), BuildingBlock: KIFKEQ_clean_linker_1, # of connection points: 2
#     Edge 43, Type (0, 0), BuildingBlock: KIFKEQ_clean_linker_1, # of connection points: 2
#     Edge 44, Type (0, 0), BuildingBlock: KIFKEQ_clean_linker_1, # of connection points: 2
#     Edge 45, Type (0, 0), BuildingBlock: KIFKEQ_clean_linker_1, # of connection points: 2
#     Edge 46, Type (0, 0), BuildingBlock: KIFKEQ_clean_linker_1, # of connection points: 2
#     Edge 47, Type (0, 0), BuildingBlock: KIFKEQ_clean_linker_1, # of connection points: 2
# Relax obj value: 0.097
# Max RMSD: 0.214
# Mean RMSD: 0.214
data_MOF--net-wjd--node1-KUMBOL_clean_sbu_0--edge1-KIFKEQ_clean_linker_1
_symmetry_space_group_name_H-M    P1
_symmetry_Int_Tables_number       1
_symmetry_cell_setting            triclinic
loop_
_symmetry_equiv_pos_as_xyz
'x, y, z'
_cell_length_a     38.997551
_cell_length_b     38.982547
_cell_length_c     56.203034
_cell_angle_alpha  89.938989
_cell_angle_beta   90.015978
_cell_angle_gamma 119.98919
loop_
_atom_site_label
_atom_site_type_symbol
_atom_site_fract_x
_atom_site_fract_y
_atom_site_fract_z
_atom_type_partial_charge
Gd0 Gd 0.32518 0.08803 0.13474 0.0
Gd1 Gd 0.37381 0.18731 0.1068 0.0
C2 C 0.30252 0.24729 0.08703 0.0
C3 C 0.30064 0.24299 0.0439 0.0
C4 C 0.33504 0.21654 0.06692 0.0
C5 C 0.32363 0.22661 0.08777 0.0
C6 C 0.32478 0.22575 0.0447 0.0
C7 C 0.28964 0.25391 0.06506 0.0
C8 C 0.29716 0.26281 0.10822 0.0
C9 C 0.31405 0.25891 0.12921 0.0
N10 N 0.33744 0.22062 0.10861 0.0
C11 C 0.33463 0.23805 0.12902 0.0
H12 H 0.34756 0.23534 0.14537 0.0
C13 C 0.37827 0.19865 0.04847 0.0
N14 N 0.3599 0.20179 0.06842 0.0
C15 C 0.36845 0.2066 0.026 0.0
C16 C 0.341 0.21952 0.02406 0.0
H17 H 0.39945 0.18855 0.04992 0.0
H18 H 0.27276 0.26907 0.06418 0.0
H19 H 0.36715 0.0495 0.09888 0.0
H20 H 0.28135 0.27909 0.1084 0.0
H21 H 0.31109 0.2718 0.14558 0.0
H22 H 0.29201 0.24984 0.02701 0.0
H23 H 0.29388 0.09035 0.19012 0.0
H24 H 0.41942 0.99804 0.14217 0.0
H25 H 0.40503 1.01521 0.10249 0.0
H26 H 0.38153 1.01109 0.22123 0.0
H27 H 0.38212 0.20286 0.01021 0.0
H28 H 0.33382 0.22617 0.00666 0.0
H29 H 0.41055 0.99668 0.18644 0.0
H30 H 0.30034 0.0705 0.23059 0.0
N31 N 0.36065 0.05353 0.13631 0.0
C32 C 0.40278 1.0134 0.14075 0.0
C33 C 0.39464 0.02295 0.11834 0.0
C34 C 0.38843 0.02284 0.16102 0.0
C35 C 0.36706 0.04301 0.15817 0.0
C36 C 0.37301 0.04261 0.11642 0.0
N37 N 0.3297 0.06959 0.17411 0.0
C38 C 0.35084 0.05106 0.17768 0.0
C39 C 0.31478 0.06492 0.21587 0.0
C40 C 0.3371 0.04654 0.21984 0.0
C41 C 0.31112 0.07605 0.19278 0.0
C42 C 0.35541 0.03929 0.20066 0.0
H43 H 0.33946 0.03749 0.23768 0.0
O44 O 0.26308 0.0494 0.14441 0.0
O45 O 0.31714 0.13731 0.12013 0.0
O46 O 0.37268 0.18887 0.1484 0.0
O47 O 0.36968 0.13019 0.16047 0.0
O48 O 0.28757 0.1109 0.15119 0.0
O49 O 0.28793 0.03518 0.11424 0.0
O50 O 0.43123 0.23218 0.09258 0.0
O51 O 0.38227 0.13913 0.12157 0.0
O52 O 0.33229 0.08385 0.09543 0.0
O53 O 0.33537 0.13967 0.07855 0.0
O54 O 0.41495 0.16754 0.09186 0.0
O55 O 0.41317 0.24033 0.12716 0.0
C56 C 0.29343 0.13725 0.13554 0.0
C57 C 0.37751 0.02015 0.2037 0.0
C58 C 0.39405 1.012 0.18391 0.0
C59 C 0.25654 0.02439 0.12729 0.0
C60 C 0.23213 0.98173 0.1328 0.0
C61 C 0.25002 0.95957 0.13927 0.0
C62 C 0.19052 0.96243 0.13024 0.0
C63 C 0.16715 0.92105 0.13338 0.0
C64 C 0.22695 0.91868 0.1426 0.0
C65 C 0.18591 0.89948 0.13947 0.0
C66 C 0.37681 0.1664 0.16494 0.0
C67 C 0.40817 0.1405 0.10734 0.0
C68 C 0.43969 0.2564 0.11045 0.0
C69 C 0.45298 0.29866 0.10471 0.0
C70 C 0.42672 0.30771 0.09305 0.0
C71 C 0.49097 0.33028 0.1113 0.0
C72 C 0.50142 0.3703 0.10684 0.0
C73 C 0.4368 0.34682 0.08873 0.0
C74 C 0.47359 0.37782 0.09569 0.0
C75 C 0.32709 0.10203 0.0772 0.0
H76 H 0.28184 0.97379 0.1414 0.0
H77 H 0.17651 0.97937 0.1252 0.0
H78 H 0.24098 0.90172 0.14745 0.0
H79 H 0.16869 0.86771 0.14209 0.0
H80 H 0.39825 0.2845 0.08726 0.0
H81 H 0.51192 0.32389 0.12005 0.0
H82 H 0.41595 0.35315 0.07982 0.0
H83 H 0.48073 0.40792 0.09183 0.0
Gd84 Gd 0.84729 0.66432 0.39888 0.0
Gd85 Gd 0.7959 0.71104 0.36907 0.0
C86 C 0.67042 0.64027 0.33925 0.0
C87 C 0.68202 0.64741 0.29657 0.0
C88 C 0.73713 0.68025 0.32417 0.0
C89 C 0.71148 0.66424 0.34318 0.0
C90 C 0.72271 0.67229 0.30062 0.0
C91 C 0.65591 0.63149 0.31585 0.0
C92 C 0.64513 0.62645 0.35895 0.0
C93 C 0.66086 0.63757 0.38179 0.0
N94 N 0.72652 0.67323 0.36554 0.0
C95 C 0.70178 0.66148 0.38476 0.0
H96 H 0.71342 0.66965 0.40254 0.0
C97 C 0.80232 0.72284 0.31051 0.0
N98 N 0.77627 0.70411 0.32875 0.0
C99 C 0.78947 0.71554 0.28686 0.0
C100 C 0.74956 0.68984 0.28188 0.0
H101 H 0.83332 0.74251 0.31396 0.0
H102 H 0.6245 0.61289 0.31248 0.0
H103 H 0.92178 0.69249 0.35972 0.0
H104 H 0.61342 0.60789 0.3567 0.0
H105 H 0.64151 0.62758 0.39714 0.0
H106 H 0.6704 0.64078 0.27861 0.0
H107 H 0.82256 0.64144 0.45588 0.0
H108 H 0.03161 0.75574 0.39677 0.0
H109 H 0.99442 0.72861 0.35941 0.0
H110 H 0.99209 0.74491 0.47835 0.0
H111 H 0.8104 0.72958 0.27249 0.0
H112 H 0.73975 0.68411 0.26356 0.0
H113 H 0.03046 0.7634 0.44111 0.0
H114 H 0.85429 0.65891 0.49554 0.0
N115 N 0.91706 0.70066 0.39683 0.0
C116 C 0.99955 0.74038 0.39702 0.0
C117 C 0.97866 0.72494 0.37591 0.0
C118 C 0.97879 0.73443 0.41834 0.0
C119 C 0.93702 0.71373 0.41768 0.0
C120 C 0.93726 0.70457 0.37619 0.0
N121 N 0.87582 0.67896 0.43716 0.0
C122 C 0.91558 0.70282 0.43856 0.0
C123 C 0.87187 0.67167 0.47967 0.0
C124 C 0.91253 0.69795 0.48147 0.0
C125 C 0.85404 0.6618 0.45723 0.0
C126 C 0.9351 0.71307 0.46075 0.0
H127 H 0.92639 0.70518 0.49886 0.0
O128 O 0.83539 0.60746 0.41376 0.0
O129 O 0.79053 0.65508 0.38386 0.0
O130 O 0.78432 0.70587 0.40851 0.0
O131 O 0.83711 0.70332 0.42604 0.0
O132 O 0.78644 0.62319 0.41395 0.0
O133 O 0.85942 0.62384 0.37855 0.0
O134 O 0.82361 0.77442 0.36261 0.0
O135 O 0.85262 0.72024 0.38518 0.0
O136 O 0.85204 0.66599 0.35758 0.0
O137 O 0.79582 0.66655 0.34406 0.0
O138 O 0.85716 0.74978 0.3538 0.0
O139 O 0.77019 0.7452 0.3835 0.0
C140 C 0.76612 0.62946 0.39827 0.0
C141 C 0.97657 0.73635 0.46148 0.0
C142 C 0.99841 0.74688 0.44029 0.0
C143 C 0.84977 0.59797 0.39561 0.0
C144 C 0.87872 0.5844 0.40079 0.0
C145 C 0.91476 0.61077 0.41168 0.0
C146 C 0.87161 0.54603 0.39441 0.0
C147 C 0.90113 0.53531 0.39831 0.0
C148 C 0.94373 0.60044 0.41545 0.0
C149 C 0.93717 0.56327 0.40869 0.0
C150 C 0.80767 0.71155 0.42689 0.0
C151 C 0.87701 0.74444 0.37021 0.0
C152 C 0.79693 0.77855 0.37405 0.0
C153 C 0.78322 0.80342 0.36216 0.0
C154 C 0.75616 0.78782 0.34337 0.0
C155 C 0.79894 0.84365 0.36867 0.0
C156 C 0.78788 0.86838 0.35626 0.0
C157 C 0.74518 0.81181 0.33099 0.0
C158 C 0.76101 0.8516 0.33716 0.0
C159 C 0.8257 0.66035 0.34065 0.0
H160 H 0.92064 0.63954 0.41729 0.0
H161 H 0.84373 0.525 0.38625 0.0
H162 H 0.97146 0.62139 0.42376 0.0
H163 H 0.96014 0.55597 0.41211 0.0
H164 H 0.74397 0.75722 0.33804 0.0
H165 H 0.81965 0.85544 0.38334 0.0
H166 H 0.72465 0.79963 0.31626 0.0
H167 H 0.75258 0.86932 0.32649 0.0
Gd168 Gd 0.94532 0.24454 0.1346 0.0
Gd169 Gd 0.84735 0.19667 0.10485 0.0
C170 C 0.7822 0.06629 0.08262 0.0
C171 C 0.78553 0.07095 0.0395 0.0
C172 C 0.81541 0.13068 0.06369 0.0
C173 C 0.80419 0.10801 0.08411 0.0
C174 C 0.80505 0.11244 0.04113 0.0
C175 C 0.77405 0.04789 0.06024 0.0
C176 C 0.76778 0.0444 0.10362 0.0
C177 C 0.77469 0.06414 0.1253 0.0
N178 N 0.81228 0.12678 0.10542 0.0
C179 C 0.79664 0.10552 0.12585 0.0
H180 H 0.80147 0.12021 0.14278 0.0
C181 C 0.83729 0.1936 0.04655 0.0
N182 N 0.83291 0.17054 0.06597 0.0
C183 C 0.82819 0.17703 0.02376 0.0
C184 C 0.81269 0.13633 0.02099 0.0
H185 H 0.84896 0.22506 0.04866 0.0
H186 H 0.75773 0.0159 0.05876 0.0
H187 H 0.98783 0.32624 0.10039 0.0
H188 H 0.75045 1.01236 0.10324 0.0
H189 H 0.7631 0.04752 0.14162 0.0
H190 H 0.77775 0.0564 0.02232 0.0
H191 H 0.93988 0.20795 0.18969 0.0
H192 H 0.02873 0.42756 0.14544 0.0
H193 H 1.0195 0.3985 0.10523 0.0
H194 H 1.00411 0.37201 0.22398 0.0
H195 H 0.83293 0.19563 0.00839 0.0
H196 H 0.80518 0.12347 0.00335 0.0
H197 H 1.02267 0.41737 0.18976 0.0
H198 H 0.95082 0.23167 0.23111 0.0
N199 N 0.9783 0.31405 0.13748 0.0
C200 C 1.01483 0.39573 0.14344 0.0
C201 C 1.00976 0.37945 0.12072 0.0
C202 C 1.00289 0.3708 0.16334 0.0
C203 C 0.98485 0.32958 0.15972 0.0
C204 C 0.99174 0.33836 0.11807 0.0
N205 N 0.95896 0.26491 0.17467 0.0
C206 C 0.97493 0.30423 0.17894 0.0
C207 C 0.95776 0.25239 0.21659 0.0
C208 C 0.97255 0.29252 0.22128 0.0
C209 C 0.95168 0.23908 0.19304 0.0
C210 C 0.98202 0.31913 0.20236 0.0
H211 H 0.97702 0.30269 0.23952 0.0
O212 O 0.97978 0.21585 0.14214 0.0
O213 O 0.89682 0.18898 0.11812 0.0
O214 O 0.84382 0.19089 0.14614 0.0
O215 O 0.90177 0.24511 0.16023 0.0
O216 O 0.92091 0.18283 0.1495 0.0
O217 O 1.00499 0.26833 0.12027 0.0
O218 O 0.80782 0.21802 0.09332 0.0
O219 O 0.89563 0.25214 0.12077 0.0
O220 O 0.95278 0.25499 0.09492 0.0
O221 O 0.89496 0.20568 0.07696 0.0
O222 O 0.86966 0.25833 0.09045 0.0
O223 O 0.79037 0.1771 0.12247 0.0
C224 C 0.89573 0.1639 0.1329 0.0
C225 C 0.99864 0.36001 0.20611 0.0
C226 C 1.00915 0.38582 0.18663 0.0
C227 C 1.01082 0.2415 0.13036 0.0
C228 C 0.04939 0.25498 0.14218 0.0
C229 C 0.06108 0.28213 0.16093 0.0
C230 C 0.07386 0.23929 0.1355 0.0
C231 C 0.10986 0.25056 0.14767 0.0
C232 C 0.0962 0.29322 0.17312 0.0
C233 C 0.12016 0.27748 0.16675 0.0
C234 C 0.86523 0.21596 0.16344 0.0
C235 C 0.89597 0.27753 0.10649 0.0
C236 C 0.77921 0.19559 0.10787 0.0
C237 C 0.7388 0.1719 0.09724 0.0
C238 C 0.73463 0.15166 0.07588 0.0
C239 C 0.70433 0.16921 0.10789 0.0
C240 C 0.66639 0.14593 0.09717 0.0
C241 C 0.69781 0.12925 0.06522 0.0
C242 C 0.66416 0.12644 0.07564 0.0
C243 C 0.93343 0.23309 0.07631 0.0
H244 H 0.04277 0.29437 0.16636 0.0
H245 H 0.06481 0.21852 0.12086 0.0
H246 H 0.10474 0.31383 0.18781 0.0
H247 H 0.14652 0.28606 0.17721 0.0
H248 H 0.75996 0.15343 0.06713 0.0
H249 H 0.70698 0.18467 0.1244 0.0
H250 H 0.69537 0.11411 0.04862 0.0
H251 H 0.63619 0.10929 0.06648 0.0
Gd252 Gd 0.38028 0.19278 0.40086 0.0
Gd253 Gd 0.33242 0.09321 0.3729 0.0
C254 C 0.40537 0.03447 0.35447 0.0
C255 C 0.4058 0.03654 0.31125 0.0
C256 C 0.36898 0.06069 0.33383 0.0
C257 C 0.38139 0.05213 0.35485 0.0
C258 C 0.3806 0.05258 0.31176 0.0
C259 C 0.4181 0.02741 0.33258 0.0
C260 C 0.41507 0.0236 0.37606 0.0
C261 C 0.39986 0.02923 0.39721 0.0
N262 N 0.36859 0.05947 0.37564 0.0
C263 C 0.37626 0.04692 0.39667 0.0
H264 H 0.3652 0.05104 0.41332 0.0
C265 C 0.32858 0.08164 0.3147 0.0
N266 N 0.34456 0.07596 0.33497 0.0
C267 C 0.3396 0.07453 0.29237 0.0
C268 C 0.36614 0.0604 0.29089 0.0
H269 H 0.30869 0.09334 0.31577 0.0
H270 H 0.43684 1.01424 0.33194 0.0
H271 H 0.34855 0.23719 0.36269 0.0
H272 H 0.43346 1.01003 0.37654 0.0
H273 H 0.40653 0.02022 0.41399 0.0
H274 H 0.4153 0.03037 0.29447 0.0
H275 H 0.40557 0.18978 0.45745 0.0
H276 H 0.29154 0.28826 0.40207 0.0
H277 H 0.31376 0.27517 0.3637 0.0
H278 H 0.30806 0.26124 0.48308 0.0
H279 H 0.32793 0.08029 0.27633 0.0
H280 H 0.37494 0.05514 0.27364 0.0
H281 H 0.28784 0.28125 0.44655 0.0
H282 H 0.391 0.20498 0.4976 0.0
N283 N 0.34488 0.22716 0.40012 0.0
C284 C 0.3064 0.27107 0.40175 0.0
C285 C 0.31909 0.26393 0.38007 0.0
C286 C 0.31409 0.25696 0.4228 0.0
C287 C 0.33413 0.23527 0.42141 0.0
C288 C 0.33877 0.24222 0.3796 0.0
N289 N 0.36807 0.20676 0.43978 0.0
C290 C 0.34563 0.22422 0.44191 0.0
C291 C 0.37778 0.21026 0.48211 0.0
C292 C 0.35282 0.22609 0.48469 0.0
C293 C 0.38594 0.20166 0.45937 0.0
C294 C 0.33723 0.23423 0.46443 0.0
H295 H 0.34699 0.23326 0.5023 0.0
O296 O 0.44125 0.23271 0.41191 0.0
O297 O 0.38893 0.14458 0.38596 0.0
O298 O 0.33365 0.08841 0.41291 0.0
O299 O 0.3393 0.14661 0.42842 0.0
O300 O 0.41997 0.17164 0.41639 0.0
O301 O 0.4167 0.25001 0.38326 0.0
O302 O 0.27366 0.05219 0.35869 0.0
O303 O 0.32447 0.14241 0.38683 0.0
O304 O 0.37785 0.19516 0.35973 0.0
O305 O 0.37605 0.13743 0.347 0.0
O306 O 0.29437 0.11552 0.35602 0.0
O307 O 0.29061 0.04238 0.39358 0.0
C308 C 0.41377 0.14511 0.40069 0.0
C309 C 0.31516 0.25366 0.46595 0.0
C310 C 0.3037 0.2651 0.44515 0.0
C311 C 0.44678 0.26129 0.3975 0.0
C312 C 0.46351 0.30157 0.40822 0.0
C313 C 0.44717 0.30569 0.42949 0.0
C314 C 0.49564 0.33593 0.39776 0.0
C315 C 0.51048 0.37381 0.40858 0.0
C316 C 0.46172 0.34247 0.44024 0.0
C317 C 0.49297 0.37607 0.43001 0.0
C318 C 0.32951 0.10868 0.43038 0.0
C319 C 0.30016 0.14187 0.37173 0.0
C320 C 0.26273 0.02968 0.37755 0.0
C321 C 0.23902 0.98633 0.37417 0.0
C322 C 0.25769 0.9639 0.37096 0.0
C323 C 0.19726 0.96681 0.37589 0.0
C324 C 0.17443 0.92503 0.37513 0.0
C325 C 0.23523 0.92262 0.36995 0.0
C326 C 0.19403 0.90329 0.37222 0.0
C327 C 0.38209 0.17339 0.34297 0.0
H328 H 0.4233 0.28034 0.43809 0.0
H329 H 0.50864 0.33325 0.38134 0.0
H330 H 0.44884 0.34492 0.45676 0.0
H331 H 0.50392 0.40399 0.43925 0.0
H332 H 0.28965 0.9783 0.36963 0.0
H333 H 0.18267 0.984 0.37851 0.0
H334 H 0.24986 0.90547 0.3676 0.0
H335 H 0.17734 0.87124 0.37142 0.0
Gd336 Gd 0.78849 0.70993 0.12934 0.0
Gd337 Gd 0.84324 0.66262 0.10538 0.0
C338 C 0.97575 0.72919 0.089 0.0
C339 C 0.97651 0.72946 0.04578 0.0
C340 C 0.9139 0.69862 0.06721 0.0
C341 C 0.93398 0.70927 0.08862 0.0
C342 C 0.93495 0.70765 0.04554 0.0
C343 C 0.99688 0.74012 0.06748 0.0
C344 C 0.995 0.73644 0.11098 0.0
C345 C 0.97268 0.72359 0.13182 0.0
N346 N 0.91268 0.69816 0.1091 0.0
C347 C 0.93137 0.70406 0.13054 0.0
H348 H 0.9146 0.69412 0.14682 0.0
C349 C 0.8532 0.65936 0.04719 0.0
N350 N 0.87382 0.6764 0.06765 0.0
C351 C 0.87264 0.66819 0.02524 0.0
C352 C 0.91367 0.69292 0.02437 0.0
H353 H 0.8215 0.63989 0.04781 0.0
H354 H 0.02896 0.75588 0.06744 0.0
H355 H 0.71462 0.66616 0.08889 0.0
H356 H 0.02699 0.75124 0.11203 0.0
H357 H 0.98727 0.72867 0.1489 0.0
H358 H 0.99319 0.73701 0.02931 0.0
H359 H 0.81185 0.74287 0.18518 0.0
H360 H 0.60448 0.60719 0.12597 0.0
H361 H 0.64239 0.62468 0.08835 0.0
H362 H 0.64143 0.64461 0.20722 0.0
H363 H 0.85603 0.65564 0.00905 0.0
H364 H 0.92875 0.69926 0.00737 0.0
H365 H 0.60442 0.61464 0.17034 0.0
H366 H 0.77879 0.73365 0.22401 0.0
N367 N 0.71876 0.67182 0.1267 0.0
C368 C 0.63644 0.62552 0.12638 0.0
C369 C 0.65772 0.6354 0.10512 0.0
C370 C 0.65659 0.64027 0.14786 0.0
C371 C 0.69825 0.66383 0.1474 0.0
C372 C 0.69897 0.65913 0.10557 0.0
N373 N 0.75874 0.70392 0.16672 0.0
C374 C 0.71891 0.68055 0.16807 0.0
C375 C 0.76158 0.71848 0.20842 0.0
C376 C 0.7207 0.69344 0.21023 0.0
C377 C 0.78019 0.72373 0.18637 0.0
C378 C 0.69876 0.67437 0.18989 0.0
H379 H 0.70626 0.68952 0.2273 0.0
O380 O 0.80905 0.77146 0.13905 0.0
O381 O 0.84682 0.71824 0.11759 0.0
O382 O 0.84315 0.66423 0.14676 0.0
O383 O 0.78822 0.66959 0.15776 0.0
O384 O 0.84765 0.74964 0.14719 0.0
O385 O 0.7746 0.74686 0.10704 0.0
O386 O 0.82385 0.60217 0.09389 0.0
O387 O 0.7847 0.65261 0.11841 0.0
O388 O 0.78414 0.70532 0.08938 0.0
O389 O 0.84061 0.7043 0.07706 0.0
O390 O 0.78456 0.62317 0.08791 0.0
O391 O 0.86297 0.62596 0.12384 0.0
C392 C 0.86939 0.7432 0.13277 0.0
C393 C 0.65743 0.64996 0.1906 0.0
C394 C 0.63637 0.63289 0.16962 0.0
C395 C 0.79276 0.77797 0.12067 0.0
C396 C 0.77326 0.80175 0.12441 0.0
C397 C 0.73231 0.78316 0.1283 0.0
C398 C 0.79553 0.84352 0.12278 0.0
C399 C 0.77675 0.86645 0.1243 0.0
C400 C 0.71366 0.80571 0.13001 0.0
C401 C 0.73556 0.84694 0.12783 0.0
C402 C 0.81692 0.66211 0.1629 0.0
C403 C 0.76221 0.62748 0.10307 0.0
C404 C 0.84571 0.59634 0.1091 0.0
C405 C 0.8704 0.58018 0.09925 0.0
C406 C 0.89276 0.5975 0.07867 0.0
C407 C 0.8717 0.54751 0.10972 0.0
C408 C 0.89579 0.53326 0.09964 0.0
C409 C 0.91606 0.58358 0.06867 0.0
C410 C 0.91755 0.55188 0.07893 0.0
C411 C 0.81139 0.71208 0.0733 0.0
H412 H 0.71472 0.7512 0.1297 0.0
H413 H 0.82719 0.85806 0.11974 0.0
H414 H 0.68201 0.79115 0.1329 0.0
H415 H 0.72034 0.86371 0.12924 0.0
H416 H 0.8919 0.62159 0.06998 0.0
H417 H 0.85448 0.53362 0.12556 0.0
H418 H 0.93287 0.59727 0.05267 0.0
H419 H 0.93542 0.54145 0.07025 0.0
Gd420 Gd 0.84958 0.19207 0.39935 0.0
Gd421 Gd 0.95067 0.24635 0.37403 0.0
C422 C 1.01295 0.37872 0.35665 0.0
C423 C 1.02089 0.37884 0.31376 0.0
C424 C 0.98999 0.31678 0.33577 0.0
C425 C 0.99459 0.33701 0.35672 0.0
C426 C 1.00365 0.33744 0.31408 0.0
C427 C 0.02547 0.39944 0.33502 0.0
C428 C 1.01895 0.3984 0.37836 0.0
C429 C 1.00787 0.37662 0.39945 0.0
N430 N 0.98243 0.31603 0.37729 0.0
C431 C 0.9901 0.33535 0.39862 0.0
H432 H 0.98172 0.3193 0.41518 0.0
C433 C 0.97092 0.25581 0.31674 0.0
N434 N 0.97324 0.27686 0.33672 0.0
C435 C 0.98399 0.27495 0.29479 0.0
C436 C 1.00021 0.31595 0.29343 0.0
H437 H 0.95818 0.22407 0.31761 0.0
H438 H 0.03939 0.43144 0.33459 0.0
H439 H 0.80534 0.11942 0.3592 0.0
H440 H 0.03279 0.43037 0.37906 0.0
H441 H 1.01294 0.39158 0.41639 0.0
H442 H 0.03131 0.39523 0.29725 0.0
H443 H 0.84741 0.21459 0.45663 0.0
H444 H 0.75715 1.00793 0.39499 0.0
H445 H 0.76838 0.04652 0.35796 0.0
H446 H 0.78152 0.0444 0.47713 0.0
H447 H 0.98149 0.25808 0.27895 0.0
H448 H 1.01062 0.33084 0.27648 0.0
H449 H 0.76366 1.00747 0.43941 0.0
H450 H 0.83122 0.1813 0.49581 0.0
N451 N 0.81594 0.12246 0.3965 0.0
C452 C 0.77349 0.04 0.39564 0.0
C453 C 0.77965 0.06166 0.37473 0.0
C454 C 0.78725 0.05999 0.41726 0.0
C455 C 0.80814 0.10179 0.41714 0.0
C456 C 0.80073 0.10307 0.37551 0.0
N457 N 0.83404 0.16236 0.43739 0.0
C458 C 0.81798 0.12247 0.43831 0.0
C459 C 0.82768 0.16444 0.4798 0.0
C460 C 0.81363 0.12378 0.48117 0.0
C461 C 0.83681 0.18318 0.45761 0.0
C462 C 0.80752 0.10207 0.46023 0.0
H463 H 0.80602 0.10922 0.49836 0.0
O464 O 0.80854 0.21128 0.41125 0.0
O465 O 0.89789 0.25057 0.38603 0.0
O466 O 0.95251 0.24983 0.41404 0.0
O467 O 0.89438 0.19518 0.42757 0.0
O468 O 0.86949 0.25087 0.41686 0.0
O469 O 0.79294 0.17234 0.38127 0.0
O470 O 0.99078 0.22528 0.36317 0.0
O471 O 0.90084 0.18791 0.38601 0.0
O472 O 0.85003 0.19205 0.3578 0.0
O473 O 0.90979 0.24749 0.3466 0.0
O474 O 0.93021 0.18744 0.35564 0.0
O475 O 1.00304 0.26101 0.39483 0.0
C476 C 0.89583 0.27317 0.40153 0.0
C477 C 0.78935 0.06058 0.46046 0.0
C478 C 0.77915 0.03955 0.43899 0.0
C479 C 0.78069 0.18946 0.39616 0.0
C480 C 0.74001 0.16454 0.40621 0.0
C481 C 0.73514 0.14071 0.42604 0.0
C482 C 0.70606 0.16434 0.39661 0.0
C483 C 0.66787 0.14002 0.40686 0.0
C484 C 0.69813 0.11731 0.43628 0.0
C485 C 0.66497 0.11701 0.42693 0.0
C486 C 0.9321 0.22334 0.43055 0.0
C487 C 0.9025 0.16555 0.37031 0.0
C488 C 1.0149 0.24221 0.38092 0.0
C489 C 0.05785 0.26154 0.37608 0.0
C490 C 0.07968 0.30214 0.37091 0.0
C491 C 0.07772 0.23965 0.37807 0.0
C492 C 0.11929 0.25856 0.37563 0.0
C493 C 0.12075 0.32086 0.36827 0.0
C494 C 0.14048 0.29941 0.37082 0.0
C495 C 0.8736 0.2187 0.34161 0.0
H496 H 0.76009 0.14043 0.43393 0.0
H497 H 0.70929 0.18257 0.38128 0.0
H498 H 0.69516 0.09944 0.45175 0.0
H499 H 0.63687 0.09901 0.43581 0.0
H500 H 0.06503 0.31943 0.36925 0.0
H501 H 0.06103 0.20828 0.38213 0.0
H502 H 0.13744 0.35226 0.36442 0.0
H503 H 0.17236 0.31466 0.36875 0.0
Gd504 Gd 0.19633 0.36507 0.60637 0.0
Gd505 Gd 0.09556 0.31775 0.63185 0.0
C506 C 0.0364 0.38689 0.65767 0.0
C507 C 0.02894 0.37235 0.70001 0.0
C508 C 0.05865 0.34407 0.67434 0.0
C509 C 0.05409 0.36317 0.65493 0.0
C510 C 0.04533 0.34773 0.69702 0.0
C511 C 0.0246 0.39201 0.68037 0.0
C512 C 0.03009 0.40388 0.63741 0.0
C513 C 0.03998 0.39582 0.61508 0.0
N514 N 0.06516 0.35701 0.6332 0.0
C515 C 0.05697 0.37171 0.61327 0.0
H516 H 0.0644 0.36595 0.59587 0.0
C517 C 0.07607 0.29802 0.68909 0.0
N518 N 0.07455 0.32046 0.67083 0.0
C519 C 0.06324 0.30068 0.71189 0.0
C520 C 0.04796 0.32576 0.7159 0.0
H521 H 0.08753 0.27828 0.68631 0.0
H522 H 1.01122 0.41033 0.68283 0.0
H523 H 0.23767 0.33467 0.64755 0.0
H524 H 1.01677 0.42243 0.63876 0.0
H525 H 0.03458 0.4082 0.59923 0.0
H526 H 1.01886 0.3758 0.71734 0.0
H527 H 0.19586 0.38676 0.54875 0.0
H528 H 0.2915 0.27634 0.61252 0.0
H529 H 0.27576 0.30005 0.64943 0.0
H530 H 0.26924 0.28862 0.52994 0.0
H531 H 0.06494 0.28319 0.72633 0.0
H532 H 0.03735 0.32721 0.73345 0.0
H533 H 0.28739 0.27065 0.56798 0.0
H534 H 0.2133 0.37 0.50986 0.0
N535 N 0.23037 0.3296 0.60993 0.0
C536 C 0.27437 0.29123 0.61156 0.0
C537 C 0.26569 0.3047 0.63243 0.0
C538 C 0.26169 0.29799 0.58967 0.0
C539 C 0.23986 0.31796 0.58941 0.0
C540 C 0.24392 0.32428 0.63126 0.0
N541 N 0.21202 0.35045 0.56857 0.0
C542 C 0.22971 0.32807 0.56805 0.0
C543 C 0.21777 0.35773 0.52607 0.0
C544 C 0.23384 0.3328 0.52514 0.0
C545 C 0.20794 0.36714 0.54808 0.0
C546 C 0.24099 0.31848 0.54631 0.0
H547 H 0.242 0.32602 0.50809 0.0
O548 O 0.23749 0.42487 0.59381 0.0
O549 O 0.14856 0.37545 0.6203 0.0
O550 O 0.09489 0.32612 0.5923 0.0
O551 O 0.14997 0.32446 0.57826 0.0
O552 O 0.17743 0.40527 0.58965 0.0
O553 O 0.25305 0.40233 0.62432 0.0
O554 O 0.05964 0.25363 0.63523 0.0
O555 O 0.14476 0.30904 0.6184 0.0
O556 O 0.19612 0.36459 0.64801 0.0
O557 O 0.13542 0.35714 0.66027 0.0
O558 O 0.11622 0.27831 0.6487 0.0
O559 O 0.03718 0.28525 0.61525 0.0
C560 C 0.15129 0.40104 0.60518 0.0
C561 C 0.26069 0.2966 0.54646 0.0
C562 C 0.27111 0.28646 0.56811 0.0
C563 C 0.26528 0.43135 0.60909 0.0
C564 C 0.30612 0.44726 0.59922 0.0
C565 C 0.31117 0.42904 0.5791 0.0
C566 C 0.34005 0.48065 0.60917 0.0
C567 C 0.37836 0.49476 0.59904 0.0
C568 C 0.34832 0.44283 0.56902 0.0
C569 C 0.38144 0.47524 0.57876 0.0
C570 C 0.11363 0.3191 0.57519 0.0
C571 C 0.1435 0.28446 0.6336 0.0
C572 C 0.02957 0.25094 0.62368 0.0
C573 C 0.99048 0.22585 0.635 0.0
C574 C 0.97733 0.24201 0.65258 0.0
C575 C 0.96714 0.18508 0.62933 0.0
C576 C 0.93096 0.16048 0.64142 0.0
C577 C 0.94219 0.21812 0.66475 0.0
C578 C 0.91948 0.17787 0.65948 0.0
C579 C 0.17224 0.3661 0.66464 0.0
H580 H 0.28623 0.40434 0.57082 0.0
H581 H 0.33669 0.4952 0.62467 0.0
H582 H 0.35143 0.42846 0.55336 0.0
H583 H 0.40966 0.4855 0.57 0.0
H584 H 0.99453 0.27303 0.65715 0.0
H585 H 0.97722 0.17281 0.61555 0.0
H586 H 0.93268 0.2308 0.67861 0.0
H587 H 0.89312 0.16034 0.66999 0.0
Gd588 Gd 0.25347 0.94266 0.87337 0.0
Gd589 Gd 0.20027 0.84148 0.89843 0.0
C590 C 0.06767 0.77587 0.9147 0.0
C591 C 0.0668 0.77589 0.95792 0.0
C592 C 0.12946 0.80719 0.93654 0.0
C593 C 0.10945 0.79757 0.91511 0.0
C594 C 0.10836 0.79543 0.9582 0.0
C595 C 0.04649 0.76605 0.93619 0.0
C596 C 0.04847 0.76364 0.89272 0.0
C597 C 0.07086 0.77256 0.87193 0.0
N598 N 0.13081 0.80737 0.89467 0.0
C599 C 0.11218 0.79416 0.87325 0.0
H600 H 0.129 0.80062 0.85701 0.0
C601 C 0.19002 0.82826 0.95663 0.0
N602 N 0.16952 0.82481 0.93613 0.0
C603 C 0.17054 0.8179 0.97858 0.0
C604 C 0.12956 0.80196 0.97941 0.0
H605 H 0.22169 0.8402 0.95605 0.0
H606 H 1.0144 0.74987 0.93621 0.0
H607 H 0.32932 0.97473 0.91224 0.0
H608 H 1.01647 0.74666 0.89165 0.0
H609 H 0.05632 0.7628 0.85486 0.0
H610 H 0.05009 0.767 0.97437 0.0
H611 H 0.22684 0.95084 0.81787 0.0
H612 H 0.4373 0.02328 0.87288 0.0
H613 H 0.4017 1.00527 0.91133 0.0
H614 H 0.3957 0.02059 0.79235 0.0
H615 H 0.18708 0.82188 0.9948 0.0
H616 H 0.11444 0.79341 0.9964 0.0
H617 H 0.43475 0.02865 0.82846 0.0
H618 H 0.25783 0.97365 0.77845 0.0
N619 N 0.32313 0.97382 0.87452 0.0
C620 C 0.40534 1.00967 0.87313 0.0
C621 C 0.38537 0.99966 0.89486 0.0
C622 C 0.38393 1.00312 0.85203 0.0
C623 C 0.34233 0.98506 0.85334 0.0
C624 C 0.34413 0.98226 0.89526 0.0
N625 N 0.28068 0.96418 0.83518 0.0
C626 C 0.32044 0.9803 0.83303 0.0
C627 C 0.27575 0.97551 0.79364 0.0
C628 C 0.31644 0.99088 0.791 0.0
C629 C 0.2583 0.96263 0.81603 0.0
C630 C 0.33939 0.99372 0.81084 0.0
H631 H 0.33 1.00135 0.77374 0.0
O632 O 0.22677 0.97915 0.86661 0.0
O633 O 0.19542 0.89292 0.88622 0.0
O634 O 0.2005 0.84228 0.85691 0.0
O635 O 0.25454 0.90282 0.84531 0.0
O636 O 0.19394 0.92158 0.85572 0.0
O637 O 0.27601 0.99991 0.89086 0.0
O638 O 0.21981 0.80078 0.9105 0.0
O639 O 0.25848 0.89012 0.88519 0.0
O640 O 0.25882 0.94449 0.91328 0.0
O641 O 0.20422 0.88623 0.92678 0.0
O642 O 0.25908 0.86137 0.91588 0.0
O643 O 0.18108 0.78495 0.88033 0.0
C644 C 0.17251 0.89421 0.87074 0.0
C645 C 0.38064 1.01042 0.80928 0.0
C646 C 0.40286 1.01501 0.82983 0.0
C647 C 0.25136 1.00817 0.88009 0.0
C648 C 0.26765 0.04822 0.86977 0.0
C649 C 0.29852 0.06193 0.85319 0.0
C650 C 0.25091 0.07209 0.87548 0.0
C651 C 0.26465 0.10941 0.86438 0.0
C652 C 0.31205 0.09836 0.84202 0.0
C653 C 0.29515 0.12167 0.84732 0.0
C654 C 0.22646 0.86623 0.84057 0.0
C655 C 0.2812 0.88802 0.90064 0.0
C656 C 0.19828 0.77289 0.89535 0.0
C657 C 0.17364 0.73211 0.90534 0.0
C658 C 0.1507 0.72705 0.92563 0.0
C659 C 0.17299 0.69823 0.89528 0.0
C660 C 0.14899 0.65994 0.90549 0.0
C661 C 0.1275 0.68989 0.93577 0.0
C662 C 0.12667 0.65679 0.92592 0.0
C663 C 0.23289 0.92369 0.92991 0.0
H664 H 0.31182 0.04424 0.84863 0.0
H665 H 0.22738 0.06149 0.88854 0.0
H666 H 0.3355 0.10841 0.82894 0.0
H667 H 0.30577 0.14911 0.83759 0.0
H668 H 0.15101 0.75194 0.93399 0.0
H669 H 0.19065 0.70159 0.87965 0.0
H670 H 0.11026 0.68678 0.95156 0.0
H671 H 0.10887 0.62855 0.93472 0.0
Gd672 Gd 0.66995 0.83337 0.60596 0.0
Gd673 Gd 0.71804 0.78146 0.6329 0.0
C674 C 0.64895 0.65398 0.66009 0.0
C675 C 0.66235 0.66238 0.70254 0.0
C676 C 0.69084 0.71963 0.67621 0.0
C677 C 0.67238 0.69534 0.65694 0.0
C678 C 0.68682 0.70333 0.69915 0.0
C679 C 0.64331 0.63776 0.68304 0.0
C680 C 0.63299 0.63004 0.63999 0.0
C681 C 0.64199 0.64728 0.61743 0.0
N682 N 0.67923 0.71188 0.63495 0.0
C683 C 0.66585 0.68836 0.61521 0.0
H684 H 0.67262 0.70105 0.59761 0.0
C685 C 0.73642 0.78358 0.69046 0.0
N686 N 0.71442 0.75906 0.67231 0.0
C687 C 0.73344 0.76877 0.71349 0.0
C688 C 0.70843 0.72849 0.71787 0.0
H689 H 0.75614 0.81471 0.68739 0.0
H690 H 0.6252 0.60611 0.68582 0.0
H691 H 0.69818 0.90799 0.64459 0.0
H692 H 0.61471 0.59818 0.64165 0.0
H693 H 0.6306 0.62896 0.60171 0.0
H694 H 0.65862 0.64937 0.72007 0.0
H695 H 0.64303 0.80824 0.54937 0.0
H696 H 0.76165 0.01761 0.60695 0.0
H697 H 0.73415 0.98086 0.64453 0.0
H698 H 0.74791 0.97712 0.52561 0.0
H699 H 0.75064 0.78838 0.72782 0.0
H700 H 0.70687 0.71694 0.73559 0.0
H701 H 0.76846 0.0159 0.56265 0.0
H702 H 0.65844 0.83961 0.50958 0.0
N703 N 0.7065 0.90307 0.60758 0.0
C704 C 0.74622 0.98553 0.60693 0.0
C705 C 0.73057 0.9649 0.62813 0.0
C706 C 0.74007 0.9645 0.58573 0.0
C707 C 0.71926 0.92273 0.5866 0.0
C708 C 0.71027 0.92347 0.62809 0.0
N709 N 0.68253 0.86142 0.56754 0.0
C710 C 0.70702 0.90107 0.56584 0.0
C711 C 0.67251 0.85723 0.52524 0.0
C712 C 0.69945 0.8977 0.52307 0.0
C713 C 0.66378 0.8396 0.54777 0.0
C714 C 0.71627 0.92036 0.54356 0.0
H715 H 0.70581 0.91139 0.50563 0.0
O716 O 0.61231 0.82132 0.59242 0.0
O717 O 0.66071 0.77603 0.62033 0.0
O718 O 0.71069 0.77149 0.59342 0.0
O719 O 0.70939 0.82588 0.57772 0.0
O720 O 0.62866 0.77305 0.59053 0.0
O721 O 0.63129 0.847 0.62708 0.0
O722 O 0.78221 0.8104 0.63625 0.0
O723 O 0.72641 0.83886 0.61847 0.0
O724 O 0.67244 0.83677 0.64749 0.0
O725 O 0.6777 0.78259 0.66051 0.0
O726 O 0.75696 0.84192 0.64917 0.0
O727 O 0.75078 0.75467 0.61796 0.0
C728 C 0.63469 0.75213 0.6059 0.0
C729 C 0.74009 0.96177 0.54256 0.0
C730 C 0.75184 0.98385 0.56364 0.0
C731 C 0.60434 0.83681 0.61065 0.0
C732 C 0.59086 0.86585 0.60558 0.0
C733 C 0.61711 0.90183 0.59454 0.0
C734 C 0.55268 0.85889 0.61224 0.0
C735 C 0.54207 0.88852 0.60848 0.0
C736 C 0.60689 0.93094 0.59094 0.0
C737 C 0.56991 0.92453 0.59799 0.0
C738 C 0.71761 0.79652 0.57585 0.0
C739 C 0.75074 0.8625 0.63367 0.0
C740 C 0.78505 0.78225 0.6258 0.0
C741 C 0.81047 0.76946 0.63793 0.0
C742 C 0.79494 0.74187 0.6565 0.0
C743 C 0.85096 0.78627 0.63181 0.0
C744 C 0.87589 0.7757 0.64438 0.0
C745 C 0.81921 0.73162 0.66914 0.0
C746 C 0.85921 0.7485 0.66335 0.0
C747 C 0.6699 0.81138 0.66445 0.0
H748 H 0.64571 0.90759 0.58869 0.0
H749 H 0.5317 0.83105 0.62048 0.0
H750 H 0.62776 0.95863 0.58253 0.0
H751 H 0.56264 0.94757 0.59471 0.0
H752 H 0.7641 0.72855 0.66143 0.0
H753 H 0.86277 0.8073 0.61727 0.0
H754 H 0.80703 0.71072 0.68372 0.0
H755 H 0.87716 0.74051 0.67413 0.0
Gd756 Gd 0.10217 0.32467 0.87089 0.0
Gd757 Gd 0.20026 0.37179 0.90079 0.0
C758 C 0.25969 0.30037 0.92196 0.0
C759 C 0.25469 0.29904 0.96506 0.0
C760 C 0.22888 0.33335 0.94135 0.0
C761 C 0.23912 0.32154 0.92077 0.0
C762 C 0.23764 0.32333 0.96379 0.0
C763 C 0.2659 0.28772 0.94414 0.0
C764 C 0.27562 0.29477 0.90104 0.0
C765 C 0.27206 0.31135 0.87982 0.0
N766 N 0.23344 0.33509 0.89973 0.0
C767 C 0.25125 0.33197 0.87955 0.0
H768 H 0.24915 0.34485 0.86303 0.0
C769 C 0.21108 0.3771 0.95908 0.0
N770 N 0.21437 0.35834 0.93938 0.0
C771 C 0.21853 0.36751 0.98176 0.0
C772 C 0.23117 0.33991 0.98417 0.0
H773 H 0.20126 0.39846 0.95728 0.0
H774 H 0.28096 0.27077 0.94537 0.0
H775 H 0.05972 0.36278 0.90612 0.0
H776 H 0.29204 0.27912 0.90127 0.0
H777 H 0.28533 0.30827 0.86365 0.0
H778 H 0.26119 0.29059 0.98212 0.0
H779 H 0.10725 0.29596 0.81508 0.0
H780 H 0.02368 0.42927 0.86272 0.0
H781 H 0.03019 0.40544 0.90234 0.0
H782 H 0.0504 0.40348 0.78346 0.0
H783 H 0.21463 0.3815 0.99734 0.0
H784 H 0.23746 0.33292 1.00173 0.0
H785 H 0.0316 0.42859 0.81835 0.0
H786 H 0.09908 0.31295 0.77401 0.0
N787 N 0.07049 0.36258 0.86899 0.0
C788 C 0.03652 0.41031 0.86424 0.0
C789 C 0.04007 0.39685 0.88662 0.0
C790 C 0.04865 0.39828 0.84402 0.0
C791 C 0.06527 0.37368 0.84701 0.0
C792 C 0.05685 0.37256 0.88866 0.0
N793 N 0.0897 0.33433 0.83107 0.0
C794 C 0.07519 0.35911 0.82742 0.0
C795 C 0.09217 0.32608 0.78889 0.0
C796 C 0.07923 0.35313 0.78488 0.0
C797 C 0.09666 0.31645 0.81223 0.0
C798 C 0.0697 0.36934 0.80423 0.0
H799 H 0.0763 0.361 0.76683 0.0
O800 O 0.06717 0.2619 0.86261 0.0
O801 O 0.14986 0.3156 0.88695 0.0
O802 O 0.20366 0.3693 0.85956 0.0
O803 O 0.14721 0.36927 0.84598 0.0
O804 O 0.12521 0.28686 0.85515 0.0
O805 O 0.04204 0.28899 0.88465 0.0
O806 O 0.24542 0.42901 0.91504 0.0
O807 O 0.15235 0.38034 0.88579 0.0
O808 O 0.09427 0.32619 0.91057 0.0
O809 O 0.15192 0.3344 0.92863 0.0
O810 O 0.18011 0.41282 0.91554 0.0
O811 O 0.25228 0.41196 0.87991 0.0
C812 C 0.15017 0.29186 0.87165 0.0
C813 C 0.05461 0.39507 0.80113 0.0
C814 C 0.04397 0.40941 0.821 0.0
C815 C 0.03608 0.25651 0.87428 0.0
C816 C 0.9977 0.23196 0.86221 0.0
C817 C 0.98667 0.24778 0.8433 0.0
C818 C 0.97294 0.19177 0.8687 0.0
C819 C 0.93729 0.16729 0.85618 0.0
C820 C 0.95183 0.22401 0.8308 0.0
C821 C 0.92758 0.18424 0.83698 0.0
C822 C 0.18311 0.37492 0.84251 0.0
C823 C 0.15318 0.40594 0.89999 0.0
C824 C 0.26889 0.43808 0.89674 0.0
C825 C 0.31137 0.45141 0.90163 0.0
C826 C 0.3211 0.42495 0.9124 0.0
C827 C 0.34252 0.48964 0.89501 0.0
C828 C 0.38274 0.50019 0.89853 0.0
C829 C 0.36045 0.43512 0.91578 0.0
C830 C 0.39098 0.4722 0.90876 0.0
C831 C 0.11352 0.32354 0.9292 0.0
H832 H 1.00531 0.27837 0.83799 0.0
H833 H 0.98154 0.17981 0.88346 0.0
H834 H 0.94378 0.23633 0.81599 0.0
H835 H 0.90149 0.16666 0.82626 0.0
H836 H 0.29824 0.39623 0.9182 0.0
H837 H 0.3356 0.51072 0.88696 0.0
H838 H 0.36732 0.41414 0.92398 0.0
H839 H 0.4213 0.47942 0.91186 0.0
Gd840 Gd 0.20003 0.8397 0.60461 0.0
Gd841 Gd 0.25406 0.93762 0.63426 0.0
C842 C 0.38281 0.99309 0.65886 0.0
C843 C 0.37571 0.98878 0.7019 0.0
C844 C 0.3179 0.96674 0.67655 0.0
C845 C 0.34144 0.97627 0.65656 0.0
C846 C 0.33471 0.9731 0.69947 0.0
C847 C 0.39974 0.99885 0.68162 0.0
C848 C 0.40596 1.00396 0.63825 0.0
C849 C 0.38785 0.99875 0.61611 0.0
N850 N 0.32399 0.96986 0.63488 0.0
C851 C 0.34673 0.98192 0.61474 0.0
H852 H 0.33362 0.97802 0.5974 0.0
C853 C 0.25428 0.94413 0.69281 0.0
N854 N 0.27846 0.95154 0.67355 0.0
C855 C 0.26947 0.94954 0.71591 0.0
C856 C 0.30981 0.96365 0.71926 0.0
H857 H 0.22293 0.93253 0.69046 0.0
H858 H 0.43141 1.01144 0.68373 0.0
H859 H 0.12456 0.79145 0.64265 0.0
H860 H 0.4378 0.01686 0.63924 0.0
H861 H 0.40552 1.00748 0.60005 0.0
H862 H 0.38916 0.99369 0.71935 0.0
H863 H 0.22549 0.84076 0.54777 0.0
H864 H 1.01573 0.74977 0.60494 0.0
H865 H 0.05184 0.75582 0.64232 0.0
H866 H 0.05745 0.78103 0.52392 0.0
H867 H 0.25001 0.94246 0.73111 0.0
H868 H 0.32148 0.96742 0.73713 0.0
H869 H 1.01819 0.76099 0.56082 0.0
H870 H 0.19475 0.82801 0.50789 0.0
N871 N 0.13028 0.80726 0.60597 0.0
C872 C 0.04781 0.7658 0.605 0.0
C873 C 0.06807 0.76904 0.6261 0.0
C874 C 0.06919 0.78165 0.58399 0.0
C875 C 0.11094 0.80188 0.58502 0.0
C876 C 0.10948 0.78954 0.6262 0.0
N877 N 0.17234 0.82683 0.56608 0.0
C878 C 0.13282 0.81233 0.56433 0.0
C879 C 0.177 0.82369 0.5236 0.0
C880 C 0.13671 0.81094 0.52145 0.0
C881 C 0.19427 0.83079 0.54619 0.0
C882 C 0.11385 0.80406 0.54198 0.0
H883 H 0.12328 0.80501 0.50395 0.0
O884 O 0.21083 0.79389 0.59001 0.0
O885 O 0.25772 0.88594 0.61972 0.0
O886 O 0.26446 0.94351 0.59473 0.0
O887 O 0.21069 0.8891 0.57734 0.0
O888 O 0.26017 0.85841 0.5891 0.0
O889 O 0.18707 0.78707 0.62521 0.0
O890 O 0.2339 0.97781 0.64673 0.0
O891 O 0.19633 0.89073 0.61908 0.0
O892 O 0.1948 0.83643 0.64588 0.0
O893 O 0.25277 0.89175 0.65882 0.0
O894 O 0.19364 0.91646 0.65056 0.0
O895 O 0.26923 0.99147 0.61485 0.0
C896 C 0.28141 0.88411 0.60497 0.0
C897 C 0.07254 0.78718 0.54091 0.0
C898 C 0.05019 0.77582 0.56191 0.0
C899 C 0.19629 0.77035 0.6083 0.0
C900 C 0.16691 0.72795 0.60342 0.0
C901 C 0.13075 0.71844 0.59274 0.0
C902 C 0.17377 0.69663 0.61004 0.0
C903 C 0.14394 0.65644 0.60659 0.0
C904 C 0.10144 0.67912 0.58938 0.0
C905 C 0.10778 0.64843 0.59639 0.0
C906 C 0.24077 0.92644 0.57642 0.0
C907 C 0.17287 0.89149 0.63433 0.0
C908 C 0.25018 1.00247 0.62912 0.0
C909 C 0.26832 0.04538 0.63401 0.0
C910 C 0.30865 0.06807 0.6396 0.0
C911 C 0.24563 0.06439 0.63146 0.0
C912 C 0.26353 0.10597 0.63375 0.0
C913 C 0.32635 0.1091 0.64214 0.0
C914 C 0.30416 0.12796 0.63903 0.0
C915 C 0.22176 0.85645 0.66265 0.0
H916 H 0.12503 0.74144 0.58699 0.0
H917 H 0.20173 0.70342 0.61807 0.0
H918 H 0.07361 0.67239 0.58123 0.0
H919 H 0.08455 0.61817 0.5933 0.0
H920 H 0.32654 0.05412 0.64163 0.0
H921 H 0.21447 0.04705 0.62703 0.0
H922 H 0.35757 0.12646 0.64632 0.0
H923 H 0.31869 0.15984 0.64102 0.0
Gd924 Gd 0.71693 0.78934 0.86985 0.0
Gd925 Gd 0.67437 0.8444 0.89988 0.0
C926 C 0.74839 0.97569 0.91938 0.0
C927 C 0.75165 0.97319 0.96245 0.0
C928 C 0.71555 0.91245 0.93955 0.0
C929 C 0.72652 0.93391 0.9187 0.0
C930 C 0.72698 0.93187 0.96174 0.0
C931 C 0.76224 0.99511 0.94128 0.0
C932 C 0.75366 0.99669 0.89823 0.0
C933 C 0.73596 0.97605 0.87736 0.0
N934 N 0.71192 0.91416 0.89794 0.0
C935 C 0.71466 0.93463 0.8776 0.0
H936 H 0.70097 0.9193 0.86133 0.0
C937 C 0.67294 0.85141 0.95829 0.0
N938 N 0.69037 0.87292 0.93816 0.0
C939 C 0.68383 0.86914 0.98073 0.0
C940 C 0.71154 0.90945 0.98249 0.0
H941 H 0.65156 0.82017 0.957 0.0
H942 H 0.77966 0.02713 0.9421 0.0
H943 H 0.68048 0.71071 0.90775 0.0
H944 H 0.77005 0.02878 0.89801 0.0
H945 H 0.73877 0.99201 0.86104 0.0
H946 H 0.76114 0.98862 0.97931 0.0
H947 H 0.73999 0.81813 0.81308 0.0
H948 H 0.6112 0.60538 0.86768 0.0
H949 H 0.63746 0.63888 0.90619 0.0
H950 H 0.63044 0.65138 0.78702 0.0
H951 H 0.67082 0.85171 0.99662 0.0
H952 H 0.71961 0.92323 0.99987 0.0
H953 H 0.60854 0.61034 0.82325 0.0
H954 H 0.71908 0.78977 0.7729 0.0
N955 N 0.6792 0.71928 0.87028 0.0
C956 C 0.63049 0.63722 0.86817 0.0
C957 C 0.64527 0.65602 0.88992 0.0
C958 C 0.64131 0.65968 0.84726 0.0
C959 C 0.6664 0.70109 0.84892 0.0
C960 C 0.66992 0.69716 0.89066 0.0
N961 N 0.70397 0.76337 0.83092 0.0
C962 C 0.67906 0.7239 0.82858 0.0
C963 C 0.70774 0.77087 0.78842 0.0
C964 C 0.68055 0.73058 0.78581 0.0
C965 C 0.71967 0.78678 0.81122 0.0
C966 C 0.66653 0.70637 0.80598 0.0
H967 H 0.67071 0.71837 0.76821 0.0
O968 O 0.77583 0.80706 0.85571 0.0
O969 O 0.72862 0.84761 0.88478 0.0
O970 O 0.67535 0.84918 0.85864 0.0
O971 O 0.67161 0.79063 0.84593 0.0
O972 O 0.75577 0.84936 0.85291 0.0
O973 O 0.75728 0.77675 0.88944 0.0
O974 O 0.61834 0.83423 0.91509 0.0
O975 O 0.66242 0.78644 0.88506 0.0
O976 O 0.71353 0.77957 0.90941 0.0
O977 O 0.71331 0.83353 0.92688 0.0
O978 O 0.63291 0.78443 0.91578 0.0
O979 O 0.63405 0.85675 0.87954 0.0
C980 C 0.75239 0.87064 0.86915 0.0
C981 C 0.64058 0.66537 0.80423 0.0
C982 C 0.6281 0.64203 0.82484 0.0
C983 C 0.78586 0.79335 0.87395 0.0
C984 C 0.80967 0.774 0.86968 0.0
C985 C 0.79105 0.7333 0.86498 0.0
C986 C 0.85142 0.79594 0.87199 0.0
C987 C 0.87422 0.77699 0.87033 0.0
C988 C 0.81347 0.71453 0.86304 0.0
C989 C 0.8546 0.73603 0.86588 0.0
C990 C 0.66768 0.82185 0.84202 0.0
C991 C 0.63709 0.76295 0.89995 0.0
C992 C 0.60867 0.84805 0.89674 0.0
C993 C 0.59559 0.87745 0.90143 0.0
C994 C 0.62261 0.91427 0.91124 0.0
C995 C 0.55696 0.86991 0.89546 0.0
C996 C 0.54643 0.89969 0.89868 0.0
C997 C 0.61243 0.94351 0.91439 0.0
C998 C 0.57491 0.93647 0.90804 0.0
C999 C 0.72046 0.80336 0.92772 0.0
H1000 H 0.75915 0.71597 0.86317 0.0
H1001 H 0.86597 0.82738 0.87579 0.0
H1002 H 0.79886 0.68304 0.85952 0.0
H1003 H 0.87121 0.72066 0.86436 0.0
H1004 H 0.65177 0.92058 0.91642 0.0
H1005 H 0.53555 0.84147 0.88808 0.0
H1006 H 0.6338 0.97185 0.92187 0.0
H1007 H 0.56779 0.95969 0.91094 0.0
H1008 H 0.19129 0.28795 0.15033 0.0
H1009 H 0.08996 0.17596 0.13035 0.0
H1010 H 0.23391 0.25946 0.14579 0.0
H1011 H 0.13383 0.14845 0.1243 0.0
H1012 H 0.25226 0.14274 0.09699 0.0
H1013 H 0.20574 0.16845 0.09703 0.0
H1014 H 0.22803 0.19491 0.1718 0.0
H1015 H 0.27317 0.16837 0.1719 0.0
C1016 C 0.17787 0.25729 0.1449 0.0
C1017 C 0.13657 0.23419 0.14136 0.0
C1018 C 0.20262 0.24114 0.14202 0.0
C1019 C 0.18726 0.2017 0.13479 0.0
C1020 C 0.14653 0.17903 0.1298 0.0
C1021 C 0.12142 0.19497 0.1332 0.0
C1022 C 0.2473 0.15433 0.11333 0.0
C1023 C 0.26734 0.15486 0.13428 0.0
C1024 C 0.22041 0.16859 0.11342 0.0
C1025 C 0.2135 0.18397 0.1344 0.0
C1026 C 0.23299 0.1836 0.15535 0.0
C1027 C 0.25894 0.16856 0.15537 0.0
H1028 H 0.12803 0.86655 0.40667 0.0
H1029 H 0.12117 0.93432 0.34807 0.0
H1030 H 0.05569 0.82633 0.40753 0.0
H1031 H 0.04874 0.89334 0.34842 0.0
H1032 H 0.93121 0.77495 0.33513 0.0
H1033 H 1.00195 0.82248 0.338 0.0
H1034 H 0.99118 0.82649 0.41425 0.0
H1035 H 0.91971 0.77892 0.41119 0.0
C1036 C 0.11096 0.87301 0.39408 0.0
C1037 C 0.13032 0.90354 0.37724 0.0
C1038 C 0.06948 0.84997 0.39459 0.0
C1039 C 0.04627 0.85611 0.37782 0.0
C1040 C 0.06567 0.88745 0.36142 0.0
C1041 C 0.10714 0.91112 0.36129 0.0
C1042 C 0.94397 0.78594 0.35252 0.0
C1043 C 0.92022 0.77212 0.37301 0.0
C1044 C 0.98449 0.81347 0.35416 0.0
C1045 C 1.00246 0.82834 0.37635 0.0
C1046 C 0.97843 0.81536 0.39688 0.0
C1047 C 0.9376 0.78792 0.39519 0.0
H1048 H 0.88553 0.12234 0.09114 0.0
H1049 H 0.87281 0.10854 0.16728 0.0
H1050 H 0.8607 0.0508 0.08702 0.0
H1051 H 0.84887 0.03778 0.16334 0.0
H1052 H 0.84088 0.91882 0.15055 0.0
H1053 H 0.87266 0.99129 0.15096 0.0
H1054 H 0.7957 0.98622 0.09421 0.0
H1055 H 0.7633 0.91381 0.09431 0.0
C1056 C 0.87708 0.10395 0.10693 0.0
C1057 C 0.87979 0.12073 0.12947 0.0
C1058 C 0.86316 0.06309 0.10462 0.0
C1059 C 0.85275 0.03844 0.12487 0.0
C1060 C 0.85685 0.05576 0.14739 0.0
C1061 C 0.87029 0.09629 0.14964 0.0
C1062 C 0.83113 0.93327 0.13799 0.0
C1063 C 0.79945 0.9106 0.12251 0.0
C1064 C 0.84912 0.97476 0.13831 0.0
C1065 C 0.83643 0.99467 0.12281 0.0
C1066 C 0.80613 0.972 0.10646 0.0
C1067 C 0.78753 0.93049 0.10653 0.0
H1068 H 0.26805 0.15354 0.41255 0.0
H1069 H 0.2682 0.16334 0.33616 0.0
H1070 H 0.22093 0.17796 0.41537 0.0
H1071 H 0.22099 0.18707 0.33881 0.0
H1072 H 0.17951 0.27318 0.40626 0.0
H1073 H 0.22029 0.24164 0.4073 0.0
H1074 H 0.1507 0.16371 0.35031 0.0
H1075 H 0.10913 0.19457 0.34986 0.0
C1076 C 0.25832 0.16134 0.39641 0.0
C1077 C 0.27284 0.15789 0.37418 0.0
C1078 C 0.23114 0.17503 0.39798 0.0
C1079 C 0.21711 0.18455 0.3773 0.0
C1080 C 0.23084 0.17979 0.35509 0.0
C1081 C 0.25816 0.16651 0.35356 0.0
C1082 C 0.17263 0.2489 0.3942 0.0
C1083 C 0.14118 0.23638 0.37794 0.0
C1084 C 0.196 0.23083 0.39478 0.0
C1085 C 0.18928 0.20053 0.37864 0.0
C1086 C 0.15706 0.1873 0.36281 0.0
C1087 C 0.13306 0.20474 0.36263 0.0
H1088 H 0.12224 0.86056 0.10284 0.0
H1089 H 0.11306 0.93292 0.15756 0.0
H1090 H 0.04997 0.82092 0.10066 0.0
H1091 H 0.0406 0.89247 0.15603 0.0
H1092 H 0.92071 0.77634 0.16926 0.0
H1093 H 0.99187 0.82308 0.16766 0.0
H1094 H 0.98702 0.82103 0.09089 0.0
H1095 H 0.91535 0.77435 0.09265 0.0
C1096 C 0.10465 0.86811 0.11428 0.0
C1097 C 0.12327 0.89978 0.1304 0.0
C1098 C 0.06322 0.84538 0.11306 0.0
C1099 C 0.03932 0.85298 0.12845 0.0
C1100 C 0.05805 0.88542 0.14413 0.0
C1101 C 0.09952 0.90878 0.14492 0.0
C1102 C 0.9349 0.78588 0.15204 0.0
C1103 C 0.91278 0.77063 0.13108 0.0
C1104 C 0.97564 0.81292 0.15111 0.0
C1105 C 0.99537 0.82581 0.12915 0.0
C1106 C 0.97292 0.81142 0.10811 0.0
C1107 C 0.93197 0.78449 0.10908 0.0
H1108 H 0.75144 0.91332 0.35242 0.0
H1109 H 0.86211 0.9226 0.3743 0.0
H1110 H 0.78042 0.98447 0.35693 0.0
H1111 H 0.88993 0.99396 0.38044 0.0
H1112 H 0.8937 0.11708 0.40842 0.0
H1113 H 0.8677 0.04487 0.40757 0.0
H1114 H 0.84762 0.04406 0.33208 0.0
H1115 H 0.87456 0.1159 0.3328 0.0
C1116 C 0.78191 0.93023 0.35823 0.0
C1117 C 0.80449 0.9116 0.36235 0.0
C1118 C 0.79833 0.97117 0.3611 0.0
C1119 C 0.83746 0.99484 0.36895 0.0
C1120 C 0.85959 0.97638 0.37444 0.0
C1121 C 0.84345 0.93532 0.371 0.0
C1122 C 0.88353 0.10131 0.39172 0.0
C1123 C 0.88496 0.12183 0.37078 0.0
C1124 C 0.86909 0.06016 0.39119 0.0
C1125 C 0.85541 0.03882 0.36977 0.0
C1126 C 0.85766 0.05964 0.34885 0.0
C1127 C 0.87293 0.10069 0.34928 0.0
H1128 H 0.27841 0.16615 0.60289 0.0
H1129 H 0.19766 0.09435 0.65815 0.0
H1130 H 0.24582 0.20589 0.60079 0.0
H1131 H 0.16567 0.13487 0.65663 0.0
H1132 H 0.16269 0.2516 0.66977 0.0
H1133 H 0.18691 0.20471 0.66802 0.0
H1134 H 0.1821 0.20571 0.59131 0.0
H1135 H 0.15711 0.25249 0.59322 0.0
C1136 C 0.25342 0.15868 0.61446 0.0
C1137 C 0.24064 0.12712 0.63072 0.0
C1138 C 0.23471 0.18148 0.61326 0.0
C1139 C 0.20342 0.17408 0.62877 0.0
C1140 C 0.18996 0.14176 0.6446 0.0
C1141 C 0.20807 0.11833 0.64538 0.0
C1142 C 0.16683 0.24181 0.65252 0.0
C1143 C 0.15936 0.25685 0.63162 0.0
C1144 C 0.18042 0.21466 0.65151 0.0
C1145 C 0.18668 0.2014 0.62953 0.0
C1146 C 0.17807 0.21557 0.60855 0.0
C1147 C 0.16404 0.24257 0.6096 0.0
H1148 H 0.12649 0.88024 0.91093 0.0
H1149 H 0.12093 0.87574 0.83435 0.0
H1150 H 0.05483 0.85564 0.91263 0.0
H1151 H 0.04989 0.8519 0.8359 0.0
H1152 H 0.92919 0.84253 0.84585 0.0
H1153 H 1.00158 0.87357 0.84731 0.0
H1154 H 0.99118 0.79241 0.90287 0.0
H1155 H 0.91897 0.76084 0.90089 0.0
C1156 C 0.10987 0.87363 0.8945 0.0
C1157 C 0.12905 0.87855 0.87252 0.0
C1158 C 0.06889 0.85981 0.89543 0.0
C1159 C 0.04638 0.85163 0.87438 0.0
C1160 C 0.06612 0.85806 0.85246 0.0
C1161 C 0.10682 0.87145 0.85156 0.0
C1162 C 0.94244 0.83167 0.85855 0.0
C1163 C 0.9183 0.79912 0.87317 0.0
C1164 C 0.98392 0.84923 0.85929 0.0
C1165 C 1.00239 0.83526 0.87504 0.0
C1166 C 0.97818 0.80393 0.89047 0.0
C1167 C 0.93673 0.78579 0.88933 0.0
H1168 H 0.78977 0.90843 0.59446 0.0
H1169 H 0.77344 0.9145 0.66988 0.0
H1170 H 0.83602 0.98069 0.59371 0.0
H1171 H 0.81839 0.98626 0.66902 0.0
H1172 H 0.84965 0.1147 0.64445 0.0
H1173 H 0.80869 0.0433 0.64166 0.0
H1174 H 0.91021 0.03422 0.62111 0.0
H1175 H 0.95274 0.10611 0.62587 0.0
C1176 C 0.79576 0.92527 0.61077 0.0
C1177 C 0.77702 0.90613 0.6321 0.0
C1178 C 0.8225 0.96643 0.6104 0.0
C1179 C 0.83062 0.98909 0.63131 0.0
C1180 C 0.81254 0.96963 0.65264 0.0
C1181 C 0.78669 0.92862 0.6531 0.0
C1182 C 0.86385 0.0979 0.63968 0.0
C1183 C 0.90519 0.11685 0.63608 0.0
C1184 C 0.83997 0.05676 0.63772 0.0
C1185 C 0.85615 0.03313 0.63114 0.0
C1186 C 0.8969 0.05179 0.6261 0.0
C1187 C 0.92122 0.09312 0.62874 0.0
H1188 H 0.18094 0.26997 0.83591 0.0
H1189 H 0.15497 0.25176 0.91094 0.0
H1190 H 0.20723 0.22465 0.8371 0.0
H1191 H 0.18039 0.205 0.91198 0.0
H1192 H 0.18757 0.08789 0.8774 0.0
H1193 H 0.15918 0.13116 0.88236 0.0
H1194 H 0.27267 0.23295 0.8668 0.0
H1195 H 0.30205 0.191 0.86386 0.0
C1196 C 0.18104 0.25633 0.8527 0.0
C1197 C 0.16736 0.26554 0.87351 0.0
C1198 C 0.19585 0.23025 0.85333 0.0
C1199 C 0.19597 0.21147 0.87462 0.0
C1200 C 0.18063 0.21914 0.89534 0.0
C1201 C 0.16656 0.24615 0.89481 0.0
C1202 C 0.20691 0.11956 0.87573 0.0
C1203 C 0.24723 0.13548 0.86975 0.0
C1204 C 0.19046 0.1443 0.87849 0.0
C1205 C 0.21374 0.18539 0.87493 0.0
C1206 C 0.25403 0.20142 0.86968 0.0
C1207 C 0.27068 0.17703 0.86759 0.0
H1208 H 0.12119 0.86095 0.67065 0.0
H1209 H 0.1269 0.88653 0.59565 0.0
H1210 H 0.04953 0.83426 0.67019 0.0
H1211 H 0.05471 0.86079 0.59533 0.0
H1212 H 0.92985 0.8509 0.62749 0.0
H1213 H 1.00155 0.87971 0.62211 0.0
H1214 H 0.99231 0.76943 0.6439 0.0
H1215 H 0.92103 0.73966 0.64764 0.0
C1216 C 0.10699 0.86068 0.65403 0.0
C1217 C 0.12931 0.8743 0.633 0.0
C1218 C 0.06605 0.84564 0.6538 0.0
C1219 C 0.0465 0.84522 0.63271 0.0
C1220 C 0.06903 0.86072 0.61182 0.0
C1221 C 0.11014 0.87497 0.61194 0.0
C1222 C 0.9428 0.83235 0.63053 0.0
C1223 C 0.91917 0.79295 0.63853 0.0
C1224 C 0.98398 0.84902 0.62753 0.0
C1225 C 1.00254 0.82689 0.63278 0.0
C1226 C 0.97892 0.78731 0.63988 0.0
C1227 C 0.93792 0.77043 0.64232 0.0
H1228 H 0.95675 0.11252 0.874 0.0
H1229 H 0.85596 0.12322 0.85261 0.0
H1230 H 0.91273 0.04118 0.88006 0.0
H1231 H 0.81323 0.05214 0.85717 0.0
H1232 H 0.77287 0.92158 0.8324 0.0
H1233 H 0.81823 0.99317 0.8321 0.0
H1234 H 0.84164 0.98962 0.90678 0.0
H1235 H 0.79471 0.91752 0.90725 0.0
C1236 C 0.92538 0.10009 0.87082 0.0
C1237 C 0.91043 0.12416 0.86231 0.0
C1238 C 0.90019 0.05907 0.87422 0.0
C1239 C 0.8596 0.04102 0.86886 0.0
C1240 C 0.84443 0.0651 0.86122 0.0
C1241 C 0.86925 0.10598 0.85834 0.0
C1242 C 0.78727 0.93612 0.84884 0.0
C1243 C 0.77902 0.91426 0.87004 0.0
C1244 C 0.81341 0.97706 0.84863 0.0
C1245 C 0.83328 0.99708 0.86944 0.0
C1246 C 0.82666 0.97498 0.89049 0.0
C1247 C 0.79954 0.9339 0.89083 0.0
H1248 H 0.4396 0.17674 0.31459 0.0
H1249 H 0.34125 0.19782 0.31451 0.0
H1250 H 0.4456 0.18538 0.27167 0.0
H1251 H 0.34495 0.20364 0.27101 0.0
H1252 H 0.36582 0.22138 0.19047 0.0
H1253 H 0.37309 0.23262 0.23372 0.0
H1254 H 0.41325 0.1477 0.23965 0.0
H1255 H 0.40868 0.13897 0.19726 0.0
C1256 C 0.41965 0.18395 0.30531 0.0
C1257 C 0.39034 0.18712 0.31791 0.0
C1258 C 0.42252 0.18822 0.28054 0.0
C1259 C 0.3951 0.19422 0.26739 0.0
C1260 C 0.36687 0.19935 0.28026 0.0
C1261 C 0.36471 0.19609 0.30526 0.0
C1262 C 0.37737 0.2062 0.20106 0.0
C1263 C 0.38667 0.17931 0.19026 0.0
C1264 C 0.381 0.21212 0.22596 0.0
C1265 C 0.39394 0.19124 0.24059 0.0
C1266 C 0.40423 0.16536 0.22939 0.0
C1267 C 0.40114 0.15993 0.20479 0.0
H1268 H 0.8906 0.69957 0.31163 0.0
H1269 H 0.77063 0.60221 0.31325 0.0
H1270 H 0.89071 0.69543 0.26802 0.0
H1271 H 0.77105 0.59644 0.27019 0.0
H1272 H 0.75971 0.63709 0.19678 0.0
H1273 H 0.76591 0.63304 0.23923 0.0
H1274 H 0.88798 0.66328 0.23057 0.0
H1275 H 0.88213 0.66949 0.18743 0.0
C1276 C 0.86494 0.67612 0.30271 0.0
C1277 C 0.83076 0.6509 0.31582 0.0
C1278 C 0.86483 0.67383 0.27768 0.0
C1279 C 0.83059 0.64606 0.2653 0.0
C1280 C 0.79763 0.61897 0.27882 0.0
C1281 C 0.79755 0.62174 0.30362 0.0
C1282 C 0.78796 0.64273 0.20375 0.0
C1283 C 0.82048 0.65388 0.18849 0.0
C1284 C 0.79143 0.63992 0.22831 0.0
C1285 C 0.82741 0.64743 0.23866 0.0
C1286 C 0.85983 0.6575 0.22338 0.0
C1287 C 0.85639 0.66061 0.19857 0.0
H1288 H 0.83985 0.1503 0.1918 0.0
H1289 H 0.86191 0.27011 0.19174 0.0
H1290 H 0.83501 0.14858 0.23539 0.0
H1291 H 0.85484 0.26804 0.23478 0.0
H1292 H 0.90402 0.27738 0.30862 0.0
H1293 H 0.89469 0.27273 0.26616 0.0
H1294 H 0.80589 0.14908 0.273 0.0
H1295 H 0.81732 0.15343 0.31623 0.0
C1296 C 0.84184 0.1756 0.20106 0.0
C1297 C 0.85072 0.21016 0.18836 0.0
C1298 C 0.83928 0.17477 0.22611 0.0
C1299 C 0.84527 0.20845 0.23898 0.0
C1300 C 0.8512 0.24185 0.22584 0.0
C1301 C 0.85453 0.24288 0.20102 0.0
C1302 C 0.88219 0.24909 0.30126 0.0
C1303 C 0.86157 0.21574 0.31606 0.0
C1304 C 0.87643 0.24651 0.27666 0.0
C1305 C 0.84913 0.21058 0.26573 0.0
C1306 C 0.82738 0.17726 0.28059 0.0
C1307 C 0.8335 0.17982 0.30547 0.0
H1308 H 0.14108 0.39312 0.69776 0.0
H1309 H 0.23072 0.3599 0.68963 0.0
H1310 H 0.1514 0.3988 0.74007 0.0
H1311 H 0.24307 0.368 0.73281 0.0
H1312 H 0.21022 0.33569 0.81448 0.0
H1313 H 0.21481 0.33828 0.77087 0.0
H1314 H 0.19195 0.43595 0.77077 0.0
H1315 H 0.18502 0.43137 0.8138 0.0
C1316 C 0.16374 0.38774 0.70495 0.0
C1317 C 0.18491 0.37583 0.69005 0.0
C1318 C 0.17007 0.39152 0.72948 0.0
C1319 C 0.19849 0.38437 0.74025 0.0
C1320 C 0.22075 0.37359 0.72531 0.0
C1321 C 0.21408 0.36943 0.70047 0.0
C1322 C 0.20737 0.35839 0.80506 0.0
C1323 C 0.19749 0.38349 0.81755 0.0
C1324 C 0.20986 0.35986 0.78001 0.0
C1325 C 0.20291 0.38677 0.76695 0.0
C1326 C 0.19629 0.41393 0.77987 0.0
C1327 C 0.19299 0.41186 0.80469 0.0
H1328 H 0.28448 0.89772 0.80725 0.0
H1329 H 0.16165 0.80825 0.81568 0.0
H1330 H 0.27933 0.8878 0.76485 0.0
H1331 H 0.15687 0.7963 0.77251 0.0
H1332 H 0.156 0.82949 0.69122 0.0
H1333 H 0.15486 0.82486 0.73482 0.0
H1334 H 0.27524 0.84746 0.73381 0.0
H1335 H 0.27675 0.8544 0.6908 0.0
C1336 C 0.25635 0.87521 0.8001 0.0
C1337 C 0.22342 0.85399 0.81509 0.0
C1338 C 0.2535 0.8691 0.77554 0.0
C1339 C 0.21774 0.84086 0.76487 0.0
C1340 C 0.18489 0.81852 0.77992 0.0
C1341 C 0.18771 0.82497 0.80475 0.0
C1342 C 0.1817 0.83231 0.70039 0.0
C1343 C 0.21641 0.84216 0.68761 0.0
C1344 C 0.18118 0.82979 0.72544 0.0
C1345 C 0.21527 0.83665 0.73817 0.0
C1346 C 0.24875 0.84322 0.72495 0.0
C1347 C 0.24949 0.84654 0.70015 0.0
H1348 H 0.64151 0.75447 0.69843 0.0
H1349 H 0.67954 0.87821 0.68836 0.0
H1350 H 0.63739 0.7613 0.74068 0.0
H1351 H 0.673 0.8848 0.73145 0.0
H1352 H 0.70736 0.88663 0.8128 0.0
H1353 H 0.70315 0.88674 0.76922 0.0
H1354 H 0.60268 0.76789 0.77161 0.0
H1355 H 0.60891 0.76728 0.81461 0.0
C1356 C 0.64824 0.78319 0.70519 0.0
C1357 C 0.66105 0.81583 0.68978 0.0
C1358 C 0.64538 0.78703 0.72968 0.0
C1359 C 0.65438 0.82356 0.73988 0.0
C1360 C 0.666 0.85619 0.72441 0.0
C1361 C 0.66925 0.85235 0.69962 0.0
C1362 C 0.68377 0.86107 0.80393 0.0
C1363 C 0.65839 0.827 0.8171 0.0
C1364 C 0.68134 0.86101 0.77889 0.0
C1365 C 0.65312 0.82697 0.76655 0.0
C1366 C 0.62569 0.79427 0.78016 0.0
C1367 C 0.62873 0.79407 0.80495 0.0
H1368 H 0.26598 0.91541 0.97065 0.0
H1369 H 0.21716 0.98278 0.93994 0.0
H1370 H 0.28955 0.95995 0.00461 0.0
H1371 H 0.23833 0.02648 0.97467 0.0
H1372 H 0.31277 0.12157 0.03129 0.0
H1373 H 0.28815 0.07808 0.99629 0.0
H1374 H 0.27775 0.98097 0.03888 0.0
H1375 H 0.30489 0.024 0.07215 0.0
C1376 C 0.25874 0.93881 0.97173 0.0
C1377 C 0.23838 0.94457 0.95302 0.0
C1378 C 0.27241 0.96481 0.99129 0.0
C1379 C 0.26582 0.99737 0.99302 0.0
C1380 C 0.24466 1.00245 0.97428 0.0
C1381 C 0.23165 0.97678 0.95449 0.0
C1382 C 0.30577 0.09112 0.033 0.0
C1383 C 0.3115 0.07711 0.05491 0.0
C1384 C 0.29107 0.06574 0.0129 0.0
C1385 C 0.28103 0.02538 0.01421 0.0
C1386 C 0.28603 1.01166 0.03634 0.0
C1387 C 0.30134 0.03687 0.05596 0.0
H1388 H 0.84419 0.72886 0.47161 0.0
H1389 H 0.74991 0.73126 0.43267 0.0
H1390 H 0.82633 0.75363 0.50695 0.0
H1391 H 0.73273 0.75601 0.46741 0.0
H1392 H 0.72793 0.82944 0.53013 0.0
H1393 H 0.753 0.81254 0.49449 0.0
H1394 H 0.77235 0.7305 0.53588 0.0
H1395 H 0.74717 0.74651 0.57078 0.0
C1396 C 0.8197 0.73441 0.47048 0.0
C1397 C 0.79843 0.72729 0.44907 0.0
C1398 C 0.80943 0.74881 0.49078 0.0
C1399 C 0.77798 0.7571 0.4902 0.0
C1400 C 0.75742 0.75071 0.46866 0.0
C1401 C 0.76728 0.736 0.44862 0.0
C1402 C 0.73739 0.80778 0.53162 0.0
C1403 C 0.73463 0.78914 0.55357 0.0
C1404 C 0.7519 0.79802 0.51113 0.0
C1405 C 0.7649 0.76999 0.51212 0.0
C1406 C 0.76323 0.75247 0.53423 0.0
C1407 C 0.74826 0.76164 0.55441 0.0
H1408 H 0.13417 0.34312 0.97681 0.0
H1409 H 0.03591 0.26654 0.93187 0.0
H1410 H 0.0906 0.31975 0.01151 0.0
H1411 H 0.99264 0.24214 0.96626 0.0
H1412 H 0.91318 0.23386 0.0288 0.0
H1413 H 0.95676 0.25434 0.99416 0.0
H1414 H 0.05388 0.2711 0.03908 0.0
H1415 H 1.01053 0.2519 0.07348 0.0
C1416 C 0.10357 0.32066 0.97433 0.0
C1417 C 0.08894 0.30687 0.95135 0.0
C1418 C 0.0782 0.30709 0.99434 0.0
C1419 C 0.03736 0.27889 0.9921 0.0
C1420 C 1.02328 0.26444 0.96907 0.0
C1421 C 0.04845 0.27832 0.94918 0.0
C1422 C 0.94355 0.2412 0.03122 0.0
C1423 C 0.95792 0.24092 0.05412 0.0
C1424 C 0.96895 0.25318 0.01123 0.0
C1425 C 1.00958 0.26493 0.01341 0.0
C1426 C 1.02341 0.26346 0.03634 0.0
C1427 C 0.9982 0.25197 0.05623 0.0
H1428 H 0.25504 0.04763 0.43896 0.0
H1429 H 0.36913 0.11638 0.47191 0.0
H1430 H 0.23133 1.00333 0.4734 0.0
H1431 H 0.34701 0.0713 0.50569 0.0
H1432 H 0.29536 1.00516 0.57249 0.0
H1433 H 0.3125 0.04893 0.53936 0.0
H1434 H 0.22907 0.95212 0.49538 0.0
H1435 H 0.20895 0.90799 0.53009 0.0
C1436 C 0.27486 0.05366 0.45387 0.0
C1437 C 0.31354 0.08643 0.45308 0.0
C1438 C 0.26151 0.02772 0.47355 0.0
C1439 C 0.28679 0.03308 0.49291 0.0
C1440 C 0.3257 0.06616 0.49186 0.0
C1441 C 0.33869 0.09245 0.47239 0.0
C1442 C 0.27997 0.99256 0.55599 0.0
C1443 C 0.2505 0.95218 0.55444 0.0
C1444 C 0.29057 0.01818 0.53648 0.0
C1445 C 0.27319 1.00474 0.514 0.0
C1446 C 0.24335 0.96428 0.51224 0.0
C1447 C 0.23194 0.93853 0.5322 0.0
H1448 H 0.77716 0.67203 0.03244 0.0
H1449 H 0.83079 0.78818 0.06362 0.0
H1450 H 0.7552 0.69525 0.99866 0.0
H1451 H 0.81077 0.8127 0.02921 0.0
H1452 H 0.73559 0.83592 0.97392 0.0
H1453 H 0.76001 0.81556 0.00842 0.0
H1454 H 0.76986 0.7301 0.96443 0.0
H1455 H 0.74342 0.74784 0.93145 0.0
C1456 C 0.78575 0.70308 0.03152 0.0
C1457 C 0.80704 0.72855 0.05028 0.0
C1458 C 0.77298 0.71666 0.01209 0.0
C1459 C 0.78122 0.75638 0.01065 0.0
C1460 C 0.80326 0.78197 0.02943 0.0
C1461 C 0.81558 0.76813 0.04901 0.0
C1462 C 0.7425 0.81249 0.97176 0.0
C1463 C 0.73666 0.79352 0.94957 0.0
C1464 C 0.75703 0.80093 0.99157 0.0
C1465 C 0.7667 0.77042 0.98971 0.0
C1466 C 0.76182 0.75261 0.9673 0.0
C1467 C 0.74683 0.76349 0.94792 0.0
H1468 H 0.06105 0.33868 0.55741 0.0
H1469 H 0.11427 0.26773 0.54073 0.0
H1470 H 1.01609 0.31043 0.5242 0.0
H1471 H 0.06818 0.23842 0.50702 0.0
H1472 H 1.00267 0.22574 0.43465 0.0
H1473 H 0.04784 0.24773 0.46844 0.0
H1474 H 0.95866 0.25283 0.51136 0.0
H1475 H 0.9142 0.23243 0.47699 0.0
C1476 C 0.06326 0.31693 0.5466 0.0
C1477 C 0.09138 0.30543 0.55207 0.0
C1478 C 0.03689 0.30024 0.52752 0.0
C1479 C 0.03726 0.27109 0.51298 0.0
C1480 C 0.0666 0.26065 0.51774 0.0
C1481 C 0.09333 0.27762 0.53702 0.0
C1482 C 0.99244 0.23101 0.4514 0.0
C1483 C 0.95453 0.22707 0.45298 0.0
C1484 C 1.01846 0.24352 0.47094 0.0
C1485 C 1.00762 0.25287 0.49284 0.0
C1486 C 0.96875 0.24683 0.49477 0.0
C1487 C 0.94267 0.23425 0.47513 0.0
H1488 H 0.59434 0.07816 0.10054 0.0
H1489 H 0.65149 0.20321 0.11589 0.0
H1490 H 0.52979 0.07206 0.10729 0.0
H1491 H 0.5862 0.19654 0.12358 0.0
H1492 H 0.45299 0.15435 0.14795 0.0
H1493 H 0.51629 0.15456 0.15084 0.0
H1494 H 0.49889 0.10676 0.07988 0.0
H1495 H 0.43717 0.10829 0.07668 0.0
C1496 C 0.59328 0.10433 0.10581 0.0
C1497 C 0.62843 0.14142 0.10715 0.0
C1498 C 0.55611 0.10069 0.10976 0.0
C1499 C 0.55269 0.13381 0.11576 0.0
C1500 C 0.58781 0.17038 0.11907 0.0
C1501 C 0.62528 0.17419 0.11474 0.0
C1502 C 0.46217 0.14273 0.13332 0.0
C1503 C 0.43956 0.13033 0.11228 0.0
C1504 C 0.49868 0.14341 0.13483 0.0
C1505 C 0.51276 0.13079 0.11555 0.0
C1506 C 0.48893 0.11649 0.0951 0.0
C1507 C 0.45335 0.11702 0.09332 0.0
H1508 H 0.73395 0.58516 0.35761 0.0
H1509 H 0.70575 0.60052 0.4295 0.0
H1510 H 0.67009 0.52264 0.35476 0.0
H1511 H 0.6418 0.53953 0.42639 0.0
H1512 H 0.51654 0.44677 0.4057 0.0
H1513 H 0.57583 0.51072 0.39898 0.0
H1514 H 0.64144 0.452 0.38197 0.0
H1515 H 0.58202 0.38732 0.38965 0.0
C1516 C 0.71351 0.57599 0.37244 0.0
C1517 C 0.72448 0.5982 0.39364 0.0
C1518 C 0.67723 0.53997 0.37093 0.0
C1519 C 0.65089 0.52601 0.39039 0.0
C1520 C 0.66123 0.54944 0.41105 0.0
C1521 C 0.69775 0.58455 0.41279 0.0
C1522 C 0.54341 0.44719 0.40031 0.0
C1523 C 0.54444 0.41157 0.39877 0.0
C1524 C 0.57741 0.48401 0.39636 0.0
C1525 C 0.61348 0.48657 0.39016 0.0
C1526 C 0.61402 0.45102 0.38664 0.0
C1527 C 0.57991 0.41391 0.39097 0.0
H1528 H 0.92863 0.33983 0.07661 0.0
H1529 H 0.88151 0.30707 0.14757 0.0
H1530 H 0.93092 0.40336 0.08081 0.0
H1531 H 0.88211 0.37049 0.15145 0.0
H1532 H 0.83601 0.46018 0.11573 0.0
H1533 H 0.8408 0.40029 0.12278 0.0
H1534 H 0.96674 0.46774 0.11107 0.0
H1535 H 0.96246 0.52743 0.10503 0.0
C1536 C 0.91973 0.34672 0.09337 0.0
C1537 C 0.90591 0.31886 0.11196 0.0
C1538 C 0.92073 0.38299 0.09572 0.0
C1539 C 0.90643 0.39192 0.11639 0.0
C1540 C 0.89325 0.36444 0.13529 0.0
C1541 C 0.89343 0.32842 0.1332 0.0
C1542 C 0.86488 0.46254 0.1155 0.0
C1543 C 0.8987 0.49873 0.10938 0.0
C1544 C 0.86762 0.42817 0.11945 0.0
C1545 C 0.90415 0.42919 0.11721 0.0
C1546 C 0.93816 0.46584 0.11272 0.0
C1547 C 0.93556 0.50007 0.10917 0.0
H1548 H 0.44626 0.11823 0.43267 0.0
H1549 H 0.45483 0.15274 0.35907 0.0
H1550 H 0.50702 0.11488 0.42872 0.0
H1551 H 0.51707 0.15101 0.35536 0.0
H1552 H 0.65566 0.20099 0.39163 0.0
H1553 H 0.59155 0.19772 0.38525 0.0
H1554 H 0.53089 0.07168 0.39695 0.0
H1555 H 0.59425 0.07434 0.40221 0.0
C1556 C 0.46073 0.12425 0.41548 0.0
C1557 C 0.44522 0.13488 0.39608 0.0
C1558 C 0.4957 0.12265 0.41327 0.0
C1559 C 0.51709 0.13308 0.39182 0.0
C1560 C 0.50132 0.14299 0.37214 0.0
C1561 C 0.46545 0.14347 0.37418 0.0
C1562 C 0.62879 0.17241 0.39204 0.0
C1563 C 0.63043 0.13809 0.39791 0.0
C1564 C 0.59202 0.17056 0.38846 0.0
C1565 C 0.55613 0.13443 0.39079 0.0
C1566 C 0.55793 0.09994 0.39516 0.0
C1567 C 0.59442 0.10164 0.39833 0.0
H1568 H 0.57406 0.38604 0.09046 0.0
H1569 H 0.51834 0.4347 0.13445 0.0
H1570 H 0.63628 0.4496 0.09192 0.0
H1571 H 0.58069 0.49813 0.13624 0.0
H1572 H 0.7187 0.59737 0.14501 0.0
H1573 H 0.65613 0.53398 0.14943 0.0
H1574 H 0.65247 0.51642 0.07351 0.0
H1575 H 0.71347 0.57953 0.06908 0.0
C1576 C 0.57544 0.40987 0.10108 0.0
C1577 C 0.54127 0.40513 0.11245 0.0
C1578 C 0.61096 0.4465 0.10171 0.0
C1579 C 0.61346 0.47924 0.11402 0.0
C1580 C 0.57996 0.47367 0.12668 0.0
C1581 C 0.54426 0.43726 0.12569 0.0
C1582 C 0.70388 0.58044 0.12926 0.0
C1583 C 0.72105 0.59374 0.10665 0.0
C1584 C 0.66825 0.54392 0.13179 0.0
C1585 C 0.64971 0.51954 0.11185 0.0
C1586 C 0.66628 0.53381 0.08931 0.0
C1587 C 0.70113 0.57029 0.08676 0.0
H1588 H 0.84483 0.4632 0.41588 0.0
H1589 H 0.94671 0.5171 0.36978 0.0
H1590 H 0.84553 0.40063 0.41437 0.0
H1591 H 0.94718 0.45443 0.36797 0.0
H1592 H 0.9081 0.31664 0.35963 0.0
H1593 H 0.90748 0.37935 0.3555 0.0
H1594 H 0.89552 0.38328 0.43159 0.0
H1595 H 0.89742 0.3221 0.43571 0.0
C1596 C 0.86657 0.46134 0.40481 0.0
C1597 C 0.89549 0.49513 0.39283 0.0
C1598 C 0.86734 0.42562 0.40415 0.0
C1599 C 0.89672 0.42249 0.39123 0.0
C1600 C 0.92409 0.4556 0.37802 0.0
C1601 C 0.92374 0.4915 0.37902 0.0
C1602 C 0.90644 0.33152 0.37547 0.0
C1603 C 0.9031 0.31436 0.39804 0.0
C1604 C 0.90566 0.36726 0.37311 0.0
C1605 C 0.90047 0.38598 0.3932 0.0
C1606 C 0.8986 0.36937 0.41569 0.0
C1607 C 0.90011 0.3344 0.41806 0.0
H1608 H 0.20075 0.64086 0.5898 0.0
H1609 H 0.09793 0.59267 0.63516 0.0
H1610 H 0.20058 0.57789 0.59205 0.0
H1611 H 0.09809 0.52988 0.63777 0.0
H1612 H 0.14061 0.43293 0.64723 0.0
H1613 H 0.14063 0.49608 0.65111 0.0
H1614 H 0.14867 0.50971 0.57482 0.0
H1615 H 0.14726 0.44685 0.57095 0.0
C1616 C 0.17889 0.61729 0.60086 0.0
C1617 C 0.14951 0.62195 0.61237 0.0
C1618 C 0.17848 0.58101 0.60198 0.0
C1619 C 0.14907 0.54859 0.61495 0.0
C1620 C 0.12122 0.55413 0.62771 0.0
C1621 C 0.12119 0.59017 0.62623 0.0
C1622 C 0.14127 0.44895 0.63133 0.0
C1623 C 0.14361 0.43461 0.60874 0.0
C1624 C 0.1417 0.48532 0.63353 0.0
C1625 C 0.1456 0.5085 0.61327 0.0
C1626 C 0.14653 0.49322 0.59081 0.0
C1627 C 0.14532 0.4569 0.58861 0.0
H1628 H 0.32456 0.89964 0.85881 0.0
H1629 H 0.33064 0.89169 0.93508 0.0
H1630 H 0.38818 0.90072 0.85513 0.0
H1631 H 0.39268 0.89139 0.9314 0.0
H1632 H 0.47482 0.84273 0.91651 0.0
H1633 H 0.41144 0.84173 0.91466 0.0
H1634 H 0.46346 0.94315 0.86796 0.0
H1635 H 0.52695 0.94443 0.87013 0.0
C1636 C 0.33975 0.89893 0.87477 0.0
C1637 C 0.3226 0.89597 0.89728 0.0
C1638 C 0.376 0.89913 0.87267 0.0
C1639 C 0.3952 0.89523 0.89297 0.0
C1640 C 0.37846 0.89355 0.91537 0.0
C1641 C 0.34299 0.89413 0.91747 0.0
C1642 C 0.47245 0.86413 0.90536 0.0
C1643 C 0.50598 0.89352 0.89342 0.0
C1644 C 0.43625 0.86389 0.90448 0.0
C1645 C 0.43235 0.89264 0.89132 0.0
C1646 C 0.46524 0.92052 0.87818 0.0
C1647 C 0.50163 0.9212 0.87942 0.0
H1648 H 0.60075 0.69327 0.57383 0.0
H1649 H 0.59332 0.71888 0.6476 0.0
H1650 H 0.53927 0.62982 0.57769 0.0
H1651 H 0.53028 0.65549 0.65124 0.0
H1652 H 0.391 0.56806 0.61431 0.0
H1653 H 0.45532 0.62857 0.62092 0.0
H1654 H 0.51516 0.56231 0.60972 0.0
H1655 H 0.45158 0.50197 0.60417 0.0
C1656 C 0.58633 0.68489 0.59104 0.0
C1657 C 0.60242 0.71074 0.61051 0.0
C1658 C 0.55094 0.64868 0.59319 0.0
C1659 C 0.52966 0.63776 0.61468 0.0
C1660 C 0.54593 0.66318 0.63442 0.0
C1661 C 0.58223 0.69918 0.63243 0.0
C1662 C 0.41772 0.56608 0.61409 0.0
C1663 C 0.41579 0.52997 0.60828 0.0
C1664 C 0.45462 0.60081 0.6178 0.0
C1665 C 0.49038 0.60025 0.61568 0.0
C1666 C 0.48825 0.56379 0.61138 0.0
C1667 C 0.45163 0.52921 0.60806 0.0
H1668 H 0.20965 0.64767 0.88996 0.0
H1669 H 0.08308 0.58672 0.90044 0.0
H1670 H 0.20608 0.58345 0.88346 0.0
H1671 H 0.08006 0.52321 0.89501 0.0
H1672 H 0.12337 0.43707 0.93083 0.0
H1673 H 0.12009 0.49781 0.92643 0.0
H1674 H 0.16238 0.51036 0.85431 0.0
H1675 H 0.16404 0.44812 0.85845 0.0
C1676 C 0.18102 0.62087 0.89028 0.0
C1677 C 0.1468 0.62263 0.89617 0.0
C1678 C 0.17899 0.58404 0.88663 0.0
C1679 C 0.14279 0.54822 0.88896 0.0
C1680 C 0.10838 0.55018 0.89326 0.0
C1681 C 0.11027 0.58674 0.89649 0.0
C1682 C 0.13071 0.45206 0.91377 0.0
C1683 C 0.143 0.43724 0.89484 0.0
C1684 C 0.12913 0.48701 0.9113 0.0
C1685 C 0.14128 0.50909 0.8901 0.0
C1686 C 0.15295 0.49404 0.87089 0.0
C1687 C 0.15339 0.45818 0.87315 0.0
H1688 H 0.33375 0.89285 0.57119 0.0
H1689 H 0.32172 0.89181 0.64749 0.0
H1690 H 0.39488 0.89086 0.57548 0.0
H1691 H 0.3844 0.89124 0.65185 0.0
H1692 H 0.52392 0.9324 0.63853 0.0
H1693 H 0.46169 0.93378 0.64055 0.0
H1694 H 0.40845 0.83613 0.59125 0.0
H1695 H 0.47044 0.83436 0.58962 0.0
C1696 C 0.34473 0.89322 0.58896 0.0
C1697 C 0.32288 0.89287 0.60896 0.0
C1698 C 0.37961 0.89161 0.5914 0.0
C1699 C 0.39423 0.89003 0.61397 0.0
C1700 C 0.37382 0.89216 0.63417 0.0
C1701 C 0.33816 0.893 0.6317 0.0
C1702 C 0.49847 0.91039 0.62874 0.0
C1703 C 0.50203 0.88294 0.6141 0.0
C1704 C 0.46286 0.9113 0.62984 0.0
C1705 C 0.43014 0.88539 0.61588 0.0
C1706 C 0.43318 0.85676 0.6021 0.0
C1707 C 0.46853 0.85537 0.60135 0.0
H1708 H 0.60356 0.72199 0.85782 0.0
H1709 H 0.59488 0.71082 0.93421 0.0
H1710 H 0.54091 0.65861 0.85411 0.0
H1711 H 0.5322 0.64899 0.93057 0.0
H1712 H 0.3997 0.57181 0.91718 0.0
H1713 H 0.46298 0.63427 0.91513 0.0
H1714 H 0.50801 0.58131 0.86605 0.0
H1715 H 0.44491 0.51859 0.86852 0.0
C1716 C 0.58897 0.70559 0.87376 0.0
C1717 C 0.60464 0.72126 0.89634 0.0
C1718 C 0.55279 0.66953 0.87166 0.0
C1719 C 0.53103 0.64913 0.89209 0.0
C1720 C 0.54766 0.66421 0.91449 0.0
C1721 C 0.58388 0.6995 0.91656 0.0
C1722 C 0.42266 0.57384 0.90544 0.0
C1723 C 0.41708 0.5403 0.89287 0.0
C1724 C 0.45912 0.60948 0.90445 0.0
C1725 C 0.49078 0.61275 0.89057 0.0
C1726 C 0.48432 0.57993 0.87683 0.0
C1727 C 0.44811 0.54405 0.87819 0.0
loop_
_geom_bond_atom_site_label_1
_geom_bond_atom_site_label_2
_geom_bond_distance
_geom_bond_site_symmetry_2
_ccdc_geom_bond_type
Gd0 N31 2.661 . S
Gd0 N37 2.601 . S
Gd0 O44 2.545 . S
Gd0 O45 2.606 . S
Gd0 O47 2.429 . S
Gd0 O48 2.545 . S
Gd0 O49 2.412 . S
Gd0 O51 2.362 . S
Gd0 O52 2.324 . S
Gd0 C59 2.828 . S
Gd1 N10 2.661 . S
Gd1 N14 2.601 . S
Gd1 O45 2.362 . S
Gd1 O46 2.324 . S
Gd1 O50 2.545 . S
Gd1 O51 2.606 . S
Gd1 O53 2.429 . S
Gd1 O54 2.545 . S
Gd1 O55 2.412 . S
Gd1 C68 2.828 . S
C2 C5 1.417 . S
C2 C7 1.431 . S
C2 C8 1.412 . S
C3 C6 1.437 . S
C3 C7 1.317 . S
C3 H22 0.929 . S
C4 C5 1.426 . S
C4 C6 1.413 . S
C4 N14 1.359 . S
C5 C2 1.417 . S
C5 C4 1.426 . S
C5 N10 1.350 . S
C6 C3 1.437 . S
C6 C4 1.413 . S
C6 C16 1.391 . S
C7 C2 1.431 . S
C7 C3 1.317 . S
C7 H18 0.930 . S
C8 C2 1.412 . S
C8 C9 1.355 . S
C8 H20 0.930 . S
C9 C8 1.355 . S
C9 C11 1.402 . S
C9 H21 0.930 . S
N10 Gd1 2.661 . S
N10 C5 1.350 . S
N10 C11 1.307 . S
C11 C9 1.402 . S
C11 N10 1.307 . S
C11 H12 0.930 . S
H12 C11 0.930 . S
C13 N14 1.334 . S
C13 C15 1.394 . S
C13 H17 0.930 . S
N14 Gd1 2.601 . S
N14 C4 1.359 . S
N14 C13 1.334 . S
C15 C13 1.394 . S
C15 C16 1.359 . S
C15 H27 0.930 . S
C16 C6 1.391 . S
C16 C15 1.359 . S
C16 H28 0.929 . S
H17 C13 0.930 . S
H18 C7 0.930 . S
H19 C36 0.930 . S
H20 C8 0.930 . S
H21 C9 0.930 . S
H22 C3 0.929 . S
H23 C41 0.930 . S
H24 C32 0.930 . S
H25 C33 0.930 . S
H26 C57 0.929 1_565 S
H27 C15 0.930 . S
H28 C16 0.929 . S
H29 C58 0.930 1_565 S
H30 C39 0.930 . S
N31 Gd0 2.661 . S
N31 C35 1.350 . S
N31 C36 1.307 . S
C32 H24 0.930 . S
C32 C33 1.355 . S
C32 C34 1.412 . S
C33 H25 0.930 . S
C33 C32 1.355 . S
C33 C36 1.402 . S
C34 C32 1.412 . S
C34 C35 1.417 . S
C34 C58 1.431 . S
C35 N31 1.350 . S
C35 C34 1.417 . S
C35 C38 1.426 . S
C36 H19 0.930 . S
C36 N31 1.307 . S
C36 C33 1.402 . S
N37 Gd0 2.601 . S
N37 C38 1.359 . S
N37 C41 1.334 . S
C38 C35 1.426 . S
C38 N37 1.359 . S
C38 C42 1.413 . S
C39 H30 0.930 . S
C39 C40 1.359 . S
C39 C41 1.394 . S
C40 C39 1.359 . S
C40 C42 1.391 . S
C40 H43 0.929 . S
C41 H23 0.930 . S
C41 N37 1.334 . S
C41 C39 1.394 . S
C42 C38 1.413 . S
C42 C40 1.391 . S
C42 C57 1.437 . S
H43 C40 0.929 . S
O44 Gd0 2.545 . S
O44 C59 1.258 . S
O45 Gd0 2.606 . S
O45 Gd1 2.362 . S
O45 C56 1.284 . S
O46 Gd1 2.324 . S
O46 C66 1.254 . S
O47 Gd0 2.429 . S
O47 C66 1.268 . S
O48 Gd0 2.545 . S
O48 C56 1.250 . S
O49 Gd0 2.412 . S
O49 C59 1.252 . S
O50 Gd1 2.545 . S
O50 C68 1.258 . S
O51 Gd0 2.362 . S
O51 Gd1 2.606 . S
O51 C67 1.284 . S
O52 Gd0 2.324 . S
O52 C75 1.254 . S
O53 Gd1 2.429 . S
O53 C75 1.268 . S
O54 Gd1 2.545 . S
O54 C67 1.250 . S
O55 Gd1 2.412 . S
O55 C68 1.252 . S
C56 O45 1.284 . S
C56 O48 1.250 . S
C57 H26 0.929 1_545 S
C57 C42 1.437 . S
C57 C58 1.317 . S
C58 H29 0.930 1_545 S
C58 C34 1.431 . S
C58 C57 1.317 . S
C59 Gd0 2.828 . S
C59 O44 1.258 . S
C59 O49 1.252 . S
C59 C60 1.497 1_545 S
C60 C59 1.497 1_565 S
C60 C61 1.395 . S
C60 C62 1.380 . S
C61 C60 1.395 . S
C61 C64 1.398 . S
C61 H76 0.930 . S
C62 C60 1.380 . S
C62 C63 1.391 . S
C62 H77 0.930 . S
C63 C62 1.391 . S
C63 C65 1.387 . S
C64 C61 1.398 . S
C64 C65 1.380 . S
C64 H78 0.930 . S
C65 C63 1.387 . S
C65 C64 1.380 . S
C65 H79 0.930 . S
C66 O46 1.254 . S
C66 O47 1.268 . S
C67 O51 1.284 . S
C67 O54 1.250 . S
C68 Gd1 2.828 . S
C68 O50 1.258 . S
C68 O55 1.252 . S
C68 C69 1.497 . S
C69 C68 1.497 . S
C69 C70 1.395 . S
C69 C71 1.380 . S
C70 C69 1.395 . S
C70 C73 1.398 . S
C70 H80 0.930 . S
C71 C69 1.380 . S
C71 C72 1.391 . S
C71 H81 0.930 . S
C72 C71 1.391 . S
C72 C74 1.387 . S
C73 C70 1.398 . S
C73 C74 1.380 . S
C73 H82 0.930 . S
C74 C72 1.387 . S
C74 C73 1.380 . S
C74 H83 0.930 . S
C75 O52 1.254 . S
C75 O53 1.268 . S
H76 C61 0.930 . S
H77 C62 0.930 . S
H78 C64 0.930 . S
H79 C65 0.930 . S
H80 C70 0.930 . S
H81 C71 0.930 . S
H82 C73 0.930 . S
H83 C74 0.930 . S
Gd84 N115 2.661 . S
Gd84 N121 2.601 . S
Gd84 O128 2.545 . S
Gd84 O129 2.606 . S
Gd84 O131 2.429 . S
Gd84 O132 2.545 . S
Gd84 O133 2.412 . S
Gd84 O135 2.362 . S
Gd84 O136 2.324 . S
Gd84 C143 2.828 . S
Gd85 N94 2.661 . S
Gd85 N98 2.601 . S
Gd85 O129 2.362 . S
Gd85 O130 2.324 . S
Gd85 O134 2.545 . S
Gd85 O135 2.606 . S
Gd85 O137 2.429 . S
Gd85 O138 2.545 . S
Gd85 O139 2.412 . S
Gd85 C152 2.828 . S
C86 C89 1.417 . S
C86 C91 1.431 . S
C86 C92 1.412 . S
C87 C90 1.437 . S
C87 C91 1.317 . S
C87 H106 0.929 . S
C88 C89 1.426 . S
C88 C90 1.413 . S
C88 N98 1.359 . S
C89 C86 1.417 . S
C89 C88 1.426 . S
C89 N94 1.350 . S
C90 C87 1.437 . S
C90 C88 1.413 . S
C90 C100 1.391 . S
C91 C86 1.431 . S
C91 C87 1.317 . S
C91 H102 0.930 . S
C92 C86 1.412 . S
C92 C93 1.355 . S
C92 H104 0.930 . S
C93 C92 1.355 . S
C93 C95 1.402 . S
C93 H105 0.930 . S
N94 Gd85 2.661 . S
N94 C89 1.350 . S
N94 C95 1.307 . S
C95 C93 1.402 . S
C95 N94 1.307 . S
C95 H96 0.930 . S
H96 C95 0.930 . S
C97 N98 1.334 . S
C97 C99 1.394 . S
C97 H101 0.930 . S
N98 Gd85 2.601 . S
N98 C88 1.359 . S
N98 C97 1.334 . S
C99 C97 1.394 . S
C99 C100 1.359 . S
C99 H111 0.930 . S
C100 C90 1.391 . S
C100 C99 1.359 . S
C100 H112 0.929 . S
H101 C97 0.930 . S
H102 C91 0.930 . S
H103 C120 0.930 . S
H104 C92 0.930 . S
H105 C93 0.930 . S
H106 C87 0.929 . S
H107 C125 0.930 . S
H108 C116 0.930 1_455 S
H109 C117 0.930 . S
H110 C141 0.943 . S
H111 C99 0.930 . S
H112 C100 0.929 . S
H113 C142 0.930 . S
H114 C123 0.930 . S
N115 Gd84 2.661 . S
N115 C119 1.350 . S
N115 C120 1.307 . S
C116 H108 0.930 1_655 S
C116 C117 1.355 . S
C116 C118 1.412 . S
C117 H109 0.930 . S
C117 C116 1.355 . S
C117 C120 1.402 . S
C118 C116 1.412 . S
C118 C119 1.417 . S
C118 C142 1.431 1_655 S
C119 N115 1.350 . S
C119 C118 1.417 . S
C119 C122 1.426 . S
C120 H103 0.930 . S
C120 N115 1.307 . S
C120 C117 1.402 . S
N121 Gd84 2.601 . S
N121 C122 1.359 . S
N121 C125 1.334 . S
C122 C119 1.426 . S
C122 N121 1.359 . S
C122 C126 1.413 . S
C123 H114 0.930 . S
C123 C124 1.359 . S
C123 C125 1.394 . S
C124 C123 1.359 . S
C124 C126 1.391 . S
C124 H127 0.929 . S
C125 H107 0.930 . S
C125 N121 1.334 . S
C125 C123 1.394 . S
C126 C122 1.413 . S
C126 C124 1.391 . S
C126 C141 1.419 1_655 S
H127 C124 0.929 . S
O128 Gd84 2.545 . S
O128 C143 1.258 . S
O129 Gd84 2.606 . S
O129 Gd85 2.362 . S
O129 C140 1.284 . S
O130 Gd85 2.324 . S
O130 C150 1.254 . S
O131 Gd84 2.429 . S
O131 C150 1.268 . S
O132 Gd84 2.545 . S
O132 C140 1.250 . S
O133 Gd84 2.412 . S
O133 C143 1.252 . S
O134 Gd85 2.545 . S
O134 C152 1.258 . S
O135 Gd84 2.362 . S
O135 Gd85 2.606 . S
O135 C151 1.284 . S
O136 Gd84 2.324 . S
O136 C159 1.254 . S
O137 Gd85 2.429 . S
O137 C159 1.268 . S
O138 Gd85 2.545 . S
O138 C151 1.250 . S
O139 Gd85 2.412 . S
O139 C152 1.252 . S
C140 O129 1.284 . S
C140 O132 1.250 . S
C141 H110 0.943 . S
C141 C126 1.419 1_455 S
C141 C142 1.321 . S
C142 H113 0.930 . S
C142 C118 1.431 1_455 S
C142 C141 1.321 . S
C143 Gd84 2.828 . S
C143 O128 1.258 . S
C143 O133 1.252 . S
C143 C144 1.497 . S
C144 C143 1.497 . S
C144 C145 1.395 . S
C144 C146 1.380 . S
C145 C144 1.395 . S
C145 C148 1.398 . S
C145 H160 0.930 . S
C146 C144 1.380 . S
C146 C147 1.391 . S
C146 H161 0.930 . S
C147 C146 1.391 . S
C147 C149 1.387 . S
C148 C145 1.398 . S
C148 C149 1.380 . S
C148 H162 0.930 . S
C149 C147 1.387 . S
C149 C148 1.380 . S
C149 H163 0.930 . S
C150 O130 1.254 . S
C150 O131 1.268 . S
C151 O135 1.284 . S
C151 O138 1.250 . S
C152 Gd85 2.828 . S
C152 O134 1.258 . S
C152 O139 1.252 . S
C152 C153 1.497 . S
C153 C152 1.497 . S
C153 C154 1.395 . S
C153 C155 1.380 . S
C154 C153 1.395 . S
C154 C157 1.398 . S
C154 H164 0.930 . S
C155 C153 1.380 . S
C155 C156 1.391 . S
C155 H165 0.930 . S
C156 C155 1.391 . S
C156 C158 1.387 . S
C157 C154 1.398 . S
C157 C158 1.380 . S
C157 H166 0.930 . S
C158 C156 1.387 . S
C158 C157 1.380 . S
C158 H167 0.930 . S
C159 O136 1.254 . S
C159 O137 1.268 . S
H160 C145 0.930 . S
H161 C146 0.930 . S
H162 C148 0.930 . S
H163 C149 0.930 . S
H164 C154 0.930 . S
H165 C155 0.930 . S
H166 C157 0.930 . S
H167 C158 0.930 . S
Gd168 N199 2.661 . S
Gd168 N205 2.601 . S
Gd168 O212 2.545 . S
Gd168 O213 2.606 . S
Gd168 O215 2.429 . S
Gd168 O216 2.545 . S
Gd168 O217 2.412 . S
Gd168 O219 2.362 . S
Gd168 O220 2.324 . S
Gd168 C227 2.828 . S
Gd169 N178 2.661 . S
Gd169 N182 2.601 . S
Gd169 O213 2.362 . S
Gd169 O214 2.324 . S
Gd169 O218 2.545 . S
Gd169 O219 2.606 . S
Gd169 O221 2.429 . S
Gd169 O222 2.545 . S
Gd169 O223 2.412 . S
Gd169 C236 2.828 . S
C170 C173 1.417 . S
C170 C175 1.431 1_545 S
C170 C176 1.412 . S
C171 C174 1.419 1_565 S
C171 C175 1.325 . S
C171 H190 0.940 . S
C172 C173 1.426 . S
C172 C174 1.413 . S
C172 N182 1.359 . S
C173 C170 1.417 . S
C173 C172 1.426 . S
C173 N178 1.350 . S
C174 C171 1.419 1_545 S
C174 C172 1.413 . S
C174 C184 1.391 . S
C175 C170 1.431 1_565 S
C175 C171 1.325 . S
C175 H186 0.930 . S
C176 C170 1.412 . S
C176 C177 1.355 . S
C176 H188 0.930 1_545 S
C177 C176 1.355 . S
C177 C179 1.402 . S
C177 H189 0.930 . S
N178 Gd169 2.661 . S
N178 C173 1.350 . S
N178 C179 1.307 . S
C179 C177 1.402 . S
C179 N178 1.307 . S
C179 H180 0.930 . S
H180 C179 0.930 . S
C181 N182 1.334 . S
C181 C183 1.394 . S
C181 H185 0.930 . S
N182 Gd169 2.601 . S
N182 C172 1.359 . S
N182 C181 1.334 . S
C183 C181 1.394 . S
C183 C184 1.359 . S
C183 H195 0.930 . S
C184 C174 1.391 . S
C184 C183 1.359 . S
C184 H196 0.929 . S
H185 C181 0.930 . S
H186 C175 0.930 . S
H187 C204 0.930 . S
H188 C176 0.930 1_565 S
H189 C177 0.930 . S
H190 C171 0.940 . S
H191 C209 0.930 . S
H192 C200 0.930 . S
H193 C201 0.930 . S
H194 C225 0.929 1_455 S
H195 C183 0.930 . S
H196 C184 0.929 . S
H197 C226 0.930 1_455 S
H198 C207 0.930 . S
N199 Gd168 2.661 . S
N199 C203 1.350 . S
N199 C204 1.307 . S
C200 H192 0.930 . S
C200 C201 1.355 . S
C200 C202 1.412 . S
C201 H193 0.930 . S
C201 C200 1.355 . S
C201 C204 1.402 . S
C202 C200 1.412 . S
C202 C203 1.417 . S
C202 C226 1.431 . S
C203 N199 1.350 . S
C203 C202 1.417 . S
C203 C206 1.426 . S
C204 H187 0.930 . S
C204 N199 1.307 . S
C204 C201 1.402 . S
N205 Gd168 2.601 . S
N205 C206 1.359 . S
N205 C209 1.334 . S
C206 C203 1.426 . S
C206 N205 1.359 . S
C206 C210 1.413 . S
C207 H198 0.930 . S
C207 C208 1.359 . S
C207 C209 1.394 . S
C208 C207 1.359 . S
C208 C210 1.391 . S
C208 H211 0.929 . S
C209 H191 0.930 . S
C209 N205 1.334 . S
C209 C207 1.394 . S
C210 C206 1.413 . S
C210 C208 1.391 . S
C210 C225 1.437 . S
H211 C208 0.929 . S
O212 Gd168 2.545 . S
O212 C227 1.258 . S
O213 Gd168 2.606 . S
O213 Gd169 2.362 . S
O213 C224 1.284 . S
O214 Gd169 2.324 . S
O214 C234 1.254 . S
O215 Gd168 2.429 . S
O215 C234 1.268 . S
O216 Gd168 2.545 . S
O216 C224 1.250 . S
O217 Gd168 2.412 . S
O217 C227 1.252 . S
O218 Gd169 2.545 . S
O218 C236 1.258 . S
O219 Gd168 2.362 . S
O219 Gd169 2.606 . S
O219 C235 1.284 . S
O220 Gd168 2.324 . S
O220 C243 1.254 . S
O221 Gd169 2.429 . S
O221 C243 1.268 . S
O222 Gd169 2.545 . S
O222 C235 1.250 . S
O223 Gd169 2.412 . S
O223 C236 1.252 . S
C224 O213 1.284 . S
C224 O216 1.250 . S
C225 H194 0.929 1_655 S
C225 C210 1.437 . S
C225 C226 1.317 . S
C226 H197 0.930 1_655 S
C226 C202 1.431 . S
C226 C225 1.317 . S
C227 Gd168 2.828 . S
C227 O212 1.258 . S
C227 O217 1.252 . S
C227 C228 1.497 1_655 S
C228 C227 1.497 1_455 S
C228 C229 1.395 . S
C228 C230 1.380 . S
C229 C228 1.395 . S
C229 C232 1.398 . S
C229 H244 0.930 . S
C230 C228 1.380 . S
C230 C231 1.391 . S
C230 H245 0.930 . S
C231 C230 1.391 . S
C231 C233 1.387 . S
C232 C229 1.398 . S
C232 C233 1.380 . S
C232 H246 0.930 . S
C233 C231 1.387 . S
C233 C232 1.380 . S
C233 H247 0.930 . S
C234 O214 1.254 . S
C234 O215 1.268 . S
C235 O219 1.284 . S
C235 O222 1.250 . S
C236 Gd169 2.828 . S
C236 O218 1.258 . S
C236 O223 1.252 . S
C236 C237 1.497 . S
C237 C236 1.497 . S
C237 C238 1.395 . S
C237 C239 1.380 . S
C238 C237 1.395 . S
C238 C241 1.398 . S
C238 H248 0.930 . S
C239 C237 1.380 . S
C239 C240 1.391 . S
C239 H249 0.930 . S
C240 C239 1.391 . S
C240 C242 1.387 . S
C241 C238 1.398 . S
C241 C242 1.380 . S
C241 H250 0.930 . S
C242 C240 1.387 . S
C242 C241 1.380 . S
C242 H251 0.930 . S
C243 O220 1.254 . S
C243 O221 1.268 . S
H244 C229 0.930 . S
H245 C230 0.930 . S
H246 C232 0.930 . S
H247 C233 0.930 . S
H248 C238 0.930 . S
H249 C239 0.930 . S
H250 C241 0.930 . S
H251 C242 0.930 . S
Gd252 N283 2.661 . S
Gd252 N289 2.601 . S
Gd252 O296 2.545 . S
Gd252 O297 2.606 . S
Gd252 O299 2.429 . S
Gd252 O300 2.545 . S
Gd252 O301 2.412 . S
Gd252 O303 2.362 . S
Gd252 O304 2.324 . S
Gd252 C311 2.828 . S
Gd253 N262 2.661 . S
Gd253 N266 2.601 . S
Gd253 O297 2.362 . S
Gd253 O298 2.324 . S
Gd253 O302 2.545 . S
Gd253 O303 2.606 . S
Gd253 O305 2.429 . S
Gd253 O306 2.545 . S
Gd253 O307 2.412 . S
Gd253 C320 2.828 . S
C254 C257 1.417 . S
C254 C259 1.431 . S
C254 C260 1.412 . S
C255 C258 1.437 . S
C255 C259 1.317 . S
C255 H274 0.929 1_545 S
C256 C257 1.426 . S
C256 C258 1.413 . S
C256 N266 1.359 . S
C257 C254 1.417 . S
C257 C256 1.426 . S
C257 N262 1.350 . S
C258 C255 1.437 . S
C258 C256 1.413 . S
C258 C268 1.391 . S
C259 C254 1.431 . S
C259 C255 1.317 . S
C259 H270 0.930 1_545 S
C260 C254 1.412 . S
C260 C261 1.355 . S
C260 H272 0.930 . S
C261 C260 1.355 . S
C261 C263 1.402 . S
C261 H273 0.930 . S
N262 Gd253 2.661 . S
N262 C257 1.350 . S
N262 C263 1.307 . S
C263 C261 1.402 . S
C263 N262 1.307 . S
C263 H264 0.930 . S
H264 C263 0.930 . S
C265 N266 1.334 . S
C265 C267 1.394 . S
C265 H269 0.930 . S
N266 Gd253 2.601 . S
N266 C256 1.359 . S
N266 C265 1.334 . S
C267 C265 1.394 . S
C267 C268 1.359 . S
C267 H279 0.930 . S
C268 C258 1.391 . S
C268 C267 1.359 . S
C268 H280 0.929 . S
H269 C265 0.930 . S
H270 C259 0.930 1_565 S
H271 C288 0.930 . S
H272 C260 0.930 . S
H273 C261 0.930 . S
H274 C255 0.929 1_565 S
H275 C293 0.930 . S
H276 C284 0.930 . S
H277 C285 0.930 . S
H278 C309 0.929 . S
H279 C267 0.930 . S
H280 C268 0.929 . S
H281 C310 0.930 . S
H282 C291 0.930 . S
N283 Gd252 2.661 . S
N283 C287 1.350 . S
N283 C288 1.307 . S
C284 H276 0.930 . S
C284 C285 1.355 . S
C284 C286 1.412 . S
C285 H277 0.930 . S
C285 C284 1.355 . S
C285 C288 1.402 . S
C286 C284 1.412 . S
C286 C287 1.417 . S
C286 C310 1.431 . S
C287 N283 1.350 . S
C287 C286 1.417 . S
C287 C290 1.426 . S
C288 H271 0.930 . S
C288 N283 1.307 . S
C288 C285 1.402 . S
N289 Gd252 2.601 . S
N289 C290 1.359 . S
N289 C293 1.334 . S
C290 C287 1.426 . S
C290 N289 1.359 . S
C290 C294 1.413 . S
C291 H282 0.930 . S
C291 C292 1.359 . S
C291 C293 1.394 . S
C292 C291 1.359 . S
C292 C294 1.391 . S
C292 H295 0.929 . S
C293 H275 0.930 . S
C293 N289 1.334 . S
C293 C291 1.394 . S
C294 C290 1.413 . S
C294 C292 1.391 . S
C294 C309 1.437 . S
H295 C292 0.929 . S
O296 Gd252 2.545 . S
O296 C311 1.258 . S
O297 Gd252 2.606 . S
O297 Gd253 2.362 . S
O297 C308 1.284 . S
O298 Gd253 2.324 . S
O298 C318 1.254 . S
O299 Gd252 2.429 . S
O299 C318 1.268 . S
O300 Gd252 2.545 . S
O300 C308 1.250 . S
O301 Gd252 2.412 . S
O301 C311 1.252 . S
O302 Gd253 2.545 . S
O302 C320 1.258 . S
O303 Gd252 2.362 . S
O303 Gd253 2.606 . S
O303 C319 1.284 . S
O304 Gd252 2.324 . S
O304 C327 1.254 . S
O305 Gd253 2.429 . S
O305 C327 1.268 . S
O306 Gd253 2.545 . S
O306 C319 1.250 . S
O307 Gd253 2.412 . S
O307 C320 1.252 . S
C308 O297 1.284 . S
C308 O300 1.250 . S
C309 H278 0.929 . S
C309 C294 1.437 . S
C309 C310 1.317 . S
C310 H281 0.930 . S
C310 C286 1.431 . S
C310 C309 1.317 . S
C311 Gd252 2.828 . S
C311 O296 1.258 . S
C311 O301 1.252 . S
C311 C312 1.497 . S
C312 C311 1.497 . S
C312 C313 1.395 . S
C312 C314 1.380 . S
C313 C312 1.395 . S
C313 C316 1.398 . S
C313 H328 0.930 . S
C314 C312 1.380 . S
C314 C315 1.391 . S
C314 H329 0.930 . S
C315 C314 1.391 . S
C315 C317 1.387 . S
C316 C313 1.398 . S
C316 C317 1.380 . S
C316 H330 0.930 . S
C317 C315 1.387 . S
C317 C316 1.380 . S
C317 H331 0.930 . S
C318 O298 1.254 . S
C318 O299 1.268 . S
C319 O303 1.284 . S
C319 O306 1.250 . S
C320 Gd253 2.828 . S
C320 O302 1.258 . S
C320 O307 1.252 . S
C320 C321 1.497 1_545 S
C321 C320 1.497 1_565 S
C321 C322 1.395 . S
C321 C323 1.380 . S
C322 C321 1.395 . S
C322 C325 1.398 . S
C322 H332 0.930 . S
C323 C321 1.380 . S
C323 C324 1.391 . S
C323 H333 0.930 . S
C324 C323 1.391 . S
C324 C326 1.387 . S
C325 C322 1.398 . S
C325 C326 1.380 . S
C325 H334 0.930 . S
C326 C324 1.387 . S
C326 C325 1.380 . S
C326 H335 0.930 . S
C327 O304 1.254 . S
C327 O305 1.268 . S
H328 C313 0.930 . S
H329 C314 0.930 . S
H330 C316 0.930 . S
H331 C317 0.930 . S
H332 C322 0.930 . S
H333 C323 0.930 . S
H334 C325 0.930 . S
H335 C326 0.930 . S
Gd336 N367 2.661 . S
Gd336 N373 2.601 . S
Gd336 O380 2.545 . S
Gd336 O381 2.606 . S
Gd336 O383 2.429 . S
Gd336 O384 2.545 . S
Gd336 O385 2.412 . S
Gd336 O387 2.362 . S
Gd336 O388 2.324 . S
Gd336 C395 2.828 . S
Gd337 N346 2.661 . S
Gd337 N350 2.601 . S
Gd337 O381 2.362 . S
Gd337 O382 2.324 . S
Gd337 O386 2.545 . S
Gd337 O387 2.606 . S
Gd337 O389 2.429 . S
Gd337 O390 2.545 . S
Gd337 O391 2.412 . S
Gd337 C404 2.828 . S
C338 C341 1.417 . S
C338 C343 1.431 1_655 S
C338 C344 1.412 . S
C339 C342 1.419 1_455 S
C339 C343 1.321 . S
C339 H358 0.943 . S
C340 C341 1.426 . S
C340 C342 1.413 . S
C340 N350 1.359 . S
C341 C338 1.417 . S
C341 C340 1.426 . S
C341 N346 1.350 . S
C342 C339 1.419 1_655 S
C342 C340 1.413 . S
C342 C352 1.391 . S
C343 C338 1.431 1_455 S
C343 C339 1.321 . S
C343 H354 0.930 . S
C344 C338 1.412 . S
C344 C345 1.355 . S
C344 H356 0.930 1_655 S
C345 C344 1.355 . S
C345 C347 1.402 . S
C345 H357 0.930 . S
N346 Gd337 2.661 . S
N346 C341 1.350 . S
N346 C347 1.307 . S
C347 C345 1.402 . S
C347 N346 1.307 . S
C347 H348 0.930 . S
H348 C347 0.930 . S
C349 N350 1.334 . S
C349 C351 1.394 . S
C349 H353 0.930 . S
N350 Gd337 2.601 . S
N350 C340 1.359 . S
N350 C349 1.334 . S
C351 C349 1.394 . S
C351 C352 1.359 . S
C351 H363 0.930 . S
C352 C342 1.391 . S
C352 C351 1.359 . S
C352 H364 0.929 . S
H353 C349 0.930 . S
H354 C343 0.930 . S
H355 C372 0.930 . S
H356 C344 0.930 1_455 S
H357 C345 0.930 . S
H358 C339 0.943 . S
H359 C377 0.930 . S
H360 C368 0.930 . S
H361 C369 0.930 . S
H362 C393 0.929 . S
H363 C351 0.930 . S
H364 C352 0.929 . S
H365 C394 0.930 . S
H366 C375 0.930 . S
N367 Gd336 2.661 . S
N367 C371 1.350 . S
N367 C372 1.307 . S
C368 H360 0.930 . S
C368 C369 1.355 . S
C368 C370 1.412 . S
C369 H361 0.930 . S
C369 C368 1.355 . S
C369 C372 1.402 . S
C370 C368 1.412 . S
C370 C371 1.417 . S
C370 C394 1.431 . S
C371 N367 1.350 . S
C371 C370 1.417 . S
C371 C374 1.426 . S
C372 H355 0.930 . S
C372 N367 1.307 . S
C372 C369 1.402 . S
N373 Gd336 2.601 . S
N373 C374 1.359 . S
N373 C377 1.334 . S
C374 C371 1.426 . S
C374 N373 1.359 . S
C374 C378 1.413 . S
C375 H366 0.930 . S
C375 C376 1.359 . S
C375 C377 1.394 . S
C376 C375 1.359 . S
C376 C378 1.391 . S
C376 H379 0.929 . S
C377 H359 0.930 . S
C377 N373 1.334 . S
C377 C375 1.394 . S
C378 C374 1.413 . S
C378 C376 1.391 . S
C378 C393 1.437 . S
H379 C376 0.929 . S
O380 Gd336 2.545 . S
O380 C395 1.258 . S
O381 Gd336 2.606 . S
O381 Gd337 2.362 . S
O381 C392 1.284 . S
O382 Gd337 2.324 . S
O382 C402 1.254 . S
O383 Gd336 2.429 . S
O383 C402 1.268 . S
O384 Gd336 2.545 . S
O384 C392 1.250 . S
O385 Gd336 2.412 . S
O385 C395 1.252 . S
O386 Gd337 2.545 . S
O386 C404 1.258 . S
O387 Gd336 2.362 . S
O387 Gd337 2.606 . S
O387 C403 1.284 . S
O388 Gd336 2.324 . S
O388 C411 1.254 . S
O389 Gd337 2.429 . S
O389 C411 1.268 . S
O390 Gd337 2.545 . S
O390 C403 1.250 . S
O391 Gd337 2.412 . S
O391 C404 1.252 . S
C392 O381 1.284 . S
C392 O384 1.250 . S
C393 H362 0.929 . S
C393 C378 1.437 . S
C393 C394 1.317 . S
C394 H365 0.930 . S
C394 C370 1.431 . S
C394 C393 1.317 . S
C395 Gd336 2.828 . S
C395 O380 1.258 . S
C395 O385 1.252 . S
C395 C396 1.497 . S
C396 C395 1.497 . S
C396 C397 1.395 . S
C396 C398 1.380 . S
C397 C396 1.395 . S
C397 C400 1.398 . S
C397 H412 0.930 . S
C398 C396 1.380 . S
C398 C399 1.391 . S
C398 H413 0.930 . S
C399 C398 1.391 . S
C399 C401 1.387 . S
C400 C397 1.398 . S
C400 C401 1.380 . S
C400 H414 0.930 . S
C401 C399 1.387 . S
C401 C400 1.380 . S
C401 H415 0.930 . S
C402 O382 1.254 . S
C402 O383 1.268 . S
C403 O387 1.284 . S
C403 O390 1.250 . S
C404 Gd337 2.828 . S
C404 O386 1.258 . S
C404 O391 1.252 . S
C404 C405 1.497 . S
C405 C404 1.497 . S
C405 C406 1.395 . S
C405 C407 1.380 . S
C406 C405 1.395 . S
C406 C409 1.398 . S
C406 H416 0.930 . S
C407 C405 1.380 . S
C407 C408 1.391 . S
C407 H417 0.930 . S
C408 C407 1.391 . S
C408 C410 1.387 . S
C409 C406 1.398 . S
C409 C410 1.380 . S
C409 H418 0.930 . S
C410 C408 1.387 . S
C410 C409 1.380 . S
C410 H419 0.930 . S
C411 O388 1.254 . S
C411 O389 1.268 . S
H412 C397 0.930 . S
H413 C398 0.930 . S
H414 C400 0.930 . S
H415 C401 0.930 . S
H416 C406 0.930 . S
H417 C407 0.930 . S
H418 C409 0.930 . S
H419 C410 0.930 . S
Gd420 N451 2.661 . S
Gd420 N457 2.601 . S
Gd420 O464 2.545 . S
Gd420 O465 2.606 . S
Gd420 O467 2.429 . S
Gd420 O468 2.545 . S
Gd420 O469 2.412 . S
Gd420 O471 2.362 . S
Gd420 O472 2.324 . S
Gd420 C479 2.828 . S
Gd421 N430 2.661 . S
Gd421 N434 2.601 . S
Gd421 O465 2.362 . S
Gd421 O466 2.324 . S
Gd421 O470 2.545 . S
Gd421 O471 2.606 . S
Gd421 O473 2.429 . S
Gd421 O474 2.545 . S
Gd421 O475 2.412 . S
Gd421 C488 2.828 . S
C422 C425 1.417 . S
C422 C427 1.431 . S
C422 C428 1.412 . S
C423 C426 1.437 . S
C423 C427 1.317 . S
C423 H442 0.929 1_655 S
C424 C425 1.426 . S
C424 C426 1.413 . S
C424 N434 1.359 . S
C425 C422 1.417 . S
C425 C424 1.426 . S
C425 N430 1.350 . S
C426 C423 1.437 . S
C426 C424 1.413 . S
C426 C436 1.391 . S
C427 C422 1.431 . S
C427 C423 1.317 . S
C427 H438 0.930 1_655 S
C428 C422 1.412 . S
C428 C429 1.355 . S
C428 H440 0.930 . S
C429 C428 1.355 . S
C429 C431 1.402 . S
C429 H441 0.930 . S
N430 Gd421 2.661 . S
N430 C425 1.350 . S
N430 C431 1.307 . S
C431 C429 1.402 . S
C431 N430 1.307 . S
C431 H432 0.930 . S
H432 C431 0.930 . S
C433 N434 1.334 . S
C433 C435 1.394 . S
C433 H437 0.930 . S
N434 Gd421 2.601 . S
N434 C424 1.359 . S
N434 C433 1.334 . S
C435 C433 1.394 . S
C435 C436 1.359 . S
C435 H447 0.930 . S
C436 C426 1.391 . S
C436 C435 1.359 . S
C436 H448 0.929 . S
H437 C433 0.930 . S
H438 C427 0.930 1_455 S
H439 C456 0.930 . S
H440 C428 0.930 . S
H441 C429 0.930 . S
H442 C423 0.929 1_455 S
H443 C461 0.930 . S
H444 C452 0.930 1_565 S
H445 C453 0.930 . S
H446 C477 0.940 . S
H447 C435 0.930 . S
H448 C436 0.929 . S
H449 C478 0.930 . S
H450 C459 0.930 . S
N451 Gd420 2.661 . S
N451 C455 1.350 . S
N451 C456 1.307 . S
C452 H444 0.930 1_545 S
C452 C453 1.355 . S
C452 C454 1.412 . S
C453 H445 0.930 . S
C453 C452 1.355 . S
C453 C456 1.402 . S
C454 C452 1.412 . S
C454 C455 1.417 . S
C454 C478 1.431 1_545 S
C455 N451 1.350 . S
C455 C454 1.417 . S
C455 C458 1.426 . S
C456 H439 0.930 . S
C456 N451 1.307 . S
C456 C453 1.402 . S
N457 Gd420 2.601 . S
N457 C458 1.359 . S
N457 C461 1.334 . S
C458 C455 1.426 . S
C458 N457 1.359 . S
C458 C462 1.413 . S
C459 H450 0.930 . S
C459 C460 1.359 . S
C459 C461 1.394 . S
C460 C459 1.359 . S
C460 C462 1.391 . S
C460 H463 0.929 . S
C461 H443 0.930 . S
C461 N457 1.334 . S
C461 C459 1.394 . S
C462 C458 1.413 . S
C462 C460 1.391 . S
C462 C477 1.419 1_545 S
H463 C460 0.929 . S
O464 Gd420 2.545 . S
O464 C479 1.258 . S
O465 Gd420 2.606 . S
O465 Gd421 2.362 . S
O465 C476 1.284 . S
O466 Gd421 2.324 . S
O466 C486 1.254 . S
O467 Gd420 2.429 . S
O467 C486 1.268 . S
O468 Gd420 2.545 . S
O468 C476 1.250 . S
O469 Gd420 2.412 . S
O469 C479 1.252 . S
O470 Gd421 2.545 . S
O470 C488 1.258 . S
O471 Gd420 2.362 . S
O471 Gd421 2.606 . S
O471 C487 1.284 . S
O472 Gd420 2.324 . S
O472 C495 1.254 . S
O473 Gd421 2.429 . S
O473 C495 1.268 . S
O474 Gd421 2.545 . S
O474 C487 1.250 . S
O475 Gd421 2.412 . S
O475 C488 1.252 . S
C476 O465 1.284 . S
C476 O468 1.250 . S
C477 H446 0.940 . S
C477 C462 1.419 1_565 S
C477 C478 1.325 . S
C478 H449 0.930 . S
C478 C454 1.431 1_565 S
C478 C477 1.325 . S
C479 Gd420 2.828 . S
C479 O464 1.258 . S
C479 O469 1.252 . S
C479 C480 1.497 . S
C480 C479 1.497 . S
C480 C481 1.395 . S
C480 C482 1.380 . S
C481 C480 1.395 . S
C481 C484 1.398 . S
C481 H496 0.930 . S
C482 C480 1.380 . S
C482 C483 1.391 . S
C482 H497 0.930 . S
C483 C482 1.391 . S
C483 C485 1.387 . S
C484 C481 1.398 . S
C484 C485 1.380 . S
C484 H498 0.930 . S
C485 C483 1.387 . S
C485 C484 1.380 . S
C485 H499 0.930 . S
C486 O466 1.254 . S
C486 O467 1.268 . S
C487 O471 1.284 . S
C487 O474 1.250 . S
C488 Gd421 2.828 . S
C488 O470 1.258 . S
C488 O475 1.252 . S
C488 C489 1.497 1_655 S
C489 C488 1.497 1_455 S
C489 C490 1.395 . S
C489 C491 1.380 . S
C490 C489 1.395 . S
C490 C493 1.398 . S
C490 H500 0.930 . S
C491 C489 1.380 . S
C491 C492 1.391 . S
C491 H501 0.930 . S
C492 C491 1.391 . S
C492 C494 1.387 . S
C493 C490 1.398 . S
C493 C494 1.380 . S
C493 H502 0.930 . S
C494 C492 1.387 . S
C494 C493 1.380 . S
C494 H503 0.930 . S
C495 O472 1.254 . S
C495 O473 1.268 . S
H496 C481 0.930 . S
H497 C482 0.930 . S
H498 C484 0.930 . S
H499 C485 0.930 . S
H500 C490 0.930 . S
H501 C491 0.930 . S
H502 C493 0.930 . S
H503 C494 0.930 . S
Gd504 N535 2.661 . S
Gd504 N541 2.601 . S
Gd504 O548 2.545 . S
Gd504 O549 2.606 . S
Gd504 O551 2.429 . S
Gd504 O552 2.545 . S
Gd504 O553 2.412 . S
Gd504 O555 2.362 . S
Gd504 O556 2.324 . S
Gd504 C563 2.828 . S
Gd505 N514 2.661 . S
Gd505 N518 2.601 . S
Gd505 O549 2.362 . S
Gd505 O550 2.324 . S
Gd505 O554 2.545 . S
Gd505 O555 2.606 . S
Gd505 O557 2.429 . S
Gd505 O558 2.545 . S
Gd505 O559 2.412 . S
Gd505 C572 2.828 . S
C506 C509 1.417 . S
C506 C511 1.431 . S
C506 C512 1.412 . S
C507 C510 1.437 . S
C507 C511 1.317 . S
C507 H526 0.929 1_455 S
C508 C509 1.426 . S
C508 C510 1.413 . S
C508 N518 1.359 . S
C509 C506 1.417 . S
C509 C508 1.426 . S
C509 N514 1.350 . S
C510 C507 1.437 . S
C510 C508 1.413 . S
C510 C520 1.391 . S
C511 C506 1.431 . S
C511 C507 1.317 . S
C511 H522 0.930 1_455 S
C512 C506 1.412 . S
C512 C513 1.355 . S
C512 H524 0.930 . S
C513 C512 1.355 . S
C513 C515 1.402 . S
C513 H525 0.930 . S
N514 Gd505 2.661 . S
N514 C509 1.350 . S
N514 C515 1.307 . S
C515 C513 1.402 . S
C515 N514 1.307 . S
C515 H516 0.930 . S
H516 C515 0.930 . S
C517 N518 1.334 . S
C517 C519 1.394 . S
C517 H521 0.930 . S
N518 Gd505 2.601 . S
N518 C508 1.359 . S
N518 C517 1.334 . S
C519 C517 1.394 . S
C519 C520 1.359 . S
C519 H531 0.930 . S
C520 C510 1.391 . S
C520 C519 1.359 . S
C520 H532 0.929 . S
H521 C517 0.930 . S
H522 C511 0.930 1_655 S
H523 C540 0.930 . S
H524 C512 0.930 . S
H525 C513 0.930 . S
H526 C507 0.929 1_655 S
H527 C545 0.930 . S
H528 C536 0.930 . S
H529 C537 0.930 . S
H530 C561 0.929 . S
H531 C519 0.930 . S
H532 C520 0.929 . S
H533 C562 0.930 . S
H534 C543 0.930 . S
N535 Gd504 2.661 . S
N535 C539 1.350 . S
N535 C540 1.307 . S
C536 H528 0.930 . S
C536 C537 1.355 . S
C536 C538 1.412 . S
C537 H529 0.930 . S
C537 C536 1.355 . S
C537 C540 1.402 . S
C538 C536 1.412 . S
C538 C539 1.417 . S
C538 C562 1.431 . S
C539 N535 1.350 . S
C539 C538 1.417 . S
C539 C542 1.426 . S
C540 H523 0.930 . S
C540 N535 1.307 . S
C540 C537 1.402 . S
N541 Gd504 2.601 . S
N541 C542 1.359 . S
N541 C545 1.334 . S
C542 C539 1.426 . S
C542 N541 1.359 . S
C542 C546 1.413 . S
C543 H534 0.930 . S
C543 C544 1.359 . S
C543 C545 1.394 . S
C544 C543 1.359 . S
C544 C546 1.391 . S
C544 H547 0.929 . S
C545 H527 0.930 . S
C545 N541 1.334 . S
C545 C543 1.394 . S
C546 C542 1.413 . S
C546 C544 1.391 . S
C546 C561 1.437 . S
H547 C544 0.929 . S
O548 Gd504 2.545 . S
O548 C563 1.258 . S
O549 Gd504 2.606 . S
O549 Gd505 2.362 . S
O549 C560 1.284 . S
O550 Gd505 2.324 . S
O550 C570 1.254 . S
O551 Gd504 2.429 . S
O551 C570 1.268 . S
O552 Gd504 2.545 . S
O552 C560 1.250 . S
O553 Gd504 2.412 . S
O553 C563 1.252 . S
O554 Gd505 2.545 . S
O554 C572 1.258 . S
O555 Gd504 2.362 . S
O555 Gd505 2.606 . S
O555 C571 1.284 . S
O556 Gd504 2.324 . S
O556 C579 1.254 . S
O557 Gd505 2.429 . S
O557 C579 1.268 . S
O558 Gd505 2.545 . S
O558 C571 1.250 . S
O559 Gd505 2.412 . S
O559 C572 1.252 . S
C560 O549 1.284 . S
C560 O552 1.250 . S
C561 H530 0.929 . S
C561 C546 1.437 . S
C561 C562 1.317 . S
C562 H533 0.930 . S
C562 C538 1.431 . S
C562 C561 1.317 . S
C563 Gd504 2.828 . S
C563 O548 1.258 . S
C563 O553 1.252 . S
C563 C564 1.497 . S
C564 C563 1.497 . S
C564 C565 1.395 . S
C564 C566 1.380 . S
C565 C564 1.395 . S
C565 C568 1.398 . S
C565 H580 0.930 . S
C566 C564 1.380 . S
C566 C567 1.391 . S
C566 H581 0.930 . S
C567 C566 1.391 . S
C567 C569 1.387 . S
C568 C565 1.398 . S
C568 C569 1.380 . S
C568 H582 0.930 . S
C569 C567 1.387 . S
C569 C568 1.380 . S
C569 H583 0.930 . S
C570 O550 1.254 . S
C570 O551 1.268 . S
C571 O555 1.284 . S
C571 O558 1.250 . S
C572 Gd505 2.828 . S
C572 O554 1.258 . S
C572 O559 1.252 . S
C572 C573 1.497 1_455 S
C573 C572 1.497 1_655 S
C573 C574 1.395 . S
C573 C575 1.380 . S
C574 C573 1.395 . S
C574 C577 1.398 . S
C574 H584 0.930 . S
C575 C573 1.380 . S
C575 C576 1.391 . S
C575 H585 0.930 . S
C576 C575 1.391 . S
C576 C578 1.387 . S
C577 C574 1.398 . S
C577 C578 1.380 . S
C577 H586 0.930 . S
C578 C576 1.387 . S
C578 C577 1.380 . S
C578 H587 0.930 . S
C579 O556 1.254 . S
C579 O557 1.268 . S
H580 C565 0.930 . S
H581 C566 0.930 . S
H582 C568 0.930 . S
H583 C569 0.930 . S
H584 C574 0.930 . S
H585 C575 0.930 . S
H586 C577 0.930 . S
H587 C578 0.930 . S
Gd588 N619 2.661 . S
Gd588 N625 2.601 . S
Gd588 O632 2.545 . S
Gd588 O633 2.606 . S
Gd588 O635 2.429 . S
Gd588 O636 2.545 . S
Gd588 O637 2.412 . S
Gd588 O639 2.362 . S
Gd588 O640 2.324 . S
Gd588 C647 2.828 . S
Gd589 N598 2.661 . S
Gd589 N602 2.601 . S
Gd589 O633 2.362 . S
Gd589 O634 2.324 . S
Gd589 O638 2.545 . S
Gd589 O639 2.606 . S
Gd589 O641 2.429 . S
Gd589 O642 2.545 . S
Gd589 O643 2.412 . S
Gd589 C656 2.828 . S
C590 C593 1.417 . S
C590 C595 1.431 1_455 S
C590 C596 1.412 . S
C591 C594 1.419 1_655 S
C591 C595 1.325 . S
C591 H610 0.940 . S
C592 C593 1.426 . S
C592 C594 1.413 . S
C592 N602 1.359 . S
C593 C590 1.417 . S
C593 C592 1.426 . S
C593 N598 1.350 . S
C594 C591 1.419 1_455 S
C594 C592 1.413 . S
C594 C604 1.391 . S
C595 C590 1.431 1_655 S
C595 C591 1.325 . S
C595 H606 0.930 . S
C596 C590 1.412 . S
C596 C597 1.355 . S
C596 H608 0.930 1_455 S
C597 C596 1.355 . S
C597 C599 1.402 . S
C597 H609 0.930 . S
N598 Gd589 2.661 . S
N598 C593 1.350 . S
N598 C599 1.307 . S
C599 C597 1.402 . S
C599 N598 1.307 . S
C599 H600 0.930 . S
H600 C599 0.930 . S
C601 N602 1.334 . S
C601 C603 1.394 . S
C601 H605 0.930 . S
N602 Gd589 2.601 . S
N602 C592 1.359 . S
N602 C601 1.334 . S
C603 C601 1.394 . S
C603 C604 1.359 . S
C603 H615 0.930 . S
C604 C594 1.391 . S
C604 C603 1.359 . S
C604 H616 0.929 . S
H605 C601 0.930 . S
H606 C595 0.930 . S
H607 C624 0.930 . S
H608 C596 0.930 1_655 S
H609 C597 0.930 . S
H610 C591 0.940 . S
H611 C629 0.930 . S
H612 C620 0.930 . S
H613 C621 0.930 . S
H614 C645 0.929 1_545 S
H615 C603 0.930 . S
H616 C604 0.929 . S
H617 C646 0.930 1_545 S
H618 C627 0.930 . S
N619 Gd588 2.661 . S
N619 C623 1.350 . S
N619 C624 1.307 . S
C620 H612 0.930 . S
C620 C621 1.355 . S
C620 C622 1.412 . S
C621 H613 0.930 . S
C621 C620 1.355 . S
C621 C624 1.402 . S
C622 C620 1.412 . S
C622 C623 1.417 . S
C622 C646 1.431 . S
C623 N619 1.350 . S
C623 C622 1.417 . S
C623 C626 1.426 . S
C624 H607 0.930 . S
C624 N619 1.307 . S
C624 C621 1.402 . S
N625 Gd588 2.601 . S
N625 C626 1.359 . S
N625 C629 1.334 . S
C626 C623 1.426 . S
C626 N625 1.359 . S
C626 C630 1.413 . S
C627 H618 0.930 . S
C627 C628 1.359 . S
C627 C629 1.394 . S
C628 C627 1.359 . S
C628 C630 1.391 . S
C628 H631 0.929 . S
C629 H611 0.930 . S
C629 N625 1.334 . S
C629 C627 1.394 . S
C630 C626 1.413 . S
C630 C628 1.391 . S
C630 C645 1.437 . S
H631 C628 0.929 . S
O632 Gd588 2.545 . S
O632 C647 1.258 . S
O633 Gd588 2.606 . S
O633 Gd589 2.362 . S
O633 C644 1.284 . S
O634 Gd589 2.324 . S
O634 C654 1.254 . S
O635 Gd588 2.429 . S
O635 C654 1.268 . S
O636 Gd588 2.545 . S
O636 C644 1.250 . S
O637 Gd588 2.412 . S
O637 C647 1.252 . S
O638 Gd589 2.545 . S
O638 C656 1.258 . S
O639 Gd588 2.362 . S
O639 Gd589 2.606 . S
O639 C655 1.284 . S
O640 Gd588 2.324 . S
O640 C663 1.254 . S
O641 Gd589 2.429 . S
O641 C663 1.268 . S
O642 Gd589 2.545 . S
O642 C655 1.250 . S
O643 Gd589 2.412 . S
O643 C656 1.252 . S
C644 O633 1.284 . S
C644 O636 1.250 . S
C645 H614 0.929 1_565 S
C645 C630 1.437 . S
C645 C646 1.317 . S
C646 H617 0.930 1_565 S
C646 C622 1.431 . S
C646 C645 1.317 . S
C647 Gd588 2.828 . S
C647 O632 1.258 . S
C647 O637 1.252 . S
C647 C648 1.497 1_565 S
C648 C647 1.497 1_545 S
C648 C649 1.395 . S
C648 C650 1.380 . S
C649 C648 1.395 . S
C649 C652 1.398 . S
C649 H664 0.930 . S
C650 C648 1.380 . S
C650 C651 1.391 . S
C650 H665 0.930 . S
C651 C650 1.391 . S
C651 C653 1.387 . S
C652 C649 1.398 . S
C652 C653 1.380 . S
C652 H666 0.930 . S
C653 C651 1.387 . S
C653 C652 1.380 . S
C653 H667 0.930 . S
C654 O634 1.254 . S
C654 O635 1.268 . S
C655 O639 1.284 . S
C655 O642 1.250 . S
C656 Gd589 2.828 . S
C656 O638 1.258 . S
C656 O643 1.252 . S
C656 C657 1.497 . S
C657 C656 1.497 . S
C657 C658 1.395 . S
C657 C659 1.380 . S
C658 C657 1.395 . S
C658 C661 1.398 . S
C658 H668 0.930 . S
C659 C657 1.380 . S
C659 C660 1.391 . S
C659 H669 0.930 . S
C660 C659 1.391 . S
C660 C662 1.387 . S
C661 C658 1.398 . S
C661 C662 1.380 . S
C661 H670 0.930 . S
C662 C660 1.387 . S
C662 C661 1.380 . S
C662 H671 0.930 . S
C663 O640 1.254 . S
C663 O641 1.268 . S
H664 C649 0.930 . S
H665 C650 0.930 . S
H666 C652 0.930 . S
H667 C653 0.930 . S
H668 C658 0.930 . S
H669 C659 0.930 . S
H670 C661 0.930 . S
H671 C662 0.930 . S
Gd672 N703 2.661 . S
Gd672 N709 2.601 . S
Gd672 O716 2.545 . S
Gd672 O717 2.606 . S
Gd672 O719 2.429 . S
Gd672 O720 2.545 . S
Gd672 O721 2.412 . S
Gd672 O723 2.362 . S
Gd672 O724 2.324 . S
Gd672 C731 2.828 . S
Gd673 N682 2.661 . S
Gd673 N686 2.601 . S
Gd673 O717 2.362 . S
Gd673 O718 2.324 . S
Gd673 O722 2.545 . S
Gd673 O723 2.606 . S
Gd673 O725 2.429 . S
Gd673 O726 2.545 . S
Gd673 O727 2.412 . S
Gd673 C740 2.828 . S
C674 C677 1.417 . S
C674 C679 1.431 . S
C674 C680 1.412 . S
C675 C678 1.437 . S
C675 C679 1.317 . S
C675 H694 0.929 . S
C676 C677 1.426 . S
C676 C678 1.413 . S
C676 N686 1.359 . S
C677 C674 1.417 . S
C677 C676 1.426 . S
C677 N682 1.350 . S
C678 C675 1.437 . S
C678 C676 1.413 . S
C678 C688 1.391 . S
C679 C674 1.431 . S
C679 C675 1.317 . S
C679 H690 0.930 . S
C680 C674 1.412 . S
C680 C681 1.355 . S
C680 H692 0.930 . S
C681 C680 1.355 . S
C681 C683 1.402 . S
C681 H693 0.930 . S
N682 Gd673 2.661 . S
N682 C677 1.350 . S
N682 C683 1.307 . S
C683 C681 1.402 . S
C683 N682 1.307 . S
C683 H684 0.930 . S
H684 C683 0.930 . S
C685 N686 1.334 . S
C685 C687 1.394 . S
C685 H689 0.930 . S
N686 Gd673 2.601 . S
N686 C676 1.359 . S
N686 C685 1.334 . S
C687 C685 1.394 . S
C687 C688 1.359 . S
C687 H699 0.930 . S
C688 C678 1.391 . S
C688 C687 1.359 . S
C688 H700 0.929 . S
H689 C685 0.930 . S
H690 C679 0.930 . S
H691 C708 0.930 . S
H692 C680 0.930 . S
H693 C681 0.930 . S
H694 C675 0.929 . S
H695 C713 0.930 . S
H696 C704 0.930 1_545 S
H697 C705 0.930 . S
H698 C729 0.943 . S
H699 C687 0.930 . S
H700 C688 0.929 . S
H701 C730 0.930 . S
H702 C711 0.930 . S
N703 Gd672 2.661 . S
N703 C707 1.350 . S
N703 C708 1.307 . S
C704 H696 0.930 1_565 S
C704 C705 1.355 . S
C704 C706 1.412 . S
C705 H697 0.930 . S
C705 C704 1.355 . S
C705 C708 1.402 . S
C706 C704 1.412 . S
C706 C707 1.417 . S
C706 C730 1.431 1_565 S
C707 N703 1.350 . S
C707 C706 1.417 . S
C707 C710 1.426 . S
C708 H691 0.930 . S
C708 N703 1.307 . S
C708 C705 1.402 . S
N709 Gd672 2.601 . S
N709 C710 1.359 . S
N709 C713 1.334 . S
C710 C707 1.426 . S
C710 N709 1.359 . S
C710 C714 1.413 . S
C711 H702 0.930 . S
C711 C712 1.359 . S
C711 C713 1.394 . S
C712 C711 1.359 . S
C712 C714 1.391 . S
C712 H715 0.929 . S
C713 H695 0.930 . S
C713 N709 1.334 . S
C713 C711 1.394 . S
C714 C710 1.413 . S
C714 C712 1.391 . S
C714 C729 1.419 1_565 S
H715 C712 0.929 . S
O716 Gd672 2.545 . S
O716 C731 1.258 . S
O717 Gd672 2.606 . S
O717 Gd673 2.362 . S
O717 C728 1.284 . S
O718 Gd673 2.324 . S
O718 C738 1.254 . S
O719 Gd672 2.429 . S
O719 C738 1.268 . S
O720 Gd672 2.545 . S
O720 C728 1.250 . S
O721 Gd672 2.412 . S
O721 C731 1.252 . S
O722 Gd673 2.545 . S
O722 C740 1.258 . S
O723 Gd672 2.362 . S
O723 Gd673 2.606 . S
O723 C739 1.284 . S
O724 Gd672 2.324 . S
O724 C747 1.254 . S
O725 Gd673 2.429 . S
O725 C747 1.268 . S
O726 Gd673 2.545 . S
O726 C739 1.250 . S
O727 Gd673 2.412 . S
O727 C740 1.252 . S
C728 O717 1.284 . S
C728 O720 1.250 . S
C729 H698 0.943 . S
C729 C714 1.419 1_545 S
C729 C730 1.321 . S
C730 H701 0.930 . S
C730 C706 1.431 1_545 S
C730 C729 1.321 . S
C731 Gd672 2.828 . S
C731 O716 1.258 . S
C731 O721 1.252 . S
C731 C732 1.497 . S
C732 C731 1.497 . S
C732 C733 1.395 . S
C732 C734 1.380 . S
C733 C732 1.395 . S
C733 C736 1.398 . S
C733 H748 0.930 . S
C734 C732 1.380 . S
C734 C735 1.391 . S
C734 H749 0.930 . S
C735 C734 1.391 . S
C735 C737 1.387 . S
C736 C733 1.398 . S
C736 C737 1.380 . S
C736 H750 0.930 . S
C737 C735 1.387 . S
C737 C736 1.380 . S
C737 H751 0.930 . S
C738 O718 1.254 . S
C738 O719 1.268 . S
C739 O723 1.284 . S
C739 O726 1.250 . S
C740 Gd673 2.828 . S
C740 O722 1.258 . S
C740 O727 1.252 . S
C740 C741 1.497 . S
C741 C740 1.497 . S
C741 C742 1.395 . S
C741 C743 1.380 . S
C742 C741 1.395 . S
C742 C745 1.398 . S
C742 H752 0.930 . S
C743 C741 1.380 . S
C743 C744 1.391 . S
C743 H753 0.930 . S
C744 C743 1.391 . S
C744 C746 1.387 . S
C745 C742 1.398 . S
C745 C746 1.380 . S
C745 H754 0.930 . S
C746 C744 1.387 . S
C746 C745 1.380 . S
C746 H755 0.930 . S
C747 O724 1.254 . S
C747 O725 1.268 . S
H748 C733 0.930 . S
H749 C734 0.930 . S
H750 C736 0.930 . S
H751 C737 0.930 . S
H752 C742 0.930 . S
H753 C743 0.930 . S
H754 C745 0.930 . S
H755 C746 0.930 . S
Gd756 N787 2.661 . S
Gd756 N793 2.601 . S
Gd756 O800 2.545 . S
Gd756 O801 2.606 . S
Gd756 O803 2.429 . S
Gd756 O804 2.545 . S
Gd756 O805 2.412 . S
Gd756 O807 2.362 . S
Gd756 O808 2.324 . S
Gd756 C815 2.828 . S
Gd757 N766 2.661 . S
Gd757 N770 2.601 . S
Gd757 O801 2.362 . S
Gd757 O802 2.324 . S
Gd757 O806 2.545 . S
Gd757 O807 2.606 . S
Gd757 O809 2.429 . S
Gd757 O810 2.545 . S
Gd757 O811 2.412 . S
Gd757 C824 2.828 . S
C758 C761 1.417 . S
C758 C763 1.431 . S
C758 C764 1.412 . S
C759 C762 1.437 . S
C759 C763 1.317 . S
C759 H778 0.929 . S
C760 C761 1.426 . S
C760 C762 1.413 . S
C760 N770 1.359 . S
C761 C758 1.417 . S
C761 C760 1.426 . S
C761 N766 1.350 . S
C762 C759 1.437 . S
C762 C760 1.413 . S
C762 C772 1.391 . S
C763 C758 1.431 . S
C763 C759 1.317 . S
C763 H774 0.930 . S
C764 C758 1.412 . S
C764 C765 1.355 . S
C764 H776 0.930 . S
C765 C764 1.355 . S
C765 C767 1.402 . S
C765 H777 0.930 . S
N766 Gd757 2.661 . S
N766 C761 1.350 . S
N766 C767 1.307 . S
C767 C765 1.402 . S
C767 N766 1.307 . S
C767 H768 0.930 . S
H768 C767 0.930 . S
C769 N770 1.334 . S
C769 C771 1.394 . S
C769 H773 0.930 . S
N770 Gd757 2.601 . S
N770 C760 1.359 . S
N770 C769 1.334 . S
C771 C769 1.394 . S
C771 C772 1.359 . S
C771 H783 0.930 . S
C772 C762 1.391 . S
C772 C771 1.359 . S
C772 H784 0.929 . S
H773 C769 0.930 . S
H774 C763 0.930 . S
H775 C792 0.930 . S
H776 C764 0.930 . S
H777 C765 0.930 . S
H778 C759 0.929 . S
H779 C797 0.930 . S
H780 C788 0.930 . S
H781 C789 0.930 . S
H782 C813 0.929 1_655 S
H783 C771 0.930 . S
H784 C772 0.929 . S
H785 C814 0.930 1_655 S
H786 C795 0.930 . S
N787 Gd756 2.661 . S
N787 C791 1.350 . S
N787 C792 1.307 . S
C788 H780 0.930 . S
C788 C789 1.355 . S
C788 C790 1.412 . S
C789 H781 0.930 . S
C789 C788 1.355 . S
C789 C792 1.402 . S
C790 C788 1.412 . S
C790 C791 1.417 . S
C790 C814 1.431 . S
C791 N787 1.350 . S
C791 C790 1.417 . S
C791 C794 1.426 . S
C792 H775 0.930 . S
C792 N787 1.307 . S
C792 C789 1.402 . S
N793 Gd756 2.601 . S
N793 C794 1.359 . S
N793 C797 1.334 . S
C794 C791 1.426 . S
C794 N793 1.359 . S
C794 C798 1.413 . S
C795 H786 0.930 . S
C795 C796 1.359 . S
C795 C797 1.394 . S
C796 C795 1.359 . S
C796 C798 1.391 . S
C796 H799 0.929 . S
C797 H779 0.930 . S
C797 N793 1.334 . S
C797 C795 1.394 . S
C798 C794 1.413 . S
C798 C796 1.391 . S
C798 C813 1.437 . S
H799 C796 0.929 . S
O800 Gd756 2.545 . S
O800 C815 1.258 . S
O801 Gd756 2.606 . S
O801 Gd757 2.362 . S
O801 C812 1.284 . S
O802 Gd757 2.324 . S
O802 C822 1.254 . S
O803 Gd756 2.429 . S
O803 C822 1.268 . S
O804 Gd756 2.545 . S
O804 C812 1.250 . S
O805 Gd756 2.412 . S
O805 C815 1.252 . S
O806 Gd757 2.545 . S
O806 C824 1.258 . S
O807 Gd756 2.362 . S
O807 Gd757 2.606 . S
O807 C823 1.284 . S
O808 Gd756 2.324 . S
O808 C831 1.254 . S
O809 Gd757 2.429 . S
O809 C831 1.268 . S
O810 Gd757 2.545 . S
O810 C823 1.250 . S
O811 Gd757 2.412 . S
O811 C824 1.252 . S
C812 O801 1.284 . S
C812 O804 1.250 . S
C813 H782 0.929 1_455 S
C813 C798 1.437 . S
C813 C814 1.317 . S
C814 H785 0.930 1_455 S
C814 C790 1.431 . S
C814 C813 1.317 . S
C815 Gd756 2.828 . S
C815 O800 1.258 . S
C815 O805 1.252 . S
C815 C816 1.497 1_455 S
C816 C815 1.497 1_655 S
C816 C817 1.395 . S
C816 C818 1.380 . S
C817 C816 1.395 . S
C817 C820 1.398 . S
C817 H832 0.930 . S
C818 C816 1.380 . S
C818 C819 1.391 . S
C818 H833 0.930 . S
C819 C818 1.391 . S
C819 C821 1.387 . S
C820 C817 1.398 . S
C820 C821 1.380 . S
C820 H834 0.930 . S
C821 C819 1.387 . S
C821 C820 1.380 . S
C821 H835 0.930 . S
C822 O802 1.254 . S
C822 O803 1.268 . S
C823 O807 1.284 . S
C823 O810 1.250 . S
C824 Gd757 2.828 . S
C824 O806 1.258 . S
C824 O811 1.252 . S
C824 C825 1.497 . S
C825 C824 1.497 . S
C825 C826 1.395 . S
C825 C827 1.380 . S
C826 C825 1.395 . S
C826 C829 1.398 . S
C826 H836 0.930 . S
C827 C825 1.380 . S
C827 C828 1.391 . S
C827 H837 0.930 . S
C828 C827 1.391 . S
C828 C830 1.387 . S
C829 C826 1.398 . S
C829 C830 1.380 . S
C829 H838 0.930 . S
C830 C828 1.387 . S
C830 C829 1.380 . S
C830 H839 0.930 . S
C831 O808 1.254 . S
C831 O809 1.268 . S
H832 C817 0.930 . S
H833 C818 0.930 . S
H834 C820 0.930 . S
H835 C821 0.930 . S
H836 C826 0.930 . S
H837 C827 0.930 . S
H838 C829 0.930 . S
H839 C830 0.930 . S
Gd840 N871 2.661 . S
Gd840 N877 2.601 . S
Gd840 O884 2.545 . S
Gd840 O885 2.606 . S
Gd840 O887 2.429 . S
Gd840 O888 2.545 . S
Gd840 O889 2.412 . S
Gd840 O891 2.362 . S
Gd840 O892 2.324 . S
Gd840 C899 2.828 . S
Gd841 N850 2.661 . S
Gd841 N854 2.601 . S
Gd841 O885 2.362 . S
Gd841 O886 2.324 . S
Gd841 O890 2.545 . S
Gd841 O891 2.606 . S
Gd841 O893 2.429 . S
Gd841 O894 2.545 . S
Gd841 O895 2.412 . S
Gd841 C908 2.828 . S
C842 C845 1.417 . S
C842 C847 1.431 . S
C842 C848 1.412 . S
C843 C846 1.437 . S
C843 C847 1.317 . S
C843 H862 0.929 1_565 S
C844 C845 1.426 . S
C844 C846 1.413 . S
C844 N854 1.359 . S
C845 C842 1.417 . S
C845 C844 1.426 . S
C845 N850 1.350 . S
C846 C843 1.437 . S
C846 C844 1.413 . S
C846 C856 1.391 . S
C847 C842 1.431 . S
C847 C843 1.317 . S
C847 H858 0.930 1_565 S
C848 C842 1.412 . S
C848 C849 1.355 . S
C848 H860 0.930 . S
C849 C848 1.355 . S
C849 C851 1.402 . S
C849 H861 0.930 . S
N850 Gd841 2.661 . S
N850 C845 1.350 . S
N850 C851 1.307 . S
C851 C849 1.402 . S
C851 N850 1.307 . S
C851 H852 0.930 . S
H852 C851 0.930 . S
C853 N854 1.334 . S
C853 C855 1.394 . S
C853 H857 0.930 . S
N854 Gd841 2.601 . S
N854 C844 1.359 . S
N854 C853 1.334 . S
C855 C853 1.394 . S
C855 C856 1.359 . S
C855 H867 0.930 . S
C856 C846 1.391 . S
C856 C855 1.359 . S
C856 H868 0.929 . S
H857 C853 0.930 . S
H858 C847 0.930 1_545 S
H859 C876 0.930 . S
H860 C848 0.930 . S
H861 C849 0.930 . S
H862 C843 0.929 1_545 S
H863 C881 0.930 . S
H864 C872 0.930 1_655 S
H865 C873 0.930 . S
H866 C897 0.940 . S
H867 C855 0.930 . S
H868 C856 0.929 . S
H869 C898 0.930 . S
H870 C879 0.930 . S
N871 Gd840 2.661 . S
N871 C875 1.350 . S
N871 C876 1.307 . S
C872 H864 0.930 1_455 S
C872 C873 1.355 . S
C872 C874 1.412 . S
C873 H865 0.930 . S
C873 C872 1.355 . S
C873 C876 1.402 . S
C874 C872 1.412 . S
C874 C875 1.417 . S
C874 C898 1.431 1_455 S
C875 N871 1.350 . S
C875 C874 1.417 . S
C875 C878 1.426 . S
C876 H859 0.930 . S
C876 N871 1.307 . S
C876 C873 1.402 . S
N877 Gd840 2.601 . S
N877 C878 1.359 . S
N877 C881 1.334 . S
C878 C875 1.426 . S
C878 N877 1.359 . S
C878 C882 1.413 . S
C879 H870 0.930 . S
C879 C880 1.359 . S
C879 C881 1.394 . S
C880 C879 1.359 . S
C880 C882 1.391 . S
C880 H883 0.929 . S
C881 H863 0.930 . S
C881 N877 1.334 . S
C881 C879 1.394 . S
C882 C878 1.413 . S
C882 C880 1.391 . S
C882 C897 1.419 1_455 S
H883 C880 0.929 . S
O884 Gd840 2.545 . S
O884 C899 1.258 . S
O885 Gd840 2.606 . S
O885 Gd841 2.362 . S
O885 C896 1.284 . S
O886 Gd841 2.324 . S
O886 C906 1.254 . S
O887 Gd840 2.429 . S
O887 C906 1.268 . S
O888 Gd840 2.545 . S
O888 C896 1.250 . S
O889 Gd840 2.412 . S
O889 C899 1.252 . S
O890 Gd841 2.545 . S
O890 C908 1.258 . S
O891 Gd840 2.362 . S
O891 Gd841 2.606 . S
O891 C907 1.284 . S
O892 Gd840 2.324 . S
O892 C915 1.254 . S
O893 Gd841 2.429 . S
O893 C915 1.268 . S
O894 Gd841 2.545 . S
O894 C907 1.250 . S
O895 Gd841 2.412 . S
O895 C908 1.252 . S
C896 O885 1.284 . S
C896 O888 1.250 . S
C897 H866 0.940 . S
C897 C882 1.419 1_655 S
C897 C898 1.325 . S
C898 H869 0.930 . S
C898 C874 1.431 1_655 S
C898 C897 1.325 . S
C899 Gd840 2.828 . S
C899 O884 1.258 . S
C899 O889 1.252 . S
C899 C900 1.497 . S
C900 C899 1.497 . S
C900 C901 1.395 . S
C900 C902 1.380 . S
C901 C900 1.395 . S
C901 C904 1.398 . S
C901 H916 0.930 . S
C902 C900 1.380 . S
C902 C903 1.391 . S
C902 H917 0.930 . S
C903 C902 1.391 . S
C903 C905 1.387 . S
C904 C901 1.398 . S
C904 C905 1.380 . S
C904 H918 0.930 . S
C905 C903 1.387 . S
C905 C904 1.380 . S
C905 H919 0.930 . S
C906 O886 1.254 . S
C906 O887 1.268 . S
C907 O891 1.284 . S
C907 O894 1.250 . S
C908 Gd841 2.828 . S
C908 O890 1.258 . S
C908 O895 1.252 . S
C908 C909 1.497 1_565 S
C909 C908 1.497 1_545 S
C909 C910 1.395 . S
C909 C911 1.380 . S
C910 C909 1.395 . S
C910 C913 1.398 . S
C910 H920 0.930 . S
C911 C909 1.380 . S
C911 C912 1.391 . S
C911 H921 0.930 . S
C912 C911 1.391 . S
C912 C914 1.387 . S
C913 C910 1.398 . S
C913 C914 1.380 . S
C913 H922 0.930 . S
C914 C912 1.387 . S
C914 C913 1.380 . S
C914 H923 0.930 . S
C915 O892 1.254 . S
C915 O893 1.268 . S
H916 C901 0.930 . S
H917 C902 0.930 . S
H918 C904 0.930 . S
H919 C905 0.930 . S
H920 C910 0.930 . S
H921 C911 0.930 . S
H922 C913 0.930 . S
H923 C914 0.930 . S
Gd924 N955 2.661 . S
Gd924 N961 2.601 . S
Gd924 O968 2.545 . S
Gd924 O969 2.606 . S
Gd924 O971 2.429 . S
Gd924 O972 2.545 . S
Gd924 O973 2.412 . S
Gd924 O975 2.362 . S
Gd924 O976 2.324 . S
Gd924 C983 2.828 . S
Gd925 N934 2.661 . S
Gd925 N938 2.601 . S
Gd925 O969 2.362 . S
Gd925 O970 2.324 . S
Gd925 O974 2.545 . S
Gd925 O975 2.606 . S
Gd925 O977 2.429 . S
Gd925 O978 2.545 . S
Gd925 O979 2.412 . S
Gd925 C992 2.828 . S
C926 C929 1.417 . S
C926 C931 1.431 1_565 S
C926 C932 1.412 . S
C927 C930 1.419 1_545 S
C927 C931 1.321 . S
C927 H946 0.943 . S
C928 C929 1.426 . S
C928 C930 1.413 . S
C928 N938 1.359 . S
C929 C926 1.417 . S
C929 C928 1.426 . S
C929 N934 1.350 . S
C930 C927 1.419 1_565 S
C930 C928 1.413 . S
C930 C940 1.391 . S
C931 C926 1.431 1_545 S
C931 C927 1.321 . S
C931 H942 0.930 . S
C932 C926 1.412 . S
C932 C933 1.355 . S
C932 H944 0.930 1_565 S
C933 C932 1.355 . S
C933 C935 1.402 . S
C933 H945 0.930 . S
N934 Gd925 2.661 . S
N934 C929 1.350 . S
N934 C935 1.307 . S
C935 C933 1.402 . S
C935 N934 1.307 . S
C935 H936 0.930 . S
H936 C935 0.930 . S
C937 N938 1.334 . S
C937 C939 1.394 . S
C937 H941 0.930 . S
N938 Gd925 2.601 . S
N938 C928 1.359 . S
N938 C937 1.334 . S
C939 C937 1.394 . S
C939 C940 1.359 . S
C939 H951 0.930 . S
C940 C930 1.391 . S
C940 C939 1.359 . S
C940 H952 0.929 . S
H941 C937 0.930 . S
H942 C931 0.930 . S
H943 C960 0.930 . S
H944 C932 0.930 1_545 S
H945 C933 0.930 . S
H946 C927 0.943 . S
H947 C965 0.930 . S
H948 C956 0.930 . S
H949 C957 0.930 . S
H950 C981 0.929 . S
H951 C939 0.930 . S
H952 C940 0.929 . S
H953 C982 0.930 . S
H954 C963 0.930 . S
N955 Gd924 2.661 . S
N955 C959 1.350 . S
N955 C960 1.307 . S
C956 H948 0.930 . S
C956 C957 1.355 . S
C956 C958 1.412 . S
C957 H949 0.930 . S
C957 C956 1.355 . S
C957 C960 1.402 . S
C958 C956 1.412 . S
C958 C959 1.417 . S
C958 C982 1.431 . S
C959 N955 1.350 . S
C959 C958 1.417 . S
C959 C962 1.426 . S
C960 H943 0.930 . S
C960 N955 1.307 . S
C960 C957 1.402 . S
N961 Gd924 2.601 . S
N961 C962 1.359 . S
N961 C965 1.334 . S
C962 C959 1.426 . S
C962 N961 1.359 . S
C962 C966 1.413 . S
C963 H954 0.930 . S
C963 C964 1.359 . S
C963 C965 1.394 . S
C964 C963 1.359 . S
C964 C966 1.391 . S
C964 H967 0.929 . S
C965 H947 0.930 . S
C965 N961 1.334 . S
C965 C963 1.394 . S
C966 C962 1.413 . S
C966 C964 1.391 . S
C966 C981 1.437 . S
H967 C964 0.929 . S
O968 Gd924 2.545 . S
O968 C983 1.258 . S
O969 Gd924 2.606 . S
O969 Gd925 2.362 . S
O969 C980 1.284 . S
O970 Gd925 2.324 . S
O970 C990 1.254 . S
O971 Gd924 2.429 . S
O971 C990 1.268 . S
O972 Gd924 2.545 . S
O972 C980 1.250 . S
O973 Gd924 2.412 . S
O973 C983 1.252 . S
O974 Gd925 2.545 . S
O974 C992 1.258 . S
O975 Gd924 2.362 . S
O975 Gd925 2.606 . S
O975 C991 1.284 . S
O976 Gd924 2.324 . S
O976 C999 1.254 . S
O977 Gd925 2.429 . S
O977 C999 1.268 . S
O978 Gd925 2.545 . S
O978 C991 1.250 . S
O979 Gd925 2.412 . S
O979 C992 1.252 . S
C980 O969 1.284 . S
C980 O972 1.250 . S
C981 H950 0.929 . S
C981 C966 1.437 . S
C981 C982 1.317 . S
C982 H953 0.930 . S
C982 C958 1.431 . S
C982 C981 1.317 . S
C983 Gd924 2.828 . S
C983 O968 1.258 . S
C983 O973 1.252 . S
C983 C984 1.497 . S
C984 C983 1.497 . S
C984 C985 1.395 . S
C984 C986 1.380 . S
C985 C984 1.395 . S
C985 C988 1.398 . S
C985 H1000 0.930 . S
C986 C984 1.380 . S
C986 C987 1.391 . S
C986 H1001 0.930 . S
C987 C986 1.391 . S
C987 C989 1.387 . S
C988 C985 1.398 . S
C988 C989 1.380 . S
C988 H1002 0.930 . S
C989 C987 1.387 . S
C989 C988 1.380 . S
C989 H1003 0.930 . S
C990 O970 1.254 . S
C990 O971 1.268 . S
C991 O975 1.284 . S
C991 O978 1.250 . S
C992 Gd925 2.828 . S
C992 O974 1.258 . S
C992 O979 1.252 . S
C992 C993 1.497 . S
C993 C992 1.497 . S
C993 C994 1.395 . S
C993 C995 1.380 . S
C994 C993 1.395 . S
C994 C997 1.398 . S
C994 H1004 0.930 . S
C995 C993 1.380 . S
C995 C996 1.391 . S
C995 H1005 0.930 . S
C996 C995 1.391 . S
C996 C998 1.387 . S
C997 C994 1.398 . S
C997 C998 1.380 . S
C997 H1006 0.930 . S
C998 C996 1.387 . S
C998 C997 1.380 . S
C998 H1007 0.930 . S
C999 O976 1.254 . S
C999 O977 1.268 . S
H1000 C985 0.930 . S
H1001 C986 0.930 . S
H1002 C988 0.930 . S
H1003 C989 0.930 . S
H1004 C994 0.930 . S
H1005 C995 0.930 . S
H1006 C997 0.930 . S
H1007 C998 0.930 . S
H1008 C1016 0.950 . S
H1009 C1021 0.950 . S
H1010 C1018 0.950 . S
H1011 C1020 0.950 . S
H1012 C1022 0.950 . S
H1013 C1024 0.950 . S
H1014 C1026 0.950 . S
H1015 C1027 0.950 . S
C1016 H1008 0.950 . S
C1016 C1017 1.386 . S
C1016 C1018 1.391 . S
C1017 C1016 1.386 . S
C1017 C1021 1.393 . S
C1018 H1010 0.950 . S
C1018 C1016 1.391 . S
C1018 C1019 1.400 . S
C1019 C1018 1.400 . S
C1019 C1020 1.398 . S
C1019 C1025 1.491 . S
C1020 H1011 0.950 . S
C1020 C1019 1.398 . S
C1020 C1021 1.391 . S
C1021 H1009 0.950 . S
C1021 C1017 1.393 . S
C1021 C1020 1.391 . S
C1022 H1012 0.950 . S
C1022 C1023 1.386 . S
C1022 C1024 1.391 . S
C1023 C1022 1.386 . S
C1023 C1027 1.393 . S
C1024 H1013 0.950 . S
C1024 C1022 1.391 . S
C1024 C1025 1.400 . S
C1025 C1019 1.491 . S
C1025 C1024 1.400 . S
C1025 C1026 1.398 . S
C1026 H1014 0.950 . S
C1026 C1025 1.398 . S
C1026 C1027 1.391 . S
C1027 H1015 0.950 . S
C1027 C1023 1.393 . S
C1027 C1026 1.391 . S
H1028 C1036 0.950 . S
H1029 C1041 0.950 . S
H1030 C1038 0.950 . S
H1031 C1040 0.950 . S
H1032 C1042 0.950 . S
H1033 C1044 0.950 . S
H1034 C1046 0.950 . S
H1035 C1047 0.950 . S
C1036 H1028 0.950 . S
C1036 C1037 1.386 . S
C1036 C1038 1.391 . S
C1037 C1036 1.386 . S
C1037 C1041 1.393 . S
C1038 H1030 0.950 . S
C1038 C1036 1.391 . S
C1038 C1039 1.400 . S
C1039 C1038 1.400 . S
C1039 C1040 1.398 . S
C1039 C1045 1.491 1_455 S
C1040 H1031 0.950 . S
C1040 C1039 1.398 . S
C1040 C1041 1.391 . S
C1041 H1029 0.950 . S
C1041 C1037 1.393 . S
C1041 C1040 1.391 . S
C1042 H1032 0.950 . S
C1042 C1043 1.386 . S
C1042 C1044 1.391 . S
C1043 C1042 1.386 . S
C1043 C1047 1.393 . S
C1044 H1033 0.950 . S
C1044 C1042 1.391 . S
C1044 C1045 1.400 . S
C1045 C1039 1.491 1_655 S
C1045 C1044 1.400 . S
C1045 C1046 1.398 . S
C1046 H1034 0.950 . S
C1046 C1045 1.398 . S
C1046 C1047 1.391 . S
C1047 H1035 0.950 . S
C1047 C1043 1.393 . S
C1047 C1046 1.391 . S
H1048 C1056 0.950 . S
H1049 C1061 0.950 . S
H1050 C1058 0.950 . S
H1051 C1060 0.950 . S
H1052 C1062 0.950 . S
H1053 C1064 0.950 . S
H1054 C1066 0.950 . S
H1055 C1067 0.950 . S
C1056 H1048 0.950 . S
C1056 C1057 1.386 . S
C1056 C1058 1.391 . S
C1057 C1056 1.386 . S
C1057 C1061 1.393 . S
C1058 H1050 0.950 . S
C1058 C1056 1.391 . S
C1058 C1059 1.400 . S
C1059 C1058 1.400 . S
C1059 C1060 1.398 . S
C1059 C1065 1.491 1_545 S
C1060 H1051 0.950 . S
C1060 C1059 1.398 . S
C1060 C1061 1.391 . S
C1061 H1049 0.950 . S
C1061 C1057 1.393 . S
C1061 C1060 1.391 . S
C1062 H1052 0.950 . S
C1062 C1063 1.386 . S
C1062 C1064 1.391 . S
C1063 C1062 1.386 . S
C1063 C1067 1.393 . S
C1064 H1053 0.950 . S
C1064 C1062 1.391 . S
C1064 C1065 1.400 . S
C1065 C1059 1.491 1_565 S
C1065 C1064 1.400 . S
C1065 C1066 1.398 . S
C1066 H1054 0.950 . S
C1066 C1065 1.398 . S
C1066 C1067 1.391 . S
C1067 H1055 0.950 . S
C1067 C1063 1.393 . S
C1067 C1066 1.391 . S
H1068 C1076 0.950 . S
H1069 C1081 0.950 . S
H1070 C1078 0.950 . S
H1071 C1080 0.950 . S
H1072 C1082 0.950 . S
H1073 C1084 0.950 . S
H1074 C1086 0.950 . S
H1075 C1087 0.950 . S
C1076 H1068 0.950 . S
C1076 C1077 1.386 . S
C1076 C1078 1.391 . S
C1077 C1076 1.386 . S
C1077 C1081 1.393 . S
C1078 H1070 0.950 . S
C1078 C1076 1.391 . S
C1078 C1079 1.400 . S
C1079 C1078 1.400 . S
C1079 C1080 1.398 . S
C1079 C1085 1.491 . S
C1080 H1071 0.950 . S
C1080 C1079 1.398 . S
C1080 C1081 1.391 . S
C1081 H1069 0.950 . S
C1081 C1077 1.393 . S
C1081 C1080 1.391 . S
C1082 H1072 0.950 . S
C1082 C1083 1.386 . S
C1082 C1084 1.391 . S
C1083 C1082 1.386 . S
C1083 C1087 1.393 . S
C1084 H1073 0.950 . S
C1084 C1082 1.391 . S
C1084 C1085 1.400 . S
C1085 C1079 1.491 . S
C1085 C1084 1.400 . S
C1085 C1086 1.398 . S
C1086 H1074 0.950 . S
C1086 C1085 1.398 . S
C1086 C1087 1.391 . S
C1087 H1075 0.950 . S
C1087 C1083 1.393 . S
C1087 C1086 1.391 . S
H1088 C1096 0.950 . S
H1089 C1101 0.950 . S
H1090 C1098 0.950 . S
H1091 C1100 0.950 . S
H1092 C1102 0.950 . S
H1093 C1104 0.950 . S
H1094 C1106 0.950 1_455 S
H1095 C1107 0.950 . S
C1096 H1088 0.950 . S
C1096 C1097 1.386 . S
C1096 C1098 1.391 . S
C1097 C1096 1.386 . S
C1097 C1101 1.393 . S
C1098 H1090 0.950 . S
C1098 C1096 1.391 . S
C1098 C1099 1.400 . S
C1099 C1098 1.400 . S
C1099 C1100 1.398 . S
C1099 C1105 1.491 1_455 S
C1100 H1091 0.950 . S
C1100 C1099 1.398 . S
C1100 C1101 1.391 . S
C1101 H1089 0.950 . S
C1101 C1097 1.393 . S
C1101 C1100 1.391 . S
C1102 H1092 0.950 . S
C1102 C1103 1.386 . S
C1102 C1104 1.391 . S
C1103 C1102 1.386 . S
C1103 C1107 1.393 . S
C1104 H1093 0.950 . S
C1104 C1102 1.391 . S
C1104 C1105 1.400 . S
C1105 C1099 1.491 1_655 S
C1105 C1104 1.400 . S
C1105 C1106 1.398 . S
C1106 H1094 0.950 1_655 S
C1106 C1105 1.398 . S
C1106 C1107 1.391 . S
C1107 H1095 0.950 . S
C1107 C1103 1.393 . S
C1107 C1106 1.391 . S
H1108 C1116 0.950 . S
H1109 C1121 0.950 . S
H1110 C1118 0.950 . S
H1111 C1120 0.950 . S
H1112 C1122 0.950 . S
H1113 C1124 0.950 . S
H1114 C1126 0.950 . S
H1115 C1127 0.950 . S
C1116 H1108 0.950 . S
C1116 C1117 1.386 . S
C1116 C1118 1.391 . S
C1117 C1116 1.386 . S
C1117 C1121 1.393 . S
C1118 H1110 0.950 . S
C1118 C1116 1.391 . S
C1118 C1119 1.400 . S
C1119 C1118 1.400 . S
C1119 C1120 1.398 . S
C1119 C1125 1.491 1_565 S
C1120 H1111 0.950 . S
C1120 C1119 1.398 . S
C1120 C1121 1.391 . S
C1121 H1109 0.950 . S
C1121 C1117 1.393 . S
C1121 C1120 1.391 . S
C1122 H1112 0.950 . S
C1122 C1123 1.386 . S
C1122 C1124 1.391 . S
C1123 C1122 1.386 . S
C1123 C1127 1.393 . S
C1124 H1113 0.950 . S
C1124 C1122 1.391 . S
C1124 C1125 1.400 . S
C1125 C1119 1.491 1_545 S
C1125 C1124 1.400 . S
C1125 C1126 1.398 . S
C1126 H1114 0.950 . S
C1126 C1125 1.398 . S
C1126 C1127 1.391 . S
C1127 H1115 0.950 . S
C1127 C1123 1.393 . S
C1127 C1126 1.391 . S
H1128 C1136 0.950 . S
H1129 C1141 0.950 . S
H1130 C1138 0.950 . S
H1131 C1140 0.950 . S
H1132 C1142 0.950 . S
H1133 C1144 0.950 . S
H1134 C1146 0.950 . S
H1135 C1147 0.950 . S
C1136 H1128 0.950 . S
C1136 C1137 1.386 . S
C1136 C1138 1.391 . S
C1137 C1136 1.386 . S
C1137 C1141 1.393 . S
C1138 H1130 0.950 . S
C1138 C1136 1.391 . S
C1138 C1139 1.400 . S
C1139 C1138 1.400 . S
C1139 C1140 1.398 . S
C1139 C1145 1.491 . S
C1140 H1131 0.950 . S
C1140 C1139 1.398 . S
C1140 C1141 1.391 . S
C1141 H1129 0.950 . S
C1141 C1137 1.393 . S
C1141 C1140 1.391 . S
C1142 H1132 0.950 . S
C1142 C1143 1.386 . S
C1142 C1144 1.391 . S
C1143 C1142 1.386 . S
C1143 C1147 1.393 . S
C1144 H1133 0.950 . S
C1144 C1142 1.391 . S
C1144 C1145 1.400 . S
C1145 C1139 1.491 . S
C1145 C1144 1.400 . S
C1145 C1146 1.398 . S
C1146 H1134 0.950 . S
C1146 C1145 1.398 . S
C1146 C1147 1.391 . S
C1147 H1135 0.950 . S
C1147 C1143 1.393 . S
C1147 C1146 1.391 . S
H1148 C1156 0.950 . S
H1149 C1161 0.950 . S
H1150 C1158 0.950 . S
H1151 C1160 0.950 . S
H1152 C1162 0.950 . S
H1153 C1164 0.950 . S
H1154 C1166 0.950 . S
H1155 C1167 0.950 . S
C1156 H1148 0.950 . S
C1156 C1157 1.386 . S
C1156 C1158 1.391 . S
C1157 C1156 1.386 . S
C1157 C1161 1.393 . S
C1158 H1150 0.950 . S
C1158 C1156 1.391 . S
C1158 C1159 1.400 . S
C1159 C1158 1.400 . S
C1159 C1160 1.398 . S
C1159 C1165 1.491 1_455 S
C1160 H1151 0.950 . S
C1160 C1159 1.398 . S
C1160 C1161 1.391 . S
C1161 H1149 0.950 . S
C1161 C1157 1.393 . S
C1161 C1160 1.391 . S
C1162 H1152 0.950 . S
C1162 C1163 1.386 . S
C1162 C1164 1.391 . S
C1163 C1162 1.386 . S
C1163 C1167 1.393 . S
C1164 H1153 0.950 . S
C1164 C1162 1.391 . S
C1164 C1165 1.400 . S
C1165 C1159 1.491 1_655 S
C1165 C1164 1.400 . S
C1165 C1166 1.398 . S
C1166 H1154 0.950 . S
C1166 C1165 1.398 . S
C1166 C1167 1.391 . S
C1167 H1155 0.950 . S
C1167 C1163 1.393 . S
C1167 C1166 1.391 . S
H1168 C1176 0.950 . S
H1169 C1181 0.950 . S
H1170 C1178 0.950 . S
H1171 C1180 0.950 1_545 S
H1172 C1182 0.950 . S
H1173 C1184 0.950 . S
H1174 C1186 0.950 . S
H1175 C1187 0.950 . S
C1176 H1168 0.950 . S
C1176 C1177 1.386 . S
C1176 C1178 1.391 . S
C1177 C1176 1.386 . S
C1177 C1181 1.393 . S
C1178 H1170 0.950 . S
C1178 C1176 1.391 . S
C1178 C1179 1.400 . S
C1179 C1178 1.400 . S
C1179 C1180 1.398 . S
C1179 C1185 1.491 1_565 S
C1180 H1171 0.950 1_565 S
C1180 C1179 1.398 . S
C1180 C1181 1.391 . S
C1181 H1169 0.950 . S
C1181 C1177 1.393 . S
C1181 C1180 1.391 . S
C1182 H1172 0.950 . S
C1182 C1183 1.386 . S
C1182 C1184 1.391 . S
C1183 C1182 1.386 . S
C1183 C1187 1.393 . S
C1184 H1173 0.950 . S
C1184 C1182 1.391 . S
C1184 C1185 1.400 . S
C1185 C1179 1.491 1_545 S
C1185 C1184 1.400 . S
C1185 C1186 1.398 . S
C1186 H1174 0.950 . S
C1186 C1185 1.398 . S
C1186 C1187 1.391 . S
C1187 H1175 0.950 . S
C1187 C1183 1.393 . S
C1187 C1186 1.391 . S
H1188 C1196 0.950 . S
H1189 C1201 0.950 . S
H1190 C1198 0.950 . S
H1191 C1200 0.950 . S
H1192 C1202 0.950 . S
H1193 C1204 0.950 . S
H1194 C1206 0.950 . S
H1195 C1207 0.950 . S
C1196 H1188 0.950 . S
C1196 C1197 1.386 . S
C1196 C1198 1.391 . S
C1197 C1196 1.386 . S
C1197 C1201 1.393 . S
C1198 H1190 0.950 . S
C1198 C1196 1.391 . S
C1198 C1199 1.400 . S
C1199 C1198 1.400 . S
C1199 C1200 1.398 . S
C1199 C1205 1.491 . S
C1200 H1191 0.950 . S
C1200 C1199 1.398 . S
C1200 C1201 1.391 . S
C1201 H1189 0.950 . S
C1201 C1197 1.393 . S
C1201 C1200 1.391 . S
C1202 H1192 0.950 . S
C1202 C1203 1.386 . S
C1202 C1204 1.391 . S
C1203 C1202 1.386 . S
C1203 C1207 1.393 . S
C1204 H1193 0.950 . S
C1204 C1202 1.391 . S
C1204 C1205 1.400 . S
C1205 C1199 1.491 . S
C1205 C1204 1.400 . S
C1205 C1206 1.398 . S
C1206 H1194 0.950 . S
C1206 C1205 1.398 . S
C1206 C1207 1.391 . S
C1207 H1195 0.950 . S
C1207 C1203 1.393 . S
C1207 C1206 1.391 . S
H1208 C1216 0.950 . S
H1209 C1221 0.950 . S
H1210 C1218 0.950 . S
H1211 C1220 0.950 . S
H1212 C1222 0.950 . S
H1213 C1224 0.950 . S
H1214 C1226 0.950 . S
H1215 C1227 0.950 . S
C1216 H1208 0.950 . S
C1216 C1217 1.386 . S
C1216 C1218 1.391 . S
C1217 C1216 1.386 . S
C1217 C1221 1.393 . S
C1218 H1210 0.950 . S
C1218 C1216 1.391 . S
C1218 C1219 1.400 . S
C1219 C1218 1.400 . S
C1219 C1220 1.398 . S
C1219 C1225 1.491 1_455 S
C1220 H1211 0.950 . S
C1220 C1219 1.398 . S
C1220 C1221 1.391 . S
C1221 H1209 0.950 . S
C1221 C1217 1.393 . S
C1221 C1220 1.391 . S
C1222 H1212 0.950 . S
C1222 C1223 1.386 . S
C1222 C1224 1.391 . S
C1223 C1222 1.386 . S
C1223 C1227 1.393 . S
C1224 H1213 0.950 . S
C1224 C1222 1.391 . S
C1224 C1225 1.400 . S
C1225 C1219 1.491 1_655 S
C1225 C1224 1.400 . S
C1225 C1226 1.398 . S
C1226 H1214 0.950 . S
C1226 C1225 1.398 . S
C1226 C1227 1.391 . S
C1227 H1215 0.950 . S
C1227 C1223 1.393 . S
C1227 C1226 1.391 . S
H1228 C1236 0.950 . S
H1229 C1241 0.950 . S
H1230 C1238 0.950 . S
H1231 C1240 0.950 . S
H1232 C1242 0.950 . S
H1233 C1244 0.950 . S
H1234 C1246 0.950 . S
H1235 C1247 0.950 . S
C1236 H1228 0.950 . S
C1236 C1237 1.386 . S
C1236 C1238 1.391 . S
C1237 C1236 1.386 . S
C1237 C1241 1.393 . S
C1238 H1230 0.950 . S
C1238 C1236 1.391 . S
C1238 C1239 1.400 . S
C1239 C1238 1.400 . S
C1239 C1240 1.398 . S
C1239 C1245 1.491 1_545 S
C1240 H1231 0.950 . S
C1240 C1239 1.398 . S
C1240 C1241 1.391 . S
C1241 H1229 0.950 . S
C1241 C1237 1.393 . S
C1241 C1240 1.391 . S
C1242 H1232 0.950 . S
C1242 C1243 1.386 . S
C1242 C1244 1.391 . S
C1243 C1242 1.386 . S
C1243 C1247 1.393 . S
C1244 H1233 0.950 . S
C1244 C1242 1.391 . S
C1244 C1245 1.400 . S
C1245 C1239 1.491 1_565 S
C1245 C1244 1.400 . S
C1245 C1246 1.398 . S
C1246 H1234 0.950 . S
C1246 C1245 1.398 . S
C1246 C1247 1.391 . S
C1247 H1235 0.950 . S
C1247 C1243 1.393 . S
C1247 C1246 1.391 . S
H1248 C1256 0.950 . S
H1249 C1261 0.950 . S
H1250 C1258 0.950 . S
H1251 C1260 0.950 . S
H1252 C1262 0.950 . S
H1253 C1264 0.950 . S
H1254 C1266 0.950 . S
H1255 C1267 0.950 . S
C1256 H1248 0.950 . S
C1256 C1257 1.386 . S
C1256 C1258 1.391 . S
C1257 C1256 1.386 . S
C1257 C1261 1.393 . S
C1258 H1250 0.950 . S
C1258 C1256 1.391 . S
C1258 C1259 1.400 . S
C1259 C1258 1.400 . S
C1259 C1260 1.398 . S
C1259 C1265 1.491 . S
C1260 H1251 0.950 . S
C1260 C1259 1.398 . S
C1260 C1261 1.391 . S
C1261 H1249 0.950 . S
C1261 C1257 1.393 . S
C1261 C1260 1.391 . S
C1262 H1252 0.950 . S
C1262 C1263 1.386 . S
C1262 C1264 1.391 . S
C1263 C1262 1.386 . S
C1263 C1267 1.393 . S
C1264 H1253 0.950 . S
C1264 C1262 1.391 . S
C1264 C1265 1.400 . S
C1265 C1259 1.491 . S
C1265 C1264 1.400 . S
C1265 C1266 1.398 . S
C1266 H1254 0.950 . S
C1266 C1265 1.398 . S
C1266 C1267 1.391 . S
C1267 H1255 0.950 . S
C1267 C1263 1.393 . S
C1267 C1266 1.391 . S
H1268 C1276 0.950 . S
H1269 C1281 0.950 . S
H1270 C1278 0.950 . S
H1271 C1280 0.950 . S
H1272 C1282 0.950 . S
H1273 C1284 0.950 . S
H1274 C1286 0.950 . S
H1275 C1287 0.950 . S
C1276 H1268 0.950 . S
C1276 C1277 1.386 . S
C1276 C1278 1.391 . S
C1277 C1276 1.386 . S
C1277 C1281 1.393 . S
C1278 H1270 0.950 . S
C1278 C1276 1.391 . S
C1278 C1279 1.400 . S
C1279 C1278 1.400 . S
C1279 C1280 1.398 . S
C1279 C1285 1.491 . S
C1280 H1271 0.950 . S
C1280 C1279 1.398 . S
C1280 C1281 1.391 . S
C1281 H1269 0.950 . S
C1281 C1277 1.393 . S
C1281 C1280 1.391 . S
C1282 H1272 0.950 . S
C1282 C1283 1.386 . S
C1282 C1284 1.391 . S
C1283 C1282 1.386 . S
C1283 C1287 1.393 . S
C1284 H1273 0.950 . S
C1284 C1282 1.391 . S
C1284 C1285 1.400 . S
C1285 C1279 1.491 . S
C1285 C1284 1.400 . S
C1285 C1286 1.398 . S
C1286 H1274 0.950 . S
C1286 C1285 1.398 . S
C1286 C1287 1.391 . S
C1287 H1275 0.950 . S
C1287 C1283 1.393 . S
C1287 C1286 1.391 . S
H1288 C1296 0.950 . S
H1289 C1301 0.950 . S
H1290 C1298 0.950 . S
H1291 C1300 0.950 . S
H1292 C1302 0.950 . S
H1293 C1304 0.950 . S
H1294 C1306 0.950 . S
H1295 C1307 0.950 . S
C1296 H1288 0.950 . S
C1296 C1297 1.386 . S
C1296 C1298 1.391 . S
C1297 C1296 1.386 . S
C1297 C1301 1.393 . S
C1298 H1290 0.950 . S
C1298 C1296 1.391 . S
C1298 C1299 1.400 . S
C1299 C1298 1.400 . S
C1299 C1300 1.398 . S
C1299 C1305 1.491 . S
C1300 H1291 0.950 . S
C1300 C1299 1.398 . S
C1300 C1301 1.391 . S
C1301 H1289 0.950 . S
C1301 C1297 1.393 . S
C1301 C1300 1.391 . S
C1302 H1292 0.950 . S
C1302 C1303 1.386 . S
C1302 C1304 1.391 . S
C1303 C1302 1.386 . S
C1303 C1307 1.393 . S
C1304 H1293 0.950 . S
C1304 C1302 1.391 . S
C1304 C1305 1.400 . S
C1305 C1299 1.491 . S
C1305 C1304 1.400 . S
C1305 C1306 1.398 . S
C1306 H1294 0.950 . S
C1306 C1305 1.398 . S
C1306 C1307 1.391 . S
C1307 H1295 0.950 . S
C1307 C1303 1.393 . S
C1307 C1306 1.391 . S
H1308 C1316 0.950 . S
H1309 C1321 0.950 . S
H1310 C1318 0.950 . S
H1311 C1320 0.950 . S
H1312 C1322 0.950 . S
H1313 C1324 0.950 . S
H1314 C1326 0.950 . S
H1315 C1327 0.950 . S
C1316 H1308 0.950 . S
C1316 C1317 1.386 . S
C1316 C1318 1.391 . S
C1317 C1316 1.386 . S
C1317 C1321 1.393 . S
C1318 H1310 0.950 . S
C1318 C1316 1.391 . S
C1318 C1319 1.400 . S
C1319 C1318 1.400 . S
C1319 C1320 1.398 . S
C1319 C1325 1.491 . S
C1320 H1311 0.950 . S
C1320 C1319 1.398 . S
C1320 C1321 1.391 . S
C1321 H1309 0.950 . S
C1321 C1317 1.393 . S
C1321 C1320 1.391 . S
C1322 H1312 0.950 . S
C1322 C1323 1.386 . S
C1322 C1324 1.391 . S
C1323 C1322 1.386 . S
C1323 C1327 1.393 . S
C1324 H1313 0.950 . S
C1324 C1322 1.391 . S
C1324 C1325 1.400 . S
C1325 C1319 1.491 . S
C1325 C1324 1.400 . S
C1325 C1326 1.398 . S
C1326 H1314 0.950 . S
C1326 C1325 1.398 . S
C1326 C1327 1.391 . S
C1327 H1315 0.950 . S
C1327 C1323 1.393 . S
C1327 C1326 1.391 . S
H1328 C1336 0.950 . S
H1329 C1341 0.950 . S
H1330 C1338 0.950 . S
H1331 C1340 0.950 . S
H1332 C1342 0.950 . S
H1333 C1344 0.950 . S
H1334 C1346 0.950 . S
H1335 C1347 0.950 . S
C1336 H1328 0.950 . S
C1336 C1337 1.386 . S
C1336 C1338 1.391 . S
C1337 C1336 1.386 . S
C1337 C1341 1.393 . S
C1338 H1330 0.950 . S
C1338 C1336 1.391 . S
C1338 C1339 1.400 . S
C1339 C1338 1.400 . S
C1339 C1340 1.398 . S
C1339 C1345 1.491 . S
C1340 H1331 0.950 . S
C1340 C1339 1.398 . S
C1340 C1341 1.391 . S
C1341 H1329 0.950 . S
C1341 C1337 1.393 . S
C1341 C1340 1.391 . S
C1342 H1332 0.950 . S
C1342 C1343 1.386 . S
C1342 C1344 1.391 . S
C1343 C1342 1.386 . S
C1343 C1347 1.393 . S
C1344 H1333 0.950 . S
C1344 C1342 1.391 . S
C1344 C1345 1.400 . S
C1345 C1339 1.491 . S
C1345 C1344 1.400 . S
C1345 C1346 1.398 . S
C1346 H1334 0.950 . S
C1346 C1345 1.398 . S
C1346 C1347 1.391 . S
C1347 H1335 0.950 . S
C1347 C1343 1.393 . S
C1347 C1346 1.391 . S
H1348 C1356 0.950 . S
H1349 C1361 0.950 . S
H1350 C1358 0.950 . S
H1351 C1360 0.950 . S
H1352 C1362 0.950 . S
H1353 C1364 0.950 . S
H1354 C1366 0.950 . S
H1355 C1367 0.950 . S
C1356 H1348 0.950 . S
C1356 C1357 1.386 . S
C1356 C1358 1.391 . S
C1357 C1356 1.386 . S
C1357 C1361 1.393 . S
C1358 H1350 0.950 . S
C1358 C1356 1.391 . S
C1358 C1359 1.400 . S
C1359 C1358 1.400 . S
C1359 C1360 1.398 . S
C1359 C1365 1.491 . S
C1360 H1351 0.950 . S
C1360 C1359 1.398 . S
C1360 C1361 1.391 . S
C1361 H1349 0.950 . S
C1361 C1357 1.393 . S
C1361 C1360 1.391 . S
C1362 H1352 0.950 . S
C1362 C1363 1.386 . S
C1362 C1364 1.391 . S
C1363 C1362 1.386 . S
C1363 C1367 1.393 . S
C1364 H1353 0.950 . S
C1364 C1362 1.391 . S
C1364 C1365 1.400 . S
C1365 C1359 1.491 . S
C1365 C1364 1.400 . S
C1365 C1366 1.398 . S
C1366 H1354 0.950 . S
C1366 C1365 1.398 . S
C1366 C1367 1.391 . S
C1367 H1355 0.950 . S
C1367 C1363 1.393 . S
C1367 C1366 1.391 . S
H1368 C1376 0.950 . S
H1369 C1381 0.950 . S
H1370 C1378 0.950 1_554 S
H1371 C1380 0.950 1_545 S
H1372 C1382 0.950 . S
H1373 C1384 0.950 1_556 S
H1374 C1386 0.950 1_565 S
H1375 C1387 0.950 . S
C1376 H1368 0.950 . S
C1376 C1377 1.386 . S
C1376 C1378 1.391 . S
C1377 C1376 1.386 . S
C1377 C1381 1.393 . S
C1378 H1370 0.950 1_556 S
C1378 C1376 1.391 . S
C1378 C1379 1.400 . S
C1379 C1378 1.400 . S
C1379 C1380 1.398 . S
C1379 C1385 1.491 1_566 S
C1380 H1371 0.950 1_565 S
C1380 C1379 1.398 . S
C1380 C1381 1.391 . S
C1381 H1369 0.950 . S
C1381 C1377 1.393 . S
C1381 C1380 1.391 . S
C1382 H1372 0.950 . S
C1382 C1383 1.386 . S
C1382 C1384 1.391 . S
C1383 C1382 1.386 . S
C1383 C1387 1.393 . S
C1384 H1373 0.950 1_554 S
C1384 C1382 1.391 . S
C1384 C1385 1.400 . S
C1385 C1379 1.491 1_544 S
C1385 C1384 1.400 . S
C1385 C1386 1.398 . S
C1386 H1374 0.950 1_545 S
C1386 C1385 1.398 . S
C1386 C1387 1.391 . S
C1387 H1375 0.950 . S
C1387 C1383 1.393 . S
C1387 C1386 1.391 . S
H1388 C1396 0.950 . S
H1389 C1401 0.950 . S
H1390 C1398 0.950 . S
H1391 C1400 0.950 . S
H1392 C1402 0.950 . S
H1393 C1404 0.950 . S
H1394 C1406 0.950 . S
H1395 C1407 0.950 . S
C1396 H1388 0.950 . S
C1396 C1397 1.386 . S
C1396 C1398 1.391 . S
C1397 C1396 1.386 . S
C1397 C1401 1.393 . S
C1398 H1390 0.950 . S
C1398 C1396 1.391 . S
C1398 C1399 1.400 . S
C1399 C1398 1.400 . S
C1399 C1400 1.398 . S
C1399 C1405 1.491 . S
C1400 H1391 0.950 . S
C1400 C1399 1.398 . S
C1400 C1401 1.391 . S
C1401 H1389 0.950 . S
C1401 C1397 1.393 . S
C1401 C1400 1.391 . S
C1402 H1392 0.950 . S
C1402 C1403 1.386 . S
C1402 C1404 1.391 . S
C1403 C1402 1.386 . S
C1403 C1407 1.393 . S
C1404 H1393 0.950 . S
C1404 C1402 1.391 . S
C1404 C1405 1.400 . S
C1405 C1399 1.491 . S
C1405 C1404 1.400 . S
C1405 C1406 1.398 . S
C1406 H1394 0.950 . S
C1406 C1405 1.398 . S
C1406 C1407 1.391 . S
C1407 H1395 0.950 . S
C1407 C1403 1.393 . S
C1407 C1406 1.391 . S
H1408 C1416 0.950 . S
H1409 C1421 0.950 . S
H1410 C1418 0.950 . S
H1411 C1420 0.950 1_655 S
H1412 C1422 0.950 . S
H1413 C1424 0.950 . S
H1414 C1426 0.950 1_455 S
H1415 C1427 0.950 . S
C1416 H1408 0.950 . S
C1416 C1417 1.386 . S
C1416 C1418 1.391 1_556 S
C1417 C1416 1.386 . S
C1417 C1421 1.393 . S
C1418 H1410 0.950 . S
C1418 C1416 1.391 1_554 S
C1418 C1419 1.400 1_554 S
C1419 C1418 1.400 1_556 S
C1419 C1420 1.398 . S
C1419 C1425 1.491 1_456 S
C1420 H1411 0.950 1_455 S
C1420 C1419 1.398 . S
C1420 C1421 1.391 . S
C1421 H1409 0.950 . S
C1421 C1417 1.393 . S
C1421 C1420 1.391 . S
C1422 H1412 0.950 . S
C1422 C1423 1.386 . S
C1422 C1424 1.391 1_554 S
C1423 C1422 1.386 . S
C1423 C1427 1.393 . S
C1424 H1413 0.950 . S
C1424 C1422 1.391 1_556 S
C1424 C1425 1.400 1_556 S
C1425 C1419 1.491 1_654 S
C1425 C1424 1.400 1_554 S
C1425 C1426 1.398 . S
C1426 H1414 0.950 1_655 S
C1426 C1425 1.398 . S
C1426 C1427 1.391 . S
C1427 H1415 0.950 . S
C1427 C1423 1.393 . S
C1427 C1426 1.391 . S
H1428 C1436 0.950 . S
H1429 C1441 0.950 . S
H1430 C1438 0.950 1_565 S
H1431 C1440 0.950 . S
H1432 C1442 0.950 . S
H1433 C1444 0.950 1_545 S
H1434 C1446 0.950 . S
H1435 C1447 0.950 . S
C1436 H1428 0.950 . S
C1436 C1437 1.386 . S
C1436 C1438 1.391 . S
C1437 C1436 1.386 . S
C1437 C1441 1.393 . S
C1438 H1430 0.950 1_545 S
C1438 C1436 1.391 . S
C1438 C1439 1.400 . S
C1439 C1438 1.400 . S
C1439 C1440 1.398 . S
C1439 C1445 1.491 1_545 S
C1440 H1431 0.950 . S
C1440 C1439 1.398 . S
C1440 C1441 1.391 . S
C1441 H1429 0.950 . S
C1441 C1437 1.393 . S
C1441 C1440 1.391 . S
C1442 H1432 0.950 . S
C1442 C1443 1.386 . S
C1442 C1444 1.391 . S
C1443 C1442 1.386 . S
C1443 C1447 1.393 . S
C1444 H1433 0.950 1_565 S
C1444 C1442 1.391 . S
C1444 C1445 1.400 . S
C1445 C1439 1.491 1_565 S
C1445 C1444 1.400 . S
C1445 C1446 1.398 . S
C1446 H1434 0.950 . S
C1446 C1445 1.398 . S
C1446 C1447 1.391 . S
C1447 H1435 0.950 . S
C1447 C1443 1.393 . S
C1447 C1446 1.391 . S
H1448 C1456 0.950 . S
H1449 C1461 0.950 . S
H1450 C1458 0.950 1_556 S
H1451 C1460 0.950 . S
H1452 C1462 0.950 . S
H1453 C1464 0.950 1_554 S
H1454 C1466 0.950 . S
H1455 C1467 0.950 . S
C1456 H1448 0.950 . S
C1456 C1457 1.386 . S
C1456 C1458 1.391 . S
C1457 C1456 1.386 . S
C1457 C1461 1.393 . S
C1458 H1450 0.950 1_554 S
C1458 C1456 1.391 . S
C1458 C1459 1.400 . S
C1459 C1458 1.400 . S
C1459 C1460 1.398 . S
C1459 C1465 1.491 1_554 S
C1460 H1451 0.950 . S
C1460 C1459 1.398 . S
C1460 C1461 1.391 . S
C1461 H1449 0.950 . S
C1461 C1457 1.393 . S
C1461 C1460 1.391 . S
C1462 H1452 0.950 . S
C1462 C1463 1.386 . S
C1462 C1464 1.391 . S
C1463 C1462 1.386 . S
C1463 C1467 1.393 . S
C1464 H1453 0.950 1_556 S
C1464 C1462 1.391 . S
C1464 C1465 1.400 . S
C1465 C1459 1.491 1_556 S
C1465 C1464 1.400 . S
C1465 C1466 1.398 . S
C1466 H1454 0.950 . S
C1466 C1465 1.398 . S
C1466 C1467 1.391 . S
C1467 H1455 0.950 . S
C1467 C1463 1.393 . S
C1467 C1466 1.391 . S
H1468 C1476 0.950 . S
H1469 C1481 0.950 . S
H1470 C1478 0.950 . S
H1471 C1480 0.950 . S
H1472 C1482 0.950 . S
H1473 C1484 0.950 . S
H1474 C1486 0.950 . S
H1475 C1487 0.950 . S
C1476 H1468 0.950 . S
C1476 C1477 1.386 . S
C1476 C1478 1.391 . S
C1477 C1476 1.386 . S
C1477 C1481 1.393 . S
C1478 H1470 0.950 . S
C1478 C1476 1.391 . S
C1478 C1479 1.400 . S
C1479 C1478 1.400 . S
C1479 C1480 1.398 . S
C1479 C1485 1.491 1_455 S
C1480 H1471 0.950 . S
C1480 C1479 1.398 . S
C1480 C1481 1.391 . S
C1481 H1469 0.950 . S
C1481 C1477 1.393 . S
C1481 C1480 1.391 . S
C1482 H1472 0.950 . S
C1482 C1483 1.386 . S
C1482 C1484 1.391 . S
C1483 C1482 1.386 . S
C1483 C1487 1.393 . S
C1484 H1473 0.950 . S
C1484 C1482 1.391 . S
C1484 C1485 1.400 . S
C1485 C1479 1.491 1_655 S
C1485 C1484 1.400 . S
C1485 C1486 1.398 . S
C1486 H1474 0.950 . S
C1486 C1485 1.398 . S
C1486 C1487 1.391 . S
C1487 H1475 0.950 . S
C1487 C1483 1.393 . S
C1487 C1486 1.391 . S
H1488 C1496 0.950 . S
H1489 C1501 0.950 . S
H1490 C1498 0.950 . S
H1491 C1500 0.950 . S
H1492 C1502 0.950 . S
H1493 C1504 0.950 . S
H1494 C1506 0.950 . S
H1495 C1507 0.950 . S
C1496 H1488 0.950 . S
C1496 C1497 1.386 . S
C1496 C1498 1.391 . S
C1497 C1496 1.386 . S
C1497 C1501 1.393 . S
C1498 H1490 0.950 . S
C1498 C1496 1.391 . S
C1498 C1499 1.400 . S
C1499 C1498 1.400 . S
C1499 C1500 1.398 . S
C1499 C1505 1.491 . S
C1500 H1491 0.950 . S
C1500 C1499 1.398 . S
C1500 C1501 1.391 . S
C1501 H1489 0.950 . S
C1501 C1497 1.393 . S
C1501 C1500 1.391 . S
C1502 H1492 0.950 . S
C1502 C1503 1.386 . S
C1502 C1504 1.391 . S
C1503 C1502 1.386 . S
C1503 C1507 1.393 . S
C1504 H1493 0.950 . S
C1504 C1502 1.391 . S
C1504 C1505 1.400 . S
C1505 C1499 1.491 . S
C1505 C1504 1.400 . S
C1505 C1506 1.398 . S
C1506 H1494 0.950 . S
C1506 C1505 1.398 . S
C1506 C1507 1.391 . S
C1507 H1495 0.950 . S
C1507 C1503 1.393 . S
C1507 C1506 1.391 . S
H1508 C1516 0.950 . S
H1509 C1521 0.950 . S
H1510 C1518 0.950 . S
H1511 C1520 0.950 . S
H1512 C1522 0.950 . S
H1513 C1524 0.950 . S
H1514 C1526 0.950 . S
H1515 C1527 0.950 . S
C1516 H1508 0.950 . S
C1516 C1517 1.386 . S
C1516 C1518 1.391 . S
C1517 C1516 1.386 . S
C1517 C1521 1.393 . S
C1518 H1510 0.950 . S
C1518 C1516 1.391 . S
C1518 C1519 1.400 . S
C1519 C1518 1.400 . S
C1519 C1520 1.398 . S
C1519 C1525 1.491 . S
C1520 H1511 0.950 . S
C1520 C1519 1.398 . S
C1520 C1521 1.391 . S
C1521 H1509 0.950 . S
C1521 C1517 1.393 . S
C1521 C1520 1.391 . S
C1522 H1512 0.950 . S
C1522 C1523 1.386 . S
C1522 C1524 1.391 . S
C1523 C1522 1.386 . S
C1523 C1527 1.393 . S
C1524 H1513 0.950 . S
C1524 C1522 1.391 . S
C1524 C1525 1.400 . S
C1525 C1519 1.491 . S
C1525 C1524 1.400 . S
C1525 C1526 1.398 . S
C1526 H1514 0.950 . S
C1526 C1525 1.398 . S
C1526 C1527 1.391 . S
C1527 H1515 0.950 . S
C1527 C1523 1.393 . S
C1527 C1526 1.391 . S
H1528 C1536 0.950 . S
H1529 C1541 0.950 . S
H1530 C1538 0.950 . S
H1531 C1540 0.950 . S
H1532 C1542 0.950 . S
H1533 C1544 0.950 . S
H1534 C1546 0.950 . S
H1535 C1547 0.950 . S
C1536 H1528 0.950 . S
C1536 C1537 1.386 . S
C1536 C1538 1.391 . S
C1537 C1536 1.386 . S
C1537 C1541 1.393 . S
C1538 H1530 0.950 . S
C1538 C1536 1.391 . S
C1538 C1539 1.400 . S
C1539 C1538 1.400 . S
C1539 C1540 1.398 . S
C1539 C1545 1.491 . S
C1540 H1531 0.950 . S
C1540 C1539 1.398 . S
C1540 C1541 1.391 . S
C1541 H1529 0.950 . S
C1541 C1537 1.393 . S
C1541 C1540 1.391 . S
C1542 H1532 0.950 . S
C1542 C1543 1.386 . S
C1542 C1544 1.391 . S
C1543 C1542 1.386 . S
C1543 C1547 1.393 . S
C1544 H1533 0.950 . S
C1544 C1542 1.391 . S
C1544 C1545 1.400 . S
C1545 C1539 1.491 . S
C1545 C1544 1.400 . S
C1545 C1546 1.398 . S
C1546 H1534 0.950 . S
C1546 C1545 1.398 . S
C1546 C1547 1.391 . S
C1547 H1535 0.950 . S
C1547 C1543 1.393 . S
C1547 C1546 1.391 . S
H1548 C1556 0.950 . S
H1549 C1561 0.950 . S
H1550 C1558 0.950 . S
H1551 C1560 0.950 . S
H1552 C1562 0.950 . S
H1553 C1564 0.950 . S
H1554 C1566 0.950 . S
H1555 C1567 0.950 . S
C1556 H1548 0.950 . S
C1556 C1557 1.386 . S
C1556 C1558 1.391 . S
C1557 C1556 1.386 . S
C1557 C1561 1.393 . S
C1558 H1550 0.950 . S
C1558 C1556 1.391 . S
C1558 C1559 1.400 . S
C1559 C1558 1.400 . S
C1559 C1560 1.398 . S
C1559 C1565 1.491 . S
C1560 H1551 0.950 . S
C1560 C1559 1.398 . S
C1560 C1561 1.391 . S
C1561 H1549 0.950 . S
C1561 C1557 1.393 . S
C1561 C1560 1.391 . S
C1562 H1552 0.950 . S
C1562 C1563 1.386 . S
C1562 C1564 1.391 . S
C1563 C1562 1.386 . S
C1563 C1567 1.393 . S
C1564 H1553 0.950 . S
C1564 C1562 1.391 . S
C1564 C1565 1.400 . S
C1565 C1559 1.491 . S
C1565 C1564 1.400 . S
C1565 C1566 1.398 . S
C1566 H1554 0.950 . S
C1566 C1565 1.398 . S
C1566 C1567 1.391 . S
C1567 H1555 0.950 . S
C1567 C1563 1.393 . S
C1567 C1566 1.391 . S
H1568 C1576 0.950 . S
H1569 C1581 0.950 . S
H1570 C1578 0.950 . S
H1571 C1580 0.950 . S
H1572 C1582 0.950 . S
H1573 C1584 0.950 . S
H1574 C1586 0.950 . S
H1575 C1587 0.950 . S
C1576 H1568 0.950 . S
C1576 C1577 1.386 . S
C1576 C1578 1.391 . S
C1577 C1576 1.386 . S
C1577 C1581 1.393 . S
C1578 H1570 0.950 . S
C1578 C1576 1.391 . S
C1578 C1579 1.400 . S
C1579 C1578 1.400 . S
C1579 C1580 1.398 . S
C1579 C1585 1.491 . S
C1580 H1571 0.950 . S
C1580 C1579 1.398 . S
C1580 C1581 1.391 . S
C1581 H1569 0.950 . S
C1581 C1577 1.393 . S
C1581 C1580 1.391 . S
C1582 H1572 0.950 . S
C1582 C1583 1.386 . S
C1582 C1584 1.391 . S
C1583 C1582 1.386 . S
C1583 C1587 1.393 . S
C1584 H1573 0.950 . S
C1584 C1582 1.391 . S
C1584 C1585 1.400 . S
C1585 C1579 1.491 . S
C1585 C1584 1.400 . S
C1585 C1586 1.398 . S
C1586 H1574 0.950 . S
C1586 C1585 1.398 . S
C1586 C1587 1.391 . S
C1587 H1575 0.950 . S
C1587 C1583 1.393 . S
C1587 C1586 1.391 . S
H1588 C1596 0.950 . S
H1589 C1601 0.950 . S
H1590 C1598 0.950 . S
H1591 C1600 0.950 . S
H1592 C1602 0.950 . S
H1593 C1604 0.950 . S
H1594 C1606 0.950 . S
H1595 C1607 0.950 . S
C1596 H1588 0.950 . S
C1596 C1597 1.386 . S
C1596 C1598 1.391 . S
C1597 C1596 1.386 . S
C1597 C1601 1.393 . S
C1598 H1590 0.950 . S
C1598 C1596 1.391 . S
C1598 C1599 1.400 . S
C1599 C1598 1.400 . S
C1599 C1600 1.398 . S
C1599 C1605 1.491 . S
C1600 H1591 0.950 . S
C1600 C1599 1.398 . S
C1600 C1601 1.391 . S
C1601 H1589 0.950 . S
C1601 C1597 1.393 . S
C1601 C1600 1.391 . S
C1602 H1592 0.950 . S
C1602 C1603 1.386 . S
C1602 C1604 1.391 . S
C1603 C1602 1.386 . S
C1603 C1607 1.393 . S
C1604 H1593 0.950 . S
C1604 C1602 1.391 . S
C1604 C1605 1.400 . S
C1605 C1599 1.491 . S
C1605 C1604 1.400 . S
C1605 C1606 1.398 . S
C1606 H1594 0.950 . S
C1606 C1605 1.398 . S
C1606 C1607 1.391 . S
C1607 H1595 0.950 . S
C1607 C1603 1.393 . S
C1607 C1606 1.391 . S
H1608 C1616 0.950 . S
H1609 C1621 0.950 . S
H1610 C1618 0.950 . S
H1611 C1620 0.950 . S
H1612 C1622 0.950 . S
H1613 C1624 0.950 . S
H1614 C1626 0.950 . S
H1615 C1627 0.950 . S
C1616 H1608 0.950 . S
C1616 C1617 1.386 . S
C1616 C1618 1.391 . S
C1617 C1616 1.386 . S
C1617 C1621 1.393 . S
C1618 H1610 0.950 . S
C1618 C1616 1.391 . S
C1618 C1619 1.400 . S
C1619 C1618 1.400 . S
C1619 C1620 1.398 . S
C1619 C1625 1.491 . S
C1620 H1611 0.950 . S
C1620 C1619 1.398 . S
C1620 C1621 1.391 . S
C1621 H1609 0.950 . S
C1621 C1617 1.393 . S
C1621 C1620 1.391 . S
C1622 H1612 0.950 . S
C1622 C1623 1.386 . S
C1622 C1624 1.391 . S
C1623 C1622 1.386 . S
C1623 C1627 1.393 . S
C1624 H1613 0.950 . S
C1624 C1622 1.391 . S
C1624 C1625 1.400 . S
C1625 C1619 1.491 . S
C1625 C1624 1.400 . S
C1625 C1626 1.398 . S
C1626 H1614 0.950 . S
C1626 C1625 1.398 . S
C1626 C1627 1.391 . S
C1627 H1615 0.950 . S
C1627 C1623 1.393 . S
C1627 C1626 1.391 . S
H1628 C1636 0.950 . S
H1629 C1641 0.950 . S
H1630 C1638 0.950 . S
H1631 C1640 0.950 . S
H1632 C1642 0.950 . S
H1633 C1644 0.950 . S
H1634 C1646 0.950 . S
H1635 C1647 0.950 . S
C1636 H1628 0.950 . S
C1636 C1637 1.386 . S
C1636 C1638 1.391 . S
C1637 C1636 1.386 . S
C1637 C1641 1.393 . S
C1638 H1630 0.950 . S
C1638 C1636 1.391 . S
C1638 C1639 1.400 . S
C1639 C1638 1.400 . S
C1639 C1640 1.398 . S
C1639 C1645 1.491 . S
C1640 H1631 0.950 . S
C1640 C1639 1.398 . S
C1640 C1641 1.391 . S
C1641 H1629 0.950 . S
C1641 C1637 1.393 . S
C1641 C1640 1.391 . S
C1642 H1632 0.950 . S
C1642 C1643 1.386 . S
C1642 C1644 1.391 . S
C1643 C1642 1.386 . S
C1643 C1647 1.393 . S
C1644 H1633 0.950 . S
C1644 C1642 1.391 . S
C1644 C1645 1.400 . S
C1645 C1639 1.491 . S
C1645 C1644 1.400 . S
C1645 C1646 1.398 . S
C1646 H1634 0.950 . S
C1646 C1645 1.398 . S
C1646 C1647 1.391 . S
C1647 H1635 0.950 . S
C1647 C1643 1.393 . S
C1647 C1646 1.391 . S
H1648 C1656 0.950 . S
H1649 C1661 0.950 . S
H1650 C1658 0.950 . S
H1651 C1660 0.950 . S
H1652 C1662 0.950 . S
H1653 C1664 0.950 . S
H1654 C1666 0.950 . S
H1655 C1667 0.950 . S
C1656 H1648 0.950 . S
C1656 C1657 1.386 . S
C1656 C1658 1.391 . S
C1657 C1656 1.386 . S
C1657 C1661 1.393 . S
C1658 H1650 0.950 . S
C1658 C1656 1.391 . S
C1658 C1659 1.400 . S
C1659 C1658 1.400 . S
C1659 C1660 1.398 . S
C1659 C1665 1.491 . S
C1660 H1651 0.950 . S
C1660 C1659 1.398 . S
C1660 C1661 1.391 . S
C1661 H1649 0.950 . S
C1661 C1657 1.393 . S
C1661 C1660 1.391 . S
C1662 H1652 0.950 . S
C1662 C1663 1.386 . S
C1662 C1664 1.391 . S
C1663 C1662 1.386 . S
C1663 C1667 1.393 . S
C1664 H1653 0.950 . S
C1664 C1662 1.391 . S
C1664 C1665 1.400 . S
C1665 C1659 1.491 . S
C1665 C1664 1.400 . S
C1665 C1666 1.398 . S
C1666 H1654 0.950 . S
C1666 C1665 1.398 . S
C1666 C1667 1.391 . S
C1667 H1655 0.950 . S
C1667 C1663 1.393 . S
C1667 C1666 1.391 . S
H1668 C1676 0.950 . S
H1669 C1681 0.950 . S
H1670 C1678 0.950 . S
H1671 C1680 0.950 . S
H1672 C1682 0.950 . S
H1673 C1684 0.950 . S
H1674 C1686 0.950 . S
H1675 C1687 0.950 . S
C1676 H1668 0.950 . S
C1676 C1677 1.386 . S
C1676 C1678 1.391 . S
C1677 C1676 1.386 . S
C1677 C1681 1.393 . S
C1678 H1670 0.950 . S
C1678 C1676 1.391 . S
C1678 C1679 1.400 . S
C1679 C1678 1.400 . S
C1679 C1680 1.398 . S
C1679 C1685 1.491 . S
C1680 H1671 0.950 . S
C1680 C1679 1.398 . S
C1680 C1681 1.391 . S
C1681 H1669 0.950 . S
C1681 C1677 1.393 . S
C1681 C1680 1.391 . S
C1682 H1672 0.950 . S
C1682 C1683 1.386 . S
C1682 C1684 1.391 . S
C1683 C1682 1.386 . S
C1683 C1687 1.393 . S
C1684 H1673 0.950 . S
C1684 C1682 1.391 . S
C1684 C1685 1.400 . S
C1685 C1679 1.491 . S
C1685 C1684 1.400 . S
C1685 C1686 1.398 . S
C1686 H1674 0.950 . S
C1686 C1685 1.398 . S
C1686 C1687 1.391 . S
C1687 H1675 0.950 . S
C1687 C1683 1.393 . S
C1687 C1686 1.391 . S
H1688 C1696 0.950 . S
H1689 C1701 0.950 . S
H1690 C1698 0.950 . S
H1691 C1700 0.950 . S
H1692 C1702 0.950 . S
H1693 C1704 0.950 . S
H1694 C1706 0.950 . S
H1695 C1707 0.950 . S
C1696 H1688 0.950 . S
C1696 C1697 1.386 . S
C1696 C1698 1.391 . S
C1697 C1696 1.386 . S
C1697 C1701 1.393 . S
C1698 H1690 0.950 . S
C1698 C1696 1.391 . S
C1698 C1699 1.400 . S
C1699 C1698 1.400 . S
C1699 C1700 1.398 . S
C1699 C1705 1.491 . S
C1700 H1691 0.950 . S
C1700 C1699 1.398 . S
C1700 C1701 1.391 . S
C1701 H1689 0.950 . S
C1701 C1697 1.393 . S
C1701 C1700 1.391 . S
C1702 H1692 0.950 . S
C1702 C1703 1.386 . S
C1702 C1704 1.391 . S
C1703 C1702 1.386 . S
C1703 C1707 1.393 . S
C1704 H1693 0.950 . S
C1704 C1702 1.391 . S
C1704 C1705 1.400 . S
C1705 C1699 1.491 . S
C1705 C1704 1.400 . S
C1705 C1706 1.398 . S
C1706 H1694 0.950 . S
C1706 C1705 1.398 . S
C1706 C1707 1.391 . S
C1707 H1695 0.950 . S
C1707 C1703 1.393 . S
C1707 C1706 1.391 . S
H1708 C1716 0.950 . S
H1709 C1721 0.950 . S
H1710 C1718 0.950 . S
H1711 C1720 0.950 . S
H1712 C1722 0.950 . S
H1713 C1724 0.950 . S
H1714 C1726 0.950 . S
H1715 C1727 0.950 . S
C1716 H1708 0.950 . S
C1716 C1717 1.386 . S
C1716 C1718 1.391 . S
C1717 C1716 1.386 . S
C1717 C1721 1.393 . S
C1718 H1710 0.950 . S
C1718 C1716 1.391 . S
C1718 C1719 1.400 . S
C1719 C1718 1.400 . S
C1719 C1720 1.398 . S
C1719 C1725 1.491 . S
C1720 H1711 0.950 . S
C1720 C1719 1.398 . S
C1720 C1721 1.391 . S
C1721 H1709 0.950 . S
C1721 C1717 1.393 . S
C1721 C1720 1.391 . S
C1722 H1712 0.950 . S
C1722 C1723 1.386 . S
C1722 C1724 1.391 . S
C1723 C1722 1.386 . S
C1723 C1727 1.393 . S
C1724 H1713 0.950 . S
C1724 C1722 1.391 . S
C1724 C1725 1.400 . S
C1725 C1719 1.491 . S
C1725 C1724 1.400 . S
C1725 C1726 1.398 . S
C1726 H1714 0.950 . S
C1726 C1725 1.398 . S
C1726 C1727 1.391 . S
C1727 H1715 0.950 . S
C1727 C1723 1.393 . S
C1727 C1726 1.391 . S
C1017 C231 1.194 . S
C1023 C56 1.321 . S
C1037 C324 1.216 . S
C1043 C151 1.318 . S
C1057 C224 1.306 . S
C1063 C399 1.194 . S
C1077 C319 1.321 . S
C1083 C492 1.193 . S
C1097 C63 1.189 . S
C1103 C392 1.317 . S
C1117 C156 1.220 . S
C1123 C487 1.293 . S
C1137 C912 1.224 . S
C1143 C571 1.314 . S
C1157 C644 1.296 . S
C1163 C987 1.210 . S
C1177 C739 1.322 . S
C1183 C576 1.197 . S
C1197 C812 1.321 . S
C1203 C651 1.208 . S
C1217 C907 1.294 . S
C1223 C744 1.215 . S
C1237 C819 1.221 . S
C1243 C980 1.292 . S
C1257 C327 1.935 . S
C1263 C66 1.933 . S
C1277 C159 1.945 . S
C1283 C402 1.923 . S
C1297 C234 1.938 . S
C1303 C495 1.930 . S
C1317 C579 1.922 . S
C1323 C822 1.946 . S
C1337 C654 1.942 . S
C1343 C915 1.925 . S
C1357 C747 1.923 . S
C1363 C990 1.945 . S
C1377 C663 2.132 . S
C1383 C75 2.142 . S
C1397 C150 2.140 . S
C1403 C738 2.133 . S
C1417 C831 2.133 . S
C1423 C243 2.151 . S
C1437 C318 2.134 . S
C1443 C906 2.152 . S
C1457 C411 2.132 . S
C1463 C999 2.143 . S
C1477 C570 2.146 . S
C1483 C486 2.152 . S
C1497 C240 1.316 . S
C1503 C67 1.388 . S
C1517 C140 1.389 . S
C1523 C315 1.326 . S
C1537 C235 1.390 . S
C1543 C408 1.306 . S
C1557 C308 1.422 . S
C1563 C483 1.304 . S
C1577 C72 1.288 . S
C1583 C403 1.406 . S
C1597 C147 1.335 . S
C1603 C476 1.398 . S
C1617 C903 1.319 . S
C1623 C560 1.419 . S
C1637 C655 1.417 . S
C1643 C996 1.323 . S
C1657 C728 1.412 . S
C1663 C567 1.288 . S
C1677 C660 1.290 . S
C1683 C823 1.416 . S
C1697 C896 1.413 . S
C1703 C735 1.329 . S
C1717 C991 1.406 . S
C1723 C828 1.333 . S
