# Generated by pormake.
# Topology sod, (4)-cn, num edge types: 1
# Building blocks:
#     Node 0, Type 0, BuildingBlock: QUQFOY_clean_sbu_3, # of connection points: 4
#     Node 1, Type 0, BuildingBlock: QUQFOY_clean_sbu_3, # of connection points: 4
#     Node 2, Type 0, BuildingBlock: QUQFOY_clean_sbu_3, # of connection points: 4
#     Node 3, Type 0, BuildingBlock: QUQFOY_clean_sbu_3, # of connection points: 4
#     Node 4, Type 0, BuildingBlock: QUQFOY_clean_sbu_3, # of connection points: 4
#     Node 5, Type 0, BuildingBlock: QUQFOY_clean_sbu_3, # of connection points: 4
#     Node 6, Type 0, BuildingBlock: QUQFOY_clean_sbu_3, # of connection points: 4
#     Node 7, Type 0, BuildingBlock: QUQFOY_clean_sbu_3, # of connection points: 4
#     Node 8, Type 0, BuildingBlock: QUQFOY_clean_sbu_3, # of connection points: 4
#     Node 9, Type 0, BuildingBlock: QUQFOY_clean_sbu_3, # of connection points: 4
#     Node 10, Type 0, BuildingBlock: QUQFOY_clean_sbu_3, # of connection points: 4
#     Node 11, Type 0, BuildingBlock: QUQFOY_clean_sbu_3, # of connection points: 4
#     Edge 12, Type (0, 0), BuildingBlock: EZIPEK_clean_linker_0, # of connection points: 2
#     Edge 13, Type (0, 0), BuildingBlock: EZIPEK_clean_linker_0, # of connection points: 2
#     Edge 14, Type (0, 0), BuildingBlock: EZIPEK_clean_linker_0, # of connection points: 2
#     Edge 15, Type (0, 0), BuildingBlock: EZIPEK_clean_linker_0, # of connection points: 2
#     Edge 16, Type (0, 0), BuildingBlock: EZIPEK_clean_linker_0, # of connection points: 2
#     Edge 17, Type (0, 0), BuildingBlock: EZIPEK_clean_linker_0, # of connection points: 2
#     Edge 18, Type (0, 0), BuildingBlock: EZIPEK_clean_linker_0, # of connection points: 2
#     Edge 19, Type (0, 0), BuildingBlock: EZIPEK_clean_linker_0, # of connection points: 2
#     Edge 20, Type (0, 0), BuildingBlock: EZIPEK_clean_linker_0, # of connection points: 2
#     Edge 21, Type (0, 0), BuildingBlock: EZIPEK_clean_linker_0, # of connection points: 2
#     Edge 22, Type (0, 0), BuildingBlock: EZIPEK_clean_linker_0, # of connection points: 2
#     Edge 23, Type (0, 0), BuildingBlock: EZIPEK_clean_linker_0, # of connection points: 2
#     Edge 24, Type (0, 0), BuildingBlock: EZIPEK_clean_linker_0, # of connection points: 2
#     Edge 25, Type (0, 0), BuildingBlock: EZIPEK_clean_linker_0, # of connection points: 2
#     Edge 26, Type (0, 0), BuildingBlock: EZIPEK_clean_linker_0, # of connection points: 2
#     Edge 27, Type (0, 0), BuildingBlock: EZIPEK_clean_linker_0, # of connection points: 2
#     Edge 28, Type (0, 0), BuildingBlock: EZIPEK_clean_linker_0, # of connection points: 2
#     Edge 29, Type (0, 0), BuildingBlock: EZIPEK_clean_linker_0, # of connection points: 2
#     Edge 30, Type (0, 0), BuildingBlock: EZIPEK_clean_linker_0, # of connection points: 2
#     Edge 31, Type (0, 0), BuildingBlock: EZIPEK_clean_linker_0, # of connection points: 2
#     Edge 32, Type (0, 0), BuildingBlock: EZIPEK_clean_linker_0, # of connection points: 2
#     Edge 33, Type (0, 0), BuildingBlock: EZIPEK_clean_linker_0, # of connection points: 2
#     Edge 34, Type (0, 0), BuildingBlock: EZIPEK_clean_linker_0, # of connection points: 2
#     Edge 35, Type (0, 0), BuildingBlock: EZIPEK_clean_linker_0, # of connection points: 2
# Relax obj value: 0.139
# Max RMSD: 0.178
# Mean RMSD: 0.168
data_MOF--net-sod--node1-QUQFOY_clean_sbu_3--edge1-EZIPEK_clean_linker_0
_symmetry_space_group_name_H-M    P1
_symmetry_Int_Tables_number       1
_symmetry_cell_setting            triclinic
loop_
_symmetry_equiv_pos_as_xyz
'x, y, z'
_cell_length_a     32.943997
_cell_length_b     33.273995
_cell_length_c     33.175667
_cell_angle_alpha  93.205721
_cell_angle_beta   89.579385
_cell_angle_gamma 91.292463
loop_
_atom_site_label
_atom_site_type_symbol
_atom_site_fract_x
_atom_site_fract_y
_atom_site_fract_z
_atom_type_partial_charge
C0 C 0.95037 0.1792 0.5154 0.0
O1 O 0.96418 0.18079 0.55109 0.0
Cd2 Cd 0.02324 0.21774 0.57109 0.0
O3 O 0.96718 0.19935 0.4879 0.0
Cd4 Cd 0.02481 0.2497 0.48379 0.0
C5 C 0.0893 0.1753 0.5014 0.0
O6 O 0.00654 0.28222 0.5481 0.0
O7 O 0.06316 0.30355 0.52323 0.0
O8 O -0.01833 0.28177 0.43597 0.0
C9 C 0.03488 0.3084 0.54901 0.0
O10 O 0.07694 0.17826 0.53781 0.0
C11 C 0.01083 0.29431 0.41445 0.0
O12 O 0.07538 0.19757 0.47508 0.0
O13 O 0.04629 0.28395 0.42359 0.0
C14 C 0.67096 0.06021 0.43021 0.0
O15 O 0.67101 0.09258 0.45264 0.0
Cd16 Cd 0.70872 0.11337 0.51358 0.0
O17 O 0.69336 0.03071 0.43752 0.0
Cd18 Cd 0.74123 0.01864 0.49162 0.0
C19 C 0.67285 0.04123 0.57122 0.0
O20 O 0.77354 0.08517 0.50163 0.0
O21 O 0.81342 0.03682 0.48537 0.0
O22 O 0.763 0.95494 0.45995 0.0
C23 C 0.80952 0.07358 0.49589 0.0
O24 O 0.67349 0.07879 0.5661 0.0
C25 C 0.77108 0.9401 0.49351 0.0
O26 O 0.69382 0.01706 0.54905 0.0
O27 O 0.76228 0.9606 0.52575 0.0
C28 C 0.8746 0.80534 0.47415 0.0
O29 O 0.88683 0.80643 0.4379 0.0
Cd30 Cd 0.93703 0.7651 0.40678 0.0
O31 O 0.88987 0.78134 0.49833 0.0
Cd32 Cd 0.94698 0.73303 0.49268 0.0
C33 C 0.01978 0.7981 0.4593 0.0
O34 O 0.92303 0.69903 0.43005 0.0
O35 O -0.01809 0.68134 0.4503 0.0
O36 O 0.92714 0.68028 0.53802 0.0
C37 C 0.95209 0.67481 0.42669 0.0
O38 O 0.00232 0.7967 0.42521 0.0
C39 C 0.95213 0.69132 0.56562 0.0
O40 O 0.00515 0.7793 0.48853 0.0
O41 O 0.97216 0.72366 0.56073 0.0
C42 C 0.30123 0.93239 0.40226 0.0
O43 O 0.29909 0.89587 0.41136 0.0
Cd44 Cd 0.25538 0.8724 0.46317 0.0
O45 O 0.27906 0.95884 0.42023 0.0
Cd46 Cd 0.22656 0.95974 0.47493 0.0
C47 C 0.29363 0.92845 0.54312 0.0
O48 O 0.18936 0.89881 0.44996 0.0
O49 O 0.17126 0.92332 0.5088 0.0
O50 O 0.19364 0.01427 0.44111 0.0
C51 C 0.16401 0.89903 0.47883 0.0
O52 O 0.28928 0.89314 0.52676 0.0
C53 C 0.18795 0.03575 0.47344 0.0
O54 O 0.27582 0.95808 0.5291 0.0
O55 O 0.20166 0.02277 0.50577 0.0
C56 C 0.56336 0.01086 0.30288 0.0
O57 O 0.56309 0.97281 0.30395 0.0
Cd58 Cd 0.52456 0.92702 0.26168 0.0
O59 O 0.54184 0.02857 0.27767 0.0
Cd60 Cd 0.49304 0.00632 0.22256 0.0
C61 C 0.43043 0.96062 0.28904 0.0
O62 O 0.53706 0.95233 0.19656 0.0
O63 O 0.47899 0.95475 0.16748 0.0
O64 O 0.51433 0.06727 0.18892 0.0
C65 C 0.51376 0.93947 0.16844 0.0
O66 O 0.4559 0.93249 0.28931 0.0
C67 C 0.47923 0.07423 0.17567 0.0
O68 O 0.43695 -0.00862 0.26863 0.0
O69 O 0.45037 0.05099 0.18588 0.0
C70 C 0.04159 0.52049 0.1792 0.0
O71 O 0.02059 0.55186 0.17771 0.0
Cd72 Cd 0.96006 0.56525 0.21414 0.0
O73 O 0.03112 0.49171 0.20131 0.0
Cd74 Cd -0.02655 0.47951 0.24937 0.0
C75 C 0.90342 0.48579 0.17501 0.0
O76 O -0.01996 0.5471 0.27977 0.0
O77 O 0.92992 0.51219 0.30267 0.0
O78 O 0.01661 0.43956 0.29104 0.0
C79 C 0.9523 0.54364 0.30582 0.0
O80 O 0.90924 0.52374 0.17705 0.0
C81 C -0.0097 0.41141 0.29427 0.0
O82 O 0.92319 0.46327 0.19711 0.0
O83 O 0.95739 0.41393 0.2751 0.0
C84 C 0.54367 0.00968 0.67923 0.0
O85 O 0.52324 0.04124 0.67645 0.0
Cd86 Cd 0.46168 0.05517 0.71074 0.0
O87 O 0.53199 -0.01841 0.70166 0.0
Cd88 Cd 0.47224 0.97049 0.74779 0.0
C89 C 0.40436 -0.0241 0.67161 0.0
O90 O 0.47781 0.03849 0.77784 0.0
O91 O 0.42537 0.00475 0.79726 0.0
O92 O 0.51838 0.93267 0.78849 0.0
C93 C 0.44812 0.03583 0.80189 0.0
O94 O 0.41069 0.01378 0.67404 0.0
C95 C 0.49211 0.90585 0.79687 0.0
O96 O 0.42371 0.95281 0.69357 0.0
O97 O 0.45748 0.90769 0.78072 0.0
C98 C 0.07472 0.50124 0.80055 0.0
O99 O 0.07323 0.46306 0.79951 0.0
Cd100 Cd 0.03147 0.42027 0.75698 0.0
O101 O 0.05293 0.5211 0.77739 0.0
Cd102 Cd 7e-05 0.50385 0.72548 0.0
C103 C 0.94046 0.45479 0.79198 0.0
O104 O 0.03704 0.44885 0.6927 0.0
O105 O -0.02462 0.45486 0.67229 0.0
O106 O 0.0165 0.55579 0.67858 0.0
C107 C 0.00949 0.43824 0.66775 0.0
O108 O 0.96489 0.4257 0.78916 0.0
C109 C -0.01653 0.57444 0.68362 0.0
O110 O 0.94702 0.48677 0.77352 0.0
O111 O 0.95916 0.56169 0.7101 0.0
C112 C 0.17695 0.55644 0.93215 0.0
O113 O 0.17658 0.59172 0.94876 0.0
Cd114 Cd 0.21585 0.61085 0.00698 0.0
O115 O 0.19885 0.52916 0.94574 0.0
Cd116 Cd 0.24724 0.52314 0.00214 0.0
C117 C 0.17413 0.54451 0.07082 0.0
O118 O 0.282 0.58623 -0.01168 0.0
O119 O 0.30139 0.55806 0.0418 0.0
O120 O 0.28116 0.47131 0.96012 0.0
C121 C 0.30757 0.58448 0.01631 0.0
O122 O 0.17778 0.58114 0.06208 0.0
C123 C 0.28779 0.44906 -0.01083 0.0
O124 O 0.19481 0.51738 0.05259 0.0
O125 O 0.27443 0.46057 0.02372 0.0
C126 C 0.38974 0.31206 0.95937 0.0
O127 O 0.40133 0.30891 0.92282 0.0
Cd128 Cd 0.44807 0.26181 0.89542 0.0
O129 O 0.40289 0.28875 -0.01453 0.0
Cd130 Cd 0.45187 0.23168 -0.01791 0.0
C131 C 0.52904 0.29281 0.95185 0.0
O132 O 0.42441 0.19864 0.91979 0.0
O133 O 0.48032 0.17496 0.94067 0.0
O134 O 0.42021 0.19413 0.03696 0.0
C135 C 0.45021 0.17109 0.9172 0.0
O136 O 0.5144 0.28983 0.91645 0.0
C137 C 0.45377 0.18995 0.05484 0.0
O138 O 0.51132 0.27622 -0.01913 0.0
O139 O 0.48489 0.20718 0.04044 0.0
C140 C 0.81086 0.4318 0.90557 0.0
O141 O 0.80925 0.39565 0.91579 0.0
Cd142 Cd 0.76337 0.37245 0.96543 0.0
O143 O 0.78734 0.45823 0.92153 0.0
Cd144 Cd 0.73244 0.45827 0.97377 0.0
C145 C 0.79694 0.43075 0.04548 0.0
O146 O 0.69788 0.39676 0.94689 0.0
O147 O 0.67807 0.41883 0.0059 0.0
O148 O 0.69939 0.51288 0.93992 0.0
C149 C 0.6718 0.3955 -0.02503 0.0
O150 O 0.79348 0.39484 0.03046 0.0
C151 C 0.69205 0.53325 0.97261 0.0
O152 O 0.77969 0.45948 0.02936 0.0
O153 O 0.70454 0.51949 0.00502 0.0
C154 C 0.45455 0.68141 0.02645 0.0
O155 O 0.47259 0.67958 0.05995 0.0
Cd156 Cd 0.53324 0.7163 0.07642 0.0
O157 O 0.46871 0.70309 -0.00119 0.0
Cd158 Cd 0.52954 0.74833 -0.00982 0.0
C159 C 0.5946 0.67272 0.00455 0.0
O160 O 0.51601 0.78164 0.05531 0.0
O161 O 0.57187 0.80103 0.02765 0.0
O162 O 0.48605 0.78304 0.94425 0.0
C163 C 0.54486 0.80718 0.05456 0.0
O164 O 0.58667 0.67763 0.04201 0.0
C165 C 0.51461 0.79247 0.92044 0.0
O166 O 0.57673 0.69293 -0.02116 0.0
O167 O 0.54967 0.7798 0.92778 0.0
C168 C -0.01621 0.35954 0.39293 0.0
C169 C 0.00431 0.3232 0.38278 0.0
C170 C 0.01846 0.34608 0.31484 0.0
C171 C -0.00513 0.3805 0.32408 0.0
N172 N 0.94901 0.41684 0.36923 0.0
N173 N 0.03528 0.27858 0.33225 0.0
C174 C -0.02448 0.38613 0.36223 0.0
C175 C 0.02018 0.31556 0.34321 0.0
N176 N -0.02557 0.37009 0.43231 0.0
N177 N 0.03941 0.34273 0.27915 0.0
H178 H 0.03602 0.25521 0.35189 0.0
H179 H 0.04363 0.26979 0.3028 0.0
H180 H 0.03759 0.36387 0.25719 0.0
H181 H 0.06067 0.3206 0.27247 0.0
H182 H 0.964 0.39838 0.44189 0.0
H183 H -0.01919 0.35235 0.45625 0.0
H184 H 0.9304 0.41943 0.39472 0.0
H185 H 0.94304 0.43801 0.34817 0.0
C186 C 0.65749 0.05284 0.35608 0.0
C187 C 0.64229 0.05552 0.39621 0.0
C188 C 0.57304 0.04346 0.37135 0.0
C189 C 0.58906 0.03416 0.33236 0.0
N190 N 0.64569 0.03012 0.28622 0.0
N191 N 0.5861 0.05135 0.44314 0.0
C192 C 0.63105 0.03944 0.32417 0.0
C193 C 0.60006 0.051 0.40418 0.0
N194 N 0.69701 0.06362 0.34863 0.0
N195 N 0.53193 0.04472 0.37683 0.0
H196 H 0.60485 0.05673 0.46814 0.0
H197 H 0.55643 0.04347 0.45095 0.0
H198 H 0.51169 0.03938 0.35301 0.0
H199 H 0.51808 0.05473 0.40374 0.0
H200 H 0.70915 0.06586 0.31978 0.0
H201 H 0.71697 0.07365 0.37152 0.0
H202 H 0.67646 0.02854 0.27914 0.0
H203 H 0.6267 0.02225 0.26185 0.0
C204 C 0.93903 0.61509 0.32666 0.0
C205 C 0.94683 0.57563 0.33794 0.0
C206 C 0.9531 0.60052 0.40858 0.0
C207 C 0.95105 0.64061 0.39621 0.0
N208 N 0.95007 0.68623 0.34216 0.0
N209 N 0.96676 0.53094 0.38879 0.0
C210 C 0.94599 0.648 0.35488 0.0
C211 C 0.95512 0.56824 0.37875 0.0
N212 N 0.92413 0.621 0.28918 0.0
N213 N 0.95183 0.59313 0.4487 0.0
H214 H 0.96863 0.50651 0.36785 0.0
H215 H -0.02236 0.52502 0.41721 0.0
H216 H 0.94994 0.61589 0.47151 0.0
H217 H 0.94892 0.56429 0.45923 0.0
H218 H 0.91443 0.64882 0.28052 0.0
H219 H 0.91717 0.59719 0.26841 0.0
H220 H 0.95051 0.6928 0.31182 0.0
H221 H 0.95766 0.71085 0.3616 0.0
C222 C 0.32891 0.9257 0.33175 0.0
C223 C 0.33115 0.94421 0.3713 0.0
C224 C 0.39299 -0.0188 0.35248 0.0
C225 C 0.39392 0.95826 0.31513 0.0
N226 N 0.36415 0.9075 0.2691 0.0
N227 N 0.36796 -0.01421 0.42135 0.0
C228 C 0.36216 0.93024 0.30466 0.0
C229 C 0.36358 0.97142 0.38213 0.0
N230 N 0.29446 0.90478 0.31982 0.0
N231 N 0.42042 0.01213 0.3598 0.0
H232 H 0.34765 -0.02111 0.44432 0.0
H233 H 0.3936 0.00177 0.43198 0.0
H234 H 0.44303 0.0196 0.33925 0.0
H235 H 0.41859 0.03262 0.38462 0.0
H236 H 0.28926 0.89379 0.29027 0.0
H237 H 0.26928 0.90156 0.33873 0.0
H238 H 0.34466 0.88314 0.26188 0.0
H239 H 0.38684 0.91169 0.24752 0.0
C240 C 0.93414 0.61193 0.64168 0.0
C241 C -0.02646 0.60845 0.65834 0.0
C242 C -0.00054 0.65965 0.61413 0.0
C243 C 0.95937 0.66593 0.60033 0.0
N244 N 0.88739 0.65667 0.61206 0.0
N245 N 0.03971 0.63957 0.66982 0.0
C246 C 0.92629 0.64492 0.61775 0.0
C247 C 0.00489 0.63582 0.6477 0.0
N248 N 0.90487 0.5827 0.64594 0.0
N249 N 0.03271 0.6735 0.59382 0.0
H250 H 0.04393 0.62416 0.69596 0.0
H251 H 0.06199 0.66157 0.66496 0.0
H252 H 0.03117 0.68785 0.56682 0.0
H253 H 0.06225 0.66618 0.60122 0.0
H254 H 0.87719 0.58265 0.6309 0.0
H255 H 0.90956 0.55621 0.6603 0.0
H256 H 0.86258 0.64417 0.62696 0.0
H257 H 0.88056 0.68202 0.59648 0.0
C258 C 0.39085 0.94041 0.6044 0.0
C259 C 0.37555 0.95867 0.64093 0.0
C260 C 0.30591 0.94969 0.61572 0.0
C261 C 0.32159 0.93591 0.5776 0.0
N262 N 0.37894 0.92248 0.53358 0.0
N263 N 0.31925 -0.01717 0.6815 0.0
C264 C 0.36404 0.93192 0.57147 0.0
C265 C 0.33322 0.9638 0.64668 0.0
N266 N 0.43112 0.93153 0.60104 0.0
N267 N 0.26492 0.94819 0.62253 0.0
H268 H 0.33813 -0.00854 0.70573 0.0
H269 H 0.28944 -0.00803 0.68569 0.0
H270 H 0.24418 0.93775 0.60052 0.0
H271 H 0.25159 0.954 0.65073 0.0
H272 H 0.44327 0.91416 0.57701 0.0
H273 H 0.4521 0.93887 0.62378 0.0
H274 H 0.40966 0.92391 0.52611 0.0
H275 H 0.36045 0.91624 0.50852 0.0
C276 C 0.03061 0.3827 0.56678 0.0
C277 C 0.03404 0.34275 0.57926 0.0
C278 C 0.01712 0.36525 0.6487 0.0
C279 C 0.01628 0.40544 0.63688 0.0
N280 N 0.02843 0.45395 0.58658 0.0
N281 N 0.04076 0.29778 0.63313 0.0
C282 C 0.02492 0.41466 0.59645 0.0
C283 C 0.03035 0.33458 0.6206 0.0
N284 N 0.03081 0.3899 0.52662 0.0
N285 N 0.00379 0.35614 0.68629 0.0
H286 H 0.05239 0.27533 0.61341 0.0
H287 H 0.0422 0.29116 0.66339 0.0
H288 H -0.00746 0.37775 0.70717 0.0
H289 H -2e-05 0.32677 0.69523 0.0
H290 H 0.02327 0.41742 0.51555 0.0
H291 H 0.03596 0.36765 0.50393 0.0
H292 H 0.03921 0.46269 0.55874 0.0
H293 H 0.0233 0.47811 0.60729 0.0
C294 C 0.61639 0.02949 0.66974 0.0
C295 C 0.58182 0.00682 0.65585 0.0
C296 C 0.61 0.00119 0.5875 0.0
C297 C 0.64415 0.02503 0.60103 0.0
N298 N 0.68512 0.05314 0.65586 0.0
N299 N 0.55031 0.96181 0.60567 0.0
C300 C 0.64906 0.03632 0.64256 0.0
C301 C 0.58042 -0.01072 0.61608 0.0
N302 N 0.61709 0.04573 0.7085 0.0
N303 N 0.60425 -0.00756 0.54712 0.0
H304 H 0.52823 0.95291 0.62625 0.0
H305 H 0.54946 0.94512 0.57818 0.0
H306 H 0.62478 0.00091 0.52494 0.0
H307 H 0.57764 -0.02063 0.53517 0.0
H308 H 0.63893 0.06663 0.71932 0.0
H309 H 0.59456 0.03928 0.72963 0.0
H310 H 0.69207 0.05893 0.68621 0.0
H311 H 0.7096 0.05817 0.6365 0.0
C312 C 0.38126 0.38601 0.96991 0.0
C313 C 0.36423 0.34658 0.97183 0.0
C314 C 0.29776 0.37443 -0.01031 0.0
C315 C 0.31399 0.41365 -0.01598 0.0
N316 N 0.37061 0.45777 0.96882 0.0
N317 N 0.30662 0.30211 -0.01922 0.0
C318 C 0.35562 0.41971 0.9742 0.0
C319 C 0.32265 0.34043 -0.01851 0.0
N320 N 0.42233 0.3911 0.96517 0.0
N321 N 0.25853 0.36976 0.00269 0.0
H322 H 0.3242 0.27662 -0.02432 0.0
H323 H 0.27573 0.29534 -0.01708 0.0
H324 H 0.23864 0.39363 0.00651 0.0
H325 H 0.24612 0.34269 0.01185 0.0
H326 H 0.43765 0.41878 0.96811 0.0
H327 H 0.44192 0.36708 0.96101 0.0
H328 H 0.39892 0.46396 0.95621 0.0
H329 H 0.35413 0.4837 -0.02448 0.0
C330 C 0.34828 0.64211 0.0478 0.0
C331 C 0.34438 0.61054 0.01752 0.0
C332 C 0.41225 0.62663 -0.00879 0.0
C333 C 0.41556 0.65908 0.02068 0.0
N334 N 0.38412 0.7034 0.07109 0.0
N335 N 0.36936 0.5756 0.95686 0.0
C336 C 0.3828 0.66842 0.04736 0.0
C337 C 0.37529 0.60384 -0.01204 0.0
N338 N 0.31911 0.64673 0.07715 0.0
N339 N 0.44512 0.61629 0.96775 0.0
H340 H 0.3439 0.55643 0.95469 0.0
H341 H 0.38843 0.57264 0.93177 0.0
H342 H 0.47231 0.63287 0.96839 0.0
H343 H 0.44654 0.58991 0.94944 0.0
H344 H 0.32248 0.66597 0.1028 0.0
H345 H 0.2923 0.62945 0.07724 0.0
H346 H 0.35965 0.71408 0.08823 0.0
H347 H 0.40854 0.72389 0.07079 0.0
C348 C 0.56198 0.35754 -0.02238 0.0
C349 C 0.56589 0.31801 0.95997 0.0
C350 C 0.63982 0.32707 0.95919 0.0
C351 C 0.63546 0.36841 0.97136 0.0
N352 N 0.59115 0.42482 -0.01584 0.0
N353 N 0.60793 0.26584 0.93012 0.0
C354 C 0.59622 0.38419 -0.02135 0.0
C355 C 0.60466 0.30301 0.94943 0.0
N356 N 0.52569 0.36963 -0.00623 0.0
N357 N 0.67728 0.31025 0.95901 0.0
H358 H 0.58296 0.24664 0.92418 0.0
H359 H 0.635 0.25523 0.91758 0.0
H360 H 0.70343 0.32632 0.96812 0.0
H361 H 0.68185 0.27949 0.95411 0.0
H362 H 0.52223 0.39678 0.01052 0.0
H363 H 0.49998 0.35084 -0.00604 0.0
H364 H 0.56275 0.43801 -0.01479 0.0
H365 H 0.61504 0.44583 -0.01658 0.0
C366 C 0.68723 0.60768 -0.01197 0.0
C367 C 0.66851 0.57073 0.97379 0.0
C368 C 0.60177 0.60193 -0.02356 0.0
C369 C 0.62048 0.63887 -0.00942 0.0
N370 N 0.6807 0.67968 0.00303 0.0
N371 N 0.60955 0.53412 0.94718 0.0
C372 C 0.66322 0.64259 -0.00574 0.0
C373 C 0.62632 0.56846 0.96531 0.0
N374 N 0.72789 0.60909 -0.00382 0.0
N375 N 0.56032 0.59818 -0.02403 0.0
H376 H 0.62586 0.50812 0.94044 0.0
H377 H 0.58009 0.53216 0.936 0.0
H378 H 0.54128 0.62205 -0.01641 0.0
H379 H 0.54456 0.57093 0.97091 0.0
H380 H 0.74269 0.63344 0.01117 0.0
H381 H 0.74687 0.58496 -0.01077 0.0
H382 H 0.71186 0.68549 0.00256 0.0
H383 H 0.66372 0.70563 0.00789 0.0
C384 C 0.51006 0.80731 0.84706 0.0
C385 C 0.50838 0.82091 0.88836 0.0
C386 C 0.50127 0.89052 0.86912 0.0
C387 C 0.49973 0.8766 0.82789 0.0
N388 N 0.49892 0.82198 0.77707 0.0
N389 N 0.49703 0.87428 0.9393 0.0
C390 C 0.50301 0.83499 0.81669 0.0
C391 C 0.50239 0.86218 0.89954 0.0
N392 N 0.51874 0.76801 0.83697 0.0
N393 N 0.50225 0.93097 0.87928 0.0
H394 H 0.49916 0.85498 0.96281 0.0
H395 H 0.48749 0.90283 0.94905 0.0
H396 H 0.49994 0.95288 0.85826 0.0
H397 H 0.50843 0.94315 0.90822 0.0
H398 H 0.5249 0.75699 0.80765 0.0
H399 H 0.52206 0.74657 0.85841 0.0
H400 H 0.49638 0.79179 0.76722 0.0
H401 H 0.49587 0.84162 0.7539 0.0
C402 C 0.16869 0.53633 0.85887 0.0
C403 C 0.15075 0.54658 0.89695 0.0
C404 C 0.08287 0.53769 0.86771 0.0
C405 C 0.10079 0.52233 0.83121 0.0
N406 N 0.16007 0.50528 0.79147 0.0
N407 N 0.09118 0.55313 0.93945 0.0
C408 C 0.14358 0.52136 0.82654 0.0
C409 C 0.10791 0.54674 0.90181 0.0
N410 N 0.20957 0.54202 0.85342 0.0
N411 N 0.04188 0.54321 0.86985 0.0
H412 H 0.10843 0.55954 0.96534 0.0
H413 H 0.06043 0.5489 0.94573 0.0
H414 H 0.02241 0.53592 0.84577 0.0
H415 H 0.02751 0.55812 0.89422 0.0
H416 H 0.224 0.53896 0.82544 0.0
H417 H 0.22882 0.55315 0.87647 0.0
H418 H 0.19074 0.49897 0.78787 0.0
H419 H 0.14259 0.49636 0.76629 0.0
C420 C 0.43684 0.10845 0.81866 0.0
C421 C 0.44004 0.06908 0.8322 0.0
C422 C 0.44109 0.09674 0.90222 0.0
C423 C 0.44541 0.13608 0.88798 0.0
N424 N 0.45269 0.1791 0.83198 0.0
N425 N 0.44686 0.02503 0.88704 0.0
C426 C 0.44435 0.14197 0.84601 0.0
C427 C 0.44217 0.0629 0.87411 0.0
N428 N 0.42556 0.11368 0.77981 0.0
N429 N 0.43463 0.09181 0.94241 0.0
H430 H 0.44591 -0.00067 0.86765 0.0
H431 H 0.45392 0.0193 0.9167 0.0
H432 H 0.43247 0.116 0.96364 0.0
H433 H 0.42746 0.06411 0.95411 0.0
H434 H 0.41941 0.14171 0.76904 0.0
H435 H 0.41754 0.08946 0.75992 0.0
H436 H 0.45639 0.18411 0.80144 0.0
H437 H 0.46002 0.20415 0.85093 0.0
C438 C 0.86661 0.44235 0.80596 0.0
C439 C 0.906 0.45291 0.82049 0.0
C440 C 0.8802 0.45828 0.89006 0.0
C441 C 0.84198 0.44325 0.87593 0.0
N442 N 0.79804 0.41942 0.82159 0.0
N443 N 0.95174 0.46972 0.87566 0.0
C444 C 0.83485 0.43514 0.83412 0.0
C445 C 0.91316 0.46081 0.86238 0.0
N446 N 0.85967 0.43949 0.7653 0.0
N447 N 0.88475 0.47029 0.92993 0.0
H448 H -0.02363 0.4735 0.85619 0.0
H449 H 0.96008 0.47126 0.9059 0.0
H450 H 0.86139 0.46807 0.95115 0.0
H451 H 0.91051 0.48518 0.94168 0.0
H452 H 0.83094 0.43589 0.7526 0.0
H453 H 0.88259 0.44347 0.74392 0.0
H454 H 0.79214 0.40836 0.79221 0.0
H455 H 0.77358 0.41556 0.84127 0.0
C456 C 0.44755 0.13811 0.15475 0.0
C457 C 0.47292 0.10478 0.14553 0.0
C458 C 0.48095 0.12519 0.07596 0.0
C459 C 0.45849 0.16028 0.08604 0.0
N460 N 0.42333 0.20276 0.13518 0.0
N461 N 0.51692 0.06815 0.09857 0.0
C462 C 0.4423 0.16737 0.12545 0.0
C463 C 0.4907 0.09893 0.10655 0.0
N464 N 0.42853 0.14173 0.1915 0.0
N465 N 0.49127 0.11584 0.03653 0.0
H466 H 0.5225 0.04604 0.11866 0.0
H467 H 0.5352 0.06573 0.07285 0.0
H468 H 0.48482 0.13415 0.01303 0.0
H469 H 0.50299 0.0883 0.0263 0.0
H470 H 0.4061 0.16252 0.19862 0.0
H471 H 0.43371 0.12242 0.21453 0.0
H472 H 0.41455 0.21199 0.16437 0.0
H473 H 0.41859 0.22439 0.11422 0.0
C474 C 0.8331 0.47293 0.148 0.0
C475 C 0.87556 0.46745 0.14405 0.0
C476 C 0.86626 0.43602 0.07601 0.0
C477 C 0.82366 0.44014 0.08052 0.0
N478 N 0.76561 0.45538 0.12271 0.0
N479 N 0.93223 0.43749 0.10779 0.0
C480 C 0.80679 0.45655 0.11714 0.0
C481 C 0.89197 0.44671 0.10927 0.0
N482 N 0.81804 0.49424 0.18103 0.0
N483 N 0.88241 0.42442 0.03916 0.0
H484 H 0.9527 0.4464 0.13051 0.0
H485 H 0.94486 0.41834 0.08543 0.0
H486 H 0.86482 0.41646 0.01384 0.0
H487 H 0.91335 0.42581 0.03259 0.0
H488 H 0.78813 0.50353 0.18355 0.0
H489 H 0.83611 0.50457 0.20532 0.0
H490 H 0.75138 0.46322 0.15005 0.0
H491 H 0.74561 0.44323 0.10079 0.0
C492 C 0.53941 0.83486 0.12556 0.0
C493 C 0.54573 0.84219 0.08428 0.0
C494 C 0.53876 0.91461 0.10023 0.0
C495 C 0.52576 0.90618 0.13977 0.0
N496 N 0.50889 0.85777 0.18904 0.0
N497 N 0.54906 0.88919 0.03122 0.0
C498 C 0.52502 0.86617 0.15231 0.0
C499 C 0.54536 0.88218 0.0713 0.0
N500 N 0.54808 0.79808 0.13927 0.0
N501 N 0.54539 0.9536 0.09055 0.0
H502 H 0.55528 0.86677 0.00906 0.0
H503 H 0.54353 0.91693 0.01953 0.0
H504 H 0.54061 -0.02204 0.11103 0.0
H505 H 0.55893 0.96165 0.06361 0.0
H506 H 0.54746 0.7919 0.16971 0.0
H507 H 0.56042 0.77516 0.12058 0.0
H508 H 0.50374 0.82858 0.19803 0.0
H509 H 0.49704 0.87983 0.20904 0.0
C510 C 0.10542 0.51494 0.08409 0.0
C511 C 0.14219 0.53264 0.09946 0.0
C512 C 0.11609 0.53011 0.16866 0.0
C513 C 0.07774 0.51751 0.15288 0.0
N514 N 0.03462 0.49774 0.09662 0.0
N515 N 0.18369 0.55729 0.15538 0.0
C516 C 0.07222 0.50929 0.11087 0.0
C517 C 0.14803 0.53996 0.14157 0.0
N518 N 0.10221 0.50386 0.04385 0.0
N519 N 0.12168 0.53268 0.20953 0.0
H520 H 0.20823 0.56327 0.13639 0.0
H521 H 0.18858 0.5675 0.18519 0.0
H522 H 0.09859 0.52587 0.22992 0.0
H523 H 0.14962 0.53847 0.22331 0.0
H524 H 0.07801 0.48693 0.03139 0.0
H525 H 0.12502 0.50941 0.0228 0.0
H526 H 0.02682 0.49615 0.06623 0.0
H527 H 0.01026 0.49129 0.11563 0.0
C528 C 0.77869 0.86612 0.47743 0.0
C529 C 0.79463 0.9029 0.49495 0.0
C530 C 0.85762 0.86971 0.51154 0.0
C531 C 0.84425 0.835 0.4883 0.0
N532 N 0.7925 0.7988 0.44934 0.0
N533 N 0.85101 0.94139 0.52498 0.0
C534 C 0.80467 0.83267 0.47162 0.0
C535 C 0.83428 0.90504 0.51175 0.0
N536 N 0.7386 0.8631 0.46708 0.0
N537 N 0.89312 0.86929 0.5326 0.0
H538 H 0.83567 0.96839 0.52494 0.0
H539 H 0.88144 0.94557 0.53273 0.0
H540 H 0.91192 0.8445 0.53203 0.0
H541 H 0.90218 0.89215 0.55355 0.0
H542 H 0.72405 0.8362 0.45751 0.0
H543 H 0.71889 0.88711 0.47131 0.0
H544 H 0.76616 0.79679 0.43214 0.0
H545 H 0.80986 0.7729 0.44684 0.0
C546 C 0.87922 0.16619 0.48915 0.0
C547 C 0.91524 0.15186 0.50607 0.0
C548 C 0.88018 0.08872 0.52017 0.0
C549 C 0.84539 0.10118 0.49961 0.0
N550 N 0.81589 0.1481 0.45562 0.0
N551 N 0.95301 0.09515 0.52654 0.0
C552 C 0.84598 0.1389 0.48148 0.0
C553 C 0.91666 0.11172 0.51806 0.0
N554 N 0.87588 0.20603 0.48203 0.0
N555 N 0.878 0.05619 0.54357 0.0
H556 H -0.01927 0.11055 0.52365 0.0
H557 H 0.95589 0.06477 0.53188 0.0
H558 H 0.8511 0.04006 0.5485 0.0
H559 H 0.90174 0.04825 0.56192 0.0
H560 H 0.84868 0.2186 0.47381 0.0
H561 H 0.89914 0.22726 0.48785 0.0
H562 H 0.81712 0.17357 0.43872 0.0
H563 H 0.79193 0.12833 0.44768 0.0
C564 C 0.05264 0.8654 0.47538 0.0
C565 C 0.05664 0.82363 0.46575 0.0
C566 C 0.13059 0.83057 0.47157 0.0
C567 C 0.1269 0.87298 0.47673 0.0
N568 N 0.08482 0.93162 0.47864 0.0
N569 N 0.0987 0.7664 0.45059 0.0
C570 C 0.08801 0.89067 0.47763 0.0
C571 C 0.09544 0.80615 0.46274 0.0
N572 N 0.01504 0.88079 0.48314 0.0
N573 N 0.16743 0.81355 0.47682 0.0
H574 H 0.07352 0.74741 0.44482 0.0
H575 H 0.12622 0.7529 0.44338 0.0
H576 H 0.19354 0.83046 0.4845 0.0
H577 H 0.17145 0.78265 0.47745 0.0
H578 H 0.01046 0.91003 0.49486 0.0
H579 H -0.01167 0.86335 0.48095 0.0
H580 H 0.05765 0.94615 0.47437 0.0
H581 H 0.10982 0.95131 0.48062 0.0
C582 C 0.15748 0.14308 0.5015 0.0
C583 C 0.11645 0.14198 0.48881 0.0
C584 C 0.12325 0.07216 0.4621 0.0
C585 C 0.16455 0.07339 0.47432 0.0
N586 N 0.22351 0.11211 0.49701 0.0
N587 N 0.06181 0.10856 0.45098 0.0
C588 C 0.18242 0.10955 0.49149 0.0
C589 C 0.09999 0.10762 0.46683 0.0
N590 N 0.17234 0.17594 0.52373 0.0
N591 N 0.1053 0.03647 0.44864 0.0
H592 H 0.04241 0.13264 0.45608 0.0
H593 H 0.05019 0.08658 0.43037 0.0
H594 H 0.12099 0.00982 0.44391 0.0
H595 H 0.07413 0.03235 0.44476 0.0
H596 H 0.20033 0.17677 0.53814 0.0
H597 H 0.15562 0.2019 0.52961 0.0
H598 H 0.23912 0.13865 0.50585 0.0
H599 H 0.24268 0.08836 0.48907 0.0
loop_
_geom_bond_atom_site_label_1
_geom_bond_atom_site_label_2
_geom_bond_distance
_geom_bond_site_symmetry_2
_ccdc_geom_bond_type
C0 O1 1.306 . S
C0 O3 1.160 . S
O1 C0 1.306 . S
O1 Cd2 2.228 . S
Cd2 O1 2.228 . S
Cd2 O6 2.273 . S
Cd2 O10 2.277 1_655 S
O3 C0 1.160 . S
O3 Cd4 2.203 1_655 S
Cd4 O3 2.203 1_455 S
Cd4 O6 2.411 1_455 S
Cd4 O7 2.333 . S
Cd4 O8 2.352 1_455 S
Cd4 O12 2.277 . S
Cd4 O13 2.356 . S
C5 O10 1.209 . S
C5 O12 1.226 . S
O6 Cd2 2.273 . S
O6 Cd4 2.411 1_655 S
O6 C9 1.320 1_655 S
O7 Cd4 2.333 . S
O7 C9 1.214 . S
O8 Cd4 2.352 1_655 S
O8 C11 1.258 . S
C9 O6 1.320 1_455 S
C9 O7 1.214 . S
O10 Cd2 2.277 1_455 S
O10 C5 1.209 . S
C11 O8 1.258 . S
C11 O13 1.282 1_655 S
O12 Cd4 2.277 . S
O12 C5 1.226 . S
O13 Cd4 2.356 . S
O13 C11 1.282 1_455 S
C14 O15 1.306 . S
C14 O17 1.160 1_545 S
O15 C14 1.306 . S
O15 Cd16 2.228 . S
Cd16 O15 2.228 . S
Cd16 O20 2.273 . S
Cd16 O24 2.277 . S
O17 C14 1.160 1_565 S
O17 Cd18 2.197 1_565 S
Cd18 O17 2.197 1_545 S
Cd18 O20 2.435 . S
Cd18 O21 2.347 . S
Cd18 O22 2.341 1_545 S
Cd18 O26 2.274 1_545 S
Cd18 O27 2.335 1_545 S
C19 O24 1.209 . S
C19 O26 1.226 1_545 S
O20 Cd16 2.273 . S
O20 Cd18 2.435 . S
O20 C23 1.320 . S
O21 Cd18 2.347 . S
O21 C23 1.214 . S
O22 Cd18 2.341 1_565 S
O22 C25 1.258 . S
C23 O20 1.320 . S
C23 O21 1.214 . S
O24 Cd16 2.277 . S
O24 C19 1.209 . S
C25 O22 1.258 . S
C25 O27 1.282 . S
O26 Cd18 2.274 1_565 S
O26 C19 1.226 1_565 S
O27 Cd18 2.335 1_565 S
O27 C25 1.282 . S
C28 O29 1.306 . S
C28 O31 1.160 . S
O29 C28 1.306 . S
O29 Cd30 2.228 1_655 S
Cd30 O29 2.228 1_455 S
Cd30 O34 2.273 . S
Cd30 O38 2.277 . S
O31 C28 1.160 . S
O31 Cd32 2.203 1_655 S
Cd32 O31 2.203 1_455 S
Cd32 O34 2.411 . S
Cd32 O35 2.333 . S
Cd32 O36 2.352 1_455 S
Cd32 O40 2.277 . S
Cd32 O41 2.356 . S
C33 O38 1.209 . S
C33 O40 1.226 . S
O34 Cd30 2.273 . S
O34 Cd32 2.411 . S
O34 C37 1.320 . S
O35 Cd32 2.333 . S
O35 C37 1.214 . S
O36 Cd32 2.352 1_655 S
O36 C39 1.258 1_655 S
C37 O34 1.320 . S
C37 O35 1.214 . S
O38 Cd30 2.277 . S
O38 C33 1.209 . S
C39 O36 1.258 1_455 S
C39 O41 1.282 . S
O40 Cd32 2.277 . S
O40 C33 1.226 . S
O41 Cd32 2.356 . S
O41 C39 1.282 . S
C42 O43 1.306 1_545 S
C42 O45 1.160 . S
O43 C42 1.306 1_565 S
O43 Cd44 2.228 . S
Cd44 O43 2.228 . S
Cd44 O48 2.273 . S
Cd44 O52 2.277 . S
O45 C42 1.160 . S
O45 Cd46 2.203 . S
Cd46 O45 2.203 . S
Cd46 O48 2.411 1_545 S
Cd46 O49 2.333 1_545 S
Cd46 O50 2.352 . S
Cd46 O54 2.277 . S
Cd46 O55 2.356 . S
C47 O52 1.209 1_545 S
C47 O54 1.226 . S
O48 Cd44 2.273 . S
O48 Cd46 2.411 1_565 S
O48 C51 1.320 . S
O49 Cd46 2.333 1_565 S
O49 C51 1.214 . S
O50 Cd46 2.352 . S
O50 C53 1.258 . S
C51 O48 1.320 . S
C51 O49 1.214 . S
O52 Cd44 2.277 . S
O52 C47 1.209 1_565 S
C53 O50 1.258 . S
C53 O55 1.282 . S
O54 Cd46 2.277 . S
O54 C47 1.226 . S
O55 Cd46 2.356 . S
O55 C53 1.282 . S
C56 O57 1.306 1_545 S
C56 O59 1.160 . S
O57 C56 1.306 1_565 S
O57 Cd58 2.228 . S
Cd58 O57 2.228 . S
Cd58 O62 2.273 . S
Cd58 O66 2.277 . S
O59 C56 1.160 . S
O59 Cd60 2.203 . S
Cd60 O59 2.203 . S
Cd60 O62 2.411 1_545 S
Cd60 O63 2.333 1_545 S
Cd60 O64 2.352 . S
Cd60 O68 2.277 . S
Cd60 O69 2.356 . S
C61 O66 1.209 . S
C61 O68 1.226 1_565 S
O62 Cd58 2.273 . S
O62 Cd60 2.411 1_565 S
O62 C65 1.320 . S
O63 Cd60 2.333 1_565 S
O63 C65 1.214 . S
O64 Cd60 2.352 . S
O64 C67 1.258 . S
C65 O62 1.320 . S
C65 O63 1.214 . S
O66 Cd58 2.277 . S
O66 C61 1.209 . S
C67 O64 1.258 . S
C67 O69 1.282 . S
O68 Cd60 2.277 . S
O68 C61 1.226 1_545 S
O69 Cd60 2.356 . S
O69 C67 1.282 . S
C70 O71 1.306 . S
C70 O73 1.160 . S
O71 C70 1.306 . S
O71 Cd72 2.228 . S
Cd72 O71 2.228 . S
Cd72 O76 2.273 . S
Cd72 O80 2.277 1_455 S
O73 C70 1.160 . S
O73 Cd74 2.203 . S
Cd74 O73 2.203 . S
Cd74 O76 2.411 . S
Cd74 O77 2.333 1_455 S
Cd74 O78 2.352 . S
Cd74 O82 2.277 1_455 S
Cd74 O83 2.356 1_455 S
C75 O80 1.209 . S
C75 O82 1.226 . S
O76 Cd72 2.273 . S
O76 Cd74 2.411 . S
O76 C79 1.320 . S
O77 Cd74 2.333 1_655 S
O77 C79 1.214 1_655 S
O78 Cd74 2.352 . S
O78 C81 1.258 . S
C79 O76 1.320 . S
C79 O77 1.214 1_455 S
O80 Cd72 2.277 1_655 S
O80 C75 1.209 . S
C81 O78 1.258 . S
C81 O83 1.282 1_455 S
O82 Cd74 2.277 1_655 S
O82 C75 1.226 . S
O83 Cd74 2.356 1_655 S
O83 C81 1.282 1_655 S
C84 O85 1.306 . S
C84 O87 1.160 1_545 S
O85 C84 1.306 . S
O85 Cd86 2.228 . S
Cd86 O85 2.228 . S
Cd86 O90 2.273 . S
Cd86 O94 2.277 . S
O87 C84 1.160 1_565 S
O87 Cd88 2.203 1_565 S
Cd88 O87 2.203 1_545 S
Cd88 O90 2.411 . S
Cd88 O91 2.333 . S
Cd88 O92 2.352 1_545 S
Cd88 O96 2.277 . S
Cd88 O97 2.356 1_545 S
C89 O94 1.209 . S
C89 O96 1.241 . S
O90 Cd86 2.273 . S
O90 Cd88 2.411 . S
O90 C93 1.320 . S
O91 Cd88 2.333 . S
O91 C93 1.214 . S
O92 Cd88 2.352 1_565 S
O92 C95 1.258 . S
C93 O90 1.320 . S
C93 O91 1.214 . S
O94 Cd86 2.277 . S
O94 C89 1.209 . S
C95 O92 1.258 . S
C95 O97 1.282 . S
O96 Cd88 2.277 . S
O96 C89 1.241 . S
O97 Cd88 2.356 1_565 S
O97 C95 1.282 . S
C98 O99 1.306 . S
C98 O101 1.160 . S
O99 C98 1.306 . S
O99 Cd100 2.228 . S
Cd100 O99 2.228 . S
Cd100 O104 2.273 . S
Cd100 O108 2.277 1_455 S
O101 C98 1.160 . S
O101 Cd102 2.203 . S
Cd102 O101 2.203 . S
Cd102 O104 2.411 . S
Cd102 O105 2.333 1_455 S
Cd102 O106 2.352 . S
Cd102 O110 2.277 1_455 S
Cd102 O111 2.356 1_455 S
C103 O108 1.209 . S
C103 O110 1.226 . S
O104 Cd100 2.273 . S
O104 Cd102 2.411 . S
O104 C107 1.320 1_455 S
O105 Cd102 2.333 1_655 S
O105 C107 1.214 . S
O106 Cd102 2.352 . S
O106 C109 1.258 . S
C107 O104 1.320 1_655 S
C107 O105 1.214 . S
O108 Cd100 2.277 1_655 S
O108 C103 1.209 . S
C109 O106 1.258 . S
C109 O111 1.282 1_455 S
O110 Cd102 2.277 1_655 S
O110 C103 1.226 . S
O111 Cd102 2.356 1_655 S
O111 C109 1.282 1_655 S
C112 O113 1.306 . S
C112 O115 1.160 . S
O113 C112 1.306 . S
O113 Cd114 2.228 . S
Cd114 O113 2.228 . S
Cd114 O118 2.273 . S
Cd114 O122 2.277 1_556 S
O115 C112 1.160 . S
O115 Cd116 2.203 1_556 S
Cd116 O115 2.203 1_554 S
Cd116 O118 2.411 1_554 S
Cd116 O119 2.333 . S
Cd116 O120 2.352 1_554 S
Cd116 O124 2.277 . S
Cd116 O125 2.356 . S
C117 O122 1.209 . S
C117 O124 1.226 . S
O118 Cd114 2.273 . S
O118 Cd116 2.411 1_556 S
O118 C121 1.320 1_556 S
O119 Cd116 2.333 . S
O119 C121 1.214 . S
O120 Cd116 2.352 1_556 S
O120 C123 1.258 . S
C121 O118 1.320 1_554 S
C121 O119 1.214 . S
O122 Cd114 2.277 1_554 S
O122 C117 1.209 . S
C123 O120 1.258 . S
C123 O125 1.282 1_556 S
O124 Cd116 2.277 . S
O124 C117 1.226 . S
O125 Cd116 2.356 . S
O125 C123 1.282 1_554 S
C126 O127 1.306 1_554 S
C126 O129 1.160 . S
O127 C126 1.306 1_556 S
O127 Cd128 2.228 . S
Cd128 O127 2.228 . S
Cd128 O132 2.273 . S
Cd128 O136 2.277 . S
O129 C126 1.160 . S
O129 Cd130 2.203 . S
Cd130 O129 2.203 . S
Cd130 O132 2.411 1_554 S
Cd130 O133 2.333 1_554 S
Cd130 O134 2.352 . S
Cd130 O138 2.277 . S
Cd130 O139 2.356 . S
C131 O136 1.209 . S
C131 O138 1.226 1_556 S
O132 Cd128 2.273 . S
O132 Cd130 2.411 1_556 S
O132 C135 1.320 . S
O133 Cd130 2.333 1_556 S
O133 C135 1.214 . S
O134 Cd130 2.352 . S
O134 C137 1.258 . S
C135 O132 1.320 . S
C135 O133 1.214 . S
O136 Cd128 2.277 . S
O136 C131 1.209 . S
C137 O134 1.258 . S
C137 O139 1.282 . S
O138 Cd130 2.277 . S
O138 C131 1.226 1_554 S
O139 Cd130 2.356 . S
O139 C137 1.282 . S
C140 O141 1.306 . S
C140 O143 1.160 . S
O141 C140 1.306 . S
O141 Cd142 2.228 . S
Cd142 O141 2.228 . S
Cd142 O146 2.273 . S
Cd142 O150 2.277 1_556 S
O143 C140 1.160 . S
O143 Cd144 2.203 1_556 S
Cd144 O143 2.203 1_554 S
Cd144 O146 2.411 1_554 S
Cd144 O147 2.333 . S
Cd144 O148 2.352 1_554 S
Cd144 O152 2.277 . S
Cd144 O153 2.356 . S
C145 O150 1.209 . S
C145 O152 1.226 . S
O146 Cd142 2.273 . S
O146 Cd144 2.411 1_556 S
O146 C149 1.320 1_556 S
O147 Cd144 2.333 . S
O147 C149 1.214 . S
O148 Cd144 2.352 1_556 S
O148 C151 1.258 1_556 S
C149 O146 1.320 1_554 S
C149 O147 1.214 . S
O150 Cd142 2.277 1_554 S
O150 C145 1.209 . S
C151 O148 1.258 1_554 S
C151 O153 1.282 . S
O152 Cd144 2.277 . S
O152 C145 1.226 . S
O153 Cd144 2.356 . S
O153 C151 1.282 . S
C154 O155 1.306 . S
C154 O157 1.160 1_554 S
O155 C154 1.306 . S
O155 Cd156 2.228 . S
Cd156 O155 2.228 . S
Cd156 O160 2.273 . S
Cd156 O164 2.277 . S
O157 C154 1.160 1_556 S
O157 Cd158 2.203 1_556 S
Cd158 O157 2.203 1_554 S
Cd158 O160 2.411 . S
Cd158 O161 2.333 . S
Cd158 O162 2.352 1_554 S
Cd158 O166 2.277 1_554 S
Cd158 O167 2.356 1_554 S
C159 O164 1.209 . S
C159 O166 1.226 1_554 S
O160 Cd156 2.273 . S
O160 Cd158 2.411 . S
O160 C163 1.320 . S
O161 Cd158 2.333 . S
O161 C163 1.214 . S
O162 Cd158 2.352 1_556 S
O162 C165 1.258 . S
C163 O160 1.320 . S
C163 O161 1.214 . S
O164 Cd156 2.277 . S
O164 C159 1.209 . S
C165 O162 1.258 . S
C165 O167 1.282 . S
O166 Cd158 2.277 1_556 S
O166 C159 1.226 1_556 S
O167 Cd158 2.356 1_556 S
O167 C165 1.282 . S
C168 C169 1.363 . S
C168 C174 1.379 . S
C168 N176 1.356 . S
C169 C168 1.363 . S
C169 C175 1.363 1_655 S
C170 C171 1.363 . S
C170 C175 1.379 . S
C170 N177 1.356 . S
C171 C170 1.363 . S
C171 C174 1.363 1_455 S
N172 C174 1.356 . S
N172 H184 0.984 . S
N172 H185 0.985 . S
N173 C175 1.356 . S
N173 H178 0.984 . S
N173 H179 0.985 . S
C174 C168 1.379 . S
C174 C171 1.363 1_655 S
C174 N172 1.356 . S
C175 C169 1.363 1_455 S
C175 C170 1.379 . S
C175 N173 1.356 . S
N176 C168 1.356 . S
N176 H182 0.984 . S
N176 H183 0.984 . S
N177 C170 1.356 . S
N177 H180 0.984 . S
N177 H181 0.985 . S
H178 N173 0.984 . S
H179 N173 0.985 . S
H180 N177 0.984 . S
H181 N177 0.985 . S
H182 N176 0.984 . S
H183 N176 0.984 . S
H184 N172 0.984 . S
H185 N172 0.985 . S
C186 C187 1.372 . S
C186 C192 1.379 . S
C186 N194 1.356 . S
C187 C186 1.372 . S
C187 C193 1.357 1_545 S
C188 C189 1.363 1_565 S
C188 C193 1.379 . S
C188 N195 1.356 . S
C189 C188 1.363 1_545 S
C189 C192 1.363 . S
N190 C192 1.356 . S
N190 H202 0.984 . S
N190 H203 0.985 . S
N191 C193 1.356 . S
N191 H196 0.984 . S
N191 H197 0.985 . S
C192 C186 1.379 . S
C192 C189 1.363 . S
C192 N190 1.356 . S
C193 C187 1.357 1_565 S
C193 C188 1.379 . S
C193 N191 1.356 . S
N194 C186 1.356 . S
N194 H200 0.984 . S
N194 H201 0.984 . S
N195 C188 1.356 . S
N195 H198 0.984 . S
N195 H199 0.985 . S
H196 N191 0.984 . S
H197 N191 0.985 . S
H198 N195 0.984 . S
H199 N195 0.985 . S
H200 N194 0.984 . S
H201 N194 0.984 . S
H202 N190 0.984 . S
H203 N190 0.985 . S
C204 C205 1.363 . S
C204 C210 1.379 . S
C204 N212 1.356 . S
C205 C204 1.363 . S
C205 C211 1.363 1_455 S
C206 C207 1.363 1_655 S
C206 C211 1.379 . S
C206 N213 1.356 . S
C207 C206 1.363 1_455 S
C207 C210 1.363 . S
N208 C210 1.356 . S
N208 H220 0.984 . S
N208 H221 0.985 . S
N209 C211 1.356 . S
N209 H214 0.984 . S
N209 H215 0.985 . S
C210 C204 1.379 . S
C210 C207 1.363 . S
C210 N208 1.356 . S
C211 C205 1.363 1_655 S
C211 C206 1.379 . S
C211 N209 1.356 . S
N212 C204 1.356 . S
N212 H218 0.984 . S
N212 H219 0.984 . S
N213 C206 1.356 . S
N213 H216 0.984 . S
N213 H217 0.985 . S
H214 N209 0.984 . S
H215 N209 0.985 . S
H216 N213 0.984 . S
H217 N213 0.985 . S
H218 N212 0.984 . S
H219 N212 0.984 . S
H220 N208 0.984 . S
H221 N208 0.985 . S
C222 C223 1.363 . S
C222 C228 1.379 . S
C222 N230 1.356 . S
C223 C222 1.363 . S
C223 C229 1.363 1_545 S
C224 C225 1.353 1_565 S
C224 C229 1.379 . S
C224 N231 1.356 . S
C225 C224 1.353 1_545 S
C225 C228 1.380 . S
N226 C228 1.356 . S
N226 H238 0.984 . S
N226 H239 0.985 . S
N227 C229 1.356 . S
N227 H232 0.983 1_565 S
N227 H233 0.985 . S
C228 C222 1.379 . S
C228 C225 1.380 . S
C228 N226 1.356 . S
C229 C223 1.363 1_565 S
C229 C224 1.379 . S
C229 N227 1.356 . S
N230 C222 1.356 . S
N230 H236 0.984 . S
N230 H237 0.984 . S
N231 C224 1.356 . S
N231 H234 0.984 . S
N231 H235 0.985 . S
H232 N227 0.983 1_545 S
H233 N227 0.985 . S
H234 N231 0.984 . S
H235 N231 0.985 . S
H236 N230 0.984 . S
H237 N230 0.984 . S
H238 N226 0.984 . S
H239 N226 0.985 . S
C240 C241 1.363 1_655 S
C240 C246 1.379 . S
C240 N248 1.356 . S
C241 C240 1.363 1_455 S
C241 C247 1.363 . S
C242 C243 1.363 . S
C242 C247 1.379 . S
C242 N249 1.356 . S
C243 C242 1.363 . S
C243 C246 1.363 1_455 S
N244 C246 1.356 . S
N244 H256 0.984 . S
N244 H257 0.985 . S
N245 C247 1.356 . S
N245 H250 0.984 . S
N245 H251 0.985 . S
C246 C240 1.379 . S
C246 C243 1.363 1_655 S
C246 N244 1.356 . S
C247 C241 1.363 . S
C247 C242 1.379 . S
C247 N245 1.356 . S
N248 C240 1.356 . S
N248 H254 0.984 . S
N248 H255 0.984 . S
N249 C242 1.356 . S
N249 H252 0.984 . S
N249 H253 0.985 . S
H250 N245 0.984 . S
H251 N245 0.985 . S
H252 N249 0.984 . S
H253 N249 0.985 . S
H254 N248 0.984 . S
H255 N248 0.984 . S
H256 N244 0.984 . S
H257 N244 0.985 . S
C258 C259 1.363 1_565 S
C258 C264 1.379 . S
C258 N266 1.356 . S
C259 C258 1.363 1_545 S
C259 C265 1.363 . S
C260 C261 1.363 . S
C260 C265 1.379 . S
C260 N267 1.356 . S
C261 C260 1.363 . S
C261 C264 1.363 1_545 S
N262 C264 1.356 . S
N262 H274 0.984 . S
N262 H275 0.985 . S
N263 C265 1.356 . S
N263 H268 0.984 . S
N263 H269 0.985 . S
C264 C258 1.379 . S
C264 C261 1.363 1_565 S
C264 N262 1.356 . S
C265 C259 1.363 . S
C265 C260 1.379 . S
C265 N263 1.356 . S
N266 C258 1.356 . S
N266 H272 0.984 . S
N266 H273 0.984 . S
N267 C260 1.356 . S
N267 H270 0.984 . S
N267 H271 0.985 . S
H268 N263 0.984 . S
H269 N263 0.985 . S
H270 N267 0.984 . S
H271 N267 0.985 . S
H272 N266 0.984 . S
H273 N266 0.984 . S
H274 N262 0.984 . S
H275 N262 0.985 . S
C276 C277 1.363 . S
C276 C282 1.379 . S
C276 N284 1.356 . S
C277 C276 1.363 . S
C277 C283 1.363 1_455 S
C278 C279 1.366 . S
C278 C283 1.379 . S
C278 N285 1.356 . S
C279 C278 1.366 . S
C279 C282 1.358 1_655 S
N280 C282 1.356 . S
N280 H292 0.984 . S
N280 H293 0.985 . S
N281 C283 1.356 . S
N281 H286 0.984 . S
N281 H287 0.985 . S
C282 C276 1.379 . S
C282 C279 1.358 1_455 S
C282 N280 1.356 . S
C283 C277 1.363 1_655 S
C283 C278 1.379 . S
C283 N281 1.356 . S
N284 C276 1.356 . S
N284 H290 0.984 . S
N284 H291 0.984 . S
N285 C278 1.356 . S
N285 H288 0.984 . S
N285 H289 0.985 . S
H286 N281 0.984 . S
H287 N281 0.985 . S
H288 N285 0.984 . S
H289 N285 0.985 . S
H290 N284 0.984 . S
H291 N284 0.984 . S
H292 N280 0.984 . S
H293 N280 0.985 . S
C294 C295 1.363 . S
C294 C300 1.379 . S
C294 N302 1.356 . S
C295 C294 1.363 . S
C295 C301 1.363 1_545 S
C296 C297 1.363 1_565 S
C296 C301 1.379 . S
C296 N303 1.356 . S
C297 C296 1.363 1_545 S
C297 C300 1.363 . S
N298 C300 1.356 . S
N298 H310 0.984 . S
N298 H311 0.985 . S
N299 C301 1.356 . S
N299 H304 0.984 . S
N299 H305 0.985 . S
C300 C294 1.379 . S
C300 C297 1.363 . S
C300 N298 1.356 . S
C301 C295 1.363 1_565 S
C301 C296 1.379 . S
C301 N299 1.356 . S
N302 C294 1.356 . S
N302 H308 0.984 . S
N302 H309 0.984 . S
N303 C296 1.356 . S
N303 H306 0.984 . S
N303 H307 0.985 . S
H304 N299 0.984 . S
H305 N299 0.985 . S
H306 N303 0.984 . S
H307 N303 0.985 . S
H308 N302 0.984 . S
H309 N302 0.984 . S
H310 N298 0.984 . S
H311 N298 0.985 . S
C312 C313 1.363 1_556 S
C312 C318 1.379 . S
C312 N320 1.356 . S
C313 C312 1.363 1_554 S
C313 C319 1.363 . S
C314 C315 1.363 1_554 S
C314 C319 1.379 . S
C314 N321 1.356 . S
C315 C314 1.363 1_556 S
C315 C318 1.363 . S
N316 C318 1.356 . S
N316 H328 0.984 . S
N316 H329 0.985 . S
N317 C319 1.356 . S
N317 H322 0.984 . S
N317 H323 0.985 . S
C318 C312 1.379 . S
C318 C315 1.363 . S
C318 N316 1.356 . S
C319 C313 1.363 . S
C319 C314 1.379 . S
C319 N317 1.356 . S
N320 C312 1.356 . S
N320 H326 0.984 . S
N320 H327 0.984 . S
N321 C314 1.356 . S
N321 H324 0.984 . S
N321 H325 0.985 . S
H322 N317 0.984 . S
H323 N317 0.985 . S
H324 N321 0.984 . S
H325 N321 0.985 . S
H326 N320 0.984 . S
H327 N320 0.984 . S
H328 N316 0.984 . S
H329 N316 0.985 . S
C330 C331 1.363 . S
C330 C336 1.379 . S
C330 N338 1.356 . S
C331 C330 1.363 . S
C331 C337 1.363 1_554 S
C332 C333 1.363 1_556 S
C332 C337 1.379 . S
C332 N339 1.356 . S
C333 C332 1.363 1_554 S
C333 C336 1.363 . S
N334 C336 1.356 . S
N334 H346 0.984 . S
N334 H347 0.985 . S
N335 C337 1.356 . S
N335 H340 0.984 . S
N335 H341 0.985 . S
C336 C330 1.379 . S
C336 C333 1.363 . S
C336 N334 1.356 . S
C337 C331 1.363 1_556 S
C337 C332 1.379 . S
C337 N335 1.356 . S
N338 C330 1.356 . S
N338 H344 0.984 . S
N338 H345 0.984 . S
N339 C332 1.356 . S
N339 H342 0.984 . S
N339 H343 0.985 . S
H340 N335 0.984 . S
H341 N335 0.985 . S
H342 N339 0.984 . S
H343 N339 0.985 . S
H344 N338 0.984 . S
H345 N338 0.984 . S
H346 N334 0.984 . S
H347 N334 0.985 . S
C348 C349 1.363 1_554 S
C348 C354 1.379 . S
C348 N356 1.356 . S
C349 C348 1.363 1_556 S
C349 C355 1.363 . S
C350 C351 1.363 1_556 S
C350 C355 1.379 . S
C350 N357 1.356 . S
C351 C350 1.363 1_554 S
C351 C354 1.363 . S
N352 C354 1.356 . S
N352 H364 0.984 . S
N352 H365 0.985 . S
N353 C355 1.356 . S
N353 H358 0.984 . S
N353 H359 0.985 . S
C354 C348 1.379 . S
C354 C351 1.363 . S
C354 N352 1.356 . S
C355 C349 1.363 . S
C355 C350 1.379 . S
C355 N353 1.356 . S
N356 C348 1.356 . S
N356 H362 0.984 . S
N356 H363 0.984 . S
N357 C350 1.356 . S
N357 H360 0.984 1_556 S
N357 H361 0.985 . S
H358 N353 0.984 . S
H359 N353 0.985 . S
H360 N357 0.984 1_554 S
H361 N357 0.985 . S
H362 N356 0.984 . S
H363 N356 0.984 . S
H364 N352 0.984 . S
H365 N352 0.985 . S
C366 C367 1.363 . S
C366 C372 1.379 . S
C366 N374 1.356 1_554 S
C367 C366 1.363 . S
C367 C373 1.363 . S
C368 C369 1.363 . S
C368 C373 1.379 . S
C368 N375 1.356 . S
C369 C368 1.363 . S
C369 C372 1.363 . S
N370 C372 1.356 . S
N370 H382 0.984 . S
N370 H383 0.985 . S
N371 C373 1.356 . S
N371 H376 0.984 . S
N371 H377 0.985 . S
C372 C366 1.379 . S
C372 C369 1.363 . S
C372 N370 1.356 . S
C373 C367 1.363 . S
C373 C368 1.379 . S
C373 N371 1.356 . S
N374 C366 1.356 1_556 S
N374 H380 0.984 . S
N374 H381 0.984 . S
N375 C368 1.356 . S
N375 H378 0.984 . S
N375 H379 0.985 . S
H376 N371 0.984 . S
H377 N371 0.985 . S
H378 N375 0.984 . S
H379 N375 0.985 . S
H380 N374 0.984 . S
H381 N374 0.984 . S
H382 N370 0.984 . S
H383 N370 0.985 . S
C384 C385 1.363 . S
C384 C390 1.379 . S
C384 N392 1.356 . S
C385 C384 1.363 . S
C385 C391 1.363 . S
C386 C387 1.363 . S
C386 C391 1.379 . S
C386 N393 1.356 . S
C387 C386 1.363 . S
C387 C390 1.363 . S
N388 C390 1.356 . S
N388 H400 0.984 . S
N388 H401 0.985 . S
N389 C391 1.356 . S
N389 H394 0.984 . S
N389 H395 0.985 . S
C390 C384 1.379 . S
C390 C387 1.363 . S
C390 N388 1.356 . S
C391 C385 1.363 . S
C391 C386 1.379 . S
C391 N389 1.356 . S
N392 C384 1.356 . S
N392 H398 0.984 . S
N392 H399 0.984 . S
N393 C386 1.356 . S
N393 H396 0.984 . S
N393 H397 0.985 . S
H394 N389 0.984 . S
H395 N389 0.985 . S
H396 N393 0.984 . S
H397 N393 0.985 . S
H398 N392 0.984 . S
H399 N392 0.984 . S
H400 N388 0.984 . S
H401 N388 0.985 . S
C402 C403 1.363 . S
C402 C408 1.379 . S
C402 N410 1.356 . S
C403 C402 1.363 . S
C403 C409 1.363 . S
C404 C405 1.363 . S
C404 C409 1.379 . S
C404 N411 1.356 . S
C405 C404 1.363 . S
C405 C408 1.363 . S
N406 C408 1.356 . S
N406 H418 0.984 . S
N406 H419 0.985 . S
N407 C409 1.356 . S
N407 H412 0.984 . S
N407 H413 0.985 . S
C408 C402 1.379 . S
C408 C405 1.363 . S
C408 N406 1.356 . S
C409 C403 1.363 . S
C409 C404 1.379 . S
C409 N407 1.356 . S
N410 C402 1.356 . S
N410 H416 0.984 . S
N410 H417 0.984 . S
N411 C404 1.356 . S
N411 H414 0.984 . S
N411 H415 0.985 . S
H412 N407 0.984 . S
H413 N407 0.985 . S
H414 N411 0.984 . S
H415 N411 0.985 . S
H416 N410 0.984 . S
H417 N410 0.984 . S
H418 N406 0.984 . S
H419 N406 0.985 . S
C420 C421 1.363 . S
C420 C426 1.379 . S
C420 N428 1.356 . S
C421 C420 1.363 . S
C421 C427 1.363 . S
C422 C423 1.363 . S
C422 C427 1.379 . S
C422 N429 1.356 . S
C423 C422 1.363 . S
C423 C426 1.363 . S
N424 C426 1.356 . S
N424 H436 0.984 . S
N424 H437 0.985 . S
N425 C427 1.356 . S
N425 H430 0.984 . S
N425 H431 0.985 . S
C426 C420 1.379 . S
C426 C423 1.363 . S
C426 N424 1.356 . S
C427 C421 1.363 . S
C427 C422 1.379 . S
C427 N425 1.356 . S
N428 C420 1.356 . S
N428 H434 0.984 . S
N428 H435 0.984 . S
N429 C422 1.356 . S
N429 H432 0.984 . S
N429 H433 0.985 . S
H430 N425 0.984 . S
H431 N425 0.985 . S
H432 N429 0.984 . S
H433 N429 0.985 . S
H434 N428 0.984 . S
H435 N428 0.984 . S
H436 N424 0.984 . S
H437 N424 0.985 . S
C438 C439 1.363 . S
C438 C444 1.379 . S
C438 N446 1.356 . S
C439 C438 1.363 . S
C439 C445 1.363 . S
C440 C441 1.363 . S
C440 C445 1.379 . S
C440 N447 1.356 . S
C441 C440 1.363 . S
C441 C444 1.363 . S
N442 C444 1.356 . S
N442 H454 0.984 . S
N442 H455 0.985 . S
N443 C445 1.356 . S
N443 H448 0.984 . S
N443 H449 0.985 . S
C444 C438 1.379 . S
C444 C441 1.363 . S
C444 N442 1.356 . S
C445 C439 1.363 . S
C445 C440 1.379 . S
C445 N443 1.356 . S
N446 C438 1.356 . S
N446 H452 0.984 . S
N446 H453 0.984 . S
N447 C440 1.356 . S
N447 H450 0.984 . S
N447 H451 0.985 . S
H448 N443 0.984 . S
H449 N443 0.985 . S
H450 N447 0.984 . S
H451 N447 0.985 . S
H452 N446 0.984 . S
H453 N446 0.984 . S
H454 N442 0.984 . S
H455 N442 0.985 . S
C456 C457 1.363 . S
C456 C462 1.379 . S
C456 N464 1.356 . S
C457 C456 1.363 . S
C457 C463 1.363 . S
C458 C459 1.363 . S
C458 C463 1.379 . S
C458 N465 1.356 . S
C459 C458 1.363 . S
C459 C462 1.363 . S
N460 C462 1.356 . S
N460 H472 0.984 . S
N460 H473 0.985 . S
N461 C463 1.356 . S
N461 H466 0.984 . S
N461 H467 0.985 . S
C462 C456 1.379 . S
C462 C459 1.363 . S
C462 N460 1.356 . S
C463 C457 1.363 . S
C463 C458 1.379 . S
C463 N461 1.356 . S
N464 C456 1.356 . S
N464 H470 0.984 . S
N464 H471 0.984 . S
N465 C458 1.356 . S
N465 H468 0.984 . S
N465 H469 0.985 . S
H466 N461 0.984 . S
H467 N461 0.985 . S
H468 N465 0.984 . S
H469 N465 0.985 . S
H470 N464 0.984 . S
H471 N464 0.984 . S
H472 N460 0.984 . S
H473 N460 0.985 . S
C474 C475 1.363 . S
C474 C480 1.379 . S
C474 N482 1.356 . S
C475 C474 1.363 . S
C475 C481 1.363 . S
C476 C477 1.363 . S
C476 C481 1.379 . S
C476 N483 1.356 . S
C477 C476 1.363 . S
C477 C480 1.363 . S
N478 C480 1.356 . S
N478 H490 0.984 . S
N478 H491 0.985 . S
N479 C481 1.356 . S
N479 H484 0.984 . S
N479 H485 0.985 . S
C480 C474 1.379 . S
C480 C477 1.363 . S
C480 N478 1.356 . S
C481 C475 1.363 . S
C481 C476 1.379 . S
C481 N479 1.356 . S
N482 C474 1.356 . S
N482 H488 0.984 . S
N482 H489 0.984 . S
N483 C476 1.356 . S
N483 H486 0.984 . S
N483 H487 0.985 . S
H484 N479 0.984 . S
H485 N479 0.985 . S
H486 N483 0.984 . S
H487 N483 0.985 . S
H488 N482 0.984 . S
H489 N482 0.984 . S
H490 N478 0.984 . S
H491 N478 0.985 . S
C492 C493 1.363 . S
C492 C498 1.379 . S
C492 N500 1.356 . S
C493 C492 1.363 . S
C493 C499 1.363 . S
C494 C495 1.363 . S
C494 C499 1.379 . S
C494 N501 1.356 . S
C495 C494 1.363 . S
C495 C498 1.363 . S
N496 C498 1.356 . S
N496 H508 0.984 . S
N496 H509 0.985 . S
N497 C499 1.356 . S
N497 H502 0.984 . S
N497 H503 0.985 . S
C498 C492 1.379 . S
C498 C495 1.363 . S
C498 N496 1.356 . S
C499 C493 1.363 . S
C499 C494 1.379 . S
C499 N497 1.356 . S
N500 C492 1.356 . S
N500 H506 0.984 . S
N500 H507 0.984 . S
N501 C494 1.356 . S
N501 H504 0.984 . S
N501 H505 0.985 . S
H502 N497 0.984 . S
H503 N497 0.985 . S
H504 N501 0.984 . S
H505 N501 0.985 . S
H506 N500 0.984 . S
H507 N500 0.984 . S
H508 N496 0.984 . S
H509 N496 0.985 . S
C510 C511 1.363 . S
C510 C516 1.379 . S
C510 N518 1.356 . S
C511 C510 1.363 . S
C511 C517 1.363 . S
C512 C513 1.363 . S
C512 C517 1.379 . S
C512 N519 1.356 . S
C513 C512 1.363 . S
C513 C516 1.363 . S
N514 C516 1.356 . S
N514 H526 0.984 . S
N514 H527 0.985 . S
N515 C517 1.356 . S
N515 H520 0.984 . S
N515 H521 0.985 . S
C516 C510 1.379 . S
C516 C513 1.363 . S
C516 N514 1.356 . S
C517 C511 1.363 . S
C517 C512 1.379 . S
C517 N515 1.356 . S
N518 C510 1.356 . S
N518 H524 0.984 . S
N518 H525 0.984 . S
N519 C512 1.356 . S
N519 H522 0.984 . S
N519 H523 0.985 . S
H520 N515 0.984 . S
H521 N515 0.985 . S
H522 N519 0.984 . S
H523 N519 0.985 . S
H524 N518 0.984 . S
H525 N518 0.984 . S
H526 N514 0.984 . S
H527 N514 0.985 . S
C528 C529 1.363 . S
C528 C534 1.379 . S
C528 N536 1.356 . S
C529 C528 1.363 . S
C529 C535 1.363 . S
C530 C531 1.363 . S
C530 C535 1.379 . S
C530 N537 1.356 . S
C531 C530 1.363 . S
C531 C534 1.363 . S
N532 C534 1.356 . S
N532 H544 0.984 . S
N532 H545 0.985 . S
N533 C535 1.356 . S
N533 H538 0.984 . S
N533 H539 0.985 . S
C534 C528 1.379 . S
C534 C531 1.363 . S
C534 N532 1.356 . S
C535 C529 1.363 . S
C535 C530 1.379 . S
C535 N533 1.356 . S
N536 C528 1.356 . S
N536 H542 0.984 . S
N536 H543 0.984 . S
N537 C530 1.356 . S
N537 H540 0.984 . S
N537 H541 0.985 . S
H538 N533 0.984 . S
H539 N533 0.985 . S
H540 N537 0.984 . S
H541 N537 0.985 . S
H542 N536 0.984 . S
H543 N536 0.984 . S
H544 N532 0.984 . S
H545 N532 0.985 . S
C546 C547 1.363 . S
C546 C552 1.379 . S
C546 N554 1.356 . S
C547 C546 1.363 . S
C547 C553 1.363 . S
C548 C549 1.363 . S
C548 C553 1.379 . S
C548 N555 1.356 . S
C549 C548 1.363 . S
C549 C552 1.363 . S
N550 C552 1.356 . S
N550 H562 0.984 . S
N550 H563 0.985 . S
N551 C553 1.356 . S
N551 H556 0.984 . S
N551 H557 0.985 . S
C552 C546 1.379 . S
C552 C549 1.363 . S
C552 N550 1.356 . S
C553 C547 1.363 . S
C553 C548 1.379 . S
C553 N551 1.356 . S
N554 C546 1.356 . S
N554 H560 0.984 . S
N554 H561 0.984 . S
N555 C548 1.356 . S
N555 H558 0.984 . S
N555 H559 0.985 . S
H556 N551 0.984 . S
H557 N551 0.985 . S
H558 N555 0.984 . S
H559 N555 0.985 . S
H560 N554 0.984 . S
H561 N554 0.984 . S
H562 N550 0.984 . S
H563 N550 0.985 . S
C564 C565 1.363 . S
C564 C570 1.379 . S
C564 N572 1.356 . S
C565 C564 1.363 . S
C565 C571 1.363 . S
C566 C567 1.363 . S
C566 C571 1.379 . S
C566 N573 1.356 . S
C567 C566 1.363 . S
C567 C570 1.363 . S
N568 C570 1.356 . S
N568 H580 0.984 . S
N568 H581 0.985 . S
N569 C571 1.356 . S
N569 H574 0.984 . S
N569 H575 0.985 . S
C570 C564 1.379 . S
C570 C567 1.363 . S
C570 N568 1.356 . S
C571 C565 1.363 . S
C571 C566 1.379 . S
C571 N569 1.356 . S
N572 C564 1.356 . S
N572 H578 0.984 . S
N572 H579 0.984 . S
N573 C566 1.356 . S
N573 H576 0.984 . S
N573 H577 0.985 . S
H574 N569 0.984 . S
H575 N569 0.985 . S
H576 N573 0.984 . S
H577 N573 0.985 . S
H578 N572 0.984 . S
H579 N572 0.984 . S
H580 N568 0.984 . S
H581 N568 0.985 . S
C582 C583 1.363 . S
C582 C588 1.379 . S
C582 N590 1.356 . S
C583 C582 1.363 . S
C583 C589 1.363 . S
C584 C585 1.363 . S
C584 C589 1.379 . S
C584 N591 1.356 . S
C585 C584 1.363 . S
C585 C588 1.363 . S
N586 C588 1.356 . S
N586 H598 0.984 . S
N586 H599 0.985 . S
N587 C589 1.356 . S
N587 H592 0.984 . S
N587 H593 0.985 . S
C588 C582 1.379 . S
C588 C585 1.363 . S
C588 N586 1.356 . S
C589 C583 1.363 . S
C589 C584 1.379 . S
C589 N587 1.356 . S
N590 C582 1.356 . S
N590 H596 0.984 . S
N590 H597 0.984 . S
N591 C584 1.356 . S
N591 H594 0.984 . S
N591 H595 0.985 . S
H592 N587 0.984 . S
H593 N587 0.985 . S
H594 N591 0.984 . S
H595 N591 0.985 . S
H596 N590 0.984 . S
H597 N590 0.984 . S
H598 N586 0.984 . S
H599 N586 0.985 . S
C169 C11 1.503 . S
C171 C81 1.507 . S
C187 C14 1.470 . S
C189 C56 1.475 . S
C205 C79 1.461 . S
C207 C37 1.459 . S
C223 C42 1.465 . S
C225 C61 1.494 1_545 S
C241 C109 1.506 . S
C243 C39 1.510 . S
C259 C89 1.480 . S
C261 C47 1.483 . S
C277 C9 1.461 . S
C279 C107 1.459 . S
C295 C84 1.468 . S
C297 C19 1.497 . S
C313 C126 1.489 . S
C315 C123 1.496 . S
C331 C121 1.482 . S
C333 C154 1.454 . S
C349 C131 1.472 . S
C351 C149 1.473 . S
C367 C151 1.486 . S
C369 C159 1.506 . S
C385 C165 1.503 . S
C387 C95 1.507 . S
C403 C112 1.470 . S
C405 C98 1.475 . S
C421 C93 1.461 . S
C423 C135 1.459 . S
C439 C103 1.496 . S
C441 C140 1.465 . S
C457 C67 1.506 . S
C459 C137 1.510 . S
C475 C75 1.480 . S
C477 C145 1.483 . S
C493 C163 1.461 . S
C495 C65 1.458 . S
C511 C117 1.497 . S
C513 C70 1.468 . S
C529 C25 1.496 . S
C531 C28 1.490 . S
C547 C0 1.454 . S
C549 C23 1.482 . S
C565 C33 1.472 . S
C567 C51 1.473 . S
C583 C5 1.506 . S
C585 C53 1.486 . S
