# Generated by pormake.
# Topology ukn, (4)-cn, num edge types: 1
# Building blocks:
#     Node 0, Type 0, BuildingBlock: TATPOV_clean_sbu_0, # of connection points: 4
#     Node 1, Type 0, BuildingBlock: TATPOV_clean_sbu_0, # of connection points: 4
#     Node 2, Type 0, BuildingBlock: TATPOV_clean_sbu_0, # of connection points: 4
#     Node 3, Type 0, BuildingBlock: TATPOV_clean_sbu_0, # of connection points: 4
#     Node 4, Type 0, BuildingBlock: TATPOV_clean_sbu_0, # of connection points: 4
#     Node 5, Type 0, BuildingBlock: TATPOV_clean_sbu_0, # of connection points: 4
#     Node 6, Type 0, BuildingBlock: TATPOV_clean_sbu_0, # of connection points: 4
#     Node 7, Type 0, BuildingBlock: TATPOV_clean_sbu_0, # of connection points: 4
#     Node 8, Type 0, BuildingBlock: TATPOV_clean_sbu_0, # of connection points: 4
#     Node 9, Type 0, BuildingBlock: TATPOV_clean_sbu_0, # of connection points: 4
#     Node 10, Type 0, BuildingBlock: TATPOV_clean_sbu_0, # of connection points: 4
#     Node 11, Type 0, BuildingBlock: TATPOV_clean_sbu_0, # of connection points: 4
#     Node 12, Type 0, BuildingBlock: TATPOV_clean_sbu_0, # of connection points: 4
#     Node 13, Type 0, BuildingBlock: TATPOV_clean_sbu_0, # of connection points: 4
#     Node 14, Type 0, BuildingBlock: TATPOV_clean_sbu_0, # of connection points: 4
#     Node 15, Type 0, BuildingBlock: TATPOV_clean_sbu_0, # of connection points: 4
#     Node 16, Type 0, BuildingBlock: TATPOV_clean_sbu_0, # of connection points: 4
#     Node 17, Type 0, BuildingBlock: TATPOV_clean_sbu_0, # of connection points: 4
#     Node 18, Type 0, BuildingBlock: TATPOV_clean_sbu_0, # of connection points: 4
#     Node 19, Type 0, BuildingBlock: TATPOV_clean_sbu_0, # of connection points: 4
#     Node 20, Type 0, BuildingBlock: TATPOV_clean_sbu_0, # of connection points: 4
#     Node 21, Type 0, BuildingBlock: TATPOV_clean_sbu_0, # of connection points: 4
#     Node 22, Type 0, BuildingBlock: TATPOV_clean_sbu_0, # of connection points: 4
#     Node 23, Type 0, BuildingBlock: TATPOV_clean_sbu_0, # of connection points: 4
#     Node 24, Type 0, BuildingBlock: TATPOV_clean_sbu_0, # of connection points: 4
#     Node 25, Type 0, BuildingBlock: TATPOV_clean_sbu_0, # of connection points: 4
#     Node 26, Type 0, BuildingBlock: TATPOV_clean_sbu_0, # of connection points: 4
#     Node 27, Type 0, BuildingBlock: TATPOV_clean_sbu_0, # of connection points: 4
#     Node 28, Type 0, BuildingBlock: TATPOV_clean_sbu_0, # of connection points: 4
#     Node 29, Type 0, BuildingBlock: TATPOV_clean_sbu_0, # of connection points: 4
#     Node 30, Type 0, BuildingBlock: TATPOV_clean_sbu_0, # of connection points: 4
#     Node 31, Type 0, BuildingBlock: TATPOV_clean_sbu_0, # of connection points: 4
#     Node 32, Type 0, BuildingBlock: TATPOV_clean_sbu_0, # of connection points: 4
#     Node 33, Type 0, BuildingBlock: TATPOV_clean_sbu_0, # of connection points: 4
#     Node 34, Type 0, BuildingBlock: TATPOV_clean_sbu_0, # of connection points: 4
#     Node 35, Type 0, BuildingBlock: TATPOV_clean_sbu_0, # of connection points: 4
#     Edge 36, Type (0, 0), None
#     Edge 37, Type (0, 0), None
#     Edge 38, Type (0, 0), None
#     Edge 39, Type (0, 0), None
#     Edge 40, Type (0, 0), None
#     Edge 41, Type (0, 0), None
#     Edge 42, Type (0, 0), None
#     Edge 43, Type (0, 0), None
#     Edge 44, Type (0, 0), None
#     Edge 45, Type (0, 0), None
#     Edge 46, Type (0, 0), None
#     Edge 47, Type (0, 0), None
#     Edge 48, Type (0, 0), None
#     Edge 49, Type (0, 0), None
#     Edge 50, Type (0, 0), None
#     Edge 51, Type (0, 0), None
#     Edge 52, Type (0, 0), None
#     Edge 53, Type (0, 0), None
#     Edge 54, Type (0, 0), None
#     Edge 55, Type (0, 0), None
#     Edge 56, Type (0, 0), None
#     Edge 57, Type (0, 0), None
#     Edge 58, Type (0, 0), None
#     Edge 59, Type (0, 0), None
#     Edge 60, Type (0, 0), None
#     Edge 61, Type (0, 0), None
#     Edge 62, Type (0, 0), None
#     Edge 63, Type (0, 0), None
#     Edge 64, Type (0, 0), None
#     Edge 65, Type (0, 0), None
#     Edge 66, Type (0, 0), None
#     Edge 67, Type (0, 0), None
#     Edge 68, Type (0, 0), None
#     Edge 69, Type (0, 0), None
#     Edge 70, Type (0, 0), None
#     Edge 71, Type (0, 0), None
#     Edge 72, Type (0, 0), None
#     Edge 73, Type (0, 0), None
#     Edge 74, Type (0, 0), None
#     Edge 75, Type (0, 0), None
#     Edge 76, Type (0, 0), None
#     Edge 77, Type (0, 0), None
#     Edge 78, Type (0, 0), None
#     Edge 79, Type (0, 0), None
#     Edge 80, Type (0, 0), None
#     Edge 81, Type (0, 0), None
#     Edge 82, Type (0, 0), None
#     Edge 83, Type (0, 0), None
#     Edge 84, Type (0, 0), None
#     Edge 85, Type (0, 0), None
#     Edge 86, Type (0, 0), None
#     Edge 87, Type (0, 0), None
#     Edge 88, Type (0, 0), None
#     Edge 89, Type (0, 0), None
#     Edge 90, Type (0, 0), None
#     Edge 91, Type (0, 0), None
#     Edge 92, Type (0, 0), None
#     Edge 93, Type (0, 0), None
#     Edge 94, Type (0, 0), None
#     Edge 95, Type (0, 0), None
#     Edge 96, Type (0, 0), None
#     Edge 97, Type (0, 0), None
#     Edge 98, Type (0, 0), None
#     Edge 99, Type (0, 0), None
#     Edge 100, Type (0, 0), None
#     Edge 101, Type (0, 0), None
#     Edge 102, Type (0, 0), None
#     Edge 103, Type (0, 0), None
#     Edge 104, Type (0, 0), None
#     Edge 105, Type (0, 0), None
#     Edge 106, Type (0, 0), None
#     Edge 107, Type (0, 0), None
# Relax obj value: 0.155
# Max RMSD: 0.152
# Mean RMSD: 0.152
data_MOF--net-ukn--node1-TATPOV_clean_sbu_0--edge1-none
_symmetry_space_group_name_H-M    P1
_symmetry_Int_Tables_number       1
_symmetry_cell_setting            triclinic
loop_
_symmetry_equiv_pos_as_xyz
'x, y, z'
_cell_length_a     52.02793
_cell_length_b     52.028046
_cell_length_c     11.120281
_cell_angle_alpha  90.000681
_cell_angle_beta   90.000991
_cell_angle_gamma 120.00007
loop_
_atom_site_label
_atom_site_type_symbol
_atom_site_fract_x
_atom_site_fract_y
_atom_site_fract_z
_atom_type_partial_charge
Zn0 Zn 0.00088 0.21066 0.89543 0.0
Zn1 Zn 0.00989 0.23812 0.11398 0.0
O2 O -0.03569 0.20813 0.09623 0.0
O3 O -0.04265 0.19037 0.9104 0.0
O4 O 0.01896 0.26283 0.26975 0.0
O5 O 0.02569 0.1934 0.95306 0.0
O6 O 0.03869 0.22169 0.11469 0.0
C7 C -0.05289 0.19252 1.01023 0.0
C8 C 0.028 0.27292 0.87951 0.0
O9 O 0.0245 0.27103 0.99268 0.0
O10 O 0.02041 0.25018 0.8154 0.0
C11 C 0.0061 0.27733 0.29897 0.0
O12 O -0.01664 0.27404 0.23551 0.0
C13 C 0.04195 0.20401 0.04527 0.0
Zn14 Zn 0.67447 0.76725 0.89548 0.0
Zn15 Zn 0.64701 0.74881 0.11402 0.0
O16 O 0.67699 0.73321 0.09629 0.0
O17 O 0.69475 0.74401 0.91046 0.0
O18 O 0.6223 0.73317 0.26979 0.0
O19 O 0.69173 0.80933 0.95311 0.0
O20 O 0.66344 0.79404 0.11472 0.0
C21 C 0.6926 0.73162 1.0103 0.0
C22 C 0.61221 0.73212 0.87954 0.0
O23 O 0.6141 0.73051 0.99272 0.0
O24 O 0.63494 0.74726 0.81544 0.0
C25 C 0.6078 0.70581 0.29904 0.0
O26 O 0.61111 0.68637 0.23562 0.0
C27 C 0.68112 0.81498 0.0453 0.0
Zn28 Zn 0.11787 0.88425 0.89555 0.0
Zn29 Zn 0.13631 0.87524 0.11409 0.0
O30 O 0.15191 0.92082 0.09634 0.0
O31 O 0.14111 0.92778 0.91051 0.0
O32 O 0.15195 0.86617 0.26987 0.0
O33 O 0.07579 0.85944 0.95318 0.0
O34 O 0.09108 0.84643 0.1148 0.0
C35 C 0.15351 0.93802 1.01034 0.0
C36 C 0.153 0.85712 0.87962 0.0
O37 O 0.15462 0.86063 0.99279 0.0
O38 O 0.13786 0.86471 0.81552 0.0
C39 C 0.17932 0.87903 0.2991 0.0
O40 O 0.19876 0.90177 0.23565 0.0
C41 C 0.07014 0.84318 0.04538 0.0
Zn42 Zn 0.18768 0.02386 0.1412 0.0
Zn43 Zn 0.21513 0.03287 0.92266 0.0
O44 O 0.18515 -0.01271 0.94041 0.0
O45 O 0.16739 -0.01967 0.12624 0.0
O46 O 0.23984 0.04194 0.76688 0.0
O47 O 0.17041 0.04867 0.08357 0.0
O48 O 0.1987 0.06168 0.92195 0.0
C49 C 0.16954 -0.02991 0.02641 0.0
C50 C 0.24994 0.05099 0.15713 0.0
O51 O 0.24804 0.04748 0.04396 0.0
O52 O 0.2272 0.0434 0.22123 0.0
C53 C 0.25435 0.02908 0.73766 0.0
O54 O 0.25105 0.00634 0.8011 0.0
C55 C 0.18102 0.06493 0.99136 0.0
Zn56 Zn 0.86127 0.14085 0.1411 0.0
Zn57 Zn 0.85225 0.15929 0.92256 0.0
O58 O 0.89784 0.17489 0.9403 0.0
O59 O 0.9048 0.1641 0.12614 0.0
O60 O 0.84318 0.17493 0.76678 0.0
O61 O 0.83646 0.09878 0.08348 0.0
O62 O 0.82345 0.11406 0.92186 0.0
C63 C 0.91504 0.17649 0.0263 0.0
C64 C 0.83414 0.17599 0.15702 0.0
O65 O 0.83765 0.1776 0.04385 0.0
O66 O 0.84173 0.16084 0.22113 0.0
C67 C 0.85605 0.2023 0.73753 0.0
O68 O 0.8788 0.22173 0.80095 0.0
C69 C 0.8202 0.09313 0.99128 0.0
Zn70 Zn 0.74427 0.69745 0.14119 0.0
Zn71 Zn 0.72583 0.66999 0.92265 0.0
O72 O 0.71023 0.69998 0.94038 0.0
O73 O 0.72102 0.71773 0.12622 0.0
O74 O 0.71019 0.64528 0.76687 0.0
O75 O 0.78634 0.71471 0.08358 0.0
O76 O 0.77106 0.68642 0.92196 0.0
C77 C 0.70863 0.71558 0.02638 0.0
C78 C 0.70914 0.63519 0.15712 0.0
O79 O 0.70752 0.63708 0.04394 0.0
O80 O 0.72428 0.65792 0.22122 0.0
C81 C 0.68283 0.63079 0.73761 0.0
O82 O 0.66339 0.6341 0.80102 0.0
C83 C 0.792 0.7041 0.99139 0.0
Zn84 Zn 0.86126 0.69745 0.14129 0.0
Zn85 Zn 0.85225 0.66999 0.92268 0.0
O86 O 0.89783 0.69997 0.94044 0.0
O87 O 0.90479 0.71773 0.12628 0.0
O88 O 0.84318 0.64528 0.76692 0.0
O89 O 0.83646 0.71472 0.0836 0.0
O90 O 0.82345 0.68642 0.92196 0.0
C91 C 0.91504 0.71558 0.02644 0.0
C92 C 0.83413 0.63519 0.15716 0.0
O93 O 0.83764 0.63708 0.044 0.0
O94 O 0.84173 0.65792 0.22127 0.0
C95 C 0.85605 0.63077 0.73769 0.0
O96 O 0.87878 0.63407 0.80114 0.0
C97 C 0.82021 0.70411 0.99137 0.0
Zn98 Zn 0.18767 0.14085 0.14123 0.0
Zn99 Zn 0.21513 0.1593 0.92264 0.0
O100 O 0.18515 0.1749 0.94038 0.0
O101 O 0.1674 0.1641 0.12621 0.0
O102 O 0.23985 0.17494 0.76687 0.0
O103 O 0.1704 0.09878 0.08355 0.0
O104 O 0.1987 0.11406 0.92192 0.0
C105 C 0.16955 0.1765 0.02637 0.0
C106 C 0.24994 0.17598 0.15712 0.0
O107 O 0.24804 0.17759 0.04395 0.0
O108 O 0.2272 0.16084 0.22122 0.0
C109 C 0.25434 0.2023 0.73763 0.0
O110 O 0.25103 0.22174 0.80105 0.0
C111 C 0.18101 0.09313 0.99133 0.0
Zn112 Zn 0.74428 0.02386 0.14116 0.0
Zn113 Zn 0.72583 0.03287 0.92256 0.0
O114 O 0.71023 -0.01271 0.94032 0.0
O115 O 0.72102 -0.01967 0.12616 0.0
O116 O 0.71019 0.04194 0.76679 0.0
O117 O 0.78635 0.04866 0.08348 0.0
O118 O 0.77106 0.06167 0.92185 0.0
C119 C 0.70863 -0.02991 0.02632 0.0
C120 C 0.70915 0.05099 0.15704 0.0
O121 O 0.70753 0.04748 0.04387 0.0
O122 O 0.72429 0.0434 0.22114 0.0
C123 C 0.68282 0.02907 0.73756 0.0
O124 O 0.66338 0.00633 0.80099 0.0
C125 C 0.79199 0.06491 0.99126 0.0
Zn126 Zn 0.67447 0.88425 0.89542 0.0
Zn127 Zn 0.64701 0.87523 0.11401 0.0
O128 O 0.67699 0.92082 0.09625 0.0
O129 O 0.69475 0.92778 0.91042 0.0
O130 O 0.6223 0.86617 0.26977 0.0
O131 O 0.69174 0.85944 0.9531 0.0
O132 O 0.66344 0.84643 0.11473 0.0
C133 C 0.6926 0.93802 1.01025 0.0
C134 C 0.61221 0.85711 0.87952 0.0
O135 O 0.6141 0.86062 0.99269 0.0
O136 O 0.63494 0.86471 0.81542 0.0
C137 C 0.6078 0.87903 0.299 0.0
O138 O 0.6111 0.90177 0.23556 0.0
C139 C 0.68113 0.84319 0.04532 0.0
Zn140 Zn 0.00087 0.76726 0.89552 0.0
Zn141 Zn 0.00989 0.74881 0.11412 0.0
O142 O -0.03569 0.73321 0.09636 0.0
O143 O -0.04266 0.744 0.91053 0.0
O144 O 0.01896 0.73317 0.26989 0.0
O145 O 0.02568 0.80933 0.95319 0.0
O146 O 0.03869 0.79405 0.11482 0.0
C147 C -0.0529 0.73161 1.01036 0.0
C148 C 0.02801 0.73213 0.87964 0.0
O149 O 0.0245 0.73051 0.99281 0.0
O150 O 0.02041 0.74727 0.81554 0.0
C151 C 0.00609 0.70581 0.29914 0.0
O152 O -0.01666 0.68637 0.23572 0.0
C153 C 0.04193 0.81498 0.04541 0.0
Zn154 Zn 0.11787 0.21065 0.89543 0.0
Zn155 Zn 0.13631 0.23812 0.11403 0.0
O156 O 0.15192 0.20813 0.09629 0.0
O157 O 0.14112 0.19038 0.91045 0.0
O158 O 0.15196 0.26283 0.2698 0.0
O159 O 0.0758 0.19339 0.95309 0.0
O160 O 0.09108 0.22169 0.11473 0.0
C161 C 0.15351 0.19253 1.01029 0.0
C162 C 0.153 0.27292 0.87955 0.0
O163 O 0.15461 0.27103 0.99272 0.0
O164 O 0.13786 0.25018 0.81545 0.0
C165 C 0.17932 0.27732 0.29906 0.0
O166 O 0.19876 0.27401 0.23566 0.0
C167 C 0.07015 0.20399 0.04531 0.0
Zn168 Zn 0.66754 0.54399 0.22883 0.0
Zn169 Zn 0.67656 0.57145 0.44738 0.0
O170 O 0.63097 0.54146 0.42964 0.0
O171 O 0.62401 0.52371 0.2438 0.0
O172 O 0.68562 0.59616 0.60316 0.0
O173 O 0.69235 0.52673 0.28647 0.0
O174 O 0.70536 0.55502 0.44809 0.0
C175 C 0.61377 0.52586 0.34364 0.0
C176 C 0.69467 0.60625 0.21291 0.0
O177 O 0.69116 0.60436 0.32608 0.0
O178 O 0.68707 0.58351 0.14881 0.0
C179 C 0.67276 0.61066 0.63238 0.0
O180 O 0.65003 0.60737 0.56892 0.0
C181 C 0.70861 0.53734 0.37868 0.0
Zn182 Zn 0.34113 0.10059 0.22887 0.0
Zn183 Zn 0.31368 0.08215 0.44741 0.0
O184 O 0.34366 0.06655 0.42966 0.0
O185 O 0.36142 0.07734 0.24383 0.0
O186 O 0.28897 0.0665 0.60318 0.0
O187 O 0.3584 0.14266 0.2865 0.0
O188 O 0.33011 0.12738 0.44811 0.0
C189 C 0.35927 0.06495 0.34366 0.0
C190 C 0.27888 0.06545 0.21293 0.0
O191 O 0.28077 0.06384 0.3261 0.0
O192 O 0.30161 0.0806 0.14883 0.0
C193 C 0.27447 0.03914 0.63242 0.0
O194 O 0.27777 0.0197 0.56899 0.0
C195 C 0.34779 0.14831 0.37869 0.0
Zn196 Zn 0.78454 0.21758 0.22875 0.0
Zn197 Zn 0.80298 0.20857 0.4473 0.0
O198 O 0.81858 0.25415 0.42957 0.0
O199 O 0.80778 0.26111 0.24374 0.0
O200 O 0.81862 0.1995 0.60307 0.0
O201 O 0.74247 0.19277 0.28638 0.0
O202 O 0.75775 0.17976 0.448 0.0
C203 C 0.82018 0.27135 0.34357 0.0
C204 C 0.81967 0.19046 0.21282 0.0
O205 O 0.82128 0.19396 0.32599 0.0
O206 O 0.80453 0.19805 0.14872 0.0
C207 C 0.84599 0.21236 0.6323 0.0
O208 O 0.86543 0.2351 0.56885 0.0
C209 C 0.73681 0.17651 0.37858 0.0
Zn210 Zn 0.85434 0.35719 0.47447 0.0
Zn211 Zn 0.8818 0.36621 0.25593 0.0
O212 O 0.85182 0.32062 0.27366 0.0
O213 O 0.83406 0.31366 0.45949 0.0
O214 O 0.90651 0.37528 0.10015 0.0
O215 O 0.83708 0.382 0.41686 0.0
O216 O 0.86537 0.39501 0.25524 0.0
C217 C 0.83621 0.30342 0.35965 0.0
C218 C 0.9166 0.38432 0.4904 0.0
O219 O 0.91471 0.38081 0.37723 0.0
O220 O 0.89387 0.37672 0.5545 0.0
C221 C 0.921 0.36241 0.0709 0.0
O222 O 0.91769 0.33966 0.1343 0.0
C223 C 0.84769 0.39826 0.32466 0.0
Zn224 Zn 0.52793 0.47419 0.4745 0.0
Zn225 Zn 0.51892 0.49263 0.25596 0.0
O226 O 0.5645 0.50823 0.27371 0.0
O227 O 0.57146 0.49743 0.45954 0.0
O228 O 0.50985 0.50827 0.10019 0.0
O229 O 0.50312 0.43211 0.41687 0.0
O230 O 0.49011 0.4474 0.25526 0.0
C231 C 0.5817 0.50982 0.35971 0.0
C232 C 0.5008 0.50932 0.49043 0.0
O233 O 0.50431 0.51093 0.37726 0.0
O234 O 0.5084 0.49418 0.55453 0.0
C235 C 0.52272 0.53563 0.07095 0.0
O236 O 0.54546 0.55507 0.13438 0.0
C237 C 0.48686 0.42646 0.32468 0.0
Zn238 Zn 0.41094 0.03078 0.47453 0.0
Zn239 Zn 0.3925 0.00333 0.25598 0.0
O240 O 0.3769 0.03331 0.27373 0.0
O241 O 0.3877 0.05107 0.45956 0.0
O242 O 0.37685 -0.02138 0.1002 0.0
O243 O 0.45301 0.04805 0.4169 0.0
O244 O 0.43773 0.01976 0.25527 0.0
C245 C 0.3753 0.04892 0.35973 0.0
C246 C 0.3758 -0.03148 0.49045 0.0
O247 O 0.37419 -0.02958 0.37727 0.0
O248 O 0.39095 -0.00874 0.55455 0.0
C249 C 0.34949 -0.03589 0.07097 0.0
O250 O 0.33005 -0.03259 0.13442 0.0
C251 C 0.45867 0.03744 0.32469 0.0
Zn252 Zn 0.52794 0.03079 0.47453 0.0
Zn253 Zn 0.51892 0.00332 0.25594 0.0
O254 O 0.5645 0.03331 0.27368 0.0
O255 O 0.57147 0.05106 0.45951 0.0
O256 O 0.50985 -0.02139 0.10017 0.0
O257 O 0.50313 0.04806 0.41687 0.0
O258 O 0.49012 0.01976 0.25524 0.0
C259 C 0.58171 0.04891 0.35967 0.0
C260 C 0.5008 -0.03148 0.49041 0.0
O261 O 0.50431 -0.02959 0.37724 0.0
O262 O 0.5084 -0.00874 0.55452 0.0
C263 C 0.52272 -0.03588 0.07092 0.0
O264 O 0.54546 -0.03257 0.13434 0.0
C265 C 0.48688 0.03745 0.32465 0.0
Zn266 Zn 0.85433 0.47418 0.47458 0.0
Zn267 Zn 0.8818 0.49263 0.25599 0.0
O268 O 0.85182 0.50823 0.27374 0.0
O269 O 0.83406 0.49743 0.45957 0.0
O270 O 0.90651 0.50827 0.10022 0.0
O271 O 0.83707 0.43211 0.41689 0.0
O272 O 0.86537 0.4474 0.25525 0.0
C273 C 0.83621 0.50982 0.35974 0.0
C274 C 0.9166 0.50931 0.49047 0.0
O275 O 0.91471 0.51093 0.3773 0.0
O276 O 0.89386 0.49417 0.55457 0.0
C277 C 0.92101 0.53564 0.071 0.0
O278 O 0.91771 0.55508 0.13445 0.0
C279 C 0.84768 0.42646 0.32466 0.0
Zn280 Zn 0.41095 0.35719 0.47455 0.0
Zn281 Zn 0.3925 0.36621 0.25596 0.0
O282 O 0.37689 0.32062 0.27372 0.0
O283 O 0.38769 0.31366 0.45955 0.0
O284 O 0.37685 0.37527 0.10019 0.0
O285 O 0.45302 0.382 0.41688 0.0
O286 O 0.43773 0.39501 0.25524 0.0
C287 C 0.3753 0.30342 0.35972 0.0
C288 C 0.37581 0.38433 0.49044 0.0
O289 O 0.3742 0.38082 0.37727 0.0
O290 O 0.39096 0.37673 0.55454 0.0
C291 C 0.34949 0.36241 0.07096 0.0
O292 O 0.33005 0.33967 0.13439 0.0
C293 C 0.45866 0.39825 0.32465 0.0
Zn294 Zn 0.34114 0.21758 0.22881 0.0
Zn295 Zn 0.31368 0.20857 0.4474 0.0
O296 O 0.34366 0.25415 0.42965 0.0
O297 O 0.36141 0.26111 0.24381 0.0
O298 O 0.28897 0.1995 0.60317 0.0
O299 O 0.35841 0.19278 0.28649 0.0
O300 O 0.33011 0.17977 0.44812 0.0
C301 C 0.35926 0.27135 0.34365 0.0
C302 C 0.27887 0.19045 0.21292 0.0
O303 O 0.28077 0.19396 0.32609 0.0
O304 O 0.30161 0.19804 0.14882 0.0
C305 C 0.27447 0.21237 0.6324 0.0
O306 O 0.27777 0.23511 0.56896 0.0
C307 C 0.3478 0.17653 0.37872 0.0
Zn308 Zn 0.66754 0.10059 0.22872 0.0
Zn309 Zn 0.67656 0.08215 0.44731 0.0
O310 O 0.63098 0.06654 0.42958 0.0
O311 O 0.62401 0.07734 0.24374 0.0
O312 O 0.68563 0.0665 0.60308 0.0
O313 O 0.69235 0.14266 0.28639 0.0
O314 O 0.70536 0.12738 0.44803 0.0
C315 C 0.61377 0.06494 0.34358 0.0
C316 C 0.69467 0.06546 0.21283 0.0
O317 O 0.69117 0.06385 0.326 0.0
O318 O 0.68708 0.0806 0.14873 0.0
C319 C 0.67276 0.03914 0.63233 0.0
O320 O 0.65001 0.0197 0.56891 0.0
C321 C 0.7086 0.14831 0.37861 0.0
Zn322 Zn 0.78453 0.54398 0.22883 0.0
Zn323 Zn 0.80298 0.57145 0.44743 0.0
O324 O 0.81858 0.54146 0.42967 0.0
O325 O 0.80778 0.52371 0.24383 0.0
O326 O 0.81862 0.59615 0.6032 0.0
O327 O 0.74246 0.52671 0.28649 0.0
O328 O 0.75775 0.55502 0.44813 0.0
C329 C 0.82018 0.52586 0.34367 0.0
C330 C 0.81966 0.60625 0.21296 0.0
O331 O 0.82128 0.60436 0.32613 0.0
O332 O 0.80452 0.58351 0.14885 0.0
C333 C 0.84598 0.61065 0.63246 0.0
O334 O 0.86542 0.60734 0.56905 0.0
C335 C 0.73681 0.53732 0.37871 0.0
Zn336 Zn 0.33421 0.87732 0.56216 0.0
Zn337 Zn 0.34323 0.90478 0.78071 0.0
O338 O 0.29764 0.8748 0.76298 0.0
O339 O 0.29068 0.85704 0.57715 0.0
O340 O 0.3523 0.92949 0.93649 0.0
O341 O 0.35902 0.86006 0.61978 0.0
O342 O 0.37203 0.88835 0.7814 0.0
C343 C 0.28044 0.85919 0.67699 0.0
C344 C 0.36133 0.93958 0.54624 0.0
O345 O 0.35783 0.93769 0.65941 0.0
O346 O 0.35374 0.91685 0.48214 0.0
C347 C 0.33943 0.94399 0.96574 0.0
O348 O 0.31668 0.94068 0.90232 0.0
C349 C 0.37528 0.87067 0.71197 0.0
Zn350 Zn 0.0078 0.43393 0.56214 0.0
Zn351 Zn -0.01966 0.41548 0.78068 0.0
O352 O 0.01033 0.39988 0.76293 0.0
O353 O 0.02809 0.41068 0.5771 0.0
O354 O -0.04437 0.39984 0.93645 0.0
O355 O 0.02506 0.476 0.61978 0.0
O356 O -0.00323 0.46071 0.7814 0.0
C357 C 0.02594 0.39829 0.67693 0.0
C358 C -0.05446 0.39879 0.5462 0.0
O359 O -0.05257 0.39718 0.65937 0.0
O360 O -0.03172 0.41393 0.4821 0.0
C361 C -0.05887 0.37247 0.96566 0.0
O362 O -0.05558 0.35303 0.9022 0.0
C363 C 0.01445 0.48165 0.71199 0.0
Zn364 Zn 0.4512 0.55091 0.56216 0.0
Zn365 Zn 0.46965 0.5419 0.7807 0.0
O366 O 0.48525 0.58749 0.76295 0.0
O367 O 0.47445 0.59444 0.57712 0.0
O368 O 0.48529 0.53284 0.93648 0.0
O369 O 0.40913 0.52611 0.61979 0.0
O370 O 0.42441 0.5131 0.7814 0.0
C371 C 0.48684 0.60469 0.67695 0.0
C372 C 0.48634 0.52379 0.54623 0.0
O373 O 0.48795 0.52729 0.6594 0.0
O374 O 0.47119 0.53138 0.48213 0.0
C375 C 0.51265 0.5457 0.96571 0.0
O376 O 0.53209 0.56844 0.90227 0.0
C377 C 0.40348 0.50985 0.71199 0.0
Zn378 Zn 0.52101 0.69053 0.80781 0.0
Zn379 Zn 0.54846 0.69954 0.58927 0.0
O380 O 0.51848 0.65395 0.60702 0.0
O381 O 0.50072 0.647 0.79285 0.0
O382 O 0.57317 0.7086 0.4335 0.0
O383 O 0.50374 0.71533 0.75017 0.0
O384 O 0.53204 0.72834 0.58856 0.0
C385 C 0.50287 0.63675 0.69302 0.0
C386 C 0.58327 0.71765 0.82374 0.0
O387 O 0.58138 0.71415 0.71057 0.0
O388 O 0.56053 0.71006 0.88784 0.0
C389 C 0.58768 0.69574 0.40427 0.0
O390 O 0.58438 0.67301 0.46772 0.0
C391 C 0.51435 0.7316 0.65797 0.0
Zn392 Zn 0.1946 0.80752 0.8079 0.0
Zn393 Zn 0.18558 0.82596 0.58935 0.0
O394 O 0.23117 0.84156 0.60708 0.0
O395 O 0.23813 0.83077 0.79291 0.0
O396 O 0.17651 0.8416 0.43358 0.0
O397 O 0.16979 0.76545 0.75027 0.0
O398 O 0.15678 0.78073 0.58865 0.0
C399 C 0.24837 0.84316 0.69307 0.0
C400 C 0.16747 0.84266 0.82383 0.0
O401 O 0.17098 0.84427 0.71065 0.0
O402 O 0.17507 0.82751 0.88793 0.0
C403 C 0.18938 0.86897 0.40433 0.0
O404 O 0.21213 0.8884 0.46775 0.0
C405 C 0.15353 0.7598 0.65808 0.0
Zn406 Zn 0.07761 0.36412 0.80779 0.0
Zn407 Zn 0.05917 0.33666 0.58925 0.0
O408 O 0.04357 0.36665 0.607 0.0
O409 O 0.05436 0.3844 0.79283 0.0
O410 O 0.04352 0.31196 0.43347 0.0
O411 O 0.11968 0.38138 0.75018 0.0
O412 O 0.1044 0.35309 0.58856 0.0
C413 C 0.04197 0.38225 0.693 0.0
C414 C 0.04247 0.30186 0.82371 0.0
O415 O 0.04086 0.30375 0.71054 0.0
O416 O 0.05762 0.32459 0.88781 0.0
C417 C 0.01616 0.29746 0.40421 0.0
O418 O -0.00328 0.30076 0.46762 0.0
C419 C 0.12533 0.37077 0.65798 0.0
Zn420 Zn 0.1946 0.36412 0.80788 0.0
Zn421 Zn 0.18558 0.33666 0.58928 0.0
O422 O 0.23117 0.36664 0.60704 0.0
O423 O 0.23813 0.3844 0.79287 0.0
O424 O 0.17652 0.31195 0.43351 0.0
O425 O 0.1698 0.38139 0.75019 0.0
O426 O 0.15679 0.35309 0.58856 0.0
C427 C 0.24837 0.38225 0.69303 0.0
C428 C 0.16747 0.30186 0.82376 0.0
O429 O 0.17098 0.30375 0.71059 0.0
O430 O 0.17506 0.32459 0.88787 0.0
C431 C 0.18938 0.29745 0.40429 0.0
O432 O 0.21212 0.30074 0.46774 0.0
C433 C 0.15355 0.37078 0.65797 0.0
Zn434 Zn 0.521 0.80751 0.80783 0.0
Zn435 Zn 0.54846 0.82596 0.58925 0.0
O436 O 0.51848 0.84156 0.607 0.0
O437 O 0.50073 0.83077 0.79283 0.0
O438 O 0.57317 0.8416 0.43348 0.0
O439 O 0.50373 0.76544 0.75016 0.0
O440 O 0.53203 0.78073 0.58853 0.0
C441 C 0.50288 0.84316 0.693 0.0
C442 C 0.58327 0.84265 0.82373 0.0
O443 O 0.58137 0.84426 0.71056 0.0
O444 O 0.56053 0.8275 0.88783 0.0
C445 C 0.58767 0.86897 0.40423 0.0
O446 O 0.58436 0.88841 0.46766 0.0
C447 C 0.51434 0.7598 0.65794 0.0
Zn448 Zn 0.07761 0.69053 0.80796 0.0
Zn449 Zn 0.05916 0.69954 0.58936 0.0
O450 O 0.04356 0.65396 0.6071 0.0
O451 O 0.05436 0.647 0.79294 0.0
O452 O 0.04352 0.70861 0.4336 0.0
O453 O 0.11968 0.71533 0.75028 0.0
O454 O 0.10439 0.72834 0.58864 0.0
C455 C 0.04196 0.63675 0.6931 0.0
C456 C 0.04247 0.71766 0.82385 0.0
O457 O 0.04086 0.71415 0.71068 0.0
O458 O 0.05762 0.71006 0.88795 0.0
C459 C 0.01615 0.69574 0.40437 0.0
O460 O -0.00329 0.67301 0.46781 0.0
C461 C 0.12532 0.73158 0.65806 0.0
Zn462 Zn 0.00781 0.55092 0.56216 0.0
Zn463 Zn -0.01966 0.5419 0.78075 0.0
O464 O 0.01032 0.58749 0.76301 0.0
O465 O 0.02808 0.59445 0.57717 0.0
O466 O -0.04437 0.53283 0.93652 0.0
O467 O 0.02507 0.52612 0.61982 0.0
O468 O -0.00323 0.5131 0.78145 0.0
C469 C 0.02593 0.60469 0.67701 0.0
C470 C -0.05446 0.52379 0.54627 0.0
O471 O -0.05257 0.52729 0.65944 0.0
O472 O -0.03172 0.53138 0.48217 0.0
C473 C -0.05886 0.5457 0.96578 0.0
O474 O -0.05555 0.56845 0.90237 0.0
C475 C 0.01447 0.50986 0.71203 0.0
Zn476 Zn 0.33421 0.43393 0.56212 0.0
Zn477 Zn 0.34323 0.41548 0.78071 0.0
O478 O 0.29764 0.39988 0.76296 0.0
O479 O 0.29068 0.41067 0.57712 0.0
O480 O 0.35229 0.39984 0.93648 0.0
O481 O 0.35901 0.476 0.6198 0.0
O482 O 0.37202 0.46071 0.78143 0.0
C483 C 0.28044 0.39828 0.67696 0.0
C484 C 0.36134 0.39879 0.54623 0.0
O485 O 0.35784 0.39718 0.6594 0.0
O486 O 0.35375 0.41394 0.48213 0.0
C487 C 0.33942 0.37247 0.96573 0.0
O488 O 0.31668 0.35303 0.9023 0.0
C489 C 0.37526 0.48164 0.71202 0.0
Zn490 Zn 0.45119 0.87732 0.56208 0.0
Zn491 Zn 0.46965 0.90478 0.78068 0.0
O492 O 0.48525 0.8748 0.76293 0.0
O493 O 0.47445 0.85704 0.57709 0.0
O494 O 0.48529 0.92949 0.93645 0.0
O495 O 0.40913 0.86005 0.61976 0.0
O496 O 0.42442 0.88835 0.7814 0.0
C497 C 0.48684 0.85919 0.67693 0.0
C498 C 0.48633 0.93958 0.54621 0.0
O499 O 0.48795 0.93769 0.65938 0.0
O500 O 0.47119 0.91685 0.4821 0.0
C501 C 0.51266 0.94399 0.96569 0.0
O502 O 0.53209 0.94069 0.90225 0.0
C503 C 0.40348 0.87066 0.71199 0.0
loop_
_geom_bond_atom_site_label_1
_geom_bond_atom_site_label_2
_geom_bond_distance
_geom_bond_site_symmetry_2
_ccdc_geom_bond_type
Zn0 O3 2.031 . S
Zn0 O5 2.049 . S
Zn0 O10 2.067 . S
Zn1 O2 1.962 . S
Zn1 O4 1.986 . S
Zn1 O6 1.996 . S
Zn1 O9 1.943 1_554 S
O2 Zn1 1.962 . S
O2 C7 1.254 . S
O3 Zn0 2.031 . S
O3 C7 1.269 1_556 S
O4 Zn1 1.986 . S
O4 C11 1.262 . S
O5 Zn0 2.049 . S
O5 C13 1.260 1_556 S
O6 Zn1 1.996 . S
O6 C13 1.257 . S
C7 O2 1.254 . S
C7 O3 1.269 1_554 S
C8 O9 1.249 . S
C8 O10 1.270 . S
O9 Zn1 1.943 1_556 S
O9 C8 1.249 . S
O10 Zn0 2.067 . S
O10 C8 1.270 . S
C11 O4 1.262 . S
C11 O12 1.232 . S
O12 C11 1.232 . S
C13 O5 1.260 1_554 S
C13 O6 1.257 . S
Zn14 O17 2.031 . S
Zn14 O19 2.049 . S
Zn14 O24 2.067 . S
Zn15 O16 1.962 . S
Zn15 O18 1.986 . S
Zn15 O20 1.996 . S
Zn15 O23 1.943 1_554 S
O16 Zn15 1.962 . S
O16 C21 1.254 . S
O17 Zn14 2.031 . S
O17 C21 1.269 1_556 S
O18 Zn15 1.986 . S
O18 C25 1.262 . S
O19 Zn14 2.049 . S
O19 C27 1.260 1_556 S
O20 Zn15 1.996 . S
O20 C27 1.257 . S
C21 O16 1.254 . S
C21 O17 1.269 1_554 S
C22 O23 1.249 . S
C22 O24 1.270 . S
O23 Zn15 1.943 1_556 S
O23 C22 1.249 . S
O24 Zn14 2.067 . S
O24 C22 1.270 . S
C25 O18 1.262 . S
C25 O26 1.232 . S
O26 C25 1.232 . S
C27 O19 1.260 1_554 S
C27 O20 1.257 . S
Zn28 O31 2.031 . S
Zn28 O33 2.049 . S
Zn28 O38 2.067 . S
Zn29 O30 1.962 . S
Zn29 O32 1.986 . S
Zn29 O34 1.996 . S
Zn29 O37 1.943 1_554 S
O30 Zn29 1.962 . S
O30 C35 1.254 . S
O31 Zn28 2.031 . S
O31 C35 1.269 1_556 S
O32 Zn29 1.986 . S
O32 C39 1.262 . S
O33 Zn28 2.049 . S
O33 C41 1.260 1_556 S
O34 Zn29 1.996 . S
O34 C41 1.257 . S
C35 O30 1.254 . S
C35 O31 1.269 1_554 S
C36 O37 1.249 . S
C36 O38 1.270 . S
O37 Zn29 1.943 1_556 S
O37 C36 1.249 . S
O38 Zn28 2.067 . S
O38 C36 1.270 . S
C39 O32 1.262 . S
C39 O40 1.232 . S
O40 C39 1.232 . S
C41 O33 1.260 1_554 S
C41 O34 1.257 . S
Zn42 O45 2.031 . S
Zn42 O47 2.049 . S
Zn42 O52 2.067 . S
Zn43 O44 1.962 . S
Zn43 O46 1.986 . S
Zn43 O48 1.996 . S
Zn43 O51 1.943 1_556 S
O44 Zn43 1.962 . S
O44 C49 1.254 . S
O45 Zn42 2.031 . S
O45 C49 1.269 1_554 S
O46 Zn43 1.986 . S
O46 C53 1.262 . S
O47 Zn42 2.049 . S
O47 C55 1.260 1_554 S
O48 Zn43 1.996 . S
O48 C55 1.257 . S
C49 O44 1.254 . S
C49 O45 1.269 1_556 S
C50 O51 1.249 . S
C50 O52 1.270 . S
O51 Zn43 1.943 1_554 S
O51 C50 1.249 . S
O52 Zn42 2.067 . S
O52 C50 1.270 . S
C53 O46 1.262 . S
C53 O54 1.232 . S
O54 C53 1.232 . S
C55 O47 1.260 1_556 S
C55 O48 1.257 . S
Zn56 O59 2.031 . S
Zn56 O61 2.049 . S
Zn56 O66 2.067 . S
Zn57 O58 1.962 . S
Zn57 O60 1.986 . S
Zn57 O62 1.996 . S
Zn57 O65 1.943 1_556 S
O58 Zn57 1.962 . S
O58 C63 1.254 . S
O59 Zn56 2.031 . S
O59 C63 1.269 1_554 S
O60 Zn57 1.986 . S
O60 C67 1.262 . S
O61 Zn56 2.049 . S
O61 C69 1.260 1_554 S
O62 Zn57 1.996 . S
O62 C69 1.257 . S
C63 O58 1.254 . S
C63 O59 1.269 1_556 S
C64 O65 1.249 . S
C64 O66 1.270 . S
O65 Zn57 1.943 1_554 S
O65 C64 1.249 . S
O66 Zn56 2.067 . S
O66 C64 1.270 . S
C67 O60 1.262 . S
C67 O68 1.232 . S
O68 C67 1.232 . S
C69 O61 1.260 1_556 S
C69 O62 1.257 . S
Zn70 O73 2.031 . S
Zn70 O75 2.049 . S
Zn70 O80 2.067 . S
Zn71 O72 1.962 . S
Zn71 O74 1.986 . S
Zn71 O76 1.996 . S
Zn71 O79 1.943 1_556 S
O72 Zn71 1.962 . S
O72 C77 1.254 . S
O73 Zn70 2.031 . S
O73 C77 1.269 1_554 S
O74 Zn71 1.986 . S
O74 C81 1.262 . S
O75 Zn70 2.049 . S
O75 C83 1.260 1_554 S
O76 Zn71 1.996 . S
O76 C83 1.257 . S
C77 O72 1.254 . S
C77 O73 1.269 1_556 S
C78 O79 1.249 . S
C78 O80 1.270 . S
O79 Zn71 1.943 1_554 S
O79 C78 1.249 . S
O80 Zn70 2.067 . S
O80 C78 1.270 . S
C81 O74 1.262 . S
C81 O82 1.232 . S
O82 C81 1.232 . S
C83 O75 1.260 1_556 S
C83 O76 1.257 . S
Zn84 O87 2.031 . S
Zn84 O89 2.049 . S
Zn84 O94 2.067 . S
Zn85 O86 1.962 . S
Zn85 O88 1.986 . S
Zn85 O90 1.996 . S
Zn85 O93 1.943 1_556 S
O86 Zn85 1.962 . S
O86 C91 1.254 . S
O87 Zn84 2.031 . S
O87 C91 1.269 1_554 S
O88 Zn85 1.986 . S
O88 C95 1.262 . S
O89 Zn84 2.049 . S
O89 C97 1.260 1_554 S
O90 Zn85 1.996 . S
O90 C97 1.257 . S
C91 O86 1.254 . S
C91 O87 1.269 1_556 S
C92 O93 1.249 . S
C92 O94 1.270 . S
O93 Zn85 1.943 1_554 S
O93 C92 1.249 . S
O94 Zn84 2.067 . S
O94 C92 1.270 . S
C95 O88 1.262 . S
C95 O96 1.232 . S
O96 C95 1.232 . S
C97 O89 1.260 1_556 S
C97 O90 1.257 . S
Zn98 O101 2.031 . S
Zn98 O103 2.049 . S
Zn98 O108 2.067 . S
Zn99 O100 1.962 . S
Zn99 O102 1.986 . S
Zn99 O104 1.996 . S
Zn99 O107 1.943 1_556 S
O100 Zn99 1.962 . S
O100 C105 1.254 . S
O101 Zn98 2.031 . S
O101 C105 1.269 1_554 S
O102 Zn99 1.986 . S
O102 C109 1.262 . S
O103 Zn98 2.049 . S
O103 C111 1.260 1_554 S
O104 Zn99 1.996 . S
O104 C111 1.257 . S
C105 O100 1.254 . S
C105 O101 1.269 1_556 S
C106 O107 1.249 . S
C106 O108 1.270 . S
O107 Zn99 1.943 1_554 S
O107 C106 1.249 . S
O108 Zn98 2.067 . S
O108 C106 1.270 . S
C109 O102 1.262 . S
C109 O110 1.232 . S
O110 C109 1.232 . S
C111 O103 1.260 1_556 S
C111 O104 1.257 . S
Zn112 O115 2.031 . S
Zn112 O117 2.049 . S
Zn112 O122 2.067 . S
Zn113 O114 1.962 . S
Zn113 O116 1.986 . S
Zn113 O118 1.996 . S
Zn113 O121 1.943 1_556 S
O114 Zn113 1.962 . S
O114 C119 1.254 . S
O115 Zn112 2.031 . S
O115 C119 1.269 1_554 S
O116 Zn113 1.986 . S
O116 C123 1.262 . S
O117 Zn112 2.049 . S
O117 C125 1.260 1_554 S
O118 Zn113 1.996 . S
O118 C125 1.257 . S
C119 O114 1.254 . S
C119 O115 1.269 1_556 S
C120 O121 1.249 . S
C120 O122 1.270 . S
O121 Zn113 1.943 1_554 S
O121 C120 1.249 . S
O122 Zn112 2.067 . S
O122 C120 1.270 . S
C123 O116 1.262 . S
C123 O124 1.232 . S
O124 C123 1.232 . S
C125 O117 1.260 1_556 S
C125 O118 1.257 . S
Zn126 O129 2.031 . S
Zn126 O131 2.049 . S
Zn126 O136 2.067 . S
Zn127 O128 1.962 . S
Zn127 O130 1.986 . S
Zn127 O132 1.996 . S
Zn127 O135 1.943 1_554 S
O128 Zn127 1.962 . S
O128 C133 1.254 . S
O129 Zn126 2.031 . S
O129 C133 1.269 1_556 S
O130 Zn127 1.986 . S
O130 C137 1.262 . S
O131 Zn126 2.049 . S
O131 C139 1.260 1_556 S
O132 Zn127 1.996 . S
O132 C139 1.257 . S
C133 O128 1.254 . S
C133 O129 1.269 1_554 S
C134 O135 1.249 . S
C134 O136 1.270 . S
O135 Zn127 1.943 1_556 S
O135 C134 1.249 . S
O136 Zn126 2.067 . S
O136 C134 1.270 . S
C137 O130 1.262 . S
C137 O138 1.232 . S
O138 C137 1.232 . S
C139 O131 1.260 1_554 S
C139 O132 1.257 . S
Zn140 O143 2.031 . S
Zn140 O145 2.049 . S
Zn140 O150 2.067 . S
Zn141 O142 1.962 . S
Zn141 O144 1.986 . S
Zn141 O146 1.996 . S
Zn141 O149 1.943 1_554 S
O142 Zn141 1.962 . S
O142 C147 1.254 . S
O143 Zn140 2.031 . S
O143 C147 1.269 1_556 S
O144 Zn141 1.986 . S
O144 C151 1.262 . S
O145 Zn140 2.049 . S
O145 C153 1.260 1_556 S
O146 Zn141 1.996 . S
O146 C153 1.257 . S
C147 O142 1.254 . S
C147 O143 1.269 1_554 S
C148 O149 1.249 . S
C148 O150 1.270 . S
O149 Zn141 1.943 1_556 S
O149 C148 1.249 . S
O150 Zn140 2.067 . S
O150 C148 1.270 . S
C151 O144 1.262 . S
C151 O152 1.232 . S
O152 C151 1.232 . S
C153 O145 1.260 1_554 S
C153 O146 1.257 . S
Zn154 O157 2.031 . S
Zn154 O159 2.049 . S
Zn154 O164 2.067 . S
Zn155 O156 1.962 . S
Zn155 O158 1.986 . S
Zn155 O160 1.996 . S
Zn155 O163 1.943 1_554 S
O156 Zn155 1.962 . S
O156 C161 1.254 . S
O157 Zn154 2.031 . S
O157 C161 1.269 1_556 S
O158 Zn155 1.986 . S
O158 C165 1.262 . S
O159 Zn154 2.049 . S
O159 C167 1.260 1_556 S
O160 Zn155 1.996 . S
O160 C167 1.257 . S
C161 O156 1.254 . S
C161 O157 1.269 1_554 S
C162 O163 1.249 . S
C162 O164 1.270 . S
O163 Zn155 1.943 1_556 S
O163 C162 1.249 . S
O164 Zn154 2.067 . S
O164 C162 1.270 . S
C165 O158 1.262 . S
C165 O166 1.232 . S
O166 C165 1.232 . S
C167 O159 1.260 1_554 S
C167 O160 1.257 . S
Zn168 O171 2.031 . S
Zn168 O173 2.049 . S
Zn168 O178 2.067 . S
Zn169 O170 1.962 . S
Zn169 O172 1.986 . S
Zn169 O174 1.996 . S
Zn169 O177 1.943 . S
O170 Zn169 1.962 . S
O170 C175 1.254 . S
O171 Zn168 2.031 . S
O171 C175 1.269 . S
O172 Zn169 1.986 . S
O172 C179 1.262 . S
O173 Zn168 2.049 . S
O173 C181 1.260 . S
O174 Zn169 1.996 . S
O174 C181 1.257 . S
C175 O170 1.254 . S
C175 O171 1.269 . S
C176 O177 1.249 . S
C176 O178 1.270 . S
O177 Zn169 1.943 . S
O177 C176 1.249 . S
O178 Zn168 2.067 . S
O178 C176 1.270 . S
C179 O172 1.262 . S
C179 O180 1.232 . S
O180 C179 1.232 . S
C181 O173 1.260 . S
C181 O174 1.257 . S
Zn182 O185 2.031 . S
Zn182 O187 2.049 . S
Zn182 O192 2.067 . S
Zn183 O184 1.962 . S
Zn183 O186 1.986 . S
Zn183 O188 1.996 . S
Zn183 O191 1.943 . S
O184 Zn183 1.962 . S
O184 C189 1.254 . S
O185 Zn182 2.031 . S
O185 C189 1.269 . S
O186 Zn183 1.986 . S
O186 C193 1.262 . S
O187 Zn182 2.049 . S
O187 C195 1.260 . S
O188 Zn183 1.996 . S
O188 C195 1.257 . S
C189 O184 1.254 . S
C189 O185 1.269 . S
C190 O191 1.249 . S
C190 O192 1.270 . S
O191 Zn183 1.943 . S
O191 C190 1.249 . S
O192 Zn182 2.067 . S
O192 C190 1.270 . S
C193 O186 1.262 . S
C193 O194 1.232 . S
O194 C193 1.232 . S
C195 O187 1.260 . S
C195 O188 1.257 . S
Zn196 O199 2.031 . S
Zn196 O201 2.049 . S
Zn196 O206 2.067 . S
Zn197 O198 1.962 . S
Zn197 O200 1.986 . S
Zn197 O202 1.996 . S
Zn197 O205 1.943 . S
O198 Zn197 1.962 . S
O198 C203 1.254 . S
O199 Zn196 2.031 . S
O199 C203 1.269 . S
O200 Zn197 1.986 . S
O200 C207 1.262 . S
O201 Zn196 2.049 . S
O201 C209 1.260 . S
O202 Zn197 1.996 . S
O202 C209 1.257 . S
C203 O198 1.254 . S
C203 O199 1.269 . S
C204 O205 1.249 . S
C204 O206 1.270 . S
O205 Zn197 1.943 . S
O205 C204 1.249 . S
O206 Zn196 2.067 . S
O206 C204 1.270 . S
C207 O200 1.262 . S
C207 O208 1.232 . S
O208 C207 1.232 . S
C209 O201 1.260 . S
C209 O202 1.257 . S
Zn210 O213 2.031 . S
Zn210 O215 2.049 . S
Zn210 O220 2.067 . S
Zn211 O212 1.962 . S
Zn211 O214 1.986 . S
Zn211 O216 1.996 . S
Zn211 O219 1.943 . S
O212 Zn211 1.962 . S
O212 C217 1.254 . S
O213 Zn210 2.031 . S
O213 C217 1.269 . S
O214 Zn211 1.986 . S
O214 C221 1.262 . S
O215 Zn210 2.049 . S
O215 C223 1.260 . S
O216 Zn211 1.996 . S
O216 C223 1.257 . S
C217 O212 1.254 . S
C217 O213 1.269 . S
C218 O219 1.249 . S
C218 O220 1.270 . S
O219 Zn211 1.943 . S
O219 C218 1.249 . S
O220 Zn210 2.067 . S
O220 C218 1.270 . S
C221 O214 1.262 . S
C221 O222 1.232 . S
O222 C221 1.232 . S
C223 O215 1.260 . S
C223 O216 1.257 . S
Zn224 O227 2.031 . S
Zn224 O229 2.049 . S
Zn224 O234 2.067 . S
Zn225 O226 1.962 . S
Zn225 O228 1.986 . S
Zn225 O230 1.996 . S
Zn225 O233 1.943 . S
O226 Zn225 1.962 . S
O226 C231 1.254 . S
O227 Zn224 2.031 . S
O227 C231 1.269 . S
O228 Zn225 1.986 . S
O228 C235 1.262 . S
O229 Zn224 2.049 . S
O229 C237 1.260 . S
O230 Zn225 1.996 . S
O230 C237 1.257 . S
C231 O226 1.254 . S
C231 O227 1.269 . S
C232 O233 1.249 . S
C232 O234 1.270 . S
O233 Zn225 1.943 . S
O233 C232 1.249 . S
O234 Zn224 2.067 . S
O234 C232 1.270 . S
C235 O228 1.262 . S
C235 O236 1.232 . S
O236 C235 1.232 . S
C237 O229 1.260 . S
C237 O230 1.257 . S
Zn238 O241 2.031 . S
Zn238 O243 2.049 . S
Zn238 O248 2.067 . S
Zn239 O240 1.962 . S
Zn239 O242 1.986 . S
Zn239 O244 1.996 . S
Zn239 O247 1.943 . S
O240 Zn239 1.962 . S
O240 C245 1.254 . S
O241 Zn238 2.031 . S
O241 C245 1.269 . S
O242 Zn239 1.986 . S
O242 C249 1.262 . S
O243 Zn238 2.049 . S
O243 C251 1.260 . S
O244 Zn239 1.996 . S
O244 C251 1.257 . S
C245 O240 1.254 . S
C245 O241 1.269 . S
C246 O247 1.249 . S
C246 O248 1.270 . S
O247 Zn239 1.943 . S
O247 C246 1.249 . S
O248 Zn238 2.067 . S
O248 C246 1.270 . S
C249 O242 1.262 . S
C249 O250 1.232 . S
O250 C249 1.232 . S
C251 O243 1.260 . S
C251 O244 1.257 . S
Zn252 O255 2.031 . S
Zn252 O257 2.049 . S
Zn252 O262 2.067 . S
Zn253 O254 1.962 . S
Zn253 O256 1.986 . S
Zn253 O258 1.996 . S
Zn253 O261 1.943 . S
O254 Zn253 1.962 . S
O254 C259 1.254 . S
O255 Zn252 2.031 . S
O255 C259 1.269 . S
O256 Zn253 1.986 . S
O256 C263 1.262 . S
O257 Zn252 2.049 . S
O257 C265 1.260 . S
O258 Zn253 1.996 . S
O258 C265 1.257 . S
C259 O254 1.254 . S
C259 O255 1.269 . S
C260 O261 1.249 . S
C260 O262 1.270 . S
O261 Zn253 1.943 . S
O261 C260 1.249 . S
O262 Zn252 2.067 . S
O262 C260 1.270 . S
C263 O256 1.262 . S
C263 O264 1.232 . S
O264 C263 1.232 . S
C265 O257 1.260 . S
C265 O258 1.257 . S
Zn266 O269 2.031 . S
Zn266 O271 2.049 . S
Zn266 O276 2.067 . S
Zn267 O268 1.962 . S
Zn267 O270 1.986 . S
Zn267 O272 1.996 . S
Zn267 O275 1.943 . S
O268 Zn267 1.962 . S
O268 C273 1.254 . S
O269 Zn266 2.031 . S
O269 C273 1.269 . S
O270 Zn267 1.986 . S
O270 C277 1.262 . S
O271 Zn266 2.049 . S
O271 C279 1.260 . S
O272 Zn267 1.996 . S
O272 C279 1.257 . S
C273 O268 1.254 . S
C273 O269 1.269 . S
C274 O275 1.249 . S
C274 O276 1.270 . S
O275 Zn267 1.943 . S
O275 C274 1.249 . S
O276 Zn266 2.067 . S
O276 C274 1.270 . S
C277 O270 1.262 . S
C277 O278 1.232 . S
O278 C277 1.232 . S
C279 O271 1.260 . S
C279 O272 1.257 . S
Zn280 O283 2.031 . S
Zn280 O285 2.049 . S
Zn280 O290 2.067 . S
Zn281 O282 1.962 . S
Zn281 O284 1.986 . S
Zn281 O286 1.996 . S
Zn281 O289 1.943 . S
O282 Zn281 1.962 . S
O282 C287 1.254 . S
O283 Zn280 2.031 . S
O283 C287 1.269 . S
O284 Zn281 1.986 . S
O284 C291 1.262 . S
O285 Zn280 2.049 . S
O285 C293 1.260 . S
O286 Zn281 1.996 . S
O286 C293 1.257 . S
C287 O282 1.254 . S
C287 O283 1.269 . S
C288 O289 1.249 . S
C288 O290 1.270 . S
O289 Zn281 1.943 . S
O289 C288 1.249 . S
O290 Zn280 2.067 . S
O290 C288 1.270 . S
C291 O284 1.262 . S
C291 O292 1.232 . S
O292 C291 1.232 . S
C293 O285 1.260 . S
C293 O286 1.257 . S
Zn294 O297 2.031 . S
Zn294 O299 2.049 . S
Zn294 O304 2.067 . S
Zn295 O296 1.962 . S
Zn295 O298 1.986 . S
Zn295 O300 1.996 . S
Zn295 O303 1.943 . S
O296 Zn295 1.962 . S
O296 C301 1.254 . S
O297 Zn294 2.031 . S
O297 C301 1.269 . S
O298 Zn295 1.986 . S
O298 C305 1.262 . S
O299 Zn294 2.049 . S
O299 C307 1.260 . S
O300 Zn295 1.996 . S
O300 C307 1.257 . S
C301 O296 1.254 . S
C301 O297 1.269 . S
C302 O303 1.249 . S
C302 O304 1.270 . S
O303 Zn295 1.943 . S
O303 C302 1.249 . S
O304 Zn294 2.067 . S
O304 C302 1.270 . S
C305 O298 1.262 . S
C305 O306 1.232 . S
O306 C305 1.232 . S
C307 O299 1.260 . S
C307 O300 1.257 . S
Zn308 O311 2.031 . S
Zn308 O313 2.049 . S
Zn308 O318 2.067 . S
Zn309 O310 1.962 . S
Zn309 O312 1.986 . S
Zn309 O314 1.996 . S
Zn309 O317 1.943 . S
O310 Zn309 1.962 . S
O310 C315 1.254 . S
O311 Zn308 2.031 . S
O311 C315 1.269 . S
O312 Zn309 1.986 . S
O312 C319 1.262 . S
O313 Zn308 2.049 . S
O313 C321 1.260 . S
O314 Zn309 1.996 . S
O314 C321 1.257 . S
C315 O310 1.254 . S
C315 O311 1.269 . S
C316 O317 1.249 . S
C316 O318 1.270 . S
O317 Zn309 1.943 . S
O317 C316 1.249 . S
O318 Zn308 2.067 . S
O318 C316 1.270 . S
C319 O312 1.262 . S
C319 O320 1.232 . S
O320 C319 1.232 . S
C321 O313 1.260 . S
C321 O314 1.257 . S
Zn322 O325 2.031 . S
Zn322 O327 2.049 . S
Zn322 O332 2.067 . S
Zn323 O324 1.962 . S
Zn323 O326 1.986 . S
Zn323 O328 1.996 . S
Zn323 O331 1.943 . S
O324 Zn323 1.962 . S
O324 C329 1.254 . S
O325 Zn322 2.031 . S
O325 C329 1.269 . S
O326 Zn323 1.986 . S
O326 C333 1.262 . S
O327 Zn322 2.049 . S
O327 C335 1.260 . S
O328 Zn323 1.996 . S
O328 C335 1.257 . S
C329 O324 1.254 . S
C329 O325 1.269 . S
C330 O331 1.249 . S
C330 O332 1.270 . S
O331 Zn323 1.943 . S
O331 C330 1.249 . S
O332 Zn322 2.067 . S
O332 C330 1.270 . S
C333 O326 1.262 . S
C333 O334 1.232 . S
O334 C333 1.232 . S
C335 O327 1.260 . S
C335 O328 1.257 . S
Zn336 O339 2.031 . S
Zn336 O341 2.049 . S
Zn336 O346 2.067 . S
Zn337 O338 1.962 . S
Zn337 O340 1.986 . S
Zn337 O342 1.996 . S
Zn337 O345 1.943 . S
O338 Zn337 1.962 . S
O338 C343 1.254 . S
O339 Zn336 2.031 . S
O339 C343 1.269 . S
O340 Zn337 1.986 . S
O340 C347 1.262 . S
O341 Zn336 2.049 . S
O341 C349 1.260 . S
O342 Zn337 1.996 . S
O342 C349 1.257 . S
C343 O338 1.254 . S
C343 O339 1.269 . S
C344 O345 1.249 . S
C344 O346 1.270 . S
O345 Zn337 1.943 . S
O345 C344 1.249 . S
O346 Zn336 2.067 . S
O346 C344 1.270 . S
C347 O340 1.262 . S
C347 O348 1.232 . S
O348 C347 1.232 . S
C349 O341 1.260 . S
C349 O342 1.257 . S
Zn350 O353 2.031 . S
Zn350 O355 2.049 . S
Zn350 O360 2.067 . S
Zn351 O352 1.962 . S
Zn351 O354 1.986 . S
Zn351 O356 1.996 . S
Zn351 O359 1.943 . S
O352 Zn351 1.962 . S
O352 C357 1.254 . S
O353 Zn350 2.031 . S
O353 C357 1.269 . S
O354 Zn351 1.986 . S
O354 C361 1.262 . S
O355 Zn350 2.049 . S
O355 C363 1.260 . S
O356 Zn351 1.996 . S
O356 C363 1.257 . S
C357 O352 1.254 . S
C357 O353 1.269 . S
C358 O359 1.249 . S
C358 O360 1.270 . S
O359 Zn351 1.943 . S
O359 C358 1.249 . S
O360 Zn350 2.067 . S
O360 C358 1.270 . S
C361 O354 1.262 . S
C361 O362 1.232 . S
O362 C361 1.232 . S
C363 O355 1.260 . S
C363 O356 1.257 . S
Zn364 O367 2.031 . S
Zn364 O369 2.049 . S
Zn364 O374 2.067 . S
Zn365 O366 1.962 . S
Zn365 O368 1.986 . S
Zn365 O370 1.996 . S
Zn365 O373 1.943 . S
O366 Zn365 1.962 . S
O366 C371 1.254 . S
O367 Zn364 2.031 . S
O367 C371 1.269 . S
O368 Zn365 1.986 . S
O368 C375 1.262 . S
O369 Zn364 2.049 . S
O369 C377 1.260 . S
O370 Zn365 1.996 . S
O370 C377 1.257 . S
C371 O366 1.254 . S
C371 O367 1.269 . S
C372 O373 1.249 . S
C372 O374 1.270 . S
O373 Zn365 1.943 . S
O373 C372 1.249 . S
O374 Zn364 2.067 . S
O374 C372 1.270 . S
C375 O368 1.262 . S
C375 O376 1.232 . S
O376 C375 1.232 . S
C377 O369 1.260 . S
C377 O370 1.257 . S
Zn378 O381 2.031 . S
Zn378 O383 2.049 . S
Zn378 O388 2.067 . S
Zn379 O380 1.962 . S
Zn379 O382 1.986 . S
Zn379 O384 1.996 . S
Zn379 O387 1.943 . S
O380 Zn379 1.962 . S
O380 C385 1.254 . S
O381 Zn378 2.031 . S
O381 C385 1.269 . S
O382 Zn379 1.986 . S
O382 C389 1.262 . S
O383 Zn378 2.049 . S
O383 C391 1.260 . S
O384 Zn379 1.996 . S
O384 C391 1.257 . S
C385 O380 1.254 . S
C385 O381 1.269 . S
C386 O387 1.249 . S
C386 O388 1.270 . S
O387 Zn379 1.943 . S
O387 C386 1.249 . S
O388 Zn378 2.067 . S
O388 C386 1.270 . S
C389 O382 1.262 . S
C389 O390 1.232 . S
O390 C389 1.232 . S
C391 O383 1.260 . S
C391 O384 1.257 . S
Zn392 O395 2.031 . S
Zn392 O397 2.049 . S
Zn392 O402 2.067 . S
Zn393 O394 1.962 . S
Zn393 O396 1.986 . S
Zn393 O398 1.996 . S
Zn393 O401 1.943 . S
O394 Zn393 1.962 . S
O394 C399 1.254 . S
O395 Zn392 2.031 . S
O395 C399 1.269 . S
O396 Zn393 1.986 . S
O396 C403 1.262 . S
O397 Zn392 2.049 . S
O397 C405 1.260 . S
O398 Zn393 1.996 . S
O398 C405 1.257 . S
C399 O394 1.254 . S
C399 O395 1.269 . S
C400 O401 1.249 . S
C400 O402 1.270 . S
O401 Zn393 1.943 . S
O401 C400 1.249 . S
O402 Zn392 2.067 . S
O402 C400 1.270 . S
C403 O396 1.262 . S
C403 O404 1.232 . S
O404 C403 1.232 . S
C405 O397 1.260 . S
C405 O398 1.257 . S
Zn406 O409 2.031 . S
Zn406 O411 2.049 . S
Zn406 O416 2.067 . S
Zn407 O408 1.962 . S
Zn407 O410 1.986 . S
Zn407 O412 1.996 . S
Zn407 O415 1.943 . S
O408 Zn407 1.962 . S
O408 C413 1.254 . S
O409 Zn406 2.031 . S
O409 C413 1.269 . S
O410 Zn407 1.986 . S
O410 C417 1.262 . S
O411 Zn406 2.049 . S
O411 C419 1.260 . S
O412 Zn407 1.996 . S
O412 C419 1.257 . S
C413 O408 1.254 . S
C413 O409 1.269 . S
C414 O415 1.249 . S
C414 O416 1.270 . S
O415 Zn407 1.943 . S
O415 C414 1.249 . S
O416 Zn406 2.067 . S
O416 C414 1.270 . S
C417 O410 1.262 . S
C417 O418 1.232 . S
O418 C417 1.232 . S
C419 O411 1.260 . S
C419 O412 1.257 . S
Zn420 O423 2.031 . S
Zn420 O425 2.049 . S
Zn420 O430 2.067 . S
Zn421 O422 1.962 . S
Zn421 O424 1.986 . S
Zn421 O426 1.996 . S
Zn421 O429 1.943 . S
O422 Zn421 1.962 . S
O422 C427 1.254 . S
O423 Zn420 2.031 . S
O423 C427 1.269 . S
O424 Zn421 1.986 . S
O424 C431 1.262 . S
O425 Zn420 2.049 . S
O425 C433 1.260 . S
O426 Zn421 1.996 . S
O426 C433 1.257 . S
C427 O422 1.254 . S
C427 O423 1.269 . S
C428 O429 1.249 . S
C428 O430 1.270 . S
O429 Zn421 1.943 . S
O429 C428 1.249 . S
O430 Zn420 2.067 . S
O430 C428 1.270 . S
C431 O424 1.262 . S
C431 O432 1.232 . S
O432 C431 1.232 . S
C433 O425 1.260 . S
C433 O426 1.257 . S
Zn434 O437 2.031 . S
Zn434 O439 2.049 . S
Zn434 O444 2.067 . S
Zn435 O436 1.962 . S
Zn435 O438 1.986 . S
Zn435 O440 1.996 . S
Zn435 O443 1.943 . S
O436 Zn435 1.962 . S
O436 C441 1.254 . S
O437 Zn434 2.031 . S
O437 C441 1.269 . S
O438 Zn435 1.986 . S
O438 C445 1.262 . S
O439 Zn434 2.049 . S
O439 C447 1.260 . S
O440 Zn435 1.996 . S
O440 C447 1.257 . S
C441 O436 1.254 . S
C441 O437 1.269 . S
C442 O443 1.249 . S
C442 O444 1.270 . S
O443 Zn435 1.943 . S
O443 C442 1.249 . S
O444 Zn434 2.067 . S
O444 C442 1.270 . S
C445 O438 1.262 . S
C445 O446 1.232 . S
O446 C445 1.232 . S
C447 O439 1.260 . S
C447 O440 1.257 . S
Zn448 O451 2.031 . S
Zn448 O453 2.049 . S
Zn448 O458 2.067 . S
Zn449 O450 1.962 . S
Zn449 O452 1.986 . S
Zn449 O454 1.996 . S
Zn449 O457 1.943 . S
O450 Zn449 1.962 . S
O450 C455 1.254 . S
O451 Zn448 2.031 . S
O451 C455 1.269 . S
O452 Zn449 1.986 . S
O452 C459 1.262 . S
O453 Zn448 2.049 . S
O453 C461 1.260 . S
O454 Zn449 1.996 . S
O454 C461 1.257 . S
C455 O450 1.254 . S
C455 O451 1.269 . S
C456 O457 1.249 . S
C456 O458 1.270 . S
O457 Zn449 1.943 . S
O457 C456 1.249 . S
O458 Zn448 2.067 . S
O458 C456 1.270 . S
C459 O452 1.262 . S
C459 O460 1.232 . S
O460 C459 1.232 . S
C461 O453 1.260 . S
C461 O454 1.257 . S
Zn462 O465 2.031 . S
Zn462 O467 2.049 . S
Zn462 O472 2.067 . S
Zn463 O464 1.962 . S
Zn463 O466 1.986 . S
Zn463 O468 1.996 . S
Zn463 O471 1.943 . S
O464 Zn463 1.962 . S
O464 C469 1.254 . S
O465 Zn462 2.031 . S
O465 C469 1.269 . S
O466 Zn463 1.986 . S
O466 C473 1.262 . S
O467 Zn462 2.049 . S
O467 C475 1.260 . S
O468 Zn463 1.996 . S
O468 C475 1.257 . S
C469 O464 1.254 . S
C469 O465 1.269 . S
C470 O471 1.249 . S
C470 O472 1.270 . S
O471 Zn463 1.943 . S
O471 C470 1.249 . S
O472 Zn462 2.067 . S
O472 C470 1.270 . S
C473 O466 1.262 . S
C473 O474 1.232 . S
O474 C473 1.232 . S
C475 O467 1.260 . S
C475 O468 1.257 . S
Zn476 O479 2.031 . S
Zn476 O481 2.049 . S
Zn476 O486 2.067 . S
Zn477 O478 1.962 . S
Zn477 O480 1.986 . S
Zn477 O482 1.996 . S
Zn477 O485 1.943 . S
O478 Zn477 1.962 . S
O478 C483 1.254 . S
O479 Zn476 2.031 . S
O479 C483 1.269 . S
O480 Zn477 1.986 . S
O480 C487 1.262 . S
O481 Zn476 2.049 . S
O481 C489 1.260 . S
O482 Zn477 1.996 . S
O482 C489 1.257 . S
C483 O478 1.254 . S
C483 O479 1.269 . S
C484 O485 1.249 . S
C484 O486 1.270 . S
O485 Zn477 1.943 . S
O485 C484 1.249 . S
O486 Zn476 2.067 . S
O486 C484 1.270 . S
C487 O480 1.262 . S
C487 O488 1.232 . S
O488 C487 1.232 . S
C489 O481 1.260 . S
C489 O482 1.257 . S
Zn490 O493 2.031 . S
Zn490 O495 2.049 . S
Zn490 O500 2.067 . S
Zn491 O492 1.962 . S
Zn491 O494 1.986 . S
Zn491 O496 1.996 . S
Zn491 O499 1.943 . S
O492 Zn491 1.962 . S
O492 C497 1.254 . S
O493 Zn490 2.031 . S
O493 C497 1.269 . S
O494 Zn491 1.986 . S
O494 C501 1.262 . S
O495 Zn490 2.049 . S
O495 C503 1.260 . S
O496 Zn491 1.996 . S
O496 C503 1.257 . S
C497 O492 1.254 . S
C497 O493 1.269 . S
C498 O499 1.249 . S
C498 O500 1.270 . S
O499 Zn491 1.943 . S
O499 C498 1.249 . S
O500 Zn490 2.067 . S
O500 C498 1.270 . S
C501 O494 1.262 . S
C501 O502 1.232 . S
O502 C501 1.232 . S
C503 O495 1.260 . S
C503 O496 1.257 . S
C13 C167 1.264 . S
C27 C139 1.264 . S
C153 C41 1.264 . S
C55 C111 1.264 . S
C125 C69 1.264 . S
C83 C97 1.264 . S
C335 C181 1.263 . S
C195 C307 1.264 . S
C209 C321 1.264 . S
C279 C223 1.264 . S
C237 C293 1.264 . S
C265 C251 1.263 . S
C349 C503 1.264 . S
C475 C363 1.264 . S
C489 C377 1.264 . S
C447 C391 1.263 . S
C461 C405 1.264 . S
C433 C419 1.264 . S
C7 C63 1.182 1_454 S
C77 C21 1.182 1_556 S
C35 C49 1.182 1_564 S
C91 C147 1.182 1_656 S
C105 C161 1.182 1_556 S
C119 C133 1.182 1_546 S
C231 C175 1.182 . S
C245 C189 1.182 . S
C203 C217 1.182 . S
C315 C259 1.182 . S
C329 C273 1.182 . S
C287 C301 1.182 . S
C399 C343 1.182 . S
C357 C413 1.182 . S
C371 C385 1.182 . S
C483 C427 1.182 . S
C441 C497 1.182 . S
C469 C455 1.182 . S
C414 C8 1.498 . S
C22 C386 1.498 . S
C36 C400 1.498 . S
C50 C190 1.498 . S
C204 C64 1.498 . S
C176 C78 1.499 . S
C92 C330 1.498 . S
C106 C302 1.498 . S
C120 C316 1.498 . S
C442 C134 1.498 . S
C456 C148 1.498 . S
C162 C428 1.498 . S
C358 C218 1.498 1_455 S
C232 C372 1.498 . S
C344 C246 1.498 1_565 S
C498 C260 1.498 1_565 S
C274 C470 1.498 1_655 S
C288 C484 1.498 . S
C11 C417 1.547 . S
C389 C25 1.547 . S
C39 C403 1.547 . S
C193 C53 1.547 . S
C67 C207 1.547 . S
C81 C179 1.547 . S
C333 C95 1.547 . S
C109 C305 1.547 . S
C123 C319 1.547 . S
C137 C445 1.547 . S
C459 C151 1.547 . S
C165 C431 1.547 . S
C361 C221 1.547 1_456 S
C235 C375 1.547 1_554 S
C249 C347 1.547 1_544 S
C501 C263 1.547 1_566 S
C473 C277 1.547 1_456 S
C291 C487 1.547 1_554 S
