# Generated by pormake.
# Topology upb, (4)-cn, num edge types: 1
# Building blocks:
#     Node 0, Type 0, BuildingBlock: ICAMEG_clean_sbu_1, # of connection points: 4
#     Node 1, Type 0, BuildingBlock: ICAMEG_clean_sbu_1, # of connection points: 4
#     Node 2, Type 0, BuildingBlock: ICAMEG_clean_sbu_1, # of connection points: 4
#     Node 3, Type 0, BuildingBlock: ICAMEG_clean_sbu_1, # of connection points: 4
#     Node 4, Type 0, BuildingBlock: ICAMEG_clean_sbu_1, # of connection points: 4
#     Node 5, Type 0, BuildingBlock: ICAMEG_clean_sbu_1, # of connection points: 4
#     Node 6, Type 0, BuildingBlock: ICAMEG_clean_sbu_1, # of connection points: 4
#     Node 7, Type 0, BuildingBlock: ICAMEG_clean_sbu_1, # of connection points: 4
#     Node 8, Type 0, BuildingBlock: ICAMEG_clean_sbu_1, # of connection points: 4
#     Node 9, Type 0, BuildingBlock: ICAMEG_clean_sbu_1, # of connection points: 4
#     Node 10, Type 0, BuildingBlock: ICAMEG_clean_sbu_1, # of connection points: 4
#     Node 11, Type 0, BuildingBlock: ICAMEG_clean_sbu_1, # of connection points: 4
#     Node 12, Type 0, BuildingBlock: ICAMEG_clean_sbu_1, # of connection points: 4
#     Node 13, Type 0, BuildingBlock: ICAMEG_clean_sbu_1, # of connection points: 4
#     Node 14, Type 0, BuildingBlock: ICAMEG_clean_sbu_1, # of connection points: 4
#     Node 15, Type 0, BuildingBlock: ICAMEG_clean_sbu_1, # of connection points: 4
#     Edge 16, Type (0, 0), BuildingBlock: CIFDUS_clean_linker_0, # of connection points: 2
#     Edge 17, Type (0, 0), BuildingBlock: CIFDUS_clean_linker_0, # of connection points: 2
#     Edge 18, Type (0, 0), BuildingBlock: CIFDUS_clean_linker_0, # of connection points: 2
#     Edge 19, Type (0, 0), BuildingBlock: CIFDUS_clean_linker_0, # of connection points: 2
#     Edge 20, Type (0, 0), BuildingBlock: CIFDUS_clean_linker_0, # of connection points: 2
#     Edge 21, Type (0, 0), BuildingBlock: CIFDUS_clean_linker_0, # of connection points: 2
#     Edge 22, Type (0, 0), BuildingBlock: CIFDUS_clean_linker_0, # of connection points: 2
#     Edge 23, Type (0, 0), BuildingBlock: CIFDUS_clean_linker_0, # of connection points: 2
#     Edge 24, Type (0, 0), BuildingBlock: CIFDUS_clean_linker_0, # of connection points: 2
#     Edge 25, Type (0, 0), BuildingBlock: CIFDUS_clean_linker_0, # of connection points: 2
#     Edge 26, Type (0, 0), BuildingBlock: CIFDUS_clean_linker_0, # of connection points: 2
#     Edge 27, Type (0, 0), BuildingBlock: CIFDUS_clean_linker_0, # of connection points: 2
#     Edge 28, Type (0, 0), BuildingBlock: CIFDUS_clean_linker_0, # of connection points: 2
#     Edge 29, Type (0, 0), BuildingBlock: CIFDUS_clean_linker_0, # of connection points: 2
#     Edge 30, Type (0, 0), BuildingBlock: CIFDUS_clean_linker_0, # of connection points: 2
#     Edge 31, Type (0, 0), BuildingBlock: CIFDUS_clean_linker_0, # of connection points: 2
#     Edge 32, Type (0, 0), BuildingBlock: CIFDUS_clean_linker_0, # of connection points: 2
#     Edge 33, Type (0, 0), BuildingBlock: CIFDUS_clean_linker_0, # of connection points: 2
#     Edge 34, Type (0, 0), BuildingBlock: CIFDUS_clean_linker_0, # of connection points: 2
#     Edge 35, Type (0, 0), BuildingBlock: CIFDUS_clean_linker_0, # of connection points: 2
#     Edge 36, Type (0, 0), BuildingBlock: CIFDUS_clean_linker_0, # of connection points: 2
#     Edge 37, Type (0, 0), BuildingBlock: CIFDUS_clean_linker_0, # of connection points: 2
#     Edge 38, Type (0, 0), BuildingBlock: CIFDUS_clean_linker_0, # of connection points: 2
#     Edge 39, Type (0, 0), BuildingBlock: CIFDUS_clean_linker_0, # of connection points: 2
#     Edge 40, Type (0, 0), BuildingBlock: CIFDUS_clean_linker_0, # of connection points: 2
#     Edge 41, Type (0, 0), BuildingBlock: CIFDUS_clean_linker_0, # of connection points: 2
#     Edge 42, Type (0, 0), BuildingBlock: CIFDUS_clean_linker_0, # of connection points: 2
#     Edge 43, Type (0, 0), BuildingBlock: CIFDUS_clean_linker_0, # of connection points: 2
#     Edge 44, Type (0, 0), BuildingBlock: CIFDUS_clean_linker_0, # of connection points: 2
#     Edge 45, Type (0, 0), BuildingBlock: CIFDUS_clean_linker_0, # of connection points: 2
#     Edge 46, Type (0, 0), BuildingBlock: CIFDUS_clean_linker_0, # of connection points: 2
#     Edge 47, Type (0, 0), BuildingBlock: CIFDUS_clean_linker_0, # of connection points: 2
# Relax obj value: 0.187
# Max RMSD: 0.053
# Mean RMSD: 0.053
data_MOF--net-upb--node1-ICAMEG_clean_sbu_1--edge1-CIFDUS_clean_linker_0
_symmetry_space_group_name_H-M    P1
_symmetry_Int_Tables_number       1
_symmetry_cell_setting            triclinic
loop_
_symmetry_equiv_pos_as_xyz
'x, y, z'
_cell_length_a     44.30167
_cell_length_b     44.305478
_cell_length_c     21.138789
_cell_angle_alpha  90.05164
_cell_angle_beta   89.967154
_cell_angle_gamma 90.046878
loop_
_atom_site_label
_atom_site_type_symbol
_atom_site_fract_x
_atom_site_fract_y
_atom_site_fract_z
_atom_type_partial_charge
Co0 Co 0.06282 0.17857 0.30806 0.0
Co1 Co 0.05443 0.24554 0.22605 0.0
O2 O 0.07871 0.21077 0.25393 0.0
C3 C 0.10076 0.14578 0.20959 0.0
O4 O 0.10571 0.17034 0.17659 0.0
C5 C 0.1075 0.274 0.28582 0.0
O6 O 0.1018 0.25722 0.33558 0.0
O7 O 0.04134 0.25455 0.31452 0.0
O8 O 0.03938 0.20847 0.35871 0.0
H9 H 0.96193 0.31097 0.21438 0.0
H10 H 0.12918 0.18546 0.29111 0.0
O11 O 0.08531 0.14657 0.26035 0.0
H12 H 0.11182 0.19266 0.52096 0.0
H13 H 0.06825 0.08197 0.43288 0.0
H14 H 0.00215 0.1644 0.35979 0.0
H15 H 0.06919 0.18494 0.44787 0.0
H16 H 0.08886 0.12374 0.36915 0.0
O17 O 0.09066 0.27227 0.23708 0.0
H18 H 0.99237 0.26784 0.25119 0.0
H19 H 0.06687 0.29788 0.14146 0.0
H20 H 0.98062 0.12307 0.42383 0.0
H21 H 0.17248 0.19285 0.36253 0.0
H22 H 0.01383 0.08131 0.46016 0.0
H23 H 0.16397 0.19646 0.47844 0.0
O24 O 0.02828 0.17275 0.24951 0.0
H25 H 0.12887 0.22483 0.05147 0.0
H26 H 0.0213 0.23832 0.1041 0.0
H27 H 0.03603 0.22814 0.99371 0.0
H28 H 0.09021 0.22158 0.96671 0.0
H29 H 0.11312 0.23468 0.16152 0.0
H30 H 0.03728 0.34141 0.10362 0.0
H31 H 0.98435 0.34805 0.13981 0.0
O32 O 0.01777 0.21958 0.21488 0.0
C33 C 0.03442 0.23675 0.35957 0.0
C34 C 0.98493 0.30825 0.19808 0.0
C35 C 0.02724 0.32537 0.13601 0.0
N36 N 0.03125 0.28018 0.19804 0.0
C37 C 0.00226 0.28384 0.21867 0.0
C38 C 0.04391 0.30072 0.15772 0.0
C39 C 0.99754 0.32908 0.1563 0.0
C40 C 0.12528 0.18663 0.34142 0.0
N41 N 0.0967 0.18427 0.36518 0.0
C42 C 0.1499 0.19101 0.38168 0.0
C43 C 0.1451 0.1931 0.44669 0.0
C44 C 0.11586 0.19097 0.47057 0.0
C45 C 0.09179 0.18663 0.42889 0.0
C46 C 0.0536 0.10002 0.41722 0.0
C47 C 0.01675 0.1465 0.37616 0.0
C48 C 0.06512 0.12373 0.38106 0.0
N49 N 0.04675 0.1466 0.36107 0.0
C50 C 0.00442 0.12311 0.41221 0.0
C51 C 0.02303 0.09971 0.43265 0.0
C52 C 0.01144 0.19163 0.22092 0.0
C53 C 0.10521 0.2277 0.06267 0.0
C54 C 0.04489 0.23504 0.093 0.0
C55 C 0.0531 0.22946 0.03026 0.0
C56 C 0.08349 0.22579 0.01513 0.0
N57 N 0.06633 0.23699 0.13939 0.0
C58 C 0.09616 0.23338 0.12488 0.0
Co59 Co 0.82369 0.08439 0.29022 0.0
Co60 Co 0.76256 0.05229 0.21343 0.0
O61 O 0.78979 0.08607 0.2317 0.0
C62 C 0.86264 0.09866 0.17811 0.0
O63 O 0.85599 0.07266 0.15181 0.0
C64 C 0.7232 0.0984 0.26961 0.0
O65 O 0.74296 0.09983 0.31568 0.0
O66 O 0.75926 0.04086 0.30482 0.0
O67 O 0.79889 0.06253 0.3536 0.0
H68 H 0.7257 0.94507 0.22315 0.0
H69 H 0.80407 0.14299 0.23673 0.0
O70 O 0.84955 0.10712 0.22876 0.0
H71 H 0.79722 0.15516 0.46826 0.0
H72 H 0.91728 0.12502 0.39553 0.0
H73 H 0.84964 0.03717 0.3733 0.0
H74 H 0.81481 0.10724 0.42165 0.0
H75 H 0.87169 0.12807 0.32898 0.0
O76 O 0.72731 0.08035 0.22334 0.0
H77 H 0.75936 0.98762 0.24958 0.0
H78 H 0.70674 0.0465 0.13592 0.0
H79 H 0.89487 0.03327 0.44085 0.0
H80 H 0.78642 0.19138 0.2813 0.0
H81 H 0.92936 0.07719 0.45105 0.0
H82 H 0.78289 0.19766 0.39786 0.0
O83 O 0.83707 0.04508 0.25401 0.0
H84 H 0.76163 0.12289 0.02715 0.0
H85 H 0.77497 0.01741 0.09567 0.0
H86 H 0.77972 0.03012 0.98249 0.0
H87 H 0.77293 0.08315 0.94757 0.0
H88 H 0.75732 0.10923 0.13996 0.0
H89 H 0.67233 0.00464 0.10872 0.0
H90 H 0.68186 0.95344 0.1521 0.0
O91 O 0.79735 0.02416 0.20413 0.0
C92 C 0.77503 0.04652 0.35392 0.0
C93 C 0.72135 0.96726 0.20382 0.0
C94 C 0.69137 0.00071 0.13967 0.0
N95 N 0.73514 0.01944 0.19393 0.0
C96 C 0.74036 0.99143 0.21852 0.0
C97 C 0.71087 0.02434 0.15541 0.0
C98 C 0.69675 0.97198 0.164 0.0
C99 C 0.80269 0.14563 0.2875 0.0
N100 N 0.8105 0.12237 0.32655 0.0
C101 C 0.79263 0.17304 0.31246 0.0
C102 C 0.79063 0.17654 0.37787 0.0
C103 C 0.79864 0.1527 0.41739 0.0
C104 C 0.80852 0.12559 0.39074 0.0
C105 C 0.90246 0.10569 0.39119 0.0
C106 C 0.86421 0.05659 0.37862 0.0
C107 C 0.87661 0.10726 0.35355 0.0
N108 N 0.85793 0.08284 0.34743 0.0
C109 C 0.88986 0.0542 0.41669 0.0
C110 C 0.90917 0.07888 0.42256 0.0
C111 C 0.8248 0.02381 0.22227 0.0
C112 C 0.76456 0.09967 0.04178 0.0
C113 C 0.77213 0.04057 0.08089 0.0
C114 C 0.77476 0.04761 0.01671 0.0
C115 C 0.77093 0.07738 0.99715 0.0
N116 N 0.76574 0.06254 0.12437 0.0
C117 C 0.76206 0.0918 0.10557 0.0
Co118 Co 0.94261 0.83192 0.2743 0.0
Co119 Co 0.94465 0.76144 0.2106 0.0
O120 O 0.92182 0.79775 0.23478 0.0
C121 C 0.89616 0.8612 0.18842 0.0
O122 O 0.8885 0.83579 0.16087 0.0
C123 C 0.89295 0.73423 0.2794 0.0
O124 O 0.89942 0.75192 0.32741 0.0
O125 O 0.95835 0.75609 0.29996 0.0
O126 O 0.97085 0.80416 0.31875 0.0
H127 H 0.03514 0.69313 0.20502 0.0
H128 H 0.87612 0.82561 0.28877 0.0
O129 O 0.91577 0.86183 0.23226 0.0
H130 H 0.91653 0.82787 0.5059 0.0
H131 H 0.95018 0.93316 0.38231 0.0
H132 H 0.00715 0.84697 0.29569 0.0
H133 H 0.95061 0.83197 0.41442 0.0
H134 H 0.92346 0.88993 0.33469 0.0
O135 O 0.90821 0.7359 0.22838 0.0
H136 H 0.00622 0.73821 0.23673 0.0
H137 H 0.92991 0.70665 0.13466 0.0
H138 H 0.03472 0.88961 0.34329 0.0
H139 H 0.84106 0.82219 0.37912 0.0
H140 H 0.00622 0.93313 0.3871 0.0
H141 H 0.86121 0.82338 0.48877 0.0
O142 O 0.97021 0.83438 0.20088 0.0
H143 H 0.86755 0.7788 0.04 0.0
H144 H 0.97563 0.76424 0.08541 0.0
H145 H 0.95916 0.77233 0.97524 0.0
H146 H 0.9047 0.7794 0.95201 0.0
H147 H 0.88513 0.77115 0.14951 0.0
H148 H 0.95789 0.66104 0.10243 0.0
H149 H 0.01098 0.65418 0.13725 0.0
O150 O 0.98223 0.78564 0.19241 0.0
C151 C 0.97126 0.77629 0.33334 0.0
C152 C 0.01206 0.69592 0.18933 0.0
C153 C 0.96869 0.6779 0.13181 0.0
N154 N 0.96654 0.72524 0.18697 0.0
C155 C 0.9956 0.72145 0.207 0.0
C156 C 0.95294 0.70373 0.15034 0.0
C157 C 0.99848 0.67407 0.15135 0.0
C158 C 0.88503 0.82651 0.33624 0.0
N159 N 0.91536 0.82937 0.34613 0.0
C160 C 0.86508 0.8244 0.38727 0.0
C161 C 0.87639 0.82501 0.44877 0.0
C162 C 0.90739 0.82758 0.45846 0.0
C163 C 0.92663 0.82976 0.40635 0.0
C164 C 0.96286 0.91431 0.36346 0.0
C165 C 0.99454 0.86574 0.31478 0.0
C166 C 0.94785 0.88978 0.33627 0.0
N167 N 0.9637 0.86581 0.31263 0.0
C168 C 0.0103 0.88986 0.34162 0.0
C169 C 0.9943 0.91428 0.36615 0.0
C170 C 0.98793 0.81352 0.18289 0.0
C171 C 0.89133 0.77558 0.04952 0.0
C172 C 0.95197 0.76751 0.07566 0.0
C173 C 0.94275 0.77198 0.01318 0.0
C174 C 0.91219 0.77599 1.00016 0.0
N175 N 0.93139 0.76709 0.12383 0.0
C176 C 0.90141 0.7711 0.11141 0.0
Co177 Co 0.17489 0.92284 0.29298 0.0
Co178 Co 0.23181 0.95111 0.19826 0.0
O179 O 0.20549 0.91868 0.22793 0.0
C180 C 0.13802 0.90481 0.18176 0.0
O181 O 0.15056 0.92669 0.14922 0.0
C182 C 0.27219 0.90664 0.25672 0.0
O183 O 0.2534 0.90741 0.30455 0.0
O184 O 0.23885 0.96693 0.28573 0.0
O185 O 0.20345 0.94557 0.3478 0.0
H186 H 0.2683 0.05805 0.17569 0.0
H187 H 0.18941 0.86224 0.24179 0.0
O188 O 0.14561 0.89993 0.23898 0.0
H189 H 0.20969 0.85589 0.47079 0.0
H190 H 0.088 0.88699 0.42741 0.0
H191 H 0.15501 0.97261 0.37693 0.0
H192 H 0.19075 0.90311 0.42358 0.0
H193 H 0.12786 0.88178 0.34651 0.0
O194 O 0.26747 0.92307 0.20806 0.0
H195 H 0.2368 0.01722 0.2198 0.0
H196 H 0.28396 0.95247 0.10936 0.0
H197 H 0.11567 0.97873 0.45836 0.0
H198 H 0.20817 0.81448 0.28709 0.0
H199 H 0.08186 0.9357 0.48433 0.0
H200 H 0.21849 0.81114 0.40236 0.0
O201 O 0.16066 0.96149 0.25577 0.0
H202 H 0.22927 0.87144 0.02955 0.0
H203 H 0.214 0.97947 0.0758 0.0
H204 H 0.20821 0.96103 0.96629 0.0
H205 H 0.21682 0.90664 0.94274 0.0
H206 H 0.23475 0.8908 0.13819 0.0
H207 H 0.31605 0.99259 0.06417 0.0
H208 H 0.30809 0.04585 0.09688 0.0
O209 O 0.19652 0.97931 0.19004 0.0
C210 C 0.22642 0.96243 0.33937 0.0
C211 C 0.27194 0.03493 0.16097 0.0
C212 C 0.29877 0.99819 0.09843 0.0
N213 N 0.25835 0.98255 0.16671 0.0
C214 C 0.25414 0.01172 0.18571 0.0
C215 C 0.2806 0.97556 0.12434 0.0
C216 C 0.29428 0.02807 0.11678 0.0
C217 C 0.19364 0.86086 0.29206 0.0
N218 N 0.18885 0.88535 0.33005 0.0
C219 C 0.20435 0.83381 0.31741 0.0
C220 C 0.21017 0.83196 0.38209 0.0
C221 C 0.20525 0.85706 0.42051 0.0
C222 C 0.19457 0.88374 0.39349 0.0
C223 C 0.10268 0.90587 0.41678 0.0
C224 C 0.14053 0.95371 0.38821 0.0
C225 C 0.12525 0.90307 0.37092 0.0
N226 N 0.14394 0.92679 0.35746 0.0
C227 C 0.11823 0.95733 0.43429 0.0
C228 C 0.09924 0.9332 0.44869 0.0
C229 C 0.17074 0.98121 0.21708 0.0
C230 C 0.22585 0.89518 0.03928 0.0
C231 C 0.21718 0.95577 0.06585 0.0
C232 C 0.21395 0.94546 0.00377 0.0
C233 C 0.21861 0.91499 0.99054 0.0
N234 N 0.22516 0.93632 0.1131 0.0
C235 C 0.22899 0.9063 0.10066 0.0
Co236 Co 0.07853 0.82416 0.77259 0.0
Co237 Co 0.04483 0.75541 0.80339 0.0
O238 O 0.07872 0.78367 0.80788 0.0
C239 C 0.09324 0.85615 0.89314 0.0
O240 O 0.06496 0.85565 0.91153 0.0
C241 C 0.09361 0.72408 0.73584 0.0
O242 O 0.09543 0.74811 0.69984 0.0
O243 O 0.03775 0.7638 0.7116 0.0
O244 O 0.05634 0.81028 0.69648 0.0
H245 H 0.93984 0.72141 0.74834 0.0
H246 H 0.136 0.79594 0.81298 0.0
O247 O 0.10198 0.83941 0.84753 0.0
H248 H 0.14983 0.81951 0.58685 0.0
H249 H 0.12449 0.92506 0.71821 0.0
H250 H 0.03215 0.86283 0.7121 0.0
H251 H 0.10239 0.83252 0.64136 0.0
H252 H 0.12486 0.87284 0.75832 0.0
O253 O 0.07408 0.7227 0.78011 0.0
H254 H 0.98232 0.75736 0.75339 0.0
H255 H 0.03681 0.69153 0.84408 0.0
H256 H 0.03089 0.91476 0.67017 0.0
H257 H 0.18395 0.78276 0.76049 0.0
H258 H 0.07723 0.9463 0.67338 0.0
H259 H 0.19107 0.79448 0.64656 0.0
O260 O 0.03933 0.83279 0.81472 0.0
H261 H 0.10726 0.73036 0.99478 0.0
H262 H 0.00451 0.75059 0.91595 0.0
H263 H 0.01214 0.73822 0.02866 0.0
H264 H 0.06375 0.72844 0.06892 0.0
H265 H 0.09861 0.74194 0.88214 0.0
H266 H 0.99501 0.65473 0.83944 0.0
H267 H 0.94606 0.66967 0.79161 0.0
O268 O 0.01561 0.78813 0.82654 0.0
C269 C 0.04258 0.78683 0.67693 0.0
C270 C 0.96102 0.71467 0.76953 0.0
C271 C 0.99201 0.67723 0.82057 0.0
N272 N 0.01187 0.72664 0.79963 0.0
C273 C 0.98511 0.73496 0.77274 0.0
C274 C 0.01561 0.69812 0.82292 0.0
C275 C 0.96454 0.68563 0.79375 0.0
C276 C 0.139 0.80132 0.7635 0.0
N277 N 0.1164 0.81505 0.73032 0.0
C278 C 0.16617 0.79371 0.73399 0.0
C279 C 0.17013 0.80025 0.67005 0.0
C280 C 0.14699 0.81426 0.6365 0.0
C281 C 0.12011 0.82147 0.66756 0.0
C282 C 0.10411 0.91157 0.71666 0.0
C283 C 0.05245 0.87637 0.71346 0.0
C284 C 0.10414 0.88204 0.73975 0.0
N285 N 0.07849 0.86486 0.73821 0.0
C286 C 0.05159 0.90577 0.68968 0.0
C287 C 0.07761 0.92347 0.69149 0.0
C288 C 0.0165 0.81692 0.8308 0.0
C289 C 0.08463 0.73474 0.9779 0.0
C290 C 0.02707 0.74628 0.93311 0.0
C291 C 0.03124 0.7394 0.99699 0.0
C292 C 0.06023 0.73371 0.01948 0.0
N293 N 0.05107 0.74686 0.89246 0.0
C294 C 0.07958 0.74132 0.91415 0.0
Co295 Co 0.17689 0.0483 0.72337 0.0
Co296 Co 0.24212 0.04296 0.81346 0.0
O297 O 0.20717 0.06587 0.78051 0.0
C298 C 0.13832 0.08442 0.81654 0.0
O299 O 0.16087 0.09278 0.85278 0.0
C300 C 0.2744 0.09363 0.75002 0.0
O301 O 0.26179 0.08581 0.69627 0.0
O302 O 0.25318 0.02775 0.7276 0.0
O303 O 0.20881 0.02662 0.6765 0.0
H304 H 0.3081 0.9517 0.84191 0.0
H305 H 0.17997 0.11482 0.74069 0.0
O306 O 0.14262 0.06874 0.76699 0.0
H307 H 0.19344 0.09797 0.51189 0.0
H308 H 0.08352 0.04787 0.58706 0.0
H309 H 0.16746 0.98689 0.67115 0.0
H310 H 0.18619 0.05497 0.58421 0.0
H311 H 0.12215 0.07104 0.65563 0.0
O312 O 0.26853 0.07923 0.80073 0.0
H313 H 0.26539 0.98054 0.79804 0.0
H314 H 0.29318 0.05852 0.89965 0.0
H315 H 0.12945 0.9629 0.60217 0.0
H316 H 0.18678 0.15849 0.66997 0.0
H317 H 0.08695 0.9934 0.56019 0.0
H318 H 0.19351 0.15022 0.55459 0.0
O319 O 0.17128 0.01365 0.78152 0.0
H320 H 0.22082 0.12236 0.97701 0.0
H321 H 0.2344 0.01338 0.93929 0.0
H322 H 0.22666 0.03187 0.04815 0.0
H323 H 0.22125 0.08681 0.0676 0.0
H324 H 0.22833 0.10293 0.86876 0.0
H325 H 0.33625 0.03054 0.9444 0.0
H326 H 0.34382 0.97668 0.91588 0.0
O327 O 0.21659 0.0063 0.82719 0.0
C328 C 0.23686 0.02123 0.68004 0.0
C329 C 0.30499 0.97513 0.85484 0.0
C330 C 0.32083 0.0194 0.91224 0.0
N331 N 0.27663 0.02111 0.84664 0.0
C332 C 0.28081 0.99157 0.83023 0.0
C333 C 0.29645 0.03515 0.88657 0.0
C334 C 0.32505 0.98917 0.89628 0.0
C335 C 0.18255 0.11102 0.69057 0.0
N336 N 0.18218 0.08238 0.66666 0.0
C337 C 0.18657 0.13585 0.65073 0.0
C338 C 0.19041 0.13119 0.58602 0.0
C339 C 0.19036 0.10189 0.56203 0.0
C340 C 0.18628 0.07762 0.60329 0.0
C341 C 0.10192 0.03435 0.60515 0.0
C342 C 0.14924 0.0004 0.65241 0.0
C343 C 0.12386 0.04733 0.64407 0.0
N344 N 0.14718 0.03039 0.66708 0.0
C345 C 0.12773 0.98667 0.61357 0.0
C346 C 0.10389 0.00379 0.59 0.0
C347 C 0.18936 0.99867 0.81618 0.0
C348 C 0.22358 0.09839 0.96906 0.0
C349 C 0.23092 0.03723 0.94716 0.0
C350 C 0.22677 0.04756 0.00897 0.0
C351 C 0.22351 0.07839 0.01989 0.0
N352 N 0.23204 0.0571 0.89774 0.0
C353 C 0.22784 0.08725 0.90791 0.0
Co354 Co 0.93119 0.17141 0.7214 0.0
Co355 Co 0.94384 0.22945 0.82829 0.0
O356 O 0.91774 0.1992 0.78751 0.0
C357 C 0.90398 0.12932 0.81716 0.0
O358 O 0.91283 0.14649 0.86425 0.0
C359 C 0.89349 0.26582 0.77652 0.0
O360 O 0.89819 0.25231 0.7221 0.0
O361 O 0.95986 0.24407 0.74485 0.0
O362 O 0.95415 0.20426 0.67975 0.0
H363 H 0.04116 0.2839 0.87265 0.0
H364 H 0.86594 0.17688 0.74956 0.0
O365 O 0.90855 0.13708 0.76006 0.0
H366 H 0.87637 0.20412 0.52442 0.0
H367 H 0.91872 0.08559 0.56773 0.0
H368 H 0.98957 0.16044 0.65623 0.0
H369 H 0.92096 0.18968 0.58721 0.0
H370 H 0.90152 0.12262 0.64667 0.0
O371 O 0.91002 0.25957 0.82408 0.0
H372 H 0.00806 0.2479 0.81675 0.0
H373 H 0.93344 0.27549 0.92895 0.0
H374 H 0.00759 0.12418 0.57586 0.0
H375 H 0.82065 0.19102 0.6884 0.0
H376 H 0.97204 0.08613 0.53187 0.0
H377 H 0.82574 0.20473 0.57495 0.0
O378 O 0.96732 0.16009 0.772 0.0
H379 H 0.86309 0.19913 0.98271 0.0
H380 H 0.97271 0.2109 0.95001 0.0
H381 H 0.95379 0.19244 0.05274 0.0
H382 H 0.89851 0.18667 0.06946 0.0
H383 H 0.88295 0.21724 0.8806 0.0
H384 H 0.96568 0.312 0.98567 0.0
H385 H 0.02003 0.31612 0.9581 0.0
O386 O 0.97793 0.20007 0.83363 0.0
C387 C 0.96315 0.23093 0.69149 0.0
C388 C 0.01753 0.28225 0.88523 0.0
C389 C 0.97516 0.29805 0.9486 0.0
N390 N 0.96892 0.2594 0.86995 0.0
C391 C 0.99869 0.26188 0.8538 0.0
C392 C 0.95699 0.27742 0.91613 0.0
C393 C 0.00566 0.30034 0.93312 0.0
C394 C 0.86826 0.1827 0.70015 0.0
N395 N 0.896 0.18234 0.67194 0.0
C396 C 0.84258 0.19076 0.6658 0.0
C397 C 0.84545 0.19849 0.60217 0.0
C398 C 0.87385 0.19817 0.57379 0.0
C399 C 0.89903 0.19005 0.60964 0.0
C400 C 0.93439 0.10207 0.58646 0.0
C401 C 0.97391 0.14428 0.63636 0.0
C402 C 0.92481 0.12305 0.63141 0.0
N403 N 0.94451 0.14375 0.65592 0.0
C404 C 0.98426 0.12373 0.59112 0.0
C405 C 0.96433 0.10243 0.56634 0.0
C406 C 0.98401 0.17394 0.8118 0.0
C407 C 0.88718 0.20169 0.97595 0.0
C408 C 0.94867 0.20823 0.95686 0.0
C409 C 0.93809 0.19786 0.01521 0.0
C410 C 0.90712 0.19462 0.02464 0.0
N411 N 0.92893 0.2153 0.9094 0.0
C412 C 0.89855 0.21206 0.91832 0.0
Co413 Co 0.81608 0.90742 0.72165 0.0
Co414 Co 0.76155 0.94664 0.80522 0.0
O415 O 0.78457 0.91017 0.78559 0.0
C416 C 0.85591 0.89081 0.831 0.0
O417 O 0.85253 0.91776 0.85573 0.0
C418 C 0.71651 0.90402 0.75562 0.0
O419 O 0.73496 0.90039 0.70773 0.0
O420 O 0.75722 0.95804 0.71393 0.0
O421 O 0.79133 0.93048 0.66045 0.0
H422 H 0.73721 0.05737 0.79772 0.0
H423 H 0.79315 0.85211 0.78431 0.0
O424 O 0.84178 0.8833 0.78098 0.0
H425 H 0.77429 0.83683 0.55661 0.0
H426 H 0.8983 0.85423 0.60091 0.0
H427 H 0.84283 0.9498 0.62823 0.0
H428 H 0.79914 0.88323 0.59473 0.0
H429 H 0.85772 0.85839 0.68 0.0
O430 O 0.72322 0.92232 0.80014 0.0
H431 H 0.76497 0.01121 0.7683 0.0
H432 H 0.70833 0.9588 0.8876 0.0
H433 H 0.88293 0.94642 0.54748 0.0
H434 H 0.76835 0.80529 0.7482 0.0
H435 H 0.91094 0.89831 0.53324 0.0
H436 H 0.7587 0.79747 0.63362 0.0
O437 O 0.83456 0.94617 0.75143 0.0
H438 H 0.75361 0.87836 0.99423 0.0
H439 H 0.78066 0.98041 0.92049 0.0
H440 H 0.78361 0.96851 0.03437 0.0
H441 H 0.76907 0.91741 0.0719 0.0
H442 H 0.7514 0.89108 0.88078 0.0
H443 H 0.67977 0.00437 0.91788 0.0
H444 H 0.69435 0.05414 0.87323 0.0
O445 O 0.79955 0.97078 0.80937 0.0
C446 C 0.7701 0.94972 0.66283 0.0
C447 C 0.73069 0.03583 0.81761 0.0
C448 C 0.69842 0.00607 0.88496 0.0
N449 N 0.7384 0.98238 0.82652 0.0
C450 C 0.74635 0.00961 0.8012 0.0
C451 C 0.71458 0.98033 0.86744 0.0
C452 C 0.70662 0.03399 0.85994 0.0
C453 C 0.78924 0.84875 0.73432 0.0
N454 N 0.7977 0.87031 0.69167 0.0
C455 C 0.7751 0.82224 0.71418 0.0
C456 C 0.76966 0.81788 0.64988 0.0
C457 C 0.77839 0.83997 0.60665 0.0
C458 C 0.79241 0.86621 0.62853 0.0
C459 C 0.88618 0.87525 0.60629 0.0
C460 C 0.85479 0.92874 0.62206 0.0
C461 C 0.86325 0.8778 0.6513 0.0
N462 N 0.84778 0.90428 0.65854 0.0
C463 C 0.87754 0.92699 0.57638 0.0
C464 C 0.89327 0.90001 0.56846 0.0
C465 C 0.82581 0.9687 0.78476 0.0
C466 C 0.75966 0.90079 0.97844 0.0
C467 C 0.77498 0.95795 0.93641 0.0
C468 C 0.77653 0.9514 1.00096 0.0
C469 C 0.76853 0.92268 0.022 0.0
N470 N 0.76558 0.93655 0.89412 0.0
C471 C 0.7584 0.90815 0.91427 0.0
Co472 Co 0.57292 0.68576 0.7788 0.0
Co473 Co 0.54215 0.73783 0.67548 0.0
O474 O 0.57577 0.71397 0.70871 0.0
C475 C 0.59242 0.64391 0.67688 0.0
O476 O 0.56993 0.65359 0.642 0.0
C477 C 0.58547 0.78241 0.72355 0.0
O478 O 0.58476 0.76688 0.77628 0.0
O479 O 0.52678 0.74808 0.76218 0.0
O480 O 0.54838 0.71479 0.82851 0.0
H481 H 0.43435 0.77206 0.65564 0.0
H482 H 0.63287 0.70165 0.7264 0.0
O483 O 0.59765 0.65559 0.73085 0.0
H484 H 0.63673 0.73141 0.95113 0.0
H485 H 0.61144 0.60495 0.92569 0.0
H486 H 0.52333 0.6659 0.86293 0.0
H487 H 0.59101 0.70767 0.90675 0.0
H488 H 0.61606 0.64364 0.84217 0.0
O489 O 0.56921 0.77436 0.67662 0.0
H490 H 0.47618 0.74196 0.69967 0.0
H491 H 0.53831 0.78569 0.57708 0.0
H492 H 0.51767 0.62738 0.94602 0.0
H493 H 0.67914 0.7252 0.7689 0.0
H494 H 0.56178 0.59635 0.97741 0.0
H495 H 0.68121 0.74032 0.882 0.0
O496 O 0.53528 0.66818 0.74324 0.0
H497 H 0.61976 0.72584 0.50333 0.0
H498 H 0.51241 0.71399 0.55951 0.0
H499 H 0.52945 0.7005 0.45214 0.0
H500 H 0.58353 0.70638 0.42345 0.0
H501 H 0.60169 0.73912 0.61023 0.0
H502 H 0.49711 0.81613 0.53137 0.0
H503 H 0.4447 0.80938 0.57069 0.0
O504 O 0.51514 0.70165 0.6752 0.0
C505 C 0.53111 0.73707 0.81723 0.0
C506 C 0.45711 0.77525 0.63821 0.0
C507 C 0.49233 0.79999 0.56847 0.0
N508 N 0.50963 0.76201 0.64082 0.0
C509 C 0.48087 0.75823 0.66287 0.0
C510 C 0.51556 0.78272 0.59457 0.0
C511 C 0.46293 0.79621 0.59058 0.0
C512 C 0.63374 0.70795 0.77579 0.0
N513 N 0.60937 0.70316 0.81413 0.0
C514 C 0.65993 0.72136 0.79953 0.0
C515 C 0.66107 0.72987 0.86298 0.0
C516 C 0.63611 0.72489 0.90179 0.0
C517 C 0.61028 0.71147 0.87639 0.0
C518 C 0.59204 0.61834 0.91237 0.0
C519 C 0.5428 0.65282 0.87696 0.0
C520 C 0.59452 0.64029 0.86519 0.0
N521 N 0.57004 0.65715 0.84799 0.0
C522 C 0.53943 0.63099 0.924 0.0
C523 C 0.56422 0.6136 0.94159 0.0
C524 C 0.5148 0.67644 0.70446 0.0
C525 C 0.59613 0.72326 0.51521 0.0
C526 C 0.53595 0.71665 0.54739 0.0
C527 C 0.54547 0.70896 0.48648 0.0
C528 C 0.5758 0.7123 0.47041 0.0
N529 N 0.55597 0.72761 0.59094 0.0
C530 C 0.58576 0.73083 0.57562 0.0
Co531 Co 0.31761 0.57414 0.78924 0.0
Co532 Co 0.25865 0.55335 0.69081 0.0
O533 O 0.28654 0.58324 0.72688 0.0
C534 C 0.35314 0.60242 0.68539 0.0
O535 O 0.33627 0.58912 0.64265 0.0
C536 C 0.21934 0.59654 0.75562 0.0
O537 O 0.23693 0.59257 0.80478 0.0
O538 O 0.24998 0.5348 0.77535 0.0
O539 O 0.2892 0.54813 0.83682 0.0
H540 H 0.21544 0.44992 0.65337 0.0
H541 H 0.30344 0.63778 0.75897 0.0
O542 O 0.34739 0.59992 0.74408 0.0
H543 H 0.28448 0.62755 0.9879 0.0
H544 H 0.40491 0.59876 0.93315 0.0
H545 H 0.3378 0.51834 0.85365 0.0
H546 H 0.30263 0.58418 0.9254 0.0
H547 H 0.36466 0.61039 0.85633 0.0
O548 O 0.22461 0.58261 0.70395 0.0
H549 H 0.24959 0.48719 0.70249 0.0
H550 H 0.2073 0.558 0.60051 0.0
H551 H 0.37776 0.5057 0.93027 0.0
H552 H 0.28546 0.68185 0.81977 0.0
H553 H 0.41167 0.54613 0.97064 0.0
H554 H 0.27585 0.67685 0.93508 0.0
O555 O 0.33158 0.53908 0.7383 0.0
H556 H 0.27123 0.63809 0.53473 0.0
H557 H 0.27546 0.52784 0.5651 0.0
H558 H 0.28704 0.5493 0.46025 0.0
H559 H 0.28495 0.6048 0.44454 0.0
H560 H 0.26001 0.61569 0.63898 0.0
H561 H 0.17244 0.52157 0.55079 0.0
H562 H 0.17659 0.46706 0.57671 0.0
O563 O 0.29229 0.52396 0.67834 0.0
C564 C 0.26429 0.53457 0.82766 0.0
C565 C 0.21351 0.47359 0.64144 0.0
C566 C 0.18934 0.51381 0.58394 0.0
N567 N 0.23069 0.52465 0.65376 0.0
C568 C 0.23285 0.49477 0.66895 0.0
C569 C 0.20907 0.53434 0.61238 0.0
C570 C 0.19169 0.48323 0.59849 0.0
C571 C 0.29946 0.63553 0.8092 0.0
N572 N 0.30416 0.60851 0.83863 0.0
C573 C 0.28921 0.66051 0.84334 0.0
C574 C 0.28378 0.65768 0.90803 0.0
C575 C 0.28861 0.63002 0.9377 0.0
C576 C 0.29881 0.60552 0.90203 0.0
C577 C 0.39024 0.58098 0.91603 0.0
C578 C 0.35234 0.53606 0.87127 0.0
C579 C 0.36743 0.58742 0.87252 0.0
N580 N 0.34873 0.5651 0.85096 0.0
C581 C 0.37498 0.52877 0.91458 0.0
C582 C 0.39401 0.55143 0.93709 0.0
C583 C 0.31938 0.52137 0.69811 0.0
C584 C 0.27216 0.61387 0.54097 0.0
C585 C 0.2746 0.55203 0.55875 0.0
C586 C 0.2811 0.56404 0.49919 0.0
C587 C 0.27989 0.59518 0.4904 0.0
N588 N 0.26696 0.5705 0.60811 0.0
C589 C 0.26573 0.60105 0.59984 0.0
Co590 Co 0.41063 0.31752 0.7649 0.0
Co591 Co 0.44691 0.26377 0.67386 0.0
O592 O 0.41182 0.28799 0.69712 0.0
C593 C 0.39528 0.36244 0.66405 0.0
O594 O 0.42262 0.36056 0.64059 0.0
C595 C 0.40121 0.22095 0.71814 0.0
O596 O 0.39959 0.23867 0.76767 0.0
O597 O 0.45855 0.25618 0.76419 0.0
O598 O 0.4335 0.29057 0.82221 0.0
H599 H 0.5562 0.23332 0.67485 0.0
H600 H 0.35391 0.29849 0.70188 0.0
O601 O 0.38697 0.34555 0.70956 0.0
H602 H 0.34045 0.27259 0.927 0.0
H603 H 0.36033 0.3968 0.89899 0.0
H604 H 0.45476 0.34105 0.85865 0.0
H605 H 0.38714 0.29738 0.89031 0.0
H606 H 0.36296 0.35874 0.81405 0.0
O607 O 0.42021 0.22678 0.67431 0.0
H608 H 0.51178 0.26256 0.70936 0.0
H609 H 0.45569 0.21263 0.58437 0.0
H610 H 0.45305 0.37891 0.94433 0.0
H611 H 0.30679 0.27381 0.73661 0.0
H612 H 0.40546 0.40691 0.96485 0.0
H613 H 0.2999 0.26058 0.84986 0.0
O614 O 0.44975 0.33526 0.73597 0.0
H615 H 0.3775 0.26808 0.48577 0.0
H616 H 0.48149 0.28465 0.56129 0.0
H617 H 0.46929 0.29385 0.44906 0.0
H618 H 0.41702 0.28523 0.41056 0.0
H619 H 0.39063 0.25938 0.59767 0.0
H620 H 0.49947 0.18262 0.54893 0.0
H621 H 0.5502 0.1931 0.59387 0.0
O622 O 0.47311 0.3006 0.67475 0.0
C623 C 0.45164 0.26851 0.81682 0.0
C624 C 0.53422 0.22858 0.65482 0.0
C625 C 0.50237 0.20009 0.58422 0.0
N626 N 0.48122 0.2394 0.64864 0.0
C627 C 0.50899 0.24509 0.67412 0.0
C628 C 0.47764 0.21705 0.60468 0.0
C629 C 0.53083 0.206 0.60942 0.0
C630 C 0.35093 0.29309 0.75135 0.0
N631 N 0.37317 0.29953 0.79405 0.0
C632 C 0.32426 0.27901 0.77069 0.0
C633 C 0.32043 0.27155 0.83423 0.0
C634 C 0.34318 0.27827 0.87753 0.0
C635 C 0.36957 0.29229 0.85647 0.0
C636 C 0.38114 0.38466 0.89045 0.0
C637 C 0.43399 0.35314 0.86749 0.0
C638 C 0.3828 0.36313 0.84235 0.0
N639 N 0.40894 0.34751 0.83172 0.0
C640 C 0.43318 0.37458 0.91596 0.0
C641 C 0.40651 0.39033 0.92747 0.0
C642 C 0.47199 0.3264 0.70192 0.0
C643 C 0.40039 0.27175 0.50193 0.0
C644 C 0.45865 0.2811 0.54497 0.0
C645 C 0.4519 0.28625 0.48134 0.0
C646 C 0.42257 0.28144 0.45977 0.0
N647 N 0.43685 0.27125 0.58589 0.0
C648 C 0.40798 0.26678 0.56522 0.0
Co649 Co 0.66911 0.4379 0.79216 0.0
Co650 Co 0.73496 0.44756 0.70608 0.0
O651 O 0.70032 0.42288 0.7342 0.0
C652 C 0.63399 0.40369 0.69113 0.0
O653 O 0.65766 0.40057 0.65446 0.0
C654 C 0.76563 0.39294 0.75614 0.0
O655 O 0.75109 0.39708 0.80961 0.0
O656 O 0.74569 0.45818 0.79518 0.0
O657 O 0.70044 0.45897 0.84356 0.0
H658 H 0.80139 0.53958 0.69918 0.0
H659 H 0.67483 0.37217 0.76644 0.0
O660 O 0.63599 0.41727 0.74406 0.0
H661 H 0.68317 0.38247 0.99797 0.0
H662 H 0.57224 0.43327 0.91709 0.0
H663 H 0.6587 0.49683 0.85495 0.0
H664 H 0.67584 0.42734 0.93081 0.0
H665 H 0.61296 0.41251 0.85064 0.0
O666 O 0.76153 0.4109 0.70989 0.0
H667 H 0.75869 0.50859 0.73646 0.0
H668 H 0.78533 0.43697 0.61509 0.0
H669 H 0.61924 0.51797 0.92438 0.0
H670 H 0.68172 0.32669 0.83191 0.0
H671 H 0.57547 0.4862 0.95539 0.0
H672 H 0.68587 0.33168 0.94864 0.0
O673 O 0.66318 0.4742 0.73849 0.0
H674 H 0.70988 0.37793 0.52549 0.0
H675 H 0.72576 0.4839 0.58873 0.0
H676 H 0.71318 0.47202 0.47786 0.0
H677 H 0.70546 0.41873 0.44565 0.0
H678 H 0.72207 0.39079 0.63613 0.0
H679 H 0.82834 0.46717 0.57649 0.0
H680 H 0.8365 0.51893 0.61835 0.0
O681 O 0.70953 0.48481 0.70149 0.0
C682 C 0.72879 0.46371 0.84267 0.0
C683 C 0.79803 0.51708 0.68046 0.0
C684 C 0.81319 0.47642 0.61169 0.0
N685 N 0.76937 0.4711 0.67769 0.0
C686 C 0.77387 0.49945 0.70136 0.0
C687 C 0.78883 0.4594 0.63386 0.0
C688 C 0.81774 0.50548 0.63515 0.0
C689 C 0.67632 0.37453 0.81715 0.0
N690 N 0.67455 0.40238 0.84468 0.0
C691 C 0.68036 0.34869 0.85402 0.0
C692 C 0.68273 0.3515 0.9195 0.0
C693 C 0.68118 0.38 0.94722 0.0
C694 C 0.6771 0.40533 0.90887 0.0
C695 C 0.59123 0.44733 0.90399 0.0
C696 C 0.64005 0.48265 0.86932 0.0
C697 C 0.61434 0.43572 0.86617 0.0
N698 N 0.6383 0.45339 0.84902 0.0
C699 C 0.61765 0.49483 0.90823 0.0
C700 C 0.59306 0.47702 0.92549 0.0
C701 C 0.68191 0.49151 0.71063 0.0
C702 C 0.71328 0.40125 0.53904 0.0
C703 C 0.72197 0.46066 0.57533 0.0
C704 C 0.71504 0.45408 0.51236 0.0
C705 C 0.71071 0.42416 0.49425 0.0
N706 N 0.72457 0.43805 0.61904 0.0
C707 C 0.7203 0.40866 0.60157 0.0
Co708 Co 0.5943 0.32141 0.18686 0.0
Co709 Co 0.55378 0.26538 0.26245 0.0
O710 O 0.59047 0.28852 0.24696 0.0
C711 C 0.60914 0.3567 0.30336 0.0
O712 O 0.5824 0.3507 0.32687 0.0
C713 C 0.59655 0.22142 0.21048 0.0
O714 O 0.60004 0.24056 0.16384 0.0
O715 O 0.54374 0.26294 0.17011 0.0
O716 O 0.57167 0.29841 0.12132 0.0
H717 H 0.44343 0.24046 0.24403 0.0
H718 H 0.64842 0.29619 0.25016 0.0
O719 O 0.61751 0.34533 0.2509 0.0
H720 H 0.66718 0.28421 0.0215 0.0
H721 H 0.64993 0.40761 0.08514 0.0
H722 H 0.55379 0.35148 0.09395 0.0
H723 H 0.62033 0.3081 0.05979 0.0
H724 H 0.64447 0.36331 0.15447 0.0
O725 O 0.57833 0.2273 0.25564 0.0
H726 H 0.48981 0.26934 0.22144 0.0
H727 H 0.54052 0.21069 0.33934 0.0
H728 H 0.55851 0.39548 0.02289 0.0
H729 H 0.69566 0.27225 0.21397 0.0
H730 H 0.60683 0.42409 0.01941 0.0
H731 H 0.70525 0.26611 0.09889 0.0
O732 O 0.55543 0.33948 0.21629 0.0
H733 H 0.61999 0.25768 0.45508 0.0
H734 H 0.51802 0.28183 0.37679 0.0
H735 H 0.52876 0.28541 0.49105 0.0
H736 H 0.57998 0.2731 0.53092 0.0
H737 H 0.60837 0.25468 0.3411 0.0
H738 H 0.49471 0.18103 0.36291 0.0
H739 H 0.44569 0.19599 0.31538 0.0
O740 O 0.52962 0.30326 0.26835 0.0
C741 C 0.55234 0.27709 0.12065 0.0
C742 C 0.46464 0.23375 0.26514 0.0
C743 C 0.49343 0.20036 0.33177 0.0
N744 N 0.51779 0.24179 0.27933 0.0
C745 C 0.49097 0.25004 0.25259 0.0
C746 C 0.51931 0.21717 0.31808 0.0
C747 C 0.46593 0.20879 0.30513 0.0
C748 C 0.65252 0.29371 0.2 0.0
N749 N 0.63167 0.30354 0.15712 0.0
C750 C 0.67927 0.28009 0.17979 0.0
C751 C 0.68462 0.27662 0.11521 0.0
C752 C 0.66326 0.28675 0.07177 0.0
C753 C 0.63674 0.30018 0.09372 0.0
C754 C 0.62881 0.39531 0.08647 0.0
C755 C 0.57499 0.36354 0.09163 0.0
C756 C 0.62553 0.37025 0.12579 0.0
N757 N 0.59882 0.35478 0.12821 0.0
C758 C 0.57749 0.38848 0.05153 0.0
C759 C 0.60458 0.40449 0.04935 0.0
C760 C 0.53236 0.33009 0.24705 0.0
C761 C 0.59754 0.263 0.4383 0.0
C762 C 0.54044 0.27664 0.3937 0.0
C763 C 0.54634 0.2786 0.45849 0.0
C764 C 0.5751 0.27169 0.48083 0.0
N765 N 0.56251 0.26789 0.35232 0.0
C766 C 0.59081 0.26126 0.37383 0.0
Co767 Co 0.67611 0.57225 0.21869 0.0
Co768 Co 0.73647 0.55356 0.31419 0.0
O769 O 0.70734 0.5822 0.27956 0.0
C770 C 0.63764 0.59754 0.32151 0.0
O771 O 0.64781 0.57683 0.36038 0.0
C772 C 0.77295 0.59997 0.25165 0.0
O773 O 0.75607 0.59437 0.20205 0.0
O774 O 0.7458 0.5362 0.22869 0.0
O775 O 0.70412 0.54559 0.17107 0.0
H776 H 0.78435 0.45208 0.34876 0.0
H777 H 0.69013 0.63644 0.24566 0.0
O778 O 0.64726 0.59912 0.26483 0.0
H779 H 0.70823 0.62345 0.01702 0.0
H780 H 0.58752 0.59584 0.07853 0.0
H781 H 0.65605 0.51607 0.15433 0.0
H782 H 0.69045 0.58078 0.08195 0.0
H783 H 0.62789 0.6077 0.15452 0.0
O784 O 0.76887 0.5851 0.30269 0.0
H785 H 0.7489 0.48804 0.29977 0.0
H786 H 0.78739 0.5601 0.40495 0.0
H787 H 0.6164 0.50333 0.07675 0.0
H788 H 0.70771 0.67981 0.18236 0.0
H789 H 0.5818 0.54338 0.0382 0.0
H790 H 0.71693 0.67342 0.0672 0.0
O791 O 0.66308 0.53717 0.27067 0.0
H792 H 0.71816 0.63574 0.4742 0.0
H793 H 0.72093 0.52582 0.4383 0.0
H794 H 0.70735 0.54536 0.54383 0.0
H795 H 0.7059 0.60071 0.56231 0.0
H796 H 0.73139 0.61521 0.36923 0.0
H797 H 0.82348 0.52497 0.45474 0.0
H798 H 0.82187 0.47049 0.42716 0.0
O799 O 0.7043 0.52213 0.32478 0.0
C800 C 0.73008 0.53384 0.17831 0.0
C801 C 0.78519 0.47575 0.36137 0.0
C802 C 0.80719 0.51667 0.42075 0.0
N803 N 0.76585 0.52604 0.35007 0.0
C804 C 0.76512 0.49619 0.3339 0.0
C805 C 0.78678 0.53646 0.39226 0.0
C806 C 0.80626 0.4861 0.40529 0.0
C807 C 0.69384 0.63358 0.19546 0.0
N808 N 0.6891 0.60617 0.16748 0.0
C809 C 0.70391 0.65817 0.15991 0.0
C810 C 0.70912 0.65456 0.09532 0.0
C811 C 0.70425 0.62653 0.06713 0.0
C812 C 0.69423 0.60243 0.10418 0.0
C813 C 0.60254 0.57819 0.0945 0.0
C814 C 0.64123 0.53366 0.13737 0.0
C815 C 0.62537 0.58476 0.13788 0.0
N816 N 0.64447 0.56265 0.15848 0.0
C817 C 0.61875 0.52629 0.09363 0.0
C818 C 0.59933 0.54877 0.07205 0.0
C819 C 0.67683 0.51897 0.30756 0.0
C820 C 0.71878 0.61158 0.46676 0.0
C821 C 0.72031 0.54993 0.44592 0.0
C822 C 0.71266 0.56086 0.50583 0.0
C823 C 0.71187 0.59191 0.51617 0.0
N824 N 0.7271 0.56935 0.39769 0.0
C825 C 0.72637 0.59982 0.40747 0.0
Co826 Co 0.43582 0.68343 0.2103 0.0
Co827 Co 0.44918 0.74944 0.29459 0.0
O828 O 0.42372 0.71513 0.26931 0.0
C829 C 0.43278 0.62839 0.28775 0.0
O830 O 0.46159 0.6255 0.27452 0.0
C831 C 0.39792 0.77859 0.22972 0.0
O832 O 0.4018 0.75887 0.18411 0.0
O833 O 0.46395 0.75624 0.20606 0.0
O834 O 0.45302 0.71389 0.15167 0.0
H835 H 0.54442 0.81097 0.30661 0.0
H836 H 0.3725 0.68528 0.25522 0.0
O837 O 0.41851 0.65172 0.26857 0.0
H838 H 0.36651 0.69668 0.0235 0.0
H839 H 0.42122 0.58833 0.08228 0.0
H840 H 0.49138 0.67082 0.13691 0.0
H841 H 0.41578 0.69078 0.07625 0.0
H842 H 0.406 0.62821 0.15733 0.0
O843 O 0.41457 0.77772 0.27889 0.0
H844 H 0.51248 0.76859 0.27113 0.0
H845 H 0.43822 0.80358 0.37492 0.0
H846 H 0.50768 0.63119 0.06249 0.0
H847 H 0.3227 0.69083 0.2043 0.0
H848 H 0.47239 0.58969 0.03422 0.0
H849 H 0.31951 0.69659 0.0876 0.0
O850 O 0.47585 0.67996 0.25276 0.0
H851 H 0.37135 0.73323 0.46449 0.0
H852 H 0.48015 0.74271 0.41918 0.0
H853 H 0.46325 0.73319 0.52841 0.0
H854 H 0.40854 0.72902 0.55196 0.0
H855 H 0.38922 0.74175 0.35537 0.0
H856 H 0.46931 0.84638 0.41142 0.0
H857 H 0.52287 0.85019 0.37749 0.0
O858 O 0.48419 0.7222 0.30951 0.0
C859 C 0.46369 0.7405 0.15545 0.0
C860 C 0.52114 0.80952 0.32186 0.0
C861 C 0.47897 0.82943 0.38059 0.0
N862 N 0.4736 0.78349 0.32131 0.0
C863 C 0.50296 0.78555 0.30199 0.0
C864 C 0.46146 0.80518 0.35965 0.0
C865 C 0.50903 0.83153 0.36158 0.0
C866 C 0.37125 0.68754 0.20438 0.0
N867 N 0.39698 0.68745 0.16874 0.0
C868 C 0.34301 0.69079 0.17583 0.0
C869 C 0.34124 0.69407 0.11036 0.0
C870 C 0.3676 0.69414 0.07436 0.0
C871 C 0.39544 0.69087 0.10454 0.0
C872 C 0.43676 0.60635 0.09401 0.0
C873 C 0.47592 0.6528 0.12503 0.0
C874 C 0.42826 0.62902 0.1364 0.0
N875 N 0.44773 0.65193 0.15123 0.0
C876 C 0.48525 0.63043 0.08275 0.0
C877 C 0.46547 0.60713 0.06705 0.0
C878 C 0.49174 0.69609 0.28998 0.0
C879 C 0.39527 0.73525 0.45492 0.0
C880 C 0.45628 0.74044 0.42873 0.0
C881 C 0.44686 0.73523 0.49081 0.0
C882 C 0.41614 0.73281 0.50395 0.0
N883 N 0.43567 0.74293 0.38089 0.0
C884 C 0.40551 0.74022 0.39327 0.0
Co885 Co 0.33194 0.4386 0.18987 0.0
Co886 Co 0.27196 0.44552 0.294 0.0
O887 O 0.30359 0.4217 0.25124 0.0
C888 C 0.37323 0.40958 0.28361 0.0
O889 O 0.3556 0.41751 0.33068 0.0
C890 C 0.2382 0.39593 0.23344 0.0
O891 O 0.25282 0.40273 0.18132 0.0
O892 O 0.2574 0.46262 0.21199 0.0
O893 O 0.29889 0.46217 0.15034 0.0
H894 H 0.21167 0.53854 0.34481 0.0
H895 H 0.32739 0.37231 0.20448 0.0
O896 O 0.36606 0.41524 0.22664 0.0
H897 H 0.3059 0.39216 0.97939 0.0
H898 H 0.42337 0.43838 0.04799 0.0
H899 H 0.34105 0.49982 0.13754 0.0
H900 H 0.3172 0.43407 0.05249 0.0
H901 H 0.38423 0.41489 0.11488 0.0
O902 O 0.24332 0.41065 0.28417 0.0
H903 H 0.25029 0.50888 0.28819 0.0
H904 H 0.22577 0.43044 0.39159 0.0
H905 H 0.37886 0.52382 0.0684 0.0
H906 H 0.31624 0.32963 0.13295 0.0
H907 H 0.42058 0.49304 0.02351 0.0
H908 H 0.30547 0.33947 0.0195 0.0
O909 O 0.34159 0.47221 0.24802 0.0
H910 H 0.30528 0.36243 0.43934 0.0
H911 H 0.28837 0.47203 0.41955 0.0
H912 H 0.30775 0.45136 0.52001 0.0
H913 H 0.31635 0.39611 0.52997 0.0
H914 H 0.28623 0.38403 0.33966 0.0
H915 H 0.1867 0.4592 0.44895 0.0
H916 H 0.17963 0.51371 0.42599 0.0
O917 O 0.29956 0.48116 0.30446 0.0
C918 C 0.27136 0.46867 0.16077 0.0
C919 C 0.21462 0.51483 0.35539 0.0
C920 C 0.20057 0.47029 0.41378 0.0
N921 N 0.2405 0.46805 0.33704 0.0
C922 C 0.23649 0.49793 0.32357 0.0
C923 C 0.22267 0.45411 0.381 0.0
C924 C 0.19663 0.50088 0.40091 0.0
C925 C 0.32276 0.3767 0.15513 0.0
N926 N 0.32303 0.40558 0.13263 0.0
C927 C 0.31642 0.35248 0.11489 0.0
C928 C 0.31035 0.35802 0.05124 0.0
C929 C 0.31057 0.38757 0.02871 0.0
C930 C 0.31693 0.41122 0.07036 0.0
C931 C 0.40503 0.45188 0.06647 0.0
C932 C 0.35865 0.4861 0.11685 0.0
C933 C 0.38291 0.43877 0.10473 0.0
N934 N 0.36024 0.45593 0.12987 0.0
C935 C 0.38014 0.49988 0.0781 0.0
C936 C 0.40355 0.48262 0.05302 0.0
C937 C 0.32631 0.48781 0.2871 0.0
C938 C 0.30156 0.3865 0.43545 0.0
C939 C 0.29213 0.44801 0.42362 0.0
C940 C 0.30302 0.43643 0.48067 0.0
C941 C 0.3078 0.40546 0.48636 0.0
N942 N 0.2861 0.42923 0.37381 0.0
C943 C 0.29065 0.39885 0.37922 0.0
H944 H 0.08027 0.08992 0.23524 0.0
H945 H 0.15455 0.13705 0.14797 0.0
H946 H 0.18211 0.08939 0.1375 0.0
H947 H 0.18683 0.03496 0.16151 0.0
H948 H 0.11183 0.98892 0.25009 0.0
H949 H 0.08274 0.03536 0.24986 0.0
C950 C 0.10232 0.08969 0.21286 0.0
C951 C 0.11549 0.11694 0.19287 0.0
C952 C 0.11796 0.06234 0.20693 0.0
C953 C 0.14389 0.11631 0.16345 0.0
C954 C 0.1597 0.08907 0.15758 0.0
C955 C 0.16396 0.03495 0.17985 0.0
C956 C 0.15184 0.00844 0.20672 0.0
C957 C 0.14724 0.062 0.18037 0.0
C958 C 0.12203 0.00895 0.22986 0.0
C959 C 0.10528 0.03555 0.22986 0.0
H960 H 0.99748 0.13814 0.16538 0.0
H961 H 0.95848 0.22182 0.22999 0.0
H962 H 0.9078 0.20163 0.21319 0.0
H963 H 0.87505 0.15785 0.19446 0.0
H964 H 0.91361 0.07464 0.12607 0.0
H965 H 0.96394 0.09727 0.1279 0.0
C966 C 0.97782 0.15205 0.17461 0.0
C967 C 0.98155 0.18117 0.1998 0.0
C968 C 0.94875 0.14041 0.16416 0.0
C969 C 0.95608 0.19929 0.21071 0.0
C970 C 0.92712 0.18771 0.20146 0.0
C971 C 0.8944 0.14495 0.17834 0.0
C972 C 0.89073 0.11456 0.16092 0.0
C973 C 0.92323 0.15797 0.18023 0.0
C974 C 0.91585 0.09813 0.13949 0.0
C975 C 0.9447 0.11094 0.14128 0.0
H976 H 0.80593 0.97009 0.17194 0.0
H977 H 0.88543 0.01691 0.23906 0.0
H978 H 0.91515 0.9712 0.22587 0.0
H979 H 0.91762 0.91721 0.20587 0.0
H980 H 0.8384 0.86893 0.14376 0.0
H981 H 0.80959 0.91618 0.14393 0.0
C982 C 0.82983 0.97043 0.18307 0.0
C983 C 0.84327 0.99687 0.20744 0.0
C984 C 0.84683 0.94385 0.17632 0.0
C985 C 0.87434 0.99686 0.22105 0.0
C986 C 0.89142 0.97073 0.21343 0.0
C987 C 0.89412 0.91706 0.19134 0.0
C988 C 0.88001 0.88964 0.1755 0.0
C989 C 0.87772 0.94399 0.19269 0.0
C990 C 0.84975 0.88981 0.15593 0.0
C991 C 0.83326 0.91678 0.15635 0.0
H992 H 0.00606 0.86507 0.12382 0.0
H993 H 0.03953 0.78191 0.20342 0.0
H994 H 0.09076 0.80181 0.20228 0.0
H995 H 0.12423 0.84601 0.19675 0.0
H996 H 0.09192 0.92846 0.11276 0.0
H997 H 0.04219 0.90557 0.09636 0.0
C998 C 0.02472 0.85105 0.13921 0.0
C999 C 0.01893 0.82233 0.16485 0.0
C1000 C 0.05425 0.86264 0.13843 0.0
C1001 C 0.04331 0.80415 0.18373 0.0
C1002 C 0.07264 0.81561 0.18363 0.0
C1003 C 0.10647 0.85862 0.17332 0.0
C1004 C 0.11135 0.88893 0.157 0.0
C1005 C 0.07811 0.8453 0.16388 0.0
C1006 C 0.08851 0.90507 0.12588 0.0
C1007 C 0.06004 0.89207 0.11697 0.0
H1008 H 0.15232 0.86458 0.86452 0.0
H1009 H 0.0762 0.90845 0.95285 0.0
H1010 H 0.10111 0.95731 0.94166 0.0
H1011 H 0.14013 0.98825 0.88863 0.0
H1012 H 0.21492 0.9443 0.79646 0.0
H1013 H 0.19406 0.89482 0.82375 0.0
C1014 C 0.14143 0.88474 0.88267 0.0
C1015 C 0.11204 0.88294 0.9076 0.0
C1016 C 0.15509 0.91288 0.87286 0.0
C1017 C 0.09862 0.90916 0.93247 0.0
C1018 C 0.11268 0.93722 0.92529 0.0
C1019 C 0.15204 0.96774 0.87587 0.0
C1020 C 0.1788 0.96957 0.84051 0.0
C1021 C 0.14014 0.93946 0.89254 0.0
C1022 C 0.19429 0.94315 0.82393 0.0
C1023 C 0.18235 0.91497 0.83936 0.0
H1024 H 0.11901 0.13754 0.86988 0.0
H1025 H 0.08747 0.05425 0.78698 0.0
H1026 H 0.03618 0.07363 0.78376 0.0
H1027 H 0.00148 0.11599 0.79219 0.0
H1028 H 0.03202 0.20008 0.87336 0.0
H1029 H 0.08214 0.17857 0.89 0.0
C1030 C 0.10074 0.12346 0.85267 0.0
C1031 C 0.10707 0.09467 0.82807 0.0
C1032 C 0.07111 0.13502 0.84967 0.0
C1033 C 0.08321 0.07666 0.80555 0.0
C1034 C 0.05384 0.08772 0.80348 0.0
C1035 C 0.01895 0.12959 0.81418 0.0
C1036 C 0.01304 0.15977 0.83028 0.0
C1037 C 0.04773 0.11721 0.82331 0.0
C1038 C 0.03592 0.17683 0.85979 0.0
C1039 C 0.06468 0.16457 0.86933 0.0
H1040 H 0.91413 0.07863 0.7515 0.0
H1041 H 0.86209 0.11373 0.90731 0.0
H1042 H 0.83413 0.06584 0.9141 0.0
H1043 H 0.82195 0.01569 0.86888 0.0
H1044 H 0.87611 0.98093 0.71506 0.0
H1045 H 0.90603 0.02699 0.71484 0.0
C1046 C 0.89684 0.07567 0.78738 0.0
C1047 C 0.88979 0.09966 0.82831 0.0
C1048 C 0.88124 0.04823 0.79114 0.0
C1049 C 0.8678 0.09549 0.87532 0.0
C1050 C 0.85177 0.06822 0.8789 0.0
C1051 C 0.84053 0.01802 0.83582 0.0
C1052 C 0.84646 0.9949 0.79149 0.0
C1053 C 0.85789 0.04465 0.83606 0.0
C1054 C 0.87089 0.99824 0.74958 0.0
C1055 C 0.88799 0.02467 0.74919 0.0
H1056 H 0.91057 0.90874 0.87379 0.0
H1057 H 0.8584 0.82956 0.82775 0.0
H1058 H 0.90381 0.79836 0.83356 0.0
H1059 H 0.95902 0.79508 0.83585 0.0
H1060 H 0.01153 0.87573 0.86903 0.0
H1061 H 0.96548 0.90461 0.88538 0.0
C1062 C 0.90903 0.88451 0.86715 0.0
C1063 C 0.88126 0.8714 0.85057 0.0
C1064 C 0.93545 0.867 0.86738 0.0
C1065 C 0.87961 0.84008 0.84074 0.0
C1066 C 0.90558 0.82229 0.84362 0.0
C1067 C 0.96045 0.81885 0.84774 0.0
C1068 C 0.98879 0.83318 0.85055 0.0
C1069 C 0.93379 0.83571 0.8544 0.0
C1070 C 0.99011 0.86405 0.86611 0.0
C1071 C 0.96372 0.88068 0.87535 0.0
H1072 H 0.65086 0.62933 0.69691 0.0
H1073 H 0.56692 0.59385 0.62541 0.0
H1074 H 0.588 0.54282 0.62524 0.0
H1075 H 0.62818 0.50777 0.65925 0.0
H1076 H 0.71312 0.54372 0.72446 0.0
H1077 H 0.69401 0.59512 0.71259 0.0
C1078 C 0.63753 0.61047 0.67974 0.0
C1079 C 0.6074 0.61514 0.66172 0.0
C1080 C 0.64985 0.58129 0.67948 0.0
C1081 C 0.59026 0.59072 0.63918 0.0
C1082 C 0.6022 0.56153 0.6397 0.0
C1083 C 0.64257 0.52694 0.66985 0.0
C1084 C 0.67176 0.5221 0.69364 0.0
C1085 C 0.6316 0.55644 0.66194 0.0
C1086 C 0.69051 0.54697 0.70623 0.0
C1087 C 0.67956 0.57635 0.69974 0.0
H1088 H 0.46548 0.68422 0.6274 0.0
H1089 H 0.50463 0.62288 0.76378 0.0
H1090 H 0.45873 0.5931 0.76402 0.0
H1091 H 0.40593 0.58738 0.73524 0.0
H1092 H 0.36544 0.64714 0.59909 0.0
H1093 H 0.41368 0.67434 0.58797 0.0
C1094 C 0.46414 0.66411 0.65648 0.0
C1095 C 0.48841 0.65623 0.69641 0.0
C1096 C 0.43745 0.64687 0.65665 0.0
C1097 C 0.48632 0.62983 0.73313 0.0
C1098 C 0.46002 0.6127 0.73344 0.0
C1099 C 0.40786 0.60612 0.7024 0.0
C1100 C 0.38242 0.61565 0.66854 0.0
C1101 C 0.43525 0.6215 0.69689 0.0
C1102 C 0.38496 0.63958 0.62552 0.0
C1103 C 0.41239 0.65518 0.61965 0.0
H1104 H 0.29896 0.46508 0.67368 0.0
H1105 H 0.37981 0.51931 0.67541 0.0
H1106 H 0.41029 0.47463 0.65185 0.0
H1107 H 0.41439 0.41947 0.64474 0.0
H1108 H 0.33413 0.3648 0.65838 0.0
H1109 H 0.3028 0.41024 0.66122 0.0
C1110 C 0.32317 0.46716 0.66772 0.0
C1111 C 0.33719 0.4953 0.67631 0.0
C1112 C 0.3406 0.44123 0.65722 0.0
C1113 C 0.36863 0.49773 0.66934 0.0
C1114 C 0.38601 0.47224 0.65586 0.0
C1115 C 0.38998 0.41758 0.6462 0.0
C1116 C 0.37646 0.38898 0.6505 0.0
C1117 C 0.37233 0.44375 0.65148 0.0
C1118 C 0.3449 0.38669 0.65448 0.0
C1119 C 0.32706 0.41262 0.65669 0.0
H1120 H 0.57905 0.41823 0.73672 0.0
H1121 H 0.62373 0.35557 0.61163 0.0
H1122 H 0.57656 0.32707 0.5998 0.0
H1123 H 0.52393 0.31757 0.63339 0.0
H1124 H 0.48027 0.38101 0.75925 0.0
H1125 H 0.52583 0.41154 0.76208 0.0
C1126 C 0.57847 0.39847 0.70637 0.0
C1127 C 0.60495 0.3888 0.67576 0.0
C1128 C 0.5515 0.38218 0.70033 0.0
C1129 C 0.60366 0.36347 0.63578 0.0
C1130 C 0.57674 0.34708 0.62934 0.0
C1131 C 0.52421 0.33824 0.6609 0.0
C1132 C 0.49864 0.34664 0.69671 0.0
C1133 C 0.55069 0.35583 0.66267 0.0
C1134 C 0.49951 0.37372 0.73155 0.0
C1135 C 0.52563 0.39126 0.73335 0.0
H1136 H 0.70027 0.46315 0.32321 0.0
H1137 H 0.61686 0.51302 0.33308 0.0
H1138 H 0.58868 0.466 0.34719 0.0
H1139 H 0.58717 0.41069 0.33949 0.0
H1140 H 0.66996 0.36119 0.31379 0.0
H1141 H 0.69911 0.40787 0.32377 0.0
C1142 C 0.67601 0.46374 0.32994 0.0
C1143 C 0.6606 0.49141 0.32689 0.0
C1144 C 0.65988 0.43657 0.33473 0.0
C1145 C 0.62913 0.49189 0.33487 0.0
C1146 C 0.61304 0.46504 0.34285 0.0
C1147 C 0.61165 0.41008 0.33854 0.0
C1148 C 0.62654 0.38267 0.32675 0.0
C1149 C 0.62806 0.4372 0.34057 0.0
C1150 C 0.65817 0.38212 0.32354 0.0
C1151 C 0.67477 0.4088 0.32863 0.0
H1152 H 0.50659 0.64665 0.35854 0.0
H1153 H 0.54432 0.7211 0.25401 0.0
H1154 H 0.59467 0.69871 0.26149 0.0
H1155 H 0.62625 0.65467 0.28537 0.0
H1156 H 0.58936 0.58087 0.39342 0.0
H1157 H 0.54045 0.60653 0.39859 0.0
C1158 C 0.52603 0.6581 0.33858 0.0
C1159 C 0.52206 0.68517 0.30526 0.0
C1160 C 0.55489 0.6452 0.34363 0.0
C1161 C 0.54715 0.70022 0.27999 0.0
C1162 C 0.57581 0.68736 0.28395 0.0
C1163 C 0.60765 0.64461 0.31134 0.0
C1164 C 0.61112 0.61587 0.33831 0.0
C1165 C 0.57974 0.65941 0.31389 0.0
C1166 C 0.58713 0.60306 0.37242 0.0
C1167 C 0.55912 0.61757 0.37483 0.0
H1168 H 0.37156 0.62108 0.3008 0.0
H1169 H 0.45656 0.5747 0.32467 0.0
H1170 H 0.43022 0.52688 0.33553 0.0
H1171 H 0.38414 0.49731 0.32029 0.0
H1172 H 0.29876 0.54262 0.29865 0.0
H1173 H 0.32403 0.59174 0.30626 0.0
C1174 C 0.38427 0.60064 0.30999 0.0
C1175 C 0.41606 0.60145 0.31018 0.0
C1176 C 0.36894 0.57293 0.31593 0.0
C1177 C 0.43212 0.57476 0.32302 0.0
C1178 C 0.41709 0.54729 0.32913 0.0
C1179 C 0.37103 0.51799 0.31884 0.0
C1180 C 0.33983 0.51652 0.30798 0.0
C1181 C 0.38568 0.54596 0.3228 0.0
C1182 C 0.32288 0.5433 0.30696 0.0
C1183 C 0.33736 0.57136 0.31074 0.0
H1184 H 0.42435 0.42074 0.22056 0.0
H1185 H 0.3879 0.36628 0.37121 0.0
H1186 H 0.43545 0.33778 0.37666 0.0
H1187 H 0.4853 0.32544 0.33048 0.0
H1188 H 0.52128 0.38177 0.18151 0.0
H1189 H 0.47586 0.41255 0.18372 0.0
C1190 C 0.42693 0.40276 0.255 0.0
C1191 C 0.40268 0.39517 0.29474 0.0
C1192 C 0.45407 0.38671 0.25773 0.0
C1193 C 0.40635 0.37236 0.34007 0.0
C1194 C 0.4334 0.356 0.34282 0.0
C1195 C 0.48335 0.34466 0.29901 0.0
C1196 C 0.50656 0.35097 0.25522 0.0
C1197 C 0.45712 0.36249 0.30067 0.0
C1198 C 0.50382 0.37624 0.21547 0.0
C1199 C 0.47778 0.39385 0.2165 0.0
H1200 H 0.13457 0.30073 0.18494 0.0
H1201 H 0.13806 0.29539 0.38864 0.0
H1202 H 0.17896 0.33244 0.3905 0.0
H1203 H 0.21291 0.36734 0.33439 0.0
H1204 H 0.2108 0.37096 0.13039 0.0
H1205 H 0.17031 0.33354 0.12859 0.0
C1206 C 0.14429 0.30767 0.22975 0.0
C1207 C 0.1331 0.29551 0.2866 0.0
C1208 C 0.16806 0.32868 0.23044 0.0
C1209 C 0.14623 0.30441 0.3442 0.0
C1210 C 0.16958 0.32565 0.34532 0.0
C1211 C 0.20362 0.35989 0.28954 0.0
C1212 C 0.21473 0.3721 0.23264 0.0
C1213 C 0.18054 0.33809 0.28877 0.0
C1214 C 0.20269 0.36195 0.17489 0.0
C1215 C 0.17947 0.3406 0.1738 0.0
H1216 H 0.69018 0.11694 0.16905 0.0
H1217 H 0.69806 0.12631 0.37153 0.0
H1218 H 0.65684 0.16293 0.37214 0.0
H1219 H 0.62092 0.19493 0.31405 0.0
H1220 H 0.61658 0.18883 0.11068 0.0
H1221 H 0.6537 0.14806 0.11139 0.0
C1222 C 0.6826 0.12674 0.21335 0.0
C1223 C 0.69706 0.11897 0.27011 0.0
C1224 C 0.65952 0.14839 0.21312 0.0
C1225 C 0.68732 0.13209 0.32714 0.0
C1226 C 0.66375 0.15298 0.32756 0.0
C1227 C 0.62777 0.18424 0.27014 0.0
C1228 C 0.61603 0.19459 0.21247 0.0
C1229 C 0.64998 0.16165 0.27072 0.0
C1230 C 0.6254 0.18109 0.15563 0.0
C1231 C 0.64664 0.15788 0.15599 0.0
H1232 H 0.79769 0.63272 0.34832 0.0
H1233 H 0.79931 0.62184 0.14542 0.0
H1234 H 0.83607 0.66255 0.13617 0.0
H1235 H 0.86781 0.70118 0.18509 0.0
H1236 H 0.86513 0.71419 0.38735 0.0
H1237 H 0.82856 0.67303 0.39734 0.0
C1238 C 0.80629 0.63918 0.30221 0.0
C1239 C 0.79598 0.6241 0.2477 0.0
C1240 C 0.82705 0.66315 0.29701 0.0
C1241 C 0.80691 0.63303 0.18814 0.0
C1242 C 0.82792 0.65635 0.18275 0.0
C1243 C 0.8592 0.6951 0.23142 0.0
C1244 C 0.86931 0.7107 0.28539 0.0
C1245 C 0.8381 0.67159 0.23677 0.0
C1246 C 0.85768 0.70264 0.34496 0.0
C1247 C 0.83687 0.67899 0.35076 0.0
H1248 H 0.29803 0.87509 0.16015 0.0
H1249 H 0.30335 0.89074 0.36123 0.0
H1250 H 0.34335 0.85316 0.37047 0.0
H1251 H 0.37549 0.81455 0.32243 0.0
H1252 H 0.36813 0.79598 0.1226 0.0
H1253 H 0.33022 0.83572 0.11189 0.0
C1254 C 0.3083 0.87047 0.2057 0.0
C1255 C 0.29802 0.88575 0.25984 0.0
C1256 C 0.33067 0.84808 0.21104 0.0
C1257 C 0.311 0.87924 0.31889 0.0
C1258 C 0.3338 0.85773 0.32426 0.0
C1259 C 0.36567 0.81925 0.27648 0.0
C1260 C 0.37466 0.80236 0.22343 0.0
C1261 C 0.34358 0.84177 0.27082 0.0
C1262 C 0.36152 0.80857 0.16431 0.0
C1263 C 0.3399 0.83137 0.15807 0.0
H1264 H 0.19428 0.62991 0.6618 0.0
H1265 H 0.18764 0.61056 0.86128 0.0
H1266 H 0.14645 0.64683 0.87184 0.0
H1267 H 0.11375 0.6855 0.82537 0.0
H1268 H 0.12336 0.70835 0.62809 0.0
H1269 H 0.16185 0.66923 0.61544 0.0
C1270 C 0.18357 0.6335 0.70736 0.0
C1271 C 0.19377 0.61759 0.76062 0.0
C1272 C 0.16053 0.65506 0.71347 0.0
C1273 C 0.18014 0.62268 0.81967 0.0
C1274 C 0.15659 0.64336 0.82574 0.0
C1275 C 0.12408 0.68167 0.7795 0.0
C1276 C 0.11567 0.69954 0.72764 0.0
C1277 C 0.1468 0.65987 0.77311 0.0
C1278 C 0.12954 0.69479 0.66869 0.0
C1279 C 0.15151 0.67246 0.66144 0.0
H1280 H 0.36513 0.1991 0.81027 0.0
H1281 H 0.38816 0.18627 0.61368 0.0
H1282 H 0.34985 0.14648 0.60512 0.0
H1283 H 0.30956 0.11543 0.65414 0.0
H1284 H 0.28887 0.12778 0.85207 0.0
H1285 H 0.32635 0.16794 0.85919 0.0
C1286 C 0.36191 0.18759 0.76545 0.0
C1287 C 0.37951 0.19564 0.71268 0.0
C1288 C 0.34008 0.16479 0.76105 0.0
C1289 C 0.37504 0.18037 0.65514 0.0
C1290 C 0.35304 0.15774 0.65016 0.0
C1291 C 0.31317 0.1271 0.69863 0.0
C1292 C 0.29636 0.11875 0.75243 0.0
C1293 C 0.33533 0.14982 0.70281 0.0
C1294 C 0.30153 0.13375 0.81001 0.0
C1295 C 0.32297 0.1567 0.81417 0.0
H1296 H 0.86231 0.29406 0.68255 0.0
H1297 H 0.86942 0.2882 0.88579 0.0
H1298 H 0.82947 0.32572 0.89755 0.0
H1299 H 0.79332 0.36132 0.85023 0.0
H1300 H 0.78811 0.36902 0.64704 0.0
H1301 H 0.82628 0.32969 0.63527 0.0
C1302 C 0.85505 0.30091 0.72942 0.0
C1303 C 0.86891 0.28833 0.78315 0.0
C1304 C 0.83235 0.3229 0.73591 0.0
C1305 C 0.85929 0.29761 0.84355 0.0
C1306 C 0.83638 0.31905 0.85037 0.0
C1307 C 0.80039 0.35423 0.80339 0.0
C1308 C 0.78782 0.36809 0.74965 0.0
C1309 C 0.82285 0.33199 0.79691 0.0
C1310 C 0.79747 0.35882 0.68926 0.0
C1311 C 0.81931 0.3363 0.68244 0.0
H1312 H 0.68705 0.87691 0.65887 0.0
H1313 H 0.68504 0.88826 0.8616 0.0
H1314 H 0.64316 0.85241 0.86911 0.0
H1315 H 0.60945 0.81552 0.81861 0.0
H1316 H 0.61013 0.80555 0.61554 0.0
H1317 H 0.65014 0.84347 0.60746 0.0
C1318 C 0.67727 0.8717 0.70464 0.0
C1319 C 0.68924 0.88496 0.75968 0.0
C1320 C 0.65308 0.85132 0.70849 0.0
C1321 C 0.67616 0.87835 0.81858 0.0
C1322 C 0.65233 0.85777 0.82291 0.0
C1323 C 0.61819 0.82185 0.77254 0.0
C1324 C 0.60709 0.80762 0.71777 0.0
C1325 C 0.64096 0.84377 0.76828 0.0
C1326 C 0.6183 0.81625 0.65834 0.0
C1327 C 0.64126 0.8378 0.65374 0.0
H1328 H 0.0564 0.24774 0.47653 0.0
H1329 H 0.97491 0.24875 0.36565 0.0
H1330 H 0.94453 0.25284 0.46208 0.0
H1331 H 0.94132 0.24662 0.57762 0.0
H1332 H 0.02258 0.24522 0.68908 0.0
H1333 H 0.0531 0.25168 0.59323 0.0
C1334 C 0.03206 0.2501 0.47374 0.0
C1335 C 0.01775 0.24828 0.41455 0.0
C1336 C 0.0148 0.25213 0.52949 0.0
C1337 C 0.98625 0.25066 0.4109 0.0
C1338 C 0.96892 0.25269 0.46601 0.0
C1339 C 0.96565 0.24906 0.58092 0.0
C1340 C 0.97981 0.24571 0.63994 0.0
C1341 C 0.98292 0.25219 0.52556 0.0
C1342 C 0.0113 0.24833 0.64409 0.0
C1343 C 0.02871 0.25157 0.5892 0.0
H1344 H 0.76349 0.00907 0.63828 0.0
H1345 H 0.75853 0.92103 0.5523 0.0
H1346 H 0.75442 0.94392 0.44738 0.0
H1347 H 0.75975 0.98874 0.37949 0.0
H1348 H 0.77085 0.07624 0.46544 0.0
H1349 H 0.7647 0.05418 0.57065 0.0
C1350 C 0.76061 0.99506 0.59659 0.0
C1351 C 0.76117 0.96355 0.60254 0.0
C1352 C 0.75978 0.00836 0.53632 0.0
C1353 C 0.75812 0.94541 0.5484 0.0
C1354 C 0.75591 0.95847 0.48852 0.0
C1355 C 0.76002 0.00294 0.42133 0.0
C1356 C 0.76574 0.03393 0.41523 0.0
C1357 C 0.75782 0.98988 0.48171 0.0
C1358 C 0.76661 0.05224 0.46947 0.0
C1359 C 0.76315 0.03964 0.52951 0.0
H1360 H 0.0088 0.74412 0.61324 0.0
H1361 H 0.05558 0.82906 0.58797 0.0
H1362 H 0.04168 0.82984 0.47771 0.0
H1363 H 0.01418 0.80898 0.39015 0.0
H1364 H 0.96229 0.72728 0.41224 0.0
H1365 H 0.98116 0.72209 0.52119 0.0
C1366 C 0.01602 0.76269 0.58348 0.0
C1367 C 0.03339 0.7864 0.60944 0.0
C1368 C 0.00728 0.7635 0.51932 0.0
C1369 C 0.04242 0.81035 0.56997 0.0
C1370 C 0.03449 0.8109 0.50651 0.0
C1371 C 0.00705 0.78982 0.41842 0.0
C1372 C 0.98662 0.76872 0.39337 0.0
C1373 C 0.01671 0.78787 0.48103 0.0
C1374 C 0.97814 0.74378 0.43037 0.0
C1375 C 0.98863 0.74105 0.49286 0.0
H1376 H 0.25114 0.04686 0.5693 0.0
H1377 H 0.24772 0.96176 0.66713 0.0
H1378 H 0.24797 0.93476 0.56602 0.0
H1379 H 0.23894 0.93635 0.45125 0.0
H1380 H 0.2417 0.02146 0.35296 0.0
H1381 H 0.25224 0.04776 0.45265 0.0
C1382 C 0.25201 0.02238 0.56815 0.0
C1383 C 0.24984 0.00613 0.62494 0.0
C1384 C 0.25118 0.0072 0.50991 0.0
C1385 C 0.25009 0.97451 0.62367 0.0
C1386 C 0.24969 0.95917 0.56593 0.0
C1387 C 0.24258 0.96058 0.45171 0.0
C1388 C 0.23912 0.97717 0.39563 0.0
C1389 C 0.24863 0.97538 0.50896 0.0
C1390 C 0.24424 0.0084 0.39595 0.0
C1391 C 0.25012 0.02339 0.45286 0.0
H1392 H 0.55282 0.75456 0.9308 0.0
H1393 H 0.47049 0.74377 0.82478 0.0
H1394 H 0.44088 0.74824 0.92221 0.0
H1395 H 0.43956 0.74615 0.03893 0.0
H1396 H 0.5217 0.75874 0.14468 0.0
H1397 H 0.55041 0.76324 0.04604 0.0
C1398 C 0.52834 0.75423 0.92905 0.0
C1399 C 0.51372 0.74871 0.87121 0.0
C1400 C 0.51157 0.75682 0.98517 0.0
C1401 C 0.48208 0.74827 0.86892 0.0
C1402 C 0.46521 0.7505 0.92465 0.0
C1403 C 0.46358 0.75095 0.04005 0.0
C1404 C 0.47867 0.75208 0.09843 0.0
C1405 C 0.47983 0.75349 0.98325 0.0
C1406 C 0.50973 0.75814 0.1 0.0
C1407 C 0.52614 0.76038 0.04369 0.0
H1408 H 0.25049 0.55747 0.94154 0.0
H1409 H 0.25295 0.47449 0.83542 0.0
H1410 H 0.24899 0.4454 0.93374 0.0
H1411 H 0.25557 0.44431 0.04956 0.0
H1412 H 0.25502 0.5274 0.15529 0.0
H1413 H 0.24673 0.55602 0.05765 0.0
C1414 C 0.24905 0.53302 0.94011 0.0
C1415 C 0.25214 0.51795 0.88198 0.0
C1416 C 0.24739 0.51664 0.99672 0.0
C1417 C 0.25033 0.48639 0.8799 0.0
C1418 C 0.2484 0.46983 0.93608 0.0
C1419 C 0.25231 0.46857 0.05118 0.0
C1420 C 0.25569 0.48392 0.10892 0.0
C1421 C 0.2484 0.48475 0.99477 0.0
C1422 C 0.25198 0.51529 0.11118 0.0
C1423 C 0.24765 0.5316 0.05534 0.0
H1424 H 0.49532 0.2578 0.09645 0.0
H1425 H 0.58016 0.27827 0.006 0.0
H1426 H 0.55717 0.27143 0.90206 0.0
H1427 H 0.51147 0.26641 0.83703 0.0
H1428 H 0.42556 0.25201 0.92748 0.0
H1429 H 0.45026 0.24895 0.03091 0.0
C1430 C 0.50885 0.26012 0.05394 0.0
C1431 C 0.5393 0.26871 0.05878 0.0
C1432 C 0.49518 0.25724 0.99422 0.0
C1433 C 0.55657 0.272 0.00339 0.0
C1434 C 0.54345 0.26804 0.94394 0.0
C1435 C 0.49842 0.26155 0.87928 0.0
C1436 C 0.46694 0.25895 0.87505 0.0
C1437 C 0.51258 0.26156 0.93873 0.0
C1438 C 0.44994 0.25367 0.93 0.0
C1439 C 0.46401 0.25221 0.98905 0.0
H1440 H 0.73259 0.44023 0.95997 0.0
H1441 H 0.7511 0.52042 0.85173 0.0
H1442 H 0.75798 0.54939 0.94943 0.0
H1443 H 0.74982 0.55333 0.06482 0.0
H1444 H 0.73168 0.47306 0.17306 0.0
H1445 H 0.73392 0.4424 0.07661 0.0
C1446 C 0.73917 0.4638 0.95809 0.0
C1447 C 0.74152 0.47827 0.89919 0.0
C1448 C 0.74281 0.48026 0.01445 0.0
C1449 C 0.7497 0.50883 0.89674 0.0
C1450 C 0.75328 0.52543 0.95256 0.0
C1451 C 0.74763 0.52896 0.06729 0.0
C1452 C 0.74096 0.51525 0.12553 0.0
C1453 C 0.74872 0.51162 0.01159 0.0
C1454 C 0.73744 0.48384 0.12863 0.0
C1455 C 0.73837 0.46642 0.07346 0.0
loop_
_geom_bond_atom_site_label_1
_geom_bond_atom_site_label_2
_geom_bond_distance
_geom_bond_site_symmetry_2
_ccdc_geom_bond_type
Co0 O2 2.143 . S
Co0 O8 2.074 . S
Co0 O11 2.093 . S
Co0 O24 2.097 . S
Co0 N41 2.151 . S
Co0 N49 2.214 . S
Co1 O2 2.160 . S
Co1 O7 2.058 . S
Co1 O17 2.057 . S
Co1 O32 2.037 . S
Co1 N36 2.145 . S
Co1 N57 2.257 . S
O2 Co0 2.143 . S
O2 Co1 2.160 . S
C3 O4 1.278 . S
C3 O11 1.224 . S
O4 C3 1.278 . S
C5 O6 1.245 . S
C5 O17 1.232 . S
O6 C5 1.245 . S
O7 Co1 2.058 . S
O7 C33 1.269 . S
O8 Co0 2.074 . S
O8 C33 1.257 . S
H9 C34 0.930 . S
H10 C40 0.930 . S
O11 Co0 2.093 . S
O11 C3 1.224 . S
H12 C44 0.929 . S
H13 C46 0.930 . S
H14 C47 0.930 1_655 S
H15 C45 0.929 . S
H16 C48 0.928 . S
O17 Co1 2.057 . S
O17 C5 1.232 . S
H18 C37 0.929 . S
H19 C38 0.929 . S
H20 C50 0.931 . S
H21 C42 0.929 . S
H22 C51 0.930 1_655 S
H23 C43 0.931 . S
O24 Co0 2.097 . S
O24 C52 1.214 . S
H25 C53 0.929 . S
H26 C54 0.929 . S
H27 C55 0.930 . S
H28 C56 0.929 . S
H29 C58 0.930 . S
H30 C35 0.930 . S
H31 C39 0.930 . S
O32 Co1 2.037 . S
O32 C52 1.234 . S
C33 O7 1.269 . S
C33 O8 1.257 . S
C34 H9 0.930 . S
C34 C37 1.388 . S
C34 C39 1.418 . S
C35 H30 0.930 . S
C35 C38 1.404 . S
C35 C39 1.353 1_455 S
N36 Co1 2.145 . S
N36 C37 1.397 1_455 S
N36 C38 1.334 . S
C37 H18 0.929 . S
C37 C34 1.388 . S
C37 N36 1.397 1_655 S
C38 H19 0.929 . S
C38 C35 1.404 . S
C38 N36 1.334 . S
C39 H31 0.930 . S
C39 C34 1.418 . S
C39 C35 1.353 1_655 S
C40 H10 0.930 . S
C40 N41 1.330 . S
C40 C42 1.446 . S
N41 Co0 2.151 . S
N41 C40 1.330 . S
N41 C45 1.418 . S
C42 H21 0.929 . S
C42 C40 1.446 . S
C42 C43 1.332 . S
C43 H23 0.931 . S
C43 C42 1.332 . S
C43 C44 1.267 . S
C44 H12 0.929 . S
C44 C43 1.267 . S
C44 C45 1.251 . S
C45 H15 0.929 . S
C45 N41 1.418 . S
C45 C44 1.251 . S
C46 H13 0.930 . S
C46 C48 1.406 . S
C46 C51 1.261 . S
C47 H14 0.930 1_455 S
C47 N49 1.325 . S
C47 C50 1.357 1_455 S
C48 H16 0.928 . S
C48 C46 1.406 . S
C48 N49 1.261 . S
N49 Co0 2.214 . S
N49 C47 1.325 . S
N49 C48 1.261 . S
C50 H20 0.931 . S
C50 C47 1.357 1_655 S
C50 C51 1.312 1_655 S
C51 H22 0.930 1_455 S
C51 C46 1.261 . S
C51 C50 1.312 1_455 S
C52 O24 1.214 . S
C52 O32 1.234 . S
C53 H25 0.929 . S
C53 C56 1.391 . S
C53 C58 1.391 1_556 S
C54 H26 0.929 . S
C54 C55 1.390 1_554 S
C54 N57 1.391 . S
C55 H27 0.930 . S
C55 C54 1.390 1_556 S
C55 C56 1.392 . S
C56 H28 0.929 . S
C56 C53 1.391 . S
C56 C55 1.392 . S
N57 Co1 2.257 . S
N57 C54 1.391 . S
N57 C58 1.388 . S
C58 H29 0.930 . S
C58 C53 1.391 1_554 S
C58 N57 1.388 . S
Co59 O61 2.143 . S
Co59 O67 2.074 . S
Co59 O70 2.093 . S
Co59 O83 2.097 . S
Co59 N100 2.151 . S
Co59 N108 2.214 . S
Co60 O61 2.160 . S
Co60 O66 2.058 . S
Co60 O76 2.057 . S
Co60 O91 2.037 . S
Co60 N95 2.145 . S
Co60 N116 2.257 . S
O61 Co59 2.143 . S
O61 Co60 2.160 . S
C62 O63 1.278 . S
C62 O70 1.224 . S
O63 C62 1.278 . S
C64 O65 1.245 . S
C64 O76 1.232 . S
O65 C64 1.245 . S
O66 Co60 2.058 . S
O66 C92 1.269 . S
O67 Co59 2.074 . S
O67 C92 1.257 . S
H68 C93 0.930 . S
H69 C99 0.930 . S
O70 Co59 2.093 . S
O70 C62 1.224 . S
H71 C103 0.929 . S
H72 C105 0.930 . S
H73 C106 0.930 1_565 S
H74 C104 0.929 . S
H75 C107 0.928 . S
O76 Co60 2.057 . S
O76 C64 1.232 . S
H77 C96 0.929 . S
H78 C97 0.929 . S
H79 C109 0.931 . S
H80 C101 0.929 . S
H81 C110 0.930 1_565 S
H82 C102 0.931 . S
O83 Co59 2.097 . S
O83 C111 1.214 . S
H84 C112 0.929 . S
H85 C113 0.929 . S
H86 C114 0.930 . S
H87 C115 0.929 . S
H88 C117 0.930 . S
H89 C94 0.930 . S
H90 C98 0.930 . S
O91 Co60 2.037 . S
O91 C111 1.234 . S
C92 O66 1.269 . S
C92 O67 1.257 . S
C93 H68 0.930 . S
C93 C96 1.388 . S
C93 C98 1.418 . S
C94 H89 0.930 . S
C94 C97 1.404 . S
C94 C98 1.353 1_545 S
N95 Co60 2.145 . S
N95 C96 1.397 1_545 S
N95 C97 1.334 . S
C96 H77 0.929 . S
C96 C93 1.388 . S
C96 N95 1.397 1_565 S
C97 H78 0.929 . S
C97 C94 1.404 . S
C97 N95 1.334 . S
C98 H90 0.930 . S
C98 C93 1.418 . S
C98 C94 1.353 1_565 S
C99 H69 0.930 . S
C99 N100 1.330 . S
C99 C101 1.446 . S
N100 Co59 2.151 . S
N100 C99 1.330 . S
N100 C104 1.418 . S
C101 H80 0.929 . S
C101 C99 1.446 . S
C101 C102 1.332 . S
C102 H82 0.931 . S
C102 C101 1.332 . S
C102 C103 1.267 . S
C103 H71 0.929 . S
C103 C102 1.267 . S
C103 C104 1.251 . S
C104 H74 0.929 . S
C104 N100 1.418 . S
C104 C103 1.251 . S
C105 H72 0.930 . S
C105 C107 1.406 . S
C105 C110 1.261 . S
C106 H73 0.930 1_545 S
C106 N108 1.325 . S
C106 C109 1.357 1_545 S
C107 H75 0.928 . S
C107 C105 1.406 . S
C107 N108 1.261 . S
N108 Co59 2.214 . S
N108 C106 1.325 . S
N108 C107 1.261 . S
C109 H79 0.931 . S
C109 C106 1.357 1_565 S
C109 C110 1.312 1_565 S
C110 H81 0.930 1_545 S
C110 C105 1.261 . S
C110 C109 1.312 1_545 S
C111 O83 1.214 . S
C111 O91 1.234 . S
C112 H84 0.929 . S
C112 C115 1.391 . S
C112 C117 1.391 1_556 S
C113 H85 0.929 . S
C113 C114 1.390 1_554 S
C113 N116 1.391 . S
C114 H86 0.930 . S
C114 C113 1.390 1_556 S
C114 C115 1.392 . S
C115 H87 0.929 . S
C115 C112 1.391 . S
C115 C114 1.392 . S
N116 Co60 2.257 . S
N116 C113 1.391 . S
N116 C117 1.388 . S
C117 H88 0.930 . S
C117 C112 1.391 1_554 S
C117 N116 1.388 . S
Co118 O120 2.143 . S
Co118 O126 2.074 . S
Co118 O129 2.093 . S
Co118 O142 2.097 . S
Co118 N159 2.151 . S
Co118 N167 2.214 . S
Co119 O120 2.160 . S
Co119 O125 2.058 . S
Co119 O135 2.057 . S
Co119 O150 2.037 . S
Co119 N154 2.145 . S
Co119 N175 2.257 . S
O120 Co118 2.143 . S
O120 Co119 2.160 . S
C121 O122 1.278 . S
C121 O129 1.224 . S
O122 C121 1.278 . S
C123 O124 1.245 . S
C123 O135 1.232 . S
O124 C123 1.245 . S
O125 Co119 2.058 . S
O125 C151 1.269 . S
O126 Co118 2.074 . S
O126 C151 1.257 . S
H127 C152 0.930 . S
H128 C158 0.930 . S
O129 Co118 2.093 . S
O129 C121 1.224 . S
H130 C162 0.929 . S
H131 C164 0.930 . S
H132 C165 0.930 1_455 S
H133 C163 0.929 . S
H134 C166 0.928 . S
O135 Co119 2.057 . S
O135 C123 1.232 . S
H136 C155 0.929 . S
H137 C156 0.929 . S
H138 C168 0.931 . S
H139 C160 0.929 . S
H140 C169 0.930 1_455 S
H141 C161 0.931 . S
O142 Co118 2.097 . S
O142 C170 1.214 . S
H143 C171 0.929 . S
H144 C172 0.929 . S
H145 C173 0.930 . S
H146 C174 0.929 . S
H147 C176 0.930 . S
H148 C153 0.930 . S
H149 C157 0.930 . S
O150 Co119 2.037 . S
O150 C170 1.234 . S
C151 O125 1.269 . S
C151 O126 1.257 . S
C152 H127 0.930 . S
C152 C155 1.388 . S
C152 C157 1.418 . S
C153 H148 0.930 . S
C153 C156 1.404 . S
C153 C157 1.353 1_655 S
N154 Co119 2.145 . S
N154 C155 1.397 1_655 S
N154 C156 1.334 . S
C155 H136 0.929 . S
C155 C152 1.388 . S
C155 N154 1.397 1_455 S
C156 H137 0.929 . S
C156 C153 1.404 . S
C156 N154 1.334 . S
C157 H149 0.930 . S
C157 C152 1.418 . S
C157 C153 1.353 1_455 S
C158 H128 0.930 . S
C158 N159 1.330 . S
C158 C160 1.446 . S
N159 Co118 2.151 . S
N159 C158 1.330 . S
N159 C163 1.418 . S
C160 H139 0.929 . S
C160 C158 1.446 . S
C160 C161 1.332 . S
C161 H141 0.931 . S
C161 C160 1.332 . S
C161 C162 1.267 . S
C162 H130 0.929 . S
C162 C161 1.267 . S
C162 C163 1.251 . S
C163 H133 0.929 . S
C163 N159 1.418 . S
C163 C162 1.251 . S
C164 H131 0.930 . S
C164 C166 1.406 . S
C164 C169 1.261 . S
C165 H132 0.930 1_655 S
C165 N167 1.325 . S
C165 C168 1.357 1_655 S
C166 H134 0.928 . S
C166 C164 1.406 . S
C166 N167 1.261 . S
N167 Co118 2.214 . S
N167 C165 1.325 . S
N167 C166 1.261 . S
C168 H138 0.931 . S
C168 C165 1.357 1_455 S
C168 C169 1.312 1_455 S
C169 H140 0.930 1_655 S
C169 C164 1.261 . S
C169 C168 1.312 1_655 S
C170 O142 1.214 . S
C170 O150 1.234 . S
C171 H143 0.929 . S
C171 C174 1.391 . S
C171 C176 1.391 1_556 S
C172 H144 0.929 . S
C172 C173 1.390 1_554 S
C172 N175 1.391 . S
C173 H145 0.930 . S
C173 C172 1.390 1_556 S
C173 C174 1.392 . S
C174 H146 0.929 . S
C174 C171 1.391 . S
C174 C173 1.392 . S
N175 Co119 2.257 . S
N175 C172 1.391 . S
N175 C176 1.388 . S
C176 H147 0.930 . S
C176 C171 1.391 1_554 S
C176 N175 1.388 . S
Co177 O179 2.143 . S
Co177 O185 2.074 . S
Co177 O188 2.093 . S
Co177 O201 2.097 . S
Co177 N218 2.151 . S
Co177 N226 2.214 . S
Co178 O179 2.160 . S
Co178 O184 2.058 . S
Co178 O194 2.057 . S
Co178 O209 2.037 . S
Co178 N213 2.145 . S
Co178 N234 2.257 . S
O179 Co177 2.143 . S
O179 Co178 2.160 . S
C180 O181 1.278 . S
C180 O188 1.224 . S
O181 C180 1.278 . S
C182 O183 1.245 . S
C182 O194 1.232 . S
O183 C182 1.245 . S
O184 Co178 2.058 . S
O184 C210 1.269 . S
O185 Co177 2.074 . S
O185 C210 1.257 . S
H186 C211 0.930 . S
H187 C217 0.930 . S
O188 Co177 2.093 . S
O188 C180 1.224 . S
H189 C221 0.929 . S
H190 C223 0.930 . S
H191 C224 0.930 1_545 S
H192 C222 0.929 . S
H193 C225 0.928 . S
O194 Co178 2.057 . S
O194 C182 1.232 . S
H195 C214 0.929 . S
H196 C215 0.929 . S
H197 C227 0.931 . S
H198 C219 0.929 . S
H199 C228 0.930 1_545 S
H200 C220 0.931 . S
O201 Co177 2.097 . S
O201 C229 1.214 . S
H202 C230 0.929 . S
H203 C231 0.929 . S
H204 C232 0.930 . S
H205 C233 0.929 . S
H206 C235 0.930 . S
H207 C212 0.930 . S
H208 C216 0.930 . S
O209 Co178 2.037 . S
O209 C229 1.234 . S
C210 O184 1.269 . S
C210 O185 1.257 . S
C211 H186 0.930 . S
C211 C214 1.388 . S
C211 C216 1.418 . S
C212 H207 0.930 . S
C212 C215 1.404 . S
C212 C216 1.353 1_565 S
N213 Co178 2.145 . S
N213 C214 1.397 1_565 S
N213 C215 1.334 . S
C214 H195 0.929 . S
C214 C211 1.388 . S
C214 N213 1.397 1_545 S
C215 H196 0.929 . S
C215 C212 1.404 . S
C215 N213 1.334 . S
C216 H208 0.930 . S
C216 C211 1.418 . S
C216 C212 1.353 1_545 S
C217 H187 0.930 . S
C217 N218 1.330 . S
C217 C219 1.446 . S
N218 Co177 2.151 . S
N218 C217 1.330 . S
N218 C222 1.418 . S
C219 H198 0.929 . S
C219 C217 1.446 . S
C219 C220 1.332 . S
C220 H200 0.931 . S
C220 C219 1.332 . S
C220 C221 1.267 . S
C221 H189 0.929 . S
C221 C220 1.267 . S
C221 C222 1.251 . S
C222 H192 0.929 . S
C222 N218 1.418 . S
C222 C221 1.251 . S
C223 H190 0.930 . S
C223 C225 1.406 . S
C223 C228 1.261 . S
C224 H191 0.930 1_565 S
C224 N226 1.325 . S
C224 C227 1.357 1_565 S
C225 H193 0.928 . S
C225 C223 1.406 . S
C225 N226 1.261 . S
N226 Co177 2.214 . S
N226 C224 1.325 . S
N226 C225 1.261 . S
C227 H197 0.931 . S
C227 C224 1.357 1_545 S
C227 C228 1.312 1_545 S
C228 H199 0.930 1_565 S
C228 C223 1.261 . S
C228 C227 1.312 1_565 S
C229 O201 1.214 . S
C229 O209 1.234 . S
C230 H202 0.929 . S
C230 C233 1.391 . S
C230 C235 1.391 1_556 S
C231 H203 0.929 . S
C231 C232 1.390 1_554 S
C231 N234 1.391 . S
C232 H204 0.930 . S
C232 C231 1.390 1_556 S
C232 C233 1.392 . S
C233 H205 0.929 . S
C233 C230 1.391 . S
C233 C232 1.392 . S
N234 Co178 2.257 . S
N234 C231 1.391 . S
N234 C235 1.388 . S
C235 H206 0.930 . S
C235 C230 1.391 1_554 S
C235 N234 1.388 . S
Co236 O238 2.143 . S
Co236 O244 2.074 . S
Co236 O247 2.093 . S
Co236 O260 2.097 . S
Co236 N277 2.151 . S
Co236 N285 2.214 . S
Co237 O238 2.160 . S
Co237 O243 2.058 . S
Co237 O253 2.057 . S
Co237 O268 2.037 . S
Co237 N272 2.145 . S
Co237 N293 2.257 . S
O238 Co236 2.143 . S
O238 Co237 2.160 . S
C239 O240 1.278 . S
C239 O247 1.224 . S
O240 C239 1.278 . S
C241 O242 1.245 . S
C241 O253 1.232 . S
O242 C241 1.245 . S
O243 Co237 2.058 . S
O243 C269 1.269 . S
O244 Co236 2.074 . S
O244 C269 1.257 . S
H245 C270 0.930 . S
H246 C276 0.930 . S
O247 Co236 2.093 . S
O247 C239 1.224 . S
H248 C280 0.929 . S
H249 C282 0.930 . S
H250 C283 0.930 1_655 S
H251 C281 0.929 . S
H252 C284 0.928 . S
O253 Co237 2.057 . S
O253 C241 1.232 . S
H254 C273 0.929 . S
H255 C274 0.929 . S
H256 C286 0.931 . S
H257 C278 0.929 . S
H258 C287 0.930 1_655 S
H259 C279 0.931 . S
O260 Co236 2.097 . S
O260 C288 1.214 . S
H261 C289 0.929 . S
H262 C290 0.929 . S
H263 C291 0.930 . S
H264 C292 0.929 . S
H265 C294 0.930 . S
H266 C271 0.930 . S
H267 C275 0.930 . S
O268 Co237 2.037 . S
O268 C288 1.234 . S
C269 O243 1.269 . S
C269 O244 1.257 . S
C270 H245 0.930 . S
C270 C273 1.388 . S
C270 C275 1.418 . S
C271 H266 0.930 . S
C271 C274 1.404 . S
C271 C275 1.353 1_455 S
N272 Co237 2.145 . S
N272 C273 1.397 1_455 S
N272 C274 1.334 . S
C273 H254 0.929 . S
C273 C270 1.388 . S
C273 N272 1.397 1_655 S
C274 H255 0.929 . S
C274 C271 1.404 . S
C274 N272 1.334 . S
C275 H267 0.930 . S
C275 C270 1.418 . S
C275 C271 1.353 1_655 S
C276 H246 0.930 . S
C276 N277 1.330 . S
C276 C278 1.446 . S
N277 Co236 2.151 . S
N277 C276 1.330 . S
N277 C281 1.418 . S
C278 H257 0.929 . S
C278 C276 1.446 . S
C278 C279 1.332 . S
C279 H259 0.931 . S
C279 C278 1.332 . S
C279 C280 1.267 . S
C280 H248 0.929 . S
C280 C279 1.267 . S
C280 C281 1.251 . S
C281 H251 0.929 . S
C281 N277 1.418 . S
C281 C280 1.251 . S
C282 H249 0.930 . S
C282 C284 1.406 . S
C282 C287 1.261 . S
C283 H250 0.930 1_455 S
C283 N285 1.325 . S
C283 C286 1.357 1_455 S
C284 H252 0.928 . S
C284 C282 1.406 . S
C284 N285 1.261 . S
N285 Co236 2.214 . S
N285 C283 1.325 . S
N285 C284 1.261 . S
C286 H256 0.931 . S
C286 C283 1.357 1_655 S
C286 C287 1.312 1_655 S
C287 H258 0.930 1_455 S
C287 C282 1.261 . S
C287 C286 1.312 1_455 S
C288 O260 1.214 . S
C288 O268 1.234 . S
C289 H261 0.929 . S
C289 C292 1.391 . S
C289 C294 1.391 1_554 S
C290 H262 0.929 . S
C290 C291 1.390 1_556 S
C290 N293 1.391 . S
C291 H263 0.930 . S
C291 C290 1.390 1_554 S
C291 C292 1.392 . S
C292 H264 0.929 . S
C292 C289 1.391 . S
C292 C291 1.392 . S
N293 Co237 2.257 . S
N293 C290 1.391 . S
N293 C294 1.388 . S
C294 H265 0.930 . S
C294 C289 1.391 1_556 S
C294 N293 1.388 . S
Co295 O297 2.143 . S
Co295 O303 2.074 . S
Co295 O306 2.093 . S
Co295 O319 2.097 . S
Co295 N336 2.151 . S
Co295 N344 2.214 . S
Co296 O297 2.160 . S
Co296 O302 2.058 . S
Co296 O312 2.057 . S
Co296 O327 2.037 . S
Co296 N331 2.145 . S
Co296 N352 2.257 . S
O297 Co295 2.143 . S
O297 Co296 2.160 . S
C298 O299 1.278 . S
C298 O306 1.224 . S
O299 C298 1.278 . S
C300 O301 1.245 . S
C300 O312 1.232 . S
O301 C300 1.245 . S
O302 Co296 2.058 . S
O302 C328 1.269 . S
O303 Co295 2.074 . S
O303 C328 1.257 . S
H304 C329 0.930 . S
H305 C335 0.930 . S
O306 Co295 2.093 . S
O306 C298 1.224 . S
H307 C339 0.929 . S
H308 C341 0.930 . S
H309 C342 0.930 1_565 S
H310 C340 0.929 . S
H311 C343 0.928 . S
O312 Co296 2.057 . S
O312 C300 1.232 . S
H313 C332 0.929 . S
H314 C333 0.929 . S
H315 C345 0.931 . S
H316 C337 0.929 . S
H317 C346 0.930 1_565 S
H318 C338 0.931 . S
O319 Co295 2.097 . S
O319 C347 1.214 . S
H320 C348 0.929 . S
H321 C349 0.929 . S
H322 C350 0.930 . S
H323 C351 0.929 . S
H324 C353 0.930 . S
H325 C330 0.930 . S
H326 C334 0.930 . S
O327 Co296 2.037 . S
O327 C347 1.234 . S
C328 O302 1.269 . S
C328 O303 1.257 . S
C329 H304 0.930 . S
C329 C332 1.388 . S
C329 C334 1.418 . S
C330 H325 0.930 . S
C330 C333 1.404 . S
C330 C334 1.353 1_545 S
N331 Co296 2.145 . S
N331 C332 1.397 1_545 S
N331 C333 1.334 . S
C332 H313 0.929 . S
C332 C329 1.388 . S
C332 N331 1.397 1_565 S
C333 H314 0.929 . S
C333 C330 1.404 . S
C333 N331 1.334 . S
C334 H326 0.930 . S
C334 C329 1.418 . S
C334 C330 1.353 1_565 S
C335 H305 0.930 . S
C335 N336 1.330 . S
C335 C337 1.446 . S
N336 Co295 2.151 . S
N336 C335 1.330 . S
N336 C340 1.418 . S
C337 H316 0.929 . S
C337 C335 1.446 . S
C337 C338 1.332 . S
C338 H318 0.931 . S
C338 C337 1.332 . S
C338 C339 1.267 . S
C339 H307 0.929 . S
C339 C338 1.267 . S
C339 C340 1.251 . S
C340 H310 0.929 . S
C340 N336 1.418 . S
C340 C339 1.251 . S
C341 H308 0.930 . S
C341 C343 1.406 . S
C341 C346 1.261 . S
C342 H309 0.930 1_545 S
C342 N344 1.325 . S
C342 C345 1.357 1_545 S
C343 H311 0.928 . S
C343 C341 1.406 . S
C343 N344 1.261 . S
N344 Co295 2.214 . S
N344 C342 1.325 . S
N344 C343 1.261 . S
C345 H315 0.931 . S
C345 C342 1.357 1_565 S
C345 C346 1.312 1_565 S
C346 H317 0.930 1_545 S
C346 C341 1.261 . S
C346 C345 1.312 1_545 S
C347 O319 1.214 . S
C347 O327 1.234 . S
C348 H320 0.929 . S
C348 C351 1.391 . S
C348 C353 1.391 1_554 S
C349 H321 0.929 . S
C349 C350 1.390 1_556 S
C349 N352 1.391 . S
C350 H322 0.930 . S
C350 C349 1.390 1_554 S
C350 C351 1.392 . S
C351 H323 0.929 . S
C351 C348 1.391 . S
C351 C350 1.392 . S
N352 Co296 2.257 . S
N352 C349 1.391 . S
N352 C353 1.388 . S
C353 H324 0.930 . S
C353 C348 1.391 1_556 S
C353 N352 1.388 . S
Co354 O356 2.143 . S
Co354 O362 2.074 . S
Co354 O365 2.093 . S
Co354 O378 2.097 . S
Co354 N395 2.151 . S
Co354 N403 2.214 . S
Co355 O356 2.160 . S
Co355 O361 2.058 . S
Co355 O371 2.057 . S
Co355 O386 2.037 . S
Co355 N390 2.145 . S
Co355 N411 2.257 . S
O356 Co354 2.143 . S
O356 Co355 2.160 . S
C357 O358 1.278 . S
C357 O365 1.224 . S
O358 C357 1.278 . S
C359 O360 1.245 . S
C359 O371 1.232 . S
O360 C359 1.245 . S
O361 Co355 2.058 . S
O361 C387 1.269 . S
O362 Co354 2.074 . S
O362 C387 1.257 . S
H363 C388 0.930 . S
H364 C394 0.930 . S
O365 Co354 2.093 . S
O365 C357 1.224 . S
H366 C398 0.929 . S
H367 C400 0.930 . S
H368 C401 0.930 1_455 S
H369 C399 0.929 . S
H370 C402 0.928 . S
O371 Co355 2.057 . S
O371 C359 1.232 . S
H372 C391 0.929 . S
H373 C392 0.929 . S
H374 C404 0.931 . S
H375 C396 0.929 . S
H376 C405 0.930 1_455 S
H377 C397 0.931 . S
O378 Co354 2.097 . S
O378 C406 1.214 . S
H379 C407 0.929 . S
H380 C408 0.929 . S
H381 C409 0.930 . S
H382 C410 0.929 . S
H383 C412 0.930 . S
H384 C389 0.930 . S
H385 C393 0.930 . S
O386 Co355 2.037 . S
O386 C406 1.234 . S
C387 O361 1.269 . S
C387 O362 1.257 . S
C388 H363 0.930 . S
C388 C391 1.388 . S
C388 C393 1.418 . S
C389 H384 0.930 . S
C389 C392 1.404 . S
C389 C393 1.353 1_655 S
N390 Co355 2.145 . S
N390 C391 1.397 1_655 S
N390 C392 1.334 . S
C391 H372 0.929 . S
C391 C388 1.388 . S
C391 N390 1.397 1_455 S
C392 H373 0.929 . S
C392 C389 1.404 . S
C392 N390 1.334 . S
C393 H385 0.930 . S
C393 C388 1.418 . S
C393 C389 1.353 1_455 S
C394 H364 0.930 . S
C394 N395 1.330 . S
C394 C396 1.446 . S
N395 Co354 2.151 . S
N395 C394 1.330 . S
N395 C399 1.418 . S
C396 H375 0.929 . S
C396 C394 1.446 . S
C396 C397 1.332 . S
C397 H377 0.931 . S
C397 C396 1.332 . S
C397 C398 1.267 . S
C398 H366 0.929 . S
C398 C397 1.267 . S
C398 C399 1.251 . S
C399 H369 0.929 . S
C399 N395 1.418 . S
C399 C398 1.251 . S
C400 H367 0.930 . S
C400 C402 1.406 . S
C400 C405 1.261 . S
C401 H368 0.930 1_655 S
C401 N403 1.325 . S
C401 C404 1.357 1_655 S
C402 H370 0.928 . S
C402 C400 1.406 . S
C402 N403 1.261 . S
N403 Co354 2.214 . S
N403 C401 1.325 . S
N403 C402 1.261 . S
C404 H374 0.931 . S
C404 C401 1.357 1_455 S
C404 C405 1.312 1_455 S
C405 H376 0.930 1_655 S
C405 C400 1.261 . S
C405 C404 1.312 1_655 S
C406 O378 1.214 . S
C406 O386 1.234 . S
C407 H379 0.929 . S
C407 C410 1.391 . S
C407 C412 1.391 1_554 S
C408 H380 0.929 . S
C408 C409 1.390 1_556 S
C408 N411 1.391 . S
C409 H381 0.930 . S
C409 C408 1.390 1_554 S
C409 C410 1.392 . S
C410 H382 0.929 . S
C410 C407 1.391 . S
C410 C409 1.392 . S
N411 Co355 2.257 . S
N411 C408 1.391 . S
N411 C412 1.388 . S
C412 H383 0.930 . S
C412 C407 1.391 1_556 S
C412 N411 1.388 . S
Co413 O415 2.143 . S
Co413 O421 2.074 . S
Co413 O424 2.093 . S
Co413 O437 2.097 . S
Co413 N454 2.151 . S
Co413 N462 2.214 . S
Co414 O415 2.160 . S
Co414 O420 2.058 . S
Co414 O430 2.057 . S
Co414 O445 2.037 . S
Co414 N449 2.145 . S
Co414 N470 2.257 . S
O415 Co413 2.143 . S
O415 Co414 2.160 . S
C416 O417 1.278 . S
C416 O424 1.224 . S
O417 C416 1.278 . S
C418 O419 1.245 . S
C418 O430 1.232 . S
O419 C418 1.245 . S
O420 Co414 2.058 . S
O420 C446 1.269 . S
O421 Co413 2.074 . S
O421 C446 1.257 . S
H422 C447 0.930 . S
H423 C453 0.930 . S
O424 Co413 2.093 . S
O424 C416 1.224 . S
H425 C457 0.929 . S
H426 C459 0.930 . S
H427 C460 0.930 1_545 S
H428 C458 0.929 . S
H429 C461 0.928 . S
O430 Co414 2.057 . S
O430 C418 1.232 . S
H431 C450 0.929 . S
H432 C451 0.929 . S
H433 C463 0.931 . S
H434 C455 0.929 . S
H435 C464 0.930 1_545 S
H436 C456 0.931 . S
O437 Co413 2.097 . S
O437 C465 1.214 . S
H438 C466 0.929 . S
H439 C467 0.929 . S
H440 C468 0.930 . S
H441 C469 0.929 . S
H442 C471 0.930 . S
H443 C448 0.930 . S
H444 C452 0.930 . S
O445 Co414 2.037 . S
O445 C465 1.234 . S
C446 O420 1.269 . S
C446 O421 1.257 . S
C447 H422 0.930 . S
C447 C450 1.388 . S
C447 C452 1.418 . S
C448 H443 0.930 . S
C448 C451 1.404 . S
C448 C452 1.353 1_565 S
N449 Co414 2.145 . S
N449 C450 1.397 1_565 S
N449 C451 1.334 . S
C450 H431 0.929 . S
C450 C447 1.388 . S
C450 N449 1.397 1_545 S
C451 H432 0.929 . S
C451 C448 1.404 . S
C451 N449 1.334 . S
C452 H444 0.930 . S
C452 C447 1.418 . S
C452 C448 1.353 1_545 S
C453 H423 0.930 . S
C453 N454 1.330 . S
C453 C455 1.446 . S
N454 Co413 2.151 . S
N454 C453 1.330 . S
N454 C458 1.418 . S
C455 H434 0.929 . S
C455 C453 1.446 . S
C455 C456 1.332 . S
C456 H436 0.931 . S
C456 C455 1.332 . S
C456 C457 1.267 . S
C457 H425 0.929 . S
C457 C456 1.267 . S
C457 C458 1.251 . S
C458 H428 0.929 . S
C458 N454 1.418 . S
C458 C457 1.251 . S
C459 H426 0.930 . S
C459 C461 1.406 . S
C459 C464 1.261 . S
C460 H427 0.930 1_565 S
C460 N462 1.325 . S
C460 C463 1.357 1_565 S
C461 H429 0.928 . S
C461 C459 1.406 . S
C461 N462 1.261 . S
N462 Co413 2.214 . S
N462 C460 1.325 . S
N462 C461 1.261 . S
C463 H433 0.931 . S
C463 C460 1.357 1_545 S
C463 C464 1.312 1_545 S
C464 H435 0.930 1_565 S
C464 C459 1.261 . S
C464 C463 1.312 1_565 S
C465 O437 1.214 . S
C465 O445 1.234 . S
C466 H438 0.929 . S
C466 C469 1.391 . S
C466 C471 1.391 1_554 S
C467 H439 0.929 . S
C467 C468 1.390 1_556 S
C467 N470 1.391 . S
C468 H440 0.930 . S
C468 C467 1.390 1_554 S
C468 C469 1.392 . S
C469 H441 0.929 . S
C469 C466 1.391 . S
C469 C468 1.392 . S
N470 Co414 2.257 . S
N470 C467 1.391 . S
N470 C471 1.388 . S
C471 H442 0.930 . S
C471 C466 1.391 1_556 S
C471 N470 1.388 . S
Co472 O474 2.143 . S
Co472 O480 2.074 . S
Co472 O483 2.093 . S
Co472 O496 2.097 . S
Co472 N513 2.151 . S
Co472 N521 2.214 . S
Co473 O474 2.160 . S
Co473 O479 2.058 . S
Co473 O489 2.057 . S
Co473 O504 2.037 . S
Co473 N508 2.145 . S
Co473 N529 2.257 . S
O474 Co472 2.143 . S
O474 Co473 2.160 . S
C475 O476 1.278 . S
C475 O483 1.224 . S
O476 C475 1.278 . S
C477 O478 1.245 . S
C477 O489 1.232 . S
O478 C477 1.245 . S
O479 Co473 2.058 . S
O479 C505 1.269 . S
O480 Co472 2.074 . S
O480 C505 1.257 . S
H481 C506 0.930 . S
H482 C512 0.930 . S
O483 Co472 2.093 . S
O483 C475 1.224 . S
H484 C516 0.929 . S
H485 C518 0.930 . S
H486 C519 0.930 . S
H487 C517 0.929 . S
H488 C520 0.928 . S
O489 Co473 2.057 . S
O489 C477 1.232 . S
H490 C509 0.929 . S
H491 C510 0.929 . S
H492 C522 0.931 . S
H493 C514 0.929 . S
H494 C523 0.930 . S
H495 C515 0.931 . S
O496 Co472 2.097 . S
O496 C524 1.214 . S
H497 C525 0.929 . S
H498 C526 0.929 . S
H499 C527 0.930 . S
H500 C528 0.929 . S
H501 C530 0.930 . S
H502 C507 0.930 . S
H503 C511 0.930 . S
O504 Co473 2.037 . S
O504 C524 1.234 . S
C505 O479 1.269 . S
C505 O480 1.257 . S
C506 H481 0.930 . S
C506 C509 1.388 . S
C506 C511 1.418 . S
C507 H502 0.930 . S
C507 C510 1.404 . S
C507 C511 1.353 . S
N508 Co473 2.145 . S
N508 C509 1.397 . S
N508 C510 1.334 . S
C509 H490 0.929 . S
C509 C506 1.388 . S
C509 N508 1.397 . S
C510 H491 0.929 . S
C510 C507 1.404 . S
C510 N508 1.334 . S
C511 H503 0.930 . S
C511 C506 1.418 . S
C511 C507 1.353 . S
C512 H482 0.930 . S
C512 N513 1.330 . S
C512 C514 1.446 . S
N513 Co472 2.151 . S
N513 C512 1.330 . S
N513 C517 1.418 . S
C514 H493 0.929 . S
C514 C512 1.446 . S
C514 C515 1.332 . S
C515 H495 0.931 . S
C515 C514 1.332 . S
C515 C516 1.267 . S
C516 H484 0.929 . S
C516 C515 1.267 . S
C516 C517 1.251 . S
C517 H487 0.929 . S
C517 N513 1.418 . S
C517 C516 1.251 . S
C518 H485 0.930 . S
C518 C520 1.406 . S
C518 C523 1.261 . S
C519 H486 0.930 . S
C519 N521 1.325 . S
C519 C522 1.357 . S
C520 H488 0.928 . S
C520 C518 1.406 . S
C520 N521 1.261 . S
N521 Co472 2.214 . S
N521 C519 1.325 . S
N521 C520 1.261 . S
C522 H492 0.931 . S
C522 C519 1.357 . S
C522 C523 1.312 . S
C523 H494 0.930 . S
C523 C518 1.261 . S
C523 C522 1.312 . S
C524 O496 1.214 . S
C524 O504 1.234 . S
C525 H497 0.929 . S
C525 C528 1.391 . S
C525 C530 1.391 . S
C526 H498 0.929 . S
C526 C527 1.390 . S
C526 N529 1.391 . S
C527 H499 0.930 . S
C527 C526 1.390 . S
C527 C528 1.392 . S
C528 H500 0.929 . S
C528 C525 1.391 . S
C528 C527 1.392 . S
N529 Co473 2.257 . S
N529 C526 1.391 . S
N529 C530 1.388 . S
C530 H501 0.930 . S
C530 C525 1.391 . S
C530 N529 1.388 . S
Co531 O533 2.143 . S
Co531 O539 2.074 . S
Co531 O542 2.093 . S
Co531 O555 2.097 . S
Co531 N572 2.151 . S
Co531 N580 2.214 . S
Co532 O533 2.160 . S
Co532 O538 2.058 . S
Co532 O548 2.057 . S
Co532 O563 2.037 . S
Co532 N567 2.145 . S
Co532 N588 2.257 . S
O533 Co531 2.143 . S
O533 Co532 2.160 . S
C534 O535 1.278 . S
C534 O542 1.224 . S
O535 C534 1.278 . S
C536 O537 1.245 . S
C536 O548 1.232 . S
O537 C536 1.245 . S
O538 Co532 2.058 . S
O538 C564 1.269 . S
O539 Co531 2.074 . S
O539 C564 1.257 . S
H540 C565 0.930 . S
H541 C571 0.930 . S
O542 Co531 2.093 . S
O542 C534 1.224 . S
H543 C575 0.929 . S
H544 C577 0.930 . S
H545 C578 0.930 . S
H546 C576 0.929 . S
H547 C579 0.928 . S
O548 Co532 2.057 . S
O548 C536 1.232 . S
H549 C568 0.929 . S
H550 C569 0.929 . S
H551 C581 0.931 . S
H552 C573 0.929 . S
H553 C582 0.930 . S
H554 C574 0.931 . S
O555 Co531 2.097 . S
O555 C583 1.214 . S
H556 C584 0.929 . S
H557 C585 0.929 . S
H558 C586 0.930 . S
H559 C587 0.929 . S
H560 C589 0.930 . S
H561 C566 0.930 . S
H562 C570 0.930 . S
O563 Co532 2.037 . S
O563 C583 1.234 . S
C564 O538 1.269 . S
C564 O539 1.257 . S
C565 H540 0.930 . S
C565 C568 1.388 . S
C565 C570 1.418 . S
C566 H561 0.930 . S
C566 C569 1.404 . S
C566 C570 1.353 . S
N567 Co532 2.145 . S
N567 C568 1.397 . S
N567 C569 1.334 . S
C568 H549 0.929 . S
C568 C565 1.388 . S
C568 N567 1.397 . S
C569 H550 0.929 . S
C569 C566 1.404 . S
C569 N567 1.334 . S
C570 H562 0.930 . S
C570 C565 1.418 . S
C570 C566 1.353 . S
C571 H541 0.930 . S
C571 N572 1.330 . S
C571 C573 1.446 . S
N572 Co531 2.151 . S
N572 C571 1.330 . S
N572 C576 1.418 . S
C573 H552 0.929 . S
C573 C571 1.446 . S
C573 C574 1.332 . S
C574 H554 0.931 . S
C574 C573 1.332 . S
C574 C575 1.267 . S
C575 H543 0.929 . S
C575 C574 1.267 . S
C575 C576 1.251 . S
C576 H546 0.929 . S
C576 N572 1.418 . S
C576 C575 1.251 . S
C577 H544 0.930 . S
C577 C579 1.406 . S
C577 C582 1.261 . S
C578 H545 0.930 . S
C578 N580 1.325 . S
C578 C581 1.357 . S
C579 H547 0.928 . S
C579 C577 1.406 . S
C579 N580 1.261 . S
N580 Co531 2.214 . S
N580 C578 1.325 . S
N580 C579 1.261 . S
C581 H551 0.931 . S
C581 C578 1.357 . S
C581 C582 1.312 . S
C582 H553 0.930 . S
C582 C577 1.261 . S
C582 C581 1.312 . S
C583 O555 1.214 . S
C583 O563 1.234 . S
C584 H556 0.929 . S
C584 C587 1.391 . S
C584 C589 1.391 . S
C585 H557 0.929 . S
C585 C586 1.390 . S
C585 N588 1.391 . S
C586 H558 0.930 . S
C586 C585 1.390 . S
C586 C587 1.392 . S
C587 H559 0.929 . S
C587 C584 1.391 . S
C587 C586 1.392 . S
N588 Co532 2.257 . S
N588 C585 1.391 . S
N588 C589 1.388 . S
C589 H560 0.930 . S
C589 C584 1.391 . S
C589 N588 1.388 . S
Co590 O592 2.143 . S
Co590 O598 2.074 . S
Co590 O601 2.093 . S
Co590 O614 2.097 . S
Co590 N631 2.151 . S
Co590 N639 2.214 . S
Co591 O592 2.160 . S
Co591 O597 2.058 . S
Co591 O607 2.057 . S
Co591 O622 2.037 . S
Co591 N626 2.145 . S
Co591 N647 2.257 . S
O592 Co590 2.143 . S
O592 Co591 2.160 . S
C593 O594 1.278 . S
C593 O601 1.224 . S
O594 C593 1.278 . S
C595 O596 1.245 . S
C595 O607 1.232 . S
O596 C595 1.245 . S
O597 Co591 2.058 . S
O597 C623 1.269 . S
O598 Co590 2.074 . S
O598 C623 1.257 . S
H599 C624 0.930 . S
H600 C630 0.930 . S
O601 Co590 2.093 . S
O601 C593 1.224 . S
H602 C634 0.929 . S
H603 C636 0.930 . S
H604 C637 0.930 . S
H605 C635 0.929 . S
H606 C638 0.928 . S
O607 Co591 2.057 . S
O607 C595 1.232 . S
H608 C627 0.929 . S
H609 C628 0.929 . S
H610 C640 0.931 . S
H611 C632 0.929 . S
H612 C641 0.930 . S
H613 C633 0.931 . S
O614 Co590 2.097 . S
O614 C642 1.214 . S
H615 C643 0.929 . S
H616 C644 0.929 . S
H617 C645 0.930 . S
H618 C646 0.929 . S
H619 C648 0.930 . S
H620 C625 0.930 . S
H621 C629 0.930 . S
O622 Co591 2.037 . S
O622 C642 1.234 . S
C623 O597 1.269 . S
C623 O598 1.257 . S
C624 H599 0.930 . S
C624 C627 1.388 . S
C624 C629 1.418 . S
C625 H620 0.930 . S
C625 C628 1.404 . S
C625 C629 1.353 . S
N626 Co591 2.145 . S
N626 C627 1.397 . S
N626 C628 1.334 . S
C627 H608 0.929 . S
C627 C624 1.388 . S
C627 N626 1.397 . S
C628 H609 0.929 . S
C628 C625 1.404 . S
C628 N626 1.334 . S
C629 H621 0.930 . S
C629 C624 1.418 . S
C629 C625 1.353 . S
C630 H600 0.930 . S
C630 N631 1.330 . S
C630 C632 1.446 . S
N631 Co590 2.151 . S
N631 C630 1.330 . S
N631 C635 1.418 . S
C632 H611 0.929 . S
C632 C630 1.446 . S
C632 C633 1.332 . S
C633 H613 0.931 . S
C633 C632 1.332 . S
C633 C634 1.267 . S
C634 H602 0.929 . S
C634 C633 1.267 . S
C634 C635 1.251 . S
C635 H605 0.929 . S
C635 N631 1.418 . S
C635 C634 1.251 . S
C636 H603 0.930 . S
C636 C638 1.406 . S
C636 C641 1.261 . S
C637 H604 0.930 . S
C637 N639 1.325 . S
C637 C640 1.357 . S
C638 H606 0.928 . S
C638 C636 1.406 . S
C638 N639 1.261 . S
N639 Co590 2.214 . S
N639 C637 1.325 . S
N639 C638 1.261 . S
C640 H610 0.931 . S
C640 C637 1.357 . S
C640 C641 1.312 . S
C641 H612 0.930 . S
C641 C636 1.261 . S
C641 C640 1.312 . S
C642 O614 1.214 . S
C642 O622 1.234 . S
C643 H615 0.929 . S
C643 C646 1.391 . S
C643 C648 1.391 . S
C644 H616 0.929 . S
C644 C645 1.390 . S
C644 N647 1.391 . S
C645 H617 0.930 . S
C645 C644 1.390 . S
C645 C646 1.392 . S
C646 H618 0.929 . S
C646 C643 1.391 . S
C646 C645 1.392 . S
N647 Co591 2.257 . S
N647 C644 1.391 . S
N647 C648 1.388 . S
C648 H619 0.930 . S
C648 C643 1.391 . S
C648 N647 1.388 . S
Co649 O651 2.143 . S
Co649 O657 2.074 . S
Co649 O660 2.093 . S
Co649 O673 2.097 . S
Co649 N690 2.151 . S
Co649 N698 2.214 . S
Co650 O651 2.160 . S
Co650 O656 2.058 . S
Co650 O666 2.057 . S
Co650 O681 2.037 . S
Co650 N685 2.145 . S
Co650 N706 2.257 . S
O651 Co649 2.143 . S
O651 Co650 2.160 . S
C652 O653 1.278 . S
C652 O660 1.224 . S
O653 C652 1.278 . S
C654 O655 1.245 . S
C654 O666 1.232 . S
O655 C654 1.245 . S
O656 Co650 2.058 . S
O656 C682 1.269 . S
O657 Co649 2.074 . S
O657 C682 1.257 . S
H658 C683 0.930 . S
H659 C689 0.930 . S
O660 Co649 2.093 . S
O660 C652 1.224 . S
H661 C693 0.929 . S
H662 C695 0.930 . S
H663 C696 0.930 . S
H664 C694 0.929 . S
H665 C697 0.928 . S
O666 Co650 2.057 . S
O666 C654 1.232 . S
H667 C686 0.929 . S
H668 C687 0.929 . S
H669 C699 0.931 . S
H670 C691 0.929 . S
H671 C700 0.930 . S
H672 C692 0.931 . S
O673 Co649 2.097 . S
O673 C701 1.214 . S
H674 C702 0.929 . S
H675 C703 0.929 . S
H676 C704 0.930 . S
H677 C705 0.929 . S
H678 C707 0.930 . S
H679 C684 0.930 . S
H680 C688 0.930 . S
O681 Co650 2.037 . S
O681 C701 1.234 . S
C682 O656 1.269 . S
C682 O657 1.257 . S
C683 H658 0.930 . S
C683 C686 1.388 . S
C683 C688 1.418 . S
C684 H679 0.930 . S
C684 C687 1.404 . S
C684 C688 1.353 . S
N685 Co650 2.145 . S
N685 C686 1.397 . S
N685 C687 1.334 . S
C686 H667 0.929 . S
C686 C683 1.388 . S
C686 N685 1.397 . S
C687 H668 0.929 . S
C687 C684 1.404 . S
C687 N685 1.334 . S
C688 H680 0.930 . S
C688 C683 1.418 . S
C688 C684 1.353 . S
C689 H659 0.930 . S
C689 N690 1.330 . S
C689 C691 1.446 . S
N690 Co649 2.151 . S
N690 C689 1.330 . S
N690 C694 1.418 . S
C691 H670 0.929 . S
C691 C689 1.446 . S
C691 C692 1.332 . S
C692 H672 0.931 . S
C692 C691 1.332 . S
C692 C693 1.267 . S
C693 H661 0.929 . S
C693 C692 1.267 . S
C693 C694 1.251 . S
C694 H664 0.929 . S
C694 N690 1.418 . S
C694 C693 1.251 . S
C695 H662 0.930 . S
C695 C697 1.406 . S
C695 C700 1.261 . S
C696 H663 0.930 . S
C696 N698 1.325 . S
C696 C699 1.357 . S
C697 H665 0.928 . S
C697 C695 1.406 . S
C697 N698 1.261 . S
N698 Co649 2.214 . S
N698 C696 1.325 . S
N698 C697 1.261 . S
C699 H669 0.931 . S
C699 C696 1.357 . S
C699 C700 1.312 . S
C700 H671 0.930 . S
C700 C695 1.261 . S
C700 C699 1.312 . S
C701 O673 1.214 . S
C701 O681 1.234 . S
C702 H674 0.929 . S
C702 C705 1.391 . S
C702 C707 1.391 . S
C703 H675 0.929 . S
C703 C704 1.390 . S
C703 N706 1.391 . S
C704 H676 0.930 . S
C704 C703 1.390 . S
C704 C705 1.392 . S
C705 H677 0.929 . S
C705 C702 1.391 . S
C705 C704 1.392 . S
N706 Co650 2.257 . S
N706 C703 1.391 . S
N706 C707 1.388 . S
C707 H678 0.930 . S
C707 C702 1.391 . S
C707 N706 1.388 . S
Co708 O710 2.143 . S
Co708 O716 2.074 . S
Co708 O719 2.093 . S
Co708 O732 2.097 . S
Co708 N749 2.151 . S
Co708 N757 2.214 . S
Co709 O710 2.160 . S
Co709 O715 2.058 . S
Co709 O725 2.057 . S
Co709 O740 2.037 . S
Co709 N744 2.145 . S
Co709 N765 2.257 . S
O710 Co708 2.143 . S
O710 Co709 2.160 . S
C711 O712 1.278 . S
C711 O719 1.224 . S
O712 C711 1.278 . S
C713 O714 1.245 . S
C713 O725 1.232 . S
O714 C713 1.245 . S
O715 Co709 2.058 . S
O715 C741 1.269 . S
O716 Co708 2.074 . S
O716 C741 1.257 . S
H717 C742 0.930 . S
H718 C748 0.930 . S
O719 Co708 2.093 . S
O719 C711 1.224 . S
H720 C752 0.929 . S
H721 C754 0.930 . S
H722 C755 0.930 . S
H723 C753 0.929 . S
H724 C756 0.928 . S
O725 Co709 2.057 . S
O725 C713 1.232 . S
H726 C745 0.929 . S
H727 C746 0.929 . S
H728 C758 0.931 . S
H729 C750 0.929 . S
H730 C759 0.930 . S
H731 C751 0.931 . S
O732 Co708 2.097 . S
O732 C760 1.214 . S
H733 C761 0.929 . S
H734 C762 0.929 . S
H735 C763 0.930 . S
H736 C764 0.929 . S
H737 C766 0.930 . S
H738 C743 0.930 . S
H739 C747 0.930 . S
O740 Co709 2.037 . S
O740 C760 1.234 . S
C741 O715 1.269 . S
C741 O716 1.257 . S
C742 H717 0.930 . S
C742 C745 1.388 . S
C742 C747 1.418 . S
C743 H738 0.930 . S
C743 C746 1.404 . S
C743 C747 1.353 . S
N744 Co709 2.145 . S
N744 C745 1.397 . S
N744 C746 1.334 . S
C745 H726 0.929 . S
C745 C742 1.388 . S
C745 N744 1.397 . S
C746 H727 0.929 . S
C746 C743 1.404 . S
C746 N744 1.334 . S
C747 H739 0.930 . S
C747 C742 1.418 . S
C747 C743 1.353 . S
C748 H718 0.930 . S
C748 N749 1.330 . S
C748 C750 1.446 . S
N749 Co708 2.151 . S
N749 C748 1.330 . S
N749 C753 1.418 . S
C750 H729 0.929 . S
C750 C748 1.446 . S
C750 C751 1.332 . S
C751 H731 0.931 . S
C751 C750 1.332 . S
C751 C752 1.267 . S
C752 H720 0.929 . S
C752 C751 1.267 . S
C752 C753 1.251 . S
C753 H723 0.929 . S
C753 N749 1.418 . S
C753 C752 1.251 . S
C754 H721 0.930 . S
C754 C756 1.406 . S
C754 C759 1.261 . S
C755 H722 0.930 . S
C755 N757 1.325 . S
C755 C758 1.357 . S
C756 H724 0.928 . S
C756 C754 1.406 . S
C756 N757 1.261 . S
N757 Co708 2.214 . S
N757 C755 1.325 . S
N757 C756 1.261 . S
C758 H728 0.931 . S
C758 C755 1.357 . S
C758 C759 1.312 . S
C759 H730 0.930 . S
C759 C754 1.261 . S
C759 C758 1.312 . S
C760 O732 1.214 . S
C760 O740 1.234 . S
C761 H733 0.929 . S
C761 C764 1.391 . S
C761 C766 1.391 . S
C762 H734 0.929 . S
C762 C763 1.390 . S
C762 N765 1.391 . S
C763 H735 0.930 . S
C763 C762 1.390 . S
C763 C764 1.392 . S
C764 H736 0.929 . S
C764 C761 1.391 . S
C764 C763 1.392 . S
N765 Co709 2.257 . S
N765 C762 1.391 . S
N765 C766 1.388 . S
C766 H737 0.930 . S
C766 C761 1.391 . S
C766 N765 1.388 . S
Co767 O769 2.143 . S
Co767 O775 2.074 . S
Co767 O778 2.093 . S
Co767 O791 2.097 . S
Co767 N808 2.151 . S
Co767 N816 2.214 . S
Co768 O769 2.160 . S
Co768 O774 2.058 . S
Co768 O784 2.057 . S
Co768 O799 2.037 . S
Co768 N803 2.145 . S
Co768 N824 2.257 . S
O769 Co767 2.143 . S
O769 Co768 2.160 . S
C770 O771 1.278 . S
C770 O778 1.224 . S
O771 C770 1.278 . S
C772 O773 1.245 . S
C772 O784 1.232 . S
O773 C772 1.245 . S
O774 Co768 2.058 . S
O774 C800 1.269 . S
O775 Co767 2.074 . S
O775 C800 1.257 . S
H776 C801 0.930 . S
H777 C807 0.930 . S
O778 Co767 2.093 . S
O778 C770 1.224 . S
H779 C811 0.929 . S
H780 C813 0.930 . S
H781 C814 0.930 . S
H782 C812 0.929 . S
H783 C815 0.928 . S
O784 Co768 2.057 . S
O784 C772 1.232 . S
H785 C804 0.929 . S
H786 C805 0.929 . S
H787 C817 0.931 . S
H788 C809 0.929 . S
H789 C818 0.930 . S
H790 C810 0.931 . S
O791 Co767 2.097 . S
O791 C819 1.214 . S
H792 C820 0.929 . S
H793 C821 0.929 . S
H794 C822 0.930 . S
H795 C823 0.929 . S
H796 C825 0.930 . S
H797 C802 0.930 . S
H798 C806 0.930 . S
O799 Co768 2.037 . S
O799 C819 1.234 . S
C800 O774 1.269 . S
C800 O775 1.257 . S
C801 H776 0.930 . S
C801 C804 1.388 . S
C801 C806 1.418 . S
C802 H797 0.930 . S
C802 C805 1.404 . S
C802 C806 1.353 . S
N803 Co768 2.145 . S
N803 C804 1.397 . S
N803 C805 1.334 . S
C804 H785 0.929 . S
C804 C801 1.388 . S
C804 N803 1.397 . S
C805 H786 0.929 . S
C805 C802 1.404 . S
C805 N803 1.334 . S
C806 H798 0.930 . S
C806 C801 1.418 . S
C806 C802 1.353 . S
C807 H777 0.930 . S
C807 N808 1.330 . S
C807 C809 1.446 . S
N808 Co767 2.151 . S
N808 C807 1.330 . S
N808 C812 1.418 . S
C809 H788 0.929 . S
C809 C807 1.446 . S
C809 C810 1.332 . S
C810 H790 0.931 . S
C810 C809 1.332 . S
C810 C811 1.267 . S
C811 H779 0.929 . S
C811 C810 1.267 . S
C811 C812 1.251 . S
C812 H782 0.929 . S
C812 N808 1.418 . S
C812 C811 1.251 . S
C813 H780 0.930 . S
C813 C815 1.406 . S
C813 C818 1.261 . S
C814 H781 0.930 . S
C814 N816 1.325 . S
C814 C817 1.357 . S
C815 H783 0.928 . S
C815 C813 1.406 . S
C815 N816 1.261 . S
N816 Co767 2.214 . S
N816 C814 1.325 . S
N816 C815 1.261 . S
C817 H787 0.931 . S
C817 C814 1.357 . S
C817 C818 1.312 . S
C818 H789 0.930 . S
C818 C813 1.261 . S
C818 C817 1.312 . S
C819 O791 1.214 . S
C819 O799 1.234 . S
C820 H792 0.929 . S
C820 C823 1.391 . S
C820 C825 1.391 . S
C821 H793 0.929 . S
C821 C822 1.390 . S
C821 N824 1.391 . S
C822 H794 0.930 . S
C822 C821 1.390 . S
C822 C823 1.392 . S
C823 H795 0.929 . S
C823 C820 1.391 . S
C823 C822 1.392 . S
N824 Co768 2.257 . S
N824 C821 1.391 . S
N824 C825 1.388 . S
C825 H796 0.930 . S
C825 C820 1.391 . S
C825 N824 1.388 . S
Co826 O828 2.143 . S
Co826 O834 2.074 . S
Co826 O837 2.093 . S
Co826 O850 2.097 . S
Co826 N867 2.151 . S
Co826 N875 2.214 . S
Co827 O828 2.160 . S
Co827 O833 2.058 . S
Co827 O843 2.057 . S
Co827 O858 2.037 . S
Co827 N862 2.145 . S
Co827 N883 2.257 . S
O828 Co826 2.143 . S
O828 Co827 2.160 . S
C829 O830 1.278 . S
C829 O837 1.224 . S
O830 C829 1.278 . S
C831 O832 1.245 . S
C831 O843 1.232 . S
O832 C831 1.245 . S
O833 Co827 2.058 . S
O833 C859 1.269 . S
O834 Co826 2.074 . S
O834 C859 1.257 . S
H835 C860 0.930 . S
H836 C866 0.930 . S
O837 Co826 2.093 . S
O837 C829 1.224 . S
H838 C870 0.929 . S
H839 C872 0.930 . S
H840 C873 0.930 . S
H841 C871 0.929 . S
H842 C874 0.928 . S
O843 Co827 2.057 . S
O843 C831 1.232 . S
H844 C863 0.929 . S
H845 C864 0.929 . S
H846 C876 0.931 . S
H847 C868 0.929 . S
H848 C877 0.930 . S
H849 C869 0.931 . S
O850 Co826 2.097 . S
O850 C878 1.214 . S
H851 C879 0.929 . S
H852 C880 0.929 . S
H853 C881 0.930 . S
H854 C882 0.929 . S
H855 C884 0.930 . S
H856 C861 0.930 . S
H857 C865 0.930 . S
O858 Co827 2.037 . S
O858 C878 1.234 . S
C859 O833 1.269 . S
C859 O834 1.257 . S
C860 H835 0.930 . S
C860 C863 1.388 . S
C860 C865 1.418 . S
C861 H856 0.930 . S
C861 C864 1.404 . S
C861 C865 1.353 . S
N862 Co827 2.145 . S
N862 C863 1.397 . S
N862 C864 1.334 . S
C863 H844 0.929 . S
C863 C860 1.388 . S
C863 N862 1.397 . S
C864 H845 0.929 . S
C864 C861 1.404 . S
C864 N862 1.334 . S
C865 H857 0.930 . S
C865 C860 1.418 . S
C865 C861 1.353 . S
C866 H836 0.930 . S
C866 N867 1.330 . S
C866 C868 1.446 . S
N867 Co826 2.151 . S
N867 C866 1.330 . S
N867 C871 1.418 . S
C868 H847 0.929 . S
C868 C866 1.446 . S
C868 C869 1.332 . S
C869 H849 0.931 . S
C869 C868 1.332 . S
C869 C870 1.267 . S
C870 H838 0.929 . S
C870 C869 1.267 . S
C870 C871 1.251 . S
C871 H841 0.929 . S
C871 N867 1.418 . S
C871 C870 1.251 . S
C872 H839 0.930 . S
C872 C874 1.406 . S
C872 C877 1.261 . S
C873 H840 0.930 . S
C873 N875 1.325 . S
C873 C876 1.357 . S
C874 H842 0.928 . S
C874 C872 1.406 . S
C874 N875 1.261 . S
N875 Co826 2.214 . S
N875 C873 1.325 . S
N875 C874 1.261 . S
C876 H846 0.931 . S
C876 C873 1.357 . S
C876 C877 1.312 . S
C877 H848 0.930 . S
C877 C872 1.261 . S
C877 C876 1.312 . S
C878 O850 1.214 . S
C878 O858 1.234 . S
C879 H851 0.929 . S
C879 C882 1.391 . S
C879 C884 1.391 . S
C880 H852 0.929 . S
C880 C881 1.390 . S
C880 N883 1.391 . S
C881 H853 0.930 . S
C881 C880 1.390 . S
C881 C882 1.392 . S
C882 H854 0.929 . S
C882 C879 1.391 . S
C882 C881 1.392 . S
N883 Co827 2.257 . S
N883 C880 1.391 . S
N883 C884 1.388 . S
C884 H855 0.930 . S
C884 C879 1.391 . S
C884 N883 1.388 . S
Co885 O887 2.143 . S
Co885 O893 2.074 . S
Co885 O896 2.093 . S
Co885 O909 2.097 . S
Co885 N926 2.151 . S
Co885 N934 2.214 . S
Co886 O887 2.160 . S
Co886 O892 2.058 . S
Co886 O902 2.057 . S
Co886 O917 2.037 . S
Co886 N921 2.145 . S
Co886 N942 2.257 . S
O887 Co885 2.143 . S
O887 Co886 2.160 . S
C888 O889 1.278 . S
C888 O896 1.224 . S
O889 C888 1.278 . S
C890 O891 1.245 . S
C890 O902 1.232 . S
O891 C890 1.245 . S
O892 Co886 2.058 . S
O892 C918 1.269 . S
O893 Co885 2.074 . S
O893 C918 1.257 . S
H894 C919 0.930 . S
H895 C925 0.930 . S
O896 Co885 2.093 . S
O896 C888 1.224 . S
H897 C929 0.929 . S
H898 C931 0.930 . S
H899 C932 0.930 . S
H900 C930 0.929 . S
H901 C933 0.928 . S
O902 Co886 2.057 . S
O902 C890 1.232 . S
H903 C922 0.929 . S
H904 C923 0.929 . S
H905 C935 0.931 . S
H906 C927 0.929 . S
H907 C936 0.930 . S
H908 C928 0.931 . S
O909 Co885 2.097 . S
O909 C937 1.214 . S
H910 C938 0.929 . S
H911 C939 0.929 . S
H912 C940 0.930 . S
H913 C941 0.929 . S
H914 C943 0.930 . S
H915 C920 0.930 . S
H916 C924 0.930 . S
O917 Co886 2.037 . S
O917 C937 1.234 . S
C918 O892 1.269 . S
C918 O893 1.257 . S
C919 H894 0.930 . S
C919 C922 1.388 . S
C919 C924 1.418 . S
C920 H915 0.930 . S
C920 C923 1.404 . S
C920 C924 1.353 . S
N921 Co886 2.145 . S
N921 C922 1.397 . S
N921 C923 1.334 . S
C922 H903 0.929 . S
C922 C919 1.388 . S
C922 N921 1.397 . S
C923 H904 0.929 . S
C923 C920 1.404 . S
C923 N921 1.334 . S
C924 H916 0.930 . S
C924 C919 1.418 . S
C924 C920 1.353 . S
C925 H895 0.930 . S
C925 N926 1.330 . S
C925 C927 1.446 . S
N926 Co885 2.151 . S
N926 C925 1.330 . S
N926 C930 1.418 . S
C927 H906 0.929 . S
C927 C925 1.446 . S
C927 C928 1.332 . S
C928 H908 0.931 . S
C928 C927 1.332 . S
C928 C929 1.267 . S
C929 H897 0.929 . S
C929 C928 1.267 . S
C929 C930 1.251 . S
C930 H900 0.929 . S
C930 N926 1.418 . S
C930 C929 1.251 . S
C931 H898 0.930 . S
C931 C933 1.406 . S
C931 C936 1.261 . S
C932 H899 0.930 . S
C932 N934 1.325 . S
C932 C935 1.357 . S
C933 H901 0.928 . S
C933 C931 1.406 . S
C933 N934 1.261 . S
N934 Co885 2.214 . S
N934 C932 1.325 . S
N934 C933 1.261 . S
C935 H905 0.931 . S
C935 C932 1.357 . S
C935 C936 1.312 . S
C936 H907 0.930 . S
C936 C931 1.261 . S
C936 C935 1.312 . S
C937 O909 1.214 . S
C937 O917 1.234 . S
C938 H910 0.929 . S
C938 C941 1.391 . S
C938 C943 1.391 . S
C939 H911 0.929 . S
C939 C940 1.390 . S
C939 N942 1.391 . S
C940 H912 0.930 . S
C940 C939 1.390 . S
C940 C941 1.392 . S
C941 H913 0.929 . S
C941 C938 1.391 . S
C941 C940 1.392 . S
N942 Co886 2.257 . S
N942 C939 1.391 . S
N942 C943 1.388 . S
C943 H914 0.930 . S
C943 C938 1.391 . S
C943 N942 1.388 . S
H944 C950 0.930 . S
H945 C953 0.930 . S
H946 C954 0.930 . S
H947 C955 0.930 . S
H948 C958 0.930 . S
H949 C959 0.930 . S
C950 H944 0.930 . S
C950 C951 1.355 . S
C950 C952 1.415 . S
C951 C950 1.355 . S
C951 C953 1.419 . S
C952 C950 1.415 . S
C952 C957 1.425 . S
C952 C959 1.409 . S
C953 H945 0.930 . S
C953 C951 1.419 . S
C953 C954 1.362 . S
C954 H946 0.930 . S
C954 C953 1.362 . S
C954 C957 1.409 . S
C955 H947 0.930 . S
C955 C956 1.355 . S
C955 C957 1.415 . S
C956 C955 1.355 . S
C956 C958 1.419 . S
C957 C952 1.425 . S
C957 C954 1.409 . S
C957 C955 1.415 . S
C958 H948 0.930 . S
C958 C956 1.419 . S
C958 C959 1.362 . S
C959 H949 0.930 . S
C959 C952 1.409 . S
C959 C958 1.362 . S
H960 C966 0.930 . S
H961 C969 0.930 . S
H962 C970 0.930 . S
H963 C971 0.930 . S
H964 C974 0.930 . S
H965 C975 0.930 . S
C966 H960 0.930 . S
C966 C967 1.355 . S
C966 C968 1.415 . S
C967 C966 1.355 . S
C967 C969 1.419 . S
C968 C966 1.415 . S
C968 C973 1.425 . S
C968 C975 1.409 . S
C969 H961 0.930 . S
C969 C967 1.419 . S
C969 C970 1.362 . S
C970 H962 0.930 . S
C970 C969 1.362 . S
C970 C973 1.409 . S
C971 H963 0.930 . S
C971 C972 1.355 . S
C971 C973 1.415 . S
C972 C971 1.355 . S
C972 C974 1.419 . S
C973 C968 1.425 . S
C973 C970 1.409 . S
C973 C971 1.415 . S
C974 H964 0.930 . S
C974 C972 1.419 . S
C974 C975 1.362 . S
C975 H965 0.930 . S
C975 C968 1.409 . S
C975 C974 1.362 . S
H976 C982 0.930 . S
H977 C985 0.930 . S
H978 C986 0.930 . S
H979 C987 0.930 . S
H980 C990 0.930 . S
H981 C991 0.930 . S
C982 H976 0.930 . S
C982 C983 1.355 . S
C982 C984 1.415 . S
C983 C982 1.355 . S
C983 C985 1.419 . S
C984 C982 1.415 . S
C984 C989 1.425 . S
C984 C991 1.409 . S
C985 H977 0.930 . S
C985 C983 1.419 . S
C985 C986 1.362 . S
C986 H978 0.930 . S
C986 C985 1.362 . S
C986 C989 1.409 . S
C987 H979 0.930 . S
C987 C988 1.355 . S
C987 C989 1.415 . S
C988 C987 1.355 . S
C988 C990 1.419 . S
C989 C984 1.425 . S
C989 C986 1.409 . S
C989 C987 1.415 . S
C990 H980 0.930 . S
C990 C988 1.419 . S
C990 C991 1.362 . S
C991 H981 0.930 . S
C991 C984 1.409 . S
C991 C990 1.362 . S
H992 C998 0.930 . S
H993 C1001 0.930 . S
H994 C1002 0.930 . S
H995 C1003 0.930 . S
H996 C1006 0.930 . S
H997 C1007 0.930 . S
C998 H992 0.930 . S
C998 C999 1.355 . S
C998 C1000 1.415 . S
C999 C998 1.355 . S
C999 C1001 1.419 . S
C1000 C998 1.415 . S
C1000 C1005 1.425 . S
C1000 C1007 1.409 . S
C1001 H993 0.930 . S
C1001 C999 1.419 . S
C1001 C1002 1.362 . S
C1002 H994 0.930 . S
C1002 C1001 1.362 . S
C1002 C1005 1.409 . S
C1003 H995 0.930 . S
C1003 C1004 1.355 . S
C1003 C1005 1.415 . S
C1004 C1003 1.355 . S
C1004 C1006 1.419 . S
C1005 C1000 1.425 . S
C1005 C1002 1.409 . S
C1005 C1003 1.415 . S
C1006 H996 0.930 . S
C1006 C1004 1.419 . S
C1006 C1007 1.362 . S
C1007 H997 0.930 . S
C1007 C1000 1.409 . S
C1007 C1006 1.362 . S
H1008 C1014 0.930 . S
H1009 C1017 0.930 . S
H1010 C1018 0.930 . S
H1011 C1019 0.930 . S
H1012 C1022 0.930 . S
H1013 C1023 0.930 . S
C1014 H1008 0.930 . S
C1014 C1015 1.355 . S
C1014 C1016 1.415 . S
C1015 C1014 1.355 . S
C1015 C1017 1.419 . S
C1016 C1014 1.415 . S
C1016 C1021 1.425 . S
C1016 C1023 1.409 . S
C1017 H1009 0.930 . S
C1017 C1015 1.419 . S
C1017 C1018 1.362 . S
C1018 H1010 0.930 . S
C1018 C1017 1.362 . S
C1018 C1021 1.409 . S
C1019 H1011 0.930 . S
C1019 C1020 1.355 . S
C1019 C1021 1.415 . S
C1020 C1019 1.355 . S
C1020 C1022 1.419 . S
C1021 C1016 1.425 . S
C1021 C1018 1.409 . S
C1021 C1019 1.415 . S
C1022 H1012 0.930 . S
C1022 C1020 1.419 . S
C1022 C1023 1.362 . S
C1023 H1013 0.930 . S
C1023 C1016 1.409 . S
C1023 C1022 1.362 . S
H1024 C1030 0.930 . S
H1025 C1033 0.930 . S
H1026 C1034 0.930 . S
H1027 C1035 0.930 . S
H1028 C1038 0.930 . S
H1029 C1039 0.930 . S
C1030 H1024 0.930 . S
C1030 C1031 1.355 . S
C1030 C1032 1.415 . S
C1031 C1030 1.355 . S
C1031 C1033 1.419 . S
C1032 C1030 1.415 . S
C1032 C1037 1.425 . S
C1032 C1039 1.409 . S
C1033 H1025 0.930 . S
C1033 C1031 1.419 . S
C1033 C1034 1.362 . S
C1034 H1026 0.930 . S
C1034 C1033 1.362 . S
C1034 C1037 1.409 . S
C1035 H1027 0.930 . S
C1035 C1036 1.355 . S
C1035 C1037 1.415 . S
C1036 C1035 1.355 . S
C1036 C1038 1.419 . S
C1037 C1032 1.425 . S
C1037 C1034 1.409 . S
C1037 C1035 1.415 . S
C1038 H1028 0.930 . S
C1038 C1036 1.419 . S
C1038 C1039 1.362 . S
C1039 H1029 0.930 . S
C1039 C1032 1.409 . S
C1039 C1038 1.362 . S
H1040 C1046 0.930 . S
H1041 C1049 0.930 . S
H1042 C1050 0.930 . S
H1043 C1051 0.930 . S
H1044 C1054 0.930 . S
H1045 C1055 0.930 . S
C1046 H1040 0.930 . S
C1046 C1047 1.355 . S
C1046 C1048 1.415 . S
C1047 C1046 1.355 . S
C1047 C1049 1.419 . S
C1048 C1046 1.415 . S
C1048 C1053 1.425 . S
C1048 C1055 1.409 . S
C1049 H1041 0.930 . S
C1049 C1047 1.419 . S
C1049 C1050 1.362 . S
C1050 H1042 0.930 . S
C1050 C1049 1.362 . S
C1050 C1053 1.409 . S
C1051 H1043 0.930 . S
C1051 C1052 1.355 . S
C1051 C1053 1.415 . S
C1052 C1051 1.355 . S
C1052 C1054 1.419 . S
C1053 C1048 1.425 . S
C1053 C1050 1.409 . S
C1053 C1051 1.415 . S
C1054 H1044 0.930 . S
C1054 C1052 1.419 . S
C1054 C1055 1.362 . S
C1055 H1045 0.930 . S
C1055 C1048 1.409 . S
C1055 C1054 1.362 . S
H1056 C1062 0.930 . S
H1057 C1065 0.930 . S
H1058 C1066 0.930 . S
H1059 C1067 0.930 . S
H1060 C1070 0.930 . S
H1061 C1071 0.930 . S
C1062 H1056 0.930 . S
C1062 C1063 1.355 . S
C1062 C1064 1.415 . S
C1063 C1062 1.355 . S
C1063 C1065 1.419 . S
C1064 C1062 1.415 . S
C1064 C1069 1.425 . S
C1064 C1071 1.409 . S
C1065 H1057 0.930 . S
C1065 C1063 1.419 . S
C1065 C1066 1.362 . S
C1066 H1058 0.930 . S
C1066 C1065 1.362 . S
C1066 C1069 1.409 . S
C1067 H1059 0.930 . S
C1067 C1068 1.355 . S
C1067 C1069 1.415 . S
C1068 C1067 1.355 . S
C1068 C1070 1.419 . S
C1069 C1064 1.425 . S
C1069 C1066 1.409 . S
C1069 C1067 1.415 . S
C1070 H1060 0.930 . S
C1070 C1068 1.419 . S
C1070 C1071 1.362 . S
C1071 H1061 0.930 . S
C1071 C1064 1.409 . S
C1071 C1070 1.362 . S
H1072 C1078 0.930 . S
H1073 C1081 0.930 . S
H1074 C1082 0.930 . S
H1075 C1083 0.930 . S
H1076 C1086 0.930 . S
H1077 C1087 0.930 . S
C1078 H1072 0.930 . S
C1078 C1079 1.355 . S
C1078 C1080 1.415 . S
C1079 C1078 1.355 . S
C1079 C1081 1.419 . S
C1080 C1078 1.415 . S
C1080 C1085 1.425 . S
C1080 C1087 1.409 . S
C1081 H1073 0.930 . S
C1081 C1079 1.419 . S
C1081 C1082 1.362 . S
C1082 H1074 0.930 . S
C1082 C1081 1.362 . S
C1082 C1085 1.409 . S
C1083 H1075 0.930 . S
C1083 C1084 1.355 . S
C1083 C1085 1.415 . S
C1084 C1083 1.355 . S
C1084 C1086 1.419 . S
C1085 C1080 1.425 . S
C1085 C1082 1.409 . S
C1085 C1083 1.415 . S
C1086 H1076 0.930 . S
C1086 C1084 1.419 . S
C1086 C1087 1.362 . S
C1087 H1077 0.930 . S
C1087 C1080 1.409 . S
C1087 C1086 1.362 . S
H1088 C1094 0.930 . S
H1089 C1097 0.930 . S
H1090 C1098 0.930 . S
H1091 C1099 0.930 . S
H1092 C1102 0.930 . S
H1093 C1103 0.930 . S
C1094 H1088 0.930 . S
C1094 C1095 1.355 . S
C1094 C1096 1.415 . S
C1095 C1094 1.355 . S
C1095 C1097 1.419 . S
C1096 C1094 1.415 . S
C1096 C1101 1.425 . S
C1096 C1103 1.409 . S
C1097 H1089 0.930 . S
C1097 C1095 1.419 . S
C1097 C1098 1.362 . S
C1098 H1090 0.930 . S
C1098 C1097 1.362 . S
C1098 C1101 1.409 . S
C1099 H1091 0.930 . S
C1099 C1100 1.355 . S
C1099 C1101 1.415 . S
C1100 C1099 1.355 . S
C1100 C1102 1.419 . S
C1101 C1096 1.425 . S
C1101 C1098 1.409 . S
C1101 C1099 1.415 . S
C1102 H1092 0.930 . S
C1102 C1100 1.419 . S
C1102 C1103 1.362 . S
C1103 H1093 0.930 . S
C1103 C1096 1.409 . S
C1103 C1102 1.362 . S
H1104 C1110 0.930 . S
H1105 C1113 0.930 . S
H1106 C1114 0.930 . S
H1107 C1115 0.930 . S
H1108 C1118 0.930 . S
H1109 C1119 0.930 . S
C1110 H1104 0.930 . S
C1110 C1111 1.355 . S
C1110 C1112 1.415 . S
C1111 C1110 1.355 . S
C1111 C1113 1.419 . S
C1112 C1110 1.415 . S
C1112 C1117 1.425 . S
C1112 C1119 1.409 . S
C1113 H1105 0.930 . S
C1113 C1111 1.419 . S
C1113 C1114 1.362 . S
C1114 H1106 0.930 . S
C1114 C1113 1.362 . S
C1114 C1117 1.409 . S
C1115 H1107 0.930 . S
C1115 C1116 1.355 . S
C1115 C1117 1.415 . S
C1116 C1115 1.355 . S
C1116 C1118 1.419 . S
C1117 C1112 1.425 . S
C1117 C1114 1.409 . S
C1117 C1115 1.415 . S
C1118 H1108 0.930 . S
C1118 C1116 1.419 . S
C1118 C1119 1.362 . S
C1119 H1109 0.930 . S
C1119 C1112 1.409 . S
C1119 C1118 1.362 . S
H1120 C1126 0.930 . S
H1121 C1129 0.930 . S
H1122 C1130 0.930 . S
H1123 C1131 0.930 . S
H1124 C1134 0.930 . S
H1125 C1135 0.930 . S
C1126 H1120 0.930 . S
C1126 C1127 1.355 . S
C1126 C1128 1.415 . S
C1127 C1126 1.355 . S
C1127 C1129 1.419 . S
C1128 C1126 1.415 . S
C1128 C1133 1.425 . S
C1128 C1135 1.409 . S
C1129 H1121 0.930 . S
C1129 C1127 1.419 . S
C1129 C1130 1.362 . S
C1130 H1122 0.930 . S
C1130 C1129 1.362 . S
C1130 C1133 1.409 . S
C1131 H1123 0.930 . S
C1131 C1132 1.355 . S
C1131 C1133 1.415 . S
C1132 C1131 1.355 . S
C1132 C1134 1.419 . S
C1133 C1128 1.425 . S
C1133 C1130 1.409 . S
C1133 C1131 1.415 . S
C1134 H1124 0.930 . S
C1134 C1132 1.419 . S
C1134 C1135 1.362 . S
C1135 H1125 0.930 . S
C1135 C1128 1.409 . S
C1135 C1134 1.362 . S
H1136 C1142 0.930 . S
H1137 C1145 0.930 . S
H1138 C1146 0.930 . S
H1139 C1147 0.930 . S
H1140 C1150 0.930 . S
H1141 C1151 0.930 . S
C1142 H1136 0.930 . S
C1142 C1143 1.355 . S
C1142 C1144 1.415 . S
C1143 C1142 1.355 . S
C1143 C1145 1.419 . S
C1144 C1142 1.415 . S
C1144 C1149 1.425 . S
C1144 C1151 1.409 . S
C1145 H1137 0.930 . S
C1145 C1143 1.419 . S
C1145 C1146 1.362 . S
C1146 H1138 0.930 . S
C1146 C1145 1.362 . S
C1146 C1149 1.409 . S
C1147 H1139 0.930 . S
C1147 C1148 1.355 . S
C1147 C1149 1.415 . S
C1148 C1147 1.355 . S
C1148 C1150 1.419 . S
C1149 C1144 1.425 . S
C1149 C1146 1.409 . S
C1149 C1147 1.415 . S
C1150 H1140 0.930 . S
C1150 C1148 1.419 . S
C1150 C1151 1.362 . S
C1151 H1141 0.930 . S
C1151 C1144 1.409 . S
C1151 C1150 1.362 . S
H1152 C1158 0.930 . S
H1153 C1161 0.930 . S
H1154 C1162 0.930 . S
H1155 C1163 0.930 . S
H1156 C1166 0.930 . S
H1157 C1167 0.930 . S
C1158 H1152 0.930 . S
C1158 C1159 1.355 . S
C1158 C1160 1.415 . S
C1159 C1158 1.355 . S
C1159 C1161 1.419 . S
C1160 C1158 1.415 . S
C1160 C1165 1.425 . S
C1160 C1167 1.409 . S
C1161 H1153 0.930 . S
C1161 C1159 1.419 . S
C1161 C1162 1.362 . S
C1162 H1154 0.930 . S
C1162 C1161 1.362 . S
C1162 C1165 1.409 . S
C1163 H1155 0.930 . S
C1163 C1164 1.355 . S
C1163 C1165 1.415 . S
C1164 C1163 1.355 . S
C1164 C1166 1.419 . S
C1165 C1160 1.425 . S
C1165 C1162 1.409 . S
C1165 C1163 1.415 . S
C1166 H1156 0.930 . S
C1166 C1164 1.419 . S
C1166 C1167 1.362 . S
C1167 H1157 0.930 . S
C1167 C1160 1.409 . S
C1167 C1166 1.362 . S
H1168 C1174 0.930 . S
H1169 C1177 0.930 . S
H1170 C1178 0.930 . S
H1171 C1179 0.930 . S
H1172 C1182 0.930 . S
H1173 C1183 0.930 . S
C1174 H1168 0.930 . S
C1174 C1175 1.355 . S
C1174 C1176 1.415 . S
C1175 C1174 1.355 . S
C1175 C1177 1.419 . S
C1176 C1174 1.415 . S
C1176 C1181 1.425 . S
C1176 C1183 1.409 . S
C1177 H1169 0.930 . S
C1177 C1175 1.419 . S
C1177 C1178 1.362 . S
C1178 H1170 0.930 . S
C1178 C1177 1.362 . S
C1178 C1181 1.409 . S
C1179 H1171 0.930 . S
C1179 C1180 1.355 . S
C1179 C1181 1.415 . S
C1180 C1179 1.355 . S
C1180 C1182 1.419 . S
C1181 C1176 1.425 . S
C1181 C1178 1.409 . S
C1181 C1179 1.415 . S
C1182 H1172 0.930 . S
C1182 C1180 1.419 . S
C1182 C1183 1.362 . S
C1183 H1173 0.930 . S
C1183 C1176 1.409 . S
C1183 C1182 1.362 . S
H1184 C1190 0.930 . S
H1185 C1193 0.930 . S
H1186 C1194 0.930 . S
H1187 C1195 0.930 . S
H1188 C1198 0.930 . S
H1189 C1199 0.930 . S
C1190 H1184 0.930 . S
C1190 C1191 1.355 . S
C1190 C1192 1.415 . S
C1191 C1190 1.355 . S
C1191 C1193 1.419 . S
C1192 C1190 1.415 . S
C1192 C1197 1.425 . S
C1192 C1199 1.409 . S
C1193 H1185 0.930 . S
C1193 C1191 1.419 . S
C1193 C1194 1.362 . S
C1194 H1186 0.930 . S
C1194 C1193 1.362 . S
C1194 C1197 1.409 . S
C1195 H1187 0.930 . S
C1195 C1196 1.355 . S
C1195 C1197 1.415 . S
C1196 C1195 1.355 . S
C1196 C1198 1.419 . S
C1197 C1192 1.425 . S
C1197 C1194 1.409 . S
C1197 C1195 1.415 . S
C1198 H1188 0.930 . S
C1198 C1196 1.419 . S
C1198 C1199 1.362 . S
C1199 H1189 0.930 . S
C1199 C1192 1.409 . S
C1199 C1198 1.362 . S
H1200 C1206 0.930 . S
H1201 C1209 0.930 . S
H1202 C1210 0.930 . S
H1203 C1211 0.930 . S
H1204 C1214 0.930 . S
H1205 C1215 0.930 . S
C1206 H1200 0.930 . S
C1206 C1207 1.355 . S
C1206 C1208 1.415 . S
C1207 C1206 1.355 . S
C1207 C1209 1.419 . S
C1208 C1206 1.415 . S
C1208 C1213 1.425 . S
C1208 C1215 1.409 . S
C1209 H1201 0.930 . S
C1209 C1207 1.419 . S
C1209 C1210 1.362 . S
C1210 H1202 0.930 . S
C1210 C1209 1.362 . S
C1210 C1213 1.409 . S
C1211 H1203 0.930 . S
C1211 C1212 1.355 . S
C1211 C1213 1.415 . S
C1212 C1211 1.355 . S
C1212 C1214 1.419 . S
C1213 C1208 1.425 . S
C1213 C1210 1.409 . S
C1213 C1211 1.415 . S
C1214 H1204 0.930 . S
C1214 C1212 1.419 . S
C1214 C1215 1.362 . S
C1215 H1205 0.930 . S
C1215 C1208 1.409 . S
C1215 C1214 1.362 . S
H1216 C1222 0.930 . S
H1217 C1225 0.930 . S
H1218 C1226 0.930 . S
H1219 C1227 0.930 . S
H1220 C1230 0.930 . S
H1221 C1231 0.930 . S
C1222 H1216 0.930 . S
C1222 C1223 1.355 . S
C1222 C1224 1.415 . S
C1223 C1222 1.355 . S
C1223 C1225 1.419 . S
C1224 C1222 1.415 . S
C1224 C1229 1.425 . S
C1224 C1231 1.409 . S
C1225 H1217 0.930 . S
C1225 C1223 1.419 . S
C1225 C1226 1.362 . S
C1226 H1218 0.930 . S
C1226 C1225 1.362 . S
C1226 C1229 1.409 . S
C1227 H1219 0.930 . S
C1227 C1228 1.355 . S
C1227 C1229 1.415 . S
C1228 C1227 1.355 . S
C1228 C1230 1.419 . S
C1229 C1224 1.425 . S
C1229 C1226 1.409 . S
C1229 C1227 1.415 . S
C1230 H1220 0.930 . S
C1230 C1228 1.419 . S
C1230 C1231 1.362 . S
C1231 H1221 0.930 . S
C1231 C1224 1.409 . S
C1231 C1230 1.362 . S
H1232 C1238 0.930 . S
H1233 C1241 0.930 . S
H1234 C1242 0.930 . S
H1235 C1243 0.930 . S
H1236 C1246 0.930 . S
H1237 C1247 0.930 . S
C1238 H1232 0.930 . S
C1238 C1239 1.355 . S
C1238 C1240 1.415 . S
C1239 C1238 1.355 . S
C1239 C1241 1.419 . S
C1240 C1238 1.415 . S
C1240 C1245 1.425 . S
C1240 C1247 1.409 . S
C1241 H1233 0.930 . S
C1241 C1239 1.419 . S
C1241 C1242 1.362 . S
C1242 H1234 0.930 . S
C1242 C1241 1.362 . S
C1242 C1245 1.409 . S
C1243 H1235 0.930 . S
C1243 C1244 1.355 . S
C1243 C1245 1.415 . S
C1244 C1243 1.355 . S
C1244 C1246 1.419 . S
C1245 C1240 1.425 . S
C1245 C1242 1.409 . S
C1245 C1243 1.415 . S
C1246 H1236 0.930 . S
C1246 C1244 1.419 . S
C1246 C1247 1.362 . S
C1247 H1237 0.930 . S
C1247 C1240 1.409 . S
C1247 C1246 1.362 . S
H1248 C1254 0.930 . S
H1249 C1257 0.930 . S
H1250 C1258 0.930 . S
H1251 C1259 0.930 . S
H1252 C1262 0.930 . S
H1253 C1263 0.930 . S
C1254 H1248 0.930 . S
C1254 C1255 1.355 . S
C1254 C1256 1.415 . S
C1255 C1254 1.355 . S
C1255 C1257 1.419 . S
C1256 C1254 1.415 . S
C1256 C1261 1.425 . S
C1256 C1263 1.409 . S
C1257 H1249 0.930 . S
C1257 C1255 1.419 . S
C1257 C1258 1.362 . S
C1258 H1250 0.930 . S
C1258 C1257 1.362 . S
C1258 C1261 1.409 . S
C1259 H1251 0.930 . S
C1259 C1260 1.355 . S
C1259 C1261 1.415 . S
C1260 C1259 1.355 . S
C1260 C1262 1.419 . S
C1261 C1256 1.425 . S
C1261 C1258 1.409 . S
C1261 C1259 1.415 . S
C1262 H1252 0.930 . S
C1262 C1260 1.419 . S
C1262 C1263 1.362 . S
C1263 H1253 0.930 . S
C1263 C1256 1.409 . S
C1263 C1262 1.362 . S
H1264 C1270 0.930 . S
H1265 C1273 0.930 . S
H1266 C1274 0.930 . S
H1267 C1275 0.930 . S
H1268 C1278 0.930 . S
H1269 C1279 0.930 . S
C1270 H1264 0.930 . S
C1270 C1271 1.355 . S
C1270 C1272 1.415 . S
C1271 C1270 1.355 . S
C1271 C1273 1.419 . S
C1272 C1270 1.415 . S
C1272 C1277 1.425 . S
C1272 C1279 1.409 . S
C1273 H1265 0.930 . S
C1273 C1271 1.419 . S
C1273 C1274 1.362 . S
C1274 H1266 0.930 . S
C1274 C1273 1.362 . S
C1274 C1277 1.409 . S
C1275 H1267 0.930 . S
C1275 C1276 1.355 . S
C1275 C1277 1.415 . S
C1276 C1275 1.355 . S
C1276 C1278 1.419 . S
C1277 C1272 1.425 . S
C1277 C1274 1.409 . S
C1277 C1275 1.415 . S
C1278 H1268 0.930 . S
C1278 C1276 1.419 . S
C1278 C1279 1.362 . S
C1279 H1269 0.930 . S
C1279 C1272 1.409 . S
C1279 C1278 1.362 . S
H1280 C1286 0.930 . S
H1281 C1289 0.930 . S
H1282 C1290 0.930 . S
H1283 C1291 0.930 . S
H1284 C1294 0.930 . S
H1285 C1295 0.930 . S
C1286 H1280 0.930 . S
C1286 C1287 1.355 . S
C1286 C1288 1.415 . S
C1287 C1286 1.355 . S
C1287 C1289 1.419 . S
C1288 C1286 1.415 . S
C1288 C1293 1.425 . S
C1288 C1295 1.409 . S
C1289 H1281 0.930 . S
C1289 C1287 1.419 . S
C1289 C1290 1.362 . S
C1290 H1282 0.930 . S
C1290 C1289 1.362 . S
C1290 C1293 1.409 . S
C1291 H1283 0.930 . S
C1291 C1292 1.355 . S
C1291 C1293 1.415 . S
C1292 C1291 1.355 . S
C1292 C1294 1.419 . S
C1293 C1288 1.425 . S
C1293 C1290 1.409 . S
C1293 C1291 1.415 . S
C1294 H1284 0.930 . S
C1294 C1292 1.419 . S
C1294 C1295 1.362 . S
C1295 H1285 0.930 . S
C1295 C1288 1.409 . S
C1295 C1294 1.362 . S
H1296 C1302 0.930 . S
H1297 C1305 0.930 . S
H1298 C1306 0.930 . S
H1299 C1307 0.930 . S
H1300 C1310 0.930 . S
H1301 C1311 0.930 . S
C1302 H1296 0.930 . S
C1302 C1303 1.355 . S
C1302 C1304 1.415 . S
C1303 C1302 1.355 . S
C1303 C1305 1.419 . S
C1304 C1302 1.415 . S
C1304 C1309 1.425 . S
C1304 C1311 1.409 . S
C1305 H1297 0.930 . S
C1305 C1303 1.419 . S
C1305 C1306 1.362 . S
C1306 H1298 0.930 . S
C1306 C1305 1.362 . S
C1306 C1309 1.409 . S
C1307 H1299 0.930 . S
C1307 C1308 1.355 . S
C1307 C1309 1.415 . S
C1308 C1307 1.355 . S
C1308 C1310 1.419 . S
C1309 C1304 1.425 . S
C1309 C1306 1.409 . S
C1309 C1307 1.415 . S
C1310 H1300 0.930 . S
C1310 C1308 1.419 . S
C1310 C1311 1.362 . S
C1311 H1301 0.930 . S
C1311 C1304 1.409 . S
C1311 C1310 1.362 . S
H1312 C1318 0.930 . S
H1313 C1321 0.930 . S
H1314 C1322 0.930 . S
H1315 C1323 0.930 . S
H1316 C1326 0.930 . S
H1317 C1327 0.930 . S
C1318 H1312 0.930 . S
C1318 C1319 1.355 . S
C1318 C1320 1.415 . S
C1319 C1318 1.355 . S
C1319 C1321 1.419 . S
C1320 C1318 1.415 . S
C1320 C1325 1.425 . S
C1320 C1327 1.409 . S
C1321 H1313 0.930 . S
C1321 C1319 1.419 . S
C1321 C1322 1.362 . S
C1322 H1314 0.930 . S
C1322 C1321 1.362 . S
C1322 C1325 1.409 . S
C1323 H1315 0.930 . S
C1323 C1324 1.355 . S
C1323 C1325 1.415 . S
C1324 C1323 1.355 . S
C1324 C1326 1.419 . S
C1325 C1320 1.425 . S
C1325 C1322 1.409 . S
C1325 C1323 1.415 . S
C1326 H1316 0.930 . S
C1326 C1324 1.419 . S
C1326 C1327 1.362 . S
C1327 H1317 0.930 . S
C1327 C1320 1.409 . S
C1327 C1326 1.362 . S
H1328 C1334 0.930 . S
H1329 C1337 0.930 . S
H1330 C1338 0.930 . S
H1331 C1339 0.930 . S
H1332 C1342 0.930 . S
H1333 C1343 0.930 . S
C1334 H1328 0.930 . S
C1334 C1335 1.355 . S
C1334 C1336 1.415 . S
C1335 C1334 1.355 . S
C1335 C1337 1.419 1_455 S
C1336 C1334 1.415 . S
C1336 C1341 1.425 1_455 S
C1336 C1343 1.409 . S
C1337 H1329 0.930 . S
C1337 C1335 1.419 1_655 S
C1337 C1338 1.362 . S
C1338 H1330 0.930 . S
C1338 C1337 1.362 . S
C1338 C1341 1.409 . S
C1339 H1331 0.930 . S
C1339 C1340 1.355 . S
C1339 C1341 1.415 . S
C1340 C1339 1.355 . S
C1340 C1342 1.419 1_655 S
C1341 C1336 1.425 1_655 S
C1341 C1338 1.409 . S
C1341 C1339 1.415 . S
C1342 H1332 0.930 . S
C1342 C1340 1.419 1_455 S
C1342 C1343 1.362 . S
C1343 H1333 0.930 . S
C1343 C1336 1.409 . S
C1343 C1342 1.362 . S
H1344 C1350 0.930 . S
H1345 C1353 0.930 . S
H1346 C1354 0.930 . S
H1347 C1355 0.930 . S
H1348 C1358 0.930 . S
H1349 C1359 0.930 . S
C1350 H1344 0.930 . S
C1350 C1351 1.355 1_545 S
C1350 C1352 1.415 . S
C1351 C1350 1.355 1_565 S
C1351 C1353 1.419 . S
C1352 C1350 1.415 . S
C1352 C1357 1.425 1_545 S
C1352 C1359 1.409 . S
C1353 H1345 0.930 . S
C1353 C1351 1.419 . S
C1353 C1354 1.362 . S
C1354 H1346 0.930 . S
C1354 C1353 1.362 . S
C1354 C1357 1.409 . S
C1355 H1347 0.930 . S
C1355 C1356 1.355 1_565 S
C1355 C1357 1.415 . S
C1356 C1355 1.355 1_545 S
C1356 C1358 1.419 . S
C1357 C1352 1.425 1_565 S
C1357 C1354 1.409 . S
C1357 C1355 1.415 . S
C1358 H1348 0.930 . S
C1358 C1356 1.419 . S
C1358 C1359 1.362 . S
C1359 H1349 0.930 . S
C1359 C1352 1.409 . S
C1359 C1358 1.362 . S
H1360 C1366 0.938 . S
H1361 C1369 0.930 . S
H1362 C1370 0.930 . S
H1363 C1371 0.938 . S
H1364 C1374 0.930 . S
H1365 C1375 0.930 . S
C1366 H1360 0.938 . S
C1366 C1367 1.342 1_655 S
C1366 C1368 1.419 . S
C1367 C1366 1.342 1_455 S
C1367 C1369 1.419 . S
C1368 C1366 1.419 . S
C1368 C1373 1.425 1_655 S
C1368 C1375 1.409 . S
C1369 H1361 0.930 . S
C1369 C1367 1.419 . S
C1369 C1370 1.362 . S
C1370 H1362 0.930 . S
C1370 C1369 1.362 . S
C1370 C1373 1.409 . S
C1371 H1363 0.938 . S
C1371 C1372 1.342 1_455 S
C1371 C1373 1.419 . S
C1372 C1371 1.342 1_655 S
C1372 C1374 1.419 . S
C1373 C1368 1.425 1_455 S
C1373 C1370 1.409 . S
C1373 C1371 1.419 . S
C1374 H1364 0.930 . S
C1374 C1372 1.419 . S
C1374 C1375 1.362 . S
C1375 H1365 0.930 . S
C1375 C1368 1.409 . S
C1375 C1374 1.362 . S
H1376 C1382 0.929 . S
H1377 C1385 0.930 . S
H1378 C1386 0.930 . S
H1379 C1387 0.929 . S
H1380 C1390 0.930 . S
H1381 C1391 0.930 . S
C1382 H1376 0.929 . S
C1382 C1383 1.355 . S
C1382 C1384 1.415 1_545 S
C1383 C1382 1.355 . S
C1383 C1385 1.419 . S
C1384 C1382 1.415 1_565 S
C1384 C1389 1.425 1_565 S
C1384 C1391 1.409 . S
C1385 H1377 0.930 . S
C1385 C1383 1.419 . S
C1385 C1386 1.362 . S
C1386 H1378 0.930 . S
C1386 C1385 1.362 . S
C1386 C1389 1.409 . S
C1387 H1379 0.929 . S
C1387 C1388 1.355 . S
C1387 C1389 1.415 1_565 S
C1388 C1387 1.355 . S
C1388 C1390 1.419 . S
C1389 C1384 1.425 1_545 S
C1389 C1386 1.409 . S
C1389 C1387 1.415 1_545 S
C1390 H1380 0.930 . S
C1390 C1388 1.419 . S
C1390 C1391 1.362 . S
C1391 H1381 0.930 . S
C1391 C1384 1.409 . S
C1391 C1390 1.362 . S
H1392 C1398 0.930 . S
H1393 C1401 0.930 . S
H1394 C1402 0.930 . S
H1395 C1403 0.930 . S
H1396 C1406 0.930 . S
H1397 C1407 0.930 . S
C1398 H1392 0.930 . S
C1398 C1399 1.355 . S
C1398 C1400 1.415 . S
C1399 C1398 1.355 . S
C1399 C1401 1.419 . S
C1400 C1398 1.415 . S
C1400 C1405 1.425 1_556 S
C1400 C1407 1.409 1_556 S
C1401 H1393 0.930 . S
C1401 C1399 1.419 . S
C1401 C1402 1.362 . S
C1402 H1394 0.930 . S
C1402 C1401 1.362 . S
C1402 C1405 1.409 1_556 S
C1403 H1395 0.930 . S
C1403 C1404 1.355 . S
C1403 C1405 1.415 . S
C1404 C1403 1.355 . S
C1404 C1406 1.419 . S
C1405 C1400 1.425 1_554 S
C1405 C1402 1.409 1_554 S
C1405 C1403 1.415 . S
C1406 H1396 0.930 . S
C1406 C1404 1.419 . S
C1406 C1407 1.362 . S
C1407 H1397 0.930 . S
C1407 C1400 1.409 1_554 S
C1407 C1406 1.362 . S
H1408 C1414 0.930 . S
H1409 C1417 0.930 . S
H1410 C1418 0.930 . S
H1411 C1419 0.930 . S
H1412 C1422 0.930 . S
H1413 C1423 0.930 . S
C1414 H1408 0.930 . S
C1414 C1415 1.355 . S
C1414 C1416 1.415 . S
C1415 C1414 1.355 . S
C1415 C1417 1.419 . S
C1416 C1414 1.415 . S
C1416 C1421 1.425 1_556 S
C1416 C1423 1.409 1_556 S
C1417 H1409 0.930 . S
C1417 C1415 1.419 . S
C1417 C1418 1.362 . S
C1418 H1410 0.930 . S
C1418 C1417 1.362 . S
C1418 C1421 1.409 1_556 S
C1419 H1411 0.930 . S
C1419 C1420 1.355 . S
C1419 C1421 1.415 . S
C1420 C1419 1.355 . S
C1420 C1422 1.419 . S
C1421 C1416 1.425 1_554 S
C1421 C1418 1.409 1_554 S
C1421 C1419 1.415 . S
C1422 H1412 0.930 . S
C1422 C1420 1.419 . S
C1422 C1423 1.362 . S
C1423 H1413 0.930 . S
C1423 C1416 1.409 1_554 S
C1423 C1422 1.362 . S
H1424 C1430 0.930 . S
H1425 C1433 0.930 . S
H1426 C1434 0.930 1_556 S
H1427 C1435 0.930 . S
H1428 C1438 0.930 . S
H1429 C1439 0.930 1_554 S
C1430 H1424 0.930 . S
C1430 C1431 1.355 . S
C1430 C1432 1.415 . S
C1431 C1430 1.355 . S
C1431 C1433 1.419 . S
C1432 C1430 1.415 . S
C1432 C1437 1.425 1_554 S
C1432 C1439 1.409 1_554 S
C1433 H1425 0.930 . S
C1433 C1431 1.419 . S
C1433 C1434 1.362 . S
C1434 H1426 0.930 1_554 S
C1434 C1433 1.362 . S
C1434 C1437 1.409 1_554 S
C1435 H1427 0.930 . S
C1435 C1436 1.355 . S
C1435 C1437 1.415 . S
C1436 C1435 1.355 . S
C1436 C1438 1.419 . S
C1437 C1432 1.425 1_556 S
C1437 C1434 1.409 1_556 S
C1437 C1435 1.415 . S
C1438 H1428 0.930 . S
C1438 C1436 1.419 . S
C1438 C1439 1.362 . S
C1439 H1429 0.930 1_556 S
C1439 C1432 1.409 1_556 S
C1439 C1438 1.362 . S
H1440 C1446 0.930 . S
H1441 C1449 0.930 . S
H1442 C1450 0.930 . S
H1443 C1451 0.930 . S
H1444 C1454 0.930 . S
H1445 C1455 0.930 . S
C1446 H1440 0.930 . S
C1446 C1447 1.355 . S
C1446 C1448 1.415 . S
C1447 C1446 1.355 . S
C1447 C1449 1.419 . S
C1448 C1446 1.415 . S
C1448 C1453 1.425 1_556 S
C1448 C1455 1.409 1_556 S
C1449 H1441 0.930 . S
C1449 C1447 1.419 . S
C1449 C1450 1.362 . S
C1450 H1442 0.930 . S
C1450 C1449 1.362 . S
C1450 C1453 1.409 1_556 S
C1451 H1443 0.930 . S
C1451 C1452 1.355 . S
C1451 C1453 1.415 . S
C1452 C1451 1.355 . S
C1452 C1454 1.419 . S
C1453 C1448 1.425 1_554 S
C1453 C1450 1.409 1_554 S
C1453 C1451 1.415 . S
C1454 H1444 0.930 . S
C1454 C1452 1.419 . S
C1454 C1455 1.362 . S
C1455 H1445 0.930 . S
C1455 C1448 1.409 1_554 S
C1455 C1454 1.362 . S
C951 C3 1.621 . S
C956 C229 1.651 1_545 S
C967 C52 1.654 1_655 S
C972 C62 1.622 . S
C983 C111 1.637 1_565 S
C988 C121 1.643 . S
C999 C170 1.665 1_455 S
C1004 C180 1.605 . S
C1015 C239 1.598 . S
C1020 C347 1.669 1_565 S
C1031 C298 1.627 . S
C1036 C406 1.651 1_455 S
C1047 C357 1.617 . S
C1052 C465 1.654 1_545 S
C1063 C416 1.644 . S
C1068 C288 1.636 1_655 S
C1079 C475 1.653 . S
C1084 C701 1.632 . S
C1095 C524 1.631 . S
C1100 C534 1.654 . S
C1111 C583 1.661 . S
C1116 C593 1.607 . S
C1127 C652 1.630 . S
C1132 C642 1.645 . S
C1143 C819 1.664 . S
C1148 C711 1.603 . S
C1159 C878 1.641 . S
C1164 C770 1.641 . S
C1175 C829 1.644 . S
C1180 C937 1.639 . S
C1191 C888 1.627 . S
C1196 C760 1.647 . S
C1207 C5 1.451 . S
C1212 C890 1.451 . S
C1223 C64 1.453 . S
C1228 C713 1.460 . S
C1239 C772 1.502 . S
C1244 C123 1.515 . S
C1255 C182 1.493 . S
C1260 C831 1.507 . S
C1271 C536 1.472 . S
C1276 C241 1.460 . S
C1287 C595 1.532 . S
C1292 C300 1.529 . S
C1303 C359 1.521 . S
C1308 C654 1.529 . S
C1319 C418 1.531 . S
C1324 C477 1.526 . S
C1335 C33 1.679 . S
C1340 C387 1.703 . S
C1351 C446 1.665 . S
C1356 C92 1.677 . S
C1367 C269 1.662 . S
C1372 C151 1.684 . S
C1383 C328 1.700 . S
C1388 C210 1.668 . S
C1399 C505 1.683 . S
C1404 C859 1.703 . S
C1415 C564 1.692 . S
C1420 C918 1.699 . S
C1431 C741 1.685 . S
C1436 C623 1.662 . S
C1447 C682 1.703 . S
C1452 C800 1.674 . S
