# Generated by pormake.
# Topology wiv, (6)-cn, num edge types: 1
# Building blocks:
#     Node 0, Type 0, BuildingBlock: FUNLAD_clean_sbu_0, # of connection points: 6
#     Node 1, Type 0, BuildingBlock: FUNLAD_clean_sbu_0, # of connection points: 6
#     Node 2, Type 0, BuildingBlock: FUNLAD_clean_sbu_0, # of connection points: 6
#     Node 3, Type 0, BuildingBlock: FUNLAD_clean_sbu_0, # of connection points: 6
#     Node 4, Type 0, BuildingBlock: FUNLAD_clean_sbu_0, # of connection points: 6
#     Node 5, Type 0, BuildingBlock: FUNLAD_clean_sbu_0, # of connection points: 6
#     Node 6, Type 0, BuildingBlock: FUNLAD_clean_sbu_0, # of connection points: 6
#     Node 7, Type 0, BuildingBlock: FUNLAD_clean_sbu_0, # of connection points: 6
#     Node 8, Type 0, BuildingBlock: FUNLAD_clean_sbu_0, # of connection points: 6
#     Node 9, Type 0, BuildingBlock: FUNLAD_clean_sbu_0, # of connection points: 6
#     Node 10, Type 0, BuildingBlock: FUNLAD_clean_sbu_0, # of connection points: 6
#     Node 11, Type 0, BuildingBlock: FUNLAD_clean_sbu_0, # of connection points: 6
#     Node 12, Type 0, BuildingBlock: FUNLAD_clean_sbu_0, # of connection points: 6
#     Node 13, Type 0, BuildingBlock: FUNLAD_clean_sbu_0, # of connection points: 6
#     Node 14, Type 0, BuildingBlock: FUNLAD_clean_sbu_0, # of connection points: 6
#     Node 15, Type 0, BuildingBlock: FUNLAD_clean_sbu_0, # of connection points: 6
#     Edge 16, Type (0, 0), BuildingBlock: UVAHIK_clean_linker_0, # of connection points: 2
#     Edge 17, Type (0, 0), BuildingBlock: UVAHIK_clean_linker_0, # of connection points: 2
#     Edge 18, Type (0, 0), BuildingBlock: UVAHIK_clean_linker_0, # of connection points: 2
#     Edge 19, Type (0, 0), BuildingBlock: UVAHIK_clean_linker_0, # of connection points: 2
#     Edge 20, Type (0, 0), BuildingBlock: UVAHIK_clean_linker_0, # of connection points: 2
#     Edge 21, Type (0, 0), BuildingBlock: UVAHIK_clean_linker_0, # of connection points: 2
#     Edge 22, Type (0, 0), BuildingBlock: UVAHIK_clean_linker_0, # of connection points: 2
#     Edge 23, Type (0, 0), BuildingBlock: UVAHIK_clean_linker_0, # of connection points: 2
#     Edge 24, Type (0, 0), BuildingBlock: UVAHIK_clean_linker_0, # of connection points: 2
#     Edge 25, Type (0, 0), BuildingBlock: UVAHIK_clean_linker_0, # of connection points: 2
#     Edge 26, Type (0, 0), BuildingBlock: UVAHIK_clean_linker_0, # of connection points: 2
#     Edge 27, Type (0, 0), BuildingBlock: UVAHIK_clean_linker_0, # of connection points: 2
#     Edge 28, Type (0, 0), BuildingBlock: UVAHIK_clean_linker_0, # of connection points: 2
#     Edge 29, Type (0, 0), BuildingBlock: UVAHIK_clean_linker_0, # of connection points: 2
#     Edge 30, Type (0, 0), BuildingBlock: UVAHIK_clean_linker_0, # of connection points: 2
#     Edge 31, Type (0, 0), BuildingBlock: UVAHIK_clean_linker_0, # of connection points: 2
#     Edge 32, Type (0, 0), BuildingBlock: UVAHIK_clean_linker_0, # of connection points: 2
#     Edge 33, Type (0, 0), BuildingBlock: UVAHIK_clean_linker_0, # of connection points: 2
#     Edge 34, Type (0, 0), BuildingBlock: UVAHIK_clean_linker_0, # of connection points: 2
#     Edge 35, Type (0, 0), BuildingBlock: UVAHIK_clean_linker_0, # of connection points: 2
#     Edge 36, Type (0, 0), BuildingBlock: UVAHIK_clean_linker_0, # of connection points: 2
#     Edge 37, Type (0, 0), BuildingBlock: UVAHIK_clean_linker_0, # of connection points: 2
#     Edge 38, Type (0, 0), BuildingBlock: UVAHIK_clean_linker_0, # of connection points: 2
#     Edge 39, Type (0, 0), BuildingBlock: UVAHIK_clean_linker_0, # of connection points: 2
#     Edge 40, Type (0, 0), BuildingBlock: UVAHIK_clean_linker_0, # of connection points: 2
#     Edge 41, Type (0, 0), BuildingBlock: UVAHIK_clean_linker_0, # of connection points: 2
#     Edge 42, Type (0, 0), BuildingBlock: UVAHIK_clean_linker_0, # of connection points: 2
#     Edge 43, Type (0, 0), BuildingBlock: UVAHIK_clean_linker_0, # of connection points: 2
#     Edge 44, Type (0, 0), BuildingBlock: UVAHIK_clean_linker_0, # of connection points: 2
#     Edge 45, Type (0, 0), BuildingBlock: UVAHIK_clean_linker_0, # of connection points: 2
#     Edge 46, Type (0, 0), BuildingBlock: UVAHIK_clean_linker_0, # of connection points: 2
#     Edge 47, Type (0, 0), BuildingBlock: UVAHIK_clean_linker_0, # of connection points: 2
#     Edge 48, Type (0, 0), BuildingBlock: UVAHIK_clean_linker_0, # of connection points: 2
#     Edge 49, Type (0, 0), BuildingBlock: UVAHIK_clean_linker_0, # of connection points: 2
#     Edge 50, Type (0, 0), BuildingBlock: UVAHIK_clean_linker_0, # of connection points: 2
#     Edge 51, Type (0, 0), BuildingBlock: UVAHIK_clean_linker_0, # of connection points: 2
#     Edge 52, Type (0, 0), BuildingBlock: UVAHIK_clean_linker_0, # of connection points: 2
#     Edge 53, Type (0, 0), BuildingBlock: UVAHIK_clean_linker_0, # of connection points: 2
#     Edge 54, Type (0, 0), BuildingBlock: UVAHIK_clean_linker_0, # of connection points: 2
#     Edge 55, Type (0, 0), BuildingBlock: UVAHIK_clean_linker_0, # of connection points: 2
#     Edge 56, Type (0, 0), BuildingBlock: UVAHIK_clean_linker_0, # of connection points: 2
#     Edge 57, Type (0, 0), BuildingBlock: UVAHIK_clean_linker_0, # of connection points: 2
#     Edge 58, Type (0, 0), BuildingBlock: UVAHIK_clean_linker_0, # of connection points: 2
#     Edge 59, Type (0, 0), BuildingBlock: UVAHIK_clean_linker_0, # of connection points: 2
#     Edge 60, Type (0, 0), BuildingBlock: UVAHIK_clean_linker_0, # of connection points: 2
#     Edge 61, Type (0, 0), BuildingBlock: UVAHIK_clean_linker_0, # of connection points: 2
#     Edge 62, Type (0, 0), BuildingBlock: UVAHIK_clean_linker_0, # of connection points: 2
#     Edge 63, Type (0, 0), BuildingBlock: UVAHIK_clean_linker_0, # of connection points: 2
# Relax obj value: 0.137
# Max RMSD: 0.137
# Mean RMSD: 0.137
data_MOF--net-wiv--node1-FUNLAD_clean_sbu_0--edge1-UVAHIK_clean_linker_0
_symmetry_space_group_name_H-M    P1
_symmetry_Int_Tables_number       1
_symmetry_cell_setting            triclinic
loop_
_symmetry_equiv_pos_as_xyz
'x, y, z'
_cell_length_a     87.967474
_cell_length_b     87.981279
_cell_length_c     18.374151
_cell_angle_alpha  89.960825
_cell_angle_beta   89.965736
_cell_angle_gamma 89.981491
loop_
_atom_site_label
_atom_site_type_symbol
_atom_site_fract_x
_atom_site_fract_y
_atom_site_fract_z
_atom_type_partial_charge
C0 C 0.37303 0.11051 0.95283 0.0
N1 N 0.35478 0.14487 0.08371 0.0
C2 C 0.36598 0.15385 0.0561 0.0
C3 C 0.36448 0.16965 0.05685 0.0
C4 C 0.35147 0.17624 0.08759 0.0
C5 C 0.34004 0.16676 0.11537 0.0
C6 C 0.34187 0.151 0.11222 0.0
Zn7 Zn 0.35787 0.12181 0.08576 0.0
C8 C 0.33155 0.10529 0.02163 0.0
N9 N 0.36477 0.07371 0.09042 0.0
C10 C 0.37836 0.06792 0.0683 0.0
C11 C 0.35377 0.06457 0.11874 0.0
C12 C 0.35644 0.04904 0.12798 0.0
C13 C 0.37049 0.04284 0.10711 0.0
C14 C 0.38143 0.05243 0.07577 0.0
Zn15 Zn 0.36137 0.09672 0.08676 0.0
O16 O 0.36822 0.12252 -0.01657 0.0
C17 C 0.3876 0.11365 0.15085 0.0
O18 O 0.37145 0.09779 -0.01554 0.0
H19 H 0.34303 0.06938 0.13571 0.0
H20 H 0.37623 0.14879 0.03442 0.0
H21 H 0.38699 0.07539 0.04646 0.0
O22 O 0.37911 0.12489 0.13583 0.0
O23 O 0.38307 0.10027 0.13608 0.0
H24 H 0.33305 0.14368 0.13346 0.0
O25 O 0.35126 0.09599 0.18941 0.0
O26 O 0.34764 0.12064 0.1879 0.0
O27 O 0.3396 0.09369 0.03708 0.0
O28 O 0.33662 0.11848 0.03599 0.0
C29 C 0.34632 0.10794 0.21995 0.0
H30 H 0.37359 0.17664 0.03552 0.0
H31 H 0.32981 0.17149 0.13911 0.0
H32 H 0.34766 0.04198 0.15175 0.0
H33 H 0.39246 0.0481 0.05966 0.0
C34 C 0.10743 0.66978 0.73652 0.0
N35 N 0.07366 0.65064 0.8667 0.0
C36 C 0.06407 0.66147 0.84046 0.0
C37 C 0.04856 0.65842 0.83298 0.0
C38 C 0.04281 0.6441 0.85307 0.0
C39 C 0.05293 0.63334 0.88222 0.0
C40 C 0.06835 0.63682 0.88822 0.0
Zn41 Zn 0.09663 0.65439 0.86859 0.0
C42 C 0.11366 0.62823 0.80304 0.0
N43 N 0.14477 0.6611 0.87042 0.0
C44 C 0.15261 0.65906 0.80728 0.0
C45 C 0.15203 0.66495 0.93316 0.0
C46 C 0.16782 0.66666 0.93413 0.0
C47 C 0.17614 0.66463 0.86967 0.0
C48 C 0.16835 0.6609 0.80556 0.0
Zn49 Zn 0.12175 0.65777 0.87006 0.0
O50 O 0.09547 0.66481 0.76686 0.0
C51 C 0.10517 0.6839 0.93668 0.0
O52 O 0.12013 0.66839 0.76855 0.0
H53 H 0.14559 0.66659 -0.01731 0.0
H54 H 0.06852 0.67237 0.82354 0.0
H55 H 0.14667 0.65583 0.75816 0.0
O56 O 0.09354 0.67598 0.92048 0.0
O57 O 0.11834 0.67887 0.92135 0.0
H58 H 0.07614 0.62834 0.90881 0.0
O59 O 0.12292 0.64712 0.97129 0.0
O60 O 0.09818 0.64401 0.97066 0.0
O61 O 0.12493 0.63655 0.81958 0.0
O62 O 0.10027 0.63291 0.81665 0.0
C63 C 0.11091 0.64238 0.00215 0.0
H64 H 0.04126 0.66703 0.80947 0.0
H65 H 0.04901 0.62225 0.8997 0.0
H66 H 0.17346 0.66963 -0.01546 0.0
H67 H 0.17442 0.65908 0.75499 0.0
C68 C 0.6426 0.90495 0.95796 0.0
N69 N 0.66086 0.87114 0.0918 0.0
C70 C 0.66459 0.86354 0.02984 0.0
C71 C 0.66566 0.84768 0.03008 0.0
C72 C 0.66297 0.83958 0.09484 0.0
C73 C 0.65951 0.84781 0.15825 0.0
C74 C 0.6584 0.8636 0.15538 0.0
Zn75 Zn 0.65803 0.89419 0.09085 0.0
C76 C 0.68422 0.91019 0.02299 0.0
N77 N 0.65142 0.94228 0.09164 0.0
C78 C 0.63769 0.94811 0.07193 0.0
C79 C 0.66274 0.95141 0.1168 0.0
C80 C 0.66028 0.96699 0.12536 0.0
C81 C 0.64607 0.97325 0.10754 0.0
C82 C 0.63478 0.96365 0.07922 0.0
Zn83 Zn 0.65462 0.91926 0.09028 0.0
O84 O 0.64709 0.89298 -0.00995 0.0
C85 C 0.62842 0.90281 0.15739 0.0
O86 O 0.64448 0.91779 -0.01187 0.0
H87 H 0.67358 0.94656 0.13198 0.0
H88 H 0.66649 0.86975 0.97985 0.0
H89 H 0.62883 0.94065 0.05239 0.0
O90 O 0.63692 0.89152 0.14349 0.0
O91 O 0.63291 0.9161 0.1406 0.0
H92 H 0.6554 0.86983 0.20402 0.0
O93 O 0.6648 0.92037 0.19281 0.0
O94 O 0.66894 0.89581 0.19135 0.0
O95 O 0.6764 0.92189 0.03941 0.0
O96 O 0.67906 0.89707 0.03807 0.0
C97 C 0.67003 0.90854 0.22328 0.0
H98 H 0.66819 0.84185 0.97965 0.0
H99 H 0.65765 0.84214 0.20978 0.0
H100 H 0.66935 0.97403 0.14649 0.0
H101 H 0.62362 0.96799 0.06543 0.0
C102 C 0.90843 0.34724 0.74845 0.0
N103 N 0.94259 0.36559 0.8784 0.0
C104 C 0.95193 0.3537 0.86288 0.0
C105 C 0.96757 0.35596 0.85557 0.0
C106 C 0.97369 0.37066 0.86282 0.0
C107 C 0.96376 0.38264 0.88053 0.0
C108 C 0.94825 0.37982 0.88869 0.0
Zn109 Zn 0.91955 0.3624 0.88112 0.0
C110 C 0.90294 0.38871 0.81513 0.0
N111 N 0.87136 0.35638 0.8831 0.0
C112 C 0.86504 0.34357 0.8548 0.0
C113 C 0.86254 0.3678 0.90966 0.0
C114 C 0.84674 0.3667 0.90748 0.0
C115 C 0.83984 0.35384 0.87639 0.0
C116 C 0.84925 0.3421 0.85048 0.0
Zn117 Zn 0.89443 0.3592 0.88181 0.0
O118 O 0.92045 0.35184 0.77951 0.0
C119 C 0.91062 0.33281 0.94756 0.0
O120 O 0.89568 0.34899 0.77969 0.0
H121 H 0.86776 0.37792 0.93169 0.0
H122 H 0.94722 0.34248 0.85484 0.0
H123 H 0.87224 0.3346 0.83409 0.0
O124 O 0.92226 0.34085 0.93307 0.0
O125 O 0.89749 0.33786 0.93175 0.0
H126 H 0.94066 0.38911 0.90147 0.0
O127 O 0.89372 0.36949 -0.01582 0.0
O128 O 0.91843 0.3729 -0.0175 0.0
O129 O 0.89154 0.38055 0.83153 0.0
O130 O 0.91623 0.38385 0.82925 0.0
C131 C 0.90573 0.37437 0.01451 0.0
H132 H 0.97473 0.34628 0.84356 0.0
H133 H 0.9678 0.39421 0.88572 0.0
H134 H 0.84002 0.37591 0.92966 0.0
H135 H 0.84453 0.33204 0.82523 0.0
C136 C 0.37342 0.40583 0.25798 0.0
N137 N 0.35514 0.37074 0.13238 0.0
C138 C 0.36627 0.36191 0.16179 0.0
C139 C 0.36474 0.34613 0.16331 0.0
C140 C 0.35177 0.33937 0.13301 0.0
C141 C 0.34042 0.3487 0.10338 0.0
C142 C 0.34228 0.36446 0.10427 0.0
Zn143 Zn 0.35823 0.39378 0.12709 0.0
C144 C 0.33194 0.41065 0.18996 0.0
N145 N 0.365 0.44184 0.11559 0.0
C146 C 0.37879 0.44769 0.13391 0.0
C147 C 0.35371 0.4509 0.08941 0.0
C148 C 0.35623 0.46642 0.07893 0.0
C149 C 0.37047 0.4727 0.0959 0.0
C150 C 0.38177 0.46316 0.12472 0.0
Zn151 Zn 0.36162 0.41887 0.12234 0.0
O152 O 0.36836 0.39372 0.22945 0.0
C153 C 0.38792 0.40152 0.06076 0.0
O154 O 0.37207 0.41836 0.22434 0.0
H155 H 0.34281 0.44603 0.07536 0.0
H156 H 0.37648 0.36709 0.18315 0.0
H157 H 0.38764 0.44028 0.15425 0.0
O158 O 0.3796 0.39038 0.07928 0.0
O159 O 0.38316 0.415 0.07109 0.0
H160 H 0.33351 0.37166 0.08161 0.0
O161 O 0.35113 0.41906 0.02077 0.0
O162 O 0.34823 0.39432 0.02416 0.0
O163 O 0.34002 0.42217 0.17369 0.0
O164 O 0.3369 0.39741 0.17573 0.0
C165 C 0.34652 0.40688 -0.00877 0.0
H166 H 0.37378 0.33925 0.18603 0.0
H167 H 0.33023 0.34384 0.07994 0.0
H168 H 0.34715 0.47341 0.05741 0.0
H169 H 0.39295 0.46751 0.13783 0.0
C170 C 0.40751 0.66909 0.9613 0.0
N171 N 0.44212 0.65078 0.83289 0.0
C172 C 0.45109 0.66206 0.8597 0.0
C173 C 0.46664 0.65963 0.8699 0.0
C174 C 0.47304 0.64549 0.85203 0.0
C175 C 0.46361 0.63423 0.82217 0.0
C176 C 0.4481 0.63711 0.81326 0.0
Zn177 Zn 0.41906 0.65385 0.82873 0.0
C178 C 0.40257 0.62759 0.89533 0.0
N179 N 0.37084 0.65974 0.82567 0.0
C180 C 0.36456 0.67356 0.83999 0.0
C181 C 0.36198 0.64737 0.81222 0.0
C182 C 0.34618 0.64853 0.81488 0.0
C183 C 0.33941 0.66259 0.83038 0.0
C184 C 0.34877 0.67527 0.84205 0.0
Zn185 Zn 0.39394 0.65706 0.82796 0.0
O186 O 0.4195 0.66403 0.93145 0.0
C187 C 0.41013 0.68336 0.76095 0.0
O188 O 0.39488 0.6679 0.92854 0.0
H189 H 0.36718 0.63651 0.8003 0.0
H190 H 0.44612 0.67285 0.87483 0.0
H191 H 0.37179 0.68322 0.85094 0.0
O192 O 0.42183 0.67564 0.77843 0.0
O193 O 0.397 0.67806 0.77471 0.0
H194 H 0.44076 0.62827 0.79246 0.0
O195 O 0.39329 0.64608 0.72726 0.0
O196 O 0.41814 0.64371 0.72633 0.0
O197 O 0.39126 0.63605 0.8814 0.0
O198 O 0.41585 0.6321 0.87855 0.0
C199 C 0.40536 0.64166 0.69578 0.0
H200 H 0.47354 0.66869 0.89221 0.0
H201 H 0.46804 0.62312 0.80831 0.0
H202 H 0.33931 0.63853 0.80482 0.0
H203 H 0.34393 0.68629 0.85459 0.0
C204 C 0.6416 0.6096 0.25934 0.0
N205 N 0.65958 0.64437 0.13091 0.0
C206 C 0.64729 0.65309 0.14751 0.0
C207 C 0.6484 0.6689 0.14722 0.0
C208 C 0.66234 0.67588 0.13045 0.0
C209 C 0.67491 0.66657 0.11469 0.0
C210 C 0.67325 0.65077 0.11496 0.0
Zn211 Zn 0.65695 0.62131 0.12741 0.0
C212 C 0.68324 0.60508 0.19379 0.0
N213 N 0.65076 0.5732 0.12077 0.0
C214 C 0.63715 0.56715 0.14082 0.0
C215 C 0.66209 0.56428 0.09391 0.0
C216 C 0.65978 0.54871 0.08431 0.0
C217 C 0.64572 0.54223 0.10294 0.0
C218 C 0.63439 0.55162 0.13261 0.0
Zn219 Zn 0.65375 0.59622 0.1256 0.0
O220 O 0.64604 0.62173 0.22849 0.0
C221 C 0.62748 0.61282 0.05966 0.0
O222 O 0.64355 0.59692 0.22786 0.0
H223 H 0.67284 0.5693 0.07851 0.0
H224 H 0.63651 0.64779 0.16007 0.0
H225 H 0.62826 0.57445 0.16165 0.0
O226 O 0.63592 0.62409 0.07442 0.0
O227 O 0.63201 0.5995 0.0756 0.0
H228 H 0.68288 0.64362 0.10191 0.0
O229 O 0.66403 0.59596 0.02307 0.0
O230 O 0.66779 0.6206 0.02661 0.0
O231 O 0.67553 0.5934 0.17612 0.0
O232 O 0.67796 0.61822 0.18016 0.0
C233 C 0.66909 0.608 -0.00637 0.0
H234 H 0.63832 0.67555 0.15852 0.0
H235 H 0.68594 0.6714 0.10245 0.0
H236 H 0.66888 0.54183 0.06206 0.0
H237 H 0.62334 0.5471 0.147 0.0
C238 C 0.60938 0.34575 0.96901 0.0
N239 N 0.57362 0.36428 0.84852 0.0
C240 C 0.56805 0.36789 0.91544 0.0
C241 C 0.55253 0.37031 0.92546 0.0
C242 C 0.54267 0.36934 0.86579 0.0
C243 C 0.54865 0.36581 0.79706 0.0
C244 C 0.56426 0.36314 0.78972 0.0
Zn245 Zn 0.59661 0.36122 0.83876 0.0
C246 C 0.61373 0.38745 0.90237 0.0
N247 N 0.64478 0.35545 0.82595 0.0
C248 C 0.65157 0.34265 0.85183 0.0
C249 C 0.65314 0.367 0.79731 0.0
C250 C 0.66895 0.36603 0.79466 0.0
C251 C 0.67635 0.35316 0.82312 0.0
C252 C 0.6674 0.34131 0.85142 0.0
Zn253 Zn 0.62173 0.35805 0.83381 0.0
O254 O 0.59712 0.3503 0.93991 0.0
C255 C 0.605 0.33182 0.76952 0.0
O256 O 0.62187 0.3476 0.93569 0.0
H257 H 0.64756 0.37712 0.77727 0.0
H258 H 0.57566 0.36903 0.96128 0.0
H259 H 0.64473 0.33357 0.87425 0.0
O260 O 0.59341 0.33971 0.78694 0.0
O261 O 0.61822 0.33688 0.78335 0.0
H262 H 0.5689 0.36025 0.737 0.0
O263 O 0.62119 0.3686 0.73183 0.0
O264 O 0.59651 0.37196 0.73761 0.0
O265 O 0.62496 0.37922 0.88435 0.0
O266 O 0.60031 0.38274 0.88989 0.0
C267 C 0.60896 0.37347 0.70352 0.0
H268 H 0.5483 0.37317 0.97911 0.0
H269 H 0.54131 0.36495 0.74993 0.0
H270 H 0.67527 0.37533 0.77076 0.0
H271 H 0.67252 0.33124 0.87486 0.0
C272 C 0.87333 0.61125 0.45406 0.0
N273 N 0.8551 0.64454 0.5904 0.0
C274 C 0.85128 0.65223 0.52881 0.0
C275 C 0.84998 0.66806 0.52975 0.0
C276 C 0.85248 0.67607 0.59491 0.0
C277 C 0.85607 0.66774 0.65792 0.0
C278 C 0.85744 0.65197 0.65431 0.0
Zn279 Zn 0.85818 0.62151 0.58801 0.0
C280 C 0.8318 0.6054 0.52126 0.0
N281 N 0.8651 0.57343 0.58562 0.0
C282 C 0.87875 0.56808 0.56207 0.0
C283 C 0.85437 0.56388 0.61308 0.0
C284 C 0.8574 0.54836 0.62012 0.0
C285 C 0.87159 0.54257 0.59825 0.0
C286 C 0.8822 0.55264 0.56748 0.0
Zn287 Zn 0.86152 0.59642 0.58613 0.0
O288 O 0.86889 0.62314 0.4868 0.0
C289 C 0.88787 0.61282 0.65252 0.0
O290 O 0.87144 0.59835 0.48359 0.0
H291 H 0.84359 0.56837 0.63159 0.0
H292 H 0.84946 0.64611 0.47854 0.0
H293 H 0.88715 0.57585 0.54058 0.0
O294 O 0.87943 0.62422 0.63968 0.0
O295 O 0.88323 0.59961 0.63539 0.0
H296 H 0.86053 0.64568 0.70265 0.0
O297 O 0.85156 0.59488 0.689 0.0
O298 O 0.8475 0.61947 0.68891 0.0
O299 O 0.83971 0.5937 0.53654 0.0
O300 O 0.83698 0.61852 0.53634 0.0
C301 C 0.84639 0.60666 0.72018 0.0
H302 H 0.84738 0.67396 0.47953 0.0
H303 H 0.8578 0.67331 0.70977 0.0
H304 H 0.84891 0.54111 0.64492 0.0
H305 H 0.89317 0.54869 0.54858 0.0
C306 C 0.60814 0.16927 0.2407 0.0
N307 N 0.57336 0.15103 0.36778 0.0
C308 C 0.56439 0.16236 0.3413 0.0
C309 C 0.54883 0.15999 0.33166 0.0
C310 C 0.54242 0.14587 0.34978 0.0
C311 C 0.55186 0.13454 0.37898 0.0
C312 C 0.56738 0.13736 0.38732 0.0
Zn313 Zn 0.59635 0.15413 0.37303 0.0
C314 C 0.6132 0.12783 0.30908 0.0
N315 N 0.64451 0.16018 0.37906 0.0
C316 C 0.65108 0.173 0.35203 0.0
C317 C 0.6531 0.14868 0.40658 0.0
C318 C 0.66891 0.14974 0.40705 0.0
C319 C 0.67607 0.16263 0.37758 0.0
C320 C 0.6669 0.17443 0.35031 0.0
Zn321 Zn 0.62144 0.15748 0.37519 0.0
O322 O 0.59608 0.16437 0.2705 0.0
C323 C 0.60503 0.18387 0.43904 0.0
O324 O 0.62076 0.16782 0.2733 0.0
H325 H 0.64769 0.13855 0.42754 0.0
H326 H 0.56936 0.17315 0.3263 0.0
H327 H 0.64406 0.18203 0.3305 0.0
O328 O 0.59342 0.1759 0.42299 0.0
O329 O 0.61822 0.17873 0.42518 0.0
H330 H 0.57472 0.12848 0.40788 0.0
O331 O 0.62167 0.14705 0.47741 0.0
O332 O 0.59694 0.14397 0.47529 0.0
O333 O 0.62444 0.13624 0.32479 0.0
O334 O 0.59982 0.13242 0.32341 0.0
C335 C 0.60958 0.14234 0.50755 0.0
H336 H 0.5419 0.16909 0.30979 0.0
H337 H 0.5474 0.12344 0.39296 0.0
H338 H 0.67542 0.14048 0.43022 0.0
H339 H 0.67183 0.18451 0.3262 0.0
C340 C 0.14226 0.4061 0.45482 0.0
N341 N 0.16048 0.37059 0.57777 0.0
C342 C 0.14819 0.36184 0.56118 0.0
C343 C 0.14931 0.34603 0.56182 0.0
C344 C 0.16325 0.33913 0.57852 0.0
C345 C 0.17589 0.34838 0.59303 0.0
C346 C 0.17421 0.36418 0.59294 0.0
Zn347 Zn 0.15769 0.39366 0.58455 0.0
C348 C 0.18397 0.41057 0.52092 0.0
N349 N 0.15118 0.44181 0.59897 0.0
C350 C 0.15193 0.45102 0.53951 0.0
C351 C 0.14743 0.44748 0.66546 0.0
C352 C 0.14418 0.46288 0.67409 0.0
C353 C 0.14441 0.47264 0.61347 0.0
C354 C 0.14848 0.4665 0.54545 0.0
Zn355 Zn 0.15454 0.4188 0.59019 0.0
O356 O 0.14724 0.39389 0.48288 0.0
C357 C 0.12826 0.40162 0.65308 0.0
O358 O 0.1437 0.41856 0.48892 0.0
H359 H 0.14674 0.44 0.71206 0.0
H360 H 0.13741 0.36713 0.5486 0.0
H361 H 0.15491 0.44631 0.48706 0.0
O362 O 0.13644 0.39043 0.63412 0.0
O363 O 0.1331 0.41505 0.64239 0.0
H364 H 0.18381 0.37133 0.60636 0.0
O365 O 0.16552 0.41848 0.69086 0.0
O366 O 0.16805 0.39369 0.68675 0.0
O367 O 0.17599 0.42213 0.53791 0.0
O368 O 0.17892 0.39733 0.53459 0.0
C369 C 0.16997 0.40618 0.71999 0.0
H370 H 0.13936 0.33925 0.54958 0.0
H371 H 0.18681 0.34344 0.60655 0.0
H372 H 0.1415 0.46704 0.72802 0.0
H373 H 0.14866 0.47345 0.49685 0.0
C374 C 0.40865 0.84727 0.24061 0.0
N375 N 0.44259 0.8655 0.37331 0.0
C376 C 0.45196 0.85449 0.34697 0.0
C377 C 0.46755 0.85721 0.33989 0.0
C378 C 0.47358 0.87138 0.36032 0.0
C379 C 0.46367 0.88234 0.3894 0.0
C380 C 0.44818 0.87917 0.3952 0.0
Zn381 Zn 0.41953 0.86224 0.37436 0.0
C382 C 0.40337 0.8887 0.30751 0.0
N383 N 0.37123 0.85644 0.37285 0.0
C384 C 0.36504 0.84262 0.35769 0.0
C385 C 0.36229 0.86877 0.38593 0.0
C386 C 0.34649 0.86756 0.38227 0.0
C387 C 0.33982 0.85349 0.36617 0.0
C388 C 0.34926 0.84085 0.35466 0.0
Zn389 Zn 0.39436 0.85919 0.3732 0.0
O390 O 0.42055 0.85218 0.27166 0.0
C391 C 0.41035 0.83266 0.44001 0.0
O392 O 0.39587 0.84856 0.27216 0.0
H393 H 0.3674 0.87962 0.39856 0.0
H394 H 0.44729 0.84372 0.32966 0.0
H395 H 0.37235 0.83298 0.34705 0.0
O396 O 0.42211 0.84043 0.4242 0.0
O397 O 0.39727 0.83801 0.42545 0.0
H398 H 0.44055 0.88779 0.4159 0.0
O399 O 0.39317 0.86992 0.47455 0.0
O400 O 0.41801 0.87228 0.47662 0.0
O401 O 0.39189 0.88039 0.32049 0.0
O402 O 0.41653 0.88395 0.32489 0.0
C403 C 0.40517 0.87432 0.5066 0.0
H404 H 0.4747 0.84847 0.31643 0.0
H405 H 0.46782 0.89333 0.40701 0.0
H406 H 0.33956 0.87752 0.39228 0.0
H407 H 0.3445 0.82983 0.3417 0.0
C408 C 0.87419 0.90473 0.75635 0.0
N409 N 0.85578 0.87112 0.62186 0.0
C410 C 0.85188 0.86371 0.68418 0.0
C411 C 0.85028 0.84791 0.68445 0.0
C412 C 0.85251 0.83973 0.61977 0.0
C413 C 0.8563 0.84768 0.55609 0.0
C414 C 0.85799 0.86344 0.55846 0.0
Zn415 Zn 0.85882 0.89416 0.62296 0.0
C416 C 0.83251 0.91014 0.69135 0.0
N417 N 0.86536 0.94231 0.62429 0.0
C418 C 0.87961 0.94789 0.63491 0.0
C419 C 0.85351 0.95173 0.60914 0.0
C420 C 0.85584 0.96736 0.60226 0.0
C421 C 0.87058 0.9734 0.6095 0.0
C422 C 0.8825 0.96341 0.62715 0.0
Zn423 Zn 0.86205 0.91927 0.62476 0.0
O424 O 0.86963 0.89281 0.72414 0.0
C425 C 0.88832 0.90285 0.55671 0.0
O426 O 0.87239 0.9176 0.72632 0.0
H427 H 0.84227 0.94708 0.60079 0.0
H428 H 0.8501 0.87004 0.7339 0.0
H429 H 0.88887 0.94025 0.64739 0.0
O430 O 0.88003 0.89141 0.57068 0.0
O431 O 0.8836 0.91605 0.57344 0.0
H432 H 0.86121 0.86951 0.50967 0.0
O433 O 0.85169 0.92066 0.52272 0.0
O434 O 0.84808 0.896 0.52222 0.0
O435 O 0.84041 0.92186 0.67649 0.0
O436 O 0.83765 0.89707 0.67511 0.0
C437 C 0.84672 0.90882 0.49128 0.0
H438 H 0.84725 0.84217 0.73455 0.0
H439 H 0.85827 0.84173 0.50535 0.0
H440 H 0.84619 0.97458 0.59038 0.0
H441 H 0.89409 0.96738 0.63239 0.0
C442 C 0.9073 0.16917 0.4665 0.0
N443 N 0.9423 0.15076 0.34143 0.0
C444 C 0.9516 0.16168 0.36898 0.0
C445 C 0.96711 0.15881 0.37819 0.0
C446 C 0.97313 0.14458 0.35853 0.0
C447 C 0.9633 0.13371 0.32825 0.0
C448 C 0.94789 0.13701 0.32052 0.0
Zn449 Zn 0.91934 0.1542 0.33552 0.0
C450 C 0.90218 0.12773 0.39664 0.0
N451 N 0.87119 0.16028 0.32575 0.0
C452 C 0.86468 0.17304 0.3537 0.0
C453 C 0.86256 0.14892 0.29738 0.0
C454 C 0.84675 0.15 0.29741 0.0
C455 C 0.83964 0.16279 0.32823 0.0
C456 C 0.84887 0.17449 0.3559 0.0
Zn457 Zn 0.89424 0.1574 0.33047 0.0
O458 O 0.91954 0.1646 0.43723 0.0
C459 C 0.91094 0.18384 0.26833 0.0
O460 O 0.89477 0.16739 0.43343 0.0
H461 H 0.86793 0.13884 0.27566 0.0
H462 H 0.94693 0.17252 0.38538 0.0
H463 H 0.87173 0.18197 0.37587 0.0
O464 O 0.92253 0.17585 0.28472 0.0
O465 O 0.89772 0.17875 0.28212 0.0
H466 H 0.94031 0.12846 0.29887 0.0
O467 O 0.89415 0.14736 0.22794 0.0
O468 O 0.91881 0.14387 0.23325 0.0
O469 O 0.89098 0.13597 0.37815 0.0
O470 O 0.91562 0.1326 0.3864 0.0
C471 C 0.90633 0.14245 0.19939 0.0
H472 H 0.9742 0.16749 0.40249 0.0
H473 H 0.96745 0.12269 0.31106 0.0
H474 H 0.8402 0.14083 0.27391 0.0
H475 H 0.84397 0.18449 0.381 0.0
C476 C 0.14248 0.11107 0.75279 0.0
N477 N 0.16127 0.14437 0.61779 0.0
C478 C 0.16495 0.15179 0.68033 0.0
C479 C 0.16661 0.16759 0.68053 0.0
C480 C 0.16471 0.17576 0.61554 0.0
C481 C 0.16119 0.1678 0.55161 0.0
C482 C 0.15938 0.15205 0.55408 0.0
Zn483 Zn 0.15789 0.12134 0.6191 0.0
C484 C 0.18393 0.10489 0.68743 0.0
N485 N 0.1506 0.07327 0.62084 0.0
C486 C 0.13686 0.06796 0.64344 0.0
C487 C 0.16138 0.06367 0.59419 0.0
C488 C 0.15833 0.04815 0.58725 0.0
C489 C 0.14408 0.0424 0.60833 0.0
C490 C 0.13338 0.05252 0.638 0.0
Zn491 Zn 0.15438 0.09625 0.62105 0.0
O492 O 0.14697 0.12293 0.71979 0.0
C493 C 0.12828 0.113 0.55385 0.0
O494 O 0.14436 0.09814 0.72354 0.0
H495 H 0.17222 0.06812 0.5764 0.0
H496 H 0.16647 0.14548 0.73032 0.0
H497 H 0.12842 0.07577 0.66435 0.0
O498 O 0.1368 0.12434 0.56656 0.0
O499 O 0.13278 0.09976 0.57134 0.0
H500 H 0.1563 0.14598 0.50512 0.0
O501 O 0.16445 0.09477 0.51834 0.0
O502 O 0.16873 0.11932 0.51857 0.0
O503 O 0.17603 0.09324 0.67129 0.0
O504 O 0.17888 0.11805 0.672 0.0
C505 C 0.16972 0.10651 0.48721 0.0
H506 H 0.16943 0.17335 0.73082 0.0
H507 H 0.15948 0.17374 0.50062 0.0
H508 H 0.16689 0.04085 0.56328 0.0
H509 H 0.12235 0.04861 0.65621 0.0
C510 C 0.10789 0.84606 0.47109 0.0
N511 N 0.07362 0.86443 0.34124 0.0
C512 C 0.06453 0.85341 0.36976 0.0
C513 C 0.04898 0.85598 0.37884 0.0
C514 C 0.04268 0.86997 0.35762 0.0
C515 C 0.05221 0.88093 0.32604 0.0
C516 C 0.06773 0.87795 0.31874 0.0
Zn517 Zn 0.09668 0.86122 0.33822 0.0
C518 C 0.1132 0.88765 0.40363 0.0
N519 N 0.14495 0.85518 0.3364 0.0
C520 C 0.15288 0.85724 0.39923 0.0
C521 C 0.15215 0.8515 0.27322 0.0
C522 C 0.16796 0.84995 0.27149 0.0
C523 C 0.17638 0.85197 0.33563 0.0
C524 C 0.16865 0.85556 0.40018 0.0
Zn525 Zn 0.12184 0.85809 0.33776 0.0
O526 O 0.09594 0.85112 0.44098 0.0
C527 C 0.1056 0.83165 0.27191 0.0
O528 O 0.12057 0.84731 0.4387 0.0
H529 H 0.14564 0.84983 0.22395 0.0
H530 H 0.06941 0.84272 0.38705 0.0
H531 H 0.14698 0.86032 0.44873 0.0
O532 O 0.09391 0.83946 0.28843 0.0
O533 O 0.11874 0.83691 0.28594 0.0
H534 H 0.07515 0.88662 0.29678 0.0
O535 O 0.12268 0.86895 0.23663 0.0
O536 O 0.09784 0.87128 0.23574 0.0
O537 O 0.12463 0.87932 0.38959 0.0
O538 O 0.09996 0.88291 0.3876 0.0
C539 C 0.11061 0.87331 0.20506 0.0
H540 H 0.04197 0.84718 0.4028 0.0
H541 H 0.04781 0.89191 0.30964 0.0
H542 H 0.17354 0.84709 0.22074 0.0
H543 H 0.17478 0.85737 0.45054 0.0
C544 C 0.3872 0.90822 0.24568 0.0
C545 C 0.40128 0.904 0.27572 0.0
C546 C 0.38484 0.92299 0.22018 0.0
C547 C 0.39749 0.96181 0.25079 0.0
H548 H 0.3765 0.97072 0.07004 0.0
C549 C 0.37083 0.02022 0.18974 0.0
C550 C 0.37401 0.02663 0.12135 0.0
C551 C 0.37477 1.00517 0.2048 0.0
C552 C 0.38245 0.96839 0.12043 0.0
H553 H 0.42404 0.91188 0.30108 0.0
H554 H 0.4198 0.9378 0.25734 0.0
H555 H 0.38277 0.94436 0.10091 0.0
H556 H 0.38353 0.02223 0.0146 0.0
H557 H 0.39026 0.99575 0.04072 0.0
H558 H 0.39694 0.98577 0.27104 0.0
C559 C 0.41062 0.92962 0.25355 0.0
C560 C 0.38595 0.95333 0.13825 0.0
C561 C 0.41306 0.91478 0.27822 0.0
C562 C 0.38101 0.01759 0.06788 0.0
C563 C 0.38477 1.00245 0.08265 0.0
C564 C 0.39382 0.97682 0.23344 0.0
C565 C 0.39644 0.93391 0.22498 0.0
C566 C 0.39344 0.94989 0.20379 0.0
C567 C 0.38182 0.99615 0.15152 0.0
C568 C 0.38617 0.98025 0.16835 0.0
H569 H 0.37791 0.90016 0.24282 0.0
H570 H 0.37375 0.92601 0.19896 0.0
H571 H 0.40315 0.95948 0.30196 0.0
H572 H 0.36558 0.02696 0.2322 0.0
H573 H 0.37224 1.00056 0.25812 0.0
C574 C 0.90774 0.62945 0.70886 0.0
C575 C 0.9032 0.61504 0.68394 0.0
C576 C 0.92252 0.63185 0.73413 0.0
C577 C 0.96117 0.61692 0.71464 0.0
H578 H 0.96983 0.6417 0.8841 0.0
C579 C 0.02243 0.62556 0.81699 0.0
C580 C 0.02653 0.64018 0.84089 0.0
C581 C 1.00725 0.62195 0.80303 0.0
C582 C 0.96762 0.63489 0.8362 0.0
H583 H 0.91055 0.59175 0.66774 0.0
H584 H 0.9364 0.59596 0.71173 0.0
H585 H 0.94349 0.63626 0.85132 0.0
H586 H 0.01771 0.66237 0.87025 0.0
H587 H 0.99129 0.65623 0.84359 0.0
H588 H 0.98519 0.61581 0.69819 0.0
C589 C 0.92852 0.60542 0.71122 0.0
C590 C 0.95252 0.63174 0.81759 0.0
C591 C 0.91369 0.60299 0.68643 0.0
C592 C 0.01501 0.65106 0.85112 0.0
C593 C 0.99981 0.64746 0.83674 0.0
C594 C 0.97624 0.62014 0.73292 0.0
C595 C 0.93314 0.61991 0.7346 0.0
C596 C 0.94914 0.62276 0.75646 0.0
C597 C 0.99575 0.63289 0.81201 0.0
C598 C 0.97967 0.62921 0.79381 0.0
H599 H 0.89993 0.63898 0.70782 0.0
H600 H 0.92577 0.64317 0.75118 0.0
H601 H 0.95893 0.61018 0.66651 0.0
H602 H 0.03098 0.61693 0.80752 0.0
H603 H 1.00454 0.61054 0.78506 0.0
C604 C 0.64741 0.9962 0.1877 0.0
C605 C 0.6428 0.98953 0.1219 0.0
C606 C 0.64404 0.01139 0.20266 0.0
C607 C 0.61843 0.04292 0.14928 0.0
H608 H 0.64816 0.06715 0.25291 0.0
C609 C 0.60434 0.10158 0.27631 0.0
C610 C 0.61586 0.11264 0.27703 0.0
C611 C 0.60739 0.08686 0.25133 0.0
C612 C 0.63978 0.06064 0.22311 0.0
H613 H 0.63116 0.99359 0.01978 0.0
H614 H 0.62547 0.02025 0.04534 0.0
H615 H 0.65426 0.04117 0.21968 0.0
H616 H 0.63938 0.11717 0.24873 0.0
H617 H 0.64455 0.09174 0.20346 0.0
H618 H 0.60409 0.06259 0.15134 0.0
C619 C 0.63146 0.01365 0.08601 0.0
C620 C 0.6432 0.04563 0.20497 0.0
C621 C 0.63476 0.9984 0.07122 0.0
C622 C 0.6303 0.10885 0.24973 0.0
C623 C 0.63329 0.09423 0.22416 0.0
C624 C 0.61503 0.05801 0.16711 0.0
C625 C 0.63605 0.02033 0.15199 0.0
C626 C 0.63254 0.03652 0.16843 0.0
C627 C 0.62198 0.08294 0.226 0.0
C628 C 0.62564 0.06703 0.20462 0.0
H629 H 0.65336 0.98959 0.22848 0.0
H630 H 0.64748 0.01603 0.25467 0.0
H631 H 0.60989 0.03619 0.1217 0.0
H632 H 0.59311 0.10415 0.29717 0.0
H633 H 0.59844 0.07844 0.2542 0.0
C634 C 0.99795 0.36532 0.79492 0.0
C635 C 0.99012 0.37363 0.84847 0.0
C636 C 0.0131 0.36857 0.77851 0.0
C637 C 0.04727 0.3895 0.84539 0.0
H638 H 0.05986 0.38482 0.64432 0.0
C639 C 0.10486 0.41038 0.71947 0.0
C640 C 0.11291 0.39887 0.68298 0.0
C641 C 0.09003 0.40775 0.74436 0.0
C642 C 0.05648 0.38615 0.70067 0.0
H643 H 0.99247 0.39168 0.92832 0.0
H644 H 0.01855 0.39791 0.89676 0.0
H645 H 0.03364 0.37956 0.67809 0.0
H646 H 0.11181 0.37556 0.64452 0.0
H647 H 0.08587 0.37118 0.68623 0.0
H648 H 0.07021 0.39661 0.86655 0.0
C649 C 0.01308 0.38862 0.86846 0.0
C650 C 0.04149 0.38301 0.72034 0.0
C651 C 0.99798 0.38518 0.88581 0.0
C652 C 0.10593 0.38466 0.67259 0.0
C653 C 0.09108 0.38215 0.69613 0.0
C654 C 0.06224 0.39292 0.82528 0.0
C655 C 0.02081 0.38044 0.81405 0.0
C656 C 0.03671 0.3844 0.79318 0.0
C657 C 0.08297 0.39368 0.73172 0.0
C658 C 0.06699 0.39105 0.75295 0.0
H659 H 0.99233 0.35648 0.76407 0.0
H660 H 0.01872 0.36176 0.73749 0.0
H661 H 0.0441 0.39055 0.9021 0.0
H662 H 0.10997 0.42143 0.72838 0.0
H663 H 0.08394 0.41681 0.77161 0.0
C664 C 0.38182 0.49787 0.13127 0.0
C665 C 0.37372 0.48897 0.08097 0.0
C666 C 0.38508 0.51311 0.1162 0.0
C667 C 0.3731 0.5451 -0.00225 0.0
H668 H 0.41224 0.56209 0.05046 0.0
C669 C 0.38571 0.60849 0.95548 0.0
C670 C 0.40006 0.61237 0.92744 0.0
C671 C 0.38282 0.59379 -0.01951 0.0
C672 C 0.40129 0.5575 0.03496 0.0
H673 H 0.36299 0.489 0.97481 0.0
H674 H 0.36879 0.51546 0.94812 0.0
H675 H 0.40657 0.53564 0.07956 0.0
H676 H 0.42277 0.60396 0.90549 0.0
H677 H 0.41763 0.57814 0.94767 0.0
H678 H 0.36799 0.5667 0.95075 0.0
C679 C 0.37232 0.51082 2e-05 0.0
C680 C 0.39797 0.54238 0.05247 0.0
C681 C 0.369 0.49563 0.01526 0.0
C682 C 0.41161 0.60133 0.92697 0.0
C683 C 0.40867 0.58655 0.95146 0.0
C684 C 0.37644 0.56016 -0.02001 0.0
C685 C 0.38038 0.51977 0.05031 0.0
C686 C 0.38385 0.53597 0.03372 0.0
C687 C 0.39415 0.58253 0.97742 0.0
C688 C 0.39059 0.56657 -0.00179 0.0
H689 H 0.38548 0.49309 0.18269 0.0
H690 H 0.39111 0.51972 0.15661 0.0
H691 H 0.36204 0.54063 -0.01666 0.0
H692 H 0.37661 0.61678 0.95732 0.0
H693 H 0.37162 0.59122 0.00167 0.0
C694 C 0.60126 0.60387 0.02661 0.0
C695 C 0.61229 0.61542 0.02731 0.0
C696 C 0.58652 0.60688 0.00161 0.0
C697 C 0.56018 0.63918 0.97335 0.0
H698 H 0.53596 0.60934 0.87036 0.0
C699 C 0.49576 0.64681 0.93399 0.0
C700 C 0.48929 0.64225 0.86761 0.0
C701 C 0.5109 0.64344 0.95004 0.0
C702 C 0.54262 0.61787 0.89842 0.0
H703 H 0.61674 0.63895 -0.00096 0.0
H704 H 0.59129 0.64405 0.95385 0.0
H705 H 0.56232 0.60356 0.90104 0.0
H706 H 0.49372 0.63071 0.76558 0.0
H707 H 0.52029 0.625 0.79308 0.0
H708 H 0.54067 0.65362 0.9694 0.0
C709 C 0.59381 0.6328 0.9745 0.0
C710 C 0.55769 0.61447 0.91682 0.0
C711 C 0.60846 0.62984 -0.0 0.0
C712 C 0.49835 0.63426 0.81747 0.0
C713 C 0.51355 0.63095 0.83336 0.0
C714 C 0.54518 0.64259 0.9547 0.0
C715 C 0.58256 0.62146 0.97632 0.0
C716 C 0.56664 0.62508 0.95478 0.0
C717 C 0.52001 0.63549 0.89993 0.0
C718 C 0.53616 0.63195 0.91747 0.0
H719 H 0.60386 0.59265 0.04748 0.0
H720 H 0.57812 0.5979 0.00442 0.0
H721 H 0.56663 0.64755 0.0035 0.0
H722 H 0.48901 0.65272 0.97437 0.0
H723 H 0.51538 0.64684 0.00243 0.0
C724 C 0.63499 0.51689 0.13997 0.0
C725 C 0.64265 0.52592 0.08855 0.0
C726 C 0.63185 0.50161 0.12529 0.0
C727 C 0.64336 0.46989 0.00403 0.0
H728 H 0.60483 0.45239 0.06311 0.0
C729 C 0.63098 0.40654 0.95966 0.0
C730 C 0.61642 0.40261 0.93465 0.0
C731 C 0.63396 0.42118 -0.01487 0.0
C732 C 0.61561 0.45713 0.0458 0.0
H733 H 0.65271 0.5261 -0.01916 0.0
H734 H 0.64707 0.49959 0.95474 0.0
H735 H 0.61045 0.47883 0.09225 0.0
H736 H 0.59343 0.41083 0.91859 0.0
H737 H 0.59872 0.43656 0.96129 0.0
H738 H 0.64831 0.44847 0.95499 0.0
C739 C 0.64382 0.50415 0.00723 0.0
C740 C 0.61891 0.47224 0.06335 0.0
C741 C 0.64705 0.51936 0.02212 0.0
C742 C 0.60477 0.41352 0.93764 0.0
C743 C 0.60779 0.42825 0.96247 0.0
C744 C 0.64003 0.45484 -0.01386 0.0
C745 C 0.63621 0.49505 0.05863 0.0
C746 C 0.63281 0.47884 0.04228 0.0
C747 C 0.6225 0.43232 -0.01455 0.0
C748 C 0.6261 0.44826 0.0066 0.0
H749 H 0.63158 0.5216 0.19192 0.0
H750 H 0.62616 0.4949 0.16653 0.0
H751 H 0.65427 0.4745 -0.01219 0.0
H752 H 0.64017 0.39834 0.95887 0.0
H753 H 0.64533 0.42378 0.00402 0.0
C754 C 0.41159 0.4101 -0.00414 0.0
C755 C 0.40332 0.39863 0.03159 0.0
C756 C 0.42644 0.40731 0.97157 0.0
C757 C 0.4596 0.3853 0.01683 0.0
H758 H 0.47264 0.38954 0.81626 0.0
C759 C 0.51817 0.3638 0.92845 0.0
C760 C 0.52626 0.37211 0.87611 0.0
C761 C 0.50295 0.36711 0.94266 0.0
C762 C 0.46929 0.38853 0.87273 0.0
H763 H 0.40405 0.37525 0.06931 0.0
H764 H 0.43001 0.3706 0.0287 0.0
H765 H 0.44649 0.39596 0.85001 0.0
H766 H 0.52488 0.39024 0.79677 0.0
H767 H 0.49837 0.39652 0.82341 0.0
H768 H 0.48227 0.3784 0.04101 0.0
C769 C 0.42496 0.38165 0.01888 0.0
C770 C 0.4543 0.39215 0.89182 0.0
C771 C 0.41009 0.38432 0.04182 0.0
C772 C 0.5188 0.38361 0.83706 0.0
C773 C 0.5036 0.38714 0.85226 0.0
C774 C 0.4746 0.38195 -0.0018 0.0
C775 C 0.43329 0.39313 -0.01594 0.0
C776 C 0.44931 0.39033 0.96383 0.0
C777 C 0.49553 0.37906 0.90604 0.0
C778 C 0.47961 0.38326 0.92567 0.0
H779 H 0.40664 0.42123 -0.01291 0.0
H780 H 0.43271 0.41634 0.94496 0.0
H781 H 0.45603 0.384 0.07296 0.0
H782 H 0.52369 0.35477 0.95866 0.0
H783 H 0.49704 0.3603 -0.01719 0.0
C784 C 0.88611 0.40853 0.75976 0.0
C785 C 0.90067 0.40391 0.78238 0.0
C786 C 0.88373 0.42316 0.73251 0.0
C787 C 0.89928 0.46163 0.74252 0.0
H788 H 0.87353 0.46938 0.57529 0.0
C789 C 0.89035 0.52227 0.63298 0.0
C790 C 0.87559 0.52632 0.61079 0.0
C791 C 0.894 0.50715 0.64807 0.0
C792 C 0.88062 0.46742 0.62254 0.0
H793 H 0.92421 0.41093 0.79272 0.0
H794 H 0.92 0.43656 0.74544 0.0
H795 H 0.8789 0.44323 0.61172 0.0
H796 H 0.85319 0.51746 0.58541 0.0
H797 H 0.85941 0.49116 0.61424 0.0
H798 H 0.90071 0.48572 0.75489 0.0
C799 C 0.91044 0.42884 0.74914 0.0
C800 C 0.88373 0.45244 0.64321 0.0
C801 C 0.91285 0.41415 0.77585 0.0
C802 C 0.86462 0.5148 0.6032 0.0
C803 C 0.86825 0.49967 0.61881 0.0
C804 C 0.89608 0.47659 0.72223 0.0
C805 C 0.89583 0.43354 0.7278 0.0
C806 C 0.89305 0.44939 0.70359 0.0
C807 C 0.88296 0.49567 0.64206 0.0
C808 C 0.88667 0.47969 0.66214 0.0
H809 H 0.87648 0.4009 0.76397 0.0
H810 H 0.87233 0.4265 0.71713 0.0
H811 H 0.90629 0.45963 0.79001 0.0
H812 H 0.89905 0.53083 0.64043 0.0
H813 H 0.9055 0.50448 0.66478 0.0
C814 C 0.51716 0.1349 0.38645 0.0
C815 C 0.52611 0.14275 0.3354 0.0
C816 C 0.5019 0.1317 0.37174 0.0
C817 C 0.47001 0.14342 0.25226 0.0
H818 H 0.45288 0.10448 0.30753 0.0
C819 C 0.41387 0.10476 0.18302 0.0
C820 C 0.40283 0.1163 0.18245 0.0
C821 C 0.42862 0.10778 0.20756 0.0
C822 C 0.45752 0.11537 0.29132 0.0
H823 H 0.52617 0.15313 0.22836 0.0
H824 H 0.49966 0.14742 0.2023 0.0
H825 H 0.47932 0.11018 0.33669 0.0
H826 H 0.39837 0.13984 0.21047 0.0
H827 H 0.42388 0.14497 0.25492 0.0
H828 H 0.44847 0.14843 0.20443 0.0
C829 C 0.50428 0.14404 0.25448 0.0
C830 C 0.47263 0.11872 0.30886 0.0
C831 C 0.51949 0.14731 0.26936 0.0
C832 C 0.40667 0.13074 0.20941 0.0
C833 C 0.42133 0.13371 0.2345 0.0
C834 C 0.45496 0.14005 0.23444 0.0
C835 C 0.49527 0.13621 0.30549 0.0
C836 C 0.47908 0.13276 0.28914 0.0
C837 C 0.43259 0.12237 0.23255 0.0
C838 C 0.44852 0.12598 0.25355 0.0
H839 H 0.52193 0.13136 0.43811 0.0
H840 H 0.49524 0.12584 0.41266 0.0
H841 H 0.47452 0.15443 0.2371 0.0
H842 H 0.41126 0.09353 0.16241 0.0
H843 H 0.43703 0.09881 0.20462 0.0
C844 C 0.13062 0.60612 0.77731 0.0
C845 C 0.11626 0.613 0.77134 0.0
C846 C 0.13306 0.59145 0.75093 0.0
C847 C 0.11225 0.55648 0.69591 0.0
H848 H 0.15243 0.54447 0.63122 0.0
C849 C 0.12922 0.49352 0.67274 0.0
C850 C 0.14023 0.48901 0.62149 0.0
C851 C 0.12572 0.50885 0.68286 0.0
C852 C 0.14105 0.5476 0.64782 0.0
H853 H 0.09332 0.61008 0.73095 0.0
H854 H 0.09772 0.58469 0.68187 0.0
H855 H 0.14739 0.5709 0.65915 0.0
H856 H 0.15589 0.49737 0.53929 0.0
H857 H 0.14914 0.52397 0.55388 0.0
H858 H 0.10571 0.53331 0.68139 0.0
C859 C 0.107 0.59041 0.70911 0.0
C860 C 0.13822 0.56281 0.66525 0.0
C861 C 0.10448 0.60502 0.73679 0.0
C862 C 0.14727 0.50031 0.57894 0.0
C863 C 0.14356 0.51566 0.58817 0.0
C864 C 0.115 0.54133 0.67714 0.0
C865 C 0.1213 0.58334 0.71652 0.0
C866 C 0.12388 0.56741 0.69121 0.0
C867 C 0.13286 0.52017 0.64097 0.0
C868 C 0.12953 0.53659 0.65442 0.0
H869 H 0.13991 0.61191 0.80424 0.0
H870 H 0.14413 0.58636 0.75941 0.0
H871 H 0.10109 0.55947 0.71616 0.0
H872 H 0.12325 0.48521 0.70548 0.0
H873 H 0.1176 0.51178 0.72485 0.0
C874 C 0.60923 0.88585 0.21639 0.0
C875 C 0.61321 0.90029 0.18971 0.0
C876 C 0.59456 0.88301 0.24206 0.0
C877 C 0.55888 0.90176 0.30276 0.0
H878 H 0.54082 0.86326 0.24726 0.0
C879 C 0.49443 0.88942 0.32413 0.0
C880 C 0.48996 0.87494 0.34867 0.0
C881 C 0.50972 0.89265 0.31051 0.0
C882 C 0.54576 0.87398 0.26405 0.0
H883 H 0.605 0.92319 0.17078 0.0
H884 H 0.57926 0.91816 0.21437 0.0
H885 H 0.56697 0.86878 0.2132 0.0
H886 H 0.49821 0.85263 0.37995 0.0
H887 H 0.52489 0.85824 0.35536 0.0
H888 H 0.53745 0.90702 0.35235 0.0
C889 C 0.58756 0.90908 0.21645 0.0
C890 C 0.56077 0.87715 0.24461 0.0
C891 C 0.6023 0.91195 0.19115 0.0
C892 C 0.5012 0.86382 0.36 0.0
C893 C 0.5165 0.86704 0.34604 0.0
C894 C 0.5438 0.8986 0.32191 0.0
C895 C 0.58345 0.8945 0.24123 0.0
C896 C 0.56753 0.89109 0.2636 0.0
C897 C 0.52092 0.88146 0.32069 0.0
C898 C 0.53707 0.88468 0.3026 0.0
H899 H 0.61741 0.87664 0.21674 0.0
H900 H 0.59191 0.87175 0.2622 0.0
H901 H 0.56377 0.91251 0.31916 0.0
H902 H 0.48607 0.89818 0.31351 0.0
H903 H 0.51273 0.90379 0.29 0.0
C904 C 0.86532 0.99765 0.54126 0.0
C905 C 0.87364 0.98981 0.59481 0.0
C906 C 0.86866 0.01275 0.52439 0.0
C907 C 0.88992 0.04686 0.58968 0.0
H908 H 0.88504 0.05923 0.38841 0.0
C909 C 0.91092 0.10425 0.46251 0.0
C910 C 0.89942 0.11233 0.42599 0.0
C911 C 0.90825 0.08944 0.48747 0.0
C912 C 0.88643 0.05591 0.44481 0.0
H913 H 0.89179 0.99212 0.67415 0.0
H914 H 0.89817 0.01812 0.64178 0.0
H915 H 0.87967 0.03309 0.4231 0.0
H916 H 0.87613 0.11127 0.38733 0.0
H917 H 0.87168 0.08535 0.42915 0.0
H918 H 0.8972 0.06978 0.60997 0.0
C919 C 0.88881 0.01269 0.61385 0.0
C920 C 0.88323 0.04097 0.46501 0.0
C921 C 0.88529 0.99763 0.63168 0.0
C922 C 0.88521 0.10537 0.41543 0.0
C923 C 0.88266 0.09052 0.43904 0.0
C924 C 0.89341 0.06178 0.56904 0.0
C925 C 0.88063 0.02041 0.55941 0.0
C926 C 0.88468 0.03626 0.53795 0.0
C927 C 0.89416 0.08241 0.47488 0.0
C928 C 0.89147 0.06646 0.49663 0.0
H929 H 0.85642 0.99205 0.51073 0.0
H930 H 0.86184 0.01838 0.48339 0.0
H931 H 0.89103 0.04376 0.64645 0.0
H932 H 0.92197 0.10935 0.47154 0.0
H933 H 0.91729 0.08334 0.51487 0.0
C934 C 0.10238 0.10339 0.52059 0.0
C935 C 0.11295 0.11536 0.52268 0.0
C936 C 0.08751 0.10597 0.4967 0.0
C937 C 0.06339 0.13255 0.39252 0.0
H938 H 0.03103 0.1168 0.51446 0.0
C939 C 1.00083 0.15184 0.36182 0.0
C940 C 0.9894 0.14086 0.37187 0.0
C941 C 0.01605 0.14835 0.37624 0.0
C942 C 0.03989 0.12109 0.47908 0.0
H943 H 0.11637 0.13928 0.49886 0.0
H944 H 0.09045 0.14373 0.45702 0.0
H945 H 0.05736 0.11103 0.54424 0.0
H946 H 0.98511 0.11759 0.40544 0.0
H947 H 0.01159 0.11139 0.42805 0.0
H948 H 0.04591 0.1426 0.32723 0.0
C949 C 0.09366 0.13237 0.47373 0.0
C950 C 0.055 0.11779 0.49625 0.0
C951 C 0.10849 0.12982 0.49809 0.0
C952 C 0.9936 0.12628 0.39606 0.0
C953 C 0.00879 0.12278 0.41008 0.0
C954 C 0.04826 0.13578 0.37504 0.0
C955 C 0.08295 0.12053 0.47387 0.0
C956 C 0.06691 0.12353 0.45339 0.0
C957 C 0.02021 0.13379 0.40087 0.0
C958 C 0.03632 0.13015 0.41833 0.0
H959 H 0.10546 0.09211 0.53906 0.0
H960 H 0.07955 0.09659 0.49659 0.0
H961 H 0.07233 0.13701 0.35807 0.0
H962 H 0.99804 0.16313 0.34255 0.0
H963 H 0.02451 0.15717 0.36928 0.0
C964 C 0.12986 0.90756 0.4594 0.0
C965 C 0.11541 0.90295 0.43535 0.0
C966 C 0.13221 0.92231 0.48518 0.0
C967 C 0.11691 0.96088 0.46885 0.0
H968 H 0.14207 0.96932 0.63725 0.0
C969 C 0.12547 0.02198 0.57338 0.0
C970 C 0.14014 0.02612 0.59643 0.0
C971 C 0.12188 1.00681 0.55918 0.0
C972 C 0.13515 0.96717 0.58965 0.0
H973 H 0.09201 0.91014 0.42111 0.0
H974 H 0.09615 0.93594 0.46595 0.0
H975 H 0.13677 0.94303 0.6033 0.0
H976 H 0.16245 0.01734 0.62423 0.0
H977 H 0.15635 0.99094 0.59712 0.0
H978 H 0.11556 0.98492 0.45382 0.0
C979 C 0.10567 0.92813 0.4644 0.0
C980 C 0.13208 0.9521 0.57038 0.0
C981 C 0.10328 0.91333 0.43912 0.0
C982 C 0.15109 0.01462 0.60574 0.0
C983 C 0.14752 0.99943 0.5911 0.0
C984 C 0.12006 0.97593 0.48779 0.0
C985 C 0.12019 0.93283 0.48702 0.0
C986 C 0.12297 0.9488 0.5096 0.0
C987 C 0.1329 0.99534 0.56706 0.0
C988 C 0.12926 0.97928 0.5483 0.0
H989 H 0.13945 0.89984 0.45736 0.0
H990 H 0.14356 0.92563 0.50162 0.0
H991 H 0.11006 0.9587 0.42102 0.0
H992 H 0.11678 0.03051 0.56464 0.0
H993 H 0.11044 1.00408 0.54179 0.0
C994 C 0.01735 0.88031 0.31815 0.0
C995 C 0.02643 0.8734 0.37175 0.0
C996 C 1.00218 0.88399 0.33281 0.0
C997 C 0.97649 0.89302 0.48343 0.0
H998 H 0.94406 0.88186 0.35084 0.0
C999 C 0.91445 0.91242 0.52718 0.0
C1000 C 0.90362 0.90068 0.52481 0.0
C1001 C 0.92929 0.9099 0.50271 0.0
C1002 C 0.95302 0.88507 0.38822 0.0
H1003 H 0.02679 0.86505 0.48275 0.0
H1004 H 1.00034 0.87158 0.50848 0.0
H1005 H 0.97045 0.8756 0.32026 0.0
H1006 H 0.8997 0.87731 0.4922 0.0
H1007 H 0.92557 0.87302 0.44866 0.0
H1008 H 0.95911 0.90239 0.55164 0.0
C1009 C 1.00495 0.87409 0.45512 0.0
C1010 C 0.9681 0.88158 0.37055 0.0
C1011 C 0.02003 0.87023 0.44017 0.0
C1012 C 0.90779 0.88657 0.495 0.0
C1013 C 0.92258 0.88413 0.46969 0.0
C1014 C 0.96146 0.8967 0.5006 0.0
C1015 C 0.99588 0.88106 0.40172 0.0
C1016 C 0.97995 0.88535 0.41846 0.0
C1017 C 0.93355 0.89568 0.47447 0.0
C1018 C 0.94955 0.89262 0.45357 0.0
H1019 H 0.02198 0.88282 0.26484 0.0
H1020 H 0.99545 0.8894 0.29077 0.0
H1021 H 0.98542 0.89619 0.52104 0.0
H1022 H 0.91158 0.92342 0.54985 0.0
H1023 H 0.9375 0.91905 0.50646 0.0
C1024 C 0.35219 0.20208 0.03069 0.0
C1025 C 0.35008 0.19295 0.0926 0.0
C1026 C 0.3513 0.2179 0.03601 0.0
C1027 C 0.35772 0.24895 0.16042 0.0
H1028 H 0.33119 0.27249 0.03515 0.0
C1029 C 0.35235 0.31388 0.19342 0.0
C1030 C 0.35036 0.32264 0.13031 0.0
C1031 C 0.35142 0.29804 0.19033 0.0
C1032 C 0.33886 0.26615 0.06984 0.0
H1033 H 0.34549 0.19307 0.20843 0.0
H1034 H 0.34433 0.22084 0.2181 0.0
H1035 H 0.33151 0.24484 0.02543 0.0
H1036 H 0.34602 0.32183 0.01446 0.0
H1037 H 0.34505 0.2942 0.00801 0.0
H1038 H 0.36565 0.27009 0.20284 0.0
C1039 C 0.34648 0.21572 0.16548 0.0
C1040 C 0.33894 0.25031 0.06446 0.0
C1041 C 0.34706 0.19989 0.15989 0.0
C1042 C 0.34742 0.31531 0.06404 0.0
C1043 C 0.34678 0.29946 0.06059 0.0
C1044 C 0.35788 0.2648 0.16488 0.0
C1045 C 0.3486 0.22484 0.10359 0.0
C1046 C 0.34835 0.24159 0.10979 0.0
C1047 C 0.34879 0.29058 0.12369 0.0
C1048 C 0.34843 0.27365 0.11969 0.0
H1049 H 0.3545 0.19696 0.97822 0.0
H1050 H 0.35306 0.22473 -0.01235 0.0
H1051 H 0.3652 0.24245 0.19541 0.0
H1052 H 0.3545 0.31932 0.24529 0.0
H1053 H 0.35269 0.29168 0.24039 0.0
C1054 C 0.31483 0.67544 0.7989 0.0
C1055 C 0.32268 0.6639 0.83607 0.0
C1056 C 0.299 0.67645 0.80359 0.0
C1057 C 0.26669 0.66665 0.91918 0.0
H1058 H 0.24291 0.66822 0.7418 0.0
C1059 C 0.20168 0.65819 0.92098 0.0
C1060 C 0.19291 0.666 0.86931 0.0
C1061 C 0.21755 0.65878 0.91822 0.0
C1062 C 0.24933 0.66808 0.79202 0.0
H1063 H 0.32025 0.64459 0.90843 0.0
H1064 H 0.29257 0.64651 0.91761 0.0
H1065 H 0.27057 0.66802 0.73474 0.0
H1066 H 0.19374 0.68097 0.77584 0.0
H1067 H 0.22141 0.68252 0.77241 0.0
H1068 H 0.2456 0.66703 0.97685 0.0
C1069 C 0.29866 0.65469 0.8845 0.0
C1070 C 0.2652 0.6679 0.7878 0.0
C1071 C 0.31444 0.65353 0.87883 0.0
C1072 C 0.20027 0.67471 0.81585 0.0
C1073 C 0.21613 0.67551 0.81372 0.0
C1074 C 0.25084 0.66707 0.92353 0.0
C1075 C 0.29078 0.6661 0.84662 0.0
C1076 C 0.27401 0.66702 0.85129 0.0
C1077 C 0.225 0.6674 0.86434 0.0
C1078 C 0.24193 0.66763 0.85997 0.0
H1079 H 0.32093 0.68353 0.76536 0.0
H1080 H 0.29317 0.68538 0.77411 0.0
H1081 H 0.27326 0.66614 0.96899 0.0
H1082 H 0.19627 0.65124 0.96225 0.0
H1083 H 0.22394 0.65215 0.95731 0.0
C1084 C 0.67402 0.81452 0.05456 0.0
C1085 C 0.66337 0.82267 0.09626 0.0
C1086 C 0.67429 0.79863 0.05621 0.0
C1087 C 0.65054 0.76535 0.1078 0.0
H1088 H 0.68899 0.74379 0.10455 0.0
C1089 C 0.65539 0.70179 0.17741 0.0
C1090 C 0.66358 0.69274 0.12795 0.0
C1091 C 0.65582 0.71762 0.17252 0.0
C1092 C 0.67818 0.74968 0.10498 0.0
H1093 H 0.64446 0.82036 0.1715 0.0
H1094 H 0.64538 0.79286 0.17691 0.0
H1095 H 0.68877 0.77151 0.09746 0.0
H1096 H 0.67886 0.69337 0.0351 0.0
H1097 H 0.6799 0.72106 0.02804 0.0
H1098 H 0.64 0.74351 0.11715 0.0
C1099 C 0.65336 0.79868 0.14174 0.0
C1100 C 0.67803 0.76555 0.1006 0.0
C1101 C 0.653 0.81452 0.13956 0.0
C1102 C 0.67257 0.69995 0.07476 0.0
C1103 C 0.67313 0.71581 0.07044 0.0
C1104 C 0.65071 0.74953 0.11303 0.0
C1105 C 0.66396 0.79051 0.09993 0.0
C1106 C 0.66419 0.7736 0.10235 0.0
C1107 C 0.6646 0.72477 0.11866 0.0
C1108 C 0.66452 0.74155 0.112 0.0
H1109 H 0.68228 0.82041 0.02113 0.0
H1110 H 0.6825 0.79272 0.02264 0.0
H1111 H 0.63965 0.77111 0.1076 0.0
H1112 H 0.64862 0.69667 0.2201 0.0
H1113 H 0.64932 0.72428 0.21112 0.0
C1114 C 0.81443 0.3661 0.85457 0.0
C1115 C 0.82299 0.35293 0.86906 0.0
C1116 C 0.79867 0.36536 0.84734 0.0
C1117 C 0.76539 0.34062 0.88707 0.0
H1118 H 0.74536 0.3681 0.75259 0.0
C1119 C 0.70094 0.33842 0.81659 0.0
C1120 C 0.69328 0.35237 0.82509 0.0
C1121 C 0.71682 0.33775 0.8198 0.0
C1122 C 0.75083 0.36038 0.79039 0.0
H1123 H 0.82147 0.3286 0.88747 0.0
H1124 H 0.79408 0.32719 0.87119 0.0
H1125 H 0.773 0.36803 0.76064 0.0
H1126 H 0.69651 0.3765 0.84511 0.0
H1127 H 0.72413 0.37534 0.84752 0.0
H1128 H 0.74305 0.33278 0.91517 0.0
C1129 C 0.79954 0.33819 0.8672 0.0
C1130 C 0.76666 0.36039 0.79548 0.0
C1131 C 0.81532 0.33896 0.87549 0.0
C1132 C 0.70194 0.36561 0.83644 0.0
C1133 C 0.71778 0.36496 0.83835 0.0
C1134 C 0.74954 0.34044 0.88101 0.0
C1135 C 0.79099 0.35139 0.85307 0.0
C1136 C 0.77416 0.35069 0.84476 0.0
C1137 C 0.72535 0.35104 0.83029 0.0
C1138 C 0.74214 0.35048 0.83339 0.0
H1139 H 0.8199 0.37703 0.84791 0.0
H1140 H 0.7925 0.37582 0.83782 0.0
H1141 H 0.7707 0.33314 0.92634 0.0
H1142 H 0.69472 0.32801 0.80662 0.0
H1143 H 0.72244 0.32689 0.81295 0.0
C1144 C 0.84102 0.70096 0.5545 0.0
C1145 C 0.85165 0.69298 0.59716 0.0
C1146 C 0.84036 0.71684 0.55672 0.0
C1147 C 0.84919 0.74939 0.67256 0.0
H1148 H 0.84998 0.77262 0.49325 0.0
C1149 C 0.85865 0.81418 0.67199 0.0
C1150 C 0.85125 0.82294 0.61888 0.0
C1151 C 0.85799 0.79832 0.6696 0.0
C1152 C 0.84947 0.76634 0.54388 0.0
H1153 H 0.87016 0.69563 0.67439 0.0
H1154 H 0.86862 0.72322 0.67979 0.0
H1155 H 0.84985 0.74492 0.48835 0.0
H1156 H 0.83703 0.82209 0.52281 0.0
H1157 H 0.83543 0.79441 0.51972 0.0
H1158 H 0.84852 0.77067 0.7284 0.0
C1159 C 0.86076 0.71714 0.645 0.0
C1160 C 0.84946 0.75047 0.54094 0.0
C1161 C 0.86158 0.7013 0.64208 0.0
C1162 C 0.84297 0.81557 0.56398 0.0
C1163 C 0.84213 0.79971 0.56209 0.0
C1164 C 0.84899 0.76525 0.67557 0.0
C1165 C 0.85017 0.72505 0.60232 0.0
C1166 C 0.84948 0.74186 0.60526 0.0
C1167 C 0.84974 0.79087 0.61455 0.0
C1168 C 0.8493 0.77395 0.61128 0.0
H1169 H 0.83304 0.69496 0.52011 0.0
H1170 H 0.832 0.72269 0.52368 0.0
H1171 H 0.84901 0.74299 0.72296 0.0
H1172 H 0.86528 0.81958 0.71437 0.0
H1173 H 0.86424 0.79193 0.7101 0.0
C1174 C 0.81505 0.17755 0.3272 0.0
C1175 C 0.82276 0.1636 0.33375 0.0
C1176 C 0.79923 0.17824 0.33418 0.0
C1177 C 0.7663 0.15579 0.40327 0.0
H1178 H 0.74279 0.18347 0.28348 0.0
C1179 C 0.70169 0.15037 0.3617 0.0
C1180 C 0.69297 0.16356 0.37392 0.0
C1181 C 0.71752 0.1511 0.35915 0.0
C1182 C 0.74926 0.17578 0.31763 0.0
H1183 H 0.81971 0.13945 0.35352 0.0
H1184 H 0.79228 0.14052 0.36135 0.0
H1185 H 0.77048 0.18324 0.27342 0.0
H1186 H 0.6943 0.1879 0.39271 0.0
H1187 H 0.72201 0.18917 0.38534 0.0
H1188 H 0.74496 0.14796 0.44514 0.0
C1189 C 0.79842 0.15103 0.35276 0.0
C1190 C 0.76512 0.17568 0.31221 0.0
C1191 C 0.81422 0.15037 0.34684 0.0
C1192 C 0.70057 0.17754 0.38219 0.0
C1193 C 0.71643 0.17829 0.37835 0.0
C1194 C 0.75046 0.15574 0.40774 0.0
C1195 C 0.7907 0.16498 0.34711 0.0
C1196 C 0.77385 0.16558 0.35458 0.0
C1197 C 0.72502 0.16505 0.36741 0.0
C1198 C 0.74181 0.16566 0.36467 0.0
H1199 H 0.8212 0.18796 0.31627 0.0
H1200 H 0.79372 0.18922 0.33024 0.0
H1201 H 0.7726 0.14814 0.43817 0.0
H1202 H 0.6963 0.13946 0.35314 0.0
H1203 H 0.72391 0.14076 0.34959 0.0
C1204 C 0.1538 0.31409 0.62422 0.0
C1205 C 0.16443 0.32237 0.58314 0.0
C1206 C 0.15487 0.29829 0.62928 0.0
C1207 C 0.1684 0.26489 0.53327 0.0
H1208 H 0.16675 0.24517 0.72191 0.0
C1209 C 0.17481 0.19986 0.56138 0.0
C1210 C 0.16598 0.19254 0.61453 0.0
C1211 C 0.17562 0.21572 0.55908 0.0
C1212 C 0.167 0.25044 0.66867 0.0
H1213 H 0.18442 0.32069 0.51472 0.0
H1214 H 0.1861 0.2929 0.52228 0.0
H1215 H 0.16599 0.27283 0.7144 0.0
H1216 H 0.15098 0.19597 0.70651 0.0
H1217 H 0.1519 0.22362 0.70121 0.0
H1218 H 0.16879 0.24263 0.48694 0.0
C1219 C 0.17704 0.2987 0.55095 0.0
C1220 C 0.16666 0.2663 0.66453 0.0
C1221 C 0.17612 0.31456 0.54693 0.0
C1222 C 0.15802 0.20135 0.66552 0.0
C1223 C 0.15863 0.21721 0.66257 0.0
C1224 C 0.16849 0.24902 0.53725 0.0
C1225 C 0.16645 0.29044 0.59243 0.0
C1226 C 0.16732 0.27366 0.59682 0.0
C1227 C 0.16741 0.22463 0.6092 0.0
C1228 C 0.16775 0.24156 0.60503 0.0
H1229 H 0.14475 0.31987 0.65309 0.0
H1230 H 0.14651 0.29217 0.6612 0.0
H1231 H 0.16875 0.27031 0.48033 0.0
H1232 H 0.18118 0.1933 0.52187 0.0
H1233 H 0.18275 0.22097 0.51815 0.0
C1234 C 0.3148 0.86252 0.31801 0.0
C1235 C 0.32308 0.85211 0.36034 0.0
C1236 C 0.299 0.86138 0.31291 0.0
C1237 C 0.26571 0.84826 0.41155 0.0
H1238 H 0.24556 0.84957 0.22403 0.0
C1239 C 0.20065 0.84191 0.38812 0.0
C1240 C 0.19316 0.85066 0.33522 0.0
C1241 C 0.21651 0.84106 0.38919 0.0
C1242 C 0.25096 0.84941 0.27696 0.0
H1243 H 0.32141 0.83242 0.43071 0.0
H1244 H 0.29363 0.83062 0.42297 0.0
H1245 H 0.27325 0.85025 0.22986 0.0
H1246 H 0.19632 0.86545 0.24226 0.0
H1247 H 0.224 0.86446 0.24539 0.0
H1248 H 0.24357 0.84804 0.45921 0.0
C1249 C 0.29943 0.83956 0.39337 0.0
C1250 C 0.26683 0.8497 0.28014 0.0
C1251 C 0.31527 0.84053 0.39747 0.0
C1252 C 0.20183 0.85848 0.28313 0.0
C1253 C 0.2177 0.85784 0.28484 0.0
C1254 C 0.24984 0.8482 0.40851 0.0
C1255 C 0.29115 0.84997 0.35098 0.0
C1256 C 0.27435 0.84917 0.34745 0.0
C1257 C 0.22528 0.84915 0.33806 0.0
C1258 C 0.24222 0.84881 0.34115 0.0
H1259 H 0.32057 0.87148 0.28846 0.0
H1260 H 0.29287 0.86961 0.28026 0.0
H1261 H 0.27125 0.84801 0.4642 0.0
H1262 H 0.1942 0.83563 0.42842 0.0
H1263 H 0.22187 0.83399 0.43003 0.0
C1264 C 0.20525 0.08897 0.73787 0.0
C1265 C 0.19881 0.10333 0.72439 0.0
C1266 C 0.21932 0.08773 0.77307 0.0
C1267 C 0.24517 0.10919 0.89339 0.0
H1268 H 0.27664 0.08258 0.81839 0.0
C1269 C 0.30754 0.11665 0.97371 0.0
C1270 C 0.31629 0.10364 -0.01151 0.0
C1271 C 0.293 0.11533 0.94426 0.0
C1272 C 0.2679 0.0899 0.84061 0.0
H1273 H 0.20213 0.12764 0.73721 0.0
H1274 H 0.22654 0.12546 0.79795 0.0
H1275 H 0.25141 0.0825 0.7623 0.0
H1276 H 0.31667 0.07902 -0.01698 0.0
H1277 H 0.2911 0.07672 0.93142 0.0
H1278 H 0.2616 0.11676 0.97096 0.0
C1279 C 0.22069 0.11514 0.78215 0.0
C1280 C 0.25346 0.08985 0.80851 0.0
C1281 C 0.20672 0.11639 0.74682 0.0
C1282 C 0.31021 0.08926 0.97227 0.0
C1283 C 0.2956 0.08794 0.94249 0.0
C1284 C 0.25955 0.10923 0.92539 0.0
C1285 C 0.22714 0.10082 0.79593 0.0
C1286 C 0.24204 0.09974 0.83367 0.0
C1287 C 0.28679 0.10098 0.92879 0.0
C1288 C 0.27118 0.09982 0.89847 0.0
H1289 H 0.19943 0.07869 0.72124 0.0
H1290 H 0.22398 0.07653 0.78328 0.0
H1291 H 0.23652 0.1167 0.91507 0.0
H1292 H 0.31187 0.12792 -0.01488 0.0
H1293 H 0.28664 0.12561 0.93306 0.0
C1294 C 0.0893 0.70523 -0.01208 0.0
C1295 C 0.10364 0.69882 0.97348 0.0
C1296 C 0.08814 0.71935 0.02292 0.0
C1297 C 0.11008 0.74545 0.1406 0.0
H1298 H 0.08278 0.77664 0.06872 0.0
C1299 C 0.11716 0.80791 0.22152 0.0
C1300 C 0.10409 0.81644 0.23799 0.0
C1301 C 0.11593 0.7934 0.19156 0.0
C1302 C 0.09031 0.76798 0.09005 0.0
H1303 H 0.12798 0.70226 -0.01566 0.0
H1304 H 0.12593 0.72671 0.04452 0.0
H1305 H 0.08261 0.75139 0.01289 0.0
H1306 H 0.07944 0.81644 0.23477 0.0
H1307 H 0.0773 0.79096 0.18232 0.0
H1308 H 0.11794 0.76198 0.21701 0.0
C1309 C 0.11557 0.72082 0.02977 0.0
C1310 C 0.09021 0.75352 0.05811 0.0
C1311 C 0.11674 0.70681 -0.00528 0.0
C1312 C 0.08973 0.81017 0.22275 0.0
C1313 C 0.0885 0.7956 0.19246 0.0
C1314 C 0.11019 0.75985 0.17239 0.0
C1315 C 0.10128 0.72725 0.04459 0.0
C1316 C 0.10031 0.74219 0.08217 0.0
C1317 C 0.10161 0.787 0.17719 0.0
C1318 C 0.10052 0.77138 0.14664 0.0
H1319 H 0.07899 0.69936 0.97223 0.0
H1320 H 0.07696 0.72397 0.03391 0.0
H1321 H 0.11777 0.73688 0.16152 0.0
H1322 H 0.12841 0.81241 0.23208 0.0
H1323 H 0.12626 0.78721 0.17917 0.0
C1324 C 0.70573 0.92595 0.97288 0.0
C1325 C 0.69919 0.91164 -0.01347 0.0
C1326 C 0.71992 0.92708 0.93855 0.0
C1327 C 0.74623 0.90519 0.82143 0.0
H1328 H 0.77727 0.93236 0.8955 0.0
C1329 C 0.80881 0.89841 0.74124 0.0
C1330 C 0.81731 0.91153 0.72565 0.0
C1331 C 0.79427 0.89953 0.77119 0.0
C1332 C 0.76866 0.92486 0.87357 0.0
H1333 H 0.70249 0.8873 0.9749 0.0
H1334 H 0.7271 0.88928 0.91581 0.0
H1335 H 0.75192 0.93244 0.95039 0.0
H1336 H 0.81726 0.93617 0.73048 0.0
H1337 H 0.79174 0.93811 0.78286 0.0
H1338 H 0.7629 0.89747 0.74527 0.0
C1339 C 0.72124 0.89965 0.93071 0.0
C1340 C 0.75414 0.92491 0.90498 0.0
C1341 C 0.70714 0.89852 0.9651 0.0
C1342 C 0.81101 0.92583 0.74184 0.0
C1343 C 0.79641 0.92695 0.77208 0.0
C1344 C 0.76069 0.90514 0.79015 0.0
C1345 C 0.7278 0.91392 0.91679 0.0
C1346 C 0.74284 0.91487 0.88006 0.0
C1347 C 0.78783 0.91379 0.78639 0.0
C1348 C 0.77217 0.91477 0.81665 0.0
H1349 H 0.6999 0.93628 -0.01127 0.0
H1350 H 0.72464 0.93824 0.92819 0.0
H1351 H 0.73769 0.89755 0.79987 0.0
H1352 H 0.81333 0.8872 0.72997 0.0
H1353 H 0.7881 0.88915 0.78286 0.0
C1354 C 0.8992 0.30873 -0.00539 0.0
C1355 C 0.9122 0.31754 -0.01934 0.0
C1356 C 0.90051 0.29411 0.02323 0.0
C1357 C 0.92594 0.26861 0.12515 0.0
H1358 H 0.89943 0.23749 0.0463 0.0
C1359 C 0.92697 0.20539 0.22072 0.0
C1360 C 0.91259 0.1989 0.23309 0.0
C1361 C 0.92825 0.21964 0.18717 0.0
C1362 C 0.90686 0.24606 0.06918 0.0
H1363 H 0.93683 0.31793 -0.013 0.0
H1364 H 0.93912 0.29224 0.03712 0.0
H1365 H 0.89927 0.26285 -0.00664 0.0
H1366 H 0.88829 0.20235 0.22022 0.0
H1367 H 0.89054 0.22704 0.16236 0.0
H1368 H 0.93337 0.25174 0.20171 0.0
C1369 C 0.9279 0.29676 0.02605 0.0
C1370 C 0.90675 0.2606 0.0389 0.0
C1371 C 0.92658 0.31144 -0.00287 0.0
C1372 C 0.89956 0.20696 0.21134 0.0
C1373 C 0.90085 0.2211 0.17767 0.0
C1374 C 0.92605 0.254 0.15555 0.0
C1375 C 0.91487 0.28788 0.03867 0.0
C1376 C 0.91605 0.27214 0.06744 0.0
C1377 C 0.91518 0.22759 0.16489 0.0
C1378 C 0.91627 0.24267 0.12879 0.0
H1379 H 0.88793 0.31308 -0.01702 0.0
H1380 H 0.89023 0.28769 0.03364 0.0
H1381 H 0.93318 0.27727 0.14855 0.0
H1382 H 0.93723 0.19947 0.23692 0.0
H1383 H 0.93946 0.22435 0.17774 0.0
C1384 C 0.31067 0.42684 0.23928 0.0
C1385 C 0.31696 0.41241 0.22586 0.0
C1386 C 0.29653 0.42823 0.27388 0.0
C1387 C 0.27033 0.40691 0.39328 0.0
H1388 H 0.23906 0.43371 0.31797 0.0
C1389 C 0.20791 0.39934 0.47144 0.0
C1390 C 0.19917 0.41231 0.48717 0.0
C1391 C 0.22245 0.40073 0.44201 0.0
C1392 C 0.24775 0.42634 0.34026 0.0
H1393 H 0.31324 0.38813 0.23779 0.0
H1394 H 0.28875 0.39057 0.29746 0.0
H1395 H 0.26439 0.43378 0.26254 0.0
H1396 H 0.19881 0.43695 0.48301 0.0
H1397 H 0.22438 0.43937 0.43135 0.0
H1398 H 0.25377 0.3993 0.47019 0.0
C1399 C 0.29477 0.40083 0.28219 0.0
C1400 C 0.26224 0.42638 0.30855 0.0
C1401 C 0.30879 0.39944 0.24747 0.0
C1402 C 0.20526 0.42674 0.4716 0.0
C1403 C 0.21987 0.42813 0.44179 0.0
C1404 C 0.25591 0.40688 0.42485 0.0
C1405 C 0.28849 0.41522 0.29618 0.0
C1406 C 0.27358 0.41641 0.33377 0.0
C1407 C 0.22868 0.41512 0.42746 0.0
C1408 C 0.24435 0.41633 0.39773 0.0
H1409 H 0.31668 0.43706 0.2232 0.0
H1410 H 0.292 0.43947 0.28419 0.0
H1411 H 0.27892 0.39934 0.41503 0.0
H1412 H 0.20357 0.38804 0.48229 0.0
H1413 H 0.22881 0.39048 0.43025 0.0
C1414 C 0.42591 0.70501 0.7124 0.0
C1415 C 0.41159 0.6984 0.72519 0.0
C1416 C 0.42704 0.7193 0.67904 0.0
C1417 C 0.40522 0.74597 0.56341 0.0
H1418 H 0.43235 0.77674 0.64034 0.0
C1419 C 0.39855 0.80883 0.48803 0.0
C1420 C 0.4117 0.81736 0.47323 0.0
C1421 C 0.39963 0.79419 0.51685 0.0
C1422 C 0.42487 0.76821 0.61762 0.0
H1423 H 0.38726 0.70168 0.7131 0.0
H1424 H 0.38925 0.72646 0.65568 0.0
H1425 H 0.43238 0.75122 0.69326 0.0
H1426 H 0.43634 0.81724 0.47826 0.0
H1427 H 0.43821 0.79154 0.52871 0.0
H1428 H 0.39756 0.7629 0.48844 0.0
C1429 C 0.39962 0.72057 0.67045 0.0
C1430 C 0.42489 0.75359 0.6479 0.0
C1431 C 0.39848 0.70637 0.70386 0.0
C1432 C 0.42598 0.81097 0.48904 0.0
C1433 C 0.42706 0.79628 0.51818 0.0
C1434 C 0.40519 0.76053 0.53327 0.0
C1435 C 0.41389 0.72721 0.65744 0.0
C1436 C 0.41486 0.74238 0.62193 0.0
C1437 C 0.41388 0.78767 0.53171 0.0
C1438 C 0.41481 0.77191 0.5608 0.0
H1439 H 0.43623 0.69916 0.72822 0.0
H1440 H 0.43821 0.72407 0.66936 0.0
H1441 H 0.3976 0.73751 0.54105 0.0
H1442 H 0.38735 0.8134 0.47691 0.0
H1443 H 0.38924 0.78799 0.52791 0.0
C1444 C 0.70618 0.6167 0.25138 0.0
C1445 C 0.69823 0.60359 0.22991 0.0
C1446 C 0.7203 0.61556 0.28551 0.0
C1447 C 0.75324 0.59032 0.31035 0.0
H1448 H 0.76203 0.61772 0.47013 0.0
C1449 C 0.81028 0.5896 0.47194 0.0
C1450 C 0.81655 0.60393 0.48772 0.0
C1451 C 0.79565 0.58841 0.44225 0.0
C1452 C 0.75981 0.61006 0.42524 0.0
H1453 H 0.69897 0.57896 0.22724 0.0
H1454 H 0.72375 0.57697 0.28734 0.0
H1455 H 0.73678 0.61758 0.41613 0.0
H1456 H 0.81244 0.62825 0.48331 0.0
H1457 H 0.78715 0.62617 0.43142 0.0
H1458 H 0.77642 0.58294 0.31922 0.0
C1459 C 0.71901 0.58813 0.27725 0.0
C1460 C 0.74532 0.60998 0.39431 0.0
C1461 C 0.7048 0.58928 0.24317 0.0
C1462 C 0.80796 0.61702 0.47233 0.0
C1463 C 0.79339 0.61583 0.44296 0.0
C1464 C 0.76779 0.5904 0.34143 0.0
C1465 C 0.72688 0.60128 0.29912 0.0
C1466 C 0.74194 0.60032 0.33561 0.0
C1467 C 0.78699 0.60153 0.42812 0.0
C1468 C 0.7713 0.60049 0.39835 0.0
H1469 H 0.70153 0.62793 0.24179 0.0
H1470 H 0.72616 0.62592 0.30044 0.0
H1471 H 0.75102 0.58281 0.2649 0.0
H1472 H 0.8166 0.57929 0.48314 0.0
H1473 H 0.79101 0.57723 0.43172 0.0
C1474 C 0.58899 0.20529 0.48774 0.0
C1475 C 0.60338 0.19913 0.47212 0.0
C1476 C 0.58766 0.21992 0.51724 0.0
C1477 C 0.60904 0.2559 0.53391 0.0
H1478 H 0.58212 0.26438 0.69609 0.0
C1479 C 0.61633 0.30883 0.71106 0.0
C1480 C 0.60332 0.3169 0.73303 0.0
C1481 C 0.615 0.29483 0.67615 0.0
C1482 C 0.58952 0.26224 0.65012 0.0
H1483 H 0.62767 0.20344 0.47639 0.0
H1484 H 0.62536 0.22873 0.52793 0.0
H1485 H 0.58217 0.23907 0.64079 0.0
H1486 H 0.57867 0.3165 0.73583 0.0
H1487 H 0.57636 0.29189 0.67449 0.0
H1488 H 0.61658 0.2789 0.54364 0.0
C1489 C 0.61507 0.2224 0.51647 0.0
C1490 C 0.58955 0.24775 0.61848 0.0
C1491 C 0.61639 0.20784 0.48733 0.0
C1492 C 0.58891 0.31057 0.71957 0.0
C1493 C 0.58759 0.29646 0.68475 0.0
C1494 C 0.60901 0.27031 0.56542 0.0
C1495 C 0.60071 0.22868 0.53124 0.0
C1496 C 0.59956 0.24435 0.561 0.0
C1497 C 0.60063 0.2885 0.66228 0.0
C1498 C 0.59949 0.27357 0.62485 0.0
H1499 H 0.57874 0.19887 0.47667 0.0
H1500 H 0.57644 0.22448 0.52779 0.0
H1501 H 0.61662 0.25375 0.48859 0.0
H1502 H 0.62761 0.31332 0.72075 0.0
H1503 H 0.62528 0.28887 0.66072 0.0
C1504 C 0.33998 0.12116 0.33517 0.0
C1505 C 0.34211 0.1075 0.29709 0.0
C1506 C 0.34178 0.12146 0.41034 0.0
C1507 C 0.3492 0.09825 0.57371 0.0
H1508 H 0.38077 0.12831 0.60746 0.0
C1509 C 0.38029 0.09733 0.83873 0.0
C1510 C 0.37765 0.11097 0.87622 0.0
C1511 C 0.37907 0.09695 0.76331 0.0
C1512 C 0.37201 0.11986 0.59853 0.0
H1513 H 0.34488 0.08307 0.30792 0.0
H1514 H 0.34816 0.08365 0.43891 0.0
H1515 H 0.36736 0.12794 0.49135 0.0
H1516 H 0.37457 0.13535 0.86458 0.0
H1517 H 0.37227 0.13464 0.7331 0.0
H1518 H 0.35383 0.09018 0.68089 0.0
C1519 C 0.34536 0.09414 0.41105 0.0
C1520 C 0.36417 0.11978 0.53282 0.0
C1521 C 0.34354 0.09382 0.33593 0.0
C1522 C 0.37629 0.1246 0.83698 0.0
C1523 C 0.37505 0.12422 0.76158 0.0
C1524 C 0.35704 0.09832 0.63937 0.0
C1525 C 0.34563 0.10811 0.44776 0.0
C1526 C 0.35267 0.10901 0.52007 0.0
C1527 C 0.37526 0.11022 0.72509 0.0
C1528 C 0.3685 0.10913 0.65225 0.0
H1529 H 0.33848 0.13184 0.3066 0.0
H1530 H 0.3415 0.13231 0.43823 0.0
H1531 H 0.34041 0.08983 0.56493 0.0
H1532 H 0.38177 0.0867 0.86771 0.0
H1533 H 0.3797 0.0861 0.73567 0.0
C1534 C 0.09345 0.67249 0.62008 0.0
C1535 C 0.10705 0.67406 0.65938 0.0
C1536 C 0.0939 0.67075 0.54489 0.0
C1537 C 0.09825 0.66723 0.38207 0.0
H1538 H 0.12877 0.63613 0.34757 0.0
C1539 C 0.12497 0.63972 0.11841 0.0
C1540 C 0.11136 0.63809 0.07925 0.0
C1541 C 0.12455 0.64141 0.19364 0.0
C1542 C 0.12021 0.64478 0.35663 0.0
H1543 H 0.13137 0.67792 0.65056 0.0
H1544 H 0.13207 0.67506 0.51889 0.0
H1545 H 0.12815 0.64937 0.46406 0.0
H1546 H 0.08709 0.63402 0.08828 0.0
H1547 H 0.08643 0.63681 0.22003 0.0
H1548 H 0.0903 0.66264 0.27465 0.0
C1549 C 0.12118 0.67463 0.54645 0.0
C1550 C 0.11998 0.65251 0.42263 0.0
C1551 C 0.12075 0.67635 0.62167 0.0
C1552 C 0.0977 0.63567 0.11709 0.0
C1553 C 0.09729 0.63734 0.19234 0.0
C1554 C 0.09848 0.65949 0.31609 0.0
C1555 C 0.10793 0.67069 0.5085 0.0
C1556 C 0.10901 0.66382 0.43578 0.0
C1557 C 0.11054 0.64135 0.23018 0.0
C1558 C 0.10944 0.64819 0.30293 0.0
H1559 H 0.08267 0.671 0.64775 0.0
H1560 H 0.08348 0.66788 0.51667 0.0
H1561 H 0.08969 0.67589 0.39109 0.0
H1562 H 0.13572 0.64132 0.09065 0.0
H1563 H 0.13496 0.64434 0.22179 0.0
C1564 C 0.67682 0.89539 0.33823 0.0
C1565 C 0.67425 0.90903 0.30046 0.0
C1566 C 0.67507 0.89493 0.41344 0.0
C1567 C 0.66715 0.91775 0.57769 0.0
H1568 H 0.63681 0.88651 0.61297 0.0
C1569 C 0.63556 0.91783 0.84266 0.0
C1570 C 0.6383 0.90428 0.88092 0.0
C1571 C 0.63721 0.91817 0.7674 0.0
C1572 C 0.64524 0.89527 0.60369 0.0
H1573 H 0.67063 0.93333 0.31197 0.0
H1574 H 0.66746 0.93247 0.44303 0.0
H1575 H 0.65001 0.88737 0.49631 0.0
H1576 H 0.64214 0.87999 0.87027 0.0
H1577 H 0.64514 0.88065 0.73907 0.0
H1578 H 0.66237 0.92565 0.68502 0.0
C1579 C 0.67058 0.92211 0.41488 0.0
C1580 C 0.65296 0.89565 0.53759 0.0
C1581 C 0.67235 0.92259 0.33969 0.0
C1582 C 0.64027 0.89066 0.84218 0.0
C1583 C 0.64195 0.89102 0.76692 0.0
C1584 C 0.65943 0.91737 0.64374 0.0
C1585 C 0.67082 0.9081 0.45134 0.0
C1586 C 0.66399 0.90688 0.52415 0.0
C1587 C 0.64155 0.90498 0.72995 0.0
C1588 C 0.64839 0.90615 0.65717 0.0
H1589 H 0.67865 0.88481 0.3094 0.0
H1590 H 0.67574 0.88406 0.44105 0.0
H1591 H 0.67559 0.9265 0.56847 0.0
H1592 H 0.63364 0.92843 0.87115 0.0
H1593 H 0.63642 0.92898 0.73937 0.0
C1594 C 0.91903 0.38096 0.12923 0.0
C1595 C 0.90533 0.3787 0.09152 0.0
C1596 C 0.9194 0.37933 0.20451 0.0
C1597 C 0.89635 0.37215 0.36883 0.0
H1598 H 0.92648 0.34065 0.40325 0.0
C1599 C 0.89525 0.34057 0.63353 0.0
C1600 C 0.9089 0.34288 0.67148 0.0
C1601 C 0.89492 0.34217 0.55825 0.0
C1602 C 0.91803 0.34941 0.3942 0.0
H1603 H 0.88093 0.37586 0.10304 0.0
H1604 H 0.88164 0.37288 0.23421 0.0
H1605 H 0.92608 0.35397 0.28687 0.0
H1606 H 0.93331 0.3458 0.66038 0.0
H1607 H 0.93269 0.34873 0.52915 0.0
H1608 H 0.88829 0.36758 0.47615 0.0
C1609 C 0.89209 0.37565 0.20598 0.0
C1610 C 0.91792 0.35719 0.32828 0.0
C1611 C 0.8917 0.3773 0.13074 0.0
C1612 C 0.92256 0.34431 0.6325 0.0
C1613 C 0.92223 0.34594 0.55723 0.0
C1614 C 0.89645 0.36437 0.43473 0.0
C1615 C 0.9061 0.37551 0.24245 0.0
C1616 C 0.9071 0.36863 0.31517 0.0
C1617 C 0.90825 0.34602 0.52052 0.0
C1618 C 0.90727 0.35291 0.44783 0.0
H1619 H 0.92967 0.38244 0.10037 0.0
H1620 H 0.93028 0.37971 0.23214 0.0
H1621 H 0.8879 0.38091 0.35981 0.0
H1622 H 0.88459 0.33906 0.66222 0.0
H1623 H 0.88408 0.34176 0.53042 0.0
C1624 C 0.37853 0.4194 0.37357 0.0
C1625 C 0.378 0.4057 0.33461 0.0
C1626 C 0.3771 0.41924 0.44895 0.0
C1627 C 0.35556 0.39609 0.57151 0.0
H1628 H 0.36985 0.42399 0.71939 0.0
C1629 C 0.34175 0.39329 0.87536 0.0
C1630 C 0.34223 0.40702 0.9142 0.0
C1631 C 0.34355 0.39339 0.80016 0.0
C1632 C 0.36557 0.41635 0.67797 0.0
H1633 H 0.3786 0.38109 0.34355 0.0
H1634 H 0.37628 0.38086 0.47556 0.0
H1635 H 0.38312 0.4226 0.60305 0.0
H1636 H 0.34194 0.43162 0.9048 0.0
H1637 H 0.34488 0.43175 0.77309 0.0
H1638 H 0.33798 0.38987 0.6463 0.0
C1639 C 0.37722 0.39168 0.44774 0.0
C1640 C 0.37331 0.41541 0.6121 0.0
C1641 C 0.3786 0.39183 0.37238 0.0
C1642 C 0.34197 0.42086 0.87616 0.0
C1643 C 0.34372 0.42095 0.80096 0.0
C1644 C 0.34782 0.39704 0.63735 0.0
C1645 C 0.37527 0.40537 0.48566 0.0
C1646 C 0.36837 0.40526 0.55844 0.0
C1647 C 0.34569 0.40722 0.76345 0.0
C1648 C 0.35274 0.4072 0.69096 0.0
H1649 H 0.37836 0.43026 0.34574 0.0
H1650 H 0.37577 0.42996 0.47719 0.0
H1651 H 0.35126 0.38847 0.53007 0.0
H1652 H 0.34166 0.38245 0.90333 0.0
H1653 H 0.34488 0.38263 0.77223 0.0
C1654 C 0.42152 0.67223 0.07738 0.0
C1655 C 0.40778 0.67308 0.03878 0.0
C1656 C 0.42133 0.67006 0.15236 0.0
C1657 C 0.41527 0.64832 0.27458 0.0
H1658 H 0.38822 0.66422 0.42255 0.0
C1659 C 0.39077 0.63712 0.58233 0.0
C1660 C 0.40476 0.63707 0.61912 0.0
C1661 C 0.39045 0.6384 0.5069 0.0
C1662 C 0.39559 0.65947 0.38108 0.0
H1663 H 0.38326 0.67515 0.04892 0.0
H1664 H 0.38296 0.67124 0.17959 0.0
H1665 H 0.39027 0.67729 0.306 0.0
H1666 H 0.42924 0.63545 0.60608 0.0
H1667 H 0.42867 0.63785 0.4746 0.0
H1668 H 0.42066 0.63057 0.34992 0.0
C1669 C 0.39384 0.67199 0.15221 0.0
C1670 C 0.3969 0.66708 0.315 0.0
C1671 C 0.39402 0.67421 0.07724 0.0
C1672 C 0.4183 0.63582 0.57909 0.0
C1673 C 0.41797 0.63713 0.50366 0.0
C1674 C 0.41396 0.64072 0.34069 0.0
C1675 C 0.40742 0.66879 0.1892 0.0
C1676 C 0.40683 0.66162 0.26145 0.0
C1677 C 0.40411 0.63958 0.46783 0.0
C1678 C 0.40414 0.64626 0.39451 0.0
H1679 H 0.43233 0.6717 0.04916 0.0
H1680 H 0.43198 0.66808 0.18048 0.0
H1681 H 0.42269 0.64363 0.23322 0.0
H1682 H 0.38012 0.6377 0.61189 0.0
H1683 H 0.3796 0.63985 0.47985 0.0
C1684 C 0.6751 0.62157 0.87874 0.0
C1685 C 0.67338 0.60779 0.9165 0.0
C1686 C 0.67338 0.62191 0.80349 0.0
C1687 C 0.66706 0.59861 0.63926 0.0
H1688 H 0.63456 0.62762 0.60431 0.0
C1689 C 0.63549 0.59625 0.37468 0.0
C1690 C 0.63726 0.60995 0.33641 0.0
C1691 C 0.63717 0.59603 0.44994 0.0
C1692 C 0.6436 0.61948 0.61349 0.0
H1693 H 0.67138 0.58331 0.90501 0.0
H1694 H 0.66827 0.58395 0.7739 0.0
H1695 H 0.64784 0.62772 0.72074 0.0
H1696 H 0.63929 0.63445 0.34702 0.0
H1697 H 0.64236 0.63402 0.47819 0.0
H1698 H 0.66281 0.59035 0.53206 0.0
C1699 C 0.67068 0.59449 0.80207 0.0
C1700 C 0.65135 0.61967 0.67945 0.0
C1701 C 0.6724 0.59414 0.87727 0.0
C1702 C 0.63823 0.62367 0.37514 0.0
C1703 C 0.63993 0.62344 0.45038 0.0
C1704 C 0.6593 0.59842 0.57333 0.0
C1705 C 0.67003 0.60849 0.76558 0.0
C1706 C 0.66316 0.60924 0.69279 0.0
C1707 C 0.64055 0.6095 0.48735 0.0
C1708 C 0.64749 0.60882 0.56003 0.0
H1709 H 0.67621 0.63224 0.90757 0.0
H1710 H 0.67335 0.63279 0.77585 0.0
H1711 H 0.6761 0.59047 0.64842 0.0
H1712 H 0.63435 0.58553 0.34623 0.0
H1713 H 0.63717 0.58519 0.47798 0.0
C1714 C 0.595 0.37847 0.58865 0.0
C1715 C 0.60886 0.37777 0.62639 0.0
C1716 C 0.59481 0.37672 0.51339 0.0
C1717 C 0.61857 0.37214 0.34912 0.0
H1718 H 0.59203 0.33763 0.3141 0.0
C1719 C 0.62321 0.34074 0.08425 0.0
C1720 C 0.60939 0.34148 0.04618 0.0
C1721 C 0.62333 0.34253 0.15948 0.0
C1722 C 0.59949 0.34723 0.3233 0.0
H1723 H 0.63342 0.37757 0.61491 0.0
H1724 H 0.63306 0.37442 0.48379 0.0
H1725 H 0.59093 0.35084 0.43055 0.0
H1726 H 0.58481 0.34182 0.05715 0.0
H1727 H 0.58507 0.34502 0.18823 0.0
H1728 H 0.62715 0.36851 0.24188 0.0
C1729 C 0.62236 0.37605 0.51195 0.0
C1730 C 0.59871 0.35494 0.38928 0.0
C1731 C 0.62256 0.37779 0.58715 0.0
C1732 C 0.59565 0.34154 0.08513 0.0
C1733 C 0.59578 0.34332 0.16031 0.0
C1734 C 0.61935 0.36443 0.28315 0.0
C1735 C 0.60846 0.37438 0.47546 0.0
C1736 C 0.60824 0.36747 0.40264 0.0
C1737 C 0.60966 0.34496 0.19707 0.0
C1738 C 0.60984 0.35189 0.26981 0.0
H1739 H 0.58426 0.37877 0.6175 0.0
H1740 H 0.58396 0.37589 0.48576 0.0
H1741 H 0.62603 0.38175 0.3583 0.0
H1742 H 0.63397 0.34037 0.05564 0.0
H1743 H 0.63416 0.34334 0.18735 0.0
C1744 C 0.8445 0.59252 0.83659 0.0
C1745 C 0.84217 0.60601 0.79733 0.0
C1746 C 0.84624 0.59305 0.91178 0.0
C1747 C 0.863 0.62009 0.03385 0.0
H1748 H 0.85462 0.58986 0.18187 0.0
C1749 C 0.87531 0.62561 0.33829 0.0
C1750 C 0.8777 0.61207 0.37716 0.0
C1751 C 0.87377 0.62518 0.26299 0.0
C1752 C 0.85728 0.59821 0.14041 0.0
H1753 H 0.83692 0.63007 0.80614 0.0
H1754 H 0.83976 0.6309 0.93778 0.0
H1755 H 0.84139 0.58853 0.06555 0.0
H1756 H 0.88327 0.58811 0.36781 0.0
H1757 H 0.88071 0.58745 0.23595 0.0
H1758 H 0.87887 0.62979 0.10885 0.0
C1759 C 0.84081 0.62007 0.91022 0.0
C1760 C 0.84955 0.59756 0.0745 0.0
C1761 C 0.83911 0.61955 0.83503 0.0
C1762 C 0.88101 0.59863 0.33914 0.0
C1763 C 0.8795 0.59822 0.26385 0.0
C1764 C 0.87072 0.62075 0.0998 0.0
C1765 C 0.84551 0.60705 0.94814 0.0
C1766 C 0.85233 0.60851 0.02078 0.0
C1767 C 0.87473 0.61125 0.22619 0.0
C1768 C 0.86795 0.60979 0.15348 0.0
H1769 H 0.8466 0.58185 0.80892 0.0
H1770 H 0.84971 0.5828 0.93999 0.0
H1771 H 0.86566 0.62844 -0.00761 0.0
H1772 H 0.873 0.6362 0.36623 0.0
H1773 H 0.87023 0.63543 0.23494 0.0
C1774 C 0.62357 0.13879 0.62335 0.0
C1775 C 0.60987 0.13793 0.58448 0.0
C1776 C 0.62331 0.14037 0.69861 0.0
C1777 C 0.59833 0.15985 0.82093 0.0
H1778 H 0.62757 0.14834 0.96862 0.0
C1779 C 0.59419 0.1728 0.12477 0.0
C1780 C 0.60788 0.17368 0.16379 0.0
C1781 C 0.59449 0.17124 0.0495 0.0
C1782 C 0.61953 0.15187 0.92722 0.0
H1783 H 0.58542 0.13507 0.59386 0.0
H1784 H 0.58502 0.13771 0.72569 0.0
H1785 H 0.62737 0.13493 0.85255 0.0
H1786 H 0.63232 0.17659 0.15468 0.0
H1787 H 0.63278 0.174 0.02283 0.0
H1788 H 0.5905 0.17678 0.8956 0.0
C1789 C 0.59588 0.1377 0.69778 0.0
C1790 C 0.61929 0.14404 0.86152 0.0
C1791 C 0.59613 0.13613 0.62248 0.0
C1792 C 0.62163 0.17552 0.12594 0.0
C1793 C 0.62192 0.17398 0.05063 0.0
C1794 C 0.59858 0.16768 0.88663 0.0
C1795 C 0.60935 0.141 0.7354 0.0
C1796 C 0.60866 0.14795 0.80797 0.0
C1797 C 0.60847 0.17067 0.01284 0.0
C1798 C 0.6092 0.16376 0.9402 0.0
H1799 H 0.63437 0.13985 0.59539 0.0
H1800 H 0.63388 0.14274 0.72661 0.0
H1801 H 0.5903 0.16337 0.77955 0.0
H1802 H 0.58338 0.1717 0.15262 0.0
H1803 H 0.58393 0.16887 0.02138 0.0
C1804 C 0.13694 0.39235 0.33995 0.0
C1805 C 0.13784 0.40617 0.3779 0.0
C1806 C 0.13855 0.39218 0.26467 0.0
C1807 C 0.14336 0.41584 0.10038 0.0
H1808 H 0.17749 0.38878 0.06505 0.0
C1809 C 0.17479 0.41999 0.83526 0.0
C1810 C 0.17416 0.40616 0.79722 0.0
C1811 C 0.17289 0.42014 0.91039 0.0
C1812 C 0.16798 0.39637 0.07427 0.0
H1813 H 0.13841 0.43073 0.36682 0.0
H1814 H 0.14137 0.4304 0.23552 0.0
H1815 H 0.16434 0.38795 0.18177 0.0
H1816 H 0.17382 0.38159 0.8083 0.0
H1817 H 0.17038 0.38189 0.9393 0.0
H1818 H 0.14701 0.42426 -0.00713 0.0
C1819 C 0.13961 0.41971 0.26361 0.0
C1820 C 0.16032 0.39576 0.14045 0.0
C1821 C 0.13794 0.4199 0.33892 0.0
C1822 C 0.17406 0.39243 0.83621 0.0
C1823 C 0.17211 0.3926 0.91136 0.0
C1824 C 0.15102 0.41644 0.03417 0.0
C1825 C 0.14106 0.40581 0.22689 0.0
C1826 C 0.14794 0.40548 0.15397 0.0
C1827 C 0.1704 0.40649 0.94799 0.0
C1828 C 0.16342 0.40673 0.0207 0.0
H1829 H 0.13648 0.38161 0.36873 0.0
H1830 H 0.13919 0.38134 0.23688 0.0
H1831 H 0.13387 0.42345 0.10969 0.0
H1832 H 0.17523 0.43074 0.80657 0.0
H1833 H 0.17207 0.43097 0.93814 0.0
C1834 C 0.39556 0.84091 0.12505 0.0
C1835 C 0.40918 0.84325 0.16322 0.0
C1836 C 0.39518 0.84294 0.05 0.0
C1837 C 0.41821 0.85114 0.88674 0.0
H1838 H 0.38699 0.88153 0.8519 0.0
C1839 C 0.41805 0.88203 0.62078 0.0
C1840 C 0.40451 0.87894 0.58318 0.0
C1841 C 0.41844 0.88083 0.69622 0.0
C1842 C 0.39576 0.8731 0.86113 0.0
H1843 H 0.43352 0.8467 0.15234 0.0
H1844 H 0.43281 0.85036 0.02157 0.0
H1845 H 0.38785 0.86828 0.96848 0.0
H1846 H 0.38025 0.87501 0.59471 0.0
H1847 H 0.38101 0.87275 0.72625 0.0
H1848 H 0.42611 0.85593 0.77942 0.0
C1849 C 0.4224 0.84723 0.04932 0.0
C1850 C 0.39613 0.86535 0.92714 0.0
C1851 C 0.4228 0.84517 0.12434 0.0
C1852 C 0.39092 0.87711 0.62236 0.0
C1853 C 0.39133 0.87588 0.69781 0.0
C1854 C 0.41785 0.85889 0.82081 0.0
C1855 C 0.40841 0.84723 0.01267 0.0
C1856 C 0.40732 0.85426 0.94029 0.0
C1857 C 0.40531 0.87658 0.73443 0.0
C1858 C 0.40662 0.86992 0.8075 0.0
H1859 H 0.38494 0.83905 0.15358 0.0
H1860 H 0.38433 0.84244 0.02217 0.0
H1861 H 0.42693 0.84265 0.89574 0.0
H1862 H 0.42863 0.88387 0.59185 0.0
H1863 H 0.42927 0.88184 0.72392 0.0
C1864 C 0.83973 0.89592 0.37608 0.0
C1865 C 0.84256 0.90947 0.41404 0.0
C1866 C 0.84153 0.89547 0.3009 0.0
C1867 C 0.85001 0.9182 0.13689 0.0
H1868 H 0.87959 0.88623 0.10147 0.0
C1869 C 0.8815 0.91749 0.87148 0.0
C1870 C 0.87847 0.90399 0.83341 0.0
C1871 C 0.87985 0.91789 0.94675 0.0
C1872 C 0.87137 0.8952 0.11078 0.0
H1873 H 0.84671 0.93369 0.4028 0.0
H1874 H 0.84997 0.93285 0.27177 0.0
H1875 H 0.86645 0.88739 0.2182 0.0
H1876 H 0.87412 0.8798 0.84441 0.0
H1877 H 0.87113 0.88057 0.9756 0.0
H1878 H 0.85494 0.926 0.02949 0.0
C1879 C 0.8466 0.92255 0.29979 0.0
C1880 C 0.86369 0.89575 0.17693 0.0
C1881 C 0.84478 0.92301 0.37496 0.0
C1882 C 0.87621 0.89043 0.87235 0.0
C1883 C 0.87454 0.89086 0.94761 0.0
C1884 C 0.8577 0.91764 0.07077 0.0
C1885 C 0.84609 0.90856 0.26319 0.0
C1886 C 0.85292 0.90724 0.19042 0.0
C1887 C 0.87523 0.90481 -0.0156 0.0
C1888 C 0.86846 0.90616 0.05726 0.0
H1889 H 0.83764 0.88536 0.40478 0.0
H1890 H 0.84063 0.88464 0.27318 0.0
H1891 H 0.84178 0.92715 0.14613 0.0
H1892 H 0.88364 0.92804 0.84285 0.0
H1893 H 0.88087 0.92869 0.97462 0.0
C1894 C 0.89269 0.13828 0.08321 0.0
C1895 C 0.90636 0.13801 0.12256 0.0
C1896 C 0.893 0.13984 0.00795 0.0
C1897 C 0.91725 0.16035 0.88634 0.0
H1898 H 0.88871 0.14759 0.738 0.0
C1899 C 0.92103 0.17339 0.58246 0.0
C1900 C 0.90733 0.17365 0.54328 0.0
C1901 C 0.92076 0.1719 0.65776 0.0
C1902 C 0.89654 0.15146 0.77958 0.0
H1903 H 0.93092 0.13619 0.11411 0.0
H1904 H 0.93141 0.13879 -0.01776 0.0
H1905 H 0.88942 0.13416 0.85402 0.0
H1906 H 0.88278 0.17557 0.55203 0.0
H1907 H 0.88237 0.17308 0.68395 0.0
H1908 H 0.92437 0.17765 0.81185 0.0
C1909 C 0.92052 0.13833 0.00978 0.0
C1910 C 0.89709 0.14362 0.84525 0.0
C1911 C 0.92022 0.13677 0.08509 0.0
C1912 C 0.8935 0.17498 0.58091 0.0
C1913 C 0.89324 0.1735 0.65626 0.0
C1914 C 0.9167 0.16819 0.82065 0.0
C1915 C 0.90698 0.14103 0.97164 0.0
C1916 C 0.90747 0.14799 0.89904 0.0
C1917 C 0.90679 0.17077 0.69426 0.0
C1918 C 0.90632 0.16382 0.76688 0.0
H1919 H 0.88182 0.13889 0.1108 0.0
H1920 H 0.88238 0.14174 0.97956 0.0
H1921 H 0.92507 0.16422 0.92792 0.0
H1922 H 0.93188 0.17271 0.55475 0.0
H1923 H 0.93139 0.16999 0.68607 0.0
C1924 C 0.1396 0.12589 0.86683 0.0
C1925 C 0.13813 0.11202 0.82972 0.0
C1926 C 0.14115 0.12598 0.94217 0.0
C1927 C 0.14159 0.10214 0.10765 0.0
H1928 H 0.18005 0.12258 0.14216 0.0
C1929 C 0.17206 0.09217 0.37157 0.0
C1930 C 0.17382 0.10585 0.4099 0.0
C1931 C 0.17012 0.09243 0.29645 0.0
C1932 C 0.16933 0.11684 0.13315 0.0
H1933 H 0.13431 0.08778 0.84229 0.0
H1934 H 0.13715 0.08794 0.97357 0.0
H1935 H 0.16719 0.12577 0.02568 0.0
H1936 H 0.17776 0.13013 0.39929 0.0
H1937 H 0.17426 0.13057 0.2684 0.0
H1938 H 0.14375 0.09317 0.21506 0.0
C1939 C 0.13734 0.09869 0.94484 0.0
C1940 C 0.16185 0.11883 0.06713 0.0
C1941 C 0.13578 0.0986 0.86953 0.0
C1942 C 0.17609 0.11944 0.37117 0.0
C1943 C 0.17413 0.11969 0.29608 0.0
C1944 C 0.14907 0.10015 0.17366 0.0
C1945 C 0.14116 0.11222 -0.01918 0.0
C1946 C 0.14793 0.11148 0.05387 0.0
C1947 C 0.17002 0.10636 0.25922 0.0
C1948 C 0.16303 0.10743 0.18676 0.0
H1949 H 0.1411 0.13647 0.83752 0.0
H1950 H 0.14367 0.1366 0.96938 0.0
H1951 H 0.13088 0.09636 0.09856 0.0
H1952 H 0.17064 0.08147 0.4 0.0
H1953 H 0.16741 0.08194 0.26847 0.0
C1954 C 0.09391 0.84332 0.58752 0.0
C1955 C 0.10753 0.84186 0.5483 0.0
C1956 C 0.09431 0.84514 0.66266 0.0
C1957 C 0.12014 0.86372 0.7848 0.0
H1958 H 0.09047 0.85339 0.9326 0.0
C1959 C 0.1248 0.87624 0.08924 0.0
C1960 C 0.11114 0.87774 0.12816 0.0
C1961 C 0.12447 0.87473 0.01392 0.0
C1962 C 0.09864 0.85659 0.89119 0.0
H1963 H 0.13189 0.83826 0.55725 0.0
H1964 H 0.13251 0.84125 0.68886 0.0
H1965 H 0.09006 0.84009 0.81633 0.0
H1966 H 0.08686 0.88178 0.11885 0.0
H1967 H 0.08636 0.87926 -0.01304 0.0
H1968 H 0.12875 0.8802 0.85984 0.0
C1969 C 0.12163 0.84155 0.66125 0.0
C1970 C 0.09853 0.84883 0.82531 0.0
C1971 C 0.12124 0.83975 0.58608 0.0
C1972 C 0.09751 0.88022 0.09018 0.0
C1973 C 0.0972 0.87872 0.01485 0.0
C1974 C 0.12026 0.87148 0.85073 0.0
C1975 C 0.10832 0.84539 0.69907 0.0
C1976 C 0.10929 0.85231 0.77168 0.0
C1977 C 0.1105 0.87482 0.97712 0.0
C1978 C 0.10949 0.86799 0.90434 0.0
H1979 H 0.08312 0.84467 0.55979 0.0
H1980 H 0.08384 0.84793 0.69078 0.0
H1981 H 0.12832 0.86692 0.74341 0.0
H1982 H 0.13552 0.87461 0.11715 0.0
H1983 H 0.13492 0.87187 -0.01415 0.0
loop_
_geom_bond_atom_site_label_1
_geom_bond_atom_site_label_2
_geom_bond_distance
_geom_bond_site_symmetry_2
_ccdc_geom_bond_type
C0 O16 1.251 1_556 S
C0 O18 1.254 1_556 S
N1 C2 1.333 . S
N1 C6 1.307 . S
N1 Zn7 2.020 . S
C2 N1 1.333 . S
C2 C3 1.379 . S
C2 H20 0.952 . S
C3 C2 1.379 . S
C3 C4 1.390 . S
C3 H30 0.949 . S
C4 C3 1.390 . S
C4 C5 1.357 . S
C5 C4 1.357 . S
C5 C6 1.370 . S
C5 H31 0.950 . S
C6 N1 1.307 . S
C6 C5 1.370 . S
C6 H24 0.948 . S
Zn7 N1 2.020 . S
Zn7 O16 2.039 . S
Zn7 O22 2.034 . S
Zn7 O26 2.025 . S
Zn7 O28 2.024 . S
C8 O27 1.246 . S
C8 O28 1.249 . S
N9 C10 1.307 . S
N9 C11 1.333 . S
N9 Zn15 2.020 . S
C10 N9 1.307 . S
C10 C14 1.370 . S
C10 H21 0.948 . S
C11 N9 1.333 . S
C11 C12 1.379 . S
C11 H19 0.952 . S
C12 C11 1.379 . S
C12 C13 1.390 . S
C12 H32 0.949 . S
C13 C12 1.390 . S
C13 C14 1.357 . S
C14 C10 1.370 . S
C14 C13 1.357 . S
C14 H33 0.950 . S
Zn15 N9 2.020 . S
Zn15 O18 2.025 . S
Zn15 O23 2.024 . S
Zn15 O25 2.039 . S
Zn15 O27 2.034 . S
O16 C0 1.251 1_554 S
O16 Zn7 2.039 . S
C17 O22 1.246 . S
C17 O23 1.249 . S
O18 C0 1.254 1_554 S
O18 Zn15 2.025 . S
H19 C11 0.952 . S
H20 C2 0.952 . S
H21 C10 0.948 . S
O22 Zn7 2.034 . S
O22 C17 1.246 . S
O23 Zn15 2.024 . S
O23 C17 1.249 . S
H24 C6 0.948 . S
O25 Zn15 2.039 . S
O25 C29 1.251 . S
O26 Zn7 2.025 . S
O26 C29 1.254 . S
O27 C8 1.246 . S
O27 Zn15 2.034 . S
O28 Zn7 2.024 . S
O28 C8 1.249 . S
C29 O25 1.251 . S
C29 O26 1.254 . S
H30 C3 0.949 . S
H31 C5 0.950 . S
H32 C12 0.949 . S
H33 C14 0.950 . S
C34 O50 1.251 . S
C34 O52 1.254 . S
N35 C36 1.333 . S
N35 C40 1.307 . S
N35 Zn41 2.020 . S
C36 N35 1.333 . S
C36 C37 1.379 . S
C36 H54 0.952 . S
C37 C36 1.379 . S
C37 C38 1.390 . S
C37 H64 0.949 . S
C38 C37 1.390 . S
C38 C39 1.357 . S
C39 C38 1.357 . S
C39 C40 1.370 . S
C39 H65 0.950 . S
C40 N35 1.307 . S
C40 C39 1.370 . S
C40 H58 0.948 . S
Zn41 N35 2.020 . S
Zn41 O50 2.039 . S
Zn41 O56 2.034 . S
Zn41 O60 2.025 . S
Zn41 O62 2.024 . S
C42 O61 1.246 . S
C42 O62 1.249 . S
N43 C44 1.307 . S
N43 C45 1.333 . S
N43 Zn49 2.020 . S
C44 N43 1.307 . S
C44 C48 1.370 . S
C44 H55 0.948 . S
C45 N43 1.333 . S
C45 C46 1.379 . S
C45 H53 0.952 . S
C46 C45 1.379 . S
C46 C47 1.390 . S
C46 H66 0.949 . S
C47 C46 1.390 . S
C47 C48 1.357 . S
C48 C44 1.370 . S
C48 C47 1.357 . S
C48 H67 0.950 . S
Zn49 N43 2.020 . S
Zn49 O52 2.025 . S
Zn49 O57 2.024 . S
Zn49 O59 2.039 . S
Zn49 O61 2.034 . S
O50 C34 1.251 . S
O50 Zn41 2.039 . S
C51 O56 1.246 . S
C51 O57 1.249 . S
O52 C34 1.254 . S
O52 Zn49 2.025 . S
H53 C45 0.952 . S
H54 C36 0.952 . S
H55 C44 0.948 . S
O56 Zn41 2.034 . S
O56 C51 1.246 . S
O57 Zn49 2.024 . S
O57 C51 1.249 . S
H58 C40 0.948 . S
O59 Zn49 2.039 . S
O59 C63 1.251 1_556 S
O60 Zn41 2.025 . S
O60 C63 1.254 1_556 S
O61 C42 1.246 . S
O61 Zn49 2.034 . S
O62 Zn41 2.024 . S
O62 C42 1.249 . S
C63 O59 1.251 1_554 S
C63 O60 1.254 1_554 S
H64 C37 0.949 . S
H65 C39 0.950 . S
H66 C46 0.949 . S
H67 C48 0.950 . S
C68 O84 1.251 1_556 S
C68 O86 1.254 1_556 S
N69 C70 1.333 . S
N69 C74 1.307 . S
N69 Zn75 2.020 . S
C70 N69 1.333 . S
C70 C71 1.379 . S
C70 H88 0.952 . S
C71 C70 1.379 . S
C71 C72 1.390 . S
C71 H98 0.949 . S
C72 C71 1.390 . S
C72 C73 1.357 . S
C73 C72 1.357 . S
C73 C74 1.370 . S
C73 H99 0.950 . S
C74 N69 1.307 . S
C74 C73 1.370 . S
C74 H92 0.948 . S
Zn75 N69 2.020 . S
Zn75 O84 2.039 . S
Zn75 O90 2.034 . S
Zn75 O94 2.025 . S
Zn75 O96 2.024 . S
C76 O95 1.246 . S
C76 O96 1.249 . S
N77 C78 1.307 . S
N77 C79 1.333 . S
N77 Zn83 2.020 . S
C78 N77 1.307 . S
C78 C82 1.370 . S
C78 H89 0.948 . S
C79 N77 1.333 . S
C79 C80 1.379 . S
C79 H87 0.952 . S
C80 C79 1.379 . S
C80 C81 1.390 . S
C80 H100 0.949 . S
C81 C80 1.390 . S
C81 C82 1.357 . S
C82 C78 1.370 . S
C82 C81 1.357 . S
C82 H101 0.950 . S
Zn83 N77 2.020 . S
Zn83 O86 2.025 . S
Zn83 O91 2.024 . S
Zn83 O93 2.039 . S
Zn83 O95 2.034 . S
O84 C68 1.251 1_554 S
O84 Zn75 2.039 . S
C85 O90 1.246 . S
C85 O91 1.249 . S
O86 C68 1.254 1_554 S
O86 Zn83 2.025 . S
H87 C79 0.952 . S
H88 C70 0.952 . S
H89 C78 0.948 . S
O90 Zn75 2.034 . S
O90 C85 1.246 . S
O91 Zn83 2.024 . S
O91 C85 1.249 . S
H92 C74 0.948 . S
O93 Zn83 2.039 . S
O93 C97 1.251 . S
O94 Zn75 2.025 . S
O94 C97 1.254 . S
O95 C76 1.246 . S
O95 Zn83 2.034 . S
O96 Zn75 2.024 . S
O96 C76 1.249 . S
C97 O93 1.251 . S
C97 O94 1.254 . S
H98 C71 0.949 . S
H99 C73 0.950 . S
H100 C80 0.949 . S
H101 C82 0.950 . S
C102 O118 1.251 . S
C102 O120 1.254 . S
N103 C104 1.333 . S
N103 C108 1.307 . S
N103 Zn109 2.020 . S
C104 N103 1.333 . S
C104 C105 1.379 . S
C104 H122 0.952 . S
C105 C104 1.379 . S
C105 C106 1.390 . S
C105 H132 0.949 . S
C106 C105 1.390 . S
C106 C107 1.357 . S
C107 C106 1.357 . S
C107 C108 1.370 . S
C107 H133 0.950 . S
C108 N103 1.307 . S
C108 C107 1.370 . S
C108 H126 0.948 . S
Zn109 N103 2.020 . S
Zn109 O118 2.039 . S
Zn109 O124 2.034 . S
Zn109 O128 2.025 . S
Zn109 O130 2.024 . S
C110 O129 1.246 . S
C110 O130 1.249 . S
N111 C112 1.307 . S
N111 C113 1.333 . S
N111 Zn117 2.020 . S
C112 N111 1.307 . S
C112 C116 1.370 . S
C112 H123 0.948 . S
C113 N111 1.333 . S
C113 C114 1.379 . S
C113 H121 0.952 . S
C114 C113 1.379 . S
C114 C115 1.390 . S
C114 H134 0.949 . S
C115 C114 1.390 . S
C115 C116 1.357 . S
C116 C112 1.370 . S
C116 C115 1.357 . S
C116 H135 0.950 . S
Zn117 N111 2.020 . S
Zn117 O120 2.025 . S
Zn117 O125 2.024 . S
Zn117 O127 2.039 . S
Zn117 O129 2.034 . S
O118 C102 1.251 . S
O118 Zn109 2.039 . S
C119 O124 1.246 . S
C119 O125 1.249 . S
O120 C102 1.254 . S
O120 Zn117 2.025 . S
H121 C113 0.952 . S
H122 C104 0.952 . S
H123 C112 0.948 . S
O124 Zn109 2.034 . S
O124 C119 1.246 . S
O125 Zn117 2.024 . S
O125 C119 1.249 . S
H126 C108 0.948 . S
O127 Zn117 2.039 . S
O127 C131 1.251 1_556 S
O128 Zn109 2.025 . S
O128 C131 1.254 1_556 S
O129 C110 1.246 . S
O129 Zn117 2.034 . S
O130 Zn109 2.024 . S
O130 C110 1.249 . S
C131 O127 1.251 1_554 S
C131 O128 1.254 1_554 S
H132 C105 0.949 . S
H133 C107 0.950 . S
H134 C114 0.949 . S
H135 C116 0.950 . S
C136 O152 1.251 . S
C136 O154 1.254 . S
N137 C138 1.333 . S
N137 C142 1.307 . S
N137 Zn143 2.020 . S
C138 N137 1.333 . S
C138 C139 1.379 . S
C138 H156 0.952 . S
C139 C138 1.379 . S
C139 C140 1.390 . S
C139 H166 0.949 . S
C140 C139 1.390 . S
C140 C141 1.357 . S
C141 C140 1.357 . S
C141 C142 1.370 . S
C141 H167 0.950 . S
C142 N137 1.307 . S
C142 C141 1.370 . S
C142 H160 0.948 . S
Zn143 N137 2.020 . S
Zn143 O152 2.039 . S
Zn143 O158 2.034 . S
Zn143 O162 2.025 . S
Zn143 O164 2.024 . S
C144 O163 1.246 . S
C144 O164 1.249 . S
N145 C146 1.307 . S
N145 C147 1.333 . S
N145 Zn151 2.020 . S
C146 N145 1.307 . S
C146 C150 1.370 . S
C146 H157 0.948 . S
C147 N145 1.333 . S
C147 C148 1.379 . S
C147 H155 0.952 . S
C148 C147 1.379 . S
C148 C149 1.390 . S
C148 H168 0.949 . S
C149 C148 1.390 . S
C149 C150 1.357 . S
C150 C146 1.370 . S
C150 C149 1.357 . S
C150 H169 0.950 . S
Zn151 N145 2.020 . S
Zn151 O154 2.025 . S
Zn151 O159 2.024 . S
Zn151 O161 2.039 . S
Zn151 O163 2.034 . S
O152 C136 1.251 . S
O152 Zn143 2.039 . S
C153 O158 1.246 . S
C153 O159 1.249 . S
O154 C136 1.254 . S
O154 Zn151 2.025 . S
H155 C147 0.952 . S
H156 C138 0.952 . S
H157 C146 0.948 . S
O158 Zn143 2.034 . S
O158 C153 1.246 . S
O159 Zn151 2.024 . S
O159 C153 1.249 . S
H160 C142 0.948 . S
O161 Zn151 2.039 . S
O161 C165 1.251 1_554 S
O162 Zn143 2.025 . S
O162 C165 1.254 1_554 S
O163 C144 1.246 . S
O163 Zn151 2.034 . S
O164 Zn143 2.024 . S
O164 C144 1.249 . S
C165 O161 1.251 1_556 S
C165 O162 1.254 1_556 S
H166 C139 0.949 . S
H167 C141 0.950 . S
H168 C148 0.949 . S
H169 C150 0.950 . S
C170 O186 1.251 1_554 S
C170 O188 1.254 1_554 S
N171 C172 1.333 . S
N171 C176 1.307 . S
N171 Zn177 2.020 . S
C172 N171 1.333 . S
C172 C173 1.379 . S
C172 H190 0.952 . S
C173 C172 1.379 . S
C173 C174 1.390 . S
C173 H200 0.949 . S
C174 C173 1.390 . S
C174 C175 1.357 . S
C175 C174 1.357 . S
C175 C176 1.370 . S
C175 H201 0.950 . S
C176 N171 1.307 . S
C176 C175 1.370 . S
C176 H194 0.948 . S
Zn177 N171 2.020 . S
Zn177 O186 2.039 . S
Zn177 O192 2.034 . S
Zn177 O196 2.025 . S
Zn177 O198 2.024 . S
C178 O197 1.246 . S
C178 O198 1.249 . S
N179 C180 1.307 . S
N179 C181 1.333 . S
N179 Zn185 2.020 . S
C180 N179 1.307 . S
C180 C184 1.370 . S
C180 H191 0.948 . S
C181 N179 1.333 . S
C181 C182 1.379 . S
C181 H189 0.952 . S
C182 C181 1.379 . S
C182 C183 1.390 . S
C182 H202 0.949 . S
C183 C182 1.390 . S
C183 C184 1.357 . S
C184 C180 1.370 . S
C184 C183 1.357 . S
C184 H203 0.950 . S
Zn185 N179 2.020 . S
Zn185 O188 2.025 . S
Zn185 O193 2.024 . S
Zn185 O195 2.039 . S
Zn185 O197 2.034 . S
O186 C170 1.251 1_556 S
O186 Zn177 2.039 . S
C187 O192 1.246 . S
C187 O193 1.249 . S
O188 C170 1.254 1_556 S
O188 Zn185 2.025 . S
H189 C181 0.952 . S
H190 C172 0.952 . S
H191 C180 0.948 . S
O192 Zn177 2.034 . S
O192 C187 1.246 . S
O193 Zn185 2.024 . S
O193 C187 1.249 . S
H194 C176 0.948 . S
O195 Zn185 2.039 . S
O195 C199 1.251 . S
O196 Zn177 2.025 . S
O196 C199 1.254 . S
O197 C178 1.246 . S
O197 Zn185 2.034 . S
O198 Zn177 2.024 . S
O198 C178 1.249 . S
C199 O195 1.251 . S
C199 O196 1.254 . S
H200 C173 0.949 . S
H201 C175 0.950 . S
H202 C182 0.949 . S
H203 C184 0.950 . S
C204 O220 1.251 . S
C204 O222 1.254 . S
N205 C206 1.333 . S
N205 C210 1.307 . S
N205 Zn211 2.020 . S
C206 N205 1.333 . S
C206 C207 1.379 . S
C206 H224 0.952 . S
C207 C206 1.379 . S
C207 C208 1.390 . S
C207 H234 0.949 . S
C208 C207 1.390 . S
C208 C209 1.357 . S
C209 C208 1.357 . S
C209 C210 1.370 . S
C209 H235 0.950 . S
C210 N205 1.307 . S
C210 C209 1.370 . S
C210 H228 0.948 . S
Zn211 N205 2.020 . S
Zn211 O220 2.039 . S
Zn211 O226 2.034 . S
Zn211 O230 2.025 . S
Zn211 O232 2.024 . S
C212 O231 1.246 . S
C212 O232 1.249 . S
N213 C214 1.307 . S
N213 C215 1.333 . S
N213 Zn219 2.020 . S
C214 N213 1.307 . S
C214 C218 1.370 . S
C214 H225 0.948 . S
C215 N213 1.333 . S
C215 C216 1.379 . S
C215 H223 0.952 . S
C216 C215 1.379 . S
C216 C217 1.390 . S
C216 H236 0.949 . S
C217 C216 1.390 . S
C217 C218 1.357 . S
C218 C214 1.370 . S
C218 C217 1.357 . S
C218 H237 0.950 . S
Zn219 N213 2.020 . S
Zn219 O222 2.025 . S
Zn219 O227 2.024 . S
Zn219 O229 2.039 . S
Zn219 O231 2.034 . S
O220 C204 1.251 . S
O220 Zn211 2.039 . S
C221 O226 1.246 . S
C221 O227 1.249 . S
O222 C204 1.254 . S
O222 Zn219 2.025 . S
H223 C215 0.952 . S
H224 C206 0.952 . S
H225 C214 0.948 . S
O226 Zn211 2.034 . S
O226 C221 1.246 . S
O227 Zn219 2.024 . S
O227 C221 1.249 . S
H228 C210 0.948 . S
O229 Zn219 2.039 . S
O229 C233 1.251 1_554 S
O230 Zn211 2.025 . S
O230 C233 1.254 1_554 S
O231 C212 1.246 . S
O231 Zn219 2.034 . S
O232 Zn211 2.024 . S
O232 C212 1.249 . S
C233 O229 1.251 1_556 S
C233 O230 1.254 1_556 S
H234 C207 0.949 . S
H235 C209 0.950 . S
H236 C216 0.949 . S
H237 C218 0.950 . S
C238 O254 1.251 1_554 S
C238 O256 1.254 1_554 S
N239 C240 1.333 . S
N239 C244 1.307 . S
N239 Zn245 2.020 . S
C240 N239 1.333 . S
C240 C241 1.379 . S
C240 H258 0.952 . S
C241 C240 1.379 . S
C241 C242 1.390 . S
C241 H268 0.949 . S
C242 C241 1.390 . S
C242 C243 1.357 . S
C243 C242 1.357 . S
C243 C244 1.370 . S
C243 H269 0.950 . S
C244 N239 1.307 . S
C244 C243 1.370 . S
C244 H262 0.948 . S
Zn245 N239 2.020 . S
Zn245 O254 2.039 . S
Zn245 O260 2.034 . S
Zn245 O264 2.025 . S
Zn245 O266 2.024 . S
C246 O265 1.246 . S
C246 O266 1.249 . S
N247 C248 1.307 . S
N247 C249 1.333 . S
N247 Zn253 2.020 . S
C248 N247 1.307 . S
C248 C252 1.370 . S
C248 H259 0.948 . S
C249 N247 1.333 . S
C249 C250 1.379 . S
C249 H257 0.952 . S
C250 C249 1.379 . S
C250 C251 1.390 . S
C250 H270 0.949 . S
C251 C250 1.390 . S
C251 C252 1.357 . S
C252 C248 1.370 . S
C252 C251 1.357 . S
C252 H271 0.950 . S
Zn253 N247 2.020 . S
Zn253 O256 2.025 . S
Zn253 O261 2.024 . S
Zn253 O263 2.039 . S
Zn253 O265 2.034 . S
O254 C238 1.251 1_556 S
O254 Zn245 2.039 . S
C255 O260 1.246 . S
C255 O261 1.249 . S
O256 C238 1.254 1_556 S
O256 Zn253 2.025 . S
H257 C249 0.952 . S
H258 C240 0.952 . S
H259 C248 0.948 . S
O260 Zn245 2.034 . S
O260 C255 1.246 . S
O261 Zn253 2.024 . S
O261 C255 1.249 . S
H262 C244 0.948 . S
O263 Zn253 2.039 . S
O263 C267 1.251 . S
O264 Zn245 2.025 . S
O264 C267 1.254 . S
O265 C246 1.246 . S
O265 Zn253 2.034 . S
O266 Zn245 2.024 . S
O266 C246 1.249 . S
C267 O263 1.251 . S
C267 O264 1.254 . S
H268 C241 0.949 . S
H269 C243 0.950 . S
H270 C250 0.949 . S
H271 C252 0.950 . S
C272 O288 1.251 . S
C272 O290 1.254 . S
N273 C274 1.333 . S
N273 C278 1.307 . S
N273 Zn279 2.020 . S
C274 N273 1.333 . S
C274 C275 1.379 . S
C274 H292 0.952 . S
C275 C274 1.379 . S
C275 C276 1.390 . S
C275 H302 0.949 . S
C276 C275 1.390 . S
C276 C277 1.357 . S
C277 C276 1.357 . S
C277 C278 1.370 . S
C277 H303 0.950 . S
C278 N273 1.307 . S
C278 C277 1.370 . S
C278 H296 0.948 . S
Zn279 N273 2.020 . S
Zn279 O288 2.039 . S
Zn279 O294 2.034 . S
Zn279 O298 2.025 . S
Zn279 O300 2.024 . S
C280 O299 1.246 . S
C280 O300 1.249 . S
N281 C282 1.307 . S
N281 C283 1.333 . S
N281 Zn287 2.020 . S
C282 N281 1.307 . S
C282 C286 1.370 . S
C282 H293 0.948 . S
C283 N281 1.333 . S
C283 C284 1.379 . S
C283 H291 0.952 . S
C284 C283 1.379 . S
C284 C285 1.390 . S
C284 H304 0.949 . S
C285 C284 1.390 . S
C285 C286 1.357 . S
C286 C282 1.370 . S
C286 C285 1.357 . S
C286 H305 0.950 . S
Zn287 N281 2.020 . S
Zn287 O290 2.025 . S
Zn287 O295 2.024 . S
Zn287 O297 2.039 . S
Zn287 O299 2.034 . S
O288 C272 1.251 . S
O288 Zn279 2.039 . S
C289 O294 1.246 . S
C289 O295 1.249 . S
O290 C272 1.254 . S
O290 Zn287 2.025 . S
H291 C283 0.952 . S
H292 C274 0.952 . S
H293 C282 0.948 . S
O294 Zn279 2.034 . S
O294 C289 1.246 . S
O295 Zn287 2.024 . S
O295 C289 1.249 . S
H296 C278 0.948 . S
O297 Zn287 2.039 . S
O297 C301 1.251 . S
O298 Zn279 2.025 . S
O298 C301 1.254 . S
O299 C280 1.246 . S
O299 Zn287 2.034 . S
O300 Zn279 2.024 . S
O300 C280 1.249 . S
C301 O297 1.251 . S
C301 O298 1.254 . S
H302 C275 0.949 . S
H303 C277 0.950 . S
H304 C284 0.949 . S
H305 C286 0.950 . S
C306 O322 1.251 . S
C306 O324 1.254 . S
N307 C308 1.333 . S
N307 C312 1.307 . S
N307 Zn313 2.020 . S
C308 N307 1.333 . S
C308 C309 1.379 . S
C308 H326 0.952 . S
C309 C308 1.379 . S
C309 C310 1.390 . S
C309 H336 0.949 . S
C310 C309 1.390 . S
C310 C311 1.357 . S
C311 C310 1.357 . S
C311 C312 1.370 . S
C311 H337 0.950 . S
C312 N307 1.307 . S
C312 C311 1.370 . S
C312 H330 0.948 . S
Zn313 N307 2.020 . S
Zn313 O322 2.039 . S
Zn313 O328 2.034 . S
Zn313 O332 2.025 . S
Zn313 O334 2.024 . S
C314 O333 1.246 . S
C314 O334 1.249 . S
N315 C316 1.307 . S
N315 C317 1.333 . S
N315 Zn321 2.020 . S
C316 N315 1.307 . S
C316 C320 1.370 . S
C316 H327 0.948 . S
C317 N315 1.333 . S
C317 C318 1.379 . S
C317 H325 0.952 . S
C318 C317 1.379 . S
C318 C319 1.390 . S
C318 H338 0.949 . S
C319 C318 1.390 . S
C319 C320 1.357 . S
C320 C316 1.370 . S
C320 C319 1.357 . S
C320 H339 0.950 . S
Zn321 N315 2.020 . S
Zn321 O324 2.025 . S
Zn321 O329 2.024 . S
Zn321 O331 2.039 . S
Zn321 O333 2.034 . S
O322 C306 1.251 . S
O322 Zn313 2.039 . S
C323 O328 1.246 . S
C323 O329 1.249 . S
O324 C306 1.254 . S
O324 Zn321 2.025 . S
H325 C317 0.952 . S
H326 C308 0.952 . S
H327 C316 0.948 . S
O328 Zn313 2.034 . S
O328 C323 1.246 . S
O329 Zn321 2.024 . S
O329 C323 1.249 . S
H330 C312 0.948 . S
O331 Zn321 2.039 . S
O331 C335 1.251 . S
O332 Zn313 2.025 . S
O332 C335 1.254 . S
O333 C314 1.246 . S
O333 Zn321 2.034 . S
O334 Zn313 2.024 . S
O334 C314 1.249 . S
C335 O331 1.251 . S
C335 O332 1.254 . S
H336 C309 0.949 . S
H337 C311 0.950 . S
H338 C318 0.949 . S
H339 C320 0.950 . S
C340 O356 1.251 . S
C340 O358 1.254 . S
N341 C342 1.333 . S
N341 C346 1.307 . S
N341 Zn347 2.020 . S
C342 N341 1.333 . S
C342 C343 1.379 . S
C342 H360 0.952 . S
C343 C342 1.379 . S
C343 C344 1.390 . S
C343 H370 0.949 . S
C344 C343 1.390 . S
C344 C345 1.357 . S
C345 C344 1.357 . S
C345 C346 1.370 . S
C345 H371 0.950 . S
C346 N341 1.307 . S
C346 C345 1.370 . S
C346 H364 0.948 . S
Zn347 N341 2.020 . S
Zn347 O356 2.039 . S
Zn347 O362 2.034 . S
Zn347 O366 2.025 . S
Zn347 O368 2.024 . S
C348 O367 1.246 . S
C348 O368 1.249 . S
N349 C350 1.307 . S
N349 C351 1.333 . S
N349 Zn355 2.020 . S
C350 N349 1.307 . S
C350 C354 1.370 . S
C350 H361 0.948 . S
C351 N349 1.333 . S
C351 C352 1.379 . S
C351 H359 0.952 . S
C352 C351 1.379 . S
C352 C353 1.390 . S
C352 H372 0.949 . S
C353 C352 1.390 . S
C353 C354 1.357 . S
C354 C350 1.370 . S
C354 C353 1.357 . S
C354 H373 0.950 . S
Zn355 N349 2.020 . S
Zn355 O358 2.025 . S
Zn355 O363 2.024 . S
Zn355 O365 2.039 . S
Zn355 O367 2.034 . S
O356 C340 1.251 . S
O356 Zn347 2.039 . S
C357 O362 1.246 . S
C357 O363 1.249 . S
O358 C340 1.254 . S
O358 Zn355 2.025 . S
H359 C351 0.952 . S
H360 C342 0.952 . S
H361 C350 0.948 . S
O362 Zn347 2.034 . S
O362 C357 1.246 . S
O363 Zn355 2.024 . S
O363 C357 1.249 . S
H364 C346 0.948 . S
O365 Zn355 2.039 . S
O365 C369 1.251 . S
O366 Zn347 2.025 . S
O366 C369 1.254 . S
O367 C348 1.246 . S
O367 Zn355 2.034 . S
O368 Zn347 2.024 . S
O368 C348 1.249 . S
C369 O365 1.251 . S
C369 O366 1.254 . S
H370 C343 0.949 . S
H371 C345 0.950 . S
H372 C352 0.949 . S
H373 C354 0.950 . S
C374 O390 1.251 . S
C374 O392 1.254 . S
N375 C376 1.333 . S
N375 C380 1.307 . S
N375 Zn381 2.020 . S
C376 N375 1.333 . S
C376 C377 1.379 . S
C376 H394 0.952 . S
C377 C376 1.379 . S
C377 C378 1.390 . S
C377 H404 0.949 . S
C378 C377 1.390 . S
C378 C379 1.357 . S
C379 C378 1.357 . S
C379 C380 1.370 . S
C379 H405 0.950 . S
C380 N375 1.307 . S
C380 C379 1.370 . S
C380 H398 0.948 . S
Zn381 N375 2.020 . S
Zn381 O390 2.039 . S
Zn381 O396 2.034 . S
Zn381 O400 2.025 . S
Zn381 O402 2.024 . S
C382 O401 1.246 . S
C382 O402 1.249 . S
N383 C384 1.307 . S
N383 C385 1.333 . S
N383 Zn389 2.020 . S
C384 N383 1.307 . S
C384 C388 1.370 . S
C384 H395 0.948 . S
C385 N383 1.333 . S
C385 C386 1.379 . S
C385 H393 0.952 . S
C386 C385 1.379 . S
C386 C387 1.390 . S
C386 H406 0.949 . S
C387 C386 1.390 . S
C387 C388 1.357 . S
C388 C384 1.370 . S
C388 C387 1.357 . S
C388 H407 0.950 . S
Zn389 N383 2.020 . S
Zn389 O392 2.025 . S
Zn389 O397 2.024 . S
Zn389 O399 2.039 . S
Zn389 O401 2.034 . S
O390 C374 1.251 . S
O390 Zn381 2.039 . S
C391 O396 1.246 . S
C391 O397 1.249 . S
O392 C374 1.254 . S
O392 Zn389 2.025 . S
H393 C385 0.952 . S
H394 C376 0.952 . S
H395 C384 0.948 . S
O396 Zn381 2.034 . S
O396 C391 1.246 . S
O397 Zn389 2.024 . S
O397 C391 1.249 . S
H398 C380 0.948 . S
O399 Zn389 2.039 . S
O399 C403 1.251 . S
O400 Zn381 2.025 . S
O400 C403 1.254 . S
O401 C382 1.246 . S
O401 Zn389 2.034 . S
O402 Zn381 2.024 . S
O402 C382 1.249 . S
C403 O399 1.251 . S
C403 O400 1.254 . S
H404 C377 0.949 . S
H405 C379 0.950 . S
H406 C386 0.949 . S
H407 C388 0.950 . S
C408 O424 1.251 . S
C408 O426 1.254 . S
N409 C410 1.333 . S
N409 C414 1.307 . S
N409 Zn415 2.020 . S
C410 N409 1.333 . S
C410 C411 1.379 . S
C410 H428 0.952 . S
C411 C410 1.379 . S
C411 C412 1.390 . S
C411 H438 0.949 . S
C412 C411 1.390 . S
C412 C413 1.357 . S
C413 C412 1.357 . S
C413 C414 1.370 . S
C413 H439 0.950 . S
C414 N409 1.307 . S
C414 C413 1.370 . S
C414 H432 0.948 . S
Zn415 N409 2.020 . S
Zn415 O424 2.039 . S
Zn415 O430 2.034 . S
Zn415 O434 2.025 . S
Zn415 O436 2.024 . S
C416 O435 1.246 . S
C416 O436 1.249 . S
N417 C418 1.307 . S
N417 C419 1.333 . S
N417 Zn423 2.020 . S
C418 N417 1.307 . S
C418 C422 1.370 . S
C418 H429 0.948 . S
C419 N417 1.333 . S
C419 C420 1.379 . S
C419 H427 0.952 . S
C420 C419 1.379 . S
C420 C421 1.390 . S
C420 H440 0.949 . S
C421 C420 1.390 . S
C421 C422 1.357 . S
C422 C418 1.370 . S
C422 C421 1.357 . S
C422 H441 0.950 . S
Zn423 N417 2.020 . S
Zn423 O426 2.025 . S
Zn423 O431 2.024 . S
Zn423 O433 2.039 . S
Zn423 O435 2.034 . S
O424 C408 1.251 . S
O424 Zn415 2.039 . S
C425 O430 1.246 . S
C425 O431 1.249 . S
O426 C408 1.254 . S
O426 Zn423 2.025 . S
H427 C419 0.952 . S
H428 C410 0.952 . S
H429 C418 0.948 . S
O430 Zn415 2.034 . S
O430 C425 1.246 . S
O431 Zn423 2.024 . S
O431 C425 1.249 . S
H432 C414 0.948 . S
O433 Zn423 2.039 . S
O433 C437 1.251 . S
O434 Zn415 2.025 . S
O434 C437 1.254 . S
O435 C416 1.246 . S
O435 Zn423 2.034 . S
O436 Zn415 2.024 . S
O436 C416 1.249 . S
C437 O433 1.251 . S
C437 O434 1.254 . S
H438 C411 0.949 . S
H439 C413 0.950 . S
H440 C420 0.949 . S
H441 C422 0.950 . S
C442 O458 1.251 . S
C442 O460 1.254 . S
N443 C444 1.333 . S
N443 C448 1.307 . S
N443 Zn449 2.020 . S
C444 N443 1.333 . S
C444 C445 1.379 . S
C444 H462 0.952 . S
C445 C444 1.379 . S
C445 C446 1.390 . S
C445 H472 0.949 . S
C446 C445 1.390 . S
C446 C447 1.357 . S
C447 C446 1.357 . S
C447 C448 1.370 . S
C447 H473 0.950 . S
C448 N443 1.307 . S
C448 C447 1.370 . S
C448 H466 0.948 . S
Zn449 N443 2.020 . S
Zn449 O458 2.039 . S
Zn449 O464 2.034 . S
Zn449 O468 2.025 . S
Zn449 O470 2.024 . S
C450 O469 1.246 . S
C450 O470 1.249 . S
N451 C452 1.307 . S
N451 C453 1.333 . S
N451 Zn457 2.020 . S
C452 N451 1.307 . S
C452 C456 1.370 . S
C452 H463 0.948 . S
C453 N451 1.333 . S
C453 C454 1.379 . S
C453 H461 0.952 . S
C454 C453 1.379 . S
C454 C455 1.390 . S
C454 H474 0.949 . S
C455 C454 1.390 . S
C455 C456 1.357 . S
C456 C452 1.370 . S
C456 C455 1.357 . S
C456 H475 0.950 . S
Zn457 N451 2.020 . S
Zn457 O460 2.025 . S
Zn457 O465 2.024 . S
Zn457 O467 2.039 . S
Zn457 O469 2.034 . S
O458 C442 1.251 . S
O458 Zn449 2.039 . S
C459 O464 1.246 . S
C459 O465 1.249 . S
O460 C442 1.254 . S
O460 Zn457 2.025 . S
H461 C453 0.952 . S
H462 C444 0.952 . S
H463 C452 0.948 . S
O464 Zn449 2.034 . S
O464 C459 1.246 . S
O465 Zn457 2.024 . S
O465 C459 1.249 . S
H466 C448 0.948 . S
O467 Zn457 2.039 . S
O467 C471 1.251 . S
O468 Zn449 2.025 . S
O468 C471 1.254 . S
O469 C450 1.246 . S
O469 Zn457 2.034 . S
O470 Zn449 2.024 . S
O470 C450 1.249 . S
C471 O467 1.251 . S
C471 O468 1.254 . S
H472 C445 0.949 . S
H473 C447 0.950 . S
H474 C454 0.949 . S
H475 C456 0.950 . S
C476 O492 1.251 . S
C476 O494 1.254 . S
N477 C478 1.333 . S
N477 C482 1.307 . S
N477 Zn483 2.020 . S
C478 N477 1.333 . S
C478 C479 1.379 . S
C478 H496 0.952 . S
C479 C478 1.379 . S
C479 C480 1.390 . S
C479 H506 0.949 . S
C480 C479 1.390 . S
C480 C481 1.357 . S
C481 C480 1.357 . S
C481 C482 1.370 . S
C481 H507 0.950 . S
C482 N477 1.307 . S
C482 C481 1.370 . S
C482 H500 0.948 . S
Zn483 N477 2.020 . S
Zn483 O492 2.039 . S
Zn483 O498 2.034 . S
Zn483 O502 2.025 . S
Zn483 O504 2.024 . S
C484 O503 1.246 . S
C484 O504 1.249 . S
N485 C486 1.307 . S
N485 C487 1.333 . S
N485 Zn491 2.020 . S
C486 N485 1.307 . S
C486 C490 1.370 . S
C486 H497 0.948 . S
C487 N485 1.333 . S
C487 C488 1.379 . S
C487 H495 0.952 . S
C488 C487 1.379 . S
C488 C489 1.390 . S
C488 H508 0.949 . S
C489 C488 1.390 . S
C489 C490 1.357 . S
C490 C486 1.370 . S
C490 C489 1.357 . S
C490 H509 0.950 . S
Zn491 N485 2.020 . S
Zn491 O494 2.025 . S
Zn491 O499 2.024 . S
Zn491 O501 2.039 . S
Zn491 O503 2.034 . S
O492 C476 1.251 . S
O492 Zn483 2.039 . S
C493 O498 1.246 . S
C493 O499 1.249 . S
O494 C476 1.254 . S
O494 Zn491 2.025 . S
H495 C487 0.952 . S
H496 C478 0.952 . S
H497 C486 0.948 . S
O498 Zn483 2.034 . S
O498 C493 1.246 . S
O499 Zn491 2.024 . S
O499 C493 1.249 . S
H500 C482 0.948 . S
O501 Zn491 2.039 . S
O501 C505 1.251 . S
O502 Zn483 2.025 . S
O502 C505 1.254 . S
O503 C484 1.246 . S
O503 Zn491 2.034 . S
O504 Zn483 2.024 . S
O504 C484 1.249 . S
C505 O501 1.251 . S
C505 O502 1.254 . S
H506 C479 0.949 . S
H507 C481 0.950 . S
H508 C488 0.949 . S
H509 C490 0.950 . S
C510 O526 1.251 . S
C510 O528 1.254 . S
N511 C512 1.333 . S
N511 C516 1.307 . S
N511 Zn517 2.020 . S
C512 N511 1.333 . S
C512 C513 1.379 . S
C512 H530 0.952 . S
C513 C512 1.379 . S
C513 C514 1.390 . S
C513 H540 0.949 . S
C514 C513 1.390 . S
C514 C515 1.357 . S
C515 C514 1.357 . S
C515 C516 1.370 . S
C515 H541 0.950 . S
C516 N511 1.307 . S
C516 C515 1.370 . S
C516 H534 0.948 . S
Zn517 N511 2.020 . S
Zn517 O526 2.039 . S
Zn517 O532 2.034 . S
Zn517 O536 2.025 . S
Zn517 O538 2.024 . S
C518 O537 1.246 . S
C518 O538 1.249 . S
N519 C520 1.307 . S
N519 C521 1.333 . S
N519 Zn525 2.020 . S
C520 N519 1.307 . S
C520 C524 1.370 . S
C520 H531 0.948 . S
C521 N519 1.333 . S
C521 C522 1.379 . S
C521 H529 0.952 . S
C522 C521 1.379 . S
C522 C523 1.390 . S
C522 H542 0.949 . S
C523 C522 1.390 . S
C523 C524 1.357 . S
C524 C520 1.370 . S
C524 C523 1.357 . S
C524 H543 0.950 . S
Zn525 N519 2.020 . S
Zn525 O528 2.025 . S
Zn525 O533 2.024 . S
Zn525 O535 2.039 . S
Zn525 O537 2.034 . S
O526 C510 1.251 . S
O526 Zn517 2.039 . S
C527 O532 1.246 . S
C527 O533 1.249 . S
O528 C510 1.254 . S
O528 Zn525 2.025 . S
H529 C521 0.952 . S
H530 C512 0.952 . S
H531 C520 0.948 . S
O532 Zn517 2.034 . S
O532 C527 1.246 . S
O533 Zn525 2.024 . S
O533 C527 1.249 . S
H534 C516 0.948 . S
O535 Zn525 2.039 . S
O535 C539 1.251 . S
O536 Zn517 2.025 . S
O536 C539 1.254 . S
O537 C518 1.246 . S
O537 Zn525 2.034 . S
O538 Zn517 2.024 . S
O538 C518 1.249 . S
C539 O535 1.251 . S
C539 O536 1.254 . S
H540 C513 0.949 . S
H541 C515 0.950 . S
H542 C522 0.949 . S
H543 C524 0.950 . S
C544 C545 1.349 . S
C544 C546 1.327 . S
C544 H569 0.950 . S
C545 C544 1.349 . S
C545 C561 1.349 . S
C546 C544 1.327 . S
C546 C565 1.429 . S
C546 H570 0.950 . S
C547 C564 1.574 . S
C547 C566 1.368 . S
C547 H571 0.949 . S
H548 C552 0.949 . S
C549 C550 1.349 . S
C549 C551 1.335 . S
C549 H572 0.950 . S
C550 C549 1.349 . S
C550 C562 1.349 . S
C551 C549 1.335 . S
C551 C567 1.422 1_545 S
C551 H573 0.948 1_545 S
C552 H548 0.949 . S
C552 C560 1.574 . S
C552 C568 1.368 . S
H553 C561 0.950 . S
H554 C559 0.950 . S
H555 C560 0.949 . S
H556 C562 0.950 . S
H557 C563 0.950 . S
H558 C564 0.949 . S
C559 H554 0.950 . S
C559 C561 1.327 . S
C559 C565 1.429 . S
C560 C552 1.574 . S
C560 H555 0.949 . S
C560 C566 1.368 . S
C561 C545 1.349 . S
C561 H553 0.950 . S
C561 C559 1.327 . S
C562 C550 1.349 . S
C562 H556 0.950 . S
C562 C563 1.327 1_545 S
C563 H557 0.950 . S
C563 C562 1.327 1_565 S
C563 C567 1.429 . S
C564 C547 1.574 . S
C564 H558 0.949 . S
C564 C568 1.368 . S
C565 C546 1.429 . S
C565 C559 1.429 . S
C565 C566 1.523 . S
C566 C547 1.368 . S
C566 C560 1.368 . S
C566 C565 1.523 . S
C567 C551 1.422 1_565 S
C567 C563 1.429 . S
C567 C568 1.523 . S
C568 C552 1.368 . S
C568 C564 1.368 . S
C568 C567 1.523 . S
H569 C544 0.950 . S
H570 C546 0.950 . S
H571 C547 0.949 . S
H572 C549 0.950 . S
H573 C551 0.948 1_565 S
C574 C575 1.349 . S
C574 C576 1.327 . S
C574 H599 0.950 . S
C575 C574 1.349 . S
C575 C591 1.349 . S
C576 C574 1.327 . S
C576 C595 1.429 . S
C576 H600 0.950 . S
C577 C594 1.574 . S
C577 C596 1.368 . S
C577 H601 0.949 . S
H578 C582 0.949 . S
C579 C580 1.349 . S
C579 C581 1.299 1_455 S
C579 H602 0.950 . S
C580 C579 1.349 . S
C580 C592 1.349 . S
C581 C579 1.299 1_655 S
C581 C597 1.451 . S
C581 H603 0.956 . S
C582 H578 0.949 . S
C582 C590 1.574 . S
C582 C598 1.368 . S
H583 C591 0.950 . S
H584 C589 0.950 . S
H585 C590 0.949 . S
H586 C592 0.950 . S
H587 C593 0.950 . S
H588 C594 0.949 . S
C589 H584 0.950 . S
C589 C591 1.327 . S
C589 C595 1.429 . S
C590 C582 1.574 . S
C590 H585 0.949 . S
C590 C596 1.368 . S
C591 C575 1.349 . S
C591 H583 0.950 . S
C591 C589 1.327 . S
C592 C580 1.349 . S
C592 H586 0.950 . S
C592 C593 1.327 1_455 S
C593 H587 0.950 . S
C593 C592 1.327 1_655 S
C593 C597 1.429 . S
C594 C577 1.574 . S
C594 H588 0.949 . S
C594 C598 1.368 . S
C595 C576 1.429 . S
C595 C589 1.429 . S
C595 C596 1.523 . S
C596 C577 1.368 . S
C596 C590 1.368 . S
C596 C595 1.523 . S
C597 C581 1.451 . S
C597 C593 1.429 . S
C597 C598 1.523 . S
C598 C582 1.368 . S
C598 C594 1.368 . S
C598 C597 1.523 . S
H599 C574 0.950 . S
H600 C576 0.950 . S
H601 C577 0.949 . S
H602 C579 0.950 . S
H603 C581 0.956 . S
C604 C605 1.349 . S
C604 C606 1.327 1_565 S
C604 H629 0.950 . S
C605 C604 1.349 . S
C605 C621 1.349 . S
C606 C604 1.327 1_545 S
C606 C625 1.429 . S
C606 H630 0.950 . S
C607 C624 1.574 . S
C607 C626 1.368 . S
C607 H631 0.949 . S
H608 C612 0.949 . S
C609 C610 1.349 . S
C609 C611 1.327 . S
C609 H632 0.950 . S
C610 C609 1.349 . S
C610 C622 1.349 . S
C611 C609 1.327 . S
C611 C627 1.429 . S
C611 H633 0.950 . S
C612 H608 0.949 . S
C612 C620 1.574 . S
C612 C628 1.368 . S
H613 C621 0.950 . S
H614 C619 0.950 . S
H615 C620 0.949 . S
H616 C622 0.950 . S
H617 C623 0.950 . S
H618 C624 0.949 . S
C619 H614 0.950 . S
C619 C621 1.327 1_545 S
C619 C625 1.429 . S
C620 C612 1.574 . S
C620 H615 0.949 . S
C620 C626 1.368 . S
C621 C605 1.349 . S
C621 H613 0.950 . S
C621 C619 1.327 1_565 S
C622 C610 1.349 . S
C622 H616 0.950 . S
C622 C623 1.327 . S
C623 H617 0.950 . S
C623 C622 1.327 . S
C623 C627 1.429 . S
C624 C607 1.574 . S
C624 H618 0.949 . S
C624 C628 1.368 . S
C625 C606 1.429 . S
C625 C619 1.429 . S
C625 C626 1.523 . S
C626 C607 1.368 . S
C626 C620 1.368 . S
C626 C625 1.523 . S
C627 C611 1.429 . S
C627 C623 1.429 . S
C627 C628 1.523 . S
C628 C612 1.368 . S
C628 C624 1.368 . S
C628 C627 1.523 . S
H629 C604 0.950 . S
H630 C606 0.950 . S
H631 C607 0.949 . S
H632 C609 0.950 . S
H633 C611 0.950 . S
C634 C635 1.349 . S
C634 C636 1.327 1_655 S
C634 H659 0.950 . S
C635 C634 1.349 . S
C635 C651 1.349 . S
C636 C634 1.327 1_455 S
C636 C655 1.429 . S
C636 H660 0.950 . S
C637 C654 1.574 . S
C637 C656 1.368 . S
C637 H661 0.949 . S
H638 C642 0.949 . S
C639 C640 1.349 . S
C639 C641 1.327 . S
C639 H662 0.950 . S
C640 C639 1.349 . S
C640 C652 1.349 . S
C641 C639 1.327 . S
C641 C657 1.429 . S
C641 H663 0.950 . S
C642 H638 0.949 . S
C642 C650 1.574 . S
C642 C658 1.368 . S
H643 C651 0.950 . S
H644 C649 0.950 . S
H645 C650 0.949 . S
H646 C652 0.950 . S
H647 C653 0.950 . S
H648 C654 0.949 . S
C649 H644 0.950 . S
C649 C651 1.327 1_455 S
C649 C655 1.429 . S
C650 C642 1.574 . S
C650 H645 0.949 . S
C650 C656 1.368 . S
C651 C635 1.349 . S
C651 H643 0.950 . S
C651 C649 1.327 1_655 S
C652 C640 1.349 . S
C652 H646 0.950 . S
C652 C653 1.327 . S
C653 H647 0.950 . S
C653 C652 1.327 . S
C653 C657 1.429 . S
C654 C637 1.574 . S
C654 H648 0.949 . S
C654 C658 1.368 . S
C655 C636 1.429 . S
C655 C649 1.429 . S
C655 C656 1.523 . S
C656 C637 1.368 . S
C656 C650 1.368 . S
C656 C655 1.523 . S
C657 C641 1.429 . S
C657 C653 1.429 . S
C657 C658 1.523 . S
C658 C642 1.368 . S
C658 C654 1.368 . S
C658 C657 1.523 . S
H659 C634 0.950 . S
H660 C636 0.950 . S
H661 C637 0.949 . S
H662 C639 0.950 . S
H663 C641 0.950 . S
C664 C665 1.349 . S
C664 C666 1.327 . S
C664 H689 0.950 . S
C665 C664 1.349 . S
C665 C681 1.349 . S
C666 C664 1.327 . S
C666 C685 1.429 . S
C666 H690 0.950 . S
C667 C684 1.574 . S
C667 C686 1.368 1_556 S
C667 H691 0.949 . S
H668 C672 0.949 . S
C669 C670 1.349 . S
C669 C671 1.327 . S
C669 H692 0.950 . S
C670 C669 1.349 . S
C670 C682 1.356 . S
C671 C669 1.327 . S
C671 C687 1.429 . S
C671 H693 0.950 . S
C672 H668 0.949 . S
C672 C680 1.574 . S
C672 C688 1.368 1_554 S
H673 C681 0.950 1_556 S
H674 C679 0.950 . S
H675 C680 0.949 . S
H676 C682 0.945 1_554 S
H677 C683 0.950 . S
H678 C684 0.949 . S
C679 H674 0.950 . S
C679 C681 1.327 1_556 S
C679 C685 1.429 1_556 S
C680 C672 1.574 . S
C680 H675 0.949 . S
C680 C686 1.368 . S
C681 C665 1.349 . S
C681 H673 0.950 1_554 S
C681 C679 1.327 1_554 S
C682 C670 1.356 . S
C682 H676 0.945 1_556 S
C682 C683 1.325 1_556 S
C683 H677 0.950 . S
C683 C682 1.325 1_554 S
C683 C687 1.429 1_554 S
C684 C667 1.574 . S
C684 H678 0.949 . S
C684 C688 1.368 . S
C685 C666 1.429 . S
C685 C679 1.429 1_554 S
C685 C686 1.523 . S
C686 C667 1.368 1_554 S
C686 C680 1.368 . S
C686 C685 1.523 . S
C687 C671 1.429 . S
C687 C683 1.429 1_556 S
C687 C688 1.523 . S
C688 C672 1.368 1_556 S
C688 C684 1.368 . S
C688 C687 1.523 . S
H689 C664 0.950 . S
H690 C666 0.950 . S
H691 C667 0.949 . S
H692 C669 0.950 . S
H693 C671 0.950 . S
C694 C695 1.349 . S
C694 C696 1.327 1_554 S
C694 H719 0.950 1_554 S
C695 C694 1.349 . S
C695 C711 1.349 . S
C696 C694 1.327 1_556 S
C696 C715 1.429 1_556 S
C696 H720 0.950 . S
C697 C714 1.574 . S
C697 C716 1.368 . S
C697 H721 0.949 . S
H698 C702 0.949 . S
C699 C700 1.349 . S
C699 C701 1.327 1_556 S
C699 H722 0.950 1_556 S
C700 C699 1.349 . S
C700 C712 1.349 . S
C701 C699 1.327 1_554 S
C701 C717 1.429 1_554 S
C701 H723 0.950 . S
C702 H698 0.949 . S
C702 C710 1.574 . S
C702 C718 1.368 . S
H703 C711 0.950 . S
H704 C709 0.950 . S
H705 C710 0.949 . S
H706 C712 0.950 . S
H707 C713 0.950 . S
H708 C714 0.949 . S
C709 H704 0.950 . S
C709 C711 1.327 . S
C709 C715 1.429 . S
C710 C702 1.574 . S
C710 H705 0.949 . S
C710 C716 1.368 1_556 S
C711 C695 1.349 . S
C711 H703 0.950 . S
C711 C709 1.327 . S
C712 C700 1.349 . S
C712 H706 0.950 . S
C712 C713 1.327 . S
C713 H707 0.950 . S
C713 C712 1.327 . S
C713 C717 1.429 . S
C714 C697 1.574 . S
C714 H708 0.949 . S
C714 C718 1.368 1_554 S
C715 C696 1.429 1_554 S
C715 C709 1.429 . S
C715 C716 1.523 . S
C716 C697 1.368 . S
C716 C710 1.368 1_554 S
C716 C715 1.523 . S
C717 C701 1.429 1_556 S
C717 C713 1.429 . S
C717 C718 1.523 . S
C718 C702 1.368 . S
C718 C714 1.368 1_556 S
C718 C717 1.523 . S
H719 C694 0.950 1_556 S
H720 C696 0.950 . S
H721 C697 0.949 . S
H722 C699 0.950 1_554 S
H723 C701 0.950 . S
C724 C725 1.349 . S
C724 C726 1.327 . S
C724 H749 0.950 . S
C725 C724 1.349 . S
C725 C741 1.349 . S
C726 C724 1.327 . S
C726 C745 1.429 . S
C726 H750 0.950 . S
C727 C744 1.574 . S
C727 C746 1.368 1_556 S
C727 H751 0.949 . S
H728 C732 0.949 . S
C729 C730 1.349 . S
C729 C731 1.327 . S
C729 H752 0.950 . S
C730 C729 1.349 . S
C730 C742 1.349 . S
C731 C729 1.327 . S
C731 C747 1.429 . S
C731 H753 0.950 . S
C732 H728 0.949 . S
C732 C740 1.574 . S
C732 C748 1.368 1_554 S
H733 C741 0.950 1_556 S
H734 C739 0.950 . S
H735 C740 0.949 . S
H736 C742 0.950 1_554 S
H737 C743 0.950 . S
H738 C744 0.949 . S
C739 H734 0.950 . S
C739 C741 1.327 1_556 S
C739 C745 1.429 1_556 S
C740 C732 1.574 . S
C740 H735 0.949 . S
C740 C746 1.368 . S
C741 C725 1.349 . S
C741 H733 0.950 1_554 S
C741 C739 1.327 1_554 S
C742 C730 1.349 . S
C742 H736 0.950 1_556 S
C742 C743 1.327 1_556 S
C743 H737 0.950 . S
C743 C742 1.327 1_554 S
C743 C747 1.429 1_554 S
C744 C727 1.574 . S
C744 H738 0.949 . S
C744 C748 1.368 . S
C745 C726 1.429 . S
C745 C739 1.429 1_554 S
C745 C746 1.523 . S
C746 C727 1.368 1_554 S
C746 C740 1.368 . S
C746 C745 1.523 . S
C747 C731 1.429 . S
C747 C743 1.429 1_556 S
C747 C748 1.523 . S
C748 C732 1.368 1_556 S
C748 C744 1.368 . S
C748 C747 1.523 . S
H749 C724 0.950 . S
H750 C726 0.950 . S
H751 C727 0.949 . S
H752 C729 0.950 . S
H753 C731 0.950 . S
C754 C755 1.349 . S
C754 C756 1.327 1_554 S
C754 H779 0.950 1_554 S
C755 C754 1.349 . S
C755 C771 1.349 . S
C756 C754 1.327 1_556 S
C756 C775 1.429 1_556 S
C756 H780 0.950 . S
C757 C774 1.574 . S
C757 C776 1.368 . S
C757 H781 0.949 . S
H758 C762 0.949 . S
C759 C760 1.349 . S
C759 C761 1.327 . S
C759 H782 0.950 1_556 S
C760 C759 1.349 . S
C760 C772 1.349 . S
C761 C759 1.327 . S
C761 C777 1.429 . S
C761 H783 0.950 1_556 S
C762 H758 0.949 . S
C762 C770 1.574 . S
C762 C778 1.368 . S
H763 C771 0.950 . S
H764 C769 0.950 . S
H765 C770 0.949 . S
H766 C772 0.950 . S
H767 C773 0.950 . S
H768 C774 0.949 . S
C769 H764 0.950 . S
C769 C771 1.327 . S
C769 C775 1.429 . S
C770 C762 1.574 . S
C770 H765 0.949 . S
C770 C776 1.368 1_556 S
C771 C755 1.349 . S
C771 H763 0.950 . S
C771 C769 1.327 . S
C772 C760 1.349 . S
C772 H766 0.950 . S
C772 C773 1.327 . S
C773 H767 0.950 . S
C773 C772 1.327 . S
C773 C777 1.429 . S
C774 C757 1.574 . S
C774 H768 0.949 . S
C774 C778 1.368 1_554 S
C775 C756 1.429 1_554 S
C775 C769 1.429 . S
C775 C776 1.523 . S
C776 C757 1.368 . S
C776 C770 1.368 1_554 S
C776 C775 1.523 . S
C777 C761 1.429 . S
C777 C773 1.429 . S
C777 C778 1.523 . S
C778 C762 1.368 . S
C778 C774 1.368 1_556 S
C778 C777 1.523 . S
H779 C754 0.950 1_556 S
H780 C756 0.950 . S
H781 C757 0.949 . S
H782 C759 0.950 1_554 S
H783 C761 0.950 1_554 S
C784 C785 1.349 . S
C784 C786 1.327 . S
C784 H809 0.950 . S
C785 C784 1.349 . S
C785 C801 1.349 . S
C786 C784 1.327 . S
C786 C805 1.429 . S
C786 H810 0.950 . S
C787 C804 1.574 . S
C787 C806 1.368 . S
C787 H811 0.949 . S
H788 C792 0.949 . S
C789 C790 1.349 . S
C789 C791 1.327 . S
C789 H812 0.950 . S
C790 C789 1.349 . S
C790 C802 1.349 . S
C791 C789 1.327 . S
C791 C807 1.429 . S
C791 H813 0.950 . S
C792 H788 0.949 . S
C792 C800 1.574 . S
C792 C808 1.368 . S
H793 C801 0.950 . S
H794 C799 0.950 . S
H795 C800 0.949 . S
H796 C802 0.950 . S
H797 C803 0.950 . S
H798 C804 0.949 . S
C799 H794 0.950 . S
C799 C801 1.327 . S
C799 C805 1.429 . S
C800 C792 1.574 . S
C800 H795 0.949 . S
C800 C806 1.368 . S
C801 C785 1.349 . S
C801 H793 0.950 . S
C801 C799 1.327 . S
C802 C790 1.349 . S
C802 H796 0.950 . S
C802 C803 1.327 . S
C803 H797 0.950 . S
C803 C802 1.327 . S
C803 C807 1.429 . S
C804 C787 1.574 . S
C804 H798 0.949 . S
C804 C808 1.368 . S
C805 C786 1.429 . S
C805 C799 1.429 . S
C805 C806 1.523 . S
C806 C787 1.368 . S
C806 C800 1.368 . S
C806 C805 1.523 . S
C807 C791 1.429 . S
C807 C803 1.429 . S
C807 C808 1.523 . S
C808 C792 1.368 . S
C808 C804 1.368 . S
C808 C807 1.523 . S
H809 C784 0.950 . S
H810 C786 0.950 . S
H811 C787 0.949 . S
H812 C789 0.950 . S
H813 C791 0.950 . S
C814 C815 1.349 . S
C814 C816 1.327 . S
C814 H839 0.950 . S
C815 C814 1.349 . S
C815 C831 1.349 . S
C816 C814 1.327 . S
C816 C835 1.429 . S
C816 H840 0.950 . S
C817 C834 1.574 . S
C817 C836 1.368 . S
C817 H841 0.949 . S
H818 C822 0.949 . S
C819 C820 1.349 . S
C819 C821 1.327 . S
C819 H842 0.950 . S
C820 C819 1.349 . S
C820 C832 1.349 . S
C821 C819 1.327 . S
C821 C837 1.429 . S
C821 H843 0.950 . S
C822 H818 0.949 . S
C822 C830 1.574 . S
C822 C838 1.368 . S
H823 C831 0.950 . S
H824 C829 0.950 . S
H825 C830 0.949 . S
H826 C832 0.950 . S
H827 C833 0.950 . S
H828 C834 0.949 . S
C829 H824 0.950 . S
C829 C831 1.327 . S
C829 C835 1.429 . S
C830 C822 1.574 . S
C830 H825 0.949 . S
C830 C836 1.368 . S
C831 C815 1.349 . S
C831 H823 0.950 . S
C831 C829 1.327 . S
C832 C820 1.349 . S
C832 H826 0.950 . S
C832 C833 1.327 . S
C833 H827 0.950 . S
C833 C832 1.327 . S
C833 C837 1.429 . S
C834 C817 1.574 . S
C834 H828 0.949 . S
C834 C838 1.368 . S
C835 C816 1.429 . S
C835 C829 1.429 . S
C835 C836 1.523 . S
C836 C817 1.368 . S
C836 C830 1.368 . S
C836 C835 1.523 . S
C837 C821 1.429 . S
C837 C833 1.429 . S
C837 C838 1.523 . S
C838 C822 1.368 . S
C838 C834 1.368 . S
C838 C837 1.523 . S
H839 C814 0.950 . S
H840 C816 0.950 . S
H841 C817 0.949 . S
H842 C819 0.950 . S
H843 C821 0.950 . S
C844 C845 1.349 . S
C844 C846 1.327 . S
C844 H869 0.950 . S
C845 C844 1.349 . S
C845 C861 1.349 . S
C846 C844 1.327 . S
C846 C865 1.429 . S
C846 H870 0.950 . S
C847 C864 1.574 . S
C847 C866 1.368 . S
C847 H871 0.949 . S
H848 C852 0.949 . S
C849 C850 1.349 . S
C849 C851 1.327 . S
C849 H872 0.950 . S
C850 C849 1.349 . S
C850 C862 1.349 . S
C851 C849 1.327 . S
C851 C867 1.429 . S
C851 H873 0.950 . S
C852 H848 0.949 . S
C852 C860 1.574 . S
C852 C868 1.368 . S
H853 C861 0.950 . S
H854 C859 0.950 . S
H855 C860 0.949 . S
H856 C862 0.950 . S
H857 C863 0.950 . S
H858 C864 0.949 . S
C859 H854 0.950 . S
C859 C861 1.327 . S
C859 C865 1.429 . S
C860 C852 1.574 . S
C860 H855 0.949 . S
C860 C866 1.368 . S
C861 C845 1.349 . S
C861 H853 0.950 . S
C861 C859 1.327 . S
C862 C850 1.349 . S
C862 H856 0.950 . S
C862 C863 1.327 . S
C863 H857 0.950 . S
C863 C862 1.327 . S
C863 C867 1.429 . S
C864 C847 1.574 . S
C864 H858 0.949 . S
C864 C868 1.368 . S
C865 C846 1.429 . S
C865 C859 1.429 . S
C865 C866 1.523 . S
C866 C847 1.368 . S
C866 C860 1.368 . S
C866 C865 1.523 . S
C867 C851 1.429 . S
C867 C863 1.429 . S
C867 C868 1.523 . S
C868 C852 1.368 . S
C868 C864 1.368 . S
C868 C867 1.523 . S
H869 C844 0.950 . S
H870 C846 0.950 . S
H871 C847 0.949 . S
H872 C849 0.950 . S
H873 C851 0.950 . S
C874 C875 1.349 . S
C874 C876 1.327 . S
C874 H899 0.950 . S
C875 C874 1.349 . S
C875 C891 1.349 . S
C876 C874 1.327 . S
C876 C895 1.429 . S
C876 H900 0.950 . S
C877 C894 1.574 . S
C877 C896 1.368 . S
C877 H901 0.949 . S
H878 C882 0.949 . S
C879 C880 1.349 . S
C879 C881 1.327 . S
C879 H902 0.950 . S
C880 C879 1.349 . S
C880 C892 1.349 . S
C881 C879 1.327 . S
C881 C897 1.429 . S
C881 H903 0.950 . S
C882 H878 0.949 . S
C882 C890 1.574 . S
C882 C898 1.368 . S
H883 C891 0.950 . S
H884 C889 0.950 . S
H885 C890 0.949 . S
H886 C892 0.950 . S
H887 C893 0.950 . S
H888 C894 0.949 . S
C889 H884 0.950 . S
C889 C891 1.327 . S
C889 C895 1.429 . S
C890 C882 1.574 . S
C890 H885 0.949 . S
C890 C896 1.368 . S
C891 C875 1.349 . S
C891 H883 0.950 . S
C891 C889 1.327 . S
C892 C880 1.349 . S
C892 H886 0.950 . S
C892 C893 1.327 . S
C893 H887 0.950 . S
C893 C892 1.327 . S
C893 C897 1.429 . S
C894 C877 1.574 . S
C894 H888 0.949 . S
C894 C898 1.368 . S
C895 C876 1.429 . S
C895 C889 1.429 . S
C895 C896 1.523 . S
C896 C877 1.368 . S
C896 C890 1.368 . S
C896 C895 1.523 . S
C897 C881 1.429 . S
C897 C893 1.429 . S
C897 C898 1.523 . S
C898 C882 1.368 . S
C898 C894 1.368 . S
C898 C897 1.523 . S
H899 C874 0.950 . S
H900 C876 0.950 . S
H901 C877 0.949 . S
H902 C879 0.950 . S
H903 C881 0.950 . S
C904 C905 1.349 . S
C904 C906 1.327 1_565 S
C904 H929 0.950 . S
C905 C904 1.349 . S
C905 C921 1.349 . S
C906 C904 1.327 1_545 S
C906 C925 1.429 . S
C906 H930 0.950 . S
C907 C924 1.574 . S
C907 C926 1.368 . S
C907 H931 0.949 . S
H908 C912 0.949 . S
C909 C910 1.349 . S
C909 C911 1.327 . S
C909 H932 0.950 . S
C910 C909 1.349 . S
C910 C922 1.349 . S
C911 C909 1.327 . S
C911 C927 1.429 . S
C911 H933 0.950 . S
C912 H908 0.949 . S
C912 C920 1.574 . S
C912 C928 1.368 . S
H913 C921 0.950 . S
H914 C919 0.950 . S
H915 C920 0.949 . S
H916 C922 0.950 . S
H917 C923 0.950 . S
H918 C924 0.949 . S
C919 H914 0.950 . S
C919 C921 1.327 1_545 S
C919 C925 1.429 . S
C920 C912 1.574 . S
C920 H915 0.949 . S
C920 C926 1.368 . S
C921 C905 1.349 . S
C921 H913 0.950 . S
C921 C919 1.327 1_565 S
C922 C910 1.349 . S
C922 H916 0.950 . S
C922 C923 1.327 . S
C923 H917 0.950 . S
C923 C922 1.327 . S
C923 C927 1.429 . S
C924 C907 1.574 . S
C924 H918 0.949 . S
C924 C928 1.368 . S
C925 C906 1.429 . S
C925 C919 1.429 . S
C925 C926 1.523 . S
C926 C907 1.368 . S
C926 C920 1.368 . S
C926 C925 1.523 . S
C927 C911 1.429 . S
C927 C923 1.429 . S
C927 C928 1.523 . S
C928 C912 1.368 . S
C928 C924 1.368 . S
C928 C927 1.523 . S
H929 C904 0.950 . S
H930 C906 0.950 . S
H931 C907 0.949 . S
H932 C909 0.950 . S
H933 C911 0.950 . S
C934 C935 1.349 . S
C934 C936 1.327 . S
C934 H959 0.950 . S
C935 C934 1.349 . S
C935 C951 1.349 . S
C936 C934 1.327 . S
C936 C955 1.429 . S
C936 H960 0.950 . S
C937 C954 1.574 . S
C937 C956 1.368 . S
C937 H961 0.949 . S
H938 C942 0.949 . S
C939 C940 1.349 . S
C939 C941 1.327 1_655 S
C939 H962 0.950 . S
C940 C939 1.349 . S
C940 C952 1.349 . S
C941 C939 1.327 1_455 S
C941 C957 1.429 . S
C941 H963 0.950 . S
C942 H938 0.949 . S
C942 C950 1.574 . S
C942 C958 1.368 . S
H943 C951 0.950 . S
H944 C949 0.950 . S
H945 C950 0.949 . S
H946 C952 0.950 . S
H947 C953 0.966 . S
H948 C954 0.949 . S
C949 H944 0.950 . S
C949 C951 1.327 . S
C949 C955 1.429 . S
C950 C942 1.574 . S
C950 H945 0.949 . S
C950 C956 1.368 . S
C951 C935 1.349 . S
C951 H943 0.950 . S
C951 C949 1.327 . S
C952 C940 1.349 . S
C952 H946 0.950 . S
C952 C953 1.268 1_655 S
C953 H947 0.966 . S
C953 C952 1.268 1_455 S
C953 C957 1.475 . S
C954 C937 1.574 . S
C954 H948 0.949 . S
C954 C958 1.368 . S
C955 C936 1.429 . S
C955 C949 1.429 . S
C955 C956 1.523 . S
C956 C937 1.368 . S
C956 C950 1.368 . S
C956 C955 1.523 . S
C957 C941 1.429 . S
C957 C953 1.475 . S
C957 C958 1.523 . S
C958 C942 1.368 . S
C958 C954 1.368 . S
C958 C957 1.523 . S
H959 C934 0.950 . S
H960 C936 0.950 . S
H961 C937 0.949 . S
H962 C939 0.950 . S
H963 C941 0.950 . S
C964 C965 1.349 . S
C964 C966 1.327 . S
C964 H989 0.950 . S
C965 C964 1.349 . S
C965 C981 1.349 . S
C966 C964 1.327 . S
C966 C985 1.429 . S
C966 H990 0.950 . S
C967 C984 1.574 . S
C967 C986 1.368 . S
C967 H991 0.949 . S
H968 C972 0.949 . S
C969 C970 1.349 . S
C969 C971 1.344 . S
C969 H992 0.950 . S
C970 C969 1.349 . S
C970 C982 1.349 . S
C971 C969 1.344 . S
C971 C987 1.414 1_545 S
C971 H993 0.947 1_545 S
C972 H968 0.949 . S
C972 C980 1.574 . S
C972 C988 1.368 . S
H973 C981 0.950 . S
H974 C979 0.950 . S
H975 C980 0.949 . S
H976 C982 0.950 . S
H977 C983 0.950 . S
H978 C984 0.949 . S
C979 H974 0.950 . S
C979 C981 1.327 . S
C979 C985 1.429 . S
C980 C972 1.574 . S
C980 H975 0.949 . S
C980 C986 1.368 . S
C981 C965 1.349 . S
C981 H973 0.950 . S
C981 C979 1.327 . S
C982 C970 1.349 . S
C982 H976 0.950 . S
C982 C983 1.327 1_545 S
C983 H977 0.950 . S
C983 C982 1.327 1_565 S
C983 C987 1.429 . S
C984 C967 1.574 . S
C984 H978 0.949 . S
C984 C988 1.368 . S
C985 C966 1.429 . S
C985 C979 1.429 . S
C985 C986 1.523 . S
C986 C967 1.368 . S
C986 C980 1.368 . S
C986 C985 1.523 . S
C987 C971 1.414 1_565 S
C987 C983 1.429 . S
C987 C988 1.523 . S
C988 C972 1.368 . S
C988 C984 1.368 . S
C988 C987 1.523 . S
H989 C964 0.950 . S
H990 C966 0.950 . S
H991 C967 0.949 . S
H992 C969 0.950 . S
H993 C971 0.947 1_565 S
C994 C995 1.349 . S
C994 C996 1.327 1_455 S
C994 H1019 0.950 . S
C995 C994 1.349 . S
C995 C1011 1.349 . S
C996 C994 1.327 1_655 S
C996 C1015 1.429 . S
C996 H1020 0.950 . S
C997 C1014 1.574 . S
C997 C1016 1.368 . S
C997 H1021 0.949 . S
H998 C1002 0.949 . S
C999 C1000 1.349 . S
C999 C1001 1.327 . S
C999 H1022 0.950 . S
C1000 C999 1.349 . S
C1000 C1012 1.349 . S
C1001 C999 1.327 . S
C1001 C1017 1.429 . S
C1001 H1023 0.950 . S
C1002 H998 0.949 . S
C1002 C1010 1.574 . S
C1002 C1018 1.368 . S
H1003 C1011 0.950 . S
H1004 C1009 0.948 1_655 S
H1005 C1010 0.949 . S
H1006 C1012 0.950 . S
H1007 C1013 0.950 . S
H1008 C1014 0.949 . S
C1009 H1004 0.948 1_455 S
C1009 C1011 1.338 . S
C1009 C1015 1.420 1_455 S
C1010 C1002 1.574 . S
C1010 H1005 0.949 . S
C1010 C1016 1.368 . S
C1011 C995 1.349 . S
C1011 H1003 0.950 . S
C1011 C1009 1.338 . S
C1012 C1000 1.349 . S
C1012 H1006 0.950 . S
C1012 C1013 1.327 . S
C1013 H1007 0.950 . S
C1013 C1012 1.327 . S
C1013 C1017 1.429 . S
C1014 C997 1.574 . S
C1014 H1008 0.949 . S
C1014 C1018 1.368 . S
C1015 C996 1.429 . S
C1015 C1009 1.420 1_655 S
C1015 C1016 1.523 . S
C1016 C997 1.368 . S
C1016 C1010 1.368 . S
C1016 C1015 1.523 . S
C1017 C1001 1.429 . S
C1017 C1013 1.429 . S
C1017 C1018 1.523 . S
C1018 C1002 1.368 . S
C1018 C1014 1.368 . S
C1018 C1017 1.523 . S
H1019 C994 0.950 . S
H1020 C996 0.950 . S
H1021 C997 0.949 . S
H1022 C999 0.950 . S
H1023 C1001 0.950 . S
C1024 C1025 1.349 . S
C1024 C1026 1.327 . S
C1024 H1049 0.950 . S
C1025 C1024 1.349 . S
C1025 C1041 1.349 . S
C1026 C1024 1.327 . S
C1026 C1045 1.429 . S
C1026 H1050 0.950 . S
C1027 C1044 1.574 . S
C1027 C1046 1.368 . S
C1027 H1051 0.949 . S
H1028 C1032 0.949 . S
C1029 C1030 1.349 . S
C1029 C1031 1.327 . S
C1029 H1052 0.950 . S
C1030 C1029 1.349 . S
C1030 C1042 1.349 . S
C1031 C1029 1.327 . S
C1031 C1047 1.429 . S
C1031 H1053 0.950 . S
C1032 H1028 0.949 . S
C1032 C1040 1.574 . S
C1032 C1048 1.368 . S
H1033 C1041 0.950 . S
H1034 C1039 0.950 . S
H1035 C1040 0.949 . S
H1036 C1042 0.950 . S
H1037 C1043 0.950 . S
H1038 C1044 0.949 . S
C1039 H1034 0.950 . S
C1039 C1041 1.327 . S
C1039 C1045 1.429 . S
C1040 C1032 1.574 . S
C1040 H1035 0.949 . S
C1040 C1046 1.368 . S
C1041 C1025 1.349 . S
C1041 H1033 0.950 . S
C1041 C1039 1.327 . S
C1042 C1030 1.349 . S
C1042 H1036 0.950 . S
C1042 C1043 1.327 . S
C1043 H1037 0.950 . S
C1043 C1042 1.327 . S
C1043 C1047 1.429 . S
C1044 C1027 1.574 . S
C1044 H1038 0.949 . S
C1044 C1048 1.368 . S
C1045 C1026 1.429 . S
C1045 C1039 1.429 . S
C1045 C1046 1.523 . S
C1046 C1027 1.368 . S
C1046 C1040 1.368 . S
C1046 C1045 1.523 . S
C1047 C1031 1.429 . S
C1047 C1043 1.429 . S
C1047 C1048 1.523 . S
C1048 C1032 1.368 . S
C1048 C1044 1.368 . S
C1048 C1047 1.523 . S
H1049 C1024 0.950 . S
H1050 C1026 0.950 . S
H1051 C1027 0.949 . S
H1052 C1029 0.950 . S
H1053 C1031 0.950 . S
C1054 C1055 1.349 . S
C1054 C1056 1.327 . S
C1054 H1079 0.950 . S
C1055 C1054 1.349 . S
C1055 C1071 1.349 . S
C1056 C1054 1.327 . S
C1056 C1075 1.429 . S
C1056 H1080 0.950 . S
C1057 C1074 1.574 . S
C1057 C1076 1.368 . S
C1057 H1081 0.949 . S
H1058 C1062 0.949 . S
C1059 C1060 1.349 . S
C1059 C1061 1.327 . S
C1059 H1082 0.950 . S
C1060 C1059 1.349 . S
C1060 C1072 1.349 . S
C1061 C1059 1.327 . S
C1061 C1077 1.429 . S
C1061 H1083 0.950 . S
C1062 H1058 0.949 . S
C1062 C1070 1.574 . S
C1062 C1078 1.368 . S
H1063 C1071 0.950 . S
H1064 C1069 0.950 . S
H1065 C1070 0.949 . S
H1066 C1072 0.950 . S
H1067 C1073 0.950 . S
H1068 C1074 0.949 . S
C1069 H1064 0.950 . S
C1069 C1071 1.327 . S
C1069 C1075 1.429 . S
C1070 C1062 1.574 . S
C1070 H1065 0.949 . S
C1070 C1076 1.368 . S
C1071 C1055 1.349 . S
C1071 H1063 0.950 . S
C1071 C1069 1.327 . S
C1072 C1060 1.349 . S
C1072 H1066 0.950 . S
C1072 C1073 1.327 . S
C1073 H1067 0.950 . S
C1073 C1072 1.327 . S
C1073 C1077 1.429 . S
C1074 C1057 1.574 . S
C1074 H1068 0.949 . S
C1074 C1078 1.368 . S
C1075 C1056 1.429 . S
C1075 C1069 1.429 . S
C1075 C1076 1.523 . S
C1076 C1057 1.368 . S
C1076 C1070 1.368 . S
C1076 C1075 1.523 . S
C1077 C1061 1.429 . S
C1077 C1073 1.429 . S
C1077 C1078 1.523 . S
C1078 C1062 1.368 . S
C1078 C1074 1.368 . S
C1078 C1077 1.523 . S
H1079 C1054 0.950 . S
H1080 C1056 0.950 . S
H1081 C1057 0.949 . S
H1082 C1059 0.950 . S
H1083 C1061 0.950 . S
C1084 C1085 1.349 . S
C1084 C1086 1.327 . S
C1084 H1109 0.950 . S
C1085 C1084 1.349 . S
C1085 C1101 1.349 . S
C1086 C1084 1.327 . S
C1086 C1105 1.429 . S
C1086 H1110 0.950 . S
C1087 C1104 1.574 . S
C1087 C1106 1.368 . S
C1087 H1111 0.949 . S
H1088 C1092 0.949 . S
C1089 C1090 1.349 . S
C1089 C1091 1.327 . S
C1089 H1112 0.950 . S
C1090 C1089 1.349 . S
C1090 C1102 1.349 . S
C1091 C1089 1.327 . S
C1091 C1107 1.429 . S
C1091 H1113 0.950 . S
C1092 H1088 0.949 . S
C1092 C1100 1.574 . S
C1092 C1108 1.368 . S
H1093 C1101 0.950 . S
H1094 C1099 0.950 . S
H1095 C1100 0.949 . S
H1096 C1102 0.950 . S
H1097 C1103 0.950 . S
H1098 C1104 0.949 . S
C1099 H1094 0.950 . S
C1099 C1101 1.327 . S
C1099 C1105 1.429 . S
C1100 C1092 1.574 . S
C1100 H1095 0.949 . S
C1100 C1106 1.368 . S
C1101 C1085 1.349 . S
C1101 H1093 0.950 . S
C1101 C1099 1.327 . S
C1102 C1090 1.349 . S
C1102 H1096 0.950 . S
C1102 C1103 1.327 . S
C1103 H1097 0.950 . S
C1103 C1102 1.327 . S
C1103 C1107 1.429 . S
C1104 C1087 1.574 . S
C1104 H1098 0.949 . S
C1104 C1108 1.368 . S
C1105 C1086 1.429 . S
C1105 C1099 1.429 . S
C1105 C1106 1.523 . S
C1106 C1087 1.368 . S
C1106 C1100 1.368 . S
C1106 C1105 1.523 . S
C1107 C1091 1.429 . S
C1107 C1103 1.429 . S
C1107 C1108 1.523 . S
C1108 C1092 1.368 . S
C1108 C1104 1.368 . S
C1108 C1107 1.523 . S
H1109 C1084 0.950 . S
H1110 C1086 0.950 . S
H1111 C1087 0.949 . S
H1112 C1089 0.950 . S
H1113 C1091 0.950 . S
C1114 C1115 1.349 . S
C1114 C1116 1.327 . S
C1114 H1139 0.950 . S
C1115 C1114 1.349 . S
C1115 C1131 1.349 . S
C1116 C1114 1.327 . S
C1116 C1135 1.429 . S
C1116 H1140 0.950 . S
C1117 C1134 1.574 . S
C1117 C1136 1.368 . S
C1117 H1141 0.949 . S
H1118 C1122 0.949 . S
C1119 C1120 1.349 . S
C1119 C1121 1.327 . S
C1119 H1142 0.950 . S
C1120 C1119 1.349 . S
C1120 C1132 1.349 . S
C1121 C1119 1.327 . S
C1121 C1137 1.429 . S
C1121 H1143 0.950 . S
C1122 H1118 0.949 . S
C1122 C1130 1.574 . S
C1122 C1138 1.368 . S
H1123 C1131 0.950 . S
H1124 C1129 0.950 . S
H1125 C1130 0.949 . S
H1126 C1132 0.950 . S
H1127 C1133 0.950 . S
H1128 C1134 0.949 . S
C1129 H1124 0.950 . S
C1129 C1131 1.327 . S
C1129 C1135 1.429 . S
C1130 C1122 1.574 . S
C1130 H1125 0.949 . S
C1130 C1136 1.368 . S
C1131 C1115 1.349 . S
C1131 H1123 0.950 . S
C1131 C1129 1.327 . S
C1132 C1120 1.349 . S
C1132 H1126 0.950 . S
C1132 C1133 1.327 . S
C1133 H1127 0.950 . S
C1133 C1132 1.327 . S
C1133 C1137 1.429 . S
C1134 C1117 1.574 . S
C1134 H1128 0.949 . S
C1134 C1138 1.368 . S
C1135 C1116 1.429 . S
C1135 C1129 1.429 . S
C1135 C1136 1.523 . S
C1136 C1117 1.368 . S
C1136 C1130 1.368 . S
C1136 C1135 1.523 . S
C1137 C1121 1.429 . S
C1137 C1133 1.429 . S
C1137 C1138 1.523 . S
C1138 C1122 1.368 . S
C1138 C1134 1.368 . S
C1138 C1137 1.523 . S
H1139 C1114 0.950 . S
H1140 C1116 0.950 . S
H1141 C1117 0.949 . S
H1142 C1119 0.950 . S
H1143 C1121 0.950 . S
C1144 C1145 1.349 . S
C1144 C1146 1.327 . S
C1144 H1169 0.950 . S
C1145 C1144 1.349 . S
C1145 C1161 1.349 . S
C1146 C1144 1.327 . S
C1146 C1165 1.429 . S
C1146 H1170 0.950 . S
C1147 C1164 1.574 . S
C1147 C1166 1.368 . S
C1147 H1171 0.949 . S
H1148 C1152 0.949 . S
C1149 C1150 1.349 . S
C1149 C1151 1.327 . S
C1149 H1172 0.950 . S
C1150 C1149 1.349 . S
C1150 C1162 1.349 . S
C1151 C1149 1.327 . S
C1151 C1167 1.429 . S
C1151 H1173 0.950 . S
C1152 H1148 0.949 . S
C1152 C1160 1.574 . S
C1152 C1168 1.368 . S
H1153 C1161 0.950 . S
H1154 C1159 0.950 . S
H1155 C1160 0.949 . S
H1156 C1162 0.950 . S
H1157 C1163 0.950 . S
H1158 C1164 0.949 . S
C1159 H1154 0.950 . S
C1159 C1161 1.327 . S
C1159 C1165 1.429 . S
C1160 C1152 1.574 . S
C1160 H1155 0.949 . S
C1160 C1166 1.368 . S
C1161 C1145 1.349 . S
C1161 H1153 0.950 . S
C1161 C1159 1.327 . S
C1162 C1150 1.349 . S
C1162 H1156 0.950 . S
C1162 C1163 1.327 . S
C1163 H1157 0.950 . S
C1163 C1162 1.327 . S
C1163 C1167 1.429 . S
C1164 C1147 1.574 . S
C1164 H1158 0.949 . S
C1164 C1168 1.368 . S
C1165 C1146 1.429 . S
C1165 C1159 1.429 . S
C1165 C1166 1.523 . S
C1166 C1147 1.368 . S
C1166 C1160 1.368 . S
C1166 C1165 1.523 . S
C1167 C1151 1.429 . S
C1167 C1163 1.429 . S
C1167 C1168 1.523 . S
C1168 C1152 1.368 . S
C1168 C1164 1.368 . S
C1168 C1167 1.523 . S
H1169 C1144 0.950 . S
H1170 C1146 0.950 . S
H1171 C1147 0.949 . S
H1172 C1149 0.950 . S
H1173 C1151 0.950 . S
C1174 C1175 1.349 . S
C1174 C1176 1.327 . S
C1174 H1199 0.950 . S
C1175 C1174 1.349 . S
C1175 C1191 1.349 . S
C1176 C1174 1.327 . S
C1176 C1195 1.429 . S
C1176 H1200 0.950 . S
C1177 C1194 1.574 . S
C1177 C1196 1.368 . S
C1177 H1201 0.949 . S
H1178 C1182 0.949 . S
C1179 C1180 1.349 . S
C1179 C1181 1.327 . S
C1179 H1202 0.950 . S
C1180 C1179 1.349 . S
C1180 C1192 1.349 . S
C1181 C1179 1.327 . S
C1181 C1197 1.429 . S
C1181 H1203 0.950 . S
C1182 H1178 0.949 . S
C1182 C1190 1.574 . S
C1182 C1198 1.368 . S
H1183 C1191 0.950 . S
H1184 C1189 0.950 . S
H1185 C1190 0.949 . S
H1186 C1192 0.950 . S
H1187 C1193 0.950 . S
H1188 C1194 0.949 . S
C1189 H1184 0.950 . S
C1189 C1191 1.327 . S
C1189 C1195 1.429 . S
C1190 C1182 1.574 . S
C1190 H1185 0.949 . S
C1190 C1196 1.368 . S
C1191 C1175 1.349 . S
C1191 H1183 0.950 . S
C1191 C1189 1.327 . S
C1192 C1180 1.349 . S
C1192 H1186 0.950 . S
C1192 C1193 1.327 . S
C1193 H1187 0.950 . S
C1193 C1192 1.327 . S
C1193 C1197 1.429 . S
C1194 C1177 1.574 . S
C1194 H1188 0.949 . S
C1194 C1198 1.368 . S
C1195 C1176 1.429 . S
C1195 C1189 1.429 . S
C1195 C1196 1.523 . S
C1196 C1177 1.368 . S
C1196 C1190 1.368 . S
C1196 C1195 1.523 . S
C1197 C1181 1.429 . S
C1197 C1193 1.429 . S
C1197 C1198 1.523 . S
C1198 C1182 1.368 . S
C1198 C1194 1.368 . S
C1198 C1197 1.523 . S
H1199 C1174 0.950 . S
H1200 C1176 0.950 . S
H1201 C1177 0.949 . S
H1202 C1179 0.950 . S
H1203 C1181 0.950 . S
C1204 C1205 1.349 . S
C1204 C1206 1.327 . S
C1204 H1229 0.950 . S
C1205 C1204 1.349 . S
C1205 C1221 1.349 . S
C1206 C1204 1.327 . S
C1206 C1225 1.429 . S
C1206 H1230 0.950 . S
C1207 C1224 1.574 . S
C1207 C1226 1.368 . S
C1207 H1231 0.949 . S
H1208 C1212 0.949 . S
C1209 C1210 1.349 . S
C1209 C1211 1.327 . S
C1209 H1232 0.950 . S
C1210 C1209 1.349 . S
C1210 C1222 1.349 . S
C1211 C1209 1.327 . S
C1211 C1227 1.429 . S
C1211 H1233 0.950 . S
C1212 H1208 0.949 . S
C1212 C1220 1.574 . S
C1212 C1228 1.368 . S
H1213 C1221 0.950 . S
H1214 C1219 0.950 . S
H1215 C1220 0.949 . S
H1216 C1222 0.950 . S
H1217 C1223 0.950 . S
H1218 C1224 0.949 . S
C1219 H1214 0.950 . S
C1219 C1221 1.327 . S
C1219 C1225 1.429 . S
C1220 C1212 1.574 . S
C1220 H1215 0.949 . S
C1220 C1226 1.368 . S
C1221 C1205 1.349 . S
C1221 H1213 0.950 . S
C1221 C1219 1.327 . S
C1222 C1210 1.349 . S
C1222 H1216 0.950 . S
C1222 C1223 1.327 . S
C1223 H1217 0.950 . S
C1223 C1222 1.327 . S
C1223 C1227 1.429 . S
C1224 C1207 1.574 . S
C1224 H1218 0.949 . S
C1224 C1228 1.368 . S
C1225 C1206 1.429 . S
C1225 C1219 1.429 . S
C1225 C1226 1.523 . S
C1226 C1207 1.368 . S
C1226 C1220 1.368 . S
C1226 C1225 1.523 . S
C1227 C1211 1.429 . S
C1227 C1223 1.429 . S
C1227 C1228 1.523 . S
C1228 C1212 1.368 . S
C1228 C1224 1.368 . S
C1228 C1227 1.523 . S
H1229 C1204 0.950 . S
H1230 C1206 0.950 . S
H1231 C1207 0.949 . S
H1232 C1209 0.950 . S
H1233 C1211 0.950 . S
C1234 C1235 1.349 . S
C1234 C1236 1.327 . S
C1234 H1259 0.950 . S
C1235 C1234 1.349 . S
C1235 C1251 1.349 . S
C1236 C1234 1.327 . S
C1236 C1255 1.429 . S
C1236 H1260 0.950 . S
C1237 C1254 1.574 . S
C1237 C1256 1.368 . S
C1237 H1261 0.949 . S
H1238 C1242 0.949 . S
C1239 C1240 1.349 . S
C1239 C1241 1.327 . S
C1239 H1262 0.950 . S
C1240 C1239 1.349 . S
C1240 C1252 1.349 . S
C1241 C1239 1.327 . S
C1241 C1257 1.429 . S
C1241 H1263 0.950 . S
C1242 H1238 0.949 . S
C1242 C1250 1.574 . S
C1242 C1258 1.368 . S
H1243 C1251 0.950 . S
H1244 C1249 0.950 . S
H1245 C1250 0.949 . S
H1246 C1252 0.950 . S
H1247 C1253 0.950 . S
H1248 C1254 0.949 . S
C1249 H1244 0.950 . S
C1249 C1251 1.327 . S
C1249 C1255 1.429 . S
C1250 C1242 1.574 . S
C1250 H1245 0.949 . S
C1250 C1256 1.368 . S
C1251 C1235 1.349 . S
C1251 H1243 0.950 . S
C1251 C1249 1.327 . S
C1252 C1240 1.349 . S
C1252 H1246 0.950 . S
C1252 C1253 1.327 . S
C1253 H1247 0.950 . S
C1253 C1252 1.327 . S
C1253 C1257 1.429 . S
C1254 C1237 1.574 . S
C1254 H1248 0.949 . S
C1254 C1258 1.368 . S
C1255 C1236 1.429 . S
C1255 C1249 1.429 . S
C1255 C1256 1.523 . S
C1256 C1237 1.368 . S
C1256 C1250 1.368 . S
C1256 C1255 1.523 . S
C1257 C1241 1.429 . S
C1257 C1253 1.429 . S
C1257 C1258 1.523 . S
C1258 C1242 1.368 . S
C1258 C1254 1.368 . S
C1258 C1257 1.523 . S
H1259 C1234 0.950 . S
H1260 C1236 0.950 . S
H1261 C1237 0.949 . S
H1262 C1239 0.950 . S
H1263 C1241 0.950 . S
C1264 C1265 1.349 . S
C1264 C1266 1.327 . S
C1264 H1289 0.950 . S
C1265 C1264 1.349 . S
C1265 C1281 1.349 . S
C1266 C1264 1.327 . S
C1266 C1285 1.429 . S
C1266 H1290 0.950 . S
C1267 C1284 1.574 . S
C1267 C1286 1.368 . S
C1267 H1291 0.949 . S
H1268 C1272 0.949 . S
C1269 C1270 1.349 . S
C1269 C1271 1.327 . S
C1269 H1292 0.950 . S
C1270 C1269 1.349 . S
C1270 C1282 1.349 1_554 S
C1271 C1269 1.327 . S
C1271 C1287 1.429 1_554 S
C1271 H1293 0.950 . S
C1272 H1268 0.949 . S
C1272 C1280 1.574 . S
C1272 C1288 1.368 . S
H1273 C1281 0.950 . S
H1274 C1279 0.950 . S
H1275 C1280 0.949 . S
H1276 C1282 0.950 . S
H1277 C1283 0.950 . S
H1278 C1284 0.949 . S
C1279 H1274 0.950 . S
C1279 C1281 1.327 . S
C1279 C1285 1.429 . S
C1280 C1272 1.574 . S
C1280 H1275 0.949 . S
C1280 C1286 1.368 . S
C1281 C1265 1.349 . S
C1281 H1273 0.950 . S
C1281 C1279 1.327 . S
C1282 C1270 1.349 1_556 S
C1282 H1276 0.950 . S
C1282 C1283 1.327 . S
C1283 H1277 0.950 . S
C1283 C1282 1.327 . S
C1283 C1287 1.429 . S
C1284 C1267 1.574 . S
C1284 H1278 0.949 . S
C1284 C1288 1.368 . S
C1285 C1266 1.429 . S
C1285 C1279 1.429 . S
C1285 C1286 1.523 . S
C1286 C1267 1.368 . S
C1286 C1280 1.368 . S
C1286 C1285 1.523 . S
C1287 C1271 1.429 1_556 S
C1287 C1283 1.429 . S
C1287 C1288 1.523 . S
C1288 C1272 1.368 . S
C1288 C1284 1.368 . S
C1288 C1287 1.523 . S
H1289 C1264 0.950 . S
H1290 C1266 0.950 . S
H1291 C1267 0.949 . S
H1292 C1269 0.950 . S
H1293 C1271 0.950 . S
C1294 C1295 1.349 . S
C1294 C1296 1.327 . S
C1294 H1319 0.950 . S
C1295 C1294 1.349 . S
C1295 C1311 1.349 1_556 S
C1296 C1294 1.327 . S
C1296 C1315 1.429 1_556 S
C1296 H1320 0.950 . S
C1297 C1314 1.574 . S
C1297 C1316 1.368 . S
C1297 H1321 0.949 . S
H1298 C1302 0.949 . S
C1299 C1300 1.349 . S
C1299 C1301 1.327 . S
C1299 H1322 0.950 . S
C1300 C1299 1.349 . S
C1300 C1312 1.349 . S
C1301 C1299 1.327 . S
C1301 C1317 1.429 . S
C1301 H1323 0.950 . S
C1302 H1298 0.949 . S
C1302 C1310 1.574 . S
C1302 C1318 1.368 . S
H1303 C1311 0.950 . S
H1304 C1309 0.950 . S
H1305 C1310 0.949 1_556 S
H1306 C1312 0.950 . S
H1307 C1313 0.950 . S
H1308 C1314 0.949 . S
C1309 H1304 0.950 . S
C1309 C1311 1.327 . S
C1309 C1315 1.429 . S
C1310 C1302 1.574 . S
C1310 H1305 0.949 1_554 S
C1310 C1316 1.368 . S
C1311 C1295 1.349 1_554 S
C1311 H1303 0.950 . S
C1311 C1309 1.327 . S
C1312 C1300 1.349 . S
C1312 H1306 0.950 . S
C1312 C1313 1.327 . S
C1313 H1307 0.950 . S
C1313 C1312 1.327 . S
C1313 C1317 1.429 . S
C1314 C1297 1.574 . S
C1314 H1308 0.949 . S
C1314 C1318 1.368 . S
C1315 C1296 1.429 1_554 S
C1315 C1309 1.429 . S
C1315 C1316 1.523 . S
C1316 C1297 1.368 . S
C1316 C1310 1.368 . S
C1316 C1315 1.523 . S
C1317 C1301 1.429 . S
C1317 C1313 1.429 . S
C1317 C1318 1.523 . S
C1318 C1302 1.368 . S
C1318 C1314 1.368 . S
C1318 C1317 1.523 . S
H1319 C1294 0.950 . S
H1320 C1296 0.950 . S
H1321 C1297 0.949 . S
H1322 C1299 0.950 . S
H1323 C1301 0.950 . S
C1324 C1325 1.349 . S
C1324 C1326 1.327 . S
C1324 H1349 0.950 . S
C1325 C1324 1.349 . S
C1325 C1341 1.349 1_554 S
C1326 C1324 1.327 . S
C1326 C1345 1.429 1_554 S
C1326 H1350 0.950 . S
C1327 C1344 1.574 . S
C1327 C1346 1.368 . S
C1327 H1351 0.949 . S
H1328 C1332 0.949 . S
C1329 C1330 1.349 . S
C1329 C1331 1.327 . S
C1329 H1352 0.950 . S
C1330 C1329 1.349 . S
C1330 C1342 1.349 . S
C1331 C1329 1.327 . S
C1331 C1347 1.429 . S
C1331 H1353 0.950 . S
C1332 H1328 0.949 . S
C1332 C1340 1.574 . S
C1332 C1348 1.368 . S
H1333 C1341 0.950 . S
H1334 C1339 0.950 . S
H1335 C1340 0.949 . S
H1336 C1342 0.950 . S
H1337 C1343 0.950 . S
H1338 C1344 0.949 . S
C1339 H1334 0.950 . S
C1339 C1341 1.327 . S
C1339 C1345 1.429 . S
C1340 C1332 1.574 . S
C1340 H1335 0.949 . S
C1340 C1346 1.368 . S
C1341 C1325 1.349 1_556 S
C1341 H1333 0.950 . S
C1341 C1339 1.327 . S
C1342 C1330 1.349 . S
C1342 H1336 0.950 . S
C1342 C1343 1.327 . S
C1343 H1337 0.950 . S
C1343 C1342 1.327 . S
C1343 C1347 1.429 . S
C1344 C1327 1.574 . S
C1344 H1338 0.949 . S
C1344 C1348 1.368 . S
C1345 C1326 1.429 1_556 S
C1345 C1339 1.429 . S
C1345 C1346 1.523 . S
C1346 C1327 1.368 . S
C1346 C1340 1.368 . S
C1346 C1345 1.523 . S
C1347 C1331 1.429 . S
C1347 C1343 1.429 . S
C1347 C1348 1.523 . S
C1348 C1332 1.368 . S
C1348 C1344 1.368 . S
C1348 C1347 1.523 . S
H1349 C1324 0.950 . S
H1350 C1326 0.950 . S
H1351 C1327 0.949 . S
H1352 C1329 0.950 . S
H1353 C1331 0.950 . S
C1354 C1355 1.349 . S
C1354 C1356 1.327 . S
C1354 H1379 0.950 . S
C1355 C1354 1.349 . S
C1355 C1371 1.349 1_556 S
C1356 C1354 1.327 . S
C1356 C1375 1.429 1_556 S
C1356 H1380 0.950 . S
C1357 C1374 1.574 . S
C1357 C1376 1.368 . S
C1357 H1381 0.949 . S
H1358 C1362 0.949 . S
C1359 C1360 1.349 . S
C1359 C1361 1.327 . S
C1359 H1382 0.950 . S
C1360 C1359 1.349 . S
C1360 C1372 1.349 . S
C1361 C1359 1.327 . S
C1361 C1377 1.429 . S
C1361 H1383 0.950 . S
C1362 H1358 0.949 . S
C1362 C1370 1.574 . S
C1362 C1378 1.368 . S
H1363 C1371 0.950 . S
H1364 C1369 0.950 . S
H1365 C1370 0.939 1_556 S
H1366 C1372 0.950 . S
H1367 C1373 0.950 . S
H1368 C1374 0.949 . S
C1369 H1364 0.950 . S
C1369 C1371 1.327 . S
C1369 C1375 1.429 . S
C1370 C1362 1.574 . S
C1370 H1365 0.939 1_554 S
C1370 C1376 1.368 . S
C1371 C1355 1.349 1_554 S
C1371 H1363 0.950 . S
C1371 C1369 1.327 . S
C1372 C1360 1.349 . S
C1372 H1366 0.950 . S
C1372 C1373 1.327 . S
C1373 H1367 0.950 . S
C1373 C1372 1.327 . S
C1373 C1377 1.429 . S
C1374 C1357 1.574 . S
C1374 H1368 0.949 . S
C1374 C1378 1.368 . S
C1375 C1356 1.429 1_554 S
C1375 C1369 1.429 . S
C1375 C1376 1.523 . S
C1376 C1357 1.368 . S
C1376 C1370 1.368 . S
C1376 C1375 1.523 . S
C1377 C1361 1.429 . S
C1377 C1373 1.429 . S
C1377 C1378 1.523 . S
C1378 C1362 1.368 . S
C1378 C1374 1.368 . S
C1378 C1377 1.523 . S
H1379 C1354 0.950 . S
H1380 C1356 0.950 . S
H1381 C1357 0.949 . S
H1382 C1359 0.950 . S
H1383 C1361 0.950 . S
C1384 C1385 1.349 . S
C1384 C1386 1.327 . S
C1384 H1409 0.950 . S
C1385 C1384 1.349 . S
C1385 C1401 1.349 . S
C1386 C1384 1.327 . S
C1386 C1405 1.429 . S
C1386 H1410 0.950 . S
C1387 C1404 1.574 . S
C1387 C1406 1.368 . S
C1387 H1411 0.949 . S
H1388 C1392 0.949 . S
C1389 C1390 1.349 . S
C1389 C1391 1.327 . S
C1389 H1412 0.950 . S
C1390 C1389 1.349 . S
C1390 C1402 1.349 . S
C1391 C1389 1.327 . S
C1391 C1407 1.429 . S
C1391 H1413 0.950 . S
C1392 H1388 0.949 . S
C1392 C1400 1.574 . S
C1392 C1408 1.368 . S
H1393 C1401 0.950 . S
H1394 C1399 0.950 . S
H1395 C1400 0.949 . S
H1396 C1402 0.950 . S
H1397 C1403 0.950 . S
H1398 C1404 0.949 . S
C1399 H1394 0.950 . S
C1399 C1401 1.327 . S
C1399 C1405 1.429 . S
C1400 C1392 1.574 . S
C1400 H1395 0.949 . S
C1400 C1406 1.368 . S
C1401 C1385 1.349 . S
C1401 H1393 0.950 . S
C1401 C1399 1.327 . S
C1402 C1390 1.349 . S
C1402 H1396 0.950 . S
C1402 C1403 1.327 . S
C1403 H1397 0.950 . S
C1403 C1402 1.327 . S
C1403 C1407 1.429 . S
C1404 C1387 1.574 . S
C1404 H1398 0.949 . S
C1404 C1408 1.368 . S
C1405 C1386 1.429 . S
C1405 C1399 1.429 . S
C1405 C1406 1.523 . S
C1406 C1387 1.368 . S
C1406 C1400 1.368 . S
C1406 C1405 1.523 . S
C1407 C1391 1.429 . S
C1407 C1403 1.429 . S
C1407 C1408 1.523 . S
C1408 C1392 1.368 . S
C1408 C1404 1.368 . S
C1408 C1407 1.523 . S
H1409 C1384 0.950 . S
H1410 C1386 0.950 . S
H1411 C1387 0.949 . S
H1412 C1389 0.950 . S
H1413 C1391 0.950 . S
C1414 C1415 1.349 . S
C1414 C1416 1.327 . S
C1414 H1439 0.950 . S
C1415 C1414 1.349 . S
C1415 C1431 1.349 . S
C1416 C1414 1.327 . S
C1416 C1435 1.429 . S
C1416 H1440 0.950 . S
C1417 C1434 1.574 . S
C1417 C1436 1.368 . S
C1417 H1441 0.949 . S
H1418 C1422 0.949 . S
C1419 C1420 1.349 . S
C1419 C1421 1.327 . S
C1419 H1442 0.950 . S
C1420 C1419 1.349 . S
C1420 C1432 1.349 . S
C1421 C1419 1.327 . S
C1421 C1437 1.429 . S
C1421 H1443 0.950 . S
C1422 H1418 0.949 . S
C1422 C1430 1.574 . S
C1422 C1438 1.368 . S
H1423 C1431 0.950 . S
H1424 C1429 0.950 . S
H1425 C1430 0.949 . S
H1426 C1432 0.950 . S
H1427 C1433 0.950 . S
H1428 C1434 0.949 . S
C1429 H1424 0.950 . S
C1429 C1431 1.327 . S
C1429 C1435 1.429 . S
C1430 C1422 1.574 . S
C1430 H1425 0.949 . S
C1430 C1436 1.368 . S
C1431 C1415 1.349 . S
C1431 H1423 0.950 . S
C1431 C1429 1.327 . S
C1432 C1420 1.349 . S
C1432 H1426 0.950 . S
C1432 C1433 1.327 . S
C1433 H1427 0.950 . S
C1433 C1432 1.327 . S
C1433 C1437 1.429 . S
C1434 C1417 1.574 . S
C1434 H1428 0.949 . S
C1434 C1438 1.368 . S
C1435 C1416 1.429 . S
C1435 C1429 1.429 . S
C1435 C1436 1.523 . S
C1436 C1417 1.368 . S
C1436 C1430 1.368 . S
C1436 C1435 1.523 . S
C1437 C1421 1.429 . S
C1437 C1433 1.429 . S
C1437 C1438 1.523 . S
C1438 C1422 1.368 . S
C1438 C1434 1.368 . S
C1438 C1437 1.523 . S
H1439 C1414 0.950 . S
H1440 C1416 0.950 . S
H1441 C1417 0.949 . S
H1442 C1419 0.950 . S
H1443 C1421 0.950 . S
C1444 C1445 1.349 . S
C1444 C1446 1.327 . S
C1444 H1469 0.950 . S
C1445 C1444 1.349 . S
C1445 C1461 1.349 . S
C1446 C1444 1.327 . S
C1446 C1465 1.429 . S
C1446 H1470 0.950 . S
C1447 C1464 1.574 . S
C1447 C1466 1.368 . S
C1447 H1471 0.949 . S
H1448 C1452 0.949 . S
C1449 C1450 1.349 . S
C1449 C1451 1.327 . S
C1449 H1472 0.950 . S
C1450 C1449 1.349 . S
C1450 C1462 1.349 . S
C1451 C1449 1.327 . S
C1451 C1467 1.429 . S
C1451 H1473 0.950 . S
C1452 H1448 0.949 . S
C1452 C1460 1.574 . S
C1452 C1468 1.368 . S
H1453 C1461 0.950 . S
H1454 C1459 0.950 . S
H1455 C1460 0.949 . S
H1456 C1462 0.950 . S
H1457 C1463 0.950 . S
H1458 C1464 0.949 . S
C1459 H1454 0.950 . S
C1459 C1461 1.327 . S
C1459 C1465 1.429 . S
C1460 C1452 1.574 . S
C1460 H1455 0.949 . S
C1460 C1466 1.368 . S
C1461 C1445 1.349 . S
C1461 H1453 0.950 . S
C1461 C1459 1.327 . S
C1462 C1450 1.349 . S
C1462 H1456 0.950 . S
C1462 C1463 1.327 . S
C1463 H1457 0.950 . S
C1463 C1462 1.327 . S
C1463 C1467 1.429 . S
C1464 C1447 1.574 . S
C1464 H1458 0.949 . S
C1464 C1468 1.368 . S
C1465 C1446 1.429 . S
C1465 C1459 1.429 . S
C1465 C1466 1.523 . S
C1466 C1447 1.368 . S
C1466 C1460 1.368 . S
C1466 C1465 1.523 . S
C1467 C1451 1.429 . S
C1467 C1463 1.429 . S
C1467 C1468 1.523 . S
C1468 C1452 1.368 . S
C1468 C1464 1.368 . S
C1468 C1467 1.523 . S
H1469 C1444 0.950 . S
H1470 C1446 0.950 . S
H1471 C1447 0.949 . S
H1472 C1449 0.950 . S
H1473 C1451 0.950 . S
C1474 C1475 1.349 . S
C1474 C1476 1.327 . S
C1474 H1499 0.950 . S
C1475 C1474 1.349 . S
C1475 C1491 1.349 . S
C1476 C1474 1.327 . S
C1476 C1495 1.429 . S
C1476 H1500 0.950 . S
C1477 C1494 1.574 . S
C1477 C1496 1.368 . S
C1477 H1501 0.949 . S
H1478 C1482 0.949 . S
C1479 C1480 1.349 . S
C1479 C1481 1.327 . S
C1479 H1502 0.950 . S
C1480 C1479 1.349 . S
C1480 C1492 1.349 . S
C1481 C1479 1.327 . S
C1481 C1497 1.429 . S
C1481 H1503 0.950 . S
C1482 H1478 0.949 . S
C1482 C1490 1.574 . S
C1482 C1498 1.368 . S
H1483 C1491 0.950 . S
H1484 C1489 0.950 . S
H1485 C1490 0.949 . S
H1486 C1492 0.950 . S
H1487 C1493 0.950 . S
H1488 C1494 0.949 . S
C1489 H1484 0.950 . S
C1489 C1491 1.327 . S
C1489 C1495 1.429 . S
C1490 C1482 1.574 . S
C1490 H1485 0.949 . S
C1490 C1496 1.368 . S
C1491 C1475 1.349 . S
C1491 H1483 0.950 . S
C1491 C1489 1.327 . S
C1492 C1480 1.349 . S
C1492 H1486 0.950 . S
C1492 C1493 1.327 . S
C1493 H1487 0.950 . S
C1493 C1492 1.327 . S
C1493 C1497 1.429 . S
C1494 C1477 1.574 . S
C1494 H1488 0.949 . S
C1494 C1498 1.368 . S
C1495 C1476 1.429 . S
C1495 C1489 1.429 . S
C1495 C1496 1.523 . S
C1496 C1477 1.368 . S
C1496 C1490 1.368 . S
C1496 C1495 1.523 . S
C1497 C1481 1.429 . S
C1497 C1493 1.429 . S
C1497 C1498 1.523 . S
C1498 C1482 1.368 . S
C1498 C1494 1.368 . S
C1498 C1497 1.523 . S
H1499 C1474 0.950 . S
H1500 C1476 0.950 . S
H1501 C1477 0.949 . S
H1502 C1479 0.950 . S
H1503 C1481 0.950 . S
C1504 C1505 1.349 . S
C1504 C1506 1.327 . S
C1504 H1529 0.950 . S
C1505 C1504 1.349 . S
C1505 C1521 1.349 . S
C1506 C1504 1.327 . S
C1506 C1525 1.429 . S
C1506 H1530 0.950 . S
C1507 C1524 1.574 . S
C1507 C1526 1.368 . S
C1507 H1531 0.949 . S
H1508 C1512 0.949 . S
C1509 C1510 1.349 . S
C1509 C1511 1.327 . S
C1509 H1532 0.950 . S
C1510 C1509 1.349 . S
C1510 C1522 1.349 . S
C1511 C1509 1.327 . S
C1511 C1527 1.429 . S
C1511 H1533 0.950 . S
C1512 H1508 0.949 . S
C1512 C1520 1.574 . S
C1512 C1528 1.368 . S
H1513 C1521 0.950 . S
H1514 C1519 0.950 . S
H1515 C1520 0.949 . S
H1516 C1522 0.950 . S
H1517 C1523 0.950 . S
H1518 C1524 0.949 . S
C1519 H1514 0.950 . S
C1519 C1521 1.327 . S
C1519 C1525 1.429 . S
C1520 C1512 1.574 . S
C1520 H1515 0.949 . S
C1520 C1526 1.368 . S
C1521 C1505 1.349 . S
C1521 H1513 0.950 . S
C1521 C1519 1.327 . S
C1522 C1510 1.349 . S
C1522 H1516 0.950 . S
C1522 C1523 1.327 . S
C1523 H1517 0.950 . S
C1523 C1522 1.327 . S
C1523 C1527 1.429 . S
C1524 C1507 1.574 . S
C1524 H1518 0.949 . S
C1524 C1528 1.368 . S
C1525 C1506 1.429 . S
C1525 C1519 1.429 . S
C1525 C1526 1.523 . S
C1526 C1507 1.368 . S
C1526 C1520 1.368 . S
C1526 C1525 1.523 . S
C1527 C1511 1.429 . S
C1527 C1523 1.429 . S
C1527 C1528 1.523 . S
C1528 C1512 1.368 . S
C1528 C1524 1.368 . S
C1528 C1527 1.523 . S
H1529 C1504 0.950 . S
H1530 C1506 0.950 . S
H1531 C1507 0.949 . S
H1532 C1509 0.950 . S
H1533 C1511 0.950 . S
C1534 C1535 1.349 . S
C1534 C1536 1.327 . S
C1534 H1559 0.950 . S
C1535 C1534 1.349 . S
C1535 C1551 1.349 . S
C1536 C1534 1.327 . S
C1536 C1555 1.429 . S
C1536 H1560 0.950 . S
C1537 C1554 1.574 . S
C1537 C1556 1.368 . S
C1537 H1561 0.949 . S
H1538 C1542 0.949 . S
C1539 C1540 1.349 . S
C1539 C1541 1.327 . S
C1539 H1562 0.950 . S
C1540 C1539 1.349 . S
C1540 C1552 1.349 . S
C1541 C1539 1.327 . S
C1541 C1557 1.429 . S
C1541 H1563 0.950 . S
C1542 H1538 0.949 . S
C1542 C1550 1.574 . S
C1542 C1558 1.368 . S
H1543 C1551 0.950 . S
H1544 C1549 0.950 . S
H1545 C1550 0.949 . S
H1546 C1552 0.950 . S
H1547 C1553 0.950 . S
H1548 C1554 0.949 . S
C1549 H1544 0.950 . S
C1549 C1551 1.327 . S
C1549 C1555 1.429 . S
C1550 C1542 1.574 . S
C1550 H1545 0.949 . S
C1550 C1556 1.368 . S
C1551 C1535 1.349 . S
C1551 H1543 0.950 . S
C1551 C1549 1.327 . S
C1552 C1540 1.349 . S
C1552 H1546 0.950 . S
C1552 C1553 1.327 . S
C1553 H1547 0.950 . S
C1553 C1552 1.327 . S
C1553 C1557 1.429 . S
C1554 C1537 1.574 . S
C1554 H1548 0.949 . S
C1554 C1558 1.368 . S
C1555 C1536 1.429 . S
C1555 C1549 1.429 . S
C1555 C1556 1.523 . S
C1556 C1537 1.368 . S
C1556 C1550 1.368 . S
C1556 C1555 1.523 . S
C1557 C1541 1.429 . S
C1557 C1553 1.429 . S
C1557 C1558 1.523 . S
C1558 C1542 1.368 . S
C1558 C1554 1.368 . S
C1558 C1557 1.523 . S
H1559 C1534 0.950 . S
H1560 C1536 0.950 . S
H1561 C1537 0.949 . S
H1562 C1539 0.950 . S
H1563 C1541 0.950 . S
C1564 C1565 1.349 . S
C1564 C1566 1.327 . S
C1564 H1589 0.950 . S
C1565 C1564 1.349 . S
C1565 C1581 1.349 . S
C1566 C1564 1.327 . S
C1566 C1585 1.429 . S
C1566 H1590 0.950 . S
C1567 C1584 1.574 . S
C1567 C1586 1.368 . S
C1567 H1591 0.949 . S
H1568 C1572 0.949 . S
C1569 C1570 1.349 . S
C1569 C1571 1.327 . S
C1569 H1592 0.950 . S
C1570 C1569 1.349 . S
C1570 C1582 1.349 . S
C1571 C1569 1.327 . S
C1571 C1587 1.429 . S
C1571 H1593 0.950 . S
C1572 H1568 0.949 . S
C1572 C1580 1.574 . S
C1572 C1588 1.368 . S
H1573 C1581 0.950 . S
H1574 C1579 0.950 . S
H1575 C1580 0.949 . S
H1576 C1582 0.950 . S
H1577 C1583 0.950 . S
H1578 C1584 0.949 . S
C1579 H1574 0.950 . S
C1579 C1581 1.327 . S
C1579 C1585 1.429 . S
C1580 C1572 1.574 . S
C1580 H1575 0.949 . S
C1580 C1586 1.368 . S
C1581 C1565 1.349 . S
C1581 H1573 0.950 . S
C1581 C1579 1.327 . S
C1582 C1570 1.349 . S
C1582 H1576 0.950 . S
C1582 C1583 1.327 . S
C1583 H1577 0.950 . S
C1583 C1582 1.327 . S
C1583 C1587 1.429 . S
C1584 C1567 1.574 . S
C1584 H1578 0.949 . S
C1584 C1588 1.368 . S
C1585 C1566 1.429 . S
C1585 C1579 1.429 . S
C1585 C1586 1.523 . S
C1586 C1567 1.368 . S
C1586 C1580 1.368 . S
C1586 C1585 1.523 . S
C1587 C1571 1.429 . S
C1587 C1583 1.429 . S
C1587 C1588 1.523 . S
C1588 C1572 1.368 . S
C1588 C1584 1.368 . S
C1588 C1587 1.523 . S
H1589 C1564 0.950 . S
H1590 C1566 0.950 . S
H1591 C1567 0.949 . S
H1592 C1569 0.950 . S
H1593 C1571 0.950 . S
C1594 C1595 1.349 . S
C1594 C1596 1.327 . S
C1594 H1619 0.950 . S
C1595 C1594 1.349 . S
C1595 C1611 1.349 . S
C1596 C1594 1.327 . S
C1596 C1615 1.429 . S
C1596 H1620 0.950 . S
C1597 C1614 1.574 . S
C1597 C1616 1.368 . S
C1597 H1621 0.949 . S
H1598 C1602 0.949 . S
C1599 C1600 1.349 . S
C1599 C1601 1.327 . S
C1599 H1622 0.950 . S
C1600 C1599 1.349 . S
C1600 C1612 1.349 . S
C1601 C1599 1.327 . S
C1601 C1617 1.429 . S
C1601 H1623 0.950 . S
C1602 H1598 0.949 . S
C1602 C1610 1.574 . S
C1602 C1618 1.368 . S
H1603 C1611 0.950 . S
H1604 C1609 0.950 . S
H1605 C1610 0.949 . S
H1606 C1612 0.950 . S
H1607 C1613 0.950 . S
H1608 C1614 0.949 . S
C1609 H1604 0.950 . S
C1609 C1611 1.327 . S
C1609 C1615 1.429 . S
C1610 C1602 1.574 . S
C1610 H1605 0.949 . S
C1610 C1616 1.368 . S
C1611 C1595 1.349 . S
C1611 H1603 0.950 . S
C1611 C1609 1.327 . S
C1612 C1600 1.349 . S
C1612 H1606 0.950 . S
C1612 C1613 1.327 . S
C1613 H1607 0.950 . S
C1613 C1612 1.327 . S
C1613 C1617 1.429 . S
C1614 C1597 1.574 . S
C1614 H1608 0.949 . S
C1614 C1618 1.368 . S
C1615 C1596 1.429 . S
C1615 C1609 1.429 . S
C1615 C1616 1.523 . S
C1616 C1597 1.368 . S
C1616 C1610 1.368 . S
C1616 C1615 1.523 . S
C1617 C1601 1.429 . S
C1617 C1613 1.429 . S
C1617 C1618 1.523 . S
C1618 C1602 1.368 . S
C1618 C1614 1.368 . S
C1618 C1617 1.523 . S
H1619 C1594 0.950 . S
H1620 C1596 0.950 . S
H1621 C1597 0.949 . S
H1622 C1599 0.950 . S
H1623 C1601 0.950 . S
C1624 C1625 1.349 . S
C1624 C1626 1.327 . S
C1624 H1649 0.950 . S
C1625 C1624 1.349 . S
C1625 C1641 1.349 . S
C1626 C1624 1.327 . S
C1626 C1645 1.429 . S
C1626 H1650 0.950 . S
C1627 C1644 1.574 . S
C1627 C1646 1.368 . S
C1627 H1651 0.949 . S
H1628 C1632 0.949 . S
C1629 C1630 1.349 . S
C1629 C1631 1.327 . S
C1629 H1652 0.950 . S
C1630 C1629 1.349 . S
C1630 C1642 1.349 . S
C1631 C1629 1.327 . S
C1631 C1647 1.429 . S
C1631 H1653 0.950 . S
C1632 H1628 0.949 . S
C1632 C1640 1.574 . S
C1632 C1648 1.368 . S
H1633 C1641 0.950 . S
H1634 C1639 0.950 . S
H1635 C1640 0.949 . S
H1636 C1642 0.950 . S
H1637 C1643 0.950 . S
H1638 C1644 0.949 . S
C1639 H1634 0.950 . S
C1639 C1641 1.327 . S
C1639 C1645 1.429 . S
C1640 C1632 1.574 . S
C1640 H1635 0.949 . S
C1640 C1646 1.368 . S
C1641 C1625 1.349 . S
C1641 H1633 0.950 . S
C1641 C1639 1.327 . S
C1642 C1630 1.349 . S
C1642 H1636 0.950 . S
C1642 C1643 1.327 . S
C1643 H1637 0.950 . S
C1643 C1642 1.327 . S
C1643 C1647 1.429 . S
C1644 C1627 1.574 . S
C1644 H1638 0.949 . S
C1644 C1648 1.368 . S
C1645 C1626 1.429 . S
C1645 C1639 1.429 . S
C1645 C1646 1.523 . S
C1646 C1627 1.368 . S
C1646 C1640 1.368 . S
C1646 C1645 1.523 . S
C1647 C1631 1.429 . S
C1647 C1643 1.429 . S
C1647 C1648 1.523 . S
C1648 C1632 1.368 . S
C1648 C1644 1.368 . S
C1648 C1647 1.523 . S
H1649 C1624 0.950 . S
H1650 C1626 0.950 . S
H1651 C1627 0.949 . S
H1652 C1629 0.950 . S
H1653 C1631 0.950 . S
C1654 C1655 1.349 . S
C1654 C1656 1.327 . S
C1654 H1679 0.950 . S
C1655 C1654 1.349 . S
C1655 C1671 1.349 . S
C1656 C1654 1.327 . S
C1656 C1675 1.429 . S
C1656 H1680 0.950 . S
C1657 C1674 1.574 . S
C1657 C1676 1.368 . S
C1657 H1681 0.949 . S
H1658 C1662 0.949 . S
C1659 C1660 1.349 . S
C1659 C1661 1.327 . S
C1659 H1682 0.950 . S
C1660 C1659 1.349 . S
C1660 C1672 1.349 . S
C1661 C1659 1.327 . S
C1661 C1677 1.429 . S
C1661 H1683 0.950 . S
C1662 H1658 0.949 . S
C1662 C1670 1.574 . S
C1662 C1678 1.368 . S
H1663 C1671 0.950 . S
H1664 C1669 0.950 . S
H1665 C1670 0.949 . S
H1666 C1672 0.950 . S
H1667 C1673 0.950 . S
H1668 C1674 0.949 . S
C1669 H1664 0.950 . S
C1669 C1671 1.327 . S
C1669 C1675 1.429 . S
C1670 C1662 1.574 . S
C1670 H1665 0.949 . S
C1670 C1676 1.368 . S
C1671 C1655 1.349 . S
C1671 H1663 0.950 . S
C1671 C1669 1.327 . S
C1672 C1660 1.349 . S
C1672 H1666 0.950 . S
C1672 C1673 1.327 . S
C1673 H1667 0.950 . S
C1673 C1672 1.327 . S
C1673 C1677 1.429 . S
C1674 C1657 1.574 . S
C1674 H1668 0.949 . S
C1674 C1678 1.368 . S
C1675 C1656 1.429 . S
C1675 C1669 1.429 . S
C1675 C1676 1.523 . S
C1676 C1657 1.368 . S
C1676 C1670 1.368 . S
C1676 C1675 1.523 . S
C1677 C1661 1.429 . S
C1677 C1673 1.429 . S
C1677 C1678 1.523 . S
C1678 C1662 1.368 . S
C1678 C1674 1.368 . S
C1678 C1677 1.523 . S
H1679 C1654 0.950 . S
H1680 C1656 0.950 . S
H1681 C1657 0.949 . S
H1682 C1659 0.950 . S
H1683 C1661 0.950 . S
C1684 C1685 1.349 . S
C1684 C1686 1.327 . S
C1684 H1709 0.950 . S
C1685 C1684 1.349 . S
C1685 C1701 1.349 . S
C1686 C1684 1.327 . S
C1686 C1705 1.429 . S
C1686 H1710 0.950 . S
C1687 C1704 1.574 . S
C1687 C1706 1.368 . S
C1687 H1711 0.949 . S
H1688 C1692 0.949 . S
C1689 C1690 1.349 . S
C1689 C1691 1.327 . S
C1689 H1712 0.950 . S
C1690 C1689 1.349 . S
C1690 C1702 1.349 . S
C1691 C1689 1.327 . S
C1691 C1707 1.429 . S
C1691 H1713 0.950 . S
C1692 H1688 0.949 . S
C1692 C1700 1.574 . S
C1692 C1708 1.368 . S
H1693 C1701 0.950 . S
H1694 C1699 0.950 . S
H1695 C1700 0.949 . S
H1696 C1702 0.950 . S
H1697 C1703 0.950 . S
H1698 C1704 0.949 . S
C1699 H1694 0.950 . S
C1699 C1701 1.327 . S
C1699 C1705 1.429 . S
C1700 C1692 1.574 . S
C1700 H1695 0.949 . S
C1700 C1706 1.368 . S
C1701 C1685 1.349 . S
C1701 H1693 0.950 . S
C1701 C1699 1.327 . S
C1702 C1690 1.349 . S
C1702 H1696 0.950 . S
C1702 C1703 1.327 . S
C1703 H1697 0.950 . S
C1703 C1702 1.327 . S
C1703 C1707 1.429 . S
C1704 C1687 1.574 . S
C1704 H1698 0.949 . S
C1704 C1708 1.368 . S
C1705 C1686 1.429 . S
C1705 C1699 1.429 . S
C1705 C1706 1.523 . S
C1706 C1687 1.368 . S
C1706 C1700 1.368 . S
C1706 C1705 1.523 . S
C1707 C1691 1.429 . S
C1707 C1703 1.429 . S
C1707 C1708 1.523 . S
C1708 C1692 1.368 . S
C1708 C1704 1.368 . S
C1708 C1707 1.523 . S
H1709 C1684 0.950 . S
H1710 C1686 0.950 . S
H1711 C1687 0.949 . S
H1712 C1689 0.950 . S
H1713 C1691 0.950 . S
C1714 C1715 1.349 . S
C1714 C1716 1.327 . S
C1714 H1739 0.950 . S
C1715 C1714 1.349 . S
C1715 C1731 1.349 . S
C1716 C1714 1.327 . S
C1716 C1735 1.429 . S
C1716 H1740 0.950 . S
C1717 C1734 1.574 . S
C1717 C1736 1.368 . S
C1717 H1741 0.949 . S
H1718 C1722 0.949 . S
C1719 C1720 1.349 . S
C1719 C1721 1.327 . S
C1719 H1742 0.950 . S
C1720 C1719 1.349 . S
C1720 C1732 1.349 . S
C1721 C1719 1.327 . S
C1721 C1737 1.429 . S
C1721 H1743 0.950 . S
C1722 H1718 0.949 . S
C1722 C1730 1.574 . S
C1722 C1738 1.368 . S
H1723 C1731 0.950 . S
H1724 C1729 0.950 . S
H1725 C1730 0.949 . S
H1726 C1732 0.950 . S
H1727 C1733 0.950 . S
H1728 C1734 0.949 . S
C1729 H1724 0.950 . S
C1729 C1731 1.327 . S
C1729 C1735 1.429 . S
C1730 C1722 1.574 . S
C1730 H1725 0.949 . S
C1730 C1736 1.368 . S
C1731 C1715 1.349 . S
C1731 H1723 0.950 . S
C1731 C1729 1.327 . S
C1732 C1720 1.349 . S
C1732 H1726 0.950 . S
C1732 C1733 1.327 . S
C1733 H1727 0.950 . S
C1733 C1732 1.327 . S
C1733 C1737 1.429 . S
C1734 C1717 1.574 . S
C1734 H1728 0.949 . S
C1734 C1738 1.368 . S
C1735 C1716 1.429 . S
C1735 C1729 1.429 . S
C1735 C1736 1.523 . S
C1736 C1717 1.368 . S
C1736 C1730 1.368 . S
C1736 C1735 1.523 . S
C1737 C1721 1.429 . S
C1737 C1733 1.429 . S
C1737 C1738 1.523 . S
C1738 C1722 1.368 . S
C1738 C1734 1.368 . S
C1738 C1737 1.523 . S
H1739 C1714 0.950 . S
H1740 C1716 0.950 . S
H1741 C1717 0.949 . S
H1742 C1719 0.950 . S
H1743 C1721 0.950 . S
C1744 C1745 1.349 . S
C1744 C1746 1.327 . S
C1744 H1769 0.950 . S
C1745 C1744 1.349 . S
C1745 C1761 1.349 . S
C1746 C1744 1.327 . S
C1746 C1765 1.429 . S
C1746 H1770 0.950 . S
C1747 C1764 1.574 . S
C1747 C1766 1.368 . S
C1747 H1771 0.949 . S
H1748 C1752 0.949 . S
C1749 C1750 1.349 . S
C1749 C1751 1.327 . S
C1749 H1772 0.950 . S
C1750 C1749 1.349 . S
C1750 C1762 1.349 . S
C1751 C1749 1.327 . S
C1751 C1767 1.429 . S
C1751 H1773 0.950 . S
C1752 H1748 0.949 . S
C1752 C1760 1.574 . S
C1752 C1768 1.368 . S
H1753 C1761 0.950 . S
H1754 C1759 0.950 . S
H1755 C1760 0.949 . S
H1756 C1762 0.950 . S
H1757 C1763 0.950 . S
H1758 C1764 0.949 . S
C1759 H1754 0.950 . S
C1759 C1761 1.327 . S
C1759 C1765 1.429 . S
C1760 C1752 1.574 . S
C1760 H1755 0.949 . S
C1760 C1766 1.368 . S
C1761 C1745 1.349 . S
C1761 H1753 0.950 . S
C1761 C1759 1.327 . S
C1762 C1750 1.349 . S
C1762 H1756 0.950 . S
C1762 C1763 1.327 . S
C1763 H1757 0.950 . S
C1763 C1762 1.327 . S
C1763 C1767 1.429 . S
C1764 C1747 1.574 . S
C1764 H1758 0.949 . S
C1764 C1768 1.368 . S
C1765 C1746 1.429 . S
C1765 C1759 1.429 . S
C1765 C1766 1.523 1_556 S
C1766 C1747 1.368 . S
C1766 C1760 1.368 . S
C1766 C1765 1.523 1_554 S
C1767 C1751 1.429 . S
C1767 C1763 1.429 . S
C1767 C1768 1.523 . S
C1768 C1752 1.368 . S
C1768 C1764 1.368 . S
C1768 C1767 1.523 . S
H1769 C1744 0.950 . S
H1770 C1746 0.950 . S
H1771 C1747 0.949 . S
H1772 C1749 0.950 . S
H1773 C1751 0.950 . S
C1774 C1775 1.349 . S
C1774 C1776 1.327 . S
C1774 H1799 0.950 . S
C1775 C1774 1.349 . S
C1775 C1791 1.349 . S
C1776 C1774 1.327 . S
C1776 C1795 1.429 . S
C1776 H1800 0.950 . S
C1777 C1794 1.574 . S
C1777 C1796 1.368 . S
C1777 H1801 0.949 . S
H1778 C1782 0.949 . S
C1779 C1780 1.349 . S
C1779 C1781 1.327 . S
C1779 H1802 0.950 . S
C1780 C1779 1.349 . S
C1780 C1792 1.349 . S
C1781 C1779 1.327 . S
C1781 C1797 1.429 . S
C1781 H1803 0.950 . S
C1782 H1778 0.949 . S
C1782 C1790 1.574 . S
C1782 C1798 1.368 . S
H1783 C1791 0.950 . S
H1784 C1789 0.950 . S
H1785 C1790 0.949 . S
H1786 C1792 0.950 . S
H1787 C1793 0.950 . S
H1788 C1794 0.949 . S
C1789 H1784 0.950 . S
C1789 C1791 1.327 . S
C1789 C1795 1.429 . S
C1790 C1782 1.574 . S
C1790 H1785 0.949 . S
C1790 C1796 1.368 . S
C1791 C1775 1.349 . S
C1791 H1783 0.950 . S
C1791 C1789 1.327 . S
C1792 C1780 1.349 . S
C1792 H1786 0.950 . S
C1792 C1793 1.327 . S
C1793 H1787 0.950 . S
C1793 C1792 1.327 . S
C1793 C1797 1.429 . S
C1794 C1777 1.574 . S
C1794 H1788 0.949 . S
C1794 C1798 1.368 . S
C1795 C1776 1.429 . S
C1795 C1789 1.429 . S
C1795 C1796 1.523 . S
C1796 C1777 1.368 . S
C1796 C1790 1.368 . S
C1796 C1795 1.523 . S
C1797 C1781 1.429 . S
C1797 C1793 1.429 . S
C1797 C1798 1.523 1_554 S
C1798 C1782 1.368 . S
C1798 C1794 1.368 . S
C1798 C1797 1.523 1_556 S
H1799 C1774 0.950 . S
H1800 C1776 0.950 . S
H1801 C1777 0.949 . S
H1802 C1779 0.950 . S
H1803 C1781 0.950 . S
C1804 C1805 1.349 . S
C1804 C1806 1.327 . S
C1804 H1829 0.950 . S
C1805 C1804 1.349 . S
C1805 C1821 1.349 . S
C1806 C1804 1.327 . S
C1806 C1825 1.429 . S
C1806 H1830 0.950 . S
C1807 C1824 1.574 . S
C1807 C1826 1.368 . S
C1807 H1831 0.949 . S
H1808 C1812 0.949 . S
C1809 C1810 1.349 . S
C1809 C1811 1.327 . S
C1809 H1832 0.950 . S
C1810 C1809 1.349 . S
C1810 C1822 1.349 . S
C1811 C1809 1.327 . S
C1811 C1827 1.429 . S
C1811 H1833 0.950 . S
C1812 H1808 0.949 . S
C1812 C1820 1.574 . S
C1812 C1828 1.368 . S
H1813 C1821 0.950 . S
H1814 C1819 0.950 . S
H1815 C1820 0.949 . S
H1816 C1822 0.950 . S
H1817 C1823 0.950 . S
H1818 C1824 0.949 . S
C1819 H1814 0.950 . S
C1819 C1821 1.327 . S
C1819 C1825 1.429 . S
C1820 C1812 1.574 . S
C1820 H1815 0.949 . S
C1820 C1826 1.368 . S
C1821 C1805 1.349 . S
C1821 H1813 0.950 . S
C1821 C1819 1.327 . S
C1822 C1810 1.349 . S
C1822 H1816 0.950 . S
C1822 C1823 1.327 . S
C1823 H1817 0.950 . S
C1823 C1822 1.327 . S
C1823 C1827 1.429 . S
C1824 C1807 1.574 . S
C1824 H1818 0.949 . S
C1824 C1828 1.368 . S
C1825 C1806 1.429 . S
C1825 C1819 1.429 . S
C1825 C1826 1.523 . S
C1826 C1807 1.368 . S
C1826 C1820 1.368 . S
C1826 C1825 1.523 . S
C1827 C1811 1.429 . S
C1827 C1823 1.429 . S
C1827 C1828 1.523 1_556 S
C1828 C1812 1.368 . S
C1828 C1824 1.368 . S
C1828 C1827 1.523 1_554 S
H1829 C1804 0.950 . S
H1830 C1806 0.950 . S
H1831 C1807 0.949 . S
H1832 C1809 0.950 . S
H1833 C1811 0.950 . S
C1834 C1835 1.349 . S
C1834 C1836 1.327 . S
C1834 H1859 0.950 . S
C1835 C1834 1.349 . S
C1835 C1851 1.349 . S
C1836 C1834 1.327 . S
C1836 C1855 1.429 . S
C1836 H1860 0.950 . S
C1837 C1854 1.574 . S
C1837 C1856 1.368 . S
C1837 H1861 0.949 . S
H1838 C1842 0.949 . S
C1839 C1840 1.349 . S
C1839 C1841 1.327 . S
C1839 H1862 0.950 . S
C1840 C1839 1.349 . S
C1840 C1852 1.349 . S
C1841 C1839 1.327 . S
C1841 C1857 1.429 . S
C1841 H1863 0.950 . S
C1842 H1838 0.949 . S
C1842 C1850 1.574 . S
C1842 C1858 1.368 . S
H1843 C1851 0.950 . S
H1844 C1849 0.950 . S
H1845 C1850 0.949 . S
H1846 C1852 0.950 . S
H1847 C1853 0.950 . S
H1848 C1854 0.949 . S
C1849 H1844 0.950 . S
C1849 C1851 1.327 . S
C1849 C1855 1.429 . S
C1850 C1842 1.574 . S
C1850 H1845 0.949 . S
C1850 C1856 1.368 . S
C1851 C1835 1.349 . S
C1851 H1843 0.950 . S
C1851 C1849 1.327 . S
C1852 C1840 1.349 . S
C1852 H1846 0.950 . S
C1852 C1853 1.327 . S
C1853 H1847 0.950 . S
C1853 C1852 1.327 . S
C1853 C1857 1.429 . S
C1854 C1837 1.574 . S
C1854 H1848 0.949 . S
C1854 C1858 1.368 . S
C1855 C1836 1.429 . S
C1855 C1849 1.429 . S
C1855 C1856 1.523 1_554 S
C1856 C1837 1.368 . S
C1856 C1850 1.368 . S
C1856 C1855 1.523 1_556 S
C1857 C1841 1.429 . S
C1857 C1853 1.429 . S
C1857 C1858 1.523 . S
C1858 C1842 1.368 . S
C1858 C1854 1.368 . S
C1858 C1857 1.523 . S
H1859 C1834 0.950 . S
H1860 C1836 0.950 . S
H1861 C1837 0.949 . S
H1862 C1839 0.950 . S
H1863 C1841 0.950 . S
C1864 C1865 1.349 . S
C1864 C1866 1.327 . S
C1864 H1889 0.950 . S
C1865 C1864 1.349 . S
C1865 C1881 1.349 . S
C1866 C1864 1.327 . S
C1866 C1885 1.429 . S
C1866 H1890 0.950 . S
C1867 C1884 1.574 . S
C1867 C1886 1.368 . S
C1867 H1891 0.949 . S
H1868 C1872 0.949 . S
C1869 C1870 1.349 . S
C1869 C1871 1.327 . S
C1869 H1892 0.950 . S
C1870 C1869 1.349 . S
C1870 C1882 1.349 . S
C1871 C1869 1.327 . S
C1871 C1887 1.429 . S
C1871 H1893 0.950 . S
C1872 H1868 0.949 . S
C1872 C1880 1.574 . S
C1872 C1888 1.368 . S
H1873 C1881 0.950 . S
H1874 C1879 0.950 . S
H1875 C1880 0.949 . S
H1876 C1882 0.950 . S
H1877 C1883 0.950 . S
H1878 C1884 0.949 . S
C1879 H1874 0.950 . S
C1879 C1881 1.327 . S
C1879 C1885 1.429 . S
C1880 C1872 1.574 . S
C1880 H1875 0.949 . S
C1880 C1886 1.368 . S
C1881 C1865 1.349 . S
C1881 H1873 0.950 . S
C1881 C1879 1.327 . S
C1882 C1870 1.349 . S
C1882 H1876 0.950 . S
C1882 C1883 1.327 . S
C1883 H1877 0.950 . S
C1883 C1882 1.327 . S
C1883 C1887 1.429 . S
C1884 C1867 1.574 . S
C1884 H1878 0.949 . S
C1884 C1888 1.368 . S
C1885 C1866 1.429 . S
C1885 C1879 1.429 . S
C1885 C1886 1.523 . S
C1886 C1867 1.368 . S
C1886 C1880 1.368 . S
C1886 C1885 1.523 . S
C1887 C1871 1.429 . S
C1887 C1883 1.429 . S
C1887 C1888 1.523 1_556 S
C1888 C1872 1.368 . S
C1888 C1884 1.368 . S
C1888 C1887 1.523 1_554 S
H1889 C1864 0.950 . S
H1890 C1866 0.950 . S
H1891 C1867 0.949 . S
H1892 C1869 0.950 . S
H1893 C1871 0.950 . S
C1894 C1895 1.349 . S
C1894 C1896 1.327 . S
C1894 H1919 0.950 . S
C1895 C1894 1.349 . S
C1895 C1911 1.349 . S
C1896 C1894 1.327 . S
C1896 C1915 1.429 . S
C1896 H1920 0.950 . S
C1897 C1914 1.574 . S
C1897 C1916 1.368 . S
C1897 H1921 0.949 . S
H1898 C1902 0.949 . S
C1899 C1900 1.349 . S
C1899 C1901 1.327 . S
C1899 H1922 0.950 . S
C1900 C1899 1.349 . S
C1900 C1912 1.349 . S
C1901 C1899 1.327 . S
C1901 C1917 1.429 . S
C1901 H1923 0.950 . S
C1902 H1898 0.949 . S
C1902 C1910 1.574 . S
C1902 C1918 1.368 . S
H1903 C1911 0.950 . S
H1904 C1909 0.950 . S
H1905 C1910 0.949 . S
H1906 C1912 0.950 . S
H1907 C1913 0.950 . S
H1908 C1914 0.949 . S
C1909 H1904 0.950 . S
C1909 C1911 1.327 . S
C1909 C1915 1.429 . S
C1910 C1902 1.574 . S
C1910 H1905 0.949 . S
C1910 C1916 1.368 . S
C1911 C1895 1.349 . S
C1911 H1903 0.950 . S
C1911 C1909 1.327 . S
C1912 C1900 1.349 . S
C1912 H1906 0.950 . S
C1912 C1913 1.327 . S
C1913 H1907 0.950 . S
C1913 C1912 1.327 . S
C1913 C1917 1.429 . S
C1914 C1897 1.574 . S
C1914 H1908 0.949 . S
C1914 C1918 1.368 . S
C1915 C1896 1.429 . S
C1915 C1909 1.429 . S
C1915 C1916 1.523 1_554 S
C1916 C1897 1.368 . S
C1916 C1910 1.368 . S
C1916 C1915 1.523 1_556 S
C1917 C1901 1.429 . S
C1917 C1913 1.429 . S
C1917 C1918 1.523 . S
C1918 C1902 1.368 . S
C1918 C1914 1.368 . S
C1918 C1917 1.523 . S
H1919 C1894 0.950 . S
H1920 C1896 0.950 . S
H1921 C1897 0.949 . S
H1922 C1899 0.950 . S
H1923 C1901 0.950 . S
C1924 C1925 1.349 . S
C1924 C1926 1.327 . S
C1924 H1949 0.950 . S
C1925 C1924 1.349 . S
C1925 C1941 1.349 . S
C1926 C1924 1.327 . S
C1926 C1945 1.429 . S
C1926 H1950 0.950 . S
C1927 C1944 1.574 . S
C1927 C1946 1.368 . S
C1927 H1951 0.949 . S
H1928 C1932 0.949 . S
C1929 C1930 1.349 . S
C1929 C1931 1.327 . S
C1929 H1952 0.950 . S
C1930 C1929 1.349 . S
C1930 C1942 1.349 . S
C1931 C1929 1.327 . S
C1931 C1947 1.429 . S
C1931 H1953 0.950 . S
C1932 H1928 0.949 . S
C1932 C1940 1.574 . S
C1932 C1948 1.368 . S
H1933 C1941 0.950 . S
H1934 C1939 0.950 . S
H1935 C1940 0.949 . S
H1936 C1942 0.950 . S
H1937 C1943 0.950 . S
H1938 C1944 0.949 . S
C1939 H1934 0.950 . S
C1939 C1941 1.327 . S
C1939 C1945 1.429 . S
C1940 C1932 1.574 . S
C1940 H1935 0.949 . S
C1940 C1946 1.368 . S
C1941 C1925 1.349 . S
C1941 H1933 0.950 . S
C1941 C1939 1.327 . S
C1942 C1930 1.349 . S
C1942 H1936 0.950 . S
C1942 C1943 1.327 . S
C1943 H1937 0.950 . S
C1943 C1942 1.327 . S
C1943 C1947 1.429 . S
C1944 C1927 1.574 . S
C1944 H1938 0.949 . S
C1944 C1948 1.368 . S
C1945 C1926 1.429 . S
C1945 C1939 1.429 . S
C1945 C1946 1.523 1_556 S
C1946 C1927 1.368 . S
C1946 C1940 1.368 . S
C1946 C1945 1.523 1_554 S
C1947 C1931 1.429 . S
C1947 C1943 1.429 . S
C1947 C1948 1.523 . S
C1948 C1932 1.368 . S
C1948 C1944 1.368 . S
C1948 C1947 1.523 . S
H1949 C1924 0.950 . S
H1950 C1926 0.950 . S
H1951 C1927 0.949 . S
H1952 C1929 0.950 . S
H1953 C1931 0.950 . S
C1954 C1955 1.349 . S
C1954 C1956 1.327 . S
C1954 H1979 0.950 . S
C1955 C1954 1.349 . S
C1955 C1971 1.349 . S
C1956 C1954 1.327 . S
C1956 C1975 1.429 . S
C1956 H1980 0.950 . S
C1957 C1974 1.574 . S
C1957 C1976 1.368 . S
C1957 H1981 0.949 . S
H1958 C1962 0.949 . S
C1959 C1960 1.349 . S
C1959 C1961 1.327 . S
C1959 H1982 0.950 . S
C1960 C1959 1.349 . S
C1960 C1972 1.349 . S
C1961 C1959 1.327 . S
C1961 C1977 1.429 . S
C1961 H1983 0.950 . S
C1962 H1958 0.949 . S
C1962 C1970 1.574 . S
C1962 C1978 1.368 . S
H1963 C1971 0.950 . S
H1964 C1969 0.950 . S
H1965 C1970 0.949 . S
H1966 C1972 0.950 . S
H1967 C1973 0.950 . S
H1968 C1974 0.949 . S
C1969 H1964 0.950 . S
C1969 C1971 1.327 . S
C1969 C1975 1.429 . S
C1970 C1962 1.574 . S
C1970 H1965 0.949 . S
C1970 C1976 1.368 . S
C1971 C1955 1.349 . S
C1971 H1963 0.950 . S
C1971 C1969 1.327 . S
C1972 C1960 1.349 . S
C1972 H1966 0.950 . S
C1972 C1973 1.327 . S
C1973 H1967 0.950 . S
C1973 C1972 1.327 . S
C1973 C1977 1.429 . S
C1974 C1957 1.574 . S
C1974 H1968 0.949 . S
C1974 C1978 1.368 . S
C1975 C1956 1.429 . S
C1975 C1969 1.429 . S
C1975 C1976 1.523 . S
C1976 C1957 1.368 . S
C1976 C1970 1.368 . S
C1976 C1975 1.523 . S
C1977 C1961 1.429 . S
C1977 C1973 1.429 . S
C1977 C1978 1.523 1_554 S
C1978 C1962 1.368 . S
C1978 C1974 1.368 . S
C1978 C1977 1.523 1_556 S
H1979 C1954 0.950 . S
H1980 C1956 0.950 . S
H1981 C1957 0.949 . S
H1982 C1959 0.950 . S
H1983 C1961 0.950 . S
C545 C382 1.643 . S
C550 C13 1.639 . S
C575 C289 1.643 . S
C580 C38 1.639 . S
C605 C81 1.639 . S
C610 C314 1.643 . S
C635 C106 1.639 . S
C640 C357 1.643 . S
C665 C149 1.639 . S
C670 C178 1.643 . S
C695 C221 1.643 . S
C700 C174 1.639 . S
C725 C217 1.639 . S
C730 C246 1.643 . S
C755 C153 1.643 . S
C760 C242 1.639 . S
C785 C110 1.643 . S
C790 C285 1.638 . S
C815 C310 1.639 . S
C820 C17 1.643 . S
C845 C42 1.643 . S
C850 C353 1.639 . S
C875 C85 1.643 . S
C880 C378 1.639 . S
C905 C421 1.639 . S
C910 C450 1.643 . S
C935 C493 1.643 . S
C940 C446 1.639 . S
C965 C518 1.643 . S
C970 C489 1.639 . S
C995 C514 1.639 . S
C1000 C425 1.643 . S
C1025 C4 1.194 . S
C1030 C140 1.194 . S
C1055 C183 1.194 . S
C1060 C47 1.194 . S
C1085 C72 1.194 . S
C1090 C208 1.194 . S
C1115 C115 1.194 . S
C1120 C251 1.194 . S
C1145 C276 1.194 . S
C1150 C412 1.194 . S
C1175 C455 1.194 . S
C1180 C319 1.194 . S
C1205 C344 1.194 . S
C1210 C480 1.194 . S
C1235 C387 1.194 . S
C1240 C523 1.194 . S
C1265 C484 2.216 . S
C1270 C8 2.216 . S
C1295 C51 2.216 . S
C1300 C527 2.216 . S
C1325 C76 2.216 . S
C1330 C416 2.216 . S
C1355 C119 2.216 . S
C1360 C459 2.216 . S
C1385 C144 2.216 . S
C1390 C348 2.216 . S
C1415 C187 2.216 . S
C1420 C391 2.216 . S
C1445 C212 2.216 . S
C1450 C280 2.216 . S
C1475 C323 2.216 . S
C1480 C255 2.216 . S
C1505 C29 0.664 . S
C1510 C0 0.664 . S
C1535 C34 0.664 . S
C1540 C63 0.664 . S
C1565 C97 0.664 . S
C1570 C68 0.664 . S
C1595 C131 0.664 . S
C1600 C102 0.664 . S
C1625 C136 0.664 . S
C1630 C165 0.664 . S
C1655 C170 0.664 . S
C1660 C199 0.664 . S
C1685 C233 0.664 . S
C1690 C204 0.664 . S
C1715 C267 0.664 . S
C1720 C238 0.664 . S
C1745 C301 0.664 . S
C1750 C272 0.664 . S
C1775 C335 0.664 . S
C1780 C306 0.664 . S
C1805 C340 0.664 . S
C1810 C369 0.664 . S
C1835 C374 0.664 . S
C1840 C403 0.664 . S
C1865 C437 0.664 . S
C1870 C408 0.664 . S
C1895 C471 0.664 . S
C1900 C442 0.664 . S
C1925 C476 0.664 . S
C1930 C505 0.664 . S
C1955 C510 0.664 . S
C1960 C539 0.664 . S
