# Generated by pormake.
# Topology xfu, (5)-cn, num edge types: 1
# Building blocks:
#     Node 0, Type 0, BuildingBlock: BEQFEK_clean_sbu_0, # of connection points: 5
#     Node 1, Type 0, BuildingBlock: BEQFEK_clean_sbu_0, # of connection points: 5
#     Node 2, Type 0, BuildingBlock: BEQFEK_clean_sbu_0, # of connection points: 5
#     Node 3, Type 0, BuildingBlock: BEQFEK_clean_sbu_0, # of connection points: 5
#     Node 4, Type 0, BuildingBlock: BEQFEK_clean_sbu_0, # of connection points: 5
#     Node 5, Type 0, BuildingBlock: BEQFEK_clean_sbu_0, # of connection points: 5
#     Node 6, Type 0, BuildingBlock: BEQFEK_clean_sbu_0, # of connection points: 5
#     Node 7, Type 0, BuildingBlock: BEQFEK_clean_sbu_0, # of connection points: 5
#     Edge 8, Type (0, 0), BuildingBlock: XIVTED_clean_linker_0, # of connection points: 2
#     Edge 9, Type (0, 0), BuildingBlock: XIVTED_clean_linker_0, # of connection points: 2
#     Edge 10, Type (0, 0), BuildingBlock: XIVTED_clean_linker_0, # of connection points: 2
#     Edge 11, Type (0, 0), BuildingBlock: XIVTED_clean_linker_0, # of connection points: 2
#     Edge 12, Type (0, 0), BuildingBlock: XIVTED_clean_linker_0, # of connection points: 2
#     Edge 13, Type (0, 0), BuildingBlock: XIVTED_clean_linker_0, # of connection points: 2
#     Edge 14, Type (0, 0), BuildingBlock: XIVTED_clean_linker_0, # of connection points: 2
#     Edge 15, Type (0, 0), BuildingBlock: XIVTED_clean_linker_0, # of connection points: 2
#     Edge 16, Type (0, 0), BuildingBlock: XIVTED_clean_linker_0, # of connection points: 2
#     Edge 17, Type (0, 0), BuildingBlock: XIVTED_clean_linker_0, # of connection points: 2
#     Edge 18, Type (0, 0), BuildingBlock: XIVTED_clean_linker_0, # of connection points: 2
#     Edge 19, Type (0, 0), BuildingBlock: XIVTED_clean_linker_0, # of connection points: 2
#     Edge 20, Type (0, 0), BuildingBlock: XIVTED_clean_linker_0, # of connection points: 2
#     Edge 21, Type (0, 0), BuildingBlock: XIVTED_clean_linker_0, # of connection points: 2
#     Edge 22, Type (0, 0), BuildingBlock: XIVTED_clean_linker_0, # of connection points: 2
#     Edge 23, Type (0, 0), BuildingBlock: XIVTED_clean_linker_0, # of connection points: 2
#     Edge 24, Type (0, 0), BuildingBlock: XIVTED_clean_linker_0, # of connection points: 2
#     Edge 25, Type (0, 0), BuildingBlock: XIVTED_clean_linker_0, # of connection points: 2
#     Edge 26, Type (0, 0), BuildingBlock: XIVTED_clean_linker_0, # of connection points: 2
#     Edge 27, Type (0, 0), BuildingBlock: XIVTED_clean_linker_0, # of connection points: 2
# Relax obj value: 0.266
# Max RMSD: 0.181
# Mean RMSD: 0.181
data_MOF--net-xfu--node1-BEQFEK_clean_sbu_0--edge1-XIVTED_clean_linker_0
_symmetry_space_group_name_H-M    P1
_symmetry_Int_Tables_number       1
_symmetry_cell_setting            triclinic
loop_
_symmetry_equiv_pos_as_xyz
'x, y, z'
_cell_length_a     30.35035
_cell_length_b     30.403566
_cell_length_c     56.753223
_cell_angle_alpha  89.977571
_cell_angle_beta   90.006097
_cell_angle_gamma 90.017318
loop_
_atom_site_label
_atom_site_type_symbol
_atom_site_fract_x
_atom_site_fract_y
_atom_site_fract_z
_atom_type_partial_charge
Co0 Co 0.06194 0.26817 0.66167 0.0
Co1 Co 0.06588 0.18327 0.63057 0.0
C2 C 0.13839 0.24939 0.6298 0.0
O3 O 0.11818 0.2737 0.64448 0.0
O4 O 0.12229 0.2129 0.62299 0.0
C5 C 0.06937 0.35966 0.67264 0.0
O6 O 0.08792 0.36193 0.65176 0.0
C7 C 0.06943 0.13223 0.58715 0.0
C8 C 0.03457 0.07115 0.59715 0.0
C9 C 0.05386 0.09269 0.57828 0.0
N10 N 0.05876 0.13444 0.61007 0.0
N11 N 0.03856 0.09758 0.61606 0.0
C12 C 0.09495 0.1672 0.57449 0.0
H13 H 0.12712 0.1718 0.5834 0.0
H14 H 0.07695 0.1989 0.57552 0.0
H15 H 0.10141 0.15854 0.55585 0.0
C16 C 0.97751 0.27906 0.63698 0.0
N17 N 0.01554 0.25754 0.64065 0.0
N18 N 0.01711 0.22248 0.62709 0.0
C19 C 0.98004 0.22098 0.61399 0.0
C20 C 0.95377 0.25678 0.61983 0.0
C21 C 0.96264 0.31741 0.65151 0.0
H22 H 0.972 0.31223 0.67019 0.0
H23 H 0.97941 0.34759 0.64514 0.0
H24 H 0.92649 0.32224 0.65052 0.0
O25 O 0.06604 0.22023 0.68497 0.0
O26 O 0.06929 0.15974 0.66317 0.0
H27 H 0.96748 0.15384 0.6049 0.0
H28 H 0.93935 0.19315 0.58625 0.0
C29 C 0.97017 0.18625 0.59606 0.0
H30 H -0.00257 0.18472 0.58315 0.0
H31 H 0.02628 0.09108 0.63288 0.0
O32 O 0.05385 0.32314 0.67969 0.0
C33 C 0.0689 0.1786 0.6832 0.0
Co34 Co 0.81335 0.55742 0.1632 0.0
Co35 Co 0.8967 0.56243 0.13089 0.0
C36 C 0.83014 0.63462 0.13157 0.0
O37 O 0.80657 0.61397 0.14645 0.0
O38 O 0.86632 0.61877 0.12409 0.0
C39 C 0.72173 0.56191 0.17446 0.0
O40 O 0.7186 0.57918 0.1533 0.0
C41 C 0.94592 0.56811 0.08693 0.0
C42 C 0.00938 0.53695 0.09631 0.0
C43 C 0.98638 0.55566 0.07777 0.0
N44 N 0.94478 0.55652 0.10974 0.0
N45 N 0.98292 0.53833 0.11534 0.0
C46 C 0.90942 0.5924 0.07482 0.0
H47 H 0.87791 0.57446 0.07731 0.0
H48 H 0.91591 0.59745 0.05581 0.0
H49 H 0.90568 0.62517 0.08315 0.0
C50 C 0.80201 0.47325 0.13836 0.0
N51 N 0.82335 0.51143 0.14181 0.0
N52 N 0.85779 0.51343 0.12777 0.0
C53 C 0.85914 0.47647 0.11463 0.0
C54 C 0.82375 0.44986 0.12088 0.0
C55 C 0.76453 0.45781 0.15342 0.0
H56 H 0.77045 0.46723 0.17202 0.0
H57 H 0.73373 0.474 0.14744 0.0
H58 H 0.76022 0.42164 0.15251 0.0
O59 O 0.86242 0.56167 0.18593 0.0
O60 O 0.92171 0.56551 0.16315 0.0
H61 H 0.92627 0.46486 0.10498 0.0
H62 H 0.88668 0.43605 0.08675 0.0
C63 C 0.8935 0.46699 0.09641 0.0
H64 H 0.89436 0.49421 0.08347 0.0
H65 H 0.99058 0.52619 0.13205 0.0
O66 O 0.75898 0.54848 0.18171 0.0
C67 C 0.90399 0.56487 0.18348 0.0
Co68 Co 0.52862 0.30608 0.65972 0.0
Co69 Co 0.52492 0.39279 0.63004 0.0
C70 C 0.45206 0.32693 0.62843 0.0
O71 O 0.47237 0.30157 0.64255 0.0
O72 O 0.46819 0.3638 0.62225 0.0
C73 C 0.51963 0.21448 0.6706 0.0
O74 O 0.5 0.21258 0.65 0.0
C75 C 0.52162 0.44567 0.58731 0.0
C76 C 0.55529 0.50686 0.59825 0.0
C77 C 0.53668 0.48585 0.57902 0.0
N78 N 0.53192 0.44261 0.61024 0.0
N79 N 0.55141 0.47951 0.6168 0.0
C80 C 0.49692 0.41087 0.57408 0.0
H81 H 0.51535 0.37939 0.57489 0.0
H82 H 0.49075 0.42017 0.5555 0.0
H83 H 0.46461 0.40544 0.58272 0.0
C84 C 0.61305 0.29644 0.63495 0.0
N85 N 0.57497 0.31771 0.63884 0.0
N86 N 0.5736 0.35366 0.62594 0.0
C87 C 0.61094 0.3561 0.6131 0.0
C88 C 0.63711 0.31991 0.61838 0.0
C89 C 0.62769 0.25724 0.6489 0.0
H90 H 0.61865 0.26166 0.66767 0.0
H91 H 0.6104 0.22758 0.64223 0.0
H92 H 0.66376 0.25198 0.6477 0.0
O93 O 0.52463 0.35286 0.68364 0.0
O94 O 0.52193 0.41468 0.66292 0.0
H95 H 0.62328 0.42401 0.60569 0.0
H96 H 0.65268 0.38644 0.58658 0.0
C97 C 0.62134 0.3923 0.5961 0.0
H98 H 0.59468 0.39464 0.58287 0.0
H99 H 0.56324 0.48546 0.63377 0.0
O100 O 0.53658 0.25057 0.67731 0.0
C101 C 0.52212 0.39459 0.6826 0.0
Co102 Co 0.77119 0.02579 0.16251 0.0
Co103 Co 0.68544 0.0214 0.13214 0.0
C104 C 0.7513 0.94865 0.13131 0.0
O105 O 0.77611 0.96918 0.14564 0.0
O106 O 0.71468 0.9647 0.12457 0.0
C107 C 0.86351 0.02004 0.17252 0.0
O108 O 0.86549 0.00137 0.15167 0.0
C109 C 0.63284 0.01817 0.08932 0.0
C110 C 0.57029 0.04867 0.10075 0.0
C111 C 0.59168 0.03128 0.08128 0.0
N112 N 0.63556 0.02763 0.11236 0.0
N113 N 0.5979 0.04525 0.11921 0.0
C114 C 0.67095 0.0016 0.0751 0.0
H115 H 0.70248 0.0083 0.08433 0.0
H116 H 0.67157 0.01733 0.05745 0.0
H117 H 0.66765 0.96552 0.07277 0.0
C118 C 0.78116 0.11001 0.13757 0.0
N119 N 0.75993 0.07188 0.14135 0.0
N120 N 0.72425 0.07034 0.1282 0.0
C121 C 0.72183 0.10769 0.11541 0.0
C122 C 0.75792 0.13396 0.12087 0.0
C123 C 0.82004 0.1249 0.15175 0.0
H124 H 0.81508 0.11621 0.17053 0.0
H125 H 0.84995 0.1076 0.1454 0.0
H126 H 0.82533 0.16089 0.15041 0.0
O127 O 0.72395 0.02202 0.18637 0.0
O128 O 0.66303 0.01841 0.16487 0.0
H129 H 0.65357 0.11835 0.10783 0.0
H130 H 0.69065 0.15013 0.08949 0.0
C131 C 0.68558 0.1181 0.09841 0.0
H132 H 0.68434 0.09232 0.08469 0.0
H133 H 0.59159 0.05621 0.1363 0.0
O134 O 0.8268 0.03455 0.17994 0.0
C135 C 0.68223 0.01905 0.1848 0.0
Co136 Co 0.02785 0.81365 0.32783 0.0
Co137 Co 0.02258 0.89835 0.35906 0.0
C138 C 0.95014 0.83214 0.35888 0.0
O139 O 0.97094 0.80786 0.34442 0.0
O140 O 0.96598 0.86858 0.36592 0.0
C141 C 0.02294 0.72175 0.31739 0.0
O142 O 0.00565 0.71927 0.33858 0.0
C143 C 0.01746 0.9492 0.4025 0.0
C144 C 0.05199 0.01063 0.3928 0.0
C145 C 0.03243 0.98886 0.41152 0.0
N146 N 0.02872 0.94716 0.37966 0.0
N147 N 0.0487 0.98423 0.37384 0.0
C148 C 0.992 0.91394 0.41497 0.0
H149 H 0.96028 0.9087 0.4057 0.0
H150 H 0.01057 0.88254 0.41425 0.0
H151 H 0.98464 0.92269 0.4335 0.0
C152 C 0.11172 0.80324 0.3532 0.0
N153 N 0.07353 0.82437 0.34934 0.0
N154 N 0.07134 0.85934 0.36295 0.0
C155 C 0.10814 0.86118 0.37625 0.0
C156 C 0.1349 0.82569 0.37052 0.0
C157 C 0.12744 0.76531 0.33862 0.0
H158 H 0.11809 0.77042 0.31993 0.0
H159 H 0.11129 0.73474 0.34491 0.0
H160 H 0.16368 0.76121 0.33966 0.0
O161 O 0.02437 0.86171 0.30453 0.0
O162 O 0.0203 0.92194 0.32649 0.0
H163 H 0.12004 0.92848 0.38524 0.0
H164 H 0.14819 0.88953 0.4041 0.0
C165 C 0.11746 0.89612 0.39415 0.0
H166 H 0.08999 0.89755 0.40693 0.0
H167 H 0.06133 0.99091 0.35711 0.0
O168 O 0.03667 0.75867 0.30989 0.0
C169 C 0.02136 0.90331 0.30641 0.0
Co170 Co 0.27756 0.51561 0.833 0.0
Co171 Co 0.18898 0.52312 0.86091 0.0
C172 C 0.25123 0.44652 0.86685 0.0
O173 O 0.27886 0.46268 0.85244 0.0
O174 O 0.21491 0.46576 0.87136 0.0
C175 C 0.36834 0.49972 0.82117 0.0
O176 O 0.36918 0.47792 0.84115 0.0
C177 C 0.14066 0.5379 0.90442 0.0
C178 C 0.07259 0.54851 0.89182 0.0
C179 C 0.09811 0.54666 0.91206 0.0
N180 N 0.14026 0.53522 0.88082 0.0
N181 N 0.09955 0.54167 0.87335 0.0
C182 C 0.18073 0.52946 0.91915 0.0
H183 H 0.20639 0.51224 0.90879 0.0
H184 H 0.19475 0.56123 0.92512 0.0
H185 H 0.172 0.50974 0.93494 0.0
C186 C 0.29316 0.60128 0.85485 0.0
N187 N 0.26865 0.56497 0.85202 0.0
N188 N 0.23033 0.57024 0.86244 0.0
C189 C 0.22843 0.61134 0.87134 0.0
C190 C 0.26837 0.63227 0.86692 0.0
C191 C 0.33945 0.60572 0.84605 0.0
H192 H 0.35788 0.57506 0.84983 0.0
H193 H 0.35679 0.63365 0.85456 0.0
H194 H 0.339 0.61066 0.82668 0.0
O195 O 0.23016 0.51098 0.80896 0.0
O196 O 0.16699 0.51633 0.82847 0.0
H197 H 0.18727 0.66824 0.87748 0.0
H198 H 0.18504 0.62647 0.89988 0.0
C199 C 0.18725 0.63222 0.88063 0.0
H200 H 0.15787 0.61777 0.87202 0.0
H201 H 0.09011 0.54105 0.85567 0.0
O202 O 0.33328 0.51954 0.81508 0.0
C203 C 0.18819 0.51177 0.80928 0.0
Co204 Co 0.55785 0.77088 0.32951 0.0
Co205 Co 0.56353 0.68648 0.36093 0.0
C206 C 0.63582 0.75278 0.36048 0.0
O207 O 0.61485 0.77682 0.34597 0.0
O208 O 0.6201 0.71641 0.36772 0.0
C209 C 0.56299 0.86265 0.31903 0.0
O210 O 0.58106 0.86493 0.34003 0.0
C211 C 0.56884 0.6356 0.40436 0.0
C212 C 0.53543 0.57366 0.39446 0.0
C213 C 0.55459 0.59557 0.41324 0.0
N214 N 0.5576 0.63767 0.38152 0.0
N215 N 0.53823 0.60035 0.37558 0.0
C216 C 0.59381 0.67109 0.41691 0.0
H217 H 0.57492 0.7023 0.41614 0.0
H218 H 0.60111 0.66238 0.43546 0.0
H219 H 0.62555 0.67669 0.40771 0.0
C220 C 0.47397 0.78106 0.35483 0.0
N221 N 0.51231 0.76014 0.35109 0.0
N222 N 0.5146 0.72525 0.36476 0.0
C223 C 0.47769 0.72321 0.37796 0.0
C224 C 0.45079 0.75854 0.37212 0.0
C225 C 0.45811 0.81875 0.34009 0.0
H226 H 0.46734 0.81334 0.32142 0.0
H227 H 0.47428 0.84943 0.34619 0.0
H228 H 0.42187 0.82285 0.34116 0.0
O229 O 0.56139 0.72276 0.30624 0.0
O230 O 0.56589 0.66281 0.32842 0.0
H231 H 0.46609 0.65575 0.38676 0.0
H232 H 0.43731 0.69438 0.40553 0.0
C233 C 0.46827 0.68806 0.39575 0.0
H234 H 0.49553 0.68669 0.40866 0.0
H235 H 0.52584 0.59361 0.35882 0.0
O236 O 0.54873 0.82586 0.31163 0.0
C237 C 0.56467 0.6812 0.30827 0.0
Co238 Co 0.31093 0.06333 0.83325 0.0
Co239 Co 0.39803 0.06723 0.86256 0.0
C240 C 0.3294 0.13781 0.86593 0.0
O241 O 0.30454 0.11829 0.85122 0.0
O242 O 0.36675 0.12204 0.87169 0.0
C243 C 0.2189 0.06875 0.82178 0.0
O244 O 0.21568 0.08856 0.84227 0.0
C245 C 0.44829 0.067 0.90591 0.0
C246 C 0.51389 0.04391 0.89437 0.0
C247 C 0.48996 0.05623 0.9141 0.0
N248 N 0.44767 0.06125 0.8825 0.0
N249 N 0.48706 0.04797 0.8756 0.0
C250 C 0.40814 0.07785 0.92009 0.0
H251 H 0.37785 0.06929 0.91013 0.0
H252 H 0.40839 0.05997 0.93714 0.0
H253 H 0.40766 0.11371 0.92371 0.0
C254 C 0.30317 0.97796 0.85724 0.0
N255 N 0.32352 0.01666 0.85378 0.0
N256 N 0.36078 0.01728 0.86563 0.0
C257 C 0.36569 0.97836 0.8767 0.0
C258 C 0.32911 0.9525 0.87197 0.0
C259 C 0.26269 0.96386 0.8442 0.0
H260 H 0.26876 0.96627 0.82496 0.0
H261 H 0.23525 0.98651 0.84858 0.0
H262 H 0.25291 0.92971 0.84868 0.0
O263 O 0.35812 0.06953 0.80929 0.0
O264 O 0.42003 0.07262 0.82998 0.0
H265 H 0.4358 0.97137 0.87891 0.0
H266 H 0.40539 0.92919 0.89449 0.0
C267 C 0.40623 0.9646 0.88979 0.0
H268 H 0.40879 0.9839 0.90628 0.0
H269 H 0.49522 0.04048 0.85819 0.0
O270 O 0.25595 0.05351 0.81532 0.0
C271 C 0.3999 0.07286 0.81032 0.0
H272 H 0.05589 0.94031 0.44996 0.0
H273 H 0.02975 0.1411 0.53991 0.0
H274 H 0.01583 0.07057 0.42891 0.0
H275 H 0.06989 0.01085 0.56092 0.0
H276 H 0.02453 0.116 0.49914 0.0
H277 H 0.06058 0.9653 0.49076 0.0
C278 C 0.04717 0.97399 0.45406 0.0
C279 C 0.03404 0.00317 0.43627 0.0
C280 C 0.03485 0.09294 0.51259 0.0
C281 C 0.04087 0.03242 0.48271 0.0
C282 C 0.03834 0.10739 0.5358 0.0
C283 C 0.05169 0.07826 0.55356 0.0
C284 C 0.0443 0.04889 0.50718 0.0
C285 C 0.06017 0.03441 0.54758 0.0
C286 C 0.05037 0.98838 0.47729 0.0
C287 C 0.02539 0.04698 0.44227 0.0
N288 N 0.05653 0.02104 0.52483 0.0
N289 N 0.02878 0.0603 0.46504 0.0
H290 H 0.94125 0.52958 0.03868 0.0
H291 H 0.13851 0.58551 0.95017 0.0
H292 H 0.06621 0.58222 0.06124 0.0
H293 H 0.01906 0.51928 0.92918 0.0
H294 H 0.1111 0.5888 0.99051 0.0
H295 H 0.96741 0.53011 -0.00204 0.0
C296 C 0.97395 0.54205 0.03493 0.0
C297 C 0.00129 0.55706 0.05312 0.0
C298 C 0.09098 0.57332 0.97711 0.0
C299 C 0.03195 0.55654 0.0068 0.0
C300 C 0.10686 0.57096 0.95409 0.0
C301 C 0.08162 0.5508 0.93644 0.0
C302 C 0.04936 0.5558 0.98244 0.0
C303 C 0.03975 0.53472 0.94233 0.0
C304 C 0.98905 0.54191 0.01175 0.0
C305 C 0.04404 0.57095 0.04757 0.0
N306 N 0.02501 0.53735 0.96487 0.0
N307 N 0.05807 0.57053 0.02484 0.0
H308 H 0.56259 0.43969 0.54026 0.0
H309 H 0.53074 0.6426 0.45214 0.0
H310 H 0.51892 0.56802 0.56253 0.0
H311 H 0.57352 0.51391 0.42995 0.0
H312 H 0.52734 0.61638 0.49279 0.0
H313 H 0.56734 0.46642 0.49977 0.0
C314 C 0.55318 0.47332 0.53649 0.0
C315 C 0.53892 0.50141 0.55451 0.0
C316 C 0.53787 0.59393 0.4791 0.0
C317 C 0.5457 0.53267 0.50845 0.0
C318 C 0.54031 0.60902 0.45596 0.0
C319 C 0.55378 0.58063 0.43789 0.0
C320 C 0.54849 0.54998 0.48413 0.0
C321 C 0.56362 0.53689 0.44352 0.0
C322 C 0.55637 0.48871 0.51344 0.0
C323 C 0.52935 0.54525 0.54897 0.0
N324 N 0.56094 0.52289 0.4662 0.0
N325 N 0.53269 0.55954 0.52636 0.0
H326 H 0.47221 0.11293 0.95039 0.0
H327 H 0.6041 0.97089 0.04584 0.0
H328 H 0.54349 0.99433 0.93354 0.0
H329 H 0.54081 0.09462 0.06127 0.0
H330 H 0.58016 0.97738 0.0049 0.0
H331 H 0.49526 0.1056 0.9914 0.0
C332 C 0.49233 0.08508 0.95539 0.0
C333 C 0.50522 0.05365 0.93871 0.0
C334 C 0.57164 0.00319 0.01722 0.0
C335 C 0.53245 0.04545 0.98547 0.0
C336 C 0.58559 -0.00035 0.04056 0.0
C337 C 0.57536 0.03282 0.05681 0.0
C338 C 0.54697 0.04 0.01018 0.0
C339 C 0.54963 0.06843 0.04925 0.0
C340 C 0.50578 0.08107 0.97877 0.0
C341 C 0.53271 0.01915 0.94594 0.0
N342 N 0.53651 0.07121 0.02644 0.0
N343 N 0.54524 0.0158 0.96883 0.0
H344 H 0.14396 0.11868 0.82445 0.0
H345 H 0.09833 0.09354 0.68676 0.0
H346 H 0.21222 0.02723 0.77916 0.0
H347 H 0.05655 0.20411 0.72893 0.0
H348 H 0.12258 0.05616 0.72267 0.0
H349 H 0.09424 0.13641 0.79193 0.0
C350 C 0.14791 0.10158 0.80784 0.0
C351 C 0.18292 0.07219 0.80433 0.0
C352 C 0.10742 0.0883 0.72406 0.0
C353 C 0.12638 0.09254 0.76708 0.0
C354 C 0.09346 0.10962 0.70359 0.0
C355 C 0.07624 0.15241 0.70481 0.0
C356 C 0.10389 0.10985 0.74587 0.0
C357 C 0.07044 0.17149 0.72712 0.0
C358 C 0.11962 0.11188 0.78926 0.0
C359 C 0.18619 0.05077 0.78249 0.0
N360 N 0.08473 0.1503 0.74673 0.0
N361 N 0.15871 0.06186 0.76457 0.0
H362 H 0.97302 0.64727 0.32239 0.0
H363 H 0.98986 0.59278 0.1853 0.0
H364 H 0.06143 0.71252 0.27411 0.0
H365 H 0.88069 0.55538 0.22981 0.0
H366 H 0.02947 0.61864 0.22016 0.0
H367 H 0.95304 0.59563 0.29115 0.0
C368 C 0.98901 0.65015 0.3054 0.0
C369 C 0.0182 0.68485 0.30067 0.0
C370 C -0.00286 0.60408 0.2223 0.0
C371 C -0.00469 0.62608 0.26491 0.0
C372 C 0.97453 0.58919 0.20243 0.0
C373 C 0.93147 0.57277 0.20458 0.0
C374 C 0.97663 0.60232 0.24446 0.0
C375 C 0.91347 0.5686 0.22727 0.0
C376 C 0.97742 0.62077 0.28755 0.0
C377 C 0.03811 0.68676 0.27837 0.0
N378 N 0.93591 0.58382 0.24629 0.0
N379 N 0.02583 0.65819 0.2612 0.0
H380 H 0.43978 0.44488 0.82355 0.0
H381 H 0.49497 0.48016 0.68758 0.0
H382 H 0.37957 0.54414 0.77968 0.0
H383 H 0.53203 0.36549 0.7279 0.0
H384 H 0.46991 0.51538 0.72391 0.0
H385 H 0.49076 0.42772 0.79153 0.0
C386 C 0.43782 0.46367 0.80736 0.0
C387 C 0.40472 0.49528 0.80406 0.0
C388 C 0.48421 0.48279 0.72482 0.0
C389 C 0.46273 0.47564 0.76737 0.0
C390 C 0.49864 0.4627 0.7041 0.0
C391 C 0.51471 0.41942 0.70464 0.0
C392 C 0.48602 0.45948 0.74617 0.0
C393 C 0.51903 0.39856 0.72659 0.0
C394 C 0.46685 0.45375 0.78907 0.0
C395 C 0.40403 0.51889 0.7828 0.0
N396 N 0.50421 0.41856 0.74644 0.0
N397 N 0.43216 0.50814 0.76512 0.0
H398 H 0.52084 0.87374 0.27689 0.0
H399 H 0.70865 0.02904 0.23063 0.0
H400 H 0.61641 0.93484 0.32271 0.0
H401 H 0.59651 0.99151 0.18834 0.0
H402 H 0.66978 0.00383 0.26574 0.0
H403 H 0.54118 0.92523 0.24574 0.0
C404 C 0.54552 0.89857 0.28054 0.0
C405 C 0.56763 0.89944 0.30224 0.0
C406 C 0.65331 0.00182 0.24885 0.0
C407 C 0.59162 0.95799 0.26657 0.0
C408 C 0.67558 0.01611 0.22876 0.0
C409 C 0.65618 0.01153 0.20645 0.0
C410 C 0.61165 0.98215 0.24657 0.0
C411 C 0.61299 -0.00485 0.20515 0.0
C412 C 0.55713 0.928 0.26275 0.0
C413 C 0.59889 0.93266 0.30614 0.0
N414 N 0.59251 0.98025 0.22488 0.0
N415 N 0.61065 0.96003 0.28828 0.0
H416 H 0.03385 0.87839 0.26057 0.0
H417 H 0.87481 0.06312 0.21433 0.0
H418 H 0.99197 0.98834 0.30316 0.0
H419 H 0.93639 0.96747 0.16884 0.0
H420 H 0.92701 0.04402 0.24538 0.0
H421 H 0.00853 0.91716 0.22548 0.0
C422 C 0.01995 0.911 0.26251 0.0
C423 C 0.01413 0.92974 0.28489 0.0
C424 C 0.92973 0.02778 0.22847 0.0
C425 C 0.98458 0.97413 0.24478 0.0
C426 C 0.89988 0.03867 0.21073 0.0
C427 C 0.90067 0.01614 0.18916 0.0
C428 C 0.96007 0.99361 0.22474 0.0
C429 C 0.93424 0.98526 0.18531 0.0
C430 C 0.00558 0.9332 0.24243 0.0
C431 C -0.00343 0.97237 0.28629 0.0
N432 N 0.96203 0.97421 0.20312 0.0
N433 N 0.9816 0.99276 0.26655 0.0
H434 H 0.21941 0.51612 0.76412 0.0
H435 H 0.02659 0.37123 0.71455 0.0
H436 H 0.10154 0.48844 0.80406 0.0
H437 H 0.12594 0.42955 0.66998 0.0
H438 H 0.04828 0.4209 0.74629 0.0
H439 H 0.1819 0.49167 0.72843 0.0
C440 C 0.18544 0.50541 0.76534 0.0
C441 C 0.16383 0.50356 0.78717 0.0
C442 C 0.06476 0.42349 0.72943 0.0
C443 C 0.12082 0.47512 0.74641 0.0
C444 C 0.0524 0.39511 0.7113 0.0
C445 C 0.07508 0.39572 0.68977 0.0
C446 C 0.10058 0.45209 0.72611 0.0
C447 C 0.10787 0.42764 0.6864 0.0
C448 C 0.16395 0.49162 0.74492 0.0
C449 C 0.11962 0.48999 0.78764 0.0
N450 N 0.1203 0.45394 0.70457 0.0
N451 N 0.09982 0.4755 0.76762 0.0
H452 H 0.55262 0.70551 0.26227 0.0
H453 H 0.71253 0.52101 0.21707 0.0
H454 H 0.59414 0.59618 0.30546 0.0
H455 H 0.64802 0.61324 0.17067 0.0
H456 H 0.66088 0.54082 0.24825 0.0
H457 H 0.57815 0.66617 0.22741 0.0
C458 C 0.56648 0.67292 0.26439 0.0
C459 C 0.57211 0.65451 0.28687 0.0
C460 C 0.65741 0.55614 0.23112 0.0
C461 C 0.6019 0.60948 0.24704 0.0
C462 C 0.68695 0.54485 0.21331 0.0
C463 C 0.68513 0.56621 0.19142 0.0
C464 C 0.62636 0.58956 0.22712 0.0
C465 C 0.65095 0.59635 0.18739 0.0
C466 C 0.58097 0.65039 0.24445 0.0
C467 C 0.58967 0.6119 0.28851 0.0
N468 N 0.62348 0.60784 0.20525 0.0
N469 N 0.60475 0.59119 0.2689 0.0
H470 H 0.48678 0.09608 0.80578 0.0
H471 H 0.46241 0.14495 0.66828 0.0
H472 H 0.37059 0.06652 0.76478 0.0
H473 H 0.56124 0.2039 0.71296 0.0
H474 H 0.44001 0.09786 0.70109 0.0
H475 H 0.5247 0.11789 0.76963 0.0
C476 C 0.46941 0.09356 0.78916 0.0
C477 C 0.42511 0.08027 0.78837 0.0
C478 C 0.46713 0.12056 0.70356 0.0
C479 C 0.46844 0.10505 0.74699 0.0
C480 C 0.48013 0.14727 0.6848 0.0
C481 C 0.51312 0.17905 0.68807 0.0
C482 C 0.48742 0.12558 0.72563 0.0
C483 C 0.53508 0.1804 0.70982 0.0
C484 C 0.4911 0.10605 0.76854 0.0
C485 C 0.40447 0.07729 0.76628 0.0
N486 N 0.52142 0.15451 0.72789 0.0
N487 N 0.42617 0.09005 0.7465 0.0
H488 H 0.91931 0.33464 0.60478 0.0
H489 H 0.67238 0.24359 0.60179 0.0
H490 H 0.88475 0.19952 0.61867 0.0
H491 H 0.70597 0.37735 0.6195 0.0
H492 H 0.75087 0.2277 0.59574 0.0
H493 H 0.84116 0.35119 0.598 0.0
C494 C 0.89527 0.3084 0.606 0.0
C495 C 0.90815 0.26579 0.61237 0.0
C496 C 0.74086 0.2607 0.60053 0.0
C497 C 0.81954 0.28415 0.60444 0.0
C498 C 0.69631 0.26972 0.60398 0.0
C499 C 0.68304 0.3117 0.61123 0.0
C500 C 0.77205 0.29409 0.60418 0.0
C501 C 0.71498 0.34466 0.61369 0.0
C502 C 0.85091 0.31779 0.60212 0.0
C503 C 0.87607 0.23271 0.61356 0.0
N504 N 0.75817 0.33508 0.61032 0.0
N505 N 0.83308 0.24265 0.60978 0.0
H506 H 0.74526 0.41563 0.10659 0.0
H507 H 0.83467 0.16842 0.1042 0.0
H508 H 0.88099 0.38081 0.119 0.0
H509 H 0.70102 0.20328 0.12188 0.0
H510 H 0.85129 0.24657 0.09784 0.0
H511 H 0.72805 0.33764 0.10033 0.0
C512 C 0.77151 0.39155 0.10757 0.0
C513 C 0.81448 0.40434 0.11342 0.0
C514 C 0.81816 0.23693 0.1027 0.0
C515 C 0.79531 0.3158 0.10614 0.0
C516 C 0.80871 0.19256 0.10631 0.0
C517 C 0.76653 0.17972 0.1136 0.0
C518 C 0.785 0.2684 0.10624 0.0
C519 C 0.73384 0.21193 0.11601 0.0
C520 C 0.76172 0.34726 0.10401 0.0
C521 C 0.84751 0.3722 0.11432 0.0
N522 N 0.74383 0.25493 0.11248 0.0
N523 N 0.83718 0.32924 0.11089 0.0
H524 H 0.38288 0.69995 0.37262 0.0
H525 H 0.20305 0.88394 0.37159 0.0
H526 H 0.41454 0.83547 0.38723 0.0
H527 H 0.17052 0.7484 0.38566 0.0
H528 H 0.28054 0.86747 0.3791 0.0
H529 H 0.30504 0.71624 0.37924 0.0
C530 C 0.37345 0.73291 0.37781 0.0
C531 C 0.40488 0.76651 0.37939 0.0
C532 C 0.2564 0.84147 0.38101 0.0
C533 C 0.3161 0.78569 0.38621 0.0
C534 C 0.2122 0.85092 0.37683 0.0
C535 C 0.18062 0.8174 0.37803 0.0
C536 C 0.26907 0.79801 0.38588 0.0
C537 C 0.19416 0.77497 0.38436 0.0
C538 C 0.32905 0.74225 0.38147 0.0
C539 C 0.39101 0.80885 0.38565 0.0
N540 N 0.23758 0.76625 0.3877 0.0
N541 N 0.34745 0.81747 0.38847 0.0
H542 H 0.37854 0.89021 0.85102 0.0
H543 H 0.2552 0.68348 0.90606 0.0
H544 H 0.2704 0.90771 0.89929 0.0
H545 H 0.30456 0.68778 0.8348 0.0
H546 H 0.2731 0.76215 0.91028 0.0
H547 H 0.36653 0.81055 0.85218 0.0
C548 C 0.35277 0.87694 0.86217 0.0
C549 C 0.32536 0.90485 0.87511 0.0
C550 C 0.28024 0.74549 0.89386 0.0
C551 C 0.3113 0.81473 0.87644 0.0
C552 C 0.26997 0.70092 0.89141 0.0
C553 C 0.2791 0.67916 0.87018 0.0
C554 C 0.30033 0.76774 0.87505 0.0
C555 C 0.29824 0.70298 0.8517 0.0
C556 C 0.34577 0.8318 0.86274 0.0
C557 C 0.2921 0.8867 0.88916 0.0
N558 N 0.30851 0.74594 0.85462 0.0
N559 N 0.28581 0.84244 0.88946 0.0
H560 H 0.41623 0.24467 0.62653 0.0
H561 H 0.17435 0.33172 0.63003 0.0
H562 H 0.38579 0.38118 0.61341 0.0
H563 H 0.20389 0.19686 0.61229 0.0
H564 H 0.25126 0.35106 0.62273 0.0
H565 H 0.33891 0.22608 0.62001 0.0
C566 C 0.39335 0.27065 0.62195 0.0
C567 C 0.40726 0.31461 0.62081 0.0
C568 C 0.24075 0.31739 0.62003 0.0
C569 C 0.31875 0.29364 0.61368 0.0
C570 C 0.19692 0.30629 0.6243 0.0
C571 C 0.18291 0.26251 0.62207 0.0
C572 C 0.27094 0.28432 0.614 0.0
C573 C 0.21341 0.23096 0.61436 0.0
C574 C 0.34927 0.25999 0.61813 0.0
C575 C 0.37636 0.3469 0.61459 0.0
N576 N 0.25626 0.24233 0.61104 0.0
N577 N 0.33329 0.33589 0.61171 0.0
H578 H 0.74768 0.67052 0.13306 0.0
H579 H 0.83375 0.9128 0.13037 0.0
H580 H 0.88218 0.70077 0.11435 0.0
H581 H 0.69739 0.88208 0.11636 0.0
H582 H 0.85261 0.83552 0.12416 0.0
H583 H 0.72807 0.74758 0.12666 0.0
C584 C 0.77297 0.69329 0.12731 0.0
C585 C 0.81673 0.67938 0.12448 0.0
C586 C 0.81869 0.84583 0.12204 0.0
C587 C 0.79462 0.76756 0.11747 0.0
C588 C 0.80787 0.88987 0.12567 0.0
C589 C 0.76388 0.90373 0.12411 0.0
C590 C 0.78514 0.81528 0.11736 0.0
C591 C 0.7317 0.87272 0.1178 0.0
C592 C 0.76171 0.73719 0.12357 0.0
C593 C 0.84809 0.71017 0.11683 0.0
N594 N 0.74285 0.82972 0.1151 0.0
N595 N 0.83659 0.75306 0.11402 0.0
H596 H 0.67154 0.8352 0.35988 0.0
H597 H 0.91423 0.74977 0.35856 0.0
H598 H 0.7026 0.7001 0.37636 0.0
H599 H 0.88385 0.88492 0.37522 0.0
H600 H 0.83708 0.73042 0.3653 0.0
H601 H 0.74891 0.8546 0.36577 0.0
C602 C 0.69457 0.80973 0.36504 0.0
C603 C 0.6808 0.7659 0.36739 0.0
C604 C 0.84746 0.76417 0.36786 0.0
C605 C 0.7693 0.78775 0.37378 0.0
C606 C 0.89141 0.77527 0.36392 0.0
C607 C 0.90529 0.8191 0.36608 0.0
C608 C 0.81705 0.79729 0.37348 0.0
C609 C 0.87446 0.85076 0.37326 0.0
C610 C 0.73865 0.82086 0.36849 0.0
C611 C 0.7119 0.73427 0.37429 0.0
N612 N 0.83152 0.83938 0.37628 0.0
N613 N 0.75494 0.74566 0.3768 0.0
H614 H 0.38061 0.20024 0.88743 0.0
H615 H 0.19214 0.38292 0.87988 0.0
H616 H 0.24705 0.1742 0.86518 0.0
H617 H 0.33144 0.41023 0.87565 0.0
H618 H 0.20924 0.30547 0.88793 0.0
H619 H 0.35949 0.27608 0.89642 0.0
C620 C 0.34669 0.21021 0.88483 0.0
C621 C 0.31576 0.18119 0.87504 0.0
C622 C 0.23598 0.3287 0.88572 0.0
C623 C 0.29148 0.26754 0.88542 0.0
C624 C 0.22627 0.37284 0.88126 0.0
C625 C 0.26047 0.40265 0.87668 0.0
C626 C 0.2801 0.31474 0.88586 0.0
C627 C 0.30413 0.388 0.87866 0.0
C628 C 0.33471 0.25346 0.88994 0.0
C629 C 0.27218 0.19577 0.87224 0.0
N630 N 0.31272 0.34494 0.88287 0.0
N631 N 0.26142 0.23811 0.87716 0.0
loop_
_geom_bond_atom_site_label_1
_geom_bond_atom_site_label_2
_geom_bond_distance
_geom_bond_site_symmetry_2
_ccdc_geom_bond_type
Co0 O3 1.970 . S
Co0 N17 1.989 . S
Co0 O25 1.967 . S
Co0 O32 1.920 . S
Co1 O4 1.966 . S
Co1 N10 2.022 . S
Co1 N18 1.993 . S
Co1 O26 1.941 . S
C2 O3 1.258 . S
C2 O4 1.263 . S
O3 Co0 1.970 . S
O3 C2 1.258 . S
O4 Co1 1.966 . S
O4 C2 1.263 . S
C5 O6 1.235 . S
C5 O32 1.289 . S
O6 C5 1.235 . S
C7 C9 1.400 . S
C7 N10 1.351 . S
C7 C12 1.501 . S
C8 C9 1.387 . S
C8 N11 1.341 . S
C9 C7 1.400 . S
C9 C8 1.387 . S
N10 Co1 2.022 . S
N10 C7 1.351 . S
N10 N11 1.365 . S
N11 C8 1.341 . S
N11 N10 1.365 . S
N11 H31 0.862 . S
C12 C7 1.501 . S
C12 H13 0.961 . S
C12 H14 0.961 . S
C12 H15 0.960 . S
H13 C12 0.961 . S
H14 C12 0.961 . S
H15 C12 0.960 . S
C16 N17 1.342 1_655 S
C16 C20 1.401 . S
C16 C21 1.499 . S
N17 Co0 1.989 . S
N17 C16 1.342 1_455 S
N17 N18 1.388 . S
N18 Co1 1.993 . S
N18 N17 1.388 . S
N18 C19 1.346 1_455 S
C19 N18 1.346 1_655 S
C19 C20 1.396 . S
C19 C29 1.510 . S
C20 C16 1.401 . S
C20 C19 1.396 . S
C21 C16 1.499 . S
C21 H22 0.968 . S
C21 H23 0.960 . S
C21 H24 0.961 . S
H22 C21 0.968 . S
H23 C21 0.960 . S
H24 C21 0.961 . S
O25 Co0 1.967 . S
O25 C33 1.258 . S
O26 Co1 1.941 . S
O26 C33 1.266 . S
H27 C29 0.959 . S
H28 C29 0.961 . S
C29 C19 1.510 . S
C29 H27 0.959 . S
C29 H28 0.961 . S
C29 H30 0.960 . S
H30 C29 0.960 . S
H31 N11 0.862 . S
O32 Co0 1.920 . S
O32 C5 1.289 . S
C33 O25 1.258 . S
C33 O26 1.266 . S
Co34 O37 1.970 . S
Co34 N51 1.989 . S
Co34 O59 1.967 . S
Co34 O66 1.920 . S
Co35 O38 1.966 . S
Co35 N44 2.022 . S
Co35 N52 1.993 . S
Co35 O60 1.941 . S
C36 O37 1.258 . S
C36 O38 1.263 . S
O37 Co34 1.970 . S
O37 C36 1.258 . S
O38 Co35 1.966 . S
O38 C36 1.263 . S
C39 O40 1.235 . S
C39 O66 1.289 . S
O40 C39 1.235 . S
C41 C43 1.400 . S
C41 N44 1.351 . S
C41 C46 1.501 . S
C42 C43 1.387 . S
C42 N45 1.341 . S
C43 C41 1.400 . S
C43 C42 1.387 . S
N44 Co35 2.022 . S
N44 C41 1.351 . S
N44 N45 1.365 . S
N45 C42 1.341 . S
N45 N44 1.365 . S
N45 H65 0.862 . S
C46 C41 1.501 . S
C46 H47 0.961 . S
C46 H48 0.961 . S
C46 H49 0.960 . S
H47 C46 0.961 . S
H48 C46 0.961 . S
H49 C46 0.960 . S
C50 N51 1.342 . S
C50 C54 1.401 . S
C50 C55 1.499 . S
N51 Co34 1.989 . S
N51 C50 1.342 . S
N51 N52 1.388 . S
N52 Co35 1.993 . S
N52 N51 1.388 . S
N52 C53 1.346 . S
C53 N52 1.346 . S
C53 C54 1.396 . S
C53 C63 1.510 . S
C54 C50 1.401 . S
C54 C53 1.396 . S
C55 C50 1.499 . S
C55 H56 0.959 . S
C55 H57 0.960 . S
C55 H58 0.961 . S
H56 C55 0.959 . S
H57 C55 0.960 . S
H58 C55 0.961 . S
O59 Co34 1.967 . S
O59 C67 1.258 . S
O60 Co35 1.941 . S
O60 C67 1.266 . S
H61 C63 0.959 . S
H62 C63 0.961 . S
C63 C53 1.510 . S
C63 H61 0.959 . S
C63 H62 0.961 . S
C63 H64 0.960 . S
H64 C63 0.960 . S
H65 N45 0.862 . S
O66 Co34 1.920 . S
O66 C39 1.289 . S
C67 O59 1.258 . S
C67 O60 1.266 . S
Co68 O71 1.970 . S
Co68 N85 1.989 . S
Co68 O93 1.967 . S
Co68 O100 1.920 . S
Co69 O72 1.966 . S
Co69 N78 2.022 . S
Co69 N86 1.993 . S
Co69 O94 1.941 . S
C70 O71 1.258 . S
C70 O72 1.263 . S
O71 Co68 1.970 . S
O71 C70 1.258 . S
O72 Co69 1.966 . S
O72 C70 1.263 . S
C73 O74 1.235 . S
C73 O100 1.289 . S
O74 C73 1.235 . S
C75 C77 1.400 . S
C75 N78 1.351 . S
C75 C80 1.501 . S
C76 C77 1.387 . S
C76 N79 1.341 . S
C77 C75 1.400 . S
C77 C76 1.387 . S
N78 Co69 2.022 . S
N78 C75 1.351 . S
N78 N79 1.365 . S
N79 C76 1.341 . S
N79 N78 1.365 . S
N79 H99 0.862 . S
C80 C75 1.501 . S
C80 H81 0.961 . S
C80 H82 0.961 . S
C80 H83 0.960 . S
H81 C80 0.961 . S
H82 C80 0.961 . S
H83 C80 0.960 . S
C84 N85 1.342 . S
C84 C88 1.401 . S
C84 C89 1.499 . S
N85 Co68 1.989 . S
N85 C84 1.342 . S
N85 N86 1.388 . S
N86 Co69 1.993 . S
N86 N85 1.388 . S
N86 C87 1.346 . S
C87 N86 1.346 . S
C87 C88 1.396 . S
C87 C97 1.510 . S
C88 C84 1.401 . S
C88 C87 1.396 . S
C89 C84 1.499 . S
C89 H90 0.959 . S
C89 H91 0.960 . S
C89 H92 0.961 . S
H90 C89 0.959 . S
H91 C89 0.960 . S
H92 C89 0.961 . S
O93 Co68 1.967 . S
O93 C101 1.258 . S
O94 Co69 1.941 . S
O94 C101 1.266 . S
H95 C97 0.959 . S
H96 C97 0.961 . S
C97 C87 1.510 . S
C97 H95 0.959 . S
C97 H96 0.961 . S
C97 H98 0.960 . S
H98 C97 0.960 . S
H99 N79 0.862 . S
O100 Co68 1.920 . S
O100 C73 1.289 . S
C101 O93 1.258 . S
C101 O94 1.266 . S
Co102 O105 1.970 1_545 S
Co102 N119 1.989 . S
Co102 O127 1.967 1_545 S
Co102 O134 1.920 . S
Co103 O106 1.966 1_545 S
Co103 N112 2.022 . S
Co103 N120 1.993 . S
Co103 O128 1.941 . S
C104 O105 1.258 . S
C104 O106 1.263 . S
O105 Co102 1.970 1_565 S
O105 C104 1.258 . S
O106 Co103 1.966 1_565 S
O106 C104 1.263 . S
C107 O108 1.235 . S
C107 O134 1.289 . S
O108 C107 1.235 . S
C109 C111 1.400 . S
C109 N112 1.351 . S
C109 C114 1.501 1_545 S
C110 C111 1.387 . S
C110 N113 1.341 . S
C111 C109 1.400 . S
C111 C110 1.387 . S
N112 Co103 2.022 . S
N112 C109 1.351 . S
N112 N113 1.365 . S
N113 C110 1.341 . S
N113 N112 1.365 . S
N113 H133 0.862 . S
C114 C109 1.501 1_565 S
C114 H115 0.961 . S
C114 H116 0.961 1_565 S
C114 H117 0.960 . S
H115 C114 0.961 . S
H116 C114 0.961 1_545 S
H117 C114 0.960 . S
C118 N119 1.342 . S
C118 C122 1.401 . S
C118 C123 1.499 . S
N119 Co102 1.989 . S
N119 C118 1.342 . S
N119 N120 1.388 . S
N120 Co103 1.993 . S
N120 N119 1.388 . S
N120 C121 1.346 . S
C121 N120 1.346 . S
C121 C122 1.396 . S
C121 C131 1.510 . S
C122 C118 1.401 . S
C122 C121 1.396 . S
C123 C118 1.499 . S
C123 H124 0.959 . S
C123 H125 0.960 . S
C123 H126 0.961 . S
H124 C123 0.959 . S
H125 C123 0.960 . S
H126 C123 0.961 . S
O127 Co102 1.967 1_565 S
O127 C135 1.258 . S
O128 Co103 1.941 . S
O128 C135 1.266 1_545 S
H129 C131 0.959 . S
H130 C131 0.961 . S
C131 C121 1.510 . S
C131 H129 0.959 . S
C131 H130 0.961 . S
C131 H132 0.960 . S
H132 C131 0.960 . S
H133 N113 0.862 . S
O134 Co102 1.920 . S
O134 C107 1.289 . S
C135 O127 1.258 . S
C135 O128 1.266 1_565 S
Co136 O139 1.970 1_455 S
Co136 N153 1.989 . S
Co136 O161 1.967 1_455 S
Co136 O168 1.920 . S
Co137 O140 1.966 1_455 S
Co137 N146 2.022 . S
Co137 N154 1.993 . S
Co137 O162 1.941 . S
C138 O139 1.258 . S
C138 O140 1.263 . S
O139 Co136 1.970 1_655 S
O139 C138 1.258 . S
O140 Co137 1.966 1_655 S
O140 C138 1.263 . S
C141 O142 1.235 . S
C141 O168 1.289 . S
O142 C141 1.235 . S
C143 C145 1.400 . S
C143 N146 1.351 . S
C143 C148 1.501 1_455 S
C144 C145 1.387 . S
C144 N147 1.341 . S
C145 C143 1.400 . S
C145 C144 1.387 . S
N146 Co137 2.022 . S
N146 C143 1.351 . S
N146 N147 1.365 . S
N147 C144 1.341 . S
N147 N146 1.365 . S
N147 H167 0.862 . S
C148 C143 1.501 1_655 S
C148 H149 0.961 . S
C148 H150 0.961 1_655 S
C148 H151 0.960 . S
H149 C148 0.961 . S
H150 C148 0.961 1_455 S
H151 C148 0.960 . S
C152 N153 1.342 . S
C152 C156 1.401 . S
C152 C157 1.499 . S
N153 Co136 1.989 . S
N153 C152 1.342 . S
N153 N154 1.388 . S
N154 Co137 1.993 . S
N154 N153 1.388 . S
N154 C155 1.346 . S
C155 N154 1.346 . S
C155 C156 1.396 . S
C155 C165 1.510 . S
C156 C152 1.401 . S
C156 C155 1.396 . S
C157 C152 1.499 . S
C157 H158 0.959 . S
C157 H159 0.960 . S
C157 H160 0.961 . S
H158 C157 0.959 . S
H159 C157 0.960 . S
H160 C157 0.961 . S
O161 Co136 1.967 1_655 S
O161 C169 1.258 . S
O162 Co137 1.941 . S
O162 C169 1.266 1_455 S
H163 C165 0.959 . S
H164 C165 0.961 . S
C165 C155 1.510 . S
C165 H163 0.959 . S
C165 H164 0.961 . S
C165 H166 0.960 . S
H166 C165 0.960 . S
H167 N147 0.862 . S
O168 Co136 1.920 . S
O168 C141 1.289 . S
C169 O161 1.258 . S
C169 O162 1.266 1_655 S
Co170 O173 1.970 . S
Co170 N187 1.989 . S
Co170 O195 1.967 . S
Co170 O202 1.920 . S
Co171 O174 1.966 . S
Co171 N180 2.022 . S
Co171 N188 1.993 . S
Co171 O196 1.941 . S
C172 O173 1.258 . S
C172 O174 1.263 . S
O173 Co170 1.970 . S
O173 C172 1.258 . S
O174 Co171 1.966 . S
O174 C172 1.263 . S
C175 O176 1.235 . S
C175 O202 1.289 . S
O176 C175 1.235 . S
C177 C179 1.400 . S
C177 N180 1.351 . S
C177 C182 1.501 . S
C178 C179 1.387 . S
C178 N181 1.341 . S
C179 C177 1.400 . S
C179 C178 1.387 . S
N180 Co171 2.022 . S
N180 C177 1.351 . S
N180 N181 1.365 . S
N181 C178 1.341 . S
N181 N180 1.365 . S
N181 H201 0.862 . S
C182 C177 1.501 . S
C182 H183 0.961 . S
C182 H184 0.961 . S
C182 H185 0.960 . S
H183 C182 0.961 . S
H184 C182 0.961 . S
H185 C182 0.960 . S
C186 N187 1.342 . S
C186 C190 1.401 . S
C186 C191 1.499 . S
N187 Co170 1.989 . S
N187 C186 1.342 . S
N187 N188 1.388 . S
N188 Co171 1.993 . S
N188 N187 1.388 . S
N188 C189 1.346 . S
C189 N188 1.346 . S
C189 C190 1.396 . S
C189 C199 1.510 . S
C190 C186 1.401 . S
C190 C189 1.396 . S
C191 C186 1.499 . S
C191 H192 0.959 . S
C191 H193 0.960 . S
C191 H194 0.961 . S
H192 C191 0.959 . S
H193 C191 0.960 . S
H194 C191 0.961 . S
O195 Co170 1.967 . S
O195 C203 1.258 . S
O196 Co171 1.941 . S
O196 C203 1.266 . S
H197 C199 0.959 . S
H198 C199 0.961 . S
C199 C189 1.510 . S
C199 H197 0.959 . S
C199 H198 0.961 . S
C199 H200 0.960 . S
H200 C199 0.960 . S
H201 N181 0.862 . S
O202 Co170 1.920 . S
O202 C175 1.289 . S
C203 O195 1.258 . S
C203 O196 1.266 . S
Co204 O207 1.970 . S
Co204 N221 1.989 . S
Co204 O229 1.967 . S
Co204 O236 1.920 . S
Co205 O208 1.966 . S
Co205 N214 2.022 . S
Co205 N222 1.993 . S
Co205 O230 1.941 . S
C206 O207 1.258 . S
C206 O208 1.263 . S
O207 Co204 1.970 . S
O207 C206 1.258 . S
O208 Co205 1.966 . S
O208 C206 1.263 . S
C209 O210 1.235 . S
C209 O236 1.289 . S
O210 C209 1.235 . S
C211 C213 1.400 . S
C211 N214 1.351 . S
C211 C216 1.501 . S
C212 C213 1.387 . S
C212 N215 1.341 . S
C213 C211 1.400 . S
C213 C212 1.387 . S
N214 Co205 2.022 . S
N214 C211 1.351 . S
N214 N215 1.365 . S
N215 C212 1.341 . S
N215 N214 1.365 . S
N215 H235 0.862 . S
C216 C211 1.501 . S
C216 H217 0.961 . S
C216 H218 0.961 . S
C216 H219 0.960 . S
H217 C216 0.961 . S
H218 C216 0.961 . S
H219 C216 0.960 . S
C220 N221 1.342 . S
C220 C224 1.401 . S
C220 C225 1.499 . S
N221 Co204 1.989 . S
N221 C220 1.342 . S
N221 N222 1.388 . S
N222 Co205 1.993 . S
N222 N221 1.388 . S
N222 C223 1.346 . S
C223 N222 1.346 . S
C223 C224 1.396 . S
C223 C233 1.510 . S
C224 C220 1.401 . S
C224 C223 1.396 . S
C225 C220 1.499 . S
C225 H226 0.959 . S
C225 H227 0.960 . S
C225 H228 0.961 . S
H226 C225 0.959 . S
H227 C225 0.960 . S
H228 C225 0.961 . S
O229 Co204 1.967 . S
O229 C237 1.258 . S
O230 Co205 1.941 . S
O230 C237 1.266 . S
H231 C233 0.959 . S
H232 C233 0.961 . S
C233 C223 1.510 . S
C233 H231 0.959 . S
C233 H232 0.961 . S
C233 H234 0.960 . S
H234 C233 0.960 . S
H235 N215 0.862 . S
O236 Co204 1.920 . S
O236 C209 1.289 . S
C237 O229 1.258 . S
C237 O230 1.266 . S
Co238 O241 1.970 . S
Co238 N255 1.989 . S
Co238 O263 1.967 . S
Co238 O270 1.920 . S
Co239 O242 1.966 . S
Co239 N248 2.022 . S
Co239 N256 1.993 . S
Co239 O264 1.941 . S
C240 O241 1.258 . S
C240 O242 1.263 . S
O241 Co238 1.970 . S
O241 C240 1.258 . S
O242 Co239 1.966 . S
O242 C240 1.263 . S
C243 O244 1.235 . S
C243 O270 1.289 . S
O244 C243 1.235 . S
C245 C247 1.400 . S
C245 N248 1.351 . S
C245 C250 1.501 . S
C246 C247 1.387 . S
C246 N249 1.341 . S
C247 C245 1.400 . S
C247 C246 1.387 . S
N248 Co239 2.022 . S
N248 C245 1.351 . S
N248 N249 1.365 . S
N249 C246 1.341 . S
N249 N248 1.365 . S
N249 H269 0.862 . S
C250 C245 1.501 . S
C250 H251 0.961 . S
C250 H252 0.961 . S
C250 H253 0.960 . S
H251 C250 0.961 . S
H252 C250 0.961 . S
H253 C250 0.960 . S
C254 N255 1.342 1_565 S
C254 C258 1.401 . S
C254 C259 1.499 . S
N255 Co238 1.989 . S
N255 C254 1.342 1_545 S
N255 N256 1.388 . S
N256 Co239 1.993 . S
N256 N255 1.388 . S
N256 C257 1.346 1_545 S
C257 N256 1.346 1_565 S
C257 C258 1.396 . S
C257 C267 1.510 . S
C258 C254 1.401 . S
C258 C257 1.396 . S
C259 C254 1.499 . S
C259 H260 0.959 . S
C259 H261 0.960 . S
C259 H262 0.961 . S
H260 C259 0.959 . S
H261 C259 0.960 . S
H262 C259 0.961 . S
O263 Co238 1.967 . S
O263 C271 1.258 . S
O264 Co239 1.941 . S
O264 C271 1.266 . S
H265 C267 0.959 . S
H266 C267 0.961 . S
C267 C257 1.510 . S
C267 H265 0.959 . S
C267 H266 0.961 . S
C267 H268 0.960 . S
H268 C267 0.960 . S
H269 N249 0.862 . S
O270 Co238 1.920 . S
O270 C243 1.289 . S
C271 O263 1.258 . S
C271 O264 1.266 . S
H272 C278 0.930 . S
H273 C282 0.930 . S
H274 C287 0.929 . S
H275 C285 0.929 . S
H276 C280 0.929 . S
H277 C286 0.929 . S
C278 H272 0.930 . S
C278 C279 1.367 . S
C278 C286 1.378 . S
C279 C278 1.367 . S
C279 C287 1.433 1_565 S
C280 H276 0.929 . S
C280 C282 1.378 . S
C280 C284 1.350 . S
C281 C284 1.463 . S
C281 C286 1.350 1_545 S
C281 N289 1.427 . S
C282 H273 0.930 . S
C282 C280 1.378 . S
C282 C283 1.367 . S
C283 C282 1.367 . S
C283 C285 1.433 . S
C284 C280 1.350 . S
C284 C281 1.463 . S
C284 N288 1.427 . S
C285 H275 0.929 . S
C285 C283 1.433 . S
C285 N288 1.384 . S
C286 H277 0.929 . S
C286 C278 1.378 . S
C286 C281 1.350 1_565 S
C287 H274 0.929 . S
C287 C279 1.433 1_545 S
C287 N289 1.384 . S
N288 C284 1.427 . S
N288 C285 1.384 . S
N289 C281 1.427 . S
N289 C287 1.384 . S
H290 C296 0.930 . S
H291 C300 0.930 . S
H292 C305 0.929 . S
H293 C303 0.929 . S
H294 C298 0.902 1_554 S
H295 C304 0.900 1_656 S
C296 H290 0.930 . S
C296 C297 1.367 . S
C296 C304 1.367 1_655 S
C297 C296 1.367 . S
C297 C305 1.433 1_655 S
C298 H294 0.902 1_556 S
C298 C300 1.378 . S
C298 C302 1.350 . S
C299 C302 1.463 1_554 S
C299 C304 1.363 . S
C299 N307 1.427 . S
C300 H291 0.930 . S
C300 C298 1.378 . S
C300 C301 1.367 . S
C301 C300 1.367 . S
C301 C303 1.433 . S
C302 C298 1.350 . S
C302 C299 1.463 1_556 S
C302 N306 1.427 . S
C303 H293 0.929 . S
C303 C301 1.433 . S
C303 N306 1.384 . S
C304 H295 0.900 1_454 S
C304 C296 1.367 1_455 S
C304 C299 1.363 . S
C305 H292 0.929 . S
C305 C297 1.433 1_455 S
C305 N307 1.384 . S
N306 C302 1.427 . S
N306 C303 1.384 . S
N307 C299 1.427 . S
N307 C305 1.384 . S
H308 C314 0.930 . S
H309 C318 0.930 . S
H310 C323 0.929 . S
H311 C321 0.929 . S
H312 C316 0.929 . S
H313 C322 0.929 . S
C314 H308 0.930 . S
C314 C315 1.367 . S
C314 C322 1.378 . S
C315 C314 1.367 . S
C315 C323 1.433 . S
C316 H312 0.929 . S
C316 C318 1.378 . S
C316 C320 1.350 . S
C317 C320 1.463 . S
C317 C322 1.350 . S
C317 N325 1.427 . S
C318 H309 0.930 . S
C318 C316 1.378 . S
C318 C319 1.367 . S
C319 C318 1.367 . S
C319 C321 1.433 . S
C320 C316 1.350 . S
C320 C317 1.463 . S
C320 N324 1.427 . S
C321 H311 0.929 . S
C321 C319 1.433 . S
C321 N324 1.384 . S
C322 H313 0.929 . S
C322 C314 1.378 . S
C322 C317 1.350 . S
C323 H310 0.929 . S
C323 C315 1.433 . S
C323 N325 1.384 . S
N324 C320 1.427 . S
N324 C321 1.384 . S
N325 C317 1.427 . S
N325 C323 1.384 . S
H326 C332 0.930 . S
H327 C336 0.930 1_565 S
H328 C341 0.929 1_565 S
H329 C339 0.929 . S
H330 C334 0.929 1_565 S
H331 C340 0.929 . S
C332 H326 0.930 . S
C332 C333 1.367 . S
C332 C340 1.378 . S
C333 C332 1.367 . S
C333 C341 1.433 . S
C334 H330 0.929 1_545 S
C334 C336 1.378 . S
C334 C338 1.350 . S
C335 C338 1.463 1_556 S
C335 C340 1.350 . S
C335 N343 1.427 . S
C336 H327 0.930 1_545 S
C336 C334 1.378 . S
C336 C337 1.367 . S
C337 C336 1.367 . S
C337 C339 1.433 . S
C338 C334 1.350 . S
C338 C335 1.463 1_554 S
C338 N342 1.427 . S
C339 H329 0.929 . S
C339 C337 1.433 . S
C339 N342 1.384 . S
C340 H331 0.929 . S
C340 C332 1.378 . S
C340 C335 1.350 . S
C341 H328 0.929 1_545 S
C341 C333 1.433 . S
C341 N343 1.384 . S
N342 C338 1.427 . S
N342 C339 1.384 . S
N343 C335 1.427 . S
N343 C341 1.384 . S
H344 C350 0.930 . S
H345 C354 0.930 . S
H346 C359 0.929 . S
H347 C357 0.929 . S
H348 C352 0.929 . S
H349 C358 0.929 . S
C350 H344 0.930 . S
C350 C351 1.367 . S
C350 C358 1.378 . S
C351 C350 1.367 . S
C351 C359 1.433 . S
C352 H348 0.929 . S
C352 C354 1.378 . S
C352 C356 1.350 . S
C353 C356 1.463 . S
C353 C358 1.350 . S
C353 N361 1.427 . S
C354 H345 0.930 . S
C354 C352 1.378 . S
C354 C355 1.367 . S
C355 C354 1.367 . S
C355 C357 1.433 . S
C356 C352 1.350 . S
C356 C353 1.463 . S
C356 N360 1.427 . S
C357 H347 0.929 . S
C357 C355 1.433 . S
C357 N360 1.384 . S
C358 H349 0.929 . S
C358 C350 1.378 . S
C358 C353 1.350 . S
C359 H346 0.929 . S
C359 C351 1.433 . S
C359 N361 1.384 . S
N360 C356 1.427 . S
N360 C357 1.384 . S
N361 C353 1.427 . S
N361 C359 1.384 . S
H362 C368 0.930 . S
H363 C372 0.930 . S
H364 C377 0.929 . S
H365 C375 0.929 . S
H366 C370 0.929 . S
H367 C376 0.929 . S
C368 H362 0.930 . S
C368 C369 1.367 1_655 S
C368 C376 1.378 . S
C369 C368 1.367 1_455 S
C369 C377 1.433 . S
C370 H366 0.929 . S
C370 C372 1.378 . S
C370 C374 1.350 . S
C371 C374 1.463 . S
C371 C376 1.350 . S
C371 N379 1.427 1_655 S
C372 H363 0.930 . S
C372 C370 1.378 . S
C372 C373 1.367 . S
C373 C372 1.367 . S
C373 C375 1.433 . S
C374 C370 1.350 . S
C374 C371 1.463 . S
C374 N378 1.427 . S
C375 H365 0.929 . S
C375 C373 1.433 . S
C375 N378 1.384 . S
C376 H367 0.929 . S
C376 C368 1.378 . S
C376 C371 1.350 . S
C377 H364 0.929 . S
C377 C369 1.433 . S
C377 N379 1.384 . S
N378 C374 1.427 . S
N378 C375 1.384 . S
N379 C371 1.427 1_455 S
N379 C377 1.384 . S
H380 C386 0.930 . S
H381 C390 0.930 . S
H382 C395 0.929 . S
H383 C393 0.929 . S
H384 C388 0.929 . S
H385 C394 0.929 . S
C386 H380 0.930 . S
C386 C387 1.367 . S
C386 C394 1.378 . S
C387 C386 1.367 . S
C387 C395 1.433 . S
C388 H384 0.929 . S
C388 C390 1.378 . S
C388 C392 1.350 . S
C389 C392 1.463 . S
C389 C394 1.350 . S
C389 N397 1.427 . S
C390 H381 0.930 . S
C390 C388 1.378 . S
C390 C391 1.367 . S
C391 C390 1.367 . S
C391 C393 1.433 . S
C392 C388 1.350 . S
C392 C389 1.463 . S
C392 N396 1.427 . S
C393 H383 0.929 . S
C393 C391 1.433 . S
C393 N396 1.384 . S
C394 H385 0.929 . S
C394 C386 1.378 . S
C394 C389 1.350 . S
C395 H382 0.929 . S
C395 C387 1.433 . S
C395 N397 1.384 . S
N396 C392 1.427 . S
N396 C393 1.384 . S
N397 C389 1.427 . S
N397 C395 1.384 . S
H398 C404 0.930 . S
H399 C408 0.930 1_545 S
H400 C413 0.929 . S
H401 C411 0.929 . S
H402 C406 0.929 . S
H403 C412 0.929 . S
C404 H398 0.930 . S
C404 C405 1.367 . S
C404 C412 1.378 . S
C405 C404 1.367 . S
C405 C413 1.433 . S
C406 H402 0.929 . S
C406 C408 1.378 . S
C406 C410 1.350 . S
C407 C410 1.463 . S
C407 C412 1.350 . S
C407 N415 1.427 . S
C408 H399 0.930 1_565 S
C408 C406 1.378 . S
C408 C409 1.367 . S
C409 C408 1.367 . S
C409 C411 1.433 . S
C410 C406 1.350 . S
C410 C407 1.463 . S
C410 N414 1.427 . S
C411 H401 0.929 . S
C411 C409 1.433 . S
C411 N414 1.384 . S
C412 H403 0.929 . S
C412 C404 1.378 . S
C412 C407 1.350 . S
C413 H400 0.929 . S
C413 C405 1.433 . S
C413 N415 1.384 . S
N414 C410 1.427 . S
N414 C411 1.384 . S
N415 C407 1.427 . S
N415 C413 1.384 . S
H416 C422 0.930 . S
H417 C426 0.930 . S
H418 C431 0.929 . S
H419 C429 0.929 . S
H420 C424 0.929 . S
H421 C430 0.929 1_455 S
C422 H416 0.930 . S
C422 C423 1.367 1_455 S
C422 C430 1.378 1_455 S
C423 C422 1.367 1_655 S
C423 C431 1.433 . S
C424 H420 0.929 . S
C424 C426 1.378 1_565 S
C424 C428 1.350 . S
C425 C428 1.463 . S
C425 C430 1.350 . S
C425 N433 1.427 . S
C426 H417 0.930 . S
C426 C424 1.378 1_545 S
C426 C427 1.367 . S
C427 C426 1.367 . S
C427 C429 1.433 . S
C428 C424 1.350 . S
C428 C425 1.463 . S
C428 N432 1.427 . S
C429 H419 0.929 . S
C429 C427 1.433 . S
C429 N432 1.384 1_545 S
C430 H421 0.929 1_655 S
C430 C422 1.378 1_655 S
C430 C425 1.350 . S
C431 H418 0.929 . S
C431 C423 1.433 . S
C431 N433 1.384 . S
N432 C428 1.427 . S
N432 C429 1.384 1_565 S
N433 C425 1.427 . S
N433 C431 1.384 . S
H434 C440 0.930 . S
H435 C444 0.930 . S
H436 C449 0.929 . S
H437 C447 0.929 . S
H438 C442 0.929 . S
H439 C448 0.929 . S
C440 H434 0.930 . S
C440 C441 1.367 . S
C440 C448 1.378 . S
C441 C440 1.367 . S
C441 C449 1.433 . S
C442 H438 0.929 . S
C442 C444 1.378 . S
C442 C446 1.350 . S
C443 C446 1.463 . S
C443 C448 1.350 . S
C443 N451 1.427 . S
C444 H435 0.930 . S
C444 C442 1.378 . S
C444 C445 1.367 . S
C445 C444 1.367 . S
C445 C447 1.433 . S
C446 C442 1.350 . S
C446 C443 1.463 . S
C446 N450 1.427 . S
C447 H437 0.929 . S
C447 C445 1.433 . S
C447 N450 1.384 . S
C448 H439 0.929 . S
C448 C440 1.378 . S
C448 C443 1.350 . S
C449 H436 0.929 . S
C449 C441 1.433 . S
C449 N451 1.384 . S
N450 C446 1.427 . S
N450 C447 1.384 . S
N451 C443 1.427 . S
N451 C449 1.384 . S
H452 C458 0.930 . S
H453 C462 0.930 . S
H454 C467 0.929 . S
H455 C465 0.929 . S
H456 C460 0.929 . S
H457 C466 0.929 . S
C458 H452 0.930 . S
C458 C459 1.367 . S
C458 C466 1.378 . S
C459 C458 1.367 . S
C459 C467 1.433 . S
C460 H456 0.929 . S
C460 C462 1.378 . S
C460 C464 1.350 . S
C461 C464 1.463 . S
C461 C466 1.350 . S
C461 N469 1.427 . S
C462 H453 0.930 . S
C462 C460 1.378 . S
C462 C463 1.367 . S
C463 C462 1.367 . S
C463 C465 1.433 . S
C464 C460 1.350 . S
C464 C461 1.463 . S
C464 N468 1.427 . S
C465 H455 0.929 . S
C465 C463 1.433 . S
C465 N468 1.384 . S
C466 H457 0.929 . S
C466 C458 1.378 . S
C466 C461 1.350 . S
C467 H454 0.929 . S
C467 C459 1.433 . S
C467 N469 1.384 . S
N468 C464 1.427 . S
N468 C465 1.384 . S
N469 C461 1.427 . S
N469 C467 1.384 . S
H470 C476 0.930 . S
H471 C480 0.930 . S
H472 C485 0.929 . S
H473 C483 0.929 . S
H474 C478 0.929 . S
H475 C484 0.929 . S
C476 H470 0.930 . S
C476 C477 1.367 . S
C476 C484 1.378 . S
C477 C476 1.367 . S
C477 C485 1.433 . S
C478 H474 0.929 . S
C478 C480 1.378 . S
C478 C482 1.350 . S
C479 C482 1.463 . S
C479 C484 1.350 . S
C479 N487 1.427 . S
C480 H471 0.930 . S
C480 C478 1.378 . S
C480 C481 1.367 . S
C481 C480 1.367 . S
C481 C483 1.433 . S
C482 C478 1.350 . S
C482 C479 1.463 . S
C482 N486 1.427 . S
C483 H473 0.929 . S
C483 C481 1.433 . S
C483 N486 1.384 . S
C484 H475 0.929 . S
C484 C476 1.378 . S
C484 C479 1.350 . S
C485 H472 0.929 . S
C485 C477 1.433 . S
C485 N487 1.384 . S
N486 C482 1.427 . S
N486 C483 1.384 . S
N487 C479 1.427 . S
N487 C485 1.384 . S
H488 C494 0.930 . S
H489 C498 0.930 . S
H490 C503 0.929 . S
H491 C501 0.929 . S
H492 C496 0.929 . S
H493 C502 0.929 . S
C494 H488 0.930 . S
C494 C495 1.367 . S
C494 C502 1.378 . S
C495 C494 1.367 . S
C495 C503 1.433 . S
C496 H492 0.929 . S
C496 C498 1.378 . S
C496 C500 1.350 . S
C497 C500 1.463 . S
C497 C502 1.350 . S
C497 N505 1.427 . S
C498 H489 0.930 . S
C498 C496 1.378 . S
C498 C499 1.367 . S
C499 C498 1.367 . S
C499 C501 1.433 . S
C500 C496 1.350 . S
C500 C497 1.463 . S
C500 N504 1.427 . S
C501 H491 0.929 . S
C501 C499 1.433 . S
C501 N504 1.384 . S
C502 H493 0.929 . S
C502 C494 1.378 . S
C502 C497 1.350 . S
C503 H490 0.929 . S
C503 C495 1.433 . S
C503 N505 1.384 . S
N504 C500 1.427 . S
N504 C501 1.384 . S
N505 C497 1.427 . S
N505 C503 1.384 . S
H506 C512 0.930 . S
H507 C516 0.930 . S
H508 C521 0.929 . S
H509 C519 0.929 . S
H510 C514 0.929 . S
H511 C520 0.929 . S
C512 H506 0.930 . S
C512 C513 1.367 . S
C512 C520 1.378 . S
C513 C512 1.367 . S
C513 C521 1.433 . S
C514 H510 0.929 . S
C514 C516 1.378 . S
C514 C518 1.350 . S
C515 C518 1.463 . S
C515 C520 1.350 . S
C515 N523 1.427 . S
C516 H507 0.930 . S
C516 C514 1.378 . S
C516 C517 1.367 . S
C517 C516 1.367 . S
C517 C519 1.433 . S
C518 C514 1.350 . S
C518 C515 1.463 . S
C518 N522 1.427 . S
C519 H509 0.929 . S
C519 C517 1.433 . S
C519 N522 1.384 . S
C520 H511 0.929 . S
C520 C512 1.378 . S
C520 C515 1.350 . S
C521 H508 0.929 . S
C521 C513 1.433 . S
C521 N523 1.384 . S
N522 C518 1.427 . S
N522 C519 1.384 . S
N523 C515 1.427 . S
N523 C521 1.384 . S
H524 C530 0.930 . S
H525 C534 0.930 . S
H526 C539 0.929 . S
H527 C537 0.929 . S
H528 C532 0.929 . S
H529 C538 0.929 . S
C530 H524 0.930 . S
C530 C531 1.367 . S
C530 C538 1.378 . S
C531 C530 1.367 . S
C531 C539 1.433 . S
C532 H528 0.929 . S
C532 C534 1.378 . S
C532 C536 1.350 . S
C533 C536 1.463 . S
C533 C538 1.350 . S
C533 N541 1.427 . S
C534 H525 0.930 . S
C534 C532 1.378 . S
C534 C535 1.367 . S
C535 C534 1.367 . S
C535 C537 1.433 . S
C536 C532 1.350 . S
C536 C533 1.463 . S
C536 N540 1.427 . S
C537 H527 0.929 . S
C537 C535 1.433 . S
C537 N540 1.384 . S
C538 H529 0.929 . S
C538 C530 1.378 . S
C538 C533 1.350 . S
C539 H526 0.929 . S
C539 C531 1.433 . S
C539 N541 1.384 . S
N540 C536 1.427 . S
N540 C537 1.384 . S
N541 C533 1.427 . S
N541 C539 1.384 . S
H542 C548 0.930 . S
H543 C552 0.930 . S
H544 C557 0.929 . S
H545 C555 0.929 . S
H546 C550 0.929 . S
H547 C556 0.929 . S
C548 H542 0.930 . S
C548 C549 1.367 . S
C548 C556 1.378 . S
C549 C548 1.367 . S
C549 C557 1.433 . S
C550 H546 0.929 . S
C550 C552 1.378 . S
C550 C554 1.350 . S
C551 C554 1.463 . S
C551 C556 1.350 . S
C551 N559 1.427 . S
C552 H543 0.930 . S
C552 C550 1.378 . S
C552 C553 1.367 . S
C553 C552 1.367 . S
C553 C555 1.433 . S
C554 C550 1.350 . S
C554 C551 1.463 . S
C554 N558 1.427 . S
C555 H545 0.929 . S
C555 C553 1.433 . S
C555 N558 1.384 . S
C556 H547 0.929 . S
C556 C548 1.378 . S
C556 C551 1.350 . S
C557 H544 0.929 . S
C557 C549 1.433 . S
C557 N559 1.384 . S
N558 C554 1.427 . S
N558 C555 1.384 . S
N559 C551 1.427 . S
N559 C557 1.384 . S
H560 C566 0.930 . S
H561 C570 0.930 . S
H562 C575 0.929 . S
H563 C573 0.929 . S
H564 C568 0.929 . S
H565 C574 0.929 . S
C566 H560 0.930 . S
C566 C567 1.367 . S
C566 C574 1.378 . S
C567 C566 1.367 . S
C567 C575 1.433 . S
C568 H564 0.929 . S
C568 C570 1.378 . S
C568 C572 1.350 . S
C569 C572 1.463 . S
C569 C574 1.350 . S
C569 N577 1.427 . S
C570 H561 0.930 . S
C570 C568 1.378 . S
C570 C571 1.367 . S
C571 C570 1.367 . S
C571 C573 1.433 . S
C572 C568 1.350 . S
C572 C569 1.463 . S
C572 N576 1.427 . S
C573 H563 0.929 . S
C573 C571 1.433 . S
C573 N576 1.384 . S
C574 H565 0.929 . S
C574 C566 1.378 . S
C574 C569 1.350 . S
C575 H562 0.929 . S
C575 C567 1.433 . S
C575 N577 1.384 . S
N576 C572 1.427 . S
N576 C573 1.384 . S
N577 C569 1.427 . S
N577 C575 1.384 . S
H578 C584 0.930 . S
H579 C588 0.930 . S
H580 C593 0.929 . S
H581 C591 0.929 . S
H582 C586 0.929 . S
H583 C592 0.929 . S
C584 H578 0.930 . S
C584 C585 1.367 . S
C584 C592 1.378 . S
C585 C584 1.367 . S
C585 C593 1.433 . S
C586 H582 0.929 . S
C586 C588 1.378 . S
C586 C590 1.350 . S
C587 C590 1.463 . S
C587 C592 1.350 . S
C587 N595 1.427 . S
C588 H579 0.930 . S
C588 C586 1.378 . S
C588 C589 1.367 . S
C589 C588 1.367 . S
C589 C591 1.433 . S
C590 C586 1.350 . S
C590 C587 1.463 . S
C590 N594 1.427 . S
C591 H581 0.929 . S
C591 C589 1.433 . S
C591 N594 1.384 . S
C592 H583 0.929 . S
C592 C584 1.378 . S
C592 C587 1.350 . S
C593 H580 0.929 . S
C593 C585 1.433 . S
C593 N595 1.384 . S
N594 C590 1.427 . S
N594 C591 1.384 . S
N595 C587 1.427 . S
N595 C593 1.384 . S
H596 C602 0.930 . S
H597 C606 0.930 . S
H598 C611 0.929 . S
H599 C609 0.929 . S
H600 C604 0.929 . S
H601 C610 0.929 . S
C602 H596 0.930 . S
C602 C603 1.367 . S
C602 C610 1.378 . S
C603 C602 1.367 . S
C603 C611 1.433 . S
C604 H600 0.929 . S
C604 C606 1.378 . S
C604 C608 1.350 . S
C605 C608 1.463 . S
C605 C610 1.350 . S
C605 N613 1.427 . S
C606 H597 0.930 . S
C606 C604 1.378 . S
C606 C607 1.367 . S
C607 C606 1.367 . S
C607 C609 1.433 . S
C608 C604 1.350 . S
C608 C605 1.463 . S
C608 N612 1.427 . S
C609 H599 0.929 . S
C609 C607 1.433 . S
C609 N612 1.384 . S
C610 H601 0.929 . S
C610 C602 1.378 . S
C610 C605 1.350 . S
C611 H598 0.929 . S
C611 C603 1.433 . S
C611 N613 1.384 . S
N612 C608 1.427 . S
N612 C609 1.384 . S
N613 C605 1.427 . S
N613 C611 1.384 . S
H614 C620 0.930 . S
H615 C624 0.930 . S
H616 C629 0.929 . S
H617 C627 0.929 . S
H618 C622 0.929 . S
H619 C628 0.929 . S
C620 H614 0.930 . S
C620 C621 1.367 . S
C620 C628 1.378 . S
C621 C620 1.367 . S
C621 C629 1.433 . S
C622 H618 0.929 . S
C622 C624 1.378 . S
C622 C626 1.350 . S
C623 C626 1.463 . S
C623 C628 1.350 . S
C623 N631 1.427 . S
C624 H615 0.930 . S
C624 C622 1.378 . S
C624 C625 1.367 . S
C625 C624 1.367 . S
C625 C627 1.433 . S
C626 C622 1.350 . S
C626 C623 1.463 . S
C626 N630 1.427 . S
C627 H617 0.929 . S
C627 C625 1.433 . S
C627 N630 1.384 . S
C628 H619 0.929 . S
C628 C620 1.378 . S
C628 C623 1.350 . S
C629 H616 0.929 . S
C629 C621 1.433 . S
C629 N631 1.384 . S
N630 C626 1.427 . S
N630 C627 1.384 . S
N631 C623 1.427 . S
N631 C629 1.384 . S
C279 C145 1.466 . S
C283 C9 1.466 . S
C297 C43 1.464 . S
C301 C179 1.464 . S
C315 C77 1.464 . S
C319 C213 1.464 . S
C333 C247 1.461 . S
C337 C111 1.461 . S
C351 C243 0.804 . S
C355 C33 0.821 . S
C369 C141 0.809 . S
C373 C67 0.817 . S
C387 C175 0.805 . S
C391 C101 0.822 . S
C405 C209 0.819 . S
C409 C135 0.813 . S
C423 C169 0.819 . S
C427 C107 0.811 . S
C441 C203 0.814 . S
C445 C5 0.817 . S
C459 C237 0.808 . S
C463 C39 0.823 . S
C477 C271 0.812 . S
C481 C73 0.816 . S
C495 C20 1.278 . S
C499 C88 1.277 . S
C513 C54 1.276 . S
C517 C122 1.278 . S
C531 C224 1.280 . S
C535 C156 1.280 . S
C549 C258 1.278 . S
C553 C190 1.279 . S
C567 C70 1.227 . S
C571 C2 1.216 . S
C585 C36 1.219 . S
C589 C104 1.224 . S
C603 C206 1.225 . S
C607 C138 1.218 . S
C621 C240 1.225 . S
C625 C172 1.213 . S
