# Generated by pormake.
# Topology vcm, (7)-cn, num edge types: 1
# Building blocks:
#     Node 0, Type 0, BuildingBlock: HICVOG_clean_sbu_0, # of connection points: 7
#     Node 1, Type 0, BuildingBlock: HICVOG_clean_sbu_0, # of connection points: 7
#     Node 2, Type 0, BuildingBlock: HICVOG_clean_sbu_0, # of connection points: 7
#     Node 3, Type 0, BuildingBlock: HICVOG_clean_sbu_0, # of connection points: 7
#     Node 4, Type 0, BuildingBlock: HICVOG_clean_sbu_0, # of connection points: 7
#     Node 5, Type 0, BuildingBlock: HICVOG_clean_sbu_0, # of connection points: 7
#     Node 6, Type 0, BuildingBlock: HICVOG_clean_sbu_0, # of connection points: 7
#     Node 7, Type 0, BuildingBlock: HICVOG_clean_sbu_0, # of connection points: 7
#     Edge 8, Type (0, 0), BuildingBlock: CIFDUS_clean_linker_0, # of connection points: 2
#     Edge 9, Type (0, 0), BuildingBlock: CIFDUS_clean_linker_0, # of connection points: 2
#     Edge 10, Type (0, 0), BuildingBlock: CIFDUS_clean_linker_0, # of connection points: 2
#     Edge 11, Type (0, 0), BuildingBlock: CIFDUS_clean_linker_0, # of connection points: 2
#     Edge 12, Type (0, 0), BuildingBlock: CIFDUS_clean_linker_0, # of connection points: 2
#     Edge 13, Type (0, 0), BuildingBlock: CIFDUS_clean_linker_0, # of connection points: 2
#     Edge 14, Type (0, 0), BuildingBlock: CIFDUS_clean_linker_0, # of connection points: 2
#     Edge 15, Type (0, 0), BuildingBlock: CIFDUS_clean_linker_0, # of connection points: 2
#     Edge 16, Type (0, 0), BuildingBlock: CIFDUS_clean_linker_0, # of connection points: 2
#     Edge 17, Type (0, 0), BuildingBlock: CIFDUS_clean_linker_0, # of connection points: 2
#     Edge 18, Type (0, 0), BuildingBlock: CIFDUS_clean_linker_0, # of connection points: 2
#     Edge 19, Type (0, 0), BuildingBlock: CIFDUS_clean_linker_0, # of connection points: 2
#     Edge 20, Type (0, 0), BuildingBlock: CIFDUS_clean_linker_0, # of connection points: 2
#     Edge 21, Type (0, 0), BuildingBlock: CIFDUS_clean_linker_0, # of connection points: 2
#     Edge 22, Type (0, 0), BuildingBlock: CIFDUS_clean_linker_0, # of connection points: 2
#     Edge 23, Type (0, 0), BuildingBlock: CIFDUS_clean_linker_0, # of connection points: 2
#     Edge 24, Type (0, 0), BuildingBlock: CIFDUS_clean_linker_0, # of connection points: 2
#     Edge 25, Type (0, 0), BuildingBlock: CIFDUS_clean_linker_0, # of connection points: 2
#     Edge 26, Type (0, 0), BuildingBlock: CIFDUS_clean_linker_0, # of connection points: 2
#     Edge 27, Type (0, 0), BuildingBlock: CIFDUS_clean_linker_0, # of connection points: 2
#     Edge 28, Type (0, 0), BuildingBlock: CIFDUS_clean_linker_0, # of connection points: 2
#     Edge 29, Type (0, 0), BuildingBlock: CIFDUS_clean_linker_0, # of connection points: 2
#     Edge 30, Type (0, 0), BuildingBlock: CIFDUS_clean_linker_0, # of connection points: 2
#     Edge 31, Type (0, 0), BuildingBlock: CIFDUS_clean_linker_0, # of connection points: 2
#     Edge 32, Type (0, 0), BuildingBlock: CIFDUS_clean_linker_0, # of connection points: 2
#     Edge 33, Type (0, 0), BuildingBlock: CIFDUS_clean_linker_0, # of connection points: 2
#     Edge 34, Type (0, 0), BuildingBlock: CIFDUS_clean_linker_0, # of connection points: 2
#     Edge 35, Type (0, 0), BuildingBlock: CIFDUS_clean_linker_0, # of connection points: 2
# Relax obj value: 0.278
# Max RMSD: 0.257
# Mean RMSD: 0.257
data_MOF--net-vcm--node1-HICVOG_clean_sbu_0--edge1-CIFDUS_clean_linker_0
_symmetry_space_group_name_H-M    P1
_symmetry_Int_Tables_number       1
_symmetry_cell_setting            triclinic
loop_
_symmetry_equiv_pos_as_xyz
'x, y, z'
_cell_length_a     36.045569
_cell_length_b     30.371586
_cell_length_c     22.97395
_cell_angle_alpha  89.905543
_cell_angle_beta   89.607357
_cell_angle_gamma 90.011965
loop_
_atom_site_label
_atom_site_type_symbol
_atom_site_fract_x
_atom_site_fract_y
_atom_site_fract_z
_atom_type_partial_charge
Zn0 Zn 0.03417 0.30413 0.197 0.0
C1 C 0.07758 0.38668 0.08631 0.0
N2 N 0.06185 0.36086 0.04598 0.0
C3 C 0.05378 0.32404 0.07636 0.0
N4 N 0.0639 0.3277 0.13274 0.0
N5 N 0.08001 0.36649 0.13827 0.0
C6 C 0.09834 0.45625 0.2576 0.0
O7 O 0.07471 0.42868 0.28173 0.0
O8 O 0.02777 0.23913 0.18711 0.0
Zn9 Zn 0.11889 0.37877 0.19408 0.0
N10 N 0.98536 0.33378 0.19825 0.0
C11 C 0.9535 0.39958 0.17221 0.0
C12 C 0.98621 0.37576 0.17767 0.0
C13 C 0.95248 0.315 0.21566 0.0
N14 N 0.92092 0.3808 0.18825 0.0
C15 C 0.91907 0.33923 0.21026 0.0
O16 O 0.11409 0.34457 0.2684 0.0
C17 C 0.09018 0.32265 0.29721 0.0
O18 O 0.05959 0.30974 0.27549 0.0
H19 H 1.01216 0.39067 0.16497 0.0
H20 H 0.9522 0.2816 0.23214 0.0
C21 C 0.19887 0.37177 0.18892 0.0
C22 C 0.23337 0.36113 0.16304 0.0
C23 C 0.20163 0.33671 0.07866 0.0
C24 C 0.16772 0.34664 0.10479 0.0
N25 N 0.16687 0.36433 0.15912 0.0
N26 N 0.23345 0.3441 0.10823 0.0
H27 H 0.19724 0.3861 0.23192 0.0
C28 C 0.05731 0.21656 0.18235 0.0
O29 O 0.08947 0.23688 0.18024 0.0
O30 O 0.11978 0.44255 0.21737 0.0
H31 H 0.14235 0.34014 0.08173 0.0
H32 H 0.95397 0.43282 0.15524 0.0
H33 H 0.20268 0.32289 0.03532 0.0
Zn34 Zn 0.5214 0.61598 0.70004 0.0
C35 C 0.57946 0.6791 0.57926 0.0
N36 N 0.57387 0.64152 0.54935 0.0
C37 C 0.56009 0.61452 0.59038 0.0
N38 N 0.55731 0.63439 0.64248 0.0
N39 N 0.56992 0.67498 0.63622 0.0
C40 C 0.56473 0.78727 0.70146 0.0
O41 O 0.5344 0.76328 0.70293 0.0
O42 O 0.52794 0.55208 0.72248 0.0
Zn43 Zn 0.59664 0.70207 0.70056 0.0
N44 N 0.47294 0.62418 0.66496 0.0
C45 C 0.43688 0.65395 0.58796 0.0
C46 C 0.47095 0.6477 0.61461 0.0
C47 C 0.4418 0.60742 0.69051 0.0
N48 N 0.40583 0.63781 0.61373 0.0
C49 C 0.40692 0.61496 0.66476 0.0
O50 O 0.57402 0.69085 0.78143 0.0
C51 C 0.54481 0.67413 0.80411 0.0
O52 O 0.52286 0.64981 0.77529 0.0
H53 H 0.4955 0.66188 0.59515 0.0
H54 H 0.44454 0.58879 0.73035 0.0
C55 C 0.67709 0.70075 0.72309 0.0
C56 C 0.71345 0.68496 0.71321 0.0
C57 C 0.68946 0.62974 0.65107 0.0
C58 C 0.65371 0.64499 0.66141 0.0
N59 N 0.64798 0.68067 0.69612 0.0
N60 N 0.71837 0.65002 0.67702 0.0
H61 H 0.67209 0.72884 0.75099 0.0
C62 C 0.55712 0.54053 0.74927 0.0
O63 O 0.58315 0.56991 0.75873 0.0
O64 O 0.59598 0.76827 0.69578 0.0
H65 H 0.63084 0.62844 0.64117 0.0
H66 H 0.43497 0.67226 0.54766 0.0
H67 H 0.69423 0.60179 0.62287 0.0
Zn68 Zn 0.03192 0.6991 0.83472 0.0
C69 C 0.0814 0.62466 0.95394 0.0
N70 N 0.06498 0.65273 0.99103 0.0
C71 C 0.05261 0.6848 0.95619 0.0
N72 N 0.06047 0.67676 0.89966 0.0
N73 N 0.07945 0.63942 0.89821 0.0
C74 C 0.07056 0.54572 0.80046 0.0
O75 O 0.04235 0.5681 0.82162 0.0
O76 O 0.03592 0.76523 0.83025 0.0
Zn77 Zn 0.11208 0.62456 0.83363 0.0
N78 N 0.9803 0.6819 0.849 0.0
C79 C 0.93867 0.63874 0.90647 0.0
C80 C 0.97459 0.6505 0.89047 0.0
C81 C 0.95106 0.70056 0.8207 0.0
N82 N 0.90963 0.65756 0.87887 0.0
C83 C 0.91455 0.68789 0.83584 0.0
O84 O 0.10901 0.66709 0.76597 0.0
C85 C 0.08183 0.67963 0.73502 0.0
O86 O 0.04861 0.67797 0.75424 0.0
H87 H 0.99767 0.63456 0.91136 0.0
H88 H 0.95618 0.72498 0.78724 0.0
C89 C 0.19217 0.61062 0.83856 0.0
C90 C 0.22771 0.61716 0.86247 0.0
C91 C 0.20083 0.66118 0.93694 0.0
C92 C 0.16616 0.65612 0.91185 0.0
N93 N 0.16221 0.63022 0.864 0.0
N94 N 0.23067 0.64195 0.91156 0.0
H95 H 0.18822 0.59071 0.80012 0.0
C96 C 0.0678 0.78278 0.82467 0.0
O97 O 0.0974 0.75761 0.82683 0.0
O98 O 0.10261 0.56322 0.80048 0.0
H99 H 0.14267 0.67317 0.93041 0.0
H100 H 0.93387 0.61434 0.94005 0.0
H101 H 0.2042 0.68116 0.97548 0.0
Zn102 Zn 0.61189 0.29199 0.37031 0.0
C103 C 0.55265 0.36911 0.47632 0.0
N104 N 0.56299 0.33947 0.5165 0.0
C105 C 0.5772 0.30677 0.4843 0.0
N106 N 0.57674 0.31628 0.4269 0.0
N107 N 0.56003 0.35498 0.42154 0.0
C108 C 0.54618 0.45341 0.30317 0.0
O109 O 0.57392 0.43132 0.28007 0.0
O110 O 0.60778 0.22573 0.36963 0.0
Zn111 Zn 0.52871 0.36852 0.35465 0.0
N112 N 0.66316 0.30962 0.39098 0.0
C113 C 0.70075 0.34676 0.46041 0.0
C114 C 0.66606 0.33475 0.43974 0.0
C115 C 0.69438 0.29751 0.36044 0.0
N116 N 0.73159 0.33402 0.43101 0.0
C117 C 0.72979 0.30996 0.38122 0.0
O118 O 0.54662 0.34262 0.2789 0.0
C119 C 0.57498 0.32433 0.25629 0.0
O120 O 0.60136 0.30891 0.28684 0.0
H121 H 0.64166 0.34552 0.46292 0.0
H122 H 0.69176 0.27793 0.32137 0.0
C123 C 0.44786 0.35859 0.34516 0.0
C124 C 0.41335 0.33998 0.36132 0.0
C125 C 0.44425 0.29363 0.42877 0.0
C126 C 0.47816 0.3117 0.41229 0.0
N127 N 0.47949 0.34421 0.37155 0.0
N128 N 0.41283 0.30815 0.4031 0.0
H129 H 0.44959 0.38444 0.31278 0.0
C130 C 0.57834 0.20925 0.34844 0.0
O131 O 0.55122 0.2358 0.33354 0.0
O132 O 0.52416 0.43383 0.33806 0.0
H133 H 0.50321 0.2998 0.43219 0.0
H134 H 0.70319 0.36627 0.49955 0.0
H135 H 0.4429 0.26805 0.46155 0.0
Zn136 Zn 0.52128 0.78811 0.2101 0.0
C137 C 0.54224 0.87421 0.08535 0.0
N138 N 0.52754 0.84214 0.05265 0.0
C139 C 0.52712 0.80701 0.08767 0.0
N140 N 0.54035 0.81733 0.14074 0.0
N141 N 0.55127 0.85915 0.13935 0.0
C142 C 0.54571 0.96704 0.22317 0.0
O143 O 0.51583 0.94883 0.20132 0.0
O144 O 0.51389 0.723 0.19835 0.0
Zn145 Zn 0.58641 0.88297 0.19786 0.0
N146 N 0.47619 0.81716 0.238 0.0
C147 C 0.45448 0.87527 0.29874 0.0
C148 C 0.48335 0.85348 0.27052 0.0
C149 C 0.44068 0.80228 0.2312 0.0
N150 N 0.41931 0.86015 0.29303 0.0
C151 C 0.41127 0.82435 0.25987 0.0
O152 O 0.59258 0.84819 0.27377 0.0
C153 C 0.5807 0.81366 0.2991 0.0
O154 O 0.55567 0.78972 0.27725 0.0
H155 H 0.51157 0.86493 0.27539 0.0
H156 H 0.43553 0.77321 0.20529 0.0
C157 C 0.66527 0.88537 0.2014 0.0
C158 C 0.70191 0.87987 0.18057 0.0
C159 C 0.67791 0.86849 0.08552 0.0
C160 C 0.64184 0.87244 0.10693 0.0
N161 N 0.63618 0.88111 0.16433 0.0
N162 N 0.70687 0.87193 0.12266 0.0
H163 H 0.65939 0.8925 0.24654 0.0
C164 C 0.54411 0.70189 0.19175 0.0
O165 O 0.57525 0.72408 0.18676 0.0
O166 O 0.57587 0.94541 0.22426 0.0
H167 H 0.61867 0.86813 0.07803 0.0
H168 H 0.45996 0.90392 0.32524 0.0
H169 H 0.68287 0.86184 0.03988 0.0
Zn170 Zn 0.02332 0.12213 0.69572 0.0
C171 C 0.07887 0.1888 0.57384 0.0
N172 N 0.06956 0.15567 0.53845 0.0
C173 C 0.05491 0.12578 0.57506 0.0
N174 N 0.05478 0.14061 0.63092 0.0
N175 N 0.07063 0.18001 0.62985 0.0
C176 C 0.07751 0.29397 0.69921 0.0
O177 O 0.04656 0.27389 0.71408 0.0
O178 O 0.0278 0.05769 0.71708 0.0
Zn179 Zn 0.10087 0.20446 0.69161 0.0
N180 N 0.97271 0.13349 0.6725 0.0
C181 C 0.92873 0.1623 0.60582 0.0
C182 C 0.9653 0.1534 0.62079 0.0
C183 C 0.94503 0.1228 0.71035 0.0
N184 N 0.90112 0.15217 0.64391 0.0
C185 C 0.90806 0.13295 0.69634 0.0
O186 O 0.08061 0.19682 0.77322 0.0
C187 C 0.05199 0.18066 0.79786 0.0
O188 O 0.02936 0.15602 0.77093 0.0
H189 H 0.98744 0.1627 0.59146 0.0
H190 H 0.95216 0.1068 0.75082 0.0
C191 C 0.1796 0.19355 0.71638 0.0
C192 C 0.21525 0.17578 0.70645 0.0
C193 C 0.19032 0.12907 0.63389 0.0
C194 C 0.15516 0.14628 0.64427 0.0
N195 N 0.15038 0.17866 0.68452 0.0
N196 N 0.21942 0.14418 0.66501 0.0
H197 H 0.1752 0.21926 0.74825 0.0
C198 C 0.05642 0.03647 0.73265 0.0
O199 O 0.0885 0.05687 0.73565 0.0
O200 O 0.10519 0.27076 0.68334 0.0
H201 H 0.13202 0.13391 0.6198 0.0
H202 H 0.92234 0.17786 0.5647 0.0
H203 H 0.19446 0.1037 0.60149 0.0
Zn204 Zn 0.52711 0.20109 0.86826 0.0
C205 C 0.57077 0.12214 0.98565 0.0
N206 N 0.56055 0.15358 0.02341 0.0
C207 C 0.55167 0.18718 0.9879 0.0
N208 N 0.55641 0.17697 0.93126 0.0
N209 N 0.56909 0.13615 0.92997 0.0
C210 C 0.5756 0.03336 0.82174 0.0
O211 O 0.55077 0.05911 0.79759 0.0
O212 O 0.52271 0.26723 0.87331 0.0
Zn213 Zn 0.60251 0.11537 0.87013 0.0
N214 N 0.47727 0.17613 0.87497 0.0
C215 C 0.43588 0.12977 0.92833 0.0
C216 C 0.47143 0.14577 0.91773 0.0
C217 C 0.44866 0.19038 0.84122 0.0
N218 N 0.40739 0.14431 0.89535 0.0
C219 C 0.41258 0.17407 0.85171 0.0
O220 O 0.59782 0.14598 0.79226 0.0
C221 C 0.57678 0.17179 0.764 0.0
O222 O 0.54928 0.19122 0.78773 0.0
H223 H 0.49397 0.13432 0.94428 0.0
H224 H 0.45383 0.21473 0.80768 0.0
C225 C 0.68048 0.1182 0.85807 0.0
C226 C 0.71718 0.12946 0.87227 0.0
C227 C 0.69566 0.15805 0.96257 0.0
C228 C 0.65932 0.14816 0.94732 0.0
N229 N 0.65244 0.12807 0.89562 0.0
N230 N 0.72359 0.14879 0.92471 0.0
H231 H 0.6738 0.1021 0.81755 0.0
C232 C 0.55043 0.29068 0.8583 0.0
O233 O 0.58226 0.27117 0.8474 0.0
O234 O 0.59914 0.04998 0.85632 0.0
H235 H 0.63702 0.15713 0.97637 0.0
H236 H 0.43092 0.10598 0.9626 0.0
H237 H 0.7016 0.17381 1.00367 0.0
Zn238 Zn 0.08236 0.79108 0.33302 0.0
C239 C 0.05234 0.88805 0.43858 0.0
N240 N 0.0652 0.86199 0.48122 0.0
C241 C 0.07149 0.82379 0.45332 0.0
N242 N 0.06305 0.82659 0.39618 0.0
N243 N 0.05014 0.86677 0.38722 0.0
C244 C 0.03572 0.96367 0.26729 0.0
O245 O 0.05658 0.93769 0.23526 0.0
O246 O 0.09274 0.72838 0.355 0.0
Zn247 Zn 1.01503 0.88269 0.32613 0.0
N248 N 0.12736 0.81846 0.3013 0.0
C249 C 0.14902 0.87244 0.23391 0.0
C250 C 0.12019 0.85249 0.26465 0.0
C251 C 0.1629 0.80416 0.30978 0.0
N252 N 0.1842 0.85784 0.24132 0.0
C253 C 0.19229 0.82436 0.27857 0.0
O254 O 1.01748 0.84944 0.24948 0.0
C255 C 0.02718 0.81099 0.23379 0.0
O256 O 0.04776 0.7865 0.2648 0.0
H257 H 0.09203 0.86346 0.25855 0.0
H258 H 0.16809 0.7769 0.33901 0.0
C259 C 0.9363 0.87913 0.31987 0.0
C260 C 0.89992 0.86828 0.33795 0.0
C261 C 0.92434 0.84214 0.42761 0.0
C262 C 0.96018 0.85209 0.40881 0.0
N263 N 0.96546 0.87048 0.35544 0.0
N264 N 0.89529 0.85023 0.39187 0.0
H265 H 0.94193 0.89425 0.27817 0.0
C266 C 0.06484 0.70298 0.35941 0.0
O267 O 0.03135 0.71991 0.35701 0.0
O268 O 1.01656 0.94736 0.30861 0.0
H269 H 0.9835 0.84481 0.43644 0.0
H270 H 0.14349 0.89923 0.20412 0.0
H271 H 0.91963 0.82758 0.47002 0.0
H272 H 0.24755 0.35741 0.28067 0.0
H273 H 0.30122 0.37513 0.11366 0.0
H274 H 0.36177 0.37475 0.16031 0.0
H275 H 0.39991 0.36263 0.24746 0.0
H276 H 0.34587 0.3436 0.41378 0.0
H277 H 0.28533 0.35213 0.36854 0.0
C278 C 0.27229 0.36238 0.25442 0.0
C279 C 0.26953 0.36639 0.19351 0.0
C280 C 0.30723 0.36164 0.28145 0.0
C281 C 0.30233 0.37167 0.16056 0.0
C282 C 0.3371 0.37151 0.1872 0.0
C283 C 0.37496 0.36149 0.27406 0.0
C284 C 0.37755 0.35248 0.33402 0.0
C285 C 0.33998 0.36559 0.24751 0.0
C286 C 0.34474 0.35023 0.36747 0.0
C287 C 0.31003 0.35504 0.34163 0.0
H288 H 0.2411 0.60383 0.74593 0.0
H289 H 0.2932 0.59817 0.91453 0.0
H290 H 0.35386 0.59124 0.86817 0.0
H291 H 0.39219 0.59883 0.78095 0.0
H292 H 0.34022 0.6037 0.61202 0.0
H293 H 0.27936 0.59837 0.6579 0.0
C294 C 0.26542 0.5995 0.77277 0.0
C295 C 0.26245 0.60203 0.83379 0.0
C296 C 0.30042 0.59615 0.74586 0.0
C297 C 0.29466 0.59696 0.86744 0.0
C298 C 0.32944 0.59308 0.84099 0.0
C299 C 0.36788 0.59725 0.75362 0.0
C300 C 0.37114 0.60225 0.69284 0.0
C301 C 0.33277 0.59447 0.78024 0.0
C302 C 0.33874 0.60067 0.65896 0.0
C303 C 0.30379 0.59759 0.68513 0.0
H304 H 0.78075 0.70085 0.66565 0.0
H305 H 0.72063 0.70606 0.82834 0.0
H306 H 0.77898 0.71452 0.88105 0.0
H307 H 0.8471 0.70722 0.88141 0.0
H308 H 0.90704 0.70077 0.71849 0.0
H309 H 0.84884 0.70691 0.66519 0.0
C310 C 0.78043 0.70509 0.71253 0.0
C311 C 0.74653 0.7025 0.74316 0.0
C312 C 0.81408 0.70921 0.74247 0.0
C313 C 0.74632 0.70828 0.80378 0.0
C314 C 0.77974 0.71261 0.83395 0.0
C315 C 0.84745 0.7083 0.8342 0.0
C316 C 0.88131 0.70317 0.80396 0.0
C317 C 0.8138 0.71116 0.80388 0.0
C318 C 0.88146 0.70499 0.74285 0.0
C319 C 0.84811 0.70802 0.71234 0.0
H320 H 0.89859 0.29775 0.31188 0.0
H321 H 0.85536 0.34548 0.1492 0.0
H322 H 0.79195 0.33393 0.18409 0.0
H323 H 0.74856 0.32061 0.26605 0.0
H324 H 0.79203 0.27798 0.43098 0.0
H325 H 0.85479 0.27643 0.39027 0.0
C326 C 0.87529 0.30429 0.28352 0.0
C327 C 0.8818 0.32233 0.2279 0.0
C328 C 0.83861 0.29896 0.30471 0.0
C329 C 0.85117 0.33155 0.19219 0.0
C330 C 0.8148 0.32513 0.21223 0.0
C331 C 0.77163 0.30962 0.29241 0.0
C332 C 0.76552 0.29921 0.35143 0.0
C333 C 0.80808 0.31032 0.26917 0.0
C334 C 0.79594 0.28604 0.38539 0.0
C335 C 0.83195 0.28538 0.3622 0.0
H336 H 0.82749 0.86898 0.37182 0.0
H337 H 0.89653 0.88073 0.21776 0.0
H338 H 0.84177 0.88857 0.15819 0.0
H339 H 0.77423 0.88896 0.1482 0.0
H340 H 0.70528 0.8707 0.30129 0.0
H341 H 0.75998 0.86886 0.36176 0.0
C342 C 0.83081 0.87335 0.32522 0.0
C343 C 0.86667 0.87487 0.30025 0.0
C344 C 0.79899 0.87672 0.29045 0.0
C345 C 0.86985 0.88053 0.23946 0.0
C346 C 0.8383 0.8846 0.20481 0.0
C347 C 0.77092 0.88471 0.19482 0.0
C348 C 0.73508 0.88075 0.21941 0.0
C349 C 0.80274 0.88237 0.22975 0.0
C350 C 0.7319 0.87515 0.28022 0.0
C351 C 0.76344 0.87355 0.31526 0.0
H352 H 0.78983 0.12206 0.89938 0.0
H353 H 0.71593 0.12439 0.75194 0.0
H354 H 0.76863 0.12078 0.68591 0.0
H355 H 0.83564 0.12312 0.66931 0.0
H356 H 0.90951 0.12758 0.81668 0.0
H357 H 0.85691 0.12203 0.88277 0.0
C358 C 0.78514 0.12148 0.85281 0.0
C359 C 0.74872 0.12305 0.8312 0.0
C360 C 0.81567 0.12077 0.8147 0.0
C361 C 0.74334 0.12212 0.77053 0.0
C362 C 0.77361 0.12059 0.73239 0.0
C363 C 0.84036 0.12259 0.71589 0.0
C364 C 0.87673 0.12537 0.73748 0.0
C365 C 0.80987 0.12074 0.754 0.0
C366 C 0.88215 0.12445 0.79814 0.0
C367 C 0.85193 0.12179 0.8363 0.0
H368 H 0.34279 0.18975 0.88978 0.0
H369 H 0.40952 0.18476 0.7334 0.0
H370 H 0.35361 0.19036 0.67409 0.0
H371 H 0.28552 0.18653 0.66723 0.0
H372 H 0.21883 0.19138 0.8237 0.0
H373 H 0.27493 0.19669 0.88251 0.0
C374 C 0.34509 0.19074 0.84268 0.0
C375 C 0.38018 0.18654 0.81598 0.0
C376 C 0.31282 0.19362 0.80897 0.0
C377 C 0.38289 0.18827 0.755 0.0
C378 C 0.35088 0.19107 0.72109 0.0
C379 C 0.2833 0.18962 0.71416 0.0
C380 C 0.24811 0.18829 0.7411 0.0
C381 C 0.31568 0.19227 0.74765 0.0
C382 C 0.24553 0.1927 0.80185 0.0
C383 C 0.27764 0.19531 0.83553 0.0
H384 H 0.24295 0.80967 0.19326 0.0
H385 H 0.23057 0.8133 0.3799 0.0
H386 H 0.29807 0.80914 0.39082 0.0
H387 H 0.36068 0.81417 0.34653 0.0
H388 H 0.37302 0.80768 0.16003 0.0
H389 H 0.30553 0.80261 0.14959 0.0
C390 C 0.25507 0.80851 0.23634 0.0
C391 C 0.23185 0.81196 0.28575 0.0
C392 C 0.29387 0.80597 0.24216 0.0
C393 C 0.2478 0.8103 0.34129 0.0
C394 C 0.28642 0.80832 0.34747 0.0
C395 C 0.34855 0.8106 0.30371 0.0
C396 C 0.37174 0.81144 0.25406 0.0
C397 C 0.30975 0.80754 0.29817 0.0
C398 C 0.3558 0.80669 0.19885 0.0
C399 C 0.31719 0.8042 0.1929 0.0
H400 H 0.11993 0.65934 0.30357 0.0
H401 H 0.01909 0.63936 0.40219 0.0
H402 H 0.02164 0.56033 0.38181 0.0
H403 H 0.05009 0.49811 0.33011 0.0
H404 H 0.14845 0.51934 0.22549 0.0
H405 H 0.14918 0.59679 0.25369 0.0
C406 C 0.09895 0.63751 0.32156 0.0
C407 C 0.06951 0.65492 0.35468 0.0
C408 C 0.09984 0.59251 0.30777 0.0
C409 C 0.04206 0.62652 0.37673 0.0
C410 C 0.04342 0.58145 0.36484 0.0
C411 C 0.07183 0.51959 0.31374 0.0
C412 C 0.09915 0.50294 0.27572 0.0
C413 C 0.07175 0.56426 0.32938 0.0
C414 C 0.12701 0.53132 0.25468 0.0
C415 C 0.12751 0.57561 0.27089 0.0
H416 H 0.60424 0.35071 0.83313 0.0
H417 H 0.48549 0.33684 0.85049 0.0
H418 H 0.47702 0.41241 0.81664 0.0
H419 H 0.50323 0.48192 0.77906 0.0
H420 H 0.62198 0.4967 0.76573 0.0
H421 H 0.63053 0.42124 0.80039 0.0
C422 C 0.5765 0.3643 0.82999 0.0
C423 C 0.54557 0.338 0.8442 0.0
C424 C 0.5718 0.40785 0.81057 0.0
C425 C 0.50984 0.35631 0.84008 0.0
C426 C 0.50493 0.39949 0.82036 0.0
C427 C 0.53095 0.46849 0.78361 0.0
C428 C 0.56193 0.49468 0.76955 0.0
C429 C 0.53567 0.4254 0.80482 0.0
C430 C 0.59771 0.47717 0.77639 0.0
C431 C 0.60261 0.43405 0.79621 0.0
H432 H 0.12202 0.49161 0.74979 0.0
H433 H 1.0073 0.49643 0.80472 0.0
H434 H 0.9989 0.42006 0.775 0.0
H435 H 0.02457 0.35095 0.73741 0.0
H436 H 0.13925 0.34538 0.68263 0.0
H437 H 0.147 0.42305 0.70761 0.0
C438 C 0.09512 0.47604 0.75502 0.0
C439 C 0.06539 0.49983 0.77975 0.0
C440 C 0.09042 0.43193 0.73776 0.0
C441 C 0.03071 0.47906 0.78593 0.0
C442 C 0.02586 0.43529 0.76895 0.0
C443 C 0.05121 0.36674 0.73037 0.0
C444 C 0.08131 0.34216 0.70837 0.0
C445 C 0.05558 0.41129 0.74532 0.0
C446 C 0.11558 0.36338 0.69951 0.0
C447 C 0.12009 0.40781 0.714 0.0
H448 H 0.49813 0.65068 0.25728 0.0
H449 H 0.59481 0.64572 0.14584 0.0
H450 H 0.60362 0.56798 0.1697 0.0
H451 H 0.58605 0.50282 0.22645 0.0
H452 H 0.49096 0.50827 0.34149 0.0
H453 H 0.47957 0.58449 0.31253 0.0
C454 C 0.52067 0.63228 0.23741 0.0
C455 C 0.54568 0.65371 0.1996 0.0
C456 C 0.52624 0.58794 0.25278 0.0
C457 C 0.57519 0.6298 0.17499 0.0
C458 C 0.58034 0.58546 0.18884 0.0
C459 C 0.56281 0.52061 0.24523 0.0
C460 C 0.53952 0.49984 0.28629 0.0
C461 C 0.55648 0.56445 0.22854 0.0
C462 C 0.50946 0.52346 0.30998 0.0
C463 C 0.50283 0.56704 0.29329 0.0
H464 H 0.5993 0.00873 0.28475 0.0
H465 H 0.49051 0.02833 0.21174 0.0
H466 H 0.49031 0.10439 0.24656 0.0
H467 H 0.52184 0.16587 0.29518 0.0
H468 H 0.63063 0.14582 0.36821 0.0
H469 H 0.62975 0.06917 0.33642 0.0
C470 C 0.57547 0.02956 0.27647 0.0
C471 C 0.54499 0.01283 0.24545 0.0
C472 C 0.57548 0.07315 0.29681 0.0
C473 C 0.5143 0.04029 0.23552 0.0
C474 C 0.51419 0.08382 0.2554 0.0
C475 C 0.54526 0.14468 0.30463 0.0
C476 C 0.57632 0.16173 0.33395 0.0
C477 C 0.54471 0.10065 0.28584 0.0
C478 C 0.60637 0.13369 0.34575 0.0
C479 C 0.60596 0.08984 0.32739 0.0
H480 H 1.01361 0.83981 0.7924 0.0
H481 H 0.13081 0.8326 0.82815 0.0
H482 H 0.13783 0.91039 0.80309 0.0
H483 H 0.11078 0.98037 0.76944 0.0
H484 H 0.99373 0.9863 0.73121 0.0
H485 H 0.98673 0.90925 0.75849 0.0
C486 C 0.04065 0.85532 0.79515 0.0
C487 C 0.07159 0.83044 0.81235 0.0
C488 C 0.0446 0.89987 0.77984 0.0
C489 C 0.1065 0.85097 0.81506 0.0
C490 C 0.11057 0.89547 0.80064 0.0
C491 C 0.08376 0.96482 0.76706 0.0
C492 C 0.05287 0.98928 0.74844 0.0
C493 C 0.07985 0.92021 0.78263 0.0
C494 C 1.01804 0.96845 0.74551 0.0
C495 C 1.01394 0.92429 0.76116 0.0
H496 H 0.6147 0.83585 0.76094 0.0
H497 H 0.50908 0.84416 0.67474 0.0
H498 H 0.50285 0.92121 0.70455 0.0
H499 H 0.52698 0.98569 0.75691 0.0
H500 H 0.63087 0.97545 0.84836 0.0
H501 H 0.63794 0.89956 0.81552 0.0
C502 C 0.59058 0.85478 0.74805 0.0
C503 C 0.56261 0.83469 0.71504 0.0
C504 C 0.58664 0.8985 0.76701 0.0
C505 C 0.53106 0.85914 0.69983 0.0
C506 C 0.52744 0.90307 0.71706 0.0
C507 C 0.55112 0.96684 0.76978 0.0
C508 C 0.57841 0.98639 0.80484 0.0
C509 C 0.55491 0.92299 0.7511 0.0
C510 C 0.60939 0.9613 0.82145 0.0
C511 C 0.61358 0.91791 0.80246 0.0
H512 H 1.00749 0.16773 0.24256 0.0
H513 H 0.10543 0.15769 0.13462 0.0
H514 H 0.10681 0.07786 0.14981 0.0
H515 H 0.0815 0.01156 0.19711 0.0
H516 H 0.98608 0.02298 0.3107 0.0
H517 H 0.98256 0.10172 0.29041 0.0
C518 C 0.02881 0.14791 0.22175 0.0
C519 C 0.05615 0.16825 0.18718 0.0
C520 C 0.03011 0.10244 0.23227 0.0
C521 C 0.08409 0.14252 0.16136 0.0
C522 C 0.08492 0.097 0.17015 0.0
C523 C 0.05986 0.03126 0.21723 0.0
C524 C 0.03402 0.0114 0.25515 0.0
C525 C 0.05834 0.07669 0.20612 0.0
C526 C 1.00635 0.03745 0.28137 0.0
C527 C 1.00424 0.08247 0.26969 0.0
H528 H 0.99826 0.29676 1.00618 0.0
H529 H 0.10576 0.2607 0.0713 0.0
H530 H 0.11369 0.20779 0.99243 0.0
H531 H 0.09501 0.18297 0.8945 0.0
H532 H 0.98647 0.21644 0.83083 0.0
H533 H 0.97375 0.25895 0.91917 0.0
C534 C 0.02255 0.2757 1.0045 0.0
C535 C 0.05106 0.28193 0.04501 0.0
C536 C 0.02717 0.24584 0.9582 0.0
C537 C 0.0829 0.25538 0.04177 0.0
C538 C 0.08779 0.22577 0.99586 0.0
C539 C 0.06824 0.1986 0.90092 0.0
C540 C 0.04186 0.19715 0.85624 0.0
C541 C 0.0609 0.22236 0.95227 0.0
C542 C 1.00714 0.21718 0.86484 0.0
C543 C 0.99995 0.24166 0.91519 0.0
H544 H 0.63256 0.69165 0.49816 0.0
H545 H 0.54237 0.75665 0.58654 0.0
H546 H 0.53954 0.81196 0.50935 0.0
H547 H 0.55299 0.83035 0.4063 0.0
H548 H 0.64084 0.76242 0.31584 0.0
H549 H 0.65466 0.71987 0.40369 0.0
C550 C 0.6135 0.71918 0.50168 0.0
C551 C 0.58801 0.72047 0.54826 0.0
C552 C 0.61102 0.74962 0.45571 0.0
C553 C 0.563 0.75576 0.55214 0.0
C554 C 0.56084 0.78682 0.50717 0.0
C555 C 0.57614 0.80752 0.40687 0.0
C556 C 0.59612 0.79951 0.3552 0.0
C557 C 0.5833 0.78255 0.45726 0.0
C558 C 0.62552 0.76932 0.35554 0.0
C559 C 0.63316 0.74478 0.40559 0.0
H560 H 0.0507 0.83697 0.12687 0.0
H561 H 0.97886 0.74501 0.21536 0.0
H562 H 0.97028 0.70394 0.12499 0.0
H563 H 0.99478 0.68512 0.02895 0.0
H564 H 0.07434 0.77016 0.94539 0.0
H565 H 0.06693 0.82431 0.02316 0.0
C566 C 0.03218 0.80884 0.12547 0.0
C567 C 1.01533 0.79379 0.17716 0.0
C568 C 0.02881 0.78425 0.07383 0.0
C569 C 0.99194 0.75696 0.17576 0.0
C570 C 0.98715 0.73349 0.1242 0.0
C571 C 1.00895 0.71663 0.02643 0.0
C572 C 0.03471 0.72397 0.9813 0.0
C573 C 1.00695 0.74554 0.07387 0.0
C574 C 0.05349 0.7644 0.97861 0.0
C575 C 0.05003 0.79479 0.02417 0.0
H576 H 0.63244 0.28849 0.55859 0.0
H577 H 0.53713 0.23215 0.47515 0.0
H578 H 0.52942 0.17993 0.55551 0.0
H579 H 0.54193 0.16249 0.65941 0.0
H580 H 0.63907 0.21696 0.74041 0.0
H581 H 0.6542 0.25762 0.65142 0.0
C582 C 0.61135 0.26304 0.55652 0.0
C583 C 0.58543 0.264 0.51121 0.0
C584 C 0.60668 0.23386 0.60356 0.0
C585 C 0.55775 0.23152 0.50925 0.0
C586 C 0.55286 0.20227 0.55588 0.0
C587 C 0.56694 0.18228 0.6567 0.0
C588 C 0.58917 0.18736 0.70626 0.0
C589 C 0.57583 0.20502 0.60488 0.0
C590 C 0.62162 0.21278 0.70259 0.0
C591 C 0.63021 0.23609 0.65182 0.0
H592 H 0.47561 0.76402 0.0249 0.0
H593 H 0.58911 0.75767 0.08112 0.0
H594 H 0.60501 0.71127 0.99811 0.0
H595 H 0.58915 0.68625 0.8988 0.0
H596 H 0.47526 0.69178 0.84313 0.0
H597 H 0.45702 0.72482 0.93585 0.0
C598 C 0.50329 0.75031 1.02066 0.0
C599 C 0.53094 0.76359 0.05974 0.0
C600 C 0.51253 0.72504 0.97132 0.0
C601 C 0.56701 0.74667 0.05293 0.0
C602 C 0.57636 0.72111 1.00437 0.0
C603 C 0.56027 0.69396 0.90756 0.0
C604 C 0.53372 0.68744 0.86379 0.0
C605 C 0.5498 0.7123 0.96156 0.0
C606 C 0.49627 0.6968 0.87597 0.0
C607 C 0.48579 0.71573 0.92901 0.0
H608 H 0.1383 0.20901 0.50836 0.0
H609 H 0.03753 0.26251 0.58044 0.0
H610 H 0.03347 0.3149 0.49982 0.0
H611 H 0.05067 0.33158 0.39749 0.0
H612 H 0.15235 0.27894 0.32665 0.0
H613 H 0.1642 0.23993 0.41786 0.0
C614 C 0.11672 0.23393 0.50798 0.0
C615 C 0.08816 0.23201 0.54962 0.0
C616 C 0.11398 0.26275 0.46047 0.0
C617 C 0.06004 0.26392 0.54896 0.0
C618 C 0.05726 0.29315 0.50212 0.0
C619 C 0.0758 0.31238 0.40285 0.0
C620 C 0.10021 0.30702 0.35554 0.0
C621 C 0.0827 0.29065 0.45572 0.0
C622 C 0.13307 0.28294 0.36267 0.0
C623 C 0.13984 0.26069 0.4147 0.0
H624 H 0.6052 0.24337 1.01265 0.0
H625 H 0.48699 0.2255 1.02213 0.0
H626 H 0.48323 0.27717 0.10381 0.0
H627 H 0.5157 0.31083 0.18648 0.0
H628 H 0.63527 0.31724 0.18494 0.0
H629 H 0.63676 0.28698 0.08653 0.0
C630 C 0.57847 0.25283 0.03076 0.0
C631 C 0.54637 0.23139 1.01151 0.0
C632 C 0.57715 0.27921 0.0807 0.0
C633 C 0.51188 0.24248 0.03586 0.0
C634 C 0.50992 0.27125 0.0833 0.0
C635 C 0.54199 0.30682 0.16385 0.0
C636 C 0.57538 0.31559 0.19308 0.0
C637 C 0.54268 0.28732 0.10844 0.0
C638 C 0.60927 0.31007 0.16352 0.0
C639 C 0.61012 0.29282 0.10728 0.0
H640 H 0.12681 0.80388 0.52708 0.0
H641 H 0.02325 0.75612 0.45995 0.0
H642 H 1.01833 0.7033 0.54003 0.0
H643 H 0.03854 0.67981 0.63796 0.0
H644 H 0.14238 0.72794 0.70499 0.0
H645 H 0.15212 0.77158 0.61687 0.0
C646 C 0.10409 0.78045 0.52876 0.0
C647 C 0.07602 0.78281 0.48679 0.0
C648 C 0.10091 0.75128 0.57613 0.0
C649 C 0.04602 0.75343 0.49023 0.0
C650 C 0.04276 0.724 0.53692 0.0
C651 C 0.06353 0.69935 0.63275 0.0
C652 C 0.08943 0.70113 0.67824 0.0
C653 C 0.06923 0.72401 0.58147 0.0
C654 C 0.12197 0.72609 0.67067 0.0
C655 C 0.12755 0.75114 0.62031 0.0
H656 H 0.11244 0.42292 0.99257 0.0
H657 H 0.05786 0.45425 0.15466 0.0
H658 H 0.06075 0.53249 0.13177 0.0
H659 H 0.06968 0.58976 0.05991 0.0
H660 H 0.12395 0.56115 0.89704 0.0
H661 H 0.12994 0.48382 0.92501 0.0
C662 C 0.10207 0.44718 0.02323 0.0
C663 C 0.08594 0.4333 0.07603 0.0
C664 C 0.10266 0.49215 1.00866 0.0
C665 C 0.0719 0.46454 0.11513 0.0
C666 C 0.07292 0.50917 0.1015 0.0
C667 C 0.08334 0.567 0.03043 0.0
C668 C 0.09404 0.58073 0.97419 0.0
C669 C 0.08706 0.52309 0.04758 0.0
C670 C 0.11281 0.55083 0.93817 0.0
C671 C 0.11684 0.50672 0.95489 0.0
H672 H 0.51541 0.57073 0.51442 0.0
H673 H 0.59998 0.55286 0.64401 0.0
H674 H 0.60318 0.47451 0.62205 0.0
H675 H 0.58654 0.41318 0.56017 0.0
H676 H 0.4988 0.42621 0.43539 0.0
H677 H 0.4927 0.50495 0.4595 0.0
C678 C 0.53391 0.54924 0.53832 0.0
C679 C 0.55687 0.56689 0.58171 0.0
C680 C 0.53583 0.50406 0.52487 0.0
C681 C 0.58126 0.53941 0.61194 0.0
C682 C 0.58345 0.49482 0.59881 0.0
C683 C 0.56577 0.43309 0.53849 0.0
C684 C 0.54472 0.41497 0.49328 0.0
C685 C 0.56148 0.4771 0.55461 0.0
C686 C 0.51735 0.4407 0.46674 0.0
C687 C 0.51331 0.48527 0.48168 0.0
H688 H 0.58824 0.94308 0.12053 0.0
H689 H 0.51102 0.9045 0.98729 0.0
H690 H 0.51876 0.97451 0.93914 0.0
H691 H 0.54166 0.0497 0.93915 0.0
H692 H 0.61221 0.09407 0.07743 0.0
H693 H 0.61207 0.01991 0.12039 0.0
C694 C 0.57231 0.95043 0.0823 0.0
C695 C 0.54833 0.91854 0.05924 0.0
C696 C 0.57576 0.99204 0.05531 0.0
C697 C 0.52957 0.92815 1.00699 0.0
C698 C 0.53387 0.9684 0.979 0.0
C699 C 0.55811 0.04262 0.97744 0.0
C700 C 0.57774 0.07658 1.00424 0.0
C701 C 0.55635 0.00083 1.00318 0.0
C702 C 0.59749 0.06785 0.05553 0.0
C703 C 0.59712 0.02564 0.08031 0.0
H704 H 0.07617 0.08856 0.47433 0.0
H705 H 1.00483 0.06546 0.62199 0.0
H706 H 0.99603 0.98896 0.59161 0.0
H707 H 1.0136 0.92716 0.52581 0.0
H708 H 0.08059 0.95411 0.37383 0.0
H709 H 0.08431 0.03174 0.4008 0.0
C710 C 0.0583 0.06713 0.49987 0.0
C711 C 0.04355 0.08172 0.55347 0.0
C712 C 0.05191 0.02424 0.48006 0.0
C713 C 0.01946 0.0538 0.58422 0.0
C714 C 1.01357 0.01043 0.56562 0.0
C715 C 0.02808 0.95046 0.49795 0.0
C716 C 0.04628 0.93541 0.44738 0.0
C717 C 0.03062 0.99493 0.51441 0.0
C718 C 0.06544 0.96541 0.41187 0.0
C719 C 0.06809 0.00957 0.42786 0.0
loop_
_geom_bond_atom_site_label_1
_geom_bond_atom_site_label_2
_geom_bond_distance
_geom_bond_site_symmetry_2
_ccdc_geom_bond_type
Zn0 N4 2.020 . S
Zn0 O8 2.019 . S
Zn0 N10 2.119 1_455 S
Zn0 O18 1.975 . S
C1 N2 1.334 . S
C1 N5 1.336 . S
N2 C1 1.334 . S
N2 C3 1.334 . S
C3 N2 1.334 . S
C3 N4 1.336 . S
N4 Zn0 2.020 . S
N4 C3 1.336 . S
N4 N5 1.354 . S
N5 C1 1.336 . S
N5 N4 1.354 . S
N5 Zn9 2.020 . S
C6 O7 1.244 . S
C6 O30 1.257 . S
O7 C6 1.244 . S
O8 Zn0 2.019 . S
O8 C28 1.257 . S
Zn9 N5 2.020 . S
Zn9 O16 1.975 . S
Zn9 N25 2.119 . S
Zn9 O30 2.019 . S
N10 Zn0 2.119 1_655 S
N10 C12 1.334 . S
N10 C13 1.328 . S
C11 C12 1.391 . S
C11 N14 1.329 . S
C11 H32 0.930 . S
C12 N10 1.334 . S
C12 C11 1.391 . S
C12 H19 0.930 . S
C13 N10 1.328 . S
C13 C15 1.392 . S
C13 H20 0.930 . S
N14 C11 1.329 . S
N14 C15 1.331 . S
C15 C13 1.392 . S
C15 N14 1.331 . S
O16 Zn9 1.975 . S
O16 C17 1.252 . S
C17 O16 1.252 . S
C17 O18 1.252 . S
O18 Zn0 1.975 . S
O18 C17 1.252 . S
H19 C12 0.930 . S
H20 C13 0.930 . S
C21 C22 1.392 . S
C21 N25 1.328 . S
C21 H27 0.930 . S
C22 C21 1.392 . S
C22 N26 1.331 . S
C23 C24 1.391 . S
C23 N26 1.329 . S
C23 H33 0.930 . S
C24 C23 1.391 . S
C24 N25 1.334 . S
C24 H31 0.930 . S
N25 Zn9 2.119 . S
N25 C21 1.328 . S
N25 C24 1.334 . S
N26 C22 1.331 . S
N26 C23 1.329 . S
H27 C21 0.930 . S
C28 O8 1.257 . S
C28 O29 1.244 . S
O29 C28 1.244 . S
O30 C6 1.257 . S
O30 Zn9 2.019 . S
H31 C24 0.930 . S
H32 C11 0.930 . S
H33 C23 0.930 . S
Zn34 N38 2.020 . S
Zn34 O42 2.019 . S
Zn34 N44 2.119 . S
Zn34 O52 1.975 . S
C35 N36 1.334 . S
C35 N39 1.336 . S
N36 C35 1.334 . S
N36 C37 1.334 . S
C37 N36 1.334 . S
C37 N38 1.336 . S
N38 Zn34 2.020 . S
N38 C37 1.336 . S
N38 N39 1.354 . S
N39 C35 1.336 . S
N39 N38 1.354 . S
N39 Zn43 2.020 . S
C40 O41 1.244 . S
C40 O64 1.257 . S
O41 C40 1.244 . S
O42 Zn34 2.019 . S
O42 C62 1.257 . S
Zn43 N39 2.020 . S
Zn43 O50 1.975 . S
Zn43 N59 2.119 . S
Zn43 O64 2.019 . S
N44 Zn34 2.119 . S
N44 C46 1.334 . S
N44 C47 1.328 . S
C45 C46 1.391 . S
C45 N48 1.329 . S
C45 H66 0.930 . S
C46 N44 1.334 . S
C46 C45 1.391 . S
C46 H53 0.930 . S
C47 N44 1.328 . S
C47 C49 1.392 . S
C47 H54 0.930 . S
N48 C45 1.329 . S
N48 C49 1.331 . S
C49 C47 1.392 . S
C49 N48 1.331 . S
O50 Zn43 1.975 . S
O50 C51 1.252 . S
C51 O50 1.252 . S
C51 O52 1.252 . S
O52 Zn34 1.975 . S
O52 C51 1.252 . S
H53 C46 0.930 . S
H54 C47 0.930 . S
C55 C56 1.392 . S
C55 N59 1.328 . S
C55 H61 0.930 . S
C56 C55 1.392 . S
C56 N60 1.331 . S
C57 C58 1.391 . S
C57 N60 1.329 . S
C57 H67 0.930 . S
C58 C57 1.391 . S
C58 N59 1.334 . S
C58 H65 0.930 . S
N59 Zn43 2.119 . S
N59 C55 1.328 . S
N59 C58 1.334 . S
N60 C56 1.331 . S
N60 C57 1.329 . S
H61 C55 0.930 . S
C62 O42 1.257 . S
C62 O63 1.244 . S
O63 C62 1.244 . S
O64 C40 1.257 . S
O64 Zn43 2.019 . S
H65 C58 0.930 . S
H66 C45 0.930 . S
H67 C57 0.930 . S
Zn68 N72 2.020 . S
Zn68 O76 2.019 . S
Zn68 N78 2.119 1_455 S
Zn68 O86 1.975 . S
C69 N70 1.334 . S
C69 N73 1.336 . S
N70 C69 1.334 . S
N70 C71 1.334 . S
C71 N70 1.334 . S
C71 N72 1.336 . S
N72 Zn68 2.020 . S
N72 C71 1.336 . S
N72 N73 1.354 . S
N73 C69 1.336 . S
N73 N72 1.354 . S
N73 Zn77 2.020 . S
C74 O75 1.244 . S
C74 O98 1.257 . S
O75 C74 1.244 . S
O76 Zn68 2.019 . S
O76 C96 1.257 . S
Zn77 N73 2.020 . S
Zn77 O84 1.975 . S
Zn77 N93 2.119 . S
Zn77 O98 2.019 . S
N78 Zn68 2.119 1_655 S
N78 C80 1.334 . S
N78 C81 1.328 . S
C79 C80 1.391 . S
C79 N82 1.329 . S
C79 H100 0.930 . S
C80 N78 1.334 . S
C80 C79 1.391 . S
C80 H87 0.930 . S
C81 N78 1.328 . S
C81 C83 1.392 . S
C81 H88 0.930 . S
N82 C79 1.329 . S
N82 C83 1.331 . S
C83 C81 1.392 . S
C83 N82 1.331 . S
O84 Zn77 1.975 . S
O84 C85 1.252 . S
C85 O84 1.252 . S
C85 O86 1.252 . S
O86 Zn68 1.975 . S
O86 C85 1.252 . S
H87 C80 0.930 . S
H88 C81 0.930 . S
C89 C90 1.392 . S
C89 N93 1.328 . S
C89 H95 0.930 . S
C90 C89 1.392 . S
C90 N94 1.331 . S
C91 C92 1.391 . S
C91 N94 1.329 . S
C91 H101 0.930 . S
C92 C91 1.391 . S
C92 N93 1.334 . S
C92 H99 0.930 . S
N93 Zn77 2.119 . S
N93 C89 1.328 . S
N93 C92 1.334 . S
N94 C90 1.331 . S
N94 C91 1.329 . S
H95 C89 0.930 . S
C96 O76 1.257 . S
C96 O97 1.244 . S
O97 C96 1.244 . S
O98 C74 1.257 . S
O98 Zn77 2.019 . S
H99 C92 0.930 . S
H100 C79 0.930 . S
H101 C91 0.930 . S
Zn102 N106 2.020 . S
Zn102 O110 2.019 . S
Zn102 N112 2.119 . S
Zn102 O120 1.975 . S
C103 N104 1.334 . S
C103 N107 1.336 . S
N104 C103 1.334 . S
N104 C105 1.334 . S
C105 N104 1.334 . S
C105 N106 1.336 . S
N106 Zn102 2.020 . S
N106 C105 1.336 . S
N106 N107 1.354 . S
N107 C103 1.336 . S
N107 N106 1.354 . S
N107 Zn111 2.020 . S
C108 O109 1.244 . S
C108 O132 1.257 . S
O109 C108 1.244 . S
O110 Zn102 2.019 . S
O110 C130 1.257 . S
Zn111 N107 2.020 . S
Zn111 O118 1.975 . S
Zn111 N127 2.119 . S
Zn111 O132 2.019 . S
N112 Zn102 2.119 . S
N112 C114 1.334 . S
N112 C115 1.328 . S
C113 C114 1.391 . S
C113 N116 1.329 . S
C113 H134 0.930 . S
C114 N112 1.334 . S
C114 C113 1.391 . S
C114 H121 0.930 . S
C115 N112 1.328 . S
C115 C117 1.392 . S
C115 H122 0.930 . S
N116 C113 1.329 . S
N116 C117 1.331 . S
C117 C115 1.392 . S
C117 N116 1.331 . S
O118 Zn111 1.975 . S
O118 C119 1.252 . S
C119 O118 1.252 . S
C119 O120 1.252 . S
O120 Zn102 1.975 . S
O120 C119 1.252 . S
H121 C114 0.930 . S
H122 C115 0.930 . S
C123 C124 1.392 . S
C123 N127 1.328 . S
C123 H129 0.930 . S
C124 C123 1.392 . S
C124 N128 1.331 . S
C125 C126 1.391 . S
C125 N128 1.329 . S
C125 H135 0.930 . S
C126 C125 1.391 . S
C126 N127 1.334 . S
C126 H133 0.930 . S
N127 Zn111 2.119 . S
N127 C123 1.328 . S
N127 C126 1.334 . S
N128 C124 1.331 . S
N128 C125 1.329 . S
H129 C123 0.930 . S
C130 O110 1.257 . S
C130 O131 1.244 . S
O131 C130 1.244 . S
O132 C108 1.257 . S
O132 Zn111 2.019 . S
H133 C126 0.930 . S
H134 C113 0.930 . S
H135 C125 0.930 . S
Zn136 N140 2.020 . S
Zn136 O144 2.019 . S
Zn136 N146 2.119 . S
Zn136 O154 1.975 . S
C137 N138 1.334 . S
C137 N141 1.336 . S
N138 C137 1.334 . S
N138 C139 1.334 . S
C139 N138 1.334 . S
C139 N140 1.336 . S
N140 Zn136 2.020 . S
N140 C139 1.336 . S
N140 N141 1.354 . S
N141 C137 1.336 . S
N141 N140 1.354 . S
N141 Zn145 2.020 . S
C142 O143 1.244 . S
C142 O166 1.257 . S
O143 C142 1.244 . S
O144 Zn136 2.019 . S
O144 C164 1.257 . S
Zn145 N141 2.020 . S
Zn145 O152 1.975 . S
Zn145 N161 2.119 . S
Zn145 O166 2.019 . S
N146 Zn136 2.119 . S
N146 C148 1.334 . S
N146 C149 1.328 . S
C147 C148 1.391 . S
C147 N150 1.329 . S
C147 H168 0.930 . S
C148 N146 1.334 . S
C148 C147 1.391 . S
C148 H155 0.930 . S
C149 N146 1.328 . S
C149 C151 1.392 . S
C149 H156 0.930 . S
N150 C147 1.329 . S
N150 C151 1.331 . S
C151 C149 1.392 . S
C151 N150 1.331 . S
O152 Zn145 1.975 . S
O152 C153 1.252 . S
C153 O152 1.252 . S
C153 O154 1.252 . S
O154 Zn136 1.975 . S
O154 C153 1.252 . S
H155 C148 0.930 . S
H156 C149 0.930 . S
C157 C158 1.392 . S
C157 N161 1.328 . S
C157 H163 0.930 . S
C158 C157 1.392 . S
C158 N162 1.331 . S
C159 C160 1.391 . S
C159 N162 1.329 . S
C159 H169 0.930 . S
C160 C159 1.391 . S
C160 N161 1.334 . S
C160 H167 0.930 . S
N161 Zn145 2.119 . S
N161 C157 1.328 . S
N161 C160 1.334 . S
N162 C158 1.331 . S
N162 C159 1.329 . S
H163 C157 0.930 . S
C164 O144 1.257 . S
C164 O165 1.244 . S
O165 C164 1.244 . S
O166 C142 1.257 . S
O166 Zn145 2.019 . S
H167 C160 0.930 . S
H168 C147 0.930 . S
H169 C159 0.930 . S
Zn170 N174 2.020 . S
Zn170 O178 2.019 1_455 S
Zn170 N180 2.119 1_455 S
Zn170 O188 1.975 . S
C171 N172 1.334 . S
C171 N175 1.336 . S
N172 C171 1.334 . S
N172 C173 1.334 . S
C173 N172 1.334 . S
C173 N174 1.336 . S
N174 Zn170 2.020 . S
N174 C173 1.336 . S
N174 N175 1.354 . S
N175 C171 1.336 . S
N175 N174 1.354 . S
N175 Zn179 2.020 . S
C176 O177 1.244 . S
C176 O200 1.257 . S
O177 C176 1.244 . S
O178 Zn170 2.019 1_655 S
O178 C198 1.257 1_655 S
Zn179 N175 2.020 . S
Zn179 O186 1.975 . S
Zn179 N195 2.119 . S
Zn179 O200 2.019 . S
N180 Zn170 2.119 1_655 S
N180 C182 1.334 . S
N180 C183 1.328 . S
C181 C182 1.391 . S
C181 N184 1.329 . S
C181 H202 0.930 . S
C182 N180 1.334 . S
C182 C181 1.391 . S
C182 H189 0.930 . S
C183 N180 1.328 . S
C183 C185 1.392 . S
C183 H190 0.930 . S
N184 C181 1.329 . S
N184 C185 1.331 . S
C185 C183 1.392 . S
C185 N184 1.331 . S
O186 Zn179 1.975 . S
O186 C187 1.252 . S
C187 O186 1.252 . S
C187 O188 1.252 . S
O188 Zn170 1.975 . S
O188 C187 1.252 . S
H189 C182 0.930 . S
H190 C183 0.930 . S
C191 C192 1.392 . S
C191 N195 1.328 . S
C191 H197 0.930 . S
C192 C191 1.392 . S
C192 N196 1.331 . S
C193 C194 1.391 . S
C193 N196 1.329 . S
C193 H203 0.930 . S
C194 C193 1.391 . S
C194 N195 1.334 . S
C194 H201 0.930 . S
N195 Zn179 2.119 . S
N195 C191 1.328 . S
N195 C194 1.334 . S
N196 C192 1.331 . S
N196 C193 1.329 . S
H197 C191 0.930 . S
C198 O178 1.257 1_455 S
C198 O199 1.244 . S
O199 C198 1.244 . S
O200 C176 1.257 . S
O200 Zn179 2.019 . S
H201 C194 0.930 . S
H202 C181 0.930 . S
H203 C193 0.930 . S
Zn204 N208 2.020 . S
Zn204 O212 2.019 . S
Zn204 N214 2.119 . S
Zn204 O222 1.975 . S
C205 N206 1.334 . S
C205 N209 1.336 . S
N206 C205 1.334 . S
N206 C207 1.334 . S
C207 N206 1.334 . S
C207 N208 1.336 . S
N208 Zn204 2.020 . S
N208 C207 1.336 . S
N208 N209 1.354 . S
N209 C205 1.336 . S
N209 N208 1.354 . S
N209 Zn213 2.020 . S
C210 O211 1.244 . S
C210 O234 1.257 . S
O211 C210 1.244 . S
O212 Zn204 2.019 . S
O212 C232 1.257 . S
Zn213 N209 2.020 . S
Zn213 O220 1.975 . S
Zn213 N229 2.119 . S
Zn213 O234 2.019 . S
N214 Zn204 2.119 . S
N214 C216 1.334 . S
N214 C217 1.328 . S
C215 C216 1.391 . S
C215 N218 1.329 . S
C215 H236 0.930 . S
C216 N214 1.334 . S
C216 C215 1.391 . S
C216 H223 0.930 . S
C217 N214 1.328 . S
C217 C219 1.392 . S
C217 H224 0.930 . S
N218 C215 1.329 . S
N218 C219 1.331 . S
C219 C217 1.392 . S
C219 N218 1.331 . S
O220 Zn213 1.975 . S
O220 C221 1.252 . S
C221 O220 1.252 . S
C221 O222 1.252 . S
O222 Zn204 1.975 . S
O222 C221 1.252 . S
H223 C216 0.930 . S
H224 C217 0.930 . S
C225 C226 1.392 . S
C225 N229 1.328 . S
C225 H231 0.930 . S
C226 C225 1.392 . S
C226 N230 1.331 . S
C227 C228 1.391 . S
C227 N230 1.329 . S
C227 H237 0.930 . S
C228 C227 1.391 . S
C228 N229 1.334 . S
C228 H235 0.930 . S
N229 Zn213 2.119 . S
N229 C225 1.328 . S
N229 C228 1.334 . S
N230 C226 1.331 . S
N230 C227 1.329 . S
H231 C225 0.930 . S
C232 O212 1.257 . S
C232 O233 1.244 . S
O233 C232 1.244 . S
O234 C210 1.257 . S
O234 Zn213 2.019 . S
H235 C228 0.930 . S
H236 C215 0.930 . S
H237 C227 0.930 . S
Zn238 N242 2.020 . S
Zn238 O246 2.019 . S
Zn238 N248 2.119 . S
Zn238 O256 1.975 . S
C239 N240 1.334 . S
C239 N243 1.336 . S
N240 C239 1.334 . S
N240 C241 1.334 . S
C241 N240 1.334 . S
C241 N242 1.336 . S
N242 Zn238 2.020 . S
N242 C241 1.336 . S
N242 N243 1.354 . S
N243 C239 1.336 . S
N243 N242 1.354 . S
N243 Zn247 2.020 . S
C244 O245 1.244 . S
C244 O268 1.257 1_455 S
O245 C244 1.244 . S
O246 Zn238 2.019 . S
O246 C266 1.257 . S
Zn247 N243 2.020 . S
Zn247 O254 1.975 . S
Zn247 N263 2.119 1_455 S
Zn247 O268 2.019 1_455 S
N248 Zn238 2.119 . S
N248 C250 1.334 . S
N248 C251 1.328 . S
C249 C250 1.391 . S
C249 N252 1.329 . S
C249 H270 0.930 . S
C250 N248 1.334 . S
C250 C249 1.391 . S
C250 H257 0.930 . S
C251 N248 1.328 . S
C251 C253 1.392 . S
C251 H258 0.930 . S
N252 C249 1.329 . S
N252 C253 1.331 . S
C253 C251 1.392 . S
C253 N252 1.331 . S
O254 Zn247 1.975 . S
O254 C255 1.252 . S
C255 O254 1.252 . S
C255 O256 1.252 . S
O256 Zn238 1.975 . S
O256 C255 1.252 . S
H257 C250 0.930 . S
H258 C251 0.930 . S
C259 C260 1.392 . S
C259 N263 1.328 . S
C259 H265 0.930 . S
C260 C259 1.392 . S
C260 N264 1.331 . S
C261 C262 1.391 . S
C261 N264 1.329 . S
C261 H271 0.930 . S
C262 C261 1.391 . S
C262 N263 1.334 . S
C262 H269 0.930 . S
N263 Zn247 2.119 1_655 S
N263 C259 1.328 . S
N263 C262 1.334 . S
N264 C260 1.331 . S
N264 C261 1.329 . S
H265 C259 0.930 . S
C266 O246 1.257 . S
C266 O267 1.244 . S
O267 C266 1.244 . S
O268 C244 1.257 1_655 S
O268 Zn247 2.019 1_655 S
H269 C262 0.930 . S
H270 C249 0.930 . S
H271 C261 0.930 . S
H272 C278 0.930 . S
H273 C281 0.930 . S
H274 C282 0.930 . S
H275 C283 0.930 . S
H276 C286 0.930 . S
H277 C287 0.930 . S
C278 H272 0.930 . S
C278 C279 1.355 . S
C278 C280 1.415 . S
C279 C278 1.355 . S
C279 C281 1.419 . S
C280 C278 1.415 . S
C280 C285 1.425 . S
C280 C287 1.409 . S
C281 H273 0.930 . S
C281 C279 1.419 . S
C281 C282 1.362 . S
C282 H274 0.930 . S
C282 C281 1.362 . S
C282 C285 1.409 . S
C283 H275 0.930 . S
C283 C284 1.355 . S
C283 C285 1.415 . S
C284 C283 1.355 . S
C284 C286 1.419 . S
C285 C280 1.425 . S
C285 C282 1.409 . S
C285 C283 1.415 . S
C286 H276 0.930 . S
C286 C284 1.419 . S
C286 C287 1.362 . S
C287 H277 0.930 . S
C287 C280 1.409 . S
C287 C286 1.362 . S
H288 C294 0.930 . S
H289 C297 0.930 . S
H290 C298 0.930 . S
H291 C299 0.930 . S
H292 C302 0.930 . S
H293 C303 0.930 . S
C294 H288 0.930 . S
C294 C295 1.355 . S
C294 C296 1.415 . S
C295 C294 1.355 . S
C295 C297 1.419 . S
C296 C294 1.415 . S
C296 C301 1.425 . S
C296 C303 1.409 . S
C297 H289 0.930 . S
C297 C295 1.419 . S
C297 C298 1.362 . S
C298 H290 0.930 . S
C298 C297 1.362 . S
C298 C301 1.409 . S
C299 H291 0.930 . S
C299 C300 1.355 . S
C299 C301 1.415 . S
C300 C299 1.355 . S
C300 C302 1.419 . S
C301 C296 1.425 . S
C301 C298 1.409 . S
C301 C299 1.415 . S
C302 H292 0.930 . S
C302 C300 1.419 . S
C302 C303 1.362 . S
C303 H293 0.930 . S
C303 C296 1.409 . S
C303 C302 1.362 . S
H304 C310 0.930 . S
H305 C313 0.930 . S
H306 C314 0.930 . S
H307 C315 0.930 . S
H308 C318 0.930 . S
H309 C319 0.930 . S
C310 H304 0.930 . S
C310 C311 1.355 . S
C310 C312 1.415 . S
C311 C310 1.355 . S
C311 C313 1.419 . S
C312 C310 1.415 . S
C312 C317 1.425 . S
C312 C319 1.409 . S
C313 H305 0.930 . S
C313 C311 1.419 . S
C313 C314 1.362 . S
C314 H306 0.930 . S
C314 C313 1.362 . S
C314 C317 1.409 . S
C315 H307 0.930 . S
C315 C316 1.355 . S
C315 C317 1.415 . S
C316 C315 1.355 . S
C316 C318 1.419 . S
C317 C312 1.425 . S
C317 C314 1.409 . S
C317 C315 1.415 . S
C318 H308 0.930 . S
C318 C316 1.419 . S
C318 C319 1.362 . S
C319 H309 0.930 . S
C319 C312 1.409 . S
C319 C318 1.362 . S
H320 C326 0.930 . S
H321 C329 0.930 . S
H322 C330 0.930 . S
H323 C331 0.930 . S
H324 C334 0.930 . S
H325 C335 0.930 . S
C326 H320 0.930 . S
C326 C327 1.355 . S
C326 C328 1.415 . S
C327 C326 1.355 . S
C327 C329 1.419 . S
C328 C326 1.415 . S
C328 C333 1.425 . S
C328 C335 1.409 . S
C329 H321 0.930 . S
C329 C327 1.419 . S
C329 C330 1.362 . S
C330 H322 0.930 . S
C330 C329 1.362 . S
C330 C333 1.409 . S
C331 H323 0.930 . S
C331 C332 1.355 . S
C331 C333 1.415 . S
C332 C331 1.355 . S
C332 C334 1.419 . S
C333 C328 1.425 . S
C333 C330 1.409 . S
C333 C331 1.415 . S
C334 H324 0.930 . S
C334 C332 1.419 . S
C334 C335 1.362 . S
C335 H325 0.930 . S
C335 C328 1.409 . S
C335 C334 1.362 . S
H336 C342 0.930 . S
H337 C345 0.930 . S
H338 C346 0.930 . S
H339 C347 0.930 . S
H340 C350 0.930 . S
H341 C351 0.930 . S
C342 H336 0.930 . S
C342 C343 1.355 . S
C342 C344 1.415 . S
C343 C342 1.355 . S
C343 C345 1.419 . S
C344 C342 1.415 . S
C344 C349 1.425 . S
C344 C351 1.409 . S
C345 H337 0.930 . S
C345 C343 1.419 . S
C345 C346 1.362 . S
C346 H338 0.930 . S
C346 C345 1.362 . S
C346 C349 1.409 . S
C347 H339 0.930 . S
C347 C348 1.355 . S
C347 C349 1.415 . S
C348 C347 1.355 . S
C348 C350 1.419 . S
C349 C344 1.425 . S
C349 C346 1.409 . S
C349 C347 1.415 . S
C350 H340 0.930 . S
C350 C348 1.419 . S
C350 C351 1.362 . S
C351 H341 0.930 . S
C351 C344 1.409 . S
C351 C350 1.362 . S
H352 C358 0.930 . S
H353 C361 0.930 . S
H354 C362 0.930 . S
H355 C363 0.930 . S
H356 C366 0.930 . S
H357 C367 0.930 . S
C358 H352 0.930 . S
C358 C359 1.355 . S
C358 C360 1.415 . S
C359 C358 1.355 . S
C359 C361 1.419 . S
C360 C358 1.415 . S
C360 C365 1.425 . S
C360 C367 1.409 . S
C361 H353 0.930 . S
C361 C359 1.419 . S
C361 C362 1.362 . S
C362 H354 0.930 . S
C362 C361 1.362 . S
C362 C365 1.409 . S
C363 H355 0.930 . S
C363 C364 1.355 . S
C363 C365 1.415 . S
C364 C363 1.355 . S
C364 C366 1.419 . S
C365 C360 1.425 . S
C365 C362 1.409 . S
C365 C363 1.415 . S
C366 H356 0.930 . S
C366 C364 1.419 . S
C366 C367 1.362 . S
C367 H357 0.930 . S
C367 C360 1.409 . S
C367 C366 1.362 . S
H368 C374 0.930 . S
H369 C377 0.930 . S
H370 C378 0.930 . S
H371 C379 0.930 . S
H372 C382 0.930 . S
H373 C383 0.930 . S
C374 H368 0.930 . S
C374 C375 1.355 . S
C374 C376 1.415 . S
C375 C374 1.355 . S
C375 C377 1.419 . S
C376 C374 1.415 . S
C376 C381 1.425 . S
C376 C383 1.409 . S
C377 H369 0.930 . S
C377 C375 1.419 . S
C377 C378 1.362 . S
C378 H370 0.930 . S
C378 C377 1.362 . S
C378 C381 1.409 . S
C379 H371 0.930 . S
C379 C380 1.355 . S
C379 C381 1.415 . S
C380 C379 1.355 . S
C380 C382 1.419 . S
C381 C376 1.425 . S
C381 C378 1.409 . S
C381 C379 1.415 . S
C382 H372 0.930 . S
C382 C380 1.419 . S
C382 C383 1.362 . S
C383 H373 0.930 . S
C383 C376 1.409 . S
C383 C382 1.362 . S
H384 C390 0.930 . S
H385 C393 0.930 . S
H386 C394 0.930 . S
H387 C395 0.930 . S
H388 C398 0.930 . S
H389 C399 0.930 . S
C390 H384 0.930 . S
C390 C391 1.355 . S
C390 C392 1.415 . S
C391 C390 1.355 . S
C391 C393 1.419 . S
C392 C390 1.415 . S
C392 C397 1.425 . S
C392 C399 1.409 . S
C393 H385 0.930 . S
C393 C391 1.419 . S
C393 C394 1.362 . S
C394 H386 0.930 . S
C394 C393 1.362 . S
C394 C397 1.409 . S
C395 H387 0.930 . S
C395 C396 1.355 . S
C395 C397 1.415 . S
C396 C395 1.355 . S
C396 C398 1.419 . S
C397 C392 1.425 . S
C397 C394 1.409 . S
C397 C395 1.415 . S
C398 H388 0.930 . S
C398 C396 1.419 . S
C398 C399 1.362 . S
C399 H389 0.930 . S
C399 C392 1.409 . S
C399 C398 1.362 . S
H400 C406 0.930 . S
H401 C409 0.930 . S
H402 C410 0.930 . S
H403 C411 0.930 . S
H404 C414 0.930 . S
H405 C415 0.930 . S
C406 H400 0.930 . S
C406 C407 1.355 . S
C406 C408 1.415 . S
C407 C406 1.355 . S
C407 C409 1.419 . S
C408 C406 1.415 . S
C408 C413 1.425 . S
C408 C415 1.409 . S
C409 H401 0.930 . S
C409 C407 1.419 . S
C409 C410 1.362 . S
C410 H402 0.930 . S
C410 C409 1.362 . S
C410 C413 1.409 . S
C411 H403 0.930 . S
C411 C412 1.355 . S
C411 C413 1.415 . S
C412 C411 1.355 . S
C412 C414 1.419 . S
C413 C408 1.425 . S
C413 C410 1.409 . S
C413 C411 1.415 . S
C414 H404 0.930 . S
C414 C412 1.419 . S
C414 C415 1.362 . S
C415 H405 0.930 . S
C415 C408 1.409 . S
C415 C414 1.362 . S
H416 C422 0.930 . S
H417 C425 0.930 . S
H418 C426 0.930 . S
H419 C427 0.930 . S
H420 C430 0.930 . S
H421 C431 0.930 . S
C422 H416 0.930 . S
C422 C423 1.355 . S
C422 C424 1.415 . S
C423 C422 1.355 . S
C423 C425 1.419 . S
C424 C422 1.415 . S
C424 C429 1.425 . S
C424 C431 1.409 . S
C425 H417 0.930 . S
C425 C423 1.419 . S
C425 C426 1.362 . S
C426 H418 0.930 . S
C426 C425 1.362 . S
C426 C429 1.409 . S
C427 H419 0.930 . S
C427 C428 1.355 . S
C427 C429 1.415 . S
C428 C427 1.355 . S
C428 C430 1.419 . S
C429 C424 1.425 . S
C429 C426 1.409 . S
C429 C427 1.415 . S
C430 H420 0.930 . S
C430 C428 1.419 . S
C430 C431 1.362 . S
C431 H421 0.930 . S
C431 C424 1.409 . S
C431 C430 1.362 . S
H432 C438 0.930 . S
H433 C441 0.930 . S
H434 C442 0.930 1_655 S
H435 C443 0.930 . S
H436 C446 0.930 . S
H437 C447 0.930 . S
C438 H432 0.930 . S
C438 C439 1.355 . S
C438 C440 1.415 . S
C439 C438 1.355 . S
C439 C441 1.419 . S
C440 C438 1.415 . S
C440 C445 1.425 . S
C440 C447 1.409 . S
C441 H433 0.930 . S
C441 C439 1.419 . S
C441 C442 1.362 . S
C442 H434 0.930 1_455 S
C442 C441 1.362 . S
C442 C445 1.409 . S
C443 H435 0.930 . S
C443 C444 1.355 . S
C443 C445 1.415 . S
C444 C443 1.355 . S
C444 C446 1.419 . S
C445 C440 1.425 . S
C445 C442 1.409 . S
C445 C443 1.415 . S
C446 H436 0.930 . S
C446 C444 1.419 . S
C446 C447 1.362 . S
C447 H437 0.930 . S
C447 C440 1.409 . S
C447 C446 1.362 . S
H448 C454 0.930 . S
H449 C457 0.930 . S
H450 C458 0.930 . S
H451 C459 0.930 . S
H452 C462 0.930 . S
H453 C463 0.930 . S
C454 H448 0.930 . S
C454 C455 1.355 . S
C454 C456 1.415 . S
C455 C454 1.355 . S
C455 C457 1.419 . S
C456 C454 1.415 . S
C456 C461 1.425 . S
C456 C463 1.409 . S
C457 H449 0.930 . S
C457 C455 1.419 . S
C457 C458 1.362 . S
C458 H450 0.930 . S
C458 C457 1.362 . S
C458 C461 1.409 . S
C459 H451 0.930 . S
C459 C460 1.355 . S
C459 C461 1.415 . S
C460 C459 1.355 . S
C460 C462 1.419 . S
C461 C456 1.425 . S
C461 C458 1.409 . S
C461 C459 1.415 . S
C462 H452 0.930 . S
C462 C460 1.419 . S
C462 C463 1.362 . S
C463 H453 0.930 . S
C463 C456 1.409 . S
C463 C462 1.362 . S
H464 C470 0.930 . S
H465 C473 0.930 1_565 S
H466 C474 0.930 . S
H467 C475 0.930 . S
H468 C478 0.930 . S
H469 C479 0.930 . S
C470 H464 0.930 . S
C470 C471 1.355 1_545 S
C470 C472 1.415 . S
C471 C470 1.355 1_565 S
C471 C473 1.419 1_565 S
C472 C470 1.415 . S
C472 C477 1.425 . S
C472 C479 1.409 . S
C473 H465 0.930 1_545 S
C473 C471 1.419 1_545 S
C473 C474 1.362 . S
C474 H466 0.930 . S
C474 C473 1.362 . S
C474 C477 1.409 . S
C475 H467 0.930 . S
C475 C476 1.355 . S
C475 C477 1.415 . S
C476 C475 1.355 . S
C476 C478 1.419 . S
C477 C472 1.425 . S
C477 C474 1.409 . S
C477 C475 1.415 . S
C478 H468 0.930 . S
C478 C476 1.419 . S
C478 C479 1.362 . S
C479 H469 0.930 . S
C479 C472 1.409 . S
C479 C478 1.362 . S
H480 C486 0.930 1_655 S
H481 C489 0.930 . S
H482 C490 0.930 . S
H483 C491 0.930 . S
H484 C494 0.930 . S
H485 C495 0.930 . S
C486 H480 0.930 1_455 S
C486 C487 1.355 . S
C486 C488 1.415 . S
C487 C486 1.355 . S
C487 C489 1.419 . S
C488 C486 1.415 . S
C488 C493 1.425 . S
C488 C495 1.409 1_455 S
C489 H481 0.930 . S
C489 C487 1.419 . S
C489 C490 1.362 . S
C490 H482 0.930 . S
C490 C489 1.362 . S
C490 C493 1.409 . S
C491 H483 0.930 . S
C491 C492 1.354 1_565 S
C491 C493 1.415 . S
C492 C491 1.354 1_545 S
C492 C494 1.419 1_445 S
C493 C488 1.425 . S
C493 C490 1.409 . S
C493 C491 1.415 . S
C494 H484 0.930 . S
C494 C492 1.419 1_665 S
C494 C495 1.362 . S
C495 H485 0.930 . S
C495 C488 1.409 1_655 S
C495 C494 1.362 . S
H496 C502 0.930 . S
H497 C505 0.930 . S
H498 C506 0.930 . S
H499 C507 0.930 . S
H500 C510 0.930 1_545 S
H501 C511 0.930 . S
C502 H496 0.930 . S
C502 C503 1.355 . S
C502 C504 1.415 . S
C503 C502 1.355 . S
C503 C505 1.419 . S
C504 C502 1.415 . S
C504 C509 1.425 . S
C504 C511 1.409 . S
C505 H497 0.930 . S
C505 C503 1.419 . S
C505 C506 1.362 . S
C506 H498 0.930 . S
C506 C505 1.362 . S
C506 C509 1.409 . S
C507 H499 0.930 . S
C507 C508 1.355 1_565 S
C507 C509 1.415 . S
C508 C507 1.355 1_545 S
C508 C510 1.419 1_545 S
C509 C504 1.425 . S
C509 C506 1.409 . S
C509 C507 1.415 . S
C510 H500 0.930 1_565 S
C510 C508 1.419 1_565 S
C510 C511 1.362 . S
C511 H501 0.930 . S
C511 C504 1.409 . S
C511 C510 1.362 . S
H512 C518 0.930 1_655 S
H513 C521 0.930 . S
H514 C522 0.930 . S
H515 C523 0.930 . S
H516 C526 0.930 . S
H517 C527 0.930 . S
C518 H512 0.930 1_455 S
C518 C519 1.355 . S
C518 C520 1.415 . S
C519 C518 1.355 . S
C519 C521 1.419 . S
C520 C518 1.415 . S
C520 C525 1.425 . S
C520 C527 1.409 1_455 S
C521 H513 0.930 . S
C521 C519 1.419 . S
C521 C522 1.362 . S
C522 H514 0.930 . S
C522 C521 1.362 . S
C522 C525 1.409 . S
C523 H515 0.930 . S
C523 C524 1.346 1_545 S
C523 C525 1.415 . S
C524 C523 1.346 1_565 S
C524 C526 1.413 1_465 S
C525 C520 1.425 . S
C525 C522 1.409 . S
C525 C523 1.415 . S
C526 H516 0.930 . S
C526 C524 1.413 1_645 S
C526 C527 1.362 . S
C527 H517 0.930 . S
C527 C520 1.409 1_655 S
C527 C526 1.362 . S
H528 C534 0.930 . S
H529 C537 0.930 . S
H530 C538 0.930 . S
H531 C539 0.930 . S
H532 C542 0.930 . S
H533 C543 0.930 . S
C534 H528 0.930 . S
C534 C535 1.355 1_556 S
C534 C536 1.415 . S
C535 C534 1.355 1_554 S
C535 C537 1.419 . S
C536 C534 1.415 . S
C536 C541 1.425 . S
C536 C543 1.409 . S
C537 H529 0.930 . S
C537 C535 1.419 . S
C537 C538 1.362 . S
C538 H530 0.930 . S
C538 C537 1.362 . S
C538 C541 1.409 1_554 S
C539 H531 0.930 . S
C539 C540 1.355 . S
C539 C541 1.415 . S
C540 C539 1.355 . S
C540 C542 1.419 . S
C541 C536 1.425 . S
C541 C538 1.409 1_556 S
C541 C539 1.415 . S
C542 H532 0.930 . S
C542 C540 1.419 . S
C542 C543 1.362 . S
C543 H533 0.930 . S
C543 C536 1.409 . S
C543 C542 1.362 . S
H544 C550 0.930 . S
H545 C553 0.930 . S
H546 C554 0.930 . S
H547 C555 0.930 . S
H548 C558 0.930 . S
H549 C559 0.930 . S
C550 H544 0.930 . S
C550 C551 1.355 . S
C550 C552 1.415 . S
C551 C550 1.355 . S
C551 C553 1.419 . S
C552 C550 1.415 . S
C552 C557 1.425 . S
C552 C559 1.409 . S
C553 H545 0.930 . S
C553 C551 1.419 . S
C553 C554 1.362 . S
C554 H546 0.930 . S
C554 C553 1.362 . S
C554 C557 1.409 . S
C555 H547 0.930 . S
C555 C556 1.355 . S
C555 C557 1.415 . S
C556 C555 1.355 . S
C556 C558 1.419 . S
C557 C552 1.425 . S
C557 C554 1.409 . S
C557 C555 1.415 . S
C558 H548 0.930 . S
C558 C556 1.419 . S
C558 C559 1.362 . S
C559 H549 0.930 . S
C559 C552 1.409 . S
C559 C558 1.362 . S
H560 C566 0.930 . S
H561 C569 0.930 . S
H562 C570 0.930 . S
H563 C571 0.930 1_656 S
H564 C574 0.930 . S
H565 C575 0.930 . S
C566 H560 0.930 . S
C566 C567 1.355 . S
C566 C568 1.415 . S
C567 C566 1.355 . S
C567 C569 1.419 1_455 S
C568 C566 1.415 . S
C568 C573 1.425 . S
C568 C575 1.409 . S
C569 H561 0.930 . S
C569 C567 1.419 1_655 S
C569 C570 1.362 . S
C570 H562 0.930 . S
C570 C569 1.362 . S
C570 C573 1.409 1_655 S
C571 H563 0.930 1_454 S
C571 C572 1.355 1_554 S
C571 C573 1.414 . S
C572 C571 1.355 1_556 S
C572 C574 1.419 . S
C573 C568 1.425 . S
C573 C570 1.409 1_455 S
C573 C571 1.414 . S
C574 H564 0.930 . S
C574 C572 1.419 . S
C574 C575 1.362 1_556 S
C575 H565 0.930 . S
C575 C568 1.409 . S
C575 C574 1.362 1_554 S
H576 C582 0.930 . S
H577 C585 0.930 . S
H578 C586 0.930 . S
H579 C587 0.930 . S
H580 C590 0.930 . S
H581 C591 0.930 . S
C582 H576 0.930 . S
C582 C583 1.355 . S
C582 C584 1.415 . S
C583 C582 1.355 . S
C583 C585 1.419 . S
C584 C582 1.415 . S
C584 C589 1.425 . S
C584 C591 1.409 . S
C585 H577 0.930 . S
C585 C583 1.419 . S
C585 C586 1.362 . S
C586 H578 0.930 . S
C586 C585 1.362 . S
C586 C589 1.409 . S
C587 H579 0.930 . S
C587 C588 1.355 . S
C587 C589 1.415 . S
C588 C587 1.355 . S
C588 C590 1.419 . S
C589 C584 1.425 . S
C589 C586 1.409 . S
C589 C587 1.415 . S
C590 H580 0.930 . S
C590 C588 1.419 . S
C590 C591 1.362 . S
C591 H581 0.930 . S
C591 C584 1.409 . S
C591 C590 1.362 . S
H592 C598 0.930 . S
H593 C601 0.930 1_554 S
H594 C602 0.930 . S
H595 C603 0.930 . S
H596 C606 0.930 . S
H597 C607 0.930 . S
C598 H592 0.930 . S
C598 C599 1.355 . S
C598 C600 1.415 1_554 S
C599 C598 1.355 . S
C599 C601 1.419 1_554 S
C600 C598 1.415 1_556 S
C600 C605 1.425 . S
C600 C607 1.409 . S
C601 H593 0.930 1_556 S
C601 C599 1.419 1_556 S
C601 C602 1.362 . S
C602 H594 0.930 . S
C602 C601 1.362 . S
C602 C605 1.409 . S
C603 H595 0.930 . S
C603 C604 1.355 . S
C603 C605 1.415 . S
C604 C603 1.355 . S
C604 C606 1.419 . S
C605 C600 1.425 . S
C605 C602 1.409 . S
C605 C603 1.415 . S
C606 H596 0.930 . S
C606 C604 1.419 . S
C606 C607 1.362 . S
C607 H597 0.930 . S
C607 C600 1.409 . S
C607 C606 1.362 . S
H608 C614 0.930 . S
H609 C617 0.930 . S
H610 C618 0.930 1_655 S
H611 C619 0.930 . S
H612 C622 0.930 . S
H613 C623 0.930 . S
C614 H608 0.930 . S
C614 C615 1.355 . S
C614 C616 1.415 . S
C615 C614 1.355 . S
C615 C617 1.419 . S
C616 C614 1.415 . S
C616 C621 1.425 . S
C616 C623 1.409 . S
C617 H609 0.930 . S
C617 C615 1.419 . S
C617 C618 1.362 . S
C618 H610 0.930 1_455 S
C618 C617 1.362 . S
C618 C621 1.409 . S
C619 H611 0.930 . S
C619 C620 1.355 . S
C619 C621 1.415 . S
C620 C619 1.355 . S
C620 C622 1.419 . S
C621 C616 1.425 . S
C621 C618 1.409 . S
C621 C619 1.415 . S
C622 H612 0.930 . S
C622 C620 1.419 . S
C622 C623 1.362 . S
C623 H613 0.930 . S
C623 C616 1.409 . S
C623 C622 1.362 . S
H624 C630 0.930 . S
H625 C633 0.930 . S
H626 C634 0.930 . S
H627 C635 0.930 . S
H628 C638 0.930 . S
H629 C639 0.930 . S
C630 H624 0.930 . S
C630 C631 1.355 1_554 S
C630 C632 1.415 . S
C631 C630 1.355 1_556 S
C631 C633 1.419 . S
C632 C630 1.415 . S
C632 C637 1.425 . S
C632 C639 1.409 . S
C633 H625 0.930 . S
C633 C631 1.419 . S
C633 C634 1.362 1_556 S
C634 H626 0.930 . S
C634 C633 1.362 1_554 S
C634 C637 1.409 . S
C635 H627 0.930 . S
C635 C636 1.355 . S
C635 C637 1.415 . S
C636 C635 1.355 . S
C636 C638 1.419 . S
C637 C632 1.425 . S
C637 C634 1.409 . S
C637 C635 1.415 . S
C638 H628 0.930 . S
C638 C636 1.419 . S
C638 C639 1.362 . S
C639 H629 0.930 . S
C639 C632 1.409 . S
C639 C638 1.362 . S
H640 C646 0.930 . S
H641 C649 0.930 . S
H642 C650 0.930 . S
H643 C651 0.930 . S
H644 C654 0.930 . S
H645 C655 0.930 . S
C646 H640 0.930 . S
C646 C647 1.355 . S
C646 C648 1.415 . S
C647 C646 1.355 . S
C647 C649 1.419 . S
C648 C646 1.415 . S
C648 C653 1.425 . S
C648 C655 1.409 . S
C649 H641 0.930 . S
C649 C647 1.419 . S
C649 C650 1.362 . S
C650 H642 0.930 . S
C650 C649 1.362 . S
C650 C653 1.409 . S
C651 H643 0.930 . S
C651 C652 1.355 . S
C651 C653 1.415 . S
C652 C651 1.355 . S
C652 C654 1.419 . S
C653 C648 1.425 . S
C653 C650 1.409 . S
C653 C651 1.415 . S
C654 H644 0.930 . S
C654 C652 1.419 . S
C654 C655 1.362 . S
C655 H645 0.930 . S
C655 C648 1.409 . S
C655 C654 1.362 . S
H656 C662 0.930 1_556 S
H657 C665 0.930 . S
H658 C666 0.930 . S
H659 C667 0.930 1_554 S
H660 C670 0.930 . S
H661 C671 0.930 . S
C662 H656 0.930 1_554 S
C662 C663 1.355 . S
C662 C664 1.415 1_554 S
C663 C662 1.355 . S
C663 C665 1.419 . S
C664 C662 1.415 1_556 S
C664 C669 1.425 1_556 S
C664 C671 1.409 . S
C665 H657 0.930 . S
C665 C663 1.419 . S
C665 C666 1.362 . S
C666 H658 0.930 . S
C666 C665 1.362 . S
C666 C669 1.409 . S
C667 H659 0.930 1_556 S
C667 C668 1.355 . S
C667 C669 1.415 1_556 S
C668 C667 1.355 . S
C668 C670 1.419 . S
C669 C664 1.425 1_554 S
C669 C666 1.409 . S
C669 C667 1.415 1_554 S
C670 H660 0.930 . S
C670 C668 1.419 . S
C670 C671 1.362 . S
C671 H661 0.930 . S
C671 C664 1.409 . S
C671 C670 1.362 . S
H672 C678 0.930 . S
H673 C681 0.930 . S
H674 C682 0.930 . S
H675 C683 0.930 . S
H676 C686 0.930 . S
H677 C687 0.930 . S
C678 H672 0.930 . S
C678 C679 1.355 . S
C678 C680 1.415 . S
C679 C678 1.355 . S
C679 C681 1.419 . S
C680 C678 1.415 . S
C680 C685 1.425 . S
C680 C687 1.409 . S
C681 H673 0.930 . S
C681 C679 1.419 . S
C681 C682 1.362 . S
C682 H674 0.930 . S
C682 C681 1.362 . S
C682 C685 1.409 . S
C683 H675 0.930 . S
C683 C684 1.355 . S
C683 C685 1.415 . S
C684 C683 1.355 . S
C684 C686 1.419 . S
C685 C680 1.425 . S
C685 C682 1.409 . S
C685 C683 1.415 . S
C686 H676 0.930 . S
C686 C684 1.419 . S
C686 C687 1.362 . S
C687 H677 0.930 . S
C687 C680 1.409 . S
C687 C686 1.362 . S
H688 C694 0.930 . S
H689 C697 0.930 1_556 S
H690 C698 0.930 . S
H691 C699 0.930 . S
H692 C702 0.930 1_554 S
H693 C703 0.930 . S
C694 H688 0.930 . S
C694 C695 1.355 . S
C694 C696 1.415 1_565 S
C695 C694 1.355 . S
C695 C697 1.419 . S
C696 C694 1.415 1_545 S
C696 C701 1.425 1_544 S
C696 C703 1.409 . S
C697 H689 0.930 1_554 S
C697 C695 1.419 . S
C697 C698 1.362 1_554 S
C698 H690 0.930 . S
C698 C697 1.362 1_556 S
C698 C701 1.409 . S
C699 H691 0.930 . S
C699 C700 1.355 . S
C699 C701 1.415 1_545 S
C700 C699 1.355 . S
C700 C702 1.419 . S
C701 C696 1.425 1_566 S
C701 C698 1.409 . S
C701 C699 1.415 1_565 S
C702 H692 0.930 1_556 S
C702 C700 1.419 . S
C702 C703 1.362 1_556 S
C703 H693 0.930 . S
C703 C696 1.409 . S
C703 C702 1.362 1_554 S
H704 C710 0.930 . S
H705 C713 0.930 . S
H706 C714 0.930 1_565 S
H707 C715 0.930 . S
H708 C718 0.930 . S
H709 C719 0.930 1_545 S
C710 H704 0.930 . S
C710 C711 1.355 . S
C710 C712 1.415 . S
C711 C710 1.355 . S
C711 C713 1.419 1_455 S
C712 C710 1.415 . S
C712 C717 1.425 1_445 S
C712 C719 1.409 1_545 S
C713 H705 0.930 . S
C713 C711 1.419 1_655 S
C713 C714 1.362 . S
C714 H706 0.930 1_545 S
C714 C713 1.362 . S
C714 C717 1.409 1_545 S
C715 H707 0.930 . S
C715 C716 1.355 1_655 S
C715 C717 1.415 . S
C716 C715 1.355 1_455 S
C716 C718 1.419 . S
C717 C712 1.425 1_665 S
C717 C714 1.409 1_565 S
C717 C715 1.415 . S
C718 H708 0.930 . S
C718 C716 1.419 . S
C718 C719 1.362 . S
C719 H709 0.930 1_565 S
C719 C712 1.409 1_565 S
C719 C718 1.362 . S
C279 C22 1.280 . S
C284 C124 1.366 . S
C295 C90 1.330 . S
C300 C49 1.311 . S
C311 C56 1.950 . S
C316 C83 1.963 . S
C327 C15 2.001 . S
C332 C117 1.935 . S
C343 C260 1.277 . S
C348 C158 1.374 . S
C359 C226 1.326 . S
C364 C185 1.340 . S
C375 C219 1.951 . S
C380 C192 1.963 . S
C391 C253 1.997 . S
C396 C151 1.933 . S
C407 C266 1.063 . S
C412 C6 1.067 . S
C423 C232 1.062 . S
C428 C62 1.042 . S
C439 C74 1.039 . S
C444 C176 1.039 . S
C455 C164 1.044 . S
C460 C108 1.068 . S
C471 C142 1.044 . S
C476 C130 1.022 . S
C487 C96 1.053 . S
C492 C198 1.070 . S
C503 C40 1.022 . S
C508 C210 1.062 . S
C519 C28 1.041 . S
C524 C244 1.083 . S
C535 C3 1.555 . S
C540 C187 1.588 . S
C551 C35 1.499 . S
C556 C153 1.602 . S
C567 C255 1.610 . S
C572 C71 1.488 . S
C583 C105 1.560 . S
C588 C221 1.589 . S
C599 C139 1.478 . S
C604 C51 1.625 . S
C615 C171 1.489 . S
C620 C17 1.608 . S
C631 C207 1.568 . S
C636 C119 1.604 . S
C647 C241 1.553 . S
C652 C85 1.588 . S
C663 C1 1.984 . S
C668 C69 1.969 . S
C679 C37 1.961 . S
C684 C103 1.988 . S
C695 C137 1.942 . S
C700 C205 1.937 . S
C711 C173 1.984 . S
C716 C239 1.933 . S
