# Generated by pormake.
# Topology whw, (6)-cn, num edge types: 1
# Building blocks:
#     Node 0, Type 0, BuildingBlock: INOVEN_clean_sbu_0, # of connection points: 6
#     Node 1, Type 0, BuildingBlock: INOVEN_clean_sbu_0, # of connection points: 6
#     Node 2, Type 0, BuildingBlock: INOVEN_clean_sbu_0, # of connection points: 6
#     Node 3, Type 0, BuildingBlock: INOVEN_clean_sbu_0, # of connection points: 6
#     Node 4, Type 0, BuildingBlock: INOVEN_clean_sbu_0, # of connection points: 6
#     Node 5, Type 0, BuildingBlock: INOVEN_clean_sbu_0, # of connection points: 6
#     Node 6, Type 0, BuildingBlock: INOVEN_clean_sbu_0, # of connection points: 6
#     Node 7, Type 0, BuildingBlock: INOVEN_clean_sbu_0, # of connection points: 6
#     Node 8, Type 0, BuildingBlock: INOVEN_clean_sbu_0, # of connection points: 6
#     Node 9, Type 0, BuildingBlock: INOVEN_clean_sbu_0, # of connection points: 6
#     Node 10, Type 0, BuildingBlock: INOVEN_clean_sbu_0, # of connection points: 6
#     Node 11, Type 0, BuildingBlock: INOVEN_clean_sbu_0, # of connection points: 6
#     Node 12, Type 0, BuildingBlock: INOVEN_clean_sbu_0, # of connection points: 6
#     Node 13, Type 0, BuildingBlock: INOVEN_clean_sbu_0, # of connection points: 6
#     Node 14, Type 0, BuildingBlock: INOVEN_clean_sbu_0, # of connection points: 6
#     Node 15, Type 0, BuildingBlock: INOVEN_clean_sbu_0, # of connection points: 6
#     Edge 16, Type (0, 0), BuildingBlock: CIFDUS_clean_linker_0, # of connection points: 2
#     Edge 17, Type (0, 0), BuildingBlock: CIFDUS_clean_linker_0, # of connection points: 2
#     Edge 18, Type (0, 0), BuildingBlock: CIFDUS_clean_linker_0, # of connection points: 2
#     Edge 19, Type (0, 0), BuildingBlock: CIFDUS_clean_linker_0, # of connection points: 2
#     Edge 20, Type (0, 0), BuildingBlock: CIFDUS_clean_linker_0, # of connection points: 2
#     Edge 21, Type (0, 0), BuildingBlock: CIFDUS_clean_linker_0, # of connection points: 2
#     Edge 22, Type (0, 0), BuildingBlock: CIFDUS_clean_linker_0, # of connection points: 2
#     Edge 23, Type (0, 0), BuildingBlock: CIFDUS_clean_linker_0, # of connection points: 2
#     Edge 24, Type (0, 0), BuildingBlock: CIFDUS_clean_linker_0, # of connection points: 2
#     Edge 25, Type (0, 0), BuildingBlock: CIFDUS_clean_linker_0, # of connection points: 2
#     Edge 26, Type (0, 0), BuildingBlock: CIFDUS_clean_linker_0, # of connection points: 2
#     Edge 27, Type (0, 0), BuildingBlock: CIFDUS_clean_linker_0, # of connection points: 2
#     Edge 28, Type (0, 0), BuildingBlock: CIFDUS_clean_linker_0, # of connection points: 2
#     Edge 29, Type (0, 0), BuildingBlock: CIFDUS_clean_linker_0, # of connection points: 2
#     Edge 30, Type (0, 0), BuildingBlock: CIFDUS_clean_linker_0, # of connection points: 2
#     Edge 31, Type (0, 0), BuildingBlock: CIFDUS_clean_linker_0, # of connection points: 2
#     Edge 32, Type (0, 0), BuildingBlock: CIFDUS_clean_linker_0, # of connection points: 2
#     Edge 33, Type (0, 0), BuildingBlock: CIFDUS_clean_linker_0, # of connection points: 2
#     Edge 34, Type (0, 0), BuildingBlock: CIFDUS_clean_linker_0, # of connection points: 2
#     Edge 35, Type (0, 0), BuildingBlock: CIFDUS_clean_linker_0, # of connection points: 2
#     Edge 36, Type (0, 0), BuildingBlock: CIFDUS_clean_linker_0, # of connection points: 2
#     Edge 37, Type (0, 0), BuildingBlock: CIFDUS_clean_linker_0, # of connection points: 2
#     Edge 38, Type (0, 0), BuildingBlock: CIFDUS_clean_linker_0, # of connection points: 2
#     Edge 39, Type (0, 0), BuildingBlock: CIFDUS_clean_linker_0, # of connection points: 2
#     Edge 40, Type (0, 0), BuildingBlock: CIFDUS_clean_linker_0, # of connection points: 2
#     Edge 41, Type (0, 0), BuildingBlock: CIFDUS_clean_linker_0, # of connection points: 2
#     Edge 42, Type (0, 0), BuildingBlock: CIFDUS_clean_linker_0, # of connection points: 2
#     Edge 43, Type (0, 0), BuildingBlock: CIFDUS_clean_linker_0, # of connection points: 2
#     Edge 44, Type (0, 0), BuildingBlock: CIFDUS_clean_linker_0, # of connection points: 2
#     Edge 45, Type (0, 0), BuildingBlock: CIFDUS_clean_linker_0, # of connection points: 2
#     Edge 46, Type (0, 0), BuildingBlock: CIFDUS_clean_linker_0, # of connection points: 2
#     Edge 47, Type (0, 0), BuildingBlock: CIFDUS_clean_linker_0, # of connection points: 2
#     Edge 48, Type (0, 0), BuildingBlock: CIFDUS_clean_linker_0, # of connection points: 2
#     Edge 49, Type (0, 0), BuildingBlock: CIFDUS_clean_linker_0, # of connection points: 2
#     Edge 50, Type (0, 0), BuildingBlock: CIFDUS_clean_linker_0, # of connection points: 2
#     Edge 51, Type (0, 0), BuildingBlock: CIFDUS_clean_linker_0, # of connection points: 2
#     Edge 52, Type (0, 0), BuildingBlock: CIFDUS_clean_linker_0, # of connection points: 2
#     Edge 53, Type (0, 0), BuildingBlock: CIFDUS_clean_linker_0, # of connection points: 2
#     Edge 54, Type (0, 0), BuildingBlock: CIFDUS_clean_linker_0, # of connection points: 2
#     Edge 55, Type (0, 0), BuildingBlock: CIFDUS_clean_linker_0, # of connection points: 2
#     Edge 56, Type (0, 0), BuildingBlock: CIFDUS_clean_linker_0, # of connection points: 2
#     Edge 57, Type (0, 0), BuildingBlock: CIFDUS_clean_linker_0, # of connection points: 2
#     Edge 58, Type (0, 0), BuildingBlock: CIFDUS_clean_linker_0, # of connection points: 2
#     Edge 59, Type (0, 0), BuildingBlock: CIFDUS_clean_linker_0, # of connection points: 2
#     Edge 60, Type (0, 0), BuildingBlock: CIFDUS_clean_linker_0, # of connection points: 2
#     Edge 61, Type (0, 0), BuildingBlock: CIFDUS_clean_linker_0, # of connection points: 2
#     Edge 62, Type (0, 0), BuildingBlock: CIFDUS_clean_linker_0, # of connection points: 2
#     Edge 63, Type (0, 0), BuildingBlock: CIFDUS_clean_linker_0, # of connection points: 2
# Relax obj value: 0.450
# Max RMSD: 0.246
# Mean RMSD: 0.219
data_MOF--net-whw--node1-INOVEN_clean_sbu_0--edge1-CIFDUS_clean_linker_0
_symmetry_space_group_name_H-M    P1
_symmetry_Int_Tables_number       1
_symmetry_cell_setting            triclinic
loop_
_symmetry_equiv_pos_as_xyz
'x, y, z'
_cell_length_a     40.958701
_cell_length_b     40.666373
_cell_length_c     30.128093
_cell_angle_alpha  90.522538
_cell_angle_beta   75.614053
_cell_angle_gamma 100.95623
loop_
_atom_site_label
_atom_site_type_symbol
_atom_site_fract_x
_atom_site_fract_y
_atom_site_fract_z
_atom_type_partial_charge
Gd0 Gd 0.01774 0.07731 0.23843 0.0
Gd1 Gd -0.01391 0.09171 0.15098 0.0
C2 C 0.93349 0.06266 0.24558 0.0
C3 C 0.0335 0.09081 0.31685 0.0
C4 C 0.04188 0.10098 0.36227 0.0
C5 C 0.05688 0.08098 0.38634 0.0
C6 C 0.03604 0.13189 0.38143 0.0
C7 C 0.05971 0.12236 0.4472 0.0
C8 C 0.04465 0.14229 0.42285 0.0
C9 C 0.06567 0.09144 0.42767 0.0
C10 C 0.0099 0.02718 0.17952 0.0
C11 C 0.06874 0.09468 0.14158 0.0
C12 C 0.97328 0.10704 0.07358 0.0
C13 C 0.96566 0.11825 1.02975 0.0
C14 C 0.96211 0.15157 1.02274 0.0
C15 C 0.96198 0.09617 0.99427 0.0
C16 C 0.95065 0.14021 0.94653 0.0
C17 C 0.95501 0.10694 0.95351 0.0
C18 C 0.95458 0.16225 0.98235 0.0
C19 C -0.01204 0.13518 0.21703 0.0
O20 O 0.9598 0.06596 0.26514 0.0
O21 O 0.93677 0.0678 0.20092 0.0
O22 O 0.03453 0.06138 0.29842 0.0
O23 O 0.02344 0.11168 0.29276 0.0
O24 O 0.03225 0.02977 0.20457 0.0
O25 O -0.00862 0.04877 0.19068 0.0
O26 O 0.04209 0.08826 0.12284 0.0
O27 O 0.06598 0.09777 0.18595 0.0
O28 O -0.01165 0.12875 0.09821 0.0
O29 O 0.96552 0.07603 0.09081 0.0
O30 O 0.96402 0.13052 0.19518 0.0
O31 O 0.01136 0.1196 0.1999 0.0
H32 H 0.06227 0.05725 0.37294 0.0
H33 H 0.02463 0.1483 0.36435 0.0
H34 H 0.03892 0.16594 0.43604 0.0
H35 H 0.07776 0.0752 0.44387 0.0
H36 H 0.96465 0.16952 1.04904 0.0
H37 H 0.96485 0.07045 0.99774 0.0
H38 H 0.95343 0.08883 0.92728 0.0
H39 H 0.9512 0.18784 0.97993 0.0
Gd40 Gd 0.12046 0.75756 0.48685 0.0
Gd41 Gd 0.11086 0.68581 0.46171 0.0
C42 C 0.10668 0.69791 0.56843 0.0
C43 C 0.1252 0.81701 0.51882 0.0
C44 C 0.13005 0.83389 0.56054 0.0
C45 C 0.14714 0.86742 0.55688 0.0
C46 C 0.11903 0.81688 0.60348 0.0
C47 C 0.1397 0.86787 0.63944 0.0
C48 C 0.12372 0.83378 0.64268 0.0
C49 C 0.15196 0.88431 0.59598 0.0
C50 C 0.17535 0.74209 0.42612 0.0
C51 C 0.10014 0.74212 0.39073 0.0
C52 C 0.12046 0.62953 0.42547 0.0
C53 C 0.13736 0.61756 0.38096 0.0
C54 C 0.11709 0.59831 0.3553 0.0
C55 C 0.17317 0.6258 0.36298 0.0
C56 C 0.16746 0.5994 0.29195 0.0
C57 C 0.18809 0.61699 0.3187 0.0
C58 C 0.13193 0.58938 0.31124 0.0
C59 C 0.05122 0.70521 0.50462 0.0
O60 O 0.11258 0.73047 0.55698 0.0
O61 O 0.10684 0.67528 0.53671 0.0
O62 O 0.15153 0.8051 0.4957 0.0
O63 O 0.09572 0.79681 0.52117 0.0
O64 O 0.16416 0.76956 0.42501 0.0
O65 O 0.15764 0.72369 0.46116 0.0
O66 O 0.10914 0.71258 0.39504 0.0
O67 O 0.09797 0.76276 0.42549 0.0
O68 O 0.09312 0.64208 0.42643 0.0
O69 O 0.14042 0.64647 0.44913 0.0
O70 O 0.05725 0.6753 0.50914 0.0
O71 O 0.07692 0.72177 0.47678 0.0
H72 H 0.15636 0.88069 0.52377 0.0
H73 H 0.10623 0.79081 0.60683 0.0
H74 H 0.11343 0.82053 0.67571 0.0
H75 H 0.16454 0.91045 0.59237 0.0
H76 H 0.0895 0.59123 0.36868 0.0
H77 H 0.18959 0.63977 0.38253 0.0
H78 H 0.21556 0.62479 0.30489 0.0
H79 H 0.11515 0.5763 0.29138 0.0
Gd80 Gd 0.45668 0.85584 0.69158 0.0
Gd81 Gd 0.52957 0.87156 0.69866 0.0
C82 C 0.51588 0.83907 0.60636 0.0
C83 C 0.39592 0.86408 0.68974 0.0
C84 C 0.38199 0.88078 0.65794 0.0
C85 C 0.34641 0.87623 0.66366 0.0
C86 C 0.40431 0.89948 0.61988 0.0
C87 C 0.35564 0.90594 0.59057 0.0
C88 C 0.39125 0.91221 0.58664 0.0
C89 C 0.33326 0.8887 0.63009 0.0
C90 C 0.48166 0.80163 0.70531 0.0
C91 C 0.46657 0.85374 0.79652 0.0
C92 C 0.58988 0.88532 0.71283 0.0
C93 C 0.60687 0.88025 0.74845 0.0
C94 C 0.63556 0.90395 0.75243 0.0
C95 C 0.59301 0.8536 0.78077 0.0
C96 C 0.63462 0.87611 0.82352 0.0
C97 C 0.60691 0.85146 0.81802 0.0
C98 C 0.64938 0.90196 0.78994 0.0
C99 C 0.51159 0.91836 0.65008 0.0
O100 O 0.48703 0.85143 0.61748 0.0
O101 O 0.53488 0.83931 0.63623 0.0
O102 O 0.40839 0.83772 0.67419 0.0
O103 O 0.41576 0.8839 0.71077 0.0
O104 O 0.45664 0.80037 0.68552 0.0
O105 O 0.48817 0.82977 0.72103 0.0
O106 O 0.50051 0.86223 0.77703 0.0
O107 O 0.44478 0.85062 0.76983 0.0
O108 O 0.56786 0.90553 0.7231 0.0
O109 O 0.57896 0.85833 0.6923 0.0
O110 O 0.54007 0.90782 0.63841 0.0
O111 O 0.4936 0.90379 0.68744 0.0
H112 H 0.3289 0.86183 0.69302 0.0
H113 H 0.43188 0.90277 0.61477 0.0
H114 H 0.40923 0.92476 0.5562 0.0
H115 H 0.30574 0.88347 0.63387 0.0
H116 H 0.64634 0.9247 0.72756 0.0
H117 H 0.57059 0.83532 0.77827 0.0
H118 H 0.59458 0.83168 0.84396 0.0
H119 H 0.67067 0.92122 0.79365 0.0
Gd120 Gd 0.39799 0.21863 0.87441 0.0
Gd121 Gd 0.40301 0.28973 0.84264 0.0
C122 C 0.40276 0.27767 0.94998 0.0
C123 C 0.39235 0.15881 0.90738 0.0
C124 C 0.39276 0.14164 0.94962 0.0
C125 C 0.37396 0.1501 0.99235 0.0
C126 C 0.41033 0.11499 0.94695 0.0
C127 C 0.38918 0.10454 1.02911 0.0
C128 C 0.40878 0.09666 0.98658 0.0
C129 C 0.37201 0.13152 1.03175 0.0
C130 C 0.34193 0.23239 0.85115 0.0
C131 C 0.42506 0.23304 0.76655 0.0
C132 C 0.38446 0.34086 0.81344 0.0
C133 C 0.36399 0.34539 0.78128 0.0
C134 C 0.37094 0.37569 0.75626 0.0
C135 C 0.33972 0.31863 0.77225 0.0
C136 C 0.33439 0.35023 0.70734 0.0
C137 C 0.32422 0.32132 0.73651 0.0
C138 C 0.35642 0.37813 0.71951 0.0
C139 C 0.46153 0.28154 0.86113 0.0
O140 O 0.40211 0.24557 0.94041 0.0
O141 O 0.40051 0.29955 0.91871 0.0
O142 O 0.36634 0.17357 0.9096 0.0
O143 O 0.42148 0.17616 0.88334 0.0
O144 O 0.35546 0.20672 0.8375 0.0
O145 O 0.35941 0.25014 0.87469 0.0
O146 O 0.41265 0.26133 0.77414 0.0
O147 O 0.42645 0.2143 0.80131 0.0
O148 O 0.41415 0.33248 0.79518 0.0
O149 O 0.36753 0.32366 0.85137 0.0
O150 O 0.45262 0.31051 0.86008 0.0
O151 O 0.44151 0.25964 0.84507 0.0
H152 H 0.36044 0.17079 0.9953 0.0
H153 H 0.42491 0.10817 0.91416 0.0
H154 H 0.42253 0.07616 0.98403 0.0
H155 H 0.3575 0.13857 0.06445 0.0
H156 H 0.38952 0.39667 0.76296 0.0
H157 H 0.33446 0.29492 0.7908 0.0
H158 H 0.30669 0.29964 0.72936 0.0
H159 H 0.36541 0.40095 0.69828 0.0
Gd160 Gd 0.00594 0.86504 0.97332 0.0
Gd161 Gd 0.97483 0.88641 0.88952 0.0
C162 C 0.92357 0.86378 0.98579 0.0
C163 C 0.02016 0.84795 1.04883 0.0
C164 C 0.02806 0.83709 0.0925 0.0
C165 C 0.02085 0.80297 0.10732 0.0
C166 C 0.04321 0.86054 0.11981 0.0
C167 C 0.04363 0.81626 0.17529 0.0
C168 C 0.05072 0.85037 0.16034 0.0
C169 C 0.02862 0.79275 0.14773 0.0
C170 C 0.00391 0.82517 0.90227 0.0
C171 C 0.05842 0.89618 0.88052 0.0
C172 C 0.95445 0.88163 0.81312 0.0
C173 C 0.95518 0.86628 0.76688 0.0
C174 C 0.95513 0.8862 0.72883 0.0
C175 C 0.95054 0.8313 0.7617 0.0
C176 C 0.94442 0.83664 0.68253 0.0
C177 C 0.94534 0.81683 0.72049 0.0
C178 C 0.94994 0.87175 0.68754 0.0
C179 C -0.01842 0.93231 0.95441 0.0
O180 O 0.95007 0.86725 1.00461 0.0
O181 O 0.92646 0.86547 0.94134 0.0
O182 O 0.00281 0.827 1.02569 0.0
O183 O 0.02955 0.87874 1.03089 0.0
O184 O 0.02733 0.82743 0.92488 0.0
O185 O -0.01878 0.84101 0.92094 0.0
O186 O 0.03217 0.89182 0.86088 0.0
O187 O 0.05503 0.89114 0.92513 0.0
O188 O -0.0206 0.90548 0.81916 0.0
O189 O 0.94062 0.86192 0.84969 0.0
O190 O 0.96028 0.93218 0.92834 0.0
O191 O 0.00021 0.91116 0.94073 0.0
H192 H 0.00916 0.78397 0.08757 0.0
H193 H 0.0493 0.88696 0.10988 0.0
H194 H 0.06261 0.86946 0.17976 0.0
H195 H 0.02227 0.76635 0.15776 0.0
H196 H 0.95809 0.91313 0.73144 0.0
H197 H 0.94981 0.81484 0.79013 0.0
H198 H 0.94083 0.78979 0.7192 0.0
H199 H 0.95013 0.88832 0.65954 0.0
Gd200 Gd 0.3979 0.78195 0.17234 0.0
Gd201 Gd 0.38013 0.71384 0.13904 0.0
C202 C 0.40207 0.71881 0.23633 0.0
C203 C 0.39538 0.83782 0.21331 0.0
C204 C 0.37818 0.84992 0.25743 0.0
C205 C 0.39785 0.87142 0.28161 0.0
C206 C 0.3426 0.84011 0.27601 0.0
C207 C 0.34708 0.87119 0.34416 0.0
C208 C 0.32716 0.8506 0.31907 0.0
C209 C 0.3825 0.88193 0.32458 0.0
C210 C 0.45438 0.7581 0.12591 0.0
C211 C 0.40443 0.77878 1.0636 0.0
C212 C 0.36465 0.65563 0.10623 0.0
C213 C 0.36229 0.63629 0.06561 0.0
C214 C 0.34694 0.60225 0.07189 0.0
C215 C 0.37382 0.65113 1.02133 0.0
C216 C 0.35636 0.59716 0.98956 0.0
C217 C 0.3709 0.63165 0.98348 0.0
C218 C 0.34401 0.5828 1.03421 0.0
C219 C 0.32912 0.73176 0.2047 0.0
O220 O 0.39702 0.75026 0.23608 0.0
O221 O 0.40098 0.70066 0.19935 0.0
O222 O 0.41861 0.81992 0.21434 0.0
O223 O 0.37587 0.82626 0.18597 0.0
O224 O 0.45126 0.78929 0.12486 0.0
O225 O 0.42705 0.74211 0.1513 0.0
O226 O 0.39701 0.74552 0.07026 0.0
O227 O 0.40293 0.79828 0.0991 0.0
O228 O 0.34313 0.67604 0.11783 0.0
O229 O 0.39528 0.66779 0.11201 0.0
O230 O 0.33757 0.7028 0.20259 0.0
O231 O 0.34775 0.75071 0.17083 0.0
H232 H 0.42531 0.8794 0.26774 0.0
H233 H 0.32683 0.82395 0.25767 0.0
H234 H 0.29982 0.84202 0.33312 0.0
H235 H 0.39877 0.89721 0.34335 0.0
H236 H 0.33746 0.59061 0.10606 0.0
H237 H 0.38544 0.67751 1.01607 0.0
H238 H 0.3812 0.64329 0.94941 0.0
H239 H 0.33259 0.5564 1.03993 0.0
Gd240 Gd 0.47904 0.10461 0.4306 0.0
Gd241 Gd 0.54721 0.13684 0.43901 0.0
C242 C 0.5428 0.12387 0.33391 0.0
C243 C 0.42502 0.07734 0.40562 0.0
C244 C 0.41914 0.0762 0.35978 0.0
C245 C 0.399 0.04777 0.34667 0.0
C246 C 0.43826 0.10126 0.32683 0.0
C247 C 0.41876 0.0687 0.26748 0.0
C248 C 0.43814 0.09749 0.28104 0.0
C249 C 0.39854 0.04416 0.30065 0.0
C250 C 0.50274 0.07008 0.48834 0.0
C251 C 0.48294 0.14785 0.52033 0.0
C252 C 0.6104 0.14438 0.44372 0.0
C253 C 0.62897 0.13193 0.47409 0.0
C254 C 0.64614 0.15474 0.49975 0.0
C255 C 0.62841 0.0975 0.47961 0.0
C256 C 0.65786 0.1087 0.54051 0.0
C257 C 0.64271 0.08599 0.51257 0.0
C258 C 0.66036 0.14327 0.53272 0.0
C259 C 0.51075 0.17958 0.41654 0.0
O260 O 0.511 0.10715 0.35366 0.0
O261 O 0.56189 0.1389 0.36062 0.0
O262 O 0.44851 0.06071 0.41012 0.0
O263 O 0.42831 0.10705 0.42342 0.0
O264 O 0.47193 0.07561 0.49615 0.0
O265 O 0.52037 0.08345 0.44982 0.0
O266 O 0.5151 0.14278 0.5116 0.0
O267 O 0.46442 0.13891 0.48998 0.0
O268 O 0.59028 0.16506 0.46159 0.0
O269 O 0.59672 0.12237 0.41835 0.0
O270 O 0.53371 0.18807 0.43973 0.0
O271 O 0.51178 0.15096 0.40241 0.0
H272 H 0.38461 0.02797 0.3717 0.0
H273 H 0.45422 0.12328 0.33623 0.0
H274 H 0.45332 0.11708 0.25615 0.0
H275 H 0.38323 0.0219 0.29077 0.0
H276 H 0.64723 0.18141 0.49573 0.0
H277 H 0.61595 0.0793 0.45964 0.0
H278 H 0.64071 0.05925 0.5174 0.0
H279 H 0.67137 0.16149 0.55404 0.0
Gd280 Gd 0.10617 0.18954 0.78482 0.0
Gd281 Gd 0.11382 0.26251 0.75772 0.0
C282 C 0.08788 0.24497 0.86506 0.0
C283 C 0.12233 0.13544 0.8089 0.0
C284 C 0.14196 0.12765 0.84044 0.0
C285 C 0.15552 0.09834 0.83614 0.0
C286 C 0.14703 0.1494 0.87532 0.0
C287 C 0.17135 0.10838 0.90852 0.0
C288 C 0.1615 0.13989 0.90913 0.0
C289 C 0.17062 0.08897 0.86965 0.0
C290 C 0.0488 0.20497 0.7699 0.0
C291 C 0.10758 0.2056 0.67875 0.0
C292 C 0.11731 0.3226 0.72758 0.0
C293 C 0.11121 0.33732 0.68732 0.0
C294 C 0.12318 0.37157 0.6763 0.0
C295 C 0.09571 0.3167 0.65791 0.0
C296 C 0.10594 0.36415 0.6049 0.0
C297 C 0.09293 0.33002 0.61707 0.0
C298 C 0.12062 0.38498 0.63511 0.0
C299 C 0.16847 0.24539 0.78098 0.0
O300 O 0.09853 0.21588 0.85512 0.0
O301 O 0.08732 0.26561 0.83182 0.0
O302 O 0.09281 0.14416 0.82766 0.0
O303 O 0.14055 0.15448 0.77326 0.0
O304 O 0.05623 0.17524 0.7638 0.0
O305 O 0.0701 0.2228 0.7881 0.0
O306 O 0.10765 0.23723 0.69076 0.0
O307 O 0.10972 0.18266 0.70847 0.0
O308 O 0.14354 0.30747 0.71922 0.0
O309 O 0.09009 0.30548 0.75619 0.0
O310 O 0.15704 0.27242 0.79335 0.0
O311 O 0.15089 0.22908 0.75628 0.0
H312 H 0.15296 0.08195 0.80815 0.0
H313 H 0.13784 0.17281 0.87805 0.0
H314 H 0.16155 0.15601 0.93787 0.0
H315 H 0.17912 0.06523 0.86693 0.0
H316 H 0.13537 0.38766 0.69882 0.0
H317 H 0.08684 0.29011 0.66579 0.0
H318 H 0.08212 0.31321 0.59402 0.0
H319 H 0.13078 0.41135 0.62639 0.0
Gd320 Gd 0.89974 0.28489 0.65727 0.0
Gd321 Gd 0.88087 0.2144 0.63342 0.0
C322 C 0.90747 0.22537 0.72614 0.0
C323 C 0.89934 0.34268 0.69357 0.0
C324 C 0.88598 0.35681 0.73809 0.0
C325 C 0.90919 0.37496 0.76078 0.0
C326 C 0.85053 0.35232 0.75848 0.0
C327 C 0.86201 0.38094 0.82567 0.0
C328 C 0.83865 0.36413 0.80203 0.0
C329 C 0.89736 0.38689 0.80417 0.0
C330 C 0.95432 0.26046 0.60697 0.0
C331 C 0.89889 0.27512 0.55176 0.0
C332 C 0.86538 0.15511 0.60361 0.0
C333 C 0.86162 0.13725 0.56227 0.0
C334 C 0.84358 0.10404 0.56705 0.0
C335 C 0.87472 0.15291 0.51858 0.0
C336 C 0.85381 0.10118 0.48431 0.0
C337 C 0.87088 0.13497 0.47981 0.0
C338 C 0.83971 0.08609 0.5284 0.0
C339 C 0.83183 0.23442 0.6996 0.0
O340 O 0.90355 0.25697 0.72174 0.0
O341 O 0.90366 0.20416 0.69299 0.0
O342 O 0.9241 0.32605 0.69135 0.0
O343 O 0.87676 0.32864 0.6716 0.0
O344 O 0.95035 0.29123 0.60379 0.0
O345 O 0.9293 0.24521 0.63737 0.0
O346 O 0.89173 0.24239 0.56284 0.0
O347 O 0.90034 0.29723 0.58392 0.0
O348 O 0.84295 0.17411 0.61884 0.0
O349 O 0.89656 0.16869 0.60611 0.0
O350 O 0.84065 0.20566 0.69911 0.0
O351 O 0.84887 0.25202 0.6635 0.0
H352 H 0.93661 0.37911 0.74547 0.0
H353 H 0.83196 0.3392 0.74132 0.0
H354 H 0.81127 0.35942 0.81766 0.0
H355 H 0.91605 0.39932 0.82178 0.0
H356 H 0.83285 0.09182 0.60074 0.0
H357 H 0.88836 0.17872 0.51444 0.0
H358 H 0.88254 0.14712 0.44626 0.0
H359 H 0.82631 0.06022 0.53292 0.0
Gd360 Gd 0.62259 0.70121 0.28943 0.0
Gd361 Gd 0.61197 0.76779 0.25994 0.0
C362 C 0.59636 0.75586 0.36735 0.0
C363 C 0.64925 0.65688 0.32089 0.0
C364 C 0.66763 0.65891 0.35714 0.0
C365 C 0.66259 0.63133 0.38706 0.0
C366 C 0.68584 0.68993 0.36644 0.0
C367 C 0.68703 0.66783 0.44014 0.0
C368 C 0.69648 0.69414 0.40687 0.0
C369 C 0.67215 0.63572 0.4284 0.0
C370 C 0.55855 0.70137 0.2825 0.0
C371 C 0.61722 0.70806 0.18422 0.0
C372 C 0.59971 0.82014 0.22484 0.0
C373 C 0.60147 0.82881 0.17723 0.0
C374 C 0.62406 0.85791 0.15625 0.0
C375 C 0.58594 0.80545 0.15047 0.0
C376 C 0.61886 0.83816 0.0817 0.0
C377 C 0.5943 0.81027 0.10311 0.0
C378 C 0.6329 0.86249 0.10871 0.0
C379 C 0.67479 0.76768 0.27422 0.0
O380 O 0.61391 0.73095 0.357 0.0
O381 O 0.58793 0.77121 0.33466 0.0
O382 O 0.61663 0.65833 0.33497 0.0
O383 O 0.66507 0.67573 0.28397 0.0
O384 O 0.57329 0.67567 0.27216 0.0
O385 O 0.57777 0.72379 0.29809 0.0
O386 O 0.61026 0.73827 0.19462 0.0
O387 O 0.62593 0.68988 0.21433 0.0
O388 O 0.62947 0.81863 0.23231 0.0
O389 O 0.57538 0.79522 0.2448 0.0
O390 O 0.65713 0.79074 0.28749 0.0
O391 O 0.65847 0.74564 0.25374 0.0
H392 H 0.64851 0.60718 0.38047 0.0
H393 H 0.68908 0.71169 0.3446 0.0
H394 H 0.7085 0.71898 0.41427 0.0
H395 H 0.66423 0.61471 0.45301 0.0
H396 H 0.63655 0.87601 0.17639 0.0
H397 H 0.56879 0.78257 0.1657 0.0
H398 H 0.58228 0.79164 0.0832 0.0
H399 H 0.6519 0.88423 0.0931 0.0
Gd400 Gd 0.63368 0.26718 0.99296 0.0
Gd401 Gd 0.61714 0.19788 0.9632 0.0
C402 C 0.61523 0.20458 0.07096 0.0
C403 C 0.64708 0.32556 1.02631 0.0
C404 C 0.65217 0.34206 0.0681 0.0
C405 C 0.6724 0.37432 0.06403 0.0
C406 C 0.63809 0.32608 0.11148 0.0
C407 C 0.66227 0.3759 0.14685 0.0
C408 C 0.64303 0.34293 0.15063 0.0
C409 C 0.67745 0.39114 0.10306 0.0
C410 C 0.68444 0.24941 0.9268 0.0
C411 C 0.60927 0.26045 0.8988 0.0
C412 C 0.62354 0.1429 0.92154 0.0
C413 C 0.64273 0.13513 0.87623 0.0
C414 C 0.64458 0.10186 0.86553 0.0
C415 C 0.65943 0.16102 0.84345 0.0
C416 C 0.67669 0.1201 0.78759 0.0
C417 C 0.67633 0.1536 0.7995 0.0
C418 C 0.66149 0.09436 0.82146 0.0
C419 C 0.56069 0.2191 1.01299 0.0
O420 O 0.62322 0.23744 1.06139 0.0
O421 O 0.61348 0.18334 1.03762 0.0
O422 O 0.6706 0.30874 1.00679 0.0
O423 O 0.61587 0.31044 1.02593 0.0
O424 O 0.67536 0.27811 0.9283 0.0
O425 O 0.66672 0.23098 0.96166 0.0
O426 O 0.61401 0.22879 0.89983 0.0
O427 O 0.61112 0.27917 0.93484 0.0
O428 O 0.59811 0.15834 0.92221 0.0
O429 O 0.64264 0.15573 0.94874 0.0
O430 O 0.56523 0.18831 1.01387 0.0
O431 O 0.58618 0.23603 0.98471 0.0
H432 H 0.68392 0.38673 1.03059 0.0
H433 H 0.62277 0.30095 0.1151 0.0
H434 H 0.63051 0.33069 0.18392 0.0
H435 H 0.69255 0.41637 0.09906 0.0
H436 H 0.63223 0.08168 0.89087 0.0
H437 H 0.6585 0.18691 0.85147 0.0
H438 H 0.68732 0.17403 0.77419 0.0
H439 H 0.6616 0.06836 0.81339 0.0
Gd440 Gd 0.89821 0.71796 0.36496 0.0
Gd441 Gd 0.89794 0.78909 0.33597 0.0
C442 C 0.89608 0.77572 0.44267 0.0
C443 C 0.89773 0.65983 0.39907 0.0
C444 C 0.90588 0.64758 0.43955 0.0
C445 C 0.90681 0.66824 0.47681 0.0
C446 C 0.91189 0.61493 0.44171 0.0
C447 C 0.91844 0.62333 0.51908 0.0
C448 C 0.91796 0.60273 0.48151 0.0
C449 C 0.91321 0.65629 0.51617 0.0
C450 C 0.84268 0.72693 0.33579 0.0
C451 C 0.92422 0.73539 0.25778 0.0
C452 C 0.87534 0.83903 0.31122 0.0
C453 C 0.85263 0.84254 0.28186 0.0
C454 C 0.8363 0.87006 0.28542 0.0
C455 C 0.84726 0.81837 0.24984 0.0
C456 C 0.8177 0.85424 0.21618 0.0
C457 C 0.82985 0.82404 0.21737 0.0
C458 C 0.81838 0.87561 0.25319 0.0
C459 C 0.95726 0.78296 0.35566 0.0
O460 O 0.90212 0.74546 0.43104 0.0
O461 O 0.88939 0.79565 0.41283 0.0
O462 O 0.87089 0.67416 0.40749 0.0
O463 O 0.92374 0.67619 0.36778 0.0
O464 O 0.85792 0.70187 0.32566 0.0
O465 O 0.85701 0.74575 0.36177 0.0
O466 O 0.90923 0.76209 0.26701 0.0
O467 O 0.92764 0.71668 0.29144 0.0
O468 O 0.9055 0.83235 0.29064 0.0
O469 O 0.86027 0.82079 0.34877 0.0
O470 O 0.94624 0.81106 0.35787 0.0
O471 O 0.93858 0.76168 0.3373 0.0
H472 H 0.90213 0.69344 0.47581 0.0
H473 H 0.91122 0.59874 0.41306 0.0
H474 H 0.9218 0.57718 0.48322 0.0
H475 H 0.91285 0.6725 0.54497 0.0
H476 H 0.83895 0.88816 0.31154 0.0
H477 H 0.85845 0.79614 0.24804 0.0
H478 H 0.8296 0.80625 0.1905 0.0
H479 H 0.80791 0.89824 0.25491 0.0
Gd480 Gd 0.51849 0.58597 0.75233 0.0
Gd481 Gd 0.48629 0.60614 0.66929 0.0
C482 C 0.43586 0.56045 0.75325 0.0
C483 C 0.52973 0.58693 0.83484 0.0
C484 C 0.54338 0.60776 0.8711 0.0
C485 C 0.5699 0.59924 0.88836 0.0
C486 C 0.52754 0.6336 0.89303 0.0
C487 C 0.56399 0.64137 0.94837 0.0
C488 C 0.5376 0.64999 0.93062 0.0
C489 C 0.58002 0.61567 0.926 0.0
C490 C 0.5219 0.54474 0.6801 0.0
C491 C 0.56782 0.62683 0.66696 0.0
C492 C 0.47367 0.62559 0.59359 0.0
C493 C 0.46707 0.63841 0.54991 0.0
C494 C 0.47753 0.67265 0.53603 0.0
C495 C 0.44975 0.61728 0.52206 0.0
C496 C 0.45228 0.6646 0.46924 0.0
C497 C 0.4425 0.63009 0.48257 0.0
C498 C 0.47045 0.68539 0.49666 0.0
C499 C 0.47653 0.63856 0.74805 0.0
O500 O 0.46162 0.56358 0.77376 0.0
O501 O 0.43944 0.57149 0.71053 0.0
O502 O 0.55099 0.57826 0.79831 0.0
O503 O 0.50147 0.59232 0.82576 0.0
O504 O 0.54219 0.54624 0.70774 0.0
O505 O 0.49908 0.56137 0.69588 0.0
O506 O 0.54428 0.61648 0.64391 0.0
O507 O 0.5616 0.62395 0.71189 0.0
O508 O 0.48585 0.64615 0.622 0.0
O509 O 0.46836 0.59376 0.60644 0.0
O510 O 0.45482 0.63415 0.72259 0.0
O511 O 0.50396 0.6298 0.72759 0.0
H512 H 0.58252 0.57923 0.87324 0.0
H513 H 0.50664 0.6408 0.88183 0.0
H514 H 0.52376 0.66895 0.94653 0.0
H515 H 0.60064 0.60812 0.93742 0.0
H516 H 0.49123 0.68991 0.55584 0.0
H517 H 0.44123 0.59079 0.5312 0.0
H518 H 0.42835 0.61293 0.46319 0.0
H519 H 0.47949 0.71185 0.48775 0.0
Gd520 Gd 0.95756 0.35462 0.18901 0.0
Gd521 Gd 0.03222 0.37094 0.19109 0.0
C522 C 0.01461 0.33453 0.10213 0.0
C523 C 0.896 0.3613 0.18885 0.0
C524 C 0.87471 0.36025 0.15593 0.0
C525 C 0.8703 0.33281 0.12798 0.0
C526 C 0.86007 0.38804 0.15067 0.0
C527 C 0.84005 0.36252 0.08665 0.0
C528 C 0.84297 0.38925 0.11615 0.0
C529 C 0.85299 0.33389 0.09377 0.0
C530 C -0.01572 0.30226 0.20268 0.0
C531 C 0.97165 0.35994 0.29145 0.0
C532 C 0.09057 0.38345 0.21054 0.0
C533 C 0.09873 0.37841 0.25426 0.0
C534 C 0.11517 0.40594 0.27408 0.0
C535 C 0.08383 0.34851 0.28049 0.0
C536 C 0.09719 0.37541 0.34759 0.0
C537 C 0.08328 0.34698 0.32672 0.0
C538 C 0.11432 0.40451 0.32056 0.0
C539 C 0.0128 0.416 0.1424 0.0
O540 O -0.01516 0.34532 0.11486 0.0
O541 O 0.03583 0.33743 0.1296 0.0
O542 O 0.90355 0.33304 0.1995 0.0
O543 O 0.92205 0.38646 0.18284 0.0
O544 O 0.95967 0.29977 0.18174 0.0
O545 O -0.00957 0.33051 0.21827 0.0
O546 O 0.00506 0.36734 0.26955 0.0
O547 O 0.94822 0.35492 0.26726 0.0
O548 O 0.07165 0.40623 0.21143 0.0
O549 O 0.08042 0.3562 0.18988 0.0
O550 O 0.04142 0.40562 0.12996 0.0
O551 O -0.00441 0.40241 0.18096 0.0
H552 H 0.88136 0.31106 0.13126 0.0
H553 H 0.86302 0.40937 0.17213 0.0
H554 H 0.83321 0.41157 0.11138 0.0
H555 H 0.85167 0.31316 0.07103 0.0
H556 H 0.12641 0.42933 0.25444 0.0
H557 H 0.07068 0.32695 0.26617 0.0
H558 H 0.0707 0.32395 0.34656 0.0
H559 H 0.12523 0.4268 0.33582 0.0
Gd560 Gd 0.52493 0.3885 0.47725 0.0
Gd561 Gd 0.49831 0.40576 0.38637 0.0
C562 C 0.44394 0.38984 0.48057 0.0
C563 C 0.53134 0.3751 0.55948 0.0
C564 C 0.54537 0.35969 0.59476 0.0
C565 C 0.55551 0.32833 0.58954 0.0
C566 C 0.54435 0.37459 0.63739 0.0
C567 C 0.56229 0.32695 0.66914 0.0
C568 C 0.55249 0.35864 0.67373 0.0
C569 C 0.56405 0.31246 0.62572 0.0
C570 C 0.52111 0.34403 0.41283 0.0
C571 C 0.58131 0.41421 0.38411 0.0
C572 C 0.48352 0.3936 0.30712 0.0
C573 C 0.47543 0.38404 0.26136 0.0
C574 C 0.4624 0.40524 0.23624 0.0
C575 C 0.47903 0.35232 0.24327 0.0
C576 C 0.45672 0.36323 0.17677 0.0
C577 C 0.47002 0.34221 0.20203 0.0
C578 C 0.45319 0.39507 0.19504 0.0
C579 C 0.50613 0.4552 0.4465 0.0
O580 O 0.46947 0.39528 0.50141 0.0
O581 O 0.44831 0.38708 0.43597 0.0
O582 O 0.51224 0.35515 0.53743 0.0
O583 O 0.54769 0.403 0.5357 0.0
O584 O 0.54351 0.34609 0.43704 0.0
O585 O 0.49984 0.36243 0.42722 0.0
O586 O 0.55623 0.41341 0.3628 0.0
O587 O 0.57632 0.40834 0.42897 0.0
O588 O 0.48397 0.42328 0.3252 0.0
O589 O 0.49211 0.37192 0.3317 0.0
O590 O 0.48527 0.45397 0.41948 0.0
O591 O 0.52357 0.43261 0.43655 0.0
H592 H 0.55631 0.3157 0.55759 0.0
H593 H 0.53602 0.39835 0.64329 0.0
H594 H 0.54991 0.37098 0.70601 0.0
H595 H 0.57199 0.28861 0.6193 0.0
H596 H 0.45874 0.42964 0.24882 0.0
H597 H 0.48885 0.33497 0.26118 0.0
H598 H 0.47395 0.31782 0.18979 0.0
H599 H 0.4426 0.41224 0.17804 0.0
Gd600 Gd -0.01993 0.6102 0.9327 0.0
Gd601 Gd 0.0551 0.62817 0.92947 0.0
C602 C 0.03732 0.61876 0.83109 0.0
C603 C 0.92036 0.59354 0.91706 0.0
C604 C 0.91092 0.59656 0.87342 0.0
C605 C 0.90857 0.56855 0.84592 0.0
C606 C 0.91151 0.62826 0.85473 0.0
C607 C 0.91548 0.60493 0.77965 0.0
C608 C 0.9139 0.63241 0.80814 0.0
C609 C 0.91114 0.57273 0.79928 0.0
C610 C 0.00231 0.56646 0.97969 0.0
C611 C -0.00205 0.64892 1.0188 0.0
C612 C 0.11488 0.62566 0.94113 0.0
C613 C 0.12787 0.61155 0.97615 0.0
C614 C 0.16329 0.61665 0.9721 0.0
C615 C 0.10495 0.59249 1.01345 0.0
C616 C 0.15277 0.58533 1.04423 0.0
C617 C 0.11729 0.57936 1.04716 0.0
C618 C 0.17571 0.6037 1.00603 0.0
C619 C 0.03261 0.67569 0.89156 0.0
O620 O 0.00462 0.61549 0.85451 0.0
O621 O 0.06183 0.62003 0.85306 0.0
O622 O 0.9406 0.57218 0.91703 0.0
O623 O 0.92979 0.62155 0.93638 0.0
O624 O 0.9736 0.57656 0.99355 0.0
O625 O 0.01846 0.57958 0.94035 0.0
O626 O 0.02887 0.64083 1.00322 0.0
O627 O 0.97491 0.64324 0.99407 0.0
O628 O 0.09965 0.65114 0.95309 0.0
O629 O 0.09831 0.6034 0.91882 0.0
O630 O 0.0646 0.67265 0.88021 0.0
O631 O 0.01637 0.65733 0.92621 0.0
H632 H 0.90767 0.54375 0.85961 0.0
H633 H 0.91244 0.65024 0.87525 0.0
H634 H 0.91597 0.65736 0.79407 0.0
H635 H 0.91201 0.55104 0.77821 0.0
H636 H 0.18125 0.63109 0.94312 0.0
H637 H 0.07749 0.58838 1.01692 0.0
H638 H 0.09891 0.56591 0.07661 0.0
H639 H 0.20313 0.60865 1.00298 0.0
H640 H 0.08837 0.0466 0.08685 0.0
H641 H 0.12448 0.14566 0.12811 0.0
H642 H 0.17346 0.15374 1.0604 0.0
H643 H 0.19416 0.13836 0.98069 0.0
H644 H 0.15043 0.04191 0.93766 0.0
H645 H 0.11948 0.02559 1.01573 0.0
C646 C 0.10775 0.06942 0.08169 0.0
C647 C 0.10276 0.09591 0.11096 0.0
C648 C 0.13483 0.07415 1.04227 0.0
C649 C 0.12793 0.12523 0.10516 0.0
C650 C 0.15578 0.12982 0.06648 0.0
C651 C 0.17852 0.11343 0.9886 0.0
C652 C 0.1723 0.09272 0.95264 0.0
C653 C 0.15786 0.10536 1.03317 0.0
C654 C 0.15462 0.0594 0.96388 0.0
C655 C 0.13618 0.05006 1.00878 0.0
H656 H 0.07299 0.79663 0.37236 0.0
H657 H 0.10451 0.70782 0.31094 0.0
H658 H 0.08914 0.72166 0.24092 0.0
H659 H 0.06793 0.7598 0.19518 0.0
H660 H 0.03641 0.84855 0.25698 0.0
H661 H 0.05041 0.83391 0.32748 0.0
C662 C 0.07668 0.78027 0.34369 0.0
C663 C 0.09038 0.75118 0.34755 0.0
C664 C 0.06773 0.78846 0.30289 0.0
C665 C 0.09433 0.73039 0.30961 0.0
C666 C 0.08546 0.73834 0.26922 0.0
C667 C 0.06388 0.77595 0.22404 0.0
C668 C 0.05137 0.80573 0.21958 0.0
C669 C 0.07226 0.76741 0.26517 0.0
C670 C 0.04661 0.82598 0.25812 0.0
C671 C 0.05451 0.81749 0.29894 0.0
H672 H 0.35909 0.92962 0.38749 0.0
H673 H 0.30251 0.82768 0.41004 0.0
H674 H 0.29202 0.83338 0.49257 0.0
H675 H 0.31158 0.8619 0.55555 0.0
H676 H 0.37316 0.9617 0.53288 0.0
H677 H 0.36889 0.96244 0.45339 0.0
C678 C 0.34387 0.90891 0.41058 0.0
C679 C 0.33244 0.87802 0.39268 0.0
C680 C 0.33937 0.9118 0.45799 0.0
C681 C 0.31182 0.8517 0.42284 0.0
C682 C 0.30609 0.85481 0.47013 0.0
C683 C 0.32284 0.88438 0.53384 0.0
C684 C 0.34324 0.91144 0.54963 0.0
C685 C 0.32156 0.88399 0.48783 0.0
C686 C 0.35781 0.94035 0.52107 0.0
C687 C 0.35553 0.94069 0.47561 0.0
H688 H 0.39623 0.21604 0.69245 0.0
H689 H 0.49038 0.2242 0.7347 0.0
H690 H 0.51677 0.19944 0.66377 0.0
H691 H 0.51279 0.17244 0.59054 0.0
H692 H 0.41821 0.16253 0.54863 0.0
H693 H 0.39286 0.19026 0.61739 0.0
C694 C 0.42274 0.21306 0.68566 0.0
C695 C 0.44138 0.22275 0.71905 0.0
C696 C 0.43775 0.19769 0.64467 0.0
C697 C 0.47544 0.21757 0.70974 0.0
C698 C 0.49057 0.20308 0.66909 0.0
C699 C 0.48661 0.17625 0.59628 0.0
C700 C 0.46765 0.16483 0.56373 0.0
C701 C 0.4719 0.19246 0.63646 0.0
C702 C 0.43372 0.17055 0.57253 0.0
C703 C 0.41907 0.18665 0.61214 0.0
H704 H 0.79659 0.81949 0.14572 0.0
H705 H 0.8333 0.92002 0.18289 0.0
H706 H 0.86575 0.93418 0.10488 0.0
H707 H 0.90033 0.91207 1.03703 0.0
H708 H 0.87129 0.80958 1.00263 0.0
H709 H 0.821 0.80141 0.06866 0.0
C710 C 0.81107 0.84475 0.13648 0.0
C711 C 0.81529 0.8674 0.17123 0.0
C712 C 0.8328 0.85176 0.09234 0.0
C713 C 0.83102 0.90102 0.1579 0.0
C714 C 0.85037 0.90917 0.11307 0.0
C715 C 0.88225 0.88836 1.04335 0.0
C716 C 0.88946 0.86117 1.01651 0.0
C717 C 0.8543 0.88374 0.08177 0.0
C718 C 0.86606 0.83058 1.02381 0.0
C719 C 0.83742 0.82599 1.06141 0.0
H720 H 0.90061 0.16107 0.76313 0.0
H721 H 0.93869 0.26479 0.78423 0.0
H722 H 0.95641 0.24845 0.85125 0.0
H723 H 0.96097 0.20476 0.9053 0.0
H724 H 0.91798 0.10127 0.8877 0.0
H725 H 0.90335 0.11751 0.81898 0.0
C726 C 0.91277 0.1802 0.78231 0.0
C727 C 0.91802 0.21437 0.7679 0.0
C728 C 0.92239 0.1706 0.82208 0.0
C729 C 0.9338 0.23841 0.79402 0.0
C730 C 0.94411 0.229 0.83265 0.0
C731 C 0.94807 0.18547 0.88715 0.0
C732 C 0.94136 0.15131 0.9031 0.0
C733 C 0.93839 0.19514 0.84741 0.0
C734 C 0.92485 0.12752 0.87712 0.0
C735 C 0.91591 0.13688 0.83742 0.0
H736 H 0.64401 0.07165 0.74328 0.0
H737 H 0.73294 0.15162 0.72166 0.0
H738 H 0.73962 0.14986 0.63878 0.0
H739 H 0.71254 0.13385 0.57543 0.0
H740 H 0.62073 0.057 0.5998 0.0
H741 H 0.62393 0.04811 0.6781 0.0
C742 C 0.6657 0.08781 0.72048 0.0
C743 C 0.68746 0.11226 0.7386 0.0
C744 C 0.66867 0.08741 0.67321 0.0
C745 C 0.71536 0.1331 0.70847 0.0
C746 C 0.71914 0.13215 0.66114 0.0
C747 C 0.69367 0.11469 0.59767 0.0
C748 C 0.666 0.09676 0.58211 0.0
C749 C 0.69468 0.11078 0.64346 0.0
C750 C 0.64229 0.07129 0.61077 0.0
C751 C 0.64384 0.06643 0.65586 0.0
H752 H 0.56452 0.7991 0.57683 0.0
H753 H 0.49244 0.84622 0.53014 0.0
H754 H 0.51035 0.82429 0.4541 0.0
H755 H 0.54698 0.79289 0.39978 0.0
H756 H 0.61813 0.74368 0.44502 0.0
H757 H 0.59995 0.76488 0.5222 0.0
C758 C 0.55274 0.80467 0.55003 0.0
C759 C 0.52714 0.82479 0.55974 0.0
C760 C 0.563 0.79147 0.50585 0.0
C761 C 0.51209 0.83109 0.52428 0.0
C762 C 0.52239 0.81849 0.48051 0.0
C763 C 0.55869 0.78667 0.42635 0.0
C764 C 0.58435 0.76678 0.41585 0.0
C765 C 0.54792 0.79883 0.47075 0.0
C766 C 0.5985 0.75884 0.45153 0.0
C767 C 0.58811 0.77114 0.49582 0.0
H768 H 0.69472 0.62946 0.50967 0.0
H769 H 0.66782 0.72359 0.48217 0.0
H770 H 0.63322 0.72292 0.55979 0.0
H771 H 0.59575 0.6867 0.62426 0.0
H772 H 0.61725 0.58998 0.64928 0.0
H773 H 0.66801 0.60006 0.58431 0.0
C774 C 0.68222 0.65036 0.52123 0.0
C775 C 0.68247 0.67547 0.48934 0.0
C776 C 0.66018 0.64871 0.56525 0.0
C777 C 0.66765 0.70333 0.50532 0.0
C778 C 0.64718 0.70279 0.54982 0.0
C779 C 0.61258 0.66864 0.61649 0.0
C780 C 0.60313 0.63767 0.64044 0.0
C781 C 0.64087 0.6742 0.5784 0.0
C782 C 0.62452 0.61405 0.63074 0.0
C783 C 0.65331 0.61973 0.59352 0.0
H784 H 0.5881 0.23094 0.82262 0.0
H785 H 0.61258 0.32676 0.88164 0.0
H786 H 0.60097 0.35496 0.81819 0.0
H787 H 0.58497 0.35383 0.7447 0.0
H788 H 0.55643 0.25843 0.68664 0.0
H789 H 0.56897 0.22977 0.74928 0.0
C790 C 0.59101 0.25799 0.82162 0.0
C791 C 0.60162 0.27632 0.85772 0.0
C792 C 0.58373 0.27464 0.78442 0.0
C793 C 0.60465 0.31148 0.85513 0.0
C794 C 0.59798 0.3279 0.81844 0.0
C795 C 0.58094 0.32673 0.74547 0.0
C796 C 0.56985 0.309 0.70926 0.0
C797 C 0.58755 0.30991 0.78271 0.0
C798 C 0.56565 0.27363 0.71228 0.0
C799 C 0.57259 0.25687 0.74883 0.0
H800 H 0.85991 0.4159 1.02706 0.0
H801 H 0.79637 0.31702 1.05052 0.0
H802 H 0.7919 0.31711 0.97108 0.0
H803 H 0.81626 0.34033 0.89258 0.0
H804 H 0.88252 0.43791 0.86849 0.0
H805 H 0.87529 0.44362 0.95098 0.0
C806 C 0.84402 0.3949 1.01528 0.0
C807 C 0.82894 0.36626 1.0442 0.0
C808 C 0.84264 0.39468 0.96931 0.0
C809 C 0.80864 0.3391 1.02847 0.0
C810 C 0.8062 0.33912 0.9831 0.0
C811 C 0.82812 0.36336 0.90542 0.0
C812 C 0.85043 0.38839 0.87459 0.0
C813 C 0.82465 0.36601 0.95268 0.0
C814 C 0.86579 0.41802 0.89168 0.0
C815 C 0.86168 0.42128 0.93877 0.0
H816 H 0.97339 0.69777 0.22453 0.0
H817 H 0.90288 0.7488 0.18097 0.0
H818 H 0.91898 0.72683 0.10407 0.0
H819 H 0.95145 0.69064 1.04947 0.0
H820 H 0.02452 0.64289 0.09255 0.0
H821 H 0.00909 0.66581 0.16861 0.0
C822 C 0.96156 0.70427 0.19824 0.0
C823 C 0.93653 0.72482 0.2092 0.0
C824 C 0.97132 0.6918 0.15369 0.0
C825 C 0.92213 0.7332 0.17401 0.0
C826 C 0.93126 0.72041 0.12989 0.0
C827 C 0.96404 0.68524 0.07547 0.0
C828 C -0.01101 0.66451 0.06492 0.0
C829 C 0.9555 0.69926 0.11938 0.0
C830 C 0.00528 0.6585 0.09921 0.0
C831 C -0.00362 0.67163 0.14297 0.0
H832 H 0.40017 0.33274 0.51183 0.0
H833 H 0.41152 0.44005 0.51438 0.0
H834 H 0.36279 0.43498 0.58178 0.0
H835 H 0.33031 0.40103 0.65061 0.0
H836 H 0.32981 0.29477 0.65384 0.0
H837 H 0.35706 0.29764 0.5729 0.0
C838 C 0.39083 0.35479 0.52622 0.0
C839 C 0.40915 0.38664 0.50933 0.0
C840 C 0.36435 0.35165 0.5664 0.0
C841 C 0.39755 0.41533 0.52766 0.0
C842 C 0.36982 0.41239 0.56614 0.0
C843 C 0.33552 0.37836 0.63337 0.0
C844 C 0.33062 0.34845 0.65935 0.0
C845 C 0.35492 0.38079 0.58776 0.0
C846 C 0.33458 0.31874 0.63576 0.0
C847 C 0.35091 0.32035 0.58917 0.0
H848 H 0.44574 0.63617 0.38584 0.0
H849 H 0.43661 0.72692 0.4594 0.0
H850 H 0.4215 0.75147 0.39572 0.0
H851 H 0.40933 0.74769 0.31866 0.0
H852 H 0.41783 0.65689 0.24535 0.0
H853 H 0.43407 0.63256 0.30852 0.0
C854 C 0.44025 0.66124 0.38839 0.0
C855 C 0.44278 0.6793 0.42846 0.0
C856 C 0.43109 0.67555 0.35112 0.0
C857 C 0.43578 0.71209 0.42955 0.0
C858 C 0.42673 0.7263 0.3929 0.0
C859 C 0.41455 0.7225 0.31642 0.0
C860 C 0.41175 0.70429 0.27665 0.0
C861 C 0.42411 0.70834 0.35342 0.0
C862 C 0.41922 0.67175 0.27506 0.0
C863 C 0.42868 0.65767 0.31147 0.0
H864 H 0.1532 0.54512 0.24167 0.0
H865 H 0.21247 0.64586 0.23052 0.0
H866 H 0.22032 0.64684 0.14774 0.0
H867 H 0.19786 0.62488 0.08321 0.0
H868 H 0.13378 0.52641 0.09543 0.0
H869 H 0.14012 0.51872 0.173 0.0
C870 C 0.16848 0.56698 0.22091 0.0
C871 C 0.18137 0.59567 0.24228 0.0
C872 C 0.17131 0.56807 0.17364 0.0
C873 C 0.20205 0.62347 0.21501 0.0
C874 C 0.20621 0.62422 0.16764 0.0
C875 C 0.18638 0.60122 0.10214 0.0
C876 C 0.16478 0.57653 0.08417 0.0
C877 C 0.1891 0.59752 0.14716 0.0
C878 C 0.14995 0.54604 0.1091 0.0
C879 C 0.15352 0.54167 0.15341 0.0
H880 H 0.04269 0.28658 0.896 0.0
H881 H 0.10512 0.22798 0.94435 0.0
H882 H 0.08872 0.2505 1.02112 0.0
H883 H 0.05789 0.28898 0.07443 0.0
H884 H -0.00691 0.34442 1.02525 0.0
H885 H 0.00919 0.32125 0.9496 0.0
C886 C 0.05272 0.2785 0.92327 0.0
C887 C 0.07553 0.25561 0.91372 0.0
C888 C 0.04282 0.29133 0.96753 0.0
C889 C 0.08759 0.24535 0.95019 0.0
C890 C 0.07829 0.25847 0.99421 0.0
C891 C 0.04729 0.29604 1.04716 0.0
C892 C 0.02439 0.31898 1.05602 0.0
C893 C 0.05619 0.28185 1.0033 0.0
C894 C 0.01067 0.3271 1.02003 0.0
C895 C 0.01995 0.3138 0.97648 0.0
H896 H 0.94303 0.25555 0.26235 0.0
H897 H 0.04825 0.29007 0.18802 0.0
H898 H 0.06387 0.23894 0.21139 0.0
H899 H 0.04222 0.17917 0.22779 0.0
H900 H 0.93488 0.14294 0.28862 0.0
H901 H 0.92562 0.20003 0.30144 0.0
C902 C 0.96936 0.25176 0.2521 0.0
C903 C -0.00581 0.27443 0.22125 0.0
C904 C 0.9777 0.22231 0.26487 0.0
C905 C 0.02869 0.27134 0.20994 0.0
C906 C 0.03762 0.24252 0.22381 0.0
C907 C 0.01736 0.18402 0.24639 0.0
C908 C -0.01137 0.1582 0.25388 0.0
C909 C 0.0117 0.21672 0.24781 0.0
C910 C 0.95686 0.16341 0.28041 0.0
C911 C 0.95146 0.196 0.28672 0.0
H912 H 0.97035 0.72224 0.36966 0.0
H913 H -0.01332 0.8237 0.41344 0.0
H914 H 0.00921 0.80613 0.47556 0.0
H915 H 0.02631 0.76182 0.51464 0.0
H916 H 0.00537 0.65974 0.47359 0.0
H917 H -0.02047 0.67701 0.41547 0.0
C918 C 0.97811 0.74024 0.39342 0.0
C919 C 0.9763 0.77387 0.38762 0.0
C920 C -0.01122 0.72963 0.43054 0.0
C921 C -0.01204 0.79755 0.41724 0.0
C922 C 0.00024 0.78745 0.45317 0.0
C923 C 0.01407 0.74312 0.4949 0.0
C924 C 0.01833 0.70978 0.49762 0.0
C925 C 0.00032 0.75345 0.46045 0.0
C926 C 0.0025 0.68562 0.47204 0.0
C927 C -0.0114 0.69563 0.43784 0.0
H928 H 0.5276 0.68056 0.77317 0.0
H929 H 0.41836 0.64707 0.81248 0.0
H930 H 0.4097 0.70449 0.80791 0.0
H931 H 0.43309 0.75634 0.75975 0.0
H932 H 0.54256 0.78743 0.70789 0.0
H933 H 0.55204 0.73851 0.74633 0.0
C934 C 0.50201 0.68632 0.78306 0.0
C935 C 0.47351 0.66048 0.78684 0.0
C936 C 0.49771 0.71848 0.77354 0.0
C937 C 0.44063 0.66726 0.80528 0.0
C938 C 0.43567 0.6999 0.80115 0.0
C939 C 0.4589 0.75224 0.75724 0.0
C940 C 0.48711 0.77326 0.72878 0.0
C941 C 0.46391 0.72449 0.77939 0.0
C942 C 0.52065 0.76976 0.72771 0.0
C943 C 0.52603 0.7424 0.75035 0.0
H944 H 0.54446 0.27946 1.00927 0.0
H945 H 0.50175 0.17391 1.01209 0.0
H946 H 0.46701 0.18451 0.96066 0.0
H947 H 0.4606 0.22201 0.90108 0.0
H948 H 0.50457 0.32709 0.89623 0.0
H949 H 0.53017 0.3182 0.95907 0.0
C950 C 0.52631 0.25901 1.00024 0.0
C951 C 0.52695 0.22591 1.01217 0.0
C952 C 0.50905 0.26492 0.96746 0.0
C953 C 0.50252 0.19962 1.00204 0.0
C954 C 0.48344 0.20552 0.97152 0.0
C955 C 0.47557 0.24276 0.91394 0.0
C956 C 0.48084 0.27486 0.89399 0.0
C957 C 0.4888 0.23766 0.95128 0.0
C958 C 0.50048 0.30194 0.91084 0.0
C959 C 0.51455 0.29703 0.94727 0.0
H960 H 0.95396 0.78082 0.88106 0.0
H961 H 0.05775 0.83198 0.82587 0.0
H962 H 0.0743 0.78031 0.79559 0.0
H963 H 0.06543 0.72235 0.82443 0.0
H964 H 0.96495 0.67418 0.90185 0.0
H965 H 0.94026 0.72016 0.88302 0.0
C966 C -0.02042 0.7807 0.85978 0.0
C967 C 0.00552 0.80852 0.85899 0.0
C968 C -0.01042 0.75011 0.84854 0.0
C969 C 0.03808 0.80966 0.82932 0.0
C970 C 0.04758 0.77995 0.8126 0.0
C971 C 0.03796 0.72156 0.83545 0.0
C972 C 0.01706 0.69626 0.86654 0.0
C973 C 0.02479 0.74977 0.8284 0.0
C974 C -0.01857 0.69424 0.87927 0.0
C975 C 0.96738 0.72066 0.86848 0.0
H976 H 0.54252 0.6776 0.20397 0.0
H977 H 0.51817 0.74563 0.31258 0.0
H978 H 0.49123 0.77518 0.26607 0.0
H979 H 0.47831 0.78399 0.19383 0.0
H980 H 0.49262 0.7116 0.08912 0.0
H981 H 0.52292 0.6829 0.13304 0.0
C982 C 0.53069 0.69848 0.21758 0.0
C983 C 0.53302 0.71022 0.26089 0.0
C984 C 0.51577 0.71575 0.19026 0.0
C985 C 0.51694 0.73663 0.27893 0.0
C986 C 0.50216 0.75387 0.25213 0.0
C987 C 0.48944 0.76277 0.17967 0.0
C988 C 0.48467 0.75063 0.13759 0.0
C989 C 0.50283 0.74449 0.2072 0.0
C990 C 0.49745 0.72213 0.12056 0.0
C991 C 0.51374 0.70523 0.14631 0.0
H992 H 0.55244 0.21901 0.34853 0.0
H993 H 0.44715 0.19279 0.4261 0.0
H994 H 0.43666 0.24712 0.40521 0.0
H995 H 0.46488 0.30571 0.39865 0.0
H996 H 0.57427 0.33249 0.34416 0.0
H997 H 0.5761 0.27595 0.31764 0.0
C998 C 0.52695 0.22503 0.35888 0.0
C999 C 0.50098 0.20385 0.39046 0.0
C1000 C 0.52233 0.25711 0.35036 0.0
C1001 C 0.46759 0.21008 0.40303 0.0
C1002 C 0.46173 0.24101 0.39105 0.0
C1003 C 0.48863 0.2993 0.37864 0.0
C1004 C 0.51964 0.32155 0.37556 0.0
C1005 C 0.48995 0.26586 0.36983 0.0
C1006 C 0.55039 0.31456 0.34838 0.0
C1007 C 0.55139 0.28221 0.33375 0.0
H1008 H 0.02902 0.17849 0.69555 0.0
H1009 H 0.02973 0.26501 0.77942 0.0
H1010 H 0.01281 0.29582 0.72246 0.0
H1011 H -0.00479 0.29698 0.65173 0.0
H1012 H -0.01602 0.20764 0.57475 0.0
H1013 H 0.01211 0.18023 0.62273 0.0
C1014 C 0.02516 0.20398 0.70141 0.0
C1015 C 0.03118 0.21989 0.74094 0.0
C1016 C 0.01571 0.22152 0.66839 0.0
C1017 C 0.02577 0.25268 0.74863 0.0
C1018 C 0.0165 0.27034 0.71596 0.0
C1019 C 0.00042 0.27205 0.64413 0.0
C1020 C -0.01256 0.25414 0.61023 0.0
C1021 C 0.01188 0.25514 0.67552 0.0
C1022 C -0.00589 0.2219 0.60057 0.0
C1023 C 0.00891 0.20585 0.62909 0.0
H1024 H 0.96179 0.01842 0.13125 0.0
H1025 H 0.05572 0.98809 0.13807 0.0
H1026 H 0.05544 0.95637 0.06839 0.0
H1027 H 0.02929 0.93908 1.00404 0.0
H1028 H 0.93587 0.97049 0.9971 0.0
H1029 H 0.93577 0.00123 0.06737 0.0
C1030 C -0.01762 0.00512 0.11724 0.0
C1031 C 0.00899 0.00595 0.1394 0.0
C1032 C -0.01774 0.98752 0.07691 0.0
C1033 C 0.03498 0.98785 0.12162 0.0
C1034 C 0.03491 0.9699 0.08165 0.0
C1035 C 0.00872 0.95233 1.01827 0.0
C1036 C -0.01767 0.95211 0.99581 0.0
C1037 C 0.00881 0.9698 1.05882 0.0
C1038 C 0.95638 0.97019 1.01382 0.0
C1039 C 0.95625 0.98764 1.05409 0.0
H1040 H 0.20603 0.77828 0.34709 0.0
H1041 H 0.21082 0.69032 0.42227 0.0
H1042 H 0.25897 0.67991 0.36003 0.0
H1043 H 0.29953 0.6961 0.28454 0.0
H1044 H 0.29452 0.7841 0.20963 0.0
H1045 H 0.2467 0.79466 0.27211 0.0
C1046 C 0.21759 0.75679 0.35007 0.0
C1047 C 0.20461 0.73486 0.38932 0.0
C1048 C 0.2453 0.75124 0.31436 0.0
C1049 C 0.22002 0.70729 0.39239 0.0
C1050 C 0.24763 0.7015 0.35686 0.0
C1051 C 0.28801 0.71766 0.2818 0.0
C1052 C 0.30079 0.73953 0.24246 0.0
C1053 C 0.26043 0.7233 0.31771 0.0
C1054 C 0.28547 0.76717 0.23956 0.0
C1055 C 0.25805 0.77306 0.27524 0.0
H1056 H 0.46335 0.03797 0.56734 0.0
H1057 H 0.56047 0.04207 0.46849 0.0
H1058 H 0.57172 -0.00423 0.5105 0.0
H1059 H 0.55278 0.95284 0.57371 0.0
H1060 H 0.45547 0.94865 0.67229 0.0
H1061 H 0.445 -0.00409 0.63141 0.0
C1062 C 0.48709 0.02884 0.55502 0.0
C1063 C 0.51118 0.04357 0.5148 0.0
C1064 C 0.49302 0.00193 0.579 0.0
C1065 C 0.54175 0.03145 0.49946 0.0
C1066 C 0.54801 0.00481 0.52335 0.0
C1067 C 0.52928 0.9623 0.58637 0.0
C1068 C 0.50478 0.94707 0.62595 0.0
C1069 C 0.52367 -0.01034 0.56288 0.0
C1070 C 0.4746 0.95976 0.64191 0.0
C1071 C 0.46869 0.98684 0.61855 0.0
H1072 H 0.30449 0.19867 0.79604 0.0
H1073 H 0.30415 0.27783 0.89229 0.0
H1074 H 0.25026 0.28836 0.87958 0.0
H1075 H 0.20394 0.27608 0.83965 0.0
H1076 H 0.20341 0.19635 0.7444 0.0
H1077 H 0.25657 0.18471 0.75854 0.0
C1078 C 0.2925 0.21811 0.81438 0.0
C1079 C 0.30853 0.23772 0.84466 0.0
C1080 C 0.26132 0.22387 0.8071 0.0
C1081 C 0.29253 0.26261 0.8685 0.0
C1082 C 0.2617 0.26863 0.86123 0.0
C1083 C 0.21542 0.25608 0.82208 0.0
C1084 C 0.19977 0.23713 0.79093 0.0
C1085 C 0.246 0.24961 0.83036 0.0
C1086 C 0.21483 0.21118 0.76867 0.0
C1087 C 0.24532 0.20463 0.77662 0.0
H1088 H 0.71758 0.28766 0.84997 0.0
H1089 H 0.71174 0.19197 0.91523 0.0
H1090 H 0.75641 0.1793 0.85 0.0
H1091 H 0.79764 0.19596 0.77559 0.0
H1092 H 0.80294 0.29103 0.70926 0.0
H1093 H 0.75803 0.30379 0.7744 0.0
C1094 C 0.72609 0.264 0.85009 0.0
C1095 C 0.71136 0.24077 0.88772 0.0
C1096 C 0.75177 0.25701 0.81249 0.0
C1097 C 0.72262 0.21025 0.88698 0.0
C1098 C 0.74818 0.20307 0.84965 0.0
C1099 C 0.789 0.21953 0.77516 0.0
C1100 C 0.80404 0.24283 0.73767 0.0
C1101 C 0.76301 0.22634 0.81239 0.0
C1102 C 0.79224 0.273 0.73782 0.0
C1103 C 0.76646 0.28013 0.77499 0.0
H1104 H 0.8017 0.77352 0.36036 0.0
H1105 H 0.81885 0.69295 0.26885 0.0
H1106 H 0.77024 0.6997 0.2389 0.0
H1107 H 0.72076 0.72679 0.24105 0.0
H1108 H 0.70289 0.80645 0.33401 0.0
H1109 H 0.75399 0.80244 0.35982 0.0
C1110 C 0.79499 0.75772 0.33356 0.0
C1111 C 0.81387 0.73273 0.31702 0.0
C1112 C 0.76677 0.76164 0.31649 0.0
C1113 C 0.80465 0.71227 0.28244 0.0
C1114 C 0.77686 0.71616 0.26514 0.0
C1115 C 0.72822 0.74336 0.26672 0.0
C1116 C 0.70771 0.76652 0.28601 0.0
C1117 C 0.75743 0.7405 0.28222 0.0
C1118 C 0.718 0.78816 0.31884 0.0
C1119 C 0.7472 0.78581 0.33384 0.0
H1120 H 0.47653 0.53623 0.62736 0.0
H1121 H 0.57235 0.51136 0.63653 0.0
H1122 H 0.57616 0.48193 0.56446 0.0
H1123 H 0.55234 0.46393 0.49838 0.0
H1124 H 0.45793 0.49148 0.48773 0.0
H1125 H 0.45409 0.52056 0.55989 0.0
C1126 C 0.49859 0.52497 0.61312 0.0
C1127 C 0.52436 0.52639 0.63693 0.0
C1128 C 0.50092 0.50885 0.57125 0.0
C1129 C 0.55222 0.51067 0.61884 0.0
C1130 C 0.55445 0.49398 0.57756 0.0
C1131 C 0.53089 0.47625 0.51198 0.0
C1132 C 0.50518 0.47519 0.48808 0.0
C1133 C 0.52898 0.493 0.55341 0.0
C1134 C 0.47793 0.49182 0.50555 0.0
C1135 C 0.47568 0.50832 0.54689 0.0
H1136 H 0.96504 0.53613 1.06053 0.0
H1137 H 0.05762 0.53467 0.95481 0.0
H1138 H 0.0686 0.48779 0.99618 0.0
H1139 H 0.05109 0.44674 1.06176 0.0
H1140 H 0.9587 0.44897 0.16753 0.0
H1141 H 0.94801 0.49583 0.12622 0.0
C1142 C -0.01232 0.5256 1.04639 0.0
C1143 C 0.01046 0.53883 1.00441 0.0
C1144 C -0.00643 0.49862 0.07019 0.0
C1145 C 0.03968 0.52493 0.98686 0.0
C1146 C 0.04588 0.49811 1.01053 0.0
C1147 C 0.02856 0.45744 0.07582 0.0
C1148 C 0.00548 0.4441 0.11761 0.0
C1149 C 0.02286 0.48463 1.05207 0.0
C1150 C 0.97656 0.45838 0.1353 0.0
C1151 C 0.97059 0.48531 0.11177 0.0
H1152 H 0.07819 0.18697 0.4789 0.0
H1153 H 0.06074 0.0825 0.52091 0.0
H1154 H 0.07528 0.0983 0.59268 0.0
H1155 H 0.09221 0.14158 0.64598 0.0
H1156 H 0.10734 0.24597 0.60582 0.0
H1157 H 0.09416 0.23033 0.53278 0.0
C1158 C 0.07723 0.16742 0.50361 0.0
C1159 C 0.0685 0.13317 0.4927 0.0
C1160 C 0.08536 0.17674 0.54612 0.0
C1161 C 0.06801 0.10893 0.52635 0.0
C1162 C 0.07613 0.118 0.56821 0.0
C1163 C 0.09306 0.16105 0.62116 0.0
C1164 C 0.10141 0.19519 0.63218 0.0
C1165 C 0.08497 0.15181 0.57866 0.0
C1166 C 0.10152 0.21959 0.59906 0.0
C1167 C 0.09381 0.21059 0.55689 0.0
H1168 H 0.1535 0.84937 0.71886 0.0
H1169 H 0.12348 0.92948 0.65497 0.0
H1170 H 0.10559 0.9535 0.72907 0.0
H1171 H 0.08324 0.94207 0.81148 0.0
H1172 H 0.10807 0.85958 0.87631 0.0
H1173 H 0.14432 0.84691 0.80308 0.0
C1174 C 0.14388 0.87257 0.72115 0.0
C1175 C 0.13891 0.88705 0.68167 0.0
C1176 C 0.13248 0.88571 0.76425 0.0
C1177 C 0.12738 0.91763 0.68479 0.0
C1178 C 0.11687 0.93132 0.72729 0.0
C1179 C 0.09818 0.92252 0.80987 0.0
C1180 C 0.0925 0.9012 0.84846 0.0
C1181 C 0.11716 0.91429 0.76732 0.0
C1182 C 0.11211 0.87623 0.84675 0.0
C1183 C 0.13222 0.86853 0.80463 0.0
H1184 H 0.39013 0.76081 0.97874 0.0
H1185 H 0.45317 0.83568 1.0396 0.0
H1186 H 0.47913 0.86465 0.96498 0.0
H1187 H 0.48436 0.87 0.88043 0.0
H1188 H 0.41685 0.79814 0.82172 0.0
H1189 H 0.39325 0.76769 0.89535 0.0
C1190 C 0.40952 0.78344 0.97581 0.0
C1191 C 0.41933 0.79566 1.0158 0.0
C1192 C 0.42396 0.80105 0.93219 0.0
C1193 C 0.44454 0.8254 1.01026 0.0
C1194 C 0.45967 0.84216 0.96714 0.0
C1195 C 0.46443 0.84778 0.88368 0.0
C1196 C 0.45269 0.83687 0.84446 0.0
C1197 C 0.44963 0.83047 0.92754 0.0
C1198 C 0.42658 0.80779 0.85053 0.0
C1199 C 0.4129 0.79004 0.89308 0.0
H1200 H 0.36358 0.05536 0.23211 0.0
H1201 H 0.47432 0.076 0.19451 0.0
H1202 H 0.47475 0.08349 0.11396 0.0
H1203 H 0.44361 0.09337 1.05727 0.0
H1204 H 0.33295 0.07655 0.09589 0.0
H1205 H 0.33225 0.05761 0.17301 0.0
C1206 C 0.3877 0.06048 0.20598 0.0
C1207 C 0.41884 0.06561 0.21881 0.0
C1208 C 0.38769 0.06575 0.16017 0.0
C1209 C 0.45008 0.07246 0.18504 0.0
C1210 C 0.45032 0.07677 0.13916 0.0
C1211 C 0.41939 0.08457 0.08226 0.0
C1212 C 0.38842 0.08656 0.07154 0.0
C1213 C 0.41929 0.07487 0.1267 0.0
C1214 C 0.35708 0.0755 0.10399 0.0
C1215 C 0.35669 0.06477 0.14793 0.0
H1216 H 0.92538 0.7509 0.50643 0.0
H1217 H 0.8777 0.83265 0.48241 0.0
H1218 H 0.88806 0.85817 0.55249 0.0
H1219 H 0.91125 0.85838 0.62096 0.0
H1220 H 0.96189 0.77834 0.64314 0.0
H1221 H 0.94972 0.7517 0.57464 0.0
C1222 C 0.91696 0.77417 0.51658 0.0
C1223 C 0.90048 0.78947 0.48839 0.0
C1224 C 0.92373 0.78942 0.55709 0.0
C1225 C 0.89029 0.81991 0.50272 0.0
C1226 C 0.89635 0.83474 0.54307 0.0
C1227 C 0.92006 0.83529 0.6109 0.0
C1228 C 0.93746 0.82072 0.63862 0.0
C1229 C 0.9133 0.81996 0.5705 0.0
C1230 C 0.9479 0.79032 0.62406 0.0
C1231 C 0.94111 0.77496 0.58427 0.0
H1232 H 0.84186 0.11783 0.40297 0.0
H1233 H 0.86864 0.03878 0.47322 0.0
H1234 H 0.88561 0.01172 0.40113 0.0
H1235 H 0.90753 0.01944 0.31804 0.0
H1236 H 0.88572 0.10077 0.24701 0.0
H1237 H 0.85091 0.11719 0.31886 0.0
C1238 C 0.8506 0.09423 0.40251 0.0
C1239 C 0.85484 0.08081 0.44313 0.0
C1240 C 0.86134 0.07925 0.3606 0.0
C1241 C 0.86532 0.04979 0.44242 0.0
C1242 C 0.87526 0.03435 0.4011 0.0
C1243 C 0.89351 0.03958 0.31809 0.0
C1244 C 0.89965 0.05938 0.27791 0.0
C1245 C 0.8754 0.05 0.35984 0.0
C1246 C 0.88131 0.08521 0.27774 0.0
C1247 C 0.86204 0.09507 0.31905 0.0
H1248 H 0.57133 0.146 0.11435 0.0
H1249 H 0.63824 0.23493 0.14199 0.0
H1250 H 0.62356 0.21731 0.22301 0.0
H1251 H 0.59086 0.17752 0.28766 0.0
H1252 H 0.51975 0.09096 0.26287 0.0
H1253 H 0.53682 0.10655 0.18051 0.0
C1254 C 0.58305 0.1614 0.13793 0.0
C1255 C 0.60656 0.19182 0.1209 0.0
C1256 C 0.57358 0.15145 0.18571 0.0
C1257 C 0.62046 0.21146 0.15307 0.0
C1258 C 0.61197 0.20133 0.19984 0.0
C1259 C 0.57925 0.16166 0.26437 0.0
C1260 C 0.55431 0.13242 0.28236 0.0
C1261 C 0.58849 0.17145 0.2168 0.0
C1262 C 0.53921 0.1132 0.25085 0.0
C1263 C 0.54897 0.12227 0.2034 0.0
H1264 H 0.64639 0.82465 0.86931 0.0
H1265 H 0.64274 0.92992 0.87652 0.0
H1266 H 0.64174 0.92824 0.95773 0.0
H1267 H 0.63105 0.89466 1.0285 0.0
H1268 H 0.63243 0.78877 1.02205 0.0
H1269 H 0.64418 0.79265 0.93868 0.0
C1270 C 0.64616 0.84731 0.88859 0.0
C1271 C 0.64412 0.87717 0.8675 0.0
C1272 C 0.64409 0.84583 0.93549 0.0
C1273 C 0.64443 0.90664 0.8922 0.0
C1274 C 0.64337 0.9056 0.93872 0.0
C1275 C 0.63476 0.87261 1.00881 0.0
C1276 C 0.63009 0.84138 1.03129 0.0
C1277 C 0.6415 0.87499 0.96106 0.0
C1278 C 0.63486 0.81294 1.00541 0.0
C1279 C 0.64189 0.81516 0.95781 0.0
H1280 H 0.58991 0.61692 1.01678 0.0
H1281 H 0.5623 0.70685 0.97459 0.0
H1282 H 0.5766 0.73506 1.04087 0.0
H1283 H 0.59627 0.73481 0.11294 0.0
H1284 H 0.62462 0.64516 0.15424 0.0
H1285 H 0.61158 0.61737 0.08685 0.0
C1286 C 0.58731 0.64283 1.0214 0.0
C1287 C 0.57442 0.65908 0.9896 0.0
C1288 C 0.59604 0.65948 1.0601 0.0
C1289 C 0.57121 0.69277 0.99795 0.0
C1290 C 0.5798 0.70931 1.03608 0.0
C1291 C 0.60005 0.70933 0.1071 0.0
C1292 C 0.61177 0.69253 0.13958 0.0
C1293 C 0.59214 0.693 0.06771 0.0
C1294 C 0.61592 0.65924 0.13061 0.0
C1295 C 0.60826 0.64308 0.09177 0.0
H1296 H 0.61216 0.45823 0.31363 0.0
H1297 H 0.62506 0.37192 0.38418 0.0
H1298 H 0.66012 0.35485 0.31297 0.0
H1299 H 0.67129 0.35602 0.2286 0.0
H1300 H 0.65276 0.44012 0.15857 0.0
H1301 H 0.63657 0.46685 0.23106 0.0
C1302 C 0.62434 0.43674 0.31373 0.0
C1303 C 0.61555 0.41587 0.3534 0.0
C1304 C 0.6425 0.42606 0.27221 0.0
C1305 C 0.63151 0.38829 0.35381 0.0
C1306 C 0.65092 0.37813 0.31282 0.0
C1307 C 0.66454 0.38059 0.22923 0.0
C1308 C 0.66231 0.39561 0.18847 0.0
C1309 C 0.65406 0.39537 0.27135 0.0
C1310 C 0.65449 0.42785 0.18944 0.0
C1311 C 0.64497 0.44312 0.23099 0.0
H1312 H 0.92249 0.30636 0.33568 0.0
H1313 H -0.00285 0.38892 0.36248 0.0
H1314 H -0.01981 0.37157 0.44423 0.0
H1315 H 0.94463 0.33202 0.50904 0.0
H1316 H 0.87496 0.24581 0.48009 0.0
H1317 H 0.88947 0.26511 0.3994 0.0
C1318 C 0.93487 0.32085 0.35942 0.0
C1319 C 0.96066 0.34971 0.34236 0.0
C1320 C 0.92591 0.30975 0.40654 0.0
C1321 C 0.97698 0.36713 0.37403 0.0
C1322 C 0.96726 0.35705 0.42106 0.0
C1323 C 0.93233 0.31751 0.48524 0.0
C1324 C 0.908 0.2875 0.50169 0.0
C1325 C 0.94179 0.32832 0.43792 0.0
C1326 C 0.89337 0.26894 0.46932 0.0
C1327 C 0.90175 0.28008 0.42284 0.0
H1328 H 0.88677 0.56676 0.71974 0.0
H1329 H 0.96342 0.65426 0.72695 0.0
H1330 H 0.97507 0.66485 0.6444 0.0
H1331 H 0.95935 0.65226 0.57195 0.0
H1332 H 0.88206 0.56543 0.565 0.0
H1333 H 0.87596 0.5505 0.64544 0.0
C1334 C 0.90636 0.58785 0.70313 0.0
C1335 C 0.9236 0.61014 0.72941 0.0
C1336 C 0.91304 0.59367 0.65575 0.0
C1337 C 0.94897 0.63738 0.70752 0.0
C1338 C 0.95593 0.64325 0.66034 0.0
C1339 C 0.94164 0.62977 0.588 0.0
C1340 C 0.92089 0.61014 0.56315 0.0
C1341 C 0.93749 0.62203 0.63439 0.0
C1342 C 0.89838 0.58078 0.58366 0.0
C1343 C 0.89457 0.5725 0.6297 0.0
H1344 H 0.43383 0.29884 0.14822 0.0
H1345 H 0.45781 0.40269 0.10128 0.0
H1346 H 0.44201 0.38647 1.03028 0.0
H1347 H 0.42216 0.34262 0.97893 0.0
H1348 H 0.40081 0.23881 1.02491 0.0
H1349 H 0.41516 0.25523 0.09683 0.0
C1350 C 0.43602 0.31817 0.12259 0.0
C1351 C 0.44702 0.35237 0.13181 0.0
C1352 C 0.42719 0.30858 0.08062 0.0
C1353 C 0.44888 0.37634 0.09706 0.0
C1354 C 0.44002 0.367 1.05566 0.0
C1355 C 0.42017 0.32352 1.00482 0.0
C1356 C 0.40967 0.28927 0.99575 0.0
C1357 C 0.42902 0.33318 1.04683 0.0
C1358 C 0.40827 0.26529 1.03014 0.0
C1359 C 0.41666 0.27471 0.07169 0.0
H1360 H 0.34027 0.60908 0.90933 0.0
H1361 H 0.3766 0.53703 0.97964 0.0
H1362 H 0.3939 0.50909 0.90833 0.0
H1363 H 0.41335 0.51562 0.82488 0.0
H1364 H 0.38214 0.59081 0.75381 0.0
H1365 H 0.34658 0.60565 0.82587 0.0
C1366 C 0.35117 0.58675 0.90911 0.0
C1367 C 0.35802 0.5757 0.94936 0.0
C1368 C 0.362 0.5713 0.86762 0.0
C1369 C 0.3713 0.54623 0.94905 0.0
C1370 C 0.38137 0.53028 0.90818 0.0
C1371 C 0.3972 0.53394 0.82499 0.0
C1372 C 0.40136 0.55304 0.78469 0.0
C1373 C 0.37888 0.54395 0.86693 0.0
C1374 C 0.37979 0.57608 0.78463 0.0
C1375 C 0.36005 0.58517 0.8261 0.0
H1376 H 0.05641 0.64568 0.61514 0.0
H1377 H 0.13712 0.72455 0.63583 0.0
H1378 H 0.1247 0.7058 0.71653 0.0
H1379 H 0.09067 0.66701 0.78235 0.0
H1380 H 0.00486 0.59315 0.76463 0.0
H1381 H 0.01934 0.60959 0.68275 0.0
C1382 C 0.07148 0.65867 0.6372 0.0
C1383 C 0.09834 0.68631 0.61852 0.0
C1384 C 0.06323 0.64841 0.68458 0.0
C1385 C 0.11666 0.70318 0.64853 0.0
C1386 C 0.10952 0.69236 0.69494 0.0
C1387 C 0.07535 0.65413 0.76052 0.0
C1388 C 0.0472 0.62789 0.78004 0.0
C1389 C 0.08294 0.66492 0.71349 0.0
C1390 C 0.02703 0.61273 0.75098 0.0
C1391 C 0.03529 0.62232 0.70392 0.0
H1392 H 0.14347 0.40143 0.39547 0.0
H1393 H 0.03879 0.34924 0.41209 0.0
H1394 H 0.03062 0.34553 0.49491 0.0
H1395 H 0.05488 0.35264 0.56148 0.0
H1396 H 0.1602 0.40277 0.54479 0.0
H1397 H 0.16602 0.41329 0.46326 0.0
C1398 C 0.11874 0.38974 0.41732 0.0
C1399 C 0.09197 0.37514 0.39779 0.0
C1400 C 0.11427 0.38762 0.46483 0.0
C1401 C 0.06004 0.35995 0.42639 0.0
C1402 C 0.05525 0.35804 0.4737 0.0
C1403 C 0.07894 0.36624 0.54 0.0
C1404 C 0.10715 0.37661 0.55871 0.0
C1405 C 0.08245 0.37109 0.49312 0.0
C1406 C 0.13805 0.39473 0.53102 0.0
C1407 C 0.14153 0.40038 0.48437 0.0
loop_
_geom_bond_atom_site_label_1
_geom_bond_atom_site_label_2
_geom_bond_distance
_geom_bond_site_symmetry_2
_ccdc_geom_bond_type
Gd0 C3 2.818 . S
Gd0 O20 2.377 . S
Gd0 O22 2.448 . S
Gd0 O23 2.506 . S
Gd0 O24 2.435 . S
Gd0 O25 2.717 . S
Gd0 O27 2.395 . S
Gd0 O31 2.327 . S
Gd1 C12 2.818 . S
Gd1 O21 2.395 . S
Gd1 O25 2.327 1_655 S
Gd1 O26 2.377 1_655 S
Gd1 O28 2.448 . S
Gd1 O29 2.506 . S
Gd1 O30 2.435 1_655 S
Gd1 O31 2.717 1_655 S
C2 O20 1.240 1_655 S
C2 O21 1.240 . S
C3 Gd0 2.818 . S
C3 C4 1.510 . S
C3 O22 1.249 . S
C3 O23 1.252 . S
C4 C3 1.510 . S
C4 C5 1.404 . S
C4 C6 1.352 . S
C5 C4 1.404 . S
C5 C9 1.389 . S
C5 H32 0.930 . S
C6 C4 1.352 . S
C6 C8 1.374 . S
C6 H33 0.931 . S
C7 C8 1.359 . S
C7 C9 1.364 . S
C8 C6 1.374 . S
C8 C7 1.359 . S
C8 H34 0.931 . S
C9 C5 1.389 . S
C9 C7 1.364 . S
C9 H35 0.931 . S
C10 O24 1.256 . S
C10 O25 1.257 . S
C11 O26 1.240 . S
C11 O27 1.240 . S
C12 Gd1 2.818 . S
C12 C13 1.510 1_554 S
C12 O28 1.249 . S
C12 O29 1.252 . S
C13 C12 1.510 1_556 S
C13 C14 1.404 . S
C13 C15 1.352 . S
C14 C13 1.404 . S
C14 C18 1.389 . S
C14 H36 0.930 . S
C15 C13 1.352 . S
C15 C17 1.374 . S
C15 H37 0.931 . S
C16 C17 1.359 . S
C16 C18 1.364 . S
C17 C15 1.374 . S
C17 C16 1.359 . S
C17 H38 0.931 . S
C18 C14 1.389 . S
C18 C16 1.364 . S
C18 H39 0.931 . S
C19 O30 1.256 . S
C19 O31 1.257 . S
O20 Gd0 2.377 . S
O20 C2 1.240 1_455 S
O21 Gd1 2.395 . S
O21 C2 1.240 . S
O22 Gd0 2.448 . S
O22 C3 1.249 . S
O23 Gd0 2.506 . S
O23 C3 1.252 . S
O24 Gd0 2.435 . S
O24 C10 1.256 . S
O25 Gd0 2.717 . S
O25 Gd1 2.327 1_455 S
O25 C10 1.257 . S
O26 Gd1 2.377 1_455 S
O26 C11 1.240 . S
O27 Gd0 2.395 . S
O27 C11 1.240 . S
O28 Gd1 2.448 . S
O28 C12 1.249 . S
O29 Gd1 2.506 . S
O29 C12 1.252 . S
O30 Gd1 2.435 1_455 S
O30 C19 1.256 . S
O31 Gd0 2.327 . S
O31 Gd1 2.717 1_455 S
O31 C19 1.257 . S
H32 C5 0.930 . S
H33 C6 0.931 . S
H34 C8 0.931 . S
H35 C9 0.931 . S
H36 C14 0.930 . S
H37 C15 0.931 . S
H38 C17 0.931 . S
H39 C18 0.931 . S
Gd40 C43 2.818 . S
Gd40 O60 2.377 . S
Gd40 O62 2.448 . S
Gd40 O63 2.506 . S
Gd40 O64 2.435 . S
Gd40 O65 2.717 . S
Gd40 O67 2.395 . S
Gd40 O71 2.327 . S
Gd41 C52 2.818 . S
Gd41 O61 2.395 . S
Gd41 O65 2.327 . S
Gd41 O66 2.377 . S
Gd41 O68 2.448 . S
Gd41 O69 2.506 . S
Gd41 O70 2.435 . S
Gd41 O71 2.717 . S
C42 O60 1.240 . S
C42 O61 1.240 . S
C43 Gd40 2.818 . S
C43 C44 1.510 . S
C43 O62 1.249 . S
C43 O63 1.252 . S
C44 C43 1.510 . S
C44 C45 1.404 . S
C44 C46 1.352 . S
C45 C44 1.404 . S
C45 C49 1.389 . S
C45 H72 0.930 . S
C46 C44 1.352 . S
C46 C48 1.374 . S
C46 H73 0.931 . S
C47 C48 1.359 . S
C47 C49 1.364 . S
C48 C46 1.374 . S
C48 C47 1.359 . S
C48 H74 0.931 . S
C49 C45 1.389 . S
C49 C47 1.364 . S
C49 H75 0.931 . S
C50 O64 1.256 . S
C50 O65 1.257 . S
C51 O66 1.240 . S
C51 O67 1.240 . S
C52 Gd41 2.818 . S
C52 C53 1.510 . S
C52 O68 1.249 . S
C52 O69 1.252 . S
C53 C52 1.510 . S
C53 C54 1.404 . S
C53 C55 1.352 . S
C54 C53 1.404 . S
C54 C58 1.389 . S
C54 H76 0.930 . S
C55 C53 1.352 . S
C55 C57 1.374 . S
C55 H77 0.931 . S
C56 C57 1.359 . S
C56 C58 1.364 . S
C57 C55 1.374 . S
C57 C56 1.359 . S
C57 H78 0.931 . S
C58 C54 1.389 . S
C58 C56 1.364 . S
C58 H79 0.931 . S
C59 O70 1.256 . S
C59 O71 1.257 . S
O60 Gd40 2.377 . S
O60 C42 1.240 . S
O61 Gd41 2.395 . S
O61 C42 1.240 . S
O62 Gd40 2.448 . S
O62 C43 1.249 . S
O63 Gd40 2.506 . S
O63 C43 1.252 . S
O64 Gd40 2.435 . S
O64 C50 1.256 . S
O65 Gd40 2.717 . S
O65 Gd41 2.327 . S
O65 C50 1.257 . S
O66 Gd41 2.377 . S
O66 C51 1.240 . S
O67 Gd40 2.395 . S
O67 C51 1.240 . S
O68 Gd41 2.448 . S
O68 C52 1.249 . S
O69 Gd41 2.506 . S
O69 C52 1.252 . S
O70 Gd41 2.435 . S
O70 C59 1.256 . S
O71 Gd40 2.327 . S
O71 Gd41 2.717 . S
O71 C59 1.257 . S
H72 C45 0.930 . S
H73 C46 0.931 . S
H74 C48 0.931 . S
H75 C49 0.931 . S
H76 C54 0.930 . S
H77 C55 0.931 . S
H78 C57 0.931 . S
H79 C58 0.931 . S
Gd80 C83 2.818 . S
Gd80 O100 2.377 . S
Gd80 O102 2.448 . S
Gd80 O103 2.506 . S
Gd80 O104 2.435 . S
Gd80 O105 2.717 . S
Gd80 O107 2.395 . S
Gd80 O111 2.327 . S
Gd81 C92 2.818 . S
Gd81 O101 2.395 . S
Gd81 O105 2.327 . S
Gd81 O106 2.377 . S
Gd81 O108 2.448 . S
Gd81 O109 2.506 . S
Gd81 O110 2.435 . S
Gd81 O111 2.717 . S
C82 O100 1.240 . S
C82 O101 1.240 . S
C83 Gd80 2.818 . S
C83 C84 1.510 . S
C83 O102 1.249 . S
C83 O103 1.252 . S
C84 C83 1.510 . S
C84 C85 1.404 . S
C84 C86 1.352 . S
C85 C84 1.404 . S
C85 C89 1.389 . S
C85 H112 0.930 . S
C86 C84 1.352 . S
C86 C88 1.374 . S
C86 H113 0.931 . S
C87 C88 1.359 . S
C87 C89 1.364 . S
C88 C86 1.374 . S
C88 C87 1.359 . S
C88 H114 0.931 . S
C89 C85 1.389 . S
C89 C87 1.364 . S
C89 H115 0.931 . S
C90 O104 1.256 . S
C90 O105 1.257 . S
C91 O106 1.240 . S
C91 O107 1.240 . S
C92 Gd81 2.818 . S
C92 C93 1.510 . S
C92 O108 1.249 . S
C92 O109 1.252 . S
C93 C92 1.510 . S
C93 C94 1.404 . S
C93 C95 1.352 . S
C94 C93 1.404 . S
C94 C98 1.389 . S
C94 H116 0.930 . S
C95 C93 1.352 . S
C95 C97 1.374 . S
C95 H117 0.931 . S
C96 C97 1.359 . S
C96 C98 1.364 . S
C97 C95 1.374 . S
C97 C96 1.359 . S
C97 H118 0.931 . S
C98 C94 1.389 . S
C98 C96 1.364 . S
C98 H119 0.931 . S
C99 O110 1.256 . S
C99 O111 1.257 . S
O100 Gd80 2.377 . S
O100 C82 1.240 . S
O101 Gd81 2.395 . S
O101 C82 1.240 . S
O102 Gd80 2.448 . S
O102 C83 1.249 . S
O103 Gd80 2.506 . S
O103 C83 1.252 . S
O104 Gd80 2.435 . S
O104 C90 1.256 . S
O105 Gd80 2.717 . S
O105 Gd81 2.327 . S
O105 C90 1.257 . S
O106 Gd81 2.377 . S
O106 C91 1.240 . S
O107 Gd80 2.395 . S
O107 C91 1.240 . S
O108 Gd81 2.448 . S
O108 C92 1.249 . S
O109 Gd81 2.506 . S
O109 C92 1.252 . S
O110 Gd81 2.435 . S
O110 C99 1.256 . S
O111 Gd80 2.327 . S
O111 Gd81 2.717 . S
O111 C99 1.257 . S
H112 C85 0.930 . S
H113 C86 0.931 . S
H114 C88 0.931 . S
H115 C89 0.931 . S
H116 C94 0.930 . S
H117 C95 0.931 . S
H118 C97 0.931 . S
H119 C98 0.931 . S
Gd120 C123 2.818 . S
Gd120 O140 2.377 . S
Gd120 O142 2.448 . S
Gd120 O143 2.506 . S
Gd120 O144 2.435 . S
Gd120 O145 2.717 . S
Gd120 O147 2.395 . S
Gd120 O151 2.327 . S
Gd121 C132 2.818 . S
Gd121 O141 2.395 . S
Gd121 O145 2.327 . S
Gd121 O146 2.377 . S
Gd121 O148 2.448 . S
Gd121 O149 2.506 . S
Gd121 O150 2.435 . S
Gd121 O151 2.717 . S
C122 O140 1.240 . S
C122 O141 1.240 . S
C123 Gd120 2.818 . S
C123 C124 1.510 . S
C123 O142 1.249 . S
C123 O143 1.252 . S
C124 C123 1.510 . S
C124 C125 1.404 1_556 S
C124 C126 1.352 1_556 S
C125 C124 1.404 1_554 S
C125 C129 1.389 . S
C125 H152 0.930 1_554 S
C126 C124 1.352 1_554 S
C126 C128 1.374 . S
C126 H153 0.931 1_554 S
C127 C128 1.359 . S
C127 C129 1.364 . S
C128 C126 1.374 . S
C128 C127 1.359 . S
C128 H154 0.931 . S
C129 C125 1.389 . S
C129 C127 1.364 . S
C129 H155 0.931 . S
C130 O144 1.256 . S
C130 O145 1.257 . S
C131 O146 1.240 . S
C131 O147 1.240 . S
C132 Gd121 2.818 . S
C132 C133 1.510 . S
C132 O148 1.249 . S
C132 O149 1.252 . S
C133 C132 1.510 . S
C133 C134 1.404 . S
C133 C135 1.352 . S
C134 C133 1.404 . S
C134 C138 1.389 . S
C134 H156 0.930 . S
C135 C133 1.352 . S
C135 C137 1.374 . S
C135 H157 0.931 . S
C136 C137 1.359 . S
C136 C138 1.364 . S
C137 C135 1.374 . S
C137 C136 1.359 . S
C137 H158 0.931 . S
C138 C134 1.389 . S
C138 C136 1.364 . S
C138 H159 0.931 . S
C139 O150 1.256 . S
C139 O151 1.257 . S
O140 Gd120 2.377 . S
O140 C122 1.240 . S
O141 Gd121 2.395 . S
O141 C122 1.240 . S
O142 Gd120 2.448 . S
O142 C123 1.249 . S
O143 Gd120 2.506 . S
O143 C123 1.252 . S
O144 Gd120 2.435 . S
O144 C130 1.256 . S
O145 Gd120 2.717 . S
O145 Gd121 2.327 . S
O145 C130 1.257 . S
O146 Gd121 2.377 . S
O146 C131 1.240 . S
O147 Gd120 2.395 . S
O147 C131 1.240 . S
O148 Gd121 2.448 . S
O148 C132 1.249 . S
O149 Gd121 2.506 . S
O149 C132 1.252 . S
O150 Gd121 2.435 . S
O150 C139 1.256 . S
O151 Gd120 2.327 . S
O151 Gd121 2.717 . S
O151 C139 1.257 . S
H152 C125 0.930 1_556 S
H153 C126 0.931 1_556 S
H154 C128 0.931 . S
H155 C129 0.931 . S
H156 C134 0.930 . S
H157 C135 0.931 . S
H158 C137 0.931 . S
H159 C138 0.931 . S
Gd160 C163 2.818 . S
Gd160 O180 2.377 . S
Gd160 O182 2.448 . S
Gd160 O183 2.506 . S
Gd160 O184 2.435 . S
Gd160 O185 2.717 . S
Gd160 O187 2.395 . S
Gd160 O191 2.327 . S
Gd161 C172 2.818 . S
Gd161 O181 2.395 . S
Gd161 O185 2.327 1_655 S
Gd161 O186 2.377 1_655 S
Gd161 O188 2.448 . S
Gd161 O189 2.506 . S
Gd161 O190 2.435 . S
Gd161 O191 2.717 1_655 S
C162 O180 1.240 1_655 S
C162 O181 1.240 . S
C163 Gd160 2.818 . S
C163 C164 1.510 1_556 S
C163 O182 1.249 . S
C163 O183 1.252 . S
C164 C163 1.510 1_554 S
C164 C165 1.404 . S
C164 C166 1.352 . S
C165 C164 1.404 . S
C165 C169 1.389 . S
C165 H192 0.930 . S
C166 C164 1.352 . S
C166 C168 1.374 . S
C166 H193 0.931 . S
C167 C168 1.359 . S
C167 C169 1.364 . S
C168 C166 1.374 . S
C168 C167 1.359 . S
C168 H194 0.931 . S
C169 C165 1.389 . S
C169 C167 1.364 . S
C169 H195 0.931 . S
C170 O184 1.256 . S
C170 O185 1.257 . S
C171 O186 1.240 . S
C171 O187 1.240 . S
C172 Gd161 2.818 . S
C172 C173 1.510 . S
C172 O188 1.249 . S
C172 O189 1.252 . S
C173 C172 1.510 . S
C173 C174 1.404 . S
C173 C175 1.352 . S
C174 C173 1.404 . S
C174 C178 1.389 . S
C174 H196 0.930 . S
C175 C173 1.352 . S
C175 C177 1.374 . S
C175 H197 0.931 . S
C176 C177 1.359 . S
C176 C178 1.364 . S
C177 C175 1.374 . S
C177 C176 1.359 . S
C177 H198 0.931 . S
C178 C174 1.389 . S
C178 C176 1.364 . S
C178 H199 0.931 . S
C179 O190 1.256 1_455 S
C179 O191 1.257 . S
O180 Gd160 2.377 . S
O180 C162 1.240 1_455 S
O181 Gd161 2.395 . S
O181 C162 1.240 . S
O182 Gd160 2.448 . S
O182 C163 1.249 . S
O183 Gd160 2.506 . S
O183 C163 1.252 . S
O184 Gd160 2.435 . S
O184 C170 1.256 . S
O185 Gd160 2.717 . S
O185 Gd161 2.327 1_455 S
O185 C170 1.257 . S
O186 Gd161 2.377 1_455 S
O186 C171 1.240 . S
O187 Gd160 2.395 . S
O187 C171 1.240 . S
O188 Gd161 2.448 . S
O188 C172 1.249 . S
O189 Gd161 2.506 . S
O189 C172 1.252 . S
O190 Gd161 2.435 . S
O190 C179 1.256 1_655 S
O191 Gd160 2.327 . S
O191 Gd161 2.717 1_455 S
O191 C179 1.257 . S
H192 C165 0.930 . S
H193 C166 0.931 . S
H194 C168 0.931 . S
H195 C169 0.931 . S
H196 C174 0.930 . S
H197 C175 0.931 . S
H198 C177 0.931 . S
H199 C178 0.931 . S
Gd200 C203 2.818 . S
Gd200 O220 2.377 . S
Gd200 O222 2.448 . S
Gd200 O223 2.506 . S
Gd200 O224 2.435 . S
Gd200 O225 2.717 . S
Gd200 O227 2.395 . S
Gd200 O231 2.327 . S
Gd201 C212 2.818 1_554 S
Gd201 O221 2.395 . S
Gd201 O225 2.327 . S
Gd201 O226 2.377 . S
Gd201 O228 2.448 . S
Gd201 O229 2.506 . S
Gd201 O230 2.435 . S
Gd201 O231 2.717 . S
C202 O220 1.240 . S
C202 O221 1.240 . S
C203 Gd200 2.818 . S
C203 C204 1.510 . S
C203 O222 1.249 . S
C203 O223 1.252 . S
C204 C203 1.510 . S
C204 C205 1.404 . S
C204 C206 1.352 . S
C205 C204 1.404 . S
C205 C209 1.389 . S
C205 H232 0.930 . S
C206 C204 1.352 . S
C206 C208 1.374 . S
C206 H233 0.931 . S
C207 C208 1.359 . S
C207 C209 1.364 . S
C208 C206 1.374 . S
C208 C207 1.359 . S
C208 H234 0.931 . S
C209 C205 1.389 . S
C209 C207 1.364 . S
C209 H235 0.931 . S
C210 O224 1.256 . S
C210 O225 1.257 . S
C211 O226 1.240 . S
C211 O227 1.240 . S
C212 Gd201 2.818 1_556 S
C212 C213 1.510 . S
C212 O228 1.249 1_556 S
C212 O229 1.252 1_556 S
C213 C212 1.510 . S
C213 C214 1.404 . S
C213 C215 1.352 . S
C214 C213 1.404 . S
C214 C218 1.389 . S
C214 H236 0.930 . S
C215 C213 1.352 . S
C215 C217 1.374 . S
C215 H237 0.931 . S
C216 C217 1.359 . S
C216 C218 1.364 . S
C217 C215 1.374 . S
C217 C216 1.359 . S
C217 H238 0.931 . S
C218 C214 1.389 . S
C218 C216 1.364 . S
C218 H239 0.931 . S
C219 O230 1.256 . S
C219 O231 1.257 . S
O220 Gd200 2.377 . S
O220 C202 1.240 . S
O221 Gd201 2.395 . S
O221 C202 1.240 . S
O222 Gd200 2.448 . S
O222 C203 1.249 . S
O223 Gd200 2.506 . S
O223 C203 1.252 . S
O224 Gd200 2.435 . S
O224 C210 1.256 . S
O225 Gd200 2.717 . S
O225 Gd201 2.327 . S
O225 C210 1.257 . S
O226 Gd201 2.377 . S
O226 C211 1.240 . S
O227 Gd200 2.395 . S
O227 C211 1.240 . S
O228 Gd201 2.448 . S
O228 C212 1.249 1_554 S
O229 Gd201 2.506 . S
O229 C212 1.252 1_554 S
O230 Gd201 2.435 . S
O230 C219 1.256 . S
O231 Gd200 2.327 . S
O231 Gd201 2.717 . S
O231 C219 1.257 . S
H232 C205 0.930 . S
H233 C206 0.931 . S
H234 C208 0.931 . S
H235 C209 0.931 . S
H236 C214 0.930 . S
H237 C215 0.931 . S
H238 C217 0.931 . S
H239 C218 0.931 . S
Gd240 C243 2.818 . S
Gd240 O260 2.377 . S
Gd240 O262 2.448 . S
Gd240 O263 2.506 . S
Gd240 O264 2.435 . S
Gd240 O265 2.717 . S
Gd240 O267 2.395 . S
Gd240 O271 2.327 . S
Gd241 C252 2.818 . S
Gd241 O261 2.395 . S
Gd241 O265 2.327 . S
Gd241 O266 2.377 . S
Gd241 O268 2.448 . S
Gd241 O269 2.506 . S
Gd241 O270 2.435 . S
Gd241 O271 2.717 . S
C242 O260 1.240 . S
C242 O261 1.240 . S
C243 Gd240 2.818 . S
C243 C244 1.510 . S
C243 O262 1.249 . S
C243 O263 1.252 . S
C244 C243 1.510 . S
C244 C245 1.404 . S
C244 C246 1.352 . S
C245 C244 1.404 . S
C245 C249 1.389 . S
C245 H272 0.930 . S
C246 C244 1.352 . S
C246 C248 1.374 . S
C246 H273 0.931 . S
C247 C248 1.359 . S
C247 C249 1.364 . S
C248 C246 1.374 . S
C248 C247 1.359 . S
C248 H274 0.931 . S
C249 C245 1.389 . S
C249 C247 1.364 . S
C249 H275 0.931 . S
C250 O264 1.256 . S
C250 O265 1.257 . S
C251 O266 1.240 . S
C251 O267 1.240 . S
C252 Gd241 2.818 . S
C252 C253 1.510 . S
C252 O268 1.249 . S
C252 O269 1.252 . S
C253 C252 1.510 . S
C253 C254 1.404 . S
C253 C255 1.352 . S
C254 C253 1.404 . S
C254 C258 1.389 . S
C254 H276 0.930 . S
C255 C253 1.352 . S
C255 C257 1.374 . S
C255 H277 0.931 . S
C256 C257 1.359 . S
C256 C258 1.364 . S
C257 C255 1.374 . S
C257 C256 1.359 . S
C257 H278 0.931 . S
C258 C254 1.389 . S
C258 C256 1.364 . S
C258 H279 0.931 . S
C259 O270 1.256 . S
C259 O271 1.257 . S
O260 Gd240 2.377 . S
O260 C242 1.240 . S
O261 Gd241 2.395 . S
O261 C242 1.240 . S
O262 Gd240 2.448 . S
O262 C243 1.249 . S
O263 Gd240 2.506 . S
O263 C243 1.252 . S
O264 Gd240 2.435 . S
O264 C250 1.256 . S
O265 Gd240 2.717 . S
O265 Gd241 2.327 . S
O265 C250 1.257 . S
O266 Gd241 2.377 . S
O266 C251 1.240 . S
O267 Gd240 2.395 . S
O267 C251 1.240 . S
O268 Gd241 2.448 . S
O268 C252 1.249 . S
O269 Gd241 2.506 . S
O269 C252 1.252 . S
O270 Gd241 2.435 . S
O270 C259 1.256 . S
O271 Gd240 2.327 . S
O271 Gd241 2.717 . S
O271 C259 1.257 . S
H272 C245 0.930 . S
H273 C246 0.931 . S
H274 C248 0.931 . S
H275 C249 0.931 . S
H276 C254 0.930 . S
H277 C255 0.931 . S
H278 C257 0.931 . S
H279 C258 0.931 . S
Gd280 C283 2.818 . S
Gd280 O300 2.377 . S
Gd280 O302 2.448 . S
Gd280 O303 2.506 . S
Gd280 O304 2.435 . S
Gd280 O305 2.717 . S
Gd280 O307 2.395 . S
Gd280 O311 2.327 . S
Gd281 C292 2.818 . S
Gd281 O301 2.395 . S
Gd281 O305 2.327 . S
Gd281 O306 2.377 . S
Gd281 O308 2.448 . S
Gd281 O309 2.506 . S
Gd281 O310 2.435 . S
Gd281 O311 2.717 . S
C282 O300 1.240 . S
C282 O301 1.240 . S
C283 Gd280 2.818 . S
C283 C284 1.510 . S
C283 O302 1.249 . S
C283 O303 1.252 . S
C284 C283 1.510 . S
C284 C285 1.404 . S
C284 C286 1.352 . S
C285 C284 1.404 . S
C285 C289 1.389 . S
C285 H312 0.930 . S
C286 C284 1.352 . S
C286 C288 1.374 . S
C286 H313 0.931 . S
C287 C288 1.359 . S
C287 C289 1.364 . S
C288 C286 1.374 . S
C288 C287 1.359 . S
C288 H314 0.931 . S
C289 C285 1.389 . S
C289 C287 1.364 . S
C289 H315 0.931 . S
C290 O304 1.256 . S
C290 O305 1.257 . S
C291 O306 1.240 . S
C291 O307 1.240 . S
C292 Gd281 2.818 . S
C292 C293 1.510 . S
C292 O308 1.249 . S
C292 O309 1.252 . S
C293 C292 1.510 . S
C293 C294 1.404 . S
C293 C295 1.352 . S
C294 C293 1.404 . S
C294 C298 1.389 . S
C294 H316 0.930 . S
C295 C293 1.352 . S
C295 C297 1.374 . S
C295 H317 0.931 . S
C296 C297 1.359 . S
C296 C298 1.364 . S
C297 C295 1.374 . S
C297 C296 1.359 . S
C297 H318 0.931 . S
C298 C294 1.389 . S
C298 C296 1.364 . S
C298 H319 0.931 . S
C299 O310 1.256 . S
C299 O311 1.257 . S
O300 Gd280 2.377 . S
O300 C282 1.240 . S
O301 Gd281 2.395 . S
O301 C282 1.240 . S
O302 Gd280 2.448 . S
O302 C283 1.249 . S
O303 Gd280 2.506 . S
O303 C283 1.252 . S
O304 Gd280 2.435 . S
O304 C290 1.256 . S
O305 Gd280 2.717 . S
O305 Gd281 2.327 . S
O305 C290 1.257 . S
O306 Gd281 2.377 . S
O306 C291 1.240 . S
O307 Gd280 2.395 . S
O307 C291 1.240 . S
O308 Gd281 2.448 . S
O308 C292 1.249 . S
O309 Gd281 2.506 . S
O309 C292 1.252 . S
O310 Gd281 2.435 . S
O310 C299 1.256 . S
O311 Gd280 2.327 . S
O311 Gd281 2.717 . S
O311 C299 1.257 . S
H312 C285 0.930 . S
H313 C286 0.931 . S
H314 C288 0.931 . S
H315 C289 0.931 . S
H316 C294 0.930 . S
H317 C295 0.931 . S
H318 C297 0.931 . S
H319 C298 0.931 . S
Gd320 C323 2.818 . S
Gd320 O340 2.377 . S
Gd320 O342 2.448 . S
Gd320 O343 2.506 . S
Gd320 O344 2.435 . S
Gd320 O345 2.717 . S
Gd320 O347 2.395 . S
Gd320 O351 2.327 . S
Gd321 C332 2.818 . S
Gd321 O341 2.395 . S
Gd321 O345 2.327 . S
Gd321 O346 2.377 . S
Gd321 O348 2.448 . S
Gd321 O349 2.506 . S
Gd321 O350 2.435 . S
Gd321 O351 2.717 . S
C322 O340 1.240 . S
C322 O341 1.240 . S
C323 Gd320 2.818 . S
C323 C324 1.510 . S
C323 O342 1.249 . S
C323 O343 1.252 . S
C324 C323 1.510 . S
C324 C325 1.404 . S
C324 C326 1.352 . S
C325 C324 1.404 . S
C325 C329 1.389 . S
C325 H352 0.930 . S
C326 C324 1.352 . S
C326 C328 1.374 . S
C326 H353 0.931 . S
C327 C328 1.359 . S
C327 C329 1.364 . S
C328 C326 1.374 . S
C328 C327 1.359 . S
C328 H354 0.931 . S
C329 C325 1.389 . S
C329 C327 1.364 . S
C329 H355 0.931 . S
C330 O344 1.256 . S
C330 O345 1.257 . S
C331 O346 1.240 . S
C331 O347 1.240 . S
C332 Gd321 2.818 . S
C332 C333 1.510 . S
C332 O348 1.249 . S
C332 O349 1.252 . S
C333 C332 1.510 . S
C333 C334 1.404 . S
C333 C335 1.352 . S
C334 C333 1.404 . S
C334 C338 1.389 . S
C334 H356 0.930 . S
C335 C333 1.352 . S
C335 C337 1.374 . S
C335 H357 0.931 . S
C336 C337 1.359 . S
C336 C338 1.364 . S
C337 C335 1.374 . S
C337 C336 1.359 . S
C337 H358 0.931 . S
C338 C334 1.389 . S
C338 C336 1.364 . S
C338 H359 0.931 . S
C339 O350 1.256 . S
C339 O351 1.257 . S
O340 Gd320 2.377 . S
O340 C322 1.240 . S
O341 Gd321 2.395 . S
O341 C322 1.240 . S
O342 Gd320 2.448 . S
O342 C323 1.249 . S
O343 Gd320 2.506 . S
O343 C323 1.252 . S
O344 Gd320 2.435 . S
O344 C330 1.256 . S
O345 Gd320 2.717 . S
O345 Gd321 2.327 . S
O345 C330 1.257 . S
O346 Gd321 2.377 . S
O346 C331 1.240 . S
O347 Gd320 2.395 . S
O347 C331 1.240 . S
O348 Gd321 2.448 . S
O348 C332 1.249 . S
O349 Gd321 2.506 . S
O349 C332 1.252 . S
O350 Gd321 2.435 . S
O350 C339 1.256 . S
O351 Gd320 2.327 . S
O351 Gd321 2.717 . S
O351 C339 1.257 . S
H352 C325 0.930 . S
H353 C326 0.931 . S
H354 C328 0.931 . S
H355 C329 0.931 . S
H356 C334 0.930 . S
H357 C335 0.931 . S
H358 C337 0.931 . S
H359 C338 0.931 . S
Gd360 C363 2.818 . S
Gd360 O380 2.377 . S
Gd360 O382 2.448 . S
Gd360 O383 2.506 . S
Gd360 O384 2.435 . S
Gd360 O385 2.717 . S
Gd360 O387 2.395 . S
Gd360 O391 2.327 . S
Gd361 C372 2.818 . S
Gd361 O381 2.395 . S
Gd361 O385 2.327 . S
Gd361 O386 2.377 . S
Gd361 O388 2.448 . S
Gd361 O389 2.506 . S
Gd361 O390 2.435 . S
Gd361 O391 2.717 . S
C362 O380 1.240 . S
C362 O381 1.240 . S
C363 Gd360 2.818 . S
C363 C364 1.510 . S
C363 O382 1.249 . S
C363 O383 1.252 . S
C364 C363 1.510 . S
C364 C365 1.404 . S
C364 C366 1.352 . S
C365 C364 1.404 . S
C365 C369 1.389 . S
C365 H392 0.930 . S
C366 C364 1.352 . S
C366 C368 1.374 . S
C366 H393 0.931 . S
C367 C368 1.359 . S
C367 C369 1.364 . S
C368 C366 1.374 . S
C368 C367 1.359 . S
C368 H394 0.931 . S
C369 C365 1.389 . S
C369 C367 1.364 . S
C369 H395 0.931 . S
C370 O384 1.256 . S
C370 O385 1.257 . S
C371 O386 1.240 . S
C371 O387 1.240 . S
C372 Gd361 2.818 . S
C372 C373 1.510 . S
C372 O388 1.249 . S
C372 O389 1.252 . S
C373 C372 1.510 . S
C373 C374 1.404 1_554 S
C373 C375 1.352 1_554 S
C374 C373 1.404 1_556 S
C374 C378 1.389 . S
C374 H396 0.930 1_556 S
C375 C373 1.352 1_556 S
C375 C377 1.374 . S
C375 H397 0.931 1_556 S
C376 C377 1.359 . S
C376 C378 1.364 . S
C377 C375 1.374 . S
C377 C376 1.359 . S
C377 H398 0.931 . S
C378 C374 1.389 . S
C378 C376 1.364 . S
C378 H399 0.931 . S
C379 O390 1.256 . S
C379 O391 1.257 . S
O380 Gd360 2.377 . S
O380 C362 1.240 . S
O381 Gd361 2.395 . S
O381 C362 1.240 . S
O382 Gd360 2.448 . S
O382 C363 1.249 . S
O383 Gd360 2.506 . S
O383 C363 1.252 . S
O384 Gd360 2.435 . S
O384 C370 1.256 . S
O385 Gd360 2.717 . S
O385 Gd361 2.327 . S
O385 C370 1.257 . S
O386 Gd361 2.377 . S
O386 C371 1.240 . S
O387 Gd360 2.395 . S
O387 C371 1.240 . S
O388 Gd361 2.448 . S
O388 C372 1.249 . S
O389 Gd361 2.506 . S
O389 C372 1.252 . S
O390 Gd361 2.435 . S
O390 C379 1.256 . S
O391 Gd360 2.327 . S
O391 Gd361 2.717 . S
O391 C379 1.257 . S
H392 C365 0.930 . S
H393 C366 0.931 . S
H394 C368 0.931 . S
H395 C369 0.931 . S
H396 C374 0.930 1_554 S
H397 C375 0.931 1_554 S
H398 C377 0.931 . S
H399 C378 0.931 . S
Gd400 C403 2.818 1_556 S
Gd400 O420 2.377 . S
Gd400 O422 2.448 . S
Gd400 O423 2.506 . S
Gd400 O424 2.435 . S
Gd400 O425 2.717 . S
Gd400 O427 2.395 . S
Gd400 O431 2.327 . S
Gd401 C412 2.818 . S
Gd401 O421 2.395 . S
Gd401 O425 2.327 . S
Gd401 O426 2.377 . S
Gd401 O428 2.448 . S
Gd401 O429 2.506 . S
Gd401 O430 2.435 . S
Gd401 O431 2.717 . S
C402 O420 1.240 . S
C402 O421 1.240 . S
C403 Gd400 2.818 1_554 S
C403 C404 1.510 . S
C403 O422 1.249 1_554 S
C403 O423 1.252 1_554 S
C404 C403 1.510 . S
C404 C405 1.404 . S
C404 C406 1.352 . S
C405 C404 1.404 . S
C405 C409 1.389 . S
C405 H432 0.930 . S
C406 C404 1.352 . S
C406 C408 1.374 . S
C406 H433 0.931 . S
C407 C408 1.359 . S
C407 C409 1.364 . S
C408 C406 1.374 . S
C408 C407 1.359 . S
C408 H434 0.931 . S
C409 C405 1.389 . S
C409 C407 1.364 . S
C409 H435 0.931 . S
C410 O424 1.256 . S
C410 O425 1.257 . S
C411 O426 1.240 . S
C411 O427 1.240 . S
C412 Gd401 2.818 . S
C412 C413 1.510 . S
C412 O428 1.249 . S
C412 O429 1.252 . S
C413 C412 1.510 . S
C413 C414 1.404 . S
C413 C415 1.352 . S
C414 C413 1.404 . S
C414 C418 1.389 . S
C414 H436 0.930 . S
C415 C413 1.352 . S
C415 C417 1.374 . S
C415 H437 0.931 . S
C416 C417 1.359 . S
C416 C418 1.364 . S
C417 C415 1.374 . S
C417 C416 1.359 . S
C417 H438 0.931 . S
C418 C414 1.389 . S
C418 C416 1.364 . S
C418 H439 0.931 . S
C419 O430 1.256 . S
C419 O431 1.257 . S
O420 Gd400 2.377 . S
O420 C402 1.240 . S
O421 Gd401 2.395 . S
O421 C402 1.240 . S
O422 Gd400 2.448 . S
O422 C403 1.249 1_556 S
O423 Gd400 2.506 . S
O423 C403 1.252 1_556 S
O424 Gd400 2.435 . S
O424 C410 1.256 . S
O425 Gd400 2.717 . S
O425 Gd401 2.327 . S
O425 C410 1.257 . S
O426 Gd401 2.377 . S
O426 C411 1.240 . S
O427 Gd400 2.395 . S
O427 C411 1.240 . S
O428 Gd401 2.448 . S
O428 C412 1.249 . S
O429 Gd401 2.506 . S
O429 C412 1.252 . S
O430 Gd401 2.435 . S
O430 C419 1.256 . S
O431 Gd400 2.327 . S
O431 Gd401 2.717 . S
O431 C419 1.257 . S
H432 C405 0.930 . S
H433 C406 0.931 . S
H434 C408 0.931 . S
H435 C409 0.931 . S
H436 C414 0.930 . S
H437 C415 0.931 . S
H438 C417 0.931 . S
H439 C418 0.931 . S
Gd440 C443 2.818 . S
Gd440 O460 2.377 . S
Gd440 O462 2.448 . S
Gd440 O463 2.506 . S
Gd440 O464 2.435 . S
Gd440 O465 2.717 . S
Gd440 O467 2.395 . S
Gd440 O471 2.327 . S
Gd441 C452 2.818 . S
Gd441 O461 2.395 . S
Gd441 O465 2.327 . S
Gd441 O466 2.377 . S
Gd441 O468 2.448 . S
Gd441 O469 2.506 . S
Gd441 O470 2.435 . S
Gd441 O471 2.717 . S
C442 O460 1.240 . S
C442 O461 1.240 . S
C443 Gd440 2.818 . S
C443 C444 1.510 . S
C443 O462 1.249 . S
C443 O463 1.252 . S
C444 C443 1.510 . S
C444 C445 1.404 . S
C444 C446 1.352 . S
C445 C444 1.404 . S
C445 C449 1.389 . S
C445 H472 0.930 . S
C446 C444 1.352 . S
C446 C448 1.374 . S
C446 H473 0.931 . S
C447 C448 1.359 . S
C447 C449 1.364 . S
C448 C446 1.374 . S
C448 C447 1.359 . S
C448 H474 0.931 . S
C449 C445 1.389 . S
C449 C447 1.364 . S
C449 H475 0.931 . S
C450 O464 1.256 . S
C450 O465 1.257 . S
C451 O466 1.240 . S
C451 O467 1.240 . S
C452 Gd441 2.818 . S
C452 C453 1.510 . S
C452 O468 1.249 . S
C452 O469 1.252 . S
C453 C452 1.510 . S
C453 C454 1.404 . S
C453 C455 1.352 . S
C454 C453 1.404 . S
C454 C458 1.389 . S
C454 H476 0.930 . S
C455 C453 1.352 . S
C455 C457 1.374 . S
C455 H477 0.931 . S
C456 C457 1.359 . S
C456 C458 1.364 . S
C457 C455 1.374 . S
C457 C456 1.359 . S
C457 H478 0.931 . S
C458 C454 1.389 . S
C458 C456 1.364 . S
C458 H479 0.931 . S
C459 O470 1.256 . S
C459 O471 1.257 . S
O460 Gd440 2.377 . S
O460 C442 1.240 . S
O461 Gd441 2.395 . S
O461 C442 1.240 . S
O462 Gd440 2.448 . S
O462 C443 1.249 . S
O463 Gd440 2.506 . S
O463 C443 1.252 . S
O464 Gd440 2.435 . S
O464 C450 1.256 . S
O465 Gd440 2.717 . S
O465 Gd441 2.327 . S
O465 C450 1.257 . S
O466 Gd441 2.377 . S
O466 C451 1.240 . S
O467 Gd440 2.395 . S
O467 C451 1.240 . S
O468 Gd441 2.448 . S
O468 C452 1.249 . S
O469 Gd441 2.506 . S
O469 C452 1.252 . S
O470 Gd441 2.435 . S
O470 C459 1.256 . S
O471 Gd440 2.327 . S
O471 Gd441 2.717 . S
O471 C459 1.257 . S
H472 C445 0.930 . S
H473 C446 0.931 . S
H474 C448 0.931 . S
H475 C449 0.931 . S
H476 C454 0.930 . S
H477 C455 0.931 . S
H478 C457 0.931 . S
H479 C458 0.931 . S
Gd480 C483 2.818 . S
Gd480 O500 2.377 . S
Gd480 O502 2.448 . S
Gd480 O503 2.506 . S
Gd480 O504 2.435 . S
Gd480 O505 2.717 . S
Gd480 O507 2.395 . S
Gd480 O511 2.327 . S
Gd481 C492 2.818 . S
Gd481 O501 2.395 . S
Gd481 O505 2.327 . S
Gd481 O506 2.377 . S
Gd481 O508 2.448 . S
Gd481 O509 2.506 . S
Gd481 O510 2.435 . S
Gd481 O511 2.717 . S
C482 O500 1.240 . S
C482 O501 1.240 . S
C483 Gd480 2.818 . S
C483 C484 1.510 . S
C483 O502 1.249 . S
C483 O503 1.252 . S
C484 C483 1.510 . S
C484 C485 1.404 . S
C484 C486 1.352 . S
C485 C484 1.404 . S
C485 C489 1.389 . S
C485 H512 0.930 . S
C486 C484 1.352 . S
C486 C488 1.374 . S
C486 H513 0.931 . S
C487 C488 1.359 . S
C487 C489 1.364 . S
C488 C486 1.374 . S
C488 C487 1.359 . S
C488 H514 0.931 . S
C489 C485 1.389 . S
C489 C487 1.364 . S
C489 H515 0.931 . S
C490 O504 1.256 . S
C490 O505 1.257 . S
C491 O506 1.240 . S
C491 O507 1.240 . S
C492 Gd481 2.818 . S
C492 C493 1.510 . S
C492 O508 1.249 . S
C492 O509 1.252 . S
C493 C492 1.510 . S
C493 C494 1.404 . S
C493 C495 1.352 . S
C494 C493 1.404 . S
C494 C498 1.389 . S
C494 H516 0.930 . S
C495 C493 1.352 . S
C495 C497 1.374 . S
C495 H517 0.931 . S
C496 C497 1.359 . S
C496 C498 1.364 . S
C497 C495 1.374 . S
C497 C496 1.359 . S
C497 H518 0.931 . S
C498 C494 1.389 . S
C498 C496 1.364 . S
C498 H519 0.931 . S
C499 O510 1.256 . S
C499 O511 1.257 . S
O500 Gd480 2.377 . S
O500 C482 1.240 . S
O501 Gd481 2.395 . S
O501 C482 1.240 . S
O502 Gd480 2.448 . S
O502 C483 1.249 . S
O503 Gd480 2.506 . S
O503 C483 1.252 . S
O504 Gd480 2.435 . S
O504 C490 1.256 . S
O505 Gd480 2.717 . S
O505 Gd481 2.327 . S
O505 C490 1.257 . S
O506 Gd481 2.377 . S
O506 C491 1.240 . S
O507 Gd480 2.395 . S
O507 C491 1.240 . S
O508 Gd481 2.448 . S
O508 C492 1.249 . S
O509 Gd481 2.506 . S
O509 C492 1.252 . S
O510 Gd481 2.435 . S
O510 C499 1.256 . S
O511 Gd480 2.327 . S
O511 Gd481 2.717 . S
O511 C499 1.257 . S
H512 C485 0.930 . S
H513 C486 0.931 . S
H514 C488 0.931 . S
H515 C489 0.931 . S
H516 C494 0.930 . S
H517 C495 0.931 . S
H518 C497 0.931 . S
H519 C498 0.931 . S
Gd520 C523 2.818 1_455 S
Gd520 O540 2.377 . S
Gd520 O542 2.448 1_455 S
Gd520 O543 2.506 1_455 S
Gd520 O544 2.435 . S
Gd520 O545 2.717 . S
Gd520 O547 2.395 1_455 S
Gd520 O551 2.327 . S
Gd521 C532 2.818 . S
Gd521 O541 2.395 . S
Gd521 O545 2.327 . S
Gd521 O546 2.377 . S
Gd521 O548 2.448 . S
Gd521 O549 2.506 . S
Gd521 O550 2.435 . S
Gd521 O551 2.717 . S
C522 O540 1.240 . S
C522 O541 1.240 . S
C523 Gd520 2.818 1_655 S
C523 C524 1.510 1_554 S
C523 O542 1.249 . S
C523 O543 1.252 . S
C524 C523 1.510 1_556 S
C524 C525 1.404 . S
C524 C526 1.352 . S
C525 C524 1.404 . S
C525 C529 1.389 . S
C525 H552 0.930 . S
C526 C524 1.352 . S
C526 C528 1.374 . S
C526 H553 0.931 . S
C527 C528 1.359 . S
C527 C529 1.364 . S
C528 C526 1.374 . S
C528 C527 1.359 . S
C528 H554 0.931 . S
C529 C525 1.389 . S
C529 C527 1.364 . S
C529 H555 0.931 . S
C530 O544 1.256 . S
C530 O545 1.257 . S
C531 O546 1.240 . S
C531 O547 1.240 1_455 S
C532 Gd521 2.818 . S
C532 C533 1.510 . S
C532 O548 1.249 . S
C532 O549 1.252 . S
C533 C532 1.510 . S
C533 C534 1.404 . S
C533 C535 1.352 . S
C534 C533 1.404 . S
C534 C538 1.389 . S
C534 H556 0.930 . S
C535 C533 1.352 . S
C535 C537 1.374 . S
C535 H557 0.931 . S
C536 C537 1.359 . S
C536 C538 1.364 . S
C537 C535 1.374 . S
C537 C536 1.359 . S
C537 H558 0.931 . S
C538 C534 1.389 . S
C538 C536 1.364 . S
C538 H559 0.931 . S
C539 O550 1.256 . S
C539 O551 1.257 . S
O540 Gd520 2.377 . S
O540 C522 1.240 . S
O541 Gd521 2.395 . S
O541 C522 1.240 . S
O542 Gd520 2.448 1_655 S
O542 C523 1.249 . S
O543 Gd520 2.506 1_655 S
O543 C523 1.252 . S
O544 Gd520 2.435 . S
O544 C530 1.256 . S
O545 Gd520 2.717 . S
O545 Gd521 2.327 . S
O545 C530 1.257 . S
O546 Gd521 2.377 . S
O546 C531 1.240 . S
O547 Gd520 2.395 1_655 S
O547 C531 1.240 1_655 S
O548 Gd521 2.448 . S
O548 C532 1.249 . S
O549 Gd521 2.506 . S
O549 C532 1.252 . S
O550 Gd521 2.435 . S
O550 C539 1.256 . S
O551 Gd520 2.327 . S
O551 Gd521 2.717 . S
O551 C539 1.257 . S
H552 C525 0.930 . S
H553 C526 0.931 . S
H554 C528 0.931 . S
H555 C529 0.931 . S
H556 C534 0.930 . S
H557 C535 0.931 . S
H558 C537 0.931 . S
H559 C538 0.931 . S
Gd560 C563 2.818 . S
Gd560 O580 2.377 . S
Gd560 O582 2.448 . S
Gd560 O583 2.506 . S
Gd560 O584 2.435 . S
Gd560 O585 2.717 . S
Gd560 O587 2.395 . S
Gd560 O591 2.327 . S
Gd561 C572 2.818 . S
Gd561 O581 2.395 . S
Gd561 O585 2.327 . S
Gd561 O586 2.377 . S
Gd561 O588 2.448 . S
Gd561 O589 2.506 . S
Gd561 O590 2.435 . S
Gd561 O591 2.717 . S
C562 O580 1.240 . S
C562 O581 1.240 . S
C563 Gd560 2.818 . S
C563 C564 1.510 . S
C563 O582 1.249 . S
C563 O583 1.252 . S
C564 C563 1.510 . S
C564 C565 1.404 . S
C564 C566 1.352 . S
C565 C564 1.404 . S
C565 C569 1.389 . S
C565 H592 0.930 . S
C566 C564 1.352 . S
C566 C568 1.374 . S
C566 H593 0.931 . S
C567 C568 1.359 . S
C567 C569 1.364 . S
C568 C566 1.374 . S
C568 C567 1.359 . S
C568 H594 0.931 . S
C569 C565 1.389 . S
C569 C567 1.364 . S
C569 H595 0.931 . S
C570 O584 1.256 . S
C570 O585 1.257 . S
C571 O586 1.240 . S
C571 O587 1.240 . S
C572 Gd561 2.818 . S
C572 C573 1.510 . S
C572 O588 1.249 . S
C572 O589 1.252 . S
C573 C572 1.510 . S
C573 C574 1.404 . S
C573 C575 1.352 . S
C574 C573 1.404 . S
C574 C578 1.389 . S
C574 H596 0.930 . S
C575 C573 1.352 . S
C575 C577 1.374 . S
C575 H597 0.931 . S
C576 C577 1.359 . S
C576 C578 1.364 . S
C577 C575 1.374 . S
C577 C576 1.359 . S
C577 H598 0.931 . S
C578 C574 1.389 . S
C578 C576 1.364 . S
C578 H599 0.931 . S
C579 O590 1.256 . S
C579 O591 1.257 . S
O580 Gd560 2.377 . S
O580 C562 1.240 . S
O581 Gd561 2.395 . S
O581 C562 1.240 . S
O582 Gd560 2.448 . S
O582 C563 1.249 . S
O583 Gd560 2.506 . S
O583 C563 1.252 . S
O584 Gd560 2.435 . S
O584 C570 1.256 . S
O585 Gd560 2.717 . S
O585 Gd561 2.327 . S
O585 C570 1.257 . S
O586 Gd561 2.377 . S
O586 C571 1.240 . S
O587 Gd560 2.395 . S
O587 C571 1.240 . S
O588 Gd561 2.448 . S
O588 C572 1.249 . S
O589 Gd561 2.506 . S
O589 C572 1.252 . S
O590 Gd561 2.435 . S
O590 C579 1.256 . S
O591 Gd560 2.327 . S
O591 Gd561 2.717 . S
O591 C579 1.257 . S
H592 C565 0.930 . S
H593 C566 0.931 . S
H594 C568 0.931 . S
H595 C569 0.931 . S
H596 C574 0.930 . S
H597 C575 0.931 . S
H598 C577 0.931 . S
H599 C578 0.931 . S
Gd600 C603 2.818 . S
Gd600 O620 2.377 1_655 S
Gd600 O622 2.448 . S
Gd600 O623 2.506 . S
Gd600 O624 2.435 . S
Gd600 O625 2.717 1_655 S
Gd600 O627 2.395 . S
Gd600 O631 2.327 . S
Gd601 C612 2.818 . S
Gd601 O621 2.395 . S
Gd601 O625 2.327 . S
Gd601 O626 2.377 1_455 S
Gd601 O628 2.448 . S
Gd601 O629 2.506 . S
Gd601 O630 2.435 . S
Gd601 O631 2.717 1_455 S
C602 O620 1.240 . S
C602 O621 1.240 . S
C603 Gd600 2.818 . S
C603 C604 1.510 . S
C603 O622 1.249 . S
C603 O623 1.252 . S
C604 C603 1.510 . S
C604 C605 1.404 . S
C604 C606 1.352 . S
C605 C604 1.404 . S
C605 C609 1.389 . S
C605 H632 0.930 . S
C606 C604 1.352 . S
C606 C608 1.374 . S
C606 H633 0.931 . S
C607 C608 1.359 . S
C607 C609 1.364 . S
C608 C606 1.374 . S
C608 C607 1.359 . S
C608 H634 0.931 . S
C609 C605 1.389 . S
C609 C607 1.364 . S
C609 H635 0.931 . S
C610 O624 1.256 . S
C610 O625 1.257 1_655 S
C611 O626 1.240 . S
C611 O627 1.240 . S
C612 Gd601 2.818 . S
C612 C613 1.510 1_556 S
C612 O628 1.249 . S
C612 O629 1.252 . S
C613 C612 1.510 1_554 S
C613 C614 1.404 . S
C613 C615 1.352 . S
C614 C613 1.404 . S
C614 C618 1.389 . S
C614 H636 0.930 . S
C615 C613 1.352 . S
C615 C617 1.374 . S
C615 H637 0.931 . S
C616 C617 1.359 . S
C616 C618 1.364 . S
C617 C615 1.374 . S
C617 C616 1.359 . S
C617 H638 0.931 . S
C618 C614 1.389 . S
C618 C616 1.364 . S
C618 H639 0.931 . S
C619 O630 1.256 . S
C619 O631 1.257 1_455 S
O620 Gd600 2.377 1_455 S
O620 C602 1.240 . S
O621 Gd601 2.395 . S
O621 C602 1.240 . S
O622 Gd600 2.448 . S
O622 C603 1.249 . S
O623 Gd600 2.506 . S
O623 C603 1.252 . S
O624 Gd600 2.435 . S
O624 C610 1.256 . S
O625 Gd600 2.717 1_455 S
O625 Gd601 2.327 . S
O625 C610 1.257 1_455 S
O626 Gd601 2.377 1_655 S
O626 C611 1.240 . S
O627 Gd600 2.395 . S
O627 C611 1.240 . S
O628 Gd601 2.448 . S
O628 C612 1.249 . S
O629 Gd601 2.506 . S
O629 C612 1.252 . S
O630 Gd601 2.435 . S
O630 C619 1.256 . S
O631 Gd600 2.327 . S
O631 Gd601 2.717 1_655 S
O631 C619 1.257 1_655 S
H632 C605 0.930 . S
H633 C606 0.931 . S
H634 C608 0.931 . S
H635 C609 0.931 . S
H636 C614 0.930 . S
H637 C615 0.931 . S
H638 C617 0.931 . S
H639 C618 0.931 . S
H640 C646 0.930 1_556 S
H641 C649 0.930 . S
H642 C650 0.930 . S
H643 C651 0.930 . S
H644 C654 0.930 . S
H645 C655 0.930 . S
C646 H640 0.930 1_554 S
C646 C647 1.355 . S
C646 C648 1.415 1_554 S
C647 C646 1.355 . S
C647 C649 1.419 . S
C648 C646 1.415 1_556 S
C648 C653 1.425 . S
C648 C655 1.409 . S
C649 H641 0.930 . S
C649 C647 1.419 . S
C649 C650 1.362 . S
C650 H642 0.930 . S
C650 C649 1.362 . S
C650 C653 1.409 1_554 S
C651 H643 0.930 . S
C651 C652 1.355 . S
C651 C653 1.415 . S
C652 C651 1.355 . S
C652 C654 1.419 . S
C653 C648 1.425 . S
C653 C650 1.409 1_556 S
C653 C651 1.415 . S
C654 H644 0.930 . S
C654 C652 1.419 . S
C654 C655 1.362 . S
C655 H645 0.930 . S
C655 C648 1.409 . S
C655 C654 1.362 . S
H656 C662 0.930 . S
H657 C665 0.930 . S
H658 C666 0.930 . S
H659 C667 0.930 . S
H660 C670 0.930 . S
H661 C671 0.930 . S
C662 H656 0.930 . S
C662 C663 1.355 . S
C662 C664 1.415 . S
C663 C662 1.355 . S
C663 C665 1.419 . S
C664 C662 1.415 . S
C664 C669 1.425 . S
C664 C671 1.409 . S
C665 H657 0.930 . S
C665 C663 1.419 . S
C665 C666 1.362 . S
C666 H658 0.930 . S
C666 C665 1.362 . S
C666 C669 1.409 . S
C667 H659 0.930 . S
C667 C668 1.355 . S
C667 C669 1.415 . S
C668 C667 1.355 . S
C668 C670 1.419 . S
C669 C664 1.425 . S
C669 C666 1.409 . S
C669 C667 1.415 . S
C670 H660 0.930 . S
C670 C668 1.419 . S
C670 C671 1.362 . S
C671 H661 0.930 . S
C671 C664 1.409 . S
C671 C670 1.362 . S
H672 C678 0.930 . S
H673 C681 0.930 . S
H674 C682 0.930 . S
H675 C683 0.930 . S
H676 C686 0.930 . S
H677 C687 0.930 . S
C678 H672 0.930 . S
C678 C679 1.355 . S
C678 C680 1.415 . S
C679 C678 1.355 . S
C679 C681 1.419 . S
C680 C678 1.415 . S
C680 C685 1.425 . S
C680 C687 1.409 . S
C681 H673 0.930 . S
C681 C679 1.419 . S
C681 C682 1.362 . S
C682 H674 0.930 . S
C682 C681 1.362 . S
C682 C685 1.409 . S
C683 H675 0.930 . S
C683 C684 1.355 . S
C683 C685 1.415 . S
C684 C683 1.355 . S
C684 C686 1.419 . S
C685 C680 1.425 . S
C685 C682 1.409 . S
C685 C683 1.415 . S
C686 H676 0.930 . S
C686 C684 1.419 . S
C686 C687 1.362 . S
C687 H677 0.930 . S
C687 C680 1.409 . S
C687 C686 1.362 . S
H688 C694 0.930 . S
H689 C697 0.930 . S
H690 C698 0.930 . S
H691 C699 0.930 . S
H692 C702 0.930 . S
H693 C703 0.930 . S
C694 H688 0.930 . S
C694 C695 1.355 . S
C694 C696 1.415 . S
C695 C694 1.355 . S
C695 C697 1.419 . S
C696 C694 1.415 . S
C696 C701 1.425 . S
C696 C703 1.409 . S
C697 H689 0.930 . S
C697 C695 1.419 . S
C697 C698 1.362 . S
C698 H690 0.930 . S
C698 C697 1.362 . S
C698 C701 1.409 . S
C699 H691 0.930 . S
C699 C700 1.355 . S
C699 C701 1.415 . S
C700 C699 1.355 . S
C700 C702 1.419 . S
C701 C696 1.425 . S
C701 C698 1.409 . S
C701 C699 1.415 . S
C702 H692 0.930 . S
C702 C700 1.419 . S
C702 C703 1.362 . S
C703 H693 0.930 . S
C703 C696 1.409 . S
C703 C702 1.362 . S
H704 C710 0.930 . S
H705 C713 0.930 . S
H706 C714 0.930 . S
H707 C715 0.930 1_455 S
H708 C718 0.930 . S
H709 C719 0.930 . S
C710 H704 0.930 . S
C710 C711 1.355 . S
C710 C712 1.415 . S
C711 C710 1.355 . S
C711 C713 1.419 . S
C712 C710 1.415 . S
C712 C717 1.425 . S
C712 C719 1.409 1_554 S
C713 H705 0.930 . S
C713 C711 1.419 . S
C713 C714 1.362 . S
C714 H706 0.930 . S
C714 C713 1.362 . S
C714 C717 1.409 . S
C715 H707 0.930 1_655 S
C715 C716 1.355 . S
C715 C717 1.415 1_556 S
C716 C715 1.355 . S
C716 C718 1.419 . S
C717 C712 1.425 . S
C717 C714 1.409 . S
C717 C715 1.415 1_554 S
C718 H708 0.930 . S
C718 C716 1.419 . S
C718 C719 1.362 . S
C719 H709 0.930 . S
C719 C712 1.409 1_556 S
C719 C718 1.362 . S
H720 C726 0.930 . S
H721 C729 0.930 . S
H722 C730 0.930 . S
H723 C731 0.930 . S
H724 C734 0.930 . S
H725 C735 0.930 . S
C726 H720 0.930 . S
C726 C727 1.355 . S
C726 C728 1.415 . S
C727 C726 1.355 . S
C727 C729 1.419 . S
C728 C726 1.415 . S
C728 C733 1.425 . S
C728 C735 1.409 . S
C729 H721 0.930 . S
C729 C727 1.419 . S
C729 C730 1.362 . S
C730 H722 0.930 . S
C730 C729 1.362 . S
C730 C733 1.409 . S
C731 H723 0.930 . S
C731 C732 1.355 . S
C731 C733 1.415 . S
C732 C731 1.355 . S
C732 C734 1.419 . S
C733 C728 1.425 . S
C733 C730 1.409 . S
C733 C731 1.415 . S
C734 H724 0.930 . S
C734 C732 1.419 . S
C734 C735 1.362 . S
C735 H725 0.930 . S
C735 C728 1.409 . S
C735 C734 1.362 . S
H736 C742 0.930 . S
H737 C745 0.930 . S
H738 C746 0.930 . S
H739 C747 0.930 . S
H740 C750 0.930 . S
H741 C751 0.930 . S
C742 H736 0.930 . S
C742 C743 1.355 . S
C742 C744 1.415 . S
C743 C742 1.355 . S
C743 C745 1.419 . S
C744 C742 1.415 . S
C744 C749 1.425 . S
C744 C751 1.409 . S
C745 H737 0.930 . S
C745 C743 1.419 . S
C745 C746 1.362 . S
C746 H738 0.930 . S
C746 C745 1.362 . S
C746 C749 1.409 . S
C747 H739 0.930 . S
C747 C748 1.355 . S
C747 C749 1.415 . S
C748 C747 1.355 . S
C748 C750 1.419 . S
C749 C744 1.425 . S
C749 C746 1.409 . S
C749 C747 1.415 . S
C750 H740 0.930 . S
C750 C748 1.419 . S
C750 C751 1.362 . S
C751 H741 0.930 . S
C751 C744 1.409 . S
C751 C750 1.362 . S
H752 C758 0.930 . S
H753 C761 0.930 . S
H754 C762 0.930 . S
H755 C763 0.930 . S
H756 C766 0.930 . S
H757 C767 0.930 . S
C758 H752 0.930 . S
C758 C759 1.355 . S
C758 C760 1.415 . S
C759 C758 1.355 . S
C759 C761 1.419 . S
C760 C758 1.415 . S
C760 C765 1.425 . S
C760 C767 1.409 . S
C761 H753 0.930 . S
C761 C759 1.419 . S
C761 C762 1.362 . S
C762 H754 0.930 . S
C762 C761 1.362 . S
C762 C765 1.409 . S
C763 H755 0.930 . S
C763 C764 1.355 . S
C763 C765 1.415 . S
C764 C763 1.355 . S
C764 C766 1.419 . S
C765 C760 1.425 . S
C765 C762 1.409 . S
C765 C763 1.415 . S
C766 H756 0.930 . S
C766 C764 1.419 . S
C766 C767 1.362 . S
C767 H757 0.930 . S
C767 C760 1.409 . S
C767 C766 1.362 . S
H768 C774 0.930 . S
H769 C777 0.930 . S
H770 C778 0.930 . S
H771 C779 0.930 . S
H772 C782 0.930 . S
H773 C783 0.930 . S
C774 H768 0.930 . S
C774 C775 1.355 . S
C774 C776 1.415 . S
C775 C774 1.355 . S
C775 C777 1.419 . S
C776 C774 1.415 . S
C776 C781 1.425 . S
C776 C783 1.409 . S
C777 H769 0.930 . S
C777 C775 1.419 . S
C777 C778 1.362 . S
C778 H770 0.930 . S
C778 C777 1.362 . S
C778 C781 1.409 . S
C779 H771 0.930 . S
C779 C780 1.355 . S
C779 C781 1.415 . S
C780 C779 1.355 . S
C780 C782 1.419 . S
C781 C776 1.425 . S
C781 C778 1.409 . S
C781 C779 1.415 . S
C782 H772 0.930 . S
C782 C780 1.419 . S
C782 C783 1.362 . S
C783 H773 0.930 . S
C783 C776 1.409 . S
C783 C782 1.362 . S
H784 C790 0.930 . S
H785 C793 0.930 . S
H786 C794 0.930 . S
H787 C795 0.930 . S
H788 C798 0.930 . S
H789 C799 0.930 . S
C790 H784 0.930 . S
C790 C791 1.355 . S
C790 C792 1.415 . S
C791 C790 1.355 . S
C791 C793 1.419 . S
C792 C790 1.415 . S
C792 C797 1.425 . S
C792 C799 1.409 . S
C793 H785 0.930 . S
C793 C791 1.419 . S
C793 C794 1.362 . S
C794 H786 0.930 . S
C794 C793 1.362 . S
C794 C797 1.409 . S
C795 H787 0.930 . S
C795 C796 1.355 . S
C795 C797 1.415 . S
C796 C795 1.355 . S
C796 C798 1.419 . S
C797 C792 1.425 . S
C797 C794 1.409 . S
C797 C795 1.415 . S
C798 H788 0.930 . S
C798 C796 1.419 . S
C798 C799 1.362 . S
C799 H789 0.930 . S
C799 C792 1.409 . S
C799 C798 1.362 . S
H800 C806 0.930 . S
H801 C809 0.930 . S
H802 C810 0.930 . S
H803 C811 0.930 . S
H804 C814 0.930 . S
H805 C815 0.930 . S
C806 H800 0.930 . S
C806 C807 1.355 . S
C806 C808 1.415 . S
C807 C806 1.355 . S
C807 C809 1.419 . S
C808 C806 1.415 . S
C808 C813 1.425 . S
C808 C815 1.409 . S
C809 H801 0.930 . S
C809 C807 1.419 . S
C809 C810 1.362 . S
C810 H802 0.930 . S
C810 C809 1.362 . S
C810 C813 1.409 . S
C811 H803 0.930 . S
C811 C812 1.355 . S
C811 C813 1.415 . S
C812 C811 1.355 . S
C812 C814 1.419 . S
C813 C808 1.425 . S
C813 C810 1.409 . S
C813 C811 1.415 . S
C814 H804 0.930 . S
C814 C812 1.419 . S
C814 C815 1.362 . S
C815 H805 0.930 . S
C815 C808 1.409 . S
C815 C814 1.362 . S
H816 C822 0.930 . S
H817 C825 0.930 . S
H818 C826 0.930 . S
H819 C827 0.930 . S
H820 C830 0.930 . S
H821 C831 0.930 . S
C822 H816 0.930 . S
C822 C823 1.355 . S
C822 C824 1.415 . S
C823 C822 1.355 . S
C823 C825 1.419 . S
C824 C822 1.415 . S
C824 C829 1.425 . S
C824 C831 1.409 . S
C825 H817 0.930 . S
C825 C823 1.419 . S
C825 C826 1.362 . S
C826 H818 0.930 . S
C826 C825 1.362 . S
C826 C829 1.409 . S
C827 H819 0.930 . S
C827 C828 1.355 . S
C827 C829 1.415 . S
C828 C827 1.355 . S
C828 C830 1.419 . S
C829 C824 1.425 . S
C829 C826 1.409 . S
C829 C827 1.415 . S
C830 H820 0.930 . S
C830 C828 1.419 . S
C830 C831 1.362 . S
C831 H821 0.930 . S
C831 C824 1.409 . S
C831 C830 1.362 . S
H832 C838 0.930 . S
H833 C841 0.930 . S
H834 C842 0.930 . S
H835 C843 0.930 . S
H836 C846 0.930 . S
H837 C847 0.930 . S
C838 H832 0.930 . S
C838 C839 1.355 . S
C838 C840 1.415 . S
C839 C838 1.355 . S
C839 C841 1.419 . S
C840 C838 1.415 . S
C840 C845 1.425 . S
C840 C847 1.409 . S
C841 H833 0.930 . S
C841 C839 1.419 . S
C841 C842 1.362 . S
C842 H834 0.930 . S
C842 C841 1.362 . S
C842 C845 1.409 . S
C843 H835 0.930 . S
C843 C844 1.355 . S
C843 C845 1.415 . S
C844 C843 1.355 . S
C844 C846 1.419 . S
C845 C840 1.425 . S
C845 C842 1.409 . S
C845 C843 1.415 . S
C846 H836 0.930 . S
C846 C844 1.419 . S
C846 C847 1.362 . S
C847 H837 0.930 . S
C847 C840 1.409 . S
C847 C846 1.362 . S
H848 C854 0.930 . S
H849 C857 0.930 . S
H850 C858 0.930 . S
H851 C859 0.930 . S
H852 C862 0.930 . S
H853 C863 0.930 . S
C854 H848 0.930 . S
C854 C855 1.355 . S
C854 C856 1.415 . S
C855 C854 1.355 . S
C855 C857 1.419 . S
C856 C854 1.415 . S
C856 C861 1.425 . S
C856 C863 1.409 . S
C857 H849 0.930 . S
C857 C855 1.419 . S
C857 C858 1.362 . S
C858 H850 0.930 . S
C858 C857 1.362 . S
C858 C861 1.409 . S
C859 H851 0.930 . S
C859 C860 1.355 . S
C859 C861 1.415 . S
C860 C859 1.355 . S
C860 C862 1.419 . S
C861 C856 1.425 . S
C861 C858 1.409 . S
C861 C859 1.415 . S
C862 H852 0.930 . S
C862 C860 1.419 . S
C862 C863 1.362 . S
C863 H853 0.930 . S
C863 C856 1.409 . S
C863 C862 1.362 . S
H864 C870 0.930 . S
H865 C873 0.930 . S
H866 C874 0.930 . S
H867 C875 0.930 . S
H868 C878 0.930 . S
H869 C879 0.930 . S
C870 H864 0.930 . S
C870 C871 1.355 . S
C870 C872 1.415 . S
C871 C870 1.355 . S
C871 C873 1.419 . S
C872 C870 1.415 . S
C872 C877 1.425 . S
C872 C879 1.409 . S
C873 H865 0.930 . S
C873 C871 1.419 . S
C873 C874 1.362 . S
C874 H866 0.930 . S
C874 C873 1.362 . S
C874 C877 1.409 . S
C875 H867 0.930 . S
C875 C876 1.355 . S
C875 C877 1.415 . S
C876 C875 1.355 . S
C876 C878 1.419 . S
C877 C872 1.425 . S
C877 C874 1.409 . S
C877 C875 1.415 . S
C878 H868 0.930 . S
C878 C876 1.419 . S
C878 C879 1.362 . S
C879 H869 0.930 . S
C879 C872 1.409 . S
C879 C878 1.362 . S
H880 C886 0.930 . S
H881 C889 0.930 . S
H882 C890 0.930 . S
H883 C891 0.930 . S
H884 C894 0.930 . S
H885 C895 0.930 . S
C886 H880 0.930 . S
C886 C887 1.355 . S
C886 C888 1.415 . S
C887 C886 1.355 . S
C887 C889 1.419 . S
C888 C886 1.415 . S
C888 C893 1.425 . S
C888 C895 1.409 . S
C889 H881 0.930 . S
C889 C887 1.419 . S
C889 C890 1.362 . S
C890 H882 0.930 . S
C890 C889 1.362 . S
C890 C893 1.409 . S
C891 H883 0.930 . S
C891 C892 1.355 . S
C891 C893 1.415 . S
C892 C891 1.355 . S
C892 C894 1.419 . S
C893 C888 1.425 . S
C893 C890 1.409 . S
C893 C891 1.415 . S
C894 H884 0.930 . S
C894 C892 1.419 . S
C894 C895 1.362 . S
C895 H885 0.930 . S
C895 C888 1.409 . S
C895 C894 1.362 . S
H896 C902 0.930 . S
H897 C905 0.930 . S
H898 C906 0.930 . S
H899 C907 0.930 . S
H900 C910 0.930 1_655 S
H901 C911 0.919 1_655 S
C902 H896 0.930 . S
C902 C903 1.355 . S
C902 C904 1.415 . S
C903 C902 1.355 . S
C903 C905 1.419 . S
C904 C902 1.415 . S
C904 C909 1.425 . S
C904 C911 1.417 . S
C905 H897 0.930 . S
C905 C903 1.419 . S
C905 C906 1.362 . S
C906 H898 0.930 . S
C906 C905 1.362 . S
C906 C909 1.409 . S
C907 H899 0.930 . S
C907 C908 1.355 . S
C907 C909 1.415 . S
C908 C907 1.355 . S
C908 C910 1.419 . S
C909 C904 1.425 . S
C909 C906 1.409 . S
C909 C907 1.415 . S
C910 H900 0.930 1_455 S
C910 C908 1.419 . S
C910 C911 1.365 . S
C911 H901 0.919 1_455 S
C911 C904 1.417 . S
C911 C910 1.365 . S
H912 C918 0.930 . S
H913 C921 0.930 . S
H914 C922 0.930 . S
H915 C923 0.930 . S
H916 C926 0.930 . S
H917 C927 0.930 . S
C918 H912 0.930 . S
C918 C919 1.355 . S
C918 C920 1.430 . S
C919 C918 1.355 . S
C919 C921 1.419 1_655 S
C920 C918 1.430 . S
C920 C925 1.413 1_655 S
C920 C927 1.406 . S
C921 H913 0.930 . S
C921 C919 1.419 1_455 S
C921 C922 1.362 . S
C922 H914 0.930 . S
C922 C921 1.362 . S
C922 C925 1.409 . S
C923 H915 0.930 . S
C923 C924 1.355 . S
C923 C925 1.415 . S
C924 C923 1.355 . S
C924 C926 1.419 . S
C925 C920 1.413 1_455 S
C925 C922 1.409 . S
C925 C923 1.415 . S
C926 H916 0.930 . S
C926 C924 1.419 . S
C926 C927 1.362 1_455 S
C927 H917 0.930 . S
C927 C920 1.406 . S
C927 C926 1.362 1_655 S
H928 C934 0.930 . S
H929 C937 0.930 . S
H930 C938 0.930 . S
H931 C939 0.930 . S
H932 C942 0.930 . S
H933 C943 0.930 . S
C934 H928 0.930 . S
C934 C935 1.355 . S
C934 C936 1.415 . S
C935 C934 1.355 . S
C935 C937 1.419 . S
C936 C934 1.415 . S
C936 C941 1.425 . S
C936 C943 1.409 . S
C937 H929 0.930 . S
C937 C935 1.419 . S
C937 C938 1.362 . S
C938 H930 0.930 . S
C938 C937 1.362 . S
C938 C941 1.409 . S
C939 H931 0.930 . S
C939 C940 1.355 . S
C939 C941 1.415 . S
C940 C939 1.355 . S
C940 C942 1.419 . S
C941 C936 1.425 . S
C941 C938 1.409 . S
C941 C939 1.415 . S
C942 H932 0.930 . S
C942 C940 1.419 . S
C942 C943 1.362 . S
C943 H933 0.930 . S
C943 C936 1.409 . S
C943 C942 1.362 . S
H944 C950 0.930 . S
H945 C953 0.930 . S
H946 C954 0.930 . S
H947 C955 0.930 . S
H948 C958 0.930 . S
H949 C959 0.930 . S
C950 H944 0.930 . S
C950 C951 1.355 . S
C950 C952 1.415 . S
C951 C950 1.355 . S
C951 C953 1.419 . S
C952 C950 1.415 . S
C952 C957 1.425 . S
C952 C959 1.409 . S
C953 H945 0.930 . S
C953 C951 1.419 . S
C953 C954 1.362 . S
C954 H946 0.930 . S
C954 C953 1.362 . S
C954 C957 1.409 . S
C955 H947 0.930 . S
C955 C956 1.355 . S
C955 C957 1.415 . S
C956 C955 1.355 . S
C956 C958 1.419 . S
C957 C952 1.425 . S
C957 C954 1.409 . S
C957 C955 1.415 . S
C958 H948 0.930 . S
C958 C956 1.419 . S
C958 C959 1.362 . S
C959 H949 0.930 . S
C959 C952 1.409 . S
C959 C958 1.362 . S
H960 C966 0.930 . S
H961 C969 0.930 . S
H962 C970 0.930 . S
H963 C971 0.930 . S
H964 C974 0.930 . S
H965 C975 0.930 . S
C966 H960 0.930 . S
C966 C967 1.355 1_655 S
C966 C968 1.415 . S
C967 C966 1.355 1_455 S
C967 C969 1.419 . S
C968 C966 1.415 . S
C968 C973 1.425 1_655 S
C968 C975 1.409 . S
C969 H961 0.930 . S
C969 C967 1.419 . S
C969 C970 1.362 . S
C970 H962 0.930 . S
C970 C969 1.362 . S
C970 C973 1.409 . S
C971 H963 0.930 . S
C971 C972 1.355 1_455 S
C971 C973 1.415 . S
C972 C971 1.355 1_655 S
C972 C974 1.419 . S
C973 C968 1.425 1_455 S
C973 C970 1.409 . S
C973 C971 1.415 . S
C974 H964 0.930 . S
C974 C972 1.419 . S
C974 C975 1.362 . S
C975 H965 0.930 . S
C975 C968 1.409 . S
C975 C974 1.362 . S
H976 C982 0.930 . S
H977 C985 0.930 . S
H978 C986 0.930 . S
H979 C987 0.930 . S
H980 C990 0.930 . S
H981 C991 0.930 . S
C982 H976 0.930 . S
C982 C983 1.355 . S
C982 C984 1.415 . S
C983 C982 1.355 . S
C983 C985 1.419 . S
C984 C982 1.415 . S
C984 C989 1.425 . S
C984 C991 1.409 . S
C985 H977 0.930 . S
C985 C983 1.419 . S
C985 C986 1.362 . S
C986 H978 0.930 . S
C986 C985 1.362 . S
C986 C989 1.409 . S
C987 H979 0.930 . S
C987 C988 1.355 . S
C987 C989 1.415 . S
C988 C987 1.355 . S
C988 C990 1.419 . S
C989 C984 1.425 . S
C989 C986 1.409 . S
C989 C987 1.415 . S
C990 H980 0.930 . S
C990 C988 1.419 . S
C990 C991 1.362 . S
C991 H981 0.930 . S
C991 C984 1.409 . S
C991 C990 1.362 . S
H992 C998 0.930 . S
H993 C1001 0.930 . S
H994 C1002 0.930 . S
H995 C1003 0.930 . S
H996 C1006 0.930 . S
H997 C1007 0.930 . S
C998 H992 0.930 . S
C998 C999 1.355 . S
C998 C1000 1.415 . S
C999 C998 1.355 . S
C999 C1001 1.419 . S
C1000 C998 1.415 . S
C1000 C1005 1.425 . S
C1000 C1007 1.409 . S
C1001 H993 0.930 . S
C1001 C999 1.419 . S
C1001 C1002 1.362 . S
C1002 H994 0.930 . S
C1002 C1001 1.362 . S
C1002 C1005 1.409 . S
C1003 H995 0.930 . S
C1003 C1004 1.355 . S
C1003 C1005 1.415 . S
C1004 C1003 1.355 . S
C1004 C1006 1.419 . S
C1005 C1000 1.425 . S
C1005 C1002 1.409 . S
C1005 C1003 1.415 . S
C1006 H996 0.930 . S
C1006 C1004 1.419 . S
C1006 C1007 1.362 . S
C1007 H997 0.930 . S
C1007 C1000 1.409 . S
C1007 C1006 1.362 . S
H1008 C1014 0.930 . S
H1009 C1017 0.930 . S
H1010 C1018 0.930 . S
H1011 C1019 0.930 . S
H1012 C1022 0.930 . S
H1013 C1023 0.930 . S
C1014 H1008 0.930 . S
C1014 C1015 1.355 . S
C1014 C1016 1.415 . S
C1015 C1014 1.355 . S
C1015 C1017 1.419 . S
C1016 C1014 1.415 . S
C1016 C1021 1.425 . S
C1016 C1023 1.409 1_455 S
C1017 H1009 0.930 . S
C1017 C1015 1.419 . S
C1017 C1018 1.362 . S
C1018 H1010 0.930 . S
C1018 C1017 1.362 . S
C1018 C1021 1.409 . S
C1019 H1011 0.930 . S
C1019 C1020 1.355 1_455 S
C1019 C1021 1.415 . S
C1020 C1019 1.355 1_655 S
C1020 C1022 1.419 . S
C1021 C1016 1.425 . S
C1021 C1018 1.409 . S
C1021 C1019 1.415 . S
C1022 H1012 0.930 . S
C1022 C1020 1.419 . S
C1022 C1023 1.362 . S
C1023 H1013 0.930 . S
C1023 C1016 1.409 1_655 S
C1023 C1022 1.362 . S
H1024 C1030 0.930 1_655 S
H1025 C1033 0.930 1_565 S
H1026 C1034 0.930 . S
H1027 C1035 0.930 . S
H1028 C1038 0.913 1_645 S
H1029 C1039 0.930 . S
C1030 H1024 0.930 1_455 S
C1030 C1031 1.355 . S
C1030 C1032 1.415 . S
C1031 C1030 1.355 . S
C1031 C1033 1.419 . S
C1032 C1030 1.415 . S
C1032 C1037 1.425 1_544 S
C1032 C1039 1.409 1_454 S
C1033 H1025 0.930 1_545 S
C1033 C1031 1.419 . S
C1033 C1034 1.362 1_545 S
C1034 H1026 0.930 . S
C1034 C1033 1.362 1_565 S
C1034 C1037 1.409 1_554 S
C1035 H1027 0.930 . S
C1035 C1036 1.355 . S
C1035 C1037 1.415 . S
C1036 C1035 1.355 . S
C1036 C1038 1.437 . S
C1037 C1032 1.425 1_566 S
C1037 C1034 1.409 1_556 S
C1037 C1035 1.415 . S
C1038 H1028 0.913 1_465 S
C1038 C1036 1.437 . S
C1038 C1039 1.362 1_465 S
C1039 H1029 0.930 . S
C1039 C1032 1.409 1_656 S
C1039 C1038 1.362 1_645 S
H1040 C1046 0.930 . S
H1041 C1049 0.930 . S
H1042 C1050 0.930 . S
H1043 C1051 0.930 . S
H1044 C1054 0.930 . S
H1045 C1055 0.930 . S
C1046 H1040 0.930 . S
C1046 C1047 1.355 . S
C1046 C1048 1.415 . S
C1047 C1046 1.355 . S
C1047 C1049 1.419 . S
C1048 C1046 1.415 . S
C1048 C1053 1.425 . S
C1048 C1055 1.409 . S
C1049 H1041 0.930 . S
C1049 C1047 1.419 . S
C1049 C1050 1.362 . S
C1050 H1042 0.930 . S
C1050 C1049 1.362 . S
C1050 C1053 1.409 . S
C1051 H1043 0.930 . S
C1051 C1052 1.355 . S
C1051 C1053 1.415 . S
C1052 C1051 1.355 . S
C1052 C1054 1.419 . S
C1053 C1048 1.425 . S
C1053 C1050 1.409 . S
C1053 C1051 1.415 . S
C1054 H1044 0.930 . S
C1054 C1052 1.419 . S
C1054 C1055 1.362 . S
C1055 H1045 0.930 . S
C1055 C1048 1.409 . S
C1055 C1054 1.362 . S
H1056 C1062 0.930 . S
H1057 C1065 0.930 . S
H1058 C1066 0.930 . S
H1059 C1067 0.930 . S
H1060 C1070 0.930 . S
H1061 C1071 0.930 . S
C1062 H1056 0.930 . S
C1062 C1063 1.355 1_565 S
C1062 C1064 1.415 . S
C1063 C1062 1.355 1_545 S
C1063 C1065 1.419 . S
C1064 C1062 1.415 . S
C1064 C1069 1.425 1_565 S
C1064 C1071 1.409 . S
C1065 H1057 0.930 . S
C1065 C1063 1.419 . S
C1065 C1066 1.362 . S
C1066 H1058 0.930 . S
C1066 C1065 1.362 . S
C1066 C1069 1.409 . S
C1067 H1059 0.930 . S
C1067 C1068 1.355 1_545 S
C1067 C1069 1.415 . S
C1068 C1067 1.355 1_565 S
C1068 C1070 1.419 . S
C1069 C1064 1.425 1_545 S
C1069 C1066 1.409 . S
C1069 C1067 1.415 . S
C1070 H1060 0.930 . S
C1070 C1068 1.419 . S
C1070 C1071 1.362 . S
C1071 H1061 0.930 . S
C1071 C1064 1.409 . S
C1071 C1070 1.362 . S
H1072 C1078 0.930 . S
H1073 C1081 0.930 . S
H1074 C1082 0.930 . S
H1075 C1083 0.930 . S
H1076 C1086 0.930 . S
H1077 C1087 0.930 . S
C1078 H1072 0.930 . S
C1078 C1079 1.355 . S
C1078 C1080 1.415 . S
C1079 C1078 1.355 . S
C1079 C1081 1.419 . S
C1080 C1078 1.415 . S
C1080 C1085 1.425 . S
C1080 C1087 1.409 . S
C1081 H1073 0.930 . S
C1081 C1079 1.419 . S
C1081 C1082 1.362 . S
C1082 H1074 0.930 . S
C1082 C1081 1.362 . S
C1082 C1085 1.409 . S
C1083 H1075 0.930 . S
C1083 C1084 1.355 . S
C1083 C1085 1.415 . S
C1084 C1083 1.355 . S
C1084 C1086 1.419 . S
C1085 C1080 1.425 . S
C1085 C1082 1.409 . S
C1085 C1083 1.415 . S
C1086 H1076 0.930 . S
C1086 C1084 1.419 . S
C1086 C1087 1.362 . S
C1087 H1077 0.930 . S
C1087 C1080 1.409 . S
C1087 C1086 1.362 . S
H1088 C1094 0.930 . S
H1089 C1097 0.930 . S
H1090 C1098 0.930 . S
H1091 C1099 0.930 . S
H1092 C1102 0.930 . S
H1093 C1103 0.930 . S
C1094 H1088 0.930 . S
C1094 C1095 1.355 . S
C1094 C1096 1.415 . S
C1095 C1094 1.355 . S
C1095 C1097 1.419 . S
C1096 C1094 1.415 . S
C1096 C1101 1.425 . S
C1096 C1103 1.409 . S
C1097 H1089 0.930 . S
C1097 C1095 1.419 . S
C1097 C1098 1.362 . S
C1098 H1090 0.930 . S
C1098 C1097 1.362 . S
C1098 C1101 1.409 . S
C1099 H1091 0.930 . S
C1099 C1100 1.355 . S
C1099 C1101 1.415 . S
C1100 C1099 1.355 . S
C1100 C1102 1.419 . S
C1101 C1096 1.425 . S
C1101 C1098 1.409 . S
C1101 C1099 1.415 . S
C1102 H1092 0.930 . S
C1102 C1100 1.419 . S
C1102 C1103 1.362 . S
C1103 H1093 0.930 . S
C1103 C1096 1.409 . S
C1103 C1102 1.362 . S
H1104 C1110 0.930 . S
H1105 C1113 0.930 . S
H1106 C1114 0.930 . S
H1107 C1115 0.930 . S
H1108 C1118 0.930 . S
H1109 C1119 0.930 . S
C1110 H1104 0.930 . S
C1110 C1111 1.355 . S
C1110 C1112 1.415 . S
C1111 C1110 1.355 . S
C1111 C1113 1.419 . S
C1112 C1110 1.415 . S
C1112 C1117 1.425 . S
C1112 C1119 1.409 . S
C1113 H1105 0.930 . S
C1113 C1111 1.419 . S
C1113 C1114 1.362 . S
C1114 H1106 0.930 . S
C1114 C1113 1.362 . S
C1114 C1117 1.409 . S
C1115 H1107 0.930 . S
C1115 C1116 1.355 . S
C1115 C1117 1.415 . S
C1116 C1115 1.355 . S
C1116 C1118 1.419 . S
C1117 C1112 1.425 . S
C1117 C1114 1.409 . S
C1117 C1115 1.415 . S
C1118 H1108 0.930 . S
C1118 C1116 1.419 . S
C1118 C1119 1.362 . S
C1119 H1109 0.930 . S
C1119 C1112 1.409 . S
C1119 C1118 1.362 . S
H1120 C1126 0.930 . S
H1121 C1129 0.930 . S
H1122 C1130 0.930 . S
H1123 C1131 0.930 . S
H1124 C1134 0.930 . S
H1125 C1135 0.930 . S
C1126 H1120 0.930 . S
C1126 C1127 1.355 . S
C1126 C1128 1.415 . S
C1127 C1126 1.355 . S
C1127 C1129 1.419 . S
C1128 C1126 1.415 . S
C1128 C1133 1.425 . S
C1128 C1135 1.409 . S
C1129 H1121 0.930 . S
C1129 C1127 1.419 . S
C1129 C1130 1.362 . S
C1130 H1122 0.930 . S
C1130 C1129 1.362 . S
C1130 C1133 1.409 . S
C1131 H1123 0.930 . S
C1131 C1132 1.355 . S
C1131 C1133 1.415 . S
C1132 C1131 1.355 . S
C1132 C1134 1.419 . S
C1133 C1128 1.425 . S
C1133 C1130 1.409 . S
C1133 C1131 1.415 . S
C1134 H1124 0.930 . S
C1134 C1132 1.419 . S
C1134 C1135 1.362 . S
C1135 H1125 0.930 . S
C1135 C1128 1.409 . S
C1135 C1134 1.362 . S
H1136 C1142 0.930 . S
H1137 C1145 0.930 . S
H1138 C1146 0.930 . S
H1139 C1147 0.930 . S
H1140 C1150 0.930 . S
H1141 C1151 0.930 . S
C1142 H1136 0.930 . S
C1142 C1143 1.355 . S
C1142 C1144 1.415 . S
C1143 C1142 1.355 . S
C1143 C1145 1.419 1_455 S
C1144 C1142 1.415 . S
C1144 C1149 1.425 1_556 S
C1144 C1151 1.409 . S
C1145 H1137 0.930 . S
C1145 C1143 1.419 1_655 S
C1145 C1146 1.362 1_556 S
C1146 H1138 0.930 . S
C1146 C1145 1.362 1_554 S
C1146 C1149 1.409 1_655 S
C1147 H1139 0.930 . S
C1147 C1148 1.355 . S
C1147 C1149 1.415 . S
C1148 C1147 1.355 . S
C1148 C1150 1.419 . S
C1149 C1144 1.425 1_554 S
C1149 C1146 1.409 1_455 S
C1149 C1147 1.415 . S
C1150 H1140 0.930 . S
C1150 C1148 1.419 . S
C1150 C1151 1.362 1_554 S
C1151 H1141 0.930 . S
C1151 C1144 1.409 . S
C1151 C1150 1.362 1_556 S
H1152 C1158 0.930 . S
H1153 C1161 0.930 . S
H1154 C1162 0.930 . S
H1155 C1163 0.930 . S
H1156 C1166 0.930 . S
H1157 C1167 0.930 . S
C1158 H1152 0.930 . S
C1158 C1159 1.355 . S
C1158 C1160 1.415 . S
C1159 C1158 1.355 . S
C1159 C1161 1.419 . S
C1160 C1158 1.415 . S
C1160 C1165 1.425 . S
C1160 C1167 1.409 . S
C1161 H1153 0.930 . S
C1161 C1159 1.419 . S
C1161 C1162 1.362 . S
C1162 H1154 0.930 . S
C1162 C1161 1.362 . S
C1162 C1165 1.409 . S
C1163 H1155 0.930 . S
C1163 C1164 1.355 . S
C1163 C1165 1.415 . S
C1164 C1163 1.355 . S
C1164 C1166 1.419 . S
C1165 C1160 1.425 . S
C1165 C1162 1.409 . S
C1165 C1163 1.415 . S
C1166 H1156 0.930 . S
C1166 C1164 1.419 . S
C1166 C1167 1.362 . S
C1167 H1157 0.930 . S
C1167 C1160 1.409 . S
C1167 C1166 1.362 . S
H1168 C1174 0.930 . S
H1169 C1177 0.930 . S
H1170 C1178 0.930 . S
H1171 C1179 0.930 . S
H1172 C1182 0.930 . S
H1173 C1183 0.930 . S
C1174 H1168 0.930 . S
C1174 C1175 1.355 . S
C1174 C1176 1.415 . S
C1175 C1174 1.355 . S
C1175 C1177 1.419 . S
C1176 C1174 1.415 . S
C1176 C1181 1.425 . S
C1176 C1183 1.409 . S
C1177 H1169 0.930 . S
C1177 C1175 1.419 . S
C1177 C1178 1.362 . S
C1178 H1170 0.930 . S
C1178 C1177 1.362 . S
C1178 C1181 1.409 . S
C1179 H1171 0.930 . S
C1179 C1180 1.355 . S
C1179 C1181 1.415 . S
C1180 C1179 1.355 . S
C1180 C1182 1.419 . S
C1181 C1176 1.425 . S
C1181 C1178 1.409 . S
C1181 C1179 1.415 . S
C1182 H1172 0.930 . S
C1182 C1180 1.419 . S
C1182 C1183 1.362 . S
C1183 H1173 0.930 . S
C1183 C1176 1.409 . S
C1183 C1182 1.362 . S
H1184 C1190 0.930 . S
H1185 C1193 0.930 . S
H1186 C1194 0.930 . S
H1187 C1195 0.930 . S
H1188 C1198 0.930 . S
H1189 C1199 0.930 . S
C1190 H1184 0.930 . S
C1190 C1191 1.355 . S
C1190 C1192 1.415 . S
C1191 C1190 1.355 . S
C1191 C1193 1.419 . S
C1192 C1190 1.415 . S
C1192 C1197 1.425 . S
C1192 C1199 1.409 . S
C1193 H1185 0.930 . S
C1193 C1191 1.419 . S
C1193 C1194 1.362 . S
C1194 H1186 0.930 . S
C1194 C1193 1.362 . S
C1194 C1197 1.409 . S
C1195 H1187 0.930 . S
C1195 C1196 1.355 . S
C1195 C1197 1.415 . S
C1196 C1195 1.355 . S
C1196 C1198 1.419 . S
C1197 C1192 1.425 . S
C1197 C1194 1.409 . S
C1197 C1195 1.415 . S
C1198 H1188 0.930 . S
C1198 C1196 1.419 . S
C1198 C1199 1.362 . S
C1199 H1189 0.930 . S
C1199 C1192 1.409 . S
C1199 C1198 1.362 . S
H1200 C1206 0.930 . S
H1201 C1209 0.930 . S
H1202 C1210 0.930 . S
H1203 C1211 0.930 . S
H1204 C1214 0.930 . S
H1205 C1215 0.930 . S
C1206 H1200 0.930 . S
C1206 C1207 1.355 . S
C1206 C1208 1.415 . S
C1207 C1206 1.355 . S
C1207 C1209 1.419 . S
C1208 C1206 1.415 . S
C1208 C1213 1.425 . S
C1208 C1215 1.409 . S
C1209 H1201 0.930 . S
C1209 C1207 1.419 . S
C1209 C1210 1.362 . S
C1210 H1202 0.930 . S
C1210 C1209 1.362 . S
C1210 C1213 1.409 . S
C1211 H1203 0.930 . S
C1211 C1212 1.355 . S
C1211 C1213 1.415 . S
C1212 C1211 1.355 . S
C1212 C1214 1.419 . S
C1213 C1208 1.425 . S
C1213 C1210 1.409 . S
C1213 C1211 1.415 . S
C1214 H1204 0.930 . S
C1214 C1212 1.419 . S
C1214 C1215 1.362 . S
C1215 H1205 0.930 . S
C1215 C1208 1.409 . S
C1215 C1214 1.362 . S
H1216 C1222 0.930 . S
H1217 C1225 0.930 . S
H1218 C1226 0.930 . S
H1219 C1227 0.930 . S
H1220 C1230 0.930 . S
H1221 C1231 0.930 . S
C1222 H1216 0.930 . S
C1222 C1223 1.355 . S
C1222 C1224 1.415 . S
C1223 C1222 1.355 . S
C1223 C1225 1.419 . S
C1224 C1222 1.415 . S
C1224 C1229 1.425 . S
C1224 C1231 1.409 . S
C1225 H1217 0.930 . S
C1225 C1223 1.419 . S
C1225 C1226 1.362 . S
C1226 H1218 0.930 . S
C1226 C1225 1.362 . S
C1226 C1229 1.409 . S
C1227 H1219 0.930 . S
C1227 C1228 1.355 . S
C1227 C1229 1.415 . S
C1228 C1227 1.355 . S
C1228 C1230 1.419 . S
C1229 C1224 1.425 . S
C1229 C1226 1.409 . S
C1229 C1227 1.415 . S
C1230 H1220 0.930 . S
C1230 C1228 1.419 . S
C1230 C1231 1.362 . S
C1231 H1221 0.930 . S
C1231 C1224 1.409 . S
C1231 C1230 1.362 . S
H1232 C1238 0.930 . S
H1233 C1241 0.930 . S
H1234 C1242 0.930 . S
H1235 C1243 0.930 . S
H1236 C1246 0.930 . S
H1237 C1247 0.930 . S
C1238 H1232 0.930 . S
C1238 C1239 1.355 . S
C1238 C1240 1.415 . S
C1239 C1238 1.355 . S
C1239 C1241 1.419 . S
C1240 C1238 1.415 . S
C1240 C1245 1.425 . S
C1240 C1247 1.409 . S
C1241 H1233 0.930 . S
C1241 C1239 1.419 . S
C1241 C1242 1.362 . S
C1242 H1234 0.930 . S
C1242 C1241 1.362 . S
C1242 C1245 1.409 . S
C1243 H1235 0.930 . S
C1243 C1244 1.355 . S
C1243 C1245 1.415 . S
C1244 C1243 1.355 . S
C1244 C1246 1.419 . S
C1245 C1240 1.425 . S
C1245 C1242 1.409 . S
C1245 C1243 1.415 . S
C1246 H1236 0.930 . S
C1246 C1244 1.419 . S
C1246 C1247 1.362 . S
C1247 H1237 0.930 . S
C1247 C1240 1.409 . S
C1247 C1246 1.362 . S
H1248 C1254 0.930 . S
H1249 C1257 0.930 . S
H1250 C1258 0.930 . S
H1251 C1259 0.930 . S
H1252 C1262 0.930 . S
H1253 C1263 0.930 . S
C1254 H1248 0.930 . S
C1254 C1255 1.355 . S
C1254 C1256 1.415 . S
C1255 C1254 1.355 . S
C1255 C1257 1.419 . S
C1256 C1254 1.415 . S
C1256 C1261 1.425 . S
C1256 C1263 1.409 . S
C1257 H1249 0.930 . S
C1257 C1255 1.419 . S
C1257 C1258 1.362 . S
C1258 H1250 0.930 . S
C1258 C1257 1.362 . S
C1258 C1261 1.409 . S
C1259 H1251 0.930 . S
C1259 C1260 1.355 . S
C1259 C1261 1.415 . S
C1260 C1259 1.355 . S
C1260 C1262 1.419 . S
C1261 C1256 1.425 . S
C1261 C1258 1.409 . S
C1261 C1259 1.415 . S
C1262 H1252 0.930 . S
C1262 C1260 1.419 . S
C1262 C1263 1.362 . S
C1263 H1253 0.930 . S
C1263 C1256 1.409 . S
C1263 C1262 1.362 . S
H1264 C1270 0.930 . S
H1265 C1273 0.930 . S
H1266 C1274 0.930 . S
H1267 C1275 0.930 . S
H1268 C1278 0.930 . S
H1269 C1279 0.930 . S
C1270 H1264 0.930 . S
C1270 C1271 1.355 . S
C1270 C1272 1.415 . S
C1271 C1270 1.355 . S
C1271 C1273 1.419 . S
C1272 C1270 1.415 . S
C1272 C1277 1.425 . S
C1272 C1279 1.409 . S
C1273 H1265 0.930 . S
C1273 C1271 1.419 . S
C1273 C1274 1.362 . S
C1274 H1266 0.930 . S
C1274 C1273 1.362 . S
C1274 C1277 1.409 . S
C1275 H1267 0.930 . S
C1275 C1276 1.355 . S
C1275 C1277 1.415 . S
C1276 C1275 1.355 . S
C1276 C1278 1.419 . S
C1277 C1272 1.425 . S
C1277 C1274 1.409 . S
C1277 C1275 1.415 . S
C1278 H1268 0.930 . S
C1278 C1276 1.419 . S
C1278 C1279 1.362 . S
C1279 H1269 0.930 . S
C1279 C1272 1.409 . S
C1279 C1278 1.362 . S
H1280 C1286 0.930 . S
H1281 C1289 0.930 . S
H1282 C1290 0.930 . S
H1283 C1291 0.930 . S
H1284 C1294 0.930 . S
H1285 C1295 0.930 . S
C1286 H1280 0.930 . S
C1286 C1287 1.355 . S
C1286 C1288 1.415 . S
C1287 C1286 1.355 . S
C1287 C1289 1.419 . S
C1288 C1286 1.415 . S
C1288 C1293 1.425 . S
C1288 C1295 1.409 . S
C1289 H1281 0.930 . S
C1289 C1287 1.419 . S
C1289 C1290 1.362 . S
C1290 H1282 0.930 . S
C1290 C1289 1.362 . S
C1290 C1293 1.409 . S
C1291 H1283 0.930 . S
C1291 C1292 1.355 1_556 S
C1291 C1293 1.415 . S
C1292 C1291 1.355 1_554 S
C1292 C1294 1.419 . S
C1293 C1288 1.425 . S
C1293 C1290 1.409 . S
C1293 C1291 1.415 . S
C1294 H1284 0.930 . S
C1294 C1292 1.419 . S
C1294 C1295 1.362 1_554 S
C1295 H1285 0.930 . S
C1295 C1288 1.409 . S
C1295 C1294 1.362 1_556 S
H1296 C1302 0.930 . S
H1297 C1305 0.930 . S
H1298 C1306 0.930 . S
H1299 C1307 0.930 . S
H1300 C1310 0.930 . S
H1301 C1311 0.930 . S
C1302 H1296 0.930 . S
C1302 C1303 1.355 . S
C1302 C1304 1.415 . S
C1303 C1302 1.355 . S
C1303 C1305 1.419 . S
C1304 C1302 1.415 . S
C1304 C1309 1.425 . S
C1304 C1311 1.409 . S
C1305 H1297 0.930 . S
C1305 C1303 1.419 . S
C1305 C1306 1.362 . S
C1306 H1298 0.930 . S
C1306 C1305 1.362 . S
C1306 C1309 1.409 . S
C1307 H1299 0.930 . S
C1307 C1308 1.355 . S
C1307 C1309 1.415 . S
C1308 C1307 1.355 . S
C1308 C1310 1.419 . S
C1309 C1304 1.425 . S
C1309 C1306 1.409 . S
C1309 C1307 1.415 . S
C1310 H1300 0.930 . S
C1310 C1308 1.419 . S
C1310 C1311 1.362 . S
C1311 H1301 0.930 . S
C1311 C1304 1.409 . S
C1311 C1310 1.362 . S
H1312 C1318 0.930 . S
H1313 C1321 0.930 1_455 S
H1314 C1322 0.930 1_455 S
H1315 C1323 0.930 . S
H1316 C1326 0.930 . S
H1317 C1327 0.930 . S
C1318 H1312 0.930 . S
C1318 C1319 1.355 . S
C1318 C1320 1.415 . S
C1319 C1318 1.355 . S
C1319 C1321 1.419 . S
C1320 C1318 1.415 . S
C1320 C1325 1.425 . S
C1320 C1327 1.409 . S
C1321 H1313 0.930 1_655 S
C1321 C1319 1.419 . S
C1321 C1322 1.362 . S
C1322 H1314 0.930 1_655 S
C1322 C1321 1.362 . S
C1322 C1325 1.409 . S
C1323 H1315 0.930 . S
C1323 C1324 1.355 . S
C1323 C1325 1.415 . S
C1324 C1323 1.355 . S
C1324 C1326 1.419 . S
C1325 C1320 1.425 . S
C1325 C1322 1.409 . S
C1325 C1323 1.415 . S
C1326 H1316 0.930 . S
C1326 C1324 1.419 . S
C1326 C1327 1.362 . S
C1327 H1317 0.930 . S
C1327 C1320 1.409 . S
C1327 C1326 1.362 . S
H1328 C1334 0.930 . S
H1329 C1337 0.930 . S
H1330 C1338 0.930 . S
H1331 C1339 0.930 . S
H1332 C1342 0.930 . S
H1333 C1343 0.930 . S
C1334 H1328 0.930 . S
C1334 C1335 1.355 . S
C1334 C1336 1.415 . S
C1335 C1334 1.355 . S
C1335 C1337 1.419 . S
C1336 C1334 1.415 . S
C1336 C1341 1.425 . S
C1336 C1343 1.409 . S
C1337 H1329 0.930 . S
C1337 C1335 1.419 . S
C1337 C1338 1.362 . S
C1338 H1330 0.930 . S
C1338 C1337 1.362 . S
C1338 C1341 1.409 . S
C1339 H1331 0.930 . S
C1339 C1340 1.355 . S
C1339 C1341 1.415 . S
C1340 C1339 1.355 . S
C1340 C1342 1.419 . S
C1341 C1336 1.425 . S
C1341 C1338 1.409 . S
C1341 C1339 1.415 . S
C1342 H1332 0.930 . S
C1342 C1340 1.419 . S
C1342 C1343 1.362 . S
C1343 H1333 0.930 . S
C1343 C1336 1.409 . S
C1343 C1342 1.362 . S
H1344 C1350 0.930 . S
H1345 C1353 0.930 . S
H1346 C1354 0.930 . S
H1347 C1355 0.945 . S
H1348 C1358 0.930 1_556 S
H1349 C1359 0.930 . S
C1350 H1344 0.930 . S
C1350 C1351 1.355 . S
C1350 C1352 1.415 . S
C1351 C1350 1.355 . S
C1351 C1353 1.419 . S
C1352 C1350 1.415 . S
C1352 C1357 1.425 . S
C1352 C1359 1.409 . S
C1353 H1345 0.930 . S
C1353 C1351 1.419 . S
C1353 C1354 1.362 . S
C1354 H1346 0.930 . S
C1354 C1353 1.362 . S
C1354 C1357 1.409 . S
C1355 H1347 0.945 . S
C1355 C1356 1.365 . S
C1355 C1357 1.390 1_556 S
C1356 C1355 1.365 . S
C1356 C1358 1.419 1_556 S
C1357 C1352 1.425 . S
C1357 C1354 1.409 . S
C1357 C1355 1.390 1_554 S
C1358 H1348 0.930 1_554 S
C1358 C1356 1.419 1_554 S
C1358 C1359 1.362 . S
C1359 H1349 0.930 . S
C1359 C1352 1.409 . S
C1359 C1358 1.362 . S
H1360 C1366 0.930 . S
H1361 C1369 0.930 . S
H1362 C1370 0.930 . S
H1363 C1371 0.930 . S
H1364 C1374 0.930 . S
H1365 C1375 0.930 . S
C1366 H1360 0.930 . S
C1366 C1367 1.355 . S
C1366 C1368 1.415 . S
C1367 C1366 1.355 . S
C1367 C1369 1.419 . S
C1368 C1366 1.415 . S
C1368 C1373 1.425 . S
C1368 C1375 1.409 . S
C1369 H1361 0.930 . S
C1369 C1367 1.419 . S
C1369 C1370 1.362 . S
C1370 H1362 0.930 . S
C1370 C1369 1.362 . S
C1370 C1373 1.409 . S
C1371 H1363 0.930 . S
C1371 C1372 1.355 . S
C1371 C1373 1.415 . S
C1372 C1371 1.355 . S
C1372 C1374 1.419 . S
C1373 C1368 1.425 . S
C1373 C1370 1.409 . S
C1373 C1371 1.415 . S
C1374 H1364 0.930 . S
C1374 C1372 1.419 . S
C1374 C1375 1.362 . S
C1375 H1365 0.930 . S
C1375 C1368 1.409 . S
C1375 C1374 1.362 . S
H1376 C1382 0.930 . S
H1377 C1385 0.930 . S
H1378 C1386 0.930 . S
H1379 C1387 0.930 . S
H1380 C1390 0.930 . S
H1381 C1391 0.930 . S
C1382 H1376 0.930 . S
C1382 C1383 1.355 . S
C1382 C1384 1.415 . S
C1383 C1382 1.355 . S
C1383 C1385 1.419 . S
C1384 C1382 1.415 . S
C1384 C1389 1.425 . S
C1384 C1391 1.409 . S
C1385 H1377 0.930 . S
C1385 C1383 1.419 . S
C1385 C1386 1.362 . S
C1386 H1378 0.930 . S
C1386 C1385 1.362 . S
C1386 C1389 1.409 . S
C1387 H1379 0.930 . S
C1387 C1388 1.355 . S
C1387 C1389 1.415 . S
C1388 C1387 1.355 . S
C1388 C1390 1.419 . S
C1389 C1384 1.425 . S
C1389 C1386 1.409 . S
C1389 C1387 1.415 . S
C1390 H1380 0.930 . S
C1390 C1388 1.419 . S
C1390 C1391 1.362 . S
C1391 H1381 0.930 . S
C1391 C1384 1.409 . S
C1391 C1390 1.362 . S
H1392 C1398 0.930 . S
H1393 C1401 0.930 . S
H1394 C1402 0.930 . S
H1395 C1403 0.930 . S
H1396 C1406 0.930 . S
H1397 C1407 0.930 . S
C1398 H1392 0.930 . S
C1398 C1399 1.355 . S
C1398 C1400 1.415 . S
C1399 C1398 1.355 . S
C1399 C1401 1.419 . S
C1400 C1398 1.415 . S
C1400 C1405 1.425 . S
C1400 C1407 1.409 . S
C1401 H1393 0.930 . S
C1401 C1399 1.419 . S
C1401 C1402 1.362 . S
C1402 H1394 0.930 . S
C1402 C1401 1.362 . S
C1402 C1405 1.409 . S
C1403 H1395 0.930 . S
C1403 C1404 1.355 . S
C1403 C1405 1.415 . S
C1404 C1403 1.355 . S
C1404 C1406 1.419 . S
C1405 C1400 1.425 . S
C1405 C1402 1.409 . S
C1405 C1403 1.415 . S
C1406 H1396 0.930 . S
C1406 C1404 1.419 . S
C1406 C1407 1.362 . S
C1407 H1397 0.930 . S
C1407 C1400 1.409 . S
C1407 C1406 1.362 . S
C647 C11 0.265 . S
C652 C287 0.327 . S
C663 C51 2.085 . S
C668 C167 2.083 . S
C679 C207 0.828 . S
C684 C87 0.700 . S
C695 C131 2.877 . S
C700 C251 2.818 . S
C711 C456 0.320 . S
C716 C162 0.287 . S
C727 C322 2.069 . S
C732 C16 2.096 . S
C743 C416 0.951 . S
C748 C256 0.779 . S
C759 C82 2.834 . S
C764 C362 2.898 . S
C775 C367 0.483 . S
C780 C491 0.387 . S
C791 C411 2.079 . S
C796 C567 2.065 . S
C807 C527 0.708 . S
C812 C327 0.821 . S
C823 C451 2.895 . S
C828 C611 2.812 1_554 S
C839 C562 0.384 . S
C844 C136 0.413 . S
C855 C496 2.066 . S
C860 C202 2.065 . S
C871 C56 0.825 . S
C876 C616 0.727 . S
C887 C282 2.898 . S
C892 C522 2.827 1_556 S
C903 C530 0.721 . S
C908 C19 0.521 . S
C919 C459 1.088 . S
C924 C59 0.997 . S
C935 C499 0.595 . S
C940 C90 0.660 . S
C951 C419 1.025 . S
C956 C139 1.107 . S
C967 C170 0.547 . S
C972 C619 0.702 1_655 S
C983 C370 1.097 . S
C988 C210 0.889 . S
C999 C259 0.664 . S
C1004 C570 0.591 . S
C1015 C290 1.091 . S
C1020 C330 0.878 . S
C1031 C10 1.736 . S
C1036 C179 1.736 . S
C1047 C50 2.104 . S
C1052 C219 2.104 . S
C1063 C250 1.675 . S
C1068 C99 1.675 . S
C1079 C130 1.423 . S
C1084 C299 1.423 . S
C1095 C410 2.093 . S
C1100 C339 2.093 . S
C1111 C450 1.414 . S
C1116 C379 1.414 . S
C1127 C490 1.688 . S
C1132 C579 1.688 . S
C1143 C610 1.664 1_455 S
C1148 C539 1.664 . S
C1159 C7 2.802 . S
C1164 C291 2.875 . S
C1175 C47 0.916 . S
C1180 C171 1.022 . S
C1191 C211 3.632 1_556 S
C1196 C91 3.607 . S
C1207 C247 0.678 . S
C1212 C127 0.781 . S
C1223 C442 2.874 . S
C1228 C176 2.783 . S
C1239 C336 0.995 . S
C1244 C2 1.024 . S
C1255 C402 3.633 1_554 S
C1260 C242 3.616 . S
C1271 C96 0.823 . S
C1276 C376 0.752 . S
C1287 C487 2.781 . S
C1292 C371 2.870 . S
C1303 C571 1.013 . S
C1308 C407 0.921 . S
C1319 C531 3.617 1_655 S
C1324 C331 3.640 . S
C1335 C607 0.698 . S
C1340 C447 0.798 . S
C1351 C576 2.817 . S
C1356 C122 2.869 . S
C1367 C216 0.920 . S
C1372 C482 1.014 . S
C1383 C42 3.641 . S
C1388 C602 3.608 . S
C1399 C536 0.714 . S
C1404 C296 0.808 . S
