# Generated by pormake.
# Topology smc, (6)-cn, num edge types: 1
# Building blocks:
#     Node 0, Type 0, BuildingBlock: BETDAH_clean_sbu_0, # of connection points: 6
#     Node 1, Type 0, BuildingBlock: BETDAH_clean_sbu_0, # of connection points: 6
#     Node 2, Type 0, BuildingBlock: BETDAH_clean_sbu_0, # of connection points: 6
#     Node 3, Type 0, BuildingBlock: BETDAH_clean_sbu_0, # of connection points: 6
#     Node 4, Type 0, BuildingBlock: BETDAH_clean_sbu_0, # of connection points: 6
#     Node 5, Type 0, BuildingBlock: BETDAH_clean_sbu_0, # of connection points: 6
#     Node 6, Type 0, BuildingBlock: BETDAH_clean_sbu_0, # of connection points: 6
#     Node 7, Type 0, BuildingBlock: BETDAH_clean_sbu_0, # of connection points: 6
#     Node 8, Type 0, BuildingBlock: BETDAH_clean_sbu_0, # of connection points: 6
#     Edge 9, Type (0, 0), BuildingBlock: OJICUG_clean_linker_0, # of connection points: 2
#     Edge 10, Type (0, 0), BuildingBlock: OJICUG_clean_linker_0, # of connection points: 2
#     Edge 11, Type (0, 0), BuildingBlock: OJICUG_clean_linker_0, # of connection points: 2
#     Edge 12, Type (0, 0), BuildingBlock: OJICUG_clean_linker_0, # of connection points: 2
#     Edge 13, Type (0, 0), BuildingBlock: OJICUG_clean_linker_0, # of connection points: 2
#     Edge 14, Type (0, 0), BuildingBlock: OJICUG_clean_linker_0, # of connection points: 2
#     Edge 15, Type (0, 0), BuildingBlock: OJICUG_clean_linker_0, # of connection points: 2
#     Edge 16, Type (0, 0), BuildingBlock: OJICUG_clean_linker_0, # of connection points: 2
#     Edge 17, Type (0, 0), BuildingBlock: OJICUG_clean_linker_0, # of connection points: 2
#     Edge 18, Type (0, 0), BuildingBlock: OJICUG_clean_linker_0, # of connection points: 2
#     Edge 19, Type (0, 0), BuildingBlock: OJICUG_clean_linker_0, # of connection points: 2
#     Edge 20, Type (0, 0), BuildingBlock: OJICUG_clean_linker_0, # of connection points: 2
#     Edge 21, Type (0, 0), BuildingBlock: OJICUG_clean_linker_0, # of connection points: 2
#     Edge 22, Type (0, 0), BuildingBlock: OJICUG_clean_linker_0, # of connection points: 2
#     Edge 23, Type (0, 0), BuildingBlock: OJICUG_clean_linker_0, # of connection points: 2
#     Edge 24, Type (0, 0), BuildingBlock: OJICUG_clean_linker_0, # of connection points: 2
#     Edge 25, Type (0, 0), BuildingBlock: OJICUG_clean_linker_0, # of connection points: 2
#     Edge 26, Type (0, 0), BuildingBlock: OJICUG_clean_linker_0, # of connection points: 2
#     Edge 27, Type (0, 0), BuildingBlock: OJICUG_clean_linker_0, # of connection points: 2
#     Edge 28, Type (0, 0), BuildingBlock: OJICUG_clean_linker_0, # of connection points: 2
#     Edge 29, Type (0, 0), BuildingBlock: OJICUG_clean_linker_0, # of connection points: 2
#     Edge 30, Type (0, 0), BuildingBlock: OJICUG_clean_linker_0, # of connection points: 2
#     Edge 31, Type (0, 0), BuildingBlock: OJICUG_clean_linker_0, # of connection points: 2
#     Edge 32, Type (0, 0), BuildingBlock: OJICUG_clean_linker_0, # of connection points: 2
#     Edge 33, Type (0, 0), BuildingBlock: OJICUG_clean_linker_0, # of connection points: 2
#     Edge 34, Type (0, 0), BuildingBlock: OJICUG_clean_linker_0, # of connection points: 2
#     Edge 35, Type (0, 0), BuildingBlock: OJICUG_clean_linker_0, # of connection points: 2
# Relax obj value: 0.189
# Max RMSD: 0.339
# Mean RMSD: 0.339
data_MOF--net-smc--node1-BETDAH_clean_sbu_0--edge1-OJICUG_clean_linker_0
_symmetry_space_group_name_H-M    P1
_symmetry_Int_Tables_number       1
_symmetry_cell_setting            triclinic
loop_
_symmetry_equiv_pos_as_xyz
'x, y, z'
_cell_length_a     31.172453
_cell_length_b     31.186167
_cell_length_c     26.838552
_cell_angle_alpha  89.461833
_cell_angle_beta   89.858379
_cell_angle_gamma 120.03976
loop_
_atom_site_label
_atom_site_type_symbol
_atom_site_fract_x
_atom_site_fract_y
_atom_site_fract_z
_atom_type_partial_charge
Ho0 Ho 0.07273 0.50181 1.02708 0.0
Ho1 Ho 1.00347 0.39781 0.05249 0.0
C2 C 0.11932 0.43419 1.02314 0.0
C3 C 0.12513 0.59648 1.0236 0.0
C4 C 0.15531 0.65078 1.02326 0.0
C5 C 0.17303 0.67546 0.0684 0.0
C6 C 0.20238 0.72671 0.06898 0.0
C7 C 0.21532 0.75452 1.02436 0.0
C8 C 0.19611 0.73008 0.97919 0.0
C9 C 0.16621 0.67841 0.97865 0.0
C10 C 1.02676 0.44314 0.94791 0.0
C11 C 0.96187 0.47213 0.057 0.0
C12 C 0.94001 0.30439 0.05567 0.0
C13 C 0.88543 0.27814 0.05332 0.0
C14 C 0.86084 0.29127 1.01775 0.0
C15 C 0.80919 0.26905 1.01884 0.0
C16 C 0.78101 0.23343 0.05569 0.0
C17 C 0.80593 0.22044 0.09115 0.0
C18 C 0.85754 0.24269 0.09002 0.0
C19 C 0.05611 0.44918 0.13377 0.0
O20 O 0.12942 0.47983 1.03062 0.0
O21 O 0.07311 0.396 1.02618 0.0
O22 O 0.11509 0.56976 0.98345 0.0
O23 O 0.10778 0.57135 0.06525 0.0
O24 O 0.0729 0.47768 0.94827 0.0
O25 O 1.00699 0.44296 0.98893 0.0
O26 O 0.94891 0.42526 0.05139 0.0
O27 O 1.00839 0.50727 0.05513 0.0
O28 O 0.95865 0.33086 0.09551 0.0
O29 O 0.9644 0.32736 1.01507 0.0
O30 O 1.00836 0.42111 0.1321 0.0
O31 O 0.07181 0.45362 0.08954 0.0
H32 H 0.16506 0.65515 0.10336 0.0
H33 H 0.21647 0.74455 0.10442 0.0
H34 H 0.20601 0.75057 0.94424 0.0
H35 H 0.15238 0.66008 0.9434 0.0
H36 H 0.8815 0.31939 0.98964 0.0
H37 H 0.7915 0.28059 0.99138 0.0
H38 H 0.78562 0.19267 0.11964 0.0
H39 H 0.87579 0.23263 0.1183 0.0
Ho40 Ho 0.57349 0.59345 1.03338 0.0
Ho41 Ho 0.67468 0.62211 0.06552 0.0
C42 C 0.64717 0.70742 1.03158 0.0
C43 C 0.47908 0.55547 1.02786 0.0
C44 C 0.42487 0.53367 1.02475 0.0
C45 C 0.39763 0.53476 0.06596 0.0
C46 C 0.34595 0.51128 0.06418 0.0
C47 C 0.3203 0.48574 1.02128 0.0
C48 C 0.34784 0.48505 0.97997 0.0
C49 C 0.39954 0.50887 0.98165 0.0
C50 C 0.63744 0.61195 0.95692 0.0
C51 C 0.59662 0.50713 0.05822 0.0
C52 C 0.76525 0.64509 0.08342 0.0
C53 C 0.79195 0.61754 0.07688 0.0
C54 C 0.79344 0.5973 1.03072 0.0
C55 C 0.81682 0.56916 1.02635 0.0
C56 C 0.8386 0.56026 0.06809 0.0
C57 C 0.83653 0.58007 0.11423 0.0
C58 C 0.81359 0.60856 0.11849 0.0
C59 C 0.61814 0.62352 0.14265 0.0
O60 O 0.60011 0.67316 1.03353 0.0
O61 O 0.6834 0.6972 0.04021 0.0
O62 O 0.50695 0.56259 0.9886 0.0
O63 O 0.50306 0.57063 0.06987 0.0
O64 O 0.60118 0.62103 0.95538 0.0
O65 O 0.63534 0.5891 0.99691 0.0
O66 O 0.64405 0.5402 0.05307 0.0
O67 O 0.56341 0.52107 0.06044 0.0
O68 O 0.73014 0.62672 0.11698 0.0
O69 O 0.75207 0.65929 0.04337 0.0
O70 O 0.64128 0.5988 0.14221 0.0
O71 O 0.6185 0.637 0.09819 0.0
H72 H 0.41623 0.55363 0.0997 0.0
H73 H 0.32621 0.51372 0.09629 0.0
H74 H 0.32944 0.46545 0.94648 0.0
H75 H 0.41959 0.507 0.9495 0.0
H76 H 0.77632 0.60286 0.99809 0.0
H77 H 0.81759 0.55407 0.99038 0.0
H78 H 0.85356 0.57442 0.14686 0.0
H79 H 0.81247 0.6234 0.15451 0.0
Ho80 Ho 0.49779 1.00838 1.0284 0.0
Ho81 Ho 0.45346 0.07033 0.04872 0.0
C82 C 0.38213 0.95253 1.02102 0.0
C83 C 0.55039 0.9652 1.02864 0.0
C84 C 0.55967 0.92333 1.02301 0.0
C85 C 0.55066 0.89025 0.06291 0.0
C86 C 0.57016 0.85842 0.06226 0.0
C87 C 0.59946 0.85916 1.02186 0.0
C88 C 0.60631 0.89056 0.98095 0.0
C89 C 0.58672 0.92227 0.98157 0.0
C90 C 0.48178 0.05081 0.94664 0.0
C91 C 0.56869 0.1182 0.05944 0.0
C92 C 0.42287 0.13326 0.0542 0.0
C93 C 0.45111 0.18854 0.05311 0.0
C94 C 0.46412 0.21527 1.0078 0.0
C95 C 0.49184 0.26716 1.00729 0.0
C96 C 0.50736 0.29373 0.05204 0.0
C97 C 0.49488 0.26705 0.09731 0.0
C98 C 0.46696 0.2152 0.09785 0.0
C99 C 0.45662 1.02149 0.13199 0.0
O100 O 0.42153 0.94768 1.02531 0.0
O101 O 0.385 0.99676 1.02428 0.0
O102 O 0.54548 0.98734 0.98927 0.0
O103 O 0.52511 0.96601 0.0672 0.0
O104 O 0.47415 1.00593 0.94826 0.0
O105 O 0.49935 0.07125 0.98763 0.0
O106 O 0.53478 0.127 0.04101 0.0
O107 O 0.55779 0.07266 0.06853 0.0
O108 O 0.43011 0.11244 0.0932 0.0
O109 O 0.4209 0.11011 1.01301 0.0
O110 O 0.47398 0.06883 0.12844 0.0
O111 O 0.44601 1.00425 0.08858 0.0
H112 H 0.53037 0.89037 0.09568 0.0
H113 H 0.5629 0.8338 0.09385 0.0
H114 H 0.62869 0.8923 0.94923 0.0
H115 H 0.59503 0.94786 0.95062 0.0
H116 H 0.45285 0.19616 0.97265 0.0
H117 H 0.50116 0.28656 0.97173 0.0
H118 H 0.50558 0.28631 0.13246 0.0
H119 H 0.45768 0.19599 0.13352 0.0
Ho120 Ho 0.74093 0.84116 0.36556 0.0
Ho121 Ho 0.67233 0.73507 0.38631 0.0
C122 C 0.78875 0.77458 0.35397 0.0
C123 C 0.78831 0.93699 0.36427 0.0
C124 C 0.82954 0.98841 0.35696 0.0
C125 C 0.86036 1.0142 0.39703 0.0
C126 C 0.8919 0.06553 0.3941 0.0
C127 C 0.89314 0.09238 0.35113 0.0
C128 C 0.86376 0.06622 0.31031 0.0
C129 C 0.83225 1.01488 0.31324 0.0
C130 C 0.69532 0.78451 0.28461 0.0
C131 C 0.63146 0.80816 0.39923 0.0
C132 C 0.60788 0.64161 0.38839 0.0
C133 C 0.55321 0.61467 0.38598 0.0
C134 C 0.52786 0.63194 0.35619 0.0
C135 C 0.47602 0.60839 0.3578 0.0
C136 C 0.44835 0.56722 0.38957 0.0
C137 C 0.47418 0.55008 0.41913 0.0
C138 C 0.52592 0.57371 0.41751 0.0
C139 C 0.72456 0.78359 0.46891 0.0
O140 O 0.7986 0.82038 0.36074 0.0
O141 O 0.74291 0.73568 0.35868 0.0
O142 O 0.76407 0.91035 0.32597 0.0
O143 O 0.78815 0.91055 0.40249 0.0
O144 O 0.74155 0.81902 0.28553 0.0
O145 O 0.67568 0.78318 0.32603 0.0
O146 O 0.61937 0.76431 0.38173 0.0
O147 O 0.67806 0.84087 0.40665 0.0
O148 O 0.62609 0.6679 0.42841 0.0
O149 O 0.63246 0.66502 0.34799 0.0
O150 O 0.67685 0.75525 0.46695 0.0
O151 O 0.74037 0.79 0.42457 0.0
H152 H 0.85871 0.99508 0.43151 0.0
H153 H 0.91489 0.08424 0.42583 0.0
H154 H 0.86361 0.08564 0.27671 0.0
H155 H 0.80831 0.9963 0.28203 0.0
H156 H 0.54809 0.66431 0.33251 0.0
H157 H 0.45783 0.62331 0.33503 0.0
H158 H 0.45453 0.51809 0.44346 0.0
H159 H 0.54472 0.5603 0.44146 0.0
Ho160 Ho 0.24202 0.92154 0.36465 0.0
Ho161 Ho 0.34841 0.96273 0.39143 0.0
C162 C 0.30874 0.03964 0.36927 0.0
C163 C 0.14837 0.88851 0.35716 0.0
C164 C 0.09457 0.86967 0.35353 0.0
C165 C 0.06717 0.86788 0.39586 0.0
C166 C 1.01554 0.84556 0.39385 0.0
C167 C 0.98993 0.82374 0.34961 0.0
C168 C 1.01773 0.82606 0.30714 0.0
C169 C 0.06946 0.84901 0.30903 0.0
C170 C 0.30721 0.93538 0.28864 0.0
C171 C 0.27578 0.84653 0.39 0.0
C172 C 0.44174 0.99177 0.39341 0.0
C173 C 0.46679 0.96192 0.39505 0.0
C174 C 0.45651 0.92531 0.35924 0.0
C175 C 0.47985 0.897 0.36105 0.0
C176 C 0.51419 0.90442 0.39868 0.0
C177 C 0.52374 0.9405 0.43496 0.0
C178 C 0.50022 0.96879 0.43319 0.0
C179 C 0.29198 0.94874 0.47358 0.0
O180 O 0.26414 1.00106 0.3624 0.0
O181 O 0.34794 0.03541 0.38171 0.0
O182 O 0.17858 0.90675 0.31887 0.0
O183 O 0.16966 0.89032 0.39964 0.0
O184 O 0.26365 0.89587 0.29219 0.0
O185 O 0.31165 0.96217 0.32419 0.0
O186 O 0.31972 0.88159 0.37422 0.0
O187 O 0.2414 0.85723 0.40076 0.0
O188 O 0.41689 0.99059 0.43323 0.0
O189 O 0.41781 0.98858 0.35255 0.0
O190 O 0.32114 0.93064 0.46765 0.0
O191 O 0.28664 0.96349 0.4312 0.0
H192 H 0.08564 0.8835 0.43071 0.0
H193 H 0.99583 0.84584 0.427 0.0
H194 H 0.99954 0.80931 0.27255 0.0
H195 H 0.08966 0.8492 0.27605 0.0
H196 H 0.43024 0.91827 0.32969 0.0
H197 H 0.47058 0.86899 0.33304 0.0
H198 H 0.55024 0.94777 0.46426 0.0
H199 H 0.50839 0.99631 0.46152 0.0
Ho200 Ho 0.15882 0.34191 0.36692 0.0
Ho201 Ho 0.12075 0.41008 0.38323 0.0
C202 C 0.0444 0.29354 0.35433 0.0
C203 C 0.20798 0.2955 0.37103 0.0
C204 C 0.21738 0.25388 0.36523 0.0
C205 C 0.21204 0.22356 0.40655 0.0
C206 C 0.23146 0.19178 0.40537 0.0
C207 C 0.25708 0.18994 0.36299 0.0
C208 C 0.26057 0.21881 0.32091 0.0
C209 C 0.24097 0.25045 0.32204 0.0
C210 C 0.14642 0.38386 0.28286 0.0
C211 C 0.23469 0.45208 0.39482 0.0
C212 C 0.09214 0.47477 0.38478 0.0
C213 C 0.12057 0.52939 0.38173 0.0
C214 C 0.16541 0.55447 0.35485 0.0
C215 C 0.19443 0.6062 0.35637 0.0
C216 C 0.17953 0.63395 0.38534 0.0
C217 C 0.13443 0.60845 0.41209 0.0
C218 C 0.10549 0.55682 0.41045 0.0
C219 C 0.11863 0.35998 0.46834 0.0
O220 O 0.08045 0.28399 0.3624 0.0
O221 O 0.05103 0.33927 0.35713 0.0
O222 O 0.20813 0.3209 0.33191 0.0
O223 O 0.17904 0.29429 0.40706 0.0
O224 O 0.13642 0.33822 0.28632 0.0
O225 O 0.16473 0.4053 0.32331 0.0
O226 O 0.20281 0.46305 0.375 0.0
O227 O 0.2204 0.40602 0.40654 0.0
O228 O 0.10032 0.45615 0.42488 0.0
O229 O 0.09045 0.45037 0.34469 0.0
O230 O 0.1383 0.4076 0.46403 0.0
O231 O 0.10825 0.34312 0.42481 0.0
H232 H 0.19471 0.22587 0.44067 0.0
H233 H 0.22694 0.16916 0.438 0.0
H234 H 0.28019 0.21852 0.28769 0.0
H235 H 0.24651 0.27398 0.28988 0.0
H236 H 0.1787 0.53408 0.33366 0.0
H237 H 0.22916 0.62426 0.33588 0.0
H238 H 0.12116 0.62832 0.43426 0.0
H239 H 0.07159 0.53818 0.43231 0.0
Ho240 Ho 0.40387 0.16964 0.69321 0.0
Ho241 Ho 0.33643 0.06477 0.71849 0.0
C242 C 0.45219 0.1034 0.68549 0.0
C243 C 0.45051 0.26521 0.68618 0.0
C244 C 0.49304 0.31519 0.67668 0.0
C245 C 0.53494 0.33521 0.70724 0.0
C246 C 0.56913 0.38596 0.70534 0.0
C247 C 0.56175 0.41787 0.67343 0.0
C248 C 0.52147 0.39713 0.64066 0.0
C249 C 0.48749 0.34629 0.64232 0.0
C250 C 0.3577 0.10936 0.61453 0.0
C251 C 0.29495 0.13754 0.72789 0.0
C252 C 0.27261 0.97139 0.72313 0.0
C253 C 0.21801 0.94466 0.72038 0.0
C254 C 0.19309 0.9603 0.68786 0.0
C255 C 0.14129 0.93741 0.6893 0.0
C256 C 0.11329 0.89853 0.72345 0.0
C257 C 0.13868 0.88296 0.75559 0.0
C258 C 0.19036 0.90595 0.75423 0.0
C259 C 0.39019 0.11657 0.79927 0.0
O260 O 0.46192 0.14935 0.69062 0.0
O261 O 0.40658 0.06456 0.69148 0.0
O262 O 0.42693 0.23649 0.64888 0.0
O263 O 0.44969 0.24096 0.72657 0.0
O264 O 0.40395 0.14377 0.61481 0.0
O265 O 0.33838 0.10974 0.65565 0.0
O266 O 0.28277 0.09292 0.71282 0.0
O267 O 0.34159 0.17097 0.73351 0.0
O268 O 0.29067 0.99886 0.76247 0.0
O269 O 0.29738 0.9935 0.68239 0.0
O270 O 0.34248 0.08785 0.79839 0.0
O271 O 0.40506 0.1215 0.75465 0.0
H272 H 0.54019 0.31219 0.73418 0.0
H273 H 0.60062 0.40036 0.73007 0.0
H274 H 0.51457 0.42043 0.61567 0.0
H275 H 0.45514 0.33176 0.61873 0.0
H276 H 0.21367 0.99089 0.66204 0.0
H277 H 0.12339 0.95103 0.66441 0.0
H278 H 0.11874 0.85264 0.78178 0.0
H279 H 0.20886 0.89388 0.78019 0.0
Ho280 Ho 0.90372 0.25422 0.69859 0.0
Ho281 Ho 1.0084 0.28805 0.7191 0.0
C282 C 0.97218 0.36837 0.69123 0.0
C283 C 0.80809 0.20679 0.69811 0.0
C284 C 0.75662 0.19556 0.69043 0.0
C285 C 0.7297 0.19994 0.73014 0.0
C286 C 0.67837 0.17938 0.72702 0.0
C287 C 0.65277 0.15363 0.68423 0.0
C288 C 0.68005 0.15094 0.6438 0.0
C289 C 0.73139 0.1716 0.6469 0.0
C290 C 0.96117 0.27052 0.61645 0.0
C291 C 0.9334 0.17368 0.72502 0.0
C292 C 0.10181 0.31679 0.72291 0.0
C293 C 0.12915 0.28937 0.72154 0.0
C294 C 0.12069 0.25472 0.68425 0.0
C295 C 0.14456 0.22686 0.68562 0.0
C296 C 0.17735 0.23285 0.72442 0.0
C297 C 0.18553 0.26745 0.76181 0.0
C298 C 0.16163 0.29528 0.76037 0.0
C299 C 0.95791 0.28589 0.80307 0.0
O300 O 0.92586 0.3329 0.69683 0.0
O301 O 1.01023 0.36018 0.69508 0.0
O302 O 0.83504 0.20781 0.66024 0.0
O303 O 0.83408 0.23418 0.73537 0.0
O304 O 0.92633 0.28164 0.61945 0.0
O305 O 0.9621 0.24924 0.65626 0.0
O306 O 0.97895 0.20611 0.71107 0.0
O307 O 0.90149 0.18826 0.73425 0.0
O308 O 0.07402 0.30808 0.76232 0.0
O309 O 0.07993 0.31872 0.68207 0.0
O310 O 0.98415 0.26447 0.79823 0.0
O311 O 0.95339 0.29976 0.76002 0.0
H312 H 0.74795 0.21755 0.76447 0.0
H313 H 0.65869 0.1832 0.75841 0.0
H314 H 0.66155 0.13124 0.61038 0.0
H315 H 0.75092 0.16674 0.616 0.0
H316 H 0.09515 0.24853 0.65436 0.0
H317 H 0.13666 0.20007 0.65661 0.0
H318 H 0.21094 0.27365 0.79194 0.0
H319 H 0.16824 0.32125 0.78995 0.0
Ho320 Ho 0.82741 0.6729 0.69894 0.0
Ho321 Ho 0.78556 0.73803 0.71474 0.0
C322 C 0.71286 0.62013 0.68681 0.0
C323 C 0.87925 0.629 0.70157 0.0
C324 C 0.88802 0.58711 0.69366 0.0
C325 C 0.8813 0.55457 0.73336 0.0
C326 C 0.90006 0.52228 0.73041 0.0
C327 C 0.92634 0.522 0.68782 0.0
C328 C 0.93105 0.55296 0.64723 0.0
C329 C 0.91222 0.58524 0.65017 0.0
C330 C 0.81447 0.71515 0.61514 0.0
C331 C 0.89997 0.78318 0.72846 0.0
C332 C 0.75543 0.8013 0.71624 0.0
C333 C 0.78452 0.85635 0.71592 0.0
C334 C 0.79418 0.88339 0.67109 0.0
C335 C 0.82261 0.93515 0.67081 0.0
C336 C 0.84217 0.96106 0.71531 0.0
C337 C 0.83326 0.93411 0.76001 0.0
C338 C 0.80459 0.88241 0.76038 0.0
C339 C 0.7861 0.69089 0.80012 0.0
O340 O 0.75007 0.61269 0.69602 0.0
O341 O 0.71783 0.66535 0.68779 0.0
O342 O 0.87881 0.65502 0.6633 0.0
O343 O 0.85 0.62649 0.73791 0.0
O344 O 0.80476 0.66958 0.61817 0.0
O345 O 0.83189 0.73591 0.65597 0.0
O346 O 0.86742 0.79295 0.7081 0.0
O347 O 0.88698 0.73738 0.73989 0.0
O348 O 0.75944 0.77949 0.75623 0.0
O349 O 0.75608 0.77883 0.67552 0.0
O350 O 0.80404 0.7382 0.79557 0.0
O351 O 0.77594 0.67275 0.75698 0.0
H352 H 0.86341 0.5555 0.76766 0.0
H353 H 0.89458 0.49804 0.7619 0.0
H354 H 0.95111 0.55381 0.6139 0.0
H355 H 0.91881 0.61041 0.61924 0.0
H356 H 0.7797 0.86457 0.63619 0.0
H357 H 0.82916 0.95502 0.63572 0.0
H358 H 0.84726 0.95309 0.79495 0.0
H359 H 0.79807 0.86294 0.7957 0.0
C360 C 0.24228 0.46436 0.97492 0.0
C361 C 0.26527 0.46169 1.01896 0.0
H362 H 0.17584 0.45479 0.94139 0.0
C363 C 0.23551 0.43888 0.06144 0.0
H364 H 0.26393 0.48245 0.94176 0.0
C365 C 0.18471 0.42259 0.06086 0.0
C366 C 0.16273 0.42831 1.01768 0.0
H367 H 0.2518 0.43567 0.09586 0.0
H368 H 0.16363 0.40968 0.09534 0.0
C369 C 0.19158 0.4479 0.97438 0.0
C370 C 0.62483 0.80385 0.97875 0.0
C371 C 0.62271 0.82734 1.02241 0.0
H372 H 0.63758 0.74834 0.94726 0.0
C373 C 0.64095 0.81832 0.06694 0.0
H374 H 0.61059 0.80925 0.94394 0.0
C375 C 0.65713 0.78374 0.06849 0.0
C376 C 0.65575 0.75783 1.02553 0.0
H377 H 0.64067 0.83632 0.10115 0.0
H378 H 0.66616 0.77385 0.1042 0.0
C379 C 0.64113 0.76948 0.98038 0.0
C380 C 0.2925 0.8937 0.99733 0.0
C381 C 0.33507 0.90505 1.02481 0.0
H382 H 0.22023 0.83571 0.97475 0.0
C383 C 0.33605 0.86736 0.05316 0.0
H384 H 0.29114 0.92182 0.97455 0.0
C385 C 0.29676 0.81953 0.05332 0.0
C386 C 0.25464 0.80721 1.02511 0.0
H387 H 0.36849 0.87406 0.07399 0.0
H388 H 0.30046 0.79164 0.07418 0.0
C389 C 0.25244 0.84459 0.99708 0.0
C390 C 0.574 0.37723 0.08325 0.0
C391 C 0.53358 0.349 0.05162 0.0
H392 H 0.62686 0.45005 0.10939 0.0
C393 C 0.5166 0.3739 1.02072 0.0
H394 H 0.58803 0.35914 0.10744 0.0
C395 C 0.53827 0.42534 1.02242 0.0
C396 C 0.57811 0.45344 0.05433 0.0
H397 H 0.4853 0.35345 0.99637 0.0
H398 H 0.52339 0.44323 0.99902 0.0
C399 C 0.59649 0.42915 0.08416 0.0
C400 C 0.64691 0.17097 1.01337 0.0
C401 C 0.62131 0.15599 0.05898 0.0
H402 H 0.71736 0.20583 0.97637 0.0
C403 C 0.64797 0.16877 0.10349 0.0
H404 H 0.62689 0.15971 0.97857 0.0
C405 C 0.69974 0.19587 0.10249 0.0
C406 C 0.72589 0.20925 0.05682 0.0
H407 H 0.62876 0.15641 0.13899 0.0
H408 H 0.71924 0.20525 0.13759 0.0
C409 C 0.69873 0.19717 1.01224 0.0
C410 C 0.92911 0.52274 1.02079 0.0
C411 C 0.92492 0.48813 0.05708 0.0
H412 H 0.90486 0.57228 0.99568 0.0
C413 C 0.89005 0.47475 0.09568 0.0
H414 H 0.95628 0.5339 0.99096 0.0
C415 C 0.86094 0.49734 0.09885 0.0
C416 C 0.86595 0.53294 0.06302 0.0
H417 H 0.88695 0.44873 0.12444 0.0
H418 H 0.83511 0.48759 0.12969 0.0
C419 C 0.89966 0.5446 1.02345 0.0
C420 C 0.86156 0.79028 0.30429 0.0
C421 C 0.83248 0.76915 0.34719 0.0
H422 H 0.93383 0.82494 0.27153 0.0
C423 C 0.854 0.76067 0.38921 0.0
H424 H 0.84613 0.79889 0.27213 0.0
C425 C 0.90463 0.77594 0.38924 0.0
C426 C 0.93479 0.80049 0.34737 0.0
H427 H 0.83274 0.74621 0.42341 0.0
H428 H 0.92049 0.77049 0.42289 0.0
C429 C 0.91207 0.80568 0.30426 0.0
C430 C 0.30142 0.15082 0.40553 0.0
C431 C 0.27947 0.15758 0.36248 0.0
H432 H 0.32998 0.10828 0.44104 0.0
C433 C 0.27687 0.13121 0.31938 0.0
H434 H 0.30469 0.17112 0.43917 0.0
C435 C 0.29272 0.09665 0.32024 0.0
C436 C 0.3115 0.08765 0.36408 0.0
H437 H 0.25967 0.13483 0.28582 0.0
H438 H 0.28665 0.07404 0.28767 0.0
C439 C 0.31717 0.11592 0.40637 0.0
C440 C 0.96637 0.22707 0.39075 0.0
C441 C 0.99542 0.24969 0.34812 0.0
H442 H 0.91091 0.15953 0.42517 0.0
C443 C 0.98697 0.22161 0.30498 0.0
H444 H 0.97364 0.24758 0.42507 0.0
C445 C 0.95205 0.17102 0.30521 0.0
C446 C 0.92524 0.14735 0.34888 0.0
H447 H 1.01037 0.23791 0.27234 0.0
H448 H 0.94868 0.1499 0.27219 0.0
C449 C 0.93146 0.17637 0.39112 0.0
C450 C 0.26183 0.76981 0.34743 0.0
C451 C 0.26126 0.7938 0.39115 0.0
H452 H 0.23524 0.70041 0.31067 0.0
C453 C 0.23706 0.76537 0.43367 0.0
H454 H 0.27896 0.79106 0.31374 0.0
C455 C 0.21265 0.71372 0.43234 0.0
C456 C 0.21054 0.68911 0.38792 0.0
H457 H 0.23557 0.78318 0.46759 0.0
H458 H 0.19434 0.69312 0.46597 0.0
C459 C 0.23648 0.71787 0.34573 0.0
C460 C 0.31562 0.49272 0.43827 0.0
C461 C 0.28813 0.48806 0.39542 0.0
H462 H 0.38725 0.5234 0.47092 0.0
C463 C 0.3131 0.51157 0.35108 0.0
H464 H 0.29701 0.47433 0.47271 0.0
C465 C 0.36502 0.53793 0.34922 0.0
C466 C 0.39299 0.54202 0.39197 0.0
H467 H 0.29254 0.50712 0.31717 0.0
H468 H 0.38305 0.55331 0.31374 0.0
C469 C 0.36739 0.52014 0.43685 0.0
C470 C 0.55389 0.86202 0.44446 0.0
C471 C 0.54079 0.87563 0.3992 0.0
H472 H 0.59299 0.82968 0.47991 0.0
C473 C 0.55483 0.86284 0.35423 0.0
H474 H 0.54321 0.87042 0.47984 0.0
C475 C 0.5817 0.83792 0.35457 0.0
C476 C 0.59566 0.82574 0.39975 0.0
H477 H 0.5467 0.87363 0.3186 0.0
H478 H 0.59362 0.83026 0.31945 0.0
C479 C 0.58168 0.83797 0.44468 0.0
C480 C 0.5679 0.10702 0.7238 0.0
C481 C 0.59794 0.13028 0.6816 0.0
H482 H 0.49582 0.07755 0.75723 0.0
C483 C 0.57543 0.13362 0.63754 0.0
H484 H 0.58393 0.1032 0.75813 0.0
C485 C 0.52487 0.11773 0.63686 0.0
C486 C 0.49578 0.09786 0.67997 0.0
H487 H 0.59741 0.15176 0.60456 0.0
H488 H 0.50941 0.12505 0.60391 0.0
C489 C 0.5172 0.09102 0.72298 0.0
C490 C 0.98489 0.44578 0.72825 0.0
C491 C 0.979 0.41808 0.68537 0.0
H492 H 0.97316 0.50078 0.76267 0.0
C493 C 0.96096 0.42854 0.64186 0.0
H494 H 0.99686 0.43693 0.7628 0.0
C495 C 0.94604 0.46397 0.64196 0.0
C496 C 0.94852 0.48939 0.68583 0.0
H497 H 0.95428 0.40618 0.60898 0.0
H498 H 0.92932 0.4688 0.60864 0.0
C499 C 0.96995 0.48129 0.72846 0.0
C500 C 0.64778 0.54394 0.72656 0.0
C501 C 0.66438 0.57465 0.684 0.0
H502 H 0.60127 0.47183 0.75705 0.0
C503 C 0.644 0.55435 0.63765 0.0
H504 H 0.66507 0.55702 0.7622 0.0
C505 C 0.6092 0.5036 0.63396 0.0
C506 C 0.5944 0.47259 0.67665 0.0
H507 H 0.6579 0.57667 0.60397 0.0
H508 H 0.59622 0.48825 0.59741 0.0
C509 C 0.61249 0.49405 0.72318 0.0
C510 C 0.9128 0.04384 0.74227 0.0
C511 C 0.86847 1.01604 0.71564 0.0
H512 H 0.96932 0.11648 0.76526 0.0
C513 C 0.84764 0.04098 0.69085 0.0
H514 H 0.92962 1.02547 0.76173 0.0
C515 C 0.86971 0.0923 0.69365 0.0
C516 C 0.91362 0.12004 0.7205 0.0
H517 H 0.81331 1.02065 0.67055 0.0
H518 H 0.85213 0.11039 0.67497 0.0
C519 C 0.93563 0.09569 0.74413 0.0
C520 C 0.98044 0.82764 0.77236 0.0
C521 C 0.95315 0.81997 0.72872 0.0
H522 H 0.05197 0.86062 0.8056 0.0
C523 C 0.97827 0.8405 0.68361 0.0
H524 H 0.9617 0.81141 0.8074 0.0
C525 C 1.03017 0.86687 0.68191 0.0
C526 C 0.05796 0.87386 0.72551 0.0
H527 H 0.95784 0.83355 0.64919 0.0
H528 H 0.04834 0.8798 0.64604 0.0
C529 C 1.03221 0.85508 0.77099 0.0
C530 C 0.24159 0.16385 0.77171 0.0
C531 C 0.25894 0.1547 0.7272 0.0
H532 H 0.20052 0.19405 0.8058 0.0
C533 C 0.24816 0.16959 0.68176 0.0
H534 H 0.2505 0.15348 0.80719 0.0
C535 C 0.22096 0.19412 0.68079 0.0
C536 C 0.20377 0.20403 0.72536 0.0
H537 H 0.26268 0.1642 0.64711 0.0
H538 H 0.21511 0.20695 0.64521 0.0
C539 C 0.2137 0.18776 0.7708 0.0
C540 C 0.1373 0.45239 0.24182 0.0
C541 C 0.12617 0.40264 0.24353 0.0
H542 H 0.12366 0.50675 0.20598 0.0
C543 C 0.09339 0.36976 0.20823 0.0
H544 H 0.1631 0.4787 0.26805 0.0
C545 C 0.07126 0.38567 0.17305 0.0
C546 C 0.081 0.43487 0.17215 0.0
H547 H 0.08414 0.33132 0.20818 0.0
H548 H 0.04615 0.35922 0.14636 0.0
C549 C 0.11486 0.46846 0.20639 0.0
C550 C 0.62271 0.71144 0.24367 0.0
C551 C 0.67424 0.74366 0.24786 0.0
H552 H 0.5639 0.64777 0.207 0.0
C553 C 0.70615 0.73563 0.2175 0.0
H554 H 0.59728 0.71734 0.2661 0.0
C555 C 0.68726 0.69609 0.1844 0.0
C556 C 0.63588 0.66327 0.18051 0.0
H557 H 0.74594 0.7596 0.2197 0.0
H558 H 0.71312 0.69152 0.16122 0.0
C559 C 0.60361 0.6717 0.20999 0.0
C560 C 0.38251 0.94563 0.17099 0.0
C561 C 0.42244 0.99475 0.17479 0.0
H562 H 0.31407 0.88735 0.2034 0.0
C563 C 0.42432 1.02174 0.21693 0.0
H564 H 0.37968 0.92405 0.13882 0.0
C565 C 0.38649 1.00167 0.25252 0.0
C566 C 0.34605 0.953 0.24876 0.0
H567 H 0.45386 0.0597 0.22124 0.0
H568 H 0.38866 1.02535 0.28282 0.0
C569 C 0.34464 0.92476 0.2077 0.0
C570 C 0.43346 0.0392 0.86871 0.0
C571 C 0.46163 0.0701 0.90765 0.0
H572 H 0.38942 0.03025 0.80434 0.0
C573 C 0.46825 0.11826 0.90975 0.0
H574 H 0.42782 1.00212 0.86567 0.0
C575 C 0.44557 0.13435 0.87461 0.0
C576 C 0.41628 0.10259 0.83663 0.0
H577 H 0.49042 0.1432 0.93895 0.0
H578 H 0.45053 0.17118 0.87737 0.0
C579 C 0.41123 0.05526 0.8337 0.0
C580 C 1.0399 0.38899 0.89015 0.0
C581 C 1.00693 0.40116 0.91279 0.0
H582 H 0.04997 0.34253 0.83967 0.0
C583 C 0.95617 0.37314 0.90128 0.0
H584 H 0.07913 0.40962 0.89839 0.0
C585 C 0.93919 0.33456 0.86632 0.0
C586 C 0.97253 0.32238 0.84398 0.0
H587 H 0.93 0.38198 0.91819 0.0
H588 H 0.90035 0.31465 0.8565 0.0
C589 C 1.02294 0.34997 0.85675 0.0
C590 C 0.76279 0.67919 0.89086 0.0
C591 C 0.74965 0.66587 0.84118 0.0
H592 H 0.73666 0.67645 0.9648 0.0
C593 C 0.69909 0.63546 0.83006 0.0
H594 H 0.80081 0.70548 0.90029 0.0
C595 C 0.66293 0.61604 0.86782 0.0
C596 C 0.67628 0.62821 0.91766 0.0
H597 H 0.68711 0.62958 0.79185 0.0
H598 H 0.62434 0.5931 0.85785 0.0
C599 C 0.72626 0.66126 0.92837 0.0
C600 C 0.78258 0.80097 0.54163 0.0
C601 C 0.74978 0.76845 0.50608 0.0
H602 H 0.82959 0.80972 0.60394 0.0
C603 C 0.74109 0.71963 0.50485 0.0
H604 H 0.79048 0.83894 0.54289 0.0
C605 C 0.76313 0.70294 0.53939 0.0
C606 C 0.79469 0.73468 0.57611 0.0
H607 H 0.71674 0.69404 0.47713 0.0
H608 H 0.75464 0.66478 0.53787 0.0
C609 C 0.80493 0.7842 0.57637 0.0
C610 C 0.35283 1.00729 0.53529 0.0
C611 C 0.3045 0.98415 0.51562 0.0
H612 H 0.40749 0.06533 0.57998 0.0
C613 C 0.27279 1.00179 0.53047 0.0
H614 H 0.37896 0.99579 0.52433 0.0
C615 C 0.28917 0.04143 0.56411 0.0
C616 C 0.33825 0.06558 0.58157 0.0
H617 H 0.23584 0.98568 0.51526 0.0
H618 H 0.26419 0.05444 0.57491 0.0
C619 C 0.36961 0.04777 0.56698 0.0
C620 C 1.03825 0.27809 0.57612 0.0
C621 C 1.00073 0.29074 0.57755 0.0
H622 H 0.10589 0.2904 0.5407 0.0
C623 C 1.0021 0.3248 0.5422 0.0
H624 H 1.03732 0.25103 0.60224 0.0
C625 C 1.04065 0.34684 0.50731 0.0
C626 C 0.07915 0.33572 0.50681 0.0
H627 H 0.97363 0.33505 0.54182 0.0
H628 H 1.04033 0.37281 0.48043 0.0
C629 C 0.07729 0.30044 0.54099 0.0
loop_
_geom_bond_atom_site_label_1
_geom_bond_atom_site_label_2
_geom_bond_distance
_geom_bond_site_symmetry_2
_ccdc_geom_bond_type
Ho0 C3 2.811 . S
Ho0 O20 2.322 . S
Ho0 O22 2.378 . S
Ho0 O23 2.524 1_556 S
Ho0 O24 2.381 . S
Ho0 O25 2.669 1_455 S
Ho0 O27 2.346 1_456 S
Ho0 O31 2.305 1_556 S
Ho1 C12 2.811 . S
Ho1 O21 2.346 1_655 S
Ho1 O25 2.305 1_554 S
Ho1 O26 2.322 . S
Ho1 O28 2.378 . S
Ho1 O29 2.524 1_554 S
Ho1 O30 2.381 . S
Ho1 O31 2.669 1_655 S
C2 O20 1.259 . S
C2 O21 1.268 1_556 S
C3 Ho0 2.811 . S
C3 C4 1.488 . S
C3 O22 1.215 . S
C3 O23 1.289 1_556 S
C4 C3 1.488 . S
C4 C5 1.348 1_556 S
C4 C9 1.413 . S
C5 C4 1.348 1_554 S
C5 C6 1.442 . S
C5 H32 0.930 . S
C6 C5 1.442 . S
C6 C7 1.381 1_554 S
C6 H33 0.931 . S
C7 C6 1.381 1_556 S
C7 C8 1.321 . S
C8 C7 1.321 . S
C8 C9 1.403 . S
C8 H34 0.934 . S
C9 C4 1.413 . S
C9 C8 1.403 . S
C9 H35 0.930 . S
C10 O24 1.275 1_655 S
C10 O25 1.256 . S
C11 O26 1.259 . S
C11 O27 1.268 . S
C12 Ho1 2.811 . S
C12 C13 1.488 . S
C12 O28 1.215 . S
C12 O29 1.289 1_554 S
C13 C12 1.488 . S
C13 C14 1.348 1_554 S
C13 C18 1.413 . S
C14 C13 1.348 1_556 S
C14 C15 1.442 . S
C14 H36 0.930 . S
C15 C14 1.442 . S
C15 C16 1.381 1_556 S
C15 H37 0.931 . S
C16 C15 1.381 1_554 S
C16 C17 1.321 . S
C17 C16 1.321 . S
C17 C18 1.403 . S
C17 H38 0.934 . S
C18 C13 1.413 . S
C18 C17 1.403 . S
C18 H39 0.930 . S
C19 O30 1.275 1_455 S
C19 O31 1.256 . S
O20 Ho0 2.322 . S
O20 C2 1.259 . S
O21 Ho1 2.346 1_455 S
O21 C2 1.268 1_554 S
O22 Ho0 2.378 . S
O22 C3 1.215 . S
O23 Ho0 2.524 1_554 S
O23 C3 1.289 1_554 S
O24 Ho0 2.381 . S
O24 C10 1.275 1_455 S
O25 Ho0 2.669 1_655 S
O25 Ho1 2.305 1_556 S
O25 C10 1.256 . S
O26 Ho1 2.322 . S
O26 C11 1.259 . S
O27 Ho0 2.346 1_654 S
O27 C11 1.268 . S
O28 Ho1 2.378 . S
O28 C12 1.215 . S
O29 Ho1 2.524 1_556 S
O29 C12 1.289 1_556 S
O30 Ho1 2.381 . S
O30 C19 1.275 1_655 S
O31 Ho0 2.305 1_554 S
O31 Ho1 2.669 1_455 S
O31 C19 1.256 . S
H32 C5 0.930 . S
H33 C6 0.931 . S
H34 C8 0.934 . S
H35 C9 0.930 . S
H36 C14 0.930 . S
H37 C15 0.931 . S
H38 C17 0.934 . S
H39 C18 0.930 . S
Ho40 C43 2.811 . S
Ho40 O60 2.322 . S
Ho40 O62 2.378 . S
Ho40 O63 2.524 1_556 S
Ho40 O64 2.381 . S
Ho40 O65 2.669 . S
Ho40 O67 2.346 1_556 S
Ho40 O71 2.305 1_556 S
Ho41 C52 2.811 . S
Ho41 O61 2.346 . S
Ho41 O65 2.305 1_554 S
Ho41 O66 2.322 . S
Ho41 O68 2.378 . S
Ho41 O69 2.524 1_554 S
Ho41 O70 2.381 . S
Ho41 O71 2.669 . S
C42 O60 1.259 . S
C42 O61 1.268 1_556 S
C43 Ho40 2.811 . S
C43 C44 1.488 . S
C43 O62 1.215 . S
C43 O63 1.289 1_556 S
C44 C43 1.488 . S
C44 C45 1.348 1_556 S
C44 C49 1.413 . S
C45 C44 1.348 1_554 S
C45 C46 1.442 . S
C45 H72 0.930 . S
C46 C45 1.442 . S
C46 C47 1.381 1_554 S
C46 H73 0.931 . S
C47 C46 1.381 1_556 S
C47 C48 1.321 . S
C48 C47 1.321 . S
C48 C49 1.403 . S
C48 H74 0.934 . S
C49 C44 1.413 . S
C49 C48 1.403 . S
C49 H75 0.930 . S
C50 O64 1.275 . S
C50 O65 1.256 . S
C51 O66 1.259 . S
C51 O67 1.268 . S
C52 Ho41 2.811 . S
C52 C53 1.488 . S
C52 O68 1.215 . S
C52 O69 1.289 1_554 S
C53 C52 1.488 . S
C53 C54 1.348 1_554 S
C53 C58 1.413 . S
C54 C53 1.348 1_556 S
C54 C55 1.442 . S
C54 H76 0.930 . S
C55 C54 1.442 . S
C55 C56 1.381 1_556 S
C55 H77 0.931 . S
C56 C55 1.381 1_554 S
C56 C57 1.321 . S
C57 C56 1.321 . S
C57 C58 1.403 . S
C57 H78 0.934 . S
C58 C53 1.413 . S
C58 C57 1.403 . S
C58 H79 0.930 . S
C59 O70 1.275 . S
C59 O71 1.256 . S
O60 Ho40 2.322 . S
O60 C42 1.259 . S
O61 Ho41 2.346 . S
O61 C42 1.268 1_554 S
O62 Ho40 2.378 . S
O62 C43 1.215 . S
O63 Ho40 2.524 1_554 S
O63 C43 1.289 1_554 S
O64 Ho40 2.381 . S
O64 C50 1.275 . S
O65 Ho40 2.669 . S
O65 Ho41 2.305 1_556 S
O65 C50 1.256 . S
O66 Ho41 2.322 . S
O66 C51 1.259 . S
O67 Ho40 2.346 1_554 S
O67 C51 1.268 . S
O68 Ho41 2.378 . S
O68 C52 1.215 . S
O69 Ho41 2.524 1_556 S
O69 C52 1.289 1_556 S
O70 Ho41 2.381 . S
O70 C59 1.275 . S
O71 Ho40 2.305 1_554 S
O71 Ho41 2.669 . S
O71 C59 1.256 . S
H72 C45 0.930 . S
H73 C46 0.931 . S
H74 C48 0.934 . S
H75 C49 0.930 . S
H76 C54 0.930 . S
H77 C55 0.931 . S
H78 C57 0.934 . S
H79 C58 0.930 . S
Ho80 C83 2.811 . S
Ho80 O100 2.322 . S
Ho80 O102 2.378 . S
Ho80 O103 2.524 1_556 S
Ho80 O104 2.381 . S
Ho80 O105 2.669 1_565 S
Ho80 O107 2.346 1_566 S
Ho80 O111 2.305 1_556 S
Ho81 C92 2.811 . S
Ho81 O101 2.346 1_545 S
Ho81 O105 2.305 1_554 S
Ho81 O106 2.322 . S
Ho81 O108 2.378 . S
Ho81 O109 2.524 1_554 S
Ho81 O110 2.381 . S
Ho81 O111 2.669 1_545 S
C82 O100 1.259 . S
C82 O101 1.268 1_556 S
C83 Ho80 2.811 . S
C83 C84 1.488 . S
C83 O102 1.215 . S
C83 O103 1.289 1_556 S
C84 C83 1.488 . S
C84 C85 1.348 1_556 S
C84 C89 1.413 . S
C85 C84 1.348 1_554 S
C85 C86 1.442 . S
C85 H112 0.930 . S
C86 C85 1.442 . S
C86 C87 1.381 1_554 S
C86 H113 0.931 . S
C87 C86 1.381 1_556 S
C87 C88 1.321 . S
C88 C87 1.321 . S
C88 C89 1.403 . S
C88 H114 0.934 . S
C89 C84 1.413 . S
C89 C88 1.403 . S
C89 H115 0.930 . S
C90 O104 1.275 1_545 S
C90 O105 1.256 . S
C91 O106 1.259 . S
C91 O107 1.268 . S
C92 Ho81 2.811 . S
C92 C93 1.488 . S
C92 O108 1.215 . S
C92 O109 1.289 1_554 S
C93 C92 1.488 . S
C93 C94 1.348 1_554 S
C93 C98 1.413 . S
C94 C93 1.348 1_556 S
C94 C95 1.442 . S
C94 H116 0.930 . S
C95 C94 1.442 . S
C95 C96 1.381 1_556 S
C95 H117 0.931 . S
C96 C95 1.381 1_554 S
C96 C97 1.321 . S
C97 C96 1.321 . S
C97 C98 1.403 . S
C97 H118 0.934 . S
C98 C93 1.413 . S
C98 C97 1.403 . S
C98 H119 0.930 . S
C99 O110 1.275 1_565 S
C99 O111 1.256 . S
O100 Ho80 2.322 . S
O100 C82 1.259 . S
O101 Ho81 2.346 1_565 S
O101 C82 1.268 1_554 S
O102 Ho80 2.378 . S
O102 C83 1.215 . S
O103 Ho80 2.524 1_554 S
O103 C83 1.289 1_554 S
O104 Ho80 2.381 . S
O104 C90 1.275 1_565 S
O105 Ho80 2.669 1_545 S
O105 Ho81 2.305 1_556 S
O105 C90 1.256 . S
O106 Ho81 2.322 . S
O106 C91 1.259 . S
O107 Ho80 2.346 1_544 S
O107 C91 1.268 . S
O108 Ho81 2.378 . S
O108 C92 1.215 . S
O109 Ho81 2.524 1_556 S
O109 C92 1.289 1_556 S
O110 Ho81 2.381 . S
O110 C99 1.275 1_545 S
O111 Ho80 2.305 1_554 S
O111 Ho81 2.669 1_565 S
O111 C99 1.256 . S
H112 C85 0.930 . S
H113 C86 0.931 . S
H114 C88 0.934 . S
H115 C89 0.930 . S
H116 C94 0.930 . S
H117 C95 0.931 . S
H118 C97 0.934 . S
H119 C98 0.930 . S
Ho120 C123 2.811 . S
Ho120 O140 2.322 . S
Ho120 O142 2.378 . S
Ho120 O143 2.524 . S
Ho120 O144 2.381 . S
Ho120 O145 2.669 . S
Ho120 O147 2.346 . S
Ho120 O151 2.305 . S
Ho121 C132 2.811 . S
Ho121 O141 2.346 . S
Ho121 O145 2.305 . S
Ho121 O146 2.322 . S
Ho121 O148 2.378 . S
Ho121 O149 2.524 . S
Ho121 O150 2.381 . S
Ho121 O151 2.669 . S
C122 O140 1.259 . S
C122 O141 1.268 . S
C123 Ho120 2.811 . S
C123 C124 1.488 . S
C123 O142 1.215 . S
C123 O143 1.289 . S
C124 C123 1.488 . S
C124 C125 1.348 . S
C124 C129 1.413 . S
C125 C124 1.348 . S
C125 C126 1.442 1_565 S
C125 H152 0.930 . S
C126 C125 1.442 1_545 S
C126 C127 1.381 . S
C126 H153 0.931 . S
C127 C126 1.381 . S
C127 C128 1.321 . S
C128 C127 1.321 . S
C128 C129 1.403 1_545 S
C128 H154 0.934 . S
C129 C124 1.413 . S
C129 C128 1.403 1_565 S
C129 H155 0.930 . S
C130 O144 1.275 . S
C130 O145 1.256 . S
C131 O146 1.259 . S
C131 O147 1.268 . S
C132 Ho121 2.811 . S
C132 C133 1.488 . S
C132 O148 1.215 . S
C132 O149 1.289 . S
C133 C132 1.488 . S
C133 C134 1.348 . S
C133 C138 1.413 . S
C134 C133 1.348 . S
C134 C135 1.442 . S
C134 H156 0.930 . S
C135 C134 1.442 . S
C135 C136 1.381 . S
C135 H157 0.931 . S
C136 C135 1.381 . S
C136 C137 1.321 . S
C137 C136 1.321 . S
C137 C138 1.403 . S
C137 H158 0.934 . S
C138 C133 1.413 . S
C138 C137 1.403 . S
C138 H159 0.930 . S
C139 O150 1.275 . S
C139 O151 1.256 . S
O140 Ho120 2.322 . S
O140 C122 1.259 . S
O141 Ho121 2.346 . S
O141 C122 1.268 . S
O142 Ho120 2.378 . S
O142 C123 1.215 . S
O143 Ho120 2.524 . S
O143 C123 1.289 . S
O144 Ho120 2.381 . S
O144 C130 1.275 . S
O145 Ho120 2.669 . S
O145 Ho121 2.305 . S
O145 C130 1.256 . S
O146 Ho121 2.322 . S
O146 C131 1.259 . S
O147 Ho120 2.346 . S
O147 C131 1.268 . S
O148 Ho121 2.378 . S
O148 C132 1.215 . S
O149 Ho121 2.524 . S
O149 C132 1.289 . S
O150 Ho121 2.381 . S
O150 C139 1.275 . S
O151 Ho120 2.305 . S
O151 Ho121 2.669 . S
O151 C139 1.256 . S
H152 C125 0.930 . S
H153 C126 0.931 . S
H154 C128 0.934 . S
H155 C129 0.930 . S
H156 C134 0.930 . S
H157 C135 0.931 . S
H158 C137 0.934 . S
H159 C138 0.930 . S
Ho160 C163 2.811 . S
Ho160 O180 2.322 . S
Ho160 O182 2.378 . S
Ho160 O183 2.524 . S
Ho160 O184 2.381 . S
Ho160 O185 2.669 . S
Ho160 O187 2.346 . S
Ho160 O191 2.305 . S
Ho161 C172 2.811 . S
Ho161 O181 2.346 . S
Ho161 O185 2.305 . S
Ho161 O186 2.322 . S
Ho161 O188 2.378 . S
Ho161 O189 2.524 . S
Ho161 O190 2.381 . S
Ho161 O191 2.669 . S
C162 O180 1.259 . S
C162 O181 1.268 . S
C163 Ho160 2.811 . S
C163 C164 1.488 . S
C163 O182 1.215 . S
C163 O183 1.289 . S
C164 C163 1.488 . S
C164 C165 1.348 . S
C164 C169 1.413 . S
C165 C164 1.348 . S
C165 C166 1.442 1_455 S
C165 H192 0.930 . S
C166 C165 1.442 1_655 S
C166 C167 1.381 . S
C166 H193 0.931 . S
C167 C166 1.381 . S
C167 C168 1.321 . S
C168 C167 1.321 . S
C168 C169 1.403 1_655 S
C168 H194 0.934 . S
C169 C164 1.413 . S
C169 C168 1.403 1_455 S
C169 H195 0.930 . S
C170 O184 1.275 . S
C170 O185 1.256 . S
C171 O186 1.259 . S
C171 O187 1.268 . S
C172 Ho161 2.811 . S
C172 C173 1.488 . S
C172 O188 1.215 . S
C172 O189 1.289 . S
C173 C172 1.488 . S
C173 C174 1.348 . S
C173 C178 1.413 . S
C174 C173 1.348 . S
C174 C175 1.442 . S
C174 H196 0.930 . S
C175 C174 1.442 . S
C175 C176 1.381 . S
C175 H197 0.931 . S
C176 C175 1.381 . S
C176 C177 1.321 . S
C177 C176 1.321 . S
C177 C178 1.403 . S
C177 H198 0.934 . S
C178 C173 1.413 . S
C178 C177 1.403 . S
C178 H199 0.930 . S
C179 O190 1.275 . S
C179 O191 1.256 . S
O180 Ho160 2.322 . S
O180 C162 1.259 . S
O181 Ho161 2.346 . S
O181 C162 1.268 . S
O182 Ho160 2.378 . S
O182 C163 1.215 . S
O183 Ho160 2.524 . S
O183 C163 1.289 . S
O184 Ho160 2.381 . S
O184 C170 1.275 . S
O185 Ho160 2.669 . S
O185 Ho161 2.305 . S
O185 C170 1.256 . S
O186 Ho161 2.322 . S
O186 C171 1.259 . S
O187 Ho160 2.346 . S
O187 C171 1.268 . S
O188 Ho161 2.378 . S
O188 C172 1.215 . S
O189 Ho161 2.524 . S
O189 C172 1.289 . S
O190 Ho161 2.381 . S
O190 C179 1.275 . S
O191 Ho160 2.305 . S
O191 Ho161 2.669 . S
O191 C179 1.256 . S
H192 C165 0.930 . S
H193 C166 0.931 . S
H194 C168 0.934 . S
H195 C169 0.930 . S
H196 C174 0.930 . S
H197 C175 0.931 . S
H198 C177 0.934 . S
H199 C178 0.930 . S
Ho200 C203 2.811 . S
Ho200 O220 2.322 . S
Ho200 O222 2.378 . S
Ho200 O223 2.524 . S
Ho200 O224 2.381 . S
Ho200 O225 2.669 . S
Ho200 O227 2.346 . S
Ho200 O231 2.305 . S
Ho201 C212 2.811 . S
Ho201 O221 2.346 . S
Ho201 O225 2.305 . S
Ho201 O226 2.322 . S
Ho201 O228 2.378 . S
Ho201 O229 2.524 . S
Ho201 O230 2.381 . S
Ho201 O231 2.669 . S
C202 O220 1.259 . S
C202 O221 1.268 . S
C203 Ho200 2.811 . S
C203 C204 1.488 . S
C203 O222 1.215 . S
C203 O223 1.289 . S
C204 C203 1.488 . S
C204 C205 1.348 . S
C204 C209 1.413 . S
C205 C204 1.348 . S
C205 C206 1.442 . S
C205 H232 0.930 . S
C206 C205 1.442 . S
C206 C207 1.381 . S
C206 H233 0.931 . S
C207 C206 1.381 . S
C207 C208 1.321 . S
C208 C207 1.321 . S
C208 C209 1.403 . S
C208 H234 0.934 . S
C209 C204 1.413 . S
C209 C208 1.403 . S
C209 H235 0.930 . S
C210 O224 1.275 . S
C210 O225 1.256 . S
C211 O226 1.259 . S
C211 O227 1.268 . S
C212 Ho201 2.811 . S
C212 C213 1.488 . S
C212 O228 1.215 . S
C212 O229 1.289 . S
C213 C212 1.488 . S
C213 C214 1.348 . S
C213 C218 1.413 . S
C214 C213 1.348 . S
C214 C215 1.442 . S
C214 H236 0.930 . S
C215 C214 1.442 . S
C215 C216 1.381 . S
C215 H237 0.931 . S
C216 C215 1.381 . S
C216 C217 1.321 . S
C217 C216 1.321 . S
C217 C218 1.403 . S
C217 H238 0.934 . S
C218 C213 1.413 . S
C218 C217 1.403 . S
C218 H239 0.930 . S
C219 O230 1.275 . S
C219 O231 1.256 . S
O220 Ho200 2.322 . S
O220 C202 1.259 . S
O221 Ho201 2.346 . S
O221 C202 1.268 . S
O222 Ho200 2.378 . S
O222 C203 1.215 . S
O223 Ho200 2.524 . S
O223 C203 1.289 . S
O224 Ho200 2.381 . S
O224 C210 1.275 . S
O225 Ho200 2.669 . S
O225 Ho201 2.305 . S
O225 C210 1.256 . S
O226 Ho201 2.322 . S
O226 C211 1.259 . S
O227 Ho200 2.346 . S
O227 C211 1.268 . S
O228 Ho201 2.378 . S
O228 C212 1.215 . S
O229 Ho201 2.524 . S
O229 C212 1.289 . S
O230 Ho201 2.381 . S
O230 C219 1.275 . S
O231 Ho200 2.305 . S
O231 Ho201 2.669 . S
O231 C219 1.256 . S
H232 C205 0.930 . S
H233 C206 0.931 . S
H234 C208 0.934 . S
H235 C209 0.930 . S
H236 C214 0.930 . S
H237 C215 0.931 . S
H238 C217 0.934 . S
H239 C218 0.930 . S
Ho240 C243 2.811 . S
Ho240 O260 2.322 . S
Ho240 O262 2.378 . S
Ho240 O263 2.524 . S
Ho240 O264 2.381 . S
Ho240 O265 2.669 . S
Ho240 O267 2.346 . S
Ho240 O271 2.305 . S
Ho241 C252 2.811 1_545 S
Ho241 O261 2.346 . S
Ho241 O265 2.305 . S
Ho241 O266 2.322 . S
Ho241 O268 2.378 1_545 S
Ho241 O269 2.524 . S
Ho241 O270 2.381 . S
Ho241 O271 2.669 . S
C242 O260 1.259 . S
C242 O261 1.268 . S
C243 Ho240 2.811 . S
C243 C244 1.488 . S
C243 O262 1.215 . S
C243 O263 1.289 . S
C244 C243 1.488 . S
C244 C245 1.348 . S
C244 C249 1.413 . S
C245 C244 1.348 . S
C245 C246 1.442 . S
C245 H272 0.930 . S
C246 C245 1.442 . S
C246 C247 1.381 . S
C246 H273 0.931 . S
C247 C246 1.381 . S
C247 C248 1.321 . S
C248 C247 1.321 . S
C248 C249 1.403 . S
C248 H274 0.934 . S
C249 C244 1.413 . S
C249 C248 1.403 . S
C249 H275 0.930 . S
C250 O264 1.275 . S
C250 O265 1.256 . S
C251 O266 1.259 . S
C251 O267 1.268 . S
C252 Ho241 2.811 1_565 S
C252 C253 1.488 . S
C252 O268 1.215 . S
C252 O269 1.289 1_565 S
C253 C252 1.488 . S
C253 C254 1.348 . S
C253 C258 1.413 . S
C254 C253 1.348 . S
C254 C255 1.442 . S
C254 H276 0.930 . S
C255 C254 1.442 . S
C255 C256 1.381 . S
C255 H277 0.931 . S
C256 C255 1.381 . S
C256 C257 1.321 . S
C257 C256 1.321 . S
C257 C258 1.403 . S
C257 H278 0.934 . S
C258 C253 1.413 . S
C258 C257 1.403 . S
C258 H279 0.930 . S
C259 O270 1.275 . S
C259 O271 1.256 . S
O260 Ho240 2.322 . S
O260 C242 1.259 . S
O261 Ho241 2.346 . S
O261 C242 1.268 . S
O262 Ho240 2.378 . S
O262 C243 1.215 . S
O263 Ho240 2.524 . S
O263 C243 1.289 . S
O264 Ho240 2.381 . S
O264 C250 1.275 . S
O265 Ho240 2.669 . S
O265 Ho241 2.305 . S
O265 C250 1.256 . S
O266 Ho241 2.322 . S
O266 C251 1.259 . S
O267 Ho240 2.346 . S
O267 C251 1.268 . S
O268 Ho241 2.378 1_565 S
O268 C252 1.215 . S
O269 Ho241 2.524 . S
O269 C252 1.289 1_545 S
O270 Ho241 2.381 . S
O270 C259 1.275 . S
O271 Ho240 2.305 . S
O271 Ho241 2.669 . S
O271 C259 1.256 . S
H272 C245 0.930 . S
H273 C246 0.931 . S
H274 C248 0.934 . S
H275 C249 0.930 . S
H276 C254 0.930 . S
H277 C255 0.931 . S
H278 C257 0.934 . S
H279 C258 0.930 . S
Ho280 C283 2.811 . S
Ho280 O300 2.322 . S
Ho280 O302 2.378 . S
Ho280 O303 2.524 . S
Ho280 O304 2.381 . S
Ho280 O305 2.669 . S
Ho280 O307 2.346 . S
Ho280 O311 2.305 . S
Ho281 C292 2.811 1_655 S
Ho281 O301 2.346 . S
Ho281 O305 2.305 . S
Ho281 O306 2.322 . S
Ho281 O308 2.378 1_655 S
Ho281 O309 2.524 1_655 S
Ho281 O310 2.381 . S
Ho281 O311 2.669 . S
C282 O300 1.259 . S
C282 O301 1.268 . S
C283 Ho280 2.811 . S
C283 C284 1.488 . S
C283 O302 1.215 . S
C283 O303 1.289 . S
C284 C283 1.488 . S
C284 C285 1.348 . S
C284 C289 1.413 . S
C285 C284 1.348 . S
C285 C286 1.442 . S
C285 H312 0.930 . S
C286 C285 1.442 . S
C286 C287 1.381 . S
C286 H313 0.931 . S
C287 C286 1.381 . S
C287 C288 1.321 . S
C288 C287 1.321 . S
C288 C289 1.403 . S
C288 H314 0.934 . S
C289 C284 1.413 . S
C289 C288 1.403 . S
C289 H315 0.930 . S
C290 O304 1.275 . S
C290 O305 1.256 . S
C291 O306 1.259 . S
C291 O307 1.268 . S
C292 Ho281 2.811 1_455 S
C292 C293 1.488 . S
C292 O308 1.215 . S
C292 O309 1.289 . S
C293 C292 1.488 . S
C293 C294 1.348 . S
C293 C298 1.413 . S
C294 C293 1.348 . S
C294 C295 1.442 . S
C294 H316 0.930 . S
C295 C294 1.442 . S
C295 C296 1.381 . S
C295 H317 0.931 . S
C296 C295 1.381 . S
C296 C297 1.321 . S
C297 C296 1.321 . S
C297 C298 1.403 . S
C297 H318 0.934 . S
C298 C293 1.413 . S
C298 C297 1.403 . S
C298 H319 0.930 . S
C299 O310 1.275 . S
C299 O311 1.256 . S
O300 Ho280 2.322 . S
O300 C282 1.259 . S
O301 Ho281 2.346 . S
O301 C282 1.268 . S
O302 Ho280 2.378 . S
O302 C283 1.215 . S
O303 Ho280 2.524 . S
O303 C283 1.289 . S
O304 Ho280 2.381 . S
O304 C290 1.275 . S
O305 Ho280 2.669 . S
O305 Ho281 2.305 . S
O305 C290 1.256 . S
O306 Ho281 2.322 . S
O306 C291 1.259 . S
O307 Ho280 2.346 . S
O307 C291 1.268 . S
O308 Ho281 2.378 1_455 S
O308 C292 1.215 . S
O309 Ho281 2.524 1_455 S
O309 C292 1.289 . S
O310 Ho281 2.381 . S
O310 C299 1.275 . S
O311 Ho280 2.305 . S
O311 Ho281 2.669 . S
O311 C299 1.256 . S
H312 C285 0.930 . S
H313 C286 0.931 . S
H314 C288 0.934 . S
H315 C289 0.930 . S
H316 C294 0.930 . S
H317 C295 0.931 . S
H318 C297 0.934 . S
H319 C298 0.930 . S
Ho320 C323 2.811 . S
Ho320 O340 2.322 . S
Ho320 O342 2.378 . S
Ho320 O343 2.524 . S
Ho320 O344 2.381 . S
Ho320 O345 2.669 . S
Ho320 O347 2.346 . S
Ho320 O351 2.305 . S
Ho321 C332 2.811 . S
Ho321 O341 2.346 . S
Ho321 O345 2.305 . S
Ho321 O346 2.322 . S
Ho321 O348 2.378 . S
Ho321 O349 2.524 . S
Ho321 O350 2.381 . S
Ho321 O351 2.669 . S
C322 O340 1.259 . S
C322 O341 1.268 . S
C323 Ho320 2.811 . S
C323 C324 1.488 . S
C323 O342 1.215 . S
C323 O343 1.289 . S
C324 C323 1.488 . S
C324 C325 1.348 . S
C324 C329 1.413 . S
C325 C324 1.348 . S
C325 C326 1.442 . S
C325 H352 0.930 . S
C326 C325 1.442 . S
C326 C327 1.381 . S
C326 H353 0.931 . S
C327 C326 1.381 . S
C327 C328 1.321 . S
C328 C327 1.321 . S
C328 C329 1.403 . S
C328 H354 0.934 . S
C329 C324 1.413 . S
C329 C328 1.403 . S
C329 H355 0.930 . S
C330 O344 1.275 . S
C330 O345 1.256 . S
C331 O346 1.259 . S
C331 O347 1.268 . S
C332 Ho321 2.811 . S
C332 C333 1.488 . S
C332 O348 1.215 . S
C332 O349 1.289 . S
C333 C332 1.488 . S
C333 C334 1.348 . S
C333 C338 1.413 . S
C334 C333 1.348 . S
C334 C335 1.442 . S
C334 H356 0.930 . S
C335 C334 1.442 . S
C335 C336 1.381 . S
C335 H357 0.931 . S
C336 C335 1.381 . S
C336 C337 1.321 . S
C337 C336 1.321 . S
C337 C338 1.403 . S
C337 H358 0.934 . S
C338 C333 1.413 . S
C338 C337 1.403 . S
C338 H359 0.930 . S
C339 O350 1.275 . S
C339 O351 1.256 . S
O340 Ho320 2.322 . S
O340 C322 1.259 . S
O341 Ho321 2.346 . S
O341 C322 1.268 . S
O342 Ho320 2.378 . S
O342 C323 1.215 . S
O343 Ho320 2.524 . S
O343 C323 1.289 . S
O344 Ho320 2.381 . S
O344 C330 1.275 . S
O345 Ho320 2.669 . S
O345 Ho321 2.305 . S
O345 C330 1.256 . S
O346 Ho321 2.322 . S
O346 C331 1.259 . S
O347 Ho320 2.346 . S
O347 C331 1.268 . S
O348 Ho321 2.378 . S
O348 C332 1.215 . S
O349 Ho321 2.524 . S
O349 C332 1.289 . S
O350 Ho321 2.381 . S
O350 C339 1.275 . S
O351 Ho320 2.305 . S
O351 Ho321 2.669 . S
O351 C339 1.256 . S
H352 C325 0.930 . S
H353 C326 0.931 . S
H354 C328 0.934 . S
H355 C329 0.930 . S
H356 C334 0.930 . S
H357 C335 0.931 . S
H358 C337 0.934 . S
H359 C338 0.930 . S
C360 C361 1.387 . S
C360 H364 0.950 . S
C360 C369 1.390 . S
C361 C360 1.387 . S
C361 C363 1.387 1_556 S
H362 C369 0.950 . S
C363 C361 1.387 1_554 S
C363 C365 1.390 . S
C363 H367 0.950 . S
H364 C360 0.950 . S
C365 C363 1.390 . S
C365 C366 1.387 1_554 S
C365 H368 0.950 . S
C366 C365 1.387 1_556 S
C366 C369 1.387 . S
H367 C363 0.950 . S
H368 C365 0.950 . S
C369 C360 1.390 . S
C369 H362 0.950 . S
C369 C366 1.387 . S
C370 C371 1.387 . S
C370 H374 0.950 . S
C370 C379 1.390 . S
C371 C370 1.387 . S
C371 C373 1.387 1_556 S
H372 C379 0.950 . S
C373 C371 1.387 1_554 S
C373 C375 1.390 . S
C373 H377 0.950 . S
H374 C370 0.950 . S
C375 C373 1.390 . S
C375 C376 1.387 1_554 S
C375 H378 0.950 . S
C376 C375 1.387 1_556 S
C376 C379 1.387 . S
H377 C373 0.950 . S
H378 C375 0.950 . S
C379 C370 1.390 . S
C379 H372 0.950 . S
C379 C376 1.387 . S
C380 C381 1.387 . S
C380 H384 0.950 . S
C380 C389 1.390 . S
C381 C380 1.387 . S
C381 C383 1.387 1_556 S
H382 C389 0.950 . S
C383 C381 1.387 1_554 S
C383 C385 1.390 1_554 S
C383 H387 0.950 . S
H384 C380 0.950 . S
C385 C383 1.390 1_556 S
C385 C386 1.387 . S
C385 H388 0.950 1_556 S
C386 C385 1.387 . S
C386 C389 1.387 . S
H387 C383 0.950 . S
H388 C385 0.950 1_554 S
C389 C380 1.390 . S
C389 H382 0.950 . S
C389 C386 1.387 . S
C390 C391 1.387 . S
C390 H394 0.950 . S
C390 C399 1.390 . S
C391 C390 1.387 . S
C391 C393 1.387 1_554 S
H392 C399 0.950 . S
C393 C391 1.387 1_556 S
C393 C395 1.390 . S
C393 H397 0.950 . S
H394 C390 0.950 . S
C395 C393 1.390 . S
C395 C396 1.387 1_556 S
C395 H398 0.950 . S
C396 C395 1.387 1_554 S
C396 C399 1.387 . S
H397 C393 0.950 . S
H398 C395 0.950 . S
C399 C390 1.390 . S
C399 H392 0.950 . S
C399 C396 1.387 . S
C400 C401 1.387 1_556 S
C400 H404 0.950 . S
C400 C409 1.390 . S
C401 C400 1.387 1_554 S
C401 C403 1.387 . S
H402 C409 0.950 . S
C403 C401 1.387 . S
C403 C405 1.390 . S
C403 H407 0.950 . S
H404 C400 0.950 . S
C405 C403 1.390 . S
C405 C406 1.387 . S
C405 H408 0.950 . S
C406 C405 1.387 . S
C406 C409 1.387 1_554 S
H407 C403 0.950 . S
H408 C405 0.950 . S
C409 C400 1.390 . S
C409 H402 0.950 . S
C409 C406 1.387 1_556 S
C410 C411 1.387 1_556 S
C410 H414 0.950 . S
C410 C419 1.390 . S
C411 C410 1.387 1_554 S
C411 C413 1.387 . S
H412 C419 0.950 . S
C413 C411 1.387 . S
C413 C415 1.390 . S
C413 H417 0.950 . S
H414 C410 0.950 . S
C415 C413 1.390 . S
C415 C416 1.387 . S
C415 H418 0.950 . S
C416 C415 1.387 . S
C416 C419 1.387 1_554 S
H417 C413 0.950 . S
H418 C415 0.950 . S
C419 C410 1.390 . S
C419 H412 0.950 . S
C419 C416 1.387 1_556 S
C420 C421 1.387 . S
C420 H424 0.950 . S
C420 C429 1.390 . S
C421 C420 1.387 . S
C421 C423 1.387 . S
H422 C429 0.950 . S
C423 C421 1.387 . S
C423 C425 1.390 . S
C423 H427 0.950 . S
H424 C420 0.950 . S
C425 C423 1.390 . S
C425 C426 1.387 . S
C425 H428 0.950 . S
C426 C425 1.387 . S
C426 C429 1.387 . S
H427 C423 0.950 . S
H428 C425 0.950 . S
C429 C420 1.390 . S
C429 H422 0.950 . S
C429 C426 1.387 . S
C430 C431 1.387 . S
C430 H434 0.950 . S
C430 C439 1.390 . S
C431 C430 1.387 . S
C431 C433 1.387 . S
H432 C439 0.950 . S
C433 C431 1.387 . S
C433 C435 1.390 1_545 S
C433 H437 0.950 1_545 S
H434 C430 0.950 . S
C435 C433 1.390 1_565 S
C435 C436 1.387 1_565 S
C435 H438 0.950 . S
C436 C435 1.387 1_545 S
C436 C439 1.387 . S
H437 C433 0.950 1_565 S
H438 C435 0.950 . S
C439 C430 1.390 . S
C439 H432 0.950 . S
C439 C436 1.387 . S
C440 C441 1.387 . S
C440 H444 0.950 . S
C440 C449 1.390 1_455 S
C441 C440 1.387 . S
C441 C443 1.387 1_455 S
H442 C449 0.950 . S
C443 C441 1.387 1_655 S
C443 C445 1.390 . S
C443 H447 0.950 1_655 S
H444 C440 0.950 . S
C445 C443 1.390 . S
C445 C446 1.387 . S
C445 H448 0.950 . S
C446 C445 1.387 . S
C446 C449 1.387 . S
H447 C443 0.950 1_455 S
H448 C445 0.950 . S
C449 C440 1.390 1_655 S
C449 H442 0.950 . S
C449 C446 1.387 . S
C450 C451 1.387 . S
C450 H454 0.950 . S
C450 C459 1.390 . S
C451 C450 1.387 . S
C451 C453 1.387 . S
H452 C459 0.950 . S
C453 C451 1.387 . S
C453 C455 1.390 . S
C453 H457 0.950 . S
H454 C450 0.950 . S
C455 C453 1.390 . S
C455 C456 1.387 . S
C455 H458 0.950 . S
C456 C455 1.387 . S
C456 C459 1.387 . S
H457 C453 0.950 . S
H458 C455 0.950 . S
C459 C450 1.390 . S
C459 H452 0.950 . S
C459 C456 1.387 . S
C460 C461 1.387 . S
C460 H464 0.950 . S
C460 C469 1.390 . S
C461 C460 1.387 . S
C461 C463 1.387 . S
H462 C469 0.950 . S
C463 C461 1.387 . S
C463 C465 1.390 . S
C463 H467 0.950 . S
H464 C460 0.950 . S
C465 C463 1.390 . S
C465 C466 1.387 . S
C465 H468 0.950 . S
C466 C465 1.387 . S
C466 C469 1.387 . S
H467 C463 0.950 . S
H468 C465 0.950 . S
C469 C460 1.390 . S
C469 H462 0.950 . S
C469 C466 1.387 . S
C470 C471 1.387 . S
C470 H474 0.950 . S
C470 C479 1.390 . S
C471 C470 1.387 . S
C471 C473 1.387 . S
H472 C479 0.950 . S
C473 C471 1.387 . S
C473 C475 1.390 . S
C473 H477 0.950 . S
H474 C470 0.950 . S
C475 C473 1.390 . S
C475 C476 1.387 . S
C475 H478 0.950 . S
C476 C475 1.387 . S
C476 C479 1.387 . S
H477 C473 0.950 . S
H478 C475 0.950 . S
C479 C470 1.390 . S
C479 H472 0.950 . S
C479 C476 1.387 . S
C480 C481 1.387 . S
C480 H484 0.950 . S
C480 C489 1.390 . S
C481 C480 1.387 . S
C481 C483 1.387 . S
H482 C489 0.950 . S
C483 C481 1.387 . S
C483 C485 1.390 . S
C483 H487 0.950 . S
H484 C480 0.950 . S
C485 C483 1.390 . S
C485 C486 1.387 . S
C485 H488 0.950 . S
C486 C485 1.387 . S
C486 C489 1.387 . S
H487 C483 0.950 . S
H488 C485 0.950 . S
C489 C480 1.390 . S
C489 H482 0.950 . S
C489 C486 1.387 . S
C490 C491 1.387 . S
C490 H494 0.950 . S
C490 C499 1.390 . S
C491 C490 1.387 . S
C491 C493 1.387 . S
H492 C499 0.950 . S
C493 C491 1.387 . S
C493 C495 1.390 . S
C493 H497 0.950 . S
H494 C490 0.950 . S
C495 C493 1.390 . S
C495 C496 1.387 . S
C495 H498 0.950 . S
C496 C495 1.387 . S
C496 C499 1.387 . S
H497 C493 0.950 . S
H498 C495 0.950 . S
C499 C490 1.390 . S
C499 H492 0.950 . S
C499 C496 1.387 . S
C500 C501 1.387 . S
C500 H504 0.950 . S
C500 C509 1.390 . S
C501 C500 1.387 . S
C501 C503 1.387 . S
H502 C509 0.950 . S
C503 C501 1.387 . S
C503 C505 1.390 . S
C503 H507 0.950 . S
H504 C500 0.950 . S
C505 C503 1.390 . S
C505 C506 1.387 . S
C505 H508 0.950 . S
C506 C505 1.387 . S
C506 C509 1.387 . S
H507 C503 0.950 . S
H508 C505 0.950 . S
C509 C500 1.390 . S
C509 H502 0.950 . S
C509 C506 1.387 . S
C510 C511 1.387 1_545 S
C510 H514 0.950 . S
C510 C519 1.390 . S
C511 C510 1.387 1_565 S
C511 C513 1.387 1_565 S
H512 C519 0.950 . S
C513 C511 1.387 1_545 S
C513 C515 1.390 . S
C513 H517 0.950 . S
H514 C510 0.950 . S
C515 C513 1.390 . S
C515 C516 1.387 . S
C515 H518 0.950 . S
C516 C515 1.387 . S
C516 C519 1.387 . S
H517 C513 0.950 . S
H518 C515 0.950 . S
C519 C510 1.390 . S
C519 H512 0.950 . S
C519 C516 1.387 . S
C520 C521 1.387 . S
C520 H524 0.950 . S
C520 C529 1.390 . S
C521 C520 1.387 . S
C521 C523 1.387 . S
H522 C529 0.950 1_455 S
C523 C521 1.387 . S
C523 C525 1.390 . S
C523 H527 0.950 . S
H524 C520 0.950 . S
C525 C523 1.390 . S
C525 C526 1.387 1_655 S
C525 H528 0.950 1_655 S
C526 C525 1.387 1_455 S
C526 C529 1.387 1_455 S
H527 C523 0.950 . S
H528 C525 0.950 1_455 S
C529 C520 1.390 . S
C529 H522 0.950 1_655 S
C529 C526 1.387 1_655 S
C530 C531 1.387 . S
C530 H534 0.950 . S
C530 C539 1.390 . S
C531 C530 1.387 . S
C531 C533 1.387 . S
H532 C539 0.950 . S
C533 C531 1.387 . S
C533 C535 1.390 . S
C533 H537 0.950 . S
H534 C530 0.950 . S
C535 C533 1.390 . S
C535 C536 1.387 . S
C535 H538 0.950 . S
C536 C535 1.387 . S
C536 C539 1.387 . S
H537 C533 0.950 . S
H538 C535 0.950 . S
C539 C530 1.390 . S
C539 H532 0.950 . S
C539 C536 1.387 . S
C540 C541 1.387 . S
C540 H544 0.950 . S
C540 C549 1.390 . S
C541 C540 1.387 . S
C541 C543 1.387 . S
H542 C549 0.950 . S
C543 C541 1.387 . S
C543 C545 1.390 . S
C543 H547 0.950 . S
H544 C540 0.950 . S
C545 C543 1.390 . S
C545 C546 1.387 . S
C545 H548 0.950 . S
C546 C545 1.387 . S
C546 C549 1.387 . S
H547 C543 0.950 . S
H548 C545 0.950 . S
C549 C540 1.390 . S
C549 H542 0.950 . S
C549 C546 1.387 . S
C550 C551 1.387 . S
C550 H554 0.950 . S
C550 C559 1.390 . S
C551 C550 1.387 . S
C551 C553 1.387 . S
H552 C559 0.950 . S
C553 C551 1.387 . S
C553 C555 1.390 . S
C553 H557 0.950 . S
H554 C550 0.950 . S
C555 C553 1.390 . S
C555 C556 1.387 . S
C555 H558 0.950 . S
C556 C555 1.387 . S
C556 C559 1.387 . S
H557 C553 0.950 . S
H558 C555 0.950 . S
C559 C550 1.390 . S
C559 H552 0.950 . S
C559 C556 1.387 . S
C560 C561 1.387 . S
C560 H564 0.950 . S
C560 C569 1.390 . S
C561 C560 1.387 . S
C561 C563 1.387 . S
H562 C569 0.950 . S
C563 C561 1.387 . S
C563 C565 1.390 . S
C563 H567 0.950 1_565 S
H564 C560 0.950 . S
C565 C563 1.390 . S
C565 C566 1.387 . S
C565 H568 0.950 . S
C566 C565 1.387 . S
C566 C569 1.387 . S
H567 C563 0.950 1_545 S
H568 C565 0.950 . S
C569 C560 1.390 . S
C569 H562 0.950 . S
C569 C566 1.387 . S
C570 C571 1.387 . S
C570 H574 0.950 . S
C570 C579 1.390 . S
C571 C570 1.387 . S
C571 C573 1.387 . S
H572 C579 0.950 . S
C573 C571 1.387 . S
C573 C575 1.390 . S
C573 H577 0.950 . S
H574 C570 0.950 . S
C575 C573 1.390 . S
C575 C576 1.387 . S
C575 H578 0.950 . S
C576 C575 1.387 . S
C576 C579 1.387 . S
H577 C573 0.950 . S
H578 C575 0.950 . S
C579 C570 1.390 . S
C579 H572 0.950 . S
C579 C576 1.387 . S
C580 C581 1.387 . S
C580 H584 0.950 1_655 S
C580 C589 1.390 . S
C581 C580 1.387 . S
C581 C583 1.387 . S
H582 C589 0.950 . S
C583 C581 1.387 . S
C583 C585 1.390 . S
C583 H587 0.950 . S
H584 C580 0.950 1_455 S
C585 C583 1.390 . S
C585 C586 1.387 . S
C585 H588 0.950 . S
C586 C585 1.387 . S
C586 C589 1.387 . S
H587 C583 0.950 . S
H588 C585 0.950 . S
C589 C580 1.390 . S
C589 H582 0.950 . S
C589 C586 1.387 . S
C590 C591 1.387 . S
C590 H594 0.950 . S
C590 C599 1.390 . S
C591 C590 1.387 . S
C591 C593 1.387 . S
H592 C599 0.950 . S
C593 C591 1.387 . S
C593 C595 1.390 . S
C593 H597 0.950 . S
H594 C590 0.950 . S
C595 C593 1.390 . S
C595 C596 1.387 . S
C595 H598 0.950 . S
C596 C595 1.387 . S
C596 C599 1.387 . S
H597 C593 0.950 . S
H598 C595 0.950 . S
C599 C590 1.390 . S
C599 H592 0.950 . S
C599 C596 1.387 . S
C600 C601 1.387 . S
C600 H604 0.950 . S
C600 C609 1.390 . S
C601 C600 1.387 . S
C601 C603 1.387 . S
H602 C609 0.950 . S
C603 C601 1.387 . S
C603 C605 1.390 . S
C603 H607 0.950 . S
H604 C600 0.950 . S
C605 C603 1.390 . S
C605 C606 1.387 . S
C605 H608 0.950 . S
C606 C605 1.387 . S
C606 C609 1.387 . S
H607 C603 0.950 . S
H608 C605 0.950 . S
C609 C600 1.390 . S
C609 H602 0.950 . S
C609 C606 1.387 . S
C610 C611 1.387 . S
C610 H614 0.950 . S
C610 C619 1.390 1_565 S
C611 C610 1.387 . S
C611 C613 1.387 . S
H612 C619 0.950 . S
C613 C611 1.387 . S
C613 C615 1.390 1_565 S
C613 H617 0.950 . S
H614 C610 0.950 . S
C615 C613 1.390 1_545 S
C615 C616 1.387 . S
C615 H618 0.950 . S
C616 C615 1.387 . S
C616 C619 1.387 . S
H617 C613 0.950 . S
H618 C615 0.950 . S
C619 C610 1.390 1_545 S
C619 H612 0.950 . S
C619 C616 1.387 . S
C620 C621 1.387 1_455 S
C620 H624 0.947 . S
C620 C629 1.390 . S
C621 C620 1.387 1_655 S
C621 C623 1.387 . S
H622 C629 0.950 . S
C623 C621 1.387 . S
C623 C625 1.390 1_655 S
C623 H627 0.950 . S
H624 C620 0.947 . S
C625 C623 1.390 1_455 S
C625 C626 1.387 . S
C625 H628 0.950 . S
C626 C625 1.387 . S
C626 C629 1.387 . S
H627 C623 0.950 . S
H628 C625 0.950 . S
C629 C620 1.390 . S
C629 H622 0.950 . S
C629 C626 1.387 . S
C361 C47 1.705 . S
C366 C2 1.782 . S
C371 C87 1.705 . S
C376 C42 1.782 . S
C381 C82 1.781 . S
C386 C7 1.704 . S
C391 C96 1.587 . S
C396 C51 1.516 . S
C401 C91 1.512 . S
C406 C16 1.584 . S
C411 C11 1.512 . S
C416 C56 1.584 . S
C421 C122 1.782 . S
C426 C167 1.705 . S
C431 C207 1.701 . S
C436 C162 1.780 1_545 S
C441 C202 1.779 . S
C446 C127 1.701 . S
C451 C171 1.512 . S
C456 C216 1.584 . S
C461 C211 1.516 . S
C466 C136 1.586 . S
C471 C176 1.586 . S
C476 C131 1.516 . S
C481 C287 1.701 . S
C486 C242 1.779 . S
C491 C282 1.779 . S
C496 C327 1.701 . S
C501 C322 1.779 . S
C506 C247 1.701 . S
C511 C336 1.586 . S
C516 C291 1.516 . S
C521 C331 1.516 . S
C526 C256 1.586 . S
C531 C251 1.516 . S
C536 C296 1.586 . S
C541 C210 2.707 . S
C546 C19 2.349 . S
C551 C130 2.707 . S
C556 C59 2.348 . S
C561 C99 2.348 . S
C566 C170 2.707 . S
C571 C90 2.708 . S
C576 C259 2.350 . S
C581 C10 2.709 . S
C586 C299 2.352 . S
C591 C339 2.352 . S
C596 C50 2.708 . S
C601 C139 2.350 . S
C606 C330 2.707 . S
C611 C179 2.352 . S
C616 C250 2.709 . S
C621 C290 2.707 . S
C626 C219 2.350 . S
