# Generated by pormake.
# Topology uks, (4)-cn, num edge types: 1
# Building blocks:
#     Node 0, Type 0, BuildingBlock: ESEHIV_clean_sbu_0, # of connection points: 4
#     Node 1, Type 0, BuildingBlock: ESEHIV_clean_sbu_0, # of connection points: 4
#     Node 2, Type 0, BuildingBlock: ESEHIV_clean_sbu_0, # of connection points: 4
#     Node 3, Type 0, BuildingBlock: ESEHIV_clean_sbu_0, # of connection points: 4
#     Node 4, Type 0, BuildingBlock: ESEHIV_clean_sbu_0, # of connection points: 4
#     Node 5, Type 0, BuildingBlock: ESEHIV_clean_sbu_0, # of connection points: 4
#     Node 6, Type 0, BuildingBlock: ESEHIV_clean_sbu_0, # of connection points: 4
#     Node 7, Type 0, BuildingBlock: ESEHIV_clean_sbu_0, # of connection points: 4
#     Node 8, Type 0, BuildingBlock: ESEHIV_clean_sbu_0, # of connection points: 4
#     Node 9, Type 0, BuildingBlock: ESEHIV_clean_sbu_0, # of connection points: 4
#     Node 10, Type 0, BuildingBlock: ESEHIV_clean_sbu_0, # of connection points: 4
#     Node 11, Type 0, BuildingBlock: ESEHIV_clean_sbu_0, # of connection points: 4
#     Node 12, Type 0, BuildingBlock: ESEHIV_clean_sbu_0, # of connection points: 4
#     Node 13, Type 0, BuildingBlock: ESEHIV_clean_sbu_0, # of connection points: 4
#     Node 14, Type 0, BuildingBlock: ESEHIV_clean_sbu_0, # of connection points: 4
#     Node 15, Type 0, BuildingBlock: ESEHIV_clean_sbu_0, # of connection points: 4
#     Node 16, Type 0, BuildingBlock: ESEHIV_clean_sbu_0, # of connection points: 4
#     Node 17, Type 0, BuildingBlock: ESEHIV_clean_sbu_0, # of connection points: 4
#     Node 18, Type 0, BuildingBlock: ESEHIV_clean_sbu_0, # of connection points: 4
#     Node 19, Type 0, BuildingBlock: ESEHIV_clean_sbu_0, # of connection points: 4
#     Node 20, Type 0, BuildingBlock: ESEHIV_clean_sbu_0, # of connection points: 4
#     Node 21, Type 0, BuildingBlock: ESEHIV_clean_sbu_0, # of connection points: 4
#     Node 22, Type 0, BuildingBlock: ESEHIV_clean_sbu_0, # of connection points: 4
#     Node 23, Type 0, BuildingBlock: ESEHIV_clean_sbu_0, # of connection points: 4
#     Edge 24, Type (0, 0), BuildingBlock: OJICUG_clean_linker_0, # of connection points: 2
#     Edge 25, Type (0, 0), BuildingBlock: OJICUG_clean_linker_0, # of connection points: 2
#     Edge 26, Type (0, 0), BuildingBlock: OJICUG_clean_linker_0, # of connection points: 2
#     Edge 27, Type (0, 0), BuildingBlock: OJICUG_clean_linker_0, # of connection points: 2
#     Edge 28, Type (0, 0), BuildingBlock: OJICUG_clean_linker_0, # of connection points: 2
#     Edge 29, Type (0, 0), BuildingBlock: OJICUG_clean_linker_0, # of connection points: 2
#     Edge 30, Type (0, 0), BuildingBlock: OJICUG_clean_linker_0, # of connection points: 2
#     Edge 31, Type (0, 0), BuildingBlock: OJICUG_clean_linker_0, # of connection points: 2
#     Edge 32, Type (0, 0), BuildingBlock: OJICUG_clean_linker_0, # of connection points: 2
#     Edge 33, Type (0, 0), BuildingBlock: OJICUG_clean_linker_0, # of connection points: 2
#     Edge 34, Type (0, 0), BuildingBlock: OJICUG_clean_linker_0, # of connection points: 2
#     Edge 35, Type (0, 0), BuildingBlock: OJICUG_clean_linker_0, # of connection points: 2
#     Edge 36, Type (0, 0), BuildingBlock: OJICUG_clean_linker_0, # of connection points: 2
#     Edge 37, Type (0, 0), BuildingBlock: OJICUG_clean_linker_0, # of connection points: 2
#     Edge 38, Type (0, 0), BuildingBlock: OJICUG_clean_linker_0, # of connection points: 2
#     Edge 39, Type (0, 0), BuildingBlock: OJICUG_clean_linker_0, # of connection points: 2
#     Edge 40, Type (0, 0), BuildingBlock: OJICUG_clean_linker_0, # of connection points: 2
#     Edge 41, Type (0, 0), BuildingBlock: OJICUG_clean_linker_0, # of connection points: 2
#     Edge 42, Type (0, 0), BuildingBlock: OJICUG_clean_linker_0, # of connection points: 2
#     Edge 43, Type (0, 0), BuildingBlock: OJICUG_clean_linker_0, # of connection points: 2
#     Edge 44, Type (0, 0), BuildingBlock: OJICUG_clean_linker_0, # of connection points: 2
#     Edge 45, Type (0, 0), BuildingBlock: OJICUG_clean_linker_0, # of connection points: 2
#     Edge 46, Type (0, 0), BuildingBlock: OJICUG_clean_linker_0, # of connection points: 2
#     Edge 47, Type (0, 0), BuildingBlock: OJICUG_clean_linker_0, # of connection points: 2
#     Edge 48, Type (0, 0), BuildingBlock: OJICUG_clean_linker_0, # of connection points: 2
#     Edge 49, Type (0, 0), BuildingBlock: OJICUG_clean_linker_0, # of connection points: 2
#     Edge 50, Type (0, 0), BuildingBlock: OJICUG_clean_linker_0, # of connection points: 2
#     Edge 51, Type (0, 0), BuildingBlock: OJICUG_clean_linker_0, # of connection points: 2
#     Edge 52, Type (0, 0), BuildingBlock: OJICUG_clean_linker_0, # of connection points: 2
#     Edge 53, Type (0, 0), BuildingBlock: OJICUG_clean_linker_0, # of connection points: 2
#     Edge 54, Type (0, 0), BuildingBlock: OJICUG_clean_linker_0, # of connection points: 2
#     Edge 55, Type (0, 0), BuildingBlock: OJICUG_clean_linker_0, # of connection points: 2
#     Edge 56, Type (0, 0), BuildingBlock: OJICUG_clean_linker_0, # of connection points: 2
#     Edge 57, Type (0, 0), BuildingBlock: OJICUG_clean_linker_0, # of connection points: 2
#     Edge 58, Type (0, 0), BuildingBlock: OJICUG_clean_linker_0, # of connection points: 2
#     Edge 59, Type (0, 0), BuildingBlock: OJICUG_clean_linker_0, # of connection points: 2
#     Edge 60, Type (0, 0), BuildingBlock: OJICUG_clean_linker_0, # of connection points: 2
#     Edge 61, Type (0, 0), BuildingBlock: OJICUG_clean_linker_0, # of connection points: 2
#     Edge 62, Type (0, 0), BuildingBlock: OJICUG_clean_linker_0, # of connection points: 2
#     Edge 63, Type (0, 0), BuildingBlock: OJICUG_clean_linker_0, # of connection points: 2
#     Edge 64, Type (0, 0), BuildingBlock: OJICUG_clean_linker_0, # of connection points: 2
#     Edge 65, Type (0, 0), BuildingBlock: OJICUG_clean_linker_0, # of connection points: 2
#     Edge 66, Type (0, 0), BuildingBlock: OJICUG_clean_linker_0, # of connection points: 2
#     Edge 67, Type (0, 0), BuildingBlock: OJICUG_clean_linker_0, # of connection points: 2
#     Edge 68, Type (0, 0), BuildingBlock: OJICUG_clean_linker_0, # of connection points: 2
#     Edge 69, Type (0, 0), BuildingBlock: OJICUG_clean_linker_0, # of connection points: 2
#     Edge 70, Type (0, 0), BuildingBlock: OJICUG_clean_linker_0, # of connection points: 2
#     Edge 71, Type (0, 0), BuildingBlock: OJICUG_clean_linker_0, # of connection points: 2
# Relax obj value: 0.052
# Max RMSD: 0.137
# Mean RMSD: 0.108
data_MOF--net-uks--node1-ESEHIV_clean_sbu_0--edge1-OJICUG_clean_linker_0
_symmetry_space_group_name_H-M    P1
_symmetry_Int_Tables_number       1
_symmetry_cell_setting            triclinic
loop_
_symmetry_equiv_pos_as_xyz
'x, y, z'
_cell_length_a     36.999746
_cell_length_b     45.72387
_cell_length_c     45.914833
_cell_angle_alpha  90.10000257
_cell_angle_beta   90.055769
_cell_angle_gamma 84.919825
loop_
_atom_site_label
_atom_site_type_symbol
_atom_site_fract_x
_atom_site_fract_y
_atom_site_fract_z
_atom_type_partial_charge
Cu0 Cu 0.09994 0.41844 0.73235 0.0
N1 N 0.08389 0.39252 0.75993 0.0
N2 N 0.07888 0.34632 0.77433 0.0
C3 C 0.10079 0.36541 0.76301 0.0
C4 C 0.04716 0.36234 0.77968 0.0
C5 C 0.05022 0.39085 0.7705 0.0
O6 O 0.07526 0.40834 0.69645 0.0
C7 C 0.16562 0.41874 0.75983 0.0
O8 O 0.14241 0.42519 0.78102 0.0
H9 H 0.12726 0.35903 0.75383 0.0
H10 H 0.02831 0.40803 0.76852 0.0
N11 N 0.08582 0.45817 0.7389 0.0
N12 N 0.08263 0.50652 0.72968 0.0
C13 C 0.09238 0.47916 0.71959 0.0
C14 C 0.07108 0.47251 0.7622 0.0
C15 C 0.069 0.50236 0.75656 0.0
C16 C 0.07145 0.38186 0.68923 0.0
O17 O 0.09393 0.36085 0.70003 0.0
H18 H 0.10468 0.47417 0.6986 0.0
H19 H 0.06342 0.4621 0.78213 0.0
O20 O 0.15312 0.41431 0.73435 0.0
H21 H 0.02244 0.35342 0.78664 0.0
H22 H 0.05944 0.51959 0.77158 0.0
Cu23 Cu 0.64526 0.67248 0.22148 0.0
N24 N 0.61394 0.69722 0.24424 0.0
N25 N 0.58493 0.74071 0.25566 0.0
C26 C 0.61256 0.72649 0.24083 0.0
C27 C 0.56827 0.71948 0.26932 0.0
C28 C 0.58601 0.69252 0.2619 0.0
O29 O 0.6283 0.68351 0.18259 0.0
C30 C 0.70313 0.6823 0.25696 0.0
O31 O 0.67835 0.67823 0.27666 0.0
H32 H 0.63118 0.73707 0.22701 0.0
H33 H 0.5781 0.67116 0.26793 0.0
N34 N 0.64426 0.63218 0.22887 0.0
N35 N 0.65844 0.58369 0.22435 0.0
C36 C 0.6582 0.61022 0.2114 0.0
C37 C 0.63581 0.61909 0.25388 0.0
C38 C 0.64435 0.58921 0.25112 0.0
C39 C 0.60409 0.66977 0.17014 0.0
O40 O 0.59843 0.6434 0.17928 0.0
H41 H 0.66914 0.6138 0.18997 0.0
H42 H 0.62547 0.63053 0.27317 0.0
O43 O 0.69437 0.6817 0.2301 0.0
H44 H 0.54419 0.72309 0.28269 0.0
H45 H 0.64061 0.57284 0.26759 0.0
Cu46 Cu 0.43791 0.15127 0.74738 0.0
N47 N 0.45033 0.17958 0.77411 0.0
N48 N 0.45706 0.22574 0.78802 0.0
C49 C 0.44875 0.20793 0.76607 0.0
C50 C 0.46414 0.20776 0.81105 0.0
C51 C 0.4601 0.17919 0.80236 0.0
O52 O 0.4626 0.16396 0.71249 0.0
C53 C 0.36977 0.14973 0.77165 0.0
O54 O 0.39072 0.14514 0.79459 0.0
H55 H 0.44022 0.21539 0.74458 0.0
H56 H 0.46318 0.15985 0.81592 0.0
N57 N 0.45469 0.11206 0.75552 0.0
N58 N 0.46416 0.06331 0.74832 0.0
C59 C 0.45225 0.08965 0.7367 0.0
C60 C 0.46876 0.09966 0.78003 0.0
C61 C 0.47464 0.06971 0.77567 0.0
C62 C 0.49715 0.15994 0.71436 0.0
O63 O 0.51122 0.14425 0.73619 0.0
H64 H 0.44149 0.09286 0.71493 0.0
H65 H 0.4737 0.11133 0.79989 0.0
O66 O 0.38472 0.1533 0.74694 0.0
H67 H 0.47129 0.2147 0.83268 0.0
H68 H 0.48482 0.05391 0.79186 0.0
Cu69 Cu 0.89094 0.92614 0.24401 0.0
N70 N 0.91647 0.90184 0.27096 0.0
N71 N 0.94331 0.85891 0.2864 0.0
C72 C 0.92323 0.87302 0.26541 0.0
C73 C 0.94934 0.87982 0.30624 0.0
C74 C 0.93299 0.90647 0.29647 0.0
O75 O 0.91838 0.91692 0.20863 0.0
C76 C 0.82589 0.91493 0.26911 0.0
O77 O 0.84546 0.91871 0.29248 0.0
H78 H 0.91299 0.86256 0.2463 0.0
H79 H 0.93332 0.92757 0.3071 0.0
N80 N 0.88886 0.96652 0.25118 0.0
N81 N 0.87431 1.01417 0.24176 0.0
C82 C 0.88197 0.98705 0.23041 0.0
C83 C 0.88543 0.98108 0.27665 0.0
C84 C 0.87663 1.01052 0.27091 0.0
C85 C 0.95131 0.92313 0.21001 0.0
O86 O 0.96097 0.93926 0.23193 0.0
H87 H 0.88047 0.98183 0.20747 0.0
H88 H 0.8873 0.97086 0.29788 0.0
O89 O 0.84087 0.91614 0.24415 0.0
H90 H 0.96465 0.8762 0.3262 0.0
H91 H 0.87166 1.02775 0.28697 0.0
Cu92 Cu 0.14548 0.14881 0.81234 0.0
N93 N 0.12658 0.17664 0.7851 0.0
N94 N 0.10652 0.22156 0.76974 0.0
C95 C 0.11734 0.20477 0.79271 0.0
C96 C 0.1093 0.20337 0.7465 0.0
C97 C 0.1215 0.17554 0.75608 0.0
O98 O 0.12091 0.16234 0.84833 0.0
C99 C 0.21425 0.14529 0.78708 0.0
O100 O 0.19468 0.13873 0.76451 0.0
H101 H 0.11988 0.21305 0.81465 0.0
H102 H 0.12722 0.15625 0.74267 0.0
N103 N 0.13423 0.11003 0.80534 0.0
N104 N 0.12932 0.06219 0.81404 0.0
C105 C 0.13852 0.08805 0.82495 0.0
C106 C 0.12177 0.0977 0.78109 0.0
C107 C 0.11885 0.06822 0.78635 0.0
C108 C 0.08645 0.16516 0.84539 0.0
O109 O 0.07234 0.15588 0.82116 0.0
H110 H 0.14911 0.09094 0.84665 0.0
H111 H 0.11548 0.10918 0.76093 0.0
O112 O 0.19837 0.15001 0.81159 0.0
H113 H 0.1034 0.20979 0.7242 0.0
H114 H 0.10963 0.05253 0.77098 0.0
Cu115 Cu 0.91253 0.66936 0.32974 0.0
N116 N 0.93909 0.69173 0.30507 0.0
N117 N 0.95883 0.73432 0.29095 0.0
C118 C 0.93935 0.72057 0.31055 0.0
C119 C 0.97128 0.71321 0.27193 0.0
C120 C 0.95925 0.68675 0.28086 0.0
O121 O 0.92835 0.68285 0.36753 0.0
C122 C 0.85262 0.67762 0.29434 0.0
O123 O 0.87785 0.66929 0.2752 0.0
H124 H 0.92415 0.73148 0.32819 0.0
H125 H 0.96432 0.66574 0.27014 0.0
N126 N 0.91999 0.62833 0.32634 0.0
N127 N 0.91142 0.58144 0.33641 0.0
C128 C 0.90554 0.60978 0.3449 0.0
C129 C 0.93543 0.61119 0.30509 0.0
C130 C 0.93024 0.58224 0.31127 0.0
C131 C 0.95711 0.67021 0.37875 0.0
O132 O 0.96792 0.64339 0.37035 0.0
H133 H 0.88987 0.6172 0.36383 0.0
H134 H 0.94866 0.61911 0.28607 0.0
O135 O 0.86167 0.67982 0.32101 0.0
H136 H 0.98755 0.71666 0.25287 0.0
H137 H 0.93949 0.56333 0.2982 0.0
Cu138 Cu 0.38309 0.42222 0.81876 0.0
N139 N 0.40732 0.39547 0.79302 0.0
N140 N 0.43246 0.35062 0.78157 0.0
C141 C 0.40911 0.36663 0.79904 0.0
C142 C 0.44556 0.37023 0.76326 0.0
C143 C 0.43021 0.39803 0.77057 0.0
O144 O 0.40359 0.40808 0.856 0.0
C145 C 0.31908 0.42031 0.7869 0.0
O146 O 0.34202 0.42366 0.76559 0.0
H147 H 0.39431 0.35775 0.81681 0.0
H148 H 0.43679 0.41854 0.76118 0.0
N149 N 0.3926 0.46176 0.81469 0.0
N150 N 0.39342 0.50935 0.82691 0.0
C151 C 0.38667 0.48214 0.83583 0.0
C152 C 0.40344 0.4765 0.7914 0.0
C153 C 0.40403 0.50578 0.79886 0.0
C154 C 0.43816 0.40752 0.85595 0.0
O155 O 0.45411 0.4193 0.83388 0.0
H156 H 0.37616 0.47709 0.85703 0.0
H157 H 0.40952 0.4669 0.77026 0.0
O158 O 0.33106 0.41917 0.81305 0.0
H159 H 0.466 0.36506 0.74676 0.0
H160 H 0.41125 0.52308 0.78452 0.0
Cu161 Cu 0.60323 0.92955 0.30963 0.0
N162 N 0.58198 0.90768 0.28092 0.0
N163 N 0.567 0.86543 0.26161 0.0
C164 C 0.57763 0.87919 0.28568 0.0
C165 C 0.56433 0.88628 0.24068 0.0
C166 C 0.57342 0.91246 0.25273 0.0
O167 O 0.57867 0.91869 0.3449 0.0
C168 C 0.67032 0.92116 0.28376 0.0
O169 O 0.65021 0.93126 0.26178 0.0
H170 H 0.58482 0.86828 0.30605 0.0
H171 H 0.57565 0.93288 0.24133 0.0
N172 N 0.59836 0.9705 0.30613 0.0
N173 N 0.60879 1.01649 0.31842 0.0
C174 C 0.61172 0.98794 0.32636 0.0
C175 C 0.58647 0.98854 0.28435 0.0
C176 C 0.59287 1.01699 0.2919 0.0
C177 C 0.54445 0.92545 0.34494 0.0
O178 O 0.53025 0.94198 0.32373 0.0
H179 H 0.62477 0.97947 0.34608 0.0
H180 H 0.57485 0.98153 0.26418 0.0
O181 O 0.65513 0.91796 0.30836 0.0
H182 H 0.55774 0.88262 0.21807 0.0
H183 H 0.58649 0.03641 0.2788 0.0
Cu184 Cu 0.72548 0.17764 0.40143 0.0
N185 N 0.71506 0.20623 0.37322 0.0
N186 N 0.72673 0.24547 0.34707 0.0
C187 C 0.73987 0.22458 0.36583 0.0
C188 C 0.69182 0.24011 0.34249 0.0
C189 C 0.68472 0.21562 0.35859 0.0
O190 O 0.71751 0.19709 0.43913 0.0
C191 C 0.78708 0.1469 0.37517 0.0
O192 O 0.76485 0.12724 0.36802 0.0
H193 H 0.76642 0.22384 0.3758 0.0
H194 H 0.65903 0.20617 0.36042 0.0
N195 N 0.695 0.14688 0.399 0.0
N196 N 0.66297 0.10985 0.38479 0.0
C197 C 0.6851 0.13039 0.3763 0.0
C198 C 0.67795 0.13684 0.42227 0.0
C199 C 0.65832 0.11421 0.4137 0.0
C200 C 0.73194 0.18834 0.46314 0.0
O201 O 0.75517 0.16489 0.46332 0.0
H202 H 0.69459 0.13295 0.35425 0.0
H203 H 0.67981 0.14537 0.44415 0.0
O204 O 0.7768 0.16629 0.39405 0.0
H205 H 0.6725 0.25349 0.32937 0.0
H206 H 0.64179 0.10199 0.42784 0.0
Cu207 Cu 0.89398 0.21824 0.91359 0.0
N208 N 0.88023 0.20405 0.87735 0.0
N209 N 0.87078 0.20615 0.82908 0.0
C210 C 0.88205 0.22012 0.85293 0.0
C211 C 0.86131 0.18008 0.8391 0.0
C212 C 0.86723 0.17883 0.86891 0.0
O213 O 0.94404 0.22717 0.9068 0.0
C214 C 0.82589 0.2442 0.9243 0.0
O215 O 0.8201 0.2163 0.92261 0.0
H216 H 0.89103 0.242 0.85294 0.0
H217 H 0.86235 0.1609 0.8833 0.0
N218 N 0.89237 0.19197 0.94478 0.0
N219 N 0.89351 0.17793 0.99149 0.0
C220 C 0.88722 0.20048 0.97271 0.0
C221 C 0.9019 0.16289 0.94582 0.0
C222 C 0.90276 0.15418 0.97467 0.0
C223 C 0.97166 0.21379 0.9192 0.0
O224 O 0.96724 0.1995 0.94352 0.0
H225 H 0.8813 0.22317 0.97922 0.0
H226 H 0.90967 0.14936 0.92712 0.0
O227 O 0.85838 0.25124 0.92162 0.0
H228 H 0.85119 0.16295 0.8259 0.0
H229 H 0.91059 0.13228 0.98269 0.0
Cu230 Cu 0.80062 0.41239 0.40678 0.0
N231 N 0.81142 0.38579 0.37674 0.0
N232 N 0.80016 0.34764 0.34868 0.0
C233 C 0.78666 0.36791 0.36798 0.0
C234 C 0.83527 0.35294 0.34514 0.0
C235 C 0.84212 0.37675 0.36243 0.0
O236 O 0.80842 0.38995 0.44286 0.0
C237 C 0.73962 0.44437 0.38122 0.0
O238 O 0.76137 0.46506 0.37675 0.0
H239 H 0.75994 0.36827 0.37757 0.0
H240 H 0.86794 0.38574 0.36549 0.0
N241 N 0.83076 0.44351 0.40694 0.0
N242 N 0.86116 0.48235 0.39572 0.0
C243 C 0.84028 0.46163 0.38552 0.0
C244 C 0.84693 0.45266 0.43112 0.0
C245 C 0.86555 0.47643 0.42436 0.0
C246 C 0.79641 0.39745 0.46803 0.0
O247 O 0.77566 0.4221 0.47105 0.0
H248 H 0.83115 0.46025 0.3632 0.0
H249 H 0.84495 0.44288 0.45241 0.0
O250 O 0.74936 0.42404 0.39925 0.0
H251 H 0.85493 0.33981 0.33209 0.0
H252 H 0.88103 0.48847 0.43954 0.0
Cu253 Cu 0.63355 0.35671 0.91688 0.0
N254 N 0.64685 0.36948 0.88001 0.0
N255 N 0.658 0.36552 0.83205 0.0
C256 C 0.64614 0.35236 0.85613 0.0
C257 C 0.66659 0.39214 0.84136 0.0
C258 C 0.65969 0.39451 0.87094 0.0
O259 O 0.58317 0.34769 0.91153 0.0
C260 C 0.70191 0.33102 0.927 0.0
O261 O 0.70763 0.35888 0.92472 0.0
H262 H 0.63782 0.33028 0.85674 0.0
H263 H 0.66411 0.41299 0.88482 0.0
N264 N 0.63603 0.38454 0.94674 0.0
N265 N 0.63589 0.40175 0.99247 0.0
C266 C 0.64155 0.3779 0.97511 0.0
C267 C 0.62688 0.41367 0.94603 0.0
C268 C 0.62672 0.42434 0.97422 0.0
C269 C 0.55625 0.36022 0.92553 0.0
O270 O 0.56222 0.37431 0.94976 0.0
H271 H 0.64728 0.35567 0.98299 0.0
H272 H 0.61895 0.42598 0.92662 0.0
O273 O 0.66931 0.32397 0.92536 0.0
H274 H 0.67699 0.40884 0.82783 0.0
H275 H 0.61943 0.44682 0.98083 0.0
Cu276 Cu 0.68786 0.40704 0.19364 0.0
N277 N 0.6676 0.40489 0.23084 0.0
N278 N 0.66499 0.41319 0.27895 0.0
C279 C 0.67948 0.42039 0.25329 0.0
C280 C 0.643 0.39203 0.27241 0.0
C281 C 0.64451 0.38706 0.24261 0.0
O282 O 0.70451 0.44662 0.19389 0.0
C283 C 0.71568 0.34858 0.18946 0.0
O284 O 0.68076 0.34535 0.19018 0.0
H285 H 0.70039 0.43533 0.25106 0.0
H286 H 0.63098 0.37078 0.23066 0.0
N287 N 0.6546 0.40388 0.16321 0.0
N288 N 0.63441 0.40269 0.11725 0.0
C289 C 0.66353 0.39879 0.13505 0.0
C290 C 0.6185 0.41082 0.16334 0.0
C291 C 0.60598 0.41017 0.135 0.0
C292 C 0.69075 0.46763 0.17801 0.0
O293 O 0.67134 0.46167 0.15517 0.0
H294 H 0.69122 0.39431 0.12761 0.0
H295 H 0.60276 0.41735 0.18248 0.0
O296 O 0.72586 0.37455 0.19025 0.0
H297 H 0.62779 0.38041 0.28808 0.0
H298 H 0.57828 0.41559 0.12795 0.0
Cu299 Cu 0.67472 0.24873 0.65897 0.0
N300 N 0.67355 0.28428 0.67976 0.0
N301 N 0.67205 0.31621 0.717 0.0
C302 C 0.6672 0.28844 0.70849 0.0
C303 C 0.68175 0.32996 0.69259 0.0
C304 C 0.68261 0.31029 0.66977 0.0
O305 O 0.63358 0.22681 0.66937 0.0
C306 C 0.74871 0.23073 0.67765 0.0
O307 O 0.77311 0.21006 0.6865 0.0
H308 H 0.66051 0.27111 0.72303 0.0
H309 H 0.69053 0.31445 0.64761 0.0
N310 N 0.67577 0.25444 0.61854 0.0
N311 N 0.68657 0.24617 0.57097 0.0
C312 C 0.6917 0.23591 0.59848 0.0
C313 C 0.65997 0.27718 0.60332 0.0
C314 C 0.66665 0.27224 0.57411 0.0
C315 C 0.60013 0.23317 0.66343 0.0
O316 O 0.59015 0.25748 0.64925 0.0
H317 H 0.70604 0.21502 0.60405 0.0
H318 H 0.64435 0.29593 0.61279 0.0
O319 O 0.71756 0.22361 0.67007 0.0
H320 H 0.68801 0.35259 0.69128 0.0
H321 H 0.65748 0.2869 0.55662 0.0
Cu322 Cu 0.84634 0.18609 0.19322 0.0
N323 N 0.86736 0.18811 0.23018 0.0
N324 N 0.86935 0.17931 0.2782 0.0
C325 C 0.85645 0.17157 0.25212 0.0
C326 C 0.88939 0.20194 0.27249 0.0
C327 C 0.88826 0.20726 0.24273 0.0
O328 O 0.82961 0.1465 0.19377 0.0
C329 C 0.81836 0.2445 0.18876 0.0
O330 O 0.85328 0.24773 0.18822 0.0
H331 H 0.83663 0.1558 0.24931 0.0
H332 H 0.89999 0.22487 0.23144 0.0
N333 N 0.87854 0.18918 0.16207 0.0
N334 N 0.89747 0.1876 0.11575 0.0
C335 C 0.86859 0.19069 0.13381 0.0
C336 C 0.91503 0.18546 0.16197 0.0
C337 C 0.92679 0.18435 0.13338 0.0
C338 C 0.84896 0.12472 0.18278 0.0
O339 O 0.87473 0.12974 0.16432 0.0
H340 H 0.84061 0.19206 0.12665 0.0
H341 H 0.93174 0.1822 0.18123 0.0
O342 O 0.80823 0.21855 0.19044 0.0
H343 H 0.90252 0.21457 0.28871 0.0
H344 H 0.95464 0.18065 0.12612 0.0
Cu345 Cu 0.86785 0.31833 0.65453 0.0
N346 N 0.86376 0.28312 0.67495 0.0
N347 N 0.86279 0.25185 0.71252 0.0
C348 C 0.8689 0.27927 0.70385 0.0
C349 C 0.85371 0.23791 0.688 0.0
C350 C 0.85432 0.25717 0.66494 0.0
O351 O 0.91742 0.32905 0.66013 0.0
C352 C 0.80132 0.34528 0.6796 0.0
O353 O 0.78223 0.36753 0.69189 0.0
H354 H 0.87602 0.29656 0.71832 0.0
H355 H 0.84758 0.25266 0.64258 0.0
N356 N 0.85885 0.3151 0.61444 0.0
N357 N 0.8432 0.32771 0.56855 0.0
C358 C 0.84369 0.3364 0.59678 0.0
C359 C 0.86844 0.2922 0.59685 0.0
C360 C 0.85868 0.29979 0.56869 0.0
C361 C 0.92783 0.35412 0.65379 0.0
O362 O 0.90424 0.37435 0.64289 0.0
H363 H 0.83432 0.35813 0.60448 0.0
H364 H 0.88238 0.27164 0.60386 0.0
O365 O 0.83327 0.34872 0.67056 0.0
H366 H 0.84724 0.21533 0.68673 0.0
H367 H 0.863 0.28576 0.5498 0.0
Cu368 Cu 0.39557 0.72105 0.15999 0.0
N369 N 0.39191 0.70701 0.19784 0.0
N370 N 0.39425 0.70807 0.24645 0.0
C371 C 0.40738 0.7183 0.2214 0.0
C372 C 0.36966 0.68952 0.23833 0.0
C373 C 0.36832 0.68887 0.20827 0.0
O374 O 0.44653 0.72755 0.1543 0.0
C375 C 0.35499 0.77312 0.13775 0.0
O376 O 0.37531 0.77007 0.1143 0.0
H377 H 0.42579 0.73539 0.22019 0.0
H378 H 0.34989 0.67743 0.19502 0.0
N379 N 0.38121 0.69334 0.13307 0.0
N380 N 0.36029 0.67392 0.09224 0.0
C381 C 0.36109 0.69836 0.10875 0.0
C382 C 0.39304 0.66466 0.13208 0.0
C383 C 0.38032 0.65266 0.10688 0.0
C384 C 0.46513 0.71732 0.13262 0.0
O385 O 0.44843 0.70669 0.11025 0.0
H386 H 0.34873 0.71975 0.10254 0.0
H387 H 0.41093 0.65358 0.14799 0.0
O388 O 0.36159 0.75582 0.15907 0.0
H389 H 0.35282 0.67819 0.25304 0.0
H390 H 0.38591 0.63017 0.09964 0.0
Cu391 Cu 0.39132 0.82227 0.41636 0.0
N392 N 0.4108 0.78986 0.39485 0.0
N393 N 0.41865 0.75807 0.35786 0.0
C394 C 0.39605 0.77903 0.37072 0.0
C395 C 0.44876 0.75554 0.37458 0.0
C396 C 0.44379 0.7751 0.39745 0.0
O397 O 0.41629 0.85563 0.40305 0.0
C398 C 0.31515 0.83195 0.4289 0.0
O399 O 0.32535 0.84292 0.45371 0.0
H400 H 0.37002 0.78744 0.36193 0.0
H401 H 0.46332 0.77895 0.41424 0.0
N402 N 0.40044 0.81628 0.45602 0.0
N403 N 0.40721 0.82476 0.50353 0.0
C404 C 0.39943 0.8368 0.47721 0.0
C405 C 0.40926 0.79047 0.46937 0.0
C406 C 0.4136 0.79564 0.49867 0.0
C407 C 0.44953 0.85625 0.41036 0.0
O408 O 0.464 0.83601 0.42815 0.0
H409 H 0.39323 0.86006 0.47338 0.0
H410 H 0.41212 0.76937 0.45854 0.0
O411 O 0.33895 0.82487 0.40947 0.0
H412 H 0.47286 0.74098 0.37028 0.0
H413 H 0.4203 0.77921 0.51523 0.0
Cu414 Cu 0.20712 0.90233 0.87565 0.0
N415 N 0.24492 0.92049 0.85908 0.0
N416 N 0.27421 0.93798 0.82136 0.0
C417 C 0.25365 0.91705 0.83083 0.0
C418 C 0.27892 0.9552 0.84473 0.0
C419 C 0.26026 0.94461 0.86791 0.0
O420 O 0.16562 0.9278 0.86128 0.0
C421 C 0.24322 0.84709 0.86931 0.0
O422 O 0.26921 0.8621 0.87941 0.0
H423 H 0.24378 0.90009 0.81726 0.0
H424 H 0.25607 0.95497 0.88896 0.0
N425 N 0.20889 0.9019 0.91627 0.0
N426 N 0.19578 0.88856 0.96166 0.0
C427 C 0.18485 0.88986 0.93355 0.0
C428 C 0.23609 0.90841 0.93389 0.0
C429 C 0.228 0.90039 0.96189 0.0
C430 C 0.16007 0.95268 0.87399 0.0
O431 O 0.17576 0.95626 0.89926 0.0
H432 H 0.16044 0.88139 0.92532 0.0
H433 H 0.26093 0.91689 0.9267 0.0
O434 O 0.21219 0.86079 0.86415 0.0
H435 H 0.29333 0.9748 0.84472 0.0
H436 H 0.24555 0.90175 0.98061 0.0
Cu437 Cu 0.16252 0.71784 0.3999 0.0
N438 N 0.17115 0.70528 0.36147 0.0
N439 N 0.16806 0.70675 0.31276 0.0
C440 C 0.15247 0.71617 0.33807 0.0
C441 C 0.19768 0.68913 0.32053 0.0
C442 C 0.19946 0.6882 0.35059 0.0
O443 O 0.11182 0.7136 0.40854 0.0
C444 C 0.18769 0.76909 0.42529 0.0
O445 O 0.17928 0.75741 0.45023 0.0
H446 H 0.12917 0.73217 0.33955 0.0
H447 H 0.22078 0.6769 0.36349 0.0
N448 N 0.1897 0.69475 0.42727 0.0
N449 N 0.20361 0.67488 0.47097 0.0
C450 C 0.17703 0.68708 0.45341 0.0
C451 C 0.22567 0.68722 0.4282 0.0
C452 C 0.23431 0.67486 0.45506 0.0
C453 C 0.08383 0.72946 0.40006 0.0
O454 O 0.08774 0.7539 0.38586 0.0
H455 H 0.14916 0.69234 0.46005 0.0
H456 H 0.24457 0.69184 0.41122 0.0
O457 O 0.17855 0.75712 0.4017 0.0
H458 H 0.21716 0.67833 0.30558 0.0
H459 H 0.2613 0.66739 0.46253 0.0
Cu460 Cu 0.30087 0.66469 0.89108 0.0
N461 N 0.26737 0.64745 0.86809 0.0
N462 N 0.24544 0.63121 0.82638 0.0
C463 C 0.26877 0.64841 0.8389 0.0
C464 C 0.22846 0.61896 0.84873 0.0
C465 C 0.24246 0.62876 0.87455 0.0
O466 O 0.34488 0.63984 0.8811 0.0
C467 C 0.26726 0.72011 0.87716 0.0
O468 O 0.23859 0.70555 0.88102 0.0
H469 H 0.28676 0.66159 0.82712 0.0
H470 H 0.23574 0.6221 0.89633 0.0
N471 N 0.29001 0.66314 0.93093 0.0
N472 N 0.29626 0.66567 0.97937 0.0
C473 C 0.31354 0.66271 0.95344 0.0
C474 C 0.2568 0.66646 0.94305 0.0
C475 C 0.26055 0.66803 0.97288 0.0
C476 C 0.34668 0.61366 0.89102 0.0
O477 O 0.32401 0.60757 0.91169 0.0
H478 H 0.3427 0.66157 0.95078 0.0
H479 H 0.2316 0.66861 0.93097 0.0
O480 O 0.29875 0.70635 0.87995 0.0
H481 H 0.20787 0.60369 0.84659 0.0
H482 H 0.23871 0.67106 0.98857 0.0
Cu483 Cu 0.13169 0.81876 0.1441 0.0
N484 N 0.12344 0.78403 0.16355 0.0
N485 N 0.12639 0.75205 0.20054 0.0
C486 C 0.14231 0.7738 0.1871 0.0
C487 C 0.09636 0.74833 0.18473 0.0
C488 C 0.09466 0.76804 0.16187 0.0
O489 O 0.09789 0.84996 0.15984 0.0
C490 C 0.20498 0.80997 0.13176 0.0
O491 O 0.19188 0.79264 0.11234 0.0
H492 H 0.16582 0.78361 0.19545 0.0
H493 H 0.07291 0.77157 0.14618 0.0
N494 N 0.12381 0.8179 0.10391 0.0
N495 N 0.13302 0.83136 0.05785 0.0
C496 C 0.13444 0.83891 0.08624 0.0
C497 C 0.11444 0.79633 0.08625 0.0
C498 C 0.12 0.80462 0.05776 0.0
C499 C 0.06475 0.84997 0.15202 0.0
O500 O 0.0558 0.82971 0.13372 0.0
H501 H 0.14493 0.85866 0.09445 0.0
H502 H 0.10653 0.77535 0.09357 0.0
O503 O 0.18322 0.82429 0.1493 0.0
H504 H 0.07642 0.73319 0.18991 0.0
H505 H 0.11696 0.79111 0.0387 0.0
Cu506 Cu 0.19301 0.66321 0.65327 0.0
N507 N 0.19688 0.70337 0.65932 0.0
N508 N 0.22546 0.74381 0.66811 0.0
C509 C 0.22874 0.71425 0.66538 0.0
C510 C 0.1898 0.75175 0.66348 0.0
C511 C 0.17229 0.7268 0.65801 0.0
O512 O 0.20741 0.65471 0.61289 0.0
C513 C 0.20739 0.65049 0.70879 0.0
O514 O 0.17855 0.66942 0.70958 0.0
H515 H 0.25403 0.70055 0.66702 0.0
H516 H 0.14384 0.72592 0.65309 0.0
N517 N 0.14736 0.6493 0.66012 0.0
N518 N 0.11193 0.61567 0.67684 0.0
C519 C 0.14468 0.62073 0.66595 0.0
C520 C 0.11487 0.66304 0.66724 0.0
C521 C 0.09292 0.64231 0.67754 0.0
C522 C 0.18255 0.65997 0.59382 0.0
O523 O 0.14967 0.66892 0.60267 0.0
H524 H 0.16763 0.60438 0.66463 0.0
H525 H 0.10835 0.68654 0.66695 0.0
O526 O 0.22229 0.64409 0.68424 0.0
H527 H 0.17707 0.77397 0.66396 0.0
H528 H 0.06571 0.64675 0.68601 0.0
Cu529 Cu 0.38089 0.89528 0.66972 0.0
N530 N 0.37389 0.85701 0.68158 0.0
N531 N 0.34126 0.81811 0.68573 0.0
C532 C 0.3444 0.8442 0.67268 0.0
C533 C 0.3705 0.81423 0.70349 0.0
C534 C 0.39051 0.83836 0.701 0.0
O535 O 0.38009 0.89337 0.62742 0.0
C536 C 0.34935 0.91936 0.71698 0.0
O537 O 0.37869 0.90425 0.72673 0.0
H538 H 0.32526 0.85438 0.65713 0.0
H539 H 0.41454 0.84243 0.71324 0.0
N540 N 0.42338 0.9117 0.68173 0.0
N541 N 0.45316 0.94845 0.69975 0.0
C542 C 0.42372 0.94096 0.68505 0.0
C543 C 0.45414 0.89999 0.69436 0.0
C544 C 0.4726 0.92263 0.70548 0.0
C545 C 0.40642 0.87623 0.6177 0.0
O546 O 0.4309 0.8652 0.63635 0.0
H547 H 0.40092 0.95622 0.67904 0.0
H548 H 0.46147 0.87672 0.697 0.0
O549 O 0.34226 0.91886 0.68977 0.0
H550 H 0.37639 0.79586 0.71808 0.0
H551 H 0.49754 0.92009 0.71789 0.0
C552 C 0.07866 0.26652 0.79382 0.0
C553 C 0.0976 0.25288 0.77014 0.0
H554 H 0.05742 0.30721 0.81349 0.0
C555 C 0.10945 0.27042 0.74769 0.0
H556 H 0.06905 0.25343 0.81135 0.0
C557 C 0.10347 0.30097 0.74924 0.0
C558 C 0.08486 0.31473 0.77301 0.0
H559 H 0.12434 0.26053 0.72936 0.0
H560 H 0.11332 0.31382 0.73167 0.0
C561 C 0.07196 0.29717 0.79506 0.0
C562 C 0.7498 0.68616 0.29603 0.0
C563 C 0.74118 0.68443 0.26622 0.0
H564 H 0.79169 0.68562 0.32836 0.0
C565 C 0.76945 0.68271 0.24577 0.0
H566 H 0.72863 0.68768 0.31238 0.0
C567 C 0.80558 0.68142 0.25499 0.0
C568 C 0.81425 0.68199 0.28484 0.0
H569 H 0.76376 0.68139 0.22268 0.0
H570 H 0.82676 0.67931 0.23865 0.0
C571 C 0.78594 0.68504 0.30524 0.0
C572 C 0.43996 0.30478 0.81046 0.0
C573 C 0.44227 0.3194 0.78363 0.0
H574 H 0.44286 0.26367 0.83295 0.0
C575 C 0.45279 0.30283 0.75882 0.0
H576 H 0.43286 0.31693 0.83019 0.0
C577 C 0.45897 0.27221 0.7605 0.0
C578 C 0.45487 0.25745 0.78707 0.0
H579 H 0.45499 0.3134 0.7379 0.0
H580 H 0.46638 0.26006 0.74084 0.0
C581 C 0.44621 0.27421 0.81216 0.0
C582 C 0.73343 0.91156 0.30392 0.0
C583 C 0.71017 0.91607 0.27989 0.0
H584 H 0.78823 0.90746 0.31929 0.0
C585 C 0.72544 0.91755 0.25189 0.0
H586 H 0.72258 0.91023 0.32573 0.0
C587 C 0.76309 0.91585 0.24812 0.0
C588 C 0.78632 0.9128 0.2723 0.0
H589 H 0.70829 0.92078 0.23283 0.0
H590 H 0.77389 0.918 0.22638 0.0
C591 C 0.77109 0.91002 0.30017 0.0
C592 C 0.84616 0.14035 0.30823 0.0
C593 C 0.8572 0.16893 0.30594 0.0
H594 H 0.816 0.11071 0.33224 0.0
C595 C 0.85131 0.18808 0.32978 0.0
H596 H 0.85111 0.1248 0.29056 0.0
C597 C 0.8315 0.17983 0.35403 0.0
C598 C 0.81693 0.15238 0.35473 0.0
H599 H 0.85957 0.21018 0.32881 0.0
H600 H 0.82536 0.19582 0.37112 0.0
C601 C 0.82621 0.1322 0.33226 0.0
C602 C 0.88807 0.25124 0.76258 0.0
C603 C 0.86495 0.2401 0.74181 0.0
H604 H 0.90886 0.24885 0.80599 0.0
C605 C 0.84406 0.21723 0.75017 0.0
H606 H 0.90501 0.26847 0.75683 0.0
C607 C 0.84608 0.20597 0.7786 0.0
C608 C 0.86912 0.21722 0.79945 0.0
H609 H 0.82559 0.20836 0.7349 0.0
H610 H 0.82908 0.18879 0.78432 0.0
C611 C 0.89023 0.23992 0.79091 0.0
C612 C 0.70592 0.45924 0.33554 0.0
C613 C 0.71203 0.43918 0.35858 0.0
H614 H 0.6856 0.46679 0.29231 0.0
C615 C 0.69656 0.41215 0.35678 0.0
H616 H 0.71689 0.48042 0.33624 0.0
C617 C 0.67876 0.40423 0.33131 0.0
C618 C 0.67598 0.42324 0.30721 0.0
H619 H 0.70027 0.39627 0.37422 0.0
H620 H 0.66947 0.38249 0.32979 0.0
C621 C 0.68818 0.45135 0.3102 0.0
C622 C 0.6886 0.35202 0.7544 0.0
C623 C 0.66868 0.32852 0.74606 0.0
H624 H 0.70129 0.38189 0.78807 0.0
C625 C 0.64515 0.3175 0.76652 0.0
H626 H 0.70744 0.36078 0.73942 0.0
C627 C 0.64149 0.32972 0.79449 0.0
C628 C 0.66143 0.35323 0.80292 0.0
H629 H 0.62902 0.29973 0.76076 0.0
H630 H 0.62257 0.32091 0.80934 0.0
C631 C 0.68504 0.36418 0.78241 0.0
C632 C 0.29899 0.79584 0.16268 0.0
C633 C 0.31936 0.79071 0.13695 0.0
H634 H 0.24625 0.80691 0.1813 0.0
C635 C 0.30281 0.79795 0.11009 0.0
H636 H 0.31107 0.79061 0.18375 0.0
C637 C 0.26576 0.80692 0.10877 0.0
C638 C 0.24475 0.80943 0.13428 0.0
H639 H 0.31764 0.79431 0.08988 0.0
H640 H 0.25302 0.81001 0.0876 0.0
C641 C 0.26195 0.80535 0.16136 0.0
C642 C 0.26682 0.80962 0.39997 0.0
C643 C 0.2783 0.82166 0.42624 0.0
H644 H 0.22861 0.78416 0.37885 0.0
C645 C 0.25622 0.82019 0.45106 0.0
H646 H 0.28303 0.81051 0.38041 0.0
C647 C 0.2252 0.80476 0.45027 0.0
C648 C 0.21524 0.79082 0.42456 0.0
H649 H 0.2641 0.82932 0.47165 0.0
H650 H 0.21008 0.8025 0.47022 0.0
C651 C 0.2355 0.79454 0.39909 0.0
C652 C 0.22081 0.79675 0.86456 0.0
C653 C 0.24967 0.81448 0.86756 0.0
H654 H 0.20377 0.75322 0.86515 0.0
C655 C 0.28499 0.80067 0.87144 0.0
H656 H 0.19332 0.80656 0.86158 0.0
C657 C 0.2911 0.77002 0.87347 0.0
C658 C 0.262 0.75237 0.87183 0.0
H659 H 0.30798 0.81361 0.87371 0.0
H660 H 0.31844 0.76027 0.87728 0.0
C661 C 0.22689 0.76611 0.86674 0.0
C662 C 0.28793 0.75138 0.68524 0.0
C663 C 0.25431 0.76271 0.67353 0.0
H664 H 0.34179 0.75977 0.69804 0.0
C665 C 0.24974 0.79278 0.66672 0.0
H666 H 0.29255 0.7285 0.69126 0.0
C667 C 0.27795 0.81083 0.67102 0.0
C668 C 0.3118 0.79943 0.68218 0.0
H669 H 0.22454 0.80248 0.65757 0.0
H670 H 0.27294 0.83384 0.66564 0.0
C671 C 0.31624 0.76946 0.68947 0.0
C672 C 0.95736 0.81095 0.26188 0.0
C673 C 0.95328 0.82768 0.28767 0.0
H674 H 0.96268 0.76797 0.24267 0.0
C675 C 0.95599 0.81305 0.31452 0.0
H676 H 0.95624 0.82159 0.24082 0.0
C677 C 0.95994 0.78236 0.31552 0.0
C678 C 0.96143 0.7656 0.28972 0.0
H679 H 0.95309 0.82522 0.33475 0.0
H680 H 0.96054 0.7717 0.33656 0.0
C681 C 0.9615 0.78023 0.26289 0.0
C682 C 0.23126 0.41634 0.7441 0.0
C683 C 0.20518 0.41751 0.76633 0.0
H684 H 0.28753 0.41642 0.73314 0.0
C685 C 0.21706 0.4186 0.79549 0.0
H686 H 0.22312 0.41552 0.72147 0.0
C687 C 0.25393 0.41899 0.80226 0.0
C688 C 0.27997 0.41852 0.78004 0.0
H689 H 0.19778 0.41938 0.81327 0.0
H690 H 0.26193 0.42014 0.8249 0.0
C691 C 0.2682 0.41696 0.75087 0.0
C692 C 0.57778 0.8198 0.2327 0.0
C693 C 0.566 0.83408 0.25852 0.0
H694 H 0.59274 0.77879 0.2115 0.0
C695 C 0.55689 0.81694 0.28244 0.0
H696 H 0.5851 0.83229 0.21394 0.0
C697 C 0.5614 0.78622 0.2811 0.0
C698 C 0.57551 0.77202 0.25592 0.0
H699 H 0.54728 0.82734 0.30253 0.0
H700 H 0.55556 0.77365 0.30022 0.0
C701 C 0.5826 0.78913 0.23145 0.0
C702 C 0.30663 0.14828 0.75113 0.0
C703 C 0.32974 0.1499 0.77522 0.0
H704 H 0.25231 0.14535 0.73602 0.0
C705 C 0.31436 0.15072 0.80336 0.0
H706 H 0.31749 0.14757 0.72922 0.0
C707 C 0.27694 0.14964 0.80733 0.0
C708 C 0.25392 0.1474 0.78328 0.0
H709 H 0.3313 0.15209 0.82247 0.0
H710 H 0.26615 0.15015 0.82926 0.0
C711 C 0.26923 0.14689 0.75512 0.0
C712 C 0.34022 0.94834 0.76184 0.0
C713 C 0.32478 0.93353 0.73877 0.0
H714 H 0.33609 0.96134 0.8065 0.0
C715 C 0.28947 0.92516 0.74154 0.0
H716 H 0.36765 0.95476 0.76013 0.0
C717 C 0.2715 0.92862 0.76829 0.0
C718 C 0.28868 0.94051 0.79246 0.0
H719 H 0.27729 0.91338 0.72412 0.0
H720 H 0.24512 0.92037 0.77051 0.0
C721 C 0.32225 0.95195 0.78844 0.0
C722 C 0.18387 0.72156 0.26285 0.0
C723 C 0.1575 0.71643 0.28382 0.0
H724 H 0.19451 0.73721 0.21991 0.0
C725 C 0.12065 0.72209 0.27646 0.0
H726 H 0.21245 0.71768 0.26797 0.0
C727 C 0.1104 0.73286 0.24883 0.0
C728 C 0.1368 0.73879 0.22816 0.0
H729 H 0.09978 0.71824 0.29216 0.0
H730 H 0.08183 0.73745 0.24396 0.0
C731 C 0.17363 0.73291 0.23544 0.0
C732 C 0.20303 0.62534 0.78587 0.0
C733 C 0.23822 0.62913 0.79565 0.0
H734 H 0.16602 0.62878 0.75001 0.0
C735 C 0.26515 0.63424 0.77499 0.0
H736 H 0.18173 0.62138 0.80113 0.0
C737 C 0.25619 0.63826 0.74552 0.0
C738 C 0.22016 0.63736 0.7365 0.0
H739 H 0.29275 0.6366 0.78182 0.0
H740 H 0.27665 0.64441 0.7304 0.0
C741 C 0.19406 0.62961 0.75661 0.0
C742 C 0.37835 0.73608 0.32266 0.0
C743 C 0.41303 0.74368 0.33049 0.0
H744 H 0.34531 0.7183 0.28983 0.0
C745 C 0.44182 0.73804 0.31073 0.0
H746 H 0.35578 0.74006 0.33756 0.0
C747 C 0.43576 0.72592 0.28333 0.0
C748 C 0.40098 0.71863 0.27537 0.0
H749 H 0.46875 0.74389 0.31609 0.0
H750 H 0.4582 0.72238 0.26823 0.0
C751 C 0.37245 0.72342 0.2955 0.0
C752 C 0.76907 0.31744 0.92849 0.0
C753 C 0.73348 0.30866 0.92871 0.0
H754 H 0.82612 0.30417 0.92695 0.0
C755 C 0.72877 0.27856 0.92903 0.0
H756 H 0.77377 0.34049 0.92831 0.0
C757 C 0.75889 0.25776 0.92834 0.0
C758 C 0.79445 0.26655 0.92722 0.0
H759 H 0.70183 0.27104 0.92923 0.0
H760 H 0.75417 0.23472 0.92809 0.0
C761 C 0.79919 0.29664 0.92771 0.0
C762 C 0.77844 0.30255 0.70487 0.0
C763 C 0.78636 0.31649 0.67873 0.0
H764 H 0.76068 0.26391 0.72484 0.0
C765 C 0.77878 0.30316 0.6521 0.0
H766 H 0.78373 0.31264 0.72563 0.0
C767 C 0.76443 0.27578 0.65166 0.0
C768 C 0.75795 0.26135 0.67785 0.0
H769 H 0.78397 0.31388 0.63171 0.0
H770 H 0.75958 0.26545 0.63094 0.0
C771 C 0.76505 0.2749 0.70443 0.0
C772 C 0.77967 0.3245 0.18776 0.0
C773 C 0.74213 0.32206 0.18858 0.0
H774 H 0.83296 0.30211 0.18708 0.0
C775 C 0.72979 0.29374 0.18899 0.0
H776 H 0.79015 0.34588 0.18742 0.0
C777 C 0.75433 0.26855 0.18885 0.0
C778 C 0.79188 0.271 0.18824 0.0
H779 H 0.70104 0.29094 0.18963 0.0
H780 H 0.74385 0.24718 0.18938 0.0
C781 C 0.80421 0.29931 0.18756 0.0
C782 C 0.80157 0.2945 0.33833 0.0
C783 C 0.78219 0.32225 0.34009 0.0
H784 H 0.79869 0.24795 0.3385 0.0
C785 C 0.74406 0.32413 0.3381 0.0
H786 H 0.83089 0.29226 0.33965 0.0
C787 C 0.72557 0.29875 0.33777 0.0
C788 C 0.74491 0.27099 0.33938 0.0
H789 H 0.72845 0.34529 0.33878 0.0
H790 H 0.69623 0.30098 0.33866 0.0
C791 C 0.78308 0.26912 0.33797 0.0
C792 C 0.07669 0.58748 0.71155 0.0
C793 C 0.1022 0.58817 0.68888 0.0
H794 H 0.05024 0.56118 0.74215 0.0
C795 C 0.11987 0.56143 0.67923 0.0
H796 H 0.0627 0.6076 0.71973 0.0
C797 C 0.11319 0.5349 0.69234 0.0
C798 C 0.08834 0.53409 0.71549 0.0
H799 H 0.13929 0.56097 0.66159 0.0
H800 H 0.12835 0.51513 0.68459 0.0
C801 C 0.06986 0.56079 0.72469 0.0
C802 C 0.52449 0.7249 0.15674 0.0
C803 C 0.50463 0.7098 0.1364 0.0
H804 H 0.57283 0.72452 0.18252 0.0
C805 C 0.52135 0.68432 0.12315 0.0
H806 H 0.51231 0.74457 0.16729 0.0
C807 C 0.5556 0.67248 0.13235 0.0
C808 C 0.57429 0.6864 0.15423 0.0
H809 H 0.50674 0.67207 0.1075 0.0
H810 H 0.56647 0.65144 0.12371 0.0
C811 C 0.55926 0.7135 0.16529 0.0
C812 C 0.47969 0.98132 0.73579 0.0
C813 C 0.45875 0.9775 0.71069 0.0
H814 H 0.49828 1.01118 0.76717 0.0
C815 C 0.44133 1.00266 0.6974 0.0
H816 H 0.49342 0.9626 0.74678 0.0
C817 C 0.44354 1.0306 0.7094 0.0
C818 C 0.46353 1.03446 0.73504 0.0
H819 H 0.42549 1.00081 0.67778 0.0
H820 H 0.42873 0.04899 0.69873 0.0
C821 C 0.48209 1.00937 0.74776 0.0
C822 C 0.99915 0.86796 0.15811 0.0
C823 C 0.03592 0.87095 0.16448 0.0
H824 H 0.94353 0.8822 0.16718 0.0
C825 C 0.04442 0.89326 0.18366 0.0
H826 H 0.99157 0.85109 0.14328 0.0
C827 C 1.01677 0.91132 0.19711 0.0
C828 C 0.97998 0.90736 0.19186 0.0
H829 H 0.07239 0.89633 0.18887 0.0
H830 H 0.02436 0.92769 0.21249 0.0
C831 C 0.9715 0.88589 0.1717 0.0
C832 C 0.14444 0.9805 0.82749 0.0
C833 C 0.14506 0.97943 0.85811 0.0
H834 H 0.1394 1.0077 0.7894 0.0
C835 C 0.13688 1.00571 0.87369 0.0
H836 H 0.15104 0.96076 0.81479 0.0
C837 C 0.13045 1.03255 0.85921 0.0
C838 C 0.132 1.034 0.82867 0.0
H839 H 0.13693 1.00574 0.89729 0.0
H840 H 0.12507 0.05232 0.87206 0.0
C841 C 0.13795 1.00749 0.81293 0.0
C842 C 1.01444 0.6739 0.40658 0.0
C843 C 0.98455 0.68804 0.39185 0.0
H844 H 0.06887 0.67608 0.42134 0.0
C845 C 0.98531 0.71788 0.38457 0.0
H846 H 1.01462 0.651 0.41265 0.0
C847 C 1.01686 0.73222 0.38897 0.0
C848 C 0.04799 0.71712 0.40122 0.0
H849 H 0.96268 0.72948 0.37333 0.0
H850 H 0.01751 0.75451 0.38118 0.0
C851 C 0.04567 0.68832 0.41141 0.0
C852 C 0.37149 0.58973 0.84486 0.0
C853 C 0.36623 0.58868 0.87515 0.0
H854 H 0.3836 0.5654 0.80564 0.0
C855 C 0.37385 0.56171 0.88949 0.0
H856 H 0.36534 0.61007 0.83308 0.0
C857 C 0.38443 0.53609 0.87385 0.0
C858 C 0.38725 0.53656 0.84328 0.0
H859 H 0.37017 0.56016 0.91283 0.0
H860 H 0.38936 0.51575 0.88577 0.0
C861 C 0.38179 0.56396 0.82909 0.0
C862 C 0.51092 0.87375 0.40138 0.0
C863 C 0.47317 0.8768 0.39643 0.0
H864 H 0.56309 0.88672 0.38919 0.0
C865 C 0.45898 0.89812 0.37657 0.0
H866 H 0.52283 0.85761 0.41663 0.0
C867 C 0.48214 0.91501 0.36103 0.0
C868 C 0.52006 0.91081 0.36481 0.0
H869 H 0.43009 0.90117 0.37234 0.0
H870 H 0.4703 0.93056 0.34519 0.0
C871 C 0.5341 0.89048 0.38568 0.0
C872 C 0.72676 0.20915 0.54356 0.0
C873 C 0.69858 0.23199 0.54391 0.0
H874 H 0.75945 0.17761 0.51806 0.0
C875 C 0.68209 0.24058 0.51721 0.0
H876 H 0.74055 0.20209 0.56345 0.0
C877 C 0.69324 0.22671 0.49111 0.0
C878 C 0.72111 0.20371 0.49085 0.0
H879 H 0.66004 0.25771 0.51637 0.0
H880 H 0.67959 0.23382 0.47113 0.0
C881 C 0.73781 0.19517 0.51741 0.0
C882 C 0.87016 0.20201 0.06808 0.0
C883 C 0.89664 0.18522 0.08438 0.0
H884 H 0.84861 0.21293 1.02567 0.0
C885 C 0.92173 0.16561 0.0696 0.0
H886 H 0.85056 0.21733 0.07887 0.0
C887 C 0.92024 0.16274 0.03922 0.0
C888 C 0.89406 0.17983 1.0229 0.0
H889 H 0.94218 0.15215 0.08158 0.0
H890 H 0.94003 0.14758 1.02844 0.0
C891 C 0.86913 0.19957 0.03767 0.0
C892 C 0.80628 0.3702 0.54638 0.0
C893 C 0.83071 0.34493 0.54337 0.0
H894 H 0.77619 0.40642 0.52521 0.0
C895 C 0.84304 0.33695 0.51519 0.0
H896 H 0.79575 0.37694 0.56755 0.0
C897 C 0.83157 0.35375 0.49087 0.0
C898 C 0.80746 0.37912 0.49392 0.0
H899 H 0.86218 0.31799 0.51181 0.0
H900 H 0.84201 0.34695 0.46966 0.0
C901 C 0.79484 0.38707 0.52199 0.0
C902 C 0.61125 0.42177 0.03931 0.0
C903 C 0.63581 0.40221 1.02396 0.0
H904 H 0.5913 0.43706 0.08095 0.0
C905 C 0.65974 0.38266 0.03988 0.0
H906 H 0.5922 0.43688 1.02773 0.0
C907 C 0.65932 0.38284 0.07042 0.0
C908 C 0.63454 0.40223 0.08576 0.0
H909 H 0.67906 0.36742 1.02868 0.0
H910 H 0.67813 0.36758 0.08206 0.0
C911 C 0.61043 0.42163 0.06982 0.0
C912 C 0.89323 0.55679 0.38129 0.0
C913 C 0.89926 0.55608 0.35108 0.0
H914 H 0.87606 0.53452 0.41888 0.0
C915 C 0.89263 0.53043 0.33564 0.0
H916 H 0.89837 0.57594 0.39399 0.0
C917 C 0.87997 0.50626 0.3501 0.0
C918 C 0.87399 0.50709 0.38037 0.0
H919 H 0.89668 0.52919 0.31232 0.0
H920 H 0.87521 0.48687 0.33763 0.0
C921 C 0.8808 0.53274 0.39568 0.0
C922 C 0.48721 0.36826 0.86485 0.0
C923 C 0.46137 0.3895 0.87642 0.0
H924 H 0.53692 0.34158 0.87149 0.0
C925 C 0.46339 0.39697 0.90595 0.0
H926 H 0.48614 0.36217 0.84205 0.0
C927 C 0.49282 0.38531 0.92292 0.0
C928 C 0.52061 0.36604 0.91056 0.0
H929 H 0.44398 0.41352 0.91523 0.0
H930 H 0.4951 0.39307 0.94509 0.0
C931 C 0.51635 0.35648 0.88175 0.0
C932 C 0.64496 0.08901 0.33719 0.0
C933 C 0.64886 0.08674 0.36764 0.0
H934 H 0.62909 0.06855 0.29758 0.0
C935 C 0.63869 0.06119 0.38133 0.0
H936 H 0.65225 0.10838 0.32588 0.0
C937 C 0.62513 0.03866 0.36525 0.0
C938 C 0.62144 0.04069 0.33484 0.0
H939 H 0.64167 0.05821 0.40459 0.0
H940 H 0.61742 1.01958 0.37681 0.0
C941 C 0.6313 0.06628 0.32098 0.0
C942 C 0.03401 0.2016 0.8545 0.0
C943 C 0.06213 0.18228 0.86592 0.0
H944 H 0.98415 0.22758 0.86243 0.0
C945 C 0.06352 0.17733 0.89605 0.0
H946 H 0.03259 0.2061 0.83134 0.0
C947 C 0.03531 0.18948 0.91404 0.0
C948 C 1.00562 0.20708 0.90217 0.0
H949 H 0.08493 0.16253 0.90535 0.0
H950 H 0.03574 0.18371 0.93691 0.0
C951 C 1.0063 0.21407 0.87241 0.0
C952 C 0.83481 0.09089 0.22374 0.0
C953 C 0.8496 0.095 0.19598 0.0
H954 H 0.83138 0.06206 0.26026 0.0
C955 C 0.87018 0.07125 0.18278 0.0
H956 H 0.81873 0.10861 0.23456 0.0
C957 C 0.87741 0.04462 0.19748 0.0
C958 C 0.86449 0.04103 0.22591 0.0
H959 H 0.88201 0.07358 0.16142 0.0
H960 H 0.89448 1.02725 0.18701 0.0
C961 C 0.84242 0.06428 0.23864 0.0
C962 C 1.01075 0.39647 0.66595 0.0
C963 C 0.03668 0.37436 0.67591 0.0
H964 H 0.95631 0.40748 0.65105 0.0
C965 C 0.02714 0.34522 0.67654 0.0
H966 H 1.01704 0.41915 0.66526 0.0
C967 C 0.99214 0.33858 0.66879 0.0
C968 C 0.96579 0.36084 0.65992 0.0
H969 H 0.04622 0.32758 0.68423 0.0
H970 H 0.98554 0.31603 0.67037 0.0
C971 C 0.97582 0.38977 0.65792 0.0
C972 C 0.69431 0.50424 0.21866 0.0
C973 C 0.68862 0.49837 0.18899 0.0
H974 H 0.68893 0.53594 0.25321 0.0
C975 C 0.67571 0.52175 0.17079 0.0
H976 H 0.7041 0.48681 0.23337 0.0
C977 C 0.66714 0.54994 0.18219 0.0
C978 C 0.67078 0.55539 0.21215 0.0
H979 H 0.67093 0.51802 0.14785 0.0
H980 H 0.65603 0.56717 0.16777 0.0
C981 C 0.68522 0.53235 0.23013 0.0
C982 C 0.50993 0.20349 0.68326 0.0
C983 C 0.52184 0.1767 0.69664 0.0
H984 H 0.5253 0.24256 0.66232 0.0
C985 C 0.55923 0.16784 0.69682 0.0
H986 H 0.48137 0.21112 0.68306 0.0
C987 C 0.58427 0.18583 0.68535 0.0
C988 C 0.57274 0.21329 0.67326 0.0
H989 H 0.5694 0.1473 0.70685 0.0
H990 H 0.61285 0.17844 0.68666 0.0
C991 C 0.53516 0.22161 0.67163 0.0
C992 C 0.43392 0.82942 0.55214 0.0
C993 C 0.40823 0.83949 0.53121 0.0
H994 H 0.45393 0.83346 0.59531 0.0
C995 C 0.38289 0.86326 0.53818 0.0
H996 H 0.45402 0.81142 0.5472 0.0
C997 C 0.38246 0.87592 0.5661 0.0
C998 C 0.40777 0.86526 0.58726 0.0
H999 H 0.36267 0.87134 0.5224 0.0
H1000 H 0.362 0.89359 0.57125 0.0
C1001 C 0.43389 0.84225 0.57968 0.0
C1002 C 0.13776 0.84037 1.0047 0.0
C1003 C 0.14747 0.84669 0.0335 0.0
H1004 H 0.14554 0.84828 0.95939 0.0
C1005 C 0.17255 0.8677 0.03808 0.0
H1006 H 0.11838 0.82456 1.00024 0.0
C1007 C 0.1877 0.88171 1.01465 0.0
C1008 C 0.17856 0.87503 0.98584 0.0
H1009 H 0.18133 0.87304 0.05975 0.0
H1010 H 0.20674 0.89775 1.01925 0.0
C1011 C 0.15313 0.8543 0.98118 0.0
C1012 C 0.16109 0.6577 0.54246 0.0
C1013 C 0.19006 0.65924 0.56206 0.0
H1014 H 0.14283 0.6605 0.49837 0.0
C1015 C 0.22465 0.66315 0.55089 0.0
H1016 H 0.13416 0.65433 0.55029 0.0
C1017 C 0.22955 0.66723 0.52086 0.0
C1018 C 0.19999 0.66726 0.5014 0.0
H1019 H 0.24748 0.66457 0.56545 0.0
H1020 H 0.25614 0.67165 0.51317 0.0
C1021 C 0.16601 0.66147 0.5126 0.0
C1022 C 0.31138 0.68835 0.05691 0.0
C1023 C 0.34396 0.67164 0.06384 0.0
H1024 H 0.27052 0.69935 1.02465 0.0
C1025 C 0.36061 0.65296 0.04243 0.0
H1026 H 0.2979 0.70284 0.07297 0.0
C1027 C 0.34518 0.65121 1.01468 0.0
C1028 C 0.3124 0.66768 1.00786 0.0
H1029 H 0.38592 0.64006 0.04701 0.0
H1030 H 0.35861 0.63668 0.99862 0.0
C1031 C 0.2956 0.68618 1.02934 0.0
loop_
_geom_bond_atom_site_label_1
_geom_bond_atom_site_label_2
_geom_bond_distance
_geom_bond_site_symmetry_2
_ccdc_geom_bond_type
Cu0 N1 1.999 . S
Cu0 O6 1.974 . S
Cu0 N11 1.985 . S
Cu0 O20 1.959 . S
N1 Cu0 1.999 . S
N1 C3 1.263 . S
N1 C5 1.389 . S
N2 C3 1.358 . S
N2 C4 1.400 . S
C3 N1 1.263 . S
C3 N2 1.358 . S
C3 H9 0.930 . S
C4 N2 1.400 . S
C4 C5 1.351 . S
C4 H21 0.930 . S
C5 N1 1.389 . S
C5 C4 1.351 . S
C5 H10 0.930 . S
O6 Cu0 1.974 . S
O6 C16 1.282 . S
C7 O8 1.261 . S
C7 O20 1.251 . S
O8 C7 1.261 . S
H9 C3 0.930 . S
H10 C5 0.930 . S
N11 Cu0 1.985 . S
N11 C13 1.335 . S
N11 C14 1.390 . S
N12 C13 1.345 . S
N12 C15 1.336 . S
C13 N11 1.335 . S
C13 N12 1.345 . S
C13 H18 0.930 . S
C14 N11 1.390 . S
C14 C15 1.346 . S
C14 H19 0.930 . S
C15 N12 1.336 . S
C15 C14 1.346 . S
C15 H22 0.929 . S
C16 O6 1.282 . S
C16 O17 1.216 . S
O17 C16 1.216 . S
H18 C13 0.930 . S
H19 C14 0.930 . S
O20 Cu0 1.959 . S
O20 C7 1.251 . S
H21 C4 0.930 . S
H22 C15 0.929 . S
Cu23 N24 1.999 . S
Cu23 O29 1.974 . S
Cu23 N34 1.985 . S
Cu23 O43 1.959 . S
N24 Cu23 1.999 . S
N24 C26 1.263 . S
N24 C28 1.389 . S
N25 C26 1.358 . S
N25 C27 1.400 . S
C26 N24 1.263 . S
C26 N25 1.358 . S
C26 H32 0.930 . S
C27 N25 1.400 . S
C27 C28 1.351 . S
C27 H44 0.930 . S
C28 N24 1.389 . S
C28 C27 1.351 . S
C28 H33 0.930 . S
O29 Cu23 1.974 . S
O29 C39 1.282 . S
C30 O31 1.261 . S
C30 O43 1.251 . S
O31 C30 1.261 . S
H32 C26 0.930 . S
H33 C28 0.930 . S
N34 Cu23 1.985 . S
N34 C36 1.335 . S
N34 C37 1.390 . S
N35 C36 1.345 . S
N35 C38 1.336 . S
C36 N34 1.335 . S
C36 N35 1.345 . S
C36 H41 0.930 . S
C37 N34 1.390 . S
C37 C38 1.346 . S
C37 H42 0.930 . S
C38 N35 1.336 . S
C38 C37 1.346 . S
C38 H45 0.929 . S
C39 O29 1.282 . S
C39 O40 1.216 . S
O40 C39 1.216 . S
H41 C36 0.930 . S
H42 C37 0.930 . S
O43 Cu23 1.959 . S
O43 C30 1.251 . S
H44 C27 0.930 . S
H45 C38 0.929 . S
Cu46 N47 1.999 . S
Cu46 O52 1.974 . S
Cu46 N57 1.985 . S
Cu46 O66 1.959 . S
N47 Cu46 1.999 . S
N47 C49 1.263 . S
N47 C51 1.389 . S
N48 C49 1.358 . S
N48 C50 1.400 . S
C49 N47 1.263 . S
C49 N48 1.358 . S
C49 H55 0.930 . S
C50 N48 1.400 . S
C50 C51 1.351 . S
C50 H67 0.930 . S
C51 N47 1.389 . S
C51 C50 1.351 . S
C51 H56 0.930 . S
O52 Cu46 1.974 . S
O52 C62 1.282 . S
C53 O54 1.261 . S
C53 O66 1.251 . S
O54 C53 1.261 . S
H55 C49 0.930 . S
H56 C51 0.930 . S
N57 Cu46 1.985 . S
N57 C59 1.335 . S
N57 C60 1.390 . S
N58 C59 1.345 . S
N58 C61 1.336 . S
C59 N57 1.335 . S
C59 N58 1.345 . S
C59 H64 0.930 . S
C60 N57 1.390 . S
C60 C61 1.346 . S
C60 H65 0.930 . S
C61 N58 1.336 . S
C61 C60 1.346 . S
C61 H68 0.929 . S
C62 O52 1.282 . S
C62 O63 1.216 . S
O63 C62 1.216 . S
H64 C59 0.930 . S
H65 C60 0.930 . S
O66 Cu46 1.959 . S
O66 C53 1.251 . S
H67 C50 0.930 . S
H68 C61 0.929 . S
Cu69 N70 1.999 . S
Cu69 O75 1.974 . S
Cu69 N80 1.985 . S
Cu69 O89 1.959 . S
N70 Cu69 1.999 . S
N70 C72 1.263 . S
N70 C74 1.389 . S
N71 C72 1.358 . S
N71 C73 1.400 . S
C72 N70 1.263 . S
C72 N71 1.358 . S
C72 H78 0.930 . S
C73 N71 1.400 . S
C73 C74 1.351 . S
C73 H90 0.930 . S
C74 N70 1.389 . S
C74 C73 1.351 . S
C74 H79 0.930 . S
O75 Cu69 1.974 . S
O75 C85 1.282 . S
C76 O77 1.261 . S
C76 O89 1.251 . S
O77 C76 1.261 . S
H78 C72 0.930 . S
H79 C74 0.930 . S
N80 Cu69 1.985 . S
N80 C82 1.335 . S
N80 C83 1.390 . S
N81 C82 1.345 . S
N81 C84 1.336 . S
C82 N80 1.335 . S
C82 N81 1.345 . S
C82 H87 0.930 . S
C83 N80 1.390 . S
C83 C84 1.346 . S
C83 H88 0.930 . S
C84 N81 1.336 . S
C84 C83 1.346 . S
C84 H91 0.929 . S
C85 O75 1.282 . S
C85 O86 1.216 . S
O86 C85 1.216 . S
H87 C82 0.930 . S
H88 C83 0.930 . S
O89 Cu69 1.959 . S
O89 C76 1.251 . S
H90 C73 0.930 . S
H91 C84 0.929 . S
Cu92 N93 1.999 . S
Cu92 O98 1.974 . S
Cu92 N103 1.985 . S
Cu92 O112 1.959 . S
N93 Cu92 1.999 . S
N93 C95 1.263 . S
N93 C97 1.389 . S
N94 C95 1.358 . S
N94 C96 1.400 . S
C95 N93 1.263 . S
C95 N94 1.358 . S
C95 H101 0.930 . S
C96 N94 1.400 . S
C96 C97 1.351 . S
C96 H113 0.930 . S
C97 N93 1.389 . S
C97 C96 1.351 . S
C97 H102 0.930 . S
O98 Cu92 1.974 . S
O98 C108 1.282 . S
C99 O100 1.261 . S
C99 O112 1.251 . S
O100 C99 1.261 . S
H101 C95 0.930 . S
H102 C97 0.930 . S
N103 Cu92 1.985 . S
N103 C105 1.335 . S
N103 C106 1.390 . S
N104 C105 1.345 . S
N104 C107 1.336 . S
C105 N103 1.335 . S
C105 N104 1.345 . S
C105 H110 0.930 . S
C106 N103 1.390 . S
C106 C107 1.346 . S
C106 H111 0.930 . S
C107 N104 1.336 . S
C107 C106 1.346 . S
C107 H114 0.929 . S
C108 O98 1.282 . S
C108 O109 1.216 . S
O109 C108 1.216 . S
H110 C105 0.930 . S
H111 C106 0.930 . S
O112 Cu92 1.959 . S
O112 C99 1.251 . S
H113 C96 0.930 . S
H114 C107 0.929 . S
Cu115 N116 1.999 . S
Cu115 O121 1.974 . S
Cu115 N126 1.985 . S
Cu115 O135 1.959 . S
N116 Cu115 1.999 . S
N116 C118 1.263 . S
N116 C120 1.389 . S
N117 C118 1.358 . S
N117 C119 1.400 . S
C118 N116 1.263 . S
C118 N117 1.358 . S
C118 H124 0.930 . S
C119 N117 1.400 . S
C119 C120 1.351 . S
C119 H136 0.930 . S
C120 N116 1.389 . S
C120 C119 1.351 . S
C120 H125 0.930 . S
O121 Cu115 1.974 . S
O121 C131 1.282 . S
C122 O123 1.261 . S
C122 O135 1.251 . S
O123 C122 1.261 . S
H124 C118 0.930 . S
H125 C120 0.930 . S
N126 Cu115 1.985 . S
N126 C128 1.335 . S
N126 C129 1.390 . S
N127 C128 1.345 . S
N127 C130 1.336 . S
C128 N126 1.335 . S
C128 N127 1.345 . S
C128 H133 0.930 . S
C129 N126 1.390 . S
C129 C130 1.346 . S
C129 H134 0.930 . S
C130 N127 1.336 . S
C130 C129 1.346 . S
C130 H137 0.929 . S
C131 O121 1.282 . S
C131 O132 1.216 . S
O132 C131 1.216 . S
H133 C128 0.930 . S
H134 C129 0.930 . S
O135 Cu115 1.959 . S
O135 C122 1.251 . S
H136 C119 0.930 . S
H137 C130 0.929 . S
Cu138 N139 1.999 . S
Cu138 O144 1.974 . S
Cu138 N149 1.985 . S
Cu138 O158 1.959 . S
N139 Cu138 1.999 . S
N139 C141 1.263 . S
N139 C143 1.389 . S
N140 C141 1.358 . S
N140 C142 1.400 . S
C141 N139 1.263 . S
C141 N140 1.358 . S
C141 H147 0.930 . S
C142 N140 1.400 . S
C142 C143 1.351 . S
C142 H159 0.930 . S
C143 N139 1.389 . S
C143 C142 1.351 . S
C143 H148 0.930 . S
O144 Cu138 1.974 . S
O144 C154 1.282 . S
C145 O146 1.261 . S
C145 O158 1.251 . S
O146 C145 1.261 . S
H147 C141 0.930 . S
H148 C143 0.930 . S
N149 Cu138 1.985 . S
N149 C151 1.335 . S
N149 C152 1.390 . S
N150 C151 1.345 . S
N150 C153 1.336 . S
C151 N149 1.335 . S
C151 N150 1.345 . S
C151 H156 0.930 . S
C152 N149 1.390 . S
C152 C153 1.346 . S
C152 H157 0.930 . S
C153 N150 1.336 . S
C153 C152 1.346 . S
C153 H160 0.929 . S
C154 O144 1.282 . S
C154 O155 1.216 . S
O155 C154 1.216 . S
H156 C151 0.930 . S
H157 C152 0.930 . S
O158 Cu138 1.959 . S
O158 C145 1.251 . S
H159 C142 0.930 . S
H160 C153 0.929 . S
Cu161 N162 1.999 . S
Cu161 O167 1.974 . S
Cu161 N172 1.985 . S
Cu161 O181 1.959 . S
N162 Cu161 1.999 . S
N162 C164 1.263 . S
N162 C166 1.389 . S
N163 C164 1.358 . S
N163 C165 1.400 . S
C164 N162 1.263 . S
C164 N163 1.358 . S
C164 H170 0.930 . S
C165 N163 1.400 . S
C165 C166 1.351 . S
C165 H182 0.930 . S
C166 N162 1.389 . S
C166 C165 1.351 . S
C166 H171 0.930 . S
O167 Cu161 1.974 . S
O167 C177 1.282 . S
C168 O169 1.261 . S
C168 O181 1.251 . S
O169 C168 1.261 . S
H170 C164 0.930 . S
H171 C166 0.930 . S
N172 Cu161 1.985 . S
N172 C174 1.335 . S
N172 C175 1.390 . S
N173 C174 1.345 . S
N173 C176 1.336 . S
C174 N172 1.335 . S
C174 N173 1.345 . S
C174 H179 0.930 . S
C175 N172 1.390 . S
C175 C176 1.346 . S
C175 H180 0.930 . S
C176 N173 1.336 . S
C176 C175 1.346 . S
C176 H183 0.929 . S
C177 O167 1.282 . S
C177 O178 1.216 . S
O178 C177 1.216 . S
H179 C174 0.930 . S
H180 C175 0.930 . S
O181 Cu161 1.959 . S
O181 C168 1.251 . S
H182 C165 0.930 . S
H183 C176 0.929 . S
Cu184 N185 1.999 . S
Cu184 O190 1.974 . S
Cu184 N195 1.985 . S
Cu184 O204 1.959 . S
N185 Cu184 1.999 . S
N185 C187 1.263 . S
N185 C189 1.389 . S
N186 C187 1.358 . S
N186 C188 1.400 . S
C187 N185 1.263 . S
C187 N186 1.358 . S
C187 H193 0.930 . S
C188 N186 1.400 . S
C188 C189 1.351 . S
C188 H205 0.930 . S
C189 N185 1.389 . S
C189 C188 1.351 . S
C189 H194 0.930 . S
O190 Cu184 1.974 . S
O190 C200 1.282 . S
C191 O192 1.261 . S
C191 O204 1.251 . S
O192 C191 1.261 . S
H193 C187 0.930 . S
H194 C189 0.930 . S
N195 Cu184 1.985 . S
N195 C197 1.335 . S
N195 C198 1.390 . S
N196 C197 1.345 . S
N196 C199 1.336 . S
C197 N195 1.335 . S
C197 N196 1.345 . S
C197 H202 0.930 . S
C198 N195 1.390 . S
C198 C199 1.346 . S
C198 H203 0.930 . S
C199 N196 1.336 . S
C199 C198 1.346 . S
C199 H206 0.929 . S
C200 O190 1.282 . S
C200 O201 1.216 . S
O201 C200 1.216 . S
H202 C197 0.930 . S
H203 C198 0.930 . S
O204 Cu184 1.959 . S
O204 C191 1.251 . S
H205 C188 0.930 . S
H206 C199 0.929 . S
Cu207 N208 1.999 . S
Cu207 O213 1.974 . S
Cu207 N218 1.985 . S
Cu207 O227 1.959 . S
N208 Cu207 1.999 . S
N208 C210 1.263 . S
N208 C212 1.389 . S
N209 C210 1.358 . S
N209 C211 1.400 . S
C210 N208 1.263 . S
C210 N209 1.358 . S
C210 H216 0.930 . S
C211 N209 1.400 . S
C211 C212 1.351 . S
C211 H228 0.930 . S
C212 N208 1.389 . S
C212 C211 1.351 . S
C212 H217 0.930 . S
O213 Cu207 1.974 . S
O213 C223 1.282 . S
C214 O215 1.261 . S
C214 O227 1.251 . S
O215 C214 1.261 . S
H216 C210 0.930 . S
H217 C212 0.930 . S
N218 Cu207 1.985 . S
N218 C220 1.335 . S
N218 C221 1.390 . S
N219 C220 1.345 . S
N219 C222 1.336 . S
C220 N218 1.335 . S
C220 N219 1.345 . S
C220 H225 0.930 . S
C221 N218 1.390 . S
C221 C222 1.346 . S
C221 H226 0.930 . S
C222 N219 1.336 . S
C222 C221 1.346 . S
C222 H229 0.929 . S
C223 O213 1.282 . S
C223 O224 1.216 . S
O224 C223 1.216 . S
H225 C220 0.930 . S
H226 C221 0.930 . S
O227 Cu207 1.959 . S
O227 C214 1.251 . S
H228 C211 0.930 . S
H229 C222 0.929 . S
Cu230 N231 1.999 . S
Cu230 O236 1.974 . S
Cu230 N241 1.985 . S
Cu230 O250 1.959 . S
N231 Cu230 1.999 . S
N231 C233 1.263 . S
N231 C235 1.389 . S
N232 C233 1.358 . S
N232 C234 1.400 . S
C233 N231 1.263 . S
C233 N232 1.358 . S
C233 H239 0.930 . S
C234 N232 1.400 . S
C234 C235 1.351 . S
C234 H251 0.930 . S
C235 N231 1.389 . S
C235 C234 1.351 . S
C235 H240 0.930 . S
O236 Cu230 1.974 . S
O236 C246 1.282 . S
C237 O238 1.261 . S
C237 O250 1.251 . S
O238 C237 1.261 . S
H239 C233 0.930 . S
H240 C235 0.930 . S
N241 Cu230 1.985 . S
N241 C243 1.335 . S
N241 C244 1.390 . S
N242 C243 1.345 . S
N242 C245 1.336 . S
C243 N241 1.335 . S
C243 N242 1.345 . S
C243 H248 0.930 . S
C244 N241 1.390 . S
C244 C245 1.346 . S
C244 H249 0.930 . S
C245 N242 1.336 . S
C245 C244 1.346 . S
C245 H252 0.929 . S
C246 O236 1.282 . S
C246 O247 1.216 . S
O247 C246 1.216 . S
H248 C243 0.930 . S
H249 C244 0.930 . S
O250 Cu230 1.959 . S
O250 C237 1.251 . S
H251 C234 0.930 . S
H252 C245 0.929 . S
Cu253 N254 1.999 . S
Cu253 O259 1.974 . S
Cu253 N264 1.985 . S
Cu253 O273 1.959 . S
N254 Cu253 1.999 . S
N254 C256 1.263 . S
N254 C258 1.389 . S
N255 C256 1.358 . S
N255 C257 1.400 . S
C256 N254 1.263 . S
C256 N255 1.358 . S
C256 H262 0.930 . S
C257 N255 1.400 . S
C257 C258 1.351 . S
C257 H274 0.930 . S
C258 N254 1.389 . S
C258 C257 1.351 . S
C258 H263 0.930 . S
O259 Cu253 1.974 . S
O259 C269 1.282 . S
C260 O261 1.261 . S
C260 O273 1.251 . S
O261 C260 1.261 . S
H262 C256 0.930 . S
H263 C258 0.930 . S
N264 Cu253 1.985 . S
N264 C266 1.335 . S
N264 C267 1.390 . S
N265 C266 1.345 . S
N265 C268 1.336 . S
C266 N264 1.335 . S
C266 N265 1.345 . S
C266 H271 0.930 . S
C267 N264 1.390 . S
C267 C268 1.346 . S
C267 H272 0.930 . S
C268 N265 1.336 . S
C268 C267 1.346 . S
C268 H275 0.929 . S
C269 O259 1.282 . S
C269 O270 1.216 . S
O270 C269 1.216 . S
H271 C266 0.930 . S
H272 C267 0.930 . S
O273 Cu253 1.959 . S
O273 C260 1.251 . S
H274 C257 0.930 . S
H275 C268 0.929 . S
Cu276 N277 1.999 . S
Cu276 O282 1.974 . S
Cu276 N287 1.985 . S
Cu276 O296 1.959 . S
N277 Cu276 1.999 . S
N277 C279 1.263 . S
N277 C281 1.389 . S
N278 C279 1.358 . S
N278 C280 1.400 . S
C279 N277 1.263 . S
C279 N278 1.358 . S
C279 H285 0.930 . S
C280 N278 1.400 . S
C280 C281 1.351 . S
C280 H297 0.930 . S
C281 N277 1.389 . S
C281 C280 1.351 . S
C281 H286 0.930 . S
O282 Cu276 1.974 . S
O282 C292 1.282 . S
C283 O284 1.261 . S
C283 O296 1.251 . S
O284 C283 1.261 . S
H285 C279 0.930 . S
H286 C281 0.930 . S
N287 Cu276 1.985 . S
N287 C289 1.335 . S
N287 C290 1.390 . S
N288 C289 1.345 . S
N288 C291 1.336 . S
C289 N287 1.335 . S
C289 N288 1.345 . S
C289 H294 0.930 . S
C290 N287 1.390 . S
C290 C291 1.346 . S
C290 H295 0.930 . S
C291 N288 1.336 . S
C291 C290 1.346 . S
C291 H298 0.929 . S
C292 O282 1.282 . S
C292 O293 1.216 . S
O293 C292 1.216 . S
H294 C289 0.930 . S
H295 C290 0.930 . S
O296 Cu276 1.959 . S
O296 C283 1.251 . S
H297 C280 0.930 . S
H298 C291 0.929 . S
Cu299 N300 1.999 . S
Cu299 O305 1.974 . S
Cu299 N310 1.985 . S
Cu299 O319 1.959 . S
N300 Cu299 1.999 . S
N300 C302 1.263 . S
N300 C304 1.389 . S
N301 C302 1.358 . S
N301 C303 1.400 . S
C302 N300 1.263 . S
C302 N301 1.358 . S
C302 H308 0.930 . S
C303 N301 1.400 . S
C303 C304 1.351 . S
C303 H320 0.930 . S
C304 N300 1.389 . S
C304 C303 1.351 . S
C304 H309 0.930 . S
O305 Cu299 1.974 . S
O305 C315 1.282 . S
C306 O307 1.261 . S
C306 O319 1.251 . S
O307 C306 1.261 . S
H308 C302 0.930 . S
H309 C304 0.930 . S
N310 Cu299 1.985 . S
N310 C312 1.335 . S
N310 C313 1.390 . S
N311 C312 1.345 . S
N311 C314 1.336 . S
C312 N310 1.335 . S
C312 N311 1.345 . S
C312 H317 0.930 . S
C313 N310 1.390 . S
C313 C314 1.346 . S
C313 H318 0.930 . S
C314 N311 1.336 . S
C314 C313 1.346 . S
C314 H321 0.929 . S
C315 O305 1.282 . S
C315 O316 1.216 . S
O316 C315 1.216 . S
H317 C312 0.930 . S
H318 C313 0.930 . S
O319 Cu299 1.959 . S
O319 C306 1.251 . S
H320 C303 0.930 . S
H321 C314 0.929 . S
Cu322 N323 1.999 . S
Cu322 O328 1.974 . S
Cu322 N333 1.985 . S
Cu322 O342 1.959 . S
N323 Cu322 1.999 . S
N323 C325 1.263 . S
N323 C327 1.389 . S
N324 C325 1.358 . S
N324 C326 1.400 . S
C325 N323 1.263 . S
C325 N324 1.358 . S
C325 H331 0.930 . S
C326 N324 1.400 . S
C326 C327 1.351 . S
C326 H343 0.930 . S
C327 N323 1.389 . S
C327 C326 1.351 . S
C327 H332 0.930 . S
O328 Cu322 1.974 . S
O328 C338 1.282 . S
C329 O330 1.261 . S
C329 O342 1.251 . S
O330 C329 1.261 . S
H331 C325 0.930 . S
H332 C327 0.930 . S
N333 Cu322 1.985 . S
N333 C335 1.335 . S
N333 C336 1.390 . S
N334 C335 1.345 . S
N334 C337 1.336 . S
C335 N333 1.335 . S
C335 N334 1.345 . S
C335 H340 0.930 . S
C336 N333 1.390 . S
C336 C337 1.346 . S
C336 H341 0.930 . S
C337 N334 1.336 . S
C337 C336 1.346 . S
C337 H344 0.929 . S
C338 O328 1.282 . S
C338 O339 1.216 . S
O339 C338 1.216 . S
H340 C335 0.930 . S
H341 C336 0.930 . S
O342 Cu322 1.959 . S
O342 C329 1.251 . S
H343 C326 0.930 . S
H344 C337 0.929 . S
Cu345 N346 1.999 . S
Cu345 O351 1.974 . S
Cu345 N356 1.985 . S
Cu345 O365 1.959 . S
N346 Cu345 1.999 . S
N346 C348 1.263 . S
N346 C350 1.389 . S
N347 C348 1.358 . S
N347 C349 1.400 . S
C348 N346 1.263 . S
C348 N347 1.358 . S
C348 H354 0.930 . S
C349 N347 1.400 . S
C349 C350 1.351 . S
C349 H366 0.930 . S
C350 N346 1.389 . S
C350 C349 1.351 . S
C350 H355 0.930 . S
O351 Cu345 1.974 . S
O351 C361 1.282 . S
C352 O353 1.261 . S
C352 O365 1.251 . S
O353 C352 1.261 . S
H354 C348 0.930 . S
H355 C350 0.930 . S
N356 Cu345 1.985 . S
N356 C358 1.335 . S
N356 C359 1.390 . S
N357 C358 1.345 . S
N357 C360 1.336 . S
C358 N356 1.335 . S
C358 N357 1.345 . S
C358 H363 0.930 . S
C359 N356 1.390 . S
C359 C360 1.346 . S
C359 H364 0.930 . S
C360 N357 1.336 . S
C360 C359 1.346 . S
C360 H367 0.929 . S
C361 O351 1.282 . S
C361 O362 1.216 . S
O362 C361 1.216 . S
H363 C358 0.930 . S
H364 C359 0.930 . S
O365 Cu345 1.959 . S
O365 C352 1.251 . S
H366 C349 0.930 . S
H367 C360 0.929 . S
Cu368 N369 1.999 . S
Cu368 O374 1.974 . S
Cu368 N379 1.985 . S
Cu368 O388 1.959 . S
N369 Cu368 1.999 . S
N369 C371 1.263 . S
N369 C373 1.389 . S
N370 C371 1.358 . S
N370 C372 1.400 . S
C371 N369 1.263 . S
C371 N370 1.358 . S
C371 H377 0.930 . S
C372 N370 1.400 . S
C372 C373 1.351 . S
C372 H389 0.930 . S
C373 N369 1.389 . S
C373 C372 1.351 . S
C373 H378 0.930 . S
O374 Cu368 1.974 . S
O374 C384 1.282 . S
C375 O376 1.261 . S
C375 O388 1.251 . S
O376 C375 1.261 . S
H377 C371 0.930 . S
H378 C373 0.930 . S
N379 Cu368 1.985 . S
N379 C381 1.335 . S
N379 C382 1.390 . S
N380 C381 1.345 . S
N380 C383 1.336 . S
C381 N379 1.335 . S
C381 N380 1.345 . S
C381 H386 0.930 . S
C382 N379 1.390 . S
C382 C383 1.346 . S
C382 H387 0.930 . S
C383 N380 1.336 . S
C383 C382 1.346 . S
C383 H390 0.929 . S
C384 O374 1.282 . S
C384 O385 1.216 . S
O385 C384 1.216 . S
H386 C381 0.930 . S
H387 C382 0.930 . S
O388 Cu368 1.959 . S
O388 C375 1.251 . S
H389 C372 0.930 . S
H390 C383 0.929 . S
Cu391 N392 1.999 . S
Cu391 O397 1.974 . S
Cu391 N402 1.985 . S
Cu391 O411 1.959 . S
N392 Cu391 1.999 . S
N392 C394 1.263 . S
N392 C396 1.389 . S
N393 C394 1.358 . S
N393 C395 1.400 . S
C394 N392 1.263 . S
C394 N393 1.358 . S
C394 H400 0.930 . S
C395 N393 1.400 . S
C395 C396 1.351 . S
C395 H412 0.930 . S
C396 N392 1.389 . S
C396 C395 1.351 . S
C396 H401 0.930 . S
O397 Cu391 1.974 . S
O397 C407 1.282 . S
C398 O399 1.261 . S
C398 O411 1.251 . S
O399 C398 1.261 . S
H400 C394 0.930 . S
H401 C396 0.930 . S
N402 Cu391 1.985 . S
N402 C404 1.335 . S
N402 C405 1.390 . S
N403 C404 1.345 . S
N403 C406 1.336 . S
C404 N402 1.335 . S
C404 N403 1.345 . S
C404 H409 0.930 . S
C405 N402 1.390 . S
C405 C406 1.346 . S
C405 H410 0.930 . S
C406 N403 1.336 . S
C406 C405 1.346 . S
C406 H413 0.929 . S
C407 O397 1.282 . S
C407 O408 1.216 . S
O408 C407 1.216 . S
H409 C404 0.930 . S
H410 C405 0.930 . S
O411 Cu391 1.959 . S
O411 C398 1.251 . S
H412 C395 0.930 . S
H413 C406 0.929 . S
Cu414 N415 1.999 . S
Cu414 O420 1.974 . S
Cu414 N425 1.985 . S
Cu414 O434 1.959 . S
N415 Cu414 1.999 . S
N415 C417 1.263 . S
N415 C419 1.389 . S
N416 C417 1.358 . S
N416 C418 1.400 . S
C417 N415 1.263 . S
C417 N416 1.358 . S
C417 H423 0.930 . S
C418 N416 1.400 . S
C418 C419 1.351 . S
C418 H435 0.930 . S
C419 N415 1.389 . S
C419 C418 1.351 . S
C419 H424 0.930 . S
O420 Cu414 1.974 . S
O420 C430 1.282 . S
C421 O422 1.261 . S
C421 O434 1.251 . S
O422 C421 1.261 . S
H423 C417 0.930 . S
H424 C419 0.930 . S
N425 Cu414 1.985 . S
N425 C427 1.335 . S
N425 C428 1.390 . S
N426 C427 1.345 . S
N426 C429 1.336 . S
C427 N425 1.335 . S
C427 N426 1.345 . S
C427 H432 0.930 . S
C428 N425 1.390 . S
C428 C429 1.346 . S
C428 H433 0.930 . S
C429 N426 1.336 . S
C429 C428 1.346 . S
C429 H436 0.929 . S
C430 O420 1.282 . S
C430 O431 1.216 . S
O431 C430 1.216 . S
H432 C427 0.930 . S
H433 C428 0.930 . S
O434 Cu414 1.959 . S
O434 C421 1.251 . S
H435 C418 0.930 . S
H436 C429 0.929 . S
Cu437 N438 1.999 . S
Cu437 O443 1.974 . S
Cu437 N448 1.985 . S
Cu437 O457 1.959 . S
N438 Cu437 1.999 . S
N438 C440 1.263 . S
N438 C442 1.389 . S
N439 C440 1.358 . S
N439 C441 1.400 . S
C440 N438 1.263 . S
C440 N439 1.358 . S
C440 H446 0.930 . S
C441 N439 1.400 . S
C441 C442 1.351 . S
C441 H458 0.930 . S
C442 N438 1.389 . S
C442 C441 1.351 . S
C442 H447 0.930 . S
O443 Cu437 1.974 . S
O443 C453 1.282 . S
C444 O445 1.261 . S
C444 O457 1.251 . S
O445 C444 1.261 . S
H446 C440 0.930 . S
H447 C442 0.930 . S
N448 Cu437 1.985 . S
N448 C450 1.335 . S
N448 C451 1.390 . S
N449 C450 1.345 . S
N449 C452 1.336 . S
C450 N448 1.335 . S
C450 N449 1.345 . S
C450 H455 0.930 . S
C451 N448 1.390 . S
C451 C452 1.346 . S
C451 H456 0.930 . S
C452 N449 1.336 . S
C452 C451 1.346 . S
C452 H459 0.929 . S
C453 O443 1.282 . S
C453 O454 1.216 . S
O454 C453 1.216 . S
H455 C450 0.930 . S
H456 C451 0.930 . S
O457 Cu437 1.959 . S
O457 C444 1.251 . S
H458 C441 0.930 . S
H459 C452 0.929 . S
Cu460 N461 1.999 . S
Cu460 O466 1.974 . S
Cu460 N471 1.985 . S
Cu460 O480 1.959 . S
N461 Cu460 1.999 . S
N461 C463 1.263 . S
N461 C465 1.389 . S
N462 C463 1.358 . S
N462 C464 1.400 . S
C463 N461 1.263 . S
C463 N462 1.358 . S
C463 H469 0.930 . S
C464 N462 1.400 . S
C464 C465 1.351 . S
C464 H481 0.930 . S
C465 N461 1.389 . S
C465 C464 1.351 . S
C465 H470 0.930 . S
O466 Cu460 1.974 . S
O466 C476 1.282 . S
C467 O468 1.261 . S
C467 O480 1.251 . S
O468 C467 1.261 . S
H469 C463 0.930 . S
H470 C465 0.930 . S
N471 Cu460 1.985 . S
N471 C473 1.335 . S
N471 C474 1.390 . S
N472 C473 1.345 . S
N472 C475 1.336 . S
C473 N471 1.335 . S
C473 N472 1.345 . S
C473 H478 0.930 . S
C474 N471 1.390 . S
C474 C475 1.346 . S
C474 H479 0.930 . S
C475 N472 1.336 . S
C475 C474 1.346 . S
C475 H482 0.929 . S
C476 O466 1.282 . S
C476 O477 1.216 . S
O477 C476 1.216 . S
H478 C473 0.930 . S
H479 C474 0.930 . S
O480 Cu460 1.959 . S
O480 C467 1.251 . S
H481 C464 0.930 . S
H482 C475 0.929 . S
Cu483 N484 1.999 . S
Cu483 O489 1.974 . S
Cu483 N494 1.985 . S
Cu483 O503 1.959 . S
N484 Cu483 1.999 . S
N484 C486 1.263 . S
N484 C488 1.389 . S
N485 C486 1.358 . S
N485 C487 1.400 . S
C486 N484 1.263 . S
C486 N485 1.358 . S
C486 H492 0.930 . S
C487 N485 1.400 . S
C487 C488 1.351 . S
C487 H504 0.930 . S
C488 N484 1.389 . S
C488 C487 1.351 . S
C488 H493 0.930 . S
O489 Cu483 1.974 . S
O489 C499 1.282 . S
C490 O491 1.261 . S
C490 O503 1.251 . S
O491 C490 1.261 . S
H492 C486 0.930 . S
H493 C488 0.930 . S
N494 Cu483 1.985 . S
N494 C496 1.335 . S
N494 C497 1.390 . S
N495 C496 1.345 . S
N495 C498 1.336 . S
C496 N494 1.335 . S
C496 N495 1.345 . S
C496 H501 0.930 . S
C497 N494 1.390 . S
C497 C498 1.346 . S
C497 H502 0.930 . S
C498 N495 1.336 . S
C498 C497 1.346 . S
C498 H505 0.929 . S
C499 O489 1.282 . S
C499 O500 1.216 . S
O500 C499 1.216 . S
H501 C496 0.930 . S
H502 C497 0.930 . S
O503 Cu483 1.959 . S
O503 C490 1.251 . S
H504 C487 0.930 . S
H505 C498 0.929 . S
Cu506 N507 1.999 . S
Cu506 O512 1.974 . S
Cu506 N517 1.985 . S
Cu506 O526 1.959 . S
N507 Cu506 1.999 . S
N507 C509 1.263 . S
N507 C511 1.389 . S
N508 C509 1.358 . S
N508 C510 1.400 . S
C509 N507 1.263 . S
C509 N508 1.358 . S
C509 H515 0.930 . S
C510 N508 1.400 . S
C510 C511 1.351 . S
C510 H527 0.930 . S
C511 N507 1.389 . S
C511 C510 1.351 . S
C511 H516 0.930 . S
O512 Cu506 1.974 . S
O512 C522 1.282 . S
C513 O514 1.261 . S
C513 O526 1.251 . S
O514 C513 1.261 . S
H515 C509 0.930 . S
H516 C511 0.930 . S
N517 Cu506 1.985 . S
N517 C519 1.335 . S
N517 C520 1.390 . S
N518 C519 1.345 . S
N518 C521 1.336 . S
C519 N517 1.335 . S
C519 N518 1.345 . S
C519 H524 0.930 . S
C520 N517 1.390 . S
C520 C521 1.346 . S
C520 H525 0.930 . S
C521 N518 1.336 . S
C521 C520 1.346 . S
C521 H528 0.929 . S
C522 O512 1.282 . S
C522 O523 1.216 . S
O523 C522 1.216 . S
H524 C519 0.930 . S
H525 C520 0.930 . S
O526 Cu506 1.959 . S
O526 C513 1.251 . S
H527 C510 0.930 . S
H528 C521 0.929 . S
Cu529 N530 1.999 . S
Cu529 O535 1.974 . S
Cu529 N540 1.985 . S
Cu529 O549 1.959 . S
N530 Cu529 1.999 . S
N530 C532 1.263 . S
N530 C534 1.389 . S
N531 C532 1.358 . S
N531 C533 1.400 . S
C532 N530 1.263 . S
C532 N531 1.358 . S
C532 H538 0.930 . S
C533 N531 1.400 . S
C533 C534 1.351 . S
C533 H550 0.930 . S
C534 N530 1.389 . S
C534 C533 1.351 . S
C534 H539 0.930 . S
O535 Cu529 1.974 . S
O535 C545 1.282 . S
C536 O537 1.261 . S
C536 O549 1.251 . S
O537 C536 1.261 . S
H538 C532 0.930 . S
H539 C534 0.930 . S
N540 Cu529 1.985 . S
N540 C542 1.335 . S
N540 C543 1.390 . S
N541 C542 1.345 . S
N541 C544 1.336 . S
C542 N540 1.335 . S
C542 N541 1.345 . S
C542 H547 0.930 . S
C543 N540 1.390 . S
C543 C544 1.346 . S
C543 H548 0.930 . S
C544 N541 1.336 . S
C544 C543 1.346 . S
C544 H551 0.929 . S
C545 O535 1.282 . S
C545 O546 1.216 . S
O546 C545 1.216 . S
H547 C542 0.930 . S
H548 C543 0.930 . S
O549 Cu529 1.959 . S
O549 C536 1.251 . S
H550 C533 0.930 . S
H551 C544 0.929 . S
C552 C553 1.387 . S
C552 H556 0.950 . S
C552 C561 1.390 . S
C553 C552 1.387 . S
C553 C555 1.387 . S
H554 C561 0.950 . S
C555 C553 1.387 . S
C555 C557 1.390 . S
C555 H559 0.950 . S
H556 C552 0.950 . S
C557 C555 1.390 . S
C557 C558 1.387 . S
C557 H560 0.950 . S
C558 C557 1.387 . S
C558 C561 1.387 . S
H559 C555 0.950 . S
H560 C557 0.950 . S
C561 C552 1.390 . S
C561 H554 0.950 . S
C561 C558 1.387 . S
C562 C563 1.387 . S
C562 H566 0.950 . S
C562 C571 1.390 . S
C563 C562 1.387 . S
C563 C565 1.387 . S
H564 C571 0.950 . S
C565 C563 1.387 . S
C565 C567 1.390 . S
C565 H569 0.950 . S
H566 C562 0.950 . S
C567 C565 1.390 . S
C567 C568 1.387 . S
C567 H570 0.950 . S
C568 C567 1.387 . S
C568 C571 1.387 . S
H569 C565 0.950 . S
H570 C567 0.950 . S
C571 C562 1.390 . S
C571 H564 0.950 . S
C571 C568 1.387 . S
C572 C573 1.387 . S
C572 H576 0.950 . S
C572 C581 1.390 . S
C573 C572 1.387 . S
C573 C575 1.387 . S
H574 C581 0.950 . S
C575 C573 1.387 . S
C575 C577 1.390 . S
C575 H579 0.950 . S
H576 C572 0.950 . S
C577 C575 1.390 . S
C577 C578 1.387 . S
C577 H580 0.950 . S
C578 C577 1.387 . S
C578 C581 1.387 . S
H579 C575 0.950 . S
H580 C577 0.950 . S
C581 C572 1.390 . S
C581 H574 0.950 . S
C581 C578 1.387 . S
C582 C583 1.387 . S
C582 H586 0.950 . S
C582 C591 1.390 . S
C583 C582 1.387 . S
C583 C585 1.387 . S
H584 C591 0.950 . S
C585 C583 1.387 . S
C585 C587 1.390 . S
C585 H589 0.950 . S
H586 C582 0.950 . S
C587 C585 1.390 . S
C587 C588 1.387 . S
C587 H590 0.950 . S
C588 C587 1.387 . S
C588 C591 1.387 . S
H589 C585 0.950 . S
H590 C587 0.950 . S
C591 C582 1.390 . S
C591 H584 0.950 . S
C591 C588 1.387 . S
C592 C593 1.387 . S
C592 H596 0.950 . S
C592 C601 1.390 . S
C593 C592 1.387 . S
C593 C595 1.387 . S
H594 C601 0.950 . S
C595 C593 1.387 . S
C595 C597 1.390 . S
C595 H599 0.950 . S
H596 C592 0.950 . S
C597 C595 1.390 . S
C597 C598 1.387 . S
C597 H600 0.950 . S
C598 C597 1.387 . S
C598 C601 1.387 . S
H599 C595 0.950 . S
H600 C597 0.950 . S
C601 C592 1.390 . S
C601 H594 0.950 . S
C601 C598 1.387 . S
C602 C603 1.387 . S
C602 H606 0.950 . S
C602 C611 1.390 . S
C603 C602 1.387 . S
C603 C605 1.387 . S
H604 C611 0.950 . S
C605 C603 1.387 . S
C605 C607 1.390 . S
C605 H609 0.950 . S
H606 C602 0.950 . S
C607 C605 1.390 . S
C607 C608 1.387 . S
C607 H610 0.950 . S
C608 C607 1.387 . S
C608 C611 1.387 . S
H609 C605 0.950 . S
H610 C607 0.950 . S
C611 C602 1.390 . S
C611 H604 0.950 . S
C611 C608 1.387 . S
C612 C613 1.387 . S
C612 H616 0.950 . S
C612 C621 1.390 . S
C613 C612 1.387 . S
C613 C615 1.387 . S
H614 C621 0.950 . S
C615 C613 1.387 . S
C615 C617 1.390 . S
C615 H619 0.950 . S
H616 C612 0.950 . S
C617 C615 1.390 . S
C617 C618 1.387 . S
C617 H620 0.950 . S
C618 C617 1.387 . S
C618 C621 1.387 . S
H619 C615 0.950 . S
H620 C617 0.950 . S
C621 C612 1.390 . S
C621 H614 0.950 . S
C621 C618 1.387 . S
C622 C623 1.387 . S
C622 H626 0.950 . S
C622 C631 1.390 . S
C623 C622 1.387 . S
C623 C625 1.387 . S
H624 C631 0.950 . S
C625 C623 1.387 . S
C625 C627 1.390 . S
C625 H629 0.950 . S
H626 C622 0.950 . S
C627 C625 1.390 . S
C627 C628 1.387 . S
C627 H630 0.950 . S
C628 C627 1.387 . S
C628 C631 1.387 . S
H629 C625 0.950 . S
H630 C627 0.950 . S
C631 C622 1.390 . S
C631 H624 0.950 . S
C631 C628 1.387 . S
C632 C633 1.387 . S
C632 H636 0.950 . S
C632 C641 1.390 . S
C633 C632 1.387 . S
C633 C635 1.387 . S
H634 C641 0.950 . S
C635 C633 1.387 . S
C635 C637 1.390 . S
C635 H639 0.950 . S
H636 C632 0.950 . S
C637 C635 1.390 . S
C637 C638 1.387 . S
C637 H640 0.950 . S
C638 C637 1.387 . S
C638 C641 1.387 . S
H639 C635 0.950 . S
H640 C637 0.950 . S
C641 C632 1.390 . S
C641 H634 0.950 . S
C641 C638 1.387 . S
C642 C643 1.387 . S
C642 H646 0.950 . S
C642 C651 1.390 . S
C643 C642 1.387 . S
C643 C645 1.387 . S
H644 C651 0.950 . S
C645 C643 1.387 . S
C645 C647 1.390 . S
C645 H649 0.950 . S
H646 C642 0.950 . S
C647 C645 1.390 . S
C647 C648 1.387 . S
C647 H650 0.950 . S
C648 C647 1.387 . S
C648 C651 1.387 . S
H649 C645 0.950 . S
H650 C647 0.950 . S
C651 C642 1.390 . S
C651 H644 0.950 . S
C651 C648 1.387 . S
C652 C653 1.387 . S
C652 H656 0.950 . S
C652 C661 1.390 . S
C653 C652 1.387 . S
C653 C655 1.387 . S
H654 C661 0.950 . S
C655 C653 1.387 . S
C655 C657 1.390 . S
C655 H659 0.950 . S
H656 C652 0.950 . S
C657 C655 1.390 . S
C657 C658 1.387 . S
C657 H660 0.950 . S
C658 C657 1.387 . S
C658 C661 1.387 . S
H659 C655 0.950 . S
H660 C657 0.950 . S
C661 C652 1.390 . S
C661 H654 0.950 . S
C661 C658 1.387 . S
C662 C663 1.387 . S
C662 H666 0.950 . S
C662 C671 1.390 . S
C663 C662 1.387 . S
C663 C665 1.387 . S
H664 C671 0.950 . S
C665 C663 1.387 . S
C665 C667 1.390 . S
C665 H669 0.950 . S
H666 C662 0.950 . S
C667 C665 1.390 . S
C667 C668 1.387 . S
C667 H670 0.950 . S
C668 C667 1.387 . S
C668 C671 1.387 . S
H669 C665 0.950 . S
H670 C667 0.950 . S
C671 C662 1.390 . S
C671 H664 0.950 . S
C671 C668 1.387 . S
C672 C673 1.387 . S
C672 H676 0.950 . S
C672 C681 1.390 . S
C673 C672 1.387 . S
C673 C675 1.387 . S
H674 C681 0.950 . S
C675 C673 1.387 . S
C675 C677 1.390 . S
C675 H679 0.950 . S
H676 C672 0.950 . S
C677 C675 1.390 . S
C677 C678 1.387 . S
C677 H680 0.950 . S
C678 C677 1.387 . S
C678 C681 1.387 . S
H679 C675 0.950 . S
H680 C677 0.950 . S
C681 C672 1.390 . S
C681 H674 0.950 . S
C681 C678 1.387 . S
C682 C683 1.387 . S
C682 H686 0.950 . S
C682 C691 1.390 . S
C683 C682 1.387 . S
C683 C685 1.387 . S
H684 C691 0.950 . S
C685 C683 1.387 . S
C685 C687 1.390 . S
C685 H689 0.950 . S
H686 C682 0.950 . S
C687 C685 1.390 . S
C687 C688 1.387 . S
C687 H690 0.950 . S
C688 C687 1.387 . S
C688 C691 1.387 . S
H689 C685 0.950 . S
H690 C687 0.950 . S
C691 C682 1.390 . S
C691 H684 0.950 . S
C691 C688 1.387 . S
C692 C693 1.387 . S
C692 H696 0.950 . S
C692 C701 1.390 . S
C693 C692 1.387 . S
C693 C695 1.387 . S
H694 C701 0.950 . S
C695 C693 1.387 . S
C695 C697 1.390 . S
C695 H699 0.950 . S
H696 C692 0.950 . S
C697 C695 1.390 . S
C697 C698 1.387 . S
C697 H700 0.950 . S
C698 C697 1.387 . S
C698 C701 1.387 . S
H699 C695 0.950 . S
H700 C697 0.950 . S
C701 C692 1.390 . S
C701 H694 0.950 . S
C701 C698 1.387 . S
C702 C703 1.387 . S
C702 H706 0.950 . S
C702 C711 1.390 . S
C703 C702 1.387 . S
C703 C705 1.387 . S
H704 C711 0.950 . S
C705 C703 1.387 . S
C705 C707 1.390 . S
C705 H709 0.950 . S
H706 C702 0.950 . S
C707 C705 1.390 . S
C707 C708 1.387 . S
C707 H710 0.950 . S
C708 C707 1.387 . S
C708 C711 1.387 . S
H709 C705 0.950 . S
H710 C707 0.950 . S
C711 C702 1.390 . S
C711 H704 0.950 . S
C711 C708 1.387 . S
C712 C713 1.387 . S
C712 H716 0.950 . S
C712 C721 1.390 . S
C713 C712 1.387 . S
C713 C715 1.387 . S
H714 C721 0.950 . S
C715 C713 1.387 . S
C715 C717 1.390 . S
C715 H719 0.950 . S
H716 C712 0.950 . S
C717 C715 1.390 . S
C717 C718 1.387 . S
C717 H720 0.950 . S
C718 C717 1.387 . S
C718 C721 1.387 . S
H719 C715 0.950 . S
H720 C717 0.950 . S
C721 C712 1.390 . S
C721 H714 0.950 . S
C721 C718 1.387 . S
C722 C723 1.387 . S
C722 H726 0.950 . S
C722 C731 1.390 . S
C723 C722 1.387 . S
C723 C725 1.387 . S
H724 C731 0.950 . S
C725 C723 1.387 . S
C725 C727 1.390 . S
C725 H729 0.950 . S
H726 C722 0.950 . S
C727 C725 1.390 . S
C727 C728 1.387 . S
C727 H730 0.950 . S
C728 C727 1.387 . S
C728 C731 1.387 . S
H729 C725 0.950 . S
H730 C727 0.950 . S
C731 C722 1.390 . S
C731 H724 0.950 . S
C731 C728 1.387 . S
C732 C733 1.387 . S
C732 H736 0.950 . S
C732 C741 1.390 . S
C733 C732 1.387 . S
C733 C735 1.387 . S
H734 C741 0.950 . S
C735 C733 1.387 . S
C735 C737 1.390 . S
C735 H739 0.950 . S
H736 C732 0.950 . S
C737 C735 1.390 . S
C737 C738 1.387 . S
C737 H740 0.950 . S
C738 C737 1.387 . S
C738 C741 1.387 . S
H739 C735 0.950 . S
H740 C737 0.950 . S
C741 C732 1.390 . S
C741 H734 0.950 . S
C741 C738 1.387 . S
C742 C743 1.387 . S
C742 H746 0.950 . S
C742 C751 1.390 . S
C743 C742 1.387 . S
C743 C745 1.387 . S
H744 C751 0.950 . S
C745 C743 1.387 . S
C745 C747 1.390 . S
C745 H749 0.950 . S
H746 C742 0.950 . S
C747 C745 1.390 . S
C747 C748 1.387 . S
C747 H750 0.950 . S
C748 C747 1.387 . S
C748 C751 1.387 . S
H749 C745 0.950 . S
H750 C747 0.950 . S
C751 C742 1.390 . S
C751 H744 0.950 . S
C751 C748 1.387 . S
C752 C753 1.387 . S
C752 H756 0.950 . S
C752 C761 1.390 . S
C753 C752 1.387 . S
C753 C755 1.387 . S
H754 C761 0.950 . S
C755 C753 1.387 . S
C755 C757 1.390 . S
C755 H759 0.950 . S
H756 C752 0.950 . S
C757 C755 1.390 . S
C757 C758 1.387 . S
C757 H760 0.950 . S
C758 C757 1.387 . S
C758 C761 1.387 . S
H759 C755 0.950 . S
H760 C757 0.950 . S
C761 C752 1.390 . S
C761 H754 0.950 . S
C761 C758 1.387 . S
C762 C763 1.387 . S
C762 H766 0.950 . S
C762 C771 1.390 . S
C763 C762 1.387 . S
C763 C765 1.387 . S
H764 C771 0.950 . S
C765 C763 1.387 . S
C765 C767 1.390 . S
C765 H769 0.950 . S
H766 C762 0.950 . S
C767 C765 1.390 . S
C767 C768 1.387 . S
C767 H770 0.950 . S
C768 C767 1.387 . S
C768 C771 1.387 . S
H769 C765 0.950 . S
H770 C767 0.950 . S
C771 C762 1.390 . S
C771 H764 0.950 . S
C771 C768 1.387 . S
C772 C773 1.387 . S
C772 H776 0.950 . S
C772 C781 1.390 . S
C773 C772 1.387 . S
C773 C775 1.387 . S
H774 C781 0.950 . S
C775 C773 1.387 . S
C775 C777 1.390 . S
C775 H779 0.950 . S
H776 C772 0.950 . S
C777 C775 1.390 . S
C777 C778 1.387 . S
C777 H780 0.950 . S
C778 C777 1.387 . S
C778 C781 1.387 . S
H779 C775 0.950 . S
H780 C777 0.950 . S
C781 C772 1.390 . S
C781 H774 0.950 . S
C781 C778 1.387 . S
C782 C783 1.387 . S
C782 H786 0.950 . S
C782 C791 1.390 . S
C783 C782 1.387 . S
C783 C785 1.387 . S
H784 C791 0.950 . S
C785 C783 1.387 . S
C785 C787 1.390 . S
C785 H789 0.950 . S
H786 C782 0.950 . S
C787 C785 1.390 . S
C787 C788 1.387 . S
C787 H790 0.950 . S
C788 C787 1.387 . S
C788 C791 1.387 . S
H789 C785 0.950 . S
H790 C787 0.950 . S
C791 C782 1.390 . S
C791 H784 0.950 . S
C791 C788 1.387 . S
C792 C793 1.387 . S
C792 H796 0.950 . S
C792 C801 1.390 . S
C793 C792 1.387 . S
C793 C795 1.387 . S
H794 C801 0.950 . S
C795 C793 1.387 . S
C795 C797 1.390 . S
C795 H799 0.950 . S
H796 C792 0.950 . S
C797 C795 1.390 . S
C797 C798 1.387 . S
C797 H800 0.950 . S
C798 C797 1.387 . S
C798 C801 1.387 . S
H799 C795 0.950 . S
H800 C797 0.950 . S
C801 C792 1.390 . S
C801 H794 0.950 . S
C801 C798 1.387 . S
C802 C803 1.387 . S
C802 H806 0.950 . S
C802 C811 1.390 . S
C803 C802 1.387 . S
C803 C805 1.387 . S
H804 C811 0.950 . S
C805 C803 1.387 . S
C805 C807 1.390 . S
C805 H809 0.950 . S
H806 C802 0.950 . S
C807 C805 1.390 . S
C807 C808 1.387 . S
C807 H810 0.950 . S
C808 C807 1.387 . S
C808 C811 1.387 . S
H809 C805 0.950 . S
H810 C807 0.950 . S
C811 C802 1.390 . S
C811 H804 0.950 . S
C811 C808 1.387 . S
C812 C813 1.387 . S
C812 H816 0.950 . S
C812 C821 1.390 . S
C813 C812 1.387 . S
C813 C815 1.408 . S
H814 C821 0.950 . S
C815 C813 1.408 . S
C815 C817 1.372 1_565 S
C815 H819 0.949 . S
H816 C812 0.950 . S
C817 C815 1.372 1_545 S
C817 C818 1.387 . S
C817 H820 0.950 . S
C818 C817 1.387 . S
C818 C821 1.387 1_545 S
H819 C815 0.949 . S
H820 C817 0.950 . S
C821 C812 1.390 . S
C821 H814 0.950 . S
C821 C818 1.387 1_565 S
C822 C823 1.387 1_655 S
C822 H826 0.950 . S
C822 C831 1.390 . S
C823 C822 1.387 1_455 S
C823 C825 1.387 . S
H824 C831 0.950 . S
C825 C823 1.387 . S
C825 C827 1.390 1_455 S
C825 H829 0.950 . S
H826 C822 0.950 . S
C827 C825 1.390 1_655 S
C827 C828 1.387 . S
C827 H830 0.950 . S
C828 C827 1.387 . S
C828 C831 1.387 . S
H829 C825 0.950 . S
H830 C827 0.950 . S
C831 C822 1.390 . S
C831 H824 0.950 . S
C831 C828 1.387 . S
C832 C833 1.387 . S
C832 H836 0.950 . S
C832 C841 1.390 . S
C833 C832 1.387 . S
C833 C835 1.387 . S
H834 C841 0.950 . S
C835 C833 1.387 . S
C835 C837 1.390 1_565 S
C835 H839 0.950 . S
H836 C832 0.950 . S
C837 C835 1.390 1_545 S
C837 C838 1.383 1_545 S
C837 H840 0.950 . S
C838 C837 1.383 1_565 S
C838 C841 1.411 . S
H839 C835 0.950 . S
H840 C837 0.950 . S
C841 C832 1.390 . S
C841 H834 0.950 . S
C841 C838 1.411 . S
C842 C843 1.387 1_455 S
C842 H846 0.950 . S
C842 C851 1.390 . S
C843 C842 1.387 1_655 S
C843 C845 1.387 . S
H844 C851 0.950 . S
C845 C843 1.387 . S
C845 C847 1.390 . S
C845 H849 0.950 . S
H846 C842 0.950 . S
C847 C845 1.390 . S
C847 C848 1.387 1_655 S
C847 H850 0.950 . S
C848 C847 1.387 1_455 S
C848 C851 1.387 . S
H849 C845 0.950 . S
H850 C847 0.950 . S
C851 C842 1.390 . S
C851 H844 0.950 . S
C851 C848 1.387 . S
C852 C853 1.387 . S
C852 H856 0.950 . S
C852 C861 1.390 . S
C853 C852 1.387 . S
C853 C855 1.387 . S
H854 C861 0.950 . S
C855 C853 1.387 . S
C855 C857 1.390 . S
C855 H859 0.950 . S
H856 C852 0.950 . S
C857 C855 1.390 . S
C857 C858 1.387 . S
C857 H860 0.950 . S
C858 C857 1.387 . S
C858 C861 1.387 . S
H859 C855 0.950 . S
H860 C857 0.950 . S
C861 C852 1.390 . S
C861 H854 0.950 . S
C861 C858 1.387 . S
C862 C863 1.387 . S
C862 H866 0.950 . S
C862 C871 1.390 . S
C863 C862 1.387 . S
C863 C865 1.387 . S
H864 C871 0.950 . S
C865 C863 1.387 . S
C865 C867 1.390 . S
C865 H869 0.950 . S
H866 C862 0.950 . S
C867 C865 1.390 . S
C867 C868 1.387 . S
C867 H870 0.950 . S
C868 C867 1.387 . S
C868 C871 1.387 . S
H869 C865 0.950 . S
H870 C867 0.950 . S
C871 C862 1.390 . S
C871 H864 0.950 . S
C871 C868 1.387 . S
C872 C873 1.387 . S
C872 H876 0.950 . S
C872 C881 1.390 . S
C873 C872 1.387 . S
C873 C875 1.387 . S
H874 C881 0.950 . S
C875 C873 1.387 . S
C875 C877 1.390 . S
C875 H879 0.950 . S
H876 C872 0.950 . S
C877 C875 1.390 . S
C877 C878 1.387 . S
C877 H880 0.950 . S
C878 C877 1.387 . S
C878 C881 1.387 . S
H879 C875 0.950 . S
H880 C877 0.950 . S
C881 C872 1.390 . S
C881 H874 0.950 . S
C881 C878 1.387 . S
C882 C883 1.387 . S
C882 H886 0.950 . S
C882 C891 1.390 . S
C883 C882 1.387 . S
C883 C885 1.387 . S
H884 C891 0.950 . S
C885 C883 1.387 . S
C885 C887 1.390 1_554 S
C885 H889 0.950 . S
H886 C882 0.950 . S
C887 C885 1.390 1_556 S
C887 C888 1.387 . S
C887 H890 0.950 . S
C888 C887 1.387 . S
C888 C891 1.387 1_556 S
H889 C885 0.950 . S
H890 C887 0.950 . S
C891 C882 1.390 . S
C891 H884 0.950 . S
C891 C888 1.387 1_554 S
C892 C893 1.387 . S
C892 H896 0.950 . S
C892 C901 1.390 . S
C893 C892 1.387 . S
C893 C895 1.387 . S
H894 C901 0.950 . S
C895 C893 1.387 . S
C895 C897 1.390 . S
C895 H899 0.950 . S
H896 C892 0.950 . S
C897 C895 1.390 . S
C897 C898 1.387 . S
C897 H900 0.950 . S
C898 C897 1.387 . S
C898 C901 1.387 . S
H899 C895 0.950 . S
H900 C897 0.950 . S
C901 C892 1.390 . S
C901 H894 0.950 . S
C901 C898 1.387 . S
C902 C903 1.387 . S
C902 H906 0.950 . S
C902 C911 1.390 1_556 S
C903 C902 1.387 . S
C903 C905 1.387 1_556 S
H904 C911 0.950 . S
C905 C903 1.387 1_554 S
C905 C907 1.390 . S
C905 H909 0.950 . S
H906 C902 0.950 . S
C907 C905 1.390 . S
C907 C908 1.387 . S
C907 H910 0.950 . S
C908 C907 1.387 . S
C908 C911 1.387 . S
H909 C905 0.950 . S
H910 C907 0.950 . S
C911 C902 1.390 1_554 S
C911 H904 0.950 . S
C911 C908 1.387 . S
C912 C913 1.387 . S
C912 H916 0.950 . S
C912 C921 1.390 . S
C913 C912 1.387 . S
C913 C915 1.387 . S
H914 C921 0.950 . S
C915 C913 1.387 . S
C915 C917 1.390 . S
C915 H919 0.950 . S
H916 C912 0.950 . S
C917 C915 1.390 . S
C917 C918 1.387 . S
C917 H920 0.950 . S
C918 C917 1.387 . S
C918 C921 1.387 . S
H919 C915 0.950 . S
H920 C917 0.950 . S
C921 C912 1.390 . S
C921 H914 0.950 . S
C921 C918 1.387 . S
C922 C923 1.387 . S
C922 H926 0.950 . S
C922 C931 1.390 . S
C923 C922 1.387 . S
C923 C925 1.387 . S
H924 C931 0.950 . S
C925 C923 1.387 . S
C925 C927 1.390 . S
C925 H929 0.950 . S
H926 C922 0.950 . S
C927 C925 1.390 . S
C927 C928 1.387 . S
C927 H930 0.950 . S
C928 C927 1.387 . S
C928 C931 1.387 . S
H929 C925 0.950 . S
H930 C927 0.950 . S
C931 C922 1.390 . S
C931 H924 0.950 . S
C931 C928 1.387 . S
C932 C933 1.387 . S
C932 H936 0.950 . S
C932 C941 1.390 . S
C933 C932 1.387 . S
C933 C935 1.387 1_545 S
H934 C941 0.950 . S
C935 C933 1.387 1_565 S
C935 C937 1.390 . S
C935 H939 0.950 . S
H936 C932 0.950 . S
C937 C935 1.390 . S
C937 C938 1.387 . S
C937 H940 0.950 . S
C938 C937 1.387 . S
C938 C941 1.387 1_565 S
H939 C935 0.950 . S
H940 C937 0.950 . S
C941 C932 1.390 . S
C941 H934 0.950 . S
C941 C938 1.387 1_545 S
C942 C943 1.387 . S
C942 H946 0.950 . S
C942 C951 1.390 1_455 S
C943 C942 1.387 . S
C943 C945 1.387 . S
H944 C951 0.950 . S
C945 C943 1.387 . S
C945 C947 1.365 1_455 S
C945 H949 0.950 . S
H946 C942 0.950 . S
C947 C945 1.365 1_655 S
C947 C948 1.403 . S
C947 H950 0.960 . S
C948 C947 1.403 . S
C948 C951 1.387 . S
H949 C945 0.950 . S
H950 C947 0.960 . S
C951 C942 1.390 1_655 S
C951 H944 0.950 . S
C951 C948 1.387 . S
C952 C953 1.387 . S
C952 H956 0.950 . S
C952 C961 1.390 . S
C953 C952 1.387 . S
C953 C955 1.387 . S
H954 C961 0.950 . S
C955 C953 1.387 . S
C955 C957 1.390 . S
C955 H959 0.950 . S
H956 C952 0.950 . S
C957 C955 1.390 . S
C957 C958 1.387 1_545 S
C957 H960 0.950 1_545 S
C958 C957 1.387 1_565 S
C958 C961 1.387 1_565 S
H959 C955 0.950 . S
H960 C957 0.950 1_565 S
C961 C952 1.390 . S
C961 H954 0.950 . S
C961 C958 1.387 1_545 S
C962 C963 1.377 1_655 S
C962 H966 0.942 1_655 S
C962 C971 1.409 . S
C963 C962 1.377 1_455 S
C963 C965 1.387 . S
H964 C971 0.950 . S
C965 C963 1.387 . S
C965 C967 1.390 1_455 S
C965 H969 0.950 . S
H966 C962 0.942 1_455 S
C967 C965 1.390 1_655 S
C967 C968 1.387 . S
C967 H970 0.950 . S
C968 C967 1.387 . S
C968 C971 1.387 . S
H969 C965 0.950 . S
H970 C967 0.950 . S
C971 C962 1.409 . S
C971 H964 0.950 . S
C971 C968 1.387 . S
C972 C973 1.387 . S
C972 H976 0.950 . S
C972 C981 1.390 . S
C973 C972 1.387 . S
C973 C975 1.387 . S
H974 C981 0.950 . S
C975 C973 1.387 . S
C975 C977 1.390 . S
C975 H979 0.950 . S
H976 C972 0.950 . S
C977 C975 1.390 . S
C977 C978 1.387 . S
C977 H980 0.950 . S
C978 C977 1.387 . S
C978 C981 1.387 . S
H979 C975 0.950 . S
H980 C977 0.950 . S
C981 C972 1.390 . S
C981 H974 0.950 . S
C981 C978 1.387 . S
C982 C983 1.387 . S
C982 H986 0.950 . S
C982 C991 1.390 . S
C983 C982 1.387 . S
C983 C985 1.387 . S
H984 C991 0.950 . S
C985 C983 1.387 . S
C985 C987 1.390 . S
C985 H989 0.950 . S
H986 C982 0.950 . S
C987 C985 1.390 . S
C987 C988 1.387 . S
C987 H990 0.950 . S
C988 C987 1.387 . S
C988 C991 1.387 . S
H989 C985 0.950 . S
H990 C987 0.950 . S
C991 C982 1.390 . S
C991 H984 0.950 . S
C991 C988 1.387 . S
C992 C993 1.387 . S
C992 H996 0.950 . S
C992 C1001 1.390 . S
C993 C992 1.387 . S
C993 C995 1.387 . S
H994 C1001 0.950 . S
C995 C993 1.387 . S
C995 C997 1.390 . S
C995 H999 0.950 . S
H996 C992 0.950 . S
C997 C995 1.390 . S
C997 C998 1.387 . S
C997 H1000 0.950 . S
C998 C997 1.387 . S
C998 C1001 1.387 . S
H999 C995 0.950 . S
H1000 C997 0.950 . S
C1001 C992 1.390 . S
C1001 H994 0.950 . S
C1001 C998 1.387 . S
C1002 C1003 1.387 1_556 S
C1002 H1006 0.950 . S
C1002 C1011 1.390 . S
C1003 C1002 1.387 1_554 S
C1003 C1005 1.387 . S
H1004 C1011 0.950 . S
C1005 C1003 1.387 . S
C1005 C1007 1.390 1_554 S
C1005 H1009 0.950 . S
H1006 C1002 0.950 . S
C1007 C1005 1.390 1_556 S
C1007 C1008 1.387 . S
C1007 H1010 0.950 . S
C1008 C1007 1.387 . S
C1008 C1011 1.387 . S
H1009 C1005 0.950 . S
H1010 C1007 0.950 . S
C1011 C1002 1.390 . S
C1011 H1004 0.950 . S
C1011 C1008 1.387 . S
C1012 C1013 1.387 . S
C1012 H1016 0.950 . S
C1012 C1021 1.390 . S
C1013 C1012 1.387 . S
C1013 C1015 1.387 . S
H1014 C1021 0.950 . S
C1015 C1013 1.387 . S
C1015 C1017 1.390 . S
C1015 H1019 0.950 . S
H1016 C1012 0.950 . S
C1017 C1015 1.390 . S
C1017 C1018 1.387 . S
C1017 H1020 0.950 . S
C1018 C1017 1.387 . S
C1018 C1021 1.387 . S
H1019 C1015 0.950 . S
H1020 C1017 0.950 . S
C1021 C1012 1.390 . S
C1021 H1014 0.950 . S
C1021 C1018 1.387 . S
C1022 C1023 1.387 . S
C1022 H1026 0.950 . S
C1022 C1031 1.390 1_554 S
C1023 C1022 1.387 . S
C1023 C1025 1.387 1_554 S
H1024 C1031 0.950 . S
C1025 C1023 1.387 1_556 S
C1025 C1027 1.390 . S
C1025 H1029 0.950 . S
H1026 C1022 0.950 . S
C1027 C1025 1.390 . S
C1027 C1028 1.387 . S
C1027 H1030 0.950 . S
C1028 C1027 1.387 . S
C1028 C1031 1.387 . S
H1029 C1025 0.950 . S
H1030 C1027 0.950 . S
C1031 C1022 1.390 1_556 S
C1031 H1024 0.950 . S
C1031 C1028 1.387 . S
C553 N94 1.657 . S
C558 N2 1.635 . S
C563 C30 1.807 . S
C568 C122 1.809 . S
C573 N140 1.656 . S
C578 N48 1.635 . S
C583 C168 1.811 . S
C588 C76 1.808 . S
C593 N324 1.728 . S
C598 C191 1.697 . S
C603 N347 1.633 . S
C608 N209 1.629 . S
C613 C237 1.697 . S
C618 N278 1.729 . S
C623 N301 1.632 . S
C628 N255 1.630 . S
C633 C375 1.653 . S
C638 C490 1.653 . S
C643 C398 1.971 . S
C648 C444 1.971 . S
C653 C421 1.926 . S
C658 C467 1.926 . S
C663 N508 1.554 . S
C668 N531 1.554 . S
C673 N71 1.489 . S
C678 N117 1.430 . S
C683 C7 1.655 . S
C688 C145 1.641 . S
C693 N163 1.429 . S
C698 N25 1.489 . S
C703 C53 1.655 . S
C708 C99 1.640 . S
C713 C536 1.502 . S
C718 N416 1.453 . S
C723 N439 1.436 . S
C728 N485 1.437 . S
C733 N462 1.453 . S
C738 C513 1.503 . S
C743 N393 1.436 . S
C748 N370 1.437 . S
C753 C260 1.503 . S
C758 C214 1.503 . S
C763 C352 1.788 . S
C768 C306 1.788 . S
C773 C283 1.768 . S
C778 C329 1.768 . S
C783 N232 1.235 . S
C788 N186 1.235 . S
C793 N518 1.844 . S
C798 N12 1.819 . S
C803 C384 1.728 . S
C808 C39 1.725 . S
C813 N541 1.845 . S
C818 N58 1.821 . S
C823 C499 1.726 . S
C828 C85 1.723 . S
C833 C430 1.702 . S
C838 N104 1.647 1_565 S
C843 C131 1.899 . S
C848 C453 1.895 . S
C853 C476 1.702 . S
C858 N150 1.669 . S
C863 C407 1.897 . S
C868 C177 1.900 . S
C873 N311 1.734 . S
C878 C200 1.803 . S
C883 N334 1.702 . S
C888 N219 1.724 . S
C893 N357 1.735 . S
C898 C246 1.803 . S
C903 N265 1.723 . S
C908 N288 1.699 . S
C913 N127 1.589 . S
C918 N242 1.603 . S
C923 C154 1.447 . S
C928 C269 1.444 . S
C933 N196 1.602 . S
C938 N173 1.590 . S
C943 C108 1.446 . S
C948 C223 1.444 . S
C953 C338 1.521 . S
C958 N81 1.532 . S
C963 C16 1.545 . S
C968 C361 1.545 . S
C973 C292 1.521 . S
C978 N35 1.532 . S
C983 C62 1.543 . S
C988 C315 1.542 . S
C993 N403 1.520 . S
C998 C545 1.491 . S
C1003 N495 1.549 . S
C1008 N426 1.532 . S
C1013 C522 1.488 . S
C1018 N449 1.520 . S
C1023 N380 1.548 . S
C1028 N472 1.534 . S
