# Generated by pormake.
# Topology wiv, (6)-cn, num edge types: 1
# Building blocks:
#     Node 0, Type 0, BuildingBlock: JUFBIX_clean_sbu_0, # of connection points: 6
#     Node 1, Type 0, BuildingBlock: JUFBIX_clean_sbu_0, # of connection points: 6
#     Node 2, Type 0, BuildingBlock: JUFBIX_clean_sbu_0, # of connection points: 6
#     Node 3, Type 0, BuildingBlock: JUFBIX_clean_sbu_0, # of connection points: 6
#     Node 4, Type 0, BuildingBlock: JUFBIX_clean_sbu_0, # of connection points: 6
#     Node 5, Type 0, BuildingBlock: JUFBIX_clean_sbu_0, # of connection points: 6
#     Node 6, Type 0, BuildingBlock: JUFBIX_clean_sbu_0, # of connection points: 6
#     Node 7, Type 0, BuildingBlock: JUFBIX_clean_sbu_0, # of connection points: 6
#     Node 8, Type 0, BuildingBlock: JUFBIX_clean_sbu_0, # of connection points: 6
#     Node 9, Type 0, BuildingBlock: JUFBIX_clean_sbu_0, # of connection points: 6
#     Node 10, Type 0, BuildingBlock: JUFBIX_clean_sbu_0, # of connection points: 6
#     Node 11, Type 0, BuildingBlock: JUFBIX_clean_sbu_0, # of connection points: 6
#     Node 12, Type 0, BuildingBlock: JUFBIX_clean_sbu_0, # of connection points: 6
#     Node 13, Type 0, BuildingBlock: JUFBIX_clean_sbu_0, # of connection points: 6
#     Node 14, Type 0, BuildingBlock: JUFBIX_clean_sbu_0, # of connection points: 6
#     Node 15, Type 0, BuildingBlock: JUFBIX_clean_sbu_0, # of connection points: 6
#     Edge 16, Type (0, 0), BuildingBlock: XUDNAN_clean_linker_2, # of connection points: 2
#     Edge 17, Type (0, 0), BuildingBlock: XUDNAN_clean_linker_2, # of connection points: 2
#     Edge 18, Type (0, 0), BuildingBlock: XUDNAN_clean_linker_2, # of connection points: 2
#     Edge 19, Type (0, 0), BuildingBlock: XUDNAN_clean_linker_2, # of connection points: 2
#     Edge 20, Type (0, 0), BuildingBlock: XUDNAN_clean_linker_2, # of connection points: 2
#     Edge 21, Type (0, 0), BuildingBlock: XUDNAN_clean_linker_2, # of connection points: 2
#     Edge 22, Type (0, 0), BuildingBlock: XUDNAN_clean_linker_2, # of connection points: 2
#     Edge 23, Type (0, 0), BuildingBlock: XUDNAN_clean_linker_2, # of connection points: 2
#     Edge 24, Type (0, 0), BuildingBlock: XUDNAN_clean_linker_2, # of connection points: 2
#     Edge 25, Type (0, 0), BuildingBlock: XUDNAN_clean_linker_2, # of connection points: 2
#     Edge 26, Type (0, 0), BuildingBlock: XUDNAN_clean_linker_2, # of connection points: 2
#     Edge 27, Type (0, 0), BuildingBlock: XUDNAN_clean_linker_2, # of connection points: 2
#     Edge 28, Type (0, 0), BuildingBlock: XUDNAN_clean_linker_2, # of connection points: 2
#     Edge 29, Type (0, 0), BuildingBlock: XUDNAN_clean_linker_2, # of connection points: 2
#     Edge 30, Type (0, 0), BuildingBlock: XUDNAN_clean_linker_2, # of connection points: 2
#     Edge 31, Type (0, 0), BuildingBlock: XUDNAN_clean_linker_2, # of connection points: 2
#     Edge 32, Type (0, 0), BuildingBlock: XUDNAN_clean_linker_2, # of connection points: 2
#     Edge 33, Type (0, 0), BuildingBlock: XUDNAN_clean_linker_2, # of connection points: 2
#     Edge 34, Type (0, 0), BuildingBlock: XUDNAN_clean_linker_2, # of connection points: 2
#     Edge 35, Type (0, 0), BuildingBlock: XUDNAN_clean_linker_2, # of connection points: 2
#     Edge 36, Type (0, 0), BuildingBlock: XUDNAN_clean_linker_2, # of connection points: 2
#     Edge 37, Type (0, 0), BuildingBlock: XUDNAN_clean_linker_2, # of connection points: 2
#     Edge 38, Type (0, 0), BuildingBlock: XUDNAN_clean_linker_2, # of connection points: 2
#     Edge 39, Type (0, 0), BuildingBlock: XUDNAN_clean_linker_2, # of connection points: 2
#     Edge 40, Type (0, 0), BuildingBlock: XUDNAN_clean_linker_2, # of connection points: 2
#     Edge 41, Type (0, 0), BuildingBlock: XUDNAN_clean_linker_2, # of connection points: 2
#     Edge 42, Type (0, 0), BuildingBlock: XUDNAN_clean_linker_2, # of connection points: 2
#     Edge 43, Type (0, 0), BuildingBlock: XUDNAN_clean_linker_2, # of connection points: 2
#     Edge 44, Type (0, 0), BuildingBlock: XUDNAN_clean_linker_2, # of connection points: 2
#     Edge 45, Type (0, 0), BuildingBlock: XUDNAN_clean_linker_2, # of connection points: 2
#     Edge 46, Type (0, 0), BuildingBlock: XUDNAN_clean_linker_2, # of connection points: 2
#     Edge 47, Type (0, 0), BuildingBlock: XUDNAN_clean_linker_2, # of connection points: 2
#     Edge 48, Type (0, 0), BuildingBlock: XUDNAN_clean_linker_2, # of connection points: 2
#     Edge 49, Type (0, 0), BuildingBlock: XUDNAN_clean_linker_2, # of connection points: 2
#     Edge 50, Type (0, 0), BuildingBlock: XUDNAN_clean_linker_2, # of connection points: 2
#     Edge 51, Type (0, 0), BuildingBlock: XUDNAN_clean_linker_2, # of connection points: 2
#     Edge 52, Type (0, 0), BuildingBlock: XUDNAN_clean_linker_2, # of connection points: 2
#     Edge 53, Type (0, 0), BuildingBlock: XUDNAN_clean_linker_2, # of connection points: 2
#     Edge 54, Type (0, 0), BuildingBlock: XUDNAN_clean_linker_2, # of connection points: 2
#     Edge 55, Type (0, 0), BuildingBlock: XUDNAN_clean_linker_2, # of connection points: 2
#     Edge 56, Type (0, 0), BuildingBlock: XUDNAN_clean_linker_2, # of connection points: 2
#     Edge 57, Type (0, 0), BuildingBlock: XUDNAN_clean_linker_2, # of connection points: 2
#     Edge 58, Type (0, 0), BuildingBlock: XUDNAN_clean_linker_2, # of connection points: 2
#     Edge 59, Type (0, 0), BuildingBlock: XUDNAN_clean_linker_2, # of connection points: 2
#     Edge 60, Type (0, 0), BuildingBlock: XUDNAN_clean_linker_2, # of connection points: 2
#     Edge 61, Type (0, 0), BuildingBlock: XUDNAN_clean_linker_2, # of connection points: 2
#     Edge 62, Type (0, 0), BuildingBlock: XUDNAN_clean_linker_2, # of connection points: 2
#     Edge 63, Type (0, 0), BuildingBlock: XUDNAN_clean_linker_2, # of connection points: 2
# Relax obj value: 0.226
# Max RMSD: 0.135
# Mean RMSD: 0.122
data_MOF--net-wiv--node1-JUFBIX_clean_sbu_0--edge1-XUDNAN_clean_linker_2
_symmetry_space_group_name_H-M    P1
_symmetry_Int_Tables_number       1
_symmetry_cell_setting            triclinic
loop_
_symmetry_equiv_pos_as_xyz
'x, y, z'
_cell_length_a     67.633857
_cell_length_b     61.314085
_cell_length_c     15.224952
_cell_angle_alpha  85.108354
_cell_angle_beta   89.92099
_cell_angle_gamma 89.935025
loop_
_atom_site_label
_atom_site_type_symbol
_atom_site_fract_x
_atom_site_fract_y
_atom_site_fract_z
_atom_type_partial_charge
Co0 Co 0.38183 0.14439 0.19677 0.0
C1 C 0.39572 0.09879 0.22405 0.0
Co2 Co 0.41484 0.14057 0.20199 0.0
C3 C 0.34043 0.14244 0.13092 0.0
C4 C 0.34219 0.15072 0.26436 0.0
N5 N 0.35365 0.14584 0.19601 0.0
N6 N 0.3214 0.14479 0.15693 0.0
C7 C 0.32257 0.1499 0.24097 0.0
H8 H 0.34457 0.13781 0.06641 0.0
H9 H 0.34759 0.15463 0.32788 0.0
C10 C 0.4003 0.18614 0.17635 0.0
N11 N 0.44331 0.14062 0.19779 0.0
C12 C 0.45825 0.13393 0.25435 0.0
C13 C 0.45283 0.15186 0.13028 0.0
N14 N 0.47644 0.14083 0.22418 0.0
C15 C 0.4728 0.15197 0.14588 0.0
C16 C 0.39856 0.14082 0.02925 0.0
O17 O 0.38327 0.17702 0.1823 0.0
O18 O 0.41541 0.17336 0.18242 0.0
O19 O 0.41396 0.13852 0.07718 0.0
O20 O 0.38204 0.14378 0.06722 0.0
O21 O 0.41303 0.10762 0.22298 0.0
H22 H 0.44563 0.16032 0.07382 0.0
H23 H 0.45577 0.12502 0.31787 0.0
O24 O 0.38082 0.11175 0.21135 0.0
O25 O 0.3829 0.14487 0.32842 0.0
O26 O 0.41525 0.1425 0.32459 0.0
C27 C 0.39948 0.14387 0.36953 0.0
H28 H 0.31005 0.15285 0.28276 0.0
H29 H 0.48385 0.15985 0.10257 0.0
Co30 Co 0.16024 0.62441 0.85912 0.0
C31 C 0.1985 0.64199 0.84646 0.0
Co32 Co 0.15995 0.66017 0.84681 0.0
C33 C 0.14934 0.58266 0.81029 0.0
C34 C 0.17205 0.57986 0.9084 0.0
N35 N 0.16023 0.59447 0.86276 0.0
N36 N 0.15405 0.56129 0.81973 0.0
C37 C 0.16833 0.55935 0.88162 0.0
H38 H 0.13895 0.58985 0.76207 0.0
H39 H 0.18316 0.58399 0.95523 0.0
C40 C 0.12163 0.64172 0.8544 0.0
N41 N 0.15998 0.69043 0.84441 0.0
C42 C 0.16772 0.70221 0.90696 0.0
C43 C 0.15112 0.70529 0.78702 0.0
N44 N 0.1638 0.72376 0.89205 0.0
C45 C 0.1535 0.72584 0.81605 0.0
C46 C 0.15974 0.64298 0.68194 0.0
O47 O 0.13186 0.62427 0.86459 0.0
O48 O 0.1308 0.65998 0.8448 0.0
O49 O 0.16028 0.66139 0.71554 0.0
O50 O 0.15923 0.62576 0.73434 0.0
O51 O 0.18918 0.66011 0.84691 0.0
H52 H 0.14283 0.70136 0.72974 0.0
H53 H 0.17579 0.69507 0.96366 0.0
O54 O 0.18851 0.62438 0.852 0.0
O55 O 0.16138 0.62274 0.98397 0.0
O56 O 0.15951 0.65831 0.97848 0.0
C57 C 0.16055 0.63995 0.02466 0.0
H58 H 0.17589 0.54434 0.90411 0.0
H59 H 0.14729 0.74096 0.78596 0.0
Co60 Co 0.64214 0.89416 0.03599 0.0
C61 C 0.62086 0.93262 0.03791 0.0
Co62 Co 0.60938 0.88969 0.0419 0.0
C63 C 0.68301 0.88973 0.97409 0.0
C64 C 0.67997 0.91424 0.06522 0.0
N65 N 0.66965 0.8988 0.02691 0.0
N66 N 0.70109 0.89919 0.97706 0.0
C67 C 0.69916 0.91462 0.03439 0.0
H68 H 0.67935 0.87709 0.93136 0.0
H69 H 0.67376 0.92507 0.11059 0.0
C70 C 0.63118 0.85109 0.04691 0.0
N71 N 0.58179 0.88516 0.05128 0.0
C72 C 0.56913 0.8914 0.11383 0.0
C73 C 0.5705 0.87342 0.99973 0.0
N74 N 0.55043 0.88395 0.10361 0.0
C75 C 0.55136 0.87269 0.03133 0.0
C76 C 0.62373 0.89332 0.86787 0.0
O77 O 0.64591 0.86397 0.0419 0.0
O78 O 0.61371 0.85889 0.04608 0.0
O79 O 0.60822 0.89122 0.91576 0.0
O80 O 0.64041 0.89513 0.90612 0.0
O81 O 0.60562 0.92046 0.04017 0.0
H82 H 0.57594 0.86536 0.944 0.0
H83 H 0.57365 0.90108 0.16647 0.0
O84 O 0.63793 0.92429 0.03191 0.0
O85 O 0.64309 0.89311 0.16799 0.0
O86 O 0.61104 0.88818 0.16596 0.0
C87 C 0.62674 0.89026 0.21028 0.0
H88 H 0.71078 0.92553 0.05223 0.0
H89 H 0.53925 0.86384 1.00461 0.0
Co90 Co 0.88826 0.3949 0.01646 0.0
C91 C 0.92092 0.38835 0.90727 0.0
Co92 Co 0.87991 0.38901 0.88311 0.0
C93 C 0.8849 0.38823 0.19421 0.0
C94 C 0.91347 0.40137 0.16351 0.0
N95 N 0.8951 0.39977 0.13059 0.0
N96 N 0.89652 0.37981 0.26035 0.0
C97 C 0.91443 0.38897 0.24325 0.0
H98 H 0.87028 0.38232 0.18211 0.0
H99 H 0.92612 0.40777 0.12618 0.0
C100 C 0.84677 0.39585 0.98581 0.0
N101 N 0.87295 0.3815 0.77358 0.0
C102 C 0.88049 0.36305 0.74528 0.0
C103 C 0.85555 0.38452 0.73107 0.0
N104 N 0.86801 0.35342 0.69228 0.0
C105 C 0.85248 0.36719 0.68065 0.0
C106 C 0.88249 0.34855 1.00226 0.0
O107 O 0.85987 0.39948 0.04302 0.0
O108 O 0.85261 0.3906 0.91171 0.0
O109 O 0.87958 0.35657 0.92324 0.0
O110 O 0.88614 0.36252 0.05715 0.0
O111 O 0.90722 0.38736 0.85108 0.0
H112 H 0.84482 0.397 0.74343 0.0
H113 H 0.89381 0.35538 0.77224 0.0
O114 O 0.91606 0.39072 0.98674 0.0
O115 O 0.89098 0.42644 0.97791 0.0
O116 O 0.88052 0.42167 0.84484 0.0
C117 C 0.88671 0.43489 0.90028 0.0
H118 H 0.92792 0.38491 0.27898 0.0
H119 H 0.83951 0.36458 0.64135 0.0
Co120 Co 0.3836 0.39608 0.06619 0.0
C121 C 0.40011 0.44085 0.04518 0.0
Co122 Co 0.41673 0.39796 0.06346 0.0
C123 C 0.34348 0.38675 0.1402 0.0
C124 C 0.34386 0.41123 0.03126 0.0
N125 N 0.35572 0.39699 0.07872 0.0
N126 N 0.32463 0.3944 0.13331 0.0
C127 C 0.32493 0.40979 0.0648 0.0
H128 H 0.34846 0.37468 0.19146 0.0
H129 H 0.3488 0.42254 0.97734 0.0
C130 C 0.40042 0.35327 0.08371 0.0
N131 N 0.44503 0.39609 0.04578 0.0
C132 C 0.46208 0.40291 0.08324 0.0
C133 C 0.45173 0.38434 0.98039 0.0
N134 N 0.47863 0.39639 0.04089 0.0
C135 C 0.47193 0.38472 0.97673 0.0
C136 C 0.40327 0.39754 0.23473 0.0
O137 O 0.38364 0.36309 0.08201 0.0
O138 O 0.41585 0.36543 0.07531 0.0
O139 O 0.41905 0.3978 0.18818 0.0
O140 O 0.38653 0.39705 0.19546 0.0
O141 O 0.41674 0.43064 0.05239 0.0
H142 H 0.4425 0.37524 0.9386 0.0
H143 H 0.46239 0.41211 0.14083 0.0
O144 O 0.38431 0.42916 0.04972 0.0
O145 O 0.38148 0.39518 0.93546 0.0
O146 O 0.41354 0.39847 0.93945 0.0
C147 C 0.39796 0.39699 0.89405 0.0
H148 H 0.31233 0.41949 0.04115 0.0
H149 H 0.48113 0.37617 0.93252 0.0
Co150 Co 0.38694 0.64087 0.77443 0.0
C151 C 0.42118 0.64997 0.87062 0.0
Co152 Co 0.38053 0.65404 0.89933 0.0
C153 C 0.3818 0.64317 0.59687 0.0
C154 C 0.4095 0.62771 0.62708 0.0
N155 N 0.392 0.63261 0.66291 0.0
N156 N 0.39284 0.64778 0.52422 0.0
C157 C 0.41008 0.63711 0.54153 0.0
H158 H 0.36827 0.65171 0.60918 0.0
H159 H 0.42214 0.62119 0.66407 0.0
C160 C 0.3458 0.64473 0.81023 0.0
N161 N 0.37499 0.66476 1.00471 0.0
C162 C 0.38243 0.68396 0.02627 0.0
C163 C 0.35895 0.66111 0.05639 0.0
N164 N 0.37119 0.69308 0.08588 0.0
C165 C 0.35662 0.67852 0.10682 0.0
C166 C 0.38392 0.68914 0.76304 0.0
O167 O 0.35816 0.63864 0.75391 0.0
O168 O 0.35263 0.65206 0.87908 0.0
O169 O 0.38006 0.68544 0.84477 0.0
O170 O 0.38727 0.67218 0.72231 0.0
O171 O 0.40817 0.65627 0.92298 0.0
H172 H 0.34881 0.64758 0.05289 0.0
H173 H 0.39514 0.6919 0.99426 0.0
O174 O 0.41534 0.64271 0.79896 0.0
O175 O 0.38705 0.61036 0.8227 0.0
O176 O 0.38138 0.62199 0.95245 0.0
C177 C 0.38458 0.60573 0.90522 0.0
H178 H 0.42318 0.63846 0.50062 0.0
H179 H 0.34512 0.68032 0.15524 0.0
Co180 Co 0.64362 0.65044 0.23492 0.0
C181 C 0.62355 0.61151 0.24281 0.0
Co182 Co 0.61061 0.6545 0.22905 0.0
C183 C 0.683 0.64024 0.3139 0.0
C184 C 0.68483 0.65739 0.18611 0.0
N185 N 0.67166 0.64811 0.24449 0.0
N186 N 0.7026 0.64451 0.30153 0.0
C187 C 0.70366 0.6552 0.22054 0.0
H188 H 0.67686 0.63238 0.37412 0.0
H189 H 0.68095 0.66605 0.12363 0.0
C190 C 0.63115 0.69352 0.21638 0.0
N191 N 0.58277 0.6577 0.21846 0.0
C192 C 0.57043 0.65062 0.15632 0.0
C193 C 0.57106 0.6697 0.26729 0.0
N194 N 0.55149 0.65784 0.16399 0.0
C195 C 0.55205 0.66981 0.23449 0.0
C196 C 0.62612 0.65254 0.40283 0.0
O197 O 0.64598 0.68082 0.22464 0.0
O198 O 0.61377 0.68551 0.21806 0.0
O199 O 0.60964 0.65446 0.36102 0.0
O200 O 0.64183 0.65056 0.35828 0.0
O201 O 0.6082 0.62359 0.23825 0.0
H202 H 0.57615 0.67846 0.32169 0.0
H203 H 0.57545 0.64066 0.10541 0.0
O204 O 0.64071 0.62 0.24363 0.0
O205 O 0.64478 0.65041 0.10916 0.0
O206 O 0.6126 0.65442 0.0997 0.0
C207 C 0.62926 0.65234 0.06149 0.0
H208 H 0.71707 0.66134 0.18844 0.0
H209 H 0.53979 0.67873 0.25978 0.0
Co210 Co 0.65984 0.41183 0.96255 0.0
C211 C 0.6997 0.39775 0.9679 0.0
Co212 Co 0.66312 0.37615 0.97437 0.0
C213 C 0.64605 0.45311 1.01125 0.0
C214 C 0.66814 0.45674 0.91017 0.0
N215 N 0.65773 0.44164 0.96022 0.0
N216 N 0.64885 0.47486 0.99579 0.0
C217 C 0.66274 0.47719 0.93196 0.0
H218 H 0.63584 0.44554 0.05937 0.0
H219 H 0.67926 0.45306 0.86248 0.0
C220 C 0.62325 0.39067 0.97746 0.0
N221 N 0.66555 0.34593 0.97061 0.0
C222 C 0.67623 0.33725 0.90712 0.0
C223 C 0.65361 0.32957 1.00275 0.0
N224 N 0.67076 0.3166 0.89395 0.0
C225 C 0.65679 0.31153 0.95579 0.0
C226 C 0.6618 0.39271 0.13954 0.0
O227 O 0.63132 0.40937 0.96356 0.0
O228 O 0.63436 0.37375 0.98271 0.0
O229 O 0.66425 0.37441 0.10579 0.0
O230 O 0.65976 0.40986 0.08726 0.0
O231 O 0.69183 0.37888 0.96917 0.0
H232 H 0.64183 0.33138 0.04973 0.0
H233 H 0.68641 0.34686 0.86496 0.0
O234 O 0.68836 0.41439 0.96425 0.0
O235 O 0.65975 0.41409 0.83726 0.0
O236 O 0.66162 0.3786 0.84265 0.0
C237 C 0.66038 0.39692 0.79651 0.0
H238 H 0.66913 0.4925 0.90504 0.0
H239 H 0.64788 0.29682 0.96028 0.0
Co240 Co 0.88297 0.64181 0.70961 0.0
C241 C 0.90179 0.59949 0.73858 0.0
Co242 Co 0.91609 0.64457 0.71236 0.0
C243 C 0.84108 0.6413 0.64405 0.0
C244 C 0.84411 0.63207 0.78194 0.0
N245 N 0.85474 0.6393 0.71034 0.0
N246 N 0.82257 0.63535 0.67203 0.0
C247 C 0.82464 0.62981 0.75912 0.0
H248 H 0.84474 0.646 0.57591 0.0
H249 H 0.85014 0.62765 0.8466 0.0
C250 C 0.89651 0.68687 0.68718 0.0
N251 N 0.94434 0.64749 0.70801 0.0
C252 C 0.95973 0.63995 0.76015 0.0
C253 C 0.95311 0.66074 0.64421 0.0
N254 N 0.97757 0.64821 0.73109 0.0
C255 C 0.97318 0.66119 0.65786 0.0
C256 C 0.89889 0.64114 0.54098 0.0
O257 O 0.88127 0.67429 0.69149 0.0
O258 O 0.91348 0.67749 0.69445 0.0
O259 O 0.91536 0.64285 0.58137 0.0
O260 O 0.88311 0.64016 0.5866 0.0
O261 O 0.91747 0.61156 0.73229 0.0
H262 H 0.94533 0.66986 0.59096 0.0
H263 H 0.95782 0.62902 0.81923 0.0
O264 O 0.88511 0.60932 0.72869 0.0
O265 O 0.88364 0.64359 0.83466 0.0
O266 O 0.91596 0.64613 0.84138 0.0
C267 C 0.89923 0.64512 0.88095 0.0
H268 H 0.81293 0.62395 0.80355 0.0
H269 H 0.98375 0.67031 0.61591 0.0
Co270 Co 0.65985 0.12569 0.36681 0.0
C271 C 0.69653 0.14616 0.35649 0.0
Co272 Co 0.65635 0.16132 0.35468 0.0
C273 C 0.64875 0.08422 0.31797 0.0
C274 C 0.67334 0.08098 0.40631 0.0
N275 N 0.66074 0.09576 0.36703 0.0
N276 N 0.65338 0.0628 0.32343 0.0
C277 C 0.66884 0.06062 0.37956 0.0
H278 H 0.63701 0.09166 0.27764 0.0
H279 H 0.68533 0.08484 0.44928 0.0
C280 C 0.61969 0.14093 0.36061 0.0
N281 N 0.65544 0.19162 0.35557 0.0
C282 C 0.66346 0.20299 0.41887 0.0
C283 C 0.64641 0.20684 0.30033 0.0
N284 N 0.65961 0.22461 0.40649 0.0
C285 C 0.64901 0.22719 0.33138 0.0
C286 C 0.65799 0.14465 0.18964 0.0
O287 O 0.63104 0.12429 0.37064 0.0
O288 O 0.62763 0.15983 0.35208 0.0
O289 O 0.65675 0.16308 0.22307 0.0
O290 O 0.65921 0.12752 0.24223 0.0
O291 O 0.68509 0.16276 0.35531 0.0
H292 H 0.63808 0.20332 0.24261 0.0
H293 H 0.67191 0.19554 0.47378 0.0
O294 O 0.68864 0.12724 0.36202 0.0
O295 O 0.66058 0.12347 0.49164 0.0
O296 O 0.65577 0.15872 0.48664 0.0
C297 C 0.65816 0.14047 0.53257 0.0
H298 H 0.67684 0.04562 0.39764 0.0
H299 H 0.64294 0.24252 0.3028 0.0
Co300 Co 0.14153 0.38935 0.53053 0.0
C301 C 0.1274 0.43245 0.52068 0.0
Co302 Co 0.10857 0.3932 0.5325 0.0
C303 C 0.18198 0.38054 0.46386 0.0
C304 C 0.18147 0.4001 0.57371 0.0
N305 N 0.16956 0.38847 0.52409 0.0
N306 N 0.20097 0.38713 0.47371 0.0
C307 C 0.20059 0.39939 0.54288 0.0
H308 H 0.17704 0.37125 0.41067 0.0
H309 H 0.1764 0.40955 0.62621 0.0
C310 C 0.12218 0.35015 0.54626 0.0
N311 N 0.08061 0.39505 0.54068 0.0
C312 C 0.0687 0.38827 0.60971 0.0
C313 C 0.06823 0.40532 0.48135 0.0
N314 N 0.04948 0.39407 0.59616 0.0
C315 C 0.04924 0.4047 0.51485 0.0
C316 C 0.12324 0.39161 0.36089 0.0
O317 O 0.13955 0.35827 0.54054 0.0
O318 O 0.10719 0.36273 0.54339 0.0
O319 O 0.10763 0.39315 0.40719 0.0
O320 O 0.13991 0.38984 0.4006 0.0
O321 O 0.11037 0.42376 0.52228 0.0
H322 H 0.0728 0.41345 0.41878 0.0
H323 H 0.07409 0.37945 0.66945 0.0
O324 O 0.1427 0.42035 0.52206 0.0
O325 O 0.14221 0.38899 0.66233 0.0
O326 O 0.11012 0.39328 0.65628 0.0
C327 C 0.12575 0.39128 0.70245 0.0
H328 H 0.21321 0.40773 0.5681 0.0
H329 H 0.03641 0.41235 0.48293 0.0
Co330 Co 0.38724 0.89557 0.50139 0.0
C331 C 0.41981 0.88872 0.39404 0.0
Co332 Co 0.3787 0.88629 0.37213 0.0
C333 C 0.38512 0.92274 0.6355 0.0
C334 C 0.41014 0.90178 0.65956 0.0
N335 N 0.39404 0.90496 0.60796 0.0
N336 N 0.39491 0.9312 0.70101 0.0
C337 C 0.41061 0.91789 0.71783 0.0
H338 H 0.37222 0.93028 0.60382 0.0
H339 H 0.42128 0.88939 0.65228 0.0
C340 C 0.34574 0.89329 0.47643 0.0
N341 N 0.3713 0.87954 0.2595 0.0
C342 C 0.37766 0.89385 0.19393 0.0
C343 C 0.35254 0.87497 0.23681 0.0
N344 N 0.36276 0.90178 0.14202 0.0
C345 C 0.34708 0.88909 0.16577 0.0
C346 C 0.38333 0.84853 0.49729 0.0
O347 O 0.35887 0.89874 0.53036 0.0
O348 O 0.35153 0.88675 0.4044 0.0
O349 O 0.38022 0.85483 0.41569 0.0
O350 O 0.3863 0.86366 0.54947 0.0
O351 O 0.4062 0.88567 0.33892 0.0
H352 H 0.34227 0.86539 0.27876 0.0
H353 H 0.39199 0.90154 0.19595 0.0
O354 O 0.41483 0.89255 0.47193 0.0
O355 O 0.38877 0.92714 0.45478 0.0
O356 O 0.37705 0.91874 0.33073 0.0
C357 C 0.38306 0.93369 0.37773 0.0
H358 H 0.42155 0.9196 0.7686 0.0
H359 H 0.33209 0.89185 0.14266 0.0
Co360 Co 0.88404 0.89922 0.58699 0.0
C361 C 0.90233 0.94192 0.56392 0.0
Co362 Co 0.91702 0.89697 0.58669 0.0
C363 C 0.84325 0.89206 0.64985 0.0
C364 C 0.84519 0.91565 0.53818 0.0
N365 N 0.85623 0.90139 0.58969 0.0
N366 N 0.82472 0.90026 0.6386 0.0
C367 C 0.82594 0.91509 0.5683 0.0
H368 H 0.84752 0.88034 0.70374 0.0
H369 H 0.85093 0.92647 0.48432 0.0
C370 C 0.89761 0.85436 0.60778 0.0
N371 N 0.94527 0.89397 0.58921 0.0
C372 C 0.96059 0.90126 0.53604 0.0
C373 C 0.95408 0.88064 0.6526 0.0
N374 N 0.97843 0.89277 0.56419 0.0
C375 C 0.97409 0.87992 0.63785 0.0
C376 C 0.90003 0.89943 0.75719 0.0
O377 O 0.88241 0.86692 0.60416 0.0
O378 O 0.91456 0.86378 0.60078 0.0
O379 O 0.91658 0.89771 0.71754 0.0
O380 O 0.88442 0.90067 0.71071 0.0
O381 O 0.91829 0.9303 0.5725 0.0
H382 H 0.94636 0.87157 0.7062 0.0
H383 H 0.95864 0.9121 0.47679 0.0
O384 O 0.88591 0.93157 0.5685 0.0
O385 O 0.88403 0.89778 0.46287 0.0
O386 O 0.91648 0.89641 0.45645 0.0
C387 C 0.89974 0.89698 0.4167 0.0
H388 H 0.81382 0.92509 0.54144 0.0
H389 H 0.98467 0.87066 0.67927 0.0
Co390 Co 0.88401 0.14024 0.27534 0.0
C391 C 0.9195 0.14929 0.36714 0.0
Co392 Co 0.87997 0.15432 0.40075 0.0
C393 C 0.87691 0.11027 0.15373 0.0
C394 C 0.90065 0.1308 0.10425 0.0
N395 N 0.88795 0.12755 0.17216 0.0
N396 N 0.88166 0.10264 0.07662 0.0
C397 C 0.89667 0.11556 0.04466 0.0
H398 H 0.86498 0.10372 0.19543 0.0
H399 H 0.91159 0.14369 0.09738 0.0
C400 C 0.84382 0.14521 0.31653 0.0
N401 N 0.87433 0.16567 0.50749 0.0
C402 C 0.87559 0.15219 0.58123 0.0
C403 C 0.85773 0.17744 0.51811 0.0
N404 N 0.85868 0.1517 0.62836 0.0
C405 C 0.84779 0.16846 0.59138 0.0
C406 C 0.88213 0.18791 0.25563 0.0
O407 O 0.85495 0.13916 0.25569 0.0
O408 O 0.85206 0.15187 0.38354 0.0
O409 O 0.87958 0.18492 0.33938 0.0
O410 O 0.88452 0.17059 0.21472 0.0
O411 O 0.90725 0.15672 0.42041 0.0
H412 H 0.85102 0.18819 0.46645 0.0
H413 H 0.88742 0.14043 0.59172 0.0
O414 O 0.91283 0.14155 0.29732 0.0
O415 O 0.88385 0.11016 0.3323 0.0
O416 O 0.88119 0.1227 0.4598 0.0
C417 C 0.8831 0.10603 0.41493 0.0
H418 H 0.90332 0.11509 0.98013 0.0
H419 H 0.83254 0.17181 0.60706 0.0
Co420 Co 0.14107 0.15339 0.73303 0.0
C421 C 0.12831 0.11026 0.74818 0.0
Co422 Co 0.10815 0.14917 0.73106 0.0
C423 C 0.18075 0.14742 0.80832 0.0
C424 C 0.18116 0.16871 0.68988 0.0
N425 N 0.16888 0.15627 0.74274 0.0
N426 N 0.19994 0.15394 0.79939 0.0
C427 C 0.20008 0.16732 0.72408 0.0
H428 H 0.17514 0.13667 0.86254 0.0
H429 H 0.17657 0.17857 0.63111 0.0
C430 C 0.12053 0.19229 0.71228 0.0
N431 N 0.08026 0.14613 0.72156 0.0
C432 C 0.06859 0.14988 0.64901 0.0
C433 C 0.06758 0.13887 0.78594 0.0
N434 N 0.04925 0.14527 0.66569 0.0
C435 C 0.04866 0.13842 0.75218 0.0
C436 C 0.12342 0.15201 0.90264 0.0
O437 O 0.13791 0.18429 0.71931 0.0
O438 O 0.10563 0.17961 0.71716 0.0
O439 O 0.10695 0.14982 0.86261 0.0
O440 O 0.13908 0.15382 0.85638 0.0
O441 O 0.11113 0.11869 0.74432 0.0
H442 H 0.07178 0.13381 0.85309 0.0
H443 H 0.07412 0.15598 0.58489 0.0
O444 O 0.14349 0.12258 0.74525 0.0
O445 O 0.14268 0.15295 0.60786 0.0
O446 O 0.11055 0.14864 0.60161 0.0
C447 C 0.12718 0.15074 0.56175 0.0
H448 H 0.2128 0.17594 0.69566 0.0
H449 H 0.03556 0.13283 0.78829 0.0
Co450 Co 0.1607 0.91496 0.43313 0.0
C451 C 0.19899 0.89779 0.44724 0.0
Co452 Co 0.1607 0.87913 0.44549 0.0
C453 C 0.14995 0.95658 0.48576 0.0
C454 C 0.17208 0.95945 0.38479 0.0
N455 N 0.16049 0.94483 0.43157 0.0
N456 N 0.15476 0.97792 0.47639 0.0
C457 C 0.16863 0.97989 0.41256 0.0
H458 H 0.13973 0.94938 0.53472 0.0
H459 H 0.18289 0.95536 0.33637 0.0
C460 C 0.12226 0.89737 0.4367 0.0
N461 N 0.1614 0.84888 0.44245 0.0
C462 C 0.17268 0.83935 0.38337 0.0
C463 C 0.14842 0.83328 0.47201 0.0
N464 N 0.16673 0.81887 0.37051 0.0
C465 C 0.15167 0.81478 0.4278 0.0
C466 C 0.15965 0.89556 0.61054 0.0
O467 O 0.13241 0.91487 0.42758 0.0
O468 O 0.1315 0.87911 0.44587 0.0
O469 O 0.16053 0.87714 0.57679 0.0
O470 O 0.15948 0.91285 0.55825 0.0
O471 O 0.18981 0.87964 0.44726 0.0
H472 H 0.1361 0.83591 0.51525 0.0
H473 H 0.18378 0.84821 0.34354 0.0
O474 O 0.18893 0.91534 0.44046 0.0
O475 O 0.1618 0.91729 0.30797 0.0
O476 O 0.16061 0.88173 0.31351 0.0
C477 C 0.16114 0.9001 0.26728 0.0
H478 H 0.1761 0.99489 0.38924 0.0
H479 H 0.14225 0.80048 0.43041 0.0
H480 H 0.40798 0.96891 0.41962 0.0
H481 H 0.35707 0.95521 0.26103 0.0
H482 H 0.35541 0.99427 0.20567 0.0
H483 H 0.39224 0.02298 0.47718 0.0
H484 H 0.41654 0.03503 0.46861 0.0
H485 H 0.41385 1.00603 0.49693 0.0
H486 H 0.43636 0.99812 0.36627 0.0
H487 H 0.43911 0.0271 0.33747 0.0
H488 H 0.43021 1.00961 0.25676 0.0
H489 H 0.35809 0.03626 0.17129 0.0
H490 H 0.366 0.07564 0.15352 0.0
H491 H 0.41679 0.06418 0.32468 0.0
C492 C 0.39645 0.97409 0.37318 0.0
C493 C 0.38267 0.95826 0.34474 0.0
C494 C 0.36799 0.96634 0.28366 0.0
C495 C 0.36687 0.98878 0.25195 0.0
C496 C 0.38062 1.00377 0.28057 0.0
C497 C 0.3953 0.9967 0.33938 0.0
C498 C 0.40847 1.01635 0.35771 0.0
C499 C 0.40774 1.02033 0.45596 0.0
C500 C 0.42981 1.01257 0.32779 0.0
C501 C 0.39888 0.03555 0.30089 0.0
C502 C 0.38268 0.02778 0.25775 0.0
C503 C 0.37089 0.04225 0.20437 0.0
C504 C 0.37555 0.06489 0.19461 0.0
C505 C 0.39222 0.07373 0.23611 0.0
C506 C 0.40411 0.05842 0.29009 0.0
H507 H 1.00992 0.67531 0.71089 0.0
H508 H 0.99095 0.61219 0.83209 0.0
H509 H 0.02532 0.60447 0.88202 0.0
H510 H 0.05633 0.65791 0.63051 0.0
H511 H 0.06934 0.68253 0.65197 0.0
H512 H 0.04319 0.68351 0.62996 0.0
H513 H 0.0371 0.70065 0.7772 0.0
H514 H 0.06326 0.69974 0.79967 0.0
H515 H 0.04613 0.68682 0.87855 0.0
H516 H 0.06267 0.60262 0.90948 0.0
H517 H 0.0988 0.60726 0.91876 0.0
H518 H 0.09382 0.67211 0.78264 0.0
C519 C 1.01287 0.65982 0.74797 0.0
C520 C 0.99744 0.64429 0.76689 0.0
C521 C 1.00223 0.62445 0.81705 0.0
C522 C 0.02183 0.61989 0.84534 0.0
C523 C 0.03664 0.63539 0.82403 0.0
C524 C 0.03233 0.65507 0.77713 0.0
C525 C 0.05097 0.66889 0.76181 0.0
C526 C 0.0552 0.67348 0.66268 0.0
C527 C 0.04926 0.6903 0.80701 0.0
C528 C 0.06658 0.65383 0.80631 0.0
C529 C 0.05797 0.63457 0.84164 0.0
C530 C 0.06943 0.61775 0.88276 0.0
C531 C 0.09006 0.62056 0.88762 0.0
C532 C 0.09939 0.64014 0.85232 0.0
C533 C 0.08728 0.65707 0.81168 0.0
H534 H 0.63617 0.94285 0.18922 0.0
H535 H 0.60378 0.97043 0.96085 0.0
H536 H 0.60642 1.00741 0.01629 0.0
H537 H 0.61553 0.97882 0.34919 0.0
H538 H 0.63879 0.97983 0.4064 0.0
H539 H 0.63223 0.95581 0.35256 0.0
H540 H 0.66489 0.95904 0.26369 0.0
H541 H 0.67149 0.98321 0.31598 0.0
H542 H 0.67039 0.9841 0.19744 0.0
H543 H 0.61657 0.04126 0.08841 0.0
H544 H 0.63117 0.06935 0.17352 0.0
H545 H 0.6556 1.01859 0.35902 0.0
C546 C 0.62932 0.95669 0.15185 0.0
C547 C 0.61981 0.95418 0.07118 0.0
C548 C 0.61101 0.97232 0.02316 0.0
C549 C 0.61247 0.99322 0.05418 0.0
C550 C 0.62247 0.99525 0.13347 0.0
C551 C 0.63047 0.97736 0.18217 0.0
C552 C 0.64138 0.98378 0.26252 0.0
C553 C 0.63138 0.97399 0.34769 0.0
C554 C 0.66333 0.97714 0.25964 0.0
C555 C 0.63886 1.0083 0.25034 0.0
C556 C 0.62785 1.0146 0.17592 0.0
C557 C 0.62479 0.03651 0.14794 0.0
C558 C 0.63315 0.05238 0.19736 0.0
C559 C 0.64441 0.04631 0.27438 0.0
C560 C 0.64711 0.0239 0.30096 0.0
H561 H 0.9355 0.39 0.73782 0.0
H562 H 0.9545 0.38549 1.0108 0.0
H563 H 0.98945 0.38521 0.96161 0.0
H564 H 0.9732 0.35545 0.65508 0.0
H565 H 0.97599 0.37199 0.55208 0.0
H566 H 0.95263 0.37126 0.6091 0.0
H567 H 0.95291 0.41332 0.60938 0.0
H568 H 0.97625 0.41439 0.55215 0.0
H569 H 0.97381 0.42659 0.65523 0.0
H570 H 0.02287 0.38584 0.88016 0.0
H571 H 0.05101 0.38873 0.77617 0.0
H572 H 1.00997 0.39338 0.55658 0.0
C573 C 0.94697 0.38879 0.78756 0.0
C574 C 0.94211 0.38761 0.87858 0.0
C575 C 0.95772 0.38632 0.9409 0.0
C576 C 0.97766 0.38614 0.91343 0.0
C577 C 0.98189 0.38741 0.8232 0.0
C578 C 0.96692 0.38881 0.76129 0.0
C579 C 0.97531 0.39072 0.6683 0.0
C580 C 0.96892 0.37118 0.61819 0.0
C581 C 0.96921 0.41256 0.61835 0.0
C582 C 0.99736 0.39013 0.68714 0.0
C583 C 1.0009 0.38811 0.77686 0.0
C584 C 0.02017 0.38736 0.80985 0.0
C585 C 0.03615 0.38888 0.74997 0.0
C586 C 0.03293 0.39128 0.65749 0.0
C587 C 1.01313 0.39176 0.62646 0.0
H588 H 0.38505 0.47101 0.90897 0.0
H589 H 0.41288 0.46876 0.1654 0.0
H590 H 0.4107 0.50921 0.16149 0.0
H591 H 0.41112 0.52061 0.81941 0.0
H592 H 0.3905 0.53122 0.7541 0.0
H593 H 0.39327 0.50211 0.77891 0.0
H594 H 0.35813 0.50014 0.84583 0.0
H595 H 0.35531 0.52927 0.82163 0.0
H596 H 0.35192 0.51717 0.93272 0.0
H597 H 0.40375 0.55157 0.13172 0.0
H598 H 0.39727 0.58984 0.07218 0.0
H599 H 0.37732 0.56621 0.82727 0.0
C600 C 0.39067 0.479 0.96449 0.0
C601 C 0.39904 0.4661 0.03839 0.0
C602 C 0.40639 0.47775 0.10822 0.0
C603 C 0.40512 0.50096 0.10657 0.0
C604 C 0.39681 0.51312 0.03342 0.0
C605 C 0.39005 0.50248 0.96268 0.0
C606 C 0.38282 0.51957 0.88981 0.0
C607 C 0.39516 0.5183 0.80555 0.0
C608 C 0.36073 0.51634 0.87139 0.0
C609 C 0.38637 0.54138 0.9304 0.0
C610 C 0.39412 0.53725 0.01413 0.0
C611 C 0.39787 0.55474 0.06578 0.0
C612 C 0.394 0.57667 0.03136 0.0
C613 C 0.38674 0.58172 0.94441 0.0
C614 C 0.38292 0.56342 0.89384 0.0
H615 H 0.51249 0.66889 0.19116 0.0
H616 H 0.55101 0.63955 1.00502 0.0
H617 H 0.52235 0.63475 0.90887 0.0
H618 H 0.47031 0.63515 0.16725 0.0
H619 H 0.45268 0.65699 0.17397 0.0
H620 H 0.47617 0.65814 0.22882 0.0
H621 H 0.48285 0.69578 0.14675 0.0
H622 H 0.45986 0.69507 0.0873 0.0
H623 H 0.48278 0.69877 0.0279 0.0
H624 H 0.48848 0.63316 0.83079 0.0
H625 H 0.45345 0.63453 0.78262 0.0
H626 H 0.43765 0.66555 0.0186 0.0
C627 C 0.51518 0.66152 0.13032 0.0
C628 C 0.53447 0.65463 0.10713 0.0
C629 C 0.53667 0.6449 0.02613 0.0
C630 C 0.52036 0.64215 0.97032 0.0
C631 C 0.50171 0.64924 0.99536 0.0
C632 C 0.4991 0.65874 0.07363 0.0
C633 C 0.47761 0.66524 0.08536 0.0
C634 C 0.46868 0.65316 0.1688 0.0
C635 C 0.47567 0.69019 0.08701 0.0
C636 C 0.46841 0.65755 1.00242 0.0
C637 C 0.48253 0.64849 0.9508 0.0
C638 C 0.47738 0.64026 0.87099 0.0
C639 C 0.4574 0.64115 0.84391 0.0
C640 C 0.44262 0.65016 0.89633 0.0
C641 C 0.44844 0.65856 0.97646 0.0
H642 H 0.63172 0.5976 0.0866 0.0
H643 H 0.61245 0.57524 0.3502 0.0
H644 H 0.61334 0.5367 0.31005 0.0
H645 H 0.60495 0.55624 0.96899 0.0
H646 H 0.62489 0.5543 0.89139 0.0
H647 H 0.62027 0.57975 0.93899 0.0
H648 H 0.65653 0.5802 0.99361 0.0
H649 H 0.66127 0.55476 0.94692 0.0
H650 H 0.66593 0.5571 0.06226 0.0
H651 H 0.62054 0.50087 0.24449 0.0
H652 H 0.63266 0.47091 0.1607 0.0
H653 H 0.64569 0.51775 0.93806 0.0
C654 C 0.62731 0.58453 0.1351 0.0
C655 C 0.62198 0.58895 0.22097 0.0
C656 C 0.61645 0.57181 0.28386 0.0
C657 C 0.61688 0.55004 0.26147 0.0
C658 C 0.62261 0.54611 0.17597 0.0
C659 C 0.62751 0.56297 0.11364 0.0
C660 C 0.6345 0.55463 0.02853 0.0
C661 C 0.6203 0.56164 0.9525 0.0
C662 C 0.65582 0.56211 1.00664 0.0
C663 C 0.63346 0.53032 0.05333 0.0
C664 C 0.62642 0.52565 0.13816 0.0
C665 C 0.62567 0.50431 0.17739 0.0
C666 C 0.63255 0.48737 0.12899 0.0
C667 C 0.64013 0.49192 0.04239 0.0
C668 C 0.64013 0.51367 1.00404 0.0
H669 H 0.50684 0.42126 0.9536 0.0
H670 H 0.49765 0.37164 0.16873 0.0
H671 H 0.53381 0.36483 0.17666 0.0
H672 H 0.54414 0.39518 0.84574 0.0
H673 H 0.55889 0.41909 0.8148 0.0
H674 H 0.53267 0.42181 0.83153 0.0
H675 H 0.53876 0.44959 0.9473 0.0
H676 H 0.56502 0.44736 0.92946 0.0
H677 H 0.55498 0.44232 0.03905 0.0
H678 H 0.57055 0.35957 0.1446 0.0
H679 H 0.60547 0.36098 0.09588 0.0
H680 H 0.59194 0.4165 0.91002 0.0
C681 C 0.51261 0.40972 1.00505 0.0
C682 C 0.49944 0.39747 0.06278 0.0
C683 C 0.50747 0.38175 0.12637 0.0
C684 C 0.52799 0.37758 0.13026 0.0
C685 C 0.54051 0.38947 0.07069 0.0
C686 C 0.53318 0.40572 1.01099 0.0
C687 C 0.5498 0.41591 0.95344 0.0
C688 C 0.54615 0.41281 0.85559 0.0
C689 C 0.55229 0.44024 0.96821 0.0
C690 C 0.56755 0.40254 0.98851 0.0
C691 C 0.56178 0.38715 0.05528 0.0
C692 C 0.57523 0.37187 0.09364 0.0
C693 C 0.59506 0.37266 0.06485 0.0
C694 C 0.60161 0.38886 0.99924 0.0
C695 C 0.58752 0.404 0.96075 0.0
H696 H 0.86418 0.47025 0.81071 0.0
H697 H 0.9209 0.45581 0.93448 0.0
H698 H 0.93083 0.4944 0.90307 0.0
H699 H 0.88149 0.51203 0.63859 0.0
H700 H 0.8605 0.52987 0.64694 0.0
H701 H 0.85787 0.5008 0.67382 0.0
H702 H 0.84441 0.50785 0.82763 0.0
H703 H 0.84699 0.53693 0.80114 0.0
H704 H 0.85878 0.52393 0.89802 0.0
H705 H 0.9355 0.53556 0.85532 0.0
H706 H 0.93322 0.57506 0.80855 0.0
H707 H 0.87275 0.56601 0.72494 0.0
C708 C 0.87879 0.47512 0.83033 0.0
C709 C 0.89182 0.45921 0.87463 0.0
C710 C 0.91055 0.46705 0.90036 0.0
C711 C 0.9164 0.4892 0.88251 0.0
C712 C 0.90336 0.50435 0.83965 0.0
C713 C 0.88479 0.49772 0.81476 0.0
C714 C 0.87337 0.5179 0.77386 0.0
C715 C 0.86798 0.51497 0.67757 0.0
C716 C 0.85478 0.52189 0.8284 0.0
C717 C 0.88838 0.5367 0.77915 0.0
C718 C 0.90569 0.52831 0.81647 0.0
C719 C 0.9219 0.54214 0.82661 0.0
C720 C 0.92048 0.56483 0.79924 0.0
C721 C 0.90287 0.57442 0.76246 0.0
C722 C 0.88655 0.55973 0.7527 0.0
H723 H 0.59103 0.16965 0.28726 0.0
H724 H 0.59814 0.10494 0.42213 0.0
H725 H 0.56216 0.09866 0.41093 0.0
H726 H 0.54273 0.18225 0.37972 0.0
H727 H 0.53372 0.19577 0.27779 0.0
H728 H 0.5598 0.19579 0.30205 0.0
H729 H 0.56715 0.17889 0.15533 0.0
H730 H 0.54113 0.17884 0.13062 0.0
H731 H 0.55511 0.15377 0.13259 0.0
H732 H 0.52449 0.09923 0.38262 0.0
H733 H 0.49008 0.10569 0.32948 0.0
H734 H 0.5077 0.1692 0.20809 0.0
C735 C 0.58499 0.15428 0.31561 0.0
C736 C 0.5976 0.13791 0.3567 0.0
C737 C 0.58896 0.11784 0.39086 0.0
C738 C 0.56843 0.11412 0.38493 0.0
C739 C 0.55645 0.13048 0.34365 0.0
C740 C 0.56448 0.15013 0.30896 0.0
C741 C 0.54856 0.16452 0.26326 0.0
C742 C 0.54606 0.18585 0.30841 0.0
C743 C 0.55327 0.16928 0.16461 0.0
C744 C 0.5304 0.14995 0.27724 0.0
C745 C 0.53515 0.13047 0.32473 0.0
C746 C 0.5207 0.11447 0.34535 0.0
C747 C 0.50109 0.1183 0.31538 0.0
C748 C 0.49599 0.13786 0.26405 0.0
C749 C 0.51098 0.15393 0.24623 0.0
H750 H 0.1746 0.5265 0.76908 0.0
H751 H 0.11774 0.55928 0.74666 0.0
H752 H 0.10621 0.53239 0.64633 0.0
H753 H 0.17726 0.51131 0.54241 0.0
H754 H 0.18845 0.48512 0.57417 0.0
H755 H 0.19282 0.50796 0.63869 0.0
H756 H 0.1801 0.4853 0.77923 0.0
H757 H 0.17612 0.46235 0.71543 0.0
H758 H 0.15604 0.4727 0.77785 0.0
H759 H 0.1 0.5004 0.55963 0.0
H760 H 0.09877 0.46405 0.50148 0.0
H761 H 0.16006 0.45292 0.57701 0.0
C762 C 0.15972 0.52797 0.74329 0.0
C763 C 0.14706 0.54496 0.7653 0.0
C764 C 0.12773 0.54649 0.72962 0.0
C765 C 0.12109 0.53137 0.67245 0.0
C766 C 0.13404 0.51497 0.65117 0.0
C767 C 0.15291 0.51312 0.68579 0.0
C768 C 0.16347 0.4932 0.65698 0.0
C769 C 0.18157 0.4998 0.59964 0.0
C770 C 0.16926 0.47746 0.73712 0.0
C771 C 0.14733 0.48374 0.60316 0.0
C772 C 0.13056 0.49669 0.59956 0.0
C773 C 0.11313 0.49028 0.56056 0.0
C774 C 0.11258 0.46965 0.52759 0.0
C775 C 0.12936 0.4558 0.53415 0.0
C776 C 0.14714 0.46335 0.56923 0.0
H777 H 0.51127 0.88016 0.06073 0.0
H778 H 0.55034 0.89263 0.27678 0.0
H779 H 0.52138 0.89529 0.37413 0.0
H780 H 0.47198 0.91653 0.11571 0.0
H781 H 0.45256 0.89864 0.08449 0.0
H782 H 0.47636 0.89814 0.03145 0.0
H783 H 0.47908 0.85649 0.07516 0.0
H784 H 0.4553 0.85687 0.12849 0.0
H785 H 0.47661 0.84639 0.18937 0.0
H786 H 0.48769 0.89586 0.44989 0.0
H787 H 0.45258 0.8952 0.49539 0.0
H788 H 0.43543 0.88197 0.23053 0.0
C789 C 0.51384 0.88336 0.12852 0.0
C790 C 0.53333 0.8862 0.16037 0.0
C791 C 0.53573 0.89066 0.24972 0.0
C792 C 0.5193 0.89206 0.30597 0.0
C793 C 0.50039 0.88902 0.27244 0.0
C794 C 0.4976 0.88483 0.18561 0.0
C795 C 0.47574 0.88217 0.16579 0.0
C796 C 0.46875 0.89993 0.09518 0.0
C797 C 0.47144 0.85911 0.13808 0.0
C798 C 0.46665 0.88542 0.25506 0.0
C799 C 0.48112 0.88934 0.31577 0.0
C800 C 0.47629 0.89281 0.40268 0.0
C801 C 0.45624 0.89237 0.42803 0.0
C802 C 0.4411 0.88849 0.36692 0.0
C803 C 0.44655 0.88493 0.27923 0.0
H804 H 0.87789 0.97115 0.45847 0.0
H805 H 0.9269 0.9711 0.64108 0.0
H806 H 0.92608 1.01172 0.63031 0.0
H807 H 0.89557 1.01874 0.31641 0.0
H808 H 0.87112 0.02915 0.29094 0.0
H809 H 0.87489 1.00021 0.31665 0.0
H810 H 0.84875 1.0003 0.44063 0.0
H811 H 0.84503 0.02928 0.41555 0.0
H812 H 0.85161 1.01876 0.5258 0.0
H813 H 0.91832 0.05424 0.60453 0.0
H814 H 0.90858 0.09202 0.54976 0.0
H815 H 0.86727 0.06569 0.36961 0.0
C816 C 0.88852 0.97963 0.49625 0.0
C817 C 0.90246 0.96726 0.55162 0.0
C818 C 0.9161 0.97959 0.59824 0.0
C819 C 0.91564 1.00292 0.59275 0.0
C820 C 0.90173 1.0145 0.53828 0.0
C821 C 0.8887 1.00315 0.48909 0.0
C822 C 0.87606 1.01955 0.43107 0.0
C823 C 0.87962 1.01674 0.33294 0.0
C824 C 0.85405 1.0168 0.45466 0.0
C825 C 0.88377 0.04184 0.45547 0.0
C826 C 0.89832 0.03856 0.519 0.0
C827 C 0.90707 0.05669 0.55419 0.0
C828 C 0.90124 0.07834 0.52321 0.0
C829 C 0.88689 0.08246 0.45574 0.0
C830 C 0.87817 0.06356 0.42164 0.0
H831 H 1.01039 0.15253 0.70267 0.0
H832 H 0.05023 0.14042 0.4889 0.0
H833 H 0.02174 0.1405 0.38667 0.0
H834 H 0.9706 0.11881 0.64026 0.0
H835 H 0.95156 0.13719 0.67197 0.0
H836 H 0.97516 0.13649 0.72678 0.0
H837 H 0.97921 0.1782 0.68713 0.0
H838 H 0.95561 0.17901 0.63232 0.0
H839 H 0.97737 0.18903 0.57358 0.0
H840 H 0.98748 0.14001 0.3085 0.0
H841 H 0.95216 0.14143 0.26313 0.0
H842 H 0.93564 0.15512 0.52824 0.0
C843 C 1.01318 0.14984 0.63444 0.0
C844 C 0.0327 0.14638 0.60438 0.0
C845 C 0.03555 0.14328 0.51386 0.0
C846 C 0.01937 0.14318 0.45525 0.0
C847 C 1.00032 0.14642 0.48746 0.0
C848 C 0.99726 0.14991 0.57502 0.0
C849 C 0.97547 0.15324 0.59368 0.0
C850 C 0.96775 0.13537 0.66222 0.0
C851 C 0.9717 0.17624 0.62342 0.0
C852 C 0.96664 0.15088 0.50341 0.0
C853 C 0.9811 0.14682 0.44272 0.0
C854 C 0.97613 0.14339 0.35565 0.0
C855 C 0.956 0.1442 0.3303 0.0
C856 C 0.941 0.14863 0.39143 0.0
C857 C 0.94663 0.15201 0.47902 0.0
H858 H 0.17563 1.01287 0.52212 0.0
H859 H 0.11906 0.97995 0.55588 0.0
H860 H 0.10798 1.00771 0.65352 0.0
H861 H 0.17909 0.03105 0.74642 0.0
H862 H 0.19001 0.0569 0.70749 0.0
H863 H 0.19437 0.033 0.64894 0.0
H864 H 0.18118 0.05352 0.50463 0.0
H865 H 0.17715 0.07749 0.56241 0.0
H866 H 0.15701 0.06596 0.50434 0.0
H867 H 0.10176 0.04099 0.73198 0.0
H868 H 0.10015 0.07856 0.77821 0.0
H869 H 0.16113 0.08919 0.69647 0.0
C870 C 0.16094 1.01148 0.55018 0.0
C871 C 0.14819 0.9943 0.53166 0.0
C872 C 0.12912 0.99289 0.57021 0.0
C873 C 0.12274 1.0085 0.62592 0.0
C874 C 0.13572 0.02522 0.64304 0.0
C875 C 0.15441 0.02682 0.60622 0.0
C876 C 0.16488 0.04733 0.62903 0.0
C877 C 0.18317 0.04172 0.6864 0.0
C878 C 0.17035 0.06193 0.54514 0.0
C879 C 0.14881 0.05752 0.68119 0.0
C880 C 0.13223 0.04434 0.68988 0.0
C881 C 0.11477 0.05129 0.72731 0.0
C882 C 0.11399 0.07263 0.75334 0.0
C883 C 0.13057 0.08665 0.7414 0.0
C884 C 0.14839 0.07865 0.70825 0.0
H885 H 0.09435 0.86728 0.50969 0.0
H886 H 0.09959 0.93168 0.36991 0.0
H887 H 0.06351 0.93668 0.37956 0.0
H888 H 0.04645 0.85272 0.41549 0.0
H889 H 0.03754 0.83923 0.51773 0.0
H890 H 0.06367 0.83992 0.49423 0.0
H891 H 0.07012 0.85745 0.64024 0.0
H892 H 0.04403 0.85687 0.66404 0.0
H893 H 0.05739 0.88233 0.66126 0.0
H894 H 0.02624 0.93541 0.40865 0.0
H895 H 0.99192 0.92832 0.46069 0.0
H896 H 1.01053 0.86524 0.5839 0.0
C897 C 0.08787 0.88227 0.47979 0.0
C898 C 0.10003 0.89899 0.43817 0.0
C899 C 0.09079 0.91853 0.40183 0.0
C900 C 0.07019 0.92155 0.40687 0.0
C901 C 0.05867 0.90497 0.44913 0.0
C902 C 0.06718 0.8857 0.48521 0.0
C903 C 0.05149 0.87098 0.5311 0.0
C904 C 0.04968 0.84944 0.48699 0.0
C905 C 0.05604 0.86666 0.63002 0.0
C906 C 0.03297 0.88501 0.51579 0.0
C907 C 0.03737 0.90448 0.46763 0.0
C908 C 0.02267 0.92014 0.44625 0.0
C909 C 1.00311 0.91594 0.47574 0.0
C910 C 0.99823 0.89631 0.5271 0.0
C911 C 1.01354 0.8806 0.54597 0.0
H912 H 0.37187 0.2212 0.16277 0.0
H913 H 0.43506 0.20907 0.15612 0.0
H914 H 0.44108 0.24871 0.13225 0.0
H915 H 0.37171 0.26769 0.99339 0.0
H916 H 0.3533 0.28323 0.04693 0.0
H917 H 0.35341 0.25376 0.06373 0.0
H918 H 0.35529 0.25606 0.23205 0.0
H919 H 0.35518 0.28553 0.21574 0.0
H920 H 0.37487 0.27157 0.27731 0.0
H921 H 0.44099 0.29032 0.10812 0.0
H922 H 0.43494 0.32991 0.08744 0.0
H923 H 0.37174 0.31833 0.10889 0.0
C924 C 0.387 0.22684 0.15634 0.0
C925 C 0.40298 0.21124 0.1618 0.0
C926 C 0.42242 0.21998 0.1527 0.0
C927 C 0.42605 0.24276 0.13889 0.0
C928 C 0.41018 0.25749 0.1339 0.0
C929 C 0.39098 0.24994 0.14244 0.0
C930 C 0.37674 0.26973 0.13452 0.0
C931 C 0.36297 0.26853 0.05491 0.0
C932 C 0.3648 0.27078 0.21999 0.0
C933 C 0.39091 0.28943 0.12024 0.0
C934 C 0.41013 0.28174 0.12016 0.0
C935 C 0.42595 0.29635 0.10824 0.0
C936 C 0.42228 0.31914 0.09636 0.0
C937 C 0.40283 0.32807 0.09607 0.0
C938 C 0.38687 0.31259 0.10835 0.0
H939 H 0.31582 0.66596 0.89404 0.0
H940 H 0.32566 0.61889 0.70131 0.0
H941 H 0.2895 0.61373 0.68948 0.0
H942 H 0.27436 0.63968 1.00421 0.0
H943 H 0.26113 0.66463 0.01917 0.0
H944 H 0.28773 0.66485 1.01235 0.0
H945 H 0.28615 0.69517 0.88358 0.0
H946 H 0.25954 0.69511 0.89015 0.0
H947 H 0.27163 0.69085 0.7874 0.0
H948 H 0.25224 0.61152 0.70709 0.0
H949 H 0.21673 0.61504 0.74025 0.0
H950 H 0.22984 0.66597 0.91226 0.0
C951 C 0.31038 0.65465 0.84886 0.0
C952 C 0.32379 0.64274 0.79871 0.0
C953 C 0.31588 0.62824 0.74021 0.0
C954 C 0.29529 0.62515 0.73333 0.0
C955 C 0.28255 0.63695 0.78418 0.0
C956 C 0.28977 0.6517 0.8398 0.0
C957 C 0.27278 0.66261 0.88581 0.0
C958 C 0.27408 0.65764 0.98635 0.0
C959 C 0.27251 0.68741 0.8602 0.0
C960 C 0.25486 0.65149 0.84843 0.0
C961 C 0.26095 0.63657 0.79064 0.0
C962 C 0.24737 0.62338 0.75126 0.0
C963 C 0.22716 0.62545 0.77086 0.0
C964 C 0.22032 0.64089 0.82826 0.0
C965 C 0.23448 0.65424 0.86707 0.0
H966 H 0.60353 0.81842 0.07728 0.0
H967 H 0.66676 0.83022 0.05313 0.0
H968 H 0.6732 0.79136 0.09668 0.0
H969 H 0.60565 0.78073 0.26622 0.0
H970 H 0.58643 0.76303 0.23149 0.0
H971 H 0.58632 0.79169 0.19382 0.0
H972 H 0.5858 0.78206 0.03136 0.0
H973 H 0.58559 0.75337 0.06855 0.0
H974 H 0.60449 0.7641 0.99328 0.0
H975 H 0.6732 0.75254 0.15182 0.0
H976 H 0.66676 0.71401 0.20024 0.0
H977 H 0.60346 0.72635 0.18601 0.0
C978 C 0.6187 0.81275 0.07981 0.0
C979 C 0.63464 0.82736 0.06207 0.0
C980 C 0.6543 0.81935 0.06653 0.0
C981 C 0.65814 0.79732 0.09147 0.0
C982 C 0.64217 0.7835 0.11103 0.0
C983 C 0.62284 0.79072 0.10426 0.0
C984 C 0.60847 0.77229 0.12961 0.0
C985 C 0.59599 0.77724 0.21007 0.0
C986 C 0.59531 0.76768 0.051 0.0
C987 C 0.62283 0.7537 0.15245 0.0
C988 C 0.64217 0.76067 0.14168 0.0
C989 C 0.65814 0.74677 0.15982 0.0
C990 C 0.65428 0.72492 0.18772 0.0
C991 C 0.63458 0.71714 0.19666 0.0
C992 C 0.61866 0.73183 0.17984 0.0
H993 H 0.81641 0.37351 0.91352 0.0
H994 H 0.82767 0.42341 0.09238 0.0
H995 H 0.79154 0.42949 0.10562 0.0
H996 H 0.77506 0.39845 0.80072 0.0
H997 H 0.76153 0.37335 0.79379 0.0
H998 H 0.78814 0.37286 0.79876 0.0
H999 H 0.78675 0.34469 0.93524 0.0
H1000 H 0.76013 0.34495 0.93029 0.0
H1001 H 0.77253 0.35087 0.03026 0.0
H1002 H 0.7539 0.4323 0.08784 0.0
H1003 H 0.71819 0.42809 0.05936 0.0
H1004 H 0.73082 0.37362 0.90427 0.0
C1005 C 0.81127 0.3856 0.95618 0.0
C1006 C 0.825 0.39808 1.00178 0.0
C1007 C 0.81757 0.41359 0.05722 0.0
C1008 C 0.79702 0.41723 0.06463 0.0
C1009 C 0.78394 0.40489 0.01772 0.0
C1010 C 0.79079 0.38902 0.96611 0.0
C1011 C 0.77363 0.37749 0.92467 0.0
C1012 C 0.77466 0.38073 0.82348 0.0
C1013 C 0.77324 0.35305 0.95707 0.0
C1014 C 0.75599 0.38953 0.95981 0.0
C1015 C 0.76231 0.40552 1.01224 0.0
C1016 C 0.74886 0.41961 0.04802 0.0
C1017 C 0.72855 0.41716 0.03099 0.0
C1018 C 0.72156 0.40045 0.98006 0.0
C1019 C 0.7356 0.38641 0.94428 0.0
H1020 H 0.92522 0.72169 0.67087 0.0
H1021 H 0.86189 0.71036 0.67455 0.0
H1022 H 0.85611 0.7501 0.65569 0.0
H1023 H 0.92396 0.77138 0.79004 0.0
H1024 H 0.94317 0.78543 0.72558 0.0
H1025 H 0.94288 0.75593 0.73932 0.0
H1026 H 0.94303 0.75455 0.57033 0.0
H1027 H 0.94334 0.78405 0.55611 0.0
H1028 H 0.92423 0.76906 0.50496 0.0
H1029 H 0.85645 0.79189 0.63701 0.0
H1030 H 0.8628 0.83147 0.61871 0.0
H1031 H 0.92598 0.81894 0.62437 0.0
C1032 C 0.9101 0.72751 0.6677 0.0
C1033 C 0.89402 0.71207 0.67464 0.0
C1034 C 0.87462 0.7211 0.66976 0.0
C1035 C 0.87112 0.74397 0.65894 0.0
C1036 C 0.88709 0.75853 0.6525 0.0
C1037 C 0.90627 0.75072 0.65653 0.0
C1038 C 0.92064 0.77036 0.6474 0.0
C1039 C 0.93343 0.7708 0.73053 0.0
C1040 C 0.93358 0.76944 0.56479 0.0
C1041 C 0.90658 0.79028 0.63777 0.0
C1042 C 0.88728 0.78284 0.64112 0.0
C1043 C 0.87155 0.79772 0.63426 0.0
C1044 C 0.87538 0.8205 0.62374 0.0
C1045 C 0.89492 0.82917 0.61957 0.0
C1046 C 0.91078 0.81342 0.6269 0.0
H1047 H 0.8131 0.11449 0.3056 0.0
H1048 H 0.82497 0.18375 0.31327 0.0
H1049 H 0.78921 0.19115 0.32133 0.0
H1050 H 0.76641 0.12089 0.17529 0.0
H1051 H 0.75434 0.09821 0.23651 0.0
H1052 H 0.78085 0.09825 0.22381 0.0
H1053 H 0.78479 0.09297 0.39323 0.0
H1054 H 0.75832 0.09314 0.4065 0.0
H1055 H 0.77333 0.11221 0.46072 0.0
H1056 H 0.75249 0.19138 0.33689 0.0
H1057 H 0.71681 0.18467 0.35431 0.0
H1058 H 0.72674 0.11508 0.33974 0.0
C1059 C 0.80807 0.13124 0.30637 0.0
C1060 C 0.82195 0.14867 0.30654 0.0
C1061 C 0.81471 0.17023 0.31121 0.0
C1062 C 0.79437 0.17459 0.31628 0.0
C1063 C 0.78108 0.15719 0.3175 0.0
C1064 C 0.78752 0.13592 0.31219 0.0
C1065 C 0.76983 0.12031 0.31859 0.0
C1066 C 0.76774 0.10872 0.23348 0.0
C1067 C 0.77169 0.10367 0.39958 0.0
C1068 C 0.75262 0.13612 0.32919 0.0
C1069 C 0.7596 0.1573 0.32799 0.0
C1070 C 0.74686 0.17485 0.33743 0.0
C1071 C 0.72648 0.17083 0.34753 0.0
C1072 C 0.71863 0.14935 0.3486 0.0
C1073 C 0.73208 0.13172 0.33949 0.0
H1074 H 0.14981 0.31737 0.58279 0.0
H1075 H 0.08682 0.32929 0.5466 0.0
H1076 H 0.08005 0.29052 0.58756 0.0
H1077 H 0.14982 0.26325 0.4967 0.0
H1078 H 0.16784 0.2521 0.57535 0.0
H1079 H 0.16808 0.28089 0.53972 0.0
H1080 H 0.16573 0.29 0.70251 0.0
H1081 H 0.16522 0.26125 0.73855 0.0
H1082 H 0.14563 0.27895 0.77028 0.0
H1083 H 0.0794 0.25176 0.63959 0.0
H1084 H 0.0852 0.21307 0.68758 0.0
H1085 H 0.1486 0.22487 0.68821 0.0
C1086 C 0.13465 0.31172 0.58231 0.0
C1087 C 0.11886 0.32639 0.5618 0.0
C1088 C 0.09919 0.31842 0.56237 0.0
C1089 C 0.09513 0.29641 0.58569 0.0
C1090 C 0.1109 0.28251 0.60773 0.0
C1091 C 0.13028 0.28964 0.60525 0.0
C1092 C 0.14433 0.27101 0.63262 0.0
C1093 C 0.15834 0.26655 0.55655 0.0
C1094 C 0.15591 0.27559 0.71595 0.0
C1095 C 0.12971 0.25246 0.65146 0.0
C1096 C 0.11054 0.25962 0.63695 0.0
C1097 C 0.09434 0.24583 0.65066 0.0
C1098 C 0.09782 0.22389 0.67829 0.0
C1099 C 0.11737 0.21593 0.69149 0.0
C1100 C 0.13351 0.23049 0.67877 0.0
H1101 H 0.31542 0.87172 0.39997 0.0
H1102 H 0.32654 0.91949 0.58834 0.0
H1103 H 0.2904 0.92524 0.60249 0.0
H1104 H 0.27467 0.89829 0.2902 0.0
H1105 H 0.26103 0.87355 0.27687 0.0
H1106 H 0.28761 0.87276 0.28354 0.0
H1107 H 0.28558 0.84294 0.41419 0.0
H1108 H 0.25898 0.84354 0.40765 0.0
H1109 H 0.27111 0.84795 0.50997 0.0
H1110 H 0.25294 0.92827 0.58443 0.0
H1111 H 0.21738 0.92532 0.55083 0.0
H1112 H 0.22994 0.87317 0.38375 0.0
C1113 C 0.31028 0.88326 0.44498 0.0
C1114 C 0.32396 0.89523 0.49296 0.0
C1115 C 0.31648 0.91005 0.55126 0.0
C1116 C 0.29593 0.91349 0.5593 0.0
C1117 C 0.28291 0.9017 0.50986 0.0
C1118 C 0.28981 0.88655 0.45509 0.0
C1119 C 0.27271 0.87581 0.4099 0.0
C1120 C 0.27409 0.88038 0.30916 0.0
C1121 C 0.27206 0.85109 0.43707 0.0
C1122 C 0.25504 0.88748 0.44662 0.0
C1123 C 0.26133 0.90254 0.50336 0.0
C1124 C 0.24792 0.91628 0.54126 0.0
C1125 C 0.2277 0.91454 0.52138 0.0
C1126 C 0.22074 0.89889 0.4653 0.0
C1127 C 0.2347 0.88506 0.42793 0.0
H1128 H 0.23882 0.16824 0.78401 0.0
H1129 H 0.19948 0.12752 0.95441 0.0
H1130 H 0.22676 0.1195 0.05762 0.0
H1131 H 0.28289 0.13433 0.82196 0.0
H1132 H 0.29942 0.15737 0.82163 0.0
H1133 H 0.27695 0.15957 0.75789 0.0
H1134 H 0.26648 0.1934 0.83756 0.0
H1135 H 0.28892 0.19134 0.90132 0.0
H1136 H 0.26529 0.19133 0.95628 0.0
H1137 H 0.25777 0.11718 0.14835 0.0
H1138 H 0.29041 0.12068 0.21846 0.0
H1139 H 0.31073 0.16175 0.99082 0.0
C1140 C 0.23576 0.15751 0.8424 0.0
C1141 C 0.21649 0.14865 0.85943 0.0
C1142 C 0.2137 0.13472 0.93799 0.0
C1143 C 0.22927 0.12996 0.99775 0.0
C1144 C 0.24784 0.13906 0.97894 0.0
C1145 C 0.25122 0.15249 0.90306 0.0
C1146 C 0.27257 0.16055 0.90007 0.0
C1147 C 0.28361 0.15247 0.82066 0.0
C1148 C 0.27335 0.18564 0.89874 0.0
C1149 C 0.28059 0.14969 0.98654 0.0
C1150 C 0.26598 0.13737 0.03079 0.0
C1151 C 0.26934 0.1266 0.11381 0.0
C1152 C 0.28793 0.12868 0.15323 0.0
C1153 C 0.3032 0.14124 0.10994 0.0
C1154 C 0.2995 0.15166 0.02469 0.0
H1155 H 0.16495 0.71882 0.07108 0.0
H1156 H 0.17094 0.7667 0.84607 0.0
H1157 H 0.17574 0.79583 0.947 0.0
H1158 H 0.13708 0.75 0.2055 0.0
H1159 H 0.14921 0.73986 0.30621 0.0
H1160 H 0.14849 0.7234 0.21391 0.0
H1161 H 0.18913 0.72219 0.21209 0.0
H1162 H 0.18643 0.73613 0.31155 0.0
H1163 H 0.20142 0.74765 0.22136 0.0
H1164 H 0.17982 0.81919 0.07176 0.0
H1165 H 0.17755 0.83718 0.20924 0.0
H1166 H 0.1655 0.77474 0.35467 0.0
C1167 C 0.16772 0.73535 0.04301 0.0
C1168 C 0.16775 0.74051 0.9506 0.0
C1169 C 0.17086 0.76244 0.91653 0.0
C1170 C 0.17376 0.77901 0.97332 0.0
C1171 C 0.17347 0.77335 0.06402 0.0
C1172 C 0.17045 0.7521 0.09876 0.0
C1173 C 0.16945 0.75072 0.19868 0.0
C1174 C 0.14991 0.74037 0.23315 0.0
C1175 C 0.18761 0.73841 0.23853 0.0
C1176 C 0.17066 0.77472 0.21437 0.0
C1177 C 0.17405 0.78727 0.13605 0.0
C1178 C 0.17686 0.80969 0.13336 0.0
C1179 C 0.17554 0.81974 0.21219 0.0
C1180 C 0.17081 0.80756 0.29292 0.0
C1181 C 0.16873 0.78459 0.29395 0.0
H1182 H 0.72638 0.92893 0.89622 0.0
H1183 H 0.71563 0.85937 0.94483 0.0
H1184 H 0.74684 0.85171 0.86671 0.0
H1185 H 0.74577 0.92633 0.67526 0.0
H1186 H 0.76351 0.94788 0.68551 0.0
H1187 H 0.74076 0.94756 0.74721 0.0
H1188 H 0.76063 0.94857 0.89212 0.0
H1189 H 0.78345 0.94878 0.83092 0.0
H1190 H 0.77913 0.92793 0.91965 0.0
H1191 H 0.78083 0.85207 0.78955 0.0
H1192 H 0.81169 0.8603 0.7043 0.0
H1193 H 0.7985 0.92954 0.69586 0.0
C1194 C 0.73064 0.91209 0.89043 0.0
C1195 C 0.71868 0.8947 0.92726 0.0
C1196 C 0.72456 0.87289 0.91698 0.0
C1197 C 0.74231 0.86843 0.87315 0.0
C1198 C 0.75389 0.88598 0.83832 0.0
C1199 C 0.74805 0.90739 0.84513 0.0
C1200 C 0.7626 0.92334 0.79877 0.0
C1201 C 0.75256 0.93709 0.72213 0.0
C1202 C 0.77201 0.93802 0.86428 0.0
C1203 C 0.77766 0.90765 0.76531 0.0
C1204 C 0.77259 0.88615 0.78989 0.0
C1205 C 0.78476 0.86885 0.76924 0.0
C1206 C 0.80231 0.87364 0.72126 0.0
C1207 C 0.80738 0.8955 0.69279 0.0
C1208 C 0.79485 0.91265 0.71568 0.0
H1209 H 0.88193 0.32356 0.1712 0.0
H1210 H 0.88242 0.31526 0.89132 0.0
H1211 H 0.88262 0.27514 0.9245 0.0
H1212 H 0.91327 0.27639 0.24303 0.0
H1213 H 0.89909 0.26952 0.3418 0.0
H1214 H 0.89979 0.29738 0.29292 0.0
H1215 H 0.86026 0.29676 0.2829 0.0
H1216 H 0.86165 0.26944 0.33651 0.0
H1217 H 0.84899 0.27454 0.23262 0.0
H1218 H 0.88338 0.23423 0.98905 0.0
H1219 H 0.88335 0.19833 0.07572 0.0
H1220 H 0.88109 0.23099 0.31713 0.0
C1221 C 0.88204 0.31338 0.11661 0.0
C1222 C 0.88222 0.32341 0.02751 0.0
C1223 C 0.88227 0.30876 0.95974 0.0
C1224 C 0.88242 0.28561 0.97821 0.0
C1225 C 0.88226 0.27639 0.06578 0.0
C1226 C 0.88186 0.28986 0.13408 0.0
C1227 C 0.88128 0.27548 0.22236 0.0
C1228 C 0.89942 0.27997 0.27851 0.0
C1229 C 0.86193 0.27927 0.27173 0.0
C1230 C 0.88185 0.25201 0.19367 0.0
C1231 C 0.88236 0.25299 0.10264 0.0
C1232 C 0.88292 0.23357 0.06027 0.0
C1233 C 0.8829 0.21295 0.11083 0.0
C1234 C 0.8822 0.21101 0.20473 0.0
C1235 C 0.88163 0.23127 0.246 0.0
H1236 H 0.2996 0.42208 0.20829 0.0
H1237 H 0.31084 0.35351 0.18117 0.0
H1238 H 0.2796 0.34381 0.26171 0.0
H1239 H 0.27968 0.41391 0.43208 0.0
H1240 H 0.26202 0.43587 0.41419 0.0
H1241 H 0.28501 0.43696 0.35415 0.0
H1242 H 0.26564 0.44171 0.20712 0.0
H1243 H 0.24258 0.44038 0.26668 0.0
H1244 H 0.24728 0.4217 0.18382 0.0
H1245 H 0.24503 0.34232 0.33677 0.0
H1246 H 0.21387 0.34862 0.41801 0.0
H1247 H 0.2271 0.41782 0.40694 0.0
C1248 C 0.29551 0.40501 0.22 0.0
C1249 C 0.3076 0.38851 0.1882 0.0
C1250 C 0.30186 0.36635 0.2054 0.0
C1251 C 0.28407 0.36076 0.25053 0.0
C1252 C 0.2723 0.37748 0.27981 0.0
C1253 C 0.27809 0.39915 0.26683 0.0
C1254 C 0.26334 0.41403 0.30769 0.0
C1255 C 0.2731 0.42589 0.38141 0.0
C1256 C 0.25417 0.43042 0.2371 0.0
C1257 C 0.24814 0.39749 0.34468 0.0
C1258 C 0.25334 0.3765 0.32691 0.0
C1259 C 0.24103 0.35869 0.35178 0.0
C1260 C 0.22328 0.36239 0.39732 0.0
C1261 C 0.21811 0.38364 0.41921 0.0
C1262 C 0.23075 0.40136 0.39183 0.0
H1263 H 0.37733 0.73224 0.82241 0.0
H1264 H 0.39319 0.69991 0.58995 0.0
H1265 H 0.39454 0.73565 0.50325 0.0
H1266 H 0.34685 0.77585 0.71072 0.0
H1267 H 0.35546 0.79719 0.77555 0.0
H1268 H 0.35536 0.76913 0.82193 0.0
H1269 H 0.39257 0.77173 0.85671 0.0
H1270 H 0.39279 0.79981 0.81049 0.0
H1271 H 0.40964 0.78026 0.76943 0.0
H1272 H 0.39237 0.77493 0.43485 0.0
H1273 H 0.39044 0.81466 0.39554 0.0
H1274 H 0.37823 0.82498 0.66872 0.0
C1275 C 0.38096 0.73258 0.75306 0.0
C1276 C 0.38474 0.71238 0.71383 0.0
C1277 C 0.38974 0.71439 0.62272 0.0
C1278 C 0.39057 0.73487 0.57219 0.0
C1279 C 0.38649 0.75413 0.61178 0.0
C1280 C 0.38203 0.75333 0.7006 0.0
C1281 C 0.37901 0.77699 0.72607 0.0
C1282 C 0.35792 0.77996 0.76066 0.0
C1283 C 0.39442 0.78253 0.7948 0.0
C1284 C 0.38227 0.79101 0.63792 0.0
C1285 C 0.3864 0.77722 0.57305 0.0
C1286 C 0.38933 0.78576 0.48576 0.0
C1287 C 0.38814 0.80867 0.46376 0.0
C1288 C 0.38431 0.82375 0.52781 0.0
C1289 C 0.3814 0.81441 0.61706 0.0
H1290 H 0.73881 0.66511 0.30548 0.0
H1291 H 0.70382 0.61288 0.43841 0.0
H1292 H 0.73115 0.60454 0.54291 0.0
H1293 H 0.78643 0.63722 0.32805 0.0
H1294 H 0.8 0.66166 0.34708 0.0
H1295 H 0.77786 0.66352 0.28109 0.0
H1296 H 0.76289 0.69093 0.38306 0.0
H1297 H 0.78499 0.68919 0.44923 0.0
H1298 H 0.76126 0.68342 0.49994 0.0
H1299 H 0.76214 0.60159 0.63332 0.0
H1300 H 0.79396 0.60503 0.70811 0.0
H1301 H 0.8099 0.65945 0.5204 0.0
C1302 C 0.73689 0.65175 0.35586 0.0
C1303 C 0.71889 0.63964 0.36286 0.0
C1304 C 0.71716 0.62258 0.4314 0.0
C1305 C 0.73274 0.61761 0.49099 0.0
C1306 C 0.75016 0.62981 0.48201 0.0
C1307 C 0.75235 0.64658 0.41638 0.0
C1308 C 0.77256 0.65743 0.42304 0.0
C1309 C 0.78494 0.6548 0.33986 0.0
C1310 C 0.77028 0.68168 0.43982 0.0
C1311 C 0.78134 0.6442 0.503 0.0
C1312 C 0.7681 0.6283 0.53532 0.0
C1313 C 0.77253 0.61407 0.60878 0.0
C1314 C 0.79071 0.61629 0.65134 0.0
C1315 C 0.80455 0.63272 0.62155 0.0
C1316 C 0.7998 0.64668 0.54504 0.0
H1317 H 0.66155 0.21895 0.58511 0.0
H1318 H 0.66802 0.26745 0.36265 0.0
H1319 H 0.67526 0.2957 0.46524 0.0
H1320 H 0.63653 0.25174 0.72828 0.0
H1321 H 0.64898 0.23927 0.82441 0.0
H1322 H 0.64586 0.22434 0.72851 0.0
H1323 H 0.68722 0.22026 0.72088 0.0
H1324 H 0.68573 0.2332 0.82333 0.0
H1325 H 0.70065 0.24479 0.73317 0.0
H1326 H 0.68275 0.31785 0.59308 0.0
H1327 H 0.68247 0.33514 0.73263 0.0
H1328 H 0.66747 0.27281 0.87321 0.0
C1329 C 0.66486 0.23542 0.55787 0.0
C1330 C 0.66442 0.24098 0.46575 0.0
C1331 C 0.6683 0.26286 0.43288 0.0
C1332 C 0.6726 0.27892 0.49061 0.0
C1333 C 0.67286 0.27285 0.58108 0.0
C1334 C 0.66891 0.25169 0.61453 0.0
C1335 C 0.66873 0.2498 0.71453 0.0
C1336 C 0.64889 0.24072 0.75117 0.0
C1337 C 0.68653 0.23616 0.75039 0.0
C1338 C 0.6715 0.27349 0.73223 0.0
C1339 C 0.67499 0.28623 0.65458 0.0
C1340 C 0.67942 0.3083 0.65413 0.0
C1341 C 0.67926 0.31792 0.73437 0.0
C1342 C 0.67416 0.30563 0.81458 0.0
C1343 C 0.67083 0.28288 0.81321 0.0
H1344 H 0.37015 0.14622 0.50364 0.0
H1345 H 0.43358 0.14074 0.46266 0.0
H1346 H 0.43898 0.13918 0.62121 0.0
H1347 H 0.37392 0.18063 0.68959 0.0
H1348 H 0.35371 0.16772 0.75127 0.0
H1349 H 0.35395 0.16843 0.63265 0.0
H1350 H 0.35058 0.1263 0.6428 0.0
H1351 H 0.35038 0.12549 0.76145 0.0
H1352 H 0.36828 0.10961 0.70645 0.0
H1353 H 0.43874 0.13749 0.78146 0.0
H1354 H 0.43288 0.13705 0.93978 0.0
H1355 H 0.36971 0.1443 0.89262 0.0
C1356 C 0.38515 0.14476 0.52817 0.0
C1357 C 0.4014 0.14361 0.46861 0.0
C1358 C 0.42075 0.14168 0.50481 0.0
C1359 C 0.42407 0.14074 0.59571 0.0
C1360 C 0.40798 0.1418 0.65205 0.0
C1361 C 0.38886 0.14387 0.62061 0.0
C1362 C 0.37452 0.14478 0.69849 0.0
C1363 C 0.36336 0.1667 0.69263 0.0
C1364 C 0.36008 0.12539 0.70252 0.0
C1365 C 0.38868 0.14286 0.77748 0.0
C1366 C 0.40786 0.14109 0.74779 0.0
C1367 C 0.42378 0.13893 0.80562 0.0
C1368 C 0.42021 0.13868 0.89628 0.0
C1369 C 0.40081 0.14066 0.93053 0.0
C1370 C 0.38475 0.14276 0.86948 0.0
H1371 H 0.15468 0.67401 0.533 0.0
H1372 H 0.16657 0.6052 0.60745 0.0
H1373 H 0.16767 0.598 0.4524 0.0
H1374 H 0.12313 0.66457 0.34419 0.0
H1375 H 0.13225 0.68753 0.27406 0.0
H1376 H 0.13233 0.68846 0.39209 0.0
H1377 H 0.16931 0.69701 0.38663 0.0
H1378 H 0.17024 0.69473 0.26934 0.0
H1379 H 0.18634 0.67819 0.34144 0.0
H1380 H 0.16788 0.59713 0.29146 0.0
H1381 H 0.16711 0.60277 0.13044 0.0
H1382 H 0.15502 0.67195 0.14677 0.0
C1383 C 0.15753 0.65747 0.51656 0.0
C1384 C 0.1605 0.64024 0.5843 0.0
C1385 C 0.16413 0.61883 0.55858 0.0
C1386 C 0.16482 0.61445 0.46988 0.0
C1387 C 0.16176 0.63153 0.40533 0.0
C1388 C 0.15813 0.65262 0.42671 0.0
C1389 C 0.1554 0.66766 0.34207 0.0
C1390 C 0.13454 0.67765 0.33788 0.0
C1391 C 0.1713 0.68549 0.33478 0.0
C1392 C 0.15825 0.65176 0.2707 0.0
C1393 C 0.16185 0.631 0.30984 0.0
C1394 C 0.16505 0.61332 0.26001 0.0
C1395 C 0.16457 0.61677 0.16781 0.0
C1396 C 0.16099 0.63781 0.12423 0.0
C1397 C 0.15782 0.65563 0.17717 0.0
H1398 H 0.65439 0.89962 0.34437 0.0
H1399 H 0.59386 0.87873 0.30396 0.0
H1400 H 0.58753 0.87808 0.46147 0.0
H1401 H 0.66144 0.86619 0.55488 0.0
H1402 H 0.67555 0.88655 0.60612 0.0
H1403 H 0.67618 0.8857 0.48808 0.0
H1404 H 0.6651 0.92623 0.46801 0.0
H1405 H 0.66445 0.92717 0.58604 0.0
H1406 H 0.64279 0.93445 0.52112 0.0
H1407 H 0.58627 0.88008 0.62062 0.0
H1408 H 0.59084 0.88299 0.77855 0.0
H1409 H 0.65224 0.90149 0.7319 0.0
C1410 C 0.63989 0.89476 0.36889 0.0
C1411 C 0.62468 0.88927 0.30957 0.0
C1412 C 0.60589 0.88315 0.3458 0.0
C1413 C 0.60203 0.88269 0.43618 0.0
C1414 C 0.61703 0.8883 0.4922 0.0
C1415 C 0.63565 0.8941 0.46097 0.0
C1416 C 0.64884 0.89922 0.53852 0.0
C1417 C 0.66656 0.88348 0.54741 0.0
C1418 C 0.65571 0.92319 0.52777 0.0
C1419 C 0.63465 0.89522 0.61706 0.0
C1420 C 0.61637 0.88911 0.58742 0.0
C1421 C 0.60055 0.88478 0.64482 0.0
C1422 C 0.60333 0.88654 0.73512 0.0
C1423 C 0.62189 0.89246 0.76935 0.0
C1424 C 0.63784 0.89688 0.7087 0.0
H1425 H 0.92176 0.35498 0.36694 0.0
H1426 H 0.8606 0.35911 0.28153 0.0
H1427 H 0.85292 0.32684 0.37331 0.0
H1428 H 0.91423 0.28758 0.46422 0.0
H1429 H 0.93118 0.29345 0.54985 0.0
H1430 H 0.93591 0.30379 0.43724 0.0
H1431 H 0.93957 0.34173 0.4911 0.0
H1432 H 0.93346 0.33208 0.6018 0.0
H1433 H 0.91931 0.35411 0.54576 0.0
H1434 H 0.84712 0.30516 0.50496 0.0
H1435 H 0.84039 0.32616 0.63062 0.0
H1436 H 0.90294 0.33341 0.67139 0.0
C1437 C 0.90696 0.34851 0.36504 0.0
C1438 C 0.89213 0.35985 0.31456 0.0
C1439 C 0.87278 0.35102 0.31637 0.0
C1440 C 0.8682 0.33202 0.36838 0.0
C1441 C 0.88274 0.32184 0.42217 0.0
C1442 C 0.90199 0.32977 0.42006 0.0
C1443 C 0.9127 0.32139 0.50292 0.0
C1444 C 0.92414 0.30031 0.48755 0.0
C1445 C 0.92702 0.3384 0.53747 0.0
C1446 C 0.89476 0.31589 0.56104 0.0
C1447 C 0.87863 0.31089 0.50894 0.0
C1448 C 0.85942 0.31037 0.54345 0.0
C1449 C 0.85558 0.32266 0.61432 0.0
C1450 C 0.8713 0.33312 0.65382 0.0
C1451 C 0.89082 0.32642 0.63746 0.0
H1452 H 0.37344 0.39385 0.36618 0.0
H1453 H 0.43679 0.40236 0.32929 0.0
H1454 H 0.441 0.40325 0.48865 0.0
H1455 H 0.36872 0.42929 0.5475 0.0
H1456 H 0.35091 0.41225 0.60892 0.0
H1457 H 0.35212 0.41234 0.49057 0.0
H1458 H 0.35693 0.37038 0.50496 0.0
H1459 H 0.35574 0.37014 0.62334 0.0
H1460 H 0.37683 0.35852 0.57179 0.0
H1461 H 0.43935 0.40353 0.64833 0.0
H1462 H 0.43242 0.40258 0.80499 0.0
H1463 H 0.36978 0.39324 0.75468 0.0
C1464 C 0.38818 0.39594 0.39177 0.0
C1465 C 0.40481 0.39805 0.33354 0.0
C1466 C 0.42378 0.40067 0.37082 0.0
C1467 C 0.42636 0.40123 0.46195 0.0
C1468 C 0.40987 0.3991 0.51698 0.0
C1469 C 0.39111 0.39646 0.48417 0.0
C1470 C 0.37617 0.39438 0.56057 0.0
C1471 C 0.36108 0.41318 0.55131 0.0
C1472 C 0.3658 0.37202 0.56543 0.0
C1473 C 0.38958 0.39625 0.64082 0.0
C1474 C 0.40892 0.39903 0.61253 0.0
C1475 C 0.42428 0.40129 0.67129 0.0
C1476 C 0.42004 0.40067 0.76132 0.0
C1477 C 0.40047 0.39768 0.79478 0.0
C1478 C 0.38492 0.3955 0.73262 0.0
H1479 H 0.40725 0.70805 0.1206 0.0
H1480 H 0.34545 0.72167 0.15084 0.0
H1481 H 0.35155 0.73318 0.29749 0.0
H1482 H 0.41842 0.67892 0.23426 0.0
H1483 H 0.43911 0.68466 0.30312 0.0
H1484 H 0.43589 0.7003 0.19986 0.0
H1485 H 0.43693 0.73547 0.28193 0.0
H1486 H 0.43937 0.71909 0.38557 0.0
H1487 H 0.41983 0.73901 0.37036 0.0
H1488 H 0.35314 0.70437 0.41012 0.0
H1489 H 0.35787 0.66871 0.48749 0.0
H1490 H 0.42045 0.67151 0.42548 0.0
C1491 C 0.39548 0.71497 0.15738 0.0
C1492 C 0.37581 0.71211 0.1304 0.0
C1493 C 0.36055 0.72242 0.17391 0.0
C1494 C 0.36404 0.72906 0.25759 0.0
C1495 C 0.38236 0.72379 0.29635 0.0
C1496 C 0.39888 0.71987 0.2446 0.0
C1497 C 0.41519 0.70911 0.30226 0.0
C1498 C 0.42781 0.69219 0.25712 0.0
C1499 C 0.42859 0.72672 0.33715 0.0
C1500 C 0.40253 0.69877 0.37585 0.0
C1501 C 0.38398 0.70848 0.37431 0.0
C1502 C 0.36797 0.6978 0.41664 0.0
C1503 C 0.37078 0.67713 0.45992 0.0
C1504 C 0.38979 0.66742 0.46647 0.0
C1505 C 0.40584 0.67862 0.42411 0.0
H1506 H 0.59966 0.65297 0.92972 0.0
H1507 H 0.66336 0.65165 0.96755 0.0
H1508 H 0.66818 0.65178 0.8082 0.0
H1509 H 0.59947 0.6173 0.74824 0.0
H1510 H 0.58015 0.63194 0.68663 0.0
H1511 H 0.58093 0.63193 0.805 0.0
H1512 H 0.58119 0.67421 0.791 0.0
H1513 H 0.5804 0.6744 0.67258 0.0
H1514 H 0.5999 0.68862 0.72461 0.0
H1515 H 0.66716 0.65253 0.64829 0.0
H1516 H 0.6607 0.65289 0.4914 0.0
H1517 H 0.59732 0.65308 0.54145 0.0
C1518 C 0.6146 0.65274 0.90428 0.0
C1519 C 0.63115 0.65237 0.96273 0.0
C1520 C 0.65039 0.65196 0.9258 0.0
C1521 C 0.65333 0.65204 0.83467 0.0
C1522 C 0.63693 0.65246 0.77939 0.0
C1523 C 0.61789 0.65273 0.81195 0.0
C1524 C 0.6031 0.65293 0.73542 0.0
C1525 C 0.59014 0.63229 0.74437 0.0
C1526 C 0.59039 0.67379 0.73064 0.0
C1527 C 0.61691 0.65288 0.65539 0.0
C1528 C 0.63631 0.65262 0.68385 0.0
C1529 C 0.65203 0.65263 0.62521 0.0
C1530 C 0.64806 0.65279 0.53514 0.0
C1531 C 0.62842 0.65285 0.50172 0.0
C1532 C 0.61252 0.653 0.56362 0.0
H1533 H 0.66671 0.3652 0.67531 0.0
H1534 H 0.6514 0.43349 0.69014 0.0
H1535 H 0.6497 0.43857 0.52876 0.0
H1536 H 0.69829 0.37545 0.47272 0.0
H1537 H 0.69117 0.34941 0.43608 0.0
H1538 H 0.6916 0.35343 0.5522 0.0
H1539 H 0.65363 0.34015 0.55489 0.0
H1540 H 0.65508 0.3381 0.4376 0.0
H1541 H 0.63656 0.35521 0.48237 0.0
H1542 H 0.64974 0.43714 0.36769 0.0
H1543 H 0.65204 0.42987 0.21335 0.0
H1544 H 0.66844 0.36228 0.28995 0.0
C1545 C 0.66307 0.38117 0.64456 0.0
C1546 C 0.65927 0.3989 0.69704 0.0
C1547 C 0.65445 0.41956 0.65301 0.0
C1548 C 0.65341 0.42265 0.5607 0.0
C1549 C 0.65739 0.40502 0.51139 0.0
C1550 C 0.66225 0.38468 0.55113 0.0
C1551 C 0.66647 0.36888 0.48057 0.0
C1552 C 0.68814 0.36128 0.48566 0.0
C1553 C 0.65211 0.34941 0.48937 0.0
C1554 C 0.66275 0.38342 0.3954 0.0
C1555 C 0.65763 0.40422 0.416 0.0
C1556 C 0.65374 0.42092 0.35087 0.0
C1557 C 0.65517 0.41649 0.26244 0.0
C1558 C 0.66048 0.39541 0.2373 0.0
C1559 C 0.66427 0.37855 0.30571 0.0
H1560 H 0.92822 0.64767 0.01549 0.0
H1561 H 0.86492 0.64202 0.97338 0.0
H1562 H 0.85932 0.63979 0.13197 0.0
H1563 H 0.93052 0.6109 0.21673 0.0
H1564 H 0.94803 0.62699 0.27268 0.0
H1565 H 0.94798 0.62812 0.15396 0.0
H1566 H 0.94378 0.67015 0.14545 0.0
H1567 H 0.94388 0.66916 0.26415 0.0
H1568 H 0.92349 0.68175 0.20277 0.0
H1569 H 0.85945 0.63701 0.2921 0.0
H1570 H 0.86503 0.63622 0.45023 0.0
H1571 H 0.92812 0.64519 0.40485 0.0
C1572 C 0.9132 0.64603 0.03978 0.0
C1573 C 0.89704 0.64486 0.97992 0.0
C1574 C 0.87767 0.6428 0.01575 0.0
C1575 C 0.87425 0.64151 0.10669 0.0
C1576 C 0.89026 0.64249 0.16331 0.0
C1577 C 0.90938 0.64491 0.13217 0.0
C1578 C 0.92361 0.64591 0.21027 0.0
C1579 C 0.93842 0.62684 0.21358 0.0
C1580 C 0.93433 0.66806 0.20535 0.0
C1581 C 0.90939 0.64351 0.28918 0.0
C1582 C 0.89029 0.64146 0.25907 0.0
C1583 C 0.87434 0.63875 0.31654 0.0
C1584 C 0.87776 0.63834 0.40722 0.0
C1585 C 0.89703 0.64078 0.44209 0.0
C1586 C 0.91318 0.6433 0.38138 0.0
H1587 H 0.65124 0.17221 0.65421 0.0
H1588 H 0.66554 0.10352 0.639 0.0
H1589 H 0.66632 0.09806 0.80017 0.0
H1590 H 0.68242 0.17955 0.84761 0.0
H1591 H 0.66494 0.19826 0.89049 0.0
H1592 H 0.66599 0.19507 0.77373 0.0
H1593 H 0.62817 0.18731 0.78082 0.0
H1594 H 0.62818 0.18844 0.89875 0.0
H1595 H 0.61955 0.1642 0.8516 0.0
H1596 H 0.6664 0.0993 0.96143 0.0
H1597 H 0.6657 0.10691 0.1159 0.0
H1598 H 0.65132 0.17507 0.0397 0.0
C1599 C 0.65445 0.15601 0.68488 0.0
C1600 C 0.65831 0.1383 0.63221 0.0
C1601 C 0.66248 0.11744 0.67615 0.0
C1602 C 0.66295 0.1141 0.76844 0.0
C1603 C 0.65913 0.1317 0.81799 0.0
C1604 C 0.65488 0.15224 0.77844 0.0
C1605 C 0.65174 0.16819 0.84943 0.0
C1606 C 0.66723 0.1864 0.84014 0.0
C1607 C 0.63065 0.1776 0.84486 0.0
C1608 C 0.65497 0.15345 0.9343 0.0
C1609 C 0.65918 0.13244 0.91345 0.0
C1610 C 0.66306 0.11569 0.9784 0.0
C1611 C 0.66263 0.12033 0.06683 0.0
C1612 C 0.65843 0.14169 0.09202 0.0
C1613 C 0.65459 0.15857 0.02384 0.0
H1614 H 0.1525 0.38697 0.22986 0.0
H1615 H 0.08951 0.39751 0.26558 0.0
H1616 H 0.08462 0.39862 0.10623 0.0
H1617 H 0.15708 0.42246 0.02416 0.0
H1618 H 0.17424 0.40496 0.97276 0.0
H1619 H 0.1736 0.40499 0.09115 0.0
H1620 H 0.16787 0.36317 0.10549 0.0
H1621 H 0.1685 0.363 0.98716 0.0
H1622 H 0.14742 0.35195 0.04834 0.0
H1623 H 0.08546 0.39884 0.94649 0.0
H1624 H 0.09169 0.39776 0.78975 0.0
H1625 H 0.15431 0.38663 0.84173 0.0
C1626 C 0.1377 0.38953 0.20397 0.0
C1627 C 0.12139 0.39215 0.26194 0.0
C1628 C 0.10232 0.39542 0.22432 0.0
C1629 C 0.09933 0.39611 0.13313 0.0
C1630 C 0.11549 0.39348 0.07836 0.0
C1631 C 0.13435 0.39023 0.11147 0.0
C1632 C 0.14887 0.38778 0.0353 0.0
C1633 C 0.16437 0.40614 0.03058 0.0
C1634 C 0.15875 0.36512 0.04465 0.0
C1635 C 0.13511 0.39012 0.955 0.0
C1636 C 0.11598 0.39345 0.98288 0.0
C1637 C 0.10037 0.39619 0.92384 0.0
C1638 C 0.10419 0.39548 0.8339 0.0
C1639 C 0.12354 0.39196 0.80116 0.0
C1640 C 0.13933 0.3893 0.86346 0.0
H1641 H 0.33631 0.91718 0.01988 0.0
H1642 H 0.38779 0.93613 0.16306 0.0
H1643 H 0.3919 0.9682 0.06181 0.0
H1644 H 0.34346 0.9175 0.85033 0.0
H1645 H 0.32698 0.93439 0.78018 0.0
H1646 H 0.31944 0.92528 0.88937 0.0
H1647 H 0.31286 0.96493 0.92129 0.0
H1648 H 0.32076 0.97419 0.81117 0.0
H1649 H 0.33191 0.98535 0.90484 0.0
H1650 H 0.4039 0.97671 0.91877 0.0
H1651 H 0.4167 0.95861 0.79353 0.0
H1652 H 0.35722 0.94302 0.71969 0.0
C1653 C 0.34774 0.92885 0.03173 0.0
C1654 C 0.36231 0.9233 0.0956 0.0
C1655 C 0.37704 0.9389 0.11102 0.0
C1656 C 0.37913 0.95786 0.055 0.0
C1657 C 0.36657 0.96112 0.98273 0.0
C1658 C 0.3499 0.94807 0.97523 0.0
C1659 C 0.34147 0.95181 0.88336 0.0
C1660 C 0.3324 0.93096 0.84883 0.0
C1661 C 0.32586 0.97017 0.88003 0.0
C1662 C 0.36007 0.96006 0.8356 0.0
C1663 C 0.37338 0.96833 0.89427 0.0
C1664 C 0.39352 0.97048 0.87304 0.0
C1665 C 0.40086 0.95985 0.80228 0.0
C1666 C 0.38786 0.94858 0.75033 0.0
C1667 C 0.36732 0.95138 0.76005 0.0
H1668 H 0.92888 0.89514 0.28207 0.0
H1669 H 0.86546 0.8997 0.32457 0.0
H1670 H 0.85989 0.901 0.16597 0.0
H1671 H 0.9301 0.93165 0.07885 0.0
H1672 H 0.9482 0.91602 0.02387 0.0
H1673 H 0.94807 0.91535 0.1425 0.0
H1674 H 0.94532 0.87316 0.15352 0.0
H1675 H 0.94547 0.8737 0.03494 0.0
H1676 H 0.92548 0.86053 0.09729 0.0
H1677 H 0.86002 0.90223 1.00569 0.0
H1678 H 0.86577 0.90248 0.84751 0.0
H1679 H 0.9291 0.89671 0.89336 0.0
C1680 C 0.91385 0.89637 0.25786 0.0
C1681 C 0.89764 0.89729 0.31775 0.0
C1682 C 0.87824 0.89892 0.28205 0.0
C1683 C 0.87484 0.8997 0.19119 0.0
C1684 C 0.8909 0.89881 0.13453 0.0
C1685 C 0.91006 0.89711 0.16558 0.0
C1686 C 0.92438 0.89637 0.08756 0.0
C1687 C 0.93853 0.91602 0.08294 0.0
C1688 C 0.93585 0.87464 0.09371 0.0
C1689 C 0.91016 0.89792 1.00879 0.0
C1690 C 0.89097 0.89937 0.03881 0.0
C1691 C 0.87499 0.90107 0.98131 0.0
C1692 C 0.87851 0.90121 0.89068 0.0
C1693 C 0.89793 0.89962 0.85601 0.0
C1694 C 0.91406 0.89797 0.91674 0.0
H1695 H 0.89229 0.07759 0.94875 0.0
H1696 H 0.84175 0.09819 0.09327 0.0
H1697 H 0.82071 0.09455 0.9675 0.0
H1698 H 0.89572 0.10185 0.80195 0.0
H1699 H 0.89736 0.08734 0.70426 0.0
H1700 H 0.90302 0.07334 0.80825 0.0
H1701 H 0.87734 0.04397 0.77942 0.0
H1702 H 0.87111 0.05845 0.67498 0.0
H1703 H 0.85206 0.05148 0.75506 0.0
H1704 H 0.81678 0.1189 0.83976 0.0
H1705 H 0.82612 0.14947 0.73456 0.0
H1706 H 0.87399 0.11046 0.64154 0.0
C1707 C 0.87648 0.0797 0.95406 0.0
C1708 C 0.86892 0.08949 0.02711 0.0
C1709 C 0.84822 0.09146 0.03648 0.0
C1710 C 0.83594 0.08922 0.96463 0.0
C1711 C 0.84463 0.08498 0.88481 0.0
C1712 C 0.86412 0.07756 0.88113 0.0
C1713 C 0.87115 0.07885 0.78626 0.0
C1714 C 0.89307 0.08585 0.77473 0.0
C1715 C 0.86769 0.0569 0.74667 0.0
C1716 C 0.8567 0.09581 0.74704 0.0
C1717 C 0.84059 0.09788 0.80216 0.0
C1718 C 0.82874 0.11671 0.79405 0.0
C1719 C 0.83435 0.13434 0.7348 0.0
C1720 C 0.85136 0.13287 0.68195 0.0
C1721 C 0.86144 0.11265 0.6834 0.0
H1722 H 0.09504 0.14745 0.04338 0.0
H1723 H 0.15771 0.15757 0.98894 0.0
H1724 H 0.1643 0.15788 0.14554 0.0
H1725 H 0.09315 0.18253 0.22797 0.0
H1726 H 0.07649 0.16513 0.29449 0.0
H1727 H 0.07573 0.1655 0.176 0.0
H1728 H 0.08095 0.12357 0.18749 0.0
H1729 H 0.08174 0.12313 0.30599 0.0
H1730 H 0.10197 0.11187 0.24716 0.0
H1731 H 0.16554 0.15698 0.30556 0.0
H1732 H 0.16094 0.15567 0.46536 0.0
H1733 H 0.09773 0.1466 0.43182 0.0
C1734 C 0.1101 0.14978 0.06454 0.0
C1735 C 0.12577 0.15243 1.00147 0.0
C1736 C 0.14525 0.15542 0.03357 0.0
C1737 C 0.14929 0.15564 0.12347 0.0
C1738 C 0.1338 0.15294 0.18324 0.0
C1739 C 0.11455 0.15013 0.15609 0.0
C1740 C 0.10096 0.14772 0.23719 0.0
C1741 C 0.08567 0.16633 0.23368 0.0
C1742 C 0.0908 0.12523 0.24489 0.0
C1743 C 0.1157 0.14962 0.31276 0.0
C1744 C 0.13453 0.15257 0.27885 0.0
C1745 C 0.15085 0.15471 0.33307 0.0
C1746 C 0.14804 0.15392 0.42449 0.0
C1747 C 0.12899 0.15103 0.46281 0.0
C1748 C 0.11253 0.14882 0.40541 0.0
H1749 H 0.16513 0.8648 0.76066 0.0
H1750 H 0.15147 0.93313 0.68445 0.0
H1751 H 0.15037 0.94065 0.83888 0.0
H1752 H 0.134 0.85957 0.95766 0.0
H1753 H 0.15109 0.84327 0.02597 0.0
H1754 H 0.15122 0.84174 0.90824 0.0
H1755 H 0.18792 0.85097 0.90278 0.0
H1756 H 0.18921 0.85435 0.01926 0.0
H1757 H 0.19655 0.87634 0.94073 0.0
H1758 H 0.15173 0.94229 0.99976 0.0
H1759 H 0.15407 0.93721 0.161 0.0
H1760 H 0.1655 0.86805 0.14584 0.0
C1761 C 0.16174 0.88126 0.77658 0.0
C1762 C 0.15842 0.8983 0.70828 0.0
C1763 C 0.15419 0.91963 0.73351 0.0
C1764 C 0.15349 0.9242 0.82196 0.0
C1765 C 0.15699 0.90736 0.88699 0.0
C1766 C 0.16093 0.88626 0.86631 0.0
C1767 C 0.1645 0.87159 0.95139 0.0
C1768 C 0.14931 0.85292 0.96137 0.0
C1769 C 0.18578 0.86274 0.9536 0.0
C1770 C 0.16149 0.88769 0.02193 0.0
C1771 C 0.15745 0.90827 0.9823 0.0
C1772 C 0.15477 0.92618 0.03163 0.0
C1773 C 0.15619 0.92309 0.12385 0.0
C1774 C 0.16005 0.90217 0.16779 0.0
C1775 C 0.16261 0.8842 0.11527 0.0
loop_
_geom_bond_atom_site_label_1
_geom_bond_atom_site_label_2
_geom_bond_distance
_geom_bond_site_symmetry_2
_ccdc_geom_bond_type
Co0 N5 2.057 . S
Co0 O17 2.021 . S
Co0 O20 2.062 . S
Co0 O24 2.117 . S
Co0 O25 2.020 . S
C1 O21 1.259 . S
C1 O24 1.258 . S
Co2 N11 2.057 . S
Co2 O18 2.117 . S
Co2 O19 2.020 . S
Co2 O21 2.021 . S
Co2 O26 2.062 . S
C3 N5 1.316 . S
C3 N6 1.347 . S
C3 H8 0.931 . S
C4 N5 1.375 . S
C4 C7 1.350 . S
C4 H9 0.930 . S
N5 Co0 2.057 . S
N5 C3 1.316 . S
N5 C4 1.375 . S
N6 C3 1.347 . S
N6 C7 1.373 . S
C7 C4 1.350 . S
C7 N6 1.373 . S
C7 H28 0.931 . S
H8 C3 0.931 . S
H9 C4 0.930 . S
C10 O17 1.259 . S
C10 O18 1.258 . S
N11 Co2 2.057 . S
N11 C12 1.316 . S
N11 C13 1.375 . S
C12 N11 1.316 . S
C12 N14 1.347 . S
C12 H23 0.931 . S
C13 N11 1.375 . S
C13 C15 1.350 . S
C13 H22 0.930 . S
N14 C12 1.347 . S
N14 C15 1.373 . S
C15 C13 1.350 . S
C15 N14 1.373 . S
C15 H29 0.931 . S
C16 O19 1.256 1_556 S
C16 O20 1.255 1_556 S
O17 Co0 2.021 . S
O17 C10 1.259 . S
O18 Co2 2.117 . S
O18 C10 1.258 . S
O19 Co2 2.020 . S
O19 C16 1.256 1_554 S
O20 Co0 2.062 . S
O20 C16 1.255 1_554 S
O21 C1 1.259 . S
O21 Co2 2.021 . S
H22 C13 0.930 . S
H23 C12 0.931 . S
O24 Co0 2.117 . S
O24 C1 1.258 . S
O25 Co0 2.020 . S
O25 C27 1.256 . S
O26 Co2 2.062 . S
O26 C27 1.255 . S
C27 O25 1.256 . S
C27 O26 1.255 . S
H28 C7 0.931 . S
H29 C15 0.931 . S
Co30 N35 2.057 . S
Co30 O47 2.021 . S
Co30 O50 2.062 . S
Co30 O54 2.117 . S
Co30 O55 2.020 . S
C31 O51 1.259 . S
C31 O54 1.258 . S
Co32 N41 2.057 . S
Co32 O48 2.117 . S
Co32 O49 2.020 . S
Co32 O51 2.021 . S
Co32 O56 2.053 1_556 S
C33 N35 1.316 . S
C33 N36 1.347 . S
C33 H38 0.931 . S
C34 N35 1.375 . S
C34 C37 1.350 . S
C34 H39 0.930 . S
N35 Co30 2.057 . S
N35 C33 1.316 . S
N35 C34 1.375 . S
N36 C33 1.347 . S
N36 C37 1.373 . S
C37 C34 1.350 . S
C37 N36 1.373 . S
C37 H58 0.931 . S
H38 C33 0.931 . S
H39 C34 0.930 . S
C40 O47 1.259 . S
C40 O48 1.258 . S
N41 Co32 2.057 . S
N41 C42 1.316 . S
N41 C43 1.375 . S
C42 N41 1.316 . S
C42 N44 1.347 . S
C42 H53 0.931 . S
C43 N41 1.375 . S
C43 C45 1.350 . S
C43 H52 0.930 . S
N44 C42 1.347 . S
N44 C45 1.373 . S
C45 C43 1.350 . S
C45 N44 1.373 . S
C45 H59 0.931 . S
C46 O49 1.256 . S
C46 O50 1.255 . S
O47 Co30 2.021 . S
O47 C40 1.259 . S
O48 Co32 2.117 . S
O48 C40 1.258 . S
O49 Co32 2.020 . S
O49 C46 1.256 . S
O50 Co30 2.062 . S
O50 C46 1.255 . S
O51 C31 1.259 . S
O51 Co32 2.021 . S
H52 C43 0.930 . S
H53 C42 0.931 . S
O54 Co30 2.117 . S
O54 C31 1.258 . S
O55 Co30 2.020 . S
O55 C57 1.256 1_556 S
O56 Co32 2.053 1_554 S
O56 C57 1.258 . S
C57 O55 1.256 1_554 S
C57 O56 1.258 . S
H58 C37 0.931 . S
H59 C45 0.931 . S
Co60 N65 2.057 . S
Co60 O77 2.021 . S
Co60 O80 2.062 1_554 S
Co60 O84 2.117 . S
Co60 O85 2.020 . S
C61 O81 1.259 . S
C61 O84 1.258 . S
Co62 N71 2.057 . S
Co62 O78 2.117 . S
Co62 O79 2.020 . S
Co62 O81 2.021 . S
Co62 O86 2.062 . S
C63 N65 1.316 . S
C63 N66 1.347 . S
C63 H68 0.931 . S
C64 N65 1.375 . S
C64 C67 1.350 . S
C64 H69 0.930 . S
N65 Co60 2.057 . S
N65 C63 1.316 . S
N65 C64 1.375 . S
N66 C63 1.347 . S
N66 C67 1.373 . S
C67 C64 1.350 . S
C67 N66 1.373 . S
C67 H88 0.931 . S
H68 C63 0.931 . S
H69 C64 0.930 . S
C70 O77 1.259 . S
C70 O78 1.258 . S
N71 Co62 2.057 . S
N71 C72 1.316 . S
N71 C73 1.375 . S
C72 N71 1.316 . S
C72 N74 1.347 . S
C72 H83 0.931 . S
C73 N71 1.375 . S
C73 C75 1.350 . S
C73 H82 0.930 . S
N74 C72 1.347 . S
N74 C75 1.373 . S
C75 C73 1.350 . S
C75 N74 1.373 . S
C75 H89 0.931 . S
C76 O79 1.256 1_556 S
C76 O80 1.255 . S
O77 Co60 2.021 . S
O77 C70 1.259 . S
O78 Co62 2.117 . S
O78 C70 1.258 . S
O79 Co62 2.020 . S
O79 C76 1.256 1_554 S
O80 Co60 2.062 1_556 S
O80 C76 1.255 . S
O81 C61 1.259 . S
O81 Co62 2.021 . S
H82 C73 0.930 . S
H83 C72 0.931 . S
O84 Co60 2.117 . S
O84 C61 1.258 . S
O85 Co60 2.020 . S
O85 C87 1.256 . S
O86 Co62 2.062 . S
O86 C87 1.255 . S
C87 O85 1.256 . S
C87 O86 1.255 . S
H88 C67 0.931 . S
H89 C75 0.931 . S
Co90 N95 2.057 1_556 S
Co90 O107 2.021 . S
Co90 O110 2.062 . S
Co90 O114 2.117 . S
Co90 O115 2.020 . S
C91 O111 1.259 . S
C91 O114 1.258 . S
Co92 N101 2.057 . S
Co92 O108 2.117 . S
Co92 O109 2.020 . S
Co92 O111 2.021 . S
Co92 O116 2.062 . S
C93 N95 1.316 . S
C93 N96 1.347 . S
C93 H98 0.931 . S
C94 N95 1.375 . S
C94 C97 1.350 . S
C94 H99 0.930 . S
N95 Co90 2.057 1_554 S
N95 C93 1.316 . S
N95 C94 1.375 . S
N96 C93 1.347 . S
N96 C97 1.373 . S
C97 C94 1.350 . S
C97 N96 1.373 . S
C97 H118 0.931 . S
H98 C93 0.931 . S
H99 C94 0.930 . S
C100 O107 1.259 . S
C100 O108 1.258 . S
N101 Co92 2.057 . S
N101 C102 1.316 . S
N101 C103 1.375 . S
C102 N101 1.316 . S
C102 N104 1.347 . S
C102 H113 0.931 . S
C103 N101 1.375 . S
C103 C105 1.350 . S
C103 H112 0.930 . S
N104 C102 1.347 . S
N104 C105 1.373 . S
C105 C103 1.350 . S
C105 N104 1.373 . S
C105 H119 0.931 . S
C106 O109 1.256 . S
C106 O110 1.255 . S
O107 Co90 2.021 . S
O107 C100 1.259 . S
O108 Co92 2.117 . S
O108 C100 1.258 . S
O109 Co92 2.020 . S
O109 C106 1.256 . S
O110 Co90 2.062 . S
O110 C106 1.255 . S
O111 C91 1.259 . S
O111 Co92 2.021 . S
H112 C103 0.930 . S
H113 C102 0.931 . S
O114 Co90 2.117 . S
O114 C91 1.258 . S
O115 Co90 2.020 . S
O115 C117 1.256 . S
O116 Co92 2.062 . S
O116 C117 1.255 . S
C117 O115 1.256 . S
C117 O116 1.255 . S
H118 C97 0.931 . S
H119 C105 0.931 . S
Co120 N125 2.057 . S
Co120 O137 2.021 . S
Co120 O140 2.062 . S
Co120 O144 2.117 . S
Co120 O145 2.020 1_554 S
C121 O141 1.259 . S
C121 O144 1.258 . S
Co122 N131 2.057 . S
Co122 O138 2.117 . S
Co122 O139 2.020 . S
Co122 O141 2.021 . S
Co122 O146 2.062 1_554 S
C123 N125 1.316 . S
C123 N126 1.347 . S
C123 H128 0.931 . S
C124 N125 1.375 . S
C124 C127 1.350 . S
C124 H129 0.930 . S
N125 Co120 2.057 . S
N125 C123 1.316 . S
N125 C124 1.375 . S
N126 C123 1.347 . S
N126 C127 1.373 . S
C127 C124 1.350 . S
C127 N126 1.373 . S
C127 H148 0.931 . S
H128 C123 0.931 . S
H129 C124 0.930 . S
C130 O137 1.259 . S
C130 O138 1.258 . S
N131 Co122 2.057 . S
N131 C132 1.316 . S
N131 C133 1.375 . S
C132 N131 1.316 . S
C132 N134 1.347 . S
C132 H143 0.931 . S
C133 N131 1.375 . S
C133 C135 1.350 . S
C133 H142 0.930 . S
N134 C132 1.347 . S
N134 C135 1.373 . S
C135 C133 1.350 . S
C135 N134 1.373 . S
C135 H149 0.931 . S
C136 O139 1.256 . S
C136 O140 1.255 . S
O137 Co120 2.021 . S
O137 C130 1.259 . S
O138 Co122 2.117 . S
O138 C130 1.258 . S
O139 Co122 2.020 . S
O139 C136 1.256 . S
O140 Co120 2.062 . S
O140 C136 1.255 . S
O141 C121 1.259 . S
O141 Co122 2.021 . S
H142 C133 0.930 . S
H143 C132 0.931 . S
O144 Co120 2.117 . S
O144 C121 1.258 . S
O145 Co120 2.020 1_556 S
O145 C147 1.256 . S
O146 Co122 2.062 1_556 S
O146 C147 1.255 . S
C147 O145 1.256 . S
C147 O146 1.255 . S
H148 C127 0.931 . S
H149 C135 0.931 . S
Co150 N155 2.057 . S
Co150 O167 2.021 . S
Co150 O170 2.062 . S
Co150 O174 2.117 . S
Co150 O175 2.020 . S
C151 O171 1.259 . S
C151 O174 1.258 . S
Co152 N161 2.057 1_556 S
Co152 O168 2.117 . S
Co152 O169 2.020 . S
Co152 O171 2.021 . S
Co152 O176 2.062 . S
C153 N155 1.316 . S
C153 N156 1.347 . S
C153 H158 0.931 . S
C154 N155 1.375 . S
C154 C157 1.350 . S
C154 H159 0.930 . S
N155 Co150 2.057 . S
N155 C153 1.316 . S
N155 C154 1.375 . S
N156 C153 1.347 . S
N156 C157 1.373 . S
C157 C154 1.350 . S
C157 N156 1.373 . S
C157 H178 0.931 . S
H158 C153 0.931 . S
H159 C154 0.930 . S
C160 O167 1.259 . S
C160 O168 1.258 . S
N161 Co152 2.057 1_554 S
N161 C162 1.316 . S
N161 C163 1.375 . S
C162 N161 1.316 . S
C162 N164 1.347 . S
C162 H173 0.931 . S
C163 N161 1.375 . S
C163 C165 1.350 . S
C163 H172 0.930 . S
N164 C162 1.347 . S
N164 C165 1.373 . S
C165 C163 1.350 . S
C165 N164 1.373 . S
C165 H179 0.931 . S
C166 O169 1.256 . S
C166 O170 1.255 . S
O167 Co150 2.021 . S
O167 C160 1.259 . S
O168 Co152 2.117 . S
O168 C160 1.258 . S
O169 Co152 2.020 . S
O169 C166 1.256 . S
O170 Co150 2.062 . S
O170 C166 1.255 . S
O171 C151 1.259 . S
O171 Co152 2.021 . S
H172 C163 0.930 . S
H173 C162 0.931 . S
O174 Co150 2.117 . S
O174 C151 1.258 . S
O175 Co150 2.020 . S
O175 C177 1.256 . S
O176 Co152 2.062 . S
O176 C177 1.255 . S
C177 O175 1.256 . S
C177 O176 1.255 . S
H178 C157 0.931 . S
H179 C165 0.931 . S
Co180 N185 2.057 . S
Co180 O197 2.021 . S
Co180 O200 2.062 . S
Co180 O204 2.117 . S
Co180 O205 2.020 1_554 S
C181 O201 1.259 . S
C181 O204 1.258 . S
Co182 N191 2.057 . S
Co182 O198 2.117 . S
Co182 O199 2.020 . S
Co182 O201 2.021 . S
Co182 O206 2.062 1_554 S
C183 N185 1.316 . S
C183 N186 1.347 . S
C183 H188 0.931 . S
C184 N185 1.375 . S
C184 C187 1.350 . S
C184 H189 0.930 . S
N185 Co180 2.057 . S
N185 C183 1.316 . S
N185 C184 1.375 . S
N186 C183 1.347 . S
N186 C187 1.373 . S
C187 C184 1.350 . S
C187 N186 1.373 . S
C187 H208 0.931 . S
H188 C183 0.931 . S
H189 C184 0.930 . S
C190 O197 1.259 . S
C190 O198 1.258 . S
N191 Co182 2.057 . S
N191 C192 1.316 . S
N191 C193 1.375 . S
C192 N191 1.316 . S
C192 N194 1.347 . S
C192 H203 0.931 . S
C193 N191 1.375 . S
C193 C195 1.350 . S
C193 H202 0.930 . S
N194 C192 1.347 . S
N194 C195 1.373 . S
C195 C193 1.350 . S
C195 N194 1.373 . S
C195 H209 0.931 . S
C196 O199 1.256 . S
C196 O200 1.255 . S
O197 Co180 2.021 . S
O197 C190 1.259 . S
O198 Co182 2.117 . S
O198 C190 1.258 . S
O199 Co182 2.020 . S
O199 C196 1.256 . S
O200 Co180 2.062 . S
O200 C196 1.255 . S
O201 C181 1.259 . S
O201 Co182 2.021 . S
H202 C193 0.930 . S
H203 C192 0.931 . S
O204 Co180 2.117 . S
O204 C181 1.258 . S
O205 Co180 2.020 1_556 S
O205 C207 1.256 . S
O206 Co182 2.062 1_556 S
O206 C207 1.255 . S
C207 O205 1.256 . S
C207 O206 1.255 . S
H208 C187 0.931 . S
H209 C195 0.931 . S
Co210 N215 2.057 . S
Co210 O227 2.021 . S
Co210 O230 2.062 1_556 S
Co210 O234 2.117 . S
Co210 O235 2.020 . S
C211 O231 1.259 . S
C211 O234 1.258 . S
Co212 N221 2.057 . S
Co212 O228 2.117 . S
Co212 O229 2.020 1_556 S
Co212 O231 2.021 . S
Co212 O236 2.062 . S
C213 N215 1.316 . S
C213 N216 1.347 . S
C213 H218 0.931 . S
C214 N215 1.375 . S
C214 C217 1.350 . S
C214 H219 0.930 . S
N215 Co210 2.057 . S
N215 C213 1.316 . S
N215 C214 1.375 . S
N216 C213 1.347 . S
N216 C217 1.373 . S
C217 C214 1.350 . S
C217 N216 1.373 . S
C217 H238 0.931 . S
H218 C213 0.931 . S
H219 C214 0.930 . S
C220 O227 1.259 . S
C220 O228 1.258 . S
N221 Co212 2.057 . S
N221 C222 1.316 . S
N221 C223 1.375 . S
C222 N221 1.316 . S
C222 N224 1.347 . S
C222 H233 0.931 . S
C223 N221 1.375 . S
C223 C225 1.350 . S
C223 H232 0.930 . S
N224 C222 1.347 . S
N224 C225 1.373 . S
C225 C223 1.350 . S
C225 N224 1.373 . S
C225 H239 0.931 . S
C226 O229 1.256 . S
C226 O230 1.255 . S
O227 Co210 2.021 . S
O227 C220 1.259 . S
O228 Co212 2.117 . S
O228 C220 1.258 . S
O229 Co212 2.020 1_554 S
O229 C226 1.256 . S
O230 Co210 2.062 1_554 S
O230 C226 1.255 . S
O231 C211 1.259 . S
O231 Co212 2.021 . S
H232 C223 0.930 . S
H233 C222 0.931 . S
O234 Co210 2.117 . S
O234 C211 1.258 . S
O235 Co210 2.020 . S
O235 C237 1.256 . S
O236 Co212 2.062 . S
O236 C237 1.255 . S
C237 O235 1.256 . S
C237 O236 1.255 . S
H238 C217 0.931 . S
H239 C225 0.931 . S
Co240 N245 2.057 . S
Co240 O257 2.021 . S
Co240 O260 2.062 . S
Co240 O264 2.117 . S
Co240 O265 2.020 . S
C241 O261 1.259 . S
C241 O264 1.258 . S
Co242 N251 2.057 . S
Co242 O258 2.117 . S
Co242 O259 2.020 . S
Co242 O261 2.021 . S
Co242 O266 2.062 . S
C243 N245 1.316 . S
C243 N246 1.347 . S
C243 H248 0.931 . S
C244 N245 1.375 . S
C244 C247 1.350 . S
C244 H249 0.930 . S
N245 Co240 2.057 . S
N245 C243 1.316 . S
N245 C244 1.375 . S
N246 C243 1.347 . S
N246 C247 1.373 . S
C247 C244 1.350 . S
C247 N246 1.373 . S
C247 H268 0.931 . S
H248 C243 0.931 . S
H249 C244 0.930 . S
C250 O257 1.259 . S
C250 O258 1.258 . S
N251 Co242 2.057 . S
N251 C252 1.316 . S
N251 C253 1.375 . S
C252 N251 1.316 . S
C252 N254 1.347 . S
C252 H263 0.931 . S
C253 N251 1.375 . S
C253 C255 1.350 . S
C253 H262 0.930 . S
N254 C252 1.347 . S
N254 C255 1.373 . S
C255 C253 1.350 . S
C255 N254 1.373 . S
C255 H269 0.931 . S
C256 O259 1.256 . S
C256 O260 1.255 . S
O257 Co240 2.021 . S
O257 C250 1.259 . S
O258 Co242 2.117 . S
O258 C250 1.258 . S
O259 Co242 2.020 . S
O259 C256 1.256 . S
O260 Co240 2.062 . S
O260 C256 1.255 . S
O261 C241 1.259 . S
O261 Co242 2.021 . S
H262 C253 0.930 . S
H263 C252 0.931 . S
O264 Co240 2.117 . S
O264 C241 1.258 . S
O265 Co240 2.020 . S
O265 C267 1.256 . S
O266 Co242 2.062 . S
O266 C267 1.255 . S
C267 O265 1.256 . S
C267 O266 1.255 . S
H268 C247 0.931 . S
H269 C255 0.931 . S
Co270 N275 2.057 . S
Co270 O287 2.021 . S
Co270 O290 2.062 . S
Co270 O294 2.117 . S
Co270 O295 2.020 . S
C271 O291 1.259 . S
C271 O294 1.258 . S
Co272 N281 2.057 . S
Co272 O288 2.117 . S
Co272 O289 2.020 . S
Co272 O291 2.021 . S
Co272 O296 2.062 . S
C273 N275 1.316 . S
C273 N276 1.347 . S
C273 H278 0.931 . S
C274 N275 1.375 . S
C274 C277 1.350 . S
C274 H279 0.930 . S
N275 Co270 2.057 . S
N275 C273 1.316 . S
N275 C274 1.375 . S
N276 C273 1.347 . S
N276 C277 1.373 . S
C277 C274 1.350 . S
C277 N276 1.373 . S
C277 H298 0.931 . S
H278 C273 0.931 . S
H279 C274 0.930 . S
C280 O287 1.259 . S
C280 O288 1.258 . S
N281 Co272 2.057 . S
N281 C282 1.316 . S
N281 C283 1.375 . S
C282 N281 1.316 . S
C282 N284 1.347 . S
C282 H293 0.931 . S
C283 N281 1.375 . S
C283 C285 1.350 . S
C283 H292 0.930 . S
N284 C282 1.347 . S
N284 C285 1.373 . S
C285 C283 1.350 . S
C285 N284 1.373 . S
C285 H299 0.931 . S
C286 O289 1.256 . S
C286 O290 1.255 . S
O287 Co270 2.021 . S
O287 C280 1.259 . S
O288 Co272 2.117 . S
O288 C280 1.258 . S
O289 Co272 2.020 . S
O289 C286 1.256 . S
O290 Co270 2.062 . S
O290 C286 1.255 . S
O291 C271 1.259 . S
O291 Co272 2.021 . S
H292 C283 0.930 . S
H293 C282 0.931 . S
O294 Co270 2.117 . S
O294 C271 1.258 . S
O295 Co270 2.020 . S
O295 C297 1.256 . S
O296 Co272 2.062 . S
O296 C297 1.255 . S
C297 O295 1.256 . S
C297 O296 1.255 . S
H298 C277 0.931 . S
H299 C285 0.931 . S
Co300 N305 2.057 . S
Co300 O317 2.021 . S
Co300 O320 2.062 . S
Co300 O324 2.117 . S
Co300 O325 2.020 . S
C301 O321 1.259 . S
C301 O324 1.258 . S
Co302 N311 2.057 . S
Co302 O318 2.117 . S
Co302 O319 2.020 . S
Co302 O321 2.021 . S
Co302 O326 2.062 . S
C303 N305 1.316 . S
C303 N306 1.347 . S
C303 H308 0.931 . S
C304 N305 1.375 . S
C304 C307 1.350 . S
C304 H309 0.930 . S
N305 Co300 2.057 . S
N305 C303 1.316 . S
N305 C304 1.375 . S
N306 C303 1.347 . S
N306 C307 1.373 . S
C307 C304 1.350 . S
C307 N306 1.373 . S
C307 H328 0.931 . S
H308 C303 0.931 . S
H309 C304 0.930 . S
C310 O317 1.259 . S
C310 O318 1.258 . S
N311 Co302 2.057 . S
N311 C312 1.316 . S
N311 C313 1.375 . S
C312 N311 1.316 . S
C312 N314 1.347 . S
C312 H323 0.931 . S
C313 N311 1.375 . S
C313 C315 1.350 . S
C313 H322 0.930 . S
N314 C312 1.347 . S
N314 C315 1.373 . S
C315 C313 1.350 . S
C315 N314 1.373 . S
C315 H329 0.931 . S
C316 O319 1.256 . S
C316 O320 1.255 . S
O317 Co300 2.021 . S
O317 C310 1.259 . S
O318 Co302 2.117 . S
O318 C310 1.258 . S
O319 Co302 2.020 . S
O319 C316 1.256 . S
O320 Co300 2.062 . S
O320 C316 1.255 . S
O321 C301 1.259 . S
O321 Co302 2.021 . S
H322 C313 0.930 . S
H323 C312 0.931 . S
O324 Co300 2.117 . S
O324 C301 1.258 . S
O325 Co300 2.020 . S
O325 C327 1.256 . S
O326 Co302 2.062 . S
O326 C327 1.255 . S
C327 O325 1.256 . S
C327 O326 1.255 . S
H328 C307 0.931 . S
H329 C315 0.931 . S
Co330 N335 2.057 . S
Co330 O347 2.021 . S
Co330 O350 2.062 . S
Co330 O354 2.117 . S
Co330 O355 2.020 . S
C331 O351 1.259 . S
C331 O354 1.258 . S
Co332 N341 2.057 . S
Co332 O348 2.117 . S
Co332 O349 2.020 . S
Co332 O351 2.021 . S
Co332 O356 2.062 . S
C333 N335 1.316 . S
C333 N336 1.347 . S
C333 H338 0.931 . S
C334 N335 1.375 . S
C334 C337 1.350 . S
C334 H339 0.930 . S
N335 Co330 2.057 . S
N335 C333 1.316 . S
N335 C334 1.375 . S
N336 C333 1.347 . S
N336 C337 1.373 . S
C337 C334 1.350 . S
C337 N336 1.373 . S
C337 H358 0.931 . S
H338 C333 0.931 . S
H339 C334 0.930 . S
C340 O347 1.259 . S
C340 O348 1.258 . S
N341 Co332 2.057 . S
N341 C342 1.316 . S
N341 C343 1.375 . S
C342 N341 1.316 . S
C342 N344 1.347 . S
C342 H353 0.931 . S
C343 N341 1.375 . S
C343 C345 1.350 . S
C343 H352 0.930 . S
N344 C342 1.347 . S
N344 C345 1.373 . S
C345 C343 1.350 . S
C345 N344 1.373 . S
C345 H359 0.931 . S
C346 O349 1.256 . S
C346 O350 1.255 . S
O347 Co330 2.021 . S
O347 C340 1.259 . S
O348 Co332 2.117 . S
O348 C340 1.258 . S
O349 Co332 2.020 . S
O349 C346 1.256 . S
O350 Co330 2.062 . S
O350 C346 1.255 . S
O351 C331 1.259 . S
O351 Co332 2.021 . S
H352 C343 0.930 . S
H353 C342 0.931 . S
O354 Co330 2.117 . S
O354 C331 1.258 . S
O355 Co330 2.020 . S
O355 C357 1.256 . S
O356 Co332 2.062 . S
O356 C357 1.255 . S
C357 O355 1.256 . S
C357 O356 1.255 . S
H358 C337 0.931 . S
H359 C345 0.931 . S
Co360 N365 2.057 . S
Co360 O377 2.021 . S
Co360 O380 2.062 . S
Co360 O384 2.117 . S
Co360 O385 2.020 . S
C361 O381 1.259 . S
C361 O384 1.258 . S
Co362 N371 2.057 . S
Co362 O378 2.117 . S
Co362 O379 2.020 . S
Co362 O381 2.021 . S
Co362 O386 2.062 . S
C363 N365 1.316 . S
C363 N366 1.347 . S
C363 H368 0.931 . S
C364 N365 1.375 . S
C364 C367 1.350 . S
C364 H369 0.930 . S
N365 Co360 2.057 . S
N365 C363 1.316 . S
N365 C364 1.375 . S
N366 C363 1.347 . S
N366 C367 1.373 . S
C367 C364 1.350 . S
C367 N366 1.373 . S
C367 H388 0.931 . S
H368 C363 0.931 . S
H369 C364 0.930 . S
C370 O377 1.259 . S
C370 O378 1.258 . S
N371 Co362 2.057 . S
N371 C372 1.316 . S
N371 C373 1.375 . S
C372 N371 1.316 . S
C372 N374 1.347 . S
C372 H383 0.931 . S
C373 N371 1.375 . S
C373 C375 1.350 . S
C373 H382 0.930 . S
N374 C372 1.347 . S
N374 C375 1.373 . S
C375 C373 1.350 . S
C375 N374 1.373 . S
C375 H389 0.931 . S
C376 O379 1.256 . S
C376 O380 1.255 . S
O377 Co360 2.021 . S
O377 C370 1.259 . S
O378 Co362 2.117 . S
O378 C370 1.258 . S
O379 Co362 2.020 . S
O379 C376 1.256 . S
O380 Co360 2.062 . S
O380 C376 1.255 . S
O381 C361 1.259 . S
O381 Co362 2.021 . S
H382 C373 0.930 . S
H383 C372 0.931 . S
O384 Co360 2.117 . S
O384 C361 1.258 . S
O385 Co360 2.020 . S
O385 C387 1.256 . S
O386 Co362 2.062 . S
O386 C387 1.255 . S
C387 O385 1.256 . S
C387 O386 1.255 . S
H388 C367 0.931 . S
H389 C375 0.931 . S
Co390 N395 2.057 . S
Co390 O407 2.021 . S
Co390 O410 2.062 . S
Co390 O414 2.117 . S
Co390 O415 2.020 . S
C391 O411 1.259 . S
C391 O414 1.258 . S
Co392 N401 2.057 . S
Co392 O408 2.117 . S
Co392 O409 2.020 . S
Co392 O411 2.021 . S
Co392 O416 2.062 . S
C393 N395 1.316 . S
C393 N396 1.347 . S
C393 H398 0.931 . S
C394 N395 1.375 . S
C394 C397 1.350 . S
C394 H399 0.930 . S
N395 Co390 2.057 . S
N395 C393 1.316 . S
N395 C394 1.375 . S
N396 C393 1.347 . S
N396 C397 1.373 . S
C397 C394 1.350 . S
C397 N396 1.373 . S
C397 H418 0.931 1_554 S
H398 C393 0.931 . S
H399 C394 0.930 . S
C400 O407 1.259 . S
C400 O408 1.258 . S
N401 Co392 2.057 . S
N401 C402 1.316 . S
N401 C403 1.375 . S
C402 N401 1.316 . S
C402 N404 1.347 . S
C402 H413 0.931 . S
C403 N401 1.375 . S
C403 C405 1.350 . S
C403 H412 0.930 . S
N404 C402 1.347 . S
N404 C405 1.373 . S
C405 C403 1.350 . S
C405 N404 1.373 . S
C405 H419 0.931 . S
C406 O409 1.256 . S
C406 O410 1.255 . S
O407 Co390 2.021 . S
O407 C400 1.259 . S
O408 Co392 2.117 . S
O408 C400 1.258 . S
O409 Co392 2.020 . S
O409 C406 1.256 . S
O410 Co390 2.062 . S
O410 C406 1.255 . S
O411 C391 1.259 . S
O411 Co392 2.021 . S
H412 C403 0.930 . S
H413 C402 0.931 . S
O414 Co390 2.117 . S
O414 C391 1.258 . S
O415 Co390 2.020 . S
O415 C417 1.256 . S
O416 Co392 2.062 . S
O416 C417 1.255 . S
C417 O415 1.256 . S
C417 O416 1.255 . S
H418 C397 0.931 1_556 S
H419 C405 0.931 . S
Co420 N425 2.057 . S
Co420 O437 2.021 . S
Co420 O440 2.062 . S
Co420 O444 2.117 . S
Co420 O445 2.020 . S
C421 O441 1.259 . S
C421 O444 1.258 . S
Co422 N431 2.057 . S
Co422 O438 2.117 . S
Co422 O439 2.020 . S
Co422 O441 2.021 . S
Co422 O446 2.062 . S
C423 N425 1.316 . S
C423 N426 1.347 . S
C423 H428 0.931 . S
C424 N425 1.375 . S
C424 C427 1.350 . S
C424 H429 0.930 . S
N425 Co420 2.057 . S
N425 C423 1.316 . S
N425 C424 1.375 . S
N426 C423 1.347 . S
N426 C427 1.373 . S
C427 C424 1.350 . S
C427 N426 1.373 . S
C427 H448 0.931 . S
H428 C423 0.931 . S
H429 C424 0.930 . S
C430 O437 1.259 . S
C430 O438 1.258 . S
N431 Co422 2.057 . S
N431 C432 1.316 . S
N431 C433 1.375 . S
C432 N431 1.316 . S
C432 N434 1.347 . S
C432 H443 0.931 . S
C433 N431 1.375 . S
C433 C435 1.350 . S
C433 H442 0.930 . S
N434 C432 1.347 . S
N434 C435 1.373 . S
C435 C433 1.350 . S
C435 N434 1.373 . S
C435 H449 0.931 . S
C436 O439 1.256 . S
C436 O440 1.255 . S
O437 Co420 2.021 . S
O437 C430 1.259 . S
O438 Co422 2.117 . S
O438 C430 1.258 . S
O439 Co422 2.020 . S
O439 C436 1.256 . S
O440 Co420 2.062 . S
O440 C436 1.255 . S
O441 C421 1.259 . S
O441 Co422 2.021 . S
H442 C433 0.930 . S
H443 C432 0.931 . S
O444 Co420 2.117 . S
O444 C421 1.258 . S
O445 Co420 2.020 . S
O445 C447 1.256 . S
O446 Co422 2.062 . S
O446 C447 1.255 . S
C447 O445 1.256 . S
C447 O446 1.255 . S
H448 C427 0.931 . S
H449 C435 0.931 . S
Co450 N455 2.057 . S
Co450 O467 2.021 . S
Co450 O470 2.062 . S
Co450 O474 2.117 . S
Co450 O475 2.020 . S
C451 O471 1.259 . S
C451 O474 1.258 . S
Co452 N461 2.057 . S
Co452 O468 2.117 . S
Co452 O469 2.020 . S
Co452 O471 2.021 . S
Co452 O476 2.062 . S
C453 N455 1.316 . S
C453 N456 1.347 . S
C453 H458 0.931 . S
C454 N455 1.375 . S
C454 C457 1.350 . S
C454 H459 0.930 . S
N455 Co450 2.057 . S
N455 C453 1.316 . S
N455 C454 1.375 . S
N456 C453 1.347 . S
N456 C457 1.373 . S
C457 C454 1.350 . S
C457 N456 1.373 . S
C457 H478 0.931 . S
H458 C453 0.931 . S
H459 C454 0.930 . S
C460 O467 1.259 . S
C460 O468 1.258 . S
N461 Co452 2.057 . S
N461 C462 1.316 . S
N461 C463 1.375 . S
C462 N461 1.316 . S
C462 N464 1.347 . S
C462 H473 0.931 . S
C463 N461 1.375 . S
C463 C465 1.350 . S
C463 H472 0.930 . S
N464 C462 1.347 . S
N464 C465 1.373 . S
C465 C463 1.350 . S
C465 N464 1.373 . S
C465 H479 0.931 . S
C466 O469 1.256 . S
C466 O470 1.255 . S
O467 Co450 2.021 . S
O467 C460 1.259 . S
O468 Co452 2.117 . S
O468 C460 1.258 . S
O469 Co452 2.020 . S
O469 C466 1.256 . S
O470 Co450 2.062 . S
O470 C466 1.255 . S
O471 C451 1.259 . S
O471 Co452 2.021 . S
H472 C463 0.930 . S
H473 C462 0.931 . S
O474 Co450 2.117 . S
O474 C451 1.258 . S
O475 Co450 2.020 . S
O475 C477 1.256 . S
O476 Co452 2.062 . S
O476 C477 1.255 . S
C477 O475 1.256 . S
C477 O476 1.255 . S
H478 C457 0.931 . S
H479 C465 0.931 . S
H480 C492 0.930 . S
H481 C494 0.930 . S
H482 C495 0.930 . S
H483 C499 0.959 . S
H484 C499 0.959 . S
H485 C499 0.961 1_565 S
H486 C500 0.960 1_565 S
H487 C500 0.961 . S
H488 C500 0.949 1_565 S
H489 C503 0.929 . S
H490 C504 0.931 . S
H491 C506 0.930 . S
C492 H480 0.930 . S
C492 C493 1.399 . S
C492 C497 1.399 . S
C493 C492 1.399 . S
C493 C494 1.376 . S
C494 H481 0.930 . S
C494 C493 1.376 . S
C494 C495 1.388 . S
C495 H482 0.930 . S
C495 C494 1.388 . S
C495 C496 1.390 . S
C496 C495 1.390 . S
C496 C497 1.394 . S
C496 C502 1.465 1_565 S
C497 C492 1.399 . S
C497 C496 1.394 . S
C497 C498 1.516 1_565 S
C498 C497 1.516 1_545 S
C498 C499 1.502 . S
C498 C500 1.561 . S
C498 C501 1.526 . S
C499 H483 0.959 . S
C499 H484 0.959 . S
C499 H485 0.961 1_545 S
C499 C498 1.502 . S
C500 H486 0.960 1_545 S
C500 H487 0.961 . S
C500 H488 0.949 1_545 S
C500 C498 1.561 . S
C501 C498 1.526 . S
C501 C502 1.396 . S
C501 C506 1.390 . S
C502 C496 1.465 1_545 S
C502 C501 1.396 . S
C502 C503 1.399 . S
C503 H489 0.929 . S
C503 C502 1.399 . S
C503 C504 1.385 . S
C504 H490 0.931 . S
C504 C503 1.385 . S
C504 C505 1.389 . S
C505 C504 1.389 . S
C505 C506 1.387 . S
C506 H491 0.930 . S
C506 C501 1.390 . S
C506 C505 1.387 . S
H507 C519 0.930 . S
H508 C521 0.930 . S
H509 C522 0.930 . S
H510 C526 0.959 . S
H511 C526 0.959 . S
H512 C526 0.961 . S
H513 C527 0.960 . S
H514 C527 0.961 . S
H515 C527 0.959 . S
H516 C530 0.929 . S
H517 C531 0.931 . S
H518 C533 0.930 . S
C519 H507 0.930 . S
C519 C520 1.399 . S
C519 C524 1.399 1_655 S
C520 C519 1.399 . S
C520 C521 1.376 . S
C521 H508 0.930 . S
C521 C520 1.376 . S
C521 C522 1.388 1_655 S
C522 H509 0.930 . S
C522 C521 1.388 1_455 S
C522 C523 1.390 . S
C523 C522 1.390 . S
C523 C524 1.394 . S
C523 C529 1.465 . S
C524 C519 1.399 1_455 S
C524 C523 1.394 . S
C524 C525 1.516 . S
C525 C524 1.516 . S
C525 C526 1.502 . S
C525 C527 1.561 . S
C525 C528 1.526 . S
C526 H510 0.959 . S
C526 H511 0.959 . S
C526 H512 0.961 . S
C526 C525 1.502 . S
C527 H513 0.960 . S
C527 H514 0.961 . S
C527 H515 0.959 . S
C527 C525 1.561 . S
C528 C525 1.526 . S
C528 C529 1.396 . S
C528 C533 1.390 . S
C529 C523 1.465 . S
C529 C528 1.396 . S
C529 C530 1.399 . S
C530 H516 0.929 . S
C530 C529 1.399 . S
C530 C531 1.385 . S
C531 H517 0.931 . S
C531 C530 1.385 . S
C531 C532 1.389 . S
C532 C531 1.389 . S
C532 C533 1.387 . S
C533 H518 0.930 . S
C533 C528 1.390 . S
C533 C532 1.387 . S
H534 C546 0.930 . S
H535 C548 0.930 . S
H536 C549 0.930 . S
H537 C553 0.959 . S
H538 C553 0.959 . S
H539 C553 0.961 . S
H540 C554 0.960 . S
H541 C554 0.961 . S
H542 C554 0.959 . S
H543 C557 0.929 . S
H544 C558 0.931 . S
H545 C560 0.930 . S
C546 H534 0.930 . S
C546 C547 1.399 . S
C546 C551 1.399 . S
C547 C546 1.399 . S
C547 C548 1.376 . S
C548 H535 0.930 . S
C548 C547 1.376 . S
C548 C549 1.388 . S
C549 H536 0.930 . S
C549 C548 1.388 . S
C549 C550 1.390 . S
C550 C549 1.390 . S
C550 C551 1.394 . S
C550 C556 1.465 . S
C551 C546 1.399 . S
C551 C550 1.394 . S
C551 C552 1.516 . S
C552 C551 1.516 . S
C552 C553 1.502 . S
C552 C554 1.561 . S
C552 C555 1.526 . S
C553 H537 0.959 . S
C553 H538 0.959 . S
C553 H539 0.961 . S
C553 C552 1.502 . S
C554 H540 0.960 . S
C554 H541 0.961 . S
C554 H542 0.959 . S
C554 C552 1.561 . S
C555 C552 1.526 . S
C555 C556 1.396 . S
C555 C560 1.390 . S
C556 C550 1.465 . S
C556 C555 1.396 . S
C556 C557 1.399 . S
C557 H543 0.929 . S
C557 C556 1.399 . S
C557 C558 1.385 1_565 S
C558 H544 0.931 . S
C558 C557 1.385 1_545 S
C558 C559 1.389 . S
C559 C558 1.389 . S
C559 C560 1.387 1_545 S
C560 H545 0.930 . S
C560 C555 1.390 . S
C560 C559 1.387 1_565 S
H561 C573 0.930 . S
H562 C575 0.930 . S
H563 C576 0.930 . S
H564 C580 0.959 . S
H565 C580 0.959 . S
H566 C580 0.961 . S
H567 C581 0.960 . S
H568 C581 0.961 . S
H569 C581 0.959 . S
H570 C584 0.929 . S
H571 C585 0.931 . S
H572 C587 0.930 . S
C573 H561 0.930 . S
C573 C574 1.399 . S
C573 C578 1.399 . S
C574 C573 1.399 . S
C574 C575 1.376 . S
C575 H562 0.930 . S
C575 C574 1.376 . S
C575 C576 1.388 . S
C576 H563 0.930 . S
C576 C575 1.388 . S
C576 C577 1.390 . S
C577 C576 1.390 . S
C577 C578 1.394 . S
C577 C583 1.465 . S
C578 C573 1.399 . S
C578 C577 1.394 . S
C578 C579 1.516 . S
C579 C578 1.516 . S
C579 C580 1.502 . S
C579 C581 1.561 . S
C579 C582 1.526 . S
C580 H564 0.959 . S
C580 H565 0.959 . S
C580 H566 0.961 . S
C580 C579 1.502 . S
C581 H567 0.960 . S
C581 H568 0.961 . S
C581 H569 0.959 . S
C581 C579 1.561 . S
C582 C579 1.526 . S
C582 C583 1.396 . S
C582 C587 1.390 1_655 S
C583 C577 1.465 . S
C583 C582 1.396 . S
C583 C584 1.399 . S
C584 H570 0.929 . S
C584 C583 1.399 . S
C584 C585 1.385 1_655 S
C585 H571 0.931 . S
C585 C584 1.385 1_455 S
C585 C586 1.389 . S
C586 C585 1.389 . S
C586 C587 1.387 . S
C587 H572 0.930 . S
C587 C582 1.390 1_455 S
C587 C586 1.387 . S
H588 C600 0.930 . S
H589 C602 0.930 . S
H590 C603 0.930 . S
H591 C607 0.959 . S
H592 C607 0.959 . S
H593 C607 0.961 . S
H594 C608 0.960 . S
H595 C608 0.961 . S
H596 C608 0.959 . S
H597 C611 0.929 . S
H598 C612 0.931 . S
H599 C614 0.930 . S
C600 H588 0.930 . S
C600 C601 1.399 . S
C600 C605 1.399 . S
C601 C600 1.399 . S
C601 C602 1.376 . S
C602 H589 0.930 . S
C602 C601 1.376 . S
C602 C603 1.388 . S
C603 H590 0.930 . S
C603 C602 1.388 . S
C603 C604 1.390 . S
C604 C603 1.390 . S
C604 C605 1.394 . S
C604 C610 1.465 1_554 S
C605 C600 1.399 . S
C605 C604 1.394 . S
C605 C606 1.516 . S
C606 C605 1.516 . S
C606 C607 1.502 1_554 S
C606 C608 1.561 . S
C606 C609 1.526 1_554 S
C607 H591 0.959 . S
C607 H592 0.959 . S
C607 H593 0.961 . S
C607 C606 1.502 1_556 S
C608 H594 0.960 . S
C608 H595 0.961 . S
C608 H596 0.959 . S
C608 C606 1.561 . S
C609 C606 1.526 1_556 S
C609 C610 1.396 . S
C609 C614 1.390 . S
C610 C604 1.465 1_556 S
C610 C609 1.396 . S
C610 C611 1.399 . S
C611 H597 0.929 . S
C611 C610 1.399 . S
C611 C612 1.385 . S
C612 H598 0.931 . S
C612 C611 1.385 . S
C612 C613 1.389 . S
C613 C612 1.389 . S
C613 C614 1.387 . S
C614 H599 0.930 . S
C614 C609 1.390 . S
C614 C613 1.387 . S
H615 C627 0.930 . S
H616 C629 0.930 . S
H617 C630 0.930 . S
H618 C634 0.959 . S
H619 C634 0.959 . S
H620 C634 0.961 . S
H621 C635 0.960 . S
H622 C635 0.961 . S
H623 C635 0.959 . S
H624 C638 0.929 . S
H625 C639 0.931 . S
H626 C641 0.930 . S
C627 H615 0.930 . S
C627 C628 1.399 1_556 S
C627 C632 1.399 . S
C628 C627 1.399 1_554 S
C628 C629 1.376 . S
C629 H616 0.930 . S
C629 C628 1.376 . S
C629 C630 1.388 1_554 S
C630 H617 0.930 . S
C630 C629 1.388 1_556 S
C630 C631 1.390 . S
C631 C630 1.390 . S
C631 C632 1.394 . S
C631 C637 1.465 . S
C632 C627 1.399 . S
C632 C631 1.394 . S
C632 C633 1.516 . S
C633 C632 1.516 . S
C633 C634 1.502 . S
C633 C635 1.561 1_556 S
C633 C636 1.526 . S
C634 H618 0.959 . S
C634 H619 0.959 . S
C634 H620 0.961 . S
C634 C633 1.502 . S
C635 H621 0.960 . S
C635 H622 0.961 . S
C635 H623 0.959 . S
C635 C633 1.561 1_554 S
C636 C633 1.526 . S
C636 C637 1.396 . S
C636 C641 1.390 . S
C637 C631 1.465 . S
C637 C636 1.396 . S
C637 C638 1.399 . S
C638 H624 0.929 . S
C638 C637 1.399 . S
C638 C639 1.385 . S
C639 H625 0.931 . S
C639 C638 1.385 . S
C639 C640 1.389 . S
C640 C639 1.389 . S
C640 C641 1.387 . S
C641 H626 0.930 . S
C641 C636 1.390 . S
C641 C640 1.387 . S
H642 C654 0.930 1_556 S
H643 C656 0.930 . S
H644 C657 0.930 . S
H645 C661 0.959 . S
H646 C661 0.959 . S
H647 C661 0.961 . S
H648 C662 0.960 . S
H649 C662 0.961 . S
H650 C662 0.959 . S
H651 C665 0.929 . S
H652 C666 0.931 . S
H653 C668 0.930 . S
C654 H642 0.930 1_554 S
C654 C655 1.399 . S
C654 C659 1.399 . S
C655 C654 1.399 . S
C655 C656 1.376 . S
C656 H643 0.930 . S
C656 C655 1.376 . S
C656 C657 1.388 . S
C657 H644 0.930 . S
C657 C656 1.388 . S
C657 C658 1.390 . S
C658 C657 1.390 . S
C658 C659 1.394 . S
C658 C664 1.465 . S
C659 C654 1.399 . S
C659 C658 1.394 . S
C659 C660 1.516 1_554 S
C660 C659 1.516 1_556 S
C660 C661 1.502 . S
C660 C662 1.561 . S
C660 C663 1.526 . S
C661 H645 0.959 . S
C661 H646 0.959 . S
C661 H647 0.961 . S
C661 C660 1.502 . S
C662 H648 0.960 . S
C662 H649 0.961 . S
C662 H650 0.959 . S
C662 C660 1.561 . S
C663 C660 1.526 . S
C663 C664 1.396 1_556 S
C663 C668 1.390 . S
C664 C658 1.465 . S
C664 C663 1.396 1_554 S
C664 C665 1.399 . S
C665 H651 0.929 . S
C665 C664 1.399 . S
C665 C666 1.385 . S
C666 H652 0.931 . S
C666 C665 1.385 . S
C666 C667 1.389 1_554 S
C667 C666 1.389 1_556 S
C667 C668 1.387 . S
C668 H653 0.930 . S
C668 C663 1.390 . S
C668 C667 1.387 . S
H669 C681 0.930 . S
H670 C683 0.930 . S
H671 C684 0.930 . S
H672 C688 0.959 . S
H673 C688 0.959 . S
H674 C688 0.961 . S
H675 C689 0.960 . S
H676 C689 0.961 . S
H677 C689 0.959 1_554 S
H678 C692 0.929 . S
H679 C693 0.931 . S
H680 C695 0.930 . S
C681 H669 0.930 . S
C681 C682 1.399 1_556 S
C681 C686 1.399 . S
C682 C681 1.399 1_554 S
C682 C683 1.376 . S
C683 H670 0.930 . S
C683 C682 1.376 . S
C683 C684 1.388 . S
C684 H671 0.930 . S
C684 C683 1.388 . S
C684 C685 1.387 1_554 S
C685 C684 1.387 1_556 S
C685 C686 1.396 . S
C685 C691 1.466 . S
C686 C681 1.399 . S
C686 C685 1.396 . S
C686 C687 1.516 . S
C687 C686 1.516 . S
C687 C688 1.502 . S
C687 C689 1.561 . S
C687 C690 1.526 . S
C688 H672 0.959 . S
C688 H673 0.959 . S
C688 H674 0.961 . S
C688 C687 1.502 . S
C689 H675 0.960 . S
C689 H676 0.961 . S
C689 H677 0.959 1_556 S
C689 C687 1.561 . S
C690 C687 1.526 . S
C690 C691 1.396 . S
C690 C695 1.390 . S
C691 C685 1.466 . S
C691 C690 1.396 . S
C691 C692 1.399 1_556 S
C692 H678 0.929 . S
C692 C691 1.399 1_554 S
C692 C693 1.385 1_554 S
C693 H679 0.931 . S
C693 C692 1.385 1_556 S
C693 C694 1.389 . S
C694 C693 1.389 . S
C694 C695 1.387 . S
C695 H680 0.930 . S
C695 C690 1.390 . S
C695 C694 1.387 . S
H696 C708 0.930 . S
H697 C710 0.930 . S
H698 C711 0.930 . S
H699 C715 0.959 . S
H700 C715 0.959 . S
H701 C715 0.961 . S
H702 C716 0.960 . S
H703 C716 0.961 . S
H704 C716 0.959 . S
H705 C719 0.929 . S
H706 C720 0.931 . S
H707 C722 0.930 . S
C708 H696 0.930 . S
C708 C709 1.399 . S
C708 C713 1.399 . S
C709 C708 1.399 . S
C709 C710 1.376 . S
C710 H697 0.930 . S
C710 C709 1.376 . S
C710 C711 1.388 . S
C711 H698 0.930 . S
C711 C710 1.388 . S
C711 C712 1.390 . S
C712 C711 1.390 . S
C712 C713 1.394 . S
C712 C718 1.465 . S
C713 C708 1.399 . S
C713 C712 1.394 . S
C713 C714 1.516 . S
C714 C713 1.516 . S
C714 C715 1.502 . S
C714 C716 1.561 . S
C714 C717 1.526 . S
C715 H699 0.959 . S
C715 H700 0.959 . S
C715 H701 0.961 . S
C715 C714 1.502 . S
C716 H702 0.960 . S
C716 H703 0.961 . S
C716 H704 0.959 . S
C716 C714 1.561 . S
C717 C714 1.526 . S
C717 C718 1.396 . S
C717 C722 1.390 . S
C718 C712 1.465 . S
C718 C717 1.396 . S
C718 C719 1.399 . S
C719 H705 0.929 . S
C719 C718 1.399 . S
C719 C720 1.385 . S
C720 H706 0.931 . S
C720 C719 1.385 . S
C720 C721 1.389 . S
C721 C720 1.389 . S
C721 C722 1.387 . S
C722 H707 0.930 . S
C722 C717 1.390 . S
C722 C721 1.387 . S
H723 C735 0.930 . S
H724 C737 0.930 . S
H725 C738 0.930 . S
H726 C742 0.959 . S
H727 C742 0.959 . S
H728 C742 0.961 . S
H729 C743 0.960 . S
H730 C743 0.961 . S
H731 C743 0.959 . S
H732 C746 0.929 . S
H733 C747 0.931 . S
H734 C749 0.930 . S
C735 H723 0.930 . S
C735 C736 1.399 . S
C735 C740 1.399 . S
C736 C735 1.399 . S
C736 C737 1.376 . S
C737 H724 0.930 . S
C737 C736 1.376 . S
C737 C738 1.388 . S
C738 H725 0.930 . S
C738 C737 1.388 . S
C738 C739 1.390 . S
C739 C738 1.390 . S
C739 C740 1.394 . S
C739 C745 1.465 . S
C740 C735 1.399 . S
C740 C739 1.394 . S
C740 C741 1.516 . S
C741 C740 1.516 . S
C741 C742 1.502 . S
C741 C743 1.561 . S
C741 C744 1.526 . S
C742 H726 0.959 . S
C742 H727 0.959 . S
C742 H728 0.961 . S
C742 C741 1.502 . S
C743 H729 0.960 . S
C743 H730 0.961 . S
C743 H731 0.959 . S
C743 C741 1.561 . S
C744 C741 1.526 . S
C744 C745 1.396 . S
C744 C749 1.390 . S
C745 C739 1.465 . S
C745 C744 1.396 . S
C745 C746 1.399 . S
C746 H732 0.929 . S
C746 C745 1.399 . S
C746 C747 1.385 . S
C747 H733 0.931 . S
C747 C746 1.385 . S
C747 C748 1.389 . S
C748 C747 1.389 . S
C748 C749 1.387 . S
C749 H734 0.930 . S
C749 C744 1.390 . S
C749 C748 1.387 . S
H750 C762 0.930 . S
H751 C764 0.930 . S
H752 C765 0.930 . S
H753 C769 0.959 . S
H754 C769 0.959 . S
H755 C769 0.961 . S
H756 C770 0.960 . S
H757 C770 0.961 . S
H758 C770 0.959 . S
H759 C773 0.929 . S
H760 C774 0.931 . S
H761 C776 0.930 . S
C762 H750 0.930 . S
C762 C763 1.399 . S
C762 C767 1.399 . S
C763 C762 1.399 . S
C763 C764 1.376 . S
C764 H751 0.930 . S
C764 C763 1.376 . S
C764 C765 1.388 . S
C765 H752 0.930 . S
C765 C764 1.388 . S
C765 C766 1.390 . S
C766 C765 1.390 . S
C766 C767 1.394 . S
C766 C772 1.465 . S
C767 C762 1.399 . S
C767 C766 1.394 . S
C767 C768 1.516 . S
C768 C767 1.516 . S
C768 C769 1.502 . S
C768 C770 1.561 . S
C768 C771 1.526 . S
C769 H753 0.959 . S
C769 H754 0.959 . S
C769 H755 0.961 . S
C769 C768 1.502 . S
C770 H756 0.960 . S
C770 H757 0.961 . S
C770 H758 0.959 . S
C770 C768 1.561 . S
C771 C768 1.526 . S
C771 C772 1.396 . S
C771 C776 1.390 . S
C772 C766 1.465 . S
C772 C771 1.396 . S
C772 C773 1.399 . S
C773 H759 0.929 . S
C773 C772 1.399 . S
C773 C774 1.385 . S
C774 H760 0.931 . S
C774 C773 1.385 . S
C774 C775 1.389 . S
C775 C774 1.389 . S
C775 C776 1.387 . S
C776 H761 0.930 . S
C776 C771 1.390 . S
C776 C775 1.387 . S
H777 C789 0.930 . S
H778 C791 0.930 . S
H779 C792 0.930 . S
H780 C796 0.959 . S
H781 C796 0.959 . S
H782 C796 0.961 . S
H783 C797 0.960 . S
H784 C797 0.961 . S
H785 C797 0.959 . S
H786 C800 0.929 . S
H787 C801 0.931 . S
H788 C803 0.930 . S
C789 H777 0.930 . S
C789 C790 1.399 . S
C789 C794 1.399 . S
C790 C789 1.399 . S
C790 C791 1.376 . S
C791 H778 0.930 . S
C791 C790 1.376 . S
C791 C792 1.388 . S
C792 H779 0.930 . S
C792 C791 1.388 . S
C792 C793 1.390 . S
C793 C792 1.390 . S
C793 C794 1.394 . S
C793 C799 1.465 . S
C794 C789 1.399 . S
C794 C793 1.394 . S
C794 C795 1.516 . S
C795 C794 1.516 . S
C795 C796 1.502 . S
C795 C797 1.561 . S
C795 C798 1.526 . S
C796 H780 0.959 . S
C796 H781 0.959 . S
C796 H782 0.961 . S
C796 C795 1.502 . S
C797 H783 0.960 . S
C797 H784 0.961 . S
C797 H785 0.959 . S
C797 C795 1.561 . S
C798 C795 1.526 . S
C798 C799 1.396 . S
C798 C803 1.390 . S
C799 C793 1.465 . S
C799 C798 1.396 . S
C799 C800 1.399 . S
C800 H786 0.929 . S
C800 C799 1.399 . S
C800 C801 1.385 . S
C801 H787 0.931 . S
C801 C800 1.385 . S
C801 C802 1.389 . S
C802 C801 1.389 . S
C802 C803 1.387 . S
C803 H788 0.930 . S
C803 C798 1.390 . S
C803 C802 1.387 . S
H804 C816 0.930 . S
H805 C818 0.930 . S
H806 C819 0.930 . S
H807 C823 0.957 1_565 S
H808 C823 0.959 . S
H809 C823 0.961 1_565 S
H810 C824 0.960 1_565 S
H811 C824 0.961 . S
H812 C824 0.959 . S
H813 C827 0.929 . S
H814 C828 0.931 . S
H815 C830 0.930 . S
C816 H804 0.930 . S
C816 C817 1.399 . S
C816 C821 1.399 . S
C817 C816 1.399 . S
C817 C818 1.376 . S
C818 H805 0.930 . S
C818 C817 1.376 . S
C818 C819 1.388 . S
C819 H806 0.930 . S
C819 C818 1.388 . S
C819 C820 1.390 . S
C820 C819 1.390 . S
C820 C821 1.394 . S
C820 C826 1.465 1_565 S
C821 C816 1.399 . S
C821 C820 1.394 . S
C821 C822 1.516 1_565 S
C822 C821 1.516 1_545 S
C822 C823 1.502 . S
C822 C824 1.561 . S
C822 C825 1.526 . S
C823 H807 0.957 1_545 S
C823 H808 0.959 . S
C823 H809 0.961 1_545 S
C823 C822 1.502 . S
C824 H810 0.960 1_545 S
C824 H811 0.961 . S
C824 H812 0.959 . S
C824 C822 1.561 . S
C825 C822 1.526 . S
C825 C826 1.396 . S
C825 C830 1.390 . S
C826 C820 1.465 1_545 S
C826 C825 1.396 . S
C826 C827 1.399 . S
C827 H813 0.929 . S
C827 C826 1.399 . S
C827 C828 1.385 . S
C828 H814 0.931 . S
C828 C827 1.385 . S
C828 C829 1.389 . S
C829 C828 1.389 . S
C829 C830 1.387 . S
C830 H815 0.930 . S
C830 C825 1.390 . S
C830 C829 1.387 . S
H831 C843 0.930 . S
H832 C845 0.930 . S
H833 C846 0.930 . S
H834 C850 0.959 . S
H835 C850 0.959 . S
H836 C850 0.961 . S
H837 C851 0.960 . S
H838 C851 0.961 . S
H839 C851 0.959 . S
H840 C854 0.929 . S
H841 C855 0.931 . S
H842 C857 0.930 . S
C843 H831 0.930 . S
C843 C844 1.399 . S
C843 C848 1.399 1_455 S
C844 C843 1.399 . S
C844 C845 1.376 . S
C845 H832 0.930 . S
C845 C844 1.376 . S
C845 C846 1.388 1_455 S
C846 H833 0.930 . S
C846 C845 1.388 1_655 S
C846 C847 1.390 . S
C847 C846 1.390 . S
C847 C848 1.394 . S
C847 C853 1.465 . S
C848 C843 1.399 1_655 S
C848 C847 1.394 . S
C848 C849 1.516 . S
C849 C848 1.516 . S
C849 C850 1.502 . S
C849 C851 1.561 . S
C849 C852 1.526 . S
C850 H834 0.959 . S
C850 H835 0.959 . S
C850 H836 0.961 . S
C850 C849 1.502 . S
C851 H837 0.960 . S
C851 H838 0.961 . S
C851 H839 0.959 . S
C851 C849 1.561 . S
C852 C849 1.526 . S
C852 C853 1.396 . S
C852 C857 1.390 . S
C853 C847 1.465 . S
C853 C852 1.396 . S
C853 C854 1.399 . S
C854 H840 0.929 . S
C854 C853 1.399 . S
C854 C855 1.385 . S
C855 H841 0.931 . S
C855 C854 1.385 . S
C855 C856 1.389 . S
C856 C855 1.389 . S
C856 C857 1.387 . S
C857 H842 0.930 . S
C857 C852 1.390 . S
C857 C856 1.387 . S
H858 C870 0.930 . S
H859 C872 0.930 . S
H860 C873 0.933 . S
H861 C877 0.959 . S
H862 C877 0.959 . S
H863 C877 0.961 . S
H864 C878 0.960 . S
H865 C878 0.961 . S
H866 C878 0.959 . S
H867 C881 0.929 . S
H868 C882 0.931 . S
H869 C884 0.930 . S
C870 H858 0.930 . S
C870 C871 1.399 1_545 S
C870 C875 1.399 . S
C871 C870 1.399 1_565 S
C871 C872 1.376 . S
C872 H859 0.930 . S
C872 C871 1.376 . S
C872 C873 1.388 1_565 S
C873 H860 0.933 . S
C873 C872 1.388 1_545 S
C873 C874 1.390 . S
C874 C873 1.390 . S
C874 C875 1.394 . S
C874 C880 1.465 . S
C875 C870 1.399 . S
C875 C874 1.394 . S
C875 C876 1.516 . S
C876 C875 1.516 . S
C876 C877 1.502 . S
C876 C878 1.561 . S
C876 C879 1.526 . S
C877 H861 0.959 . S
C877 H862 0.959 . S
C877 H863 0.961 . S
C877 C876 1.502 . S
C878 H864 0.960 . S
C878 H865 0.961 . S
C878 H866 0.959 . S
C878 C876 1.561 . S
C879 C876 1.526 . S
C879 C880 1.396 . S
C879 C884 1.390 . S
C880 C874 1.465 . S
C880 C879 1.396 . S
C880 C881 1.399 . S
C881 H867 0.929 . S
C881 C880 1.399 . S
C881 C882 1.385 . S
C882 H868 0.931 . S
C882 C881 1.385 . S
C882 C883 1.389 . S
C883 C882 1.389 . S
C883 C884 1.387 . S
C884 H869 0.930 . S
C884 C879 1.390 . S
C884 C883 1.387 . S
H885 C897 0.930 . S
H886 C899 0.930 . S
H887 C900 0.930 . S
H888 C904 0.959 . S
H889 C904 0.959 . S
H890 C904 0.961 . S
H891 C905 0.960 . S
H892 C905 0.961 . S
H893 C905 0.959 . S
H894 C908 0.929 . S
H895 C909 0.931 . S
H896 C911 0.930 . S
C897 H885 0.930 . S
C897 C898 1.399 . S
C897 C902 1.399 . S
C898 C897 1.399 . S
C898 C899 1.376 . S
C899 H886 0.930 . S
C899 C898 1.376 . S
C899 C900 1.388 . S
C900 H887 0.930 . S
C900 C899 1.388 . S
C900 C901 1.390 . S
C901 C900 1.390 . S
C901 C902 1.394 . S
C901 C907 1.465 . S
C902 C897 1.399 . S
C902 C901 1.394 . S
C902 C903 1.516 . S
C903 C902 1.516 . S
C903 C904 1.502 . S
C903 C905 1.561 . S
C903 C906 1.526 . S
C904 H888 0.959 . S
C904 H889 0.959 . S
C904 H890 0.961 . S
C904 C903 1.502 . S
C905 H891 0.960 . S
C905 H892 0.961 . S
C905 H893 0.959 . S
C905 C903 1.561 . S
C906 C903 1.526 . S
C906 C907 1.396 . S
C906 C911 1.390 1_455 S
C907 C901 1.465 . S
C907 C906 1.396 . S
C907 C908 1.399 . S
C908 H894 0.929 . S
C908 C907 1.399 . S
C908 C909 1.385 1_455 S
C909 H895 0.931 . S
C909 C908 1.385 1_655 S
C909 C910 1.389 . S
C910 C909 1.389 . S
C910 C911 1.387 . S
C911 H896 0.930 . S
C911 C906 1.390 1_655 S
C911 C910 1.387 . S
H912 C924 0.930 . S
H913 C926 0.930 1_556 S
H914 C927 0.930 1_556 S
H915 C931 0.959 . S
H916 C931 0.959 . S
H917 C931 0.961 . S
H918 C932 0.960 . S
H919 C932 0.961 . S
H920 C932 0.959 . S
H921 C935 0.929 1_556 S
H922 C936 0.931 . S
H923 C938 0.930 . S
C924 H912 0.930 . S
C924 C925 1.399 . S
C924 C929 1.399 . S
C925 C924 1.399 . S
C925 C926 1.376 . S
C926 H913 0.930 1_554 S
C926 C925 1.376 . S
C926 C927 1.388 . S
C927 H914 0.930 1_554 S
C927 C926 1.388 . S
C927 C928 1.390 . S
C928 C927 1.390 . S
C928 C929 1.394 . S
C928 C934 1.465 . S
C929 C924 1.399 . S
C929 C928 1.394 . S
C929 C930 1.516 . S
C930 C929 1.516 . S
C930 C931 1.502 . S
C930 C932 1.561 . S
C930 C933 1.526 . S
C931 H915 0.959 . S
C931 H916 0.959 . S
C931 H917 0.961 . S
C931 C930 1.502 . S
C932 H918 0.960 . S
C932 H919 0.961 . S
C932 H920 0.959 . S
C932 C930 1.561 . S
C933 C930 1.526 . S
C933 C934 1.396 . S
C933 C938 1.390 . S
C934 C928 1.465 . S
C934 C933 1.396 . S
C934 C935 1.399 . S
C935 H921 0.929 1_554 S
C935 C934 1.399 . S
C935 C936 1.385 . S
C936 H922 0.931 . S
C936 C935 1.385 . S
C936 C937 1.389 . S
C937 C936 1.389 . S
C937 C938 1.387 . S
C938 H923 0.930 . S
C938 C933 1.390 . S
C938 C937 1.387 . S
H939 C951 0.930 . S
H940 C953 0.930 . S
H941 C954 0.930 1_554 S
H942 C958 0.959 . S
H943 C958 0.959 . S
H944 C958 0.961 . S
H945 C959 0.960 . S
H946 C959 0.961 . S
H947 C959 0.959 . S
H948 C962 0.929 1_554 S
H949 C963 0.931 1_554 S
H950 C965 0.930 . S
C951 H939 0.930 . S
C951 C952 1.399 . S
C951 C956 1.399 . S
C952 C951 1.399 . S
C952 C953 1.376 . S
C953 H940 0.930 . S
C953 C952 1.376 . S
C953 C954 1.388 . S
C954 H941 0.930 1_556 S
C954 C953 1.388 . S
C954 C955 1.390 . S
C955 C954 1.390 . S
C955 C956 1.394 . S
C955 C961 1.465 . S
C956 C951 1.399 . S
C956 C955 1.394 . S
C956 C957 1.516 . S
C957 C956 1.516 . S
C957 C958 1.502 . S
C957 C959 1.561 . S
C957 C960 1.526 . S
C958 H942 0.959 . S
C958 H943 0.959 . S
C958 H944 0.961 . S
C958 C957 1.502 . S
C959 H945 0.960 . S
C959 H946 0.961 . S
C959 H947 0.959 . S
C959 C957 1.561 . S
C960 C957 1.526 . S
C960 C961 1.396 . S
C960 C965 1.390 . S
C961 C955 1.465 . S
C961 C960 1.396 . S
C961 C962 1.399 . S
C962 H948 0.929 1_556 S
C962 C961 1.399 . S
C962 C963 1.385 . S
C963 H949 0.931 1_556 S
C963 C962 1.385 . S
C963 C964 1.389 . S
C964 C963 1.389 . S
C964 C965 1.387 . S
C965 H950 0.930 . S
C965 C960 1.390 . S
C965 C964 1.387 . S
H966 C978 0.930 . S
H967 C980 0.930 . S
H968 C981 0.930 . S
H969 C985 0.959 1_554 S
H970 C985 0.959 . S
H971 C985 0.961 . S
H972 C986 0.960 . S
H973 C986 0.961 . S
H974 C986 0.959 . S
H975 C989 0.929 . S
H976 C990 0.931 . S
H977 C992 0.930 . S
C978 H966 0.930 . S
C978 C979 1.399 . S
C978 C983 1.399 . S
C979 C978 1.399 . S
C979 C980 1.376 . S
C980 H967 0.930 . S
C980 C979 1.376 . S
C980 C981 1.388 . S
C981 H968 0.930 . S
C981 C980 1.388 . S
C981 C982 1.390 . S
C982 C981 1.390 . S
C982 C983 1.394 . S
C982 C988 1.465 . S
C983 C978 1.399 . S
C983 C982 1.394 . S
C983 C984 1.516 . S
C984 C983 1.516 . S
C984 C985 1.502 1_554 S
C984 C986 1.561 1_554 S
C984 C987 1.526 . S
C985 H969 0.959 1_556 S
C985 H970 0.959 . S
C985 H971 0.961 . S
C985 C984 1.502 1_556 S
C986 H972 0.960 . S
C986 H973 0.961 . S
C986 H974 0.959 . S
C986 C984 1.561 1_556 S
C987 C984 1.526 . S
C987 C988 1.396 . S
C987 C992 1.390 . S
C988 C982 1.465 . S
C988 C987 1.396 . S
C988 C989 1.399 . S
C989 H975 0.929 . S
C989 C988 1.399 . S
C989 C990 1.385 . S
C990 H976 0.931 . S
C990 C989 1.385 . S
C990 C991 1.389 . S
C991 C990 1.389 . S
C991 C992 1.387 . S
C992 H977 0.930 . S
C992 C987 1.390 . S
C992 C991 1.387 . S
H993 C1005 0.930 . S
H994 C1007 0.930 1_554 S
H995 C1008 0.930 . S
H996 C1012 0.959 . S
H997 C1012 0.959 . S
H998 C1012 0.961 . S
H999 C1013 0.960 . S
H1000 C1013 0.961 . S
H1001 C1013 0.959 . S
H1002 C1016 0.929 1_554 S
H1003 C1017 0.931 1_554 S
H1004 C1019 0.930 . S
C1005 H993 0.930 . S
C1005 C1006 1.399 . S
C1005 C1010 1.399 . S
C1006 C1005 1.399 . S
C1006 C1007 1.376 . S
C1007 H994 0.930 1_556 S
C1007 C1006 1.376 . S
C1007 C1008 1.388 1_556 S
C1008 H995 0.930 . S
C1008 C1007 1.388 1_554 S
C1008 C1009 1.390 1_554 S
C1009 C1008 1.390 1_556 S
C1009 C1010 1.394 . S
C1009 C1015 1.465 . S
C1010 C1005 1.399 . S
C1010 C1009 1.394 . S
C1010 C1011 1.516 . S
C1011 C1010 1.516 . S
C1011 C1012 1.502 . S
C1011 C1013 1.561 . S
C1011 C1014 1.526 . S
C1012 H996 0.959 . S
C1012 H997 0.959 . S
C1012 H998 0.961 . S
C1012 C1011 1.502 . S
C1013 H999 0.960 . S
C1013 H1000 0.961 . S
C1013 H1001 0.959 . S
C1013 C1011 1.561 . S
C1014 C1011 1.526 . S
C1014 C1015 1.396 . S
C1014 C1019 1.390 . S
C1015 C1009 1.465 . S
C1015 C1014 1.396 . S
C1015 C1016 1.399 . S
C1016 H1002 0.929 1_556 S
C1016 C1015 1.399 . S
C1016 C1017 1.385 . S
C1017 H1003 0.931 1_556 S
C1017 C1016 1.385 . S
C1017 C1018 1.389 . S
C1018 C1017 1.389 . S
C1018 C1019 1.387 . S
C1019 H1004 0.930 . S
C1019 C1014 1.390 . S
C1019 C1018 1.387 . S
H1020 C1032 0.930 . S
H1021 C1034 0.930 . S
H1022 C1035 0.930 . S
H1023 C1039 0.959 . S
H1024 C1039 0.959 . S
H1025 C1039 0.961 . S
H1026 C1040 0.960 . S
H1027 C1040 0.961 . S
H1028 C1040 0.959 . S
H1029 C1043 0.929 . S
H1030 C1044 0.931 . S
H1031 C1046 0.930 . S
C1032 H1020 0.930 . S
C1032 C1033 1.399 . S
C1032 C1037 1.399 . S
C1033 C1032 1.399 . S
C1033 C1034 1.376 . S
C1034 H1021 0.930 . S
C1034 C1033 1.376 . S
C1034 C1035 1.388 . S
C1035 H1022 0.930 . S
C1035 C1034 1.388 . S
C1035 C1036 1.390 . S
C1036 C1035 1.390 . S
C1036 C1037 1.394 . S
C1036 C1042 1.465 . S
C1037 C1032 1.399 . S
C1037 C1036 1.394 . S
C1037 C1038 1.516 . S
C1038 C1037 1.516 . S
C1038 C1039 1.502 . S
C1038 C1040 1.561 . S
C1038 C1041 1.526 . S
C1039 H1023 0.959 . S
C1039 H1024 0.959 . S
C1039 H1025 0.961 . S
C1039 C1038 1.502 . S
C1040 H1026 0.960 . S
C1040 H1027 0.961 . S
C1040 H1028 0.959 . S
C1040 C1038 1.561 . S
C1041 C1038 1.526 . S
C1041 C1042 1.396 . S
C1041 C1046 1.390 . S
C1042 C1036 1.465 . S
C1042 C1041 1.396 . S
C1042 C1043 1.399 . S
C1043 H1029 0.929 . S
C1043 C1042 1.399 . S
C1043 C1044 1.385 . S
C1044 H1030 0.931 . S
C1044 C1043 1.385 . S
C1044 C1045 1.389 . S
C1045 C1044 1.389 . S
C1045 C1046 1.387 . S
C1046 H1031 0.930 . S
C1046 C1041 1.390 . S
C1046 C1045 1.387 . S
H1047 C1059 0.930 . S
H1048 C1061 0.930 . S
H1049 C1062 0.930 . S
H1050 C1066 0.959 . S
H1051 C1066 0.959 . S
H1052 C1066 0.961 . S
H1053 C1067 0.960 . S
H1054 C1067 0.961 . S
H1055 C1067 0.959 . S
H1056 C1070 0.929 . S
H1057 C1071 0.931 . S
H1058 C1073 0.930 . S
C1059 H1047 0.930 . S
C1059 C1060 1.399 . S
C1059 C1064 1.399 . S
C1060 C1059 1.399 . S
C1060 C1061 1.376 . S
C1061 H1048 0.930 . S
C1061 C1060 1.376 . S
C1061 C1062 1.388 . S
C1062 H1049 0.930 . S
C1062 C1061 1.388 . S
C1062 C1063 1.390 . S
C1063 C1062 1.390 . S
C1063 C1064 1.394 . S
C1063 C1069 1.465 . S
C1064 C1059 1.399 . S
C1064 C1063 1.394 . S
C1064 C1065 1.516 . S
C1065 C1064 1.516 . S
C1065 C1066 1.502 . S
C1065 C1067 1.561 . S
C1065 C1068 1.526 . S
C1066 H1050 0.959 . S
C1066 H1051 0.959 . S
C1066 H1052 0.961 . S
C1066 C1065 1.502 . S
C1067 H1053 0.960 . S
C1067 H1054 0.961 . S
C1067 H1055 0.959 . S
C1067 C1065 1.561 . S
C1068 C1065 1.526 . S
C1068 C1069 1.396 . S
C1068 C1073 1.390 . S
C1069 C1063 1.465 . S
C1069 C1068 1.396 . S
C1069 C1070 1.399 . S
C1070 H1056 0.929 . S
C1070 C1069 1.399 . S
C1070 C1071 1.385 . S
C1071 H1057 0.931 . S
C1071 C1070 1.385 . S
C1071 C1072 1.389 . S
C1072 C1071 1.389 . S
C1072 C1073 1.387 . S
C1073 H1058 0.930 . S
C1073 C1068 1.390 . S
C1073 C1072 1.387 . S
H1074 C1086 0.930 . S
H1075 C1088 0.930 . S
H1076 C1089 0.930 . S
H1077 C1093 0.959 . S
H1078 C1093 0.959 . S
H1079 C1093 0.961 . S
H1080 C1094 0.960 . S
H1081 C1094 0.961 . S
H1082 C1094 0.959 . S
H1083 C1097 0.929 . S
H1084 C1098 0.931 . S
H1085 C1100 0.930 . S
C1086 H1074 0.930 . S
C1086 C1087 1.399 . S
C1086 C1091 1.399 . S
C1087 C1086 1.399 . S
C1087 C1088 1.376 . S
C1088 H1075 0.930 . S
C1088 C1087 1.376 . S
C1088 C1089 1.388 . S
C1089 H1076 0.930 . S
C1089 C1088 1.388 . S
C1089 C1090 1.390 . S
C1090 C1089 1.390 . S
C1090 C1091 1.394 . S
C1090 C1096 1.465 . S
C1091 C1086 1.399 . S
C1091 C1090 1.394 . S
C1091 C1092 1.516 . S
C1092 C1091 1.516 . S
C1092 C1093 1.502 . S
C1092 C1094 1.561 . S
C1092 C1095 1.526 . S
C1093 H1077 0.959 . S
C1093 H1078 0.959 . S
C1093 H1079 0.961 . S
C1093 C1092 1.502 . S
C1094 H1080 0.960 . S
C1094 H1081 0.961 . S
C1094 H1082 0.959 . S
C1094 C1092 1.561 . S
C1095 C1092 1.526 . S
C1095 C1096 1.396 . S
C1095 C1100 1.390 . S
C1096 C1090 1.465 . S
C1096 C1095 1.396 . S
C1096 C1097 1.399 . S
C1097 H1083 0.929 . S
C1097 C1096 1.399 . S
C1097 C1098 1.385 . S
C1098 H1084 0.931 . S
C1098 C1097 1.385 . S
C1098 C1099 1.389 . S
C1099 C1098 1.389 . S
C1099 C1100 1.387 . S
C1100 H1085 0.930 . S
C1100 C1095 1.390 . S
C1100 C1099 1.387 . S
H1101 C1113 0.930 . S
H1102 C1115 0.930 . S
H1103 C1116 0.930 . S
H1104 C1120 0.959 . S
H1105 C1120 0.959 . S
H1106 C1120 0.961 . S
H1107 C1121 0.960 . S
H1108 C1121 0.961 . S
H1109 C1121 0.959 . S
H1110 C1124 0.929 . S
H1111 C1125 0.931 . S
H1112 C1127 0.930 . S
C1113 H1101 0.930 . S
C1113 C1114 1.399 . S
C1113 C1118 1.399 . S
C1114 C1113 1.399 . S
C1114 C1115 1.376 . S
C1115 H1102 0.930 . S
C1115 C1114 1.376 . S
C1115 C1116 1.388 . S
C1116 H1103 0.930 . S
C1116 C1115 1.388 . S
C1116 C1117 1.390 . S
C1117 C1116 1.390 . S
C1117 C1118 1.394 . S
C1117 C1123 1.465 . S
C1118 C1113 1.399 . S
C1118 C1117 1.394 . S
C1118 C1119 1.516 . S
C1119 C1118 1.516 . S
C1119 C1120 1.502 . S
C1119 C1121 1.561 . S
C1119 C1122 1.526 . S
C1120 H1104 0.959 . S
C1120 H1105 0.959 . S
C1120 H1106 0.961 . S
C1120 C1119 1.502 . S
C1121 H1107 0.960 . S
C1121 H1108 0.961 . S
C1121 H1109 0.959 . S
C1121 C1119 1.561 . S
C1122 C1119 1.526 . S
C1122 C1123 1.396 . S
C1122 C1127 1.390 . S
C1123 C1117 1.465 . S
C1123 C1122 1.396 . S
C1123 C1124 1.399 . S
C1124 H1110 0.929 . S
C1124 C1123 1.399 . S
C1124 C1125 1.385 . S
C1125 H1111 0.931 . S
C1125 C1124 1.385 . S
C1125 C1126 1.389 . S
C1126 C1125 1.389 . S
C1126 C1127 1.387 . S
C1127 H1112 0.930 . S
C1127 C1122 1.390 . S
C1127 C1126 1.387 . S
H1128 C1140 0.930 . S
H1129 C1142 0.930 . S
H1130 C1143 0.930 . S
H1131 C1147 0.959 . S
H1132 C1147 0.959 . S
H1133 C1147 0.961 . S
H1134 C1148 0.960 . S
H1135 C1148 0.961 . S
H1136 C1148 0.959 . S
H1137 C1151 0.929 . S
H1138 C1152 0.931 . S
H1139 C1154 0.930 . S
C1140 H1128 0.930 . S
C1140 C1141 1.399 . S
C1140 C1145 1.399 . S
C1141 C1140 1.399 . S
C1141 C1142 1.376 . S
C1142 H1129 0.930 . S
C1142 C1141 1.376 . S
C1142 C1143 1.388 . S
C1143 H1130 0.930 . S
C1143 C1142 1.388 . S
C1143 C1144 1.390 . S
C1144 C1143 1.390 . S
C1144 C1145 1.394 . S
C1144 C1150 1.465 . S
C1145 C1140 1.399 . S
C1145 C1144 1.394 . S
C1145 C1146 1.516 . S
C1146 C1145 1.516 . S
C1146 C1147 1.502 . S
C1146 C1148 1.561 . S
C1146 C1149 1.526 . S
C1147 H1131 0.959 . S
C1147 H1132 0.959 . S
C1147 H1133 0.961 . S
C1147 C1146 1.502 . S
C1148 H1134 0.960 . S
C1148 H1135 0.961 . S
C1148 H1136 0.959 . S
C1148 C1146 1.561 . S
C1149 C1146 1.526 . S
C1149 C1150 1.396 . S
C1149 C1154 1.390 . S
C1150 C1144 1.465 . S
C1150 C1149 1.396 . S
C1150 C1151 1.399 . S
C1151 H1137 0.929 . S
C1151 C1150 1.399 . S
C1151 C1152 1.385 1_556 S
C1152 H1138 0.931 . S
C1152 C1151 1.385 1_554 S
C1152 C1153 1.389 . S
C1153 C1152 1.389 . S
C1153 C1154 1.387 1_554 S
C1154 H1139 0.930 . S
C1154 C1149 1.390 . S
C1154 C1153 1.387 1_556 S
H1155 C1167 0.930 . S
H1156 C1169 0.930 . S
H1157 C1170 0.930 . S
H1158 C1174 0.959 . S
H1159 C1174 0.959 . S
H1160 C1174 0.961 . S
H1161 C1175 0.960 . S
H1162 C1175 0.961 . S
H1163 C1175 0.959 . S
H1164 C1178 0.929 . S
H1165 C1179 0.931 . S
H1166 C1181 0.930 . S
C1167 H1155 0.930 . S
C1167 C1168 1.399 1_554 S
C1167 C1172 1.399 . S
C1168 C1167 1.399 1_556 S
C1168 C1169 1.376 . S
C1169 H1156 0.930 . S
C1169 C1168 1.376 . S
C1169 C1170 1.388 . S
C1170 H1157 0.930 . S
C1170 C1169 1.388 . S
C1170 C1171 1.390 1_556 S
C1171 C1170 1.390 1_554 S
C1171 C1172 1.394 . S
C1171 C1177 1.465 . S
C1172 C1167 1.399 . S
C1172 C1171 1.394 . S
C1172 C1173 1.516 . S
C1173 C1172 1.516 . S
C1173 C1174 1.502 . S
C1173 C1175 1.561 . S
C1173 C1176 1.526 . S
C1174 H1158 0.959 . S
C1174 H1159 0.959 . S
C1174 H1160 0.961 . S
C1174 C1173 1.502 . S
C1175 H1161 0.960 . S
C1175 H1162 0.961 . S
C1175 H1163 0.959 . S
C1175 C1173 1.561 . S
C1176 C1173 1.526 . S
C1176 C1177 1.396 . S
C1176 C1181 1.390 . S
C1177 C1171 1.465 . S
C1177 C1176 1.396 . S
C1177 C1178 1.399 . S
C1178 H1164 0.929 . S
C1178 C1177 1.399 . S
C1178 C1179 1.385 . S
C1179 H1165 0.931 . S
C1179 C1178 1.385 . S
C1179 C1180 1.389 . S
C1180 C1179 1.389 . S
C1180 C1181 1.387 . S
C1181 H1166 0.930 . S
C1181 C1176 1.390 . S
C1181 C1180 1.387 . S
H1182 C1194 0.930 . S
H1183 C1196 0.930 . S
H1184 C1197 0.930 . S
H1185 C1201 0.959 . S
H1186 C1201 0.959 . S
H1187 C1201 0.961 . S
H1188 C1202 0.960 . S
H1189 C1202 0.961 . S
H1190 C1202 0.959 . S
H1191 C1205 0.929 . S
H1192 C1206 0.931 . S
H1193 C1208 0.930 . S
C1194 H1182 0.930 . S
C1194 C1195 1.399 1_556 S
C1194 C1199 1.399 . S
C1195 C1194 1.399 1_554 S
C1195 C1196 1.376 . S
C1196 H1183 0.930 . S
C1196 C1195 1.376 . S
C1196 C1197 1.388 1_554 S
C1197 H1184 0.930 . S
C1197 C1196 1.388 1_556 S
C1197 C1198 1.390 . S
C1198 C1197 1.390 . S
C1198 C1199 1.394 . S
C1198 C1204 1.465 . S
C1199 C1194 1.399 . S
C1199 C1198 1.394 . S
C1199 C1200 1.516 . S
C1200 C1199 1.516 . S
C1200 C1201 1.502 . S
C1200 C1202 1.561 . S
C1200 C1203 1.526 . S
C1201 H1185 0.959 . S
C1201 H1186 0.959 . S
C1201 H1187 0.961 . S
C1201 C1200 1.502 . S
C1202 H1188 0.960 . S
C1202 H1189 0.961 . S
C1202 H1190 0.959 . S
C1202 C1200 1.561 . S
C1203 C1200 1.526 . S
C1203 C1204 1.396 . S
C1203 C1208 1.390 . S
C1204 C1198 1.465 . S
C1204 C1203 1.396 . S
C1204 C1205 1.399 . S
C1205 H1191 0.929 . S
C1205 C1204 1.399 . S
C1205 C1206 1.385 . S
C1206 H1192 0.931 . S
C1206 C1205 1.385 . S
C1206 C1207 1.389 . S
C1207 C1206 1.389 . S
C1207 C1208 1.387 . S
C1208 H1193 0.930 . S
C1208 C1203 1.390 . S
C1208 C1207 1.387 . S
H1209 C1221 0.930 . S
H1210 C1223 0.930 . S
H1211 C1224 0.930 . S
H1212 C1228 0.959 . S
H1213 C1228 0.959 . S
H1214 C1228 0.961 . S
H1215 C1229 0.960 . S
H1216 C1229 0.961 . S
H1217 C1229 0.959 . S
H1218 C1232 0.929 . S
H1219 C1233 0.931 . S
H1220 C1235 0.930 . S
C1221 H1209 0.930 . S
C1221 C1222 1.399 . S
C1221 C1226 1.399 . S
C1222 C1221 1.399 . S
C1222 C1223 1.376 1_554 S
C1223 H1210 0.930 . S
C1223 C1222 1.376 1_556 S
C1223 C1224 1.388 . S
C1224 H1211 0.930 . S
C1224 C1223 1.388 . S
C1224 C1225 1.390 1_556 S
C1225 C1224 1.390 1_554 S
C1225 C1226 1.394 . S
C1225 C1231 1.465 . S
C1226 C1221 1.399 . S
C1226 C1225 1.394 . S
C1226 C1227 1.516 . S
C1227 C1226 1.516 . S
C1227 C1228 1.502 . S
C1227 C1229 1.561 . S
C1227 C1230 1.526 . S
C1228 H1212 0.959 . S
C1228 H1213 0.959 . S
C1228 H1214 0.961 . S
C1228 C1227 1.502 . S
C1229 H1215 0.960 . S
C1229 H1216 0.961 . S
C1229 H1217 0.959 . S
C1229 C1227 1.561 . S
C1230 C1227 1.526 . S
C1230 C1231 1.396 . S
C1230 C1235 1.390 . S
C1231 C1225 1.465 . S
C1231 C1230 1.396 . S
C1231 C1232 1.399 . S
C1232 H1218 0.929 . S
C1232 C1231 1.399 . S
C1232 C1233 1.385 . S
C1233 H1219 0.931 . S
C1233 C1232 1.385 . S
C1233 C1234 1.389 . S
C1234 C1233 1.389 . S
C1234 C1235 1.387 . S
C1235 H1220 0.930 . S
C1235 C1230 1.390 . S
C1235 C1234 1.387 . S
H1236 C1248 0.930 . S
H1237 C1250 0.930 . S
H1238 C1251 0.930 . S
H1239 C1255 0.959 . S
H1240 C1255 0.959 . S
H1241 C1255 0.961 . S
H1242 C1256 0.960 . S
H1243 C1256 0.961 . S
H1244 C1256 0.959 . S
H1245 C1259 0.929 . S
H1246 C1260 0.931 . S
H1247 C1262 0.930 . S
C1248 H1236 0.930 . S
C1248 C1249 1.399 . S
C1248 C1253 1.399 . S
C1249 C1248 1.399 . S
C1249 C1250 1.376 . S
C1250 H1237 0.930 . S
C1250 C1249 1.376 . S
C1250 C1251 1.388 . S
C1251 H1238 0.930 . S
C1251 C1250 1.388 . S
C1251 C1252 1.390 . S
C1252 C1251 1.390 . S
C1252 C1253 1.394 . S
C1252 C1258 1.465 . S
C1253 C1248 1.399 . S
C1253 C1252 1.394 . S
C1253 C1254 1.516 . S
C1254 C1253 1.516 . S
C1254 C1255 1.502 . S
C1254 C1256 1.561 . S
C1254 C1257 1.526 . S
C1255 H1239 0.959 . S
C1255 H1240 0.959 . S
C1255 H1241 0.961 . S
C1255 C1254 1.502 . S
C1256 H1242 0.960 . S
C1256 H1243 0.961 . S
C1256 H1244 0.959 . S
C1256 C1254 1.561 . S
C1257 C1254 1.526 . S
C1257 C1258 1.396 . S
C1257 C1262 1.390 . S
C1258 C1252 1.465 . S
C1258 C1257 1.396 . S
C1258 C1259 1.399 . S
C1259 H1245 0.929 . S
C1259 C1258 1.399 . S
C1259 C1260 1.385 . S
C1260 H1246 0.931 . S
C1260 C1259 1.385 . S
C1260 C1261 1.389 . S
C1261 C1260 1.389 . S
C1261 C1262 1.387 . S
C1262 H1247 0.930 . S
C1262 C1257 1.390 . S
C1262 C1261 1.387 . S
H1263 C1275 0.930 . S
H1264 C1277 0.930 . S
H1265 C1278 0.930 . S
H1266 C1282 0.959 . S
H1267 C1282 0.959 . S
H1268 C1282 0.961 . S
H1269 C1283 0.960 . S
H1270 C1283 0.961 . S
H1271 C1283 0.959 . S
H1272 C1286 0.929 . S
H1273 C1287 0.931 . S
H1274 C1289 0.930 . S
C1275 H1263 0.930 . S
C1275 C1276 1.399 . S
C1275 C1280 1.399 . S
C1276 C1275 1.399 . S
C1276 C1277 1.376 . S
C1277 H1264 0.930 . S
C1277 C1276 1.376 . S
C1277 C1278 1.388 . S
C1278 H1265 0.930 . S
C1278 C1277 1.388 . S
C1278 C1279 1.390 . S
C1279 C1278 1.390 . S
C1279 C1280 1.394 . S
C1279 C1285 1.465 . S
C1280 C1275 1.399 . S
C1280 C1279 1.394 . S
C1280 C1281 1.516 . S
C1281 C1280 1.516 . S
C1281 C1282 1.502 . S
C1281 C1283 1.561 . S
C1281 C1284 1.526 . S
C1282 H1266 0.959 . S
C1282 H1267 0.959 . S
C1282 H1268 0.961 . S
C1282 C1281 1.502 . S
C1283 H1269 0.960 . S
C1283 H1270 0.961 . S
C1283 H1271 0.959 . S
C1283 C1281 1.561 . S
C1284 C1281 1.526 . S
C1284 C1285 1.396 . S
C1284 C1289 1.390 . S
C1285 C1279 1.465 . S
C1285 C1284 1.396 . S
C1285 C1286 1.399 . S
C1286 H1272 0.929 . S
C1286 C1285 1.399 . S
C1286 C1287 1.385 . S
C1287 H1273 0.931 . S
C1287 C1286 1.385 . S
C1287 C1288 1.389 . S
C1288 C1287 1.389 . S
C1288 C1289 1.387 . S
C1289 H1274 0.930 . S
C1289 C1284 1.390 . S
C1289 C1288 1.387 . S
H1290 C1302 0.930 . S
H1291 C1304 0.930 . S
H1292 C1305 0.930 . S
H1293 C1309 0.959 . S
H1294 C1309 0.959 . S
H1295 C1309 0.961 . S
H1296 C1310 0.960 . S
H1297 C1310 0.961 . S
H1298 C1310 0.959 . S
H1299 C1313 0.929 . S
H1300 C1314 0.931 . S
H1301 C1316 0.930 . S
C1302 H1290 0.930 . S
C1302 C1303 1.399 . S
C1302 C1307 1.399 . S
C1303 C1302 1.399 . S
C1303 C1304 1.376 . S
C1304 H1291 0.930 . S
C1304 C1303 1.376 . S
C1304 C1305 1.388 . S
C1305 H1292 0.930 . S
C1305 C1304 1.388 . S
C1305 C1306 1.390 . S
C1306 C1305 1.390 . S
C1306 C1307 1.394 . S
C1306 C1312 1.465 . S
C1307 C1302 1.399 . S
C1307 C1306 1.394 . S
C1307 C1308 1.516 . S
C1308 C1307 1.516 . S
C1308 C1309 1.502 . S
C1308 C1310 1.561 . S
C1308 C1311 1.526 . S
C1309 H1293 0.959 . S
C1309 H1294 0.959 . S
C1309 H1295 0.961 . S
C1309 C1308 1.502 . S
C1310 H1296 0.960 . S
C1310 H1297 0.961 . S
C1310 H1298 0.959 . S
C1310 C1308 1.561 . S
C1311 C1308 1.526 . S
C1311 C1312 1.396 . S
C1311 C1316 1.390 . S
C1312 C1306 1.465 . S
C1312 C1311 1.396 . S
C1312 C1313 1.399 . S
C1313 H1299 0.929 . S
C1313 C1312 1.399 . S
C1313 C1314 1.385 . S
C1314 H1300 0.931 . S
C1314 C1313 1.385 . S
C1314 C1315 1.389 . S
C1315 C1314 1.389 . S
C1315 C1316 1.387 . S
C1316 H1301 0.930 . S
C1316 C1311 1.390 . S
C1316 C1315 1.387 . S
H1317 C1329 0.930 . S
H1318 C1331 0.930 . S
H1319 C1332 0.930 . S
H1320 C1336 0.959 . S
H1321 C1336 0.959 . S
H1322 C1336 0.961 . S
H1323 C1337 0.960 . S
H1324 C1337 0.961 . S
H1325 C1337 0.959 . S
H1326 C1340 0.929 . S
H1327 C1341 0.931 . S
H1328 C1343 0.930 . S
C1329 H1317 0.930 . S
C1329 C1330 1.399 . S
C1329 C1334 1.399 . S
C1330 C1329 1.399 . S
C1330 C1331 1.376 . S
C1331 H1318 0.930 . S
C1331 C1330 1.376 . S
C1331 C1332 1.388 . S
C1332 H1319 0.930 . S
C1332 C1331 1.388 . S
C1332 C1333 1.390 . S
C1333 C1332 1.390 . S
C1333 C1334 1.394 . S
C1333 C1339 1.465 . S
C1334 C1329 1.399 . S
C1334 C1333 1.394 . S
C1334 C1335 1.516 . S
C1335 C1334 1.516 . S
C1335 C1336 1.502 . S
C1335 C1337 1.561 . S
C1335 C1338 1.526 . S
C1336 H1320 0.959 . S
C1336 H1321 0.959 . S
C1336 H1322 0.961 . S
C1336 C1335 1.502 . S
C1337 H1323 0.960 . S
C1337 H1324 0.961 . S
C1337 H1325 0.959 . S
C1337 C1335 1.561 . S
C1338 C1335 1.526 . S
C1338 C1339 1.396 . S
C1338 C1343 1.390 . S
C1339 C1333 1.465 . S
C1339 C1338 1.396 . S
C1339 C1340 1.399 . S
C1340 H1326 0.929 . S
C1340 C1339 1.399 . S
C1340 C1341 1.385 . S
C1341 H1327 0.931 . S
C1341 C1340 1.385 . S
C1341 C1342 1.389 . S
C1342 C1341 1.389 . S
C1342 C1343 1.387 . S
C1343 H1328 0.930 . S
C1343 C1338 1.390 . S
C1343 C1342 1.387 . S
H1344 C1356 0.930 . S
H1345 C1358 0.930 . S
H1346 C1359 0.930 . S
H1347 C1363 0.959 . S
H1348 C1363 0.959 . S
H1349 C1363 0.961 . S
H1350 C1364 0.960 . S
H1351 C1364 0.961 . S
H1352 C1364 0.959 . S
H1353 C1367 0.929 . S
H1354 C1368 0.931 . S
H1355 C1370 0.930 . S
C1356 H1344 0.930 . S
C1356 C1357 1.399 . S
C1356 C1361 1.399 . S
C1357 C1356 1.399 . S
C1357 C1358 1.376 . S
C1358 H1345 0.930 . S
C1358 C1357 1.376 . S
C1358 C1359 1.388 . S
C1359 H1346 0.930 . S
C1359 C1358 1.388 . S
C1359 C1360 1.390 . S
C1360 C1359 1.390 . S
C1360 C1361 1.394 . S
C1360 C1366 1.465 . S
C1361 C1356 1.399 . S
C1361 C1360 1.394 . S
C1361 C1362 1.516 . S
C1362 C1361 1.516 . S
C1362 C1363 1.502 . S
C1362 C1364 1.561 . S
C1362 C1365 1.526 . S
C1363 H1347 0.959 . S
C1363 H1348 0.959 . S
C1363 H1349 0.961 . S
C1363 C1362 1.502 . S
C1364 H1350 0.960 . S
C1364 H1351 0.961 . S
C1364 H1352 0.959 . S
C1364 C1362 1.561 . S
C1365 C1362 1.526 . S
C1365 C1366 1.396 . S
C1365 C1370 1.390 . S
C1366 C1360 1.465 . S
C1366 C1365 1.396 . S
C1366 C1367 1.399 . S
C1367 H1353 0.929 . S
C1367 C1366 1.399 . S
C1367 C1368 1.385 . S
C1368 H1354 0.931 . S
C1368 C1367 1.385 . S
C1368 C1369 1.389 . S
C1369 C1368 1.389 . S
C1369 C1370 1.387 . S
C1370 H1355 0.930 . S
C1370 C1365 1.390 . S
C1370 C1369 1.387 . S
H1371 C1383 0.930 . S
H1372 C1385 0.930 . S
H1373 C1386 0.930 . S
H1374 C1390 0.959 . S
H1375 C1390 0.959 . S
H1376 C1390 0.961 . S
H1377 C1391 0.960 . S
H1378 C1391 0.961 . S
H1379 C1391 0.959 . S
H1380 C1394 0.929 . S
H1381 C1395 0.931 . S
H1382 C1397 0.930 . S
C1383 H1371 0.930 . S
C1383 C1384 1.399 . S
C1383 C1388 1.399 . S
C1384 C1383 1.399 . S
C1384 C1385 1.376 . S
C1385 H1372 0.930 . S
C1385 C1384 1.376 . S
C1385 C1386 1.388 . S
C1386 H1373 0.930 . S
C1386 C1385 1.388 . S
C1386 C1387 1.390 . S
C1387 C1386 1.390 . S
C1387 C1388 1.394 . S
C1387 C1393 1.465 . S
C1388 C1383 1.399 . S
C1388 C1387 1.394 . S
C1388 C1389 1.516 . S
C1389 C1388 1.516 . S
C1389 C1390 1.502 . S
C1389 C1391 1.561 . S
C1389 C1392 1.526 . S
C1390 H1374 0.959 . S
C1390 H1375 0.959 . S
C1390 H1376 0.961 . S
C1390 C1389 1.502 . S
C1391 H1377 0.960 . S
C1391 H1378 0.961 . S
C1391 H1379 0.959 . S
C1391 C1389 1.561 . S
C1392 C1389 1.526 . S
C1392 C1393 1.396 . S
C1392 C1397 1.390 . S
C1393 C1387 1.465 . S
C1393 C1392 1.396 . S
C1393 C1394 1.399 . S
C1394 H1380 0.929 . S
C1394 C1393 1.399 . S
C1394 C1395 1.385 . S
C1395 H1381 0.931 . S
C1395 C1394 1.385 . S
C1395 C1396 1.389 . S
C1396 C1395 1.389 . S
C1396 C1397 1.387 . S
C1397 H1382 0.930 . S
C1397 C1392 1.390 . S
C1397 C1396 1.387 . S
H1398 C1410 0.930 . S
H1399 C1412 0.930 . S
H1400 C1413 0.930 . S
H1401 C1417 0.959 . S
H1402 C1417 0.959 . S
H1403 C1417 0.961 . S
H1404 C1418 0.960 . S
H1405 C1418 0.961 . S
H1406 C1418 0.959 . S
H1407 C1421 0.929 . S
H1408 C1422 0.931 . S
H1409 C1424 0.930 . S
C1410 H1398 0.930 . S
C1410 C1411 1.399 . S
C1410 C1415 1.399 . S
C1411 C1410 1.399 . S
C1411 C1412 1.376 . S
C1412 H1399 0.930 . S
C1412 C1411 1.376 . S
C1412 C1413 1.388 . S
C1413 H1400 0.930 . S
C1413 C1412 1.388 . S
C1413 C1414 1.390 . S
C1414 C1413 1.390 . S
C1414 C1415 1.394 . S
C1414 C1420 1.465 . S
C1415 C1410 1.399 . S
C1415 C1414 1.394 . S
C1415 C1416 1.516 . S
C1416 C1415 1.516 . S
C1416 C1417 1.502 . S
C1416 C1418 1.561 . S
C1416 C1419 1.526 . S
C1417 H1401 0.959 . S
C1417 H1402 0.959 . S
C1417 H1403 0.961 . S
C1417 C1416 1.502 . S
C1418 H1404 0.960 . S
C1418 H1405 0.961 . S
C1418 H1406 0.959 . S
C1418 C1416 1.561 . S
C1419 C1416 1.526 . S
C1419 C1420 1.396 . S
C1419 C1424 1.390 . S
C1420 C1414 1.465 . S
C1420 C1419 1.396 . S
C1420 C1421 1.399 . S
C1421 H1407 0.929 . S
C1421 C1420 1.399 . S
C1421 C1422 1.385 . S
C1422 H1408 0.931 . S
C1422 C1421 1.385 . S
C1422 C1423 1.389 . S
C1423 C1422 1.389 . S
C1423 C1424 1.387 . S
C1424 H1409 0.930 . S
C1424 C1419 1.390 . S
C1424 C1423 1.387 . S
H1425 C1437 0.930 . S
H1426 C1439 0.930 . S
H1427 C1440 0.930 . S
H1428 C1444 0.959 . S
H1429 C1444 0.959 . S
H1430 C1444 0.961 . S
H1431 C1445 0.960 . S
H1432 C1445 0.961 . S
H1433 C1445 0.959 . S
H1434 C1448 0.929 . S
H1435 C1449 0.931 . S
H1436 C1451 0.930 . S
C1437 H1425 0.930 . S
C1437 C1438 1.399 . S
C1437 C1442 1.399 . S
C1438 C1437 1.399 . S
C1438 C1439 1.376 . S
C1439 H1426 0.930 . S
C1439 C1438 1.376 . S
C1439 C1440 1.388 . S
C1440 H1427 0.930 . S
C1440 C1439 1.388 . S
C1440 C1441 1.390 . S
C1441 C1440 1.390 . S
C1441 C1442 1.394 . S
C1441 C1447 1.465 . S
C1442 C1437 1.399 . S
C1442 C1441 1.394 . S
C1442 C1443 1.516 . S
C1443 C1442 1.516 . S
C1443 C1444 1.502 . S
C1443 C1445 1.561 . S
C1443 C1446 1.526 . S
C1444 H1428 0.959 . S
C1444 H1429 0.959 . S
C1444 H1430 0.961 . S
C1444 C1443 1.502 . S
C1445 H1431 0.960 . S
C1445 H1432 0.961 . S
C1445 H1433 0.959 . S
C1445 C1443 1.561 . S
C1446 C1443 1.526 . S
C1446 C1447 1.396 . S
C1446 C1451 1.390 . S
C1447 C1441 1.465 . S
C1447 C1446 1.396 . S
C1447 C1448 1.399 . S
C1448 H1434 0.929 . S
C1448 C1447 1.399 . S
C1448 C1449 1.385 . S
C1449 H1435 0.931 . S
C1449 C1448 1.385 . S
C1449 C1450 1.389 . S
C1450 C1449 1.389 . S
C1450 C1451 1.387 . S
C1451 H1436 0.930 . S
C1451 C1446 1.390 . S
C1451 C1450 1.387 . S
H1452 C1464 0.930 . S
H1453 C1466 0.930 . S
H1454 C1467 0.930 . S
H1455 C1471 0.959 . S
H1456 C1471 0.959 . S
H1457 C1471 0.961 . S
H1458 C1472 0.960 . S
H1459 C1472 0.961 . S
H1460 C1472 0.959 . S
H1461 C1475 0.929 . S
H1462 C1476 0.931 . S
H1463 C1478 0.930 . S
C1464 H1452 0.930 . S
C1464 C1465 1.399 . S
C1464 C1469 1.399 . S
C1465 C1464 1.399 . S
C1465 C1466 1.376 . S
C1466 H1453 0.930 . S
C1466 C1465 1.376 . S
C1466 C1467 1.388 . S
C1467 H1454 0.930 . S
C1467 C1466 1.388 . S
C1467 C1468 1.390 . S
C1468 C1467 1.390 . S
C1468 C1469 1.394 . S
C1468 C1474 1.465 . S
C1469 C1464 1.399 . S
C1469 C1468 1.394 . S
C1469 C1470 1.516 . S
C1470 C1469 1.516 . S
C1470 C1471 1.502 . S
C1470 C1472 1.561 . S
C1470 C1473 1.526 . S
C1471 H1455 0.959 . S
C1471 H1456 0.959 . S
C1471 H1457 0.961 . S
C1471 C1470 1.502 . S
C1472 H1458 0.960 . S
C1472 H1459 0.961 . S
C1472 H1460 0.959 . S
C1472 C1470 1.561 . S
C1473 C1470 1.526 . S
C1473 C1474 1.396 . S
C1473 C1478 1.390 . S
C1474 C1468 1.465 . S
C1474 C1473 1.396 . S
C1474 C1475 1.399 . S
C1475 H1461 0.929 . S
C1475 C1474 1.399 . S
C1475 C1476 1.385 . S
C1476 H1462 0.931 . S
C1476 C1475 1.385 . S
C1476 C1477 1.389 . S
C1477 C1476 1.389 . S
C1477 C1478 1.387 . S
C1478 H1463 0.930 . S
C1478 C1473 1.390 . S
C1478 C1477 1.387 . S
H1479 C1491 0.930 . S
H1480 C1493 0.930 . S
H1481 C1494 0.930 . S
H1482 C1498 0.959 . S
H1483 C1498 0.959 . S
H1484 C1498 0.961 . S
H1485 C1499 0.960 . S
H1486 C1499 0.961 . S
H1487 C1499 0.959 . S
H1488 C1502 0.929 . S
H1489 C1503 0.931 . S
H1490 C1505 0.930 . S
C1491 H1479 0.930 . S
C1491 C1492 1.399 . S
C1491 C1496 1.399 . S
C1492 C1491 1.399 . S
C1492 C1493 1.376 . S
C1493 H1480 0.930 . S
C1493 C1492 1.376 . S
C1493 C1494 1.388 . S
C1494 H1481 0.930 . S
C1494 C1493 1.388 . S
C1494 C1495 1.390 . S
C1495 C1494 1.390 . S
C1495 C1496 1.394 . S
C1495 C1501 1.465 . S
C1496 C1491 1.399 . S
C1496 C1495 1.394 . S
C1496 C1497 1.516 . S
C1497 C1496 1.516 . S
C1497 C1498 1.502 . S
C1497 C1499 1.561 . S
C1497 C1500 1.526 . S
C1498 H1482 0.959 . S
C1498 H1483 0.959 . S
C1498 H1484 0.961 . S
C1498 C1497 1.502 . S
C1499 H1485 0.960 . S
C1499 H1486 0.961 . S
C1499 H1487 0.959 . S
C1499 C1497 1.561 . S
C1500 C1497 1.526 . S
C1500 C1501 1.396 . S
C1500 C1505 1.390 . S
C1501 C1495 1.465 . S
C1501 C1500 1.396 . S
C1501 C1502 1.399 . S
C1502 H1488 0.929 . S
C1502 C1501 1.399 . S
C1502 C1503 1.385 . S
C1503 H1489 0.931 . S
C1503 C1502 1.385 . S
C1503 C1504 1.389 . S
C1504 C1503 1.389 . S
C1504 C1505 1.387 . S
C1505 H1490 0.930 . S
C1505 C1500 1.390 . S
C1505 C1504 1.387 . S
H1506 C1518 0.930 . S
H1507 C1520 0.930 . S
H1508 C1521 0.930 . S
H1509 C1525 0.959 . S
H1510 C1525 0.959 . S
H1511 C1525 0.961 . S
H1512 C1526 0.960 . S
H1513 C1526 0.961 . S
H1514 C1526 0.959 . S
H1515 C1529 0.929 . S
H1516 C1530 0.931 . S
H1517 C1532 0.930 . S
C1518 H1506 0.930 . S
C1518 C1519 1.399 . S
C1518 C1523 1.399 . S
C1519 C1518 1.399 . S
C1519 C1520 1.376 . S
C1520 H1507 0.930 . S
C1520 C1519 1.376 . S
C1520 C1521 1.388 . S
C1521 H1508 0.930 . S
C1521 C1520 1.388 . S
C1521 C1522 1.390 . S
C1522 C1521 1.390 . S
C1522 C1523 1.394 . S
C1522 C1528 1.465 . S
C1523 C1518 1.399 . S
C1523 C1522 1.394 . S
C1523 C1524 1.516 . S
C1524 C1523 1.516 . S
C1524 C1525 1.502 . S
C1524 C1526 1.561 . S
C1524 C1527 1.526 . S
C1525 H1509 0.959 . S
C1525 H1510 0.959 . S
C1525 H1511 0.961 . S
C1525 C1524 1.502 . S
C1526 H1512 0.960 . S
C1526 H1513 0.961 . S
C1526 H1514 0.959 . S
C1526 C1524 1.561 . S
C1527 C1524 1.526 . S
C1527 C1528 1.396 . S
C1527 C1532 1.390 . S
C1528 C1522 1.465 . S
C1528 C1527 1.396 . S
C1528 C1529 1.399 . S
C1529 H1515 0.929 . S
C1529 C1528 1.399 . S
C1529 C1530 1.385 . S
C1530 H1516 0.931 . S
C1530 C1529 1.385 . S
C1530 C1531 1.389 . S
C1531 C1530 1.389 . S
C1531 C1532 1.387 . S
C1532 H1517 0.930 . S
C1532 C1527 1.390 . S
C1532 C1531 1.387 . S
H1533 C1545 0.930 . S
H1534 C1547 0.930 . S
H1535 C1548 0.930 . S
H1536 C1552 0.959 . S
H1537 C1552 0.959 . S
H1538 C1552 0.961 . S
H1539 C1553 0.960 . S
H1540 C1553 0.961 . S
H1541 C1553 0.959 . S
H1542 C1556 0.929 . S
H1543 C1557 0.931 . S
H1544 C1559 0.930 . S
C1545 H1533 0.930 . S
C1545 C1546 1.399 . S
C1545 C1550 1.399 . S
C1546 C1545 1.399 . S
C1546 C1547 1.376 . S
C1547 H1534 0.930 . S
C1547 C1546 1.376 . S
C1547 C1548 1.388 . S
C1548 H1535 0.930 . S
C1548 C1547 1.388 . S
C1548 C1549 1.390 . S
C1549 C1548 1.390 . S
C1549 C1550 1.394 . S
C1549 C1555 1.465 . S
C1550 C1545 1.399 . S
C1550 C1549 1.394 . S
C1550 C1551 1.516 . S
C1551 C1550 1.516 . S
C1551 C1552 1.502 . S
C1551 C1553 1.561 . S
C1551 C1554 1.526 . S
C1552 H1536 0.959 . S
C1552 H1537 0.959 . S
C1552 H1538 0.961 . S
C1552 C1551 1.502 . S
C1553 H1539 0.960 . S
C1553 H1540 0.961 . S
C1553 H1541 0.959 . S
C1553 C1551 1.561 . S
C1554 C1551 1.526 . S
C1554 C1555 1.396 . S
C1554 C1559 1.390 . S
C1555 C1549 1.465 . S
C1555 C1554 1.396 . S
C1555 C1556 1.399 . S
C1556 H1542 0.929 . S
C1556 C1555 1.399 . S
C1556 C1557 1.385 . S
C1557 H1543 0.931 . S
C1557 C1556 1.385 . S
C1557 C1558 1.389 . S
C1558 C1557 1.389 . S
C1558 C1559 1.387 . S
C1559 H1544 0.930 . S
C1559 C1554 1.390 . S
C1559 C1558 1.387 . S
H1560 C1572 0.930 . S
H1561 C1574 0.930 . S
H1562 C1575 0.930 . S
H1563 C1579 0.959 . S
H1564 C1579 0.959 . S
H1565 C1579 0.961 . S
H1566 C1580 0.960 . S
H1567 C1580 0.961 . S
H1568 C1580 0.959 . S
H1569 C1583 0.929 . S
H1570 C1584 0.931 . S
H1571 C1586 0.930 . S
C1572 H1560 0.930 . S
C1572 C1573 1.399 . S
C1572 C1577 1.399 1_556 S
C1573 C1572 1.399 . S
C1573 C1574 1.376 . S
C1574 H1561 0.930 . S
C1574 C1573 1.376 . S
C1574 C1575 1.388 1_556 S
C1575 H1562 0.930 . S
C1575 C1574 1.388 1_554 S
C1575 C1576 1.390 . S
C1576 C1575 1.390 . S
C1576 C1577 1.394 . S
C1576 C1582 1.465 . S
C1577 C1572 1.399 1_554 S
C1577 C1576 1.394 . S
C1577 C1578 1.516 . S
C1578 C1577 1.516 . S
C1578 C1579 1.502 . S
C1578 C1580 1.561 . S
C1578 C1581 1.526 . S
C1579 H1563 0.959 . S
C1579 H1564 0.959 . S
C1579 H1565 0.961 . S
C1579 C1578 1.502 . S
C1580 H1566 0.960 . S
C1580 H1567 0.961 . S
C1580 H1568 0.959 . S
C1580 C1578 1.561 . S
C1581 C1578 1.526 . S
C1581 C1582 1.396 . S
C1581 C1586 1.390 . S
C1582 C1576 1.465 . S
C1582 C1581 1.396 . S
C1582 C1583 1.399 . S
C1583 H1569 0.929 . S
C1583 C1582 1.399 . S
C1583 C1584 1.385 . S
C1584 H1570 0.931 . S
C1584 C1583 1.385 . S
C1584 C1585 1.389 . S
C1585 C1584 1.389 . S
C1585 C1586 1.387 . S
C1586 H1571 0.930 . S
C1586 C1581 1.390 . S
C1586 C1585 1.387 . S
H1587 C1599 0.930 . S
H1588 C1601 0.930 . S
H1589 C1602 0.930 . S
H1590 C1606 0.959 . S
H1591 C1606 0.959 . S
H1592 C1606 0.961 . S
H1593 C1607 0.960 . S
H1594 C1607 0.961 . S
H1595 C1607 0.959 . S
H1596 C1610 0.929 . S
H1597 C1611 0.931 . S
H1598 C1613 0.930 . S
C1599 H1587 0.930 . S
C1599 C1600 1.399 . S
C1599 C1604 1.399 . S
C1600 C1599 1.399 . S
C1600 C1601 1.376 . S
C1601 H1588 0.930 . S
C1601 C1600 1.376 . S
C1601 C1602 1.388 . S
C1602 H1589 0.930 . S
C1602 C1601 1.388 . S
C1602 C1603 1.390 . S
C1603 C1602 1.390 . S
C1603 C1604 1.394 . S
C1603 C1609 1.465 . S
C1604 C1599 1.399 . S
C1604 C1603 1.394 . S
C1604 C1605 1.516 . S
C1605 C1604 1.516 . S
C1605 C1606 1.502 . S
C1605 C1607 1.561 . S
C1605 C1608 1.526 . S
C1606 H1590 0.959 . S
C1606 H1591 0.959 . S
C1606 H1592 0.961 . S
C1606 C1605 1.502 . S
C1607 H1593 0.960 . S
C1607 H1594 0.961 . S
C1607 H1595 0.959 . S
C1607 C1605 1.561 . S
C1608 C1605 1.526 . S
C1608 C1609 1.396 . S
C1608 C1613 1.390 1_556 S
C1609 C1603 1.465 . S
C1609 C1608 1.396 . S
C1609 C1610 1.399 . S
C1610 H1596 0.929 . S
C1610 C1609 1.399 . S
C1610 C1611 1.385 1_556 S
C1611 H1597 0.931 . S
C1611 C1610 1.385 1_554 S
C1611 C1612 1.389 . S
C1612 C1611 1.389 . S
C1612 C1613 1.387 . S
C1613 H1598 0.930 . S
C1613 C1608 1.390 1_554 S
C1613 C1612 1.387 . S
H1614 C1626 0.930 . S
H1615 C1628 0.930 . S
H1616 C1629 0.930 . S
H1617 C1633 0.959 . S
H1618 C1633 0.959 . S
H1619 C1633 0.961 . S
H1620 C1634 0.960 . S
H1621 C1634 0.961 . S
H1622 C1634 0.959 . S
H1623 C1637 0.929 . S
H1624 C1638 0.931 . S
H1625 C1640 0.930 . S
C1626 H1614 0.930 . S
C1626 C1627 1.399 . S
C1626 C1631 1.399 . S
C1627 C1626 1.399 . S
C1627 C1628 1.376 . S
C1628 H1615 0.930 . S
C1628 C1627 1.376 . S
C1628 C1629 1.388 . S
C1629 H1616 0.930 . S
C1629 C1628 1.388 . S
C1629 C1630 1.390 . S
C1630 C1629 1.390 . S
C1630 C1631 1.394 . S
C1630 C1636 1.465 . S
C1631 C1626 1.399 . S
C1631 C1630 1.394 . S
C1631 C1632 1.516 . S
C1632 C1631 1.516 . S
C1632 C1633 1.502 . S
C1632 C1634 1.561 . S
C1632 C1635 1.526 . S
C1633 H1617 0.959 . S
C1633 H1618 0.959 . S
C1633 H1619 0.961 . S
C1633 C1632 1.502 . S
C1634 H1620 0.960 . S
C1634 H1621 0.961 . S
C1634 H1622 0.959 . S
C1634 C1632 1.561 . S
C1635 C1632 1.526 . S
C1635 C1636 1.396 . S
C1635 C1640 1.390 1_554 S
C1636 C1630 1.465 . S
C1636 C1635 1.396 . S
C1636 C1637 1.399 . S
C1637 H1623 0.929 . S
C1637 C1636 1.399 . S
C1637 C1638 1.385 1_554 S
C1638 H1624 0.931 . S
C1638 C1637 1.385 1_556 S
C1638 C1639 1.389 . S
C1639 C1638 1.389 . S
C1639 C1640 1.387 . S
C1640 H1625 0.930 . S
C1640 C1635 1.390 1_556 S
C1640 C1639 1.387 . S
H1641 C1653 0.930 . S
H1642 C1655 0.930 . S
H1643 C1656 0.930 1_556 S
H1644 C1660 0.959 . S
H1645 C1660 0.959 . S
H1646 C1660 0.961 . S
H1647 C1661 0.960 . S
H1648 C1661 0.961 . S
H1649 C1661 0.959 . S
H1650 C1664 0.929 . S
H1651 C1665 0.931 . S
H1652 C1667 0.930 . S
C1653 H1641 0.930 . S
C1653 C1654 1.399 . S
C1653 C1658 1.399 1_554 S
C1654 C1653 1.399 . S
C1654 C1655 1.376 . S
C1655 H1642 0.930 . S
C1655 C1654 1.376 . S
C1655 C1656 1.388 . S
C1656 H1643 0.930 1_554 S
C1656 C1655 1.388 . S
C1656 C1657 1.390 1_554 S
C1657 C1656 1.390 1_556 S
C1657 C1658 1.394 . S
C1657 C1663 1.465 . S
C1658 C1653 1.399 1_556 S
C1658 C1657 1.394 . S
C1658 C1659 1.516 . S
C1659 C1658 1.516 . S
C1659 C1660 1.502 . S
C1659 C1661 1.561 . S
C1659 C1662 1.526 . S
C1660 H1644 0.959 . S
C1660 H1645 0.959 . S
C1660 H1646 0.961 . S
C1660 C1659 1.502 . S
C1661 H1647 0.960 . S
C1661 H1648 0.961 . S
C1661 H1649 0.959 . S
C1661 C1659 1.561 . S
C1662 C1659 1.526 . S
C1662 C1663 1.396 . S
C1662 C1667 1.390 . S
C1663 C1657 1.465 . S
C1663 C1662 1.396 . S
C1663 C1664 1.399 . S
C1664 H1650 0.929 . S
C1664 C1663 1.399 . S
C1664 C1665 1.385 . S
C1665 H1651 0.931 . S
C1665 C1664 1.385 . S
C1665 C1666 1.389 . S
C1666 C1665 1.389 . S
C1666 C1667 1.387 . S
C1667 H1652 0.930 . S
C1667 C1662 1.390 . S
C1667 C1666 1.387 . S
H1668 C1680 0.930 . S
H1669 C1682 0.930 . S
H1670 C1683 0.930 . S
H1671 C1687 0.959 . S
H1672 C1687 0.959 . S
H1673 C1687 0.961 . S
H1674 C1688 0.960 . S
H1675 C1688 0.961 . S
H1676 C1688 0.959 . S
H1677 C1691 0.929 1_554 S
H1678 C1692 0.931 . S
H1679 C1694 0.930 . S
C1680 H1668 0.930 . S
C1680 C1681 1.399 . S
C1680 C1685 1.399 . S
C1681 C1680 1.399 . S
C1681 C1682 1.376 . S
C1682 H1669 0.930 . S
C1682 C1681 1.376 . S
C1682 C1683 1.388 . S
C1683 H1670 0.930 . S
C1683 C1682 1.388 . S
C1683 C1684 1.390 . S
C1684 C1683 1.390 . S
C1684 C1685 1.394 . S
C1684 C1690 1.465 . S
C1685 C1680 1.399 . S
C1685 C1684 1.394 . S
C1685 C1686 1.516 . S
C1686 C1685 1.516 . S
C1686 C1687 1.502 . S
C1686 C1688 1.561 . S
C1686 C1689 1.526 . S
C1687 H1671 0.959 . S
C1687 H1672 0.959 . S
C1687 H1673 0.961 . S
C1687 C1686 1.502 . S
C1688 H1674 0.960 . S
C1688 H1675 0.961 . S
C1688 H1676 0.959 . S
C1688 C1686 1.561 . S
C1689 C1686 1.526 . S
C1689 C1690 1.396 . S
C1689 C1694 1.390 1_554 S
C1690 C1684 1.465 . S
C1690 C1689 1.396 . S
C1690 C1691 1.399 1_554 S
C1691 H1677 0.929 1_556 S
C1691 C1690 1.399 1_556 S
C1691 C1692 1.385 . S
C1692 H1678 0.931 . S
C1692 C1691 1.385 . S
C1692 C1693 1.389 . S
C1693 C1692 1.389 . S
C1693 C1694 1.387 . S
C1694 H1679 0.930 . S
C1694 C1689 1.390 1_556 S
C1694 C1693 1.387 . S
H1695 C1707 0.930 . S
H1696 C1709 0.930 . S
H1697 C1710 0.930 . S
H1698 C1714 0.959 . S
H1699 C1714 0.959 . S
H1700 C1714 0.961 . S
H1701 C1715 0.960 . S
H1702 C1715 0.961 . S
H1703 C1715 0.959 . S
H1704 C1718 0.929 . S
H1705 C1719 0.931 . S
H1706 C1721 0.930 . S
C1707 H1695 0.930 . S
C1707 C1708 1.399 . S
C1707 C1712 1.399 1_554 S
C1708 C1707 1.399 . S
C1708 C1709 1.376 . S
C1709 H1696 0.930 . S
C1709 C1708 1.376 . S
C1709 C1710 1.388 1_554 S
C1710 H1697 0.930 . S
C1710 C1709 1.388 1_556 S
C1710 C1711 1.390 . S
C1711 C1710 1.390 . S
C1711 C1712 1.394 . S
C1711 C1717 1.465 . S
C1712 C1707 1.399 1_556 S
C1712 C1711 1.394 . S
C1712 C1713 1.516 . S
C1713 C1712 1.516 . S
C1713 C1714 1.502 . S
C1713 C1715 1.561 . S
C1713 C1716 1.526 . S
C1714 H1698 0.959 . S
C1714 H1699 0.959 . S
C1714 H1700 0.961 . S
C1714 C1713 1.502 . S
C1715 H1701 0.960 . S
C1715 H1702 0.961 . S
C1715 H1703 0.959 . S
C1715 C1713 1.561 . S
C1716 C1713 1.526 . S
C1716 C1717 1.396 . S
C1716 C1721 1.390 . S
C1717 C1711 1.465 . S
C1717 C1716 1.396 . S
C1717 C1718 1.399 . S
C1718 H1704 0.929 . S
C1718 C1717 1.399 . S
C1718 C1719 1.385 . S
C1719 H1705 0.931 . S
C1719 C1718 1.385 . S
C1719 C1720 1.389 . S
C1720 C1719 1.389 . S
C1720 C1721 1.387 . S
C1721 H1706 0.930 . S
C1721 C1716 1.390 . S
C1721 C1720 1.387 . S
H1722 C1734 0.930 . S
H1723 C1736 0.930 . S
H1724 C1737 0.933 . S
H1725 C1741 0.959 . S
H1726 C1741 0.959 . S
H1727 C1741 0.961 . S
H1728 C1742 0.960 . S
H1729 C1742 0.961 . S
H1730 C1742 0.959 . S
H1731 C1745 0.929 . S
H1732 C1746 0.931 . S
H1733 C1748 0.930 . S
C1734 H1722 0.930 . S
C1734 C1735 1.399 . S
C1734 C1739 1.399 1_556 S
C1735 C1734 1.399 . S
C1735 C1736 1.376 . S
C1736 H1723 0.930 . S
C1736 C1735 1.376 . S
C1736 C1737 1.378 1_556 S
C1737 H1724 0.933 . S
C1737 C1736 1.378 1_554 S
C1737 C1738 1.398 . S
C1738 C1737 1.398 . S
C1738 C1739 1.394 . S
C1738 C1744 1.465 . S
C1739 C1734 1.399 1_554 S
C1739 C1738 1.394 . S
C1739 C1740 1.516 . S
C1740 C1739 1.516 . S
C1740 C1741 1.502 . S
C1740 C1742 1.561 . S
C1740 C1743 1.526 . S
C1741 H1725 0.959 . S
C1741 H1726 0.959 . S
C1741 H1727 0.961 . S
C1741 C1740 1.502 . S
C1742 H1728 0.960 . S
C1742 H1729 0.961 . S
C1742 H1730 0.959 . S
C1742 C1740 1.561 . S
C1743 C1740 1.526 . S
C1743 C1744 1.396 . S
C1743 C1748 1.390 . S
C1744 C1738 1.465 . S
C1744 C1743 1.396 . S
C1744 C1745 1.399 . S
C1745 H1731 0.929 . S
C1745 C1744 1.399 . S
C1745 C1746 1.385 . S
C1746 H1732 0.931 . S
C1746 C1745 1.385 . S
C1746 C1747 1.389 . S
C1747 C1746 1.389 . S
C1747 C1748 1.387 . S
C1748 H1733 0.930 . S
C1748 C1743 1.390 . S
C1748 C1747 1.387 . S
H1749 C1761 0.930 . S
H1750 C1763 0.930 . S
H1751 C1764 0.930 . S
H1752 C1768 0.959 . S
H1753 C1768 0.959 . S
H1754 C1768 0.961 . S
H1755 C1769 0.960 . S
H1756 C1769 0.961 . S
H1757 C1769 0.959 . S
H1758 C1772 0.929 . S
H1759 C1773 0.931 . S
H1760 C1775 0.930 . S
C1761 H1749 0.930 . S
C1761 C1762 1.399 . S
C1761 C1766 1.399 . S
C1762 C1761 1.399 . S
C1762 C1763 1.376 . S
C1763 H1750 0.930 . S
C1763 C1762 1.376 . S
C1763 C1764 1.388 . S
C1764 H1751 0.930 . S
C1764 C1763 1.388 . S
C1764 C1765 1.390 . S
C1765 C1764 1.390 . S
C1765 C1766 1.394 . S
C1765 C1771 1.465 . S
C1766 C1761 1.399 . S
C1766 C1765 1.394 . S
C1766 C1767 1.516 . S
C1767 C1766 1.516 . S
C1767 C1768 1.502 . S
C1767 C1769 1.561 . S
C1767 C1770 1.526 . S
C1768 H1752 0.959 . S
C1768 H1753 0.959 . S
C1768 H1754 0.961 . S
C1768 C1767 1.502 . S
C1769 H1755 0.960 . S
C1769 H1756 0.961 . S
C1769 H1757 0.959 . S
C1769 C1767 1.561 . S
C1770 C1767 1.526 . S
C1770 C1771 1.396 . S
C1770 C1775 1.390 1_556 S
C1771 C1765 1.465 . S
C1771 C1770 1.396 . S
C1771 C1772 1.399 . S
C1772 H1758 0.929 . S
C1772 C1771 1.399 . S
C1772 C1773 1.385 1_556 S
C1773 H1759 0.931 . S
C1773 C1772 1.385 1_554 S
C1773 C1774 1.389 . S
C1774 C1773 1.389 . S
C1774 C1775 1.387 . S
C1775 H1760 0.930 . S
C1775 C1770 1.390 1_554 S
C1775 C1774 1.387 . S
C493 C357 2.180 . S
C505 C1 2.185 . S
C520 N254 1.497 . S
C532 C40 1.495 . S
C547 C61 1.037 . S
C559 N276 1.024 . S
C574 C91 1.541 . S
C586 N314 1.518 . S
C601 C121 2.180 . S
C613 C177 2.176 . S
C628 N194 1.516 . S
C640 C151 1.534 . S
C655 C181 1.043 . S
C667 N216 1.033 . S
C682 N134 1.438 . S
C694 C220 1.504 . S
C709 C117 2.182 . S
C721 C241 2.177 . S
C736 C280 1.498 . S
C748 N14 1.452 . S
C763 N36 1.051 . S
C775 C301 1.049 . S
C790 N74 1.554 . S
C802 C331 1.537 . S
C817 C361 2.176 . S
C829 C417 2.177 . S
C844 N434 1.568 . S
C856 C391 1.556 . S
C871 N456 1.051 . S
C883 C421 1.047 . S
C898 C460 1.492 . S
C910 N374 1.490 . S
C925 C10 1.958 . S
C937 C130 1.937 . S
C952 C160 1.769 . S
C964 C31 1.777 . S
C979 C70 0.830 . S
C991 C190 0.860 . S
C1006 C100 1.782 . S
C1018 C211 1.748 . S
C1033 C250 1.929 . S
C1045 C370 1.941 . S
C1060 C400 1.769 . S
C1072 C271 1.776 . S
C1087 C310 0.883 . S
C1099 C430 0.853 . S
C1114 C340 1.781 . S
C1126 C451 1.749 . S
C1141 N426 1.526 . S
C1153 N6 1.565 . S
C1168 N44 1.368 . S
C1180 N464 1.323 . S
C1195 N66 1.588 . S
C1207 N366 1.598 . S
C1222 C106 2.470 1_554 S
C1234 C406 2.448 . S
C1249 N126 1.606 . S
C1261 N306 1.583 . S
C1276 C166 2.456 . S
C1288 C346 2.461 . S
C1303 N186 1.527 . S
C1315 N246 1.566 . S
C1330 N284 1.371 . S
C1342 N224 1.337 . S
C1357 C27 1.796 . S
C1369 C16 1.801 . S
C1384 C46 1.815 . S
C1396 C57 1.824 . S
C1411 C87 1.812 . S
C1423 C76 1.811 . S
C1438 N96 1.132 . S
C1450 N104 1.119 . S
C1465 C136 1.806 . S
C1477 C147 1.794 . S
C1492 N164 1.141 . S
C1504 N156 1.106 . S
C1519 C207 1.820 . S
C1531 C196 1.804 . S
C1546 C237 1.827 . S
C1558 C226 1.807 . S
C1573 C267 1.807 . S
C1585 C256 1.793 . S
C1600 C297 1.823 . S
C1612 C286 1.816 . S
C1627 C316 1.826 . S
C1639 C327 1.802 . S
C1654 N344 1.105 . S
C1666 N336 1.135 . S
C1681 C387 1.803 . S
C1693 C376 1.798 . S
C1708 N396 1.130 . S
C1720 N404 1.121 . S
C1735 C436 1.801 . S
C1747 C447 1.825 . S
C1762 C466 1.812 . S
C1774 C477 1.826 . S
