# Generated by pormake.
# Topology wkf, (6)-cn, num edge types: 1
# Building blocks:
#     Node 0, Type 0, BuildingBlock: KUMBUR_clean_sbu_1, # of connection points: 6
#     Node 1, Type 0, BuildingBlock: KUMBUR_clean_sbu_1, # of connection points: 6
#     Node 2, Type 0, BuildingBlock: KUMBUR_clean_sbu_1, # of connection points: 6
#     Node 3, Type 0, BuildingBlock: KUMBUR_clean_sbu_1, # of connection points: 6
#     Node 4, Type 0, BuildingBlock: KUMBUR_clean_sbu_1, # of connection points: 6
#     Node 5, Type 0, BuildingBlock: KUMBUR_clean_sbu_1, # of connection points: 6
#     Node 6, Type 0, BuildingBlock: KUMBUR_clean_sbu_1, # of connection points: 6
#     Node 7, Type 0, BuildingBlock: KUMBUR_clean_sbu_1, # of connection points: 6
#     Node 8, Type 0, BuildingBlock: KUMBUR_clean_sbu_1, # of connection points: 6
#     Node 9, Type 0, BuildingBlock: KUMBUR_clean_sbu_1, # of connection points: 6
#     Node 10, Type 0, BuildingBlock: KUMBUR_clean_sbu_1, # of connection points: 6
#     Node 11, Type 0, BuildingBlock: KUMBUR_clean_sbu_1, # of connection points: 6
#     Edge 12, Type (0, 0), BuildingBlock: KIFKEQ_clean_linker_1, # of connection points: 2
#     Edge 13, Type (0, 0), BuildingBlock: KIFKEQ_clean_linker_1, # of connection points: 2
#     Edge 14, Type (0, 0), BuildingBlock: KIFKEQ_clean_linker_1, # of connection points: 2
#     Edge 15, Type (0, 0), BuildingBlock: KIFKEQ_clean_linker_1, # of connection points: 2
#     Edge 16, Type (0, 0), BuildingBlock: KIFKEQ_clean_linker_1, # of connection points: 2
#     Edge 17, Type (0, 0), BuildingBlock: KIFKEQ_clean_linker_1, # of connection points: 2
#     Edge 18, Type (0, 0), BuildingBlock: KIFKEQ_clean_linker_1, # of connection points: 2
#     Edge 19, Type (0, 0), BuildingBlock: KIFKEQ_clean_linker_1, # of connection points: 2
#     Edge 20, Type (0, 0), BuildingBlock: KIFKEQ_clean_linker_1, # of connection points: 2
#     Edge 21, Type (0, 0), BuildingBlock: KIFKEQ_clean_linker_1, # of connection points: 2
#     Edge 22, Type (0, 0), BuildingBlock: KIFKEQ_clean_linker_1, # of connection points: 2
#     Edge 23, Type (0, 0), BuildingBlock: KIFKEQ_clean_linker_1, # of connection points: 2
#     Edge 24, Type (0, 0), BuildingBlock: KIFKEQ_clean_linker_1, # of connection points: 2
#     Edge 25, Type (0, 0), BuildingBlock: KIFKEQ_clean_linker_1, # of connection points: 2
#     Edge 26, Type (0, 0), BuildingBlock: KIFKEQ_clean_linker_1, # of connection points: 2
#     Edge 27, Type (0, 0), BuildingBlock: KIFKEQ_clean_linker_1, # of connection points: 2
#     Edge 28, Type (0, 0), BuildingBlock: KIFKEQ_clean_linker_1, # of connection points: 2
#     Edge 29, Type (0, 0), BuildingBlock: KIFKEQ_clean_linker_1, # of connection points: 2
#     Edge 30, Type (0, 0), BuildingBlock: KIFKEQ_clean_linker_1, # of connection points: 2
#     Edge 31, Type (0, 0), BuildingBlock: KIFKEQ_clean_linker_1, # of connection points: 2
#     Edge 32, Type (0, 0), BuildingBlock: KIFKEQ_clean_linker_1, # of connection points: 2
#     Edge 33, Type (0, 0), BuildingBlock: KIFKEQ_clean_linker_1, # of connection points: 2
#     Edge 34, Type (0, 0), BuildingBlock: KIFKEQ_clean_linker_1, # of connection points: 2
#     Edge 35, Type (0, 0), BuildingBlock: KIFKEQ_clean_linker_1, # of connection points: 2
#     Edge 36, Type (0, 0), BuildingBlock: KIFKEQ_clean_linker_1, # of connection points: 2
#     Edge 37, Type (0, 0), BuildingBlock: KIFKEQ_clean_linker_1, # of connection points: 2
#     Edge 38, Type (0, 0), BuildingBlock: KIFKEQ_clean_linker_1, # of connection points: 2
#     Edge 39, Type (0, 0), BuildingBlock: KIFKEQ_clean_linker_1, # of connection points: 2
#     Edge 40, Type (0, 0), BuildingBlock: KIFKEQ_clean_linker_1, # of connection points: 2
#     Edge 41, Type (0, 0), BuildingBlock: KIFKEQ_clean_linker_1, # of connection points: 2
#     Edge 42, Type (0, 0), BuildingBlock: KIFKEQ_clean_linker_1, # of connection points: 2
#     Edge 43, Type (0, 0), BuildingBlock: KIFKEQ_clean_linker_1, # of connection points: 2
#     Edge 44, Type (0, 0), BuildingBlock: KIFKEQ_clean_linker_1, # of connection points: 2
#     Edge 45, Type (0, 0), BuildingBlock: KIFKEQ_clean_linker_1, # of connection points: 2
#     Edge 46, Type (0, 0), BuildingBlock: KIFKEQ_clean_linker_1, # of connection points: 2
#     Edge 47, Type (0, 0), BuildingBlock: KIFKEQ_clean_linker_1, # of connection points: 2
# Relax obj value: 0.234
# Max RMSD: 0.285
# Mean RMSD: 0.277
data_MOF--net-wkf--node1-KUMBUR_clean_sbu_1--edge1-KIFKEQ_clean_linker_1
_symmetry_space_group_name_H-M    P1
_symmetry_Int_Tables_number       1
_symmetry_cell_setting            triclinic
loop_
_symmetry_equiv_pos_as_xyz
'x, y, z'
_cell_length_a     30.032152
_cell_length_b     30.003514
_cell_length_c     88.104966
_cell_angle_alpha  89.964315
_cell_angle_beta   90.079331
_cell_angle_gamma 119.5492
loop_
_atom_site_label
_atom_site_type_symbol
_atom_site_fract_x
_atom_site_fract_y
_atom_site_fract_z
_atom_type_partial_charge
Tb0 Tb 0.42339 0.95287 0.35435 0.0
C1 C 0.63072 0.97682 0.37432 0.0
N2 N 0.59295 0.96335 0.38468 0.0
C3 C 0.62198 0.91242 0.39802 0.0
C4 C 0.66626 0.95906 0.37554 0.0
C5 C 0.58758 0.93077 0.39633 0.0
C6 C 0.66176 0.92694 0.38765 0.0
C7 C 0.67016 1.01955 0.35079 0.0
C8 C 0.63209 1.00632 0.36205 0.0
C9 C 0.7066 1.00338 0.35221 0.0
C10 C 0.70455 0.97306 0.36453 0.0
Tb11 Tb 0.54201 0.99972 0.38196 0.0
N12 N 0.59522 1.02019 0.36084 0.0
C13 C 0.67018 0.04794 0.33826 0.0
C14 C 0.59449 0.04618 0.34812 0.0
C15 C 0.63198 0.06098 0.33689 0.0
H16 H 0.556 0.91782 0.40419 0.0
H17 H 0.63051 0.08145 0.32695 0.0
H18 H 0.52301 0.9404 0.33802 0.0
H19 H 0.34406 0.07244 0.33867 0.0
H20 H 0.56426 0.05396 0.34575 0.0
H21 H 0.6987 0.05885 0.32941 0.0
H22 H 0.36319 1.01954 0.35621 0.0
H23 H 0.61746 0.88671 0.40725 0.0
H24 H 0.73603 1.01341 0.34369 0.0
H25 H 0.73234 0.96006 0.36533 0.0
H26 H 0.56456 0.95918 0.31367 0.0
H27 H 0.6882 0.91241 0.38893 0.0
H28 H 0.38198 0.09198 0.31294 0.0
N29 N 0.47747 0.97604 0.33355 0.0
C30 C 0.46777 1.00384 0.32303 0.0
C31 C 0.53705 0.97161 0.3161 0.0
C32 C 0.49259 1.01652 0.30879 0.0
C33 C 0.51193 0.96007 0.3301 0.0
C34 C 0.52732 0.9998 0.3054 0.0
N35 N 0.41116 1.00957 0.3405 0.0
C36 C 0.3801 1.02833 0.34503 0.0
C37 C 0.42347 0.05064 0.31622 0.0
C38 C 0.43326 1.02061 0.32657 0.0
C39 C 0.39045 0.06882 0.32059 0.0
C40 C 0.36914 0.05808 0.33512 0.0
H41 H 0.54716 1.0088 0.29461 0.0
H42 H 0.50076 0.05532 0.28734 0.0
H43 H 0.44051 0.08539 0.29389 0.0
O44 O 0.34266 0.91527 0.35524 0.0
O45 O 0.41042 0.98943 0.37474 0.0
O46 O 0.48611 1.02183 0.38877 0.0
O47 O 0.37846 0.90406 0.33616 0.0
O48 O 0.40315 0.90632 0.37546 0.0
O49 O 0.47209 0.93885 0.3924 0.0
O50 O 0.60339 0.06418 0.39271 0.0
O51 O 0.51971 0.92324 0.3726 0.0
O52 O 0.45511 0.89836 0.35447 0.0
O53 O 0.5542 0.99672 0.40517 0.0
O54 O 0.54428 0.06777 0.371 0.0
O55 O 0.47193 1.03976 0.35563 0.0
C56 C 0.4405 1.01614 0.38625 0.0
C57 C 0.29577 0.89719 0.33176 0.0
C58 C 0.23543 0.86817 0.30978 0.0
C59 C 0.22198 0.90537 0.31391 0.0
C60 C 0.27597 0.92904 0.33609 0.0
C61 C 0.24122 0.93452 0.32699 0.0
C62 C 0.27437 0.86564 0.31856 0.0
C63 C 0.42383 0.90698 0.38885 0.0
C64 C 0.33496 0.89437 0.3419 0.0
C65 C 0.48209 0.0455 0.29832 0.0
C66 C 0.44767 0.06252 0.30202 0.0
C67 C 0.48955 0.89108 0.3621 0.0
C68 C 0.57679 0.07378 0.41738 0.0
C69 C 0.60525 0.14888 0.43358 0.0
C70 C 0.5556 0.12825 0.43951 0.0
C71 C 0.52723 0.05359 0.42356 0.0
C72 C 0.61542 0.12155 0.42238 0.0
C73 C 0.51696 0.08064 0.43457 0.0
C74 C 0.51454 0.07733 0.36193 0.0
C75 C 0.58843 0.04439 0.40613 0.0
H76 H 0.19524 0.91143 0.30719 0.0
H77 H 0.28687 0.94982 0.34668 0.0
H78 H 0.22823 0.96098 0.33028 0.0
H79 H 0.28653 0.83832 0.31554 0.0
H80 H 0.54695 0.14826 0.44824 0.0
H81 H 0.49629 1.01666 0.42001 0.0
H82 H 0.65348 0.13726 0.4176 0.0
H83 H 0.47897 0.06442 0.43937 0.0
Tb84 Tb 0.51346 0.40288 0.52074 0.0
C85 C 0.69108 0.60835 0.53956 0.0
N86 N 0.66878 0.57106 0.55018 0.0
C87 C 0.75009 0.60093 0.56255 0.0
C88 C 0.74405 0.64389 0.54014 0.0
C89 C 0.69762 0.56657 0.56153 0.0
C90 C 0.7734 0.63995 0.55185 0.0
C91 C 0.68377 0.64786 0.51646 0.0
C92 C 0.66111 0.60963 0.52779 0.0
C93 C 0.73615 0.68395 0.51718 0.0
C94 C 0.76626 0.68184 0.52895 0.0
Tb95 Tb 0.58186 0.51991 0.54847 0.0
N96 N 0.61051 0.57311 0.52722 0.0
C97 C 0.65338 0.64878 0.50463 0.0
C98 C 0.58155 0.57376 0.51524 0.0
C99 C 0.60213 0.61153 0.50403 0.0
H100 H 0.68043 0.53557 0.56964 0.0
H101 H 0.5785 0.61092 0.49465 0.0
H102 H 0.62433 0.50718 0.50592 0.0
H103 H 0.31759 0.31808 0.50283 0.0
H104 H 0.54332 0.54431 0.51332 0.0
H105 H 0.66931 0.67748 0.49577 0.0
H106 H 0.38795 0.33688 0.52092 0.0
H107 H 0.77258 0.59699 0.57151 0.0
H108 H 0.75389 0.7134 0.50858 0.0
H109 H 0.80677 0.70956 0.52925 0.0
H110 H 0.64832 0.55183 0.48207 0.0
H111 H 0.81415 0.6664 0.55262 0.0
H112 H 0.33707 0.36123 0.47783 0.0
N113 N 0.54472 0.45989 0.50056 0.0
C114 C 0.50829 0.4507 0.48977 0.0
C115 C 0.60882 0.52308 0.48402 0.0
C116 C 0.52099 0.4777 0.47586 0.0
C117 C 0.59463 0.49605 0.49771 0.0
C118 C 0.57196 0.51393 0.47305 0.0
N119 N 0.44591 0.38956 0.50617 0.0
C120 C 0.39648 0.35572 0.51 0.0
C121 C 0.41873 0.40486 0.48201 0.0
C122 C 0.45755 0.41432 0.49264 0.0
C123 C 0.36794 0.36946 0.4857 0.0
C124 C 0.35674 0.34512 0.49982 0.0
H125 H 0.5832 0.53538 0.46253 0.0
H126 H 0.49183 0.48815 0.45441 0.0
H127 H 0.40233 0.42469 0.45986 0.0
O128 O 0.47338 0.32216 0.52195 0.0
O129 O 0.46259 0.39058 0.54062 0.0
O130 O 0.50793 0.46022 0.55694 0.0
O131 O 0.5169 0.35838 0.50231 0.0
O132 O 0.54046 0.38208 0.5417 0.0
O133 O 0.57663 0.45091 0.55866 0.0
O134 O 0.57696 0.58114 0.55893 0.0
O135 O 0.63715 0.49862 0.5389 0.0
O136 O 0.59896 0.43425 0.52074 0.0
O137 O 0.60062 0.53571 0.57139 0.0
O138 O 0.51281 0.51872 0.53857 0.0
O139 O 0.47116 0.44779 0.52261 0.0
C140 C 0.46757 0.41614 0.55344 0.0
C141 C 0.4445 0.27349 0.4988 0.0
C142 C 0.41646 0.21209 0.47725 0.0
C143 C 0.36622 0.18963 0.48286 0.0
C144 C 0.39379 0.24794 0.50415 0.0
C145 C 0.35512 0.20742 0.4961 0.0
C146 C 0.45571 0.25514 0.48515 0.0
C147 C 0.56131 0.4028 0.55499 0.0
C148 C 0.48568 0.31475 0.50844 0.0
C149 C 0.48255 0.46775 0.46512 0.0
C150 C 0.43158 0.43152 0.46819 0.0
C151 C 0.63993 0.46838 0.52848 0.0
C152 C 0.54742 0.55875 0.58434 0.0
C153 C 0.50162 0.58827 0.60058 0.0
C154 C 0.47765 0.54069 0.60796 0.0
C155 C 0.52332 0.5113 0.592 0.0
C156 C 0.53626 0.59698 0.58869 0.0
C157 C 0.48906 0.50272 0.60379 0.0
C158 C 0.47399 0.48879 0.5295 0.0
C159 C 0.58567 0.5691 0.57234 0.0
H160 H 0.33525 0.15739 0.47705 0.0
H161 H 0.38372 0.25844 0.51482 0.0
H162 H 0.31629 0.18878 0.50038 0.0
H163 H 0.49477 0.27275 0.48109 0.0
H164 H 0.45156 0.53356 0.61731 0.0
H165 H 0.53138 0.48094 0.58908 0.0
H166 H 0.55503 0.63374 0.58295 0.0
H167 H 0.47202 0.46686 0.60992 0.0
Tb168 Tb 0.14786 0.50362 0.68639 0.0
C169 C 0.15073 0.68873 0.70477 0.0
N170 N 0.15382 0.66205 0.71671 0.0
C171 C 0.21318 0.7403 0.72914 0.0
C172 C 0.18027 0.74266 0.70429 0.0
C173 C 0.1839 0.68682 0.72895 0.0
C174 C 0.21181 0.76836 0.71667 0.0
C175 C 0.11112 0.6888 0.68092 0.0
C176 C 0.11703 0.66176 0.6932 0.0
C177 C 0.14248 0.74222 0.67992 0.0
C178 C 0.177 0.76912 0.6916 0.0
Tb179 Tb 0.1078 0.57508 0.71539 0.0
N180 N 0.08706 0.6099 0.69466 0.0
C181 C 0.07189 0.66196 0.67049 0.0
C182 C 1.04466 0.58548 0.68548 0.0
C183 C 1.03742 0.61053 0.67312 0.0
H184 H 0.1865 0.66526 0.7384 0.0
H185 H 1.00462 0.59013 0.66574 0.0
H186 H 0.12303 0.5897 0.66798 0.0
H187 H 1.05893 0.29801 0.68021 0.0
H188 H 1.01444 0.5474 0.68747 0.0
H189 H 0.06589 0.68126 0.66097 0.0
H190 H 0.10763 0.38042 0.69375 0.0
H191 H 0.23744 0.75976 0.73877 0.0
H192 H 0.13889 0.76332 0.67045 0.0
H193 H 0.19997 0.81047 0.6909 0.0
H194 H 0.08393 0.59207 0.64398 0.0
H195 H 0.23504 0.80975 0.71674 0.0
H196 H 1.02415 0.29585 0.65458 0.0
N197 N 0.1044 0.51132 0.6659 0.0
C198 C 0.08193 0.46864 0.65687 0.0
C199 C 0.08293 0.55704 0.64753 0.0
C200 C 1.05842 0.46858 0.643 0.0
C201 C 0.10515 0.55528 0.66131 0.0
C202 C 0.05965 0.51367 0.63831 0.0
N203 N 0.09995 0.42427 0.67596 0.0
C204 C 0.0916 0.37971 0.6827 0.0
C205 C 1.05183 0.37753 0.65397 0.0
C206 C 0.07934 0.42362 0.66214 0.0
C207 C 1.04523 0.33208 0.66049 0.0
C208 C 0.06456 0.33309 0.675 0.0
H209 H 1.04222 0.51525 0.6277 0.0
H210 H 1.01559 0.42277 0.62367 0.0
H211 H 1.00919 0.34297 0.63338 0.0
O212 O 0.18207 0.46271 0.67649 0.0
O213 O 0.11955 0.45818 0.70797 0.0
O214 O 0.07677 0.49434 0.7209 0.0
O215 O 0.21845 0.54321 0.67476 0.0
O216 O 0.19059 0.51653 0.70833 0.0
O217 O 0.17019 0.56514 0.72484 0.0
O218 O 1.0569 0.59373 0.72647 0.0
O219 O 0.18862 0.61837 0.70763 0.0
O220 O 0.18364 0.58913 0.68355 0.0
O221 O 0.1085 0.57852 0.73916 0.0
O222 O 1.03773 0.50812 0.70548 0.0
O223 O 0.06242 0.47132 0.68641 0.0
C224 C 0.0879 0.45753 0.71874 0.0
C225 C 0.2227 0.4993 0.65272 0.0
C226 C 0.25402 0.47797 0.62917 0.0
C227 C 0.22573 0.49543 0.62075 0.0
C228 C 0.19922 0.52005 0.64353 0.0
C229 C 0.19931 0.51667 0.62783 0.0
C230 C 0.25095 0.47835 0.64541 0.0
C231 C 0.19619 0.54146 0.72138 0.0
C232 C 0.21807 0.5023 0.6697 0.0
C233 C 1.03352 0.42335 0.6344 0.0
C234 C 1.03002 0.37791 0.6399 0.0
C235 C 0.20597 0.62649 0.69363 0.0
C236 C 1.02695 0.54703 0.74957 0.0
C237 C 0.93565 0.49196 0.75474 0.0
C238 C 0.94845 0.47849 0.76876 0.0
C239 C 1.03858 0.53323 0.76364 0.0
C240 C 0.97563 0.52472 0.74497 0.0
C241 C 0.99954 0.49842 0.77302 0.0
C242 C 1.02625 0.47368 0.69443 0.0
C243 C 0.06874 0.58436 0.73983 0.0
H244 H 0.2251 0.49401 0.60846 0.0
H245 H 0.18097 0.53973 0.64846 0.0
H246 H 0.17955 0.53167 0.62107 0.0
H247 H 0.27147 0.46429 0.65221 0.0
H248 H 0.91932 0.45422 0.7768 0.0
H249 H 0.07792 0.54941 0.76739 0.0
H250 H 0.96696 0.5338 0.73385 0.0
H251 H 1.00885 0.48806 0.78386 0.0
Tb252 Tb 0.69392 0.12465 0.85375 0.0
C253 C 0.4908 0.09723 0.88063 0.0
N254 N 0.53345 0.11367 0.8892 0.0
C255 C 0.51059 0.16704 0.90375 0.0
C256 C 0.45611 0.11535 0.88328 0.0
C257 C 0.54392 0.14823 0.90066 0.0
C258 C 0.46647 0.15056 0.89502 0.0
C259 C 0.43791 0.04489 0.85998 0.0
C260 C 0.48239 0.06277 0.86907 0.0
C261 C 0.40319 0.06265 0.86258 0.0
C262 C 0.41233 0.09789 0.87418 0.0
Tb263 Tb 0.58493 0.07976 0.88422 0.0
N264 N 0.51743 0.04693 0.86674 0.0
C265 C 0.42924 1.00947 0.84854 0.0
C266 C 0.50827 1.01211 0.85536 0.0
C267 C 0.46447 0.99295 0.84628 0.0
H268 H 0.57859 0.16222 0.90726 0.0
H269 H 0.45852 0.96601 0.83727 0.0
H270 H 0.57724 0.11297 0.8437 0.0
H271 H 0.7857 1.01951 0.83392 0.0
H272 H 0.53466 0.99972 0.85226 0.0
H273 H 0.39562 0.99484 0.84135 0.0
H274 H 0.76883 0.07215 0.85218 0.0
H275 H 0.51921 0.19457 0.91278 0.0
H276 H 0.36907 0.04931 0.85567 0.0
H277 H 0.38525 0.11133 0.87605 0.0
H278 H 0.52046 0.08062 0.82204 0.0
H279 H 0.44078 0.16537 0.89738 0.0
H280 H 0.73345 0.98733 0.81058 0.0
N281 N 0.62772 0.08618 0.83637 0.0
C282 C 0.63581 0.05871 0.82537 0.0
C283 C 0.55298 0.07441 0.82279 0.0
C284 C 0.60242 1.03782 0.81284 0.0
C285 C 0.58653 0.09379 0.83513 0.0
C286 C 0.56085 0.04629 0.81162 0.0
N287 N 0.70882 0.07086 0.83897 0.0
C288 C 0.74591 0.05816 0.84198 0.0
C289 C 0.68608 1.02101 0.81598 0.0
C290 C 0.67796 0.05134 0.82662 0.0
C291 C 0.72607 1.01054 0.8185 0.0
C292 C 0.75558 1.02853 0.83168 0.0
H293 H 0.53445 1.03105 0.80215 0.0
H294 H 0.58639 0.99327 0.79217 0.0
H295 H 0.65902 0.97777 0.79508 0.0
O296 O 0.7693 0.15568 0.8444 0.0
O297 O 0.71715 0.09745 0.87446 0.0
O298 O 0.64242 0.05745 0.88916 0.0
O299 O 0.72618 0.19256 0.84075 0.0
O300 O 0.72364 0.16502 0.87577 0.0
O301 O 0.65301 0.1529 0.88999 0.0
O302 O 0.52719 1.02509 0.89861 0.0
O303 O 0.59918 0.15253 0.87345 0.0
O304 O 0.65744 0.17468 0.85374 0.0
O305 O 0.59417 0.08938 0.90766 0.0
O306 O 0.58356 1.01109 0.87359 0.0
O307 O 0.64918 1.03822 0.85575 0.0
C308 C 0.68942 0.06795 0.88603 0.0
C309 C 0.77782 0.19585 0.81998 0.0
C310 C 0.83215 0.2352 0.79723 0.0
C311 C 0.78954 0.20412 0.78811 0.0
C312 C 0.73619 0.16858 0.81016 0.0
C313 C 0.7422 0.17143 0.7945 0.0
C314 C 0.82654 0.23006 0.81338 0.0
C315 C 0.70283 0.17535 0.88761 0.0
C316 C 0.76722 0.19152 0.83681 0.0
C317 C 0.61161 1.00937 0.80186 0.0
C318 C 0.65316 1.00078 0.80346 0.0
C319 C 0.62535 0.18299 0.86209 0.0
C320 C 0.56051 1.01394 0.92208 0.0
C321 C 0.52299 0.93803 0.93823 0.0
C322 C 0.57061 0.95501 0.94527 0.0
C323 C 0.60786 1.03071 0.92943 0.0
C324 C 0.51842 0.96745 0.92651 0.0
C325 C 0.61267 1.00127 0.94092 0.0
C326 C 0.60993 1.00101 0.86328 0.0
C327 C 0.55356 0.04655 0.91081 0.0
H328 H 0.79252 0.20638 0.77584 0.0
H329 H 0.69813 0.14636 0.81458 0.0
H330 H 0.70942 0.14933 0.78725 0.0
H331 H 0.8588 0.25373 0.82064 0.0
H332 H 0.57496 0.93337 0.95443 0.0
H333 H 0.64102 0.06697 0.92654 0.0
H334 H 0.48181 0.9546 0.92098 0.0
H335 H 0.64888 1.01481 0.9467 0.0
Tb336 Tb 0.6009 0.66742 0.02051 0.0
C337 C 0.418 0.48757 0.03692 0.0
N338 N 0.44193 0.51589 0.04932 0.0
C339 C 0.36104 0.49577 0.06029 0.0
C340 C 0.3643 0.46351 0.03543 0.0
C341 C 0.41444 0.51963 0.06112 0.0
C342 C 0.33586 0.46813 0.04729 0.0
C343 C 0.42332 0.44921 1.01344 0.0
C344 C 0.4475 0.48145 0.02603 0.0
C345 C 0.37027 0.42784 1.01133 0.0
C346 C 0.34078 0.43499 0.02233 0.0
Tb347 Tb 0.52903 0.55738 0.04951 0.0
N348 N 0.4988 0.50246 0.02861 0.0
C349 C 0.45238 0.43645 1.00392 0.0
C350 C 0.52488 0.4835 0.02049 0.0
C351 C 0.50284 0.45202 1.00783 0.0
H352 H 0.43387 0.54242 0.07097 0.0
H353 H 0.52461 0.43888 1.00127 0.0
H354 H 0.51365 0.55696 1.00258 0.0
H355 H 0.80654 0.77732 1.01428 0.0
H356 H 0.56163 0.48933 0.02375 0.0
H357 H 0.43531 0.41163 0.9942 0.0
H358 H 0.72452 0.74664 0.02782 0.0
H359 H 0.33944 0.49946 0.06955 0.0
H360 H 0.35138 0.40381 1.00159 0.0
H361 H 0.29968 0.41693 0.02083 0.0
H362 H 0.50999 0.51488 0.97862 0.0
H363 H 0.29454 0.45019 0.04659 0.0
H364 H 0.80767 0.74376 0.98873 0.0
N365 N 0.59205 0.61513 1.00025 0.0
C366 C 0.63449 0.6339 0.99118 0.0
C367 C 0.54531 0.54823 0.98207 0.0
C368 C 0.63388 0.60982 0.97738 0.0
C369 C 0.54776 0.57266 0.99582 0.0
C370 C 0.58838 0.56691 0.9728 0.0
N371 N 0.67987 0.69594 1.0101 0.0
C372 C 0.72477 0.73097 1.0168 0.0
C373 C 0.72578 0.69226 0.98817 0.0
C374 C 0.67993 0.6754 0.99634 0.0
C375 C 0.7716 0.72996 0.99463 0.0
C376 C 0.77117 0.74881 1.0091 0.0
H377 H 0.58628 0.54749 0.96223 0.0
H378 H 0.67896 0.61072 0.95807 0.0
H379 H 0.7595 0.68229 0.96763 0.0
O380 O 0.64308 0.74188 1.01057 0.0
O381 O 0.64575 0.68461 0.04223 0.0
O382 O 0.60878 0.60708 0.05573 0.0
O383 O 0.56269 0.7 1.0086 0.0
O384 O 0.58781 0.69788 0.04234 0.0
O385 O 0.53652 0.62929 0.05844 0.0
O386 O 0.50891 0.48832 0.06097 0.0
O387 O 0.48551 0.59508 0.04149 0.0
O388 O 0.51528 0.62005 0.01749 0.0
O389 O 0.52352 0.55543 0.07327 0.0
O390 O 0.59844 0.55536 0.04069 0.0
O391 O 0.63329 0.61381 0.02091 0.0
C392 C 0.64563 0.65443 0.05343 0.0
C393 C 0.60759 0.74733 0.98666 0.0
C394 C 0.62949 0.8 0.96315 0.0
C395 C 0.61126 0.75451 0.95468 0.0
C396 C 0.58659 0.70344 0.97744 0.0
C397 C 0.58978 0.70702 0.96174 0.0
C398 C 0.62906 0.79638 0.97938 0.0
C399 C 0.56131 0.67884 0.05515 0.0
C400 C 0.60405 0.7396 1.00363 0.0
C401 C 0.67889 0.62857 0.96875 0.0
C402 C 0.72476 0.66948 0.97416 0.0
C403 C 0.47764 0.60478 0.02749 0.0
C404 C 0.5531 0.50464 0.08448 0.0
C405 C 0.61456 0.4752 0.0894 0.0
C406 C 0.61878 0.49237 0.10452 0.0
C407 C 0.55777 0.52113 0.09957 0.0
C408 C 0.58352 0.48431 0.07929 0.0
C409 C 0.59128 0.51597 0.10943 0.0
C410 C 0.63249 0.57707 0.02951 0.0
C411 C 0.51701 0.50969 0.07426 0.0
H412 H 0.6123 0.75552 0.94239 0.0
H413 H 0.5667 0.66571 0.98235 0.0
H414 H 0.57435 0.6725 0.95494 0.0
H415 H 0.64344 0.83078 0.98619 0.0
H416 H 0.64135 0.48575 0.11285 0.0
H417 H 0.53542 0.53796 0.10373 0.0
H418 H 0.58172 0.4743 0.06743 0.0
H419 H 0.59459 0.52863 0.12109 0.0
Tb420 Tb 0.97785 0.59218 0.18754 0.0
C421 C 1.01667 0.41976 0.21689 0.0
N422 N 0.99639 0.44519 0.22416 0.0
C423 C 0.94579 0.37162 0.23975 0.0
C424 C 1.00284 0.36903 0.22093 0.0
C425 C 0.96068 0.42178 0.23531 0.0
C426 C 0.96728 0.3452 0.2326 0.0
C427 C 0.06977 0.41765 0.19669 0.0
C428 C 1.04947 0.44397 0.20495 0.0
C429 C 1.05761 0.36777 0.20094 0.0
C430 C 1.0241 0.34345 0.21303 0.0
Tb431 Tb 1.0241 0.52782 0.21734 0.0
N432 N 0.05937 0.492 0.201 0.0
C433 C 0.10064 0.44154 0.18414 0.0
C434 C 0.08773 0.51386 0.18817 0.0
C435 C 0.10908 0.48956 0.17977 0.0
H436 H 0.94348 0.44177 0.24078 0.0
H437 H 0.13143 0.50774 0.16972 0.0
H438 H 0.99539 0.49346 0.1747 0.0
H439 H 0.07826 0.79232 0.17186 0.0
H440 H 0.09329 0.54912 0.18362 0.0
H441 H 0.11684 0.42264 0.17749 0.0
H442 H 1.02957 0.71903 0.18924 0.0
H443 H 0.91767 0.35334 0.24863 0.0
H444 H 0.07309 0.34728 0.19476 0.0
H445 H 1.01423 0.30461 0.21601 0.0
H446 H 1.02642 0.4746 0.15148 0.0
H447 H 0.95558 0.30625 0.23601 0.0
H448 H 0.10477 0.77767 0.14662 0.0
N449 N 1.01541 0.56982 0.16842 0.0
C450 C 1.03834 0.60692 0.15754 0.0
C451 C 1.02967 0.51189 0.153 0.0
C452 C 1.05782 0.59766 0.14407 0.0
C453 C 1.01122 0.52278 0.16624 0.0
C454 C 1.05266 0.54925 0.14182 0.0
N455 N 1.02811 0.66399 0.17374 0.0
C456 C 1.04158 0.71266 0.17827 0.0
C457 C 0.07244 0.69599 0.15005 0.0
C458 C 1.04472 0.65548 0.16028 0.0
C459 C 0.08344 0.7455 0.15416 0.0
C460 C 0.06874 0.75399 0.16844 0.0
H461 H 0.06713 0.54063 0.13163 0.0
H462 H 0.09749 0.63054 0.12295 0.0
H463 H 0.111 0.71675 0.12831 0.0
O464 O 0.94612 0.63565 0.17776 0.0
O465 O 1.00478 0.63951 0.20887 0.0
O466 O 1.05453 0.60963 0.22084 0.0
O467 O 0.90572 0.55499 0.17673 0.0
O468 O 0.94231 0.58505 0.21011 0.0
O469 O 0.94692 0.51767 0.22119 0.0
O470 O 0.07359 0.52391 0.23374 0.0
O471 O 0.95577 0.46837 0.20542 0.0
O472 O 0.93114 0.5058 0.18657 0.0
O473 O 1.01045 0.53465 0.24019 0.0
O474 O 0.09277 0.59206 0.20573 0.0
O475 O 0.06402 0.62955 0.18785 0.0
C476 C 1.03977 0.64384 0.21906 0.0
C477 C 0.9013 0.5977 0.15457 0.0
C478 C 0.86979 0.62022 0.13137 0.0
C479 C 0.89211 0.59721 0.12266 0.0
C480 C 0.92076 0.57329 0.14525 0.0
C481 C 0.91696 0.5738 0.12953 0.0
C482 C 0.87456 0.62053 0.14752 0.0
C483 C 0.92937 0.55019 0.22094 0.0
C484 C 0.90803 0.59649 0.17147 0.0
C485 C 0.08267 0.63718 0.1334 0.0
C486 C 0.09018 0.68626 0.13641 0.0
C487 C 0.92537 0.46468 0.19407 0.0
C488 C 0.08353 0.57473 0.25577 0.0
C489 C 0.16156 0.61784 0.27098 0.0
C490 C 0.14239 0.64649 0.27824 0.0
C491 C 0.06454 0.60311 0.26342 0.0
C492 C 0.13217 0.58263 0.25958 0.0
C493 C 0.09398 0.63883 0.27452 0.0
C494 C 0.10189 0.62705 0.19495 0.0
C495 C 1.05122 0.53409 0.24483 0.0
H496 H 0.88903 0.59603 0.11039 0.0
H497 H 0.9384 0.55278 0.15012 0.0
H498 H 0.93277 0.55517 0.12262 0.0
H499 H 0.8578 0.63822 0.15445 0.0
H500 H 0.16398 0.67344 0.28716 0.0
H501 H 1.02667 0.59731 0.26101 0.0
H502 H 0.14679 0.56053 0.25386 0.0
H503 H 0.07884 0.66005 0.28044 0.0
Tb504 Tb 0.14391 0.66724 0.50976 0.0
C505 C 0.14778 0.48091 0.48871 0.0
N506 N 0.15057 0.51411 0.47787 0.0
C507 C 0.20853 0.49761 0.4634 0.0
C508 C 0.17599 0.4549 0.4874 0.0
C509 C 0.18035 0.52292 0.4653 0.0
C510 C 0.20644 0.46349 0.47452 0.0
C511 C 0.1142 0.4398 0.51284 0.0
C512 C 0.11748 0.47401 0.50127 0.0
C513 C 0.14253 0.41413 0.51168 0.0
C514 C 0.17341 0.42171 0.499 0.0
Tb515 Tb 0.10425 0.55438 0.4815 0.0
N516 N 0.09126 0.50041 0.5021 0.0
C517 C 0.0822 0.43186 0.52519 0.0
C518 C 1.0586 0.49081 0.51408 0.0
C519 C 1.05391 0.45702 0.52571 0.0
H520 H 0.18321 0.55026 0.45683 0.0
H521 H 1.02847 0.45069 0.53516 0.0
H522 H 0.12056 0.56658 0.53258 0.0
H523 H 0.06492 0.79483 0.50974 0.0
H524 H 1.03608 0.50889 0.51539 0.0
H525 H 0.07857 0.40592 0.53428 0.0
H526 H 0.11244 0.75474 0.49892 0.0
H527 H 0.23228 0.5049 0.45346 0.0
H528 H 0.14059 0.38809 0.52052 0.0
H529 H 0.19505 0.40166 0.49825 0.0
H530 H 0.07707 0.53172 0.55661 0.0
H531 H 0.22873 0.44433 0.47312 0.0
H532 H 1.02504 0.76862 0.53509 0.0
N533 N 0.09946 0.62486 0.53116 0.0
C534 C 0.07673 0.64835 0.53862 0.0
C535 C 0.07625 0.56424 0.55159 0.0
C536 C 1.05165 0.62955 0.55261 0.0
C537 C 0.1004 0.58393 0.53768 0.0
C538 C 1.05176 0.58706 0.55908 0.0
N539 N 0.09858 0.70536 0.51785 0.0
C540 C 0.09407 0.74201 0.50983 0.0
C541 C 1.04897 0.71198 0.53831 0.0
C542 C 0.07589 0.68958 0.53165 0.0
C543 C 1.04551 0.75056 0.53036 0.0
C544 C 0.06774 0.76528 0.51601 0.0
H545 H 1.03304 0.57155 0.56984 0.0
H546 H 1.00734 0.63934 0.57037 0.0
H547 H 1.00455 0.71111 0.55779 0.0
O548 O 0.18153 0.74352 0.51852 0.0
O549 O 0.11665 0.68173 0.48749 0.0
O550 O 0.0687 0.6007 0.47657 0.0
O551 O 0.21281 0.69488 0.52223 0.0
O552 O 0.18789 0.6951 0.48796 0.0
O553 O 0.1663 0.62561 0.47172 0.0
O554 O 1.05413 0.48496 0.47052 0.0
O555 O 0.18432 0.59157 0.4894 0.0
O556 O 0.17545 0.61336 0.51334 0.0
O557 O 0.1017 0.55291 0.45776 0.0
O558 O 1.03363 0.54755 0.49266 0.0
O559 O 1.05846 0.61449 0.50995 0.0
C560 C 0.08237 0.64941 0.47753 0.0
C561 C 0.22075 0.75046 0.54281 0.0
C562 C 0.25265 0.81017 0.56479 0.0
C563 C 0.22468 0.76821 0.57443 0.0
C564 C 0.19606 0.70992 0.55316 0.0
C565 C 0.19714 0.71874 0.56869 0.0
C566 C 0.25044 0.8012 0.54878 0.0
C567 C 0.19324 0.67505 0.47501 0.0
C568 C 0.21551 0.73806 0.52607 0.0
C569 C 1.02659 0.65316 0.55958 0.0
C570 C 1.02511 0.69413 0.55243 0.0
C571 C 0.19935 0.59875 0.50359 0.0
C572 C 1.01996 0.50081 0.44804 0.0
C573 C 0.92799 0.46643 0.44449 0.0
C574 C 0.93802 0.48843 0.42985 0.0
C575 C 1.02882 0.52206 0.43343 0.0
C576 C 0.96986 0.47514 0.45373 0.0
C577 C 0.98811 0.51671 0.42452 0.0
C578 C 1.0222 0.57323 0.50292 0.0
C579 C 0.06356 0.50666 0.45722 0.0
H580 H 0.22564 0.77353 0.58662 0.0
H581 H 0.17626 0.67084 0.54932 0.0
H582 H 0.17712 0.68675 0.57637 0.0
H583 H 0.27152 0.83306 0.54113 0.0
H584 H 0.90743 0.48221 0.42215 0.0
H585 H 0.06731 0.54282 0.42889 0.0
H586 H 0.96361 0.461 0.46527 0.0
H587 H 0.99524 0.53309 0.41324 0.0
Tb588 Tb 0.5174 0.13085 0.6761 0.0
C589 C 0.70775 0.12825 0.66412 0.0
N590 N 0.68383 0.13212 0.65156 0.0
C591 C 0.76498 0.18797 0.63993 0.0
C592 C 0.76169 0.15538 0.66521 0.0
C593 C 0.71153 0.16076 0.63939 0.0
C594 C 0.7902 0.18566 0.65296 0.0
C595 C 0.70245 0.09042 0.68874 0.0
C596 C 0.67804 0.0967 0.67581 0.0
C597 C 0.75599 0.11848 0.69009 0.0
C598 C 0.78553 0.15103 0.67837 0.0
Tb599 Tb 0.59662 0.08717 0.65152 0.0
N600 N 0.62592 0.07044 0.67421 0.0
C601 C 0.67273 0.05478 0.69975 0.0
C602 C 0.59753 1.03347 0.68478 0.0
C603 C 0.62027 1.02547 0.69757 0.0
H604 H 0.6924 0.16425 0.62945 0.0
H605 H 0.59694 0.99678 0.70587 0.0
H606 H 0.62511 0.13899 0.69399 0.0
H607 H 0.31771 1.01755 0.68954 0.0
H608 H 0.55729 1.0092 0.68403 0.0
H609 H 0.69002 0.04862 0.70975 0.0
H610 H 0.39195 0.06877 0.67278 0.0
H611 H 0.78665 0.21125 0.63039 0.0
H612 H 0.77502 0.1144 0.70002 0.0
H613 H 0.82685 0.17184 0.67947 0.0
H614 H 0.64413 0.12111 0.71916 0.0
H615 H 0.83163 0.20709 0.6534 0.0
H616 H 0.33182 0.99752 0.71576 0.0
N617 N 0.54421 0.10602 0.69756 0.0
C618 C 0.50559 0.08019 0.7078 0.0
C619 C 0.60494 0.10943 0.71611 0.0
C620 C 0.51541 0.06756 0.72241 0.0
C621 C 0.59354 0.12026 0.70165 0.0
C622 C 0.56583 0.08287 0.72651 0.0
N623 N 0.44671 0.07667 0.68938 0.0
C624 C 0.39813 0.0595 0.68416 0.0
C625 C 0.41439 1.03667 0.71357 0.0
C626 C 0.45545 0.06539 0.70361 0.0
C627 C 0.36438 1.01978 0.70845 0.0
C628 C 0.35622 1.03079 0.69363 0.0
H629 H 0.57494 0.07415 0.73764 0.0
H630 H 0.48177 1.03036 0.74378 0.0
H631 H 0.39336 1.00281 0.73596 0.0
O632 O 0.47316 0.16768 0.67429 0.0
O633 O 0.47213 0.0919 0.65496 0.0
O634 O 0.52039 0.06099 0.64274 0.0
O635 O 0.52095 0.18209 0.69347 0.0
O636 O 0.54382 0.17561 0.65478 0.0
O637 O 0.58613 0.14531 0.63923 0.0
O638 O 0.61301 1.03075 0.64334 0.0
O639 O 0.64277 0.1684 0.65831 0.0
O640 O 0.60268 0.18487 0.67818 0.0
O641 O 0.61018 0.08499 0.6283 0.0
O642 O 0.52741 1.01796 0.66093 0.0
O643 O 0.48045 0.04459 0.6757 0.0
C644 C 0.47895 0.06507 0.64398 0.0
C645 C 0.44558 0.19011 0.69732 0.0
C646 C 0.41765 0.22311 0.71908 0.0
C647 C 0.36699 0.19387 0.71391 0.0
C648 C 0.39434 0.16347 0.69241 0.0
C649 C 0.35558 0.16447 0.70078 0.0
C650 C 0.45711 0.22022 0.71085 0.0
C651 C 0.56643 0.17549 0.64187 0.0
C652 C 0.48658 0.19049 0.68736 0.0
C653 C 0.47472 1.04017 0.73253 0.0
C654 C 0.42437 1.02464 0.72811 0.0
C655 C 0.64441 0.19625 0.67006 0.0
C656 C 0.57506 1.00192 0.61902 0.0
C657 C 0.51281 0.91211 0.61419 0.0
C658 C 0.50769 0.92527 0.59916 0.0
C659 C 0.56972 1.01392 0.60397 0.0
C660 C 0.54489 0.95153 0.6242 0.0
C661 C 0.53537 0.97593 0.59422 0.0
C662 C 0.48708 1.00758 0.66966 0.0
C663 C 0.61117 0.04261 0.62926 0.0
H664 H 0.33582 0.19424 0.71998 0.0
H665 H 0.38385 0.14233 0.68186 0.0
H666 H 0.31637 0.14312 0.69685 0.0
H667 H 0.49648 0.24269 0.71458 0.0
H668 H 0.4843 0.89648 0.59091 0.0
H669 H 0.59203 0.05276 0.59976 0.0
H670 H 0.5475 0.94292 0.63598 0.0
H671 H 0.53146 0.98546 0.58262 0.0
Tb672 Tb 0.42983 0.49229 0.84181 0.0
C673 C 0.6409 0.67021 0.81583 0.0
N674 N 0.59987 0.64478 0.8067 0.0
C675 C 0.63172 0.71765 0.79012 0.0
C676 C 0.68007 0.72018 0.81234 0.0
C677 C 0.59378 0.66827 0.79421 0.0
C678 C 0.6755 0.74352 0.79913 0.0
C679 C 0.68062 0.67408 0.83994 0.0
C680 C 0.641 0.64745 0.82929 0.0
C681 C 0.72158 0.72266 0.83624 0.0
C682 C 0.72127 0.74577 0.82244 0.0
Tb683 Tb 0.54065 0.5628 0.81302 0.0
N684 N 0.59959 0.60137 0.83251 0.0
C685 C 0.67648 0.65229 0.85424 0.0
C686 C 0.59375 0.58274 0.84693 0.0
C687 C 0.63222 0.60686 0.85785 0.0
H688 H 0.55969 0.64876 0.78732 0.0
H689 H 0.62715 0.59085 0.86915 0.0
H690 H 0.51432 0.56456 0.86903 0.0
H691 H 0.29935 0.28833 0.838 0.0
H692 H 0.55913 0.55007 0.85026 0.0
H693 H 0.7059 0.67143 0.86277 0.0
H694 H 0.34068 0.37772 0.82911 0.0
H695 H 0.62705 0.73579 0.78009 0.0
H696 H 0.75257 0.74347 0.8442 0.0
H697 H 0.75207 0.78399 0.81992 0.0
H698 H 0.54112 0.5505 0.89391 0.0
H699 H 0.70466 0.78193 0.79604 0.0
H700 H 0.32169 0.26789 0.86309 0.0
N701 N 0.46217 0.48534 0.86481 0.0
C702 C 0.43829 0.4374 0.871 0.0
C703 C 0.51261 0.51823 0.8875 0.0
C704 C 0.4524 0.42787 0.8854 0.0
C705 C 0.49766 0.52585 0.87314 0.0
C706 C 0.4902 0.46903 0.89362 0.0
N707 N 0.38826 0.4078 0.84867 0.0
C708 C 0.35217 0.36932 0.83987 0.0
C709 C 0.37726 0.34675 0.86817 0.0
C710 C 0.40084 0.39729 0.86254 0.0
C711 C 0.34059 0.30724 0.85917 0.0
C712 C 0.32802 0.3186 0.84497 0.0
H713 H 0.50199 0.46332 0.90474 0.0
H714 H 0.43902 0.36963 0.90215 0.0
H715 H 0.37353 0.29861 0.88703 0.0
O716 O 0.35538 0.45649 0.85164 0.0
O717 O 0.4171 0.4506 0.81946 0.0
O718 O 0.49957 0.48043 0.81087 0.0
O719 O 0.39944 0.53753 0.85039 0.0
O720 O 0.40201 0.50001 0.81907 0.0
O721 O 0.47177 0.56897 0.80793 0.0
O722 O 0.59576 0.5698 0.79684 0.0
O723 O 0.51197 0.61189 0.82205 0.0
O724 O 0.48528 0.57753 0.84566 0.0
O725 O 0.51957 0.55176 0.7902 0.0
O726 O 0.55099 0.50216 0.82561 0.0
O727 O 0.48686 0.46426 0.84399 0.0
C728 C 0.45089 0.44669 0.81056 0.0
C729 C 0.34962 0.50246 0.87298 0.0
C730 C 0.29388 0.47881 0.89576 0.0
C731 C 0.33761 0.50854 0.9046 0.0
C732 C 0.39158 0.53341 0.88235 0.0
C733 C 0.38574 0.53575 0.89795 0.0
C734 C 0.3 0.47557 0.87979 0.0
C735 C 0.42237 0.5354 0.80831 0.0
C736 C 0.359 0.49898 0.85634 0.0
C737 C 0.4286 0.37764 0.89112 0.0
C738 C 0.39126 0.33719 0.88251 0.0
C739 C 0.504 0.61793 0.83634 0.0
C740 C 0.55749 0.5142 0.77546 0.0
C741 C 0.59641 0.47077 0.76207 0.0
C742 C 0.55042 0.44115 0.75416 0.0
C743 C 0.51199 0.48472 0.76721 0.0
C744 C 0.59929 0.50664 0.77289 0.0
C745 C 0.5086 0.44844 0.75668 0.0
C746 C 0.52788 0.4682 0.8369 0.0
C747 C 0.56243 0.55528 0.78578 0.0
H748 H 0.33427 0.51195 0.91674 0.0
H749 H 0.42933 0.5564 0.8776 0.0
H750 H 0.4188 0.55942 0.90493 0.0
H751 H 0.26677 0.45256 0.87279 0.0
H752 H 0.5473 0.41369 0.74565 0.0
H753 H 0.47911 0.49001 0.76872 0.0
H754 H 0.63454 0.52948 0.77912 0.0
H755 H 0.47365 0.42646 0.75029 0.0
Tb756 Tb 0.97391 0.40334 1.00871 0.0
C757 C 0.96294 0.59197 0.99757 0.0
N758 N 0.96126 0.56547 0.98496 0.0
C759 C 0.90478 0.59005 0.97293 0.0
C760 C 0.93539 0.6188 0.99837 0.0
C761 C 0.9324 0.56379 0.97271 0.0
C762 C 0.9064 0.61785 0.98581 0.0
C763 C 0.99162 0.61623 0.02343 0.0
C764 C 0.99036 0.59007 1.00994 0.0
C765 C 0.96506 0.64375 0.02421 0.0
C766 C 0.93684 0.64487 1.01172 0.0
Tb767 Tb 1.0091 0.52552 0.98513 0.0
N768 N 1.01422 0.56144 1.00892 0.0
C769 C 1.0191 0.61366 0.03583 0.0
C770 C 1.03985 0.55816 0.02135 0.0
C771 C 1.04338 0.58462 0.03476 0.0
H772 H 0.92959 0.54119 0.96285 0.0
H773 H 0.06412 0.58164 0.04441 0.0
H774 H 0.95757 0.47159 0.03726 0.0
H775 H 0.09838 0.3211 1.00443 0.0
H776 H 1.05662 0.53431 0.02161 0.0
H777 H 1.02123 0.63336 0.04635 0.0
H778 H 1.03632 0.34503 0.99497 0.0
H779 H 0.88184 0.58838 0.96324 0.0
H780 H 0.96566 0.66386 0.03448 0.0
H781 H 0.91594 0.66565 1.01255 0.0
H782 H 0.98649 0.4945 0.06323 0.0
H783 H 0.88456 0.63777 0.98602 0.0
H784 H 0.12848 0.33951 0.03099 0.0
N785 N 1.00254 0.43547 0.03269 0.0
C786 C 1.0338 0.41947 0.03908 0.0
C787 C 1.00046 0.47375 0.05651 0.0
C788 C 1.05099 0.43191 0.05423 0.0
C789 C 0.98439 0.46073 0.04148 0.0
C790 C 1.03414 0.45967 0.06289 0.0
N791 N 1.03355 0.38082 1.01566 0.0
C792 C 1.05067 0.35585 1.00637 0.0
C793 C 0.08408 0.37648 0.0363 0.0
C794 C 1.04953 0.39109 0.03034 0.0
C795 C 0.10181 0.35118 0.02683 0.0
C796 C 0.08525 0.3411 1.01179 0.0
H797 H 1.04644 0.46991 0.07455 0.0
H798 H 0.09776 0.42547 0.07191 0.0
H799 H 0.12726 0.37762 0.05615 0.0
O800 O 0.93769 0.32243 1.00768 0.0
O801 O 1.00845 0.4009 0.9861 0.0
O802 O 1.04602 0.48431 0.97689 0.0
O803 O 0.9192 0.35763 0.02552 0.0
O804 O 0.92566 0.38441 0.98793 0.0
O805 O 0.95655 0.45614 0.97208 0.0
O806 O 0.0617 0.60027 0.97767 0.0
O807 O 0.9276 0.48234 0.99086 0.0
O808 O 0.92918 0.44553 1.01332 0.0
O809 O 1.01117 0.54297 0.9621 0.0
O810 O 0.08184 0.53316 0.99522 0.0
O811 O 1.05926 0.45868 1.00902 0.0
C812 C 1.04014 0.43802 0.97671 0.0
C813 C 0.91643 0.27806 0.0317 0.0
C814 C 0.88483 0.21897 0.05394 0.0
C815 C 0.92585 0.20951 0.05173 0.0
C816 C 0.9539 0.26359 0.02956 0.0
C817 C 0.95947 0.23113 0.03966 0.0
C818 C 0.8812 0.25502 0.04405 0.0
C819 C 0.92663 0.40649 0.97475 0.0
C820 C 0.91327 0.31452 0.02045 0.0
C821 C 0.08428 0.41619 0.06031 0.0
C822 C 0.10091 0.38873 0.05136 0.0
C823 C 0.90836 0.4663 1.00437 0.0
C824 C 0.0934 0.59691 0.95313 0.0
C825 C 0.18466 0.6335 0.94794 0.0
C826 C 0.17257 0.61248 0.93322 0.0
C827 C 0.08238 0.57687 0.93833 0.0
C828 C 0.1445 0.62404 0.95797 0.0
C829 C 0.12175 0.58395 0.92855 0.0
C830 C 0.09468 0.50373 1.00348 0.0
C831 C 1.05108 0.58775 0.96345 0.0
H832 H 0.93156 0.1842 0.05926 0.0
H833 H 0.97889 0.27663 0.01989 0.0
H834 H 0.9896 0.22177 0.03792 0.0
H835 H 0.85051 0.26368 0.04559 0.0
H836 H 0.20219 0.6196 0.92504 0.0
H837 H 1.04322 0.55545 0.93433 0.0
H838 H 0.15298 0.63834 0.96949 0.0
H839 H 0.1129 0.56832 0.91717 0.0
Tb840 Tb 0.60597 0.96226 0.17527 0.0
C841 C 0.43101 0.99301 0.14827 0.0
N842 N 0.45778 0.97662 0.13985 0.0
C843 C 0.38305 0.9239 0.12489 0.0
C844 C 0.37867 0.97518 0.14533 0.0
C845 C 0.43469 0.94232 0.1283 0.0
C846 C 0.35487 0.9404 0.13345 0.0
C847 C 0.42875 0.04457 0.169 0.0
C848 C 0.456 1.02697 0.16001 0.0
C849 C 0.37671 1.02711 0.1661 0.0
C850 C 0.35171 0.99242 0.15431 0.0
Tb851 Tb 0.54244 1.01054 0.14524 0.0
N852 N 0.50648 0.04258 0.16262 0.0
C853 C 0.45441 0.07941 0.18062 0.0
C854 C 0.53115 0.07694 0.17416 0.0
C855 C 0.50579 0.09573 0.18316 0.0
H856 H 0.45583 0.92839 0.12182 0.0
H857 H 0.52595 0.12231 0.19229 0.0
H858 H 0.50313 0.97695 0.18587 0.0
H859 H 0.80249 0.06263 0.19447 0.0
H860 H 0.56975 0.08936 0.17738 0.0
H861 H 0.43488 0.09381 0.18774 0.0
H862 H 0.7322 1.01074 0.17653 0.0
H863 H 0.36494 0.89667 0.11577 0.0
H864 H 0.35544 1.04024 0.17292 0.0
H865 H 0.31153 0.97919 0.15223 0.0
H866 H 0.4809 1.01134 0.20757 0.0
H867 H 0.31477 0.92585 0.13086 0.0
H868 H 0.78477 0.09755 0.21769 0.0
N869 N 0.58022 1.00245 0.1928 0.0
C870 C 0.61634 1.02971 0.20363 0.0
C871 C 0.51915 1.01661 0.20664 0.0
C872 C 0.60513 0.05185 0.21615 0.0
C873 C 0.53206 0.99607 0.19427 0.0
C874 C 0.55576 0.04469 0.21759 0.0
N875 N 0.67525 1.01489 0.18984 0.0
C876 C 0.72423 1.02573 0.1867 0.0
C877 C 0.70416 0.06579 0.21261 0.0
C878 C 0.66517 1.03564 0.20218 0.0
C879 C 0.7538 0.07456 0.20993 0.0
C880 C 0.76399 0.05499 0.19682 0.0
H881 H 0.54558 0.06089 0.22707 0.0
H882 H 0.63523 0.09728 0.23659 0.0
H883 H 0.72209 0.11028 0.23332 0.0
O884 O 0.64944 0.9291 0.18421 0.0
O885 O 0.65409 0.98779 0.15417 0.0
O886 O 0.62211 1.03322 0.14057 0.0
O887 O 0.57045 0.89493 0.1885 0.0
O888 O 0.59379 0.92163 0.15323 0.0
O889 O 0.5394 0.93862 0.13834 0.0
O890 O 0.54118 0.06803 0.13153 0.0
O891 O 0.48415 0.93807 0.15598 0.0
O892 O 0.52018 0.91421 0.17543 0.0
O893 O 0.5421 1.00341 0.12169 0.0
O894 O 0.60803 0.07756 0.15667 0.0
O895 O 0.64834 0.04842 0.17337 0.0
C896 C 0.65712 1.01995 0.14317 0.0
C897 C 0.61983 0.89086 0.20889 0.0
C898 C 0.63662 0.85202 0.23154 0.0
C899 C 0.62662 0.88433 0.24073 0.0
C900 C 0.60692 0.91936 0.21879 0.0
C901 C 0.61177 0.91739 0.23442 0.0
C902 C 0.63445 0.85624 0.21541 0.0
C903 C 0.56453 0.91365 0.14105 0.0
C904 C 0.61209 0.89453 0.19213 0.0
C905 C 0.64336 0.0802 0.2269 0.0
C906 C 0.69277 0.08737 0.2251 0.0
C907 C 0.47994 0.90712 0.16725 0.0
C908 C 0.58849 0.08108 0.10862 0.0
C909 C 0.63606 0.16203 0.09503 0.0
C910 C 0.6648 0.14318 0.08769 0.0
C911 C 0.61728 0.06255 0.10096 0.0
C912 C 0.59826 0.1309 0.10559 0.0
C913 C 0.65501 0.09348 0.09056 0.0
C914 C 0.64488 0.08635 0.16667 0.0
C915 C 0.54662 0.04785 0.11909 0.0
H916 H 0.62857 0.88265 0.25299 0.0
H917 H 0.59091 0.94188 0.21448 0.0
H918 H 0.6022 0.94042 0.24173 0.0
H919 H 0.64183 0.83159 0.20812 0.0
H920 H 0.6935 0.16618 0.07935 0.0
H921 H 0.61035 1.02396 0.10281 0.0
H922 H 0.5759 0.14525 0.1113 0.0
H923 H 0.67616 0.07855 0.08451 0.0
Tb924 Tb 0.69546 0.58742 0.34249 0.0
C925 C 0.50153 0.40019 0.32448 0.0
N926 N 0.53258 0.42751 0.31289 0.0
C927 C 0.50505 0.35045 0.29845 0.0
C928 C 0.47073 0.34644 0.3235 0.0
C929 C 0.53512 0.40358 0.29998 0.0
C930 C 0.47257 0.32173 0.31024 0.0
C931 C 0.47133 0.39829 0.35003 0.0
C932 C 0.50238 0.42605 0.33758 0.0
C933 C 0.43992 0.3449 0.34903 0.0
C934 C 0.43975 0.31901 0.33581 0.0
Tb935 Tb 0.57761 0.51406 0.31582 0.0
N936 N 0.53453 0.47777 0.3383 0.0
C937 C 0.47295 0.4248 0.36319 0.0
C938 C 0.53691 0.50303 0.35147 0.0
C939 C 0.50582 0.47735 0.36389 0.0
H940 H 0.56107 0.42526 0.29094 0.0
H941 H 0.5081 0.49818 0.37416 0.0
H942 H 0.61527 0.49178 0.36741 0.0
H943 H 0.78159 0.79317 0.34597 0.0
H944 H 0.56344 0.54255 0.35305 0.0
H945 H 0.44957 0.40498 0.37295 0.0
H946 H 0.75594 0.71133 0.33312 0.0
H947 H 0.50729 0.33166 0.28823 0.0
H948 H 0.41599 0.32319 0.35848 0.0
H949 H 0.41582 0.27774 0.33527 0.0
H950 H 0.58705 0.48803 0.39321 0.0
H951 H 0.44961 0.28051 0.30909 0.0
H952 H 0.75901 0.79416 0.37288 0.0
N953 N 0.6562 0.57407 0.36591 0.0
C954 C 0.67143 0.61821 0.374 0.0
C955 C 0.61064 0.52494 0.38792 0.0
C956 C 0.65568 0.61702 0.38918 0.0
C957 C 0.62721 0.52769 0.37296 0.0
C958 C 0.6247 0.56967 0.39604 0.0
N959 N 0.71631 0.66555 0.35231 0.0
C960 C 0.74391 0.71078 0.34468 0.0
C961 C 0.71803 0.71148 0.37493 0.0
C962 C 0.70293 0.6652 0.36707 0.0
C963 C 0.74686 0.75787 0.36723 0.0
C964 C 0.75934 0.75748 0.35201 0.0
H965 H 0.61181 0.5672 0.40765 0.0
H966 H 0.65983 0.6626 0.40877 0.0
H967 H 0.71393 0.74521 0.39624 0.0
O968 O 0.77631 0.62854 0.34181 0.0
O969 O 0.70571 0.63041 0.32078 0.0
O970 O 0.625 0.5938 0.30938 0.0
O971 O 0.73914 0.57663 0.3598 0.0
O972 O 0.71564 0.5585 0.32173 0.0
O973 O 0.64828 0.52793 0.30423 0.0
O974 O 0.50598 0.49942 0.30727 0.0
O975 O 0.61231 0.46693 0.322 0.0
O976 O 0.65221 0.50082 0.34472 0.0
O977 O 0.56604 0.50882 0.29231 0.0
O978 O 0.57013 0.57609 0.32758 0.0
O979 O 0.64384 0.62308 0.3421 0.0
C980 C 0.67283 0.63023 0.31059 0.0
C981 C 0.82095 0.65008 0.36574 0.0
C982 C 0.88071 0.67459 0.38773 0.0
C983 C 0.89458 0.72603 0.38501 0.0
C984 C 0.83949 0.7025 0.36307 0.0
C985 C 0.87448 0.7397 0.37282 0.0
C986 C 0.84224 0.63612 0.37823 0.0
C987 C 0.69626 0.54226 0.30793 0.0
C988 C 0.783 0.61154 0.35468 0.0
C989 C 0.67158 0.66302 0.39712 0.0
C990 C 0.7026 0.71008 0.39002 0.0
C991 C 0.62797 0.46099 0.33538 0.0
C992 C 0.51671 0.54491 0.28414 0.0
C993 C 0.47918 0.6002 0.28011 0.0
C994 C 0.50485 0.61535 0.26606 0.0
C995 C 0.54164 0.56057 0.27007 0.0
C996 C 0.48712 0.56626 0.2893 0.0
C997 C 0.53643 0.59627 0.26124 0.0
C998 C 0.59952 0.61607 0.33638 0.0
C999 C 0.52196 0.50645 0.29329 0.0
H1000 H 0.92241 0.75633 0.39219 0.0
H1001 H 0.82806 0.71539 0.35318 0.0
H1002 H 0.88723 0.77974 0.37066 0.0
H1003 H 0.83059 0.59618 0.38014 0.0
H1004 H 0.49928 0.64039 0.25841 0.0
H1005 H 0.56512 0.54511 0.26585 0.0
H1006 H 0.46957 0.55555 0.30039 0.0
H1007 H 0.5557 0.60803 0.2504 0.0
H1008 H 0.14059 0.71508 0.22018 0.0
H1009 H 0.99824 0.66652 0.24345 0.0
H1010 H 0.18773 0.76839 0.24171 0.0
H1011 H 1.04448 0.71735 0.2654 0.0
H1012 H 0.13404 0.82893 0.3023 0.0
H1013 H 0.08903 0.78509 0.27977 0.0
H1014 H 0.22101 0.77473 0.26513 0.0
H1015 H 0.26857 0.82468 0.28731 0.0
C1016 C 0.11919 0.71727 0.22977 0.0
C1017 C 0.06536 0.68797 0.22978 0.0
C1018 C 0.14644 0.74697 0.24242 0.0
C1019 C 0.12098 0.74765 0.25581 0.0
C1020 C 0.06663 0.7197 0.25547 0.0
C1021 C 1.03944 0.69045 0.24271 0.0
C1022 C 0.15439 0.81854 0.29419 0.0
C1023 C 0.20625 0.83265 0.29664 0.0
C1024 C 0.12766 0.79193 0.28115 0.0
C1025 C 0.15057 0.77604 0.27004 0.0
C1026 C 0.20169 0.78738 0.2729 0.0
C1027 C 0.2291 0.81541 0.28591 0.0
H1028 H 0.39117 0.11207 0.47388 0.0
H1029 H 0.45933 0.25488 0.44942 0.0
H1030 H 0.39173 0.06698 0.45099 0.0
H1031 H 0.45872 0.20964 0.42616 0.0
H1032 H 0.49685 0.11774 0.39127 0.0
H1033 H 0.49258 0.16675 0.41253 0.0
H1034 H 0.35312 1.03425 0.42749 0.0
H1035 H 0.3588 0.98469 0.40613 0.0
C1036 C 0.40673 0.134 0.46357 0.0
C1037 C 0.4255 0.18733 0.4636 0.0
C1038 C 0.40626 0.10787 0.45028 0.0
C1039 C 0.42417 0.13389 0.43638 0.0
C1040 C 0.44463 0.18774 0.43652 0.0
C1041 C 0.44536 0.21403 0.44992 0.0
C1042 C 0.46418 0.09947 0.39877 0.0
C1043 C 0.42754 0.04741 0.39671 0.0
C1044 C 0.46176 0.1278 0.41111 0.0
C1045 C 0.42275 0.10502 0.42206 0.0
C1046 C 0.38445 0.05338 0.41956 0.0
C1047 C 0.3869 1.02495 0.4071 0.0
H1048 H 0.31694 0.53 0.6057 0.0
H1049 H 0.26704 0.39167 0.63172 0.0
H1050 H 0.35921 0.50215 0.58772 0.0
H1051 H 0.31111 0.36373 0.61352 0.0
H1052 H 0.45579 0.38076 0.58273 0.0
H1053 H 0.40022 0.38679 0.60216 0.0
H1054 H 0.3301 0.43423 0.56775 0.0
H1055 H 0.38254 0.42423 0.54835 0.0
C1056 C 0.31519 0.49353 0.60768 0.0
C1057 C 0.28761 0.46296 0.62018 0.0
C1058 C 0.33925 0.47729 0.5972 0.0
C1059 C 0.3375 0.42984 0.59877 0.0
C1060 C 0.31283 0.40028 0.61179 0.0
C1061 C 0.2879 0.41648 0.62233 0.0
C1062 C 0.42656 0.38981 0.57923 0.0
C1063 C 0.42327 0.40134 0.56389 0.0
C1064 C 0.39518 0.39407 0.59042 0.0
C1065 C 0.36184 0.4129 0.58671 0.0
C1066 C 0.35611 0.4208 0.57119 0.0
C1067 C 0.38587 0.41451 0.55997 0.0
H1068 H 0.99092 0.37939 0.7158 0.0
H1069 H 0.11903 0.44178 0.74654 0.0
H1070 H 0.93417 0.32858 0.73642 0.0
H1071 H 0.06228 0.38977 0.76729 0.0
H1072 H 0.92907 0.24466 0.79589 0.0
H1073 H 0.99633 0.29402 0.77697 0.0
H1074 H 0.90651 0.3594 0.75992 0.0
H1075 H 0.84063 0.31139 0.77879 0.0
C1076 C 1.00747 0.38036 0.7268 0.0
C1077 C 0.06001 0.41342 0.7293 0.0
C1078 C 0.97471 0.35187 0.73875 0.0
C1079 C 0.99334 0.35524 0.75365 0.0
C1080 C 1.04651 0.3858 0.75599 0.0
C1081 C 0.07926 0.41507 0.74402 0.0
C1082 C 0.92466 0.27098 0.78846 0.0
C1083 C 0.87942 0.2742 0.789 0.0
C1084 C 0.96295 0.29888 0.77748 0.0
C1085 C 0.95646 0.32992 0.76663 0.0
C1086 C 0.91255 0.33518 0.76782 0.0
C1087 C 0.87496 0.30806 0.77881 0.0
H1088 H 0.67599 0.97295 0.88142 0.0
H1089 H 0.73582 0.09581 0.91397 0.0
H1090 H 0.66659 0.91255 0.90136 0.0
H1091 H 0.72928 1.03565 0.93398 0.0
H1092 H 0.71974 0.89523 0.96423 0.0
H1093 H 0.74814 0.96545 0.94546 0.0
H1094 H 0.60284 0.88264 0.92251 0.0
H1095 H 0.57487 0.81411 0.94101 0.0
C1096 C 0.68966 0.98764 0.89269 0.0
C1097 C 0.70741 1.03959 0.89594 0.0
C1098 C 0.68353 0.95274 0.90426 0.0
C1099 C 0.69566 0.96865 0.91949 0.0
C1100 C 0.71889 1.02164 0.92247 0.0
C1101 C 0.72358 0.05645 0.91091 0.0
C1102 C 0.69355 0.89275 0.95538 0.0
C1103 C 0.64495 0.84853 0.95418 0.0
C1104 C 0.70999 0.9328 0.94451 0.0
C1105 C 0.67849 0.92922 0.93208 0.0
C1106 C 0.62905 0.88634 0.93152 0.0
C1107 C 0.61267 0.84711 0.94233 0.0
H1108 H 0.76736 0.59086 0.13303 0.0
H1109 H 0.90589 0.69386 0.10937 0.0
H1110 H 0.71743 0.60928 0.11461 0.0
H1111 H 0.85669 0.71361 0.09116 0.0
H1112 H 0.74535 0.67644 0.04993 0.0
H1113 H 0.80144 0.676 0.0701 0.0
H1114 H 0.692 0.66519 0.10373 0.0
H1115 H 0.63613 0.66458 0.08351 0.0
C1116 C 0.78737 0.61901 0.12424 0.0
C1117 C 0.84079 0.64135 0.12286 0.0
C1118 C 0.75871 0.62951 0.11354 0.0
C1119 C 0.7826 0.66285 0.10112 0.0
C1120 C 0.8364 0.68707 0.10027 0.0
C1121 C 0.86487 0.67636 0.1109 0.0
C1122 C 0.73454 0.67641 0.06166 0.0
C1123 C 0.68698 0.67229 0.06509 0.0
C1124 C 0.76645 0.67553 0.07332 0.0
C1125 C 0.75152 0.67008 0.08875 0.0
C1126 C 0.70494 0.6686 0.0921 0.0
C1127 C 0.67322 0.6694 0.08049 0.0
H1128 H 0.40426 0.07903 0.62831 0.0
H1129 H 0.46121 0.97311 0.63383 0.0
H1130 H 0.34957 1.02565 0.60708 0.0
H1131 H 0.40906 0.92207 0.61298 0.0
H1132 H 0.35738 0.86586 0.56612 0.0
H1133 H 0.40904 0.93196 0.58478 0.0
H1134 H 0.27381 0.93271 0.6008 0.0
H1135 H 0.22219 0.86617 0.58216 0.0
C1136 C 0.40469 0.0443 0.62525 0.0
C1137 C 0.4378 1.03101 0.63287 0.0
C1138 C 0.37376 1.01389 0.61297 0.0
C1139 C 0.37587 0.97007 0.60793 0.0
C1140 C 0.40728 0.95611 0.61607 0.0
C1141 C 0.43711 0.98555 0.62825 0.0
C1142 C 0.33897 0.8816 0.57316 0.0
C1143 C 0.28564 0.86109 0.57238 0.0
C1144 C 0.36846 0.91909 0.58407 0.0
C1145 C 0.3457 0.93762 0.59452 0.0
C1146 C 0.29292 0.91988 0.59297 0.0
C1147 C 0.26331 0.88184 0.58219 0.0
H1148 H 0.4683 0.22906 0.74601 0.0
H1149 H 0.38519 0.29264 0.72333 0.0
H1150 H 0.46971 0.27431 0.76929 0.0
H1151 H 0.38762 0.33899 0.74621 0.0
H1152 H 0.36581 0.39507 0.79166 0.0
H1153 H 0.35718 0.33875 0.77029 0.0
H1154 H 0.50134 0.3491 0.78263 0.0
H1155 H 0.50806 0.40226 0.80405 0.0
C1156 C 0.45135 0.25363 0.74588 0.0
C1157 C 0.4268 0.25712 0.7327 0.0
C1158 C 0.45183 0.27966 0.75932 0.0
C1159 C 0.4281 0.31043 0.76 0.0
C1160 C 0.40505 0.31489 0.74657 0.0
C1161 C 0.40433 0.28875 0.73325 0.0
C1162 C 0.39453 0.38365 0.79008 0.0
C1163 C 0.43736 0.40314 0.79973 0.0
C1164 C 0.39032 0.35205 0.77759 0.0
C1165 C 0.42891 0.33916 0.77434 0.0
C1166 C 0.47019 0.35676 0.78458 0.0
C1167 C 0.4742 0.38787 0.79697 0.0
H1168 H 1.03153 0.34968 0.96212 0.0
H1169 H 0.12653 0.51435 0.9642 0.0
H1170 H 0.0845 0.34851 0.94065 0.0
H1171 H 0.1762 0.51293 0.94307 0.0
H1172 H 0.22234 0.50987 0.89532 0.0
H1173 H 0.15588 0.49089 0.91436 0.0
H1174 H 0.18726 0.37893 0.93495 0.0
H1175 H 0.2546 0.39881 0.916 0.0
C1176 C 0.06347 0.38534 0.9582 0.0
C1177 C 0.07363 0.43204 0.96497 0.0
C1178 C 0.09365 0.38478 0.94582 0.0
C1179 C 0.13396 0.43091 0.9398 0.0
C1180 C 0.14484 0.47681 0.94699 0.0
C1181 C 0.1159 0.47733 0.9593 0.0
C1182 C 0.21358 0.4796 0.90347 0.0
C1183 C 0.24324 0.45517 0.90386 0.0
C1184 C 0.17577 0.46902 0.91453 0.0
C1185 C 0.166 0.4333 0.92629 0.0
C1186 C 0.1931 0.40612 0.92603 0.0
C1187 C 0.23158 0.41737 0.91509 0.0
H1188 H 0.73426 0.11869 0.14314 0.0
H1189 H 0.67326 0.97865 0.1176 0.0
H1190 H 0.78734 0.16653 0.12159 0.0
H1191 H 0.72455 1.02585 0.09578 0.0
H1192 H 0.84356 0.11698 0.06016 0.0
H1193 H 0.79704 0.0696 0.08229 0.0
H1194 H 0.78934 0.20191 0.09816 0.0
H1195 H 0.84009 0.25093 0.07618 0.0
C1196 C 0.73377 0.09775 0.13307 0.0
C1197 C 0.70109 0.04433 0.13241 0.0
C1198 C 0.76334 0.12549 0.12046 0.0
C1199 C 0.76072 0.10096 0.10655 0.0
C1200 C 0.72929 0.04692 0.10617 0.0
C1201 C 0.69991 1.01925 0.11883 0.0
C1202 C 0.83219 0.13637 0.06836 0.0
C1203 C 0.84683 0.18853 0.06633 0.0
C1204 C 0.80468 0.10864 0.08116 0.0
C1205 C 0.7893 0.13128 0.0925 0.0
C1206 C 0.80148 0.18288 0.09009 0.0
C1207 C 0.82986 0.21105 0.07725 0.0
H1208 H 0.64815 0.70513 0.31293 0.0
H1209 H 0.72111 0.64742 0.283 0.0
H1210 H 0.64158 0.75564 0.29221 0.0
H1211 H 0.71533 0.69888 0.26207 0.0
H1212 H 0.72364 0.84179 0.23308 0.0
H1213 H 0.74141 0.79206 0.25211 0.0
H1214 H 0.5868 0.72755 0.26871 0.0
H1215 H 0.56914 0.77592 0.24974 0.0
C1216 C 0.66492 0.70502 0.30207 0.0
C1217 C 0.68674 0.67349 0.29983 0.0
C1218 C 0.66031 0.73331 0.29006 0.0
C1219 C 0.67735 0.73109 0.27532 0.0
C1220 C 0.70204 0.70191 0.27324 0.0
C1221 C 0.70607 0.67295 0.2853 0.0
C1222 C 0.69302 0.81548 0.24043 0.0
C1223 C 0.64476 0.81255 0.23972 0.0
C1224 C 0.70332 0.78737 0.25147 0.0
C1225 C 0.66589 0.75645 0.26223 0.0
C1226 C 0.61696 0.75154 0.26087 0.0
C1227 C 0.60657 0.77885 0.24982 0.0
H1228 H 0.98821 0.64245 0.47811 0.0
H1229 H 0.11852 0.6847 0.44933 0.0
H1230 H 0.93864 0.64434 0.45624 0.0
H1231 H 0.06924 0.68449 0.42734 0.0
H1232 H 0.98396 0.72276 0.39169 0.0
H1233 H 1.03263 0.72212 0.41349 0.0
H1234 H 0.89421 0.6029 0.43394 0.0
H1235 H 0.84467 0.60598 0.41209 0.0
C1236 C 1.0069 0.65414 0.46717 0.0
C1237 C 1.05834 0.66624 0.46566 0.0
C1238 C 0.978 0.65383 0.45447 0.0
C1239 C 0.99923 0.66454 0.43971 0.0
C1240 C 1.05113 0.67726 0.43836 0.0
C1241 C 0.08 0.67803 0.45108 0.0
C1242 C 0.96367 0.69597 0.40076 0.0
C1243 C 0.91 0.66466 0.40003 0.0
C1244 C 0.99194 0.69535 0.41338 0.0
C1245 C 0.96805 0.6628 0.42585 0.0
C1246 C 0.91442 0.62952 0.42485 0.0
C1247 C 0.88584 0.63046 0.41214 0.0
H1248 H 0.51584 0.62269 0.32479 0.0
H1249 H 0.64096 0.70039 0.35599 0.0
H1250 H 0.48733 0.68476 0.33036 0.0
H1251 H 0.61342 0.76241 0.36152 0.0
H1252 H 0.53165 0.84538 0.37997 0.0
H1253 H 0.5569 0.78224 0.37374 0.0
H1254 H 0.49472 0.76811 0.32875 0.0
H1255 H 0.47011 0.83299 0.33512 0.0
C1256 C 0.53756 0.65275 0.33293 0.0
C1257 C 0.58114 0.65497 0.34001 0.0
C1258 C 0.52117 0.68918 0.33609 0.0
C1259 C 0.54713 0.7298 0.34663 0.0
C1260 C 0.59084 0.73199 0.35359 0.0
C1261 C 0.60729 0.69589 0.35033 0.0
C1262 C 0.52382 0.82978 0.36864 0.0
C1263 C 0.49927 0.8463 0.35813 0.0
C1264 C 0.5385 0.79273 0.36497 0.0
C1265 C 0.52922 0.76914 0.35052 0.0
C1266 C 0.50302 0.78432 0.34005 0.0
C1267 C 0.48854 0.82196 0.34375 0.0
H1268 H 0.67922 0.45187 0.50123 0.0
H1269 H 0.72626 0.50633 0.54675 0.0
H1270 H 0.7679 0.47505 0.49495 0.0
H1271 H 0.81405 0.53009 0.54064 0.0
H1272 H 0.97988 0.6119 0.52382 0.0
H1273 H 0.89115 0.5856 0.52935 0.0
H1274 H 0.84239 0.46606 0.49576 0.0
H1275 H 0.93225 0.4933 0.49014 0.0
C1276 C 0.7081 0.46849 0.51002 0.0
C1277 C 0.69416 0.47777 0.52456 0.0
C1278 C 0.75979 0.4821 0.50638 0.0
C1279 C 0.80047 0.50585 0.51708 0.0
C1280 C 0.7858 0.51367 0.53169 0.0
C1281 C 0.73444 0.49992 0.53529 0.0
C1282 C 0.95079 0.57976 0.51761 0.0
C1283 C 0.96525 0.55507 0.50656 0.0
C1284 C 0.89869 0.5641 0.52088 0.0
C1285 C 0.8573 0.52271 0.51324 0.0
C1286 C 0.8717 0.49817 0.50203 0.0
C1287 C 0.92409 0.51378 0.49882 0.0
H1288 H 0.46723 0.91783 0.65402 0.0
H1289 H 0.41297 0.96544 0.69246 0.0
H1290 H 0.40174 0.82829 0.65879 0.0
H1291 H 0.34864 0.87649 0.69745 0.0
H1292 H 0.27313 0.70531 0.71243 0.0
H1293 H 0.33702 0.79361 0.70653 0.0
H1294 H 0.30667 0.76175 0.65885 0.0
H1295 H 0.24024 0.67321 0.6649 0.0
C1296 C 0.4416 0.90976 0.66353 0.0
C1297 C 0.44651 0.9508 0.67274 0.0
C1298 C 0.40335 0.85766 0.66627 0.0
C1299 C 0.36865 0.84337 0.67863 0.0
C1300 C 0.37403 0.88441 0.68788 0.0
C1301 C 0.41138 0.93641 0.68493 0.0
C1302 C 0.27903 0.71682 0.70064 0.0
C1303 C 0.24945 0.68079 0.6893 0.0
C1304 C 0.31646 0.76827 0.6972 0.0
C1305 C 0.32802 0.78677 0.68211 0.0
C1306 C 0.29986 0.75023 0.67064 0.0
C1307 C 0.26133 0.69876 0.67414 0.0
H1308 H 0.60829 0.45663 0.82476 0.0
H1309 H 0.48759 0.38775 0.85774 0.0
H1310 H 0.63317 0.3918 0.83036 0.0
H1311 H 0.5107 0.32262 0.86303 0.0
H1312 H 0.57841 0.225 0.87951 0.0
H1313 H 0.55808 0.29185 0.87382 0.0
H1314 H 0.62679 0.31122 0.82961 0.0
H1315 H 0.64803 0.24391 0.83566 0.0
C1316 C 0.58692 0.42801 0.8333 0.0
C1317 C 0.54581 0.42917 0.84085 0.0
C1318 C 0.60104 0.38983 0.83647 0.0
C1319 C 0.5748 0.35037 0.84737 0.0
C1320 C 0.53363 0.3518 0.85483 0.0
C1321 C 0.51976 0.3899 0.85169 0.0
C1322 C 0.58904 0.24283 0.86849 0.0
C1323 C 0.61476 0.22726 0.85815 0.0
C1324 C 0.57698 0.28199 0.86509 0.0
C1325 C 0.58959 0.30838 0.85101 0.0
C1326 C 0.61611 0.29331 0.84066 0.0
C1327 C 0.62842 0.25396 0.84414 0.0
H1328 H 0.18264 0.56677 0.98633 0.0
H1329 H 0.13949 0.48317 0.02834 0.0
H1330 H 0.27269 0.59152 0.99117 0.0
H1331 H 0.22855 0.50712 0.03317 0.0
H1332 H 0.40008 0.59733 0.04619 0.0
H1333 H 0.3118 0.57408 0.04042 0.0
H1334 H 0.34047 0.56698 0.99285 0.0
H1335 H 0.42929 0.5889 0.99881 0.0
C1336 C 0.19187 0.55341 0.99664 0.0
C1337 C 0.15191 0.52187 1.00678 0.0
C1338 C 0.24422 0.56748 0.99942 0.0
C1339 C 0.25988 0.55179 1.01267 0.0
C1340 C 0.21982 0.52092 0.02286 0.0
C1341 C 0.16763 0.50628 0.01996 0.0
C1342 C 0.38793 0.59035 0.03445 0.0
C1343 C 0.42328 0.59457 0.02313 0.0
C1344 C 0.33637 0.57681 0.03108 0.0
C1345 C 0.31681 0.56762 1.01607 0.0
C1346 C 0.35267 0.57354 1.00459 0.0
C1347 C 0.40437 0.58638 1.00803 0.0
H1348 H 0.85381 0.43085 0.16996 0.0
H1349 H 0.89951 0.37175 0.2078 0.0
H1350 H 0.78847 0.3432 0.16316 0.0
H1351 H 0.83418 0.28539 0.20146 0.0
H1352 H 0.73749 0.12429 0.18224 0.0
H1353 H 0.80195 0.2117 0.1881 0.0
H1354 H 0.71139 0.26689 0.16526 0.0
H1355 H 0.64712 0.17843 0.15917 0.0
C1356 C 0.8501 0.39951 0.17695 0.0
C1357 C 0.88326 0.41008 0.18954 0.0
C1358 C 0.81185 0.34838 0.17306 0.0
C1359 C 0.80453 0.30486 0.18155 0.0
C1360 C 0.83773 0.31597 0.19417 0.0
C1361 C 0.87581 0.36672 0.19799 0.0
C1362 C 0.73062 0.15461 0.17854 0.0
C1363 C 0.68559 0.14241 0.1703 0.0
C1364 C 0.76828 0.20597 0.18199 0.0
C1365 C 0.76339 0.2488 0.17745 0.0
C1366 C 0.71835 0.23656 0.16903 0.0
C1367 C 0.68066 0.18494 0.16555 0.0
H1368 H 0.23029 0.58383 0.53267 0.0
H1369 H 0.26468 0.58224 0.48535 0.0
H1370 H 0.29403 0.55769 0.53923 0.0
H1371 H 0.32626 0.55472 0.49173 0.0
H1372 H 0.40321 0.46019 0.50569 0.0
H1373 H 0.33921 0.48585 0.50032 0.0
H1374 H 0.38492 0.57933 0.54061 0.0
H1375 H 0.44935 0.55354 0.54589 0.0
C1376 C 0.25118 0.57806 0.52359 0.0
C1377 C 0.2407 0.58493 0.50835 0.0
C1378 C 0.28818 0.56282 0.52737 0.0
C1379 C 0.31615 0.55299 0.5161 0.0
C1380 C 0.30578 0.56047 0.50093 0.0
C1381 C 0.26976 0.57649 0.49721 0.0
C1382 C 0.3999 0.48603 0.5135 0.0
C1383 C 0.43275 0.50431 0.52626 0.0
C1384 C 0.36285 0.50138 0.51034 0.0
C1385 C 0.35575 0.53545 0.51989 0.0
C1386 C 0.38796 0.55302 0.53285 0.0
C1387 C 0.42569 0.53828 0.53586 0.0
H1388 H 0.68643 0.24269 0.69836 0.0
H1389 H 0.72617 0.2545 0.65111 0.0
H1390 H 0.77515 0.30796 0.70443 0.0
H1391 H 0.81401 0.3184 0.65699 0.0
H1392 H 0.9828 0.40068 0.67129 0.0
H1393 H 0.89391 0.33807 0.66621 0.0
H1394 H 0.84729 0.39282 0.70492 0.0
H1395 H 0.93725 0.45541 0.71009 0.0
C1396 C 0.71361 0.25937 0.68916 0.0
C1397 C 0.69771 0.24176 0.67414 0.0
C1398 C 0.76535 0.29722 0.69267 0.0
C1399 C 0.8041 0.3194 0.68136 0.0
C1400 C 0.78735 0.3025 0.66633 0.0
C1401 C 0.73595 0.2652 0.66287 0.0
C1402 C 0.95413 0.39995 0.67879 0.0
C1403 C 0.9692 0.43463 0.69113 0.0
C1404 C 0.90194 0.36353 0.67577 0.0
C1405 C 0.8611 0.3591 0.68495 0.0
C1406 C 0.87617 0.39354 0.69743 0.0
C1407 C 0.92859 0.43031 0.70039 0.0
H1408 H 0.65383 0.96006 0.8437 0.0
H1409 H 0.52995 0.90993 0.8755 0.0
H1410 H 0.62989 0.87163 0.83831 0.0
H1411 H 0.50513 0.82039 0.87007 0.0
H1412 H 0.48929 0.65638 0.86437 0.0
H1413 H 0.51383 0.74535 0.8712 0.0
H1414 H 0.57761 0.79507 0.82653 0.0
H1415 H 0.55408 0.7079 0.81996 0.0
C1416 C 0.62101 0.93046 0.8495 0.0
C1417 C 0.59412 0.9442 0.85996 0.0
C1418 C 0.60675 0.8785 0.84634 0.0
C1419 C 0.56455 0.83645 0.8535 0.0
C1420 C 0.53796 0.85016 0.86419 0.0
C1421 C 0.55223 0.9024 0.86729 0.0
C1422 C 0.50875 0.68624 0.856 0.0
C1423 C 0.51924 0.67314 0.84149 0.0
C1424 C 0.5228 0.73803 0.8599 0.0
C1425 C 0.54858 0.77969 0.84958 0.0
C1426 C 0.55901 0.76605 0.83516 0.0
C1427 C 0.54482 0.71476 0.83127 0.0
H1428 H 0.69873 0.59754 1.00491 0.0
H1429 H 0.65908 0.51519 0.04717 0.0
H1430 H 0.76196 0.57107 1.00003 0.0
H1431 H 0.72246 0.48765 0.04223 0.0
H1432 H 0.87465 0.47772 0.03366 0.0
H1433 H 0.81022 0.5031 0.0401 0.0
H1434 H 0.77871 0.50629 0.99252 0.0
H1435 H 0.84153 0.48062 0.98628 0.0
C1436 C 0.70311 0.57375 1.01327 0.0
C1437 C 0.67233 0.55917 0.0265 0.0
C1438 C 0.73983 0.55776 1.01037 0.0
C1439 C 0.74864 0.52616 0.02055 0.0
C1440 C 0.71826 0.51195 0.03393 0.0
C1441 C 0.68103 0.5277 0.03677 0.0
C1442 C 0.85355 0.48308 0.02455 0.0
C1443 C 0.86473 0.47684 1.00931 0.0
C1444 C 0.81617 0.49806 0.02826 0.0
C1445 C 0.78821 0.50805 1.01695 0.0
C1446 C 0.79903 0.50067 1.0018 0.0
C1447 C 0.83568 0.48539 0.99815 0.0
H1448 H 0.44499 0.84188 0.1928 0.0
H1449 H 0.38833 0.8728 0.1516 0.0
H1450 H 0.3575 0.77648 0.19957 0.0
H1451 H 0.302 0.80766 0.15796 0.0
H1452 H 0.1395 0.71357 0.17644 0.0
H1453 H 0.2268 0.77767 0.17043 0.0
H1454 H 0.28263 0.69762 0.19841 0.0
H1455 H 0.19422 0.63378 0.20465 0.0
C1456 C 0.41423 0.83487 0.18504 0.0
C1457 C 0.42542 0.86419 0.17154 0.0
C1458 C 0.36317 0.7966 0.18893 0.0
C1459 C 0.32027 0.78533 0.17953 0.0
C1460 C 0.33202 0.81447 0.16597 0.0
C1461 C 0.38274 0.85255 0.16215 0.0
C1462 C 0.16995 0.70891 0.18127 0.0
C1463 C 0.15792 0.66694 0.19101 0.0
C1464 C 0.22125 0.74636 0.17773 0.0
C1465 C 0.26423 0.74433 0.18367 0.0
C1466 C 0.25216 0.70232 0.19352 0.0
C1467 C 0.20058 0.66482 0.19709 0.0
H1468 H 0.63073 0.41904 0.36396 0.0
H1469 H 0.5964 0.37568 0.31705 0.0
H1470 H 0.60403 0.32959 0.37052 0.0
H1471 H 0.5689 0.28711 0.3235 0.0
H1472 H 0.47916 0.11976 0.33983 0.0
H1473 H 0.5062 0.20911 0.33421 0.0
H1474 H 0.61779 0.25665 0.37018 0.0
H1475 H 0.59002 0.16669 0.3758 0.0
C1476 C 0.61763 0.39087 0.35496 0.0
C1477 C 0.61537 0.40612 0.33988 0.0
C1478 C 0.6021 0.3388 0.35875 0.0
C1479 C 0.58308 0.29908 0.34769 0.0
C1480 C 0.58176 0.31484 0.33262 0.0
C1481 C 0.5978 0.36664 0.32886 0.0
C1482 C 0.50922 0.14876 0.34664 0.0
C1483 C 0.53161 0.13408 0.35835 0.0
C1484 C 0.52546 0.20106 0.34331 0.0
C1485 C 0.56498 0.24213 0.35159 0.0
C1486 C 0.58712 0.22747 0.36344 0.0
C1487 C 0.57117 0.17505 0.36664 0.0
H1488 H 0.20234 0.65011 0.44554 0.0
H1489 H 0.26347 0.77958 0.476 0.0
H1490 H 0.2564 0.70482 0.42523 0.0
H1491 H 0.31788 0.83477 0.45546 0.0
H1492 H 0.44631 0.90818 0.41928 0.0
H1493 H 0.39193 0.85428 0.43976 0.0
H1494 H 0.26909 0.77245 0.40781 0.0
H1495 H 0.32374 0.82647 0.38721 0.0
C1496 C 0.22738 0.6903 0.44801 0.0
C1497 C 0.22818 0.70988 0.46266 0.0
C1498 C 0.25834 0.72203 0.43618 0.0
C1499 C 0.29193 0.77475 0.43847 0.0
C1500 C 0.2931 0.79442 0.45315 0.0
C1501 C 0.26159 0.76266 0.465 0.0
C1502 C 0.4078 0.87858 0.41649 0.0
C1503 C 0.39003 0.87192 0.40135 0.0
C1504 C 0.37622 0.84774 0.42839 0.0
C1505 C 0.3256 0.80853 0.42566 0.0
C1506 C 0.30785 0.80164 0.4105 0.0
C1507 C 0.33932 0.83291 0.3986 0.0
H1508 H 0.54006 0.3015 0.55349 0.0
H1509 H 0.58924 0.4276 0.58488 0.0
H1510 H 0.54195 0.24751 0.5741 0.0
H1511 H 0.59143 0.37414 0.60526 0.0
H1512 H 0.53801 0.25031 0.64233 0.0
H1513 H 0.53724 0.30348 0.62145 0.0
H1514 H 0.59675 0.23226 0.59128 0.0
H1515 H 0.59718 0.17879 0.61213 0.0
C1516 C 0.55162 0.31799 0.56471 0.0
C1517 C 0.56462 0.3694 0.56731 0.0
C1518 C 0.55289 0.28693 0.5766 0.0
C1519 C 0.56664 0.30596 0.59155 0.0
C1520 C 0.57987 0.35742 0.59407 0.0
C1521 C 0.57903 0.38847 0.58222 0.0
C1522 C 0.5512 0.24598 0.63129 0.0
C1523 C 0.56789 0.20998 0.62913 0.0
C1524 C 0.55095 0.27683 0.61923 0.0
C1525 C 0.56697 0.27266 0.60449 0.0
C1526 C 0.58356 0.23656 0.60232 0.0
C1527 C 0.58422 0.206 0.61441 0.0
H1528 H 0.45177 0.58374 0.78052 0.0
H1529 H 0.31666 0.48791 0.80683 0.0
H1530 H 0.3981 0.5828 0.75949 0.0
H1531 H 0.26297 0.48795 0.78584 0.0
H1532 H 0.1895 0.55286 0.75201 0.0
H1533 H 0.24269 0.54999 0.77246 0.0
H1534 H 0.33354 0.52269 0.73988 0.0
H1535 H 0.2793 0.52469 0.7192 0.0
C1536 C 0.41062 0.5626 0.78192 0.0
C1537 C 0.38892 0.5361 0.79558 0.0
C1538 C 0.37971 0.56178 0.76973 0.0
C1539 C 0.3259 0.5353 0.77083 0.0
C1540 C 0.30417 0.5091 0.78452 0.0
C1541 C 0.33508 0.50903 0.79661 0.0
C1542 C 0.22081 0.54629 0.74908 0.0
C1543 C 0.22993 0.53932 0.73377 0.0
C1544 C 0.25123 0.54424 0.76093 0.0
C1545 C 0.29273 0.5361 0.75797 0.0
C1546 C 0.30222 0.52937 0.74266 0.0
C1547 C 0.27093 0.53032 0.73077 0.0
H1548 H 0.67517 0.18985 0.91614 0.0
H1549 H 0.80809 0.2426 0.88743 0.0
H1550 H 0.72851 0.24464 0.93656 0.0
H1551 H 0.86188 0.29818 0.90808 0.0
H1552 H 0.93245 0.42987 0.94424 0.0
H1553 H 0.88066 0.3757 0.92325 0.0
H1554 H 0.79395 0.25294 0.95476 0.0
H1555 H 0.84586 0.30699 0.97575 0.0
C1556 C 0.71581 0.21331 0.91406 0.0
C1557 C 0.73682 0.21145 0.89989 0.0
C1558 C 0.74669 0.24468 0.92595 0.0
C1559 C 0.79993 0.27612 0.92417 0.0
C1560 C 0.82108 0.27495 0.90995 0.0
C1561 C 0.79014 0.24284 0.89805 0.0
C1562 C 0.90221 0.3914 0.94677 0.0
C1563 C 0.89349 0.37332 0.96188 0.0
C1564 C 0.87265 0.36002 0.93463 0.0
C1565 C 0.8327 0.30956 0.93713 0.0
C1566 C 0.82383 0.2916 0.95226 0.0
C1567 C 0.85388 0.32271 0.96438 0.0
H1568 H 0.59586 0.84064 0.14208 0.0
H1569 H 0.53272 0.90723 0.11138 0.0
H1570 H 0.59661 0.78613 0.12146 0.0
H1571 H 0.53386 0.85328 0.09088 0.0
H1572 H 0.58985 0.78235 0.05344 0.0
H1573 H 0.59149 0.83868 0.07394 0.0
H1574 H 0.53813 0.71289 0.10553 0.0
H1575 H 0.53613 0.65698 0.08525 0.0
C1576 C 0.58195 0.84368 0.131 0.0
C1577 C 0.56377 0.87841 0.12863 0.0
C1578 C 0.58228 0.81221 0.1191 0.0
C1579 C 0.56534 0.81494 0.10432 0.0
C1580 C 0.5477 0.85007 0.10195 0.0
C1581 C 0.54659 0.88087 0.11387 0.0
C1582 C 0.57836 0.76663 0.06474 0.0
C1583 C 0.56251 0.71461 0.06747 0.0
C1584 C 0.57912 0.799 0.07655 0.0
C1585 C 0.56502 0.78074 0.09157 0.0
C1586 C 0.5498 0.7289 0.09427 0.0
C1587 C 0.54823 0.69651 0.08248 0.0
H1588 H 0.79204 0.54944 0.30998 0.0
H1589 H 0.67933 0.53573 0.27711 0.0
H1590 H 0.84751 0.55113 0.28929 0.0
H1591 H 0.73463 0.5378 0.25658 0.0
H1592 H 0.87045 0.59766 0.22273 0.0
H1593 H 0.81563 0.59571 0.24357 0.0
H1594 H 0.85448 0.49694 0.26909 0.0
H1595 H 0.90876 0.49847 0.24826 0.0
C1596 C 0.77886 0.54663 0.29839 0.0
C1597 C 0.73064 0.5421 0.29541 0.0
C1598 C 0.81074 0.54744 0.28646 0.0
C1599 C 0.796 0.54472 0.27109 0.0
C1600 C 0.74792 0.54051 0.26815 0.0
C1601 C 0.7158 0.53886 0.28004 0.0
C1602 C 0.8672 0.57524 0.23273 0.0
C1603 C 0.89421 0.54794 0.23358 0.0
C1604 C 0.83548 0.574 0.24474 0.0
C1605 C 0.8302 0.54614 0.25819 0.0
C1606 C 0.85759 0.51924 0.25908 0.0
C1607 C 0.88863 0.51981 0.24698 0.0
H1608 H 0.89615 0.38502 0.46434 0.0
H1609 H 0.83678 0.46132 0.43569 0.0
H1610 H 0.81159 0.31359 0.46706 0.0
H1611 H 0.75267 0.38575 0.43687 0.0
H1612 H 0.6035 0.23773 0.43974 0.0
H1613 H 0.67539 0.31969 0.44801 0.0
H1614 H 0.77302 0.25135 0.44814 0.0
H1615 H 0.70138 0.17002 0.44084 0.0
C1616 C 0.86541 0.38768 0.45881 0.0
C1617 C 0.87457 0.4289 0.4492 0.0
C1618 C 0.81654 0.34571 0.4602 0.0
C1619 C 0.77593 0.34275 0.45155 0.0
C1620 C 0.78336 0.38628 0.44347 0.0
C1621 C 0.8321 0.42932 0.44252 0.0
C1622 C 0.64022 0.24029 0.44188 0.0
C1623 C 0.64717 0.19781 0.43944 0.0
C1624 C 0.68137 0.2872 0.44652 0.0
C1625 C 0.72998 0.29219 0.4488 0.0
C1626 C 0.73604 0.24895 0.44684 0.0
C1627 C 0.69513 0.20237 0.44232 0.0
H1628 H 0.55141 0.87227 0.63535 0.0
H1629 H 0.42634 0.82595 0.60336 0.0
H1630 H 0.53462 0.78567 0.63679 0.0
H1631 H 0.41376 0.73934 0.60369 0.0
H1632 H 0.57471 0.68536 0.60675 0.0
H1633 H 0.56324 0.75604 0.61496 0.0
H1634 H 0.39909 0.65654 0.61551 0.0
H1635 H 0.41109 0.58537 0.60685 0.0
C1636 C 0.51923 0.8439 0.62891 0.0
C1637 C 0.49189 0.85738 0.61861 0.0
C1638 C 0.5101 0.79388 0.62967 0.0
C1639 C 0.47476 0.7566 0.6198 0.0
C1640 C 0.44214 0.76778 0.61119 0.0
C1641 C 0.45018 0.81779 0.61078 0.0
C1642 C 0.53619 0.67855 0.60861 0.0
C1643 C 0.49368 0.63022 0.60602 0.0
C1644 C 0.52955 0.71875 0.61358 0.0
C1645 C 0.48021 0.71154 0.61612 0.0
C1646 C 0.43749 0.66297 0.61372 0.0
C1647 C 0.44429 0.62243 0.6088 0.0
H1648 H 0.6044 0.38458 0.75668 0.0
H1649 H 0.69305 0.5498 0.7588 0.0
H1650 H 0.6825 0.38111 0.75092 0.0
H1651 H 0.77031 0.54635 0.75411 0.0
H1652 H 0.90086 0.54494 0.7374 0.0
H1653 H 0.81512 0.5302 0.73526 0.0
H1654 H 0.76034 0.39499 0.76324 0.0
H1655 H 0.84607 0.40573 0.76383 0.0
C1656 C 0.64046 0.42005 0.75588 0.0
C1657 C 0.64273 0.46745 0.75836 0.0
C1658 C 0.68513 0.41804 0.7527 0.0
C1659 C 0.73265 0.46343 0.75192 0.0
C1660 C 0.73439 0.51061 0.75425 0.0
C1661 C 0.69007 0.5126 0.75727 0.0
C1662 C 0.87083 0.51055 0.74257 0.0
C1663 C 0.88149 0.47731 0.75117 0.0
C1664 C 0.82132 0.50272 0.74157 0.0
C1665 C 0.78125 0.46275 0.74962 0.0
C1666 C 0.79052 0.42666 0.75705 0.0
C1667 C 0.84008 0.4335 0.75764 0.0
H1668 H 0.42827 0.9252 0.94317 0.0
H1669 H 0.51473 0.84543 0.94551 0.0
H1670 H 0.35109 0.84715 0.94971 0.0
H1671 H 0.43722 0.76685 0.9529 0.0
H1672 H 0.21973 0.71767 0.96646 0.0
H1673 H 0.30641 0.78668 0.96899 0.0
H1674 H 0.35926 0.70556 0.94029 0.0
H1675 H 0.27266 0.63331 0.93904 0.0
C1676 C 0.43079 0.8909 0.94521 0.0
C1677 C 0.47728 0.89108 0.94354 0.0
C1678 C 0.38667 0.84626 0.94927 0.0
C1679 C 0.38801 0.80072 0.95195 0.0
C1680 C 0.43495 0.80126 0.95083 0.0
C1681 C 0.47929 0.84619 0.94669 0.0
C1682 C 0.24972 0.71296 0.96123 0.0
C1683 C 0.23859 0.67013 0.95214 0.0
C1684 C 0.29961 0.75324 0.96251 0.0
C1685 C 0.33933 0.75248 0.95436 0.0
C1686 C 0.32938 0.7076 0.94659 0.0
C1687 C 0.27947 0.66653 0.94563 0.0
H1688 H 0.561 0.18396 0.08866 0.0
H1689 H 0.72544 0.25357 0.09199 0.0
H1690 H 0.56908 0.26664 0.08334 0.0
H1691 H 0.73393 0.33752 0.08609 0.0
H1692 H 0.699 0.47153 0.10092 0.0
H1693 H 0.71347 0.39875 0.09914 0.0
H1694 H 0.59768 0.33236 0.06432 0.0
H1695 H 0.57859 0.40044 0.0672 0.0
C1696 C 0.599 0.21712 0.08816 0.0
C1697 C 0.64252 0.21258 0.09094 0.0
C1698 C 0.60377 0.26448 0.08484 0.0
C1699 C 0.65227 0.30861 0.08408 0.0
C1700 C 0.69613 0.30412 0.08657 0.0
C1701 C 0.69129 0.25626 0.08989 0.0
C1702 C 0.6764 0.44147 0.09289 0.0
C1703 C 0.63568 0.44129 0.08484 0.0
C1704 C 0.68561 0.40022 0.09164 0.0
C1705 C 0.65522 0.35896 0.082 0.0
C1706 C 0.62043 0.36285 0.07224 0.0
C1707 C 0.61006 0.40289 0.07381 0.0
H1708 H 0.39286 0.54586 0.29765 0.0
H1709 H 0.47455 0.68738 0.27222 0.0
H1710 H 0.32137 0.55997 0.30024 0.0
H1711 H 0.39914 0.6974 0.27315 0.0
H1712 H 0.25246 0.7045 0.27785 0.0
H1713 H 0.33359 0.70903 0.2849 0.0
H1714 H 0.261 0.54396 0.28141 0.0
H1715 H 0.18061 0.5395 0.27544 0.0
C1716 C 0.39653 0.5806 0.29279 0.0
C1717 C 0.4397 0.61457 0.28425 0.0
C1718 C 0.35457 0.5881 0.29406 0.0
C1719 C 0.3535 0.62841 0.28631 0.0
C1720 C 0.3983 0.6654 0.27909 0.0
C1721 C 0.44128 0.65894 0.27828 0.0
C1722 C 0.25397 0.66929 0.2789 0.0
C1723 C 0.21045 0.62168 0.27588 0.0
C1724 C 0.30041 0.6719 0.28283 0.0
C1725 C 0.30389 0.6269 0.28381 0.0
C1726 C 0.25979 0.57943 0.28113 0.0
C1727 C 0.21371 0.57685 0.27737 0.0
loop_
_geom_bond_atom_site_label_1
_geom_bond_atom_site_label_2
_geom_bond_distance
_geom_bond_site_symmetry_2
_ccdc_geom_bond_type
Tb0 N29 2.617 1_565 S
Tb0 N35 2.572 . S
Tb0 O44 2.465 . S
Tb0 O45 2.387 1_565 S
Tb0 O47 2.428 . S
Tb0 O48 2.308 . S
Tb0 O52 2.349 . S
Tb0 O55 2.393 1_565 S
Tb0 C64 2.802 . S
C1 N2 1.379 . S
C1 C4 1.416 . S
C1 C8 1.424 . S
N2 C1 1.379 . S
N2 C5 1.334 . S
N2 Tb11 2.617 1_565 S
C3 C5 1.390 . S
C3 C6 1.339 . S
C3 H23 0.930 . S
C4 C1 1.416 . S
C4 C6 1.416 . S
C4 C10 1.448 . S
C5 N2 1.334 . S
C5 C3 1.390 . S
C5 H16 0.930 . S
C6 C3 1.339 . S
C6 C4 1.416 . S
C6 H27 0.930 . S
C7 C8 1.413 . S
C7 C9 1.427 . S
C7 C13 1.416 1_565 S
C8 C1 1.424 . S
C8 C7 1.413 . S
C8 N12 1.361 1_565 S
C9 C7 1.427 . S
C9 C10 1.328 . S
C9 H24 0.929 . S
C10 C4 1.448 . S
C10 C9 1.328 . S
C10 H25 0.930 . S
Tb11 N2 2.617 1_545 S
Tb11 N12 2.572 . S
Tb11 O46 2.349 . S
Tb11 O49 2.393 1_545 S
Tb11 O50 2.465 . S
Tb11 O51 2.387 1_545 S
Tb11 O53 2.428 . S
Tb11 O54 2.308 . S
Tb11 C75 2.802 . S
N12 C8 1.361 1_545 S
N12 Tb11 2.572 . S
N12 C14 1.340 . S
C13 C7 1.416 1_545 S
C13 C15 1.332 . S
C13 H21 0.931 . S
C14 N12 1.340 . S
C14 C15 1.407 . S
C14 H20 0.930 . S
C15 C13 1.332 . S
C15 C14 1.407 . S
C15 H17 0.929 . S
H16 C5 0.930 . S
H17 C15 0.929 . S
H18 C33 0.930 . S
H19 C40 0.929 . S
H20 C14 0.930 . S
H21 C13 0.931 . S
H22 C36 0.930 . S
H23 C3 0.930 . S
H24 C9 0.929 . S
H25 C10 0.930 . S
H26 C31 0.930 . S
H27 C6 0.930 . S
H28 C39 0.931 . S
N29 Tb0 2.617 1_545 S
N29 C30 1.379 . S
N29 C33 1.334 . S
C30 N29 1.379 . S
C30 C32 1.416 . S
C30 C38 1.424 . S
C31 H26 0.930 . S
C31 C33 1.390 . S
C31 C34 1.339 . S
C32 C30 1.416 . S
C32 C34 1.416 . S
C32 C65 1.448 . S
C33 H18 0.930 . S
C33 N29 1.334 . S
C33 C31 1.390 . S
C34 C31 1.339 . S
C34 C32 1.416 . S
C34 H41 0.930 . S
N35 Tb0 2.572 . S
N35 C36 1.340 . S
N35 C38 1.361 1_565 S
C36 H22 0.930 . S
C36 N35 1.340 . S
C36 C40 1.407 . S
C37 C38 1.413 . S
C37 C39 1.416 1_545 S
C37 C66 1.427 . S
C38 C30 1.424 . S
C38 N35 1.361 1_545 S
C38 C37 1.413 . S
C39 H28 0.931 . S
C39 C37 1.416 1_565 S
C39 C40 1.332 . S
C40 H19 0.929 . S
C40 C36 1.407 . S
C40 C39 1.332 . S
H41 C34 0.930 . S
H42 C65 0.930 . S
H43 C66 0.929 . S
O44 Tb0 2.465 . S
O44 C64 1.264 . S
O45 Tb0 2.387 1_545 S
O45 C56 1.264 . S
O46 Tb11 2.349 . S
O46 C56 1.243 . S
O47 Tb0 2.428 . S
O47 C64 1.256 . S
O48 Tb0 2.308 . S
O48 C63 1.266 . S
O49 Tb11 2.393 1_565 S
O49 C63 1.248 . S
O50 Tb11 2.465 . S
O50 C75 1.264 . S
O51 Tb11 2.387 1_565 S
O51 C67 1.264 . S
O52 Tb0 2.349 . S
O52 C67 1.243 . S
O53 Tb11 2.428 . S
O53 C75 1.256 . S
O54 Tb11 2.308 . S
O54 C74 1.266 . S
O55 Tb0 2.393 1_545 S
O55 C74 1.248 . S
C56 O45 1.264 . S
C56 O46 1.243 . S
C57 C60 1.399 . S
C57 C62 1.383 . S
C57 C64 1.496 . S
C58 C59 1.399 . S
C58 C62 1.389 . S
C59 C58 1.399 . S
C59 C61 1.380 . S
C59 H76 0.929 . S
C60 C57 1.399 . S
C60 C61 1.392 . S
C60 H77 0.929 . S
C61 C59 1.380 . S
C61 C60 1.392 . S
C61 H78 0.929 . S
C62 C57 1.383 . S
C62 C58 1.389 . S
C62 H79 0.931 . S
C63 O48 1.266 . S
C63 O49 1.248 . S
C64 Tb0 2.802 . S
C64 O44 1.264 . S
C64 O47 1.256 . S
C64 C57 1.496 . S
C65 C32 1.448 . S
C65 H42 0.930 . S
C65 C66 1.328 . S
C66 C37 1.427 . S
C66 H43 0.929 . S
C66 C65 1.328 . S
C67 O51 1.264 . S
C67 O52 1.243 . S
C68 C71 1.399 . S
C68 C72 1.383 . S
C68 C75 1.496 . S
C69 C70 1.399 . S
C69 C72 1.389 . S
C70 C69 1.399 . S
C70 C73 1.380 . S
C70 H80 0.929 . S
C71 C68 1.399 . S
C71 C73 1.392 . S
C71 H81 0.929 . S
C72 C68 1.383 . S
C72 C69 1.389 . S
C72 H82 0.931 . S
C73 C70 1.380 . S
C73 C71 1.392 . S
C73 H83 0.929 . S
C74 O54 1.266 . S
C74 O55 1.248 . S
C75 Tb11 2.802 . S
C75 O50 1.264 . S
C75 O53 1.256 . S
C75 C68 1.496 . S
H76 C59 0.929 . S
H77 C60 0.929 . S
H78 C61 0.929 . S
H79 C62 0.931 . S
H80 C70 0.929 . S
H81 C71 0.929 . S
H82 C72 0.931 . S
H83 C73 0.929 . S
Tb84 N113 2.617 . S
Tb84 N119 2.572 . S
Tb84 O128 2.465 . S
Tb84 O129 2.387 . S
Tb84 O131 2.428 . S
Tb84 O132 2.308 . S
Tb84 O136 2.349 . S
Tb84 O139 2.393 . S
Tb84 C148 2.802 . S
C85 N86 1.379 . S
C85 C88 1.416 . S
C85 C92 1.424 . S
N86 C85 1.379 . S
N86 C89 1.334 . S
N86 Tb95 2.617 . S
C87 C89 1.390 . S
C87 C90 1.339 . S
C87 H107 0.930 . S
C88 C85 1.416 . S
C88 C90 1.416 . S
C88 C94 1.448 . S
C89 N86 1.334 . S
C89 C87 1.390 . S
C89 H100 0.930 . S
C90 C87 1.339 . S
C90 C88 1.416 . S
C90 H111 0.930 . S
C91 C92 1.413 . S
C91 C93 1.427 . S
C91 C97 1.416 . S
C92 C85 1.424 . S
C92 C91 1.413 . S
C92 N96 1.361 . S
C93 C91 1.427 . S
C93 C94 1.328 . S
C93 H108 0.929 . S
C94 C88 1.448 . S
C94 C93 1.328 . S
C94 H109 0.930 . S
Tb95 N86 2.617 . S
Tb95 N96 2.572 . S
Tb95 O130 2.349 . S
Tb95 O133 2.393 . S
Tb95 O134 2.465 . S
Tb95 O135 2.387 . S
Tb95 O137 2.428 . S
Tb95 O138 2.308 . S
Tb95 C159 2.802 . S
N96 C92 1.361 . S
N96 Tb95 2.572 . S
N96 C98 1.340 . S
C97 C91 1.416 . S
C97 C99 1.332 . S
C97 H105 0.931 . S
C98 N96 1.340 . S
C98 C99 1.407 . S
C98 H104 0.930 . S
C99 C97 1.332 . S
C99 C98 1.407 . S
C99 H101 0.929 . S
H100 C89 0.930 . S
H101 C99 0.929 . S
H102 C117 0.930 . S
H103 C124 0.929 . S
H104 C98 0.930 . S
H105 C97 0.931 . S
H106 C120 0.930 . S
H107 C87 0.930 . S
H108 C93 0.929 . S
H109 C94 0.930 . S
H110 C115 0.930 . S
H111 C90 0.930 . S
H112 C123 0.931 . S
N113 Tb84 2.617 . S
N113 C114 1.379 . S
N113 C117 1.334 . S
C114 N113 1.379 . S
C114 C116 1.416 . S
C114 C122 1.424 . S
C115 H110 0.930 . S
C115 C117 1.390 . S
C115 C118 1.339 . S
C116 C114 1.416 . S
C116 C118 1.416 . S
C116 C149 1.448 . S
C117 H102 0.930 . S
C117 N113 1.334 . S
C117 C115 1.390 . S
C118 C115 1.339 . S
C118 C116 1.416 . S
C118 H125 0.930 . S
N119 Tb84 2.572 . S
N119 C120 1.340 . S
N119 C122 1.361 . S
C120 H106 0.930 . S
C120 N119 1.340 . S
C120 C124 1.407 . S
C121 C122 1.413 . S
C121 C123 1.416 . S
C121 C150 1.427 . S
C122 C114 1.424 . S
C122 N119 1.361 . S
C122 C121 1.413 . S
C123 H112 0.931 . S
C123 C121 1.416 . S
C123 C124 1.332 . S
C124 H103 0.929 . S
C124 C120 1.407 . S
C124 C123 1.332 . S
H125 C118 0.930 . S
H126 C149 0.930 . S
H127 C150 0.929 . S
O128 Tb84 2.465 . S
O128 C148 1.264 . S
O129 Tb84 2.387 . S
O129 C140 1.264 . S
O130 Tb95 2.349 . S
O130 C140 1.243 . S
O131 Tb84 2.428 . S
O131 C148 1.256 . S
O132 Tb84 2.308 . S
O132 C147 1.266 . S
O133 Tb95 2.393 . S
O133 C147 1.248 . S
O134 Tb95 2.465 . S
O134 C159 1.264 . S
O135 Tb95 2.387 . S
O135 C151 1.264 . S
O136 Tb84 2.349 . S
O136 C151 1.243 . S
O137 Tb95 2.428 . S
O137 C159 1.256 . S
O138 Tb95 2.308 . S
O138 C158 1.266 . S
O139 Tb84 2.393 . S
O139 C158 1.248 . S
C140 O129 1.264 . S
C140 O130 1.243 . S
C141 C144 1.399 . S
C141 C146 1.383 . S
C141 C148 1.496 . S
C142 C143 1.399 . S
C142 C146 1.389 . S
C143 C142 1.399 . S
C143 C145 1.380 . S
C143 H160 0.929 . S
C144 C141 1.399 . S
C144 C145 1.392 . S
C144 H161 0.929 . S
C145 C143 1.380 . S
C145 C144 1.392 . S
C145 H162 0.929 . S
C146 C141 1.383 . S
C146 C142 1.389 . S
C146 H163 0.931 . S
C147 O132 1.266 . S
C147 O133 1.248 . S
C148 Tb84 2.802 . S
C148 O128 1.264 . S
C148 O131 1.256 . S
C148 C141 1.496 . S
C149 C116 1.448 . S
C149 H126 0.930 . S
C149 C150 1.328 . S
C150 C121 1.427 . S
C150 H127 0.929 . S
C150 C149 1.328 . S
C151 O135 1.264 . S
C151 O136 1.243 . S
C152 C155 1.399 . S
C152 C156 1.383 . S
C152 C159 1.496 . S
C153 C154 1.399 . S
C153 C156 1.389 . S
C154 C153 1.399 . S
C154 C157 1.380 . S
C154 H164 0.929 . S
C155 C152 1.399 . S
C155 C157 1.392 . S
C155 H165 0.929 . S
C156 C152 1.383 . S
C156 C153 1.389 . S
C156 H166 0.931 . S
C157 C154 1.380 . S
C157 C155 1.392 . S
C157 H167 0.929 . S
C158 O138 1.266 . S
C158 O139 1.248 . S
C159 Tb95 2.802 . S
C159 O134 1.264 . S
C159 O137 1.256 . S
C159 C152 1.496 . S
H160 C143 0.929 . S
H161 C144 0.929 . S
H162 C145 0.929 . S
H163 C146 0.931 . S
H164 C154 0.929 . S
H165 C155 0.929 . S
H166 C156 0.931 . S
H167 C157 0.929 . S
Tb168 N197 2.617 1_455 S
Tb168 N203 2.572 . S
Tb168 O212 2.465 . S
Tb168 O213 2.387 1_455 S
Tb168 O215 2.428 . S
Tb168 O216 2.308 . S
Tb168 O220 2.349 . S
Tb168 O223 2.393 1_455 S
Tb168 C232 2.802 . S
C169 N170 1.379 . S
C169 C172 1.416 . S
C169 C176 1.424 . S
N170 C169 1.379 . S
N170 C173 1.334 . S
N170 Tb179 2.617 1_455 S
C171 C173 1.390 . S
C171 C174 1.339 . S
C171 H191 0.930 . S
C172 C169 1.416 . S
C172 C174 1.416 . S
C172 C178 1.448 . S
C173 N170 1.334 . S
C173 C171 1.390 . S
C173 H184 0.930 . S
C174 C171 1.339 . S
C174 C172 1.416 . S
C174 H195 0.930 . S
C175 C176 1.413 . S
C175 C177 1.427 . S
C175 C181 1.416 1_455 S
C176 C169 1.424 . S
C176 C175 1.413 . S
C176 N180 1.361 1_455 S
C177 C175 1.427 . S
C177 C178 1.328 . S
C177 H192 0.929 . S
C178 C172 1.448 . S
C178 C177 1.328 . S
C178 H193 0.930 . S
Tb179 N170 2.617 1_655 S
Tb179 N180 2.572 . S
Tb179 O214 2.349 . S
Tb179 O217 2.393 1_655 S
Tb179 O218 2.465 . S
Tb179 O219 2.387 1_655 S
Tb179 O221 2.428 . S
Tb179 O222 2.308 . S
Tb179 C243 2.802 . S
N180 C176 1.361 1_655 S
N180 Tb179 2.572 . S
N180 C182 1.340 . S
C181 C175 1.416 1_655 S
C181 C183 1.332 . S
C181 H189 0.931 . S
C182 N180 1.340 . S
C182 C183 1.407 . S
C182 H188 0.930 . S
C183 C181 1.332 . S
C183 C182 1.407 . S
C183 H185 0.929 . S
H184 C173 0.930 . S
H185 C183 0.929 . S
H186 C201 0.930 . S
H187 C208 0.929 . S
H188 C182 0.930 . S
H189 C181 0.931 . S
H190 C204 0.930 . S
H191 C171 0.930 . S
H192 C177 0.929 . S
H193 C178 0.930 . S
H194 C199 0.930 . S
H195 C174 0.930 . S
H196 C207 0.931 . S
N197 Tb168 2.617 1_655 S
N197 C198 1.379 . S
N197 C201 1.334 . S
C198 N197 1.379 . S
C198 C200 1.416 . S
C198 C206 1.424 . S
C199 H194 0.930 . S
C199 C201 1.390 . S
C199 C202 1.339 . S
C200 C198 1.416 . S
C200 C202 1.416 . S
C200 C233 1.448 . S
C201 H186 0.930 . S
C201 N197 1.334 . S
C201 C199 1.390 . S
C202 C199 1.339 . S
C202 C200 1.416 . S
C202 H209 0.930 . S
N203 Tb168 2.572 . S
N203 C204 1.340 . S
N203 C206 1.361 1_455 S
C204 H190 0.930 . S
C204 N203 1.340 . S
C204 C208 1.407 . S
C205 C206 1.413 . S
C205 C207 1.416 1_655 S
C205 C234 1.427 . S
C206 C198 1.424 . S
C206 N203 1.361 1_655 S
C206 C205 1.413 . S
C207 H196 0.931 . S
C207 C205 1.416 1_455 S
C207 C208 1.332 . S
C208 H187 0.929 . S
C208 C204 1.407 . S
C208 C207 1.332 . S
H209 C202 0.930 . S
H210 C233 0.930 . S
H211 C234 0.929 . S
O212 Tb168 2.465 . S
O212 C232 1.264 . S
O213 Tb168 2.387 1_655 S
O213 C224 1.264 . S
O214 Tb179 2.349 . S
O214 C224 1.243 . S
O215 Tb168 2.428 . S
O215 C232 1.256 . S
O216 Tb168 2.308 . S
O216 C231 1.266 . S
O217 Tb179 2.393 1_455 S
O217 C231 1.248 . S
O218 Tb179 2.465 . S
O218 C243 1.264 . S
O219 Tb179 2.387 1_455 S
O219 C235 1.264 . S
O220 Tb168 2.349 . S
O220 C235 1.243 . S
O221 Tb179 2.428 . S
O221 C243 1.256 . S
O222 Tb179 2.308 . S
O222 C242 1.266 . S
O223 Tb168 2.393 1_655 S
O223 C242 1.248 . S
C224 O213 1.264 . S
C224 O214 1.243 . S
C225 C228 1.399 . S
C225 C230 1.383 . S
C225 C232 1.496 . S
C226 C227 1.399 . S
C226 C230 1.389 . S
C227 C226 1.399 . S
C227 C229 1.380 . S
C227 H244 0.929 . S
C228 C225 1.399 . S
C228 C229 1.392 . S
C228 H245 0.929 . S
C229 C227 1.380 . S
C229 C228 1.392 . S
C229 H246 0.929 . S
C230 C225 1.383 . S
C230 C226 1.389 . S
C230 H247 0.931 . S
C231 O216 1.266 . S
C231 O217 1.248 . S
C232 Tb168 2.802 . S
C232 O212 1.264 . S
C232 O215 1.256 . S
C232 C225 1.496 . S
C233 C200 1.448 . S
C233 H210 0.930 . S
C233 C234 1.328 . S
C234 C205 1.427 . S
C234 H211 0.929 . S
C234 C233 1.328 . S
C235 O219 1.264 . S
C235 O220 1.243 . S
C236 C239 1.399 . S
C236 C240 1.383 . S
C236 C243 1.496 . S
C237 C238 1.399 . S
C237 C240 1.389 . S
C238 C237 1.399 . S
C238 C241 1.380 . S
C238 H248 0.929 . S
C239 C236 1.399 . S
C239 C241 1.392 . S
C239 H249 0.929 . S
C240 C236 1.383 . S
C240 C237 1.389 . S
C240 H250 0.931 . S
C241 C238 1.380 . S
C241 C239 1.392 . S
C241 H251 0.929 . S
C242 O222 1.266 . S
C242 O223 1.248 . S
C243 Tb179 2.802 . S
C243 O218 1.264 . S
C243 O221 1.256 . S
C243 C236 1.496 . S
H244 C227 0.929 . S
H245 C228 0.929 . S
H246 C229 0.929 . S
H247 C230 0.931 . S
H248 C238 0.929 . S
H249 C239 0.929 . S
H250 C240 0.931 . S
H251 C241 0.929 . S
Tb252 N281 2.617 1_545 S
Tb252 N287 2.572 . S
Tb252 O296 2.465 . S
Tb252 O297 2.387 1_545 S
Tb252 O299 2.428 . S
Tb252 O300 2.308 . S
Tb252 O304 2.349 . S
Tb252 O307 2.393 1_545 S
Tb252 C316 2.802 . S
C253 N254 1.379 . S
C253 C256 1.416 . S
C253 C260 1.424 . S
N254 C253 1.379 . S
N254 C257 1.334 . S
N254 Tb263 2.617 1_545 S
C255 C257 1.390 . S
C255 C258 1.339 . S
C255 H275 0.930 . S
C256 C253 1.416 . S
C256 C258 1.416 . S
C256 C262 1.448 . S
C257 N254 1.334 . S
C257 C255 1.390 . S
C257 H268 0.930 . S
C258 C255 1.339 . S
C258 C256 1.416 . S
C258 H279 0.930 . S
C259 C260 1.413 . S
C259 C261 1.427 . S
C259 C265 1.416 1_545 S
C260 C253 1.424 . S
C260 C259 1.413 . S
C260 N264 1.361 1_545 S
C261 C259 1.427 . S
C261 C262 1.328 . S
C261 H276 0.929 . S
C262 C256 1.448 . S
C262 C261 1.328 . S
C262 H277 0.930 . S
Tb263 N254 2.617 1_565 S
Tb263 N264 2.572 . S
Tb263 O298 2.349 . S
Tb263 O301 2.393 1_565 S
Tb263 O302 2.465 . S
Tb263 O303 2.387 1_565 S
Tb263 O305 2.428 . S
Tb263 O306 2.308 . S
Tb263 C327 2.802 . S
N264 C260 1.361 1_565 S
N264 Tb263 2.572 . S
N264 C266 1.340 . S
C265 C259 1.416 1_565 S
C265 C267 1.332 . S
C265 H273 0.931 . S
C266 N264 1.340 . S
C266 C267 1.407 . S
C266 H272 0.930 . S
C267 C265 1.332 . S
C267 C266 1.407 . S
C267 H269 0.929 . S
H268 C257 0.930 . S
H269 C267 0.929 . S
H270 C285 0.930 . S
H271 C292 0.929 . S
H272 C266 0.930 . S
H273 C265 0.931 . S
H274 C288 0.930 . S
H275 C255 0.930 . S
H276 C261 0.929 . S
H277 C262 0.930 . S
H278 C283 0.930 . S
H279 C258 0.930 . S
H280 C291 0.931 . S
N281 Tb252 2.617 1_565 S
N281 C282 1.379 . S
N281 C285 1.334 . S
C282 N281 1.379 . S
C282 C284 1.416 . S
C282 C290 1.424 . S
C283 H278 0.930 . S
C283 C285 1.390 . S
C283 C286 1.339 . S
C284 C282 1.416 . S
C284 C286 1.416 . S
C284 C317 1.448 . S
C285 H270 0.930 . S
C285 N281 1.334 . S
C285 C283 1.390 . S
C286 C283 1.339 . S
C286 C284 1.416 . S
C286 H293 0.930 . S
N287 Tb252 2.572 . S
N287 C288 1.340 . S
N287 C290 1.361 1_545 S
C288 H274 0.930 . S
C288 N287 1.340 . S
C288 C292 1.407 . S
C289 C290 1.413 . S
C289 C291 1.416 1_565 S
C289 C318 1.427 . S
C290 C282 1.424 . S
C290 N287 1.361 1_565 S
C290 C289 1.413 . S
C291 H280 0.931 . S
C291 C289 1.416 1_545 S
C291 C292 1.332 . S
C292 H271 0.929 . S
C292 C288 1.407 . S
C292 C291 1.332 . S
H293 C286 0.930 . S
H294 C317 0.930 . S
H295 C318 0.929 . S
O296 Tb252 2.465 . S
O296 C316 1.264 . S
O297 Tb252 2.387 1_565 S
O297 C308 1.264 . S
O298 Tb263 2.349 . S
O298 C308 1.243 . S
O299 Tb252 2.428 . S
O299 C316 1.256 . S
O300 Tb252 2.308 . S
O300 C315 1.266 . S
O301 Tb263 2.393 1_545 S
O301 C315 1.248 . S
O302 Tb263 2.465 . S
O302 C327 1.264 . S
O303 Tb263 2.387 1_545 S
O303 C319 1.264 . S
O304 Tb252 2.349 . S
O304 C319 1.243 . S
O305 Tb263 2.428 . S
O305 C327 1.256 . S
O306 Tb263 2.308 . S
O306 C326 1.266 . S
O307 Tb252 2.393 1_565 S
O307 C326 1.248 . S
C308 O297 1.264 . S
C308 O298 1.243 . S
C309 C312 1.399 . S
C309 C314 1.383 . S
C309 C316 1.496 . S
C310 C311 1.399 . S
C310 C314 1.389 . S
C311 C310 1.399 . S
C311 C313 1.380 . S
C311 H328 0.929 . S
C312 C309 1.399 . S
C312 C313 1.392 . S
C312 H329 0.929 . S
C313 C311 1.380 . S
C313 C312 1.392 . S
C313 H330 0.929 . S
C314 C309 1.383 . S
C314 C310 1.389 . S
C314 H331 0.931 . S
C315 O300 1.266 . S
C315 O301 1.248 . S
C316 Tb252 2.802 . S
C316 O296 1.264 . S
C316 O299 1.256 . S
C316 C309 1.496 . S
C317 C284 1.448 . S
C317 H294 0.930 . S
C317 C318 1.328 . S
C318 C289 1.427 . S
C318 H295 0.929 . S
C318 C317 1.328 . S
C319 O303 1.264 . S
C319 O304 1.243 . S
C320 C323 1.399 . S
C320 C324 1.383 . S
C320 C327 1.496 . S
C321 C322 1.399 . S
C321 C324 1.389 . S
C322 C321 1.399 . S
C322 C325 1.380 . S
C322 H332 0.929 . S
C323 C320 1.399 . S
C323 C325 1.392 . S
C323 H333 0.929 . S
C324 C320 1.383 . S
C324 C321 1.389 . S
C324 H334 0.931 . S
C325 C322 1.380 . S
C325 C323 1.392 . S
C325 H335 0.929 . S
C326 O306 1.266 . S
C326 O307 1.248 . S
C327 Tb263 2.802 . S
C327 O302 1.264 . S
C327 O305 1.256 . S
C327 C320 1.496 . S
H328 C311 0.929 . S
H329 C312 0.929 . S
H330 C313 0.929 . S
H331 C314 0.931 . S
H332 C322 0.929 . S
H333 C323 0.929 . S
H334 C324 0.931 . S
H335 C325 0.929 . S
Tb336 N365 2.617 . S
Tb336 N371 2.572 . S
Tb336 O380 2.465 . S
Tb336 O381 2.387 . S
Tb336 O383 2.428 1_554 S
Tb336 O384 2.308 . S
Tb336 O388 2.349 . S
Tb336 O391 2.393 . S
Tb336 C400 2.802 1_554 S
C337 N338 1.379 . S
C337 C340 1.416 . S
C337 C344 1.424 . S
N338 C337 1.379 . S
N338 C341 1.334 . S
N338 Tb347 2.617 . S
C339 C341 1.390 . S
C339 C342 1.339 . S
C339 H359 0.930 . S
C340 C337 1.416 . S
C340 C342 1.416 . S
C340 C346 1.448 . S
C341 N338 1.334 . S
C341 C339 1.390 . S
C341 H352 0.930 . S
C342 C339 1.339 . S
C342 C340 1.416 . S
C342 H363 0.930 . S
C343 C344 1.413 . S
C343 C345 1.427 . S
C343 C349 1.416 . S
C344 C337 1.424 . S
C344 C343 1.413 . S
C344 N348 1.361 . S
C345 C343 1.427 . S
C345 C346 1.328 . S
C345 H360 0.929 . S
C346 C340 1.448 . S
C346 C345 1.328 . S
C346 H361 0.930 . S
Tb347 N338 2.617 . S
Tb347 N348 2.572 . S
Tb347 O382 2.349 . S
Tb347 O385 2.393 . S
Tb347 O386 2.465 . S
Tb347 O387 2.387 . S
Tb347 O389 2.428 . S
Tb347 O390 2.308 . S
Tb347 C411 2.802 . S
N348 C344 1.361 . S
N348 Tb347 2.572 . S
N348 C350 1.340 . S
C349 C343 1.416 . S
C349 C351 1.332 . S
C349 H357 0.931 . S
C350 N348 1.340 . S
C350 C351 1.407 . S
C350 H356 0.930 . S
C351 C349 1.332 . S
C351 C350 1.407 . S
C351 H353 0.929 . S
H352 C341 0.930 . S
H353 C351 0.929 . S
H354 C369 0.955 . S
H355 C376 0.929 . S
H356 C350 0.930 . S
H357 C349 0.931 . S
H358 C372 0.930 . S
H359 C339 0.930 . S
H360 C345 0.929 . S
H361 C346 0.930 . S
H362 C367 0.930 . S
H363 C342 0.930 . S
H364 C375 0.931 . S
N365 Tb336 2.617 . S
N365 C366 1.379 . S
N365 C369 1.299 1_554 S
C366 N365 1.379 . S
C366 C368 1.416 . S
C366 C374 1.424 . S
C367 H362 0.930 . S
C367 C369 1.404 . S
C367 C370 1.339 1_556 S
C368 C366 1.416 . S
C368 C370 1.416 . S
C368 C401 1.448 . S
C369 H354 0.955 . S
C369 N365 1.299 1_556 S
C369 C367 1.404 . S
C370 C367 1.339 1_554 S
C370 C368 1.416 . S
C370 H377 0.923 1_554 S
N371 Tb336 2.572 . S
N371 C372 1.340 . S
N371 C374 1.361 . S
C372 H358 0.930 . S
C372 N371 1.340 . S
C372 C376 1.407 . S
C373 C374 1.413 . S
C373 C375 1.416 . S
C373 C402 1.427 . S
C374 C366 1.424 . S
C374 N371 1.361 . S
C374 C373 1.413 . S
C375 H364 0.931 . S
C375 C373 1.416 . S
C375 C376 1.332 . S
C376 H355 0.929 . S
C376 C372 1.407 . S
C376 C375 1.332 . S
H377 C370 0.923 1_556 S
H378 C401 0.930 . S
H379 C402 0.929 . S
O380 Tb336 2.465 . S
O380 C400 1.264 1_554 S
O381 Tb336 2.387 . S
O381 C392 1.264 . S
O382 Tb347 2.349 . S
O382 C392 1.243 . S
O383 Tb336 2.428 1_556 S
O383 C400 1.256 . S
O384 Tb336 2.308 . S
O384 C399 1.266 . S
O385 Tb347 2.393 . S
O385 C399 1.248 . S
O386 Tb347 2.465 . S
O386 C411 1.264 . S
O387 Tb347 2.387 . S
O387 C403 1.264 . S
O388 Tb336 2.349 . S
O388 C403 1.243 . S
O389 Tb347 2.428 . S
O389 C411 1.256 . S
O390 Tb347 2.308 . S
O390 C410 1.266 . S
O391 Tb336 2.393 . S
O391 C410 1.248 . S
C392 O381 1.264 . S
C392 O382 1.243 . S
C393 C396 1.399 . S
C393 C398 1.383 . S
C393 C400 1.496 . S
C394 C395 1.399 . S
C394 C398 1.389 . S
C395 C394 1.399 . S
C395 C397 1.380 . S
C395 H412 0.929 . S
C396 C393 1.399 . S
C396 C397 1.392 . S
C396 H413 0.929 . S
C397 C395 1.380 . S
C397 C396 1.392 . S
C397 H414 0.929 . S
C398 C393 1.383 . S
C398 C394 1.389 . S
C398 H415 0.933 1_556 S
C399 O384 1.266 . S
C399 O385 1.248 . S
C400 Tb336 2.802 1_556 S
C400 O380 1.264 1_556 S
C400 O383 1.256 . S
C400 C393 1.496 . S
C401 C368 1.448 . S
C401 H378 0.930 . S
C401 C402 1.328 . S
C402 C373 1.427 . S
C402 H379 0.929 . S
C402 C401 1.328 . S
C403 O387 1.264 . S
C403 O388 1.243 . S
C404 C407 1.399 . S
C404 C408 1.383 . S
C404 C411 1.496 . S
C405 C406 1.399 . S
C405 C408 1.389 . S
C406 C405 1.399 . S
C406 C409 1.380 . S
C406 H416 0.929 . S
C407 C404 1.399 . S
C407 C409 1.392 . S
C407 H417 0.929 . S
C408 C404 1.383 . S
C408 C405 1.389 . S
C408 H418 0.931 . S
C409 C406 1.380 . S
C409 C407 1.392 . S
C409 H419 0.929 . S
C410 O390 1.266 . S
C410 O391 1.248 . S
C411 Tb347 2.802 . S
C411 O386 1.264 . S
C411 O389 1.256 . S
C411 C404 1.496 . S
H412 C395 0.929 . S
H413 C396 0.929 . S
H414 C397 0.929 . S
H415 C398 0.933 1_554 S
H416 C406 0.929 . S
H417 C407 0.929 . S
H418 C408 0.931 . S
H419 C409 0.929 . S
Tb420 N449 2.617 1_655 S
Tb420 N455 2.572 . S
Tb420 O464 2.465 . S
Tb420 O465 2.387 1_655 S
Tb420 O467 2.428 . S
Tb420 O468 2.308 . S
Tb420 O472 2.349 . S
Tb420 O475 2.393 1_655 S
Tb420 C484 2.802 . S
C421 N422 1.379 . S
C421 C424 1.416 . S
C421 C428 1.424 . S
N422 C421 1.379 . S
N422 C425 1.334 . S
N422 Tb431 2.617 1_655 S
C423 C425 1.390 . S
C423 C426 1.339 . S
C423 H443 0.930 . S
C424 C421 1.416 . S
C424 C426 1.416 . S
C424 C430 1.448 . S
C425 N422 1.334 . S
C425 C423 1.390 . S
C425 H436 0.930 . S
C426 C423 1.339 . S
C426 C424 1.416 . S
C426 H447 0.930 . S
C427 C428 1.413 . S
C427 C429 1.427 . S
C427 C433 1.416 1_655 S
C428 C421 1.424 . S
C428 C427 1.413 . S
C428 N432 1.361 1_655 S
C429 C427 1.427 . S
C429 C430 1.328 . S
C429 H444 0.929 . S
C430 C424 1.448 . S
C430 C429 1.328 . S
C430 H445 0.930 . S
Tb431 N422 2.617 1_455 S
Tb431 N432 2.572 . S
Tb431 O466 2.349 . S
Tb431 O469 2.393 1_455 S
Tb431 O470 2.465 . S
Tb431 O471 2.387 1_455 S
Tb431 O473 2.428 . S
Tb431 O474 2.308 . S
Tb431 C495 2.802 . S
N432 C428 1.361 1_455 S
N432 Tb431 2.572 . S
N432 C434 1.340 . S
C433 C427 1.416 1_455 S
C433 C435 1.332 . S
C433 H441 0.931 . S
C434 N432 1.340 . S
C434 C435 1.407 . S
C434 H440 0.930 . S
C435 C433 1.332 . S
C435 C434 1.407 . S
C435 H437 0.929 . S
H436 C425 0.930 . S
H437 C435 0.929 . S
H438 C453 0.930 . S
H439 C460 0.929 . S
H440 C434 0.930 . S
H441 C433 0.931 . S
H442 C456 0.930 . S
H443 C423 0.930 . S
H444 C429 0.929 . S
H445 C430 0.930 . S
H446 C451 0.930 . S
H447 C426 0.930 . S
H448 C459 0.931 . S
N449 Tb420 2.617 1_455 S
N449 C450 1.379 . S
N449 C453 1.334 . S
C450 N449 1.379 . S
C450 C452 1.416 . S
C450 C458 1.424 . S
C451 H446 0.930 . S
C451 C453 1.390 . S
C451 C454 1.339 . S
C452 C450 1.416 . S
C452 C454 1.416 . S
C452 C485 1.448 . S
C453 H438 0.930 . S
C453 N449 1.334 . S
C453 C451 1.390 . S
C454 C451 1.339 . S
C454 C452 1.416 . S
C454 H461 0.930 . S
N455 Tb420 2.572 . S
N455 C456 1.340 . S
N455 C458 1.361 1_655 S
C456 H442 0.930 . S
C456 N455 1.340 . S
C456 C460 1.407 . S
C457 C458 1.413 . S
C457 C459 1.416 1_455 S
C457 C486 1.427 . S
C458 C450 1.424 . S
C458 N455 1.361 1_455 S
C458 C457 1.413 . S
C459 H448 0.931 . S
C459 C457 1.416 1_655 S
C459 C460 1.332 . S
C460 H439 0.929 . S
C460 C456 1.407 . S
C460 C459 1.332 . S
H461 C454 0.930 . S
H462 C485 0.930 . S
H463 C486 0.929 . S
O464 Tb420 2.465 . S
O464 C484 1.264 . S
O465 Tb420 2.387 1_455 S
O465 C476 1.264 . S
O466 Tb431 2.349 . S
O466 C476 1.243 . S
O467 Tb420 2.428 . S
O467 C484 1.256 . S
O468 Tb420 2.308 . S
O468 C483 1.266 . S
O469 Tb431 2.393 1_655 S
O469 C483 1.248 . S
O470 Tb431 2.465 . S
O470 C495 1.264 . S
O471 Tb431 2.387 1_655 S
O471 C487 1.264 . S
O472 Tb420 2.349 . S
O472 C487 1.243 . S
O473 Tb431 2.428 . S
O473 C495 1.256 . S
O474 Tb431 2.308 . S
O474 C494 1.266 . S
O475 Tb420 2.393 1_455 S
O475 C494 1.248 . S
C476 O465 1.264 . S
C476 O466 1.243 . S
C477 C480 1.399 . S
C477 C482 1.383 . S
C477 C484 1.496 . S
C478 C479 1.399 . S
C478 C482 1.389 . S
C479 C478 1.399 . S
C479 C481 1.380 . S
C479 H496 0.929 . S
C480 C477 1.399 . S
C480 C481 1.392 . S
C480 H497 0.929 . S
C481 C479 1.380 . S
C481 C480 1.392 . S
C481 H498 0.929 . S
C482 C477 1.383 . S
C482 C478 1.389 . S
C482 H499 0.931 . S
C483 O468 1.266 . S
C483 O469 1.248 . S
C484 Tb420 2.802 . S
C484 O464 1.264 . S
C484 O467 1.256 . S
C484 C477 1.496 . S
C485 C452 1.448 . S
C485 H462 0.930 . S
C485 C486 1.328 . S
C486 C457 1.427 . S
C486 H463 0.929 . S
C486 C485 1.328 . S
C487 O471 1.264 . S
C487 O472 1.243 . S
C488 C491 1.399 . S
C488 C492 1.383 . S
C488 C495 1.496 . S
C489 C490 1.399 . S
C489 C492 1.389 . S
C490 C489 1.399 . S
C490 C493 1.380 . S
C490 H500 0.929 . S
C491 C488 1.399 . S
C491 C493 1.392 . S
C491 H501 0.929 . S
C492 C488 1.383 . S
C492 C489 1.389 . S
C492 H502 0.931 . S
C493 C490 1.380 . S
C493 C491 1.392 . S
C493 H503 0.929 . S
C494 O474 1.266 . S
C494 O475 1.248 . S
C495 Tb431 2.802 . S
C495 O470 1.264 . S
C495 O473 1.256 . S
C495 C488 1.496 . S
H496 C479 0.929 . S
H497 C480 0.929 . S
H498 C481 0.929 . S
H499 C482 0.931 . S
H500 C490 0.929 . S
H501 C491 0.929 . S
H502 C492 0.931 . S
H503 C493 0.929 . S
Tb504 N533 2.617 1_455 S
Tb504 N539 2.572 . S
Tb504 O548 2.465 . S
Tb504 O549 2.387 1_455 S
Tb504 O551 2.428 . S
Tb504 O552 2.308 . S
Tb504 O556 2.349 . S
Tb504 O559 2.393 1_455 S
Tb504 C568 2.802 . S
C505 N506 1.379 . S
C505 C508 1.416 . S
C505 C512 1.424 . S
N506 C505 1.379 . S
N506 C509 1.334 . S
N506 Tb515 2.617 1_455 S
C507 C509 1.390 . S
C507 C510 1.339 . S
C507 H527 0.930 . S
C508 C505 1.416 . S
C508 C510 1.416 . S
C508 C514 1.448 . S
C509 N506 1.334 . S
C509 C507 1.390 . S
C509 H520 0.930 . S
C510 C507 1.339 . S
C510 C508 1.416 . S
C510 H531 0.930 . S
C511 C512 1.413 . S
C511 C513 1.427 . S
C511 C517 1.416 1_455 S
C512 C505 1.424 . S
C512 C511 1.413 . S
C512 N516 1.361 1_455 S
C513 C511 1.427 . S
C513 C514 1.328 . S
C513 H528 0.929 . S
C514 C508 1.448 . S
C514 C513 1.328 . S
C514 H529 0.930 . S
Tb515 N506 2.617 1_655 S
Tb515 N516 2.572 . S
Tb515 O550 2.349 . S
Tb515 O553 2.393 1_655 S
Tb515 O554 2.465 . S
Tb515 O555 2.387 1_655 S
Tb515 O557 2.428 . S
Tb515 O558 2.308 . S
Tb515 C579 2.802 . S
N516 C512 1.361 1_655 S
N516 Tb515 2.572 . S
N516 C518 1.340 . S
C517 C511 1.416 1_655 S
C517 C519 1.332 . S
C517 H525 0.931 . S
C518 N516 1.340 . S
C518 C519 1.407 . S
C518 H524 0.930 . S
C519 C517 1.332 . S
C519 C518 1.407 . S
C519 H521 0.929 . S
H520 C509 0.930 . S
H521 C519 0.929 . S
H522 C537 0.930 . S
H523 C544 0.929 . S
H524 C518 0.930 . S
H525 C517 0.931 . S
H526 C540 0.930 . S
H527 C507 0.930 . S
H528 C513 0.929 . S
H529 C514 0.930 . S
H530 C535 0.930 . S
H531 C510 0.930 . S
H532 C543 0.931 . S
N533 Tb504 2.617 1_655 S
N533 C534 1.379 . S
N533 C537 1.334 . S
C534 N533 1.379 . S
C534 C536 1.416 . S
C534 C542 1.424 . S
C535 H530 0.930 . S
C535 C537 1.390 . S
C535 C538 1.339 . S
C536 C534 1.416 . S
C536 C538 1.416 . S
C536 C569 1.448 . S
C537 H522 0.930 . S
C537 N533 1.334 . S
C537 C535 1.390 . S
C538 C535 1.339 . S
C538 C536 1.416 . S
C538 H545 0.930 . S
N539 Tb504 2.572 . S
N539 C540 1.340 . S
N539 C542 1.361 1_455 S
C540 H526 0.930 . S
C540 N539 1.340 . S
C540 C544 1.407 . S
C541 C542 1.413 . S
C541 C543 1.416 1_655 S
C541 C570 1.427 . S
C542 C534 1.424 . S
C542 N539 1.361 1_655 S
C542 C541 1.413 . S
C543 H532 0.931 . S
C543 C541 1.416 1_455 S
C543 C544 1.332 . S
C544 H523 0.929 . S
C544 C540 1.407 . S
C544 C543 1.332 . S
H545 C538 0.930 . S
H546 C569 0.930 . S
H547 C570 0.929 . S
O548 Tb504 2.465 . S
O548 C568 1.264 . S
O549 Tb504 2.387 1_655 S
O549 C560 1.264 . S
O550 Tb515 2.349 . S
O550 C560 1.243 . S
O551 Tb504 2.428 . S
O551 C568 1.256 . S
O552 Tb504 2.308 . S
O552 C567 1.266 . S
O553 Tb515 2.393 1_455 S
O553 C567 1.248 . S
O554 Tb515 2.465 . S
O554 C579 1.264 . S
O555 Tb515 2.387 1_455 S
O555 C571 1.264 . S
O556 Tb504 2.349 . S
O556 C571 1.243 . S
O557 Tb515 2.428 . S
O557 C579 1.256 . S
O558 Tb515 2.308 . S
O558 C578 1.266 . S
O559 Tb504 2.393 1_655 S
O559 C578 1.248 . S
C560 O549 1.264 . S
C560 O550 1.243 . S
C561 C564 1.399 . S
C561 C566 1.383 . S
C561 C568 1.496 . S
C562 C563 1.399 . S
C562 C566 1.389 . S
C563 C562 1.399 . S
C563 C565 1.380 . S
C563 H580 0.929 . S
C564 C561 1.399 . S
C564 C565 1.392 . S
C564 H581 0.929 . S
C565 C563 1.380 . S
C565 C564 1.392 . S
C565 H582 0.929 . S
C566 C561 1.383 . S
C566 C562 1.389 . S
C566 H583 0.931 . S
C567 O552 1.266 . S
C567 O553 1.248 . S
C568 Tb504 2.802 . S
C568 O548 1.264 . S
C568 O551 1.256 . S
C568 C561 1.496 . S
C569 C536 1.448 . S
C569 H546 0.930 . S
C569 C570 1.328 . S
C570 C541 1.427 . S
C570 H547 0.929 . S
C570 C569 1.328 . S
C571 O555 1.264 . S
C571 O556 1.243 . S
C572 C575 1.399 . S
C572 C576 1.383 . S
C572 C579 1.496 . S
C573 C574 1.399 . S
C573 C576 1.389 . S
C574 C573 1.399 . S
C574 C577 1.380 . S
C574 H584 0.929 . S
C575 C572 1.399 . S
C575 C577 1.392 . S
C575 H585 0.929 . S
C576 C572 1.383 . S
C576 C573 1.389 . S
C576 H586 0.931 . S
C577 C574 1.380 . S
C577 C575 1.392 . S
C577 H587 0.929 . S
C578 O558 1.266 . S
C578 O559 1.248 . S
C579 Tb515 2.802 . S
C579 O554 1.264 . S
C579 O557 1.256 . S
C579 C572 1.496 . S
H580 C563 0.929 . S
H581 C564 0.929 . S
H582 C565 0.929 . S
H583 C566 0.931 . S
H584 C574 0.929 . S
H585 C575 0.929 . S
H586 C576 0.931 . S
H587 C577 0.929 . S
Tb588 N617 2.617 1_545 S
Tb588 N623 2.572 . S
Tb588 O632 2.465 . S
Tb588 O633 2.387 1_545 S
Tb588 O635 2.428 . S
Tb588 O636 2.308 . S
Tb588 O640 2.349 . S
Tb588 O643 2.393 1_545 S
Tb588 C652 2.802 . S
C589 N590 1.379 . S
C589 C592 1.416 . S
C589 C596 1.424 . S
N590 C589 1.379 . S
N590 C593 1.334 . S
N590 Tb599 2.617 1_545 S
C591 C593 1.390 . S
C591 C594 1.339 . S
C591 H611 0.930 . S
C592 C589 1.416 . S
C592 C594 1.416 . S
C592 C598 1.448 . S
C593 N590 1.334 . S
C593 C591 1.390 . S
C593 H604 0.930 . S
C594 C591 1.339 . S
C594 C592 1.416 . S
C594 H615 0.930 . S
C595 C596 1.413 . S
C595 C597 1.427 . S
C595 C601 1.416 1_545 S
C596 C589 1.424 . S
C596 C595 1.413 . S
C596 N600 1.361 1_545 S
C597 C595 1.427 . S
C597 C598 1.328 . S
C597 H612 0.929 . S
C598 C592 1.448 . S
C598 C597 1.328 . S
C598 H613 0.930 . S
Tb599 N590 2.617 1_565 S
Tb599 N600 2.572 . S
Tb599 O634 2.349 . S
Tb599 O637 2.393 1_565 S
Tb599 O638 2.465 . S
Tb599 O639 2.387 1_565 S
Tb599 O641 2.428 . S
Tb599 O642 2.308 . S
Tb599 C663 2.802 . S
N600 C596 1.361 1_565 S
N600 Tb599 2.572 . S
N600 C602 1.340 . S
C601 C595 1.416 1_565 S
C601 C603 1.332 . S
C601 H609 0.931 . S
C602 N600 1.340 . S
C602 C603 1.407 . S
C602 H608 0.930 . S
C603 C601 1.332 . S
C603 C602 1.407 . S
C603 H605 0.929 . S
H604 C593 0.930 . S
H605 C603 0.929 . S
H606 C621 0.930 . S
H607 C628 0.929 . S
H608 C602 0.930 . S
H609 C601 0.931 . S
H610 C624 0.930 . S
H611 C591 0.930 . S
H612 C597 0.929 . S
H613 C598 0.930 . S
H614 C619 0.930 . S
H615 C594 0.930 . S
H616 C627 0.931 . S
N617 Tb588 2.617 1_565 S
N617 C618 1.379 . S
N617 C621 1.334 . S
C618 N617 1.379 . S
C618 C620 1.416 . S
C618 C626 1.424 . S
C619 H614 0.930 . S
C619 C621 1.390 . S
C619 C622 1.339 . S
C620 C618 1.416 . S
C620 C622 1.416 . S
C620 C653 1.448 . S
C621 H606 0.930 . S
C621 N617 1.334 . S
C621 C619 1.390 . S
C622 C619 1.339 . S
C622 C620 1.416 . S
C622 H629 0.930 . S
N623 Tb588 2.572 . S
N623 C624 1.340 . S
N623 C626 1.361 1_545 S
C624 H610 0.930 . S
C624 N623 1.340 . S
C624 C628 1.407 . S
C625 C626 1.413 . S
C625 C627 1.416 1_565 S
C625 C654 1.427 . S
C626 C618 1.424 . S
C626 N623 1.361 1_565 S
C626 C625 1.413 . S
C627 H616 0.931 . S
C627 C625 1.416 1_545 S
C627 C628 1.332 . S
C628 H607 0.929 . S
C628 C624 1.407 . S
C628 C627 1.332 . S
H629 C622 0.930 . S
H630 C653 0.930 . S
H631 C654 0.929 . S
O632 Tb588 2.465 . S
O632 C652 1.264 . S
O633 Tb588 2.387 1_565 S
O633 C644 1.264 . S
O634 Tb599 2.349 . S
O634 C644 1.243 . S
O635 Tb588 2.428 . S
O635 C652 1.256 . S
O636 Tb588 2.308 . S
O636 C651 1.266 . S
O637 Tb599 2.393 1_545 S
O637 C651 1.248 . S
O638 Tb599 2.465 . S
O638 C663 1.264 . S
O639 Tb599 2.387 1_545 S
O639 C655 1.264 . S
O640 Tb588 2.349 . S
O640 C655 1.243 . S
O641 Tb599 2.428 . S
O641 C663 1.256 . S
O642 Tb599 2.308 . S
O642 C662 1.266 . S
O643 Tb588 2.393 1_565 S
O643 C662 1.248 . S
C644 O633 1.264 . S
C644 O634 1.243 . S
C645 C648 1.399 . S
C645 C650 1.383 . S
C645 C652 1.496 . S
C646 C647 1.399 . S
C646 C650 1.389 . S
C647 C646 1.399 . S
C647 C649 1.380 . S
C647 H664 0.929 . S
C648 C645 1.399 . S
C648 C649 1.392 . S
C648 H665 0.929 . S
C649 C647 1.380 . S
C649 C648 1.392 . S
C649 H666 0.929 . S
C650 C645 1.383 . S
C650 C646 1.389 . S
C650 H667 0.931 . S
C651 O636 1.266 . S
C651 O637 1.248 . S
C652 Tb588 2.802 . S
C652 O632 1.264 . S
C652 O635 1.256 . S
C652 C645 1.496 . S
C653 C620 1.448 . S
C653 H630 0.930 . S
C653 C654 1.328 . S
C654 C625 1.427 . S
C654 H631 0.929 . S
C654 C653 1.328 . S
C655 O639 1.264 . S
C655 O640 1.243 . S
C656 C659 1.399 . S
C656 C660 1.383 . S
C656 C663 1.496 . S
C657 C658 1.399 . S
C657 C660 1.389 . S
C658 C657 1.399 . S
C658 C661 1.380 . S
C658 H668 0.929 . S
C659 C656 1.399 . S
C659 C661 1.392 . S
C659 H669 0.929 . S
C660 C656 1.383 . S
C660 C657 1.389 . S
C660 H670 0.931 . S
C661 C658 1.380 . S
C661 C659 1.392 . S
C661 H671 0.929 . S
C662 O642 1.266 . S
C662 O643 1.248 . S
C663 Tb599 2.802 . S
C663 O638 1.264 . S
C663 O641 1.256 . S
C663 C656 1.496 . S
H664 C647 0.929 . S
H665 C648 0.929 . S
H666 C649 0.929 . S
H667 C650 0.931 . S
H668 C658 0.929 . S
H669 C659 0.929 . S
H670 C660 0.931 . S
H671 C661 0.929 . S
Tb672 N701 2.617 . S
Tb672 N707 2.572 . S
Tb672 O716 2.465 . S
Tb672 O717 2.387 . S
Tb672 O719 2.428 . S
Tb672 O720 2.308 . S
Tb672 O724 2.349 . S
Tb672 O727 2.393 . S
Tb672 C736 2.802 . S
C673 N674 1.379 . S
C673 C676 1.416 . S
C673 C680 1.424 . S
N674 C673 1.379 . S
N674 C677 1.334 . S
N674 Tb683 2.617 . S
C675 C677 1.390 . S
C675 C678 1.339 . S
C675 H695 0.930 . S
C676 C673 1.416 . S
C676 C678 1.416 . S
C676 C682 1.448 . S
C677 N674 1.334 . S
C677 C675 1.390 . S
C677 H688 0.930 . S
C678 C675 1.339 . S
C678 C676 1.416 . S
C678 H699 0.930 . S
C679 C680 1.413 . S
C679 C681 1.427 . S
C679 C685 1.416 . S
C680 C673 1.424 . S
C680 C679 1.413 . S
C680 N684 1.361 . S
C681 C679 1.427 . S
C681 C682 1.328 . S
C681 H696 0.929 . S
C682 C676 1.448 . S
C682 C681 1.328 . S
C682 H697 0.930 . S
Tb683 N674 2.617 . S
Tb683 N684 2.572 . S
Tb683 O718 2.349 . S
Tb683 O721 2.393 . S
Tb683 O722 2.465 . S
Tb683 O723 2.387 . S
Tb683 O725 2.428 . S
Tb683 O726 2.308 . S
Tb683 C747 2.802 . S
N684 C680 1.361 . S
N684 Tb683 2.572 . S
N684 C686 1.340 . S
C685 C679 1.416 . S
C685 C687 1.332 . S
C685 H693 0.931 . S
C686 N684 1.340 . S
C686 C687 1.407 . S
C686 H692 0.930 . S
C687 C685 1.332 . S
C687 C686 1.407 . S
C687 H689 0.929 . S
H688 C677 0.930 . S
H689 C687 0.929 . S
H690 C705 0.930 . S
H691 C712 0.929 . S
H692 C686 0.930 . S
H693 C685 0.931 . S
H694 C708 0.930 . S
H695 C675 0.930 . S
H696 C681 0.929 . S
H697 C682 0.930 . S
H698 C703 0.930 . S
H699 C678 0.930 . S
H700 C711 0.931 . S
N701 Tb672 2.617 . S
N701 C702 1.379 . S
N701 C705 1.334 . S
C702 N701 1.379 . S
C702 C704 1.416 . S
C702 C710 1.424 . S
C703 H698 0.930 . S
C703 C705 1.390 . S
C703 C706 1.339 . S
C704 C702 1.416 . S
C704 C706 1.416 . S
C704 C737 1.448 . S
C705 H690 0.930 . S
C705 N701 1.334 . S
C705 C703 1.390 . S
C706 C703 1.339 . S
C706 C704 1.416 . S
C706 H713 0.930 . S
N707 Tb672 2.572 . S
N707 C708 1.340 . S
N707 C710 1.361 . S
C708 H694 0.930 . S
C708 N707 1.340 . S
C708 C712 1.407 . S
C709 C710 1.413 . S
C709 C711 1.416 . S
C709 C738 1.427 . S
C710 C702 1.424 . S
C710 N707 1.361 . S
C710 C709 1.413 . S
C711 H700 0.931 . S
C711 C709 1.416 . S
C711 C712 1.332 . S
C712 H691 0.929 . S
C712 C708 1.407 . S
C712 C711 1.332 . S
H713 C706 0.930 . S
H714 C737 0.930 . S
H715 C738 0.929 . S
O716 Tb672 2.465 . S
O716 C736 1.264 . S
O717 Tb672 2.387 . S
O717 C728 1.264 . S
O718 Tb683 2.349 . S
O718 C728 1.243 . S
O719 Tb672 2.428 . S
O719 C736 1.256 . S
O720 Tb672 2.308 . S
O720 C735 1.266 . S
O721 Tb683 2.393 . S
O721 C735 1.248 . S
O722 Tb683 2.465 . S
O722 C747 1.264 . S
O723 Tb683 2.387 . S
O723 C739 1.264 . S
O724 Tb672 2.349 . S
O724 C739 1.243 . S
O725 Tb683 2.428 . S
O725 C747 1.256 . S
O726 Tb683 2.308 . S
O726 C746 1.266 . S
O727 Tb672 2.393 . S
O727 C746 1.248 . S
C728 O717 1.264 . S
C728 O718 1.243 . S
C729 C732 1.399 . S
C729 C734 1.383 . S
C729 C736 1.496 . S
C730 C731 1.399 . S
C730 C734 1.389 . S
C731 C730 1.399 . S
C731 C733 1.380 . S
C731 H748 0.929 . S
C732 C729 1.399 . S
C732 C733 1.392 . S
C732 H749 0.929 . S
C733 C731 1.380 . S
C733 C732 1.392 . S
C733 H750 0.929 . S
C734 C729 1.383 . S
C734 C730 1.389 . S
C734 H751 0.931 . S
C735 O720 1.266 . S
C735 O721 1.248 . S
C736 Tb672 2.802 . S
C736 O716 1.264 . S
C736 O719 1.256 . S
C736 C729 1.496 . S
C737 C704 1.448 . S
C737 H714 0.930 . S
C737 C738 1.328 . S
C738 C709 1.427 . S
C738 H715 0.929 . S
C738 C737 1.328 . S
C739 O723 1.264 . S
C739 O724 1.243 . S
C740 C743 1.399 . S
C740 C744 1.383 . S
C740 C747 1.496 . S
C741 C742 1.399 . S
C741 C744 1.389 . S
C742 C741 1.399 . S
C742 C745 1.380 . S
C742 H752 0.929 . S
C743 C740 1.399 . S
C743 C745 1.392 . S
C743 H753 0.929 . S
C744 C740 1.383 . S
C744 C741 1.389 . S
C744 H754 0.931 . S
C745 C742 1.380 . S
C745 C743 1.392 . S
C745 H755 0.929 . S
C746 O726 1.266 . S
C746 O727 1.248 . S
C747 Tb683 2.802 . S
C747 O722 1.264 . S
C747 O725 1.256 . S
C747 C740 1.496 . S
H748 C731 0.929 . S
H749 C732 0.929 . S
H750 C733 0.929 . S
H751 C734 0.931 . S
H752 C742 0.929 . S
H753 C743 0.929 . S
H754 C744 0.931 . S
H755 C745 0.929 . S
Tb756 N785 2.617 1_655 S
Tb756 N791 2.572 . S
Tb756 O800 2.465 . S
Tb756 O801 2.387 1_655 S
Tb756 O803 2.428 1_556 S
Tb756 O804 2.308 . S
Tb756 O808 2.349 . S
Tb756 O811 2.393 1_655 S
Tb756 C820 2.802 1_556 S
C757 N758 1.379 . S
C757 C760 1.416 . S
C757 C764 1.424 . S
N758 C757 1.379 . S
N758 C761 1.334 . S
N758 Tb767 2.617 1_655 S
C759 C761 1.390 . S
C759 C762 1.339 . S
C759 H779 0.930 . S
C760 C757 1.416 . S
C760 C762 1.416 . S
C760 C766 1.448 . S
C761 N758 1.334 . S
C761 C759 1.390 . S
C761 H772 0.930 . S
C762 C759 1.339 . S
C762 C760 1.416 . S
C762 H783 0.930 . S
C763 C764 1.413 . S
C763 C765 1.427 . S
C763 C769 1.416 1_655 S
C764 C757 1.424 . S
C764 C763 1.413 . S
C764 N768 1.361 1_655 S
C765 C763 1.427 . S
C765 C766 1.328 . S
C765 H780 0.929 . S
C766 C760 1.448 . S
C766 C765 1.328 . S
C766 H781 0.930 . S
Tb767 N758 2.617 1_455 S
Tb767 N768 2.572 . S
Tb767 O802 2.349 . S
Tb767 O805 2.393 1_455 S
Tb767 O806 2.465 . S
Tb767 O807 2.387 1_455 S
Tb767 O809 2.428 . S
Tb767 O810 2.308 . S
Tb767 C831 2.802 . S
N768 C764 1.361 1_455 S
N768 Tb767 2.572 . S
N768 C770 1.340 . S
C769 C763 1.416 1_455 S
C769 C771 1.332 . S
C769 H777 0.931 . S
C770 N768 1.340 . S
C770 C771 1.407 . S
C770 H776 0.930 . S
C771 C769 1.332 . S
C771 C770 1.407 . S
C771 H773 0.929 . S
H772 C761 0.930 . S
H773 C771 0.929 . S
H774 C789 0.930 . S
H775 C796 0.929 . S
H776 C770 0.930 . S
H777 C769 0.931 . S
H778 C792 0.930 . S
H779 C759 0.930 . S
H780 C765 0.929 . S
H781 C766 0.930 . S
H782 C787 0.930 . S
H783 C762 0.930 . S
H784 C795 0.931 . S
N785 Tb756 2.617 1_455 S
N785 C786 1.379 . S
N785 C789 1.334 1_556 S
C786 N785 1.379 . S
C786 C788 1.416 . S
C786 C794 1.424 . S
C787 H782 0.930 . S
C787 C789 1.390 . S
C787 C790 1.317 1_554 S
C788 C786 1.416 . S
C788 C790 1.452 . S
C788 C821 1.448 . S
C789 H774 0.930 . S
C789 N785 1.334 1_554 S
C789 C787 1.390 . S
C790 C787 1.317 1_556 S
C790 C788 1.452 . S
C790 H797 0.920 1_556 S
N791 Tb756 2.572 . S
N791 C792 1.340 . S
N791 C794 1.361 1_655 S
C792 H778 0.930 . S
C792 N791 1.340 . S
C792 C796 1.407 . S
C793 C794 1.413 . S
C793 C795 1.416 1_455 S
C793 C822 1.427 . S
C794 C786 1.424 . S
C794 N791 1.361 1_455 S
C794 C793 1.413 . S
C795 H784 0.931 . S
C795 C793 1.416 1_655 S
C795 C796 1.332 . S
C796 H775 0.929 . S
C796 C792 1.407 . S
C796 C795 1.332 . S
H797 C790 0.920 1_554 S
H798 C821 0.930 . S
H799 C822 0.929 . S
O800 Tb756 2.465 . S
O800 C820 1.264 1_556 S
O801 Tb756 2.387 1_455 S
O801 C812 1.264 . S
O802 Tb767 2.349 . S
O802 C812 1.243 . S
O803 Tb756 2.428 1_554 S
O803 C820 1.256 . S
O804 Tb756 2.308 . S
O804 C819 1.266 . S
O805 Tb767 2.393 1_655 S
O805 C819 1.248 . S
O806 Tb767 2.465 . S
O806 C831 1.264 . S
O807 Tb767 2.387 1_655 S
O807 C823 1.264 . S
O808 Tb756 2.349 . S
O808 C823 1.243 . S
O809 Tb767 2.428 . S
O809 C831 1.256 . S
O810 Tb767 2.308 . S
O810 C830 1.266 . S
O811 Tb756 2.393 1_455 S
O811 C830 1.248 . S
C812 O801 1.264 . S
C812 O802 1.243 . S
C813 C816 1.399 . S
C813 C818 1.383 . S
C813 C820 1.496 . S
C814 C815 1.399 . S
C814 C818 1.389 . S
C815 C814 1.399 . S
C815 C817 1.380 . S
C815 H832 0.929 . S
C816 C813 1.399 . S
C816 C817 1.392 . S
C816 H833 0.929 . S
C817 C815 1.380 . S
C817 C816 1.392 . S
C817 H834 0.929 . S
C818 C813 1.383 . S
C818 C814 1.389 . S
C818 H835 0.931 . S
C819 O804 1.266 . S
C819 O805 1.248 . S
C820 Tb756 2.802 1_554 S
C820 O800 1.264 1_554 S
C820 O803 1.256 . S
C820 C813 1.496 . S
C821 C788 1.448 . S
C821 H798 0.930 . S
C821 C822 1.328 . S
C822 C793 1.427 . S
C822 H799 0.929 . S
C822 C821 1.328 . S
C823 O807 1.264 . S
C823 O808 1.243 . S
C824 C827 1.399 . S
C824 C828 1.383 . S
C824 C831 1.496 . S
C825 C826 1.399 . S
C825 C828 1.389 . S
C826 C825 1.399 . S
C826 C829 1.380 . S
C826 H836 0.929 . S
C827 C824 1.399 . S
C827 C829 1.392 . S
C827 H837 0.929 . S
C828 C824 1.383 . S
C828 C825 1.389 . S
C828 H838 0.931 . S
C829 C826 1.380 . S
C829 C827 1.392 . S
C829 H839 0.929 . S
C830 O810 1.266 . S
C830 O811 1.248 . S
C831 Tb767 2.802 . S
C831 O806 1.264 . S
C831 O809 1.256 . S
C831 C824 1.496 . S
H832 C815 0.929 . S
H833 C816 0.929 . S
H834 C817 0.929 . S
H835 C818 0.931 . S
H836 C826 0.929 . S
H837 C827 0.929 . S
H838 C828 0.931 . S
H839 C829 0.929 . S
Tb840 N869 2.617 1_565 S
Tb840 N875 2.572 . S
Tb840 O884 2.465 . S
Tb840 O885 2.387 1_565 S
Tb840 O887 2.428 . S
Tb840 O888 2.308 . S
Tb840 O892 2.349 . S
Tb840 O895 2.393 1_565 S
Tb840 C904 2.802 . S
C841 N842 1.379 . S
C841 C844 1.416 . S
C841 C848 1.424 . S
N842 C841 1.379 . S
N842 C845 1.334 . S
N842 Tb851 2.617 1_565 S
C843 C845 1.390 . S
C843 C846 1.339 . S
C843 H863 0.930 . S
C844 C841 1.416 . S
C844 C846 1.416 . S
C844 C850 1.448 . S
C845 N842 1.334 . S
C845 C843 1.390 . S
C845 H856 0.930 . S
C846 C843 1.339 . S
C846 C844 1.416 . S
C846 H867 0.930 . S
C847 C848 1.413 . S
C847 C849 1.427 . S
C847 C853 1.416 1_565 S
C848 C841 1.424 . S
C848 C847 1.413 . S
C848 N852 1.361 1_565 S
C849 C847 1.427 . S
C849 C850 1.328 . S
C849 H864 0.929 . S
C850 C844 1.448 . S
C850 C849 1.328 . S
C850 H865 0.930 . S
Tb851 N842 2.617 1_545 S
Tb851 N852 2.572 . S
Tb851 O886 2.349 . S
Tb851 O889 2.393 1_545 S
Tb851 O890 2.465 . S
Tb851 O891 2.387 1_545 S
Tb851 O893 2.428 . S
Tb851 O894 2.308 . S
Tb851 C915 2.802 . S
N852 C848 1.361 1_545 S
N852 Tb851 2.572 . S
N852 C854 1.340 . S
C853 C847 1.416 1_545 S
C853 C855 1.332 . S
C853 H861 0.931 . S
C854 N852 1.340 . S
C854 C855 1.407 . S
C854 H860 0.930 . S
C855 C853 1.332 . S
C855 C854 1.407 . S
C855 H857 0.929 . S
H856 C845 0.930 . S
H857 C855 0.929 . S
H858 C873 0.930 . S
H859 C880 0.929 . S
H860 C854 0.930 . S
H861 C853 0.931 . S
H862 C876 0.930 . S
H863 C843 0.930 . S
H864 C849 0.929 . S
H865 C850 0.930 . S
H866 C871 0.930 . S
H867 C846 0.930 . S
H868 C879 0.931 . S
N869 Tb840 2.617 1_545 S
N869 C870 1.379 . S
N869 C873 1.334 . S
C870 N869 1.379 . S
C870 C872 1.416 . S
C870 C878 1.424 . S
C871 H866 0.930 . S
C871 C873 1.390 . S
C871 C874 1.339 . S
C872 C870 1.416 . S
C872 C874 1.416 . S
C872 C905 1.448 . S
C873 H858 0.930 . S
C873 N869 1.334 . S
C873 C871 1.390 . S
C874 C871 1.339 . S
C874 C872 1.416 . S
C874 H881 0.930 . S
N875 Tb840 2.572 . S
N875 C876 1.340 . S
N875 C878 1.361 1_565 S
C876 H862 0.930 . S
C876 N875 1.340 . S
C876 C880 1.407 . S
C877 C878 1.413 . S
C877 C879 1.416 1_545 S
C877 C906 1.427 . S
C878 C870 1.424 . S
C878 N875 1.361 1_545 S
C878 C877 1.413 . S
C879 H868 0.931 . S
C879 C877 1.416 1_565 S
C879 C880 1.332 . S
C880 H859 0.929 . S
C880 C876 1.407 . S
C880 C879 1.332 . S
H881 C874 0.930 . S
H882 C905 0.930 . S
H883 C906 0.929 . S
O884 Tb840 2.465 . S
O884 C904 1.264 . S
O885 Tb840 2.387 1_545 S
O885 C896 1.264 . S
O886 Tb851 2.349 . S
O886 C896 1.243 . S
O887 Tb840 2.428 . S
O887 C904 1.256 . S
O888 Tb840 2.308 . S
O888 C903 1.266 . S
O889 Tb851 2.393 1_565 S
O889 C903 1.248 . S
O890 Tb851 2.465 . S
O890 C915 1.264 . S
O891 Tb851 2.387 1_565 S
O891 C907 1.264 . S
O892 Tb840 2.349 . S
O892 C907 1.243 . S
O893 Tb851 2.428 . S
O893 C915 1.256 . S
O894 Tb851 2.308 . S
O894 C914 1.266 . S
O895 Tb840 2.393 1_545 S
O895 C914 1.248 . S
C896 O885 1.264 . S
C896 O886 1.243 . S
C897 C900 1.399 . S
C897 C902 1.383 . S
C897 C904 1.496 . S
C898 C899 1.399 . S
C898 C902 1.389 . S
C899 C898 1.399 . S
C899 C901 1.380 . S
C899 H916 0.929 . S
C900 C897 1.399 . S
C900 C901 1.392 . S
C900 H917 0.929 . S
C901 C899 1.380 . S
C901 C900 1.392 . S
C901 H918 0.929 . S
C902 C897 1.383 . S
C902 C898 1.389 . S
C902 H919 0.931 . S
C903 O888 1.266 . S
C903 O889 1.248 . S
C904 Tb840 2.802 . S
C904 O884 1.264 . S
C904 O887 1.256 . S
C904 C897 1.496 . S
C905 C872 1.448 . S
C905 H882 0.930 . S
C905 C906 1.328 . S
C906 C877 1.427 . S
C906 H883 0.929 . S
C906 C905 1.328 . S
C907 O891 1.264 . S
C907 O892 1.243 . S
C908 C911 1.399 . S
C908 C912 1.383 . S
C908 C915 1.496 . S
C909 C910 1.399 . S
C909 C912 1.389 . S
C910 C909 1.399 . S
C910 C913 1.380 . S
C910 H920 0.929 . S
C911 C908 1.399 . S
C911 C913 1.392 . S
C911 H921 0.929 . S
C912 C908 1.383 . S
C912 C909 1.389 . S
C912 H922 0.931 . S
C913 C910 1.380 . S
C913 C911 1.392 . S
C913 H923 0.929 . S
C914 O894 1.266 . S
C914 O895 1.248 . S
C915 Tb851 2.802 . S
C915 O890 1.264 . S
C915 O893 1.256 . S
C915 C908 1.496 . S
H916 C899 0.929 . S
H917 C900 0.929 . S
H918 C901 0.929 . S
H919 C902 0.931 . S
H920 C910 0.929 . S
H921 C911 0.929 . S
H922 C912 0.931 . S
H923 C913 0.929 . S
Tb924 N953 2.617 . S
Tb924 N959 2.572 . S
Tb924 O968 2.465 . S
Tb924 O969 2.387 . S
Tb924 O971 2.428 . S
Tb924 O972 2.308 . S
Tb924 O976 2.349 . S
Tb924 O979 2.393 . S
Tb924 C988 2.802 . S
C925 N926 1.379 . S
C925 C928 1.416 . S
C925 C932 1.424 . S
N926 C925 1.379 . S
N926 C929 1.334 . S
N926 Tb935 2.617 . S
C927 C929 1.390 . S
C927 C930 1.339 . S
C927 H947 0.930 . S
C928 C925 1.416 . S
C928 C930 1.416 . S
C928 C934 1.448 . S
C929 N926 1.334 . S
C929 C927 1.390 . S
C929 H940 0.930 . S
C930 C927 1.339 . S
C930 C928 1.416 . S
C930 H951 0.930 . S
C931 C932 1.413 . S
C931 C933 1.427 . S
C931 C937 1.416 . S
C932 C925 1.424 . S
C932 C931 1.413 . S
C932 N936 1.361 . S
C933 C931 1.427 . S
C933 C934 1.328 . S
C933 H948 0.929 . S
C934 C928 1.448 . S
C934 C933 1.328 . S
C934 H949 0.930 . S
Tb935 N926 2.617 . S
Tb935 N936 2.572 . S
Tb935 O970 2.349 . S
Tb935 O973 2.393 . S
Tb935 O974 2.465 . S
Tb935 O975 2.387 . S
Tb935 O977 2.428 . S
Tb935 O978 2.308 . S
Tb935 C999 2.802 . S
N936 C932 1.361 . S
N936 Tb935 2.572 . S
N936 C938 1.340 . S
C937 C931 1.416 . S
C937 C939 1.332 . S
C937 H945 0.931 . S
C938 N936 1.340 . S
C938 C939 1.407 . S
C938 H944 0.930 . S
C939 C937 1.332 . S
C939 C938 1.407 . S
C939 H941 0.929 . S
H940 C929 0.930 . S
H941 C939 0.929 . S
H942 C957 0.930 . S
H943 C964 0.929 . S
H944 C938 0.930 . S
H945 C937 0.931 . S
H946 C960 0.930 . S
H947 C927 0.930 . S
H948 C933 0.929 . S
H949 C934 0.930 . S
H950 C955 0.930 . S
H951 C930 0.930 . S
H952 C963 0.931 . S
N953 Tb924 2.617 . S
N953 C954 1.379 . S
N953 C957 1.334 . S
C954 N953 1.379 . S
C954 C956 1.416 . S
C954 C962 1.424 . S
C955 H950 0.930 . S
C955 C957 1.390 . S
C955 C958 1.339 . S
C956 C954 1.416 . S
C956 C958 1.416 . S
C956 C989 1.448 . S
C957 H942 0.930 . S
C957 N953 1.334 . S
C957 C955 1.390 . S
C958 C955 1.339 . S
C958 C956 1.416 . S
C958 H965 0.930 . S
N959 Tb924 2.572 . S
N959 C960 1.340 . S
N959 C962 1.361 . S
C960 H946 0.930 . S
C960 N959 1.340 . S
C960 C964 1.407 . S
C961 C962 1.413 . S
C961 C963 1.416 . S
C961 C990 1.427 . S
C962 C954 1.424 . S
C962 N959 1.361 . S
C962 C961 1.413 . S
C963 H952 0.931 . S
C963 C961 1.416 . S
C963 C964 1.332 . S
C964 H943 0.929 . S
C964 C960 1.407 . S
C964 C963 1.332 . S
H965 C958 0.930 . S
H966 C989 0.930 . S
H967 C990 0.929 . S
O968 Tb924 2.465 . S
O968 C988 1.264 . S
O969 Tb924 2.387 . S
O969 C980 1.264 . S
O970 Tb935 2.349 . S
O970 C980 1.243 . S
O971 Tb924 2.428 . S
O971 C988 1.256 . S
O972 Tb924 2.308 . S
O972 C987 1.266 . S
O973 Tb935 2.393 . S
O973 C987 1.248 . S
O974 Tb935 2.465 . S
O974 C999 1.264 . S
O975 Tb935 2.387 . S
O975 C991 1.264 . S
O976 Tb924 2.349 . S
O976 C991 1.243 . S
O977 Tb935 2.428 . S
O977 C999 1.256 . S
O978 Tb935 2.308 . S
O978 C998 1.266 . S
O979 Tb924 2.393 . S
O979 C998 1.248 . S
C980 O969 1.264 . S
C980 O970 1.243 . S
C981 C984 1.399 . S
C981 C986 1.383 . S
C981 C988 1.496 . S
C982 C983 1.399 . S
C982 C986 1.389 . S
C983 C982 1.399 . S
C983 C985 1.380 . S
C983 H1000 0.929 . S
C984 C981 1.399 . S
C984 C985 1.392 . S
C984 H1001 0.929 . S
C985 C983 1.380 . S
C985 C984 1.392 . S
C985 H1002 0.929 . S
C986 C981 1.383 . S
C986 C982 1.389 . S
C986 H1003 0.931 . S
C987 O972 1.266 . S
C987 O973 1.248 . S
C988 Tb924 2.802 . S
C988 O968 1.264 . S
C988 O971 1.256 . S
C988 C981 1.496 . S
C989 C956 1.448 . S
C989 H966 0.930 . S
C989 C990 1.328 . S
C990 C961 1.427 . S
C990 H967 0.929 . S
C990 C989 1.328 . S
C991 O975 1.264 . S
C991 O976 1.243 . S
C992 C995 1.399 . S
C992 C996 1.383 . S
C992 C999 1.496 . S
C993 C994 1.399 . S
C993 C996 1.389 . S
C994 C993 1.399 . S
C994 C997 1.380 . S
C994 H1004 0.929 . S
C995 C992 1.399 . S
C995 C997 1.392 . S
C995 H1005 0.929 . S
C996 C992 1.383 . S
C996 C993 1.389 . S
C996 H1006 0.931 . S
C997 C994 1.380 . S
C997 C995 1.392 . S
C997 H1007 0.929 . S
C998 O978 1.266 . S
C998 O979 1.248 . S
C999 Tb935 2.802 . S
C999 O974 1.264 . S
C999 O977 1.256 . S
C999 C992 1.496 . S
H1000 C983 0.929 . S
H1001 C984 0.929 . S
H1002 C985 0.929 . S
H1003 C986 0.931 . S
H1004 C994 0.929 . S
H1005 C995 0.929 . S
H1006 C996 0.931 . S
H1007 C997 0.929 . S
H1008 C1016 0.950 . S
H1009 C1021 0.950 . S
H1010 C1018 0.950 . S
H1011 C1020 0.950 . S
H1012 C1022 0.950 . S
H1013 C1024 0.950 . S
H1014 C1026 0.950 . S
H1015 C1027 0.950 . S
C1016 H1008 0.950 . S
C1016 C1017 1.386 . S
C1016 C1018 1.391 . S
C1017 C1016 1.386 . S
C1017 C1021 1.393 . S
C1018 H1010 0.950 . S
C1018 C1016 1.391 . S
C1018 C1019 1.400 . S
C1019 C1018 1.400 . S
C1019 C1020 1.398 . S
C1019 C1025 1.491 . S
C1020 H1011 0.950 . S
C1020 C1019 1.398 . S
C1020 C1021 1.391 . S
C1021 H1009 0.950 . S
C1021 C1017 1.393 . S
C1021 C1020 1.391 . S
C1022 H1012 0.950 . S
C1022 C1023 1.386 . S
C1022 C1024 1.391 . S
C1023 C1022 1.386 . S
C1023 C1027 1.393 . S
C1024 H1013 0.950 . S
C1024 C1022 1.391 . S
C1024 C1025 1.400 . S
C1025 C1019 1.491 . S
C1025 C1024 1.400 . S
C1025 C1026 1.398 . S
C1026 H1014 0.950 . S
C1026 C1025 1.398 . S
C1026 C1027 1.391 . S
C1027 H1015 0.950 . S
C1027 C1023 1.393 . S
C1027 C1026 1.391 . S
H1028 C1036 0.950 . S
H1029 C1041 0.950 . S
H1030 C1038 0.950 . S
H1031 C1040 0.950 . S
H1032 C1042 0.950 . S
H1033 C1044 0.950 . S
H1034 C1046 0.950 . S
H1035 C1047 0.950 . S
C1036 H1028 0.950 . S
C1036 C1037 1.386 . S
C1036 C1038 1.391 . S
C1037 C1036 1.386 . S
C1037 C1041 1.393 . S
C1038 H1030 0.950 . S
C1038 C1036 1.391 . S
C1038 C1039 1.400 . S
C1039 C1038 1.400 . S
C1039 C1040 1.398 . S
C1039 C1045 1.491 . S
C1040 H1031 0.950 . S
C1040 C1039 1.398 . S
C1040 C1041 1.391 . S
C1041 H1029 0.950 . S
C1041 C1037 1.393 . S
C1041 C1040 1.391 . S
C1042 H1032 0.950 . S
C1042 C1043 1.386 . S
C1042 C1044 1.391 . S
C1043 C1042 1.386 . S
C1043 C1047 1.393 . S
C1044 H1033 0.950 . S
C1044 C1042 1.391 . S
C1044 C1045 1.400 . S
C1045 C1039 1.491 . S
C1045 C1044 1.400 . S
C1045 C1046 1.398 . S
C1046 H1034 0.950 . S
C1046 C1045 1.398 . S
C1046 C1047 1.391 . S
C1047 H1035 0.950 . S
C1047 C1043 1.393 . S
C1047 C1046 1.391 . S
H1048 C1056 0.950 . S
H1049 C1061 0.950 . S
H1050 C1058 0.950 . S
H1051 C1060 0.950 . S
H1052 C1062 0.950 . S
H1053 C1064 0.950 . S
H1054 C1066 0.950 . S
H1055 C1067 0.950 . S
C1056 H1048 0.950 . S
C1056 C1057 1.386 . S
C1056 C1058 1.391 . S
C1057 C1056 1.386 . S
C1057 C1061 1.393 . S
C1058 H1050 0.950 . S
C1058 C1056 1.391 . S
C1058 C1059 1.400 . S
C1059 C1058 1.400 . S
C1059 C1060 1.398 . S
C1059 C1065 1.491 . S
C1060 H1051 0.950 . S
C1060 C1059 1.398 . S
C1060 C1061 1.391 . S
C1061 H1049 0.950 . S
C1061 C1057 1.393 . S
C1061 C1060 1.391 . S
C1062 H1052 0.950 . S
C1062 C1063 1.386 . S
C1062 C1064 1.391 . S
C1063 C1062 1.386 . S
C1063 C1067 1.393 . S
C1064 H1053 0.950 . S
C1064 C1062 1.391 . S
C1064 C1065 1.400 . S
C1065 C1059 1.491 . S
C1065 C1064 1.400 . S
C1065 C1066 1.398 . S
C1066 H1054 0.950 . S
C1066 C1065 1.398 . S
C1066 C1067 1.391 . S
C1067 H1055 0.950 . S
C1067 C1063 1.393 . S
C1067 C1066 1.391 . S
H1068 C1076 0.950 . S
H1069 C1081 0.950 . S
H1070 C1078 0.950 . S
H1071 C1080 0.950 . S
H1072 C1082 0.950 . S
H1073 C1084 0.950 . S
H1074 C1086 0.950 . S
H1075 C1087 0.950 . S
C1076 H1068 0.950 . S
C1076 C1077 1.386 . S
C1076 C1078 1.391 . S
C1077 C1076 1.386 . S
C1077 C1081 1.393 . S
C1078 H1070 0.950 . S
C1078 C1076 1.391 . S
C1078 C1079 1.400 . S
C1079 C1078 1.400 . S
C1079 C1080 1.398 . S
C1079 C1085 1.491 . S
C1080 H1071 0.950 . S
C1080 C1079 1.398 . S
C1080 C1081 1.391 . S
C1081 H1069 0.950 . S
C1081 C1077 1.393 . S
C1081 C1080 1.391 . S
C1082 H1072 0.950 . S
C1082 C1083 1.386 . S
C1082 C1084 1.391 . S
C1083 C1082 1.386 . S
C1083 C1087 1.393 . S
C1084 H1073 0.950 . S
C1084 C1082 1.391 . S
C1084 C1085 1.400 . S
C1085 C1079 1.491 . S
C1085 C1084 1.400 . S
C1085 C1086 1.398 . S
C1086 H1074 0.950 . S
C1086 C1085 1.398 . S
C1086 C1087 1.391 . S
C1087 H1075 0.950 . S
C1087 C1083 1.393 . S
C1087 C1086 1.391 . S
H1088 C1096 0.950 . S
H1089 C1101 0.950 . S
H1090 C1098 0.950 . S
H1091 C1100 0.950 . S
H1092 C1102 0.950 . S
H1093 C1104 0.950 . S
H1094 C1106 0.950 . S
H1095 C1107 0.950 . S
C1096 H1088 0.950 . S
C1096 C1097 1.386 . S
C1096 C1098 1.391 . S
C1097 C1096 1.386 . S
C1097 C1101 1.393 . S
C1098 H1090 0.950 . S
C1098 C1096 1.391 . S
C1098 C1099 1.400 . S
C1099 C1098 1.400 . S
C1099 C1100 1.398 . S
C1099 C1105 1.491 . S
C1100 H1091 0.950 . S
C1100 C1099 1.398 . S
C1100 C1101 1.391 . S
C1101 H1089 0.950 . S
C1101 C1097 1.393 . S
C1101 C1100 1.391 . S
C1102 H1092 0.950 . S
C1102 C1103 1.386 . S
C1102 C1104 1.391 . S
C1103 C1102 1.386 . S
C1103 C1107 1.393 . S
C1104 H1093 0.950 . S
C1104 C1102 1.391 . S
C1104 C1105 1.400 . S
C1105 C1099 1.491 . S
C1105 C1104 1.400 . S
C1105 C1106 1.398 . S
C1106 H1094 0.950 . S
C1106 C1105 1.398 . S
C1106 C1107 1.391 . S
C1107 H1095 0.950 . S
C1107 C1103 1.393 . S
C1107 C1106 1.391 . S
H1108 C1116 0.950 . S
H1109 C1121 0.950 . S
H1110 C1118 0.950 . S
H1111 C1120 0.950 . S
H1112 C1122 0.950 . S
H1113 C1124 0.950 . S
H1114 C1126 0.950 . S
H1115 C1127 0.950 . S
C1116 H1108 0.950 . S
C1116 C1117 1.386 . S
C1116 C1118 1.391 . S
C1117 C1116 1.386 . S
C1117 C1121 1.393 . S
C1118 H1110 0.950 . S
C1118 C1116 1.391 . S
C1118 C1119 1.400 . S
C1119 C1118 1.400 . S
C1119 C1120 1.398 . S
C1119 C1125 1.491 . S
C1120 H1111 0.950 . S
C1120 C1119 1.398 . S
C1120 C1121 1.391 . S
C1121 H1109 0.950 . S
C1121 C1117 1.393 . S
C1121 C1120 1.391 . S
C1122 H1112 0.950 . S
C1122 C1123 1.386 . S
C1122 C1124 1.391 . S
C1123 C1122 1.386 . S
C1123 C1127 1.393 . S
C1124 H1113 0.950 . S
C1124 C1122 1.391 . S
C1124 C1125 1.400 . S
C1125 C1119 1.491 . S
C1125 C1124 1.400 . S
C1125 C1126 1.398 . S
C1126 H1114 0.950 . S
C1126 C1125 1.398 . S
C1126 C1127 1.391 . S
C1127 H1115 0.950 . S
C1127 C1123 1.393 . S
C1127 C1126 1.391 . S
H1128 C1136 0.950 . S
H1129 C1141 0.950 . S
H1130 C1138 0.950 . S
H1131 C1140 0.950 . S
H1132 C1142 0.950 . S
H1133 C1144 0.950 . S
H1134 C1146 0.950 . S
H1135 C1147 0.950 . S
C1136 H1128 0.950 . S
C1136 C1137 1.386 . S
C1136 C1138 1.391 . S
C1137 C1136 1.386 . S
C1137 C1141 1.393 . S
C1138 H1130 0.950 . S
C1138 C1136 1.391 . S
C1138 C1139 1.400 . S
C1139 C1138 1.400 . S
C1139 C1140 1.398 . S
C1139 C1145 1.491 . S
C1140 H1131 0.950 . S
C1140 C1139 1.398 . S
C1140 C1141 1.391 . S
C1141 H1129 0.950 . S
C1141 C1137 1.393 . S
C1141 C1140 1.391 . S
C1142 H1132 0.950 . S
C1142 C1143 1.386 . S
C1142 C1144 1.391 . S
C1143 C1142 1.386 . S
C1143 C1147 1.393 . S
C1144 H1133 0.950 . S
C1144 C1142 1.391 . S
C1144 C1145 1.400 . S
C1145 C1139 1.491 . S
C1145 C1144 1.400 . S
C1145 C1146 1.398 . S
C1146 H1134 0.950 . S
C1146 C1145 1.398 . S
C1146 C1147 1.391 . S
C1147 H1135 0.950 . S
C1147 C1143 1.393 . S
C1147 C1146 1.391 . S
H1148 C1156 0.950 . S
H1149 C1161 0.950 . S
H1150 C1158 0.950 . S
H1151 C1160 0.950 . S
H1152 C1162 0.950 . S
H1153 C1164 0.950 . S
H1154 C1166 0.950 . S
H1155 C1167 0.950 . S
C1156 H1148 0.950 . S
C1156 C1157 1.386 . S
C1156 C1158 1.391 . S
C1157 C1156 1.386 . S
C1157 C1161 1.393 . S
C1158 H1150 0.950 . S
C1158 C1156 1.391 . S
C1158 C1159 1.400 . S
C1159 C1158 1.400 . S
C1159 C1160 1.398 . S
C1159 C1165 1.491 . S
C1160 H1151 0.950 . S
C1160 C1159 1.398 . S
C1160 C1161 1.391 . S
C1161 H1149 0.950 . S
C1161 C1157 1.393 . S
C1161 C1160 1.391 . S
C1162 H1152 0.950 . S
C1162 C1163 1.386 . S
C1162 C1164 1.391 . S
C1163 C1162 1.386 . S
C1163 C1167 1.393 . S
C1164 H1153 0.950 . S
C1164 C1162 1.391 . S
C1164 C1165 1.400 . S
C1165 C1159 1.491 . S
C1165 C1164 1.400 . S
C1165 C1166 1.398 . S
C1166 H1154 0.950 . S
C1166 C1165 1.398 . S
C1166 C1167 1.391 . S
C1167 H1155 0.950 . S
C1167 C1163 1.393 . S
C1167 C1166 1.391 . S
H1168 C1176 0.950 . S
H1169 C1181 0.950 . S
H1170 C1178 0.950 . S
H1171 C1180 0.950 . S
H1172 C1182 0.950 . S
H1173 C1184 0.950 . S
H1174 C1186 0.950 . S
H1175 C1187 0.950 . S
C1176 H1168 0.950 . S
C1176 C1177 1.386 . S
C1176 C1178 1.391 . S
C1177 C1176 1.386 . S
C1177 C1181 1.393 . S
C1178 H1170 0.950 . S
C1178 C1176 1.391 . S
C1178 C1179 1.400 . S
C1179 C1178 1.400 . S
C1179 C1180 1.398 . S
C1179 C1185 1.491 . S
C1180 H1171 0.950 . S
C1180 C1179 1.398 . S
C1180 C1181 1.391 . S
C1181 H1169 0.950 . S
C1181 C1177 1.393 . S
C1181 C1180 1.391 . S
C1182 H1172 0.950 . S
C1182 C1183 1.386 . S
C1182 C1184 1.391 . S
C1183 C1182 1.386 . S
C1183 C1187 1.393 . S
C1184 H1173 0.950 . S
C1184 C1182 1.391 . S
C1184 C1185 1.400 . S
C1185 C1179 1.491 . S
C1185 C1184 1.400 . S
C1185 C1186 1.398 . S
C1186 H1174 0.950 . S
C1186 C1185 1.398 . S
C1186 C1187 1.391 . S
C1187 H1175 0.950 . S
C1187 C1183 1.393 . S
C1187 C1186 1.391 . S
H1188 C1196 0.950 . S
H1189 C1201 0.950 . S
H1190 C1198 0.950 . S
H1191 C1200 0.950 . S
H1192 C1202 0.950 . S
H1193 C1204 0.950 . S
H1194 C1206 0.950 . S
H1195 C1207 0.950 . S
C1196 H1188 0.950 . S
C1196 C1197 1.386 . S
C1196 C1198 1.391 . S
C1197 C1196 1.386 . S
C1197 C1201 1.393 . S
C1198 H1190 0.950 . S
C1198 C1196 1.391 . S
C1198 C1199 1.400 . S
C1199 C1198 1.400 . S
C1199 C1200 1.398 . S
C1199 C1205 1.491 . S
C1200 H1191 0.950 . S
C1200 C1199 1.398 . S
C1200 C1201 1.391 . S
C1201 H1189 0.950 . S
C1201 C1197 1.393 . S
C1201 C1200 1.391 . S
C1202 H1192 0.950 . S
C1202 C1203 1.386 . S
C1202 C1204 1.391 . S
C1203 C1202 1.386 . S
C1203 C1207 1.393 . S
C1204 H1193 0.950 . S
C1204 C1202 1.391 . S
C1204 C1205 1.400 . S
C1205 C1199 1.491 . S
C1205 C1204 1.400 . S
C1205 C1206 1.398 . S
C1206 H1194 0.950 . S
C1206 C1205 1.398 . S
C1206 C1207 1.391 . S
C1207 H1195 0.950 . S
C1207 C1203 1.393 . S
C1207 C1206 1.391 . S
H1208 C1216 0.950 . S
H1209 C1221 0.950 . S
H1210 C1218 0.950 . S
H1211 C1220 0.950 . S
H1212 C1222 0.950 . S
H1213 C1224 0.950 . S
H1214 C1226 0.950 . S
H1215 C1227 0.950 . S
C1216 H1208 0.950 . S
C1216 C1217 1.386 . S
C1216 C1218 1.391 . S
C1217 C1216 1.386 . S
C1217 C1221 1.393 . S
C1218 H1210 0.950 . S
C1218 C1216 1.391 . S
C1218 C1219 1.400 . S
C1219 C1218 1.400 . S
C1219 C1220 1.398 . S
C1219 C1225 1.491 . S
C1220 H1211 0.950 . S
C1220 C1219 1.398 . S
C1220 C1221 1.391 . S
C1221 H1209 0.950 . S
C1221 C1217 1.393 . S
C1221 C1220 1.391 . S
C1222 H1212 0.950 . S
C1222 C1223 1.386 . S
C1222 C1224 1.391 . S
C1223 C1222 1.386 . S
C1223 C1227 1.393 . S
C1224 H1213 0.950 . S
C1224 C1222 1.391 . S
C1224 C1225 1.400 . S
C1225 C1219 1.491 . S
C1225 C1224 1.400 . S
C1225 C1226 1.398 . S
C1226 H1214 0.950 . S
C1226 C1225 1.398 . S
C1226 C1227 1.391 . S
C1227 H1215 0.950 . S
C1227 C1223 1.393 . S
C1227 C1226 1.391 . S
H1228 C1236 0.950 . S
H1229 C1241 0.950 . S
H1230 C1238 0.950 . S
H1231 C1240 0.950 . S
H1232 C1242 0.950 . S
H1233 C1244 0.950 . S
H1234 C1246 0.950 . S
H1235 C1247 0.950 . S
C1236 H1228 0.950 . S
C1236 C1237 1.386 . S
C1236 C1238 1.391 . S
C1237 C1236 1.386 . S
C1237 C1241 1.393 . S
C1238 H1230 0.950 . S
C1238 C1236 1.391 . S
C1238 C1239 1.400 . S
C1239 C1238 1.400 . S
C1239 C1240 1.398 . S
C1239 C1245 1.491 . S
C1240 H1231 0.950 . S
C1240 C1239 1.398 . S
C1240 C1241 1.391 . S
C1241 H1229 0.950 . S
C1241 C1237 1.393 . S
C1241 C1240 1.391 . S
C1242 H1232 0.950 . S
C1242 C1243 1.386 . S
C1242 C1244 1.391 . S
C1243 C1242 1.386 . S
C1243 C1247 1.393 . S
C1244 H1233 0.950 . S
C1244 C1242 1.391 . S
C1244 C1245 1.400 . S
C1245 C1239 1.491 . S
C1245 C1244 1.400 . S
C1245 C1246 1.398 . S
C1246 H1234 0.950 . S
C1246 C1245 1.398 . S
C1246 C1247 1.391 . S
C1247 H1235 0.950 . S
C1247 C1243 1.393 . S
C1247 C1246 1.391 . S
H1248 C1256 0.950 . S
H1249 C1261 0.950 . S
H1250 C1258 0.950 . S
H1251 C1260 0.950 . S
H1252 C1262 0.950 . S
H1253 C1264 0.950 . S
H1254 C1266 0.950 . S
H1255 C1267 0.950 . S
C1256 H1248 0.950 . S
C1256 C1257 1.386 . S
C1256 C1258 1.391 . S
C1257 C1256 1.386 . S
C1257 C1261 1.393 . S
C1258 H1250 0.950 . S
C1258 C1256 1.391 . S
C1258 C1259 1.400 . S
C1259 C1258 1.400 . S
C1259 C1260 1.398 . S
C1259 C1265 1.491 . S
C1260 H1251 0.950 . S
C1260 C1259 1.398 . S
C1260 C1261 1.391 . S
C1261 H1249 0.950 . S
C1261 C1257 1.393 . S
C1261 C1260 1.391 . S
C1262 H1252 0.950 . S
C1262 C1263 1.386 . S
C1262 C1264 1.391 . S
C1263 C1262 1.386 . S
C1263 C1267 1.393 . S
C1264 H1253 0.950 . S
C1264 C1262 1.391 . S
C1264 C1265 1.400 . S
C1265 C1259 1.491 . S
C1265 C1264 1.400 . S
C1265 C1266 1.398 . S
C1266 H1254 0.950 . S
C1266 C1265 1.398 . S
C1266 C1267 1.391 . S
C1267 H1255 0.950 . S
C1267 C1263 1.393 . S
C1267 C1266 1.391 . S
H1268 C1276 0.950 . S
H1269 C1281 0.950 . S
H1270 C1278 0.950 . S
H1271 C1280 0.950 . S
H1272 C1282 0.950 . S
H1273 C1284 0.950 . S
H1274 C1286 0.950 . S
H1275 C1287 0.950 . S
C1276 H1268 0.950 . S
C1276 C1277 1.386 . S
C1276 C1278 1.391 . S
C1277 C1276 1.386 . S
C1277 C1281 1.393 . S
C1278 H1270 0.950 . S
C1278 C1276 1.391 . S
C1278 C1279 1.400 . S
C1279 C1278 1.400 . S
C1279 C1280 1.398 . S
C1279 C1285 1.491 . S
C1280 H1271 0.950 . S
C1280 C1279 1.398 . S
C1280 C1281 1.391 . S
C1281 H1269 0.950 . S
C1281 C1277 1.393 . S
C1281 C1280 1.391 . S
C1282 H1272 0.950 . S
C1282 C1283 1.386 . S
C1282 C1284 1.391 . S
C1283 C1282 1.386 . S
C1283 C1287 1.393 . S
C1284 H1273 0.950 . S
C1284 C1282 1.391 . S
C1284 C1285 1.400 . S
C1285 C1279 1.491 . S
C1285 C1284 1.400 . S
C1285 C1286 1.398 . S
C1286 H1274 0.950 . S
C1286 C1285 1.398 . S
C1286 C1287 1.391 . S
C1287 H1275 0.950 . S
C1287 C1283 1.393 . S
C1287 C1286 1.391 . S
H1288 C1296 0.950 . S
H1289 C1301 0.950 . S
H1290 C1298 0.950 . S
H1291 C1300 0.950 . S
H1292 C1302 0.950 . S
H1293 C1304 0.950 . S
H1294 C1306 0.950 . S
H1295 C1307 0.950 . S
C1296 H1288 0.950 . S
C1296 C1297 1.386 . S
C1296 C1298 1.391 . S
C1297 C1296 1.386 . S
C1297 C1301 1.393 . S
C1298 H1290 0.950 . S
C1298 C1296 1.391 . S
C1298 C1299 1.400 . S
C1299 C1298 1.400 . S
C1299 C1300 1.398 . S
C1299 C1305 1.491 . S
C1300 H1291 0.950 . S
C1300 C1299 1.398 . S
C1300 C1301 1.391 . S
C1301 H1289 0.950 . S
C1301 C1297 1.393 . S
C1301 C1300 1.391 . S
C1302 H1292 0.950 . S
C1302 C1303 1.386 . S
C1302 C1304 1.391 . S
C1303 C1302 1.386 . S
C1303 C1307 1.393 . S
C1304 H1293 0.950 . S
C1304 C1302 1.391 . S
C1304 C1305 1.400 . S
C1305 C1299 1.491 . S
C1305 C1304 1.400 . S
C1305 C1306 1.398 . S
C1306 H1294 0.950 . S
C1306 C1305 1.398 . S
C1306 C1307 1.391 . S
C1307 H1295 0.950 . S
C1307 C1303 1.393 . S
C1307 C1306 1.391 . S
H1308 C1316 0.950 . S
H1309 C1321 0.950 . S
H1310 C1318 0.950 . S
H1311 C1320 0.950 . S
H1312 C1322 0.950 . S
H1313 C1324 0.950 . S
H1314 C1326 0.950 . S
H1315 C1327 0.950 . S
C1316 H1308 0.950 . S
C1316 C1317 1.386 . S
C1316 C1318 1.391 . S
C1317 C1316 1.386 . S
C1317 C1321 1.393 . S
C1318 H1310 0.950 . S
C1318 C1316 1.391 . S
C1318 C1319 1.400 . S
C1319 C1318 1.400 . S
C1319 C1320 1.398 . S
C1319 C1325 1.491 . S
C1320 H1311 0.950 . S
C1320 C1319 1.398 . S
C1320 C1321 1.391 . S
C1321 H1309 0.950 . S
C1321 C1317 1.393 . S
C1321 C1320 1.391 . S
C1322 H1312 0.950 . S
C1322 C1323 1.386 . S
C1322 C1324 1.391 . S
C1323 C1322 1.386 . S
C1323 C1327 1.393 . S
C1324 H1313 0.950 . S
C1324 C1322 1.391 . S
C1324 C1325 1.400 . S
C1325 C1319 1.491 . S
C1325 C1324 1.400 . S
C1325 C1326 1.398 . S
C1326 H1314 0.950 . S
C1326 C1325 1.398 . S
C1326 C1327 1.391 . S
C1327 H1315 0.950 . S
C1327 C1323 1.393 . S
C1327 C1326 1.391 . S
H1328 C1336 0.926 1_554 S
H1329 C1341 0.950 . S
H1330 C1338 0.950 . S
H1331 C1340 0.950 . S
H1332 C1342 0.950 . S
H1333 C1344 0.950 . S
H1334 C1346 0.950 . S
H1335 C1347 0.950 . S
C1336 H1328 0.926 1_556 S
C1336 C1337 1.427 . S
C1336 C1338 1.380 1_556 S
C1337 C1336 1.427 . S
C1337 C1341 1.393 . S
C1338 H1330 0.950 . S
C1338 C1336 1.380 1_554 S
C1338 C1339 1.400 1_554 S
C1339 C1338 1.400 1_556 S
C1339 C1340 1.398 . S
C1339 C1345 1.501 . S
C1340 H1331 0.950 . S
C1340 C1339 1.398 . S
C1340 C1341 1.391 . S
C1341 H1329 0.950 . S
C1341 C1337 1.393 . S
C1341 C1340 1.391 . S
C1342 H1332 0.950 . S
C1342 C1343 1.386 1_556 S
C1342 C1344 1.391 . S
C1343 C1342 1.386 1_554 S
C1343 C1347 1.393 . S
C1344 H1333 0.950 . S
C1344 C1342 1.391 . S
C1344 C1345 1.421 . S
C1345 C1339 1.501 . S
C1345 C1344 1.421 . S
C1345 C1346 1.371 1_556 S
C1346 H1334 0.950 . S
C1346 C1345 1.371 1_554 S
C1346 C1347 1.391 . S
C1347 H1335 0.950 . S
C1347 C1343 1.393 . S
C1347 C1346 1.391 . S
H1348 C1356 0.950 . S
H1349 C1361 0.950 . S
H1350 C1358 0.950 . S
H1351 C1360 0.950 . S
H1352 C1362 0.950 . S
H1353 C1364 0.950 . S
H1354 C1366 0.950 . S
H1355 C1367 0.950 . S
C1356 H1348 0.950 . S
C1356 C1357 1.386 . S
C1356 C1358 1.391 . S
C1357 C1356 1.386 . S
C1357 C1361 1.393 . S
C1358 H1350 0.950 . S
C1358 C1356 1.391 . S
C1358 C1359 1.400 . S
C1359 C1358 1.400 . S
C1359 C1360 1.398 . S
C1359 C1365 1.491 . S
C1360 H1351 0.950 . S
C1360 C1359 1.398 . S
C1360 C1361 1.391 . S
C1361 H1349 0.950 . S
C1361 C1357 1.393 . S
C1361 C1360 1.391 . S
C1362 H1352 0.950 . S
C1362 C1363 1.386 . S
C1362 C1364 1.391 . S
C1363 C1362 1.386 . S
C1363 C1367 1.393 . S
C1364 H1353 0.950 . S
C1364 C1362 1.391 . S
C1364 C1365 1.400 . S
C1365 C1359 1.491 . S
C1365 C1364 1.400 . S
C1365 C1366 1.398 . S
C1366 H1354 0.950 . S
C1366 C1365 1.398 . S
C1366 C1367 1.391 . S
C1367 H1355 0.950 . S
C1367 C1363 1.393 . S
C1367 C1366 1.391 . S
H1368 C1376 0.950 . S
H1369 C1381 0.950 . S
H1370 C1378 0.950 . S
H1371 C1380 0.950 . S
H1372 C1382 0.950 . S
H1373 C1384 0.950 . S
H1374 C1386 0.950 . S
H1375 C1387 0.950 . S
C1376 H1368 0.950 . S
C1376 C1377 1.386 . S
C1376 C1378 1.391 . S
C1377 C1376 1.386 . S
C1377 C1381 1.393 . S
C1378 H1370 0.950 . S
C1378 C1376 1.391 . S
C1378 C1379 1.400 . S
C1379 C1378 1.400 . S
C1379 C1380 1.398 . S
C1379 C1385 1.491 . S
C1380 H1371 0.950 . S
C1380 C1379 1.398 . S
C1380 C1381 1.391 . S
C1381 H1369 0.950 . S
C1381 C1377 1.393 . S
C1381 C1380 1.391 . S
C1382 H1372 0.950 . S
C1382 C1383 1.386 . S
C1382 C1384 1.391 . S
C1383 C1382 1.386 . S
C1383 C1387 1.393 . S
C1384 H1373 0.950 . S
C1384 C1382 1.391 . S
C1384 C1385 1.400 . S
C1385 C1379 1.491 . S
C1385 C1384 1.400 . S
C1385 C1386 1.398 . S
C1386 H1374 0.950 . S
C1386 C1385 1.398 . S
C1386 C1387 1.391 . S
C1387 H1375 0.950 . S
C1387 C1383 1.393 . S
C1387 C1386 1.391 . S
H1388 C1396 0.950 . S
H1389 C1401 0.950 . S
H1390 C1398 0.950 . S
H1391 C1400 0.950 . S
H1392 C1402 0.950 . S
H1393 C1404 0.950 . S
H1394 C1406 0.950 . S
H1395 C1407 0.950 . S
C1396 H1388 0.950 . S
C1396 C1397 1.386 . S
C1396 C1398 1.391 . S
C1397 C1396 1.386 . S
C1397 C1401 1.393 . S
C1398 H1390 0.950 . S
C1398 C1396 1.391 . S
C1398 C1399 1.400 . S
C1399 C1398 1.400 . S
C1399 C1400 1.398 . S
C1399 C1405 1.491 . S
C1400 H1391 0.950 . S
C1400 C1399 1.398 . S
C1400 C1401 1.391 . S
C1401 H1389 0.950 . S
C1401 C1397 1.393 . S
C1401 C1400 1.391 . S
C1402 H1392 0.950 . S
C1402 C1403 1.386 . S
C1402 C1404 1.391 . S
C1403 C1402 1.386 . S
C1403 C1407 1.393 . S
C1404 H1393 0.950 . S
C1404 C1402 1.391 . S
C1404 C1405 1.400 . S
C1405 C1399 1.491 . S
C1405 C1404 1.400 . S
C1405 C1406 1.398 . S
C1406 H1394 0.950 . S
C1406 C1405 1.398 . S
C1406 C1407 1.391 . S
C1407 H1395 0.950 . S
C1407 C1403 1.393 . S
C1407 C1406 1.391 . S
H1408 C1416 0.950 . S
H1409 C1421 0.950 . S
H1410 C1418 0.950 . S
H1411 C1420 0.950 . S
H1412 C1422 0.950 . S
H1413 C1424 0.950 . S
H1414 C1426 0.950 . S
H1415 C1427 0.950 . S
C1416 H1408 0.950 . S
C1416 C1417 1.386 . S
C1416 C1418 1.391 . S
C1417 C1416 1.386 . S
C1417 C1421 1.393 . S
C1418 H1410 0.950 . S
C1418 C1416 1.391 . S
C1418 C1419 1.400 . S
C1419 C1418 1.400 . S
C1419 C1420 1.398 . S
C1419 C1425 1.491 . S
C1420 H1411 0.950 . S
C1420 C1419 1.398 . S
C1420 C1421 1.391 . S
C1421 H1409 0.950 . S
C1421 C1417 1.393 . S
C1421 C1420 1.391 . S
C1422 H1412 0.950 . S
C1422 C1423 1.386 . S
C1422 C1424 1.391 . S
C1423 C1422 1.386 . S
C1423 C1427 1.393 . S
C1424 H1413 0.950 . S
C1424 C1422 1.391 . S
C1424 C1425 1.400 . S
C1425 C1419 1.491 . S
C1425 C1424 1.400 . S
C1425 C1426 1.398 . S
C1426 H1414 0.950 . S
C1426 C1425 1.398 . S
C1426 C1427 1.391 . S
C1427 H1415 0.950 . S
C1427 C1423 1.393 . S
C1427 C1426 1.391 . S
H1428 C1436 0.950 1_556 S
H1429 C1441 0.950 . S
H1430 C1438 0.995 . S
H1431 C1440 0.950 . S
H1432 C1442 0.950 . S
H1433 C1444 0.950 . S
H1434 C1446 0.950 . S
H1435 C1447 0.950 . S
C1436 H1428 0.950 1_554 S
C1436 C1437 1.386 . S
C1436 C1438 1.380 1_554 S
C1437 C1436 1.386 . S
C1437 C1441 1.393 . S
C1438 H1430 0.995 . S
C1438 C1436 1.380 1_556 S
C1438 C1439 1.373 1_556 S
C1439 C1438 1.373 1_554 S
C1439 C1440 1.398 . S
C1439 C1445 1.491 . S
C1440 H1431 0.950 . S
C1440 C1439 1.398 . S
C1440 C1441 1.391 . S
C1441 H1429 0.950 . S
C1441 C1437 1.393 . S
C1441 C1440 1.391 . S
C1442 H1432 0.950 . S
C1442 C1443 1.386 1_554 S
C1442 C1444 1.391 . S
C1443 C1442 1.386 1_556 S
C1443 C1447 1.393 . S
C1444 H1433 0.950 . S
C1444 C1442 1.391 . S
C1444 C1445 1.400 . S
C1445 C1439 1.491 . S
C1445 C1444 1.400 . S
C1445 C1446 1.398 1_554 S
C1446 H1434 0.950 . S
C1446 C1445 1.398 1_556 S
C1446 C1447 1.391 . S
C1447 H1435 0.950 . S
C1447 C1443 1.393 . S
C1447 C1446 1.391 . S
H1448 C1456 0.950 . S
H1449 C1461 0.950 . S
H1450 C1458 0.950 . S
H1451 C1460 0.950 . S
H1452 C1462 0.950 . S
H1453 C1464 0.950 . S
H1454 C1466 0.950 . S
H1455 C1467 0.950 . S
C1456 H1448 0.950 . S
C1456 C1457 1.386 . S
C1456 C1458 1.391 . S
C1457 C1456 1.386 . S
C1457 C1461 1.393 . S
C1458 H1450 0.950 . S
C1458 C1456 1.391 . S
C1458 C1459 1.400 . S
C1459 C1458 1.400 . S
C1459 C1460 1.398 . S
C1459 C1465 1.491 . S
C1460 H1451 0.950 . S
C1460 C1459 1.398 . S
C1460 C1461 1.391 . S
C1461 H1449 0.950 . S
C1461 C1457 1.393 . S
C1461 C1460 1.391 . S
C1462 H1452 0.950 . S
C1462 C1463 1.386 . S
C1462 C1464 1.391 . S
C1463 C1462 1.386 . S
C1463 C1467 1.393 . S
C1464 H1453 0.950 . S
C1464 C1462 1.391 . S
C1464 C1465 1.400 . S
C1465 C1459 1.491 . S
C1465 C1464 1.400 . S
C1465 C1466 1.398 . S
C1466 H1454 0.950 . S
C1466 C1465 1.398 . S
C1466 C1467 1.391 . S
C1467 H1455 0.950 . S
C1467 C1463 1.393 . S
C1467 C1466 1.391 . S
H1468 C1476 0.950 . S
H1469 C1481 0.950 . S
H1470 C1478 0.950 . S
H1471 C1480 0.950 . S
H1472 C1482 0.950 . S
H1473 C1484 0.950 . S
H1474 C1486 0.950 . S
H1475 C1487 0.950 . S
C1476 H1468 0.950 . S
C1476 C1477 1.386 . S
C1476 C1478 1.391 . S
C1477 C1476 1.386 . S
C1477 C1481 1.393 . S
C1478 H1470 0.950 . S
C1478 C1476 1.391 . S
C1478 C1479 1.400 . S
C1479 C1478 1.400 . S
C1479 C1480 1.398 . S
C1479 C1485 1.491 . S
C1480 H1471 0.950 . S
C1480 C1479 1.398 . S
C1480 C1481 1.391 . S
C1481 H1469 0.950 . S
C1481 C1477 1.393 . S
C1481 C1480 1.391 . S
C1482 H1472 0.950 . S
C1482 C1483 1.386 . S
C1482 C1484 1.391 . S
C1483 C1482 1.386 . S
C1483 C1487 1.393 . S
C1484 H1473 0.950 . S
C1484 C1482 1.391 . S
C1484 C1485 1.400 . S
C1485 C1479 1.491 . S
C1485 C1484 1.400 . S
C1485 C1486 1.398 . S
C1486 H1474 0.950 . S
C1486 C1485 1.398 . S
C1486 C1487 1.391 . S
C1487 H1475 0.950 . S
C1487 C1483 1.393 . S
C1487 C1486 1.391 . S
H1488 C1496 0.950 . S
H1489 C1501 0.950 . S
H1490 C1498 0.950 . S
H1491 C1500 0.950 . S
H1492 C1502 0.950 . S
H1493 C1504 0.950 . S
H1494 C1506 0.950 . S
H1495 C1507 0.950 . S
C1496 H1488 0.950 . S
C1496 C1497 1.386 . S
C1496 C1498 1.391 . S
C1497 C1496 1.386 . S
C1497 C1501 1.393 . S
C1498 H1490 0.950 . S
C1498 C1496 1.391 . S
C1498 C1499 1.400 . S
C1499 C1498 1.400 . S
C1499 C1500 1.398 . S
C1499 C1505 1.491 . S
C1500 H1491 0.950 . S
C1500 C1499 1.398 . S
C1500 C1501 1.391 . S
C1501 H1489 0.950 . S
C1501 C1497 1.393 . S
C1501 C1500 1.391 . S
C1502 H1492 0.950 . S
C1502 C1503 1.386 . S
C1502 C1504 1.391 . S
C1503 C1502 1.386 . S
C1503 C1507 1.393 . S
C1504 H1493 0.950 . S
C1504 C1502 1.391 . S
C1504 C1505 1.400 . S
C1505 C1499 1.491 . S
C1505 C1504 1.400 . S
C1505 C1506 1.398 . S
C1506 H1494 0.950 . S
C1506 C1505 1.398 . S
C1506 C1507 1.391 . S
C1507 H1495 0.950 . S
C1507 C1503 1.393 . S
C1507 C1506 1.391 . S
H1508 C1516 0.950 . S
H1509 C1521 0.950 . S
H1510 C1518 0.950 . S
H1511 C1520 0.950 . S
H1512 C1522 0.950 . S
H1513 C1524 0.950 . S
H1514 C1526 0.950 . S
H1515 C1527 0.950 . S
C1516 H1508 0.950 . S
C1516 C1517 1.386 . S
C1516 C1518 1.391 . S
C1517 C1516 1.386 . S
C1517 C1521 1.393 . S
C1518 H1510 0.950 . S
C1518 C1516 1.391 . S
C1518 C1519 1.400 . S
C1519 C1518 1.400 . S
C1519 C1520 1.398 . S
C1519 C1525 1.491 . S
C1520 H1511 0.950 . S
C1520 C1519 1.398 . S
C1520 C1521 1.391 . S
C1521 H1509 0.950 . S
C1521 C1517 1.393 . S
C1521 C1520 1.391 . S
C1522 H1512 0.950 . S
C1522 C1523 1.386 . S
C1522 C1524 1.391 . S
C1523 C1522 1.386 . S
C1523 C1527 1.393 . S
C1524 H1513 0.950 . S
C1524 C1522 1.391 . S
C1524 C1525 1.400 . S
C1525 C1519 1.491 . S
C1525 C1524 1.400 . S
C1525 C1526 1.398 . S
C1526 H1514 0.950 . S
C1526 C1525 1.398 . S
C1526 C1527 1.391 . S
C1527 H1515 0.950 . S
C1527 C1523 1.393 . S
C1527 C1526 1.391 . S
H1528 C1536 0.950 . S
H1529 C1541 0.950 . S
H1530 C1538 0.950 . S
H1531 C1540 0.950 . S
H1532 C1542 0.950 . S
H1533 C1544 0.950 . S
H1534 C1546 0.950 . S
H1535 C1547 0.950 . S
C1536 H1528 0.950 . S
C1536 C1537 1.386 . S
C1536 C1538 1.391 . S
C1537 C1536 1.386 . S
C1537 C1541 1.393 . S
C1538 H1530 0.950 . S
C1538 C1536 1.391 . S
C1538 C1539 1.400 . S
C1539 C1538 1.400 . S
C1539 C1540 1.398 . S
C1539 C1545 1.491 . S
C1540 H1531 0.950 . S
C1540 C1539 1.398 . S
C1540 C1541 1.391 . S
C1541 H1529 0.950 . S
C1541 C1537 1.393 . S
C1541 C1540 1.391 . S
C1542 H1532 0.950 . S
C1542 C1543 1.386 . S
C1542 C1544 1.391 . S
C1543 C1542 1.386 . S
C1543 C1547 1.393 . S
C1544 H1533 0.950 . S
C1544 C1542 1.391 . S
C1544 C1545 1.400 . S
C1545 C1539 1.491 . S
C1545 C1544 1.400 . S
C1545 C1546 1.398 . S
C1546 H1534 0.950 . S
C1546 C1545 1.398 . S
C1546 C1547 1.391 . S
C1547 H1535 0.950 . S
C1547 C1543 1.393 . S
C1547 C1546 1.391 . S
H1548 C1556 0.950 . S
H1549 C1561 0.950 . S
H1550 C1558 0.950 . S
H1551 C1560 0.950 . S
H1552 C1562 0.950 . S
H1553 C1564 0.950 . S
H1554 C1566 0.950 . S
H1555 C1567 0.950 . S
C1556 H1548 0.950 . S
C1556 C1557 1.386 . S
C1556 C1558 1.391 . S
C1557 C1556 1.386 . S
C1557 C1561 1.393 . S
C1558 H1550 0.950 . S
C1558 C1556 1.391 . S
C1558 C1559 1.400 . S
C1559 C1558 1.400 . S
C1559 C1560 1.398 . S
C1559 C1565 1.491 . S
C1560 H1551 0.950 . S
C1560 C1559 1.398 . S
C1560 C1561 1.391 . S
C1561 H1549 0.950 . S
C1561 C1557 1.393 . S
C1561 C1560 1.391 . S
C1562 H1552 0.950 . S
C1562 C1563 1.386 . S
C1562 C1564 1.391 . S
C1563 C1562 1.386 . S
C1563 C1567 1.393 . S
C1564 H1553 0.950 . S
C1564 C1562 1.391 . S
C1564 C1565 1.400 . S
C1565 C1559 1.491 . S
C1565 C1564 1.400 . S
C1565 C1566 1.398 . S
C1566 H1554 0.950 . S
C1566 C1565 1.398 . S
C1566 C1567 1.391 . S
C1567 H1555 0.950 . S
C1567 C1563 1.393 . S
C1567 C1566 1.391 . S
H1568 C1576 0.950 . S
H1569 C1581 0.950 . S
H1570 C1578 0.950 . S
H1571 C1580 0.950 . S
H1572 C1582 0.950 . S
H1573 C1584 0.950 . S
H1574 C1586 0.950 . S
H1575 C1587 0.950 . S
C1576 H1568 0.950 . S
C1576 C1577 1.386 . S
C1576 C1578 1.391 . S
C1577 C1576 1.386 . S
C1577 C1581 1.393 . S
C1578 H1570 0.950 . S
C1578 C1576 1.391 . S
C1578 C1579 1.400 . S
C1579 C1578 1.400 . S
C1579 C1580 1.398 . S
C1579 C1585 1.491 . S
C1580 H1571 0.950 . S
C1580 C1579 1.398 . S
C1580 C1581 1.391 . S
C1581 H1569 0.950 . S
C1581 C1577 1.393 . S
C1581 C1580 1.391 . S
C1582 H1572 0.950 . S
C1582 C1583 1.386 . S
C1582 C1584 1.391 . S
C1583 C1582 1.386 . S
C1583 C1587 1.393 . S
C1584 H1573 0.950 . S
C1584 C1582 1.391 . S
C1584 C1585 1.400 . S
C1585 C1579 1.491 . S
C1585 C1584 1.400 . S
C1585 C1586 1.398 . S
C1586 H1574 0.950 . S
C1586 C1585 1.398 . S
C1586 C1587 1.391 . S
C1587 H1575 0.950 . S
C1587 C1583 1.393 . S
C1587 C1586 1.391 . S
H1588 C1596 0.950 . S
H1589 C1601 0.950 . S
H1590 C1598 0.950 . S
H1591 C1600 0.950 . S
H1592 C1602 0.950 . S
H1593 C1604 0.950 . S
H1594 C1606 0.950 . S
H1595 C1607 0.950 . S
C1596 H1588 0.950 . S
C1596 C1597 1.386 . S
C1596 C1598 1.391 . S
C1597 C1596 1.386 . S
C1597 C1601 1.393 . S
C1598 H1590 0.950 . S
C1598 C1596 1.391 . S
C1598 C1599 1.400 . S
C1599 C1598 1.400 . S
C1599 C1600 1.398 . S
C1599 C1605 1.491 . S
C1600 H1591 0.950 . S
C1600 C1599 1.398 . S
C1600 C1601 1.391 . S
C1601 H1589 0.950 . S
C1601 C1597 1.393 . S
C1601 C1600 1.391 . S
C1602 H1592 0.950 . S
C1602 C1603 1.386 . S
C1602 C1604 1.391 . S
C1603 C1602 1.386 . S
C1603 C1607 1.393 . S
C1604 H1593 0.950 . S
C1604 C1602 1.391 . S
C1604 C1605 1.400 . S
C1605 C1599 1.491 . S
C1605 C1604 1.400 . S
C1605 C1606 1.398 . S
C1606 H1594 0.950 . S
C1606 C1605 1.398 . S
C1606 C1607 1.391 . S
C1607 H1595 0.950 . S
C1607 C1603 1.393 . S
C1607 C1606 1.391 . S
H1608 C1616 0.950 . S
H1609 C1621 0.950 . S
H1610 C1618 0.950 . S
H1611 C1620 0.950 . S
H1612 C1622 0.950 . S
H1613 C1624 0.950 . S
H1614 C1626 0.950 . S
H1615 C1627 0.950 . S
C1616 H1608 0.950 . S
C1616 C1617 1.386 . S
C1616 C1618 1.391 . S
C1617 C1616 1.386 . S
C1617 C1621 1.393 . S
C1618 H1610 0.950 . S
C1618 C1616 1.391 . S
C1618 C1619 1.400 . S
C1619 C1618 1.400 . S
C1619 C1620 1.398 . S
C1619 C1625 1.491 . S
C1620 H1611 0.950 . S
C1620 C1619 1.398 . S
C1620 C1621 1.391 . S
C1621 H1609 0.950 . S
C1621 C1617 1.393 . S
C1621 C1620 1.391 . S
C1622 H1612 0.950 . S
C1622 C1623 1.386 . S
C1622 C1624 1.391 . S
C1623 C1622 1.386 . S
C1623 C1627 1.393 . S
C1624 H1613 0.950 . S
C1624 C1622 1.391 . S
C1624 C1625 1.400 . S
C1625 C1619 1.491 . S
C1625 C1624 1.400 . S
C1625 C1626 1.398 . S
C1626 H1614 0.950 . S
C1626 C1625 1.398 . S
C1626 C1627 1.391 . S
C1627 H1615 0.950 . S
C1627 C1623 1.393 . S
C1627 C1626 1.391 . S
H1628 C1636 0.950 . S
H1629 C1641 0.950 . S
H1630 C1638 0.950 . S
H1631 C1640 0.950 . S
H1632 C1642 0.950 . S
H1633 C1644 0.950 . S
H1634 C1646 0.950 . S
H1635 C1647 0.950 . S
C1636 H1628 0.950 . S
C1636 C1637 1.386 . S
C1636 C1638 1.391 . S
C1637 C1636 1.386 . S
C1637 C1641 1.393 . S
C1638 H1630 0.950 . S
C1638 C1636 1.391 . S
C1638 C1639 1.400 . S
C1639 C1638 1.400 . S
C1639 C1640 1.398 . S
C1639 C1645 1.491 . S
C1640 H1631 0.950 . S
C1640 C1639 1.398 . S
C1640 C1641 1.391 . S
C1641 H1629 0.950 . S
C1641 C1637 1.393 . S
C1641 C1640 1.391 . S
C1642 H1632 0.950 . S
C1642 C1643 1.386 . S
C1642 C1644 1.391 . S
C1643 C1642 1.386 . S
C1643 C1647 1.393 . S
C1644 H1633 0.950 . S
C1644 C1642 1.391 . S
C1644 C1645 1.400 . S
C1645 C1639 1.491 . S
C1645 C1644 1.400 . S
C1645 C1646 1.398 . S
C1646 H1634 0.950 . S
C1646 C1645 1.398 . S
C1646 C1647 1.391 . S
C1647 H1635 0.950 . S
C1647 C1643 1.393 . S
C1647 C1646 1.391 . S
H1648 C1656 0.950 . S
H1649 C1661 0.950 . S
H1650 C1658 0.950 . S
H1651 C1660 0.950 . S
H1652 C1662 0.950 . S
H1653 C1664 0.950 . S
H1654 C1666 0.950 . S
H1655 C1667 0.950 . S
C1656 H1648 0.950 . S
C1656 C1657 1.386 . S
C1656 C1658 1.391 . S
C1657 C1656 1.386 . S
C1657 C1661 1.393 . S
C1658 H1650 0.950 . S
C1658 C1656 1.391 . S
C1658 C1659 1.400 . S
C1659 C1658 1.400 . S
C1659 C1660 1.398 . S
C1659 C1665 1.491 . S
C1660 H1651 0.950 . S
C1660 C1659 1.398 . S
C1660 C1661 1.391 . S
C1661 H1649 0.950 . S
C1661 C1657 1.393 . S
C1661 C1660 1.391 . S
C1662 H1652 0.950 . S
C1662 C1663 1.386 . S
C1662 C1664 1.391 . S
C1663 C1662 1.386 . S
C1663 C1667 1.393 . S
C1664 H1653 0.950 . S
C1664 C1662 1.391 . S
C1664 C1665 1.400 . S
C1665 C1659 1.491 . S
C1665 C1664 1.400 . S
C1665 C1666 1.398 . S
C1666 H1654 0.950 . S
C1666 C1665 1.398 . S
C1666 C1667 1.391 . S
C1667 H1655 0.950 . S
C1667 C1663 1.393 . S
C1667 C1666 1.391 . S
H1668 C1676 0.950 . S
H1669 C1681 0.950 . S
H1670 C1678 0.950 . S
H1671 C1680 0.950 . S
H1672 C1682 0.950 . S
H1673 C1684 0.950 . S
H1674 C1686 0.950 . S
H1675 C1687 0.950 . S
C1676 H1668 0.950 . S
C1676 C1677 1.386 . S
C1676 C1678 1.391 . S
C1677 C1676 1.386 . S
C1677 C1681 1.393 . S
C1678 H1670 0.950 . S
C1678 C1676 1.391 . S
C1678 C1679 1.400 . S
C1679 C1678 1.400 . S
C1679 C1680 1.398 . S
C1679 C1685 1.491 . S
C1680 H1671 0.950 . S
C1680 C1679 1.398 . S
C1680 C1681 1.391 . S
C1681 H1669 0.950 . S
C1681 C1677 1.393 . S
C1681 C1680 1.391 . S
C1682 H1672 0.950 . S
C1682 C1683 1.386 . S
C1682 C1684 1.391 . S
C1683 C1682 1.386 . S
C1683 C1687 1.393 . S
C1684 H1673 0.950 . S
C1684 C1682 1.391 . S
C1684 C1685 1.400 . S
C1685 C1679 1.491 . S
C1685 C1684 1.400 . S
C1685 C1686 1.398 . S
C1686 H1674 0.950 . S
C1686 C1685 1.398 . S
C1686 C1687 1.391 . S
C1687 H1675 0.950 . S
C1687 C1683 1.393 . S
C1687 C1686 1.391 . S
H1688 C1696 0.950 . S
H1689 C1701 0.950 . S
H1690 C1698 0.950 . S
H1691 C1700 0.950 . S
H1692 C1702 0.950 . S
H1693 C1704 0.950 . S
H1694 C1706 0.950 . S
H1695 C1707 0.950 . S
C1696 H1688 0.950 . S
C1696 C1697 1.386 . S
C1696 C1698 1.391 . S
C1697 C1696 1.386 . S
C1697 C1701 1.393 . S
C1698 H1690 0.950 . S
C1698 C1696 1.391 . S
C1698 C1699 1.400 . S
C1699 C1698 1.400 . S
C1699 C1700 1.398 . S
C1699 C1705 1.491 . S
C1700 H1691 0.950 . S
C1700 C1699 1.398 . S
C1700 C1701 1.391 . S
C1701 H1689 0.950 . S
C1701 C1697 1.393 . S
C1701 C1700 1.391 . S
C1702 H1692 0.950 . S
C1702 C1703 1.386 . S
C1702 C1704 1.391 . S
C1703 C1702 1.386 . S
C1703 C1707 1.393 . S
C1704 H1693 0.950 . S
C1704 C1702 1.391 . S
C1704 C1705 1.400 . S
C1705 C1699 1.491 . S
C1705 C1704 1.400 . S
C1705 C1706 1.398 . S
C1706 H1694 0.950 . S
C1706 C1705 1.398 . S
C1706 C1707 1.391 . S
C1707 H1695 0.950 . S
C1707 C1703 1.393 . S
C1707 C1706 1.391 . S
H1708 C1716 0.950 . S
H1709 C1721 0.950 . S
H1710 C1718 0.950 . S
H1711 C1720 0.950 . S
H1712 C1722 0.950 . S
H1713 C1724 0.950 . S
H1714 C1726 0.950 . S
H1715 C1727 0.950 . S
C1716 H1708 0.950 . S
C1716 C1717 1.386 . S
C1716 C1718 1.391 . S
C1717 C1716 1.386 . S
C1717 C1721 1.393 . S
C1718 H1710 0.950 . S
C1718 C1716 1.391 . S
C1718 C1719 1.400 . S
C1719 C1718 1.400 . S
C1719 C1720 1.398 . S
C1719 C1725 1.491 . S
C1720 H1711 0.950 . S
C1720 C1719 1.398 . S
C1720 C1721 1.391 . S
C1721 H1709 0.950 . S
C1721 C1717 1.393 . S
C1721 C1720 1.391 . S
C1722 H1712 0.950 . S
C1722 C1723 1.386 . S
C1722 C1724 1.391 . S
C1723 C1722 1.386 . S
C1723 C1727 1.393 . S
C1724 H1713 0.950 . S
C1724 C1722 1.391 . S
C1724 C1725 1.400 . S
C1725 C1719 1.491 . S
C1725 C1724 1.400 . S
C1725 C1726 1.398 . S
C1726 H1714 0.950 . S
C1726 C1725 1.398 . S
C1726 C1727 1.391 . S
C1727 H1715 0.950 . S
C1727 C1723 1.393 . S
C1727 C1726 1.391 . S
C1017 C476 1.599 . S
C1023 C58 1.246 . S
C1037 C142 1.264 . S
C1043 C56 1.687 . S
C1057 C226 1.343 . S
C1063 C140 1.695 . S
C1077 C224 1.596 . S
C1083 C310 1.267 . S
C1097 C308 1.705 . S
C1103 C394 1.294 . S
C1117 C478 1.332 . S
C1123 C392 1.690 . S
C1137 C644 1.586 . S
C1143 C562 1.217 . S
C1157 C646 1.352 . S
C1163 C728 1.705 . S
C1177 C812 1.689 . S
C1183 C730 1.243 . S
C1197 C896 1.603 . S
C1203 C814 1.259 . S
C1217 C980 1.702 . S
C1223 C898 1.355 . S
C1237 C560 1.699 . S
C1243 C982 1.262 . S
C1257 C998 3.449 . S
C1263 C67 3.408 . S
C1277 C151 2.962 . S
C1283 C578 3.005 . S
C1297 C662 3.246 . S
C1303 C235 3.187 . S
C1317 C746 3.456 . S
C1323 C319 3.409 . S
C1337 C830 3.001 . S
C1343 C403 2.959 . S
C1357 C487 3.192 . S
C1363 C914 3.240 . S
C1377 C571 3.407 . S
C1383 C158 3.458 . S
C1397 C655 3.190 . S
C1403 C242 3.244 . S
C1417 C326 3.006 . S
C1423 C739 2.949 . S
C1437 C410 3.449 . S
C1443 C823 3.398 . S
C1457 C907 3.191 . S
C1463 C494 3.244 . S
C1477 C991 2.963 . S
C1483 C74 3.005 . S
C1497 C567 2.167 . S
C1503 C63 2.178 . S
C1517 C147 1.473 . S
C1523 C651 1.475 . S
C1537 C735 1.469 . S
C1543 C231 1.488 . S
C1557 C315 2.179 . S
C1563 C819 2.188 . S
C1577 C903 1.485 . S
C1583 C399 1.468 . S
C1597 C987 1.450 . S
C1603 C483 1.462 . S
C1617 C573 0.533 . S
C1623 C69 0.496 . S
C1637 C657 0.358 . S
C1643 C153 0.254 . S
C1657 C741 0.271 . S
C1663 C237 0.304 . S
C1677 C321 0.529 . S
C1683 C825 0.484 . S
C1697 C909 0.373 . S
C1703 C405 0.289 . S
C1717 C993 0.344 . S
C1723 C489 0.331 . S
