# Generated by pormake.
# Topology vbf, (5)-cn, num edge types: 1
# Building blocks:
#     Node 0, Type 0, BuildingBlock: XOMCOT_clean_sbu_0, # of connection points: 5
#     Node 1, Type 0, BuildingBlock: XOMCOT_clean_sbu_0, # of connection points: 5
#     Node 2, Type 0, BuildingBlock: XOMCOT_clean_sbu_0, # of connection points: 5
#     Node 3, Type 0, BuildingBlock: XOMCOT_clean_sbu_0, # of connection points: 5
#     Node 4, Type 0, BuildingBlock: XOMCOT_clean_sbu_0, # of connection points: 5
#     Node 5, Type 0, BuildingBlock: XOMCOT_clean_sbu_0, # of connection points: 5
#     Node 6, Type 0, BuildingBlock: XOMCOT_clean_sbu_0, # of connection points: 5
#     Node 7, Type 0, BuildingBlock: XOMCOT_clean_sbu_0, # of connection points: 5
#     Node 8, Type 0, BuildingBlock: XOMCOT_clean_sbu_0, # of connection points: 5
#     Node 9, Type 0, BuildingBlock: XOMCOT_clean_sbu_0, # of connection points: 5
#     Node 10, Type 0, BuildingBlock: XOMCOT_clean_sbu_0, # of connection points: 5
#     Node 11, Type 0, BuildingBlock: XOMCOT_clean_sbu_0, # of connection points: 5
#     Node 12, Type 0, BuildingBlock: XOMCOT_clean_sbu_0, # of connection points: 5
#     Node 13, Type 0, BuildingBlock: XOMCOT_clean_sbu_0, # of connection points: 5
#     Node 14, Type 0, BuildingBlock: XOMCOT_clean_sbu_0, # of connection points: 5
#     Node 15, Type 0, BuildingBlock: XOMCOT_clean_sbu_0, # of connection points: 5
#     Edge 16, Type (0, 0), BuildingBlock: CIFDUS_clean_linker_0, # of connection points: 2
#     Edge 17, Type (0, 0), BuildingBlock: CIFDUS_clean_linker_0, # of connection points: 2
#     Edge 18, Type (0, 0), BuildingBlock: CIFDUS_clean_linker_0, # of connection points: 2
#     Edge 19, Type (0, 0), BuildingBlock: CIFDUS_clean_linker_0, # of connection points: 2
#     Edge 20, Type (0, 0), BuildingBlock: CIFDUS_clean_linker_0, # of connection points: 2
#     Edge 21, Type (0, 0), BuildingBlock: CIFDUS_clean_linker_0, # of connection points: 2
#     Edge 22, Type (0, 0), BuildingBlock: CIFDUS_clean_linker_0, # of connection points: 2
#     Edge 23, Type (0, 0), BuildingBlock: CIFDUS_clean_linker_0, # of connection points: 2
#     Edge 24, Type (0, 0), BuildingBlock: CIFDUS_clean_linker_0, # of connection points: 2
#     Edge 25, Type (0, 0), BuildingBlock: CIFDUS_clean_linker_0, # of connection points: 2
#     Edge 26, Type (0, 0), BuildingBlock: CIFDUS_clean_linker_0, # of connection points: 2
#     Edge 27, Type (0, 0), BuildingBlock: CIFDUS_clean_linker_0, # of connection points: 2
#     Edge 28, Type (0, 0), BuildingBlock: CIFDUS_clean_linker_0, # of connection points: 2
#     Edge 29, Type (0, 0), BuildingBlock: CIFDUS_clean_linker_0, # of connection points: 2
#     Edge 30, Type (0, 0), BuildingBlock: CIFDUS_clean_linker_0, # of connection points: 2
#     Edge 31, Type (0, 0), BuildingBlock: CIFDUS_clean_linker_0, # of connection points: 2
#     Edge 32, Type (0, 0), BuildingBlock: CIFDUS_clean_linker_0, # of connection points: 2
#     Edge 33, Type (0, 0), BuildingBlock: CIFDUS_clean_linker_0, # of connection points: 2
#     Edge 34, Type (0, 0), BuildingBlock: CIFDUS_clean_linker_0, # of connection points: 2
#     Edge 35, Type (0, 0), BuildingBlock: CIFDUS_clean_linker_0, # of connection points: 2
#     Edge 36, Type (0, 0), BuildingBlock: CIFDUS_clean_linker_0, # of connection points: 2
#     Edge 37, Type (0, 0), BuildingBlock: CIFDUS_clean_linker_0, # of connection points: 2
#     Edge 38, Type (0, 0), BuildingBlock: CIFDUS_clean_linker_0, # of connection points: 2
#     Edge 39, Type (0, 0), BuildingBlock: CIFDUS_clean_linker_0, # of connection points: 2
#     Edge 40, Type (0, 0), BuildingBlock: CIFDUS_clean_linker_0, # of connection points: 2
#     Edge 41, Type (0, 0), BuildingBlock: CIFDUS_clean_linker_0, # of connection points: 2
#     Edge 42, Type (0, 0), BuildingBlock: CIFDUS_clean_linker_0, # of connection points: 2
#     Edge 43, Type (0, 0), BuildingBlock: CIFDUS_clean_linker_0, # of connection points: 2
#     Edge 44, Type (0, 0), BuildingBlock: CIFDUS_clean_linker_0, # of connection points: 2
#     Edge 45, Type (0, 0), BuildingBlock: CIFDUS_clean_linker_0, # of connection points: 2
#     Edge 46, Type (0, 0), BuildingBlock: CIFDUS_clean_linker_0, # of connection points: 2
#     Edge 47, Type (0, 0), BuildingBlock: CIFDUS_clean_linker_0, # of connection points: 2
#     Edge 48, Type (0, 0), BuildingBlock: CIFDUS_clean_linker_0, # of connection points: 2
#     Edge 49, Type (0, 0), BuildingBlock: CIFDUS_clean_linker_0, # of connection points: 2
#     Edge 50, Type (0, 0), BuildingBlock: CIFDUS_clean_linker_0, # of connection points: 2
#     Edge 51, Type (0, 0), BuildingBlock: CIFDUS_clean_linker_0, # of connection points: 2
#     Edge 52, Type (0, 0), BuildingBlock: CIFDUS_clean_linker_0, # of connection points: 2
#     Edge 53, Type (0, 0), BuildingBlock: CIFDUS_clean_linker_0, # of connection points: 2
#     Edge 54, Type (0, 0), BuildingBlock: CIFDUS_clean_linker_0, # of connection points: 2
#     Edge 55, Type (0, 0), BuildingBlock: CIFDUS_clean_linker_0, # of connection points: 2
# Relax obj value: 0.129
# Max RMSD: 0.207
# Mean RMSD: 0.206
data_MOF--net-vbf--node1-XOMCOT_clean_sbu_0--edge1-CIFDUS_clean_linker_0
_symmetry_space_group_name_H-M    P1
_symmetry_Int_Tables_number       1
_symmetry_cell_setting            triclinic
loop_
_symmetry_equiv_pos_as_xyz
'x, y, z'
_cell_length_a     39.677295
_cell_length_b     65.325711
_cell_length_c     22.641367
_cell_angle_alpha  90.169768
_cell_angle_beta   89.976404
_cell_angle_gamma 89.946083
loop_
_atom_site_label
_atom_site_type_symbol
_atom_site_fract_x
_atom_site_fract_y
_atom_site_fract_z
_atom_type_partial_charge
Co0 Co 0.09469 0.31734 0.02698 0.0
C1 C 0.15908 0.29378 1.0078 0.0
C2 C 0.13419 0.28513 0.08776 0.0
C3 C 0.16225 0.27309 0.08117 0.0
N4 N 0.1313 0.29778 0.04093 0.0
N5 N 0.17772 0.27848 0.03086 0.0
H6 H 0.16558 0.30165 0.96748 0.0
H7 H 0.1181 0.28499 0.12584 0.0
C8 C 0.04324 0.30767 0.12783 0.0
O9 O 0.01858 0.31861 0.10579 0.0
N10 N 0.05898 0.33717 1.01382 0.0
C11 C 0.04147 0.33972 0.96346 0.0
C12 C 0.0172 0.35443 0.97262 0.0
C13 C 0.04626 0.35118 0.05203 0.0
N14 N 0.01981 0.36145 0.02861 0.0
C15 C 0.08956 0.29066 0.9289 0.0
C16 C 0.02224 0.28051 0.93726 0.0
C17 C 0.0402 0.27509 0.88612 0.0
C18 C 0.07457 0.27953 0.88381 0.0
C19 C 0.03858 0.29155 0.98253 0.0
N20 N 0.07173 0.29709 0.97709 0.0
H21 H 0.11524 0.29529 0.92242 0.0
H22 H 0.02378 0.29674 0.01927 0.0
H23 H 0.0454 0.33106 0.92325 0.0
H24 H 0.05509 0.35304 0.09696 0.0
O25 O 0.11997 0.32993 0.96473 0.0
O26 O 0.12387 0.33932 0.05817 0.0
O27 O 0.07204 0.30654 0.102 0.0
C28 C 0.1343 0.34148 1.00369 0.0
H29 H 0.17132 0.2617 0.112 0.0
H30 H 0.99805 0.3589 0.94116 0.0
H31 H 0.99551 0.27739 0.94064 0.0
H32 H 0.08955 0.27543 0.84551 0.0
Co33 Co 0.9335 0.6976 0.02795 0.0
C34 C 0.87536 0.72605 1.00357 0.0
C35 C 0.90704 0.73668 0.07384 0.0
C36 C 0.88197 0.75073 0.06558 0.0
N37 N 0.90334 0.72113 0.0349 0.0
N38 N 0.86198 0.74415 0.02151 0.0
H39 H 0.8649 0.71669 0.96864 0.0
H40 H 0.92662 0.73808 0.1065 0.0
C41 C 0.98737 0.70777 0.11655 0.0
O42 O 1.01002 0.70302 0.0764 0.0
N43 N 0.96359 0.67385 0.0234 0.0
C44 C 0.97306 0.6631 0.97517 0.0
C45 C 0.99391 0.64737 0.99213 0.0
C46 C 0.97762 0.66362 0.06936 0.0
N47 N 0.99707 0.64777 0.05141 0.0
C48 C 0.96493 0.70968 0.92014 0.0
C49 C 0.98897 0.74723 0.95708 0.0
C50 C 0.98917 0.74249 0.89679 0.0
C51 C 0.97793 0.72327 0.87877 0.0
C52 C 0.97585 0.73302 0.99751 0.0
N53 N 0.96346 0.71448 0.97892 0.0
H54 H 0.9532 0.69612 0.90316 0.0
H55 H 0.9737 0.73774 0.04293 0.0
H56 H 0.96488 0.66579 0.93057 0.0
H57 H 0.97341 0.6675 0.11523 0.0
O58 O 0.90689 0.68646 0.96465 0.0
O59 O 0.89799 0.67956 0.05883 0.0
O60 O 0.95596 0.7062 0.10454 0.0
C61 C 0.88966 0.67653 1.00369 0.0
H62 H 0.87807 0.76445 0.09164 0.0
H63 H 1.00609 0.63658 0.96267 0.0
H64 H 0.99677 0.76222 0.97235 0.0
H65 H 0.97689 0.71932 0.83227 0.0
Co66 Co 0.1768 0.57172 0.28183 0.0
C67 C 0.12169 0.54392 0.24517 0.0
C68 C 0.13293 0.54072 0.3374 0.0
C69 C 0.10683 0.52776 0.32355 0.0
N70 N 0.14244 0.55075 0.28815 0.0
N71 N 0.09977 0.5299 0.26575 0.0
H72 H 0.12182 0.54945 0.20018 0.0
H73 H 0.14326 0.54306 0.38095 0.0
C74 C 0.22431 0.55645 0.37525 0.0
O75 O 0.2484 0.5567 0.33539 0.0
N76 N 0.21065 0.59353 0.27649 0.0
C77 C 0.21536 0.60624 0.23023 0.0
C78 C 0.24056 0.61988 0.24337 0.0
C79 C 0.23199 0.60069 0.31859 0.0
N80 N 0.2513 0.61627 0.29878 0.0
C81 C 0.21841 0.55754 0.18622 0.0
C82 C 0.21974 0.51686 0.21926 0.0
C83 C 0.23235 0.52235 0.16375 0.0
C84 C 0.23253 0.54304 0.1482 0.0
C85 C 0.20664 0.53197 0.25683 0.0
N86 N 0.20544 0.55207 0.23977 0.0
H87 H 0.21582 0.57288 0.17012 0.0
H88 H 0.19589 0.52729 0.29847 0.0
H89 H 0.20137 0.6059 0.18931 0.0
H90 H 0.23344 0.59497 0.36308 0.0
O91 O 0.15395 0.58237 0.21374 0.0
O92 O 0.14335 0.59223 0.30554 0.0
O93 O 0.19484 0.56299 0.36197 0.0
C94 C 0.13601 0.59349 0.24939 0.0
H95 H 0.09266 0.51847 0.35432 0.0
H96 H 0.25 0.6317 0.21438 0.0
H97 H 0.21901 0.50096 0.23267 0.0
H98 H 0.24129 0.54783 0.10507 0.0
Co99 Co 0.84164 0.44384 0.24983 0.0
C100 C 0.90667 0.46438 0.21667 0.0
C101 C 0.87454 0.48388 0.26788 0.0
C102 C 0.90379 0.49424 0.25631 0.0
N103 N 0.87589 0.46513 0.2426 0.0
N104 N 0.924 0.48194 0.22444 0.0
H105 H 0.91707 0.4512 0.19436 0.0
H106 H 0.85476 0.48946 0.29623 0.0
C107 C 0.80124 0.45772 0.35615 0.0
O108 O 0.77326 0.45256 0.32886 0.0
N109 N 0.80756 0.42254 0.25844 0.0
C110 C 0.78587 0.41563 0.21712 0.0
C111 C 0.76251 0.40314 0.24365 0.0
C112 C 0.79812 0.41308 0.30902 0.0
N113 N 0.76983 0.40184 0.30162 0.0
C114 C 0.80513 0.45788 0.14852 0.0
C115 C 0.78151 0.49429 0.1946 0.0
C116 C 0.77719 0.49032 0.13444 0.0
C117 C 0.78829 0.47161 0.11181 0.0
C118 C 0.79766 0.47985 0.23033 0.0
N119 N 0.80999 0.46189 0.20731 0.0
H120 H 0.81567 0.44443 0.12809 0.0
H121 H 0.80173 0.48412 0.27545 0.0
H122 H 0.78593 0.41969 0.1711 0.0
H123 H 0.80996 0.41575 0.3514 0.0
O124 O 0.86002 0.42968 0.18224 0.0
O125 O 0.87631 0.42409 0.27385 0.0
O126 O 0.82975 0.45544 0.33046 0.0
C127 C 0.8797 0.41981 0.21783 0.0
H128 H 0.91082 0.50904 0.27409 0.0
H129 H 0.74098 0.39616 0.22227 0.0
H130 H 0.77368 0.50881 0.21341 0.0
H131 H 0.78612 0.46822 0.06509 0.0
Co132 Co 0.08812 0.82196 0.51581 0.0
C133 C 0.14925 0.79868 0.47643 0.0
C134 C 0.12601 0.78494 0.55195 0.0
C135 C 0.15401 0.77371 0.53747 0.0
N136 N 0.12246 0.80051 0.51323 0.0
N137 N 0.16866 0.7824 0.49028 0.0
H138 H 0.15534 0.80929 0.44148 0.0
H139 H 0.11009 0.78201 0.58959 0.0
C140 C 0.04534 0.80634 0.61541 0.0
O141 O 0.01901 0.80807 0.58053 0.0
N142 N 0.05434 0.84403 0.51976 0.0
C143 C 0.04548 0.85663 0.47509 0.0
C144 C 0.02078 0.86979 0.49398 0.0
C145 C 0.03612 0.85099 0.56664 0.0
N146 N 0.01455 0.86609 0.55136 0.0
C147 C 0.04416 0.80955 0.42193 0.0
C148 C 0.03595 0.76927 0.45555 0.0
C149 C 0.02353 0.7756 0.40082 0.0
C150 C 0.02705 0.79607 0.38473 0.0
C151 C 0.05225 0.78344 0.49233 0.0
N152 N 0.05669 0.80338 0.47525 0.0
H153 H 0.04919 0.82458 0.40537 0.0
H154 H 0.06204 0.77799 0.53366 0.0
H155 H 0.05616 0.85658 0.43127 0.0
H156 H 0.03805 0.8452 0.61106 0.0
O157 O 0.10673 0.83412 0.44601 0.0
O158 O 0.12311 0.84193 0.53681 0.0
O159 O 0.07443 0.81203 0.59733 0.0
C160 C 0.12603 0.84495 0.48 0.0
H161 H 0.16418 0.76096 0.56221 0.0
H162 H 1.00803 0.88113 0.46726 0.0
H163 H 0.03385 0.75343 0.46908 0.0
H164 H 0.01843 0.80134 0.34198 0.0
Co165 Co 0.92679 0.19111 0.52253 0.0
C166 C 0.8701 0.219 0.48919 0.0
C167 C 0.86773 0.2084 0.57896 0.0
C168 C 0.83911 0.21948 0.56742 0.0
N169 N 0.88713 0.20807 0.53014 0.0
N170 N 0.84063 0.22606 0.51123 0.0
H171 H 0.87859 0.22132 0.44426 0.0
H172 H 0.87362 0.20055 0.61968 0.0
C173 C 0.97036 0.21118 0.61271 0.0
O174 O 0.9937 0.21238 0.57166 0.0
N175 N 0.96621 0.17287 0.51774 0.0
C176 C 0.97509 0.16098 0.47133 0.0
C177 C 1.00297 0.14959 0.48588 0.0
C178 C 0.98796 0.16729 0.56133 0.0
N179 N 1.01129 0.15365 0.54236 0.0
C180 C 0.96201 0.20818 0.42429 0.0
C181 C 0.96079 0.24868 0.45935 0.0
C182 C 0.97438 0.24375 0.40369 0.0
C183 C 0.97463 0.22312 0.38667 0.0
C184 C 0.94807 0.2331 0.49583 0.0
N185 N 0.94955 0.21298 0.47874 0.0
H186 H 0.96055 0.19285 0.40755 0.0
H187 H 0.9364 0.23728 0.53733 0.0
H188 H 0.96181 0.15999 0.4298 0.0
H189 H 0.98682 0.17278 0.60627 0.0
O190 O 0.90698 0.17818 0.45509 0.0
O191 O 0.89916 0.16774 0.54692 0.0
O192 O 0.94251 0.20205 0.60194 0.0
C193 C 0.89219 0.16562 0.49077 0.0
H194 H 0.81869 0.22258 0.59794 0.0
H195 H 0.01579 0.1388 0.45727 0.0
H196 H 0.95956 0.26441 0.47437 0.0
H197 H 0.98312 0.21847 0.34319 0.0
Co198 Co 0.18871 0.07299 0.76178 0.0
C199 C 0.12107 0.05288 0.74209 0.0
C200 C 0.16022 0.03186 0.76602 0.0
C201 C 0.13078 0.0211 0.75963 0.0
N202 N 0.15434 0.05182 0.7551 0.0
N203 N 0.10604 0.03426 0.74454 0.0
H204 H 0.108 0.06688 0.73144 0.0
H205 H 0.18436 0.02555 0.77862 0.0
C206 C 0.22829 0.06002 0.87266 0.0
O207 O 0.25422 0.07162 0.8599 0.0
N208 N 0.22317 0.09401 0.76943 0.0
C209 C 0.24673 0.09876 0.72895 0.0
C210 C 0.26786 0.11338 0.75242 0.0
C211 C 0.22938 0.10653 0.81605 0.0
N212 N 0.25735 0.11804 0.80759 0.0
C213 C 0.20511 0.05073 0.65931 0.0
C214 C 0.26668 0.03463 0.69191 0.0
C215 C 0.25259 0.02887 0.63745 0.0
C216 C 0.22169 0.03744 0.62116 0.0
C217 C 0.2489 0.04803 0.72952 0.0
N218 N 0.21814 0.05567 0.71332 0.0
H219 H 0.18083 0.05656 0.64595 0.0
H220 H 0.26005 0.05205 0.77102 0.0
H221 H 0.24913 0.09161 0.68603 0.0
H222 H 0.21503 0.10621 0.85672 0.0
O223 O 0.16955 0.0883 0.69771 0.0
O224 O 0.15469 0.09248 0.7909 0.0
O225 O 0.20254 0.05915 0.8386 0.0
C226 C 0.15071 0.09775 0.73566 0.0
H227 H 0.12778 1.00489 0.7677 0.0
H228 H 0.29041 0.11928 0.7316 0.0
H229 H 0.29074 0.02848 0.70585 0.0
H230 H 0.21016 0.03381 0.57905 0.0
Co231 Co 0.84288 0.94744 0.7823 0.0
C232 C 0.90629 0.97 0.74879 0.0
C233 C 0.87471 0.98716 0.80757 0.0
C234 C 0.90317 0.99835 0.79682 0.0
N235 N 0.87632 0.9693 0.77758 0.0
N236 N 0.9232 0.98762 0.75998 0.0
H237 H 0.91588 0.95784 0.72102 0.0
H238 H 0.85476 0.99177 0.83704 0.0
C239 C 0.79755 0.96031 0.88224 0.0
O240 O 0.77146 0.95415 0.85125 0.0
N241 N 0.80961 0.92556 0.78952 0.0
C242 C 0.78457 0.92025 0.75208 0.0
C243 C 0.7635 0.90662 0.77986 0.0
C244 C 0.80389 0.91439 0.83891 0.0
N245 N 0.77558 0.90304 0.83436 0.0
C246 C 0.80989 0.95961 0.67659 0.0
C247 C 0.78684 0.9974 0.71354 0.0
C248 C 0.78641 0.9926 0.65325 0.0
C249 C 0.79696 0.97322 0.63536 0.0
C250 C 0.8 0.98316 0.75396 0.0
N251 N 0.81226 0.9646 0.7352 0.0
H252 H 0.81947 0.9453 0.65994 0.0
H253 H 0.8022 0.9879 0.7993 0.0
H254 H 0.78032 0.92638 0.70871 0.0
H255 H 0.81848 0.9159 0.87908 0.0
O256 O 0.86348 0.93328 0.71744 0.0
O257 O 0.87793 0.92842 0.81034 0.0
O258 O 0.82729 0.95907 0.86068 0.0
C259 C 0.88232 0.9237 0.75478 0.0
H260 H 0.90931 0.01288 0.81723 0.0
H261 H 0.7402 0.90048 0.76237 0.0
H262 H 0.77912 0.01242 0.72878 0.0
H263 H 0.79698 0.96898 0.58902 0.0
Co264 Co 0.59437 0.3245 0.52545 0.0
C265 C 0.65087 0.29668 0.48692 0.0
C266 C 0.6567 0.3094 0.57406 0.0
C267 C 0.68508 0.29837 0.5608 0.0
N268 N 0.63525 0.30841 0.52805 0.0
N269 N 0.68144 0.29044 0.50629 0.0
H270 H 0.64043 0.293 0.44403 0.0
H271 H 0.65218 0.31796 0.61424 0.0
C272 C 0.55637 0.30516 0.62447 0.0
O273 O 0.53 0.30408 0.58952 0.0
N274 N 0.55407 0.34212 0.52623 0.0
C275 C 0.54251 0.35354 0.48083 0.0
C276 C 0.51527 0.36485 0.49915 0.0
C277 C 0.53477 0.34811 0.57295 0.0
N278 N 0.51017 0.36133 0.557 0.0
C279 C 0.55311 0.30581 0.43616 0.0
C280 C 0.56329 0.26562 0.46908 0.0
C281 C 0.54572 0.26974 0.41667 0.0
C282 C 0.54 0.29013 0.40131 0.0
C283 C 0.57502 0.28192 0.50417 0.0
N284 N 0.57028 0.30183 0.48713 0.0
H285 H 0.55128 0.32106 0.41933 0.0
H286 H 0.58953 0.2785 0.54333 0.0
H287 H 0.55348 0.35422 0.43721 0.0
H288 H 0.53859 0.34324 0.61795 0.0
O289 O 0.60997 0.33737 0.45456 0.0
O290 O 0.62179 0.34844 0.54497 0.0
O291 O 0.58355 0.31369 0.60692 0.0
C292 C 0.62554 0.35043 0.48795 0.0
H293 H 0.70664 0.29603 0.58931 0.0
H294 H 0.50064 0.37521 0.47209 0.0
H295 H 0.56875 0.25 0.48183 0.0
H296 H 0.52756 0.29394 0.36017 0.0
Co297 Co 0.42706 0.69681 0.52548 0.0
C298 C 0.36657 0.72033 0.48593 0.0
C299 C 0.38571 0.73153 0.56849 0.0
C300 C 0.35815 0.74304 0.55328 0.0
N301 N 0.39143 0.71738 0.52597 0.0
N302 N 0.34613 0.73595 0.50164 0.0
H303 H 0.36284 0.71106 0.44682 0.0
H304 H 0.4001 0.73342 0.60859 0.0
C305 C 0.47201 0.71367 0.6191 0.0
O306 O 0.49698 0.71245 0.5811 0.0
N307 N 0.46224 0.67572 0.5268 0.0
C308 C 0.47282 0.66378 0.48156 0.0
C309 C 0.49766 0.65081 0.50128 0.0
C310 C 0.47935 0.66859 0.57435 0.0
N311 N 0.5019 0.65396 0.55957 0.0
C312 C 0.46711 0.71054 0.42778 0.0
C313 C 0.47304 0.75088 0.4628 0.0
C314 C 0.48453 0.74519 0.40658 0.0
C315 C 0.48206 0.72463 0.38983 0.0
C316 C 0.45855 0.7362 0.49979 0.0
N317 N 0.45568 0.71616 0.48238 0.0
H318 H 0.46257 0.69547 0.41083 0.0
H319 H 0.44867 0.74126 0.54168 0.0
H320 H 0.46262 0.66377 0.43739 0.0
H321 H 0.47557 0.67384 0.61911 0.0
O322 O 0.40722 0.68403 0.45776 0.0
O323 O 0.39419 0.67624 0.55007 0.0
O324 O 0.44266 0.70722 0.60528 0.0
C325 C 0.38915 0.67319 0.49368 0.0
H326 H 0.34664 0.75498 0.57977 0.0
H327 H 0.51114 0.63961 0.47498 0.0
H328 H 0.47429 0.76667 0.4774 0.0
H329 H 0.4895 0.71967 0.34602 0.0
Co330 Co 0.68988 0.57164 0.7486 0.0
C331 C 0.62925 0.5454 0.76706 0.0
C332 C 0.64962 0.54273 0.67955 0.0
C333 C 0.62102 0.531 0.68274 0.0
N334 N 0.65495 0.55165 0.73241 0.0
N335 N 0.60804 0.53263 0.73771 0.0
H336 H 0.62588 0.55049 0.81218 0.0
H337 H 0.66502 0.54509 0.64073 0.0
C338 C 0.72368 0.55394 0.85394 0.0
O339 O 0.75237 0.55646 0.82588 0.0
N340 N 0.72456 0.59271 0.76342 0.0
C341 C 0.73714 0.60528 0.72152 0.0
C342 C 0.76104 0.61782 0.74581 0.0
C343 C 0.73996 0.59907 0.81413 0.0
N344 N 0.7632 0.61383 0.80389 0.0
C345 C 0.73998 0.55781 0.66526 0.0
C346 C 0.73504 0.51691 0.69499 0.0
C347 C 0.75081 0.52222 0.6419 0.0
C348 C 0.75464 0.54301 0.62862 0.0
C349 C 0.72108 0.53218 0.73074 0.0
N350 N 0.72253 0.55238 0.71481 0.0
H351 H 0.73995 0.57335 0.65009 0.0
H352 H 0.70604 0.52745 0.76805 0.0
H353 H 0.72974 0.60551 0.67566 0.0
H354 H 0.73505 0.59296 0.85753 0.0
O355 O 0.67743 0.58522 0.67683 0.0
O356 O 0.65489 0.59197 0.76429 0.0
O357 O 0.69593 0.55964 0.83034 0.0
C358 C 0.65564 0.59555 0.70759 0.0
H359 H 0.60988 0.52271 0.64624 0.0
H360 H 0.77645 0.62876 0.7222 0.0
H361 H 0.73146 0.50101 0.70679 0.0
H362 H 0.76609 0.54777 0.58745 0.0
Co363 Co 0.34225 0.44623 0.78368 0.0
C364 C 0.40999 0.46639 0.76596 0.0
C365 C 0.37429 0.48576 0.80981 0.0
C366 C 0.40431 0.49599 0.80641 0.0
N367 N 0.37745 0.46715 0.78442 0.0
N368 N 0.42699 0.48381 0.77934 0.0
H369 H 0.42136 0.45329 0.74465 0.0
H370 H 0.35196 0.49162 0.83098 0.0
C371 C 0.29542 0.46002 0.88179 0.0
O372 O 0.26913 0.45437 0.85048 0.0
N373 N 0.30709 0.4253 0.78499 0.0
C374 C 0.29001 0.4177 0.73834 0.0
C375 C 0.26805 0.40292 0.75766 0.0
C376 C 0.29562 0.41452 0.83215 0.0
N377 N 0.2713 0.40102 0.81661 0.0
C378 C 0.3152 0.46034 0.67441 0.0
C379 C 0.28757 0.49688 0.71183 0.0
C380 C 0.29031 0.49299 0.65114 0.0
C381 C 0.30325 0.47418 0.63295 0.0
C382 C 0.29993 0.48242 0.75255 0.0
N383 N 0.31448 0.46446 0.73376 0.0
H384 H 0.32659 0.44665 0.65718 0.0
H385 H 0.29933 0.48655 0.79847 0.0
H386 H 0.29337 0.42211 0.69297 0.0
H387 H 0.30495 0.41642 0.87674 0.0
O388 O 0.36426 0.43185 0.72045 0.0
O389 O 0.37469 0.42591 0.81433 0.0
O390 O 0.32521 0.45801 0.86094 0.0
C391 C 0.38065 0.42134 0.75911 0.0
H392 H 0.40891 0.51131 0.82278 0.0
H393 H 0.25086 0.3942 0.73031 0.0
H394 H 0.27779 0.5114 0.72754 0.0
H395 H 0.30564 0.47055 0.58638 0.0
Co396 Co 0.59724 0.82044 0.02701 0.0
C397 C 0.66132 0.79625 1.00678 0.0
C398 C 0.61997 0.77844 0.03943 0.0
C399 C 0.64658 0.76557 0.02944 0.0
N400 N 0.62902 0.79774 0.02573 0.0
N401 N 0.6726 0.77665 1.00859 0.0
H402 H 0.67589 0.80896 0.99032 0.0
H403 H 0.59518 0.77383 0.054 0.0
C404 C 0.54891 0.8086 0.12819 0.0
O405 O 0.52458 0.82064 0.11001 0.0
N406 N 0.56495 0.84285 0.02897 0.0
C407 C 0.54355 0.84819 0.98549 0.0
C408 C 0.52126 0.8625 1.00722 0.0
C409 C 0.55672 0.85496 0.07548 0.0
N410 N 0.52919 0.86653 0.06403 0.0
C411 C 0.58584 0.80036 0.91951 0.0
C412 C 0.5194 0.78882 0.9333 0.0
C413 C 0.53566 0.78503 0.87927 0.0
C414 C 0.56948 0.79053 0.87349 0.0
C415 C 0.53696 0.79885 0.979 0.0
N416 N 0.56971 0.80485 0.97121 0.0
H417 H 0.61192 0.80448 0.91323 0.0
H418 H 0.52378 0.80215 0.01918 0.0
H419 H 0.54294 0.84137 0.94194 0.0
H420 H 0.56821 0.85364 0.11867 0.0
O421 O 0.62249 0.83536 0.96885 0.0
O422 O 0.63053 0.8382 0.06534 0.0
O423 O 0.57668 0.80713 0.09965 0.0
C424 C 0.63866 0.84388 1.01197 0.0
H425 H 0.6467 0.74924 0.03744 0.0
H426 H 0.49967 0.86866 0.98402 0.0
H427 H 0.49323 0.78465 0.93948 0.0
H428 H 0.58331 0.7874 0.83317 0.0
Co429 Co 0.43681 0.20228 0.02591 0.0
C430 C 0.38164 0.23197 0.99443 0.0
C431 C 0.40659 0.24039 0.07466 0.0
C432 C 0.38158 0.25437 0.06409 0.0
N433 N 0.40731 0.22637 0.03059 0.0
N434 N 0.36584 0.24903 1.01391 0.0
H435 H 0.37376 0.22356 0.95566 0.0
H436 H 0.42269 0.24056 0.11289 0.0
C437 C 0.48113 0.21183 0.13058 0.0
O438 O 0.50739 0.21029 0.09544 0.0
N439 N 0.46543 0.17758 0.02262 0.0
C440 C 0.46875 0.16479 0.97592 0.0
C441 C 0.49061 0.14927 0.98992 0.0
C442 C 0.48425 0.16861 0.06564 0.0
N443 N 0.50089 0.15179 0.04619 0.0
C444 C 0.48528 0.21343 0.93856 0.0
C445 C 0.49435 0.25338 0.97517 0.0
C446 C 0.505 0.24765 0.91855 0.0
C447 C 0.50194 0.22716 0.90166 0.0
C448 C 0.47872 0.23893 1.01168 0.0
N449 N 0.47257 0.21942 0.99204 0.0
H450 H 0.47986 0.19854 0.92093 0.0
H451 H 0.47005 0.24396 0.05428 0.0
H452 H 0.45632 0.16648 0.93377 0.0
H453 H 0.48572 0.1739 0.11056 0.0
O454 O 0.41677 0.19504 0.95184 0.0
O455 O 0.39705 0.18448 0.03757 0.0
O456 O 0.45153 0.20787 0.11077 0.0
C457 C 0.3941 0.1847 0.97997 0.0
H458 H 0.37407 0.26679 0.09306 0.0
H459 H 0.49821 0.13703 0.96052 0.0
H460 H 0.49652 0.26911 0.9899 0.0
H461 H 0.50943 0.22221 0.85786 0.0
Co462 Co 0.67331 0.06939 0.28079 0.0
C463 C 0.62044 0.03919 0.24628 0.0
C464 C 0.6273 0.04112 0.3403 0.0
C465 C 0.60343 0.02649 0.32876 0.0
N466 N 0.63845 0.04885 0.28872 0.0
N467 N 0.59925 0.02527 0.26991 0.0
H468 H 0.62258 0.04232 0.19952 0.0
H469 H 0.6353 0.04602 0.38361 0.0
C470 C 0.7202 0.05384 0.37447 0.0
O471 O 0.74421 0.05348 0.33445 0.0
N472 N 0.70784 0.09087 0.27497 0.0
C473 C 0.71301 0.10359 0.22887 0.0
C474 C 0.73922 0.11659 0.24173 0.0
C475 C 0.72988 0.0975 0.31674 0.0
N476 N 0.75013 0.1126 0.29684 0.0
C477 C 0.71565 0.05474 0.18705 0.0
C478 C 0.71598 0.01406 0.22009 0.0
C479 C 0.73002 0.01957 0.16561 0.0
C480 C 0.73052 0.04025 0.15006 0.0
C481 C 0.70212 0.0292 0.25679 0.0
N482 N 0.70162 0.04932 0.2398 0.0
H483 H 0.71349 0.07008 0.17077 0.0
H484 H 0.69043 0.02458 0.29774 0.0
H485 H 0.69886 0.10355 0.1881 0.0
H486 H 0.73121 0.09172 0.36113 0.0
O487 O 0.65113 0.07976 0.21191 0.0
O488 O 0.6402 0.09037 0.30278 0.0
O489 O 0.69106 0.06091 0.36128 0.0
C490 C 0.63358 0.09155 0.24629 0.0
H491 H 0.58904 0.01802 0.36116 0.0
H492 H 0.74929 0.12818 0.21263 0.0
H493 H 0.71488 0.99816 0.23338 0.0
H494 H 0.74025 0.04505 0.10757 0.0
Co495 Co 0.34324 0.94555 0.26818 0.0
C496 C 0.40321 0.97028 0.23113 0.0
C497 C 0.37653 0.984 0.30358 0.0
C498 C 0.40255 0.99667 0.28821 0.0
N499 N 0.37644 0.9675 0.26744 0.0
N500 N 0.41922 0.98807 0.24281 0.0
H501 H 0.41105 0.95964 0.1971 0.0
H502 H 0.3591 0.98685 0.33921 0.0
C503 C 0.29509 0.95748 0.36347 0.0
O504 O 0.27104 0.95281 0.32587 0.0
N505 N 0.31033 0.92325 0.27078 0.0
C506 C 0.29138 0.91549 0.2266 0.0
C507 C 0.26864 0.90181 0.24978 0.0
C508 C 0.29999 0.9131 0.31977 0.0
N509 N 0.27371 0.90054 0.30848 0.0
C510 C 0.30804 0.95948 0.16507 0.0
C511 C 0.28721 0.99682 0.20903 0.0
C512 C 0.2823 0.99255 0.14904 0.0
C513 C 0.29226 0.97341 0.12753 0.0
C514 C 0.30262 0.98228 0.24544 0.0
N515 N 0.31281 0.96366 0.22373 0.0
H516 H 0.31845 0.9459 0.1452 0.0
H517 H 0.30785 0.98676 0.29022 0.0
H518 H 0.29302 0.91949 0.18069 0.0
H519 H 0.30978 0.916 0.36361 0.0
O520 O 0.36449 0.93272 0.20134 0.0
O521 O 0.37809 0.9262 0.29415 0.0
O522 O 0.32601 0.9557 0.34787 0.0
C523 C 0.38296 0.92255 0.23805 0.0
H524 H 0.40958 0.01079 0.31016 0.0
H525 H 0.24909 0.89386 0.22551 0.0
H526 H 0.28038 0.01161 0.22725 0.0
H527 H 0.29012 0.96974 0.08098 0.0
H528 H 0.17673 0.33334 0.91525 0.0
H529 H 0.15659 0.37883 0.04881 0.0
H530 H 0.20031 0.40111 1.00555 0.0
H531 H 0.24088 0.40858 0.92256 0.0
H532 H 0.25872 0.36185 0.79136 0.0
H533 H 0.21969 0.33895 0.84136 0.0
C534 C 0.18203 0.34804 0.93559 0.0
C535 C 0.16312 0.3545 0.98483 0.0
C536 C 0.20687 0.36054 0.91059 0.0
C537 C 0.17074 0.3735 1.01085 0.0
C538 C 0.19564 0.38624 0.98587 0.0
C539 C 0.23663 0.39322 0.90594 0.0
C540 C 0.25247 0.38693 0.85292 0.0
C541 C 0.21346 0.38009 0.93481 0.0
C542 C 0.24659 0.36706 0.83154 0.0
C543 C 0.22424 0.35399 0.86009 0.0
H544 H 0.89381 0.65179 0.91037 0.0
H545 H 0.82621 0.66934 0.05036 0.0
H546 H 0.78049 0.64961 1.00324 0.0
H547 H 0.75863 0.63011 0.91495 0.0
H548 H 0.82851 0.61365 0.77694 0.0
H549 H 0.87444 0.62993 0.83049 0.0
C550 C 0.86917 0.65106 0.93111 0.0
C551 C 0.86327 0.66206 0.98345 0.0
C552 C 0.84333 0.63994 0.90364 0.0
C553 C 0.83138 0.66086 1.01019 0.0
C554 C 0.80521 0.64971 0.98292 0.0
C555 C 0.78407 0.62983 0.8975 0.0
C556 C 0.79015 0.62093 0.84157 0.0
C557 C 0.81065 0.63957 0.92865 0.0
C558 C 0.8232 0.62066 0.81933 0.0
C559 C 0.84947 0.62996 0.84994 0.0
H560 H 0.02649 0.65652 0.15726 0.0
H561 H 0.01591 0.60906 0.02541 0.0
H562 H 0.05705 0.58808 0.07686 0.0
H563 H 0.09864 0.58391 0.15489 0.0
H564 H 0.10913 0.6299 0.29037 0.0
H565 H 0.06508 0.65065 0.24253 0.0
C566 C 0.03275 0.64145 0.14036 0.0
C567 C 0.0184 0.63459 0.08667 0.0
C568 C 0.05658 0.62926 0.17061 0.0
C569 C 0.02702 0.61501 0.06557 0.0
C570 C 0.0505 0.60291 0.09516 0.0
C571 C 0.09122 0.59845 0.17422 0.0
C572 C 0.10742 0.60553 0.22558 0.0
C573 C 0.06594 0.61006 0.14686 0.0
C574 C 0.09706 0.62418 0.25074 0.0
C575 C 0.07198 0.63604 0.22323 0.0
H576 H 1.00134 0.36141 0.14467 0.0
H577 H 0.98416 0.39185 0.97843 0.0
H578 H 0.9389 0.41189 0.02249 0.0
H579 H 0.9029 0.42005 0.10615 0.0
H580 H 0.92008 0.39153 0.27495 0.0
H581 H 0.96661 0.37144 0.23208 0.0
C582 C 0.98806 0.37266 0.11841 0.0
C583 C 0.99605 0.37492 0.05788 0.0
C584 C 0.96178 0.38429 0.14428 0.0
C585 C 0.97829 0.38951 0.0246 0.0
C586 C 0.95237 0.40102 0.04982 0.0
C587 C 0.91661 0.40935 0.13376 0.0
C588 C 0.9076 0.40706 0.19354 0.0
C589 C 0.94355 0.3983 0.1092 0.0
C590 C 0.92626 0.39346 0.22871 0.0
C591 C 0.95293 0.38203 0.20418 0.0
H592 H 0.1936 0.85112 0.50255 0.0
H593 H 0.11091 0.871 0.3932 0.0
H594 H 0.14931 0.89063 0.33172 0.0
H595 H 0.20648 0.89988 0.30345 0.0
H596 H 0.29062 0.88048 0.40926 0.0
H597 H 0.25195 0.86304 0.47772 0.0
C598 C 0.18407 0.86023 0.46625 0.0
C599 C 0.14942 0.85976 0.45264 0.0
C600 C 0.20665 0.87123 0.42974 0.0
C601 C 0.13742 0.87122 0.40466 0.0
C602 C 0.15939 0.88235 0.3692 0.0
C603 C 0.21636 0.89177 0.34141 0.0
C604 C 0.25134 0.89107 0.35066 0.0
C605 C 0.19407 0.88201 0.38028 0.0
C606 C 0.26376 0.88106 0.40104 0.0
C607 C 0.24164 0.87111 0.44008 0.0
H608 H 0.88381 0.15514 0.37716 0.0
H609 H 0.8415 0.14513 0.55007 0.0
H610 H 0.79356 0.12698 0.50517 0.0
H611 H 0.76165 0.11654 0.41516 0.0
H612 H 0.80528 0.12802 0.24362 0.0
H613 H 0.85431 0.14345 0.2897 0.0
C614 C 0.86431 0.14882 0.40534 0.0
C615 C 0.86618 0.15155 0.4669 0.0
C616 C 0.83667 0.13903 0.37924 0.0
C617 C 0.8408 0.14312 0.50259 0.0
C618 C 0.81324 0.13293 0.47681 0.0
C619 C 0.78199 0.12227 0.38792 0.0
C620 C 0.7793 0.12138 0.32569 0.0
C621 C 0.81053 0.1312 0.41495 0.0
C622 C 0.80603 0.12895 0.29131 0.0
C623 C 0.83435 0.13761 0.31768 0.0
H624 H 0.01707 0.14436 0.65952 0.0
H625 H 0.07175 0.14548 0.49481 0.0
H626 H 0.12056 0.1302 0.54231 0.0
H627 H 0.1467 0.11455 0.62778 0.0
H628 H 0.09343 0.11159 0.79344 0.0
H629 H 0.04553 0.12994 0.74913 0.0
C630 C 0.03981 0.14143 0.63438 0.0
C631 C 0.04048 0.1458 0.57326 0.0
C632 C 0.06809 0.13235 0.66218 0.0
C633 C 0.0702 0.14187 0.54137 0.0
C634 C 0.09827 0.13324 0.56862 0.0
C635 C 0.12479 0.11808 0.65465 0.0
C636 C 0.12368 0.11163 0.71388 0.0
C637 C 0.0973 0.1281 0.62858 0.0
C638 C 0.0951 0.11649 0.74789 0.0
C639 C 0.06758 0.12683 0.72232 0.0
H640 H 0.88248 0.90551 0.64911 0.0
H641 H 0.94163 0.91076 0.80799 0.0
H642 H 0.98807 0.89196 0.75986 0.0
H643 H 0.01333 0.87656 0.66806 0.0
H644 H 0.95263 0.87364 0.51023 0.0
H645 H 0.90547 0.88914 0.56223 0.0
C646 C 0.90541 0.90242 0.67367 0.0
C647 C 0.90867 0.90962 0.73192 0.0
C648 C 0.93194 0.89224 0.64537 0.0
C649 C 0.93841 0.90527 0.76317 0.0
C650 C 0.96504 0.89468 0.73541 0.0
C651 C 0.98965 0.87922 0.64552 0.0
C652 C 0.98669 0.87429 0.58496 0.0
C653 C 0.96238 0.88848 0.67588 0.0
C654 C 0.95583 0.87774 0.55625 0.0
C655 C 0.92875 0.88648 0.58608 0.0
H656 H 0.70242 0.40351 0.30364 0.0
H657 H 0.78834 0.38245 0.40241 0.0
H658 H 0.75068 0.36694 0.47606 0.0
H659 H 0.69273 0.35651 0.50637 0.0
H660 H 0.60791 0.37704 0.40351 0.0
H661 H 0.64548 0.39594 0.33798 0.0
C662 C 0.71291 0.39547 0.34121 0.0
C663 C 0.74808 0.39369 0.34693 0.0
C664 C 0.69118 0.3867 0.38295 0.0
C665 C 0.76133 0.38383 0.39686 0.0
C666 C 0.73979 0.37498 0.43887 0.0
C667 C 0.68258 0.36573 0.47079 0.0
C668 C 0.64762 0.36573 0.46012 0.0
C669 C 0.7046 0.37601 0.43183 0.0
C670 C 0.6347 0.37713 0.41286 0.0
C671 C 0.65619 0.38774 0.37507 0.0
H672 H 0.26059 0.62201 0.41693 0.0
H673 H 0.3062 0.63213 0.24632 0.0
H674 H 0.35349 0.64935 0.29271 0.0
H675 H 0.38119 0.66253 0.38004 0.0
H676 H 0.33715 0.65367 0.55221 0.0
H677 H 0.29039 0.63449 0.50711 0.0
C678 C 0.281 0.62786 0.39007 0.0
C679 C 0.27945 0.62601 0.32795 0.0
C680 C 0.30849 0.63785 0.41728 0.0
C681 C 0.30617 0.63375 0.29389 0.0
C682 C 0.33346 0.64346 0.32044 0.0
C683 C 0.36152 0.65633 0.40805 0.0
C684 C 0.36261 0.65959 0.46943 0.0
C685 C 0.33471 0.64577 0.38186 0.0
C686 C 0.33698 0.6513 0.50485 0.0
C687 C 0.31015 0.64045 0.47898 0.0
H688 H 0.56474 0.64386 0.52848 0.0
H689 H 0.4956 0.64347 0.67505 0.0
H690 H 0.53819 0.62666 0.73696 0.0
H691 H 0.59458 0.61023 0.74704 0.0
H692 H 0.66276 0.61139 0.59842 0.0
H693 H 0.62131 0.62981 0.54004 0.0
C694 C 0.55896 0.63999 0.57389 0.0
C695 C 0.52696 0.64459 0.59689 0.0
C696 C 0.58353 0.63052 0.60899 0.0
C697 C 0.52007 0.64002 0.65633 0.0
C698 C 0.5444 0.63038 0.69164 0.0
C699 C 0.60048 0.61485 0.70226 0.0
C700 C 0.63167 0.60932 0.67708 0.0
C701 C 0.57619 0.62536 0.66826 0.0
C702 C 0.63888 0.6153 0.61882 0.0
C703 C 0.61516 0.62581 0.58521 0.0
H704 H 0.51035 0.37305 0.67298 0.0
H705 H 0.44694 0.36688 0.51923 0.0
H706 H 0.40021 0.38263 0.5719 0.0
H707 H 0.37855 0.40072 0.65739 0.0
H708 H 0.44033 0.40892 0.81198 0.0
H709 H 0.48613 0.38941 0.76428 0.0
C710 C 0.48615 0.37497 0.65152 0.0
C711 C 0.48235 0.36912 0.59172 0.0
C712 C 0.4591 0.38437 0.68226 0.0
C713 C 0.4508 0.37167 0.56454 0.0
C714 C 0.42396 0.38057 0.59477 0.0
C715 C 0.40188 0.39801 0.68117 0.0
C716 C 0.4061 0.40632 0.73802 0.0
C717 C 0.42804 0.38738 0.65299 0.0
C718 C 0.43634 0.40253 0.76836 0.0
C719 C 0.46263 0.39156 0.74074 0.0
H720 H 0.70713 0.84069 1.00605 0.0
H721 H 0.6243 0.88246 0.98146 0.0
H722 H 0.66099 0.90596 0.92763 0.0
H723 H 0.71423 0.91203 0.8748 0.0
H724 H 0.79727 0.87045 0.89675 0.0
H725 H 0.76333 0.8494 0.96437 0.0
C726 C 0.69757 0.85529 0.99075 0.0
C727 C 0.66324 0.86007 0.99836 0.0
C728 C 0.71872 0.86847 0.95819 0.0
C729 C 0.65083 0.87876 0.97709 0.0
C730 C 0.67169 0.89204 0.94565 0.0
C731 C 0.72491 0.89853 0.89539 0.0
C732 C 0.75787 0.89254 0.88068 0.0
C733 C 0.70526 0.88667 0.93391 0.0
C734 C 0.77187 0.87521 0.90767 0.0
C735 C 0.75242 0.8632 0.94603 0.0
H736 H 0.34759 0.15458 1.01266 0.0
H737 H 0.37729 0.1937 0.86814 0.0
H738 H 0.33612 0.17779 0.80436 0.0
H739 H 0.29419 0.15146 0.78572 0.0
H740 H 0.26324 0.11134 0.92602 0.0
H741 H 0.30137 0.12899 0.99476 0.0
C742 C 0.34476 0.15969 0.96743 0.0
C743 C 0.3661 0.17519 0.94543 0.0
C744 C 0.32066 0.15026 0.92975 0.0
C745 C 0.36183 0.18163 0.88653 0.0
C746 C 0.33809 0.17257 0.84964 0.0
C747 C 0.29562 0.14665 0.83145 0.0
C748 C 0.27603 0.13004 0.85039 0.0
C749 C 0.31785 0.15665 0.87026 0.0
C750 C 0.27782 0.1242 0.91018 0.0
C751 C 0.2999 0.1342 0.94944 0.0
H752 H 0.62193 0.09761 0.13076 0.0
H753 H 0.58569 0.11557 0.30286 0.0
H754 H 0.5409 0.13601 0.25624 0.0
H755 H 0.51136 0.14799 0.16531 0.0
H756 H 0.55032 0.12944 0.995 0.0
H757 H 0.59422 0.10979 0.0425 0.0
C758 C 0.60434 0.10599 0.15846 0.0
C759 C 0.60718 0.10498 0.22034 0.0
C760 C 0.5788 0.11747 0.13152 0.0
C761 C 0.58416 0.11609 0.25513 0.0
C762 C 0.55848 0.12772 0.22841 0.0
C763 C 0.52949 0.13973 0.13855 0.0
C764 C 0.52682 0.14009 0.07619 0.0
C765 C 0.55541 0.12843 0.16643 0.0
C766 C 0.55078 0.12916 0.04272 0.0
C767 C 0.5763 0.118 0.06991 0.0
H768 H 0.46233 0.86274 0.07292 0.0
H769 H 0.54788 0.89267 0.15142 0.0
H770 H 0.5103 0.91137 0.21944 0.0
H771 H 0.45186 0.92124 0.2503 0.0
H772 H 0.36742 0.89081 0.16884 0.0
H773 H 0.40555 0.87001 0.10905 0.0
C774 C 0.47271 0.87338 0.10492 0.0
C775 C 0.50769 0.8767 0.10642 0.0
C776 C 0.45104 0.88381 0.14377 0.0
C777 C 0.52097 0.89005 0.14921 0.0
C778 C 0.49947 0.9007 0.188 0.0
C779 C 0.44204 0.90957 0.22081 0.0
C780 C 0.40691 0.90727 0.2145 0.0
C781 C 0.46431 0.89794 0.18514 0.0
C782 C 0.39437 0.89259 0.17488 0.0
C783 C 0.41614 0.88084 0.1403 0.0
H784 H 0.02717 0.24109 0.32705 0.0
H785 H 0.94857 0.28239 0.38402 0.0
H786 H 0.9644 0.30647 0.30629 0.0
H787 H 0.9979 0.31458 0.21675 0.0
H788 H 0.07102 0.27065 0.15453 0.0
H789 H 0.05985 0.24888 0.23891 0.0
C790 C 0.01326 0.25529 0.32249 0.0
C791 C 0.9864 0.25969 0.36128 0.0
C792 C 0.02158 0.26868 0.27637 0.0
C793 C 0.96951 0.27855 0.35539 0.0
C794 C 0.97832 0.29227 0.31041 0.0
C795 C 1.01154 0.3003 0.22199 0.0
C796 C 0.03637 0.29472 0.18032 0.0
C797 C 1.00388 0.2873 0.26982 0.0
C798 C 0.05335 0.276 0.18735 0.0
C799 C 0.04645 0.26329 0.23522 0.0
H800 H 0.05899 0.74827 0.33676 0.0
H801 H 0.95847 0.77101 0.36588 0.0
H802 H 0.93749 0.75013 0.28349 0.0
H803 H 0.94884 0.72769 0.19856 0.0
H804 H 0.05059 0.70749 0.16399 0.0
H805 H 0.06998 0.72475 0.25355 0.0
C806 C 0.0324 0.74825 0.32559 0.0
C807 C 1.01009 0.76082 0.3574 0.0
C808 C 0.02089 0.73682 0.27694 0.0
C809 C 0.97585 0.76118 0.34214 0.0
C810 C 0.96397 0.74936 0.29496 0.0
C811 C 0.97524 0.72698 0.21059 0.0
C812 C 0.99829 0.71654 0.17395 0.0
C813 C 0.98641 0.73747 0.26122 0.0
C814 C 0.03234 0.71561 0.19089 0.0
C815 C 0.04348 0.72547 0.24215 0.0
H816 H 0.2851 0.54575 0.42058 0.0
H817 H 0.1794 0.54816 0.46472 0.0
H818 H 0.19064 0.53048 0.55771 0.0
H819 H 0.23025 0.51132 0.62257 0.0
H820 H 0.33556 0.50921 0.57628 0.0
H821 H 0.32487 0.53 0.48892 0.0
C822 C 0.26447 0.5426 0.45066 0.0
C823 C 0.23134 0.54796 0.43489 0.0
C824 C 0.27112 0.53244 0.50401 0.0
C825 C 0.2051 0.54398 0.47509 0.0
C826 C 0.21152 0.53386 0.52846 0.0
C827 C 0.25083 0.51587 0.59395 0.0
C828 C 0.28362 0.50874 0.60558 0.0
C829 C 0.24436 0.5276 0.54288 0.0
C830 C 0.31012 0.51453 0.56798 0.0
C831 C 0.304 0.52632 0.51791 0.0
H832 H 0.80771 0.51777 0.57495 0.0
H833 H 0.70941 0.49167 0.60528 0.0
H834 H 0.71706 0.46855 0.52155 0.0
H835 H 0.74965 0.45766 0.43481 0.0
H836 H 0.84866 0.4829 0.40538 0.0
H837 H 0.84283 0.50431 0.49343 0.0
C838 C 0.7882 0.50683 0.56354 0.0
C839 C 0.75807 0.50644 0.59628 0.0
C840 C 0.79273 0.49355 0.51512 0.0
C841 C 0.73303 0.49211 0.58129 0.0
C842 C 0.73724 0.479 0.53306 0.0
C843 C 0.77005 0.46774 0.44792 0.0
C844 C 0.79929 0.46891 0.41303 0.0
C845 C 0.76668 0.47987 0.49893 0.0
C846 C 0.82576 0.48178 0.43118 0.0
C847 C 0.82243 0.49408 0.48151 0.0
H848 H 0.04942 0.75683 0.85543 0.0
H849 H 0.9419 0.76244 0.83484 0.0
H850 H 0.9497 0.784 0.74786 0.0
H851 H 0.98679 0.79856 0.67285 0.0
H852 H 0.09464 0.79323 0.69166 0.0
H853 H 0.08716 0.77446 0.78408 0.0
C854 C 0.02788 0.7632 0.83244 0.0
C855 C 0.99515 0.75824 0.85128 0.0
C856 C 0.03261 0.77539 0.78178 0.0
C857 C 0.96727 0.76627 0.82102 0.0
C858 C 0.97174 0.77846 0.77119 0.0
C859 C 1.00872 0.79345 0.69731 0.0
C860 C 0.0412 0.79702 0.67471 0.0
C861 C 1.00424 0.7827 0.75033 0.0
C862 C 0.06931 0.79053 0.70762 0.0
C863 C 0.06506 0.77977 0.76054 0.0
H864 H 0.99759 0.24194 0.87413 0.0
H865 H 0.04582 0.29034 0.7762 0.0
H866 H 0.02759 0.27508 0.68356 0.0
H867 H 1.00224 0.24676 0.62966 0.0
H868 H 0.95127 0.19867 0.7237 0.0
H869 H 0.96598 0.21496 0.8184 0.0
C870 C 1.00351 0.24925 0.83248 0.0
C871 C 0.02368 0.267 0.83198 0.0
C872 C 0.99284 0.24033 0.7787 0.0
C873 C 0.03099 0.27643 0.77769 0.0
C874 C 0.02058 0.26773 0.72463 0.0
C875 C 0.99426 0.23988 0.67094 0.0
C876 C 0.9763 0.22141 0.67002 0.0
C877 C 1.00234 0.24943 0.72455 0.0
C878 C 0.96534 0.21287 0.72357 0.0
C879 C 0.97381 0.22216 0.77759 0.0
H880 H 0.26637 0.06562 0.97056 0.0
H881 H 0.19519 0.02388 0.89149 0.0
H882 H 0.20383 0.99974 0.9725 0.0
H883 H 0.23506 0.98941 0.06201 0.0
H884 H 0.30522 0.03167 0.14156 0.0
H885 H 0.29318 0.0568 0.06476 0.0
C886 C 0.25257 0.05129 0.97128 0.0
C887 C 0.23055 0.04642 0.92467 0.0
C888 C 0.25748 0.03758 0.01815 0.0
C889 C 0.21238 0.02797 0.92671 0.0
C890 C 0.2174 0.01413 0.97294 0.0
C891 C 0.24737 1.00423 0.06278 0.0
C892 C 0.27106 1.00865 0.10727 0.0
C893 C 0.24038 0.01861 0.0183 0.0
C894 C 0.28664 0.02797 0.10815 0.0
C895 C 0.27999 0.04228 0.06395 0.0
H896 H 0.74317 0.95712 0.95483 0.0
H897 H 0.84004 0.98661 0.93937 0.0
H898 H 0.82879 1.00649 0.02856 0.0
H899 H 0.78946 0.01757 0.10655 0.0
H900 H 0.69366 0.98721 0.12486 0.0
H901 H 0.70665 0.96534 0.03982 0.0
C902 C 0.76189 0.96781 0.97123 0.0
C903 C 0.79208 0.97069 0.93971 0.0
C904 C 0.75548 0.97899 0.02323 0.0
C905 C 0.81641 0.98426 0.96223 0.0
C906 C 0.81001 0.99565 1.01333 0.0
C907 C 0.77174 1.0059 0.0924 0.0
C908 C 0.74064 1.00401 0.12162 0.0
C909 C 0.77937 0.99344 0.04352 0.0
C910 C 0.71789 0.98881 0.10327 0.0
C911 C 0.72517 0.97644 0.05435 0.0
H912 H 0.50552 0.30806 0.70354 0.0
H913 H 0.60356 0.28119 0.67681 0.0
H914 H 0.59783 0.26186 0.76896 0.0
H915 H 0.56224 0.25025 0.85232 0.0
H916 H 0.46592 0.27903 0.882 0.0
H917 H 0.47376 0.30026 0.7943 0.0
C918 C 0.52574 0.29815 0.71849 0.0
C919 C 0.55471 0.29578 0.6835 0.0
C920 C 0.52255 0.28748 0.772 0.0
C921 C 0.58104 0.28319 0.70332 0.0
C922 C 0.5777 0.2721 0.75578 0.0
C923 C 0.54343 0.26153 0.84016 0.0
C924 C 0.51358 0.26313 0.87335 0.0
C925 C 0.54825 0.2738 0.78987 0.0
C926 C 0.48925 0.27773 0.85736 0.0
C927 C 0.49358 0.28971 0.80694 0.0
H928 H 0.49766 0.74997 0.87389 0.0
H929 H 0.53544 0.79973 0.76799 0.0
H930 H 0.51817 0.78211 0.67813 0.0
H931 H 0.4977 0.75122 0.62905 0.0
H932 H 0.45682 0.7018 0.73184 0.0
H933 H 0.46979 0.72049 0.82362 0.0
C934 C 0.50131 0.75709 0.83117 0.0
C935 C 0.51836 0.77593 0.82743 0.0
C936 C 0.49133 0.74678 0.77923 0.0
C937 C 0.52291 0.78506 0.77183 0.0
C938 C 0.51313 0.77499 0.72042 0.0
C939 C 0.49151 0.74464 0.67167 0.0
C940 C 0.47705 0.72513 0.67432 0.0
C941 C 0.49837 0.7556 0.72352 0.0
C942 C 0.46829 0.71681 0.72928 0.0
C943 C 0.4757 0.72749 0.78153 0.0
H944 H 0.72354 0.48965 0.05954 0.0
H945 H 0.80708 0.52688 0.11657 0.0
H946 H 0.79622 0.55111 0.03665 0.0
H947 H 0.76696 0.55946 0.94407 0.0
H948 H 0.68138 0.5236 0.88934 0.0
H949 H 0.68856 0.50116 0.97516 0.0
C950 C 0.73879 0.50333 0.05499 0.0
C951 C 0.76611 0.50654 0.09343 0.0
C952 C 0.73219 0.51728 1.00921 0.0
C953 C 0.7858 0.52426 0.08756 0.0
C954 C 0.77975 0.538 0.04168 0.0
C955 C 0.74955 0.54694 0.95173 0.0
C956 C 0.72393 0.54296 0.91059 0.0
C957 C 0.75363 0.53435 1.00132 0.0
C958 C 0.70122 0.5269 0.92082 0.0
C959 C 0.70548 0.51402 0.96956 0.0
H960 H 0.29064 0.5197 0.10134 0.0
H961 H 0.19438 0.49039 0.12516 0.0
H962 H 0.20566 0.46784 0.04083 0.0
H963 H 0.2412 0.45837 0.95546 0.0
H964 H 0.33881 0.48658 0.93535 0.0
H965 H 0.3288 0.50756 0.02284 0.0
C966 C 0.27243 0.50815 0.08846 0.0
C967 C 0.24173 0.5067 0.11913 0.0
C968 C 0.27916 0.4952 0.04017 0.0
C969 C 0.21832 0.49164 0.10241 0.0
C970 C 0.22464 0.47887 0.05394 0.0
C971 C 0.26033 0.46903 0.97049 0.0
C972 C 0.29042 0.47117 0.9382 0.0
C973 C 0.25468 0.48082 0.02169 0.0
C974 C 0.31527 0.48475 0.95891 0.0
C975 C 0.30958 0.49678 1.00902 0.0
H976 H 0.53851 0.74327 0.33245 0.0
H977 H 0.4546 0.78174 0.38169 0.0
H978 H 0.46789 0.80519 0.3012 0.0
H979 H 0.50082 0.81344 0.21259 0.0
H980 H 0.58519 0.7752 0.16378 0.0
H981 H 0.57411 0.75295 0.24799 0.0
C982 C 0.52332 0.75688 0.32575 0.0
C983 C 0.49556 0.76071 0.36286 0.0
C984 C 0.53093 0.77021 0.27904 0.0
C985 C 0.47632 0.77854 0.35417 0.0
C986 C 0.48371 0.79186 0.30779 0.0
C987 C 0.51684 0.80026 0.2204 0.0
C988 C 0.54346 0.79583 0.1813 0.0
C989 C 0.51054 0.78763 0.26926 0.0
C990 C 0.56435 0.7789 0.19277 0.0
C991 C 0.55805 0.76615 0.24099 0.0
H992 H 0.484 0.26032 0.37178 0.0
H993 H 0.58892 0.24361 0.3622 0.0
H994 H 0.57781 0.22268 0.27445 0.0
H995 H 0.53947 0.21269 0.19385 0.0
H996 H 0.43373 0.22754 0.20671 0.0
H997 H 0.44383 0.24546 0.2998 0.0
C998 C 0.50419 0.25164 0.35124 0.0
C999 C 0.53723 0.25348 0.37322 0.0
C1000 C 0.49757 0.23961 0.30083 0.0
C1001 C 0.56326 0.24224 0.34635 0.0
C1002 C 0.55695 0.23045 0.29584 0.0
C1003 C 0.51852 0.21962 0.21733 0.0
C1004 C 0.48606 0.21935 0.19207 0.0
C1005 C 0.5244 0.22956 0.27161 0.0
C1006 C 0.45912 0.22794 0.22406 0.0
C1007 C 0.46486 0.23818 0.27753 0.0
H1008 H 0.72614 0.0101 0.62337 0.0
H1009 H 0.83171 0.00883 0.57884 0.0
H1010 H 0.82093 0.02916 0.49052 0.0
H1011 H 0.78104 0.04418 0.42105 0.0
H1012 H 0.67504 0.04552 0.4633 0.0
H1013 H 0.68633 0.0285 0.55729 0.0
C1014 C 0.74673 0.01476 0.5949 0.0
C1015 C 0.77965 1.00809 0.60729 0.0
C1016 C 0.74021 0.02618 0.54338 0.0
C1017 C 0.8062 0.01391 0.56996 0.0
C1018 C 0.80003 0.02542 0.51937 0.0
C1019 C 0.76036 0.04093 0.45094 0.0
C1020 C 0.72716 0.04581 0.4345 0.0
C1021 C 0.76704 0.03113 0.50477 0.0
C1022 C 0.70081 0.04174 0.47438 0.0
C1023 C 0.70726 0.03199 0.52825 0.0
H1024 H 0.2234 0.99653 0.58381 0.0
H1025 H 0.31841 0.02797 0.59925 0.0
H1026 H 0.34179 1.00687 0.5191 0.0
H1027 H 0.33262 0.98215 0.43694 0.0
H1028 H 0.2358 0.95257 0.42043 0.0
H1029 H 0.21578 0.97022 0.50851 0.0
C1030 C 0.24935 0.99865 0.56996 0.0
C1031 C 0.26901 0.01397 0.59676 0.0
C1032 C 0.26217 0.98691 0.52315 0.0
C1033 C 0.30278 0.01626 0.57929 0.0
C1034 C 0.31603 1.00431 0.53315 0.0
C1035 C 0.30734 0.97938 0.45315 0.0
C1036 C 0.28557 0.96628 0.42154 0.0
C1037 C 0.29561 0.98998 0.50353 0.0
C1038 C 0.2529 0.9628 0.44331 0.0
C1039 C 0.24141 0.97287 0.49378 0.0
H1040 H 0.30905 0.22795 0.99702 0.0
H1041 H 0.3513 0.28852 0.99381 0.0
H1042 H 0.29471 0.3035 0.98764 0.0
H1043 H 0.23326 0.29928 1.00061 0.0
H1044 H 0.19182 0.23872 0.01619 0.0
H1045 H 0.24753 0.22362 0.99934 0.0
C1046 C 0.3057 0.24436 0.99284 0.0
C1047 C 0.33398 0.25719 0.99543 0.0
C1048 C 0.27312 0.25279 0.9926 0.0
C1049 C 0.32964 0.27848 0.99152 0.0
C1050 C 0.29736 0.28699 0.98849 0.0
C1051 C 0.23652 0.28281 0.99855 0.0
C1052 C 0.20884 0.27004 1.0096 0.0
C1053 C 0.26888 0.27433 0.99157 0.0
C1054 C 0.21307 0.24871 1.00792 0.0
C1055 C 0.24484 0.24013 0.99849 0.0
H1056 H 0.80501 0.72548 0.98515 0.0
H1057 H 0.84877 0.78466 0.01973 0.0
H1058 H 0.7934 0.80073 1.01257 0.0
H1059 H 0.73174 0.79719 1.01044 0.0
H1060 H 0.6881 0.73803 0.97373 0.0
H1061 H 0.744 0.72285 0.96734 0.0
C1062 C 0.80252 0.74194 0.98947 0.0
C1063 C 0.83083 0.75378 1.00421 0.0
C1064 C 0.77047 0.75108 0.98602 0.0
C1065 C 0.82718 0.77514 1.00976 0.0
C1066 C 0.79553 0.78436 1.00566 0.0
C1067 C 0.73443 0.78109 0.99973 0.0
C1068 C 0.70563 0.76872 0.99441 0.0
C1069 C 0.7668 0.77237 0.99608 0.0
C1070 C 0.70974 0.74785 0.98016 0.0
C1071 C 0.74177 0.73912 0.97608 0.0
H1072 H 0.07709 0.49143 0.26731 0.0
H1073 H 0.05567 0.55182 0.20165 0.0
H1074 H 0.99883 0.54106 0.17335 0.0
H1075 H 0.95271 0.51603 0.1836 0.0
H1076 H 0.97426 0.45552 0.24826 0.0
H1077 H 0.03383 0.46441 0.25949 0.0
C1078 C 0.06012 0.50197 0.24537 0.0
C1079 C 0.07007 0.52236 0.23709 0.0
C1080 C 0.02757 0.49567 0.22957 0.0
C1081 C 0.04834 0.53602 0.2082 0.0
C1082 C 0.01583 0.52992 0.19252 0.0
C1083 C 0.97079 0.5047 0.19847 0.0
C1084 C 0.95936 0.4853 0.21579 0.0
C1085 C 1.00478 0.51003 0.20531 0.0
C1086 C 0.9827 0.47054 0.23458 0.0
C1087 C 0.01662 0.47569 0.24156 0.0
H1088 H 0.32347 0.77381 0.48169 0.0
H1089 H 0.29678 0.71012 0.4688 0.0
H1090 H 0.23759 0.71935 0.45341 0.0
H1091 H 0.19284 0.74543 0.46296 0.0
H1092 H 0.21952 0.80913 0.47556 0.0
H1093 H 0.27945 0.80026 0.47038 0.0
C1094 C 0.30469 0.76207 0.47368 0.0
C1095 C 0.31406 0.74138 0.47702 0.0
C1096 C 0.27083 0.76754 0.46548 0.0
C1097 C 0.28992 0.72614 0.46621 0.0
C1098 C 0.25612 0.73142 0.45801 0.0
C1099 C 0.21191 0.75731 0.46261 0.0
C1100 C 0.20213 0.77781 0.47029 0.0
C1101 C 0.24615 0.75203 0.46035 0.0
C1102 C 0.22667 0.79326 0.46948 0.0
C1103 C 0.26086 0.78816 0.46717 0.0
H1104 H 0.77653 0.21671 0.48851 0.0
H1105 H 0.84985 0.26494 0.47762 0.0
H1106 H 0.80484 0.29018 0.46242 0.0
H1107 H 0.74447 0.29876 0.47392 0.0
H1108 H 0.67115 0.25056 0.48522 0.0
H1109 H 0.71592 0.22477 0.47689 0.0
C1110 C 0.78247 0.23265 0.48035 0.0
C1111 C 0.81614 0.23915 0.48421 0.0
C1112 C 0.75642 0.24696 0.47239 0.0
C1113 C 0.824 0.25975 0.4742 0.0
C1114 C 0.79828 0.27413 0.46618 0.0
C1115 C 0.73841 0.28259 0.47176 0.0
C1116 C 0.70485 0.27639 0.48006 0.0
C1117 C 0.76436 0.26801 0.46814 0.0
C1118 C 0.69687 0.25551 0.4781 0.0
C1119 C 0.7225 0.24084 0.47421 0.0
H1120 H 0.07863 0.99707 0.7216 0.0
H1121 H 0.05283 0.06046 0.75278 0.0
H1122 H 0.99326 0.05168 0.75237 0.0
H1123 H 0.94882 0.02574 0.75262 0.0
H1124 H 0.97466 0.96199 0.73049 0.0
H1125 H 0.0338 0.97125 0.71719 0.0
C1126 C 0.06012 0.00902 0.72862 0.0
C1127 C 0.07062 0.02941 0.73821 0.0
C1128 C 0.02579 1.00378 0.73004 0.0
C1129 C 0.04588 0.04467 0.74519 0.0
C1130 C 1.01166 0.03964 0.74536 0.0
C1131 C 0.96733 0.01382 0.745 0.0
C1132 C 0.9572 0.99314 0.74363 0.0
C1133 C 1.00141 0.01919 0.73935 0.0
C1134 C 0.98152 0.97801 0.7317 0.0
C1135 C 0.01546 0.9833 0.72461 0.0
H1136 H 0.4653 0.51115 0.83894 0.0
H1137 H 0.46829 0.46746 0.69561 0.0
H1138 H 0.52619 0.47759 0.67339 0.0
H1139 H 0.57451 0.50027 0.69093 0.0
H1140 H 0.56939 0.54566 0.8298 0.0
H1141 H 0.51377 0.53328 0.85764 0.0
C1142 C 0.47833 0.50392 0.8024 0.0
C1143 C 0.462 0.48873 0.76844 0.0
C1144 C 0.51132 0.51013 0.78907 0.0
C1145 C 0.48004 0.47913 0.72262 0.0
C1146 C 0.51315 0.48502 0.70966 0.0
C1147 C 0.56127 0.50762 0.72704 0.0
C1148 C 0.57631 0.52415 0.75757 0.0
C1149 C 0.5288 0.50075 0.74196 0.0
C1150 C 0.55886 0.53292 0.80547 0.0
C1151 C 0.52681 0.52593 0.82122 0.0
H1152 H 0.47772 0.96784 0.24105 0.0
H1153 H 0.43087 0.02522 0.19769 0.0
H1154 H 0.48619 0.04142 0.18742 0.0
H1155 H 0.5465 0.04082 0.21292 0.0
H1156 H 0.59224 0.98454 0.2693 0.0
H1157 H 0.5395 0.96604 0.25123 0.0
C1158 C 0.47992 0.98364 0.227 0.0
C1159 C 0.45063 0.99542 0.22 0.0
C1160 C 0.51174 0.99304 0.22451 0.0
C1161 C 0.45335 0.01599 0.20304 0.0
C1162 C 0.4849 0.02524 0.19769 0.0
C1163 C 0.54507 0.02436 0.21859 0.0
C1164 C 0.57288 0.0139 0.24187 0.0
C1165 C 0.51415 0.01419 0.21143 0.0
C1166 C 0.57094 0.9927 0.25085 0.0
C1167 C 0.54076 0.98223 0.24112 0.0
loop_
_geom_bond_atom_site_label_1
_geom_bond_atom_site_label_2
_geom_bond_distance
_geom_bond_site_symmetry_2
_ccdc_geom_bond_type
Co0 N4 2.148 . S
Co0 N10 2.128 . S
Co0 N20 2.194 1_554 S
Co0 O25 2.351 1_554 S
Co0 O26 2.155 . S
Co0 O27 2.096 . S
C1 N4 1.301 1_556 S
C1 N5 1.328 . S
C1 H6 0.930 . S
C2 C3 1.333 . S
C2 N4 1.317 . S
C2 H7 0.930 . S
C3 C2 1.333 . S
C3 N5 1.350 1_554 S
C3 H29 0.931 . S
N4 Co0 2.148 . S
N4 C1 1.301 1_554 S
N4 C2 1.317 . S
N5 C1 1.328 . S
N5 C3 1.350 1_556 S
H6 C1 0.930 . S
H7 C2 0.930 . S
C8 O9 1.224 . S
C8 O27 1.247 . S
O9 C8 1.224 . S
N10 Co0 2.128 . S
N10 C11 1.355 1_554 S
N10 C13 1.311 . S
C11 N10 1.355 1_556 S
C11 C12 1.363 1_455 S
C11 H23 0.929 . S
C12 C11 1.363 1_655 S
C12 N14 1.375 1_556 S
C12 H30 0.931 . S
C13 N10 1.311 . S
C13 N14 1.347 1_455 S
C13 H24 0.929 . S
N14 C12 1.375 1_554 S
N14 C13 1.347 1_655 S
C15 C18 1.365 . S
C15 N20 1.328 . S
C15 H21 0.929 . S
C16 C17 1.362 . S
C16 C19 1.378 . S
C16 H31 0.915 1_455 S
C17 C16 1.362 . S
C17 C18 1.366 . S
C18 C15 1.365 . S
C18 C17 1.366 . S
C18 H32 0.930 . S
C19 C16 1.378 . S
C19 N20 1.315 . S
C19 H22 0.930 . S
N20 Co0 2.194 1_556 S
N20 C15 1.328 . S
N20 C19 1.315 . S
H21 C15 0.929 . S
H22 C19 0.930 . S
H23 C11 0.929 . S
H24 C13 0.929 . S
O25 Co0 2.351 1_556 S
O25 C28 1.244 . S
O26 Co0 2.155 . S
O26 C28 1.240 1_554 S
O27 Co0 2.096 . S
O27 C8 1.247 . S
C28 O25 1.244 . S
C28 O26 1.240 1_556 S
H29 C3 0.931 . S
H30 C12 0.931 . S
H31 C16 0.915 1_655 S
H32 C18 0.930 . S
Co33 N37 2.148 . S
Co33 N43 2.128 . S
Co33 N53 2.194 1_554 S
Co33 O58 2.351 1_554 S
Co33 O59 2.155 . S
Co33 O60 2.096 . S
C34 N37 1.301 1_556 S
C34 N38 1.328 . S
C34 H39 0.930 . S
C35 C36 1.333 . S
C35 N37 1.317 . S
C35 H40 0.930 . S
C36 C35 1.333 . S
C36 N38 1.350 1_554 S
C36 H62 0.931 . S
N37 Co33 2.148 . S
N37 C34 1.301 1_554 S
N37 C35 1.317 . S
N38 C34 1.328 . S
N38 C36 1.350 1_556 S
H39 C34 0.930 . S
H40 C35 0.930 . S
C41 O42 1.224 . S
C41 O60 1.247 . S
O42 C41 1.224 . S
N43 Co33 2.128 . S
N43 C44 1.355 1_554 S
N43 C46 1.311 . S
C44 N43 1.355 1_556 S
C44 C45 1.363 1_655 S
C44 H56 0.929 . S
C45 C44 1.363 1_455 S
C45 N47 1.375 1_556 S
C45 H63 0.931 . S
C46 N43 1.311 . S
C46 N47 1.347 1_655 S
C46 H57 0.929 . S
N47 C45 1.375 1_554 S
N47 C46 1.347 1_455 S
C48 C51 1.365 . S
C48 N53 1.328 . S
C48 H54 0.929 . S
C49 C50 1.362 . S
C49 C52 1.378 . S
C49 H64 0.915 1_655 S
C50 C49 1.362 . S
C50 C51 1.366 . S
C51 C48 1.365 . S
C51 C50 1.366 . S
C51 H65 0.930 . S
C52 C49 1.378 . S
C52 N53 1.315 . S
C52 H55 0.930 . S
N53 Co33 2.194 1_556 S
N53 C48 1.328 . S
N53 C52 1.315 . S
H54 C48 0.929 . S
H55 C52 0.930 . S
H56 C44 0.929 . S
H57 C46 0.929 . S
O58 Co33 2.351 1_556 S
O58 C61 1.244 . S
O59 Co33 2.155 . S
O59 C61 1.240 1_554 S
O60 Co33 2.096 . S
O60 C41 1.247 . S
C61 O58 1.244 . S
C61 O59 1.240 1_556 S
H62 C36 0.931 . S
H63 C45 0.931 . S
H64 C49 0.915 1_455 S
H65 C51 0.930 . S
Co66 N70 2.148 . S
Co66 N76 2.128 . S
Co66 N86 2.194 . S
Co66 O91 2.351 . S
Co66 O92 2.155 . S
Co66 O93 2.096 . S
C67 N70 1.301 . S
C67 N71 1.328 . S
C67 H72 0.930 . S
C68 C69 1.333 . S
C68 N70 1.317 . S
C68 H73 0.930 . S
C69 C68 1.333 . S
C69 N71 1.350 . S
C69 H95 0.931 . S
N70 Co66 2.148 . S
N70 C67 1.301 . S
N70 C68 1.317 . S
N71 C67 1.328 . S
N71 C69 1.350 . S
H72 C67 0.930 . S
H73 C68 0.930 . S
C74 O75 1.224 . S
C74 O93 1.247 . S
O75 C74 1.224 . S
N76 Co66 2.128 . S
N76 C77 1.355 . S
N76 C79 1.311 . S
C77 N76 1.355 . S
C77 C78 1.363 . S
C77 H89 0.929 . S
C78 C77 1.363 . S
C78 N80 1.375 . S
C78 H96 0.931 . S
C79 N76 1.311 . S
C79 N80 1.347 . S
C79 H90 0.929 . S
N80 C78 1.375 . S
N80 C79 1.347 . S
C81 C84 1.365 . S
C81 N86 1.328 . S
C81 H87 0.929 . S
C82 C83 1.362 . S
C82 C85 1.378 . S
C82 H97 0.929 . S
C83 C82 1.362 . S
C83 C84 1.366 . S
C84 C81 1.365 . S
C84 C83 1.366 . S
C84 H98 0.930 . S
C85 C82 1.378 . S
C85 N86 1.315 . S
C85 H88 0.930 . S
N86 Co66 2.194 . S
N86 C81 1.328 . S
N86 C85 1.315 . S
H87 C81 0.929 . S
H88 C85 0.930 . S
H89 C77 0.929 . S
H90 C79 0.929 . S
O91 Co66 2.351 . S
O91 C94 1.244 . S
O92 Co66 2.155 . S
O92 C94 1.240 . S
O93 Co66 2.096 . S
O93 C74 1.247 . S
C94 O91 1.244 . S
C94 O92 1.240 . S
H95 C69 0.931 . S
H96 C78 0.931 . S
H97 C82 0.929 . S
H98 C84 0.930 . S
Co99 N103 2.148 . S
Co99 N109 2.128 . S
Co99 N119 2.194 . S
Co99 O124 2.351 . S
Co99 O125 2.155 . S
Co99 O126 2.096 . S
C100 N103 1.301 . S
C100 N104 1.328 . S
C100 H105 0.930 . S
C101 C102 1.333 . S
C101 N103 1.317 . S
C101 H106 0.930 . S
C102 C101 1.333 . S
C102 N104 1.350 . S
C102 H128 0.931 . S
N103 Co99 2.148 . S
N103 C100 1.301 . S
N103 C101 1.317 . S
N104 C100 1.328 . S
N104 C102 1.350 . S
H105 C100 0.930 . S
H106 C101 0.930 . S
C107 O108 1.224 . S
C107 O126 1.247 . S
O108 C107 1.224 . S
N109 Co99 2.128 . S
N109 C110 1.355 . S
N109 C112 1.311 . S
C110 N109 1.355 . S
C110 C111 1.363 . S
C110 H122 0.929 . S
C111 C110 1.363 . S
C111 N113 1.375 . S
C111 H129 0.931 . S
C112 N109 1.311 . S
C112 N113 1.347 . S
C112 H123 0.929 . S
N113 C111 1.375 . S
N113 C112 1.347 . S
C114 C117 1.365 . S
C114 N119 1.328 . S
C114 H120 0.929 . S
C115 C116 1.362 . S
C115 C118 1.378 . S
C115 H130 0.929 . S
C116 C115 1.362 . S
C116 C117 1.366 . S
C117 C114 1.365 . S
C117 C116 1.366 . S
C117 H131 0.930 . S
C118 C115 1.378 . S
C118 N119 1.315 . S
C118 H121 0.930 . S
N119 Co99 2.194 . S
N119 C114 1.328 . S
N119 C118 1.315 . S
H120 C114 0.929 . S
H121 C118 0.930 . S
H122 C110 0.929 . S
H123 C112 0.929 . S
O124 Co99 2.351 . S
O124 C127 1.244 . S
O125 Co99 2.155 . S
O125 C127 1.240 . S
O126 Co99 2.096 . S
O126 C107 1.247 . S
C127 O124 1.244 . S
C127 O125 1.240 . S
H128 C102 0.931 . S
H129 C111 0.931 . S
H130 C115 0.929 . S
H131 C117 0.930 . S
Co132 N136 2.148 . S
Co132 N142 2.128 . S
Co132 N152 2.194 . S
Co132 O157 2.351 . S
Co132 O158 2.155 . S
Co132 O159 2.096 . S
C133 N136 1.301 . S
C133 N137 1.328 . S
C133 H138 0.930 . S
C134 C135 1.333 . S
C134 N136 1.317 . S
C134 H139 0.930 . S
C135 C134 1.333 . S
C135 N137 1.350 . S
C135 H161 0.931 . S
N136 Co132 2.148 . S
N136 C133 1.301 . S
N136 C134 1.317 . S
N137 C133 1.328 . S
N137 C135 1.350 . S
H138 C133 0.930 . S
H139 C134 0.930 . S
C140 O141 1.224 . S
C140 O159 1.247 . S
O141 C140 1.224 . S
N142 Co132 2.128 . S
N142 C143 1.355 . S
N142 C145 1.311 . S
C143 N142 1.355 . S
C143 C144 1.363 1_455 S
C143 H155 0.929 . S
C144 C143 1.363 1_655 S
C144 N146 1.375 . S
C144 H162 0.931 . S
C145 N142 1.311 . S
C145 N146 1.347 1_455 S
C145 H156 0.929 . S
N146 C144 1.375 . S
N146 C145 1.347 1_655 S
C147 C150 1.365 . S
C147 N152 1.328 . S
C147 H153 0.929 . S
C148 C149 1.362 . S
C148 C151 1.378 . S
C148 H163 0.915 1_455 S
C149 C148 1.362 . S
C149 C150 1.366 . S
C150 C147 1.365 . S
C150 C149 1.366 . S
C150 H164 0.930 . S
C151 C148 1.378 . S
C151 N152 1.315 . S
C151 H154 0.930 . S
N152 Co132 2.194 . S
N152 C147 1.328 . S
N152 C151 1.315 . S
H153 C147 0.929 . S
H154 C151 0.930 . S
H155 C143 0.929 . S
H156 C145 0.929 . S
O157 Co132 2.351 . S
O157 C160 1.244 . S
O158 Co132 2.155 . S
O158 C160 1.240 . S
O159 Co132 2.096 . S
O159 C140 1.247 . S
C160 O157 1.244 . S
C160 O158 1.240 . S
H161 C135 0.931 . S
H162 C144 0.931 . S
H163 C148 0.915 1_655 S
H164 C150 0.930 . S
Co165 N169 2.148 . S
Co165 N175 2.128 . S
Co165 N185 2.194 . S
Co165 O190 2.351 . S
Co165 O191 2.155 . S
Co165 O192 2.096 . S
C166 N169 1.301 . S
C166 N170 1.328 . S
C166 H171 0.930 . S
C167 C168 1.333 . S
C167 N169 1.317 . S
C167 H172 0.930 . S
C168 C167 1.333 . S
C168 N170 1.350 . S
C168 H194 0.931 . S
N169 Co165 2.148 . S
N169 C166 1.301 . S
N169 C167 1.317 . S
N170 C166 1.328 . S
N170 C168 1.350 . S
H171 C166 0.930 . S
H172 C167 0.930 . S
C173 O174 1.224 . S
C173 O192 1.247 . S
O174 C173 1.224 . S
N175 Co165 2.128 . S
N175 C176 1.355 . S
N175 C178 1.311 . S
C176 N175 1.355 . S
C176 C177 1.363 1_655 S
C176 H188 0.929 . S
C177 C176 1.363 1_455 S
C177 N179 1.375 . S
C177 H195 0.931 . S
C178 N175 1.311 . S
C178 N179 1.347 1_655 S
C178 H189 0.929 . S
N179 C177 1.375 . S
N179 C178 1.347 1_455 S
C180 C183 1.365 . S
C180 N185 1.328 . S
C180 H186 0.929 . S
C181 C182 1.362 . S
C181 C184 1.378 . S
C181 H196 0.915 1_655 S
C182 C181 1.362 . S
C182 C183 1.366 . S
C183 C180 1.365 . S
C183 C182 1.366 . S
C183 H197 0.930 . S
C184 C181 1.378 . S
C184 N185 1.315 . S
C184 H187 0.930 . S
N185 Co165 2.194 . S
N185 C180 1.328 . S
N185 C184 1.315 . S
H186 C180 0.929 . S
H187 C184 0.930 . S
H188 C176 0.929 . S
H189 C178 0.929 . S
O190 Co165 2.351 . S
O190 C193 1.244 . S
O191 Co165 2.155 . S
O191 C193 1.240 . S
O192 Co165 2.096 . S
O192 C173 1.247 . S
C193 O190 1.244 . S
C193 O191 1.240 . S
H194 C168 0.931 . S
H195 C177 0.931 . S
H196 C181 0.915 1_455 S
H197 C183 0.930 . S
Co198 N202 2.148 . S
Co198 N208 2.128 . S
Co198 N218 2.194 . S
Co198 O223 2.351 . S
Co198 O224 2.155 . S
Co198 O225 2.096 . S
C199 N202 1.301 . S
C199 N203 1.328 . S
C199 H204 0.930 . S
C200 C201 1.333 . S
C200 N202 1.317 . S
C200 H205 0.930 . S
C201 C200 1.333 . S
C201 N203 1.350 . S
C201 H227 0.931 . S
N202 Co198 2.148 . S
N202 C199 1.301 . S
N202 C200 1.317 . S
N203 C199 1.328 . S
N203 C201 1.350 . S
H204 C199 0.930 . S
H205 C200 0.930 . S
C206 O207 1.224 . S
C206 O225 1.247 . S
O207 C206 1.224 . S
N208 Co198 2.128 . S
N208 C209 1.355 . S
N208 C211 1.311 . S
C209 N208 1.355 . S
C209 C210 1.363 . S
C209 H221 0.929 . S
C210 C209 1.363 . S
C210 N212 1.375 . S
C210 H228 0.931 . S
C211 N208 1.311 . S
C211 N212 1.347 . S
C211 H222 0.929 . S
N212 C210 1.375 . S
N212 C211 1.347 . S
C213 C216 1.365 . S
C213 N218 1.328 . S
C213 H219 0.929 . S
C214 C215 1.362 . S
C214 C217 1.378 . S
C214 H229 0.929 . S
C215 C214 1.362 . S
C215 C216 1.366 . S
C216 C213 1.365 . S
C216 C215 1.366 . S
C216 H230 0.930 . S
C217 C214 1.378 . S
C217 N218 1.315 . S
C217 H220 0.930 . S
N218 Co198 2.194 . S
N218 C213 1.328 . S
N218 C217 1.315 . S
H219 C213 0.929 . S
H220 C217 0.930 . S
H221 C209 0.929 . S
H222 C211 0.929 . S
O223 Co198 2.351 . S
O223 C226 1.244 . S
O224 Co198 2.155 . S
O224 C226 1.240 . S
O225 Co198 2.096 . S
O225 C206 1.247 . S
C226 O223 1.244 . S
C226 O224 1.240 . S
H227 C201 0.931 . S
H228 C210 0.931 . S
H229 C214 0.929 . S
H230 C216 0.930 . S
Co231 N235 2.148 . S
Co231 N241 2.128 . S
Co231 N251 2.194 . S
Co231 O256 2.351 . S
Co231 O257 2.155 . S
Co231 O258 2.096 . S
C232 N235 1.301 . S
C232 N236 1.328 . S
C232 H237 0.930 . S
C233 C234 1.333 . S
C233 N235 1.317 . S
C233 H238 0.930 . S
C234 C233 1.333 . S
C234 N236 1.350 . S
C234 H260 0.931 . S
N235 Co231 2.148 . S
N235 C232 1.301 . S
N235 C233 1.317 . S
N236 C232 1.328 . S
N236 C234 1.350 . S
H237 C232 0.930 . S
H238 C233 0.930 . S
C239 O240 1.224 . S
C239 O258 1.247 . S
O240 C239 1.224 . S
N241 Co231 2.128 . S
N241 C242 1.355 . S
N241 C244 1.311 . S
C242 N241 1.355 . S
C242 C243 1.363 . S
C242 H254 0.929 . S
C243 C242 1.363 . S
C243 N245 1.375 . S
C243 H261 0.931 . S
C244 N241 1.311 . S
C244 N245 1.347 . S
C244 H255 0.929 . S
N245 C243 1.375 . S
N245 C244 1.347 . S
C246 C249 1.365 . S
C246 N251 1.328 . S
C246 H252 0.929 . S
C247 C248 1.362 . S
C247 C250 1.378 . S
C247 H262 0.929 . S
C248 C247 1.362 . S
C248 C249 1.366 . S
C249 C246 1.365 . S
C249 C248 1.366 . S
C249 H263 0.930 . S
C250 C247 1.378 . S
C250 N251 1.315 . S
C250 H253 0.930 . S
N251 Co231 2.194 . S
N251 C246 1.328 . S
N251 C250 1.315 . S
H252 C246 0.929 . S
H253 C250 0.930 . S
H254 C242 0.929 . S
H255 C244 0.929 . S
O256 Co231 2.351 . S
O256 C259 1.244 . S
O257 Co231 2.155 . S
O257 C259 1.240 . S
O258 Co231 2.096 . S
O258 C239 1.247 . S
C259 O256 1.244 . S
C259 O257 1.240 . S
H260 C234 0.931 . S
H261 C243 0.931 . S
H262 C247 0.929 . S
H263 C249 0.930 . S
Co264 N268 2.148 . S
Co264 N274 2.128 . S
Co264 N284 2.194 . S
Co264 O289 2.351 . S
Co264 O290 2.155 . S
Co264 O291 2.096 . S
C265 N268 1.301 . S
C265 N269 1.328 . S
C265 H270 0.930 . S
C266 C267 1.333 . S
C266 N268 1.317 . S
C266 H271 0.930 . S
C267 C266 1.333 . S
C267 N269 1.350 . S
C267 H293 0.931 . S
N268 Co264 2.148 . S
N268 C265 1.301 . S
N268 C266 1.317 . S
N269 C265 1.328 . S
N269 C267 1.350 . S
H270 C265 0.930 . S
H271 C266 0.930 . S
C272 O273 1.224 . S
C272 O291 1.247 . S
O273 C272 1.224 . S
N274 Co264 2.128 . S
N274 C275 1.355 . S
N274 C277 1.311 . S
C275 N274 1.355 . S
C275 C276 1.363 . S
C275 H287 0.929 . S
C276 C275 1.363 . S
C276 N278 1.375 . S
C276 H294 0.931 . S
C277 N274 1.311 . S
C277 N278 1.347 . S
C277 H288 0.929 . S
N278 C276 1.375 . S
N278 C277 1.347 . S
C279 C282 1.365 . S
C279 N284 1.328 . S
C279 H285 0.929 . S
C280 C281 1.362 . S
C280 C283 1.378 . S
C280 H295 0.929 . S
C281 C280 1.362 . S
C281 C282 1.366 . S
C282 C279 1.365 . S
C282 C281 1.366 . S
C282 H296 0.930 . S
C283 C280 1.378 . S
C283 N284 1.315 . S
C283 H286 0.930 . S
N284 Co264 2.194 . S
N284 C279 1.328 . S
N284 C283 1.315 . S
H285 C279 0.929 . S
H286 C283 0.930 . S
H287 C275 0.929 . S
H288 C277 0.929 . S
O289 Co264 2.351 . S
O289 C292 1.244 . S
O290 Co264 2.155 . S
O290 C292 1.240 . S
O291 Co264 2.096 . S
O291 C272 1.247 . S
C292 O289 1.244 . S
C292 O290 1.240 . S
H293 C267 0.931 . S
H294 C276 0.931 . S
H295 C280 0.929 . S
H296 C282 0.930 . S
Co297 N301 2.148 . S
Co297 N307 2.128 . S
Co297 N317 2.194 . S
Co297 O322 2.351 . S
Co297 O323 2.155 . S
Co297 O324 2.096 . S
C298 N301 1.301 . S
C298 N302 1.328 . S
C298 H303 0.930 . S
C299 C300 1.333 . S
C299 N301 1.317 . S
C299 H304 0.930 . S
C300 C299 1.333 . S
C300 N302 1.350 . S
C300 H326 0.931 . S
N301 Co297 2.148 . S
N301 C298 1.301 . S
N301 C299 1.317 . S
N302 C298 1.328 . S
N302 C300 1.350 . S
H303 C298 0.930 . S
H304 C299 0.930 . S
C305 O306 1.224 . S
C305 O324 1.247 . S
O306 C305 1.224 . S
N307 Co297 2.128 . S
N307 C308 1.355 . S
N307 C310 1.311 . S
C308 N307 1.355 . S
C308 C309 1.363 . S
C308 H320 0.929 . S
C309 C308 1.363 . S
C309 N311 1.375 . S
C309 H327 0.931 . S
C310 N307 1.311 . S
C310 N311 1.347 . S
C310 H321 0.929 . S
N311 C309 1.375 . S
N311 C310 1.347 . S
C312 C315 1.365 . S
C312 N317 1.328 . S
C312 H318 0.929 . S
C313 C314 1.362 . S
C313 C316 1.378 . S
C313 H328 0.929 . S
C314 C313 1.362 . S
C314 C315 1.366 . S
C315 C312 1.365 . S
C315 C314 1.366 . S
C315 H329 0.930 . S
C316 C313 1.378 . S
C316 N317 1.315 . S
C316 H319 0.930 . S
N317 Co297 2.194 . S
N317 C312 1.328 . S
N317 C316 1.315 . S
H318 C312 0.929 . S
H319 C316 0.930 . S
H320 C308 0.929 . S
H321 C310 0.929 . S
O322 Co297 2.351 . S
O322 C325 1.244 . S
O323 Co297 2.155 . S
O323 C325 1.240 . S
O324 Co297 2.096 . S
O324 C305 1.247 . S
C325 O322 1.244 . S
C325 O323 1.240 . S
H326 C300 0.931 . S
H327 C309 0.931 . S
H328 C313 0.929 . S
H329 C315 0.930 . S
Co330 N334 2.148 . S
Co330 N340 2.128 . S
Co330 N350 2.194 . S
Co330 O355 2.351 . S
Co330 O356 2.155 . S
Co330 O357 2.096 . S
C331 N334 1.301 . S
C331 N335 1.328 . S
C331 H336 0.930 . S
C332 C333 1.333 . S
C332 N334 1.317 . S
C332 H337 0.930 . S
C333 C332 1.333 . S
C333 N335 1.350 . S
C333 H359 0.931 . S
N334 Co330 2.148 . S
N334 C331 1.301 . S
N334 C332 1.317 . S
N335 C331 1.328 . S
N335 C333 1.350 . S
H336 C331 0.930 . S
H337 C332 0.930 . S
C338 O339 1.224 . S
C338 O357 1.247 . S
O339 C338 1.224 . S
N340 Co330 2.128 . S
N340 C341 1.355 . S
N340 C343 1.311 . S
C341 N340 1.355 . S
C341 C342 1.363 . S
C341 H353 0.929 . S
C342 C341 1.363 . S
C342 N344 1.375 . S
C342 H360 0.931 . S
C343 N340 1.311 . S
C343 N344 1.347 . S
C343 H354 0.929 . S
N344 C342 1.375 . S
N344 C343 1.347 . S
C345 C348 1.365 . S
C345 N350 1.328 . S
C345 H351 0.929 . S
C346 C347 1.362 . S
C346 C349 1.378 . S
C346 H361 0.929 . S
C347 C346 1.362 . S
C347 C348 1.366 . S
C348 C345 1.365 . S
C348 C347 1.366 . S
C348 H362 0.930 . S
C349 C346 1.378 . S
C349 N350 1.315 . S
C349 H352 0.930 . S
N350 Co330 2.194 . S
N350 C345 1.328 . S
N350 C349 1.315 . S
H351 C345 0.929 . S
H352 C349 0.930 . S
H353 C341 0.929 . S
H354 C343 0.929 . S
O355 Co330 2.351 . S
O355 C358 1.244 . S
O356 Co330 2.155 . S
O356 C358 1.240 . S
O357 Co330 2.096 . S
O357 C338 1.247 . S
C358 O355 1.244 . S
C358 O356 1.240 . S
H359 C333 0.931 . S
H360 C342 0.931 . S
H361 C346 0.929 . S
H362 C348 0.930 . S
Co363 N367 2.148 . S
Co363 N373 2.128 . S
Co363 N383 2.194 . S
Co363 O388 2.351 . S
Co363 O389 2.155 . S
Co363 O390 2.096 . S
C364 N367 1.301 . S
C364 N368 1.328 . S
C364 H369 0.930 . S
C365 C366 1.333 . S
C365 N367 1.317 . S
C365 H370 0.930 . S
C366 C365 1.333 . S
C366 N368 1.350 . S
C366 H392 0.931 . S
N367 Co363 2.148 . S
N367 C364 1.301 . S
N367 C365 1.317 . S
N368 C364 1.328 . S
N368 C366 1.350 . S
H369 C364 0.930 . S
H370 C365 0.930 . S
C371 O372 1.224 . S
C371 O390 1.247 . S
O372 C371 1.224 . S
N373 Co363 2.128 . S
N373 C374 1.355 . S
N373 C376 1.311 . S
C374 N373 1.355 . S
C374 C375 1.363 . S
C374 H386 0.929 . S
C375 C374 1.363 . S
C375 N377 1.375 . S
C375 H393 0.931 . S
C376 N373 1.311 . S
C376 N377 1.347 . S
C376 H387 0.929 . S
N377 C375 1.375 . S
N377 C376 1.347 . S
C378 C381 1.365 . S
C378 N383 1.328 . S
C378 H384 0.929 . S
C379 C380 1.362 . S
C379 C382 1.378 . S
C379 H394 0.929 . S
C380 C379 1.362 . S
C380 C381 1.366 . S
C381 C378 1.365 . S
C381 C380 1.366 . S
C381 H395 0.930 . S
C382 C379 1.378 . S
C382 N383 1.315 . S
C382 H385 0.930 . S
N383 Co363 2.194 . S
N383 C378 1.328 . S
N383 C382 1.315 . S
H384 C378 0.929 . S
H385 C382 0.930 . S
H386 C374 0.929 . S
H387 C376 0.929 . S
O388 Co363 2.351 . S
O388 C391 1.244 . S
O389 Co363 2.155 . S
O389 C391 1.240 . S
O390 Co363 2.096 . S
O390 C371 1.247 . S
C391 O388 1.244 . S
C391 O389 1.240 . S
H392 C366 0.931 . S
H393 C375 0.931 . S
H394 C379 0.929 . S
H395 C381 0.930 . S
Co396 N400 2.148 . S
Co396 N406 2.128 . S
Co396 N416 2.194 1_554 S
Co396 O421 2.351 1_554 S
Co396 O422 2.155 . S
Co396 O423 2.096 . S
C397 N400 1.301 1_556 S
C397 N401 1.328 . S
C397 H402 0.930 . S
C398 C399 1.333 . S
C398 N400 1.317 . S
C398 H403 0.930 . S
C399 C398 1.333 . S
C399 N401 1.350 1_554 S
C399 H425 0.931 . S
N400 Co396 2.148 . S
N400 C397 1.301 1_554 S
N400 C398 1.317 . S
N401 C397 1.328 . S
N401 C399 1.350 1_556 S
H402 C397 0.930 . S
H403 C398 0.930 . S
C404 O405 1.224 . S
C404 O423 1.247 . S
O405 C404 1.224 . S
N406 Co396 2.128 . S
N406 C407 1.355 1_554 S
N406 C409 1.311 . S
C407 N406 1.355 1_556 S
C407 C408 1.363 . S
C407 H419 0.929 . S
C408 C407 1.363 . S
C408 N410 1.375 1_556 S
C408 H426 0.931 . S
C409 N406 1.311 . S
C409 N410 1.347 . S
C409 H420 0.929 . S
N410 C408 1.375 1_554 S
N410 C409 1.347 . S
C411 C414 1.365 . S
C411 N416 1.328 . S
C411 H417 0.929 . S
C412 C413 1.362 . S
C412 C415 1.378 . S
C412 H427 0.929 . S
C413 C412 1.362 . S
C413 C414 1.366 . S
C414 C411 1.365 . S
C414 C413 1.366 . S
C414 H428 0.930 . S
C415 C412 1.378 . S
C415 N416 1.315 . S
C415 H418 0.930 . S
N416 Co396 2.194 1_556 S
N416 C411 1.328 . S
N416 C415 1.315 . S
H417 C411 0.929 . S
H418 C415 0.930 . S
H419 C407 0.929 . S
H420 C409 0.929 . S
O421 Co396 2.351 1_556 S
O421 C424 1.244 . S
O422 Co396 2.155 . S
O422 C424 1.240 1_554 S
O423 Co396 2.096 . S
O423 C404 1.247 . S
C424 O421 1.244 . S
C424 O422 1.240 1_556 S
H425 C399 0.931 . S
H426 C408 0.931 . S
H427 C412 0.929 . S
H428 C414 0.930 . S
Co429 N433 2.148 . S
Co429 N439 2.128 . S
Co429 N449 2.194 1_554 S
Co429 O454 2.351 1_554 S
Co429 O455 2.155 . S
Co429 O456 2.096 . S
C430 N433 1.301 1_556 S
C430 N434 1.328 . S
C430 H435 0.930 . S
C431 C432 1.333 . S
C431 N433 1.317 . S
C431 H436 0.930 . S
C432 C431 1.333 . S
C432 N434 1.350 1_554 S
C432 H458 0.931 . S
N433 Co429 2.148 . S
N433 C430 1.301 1_554 S
N433 C431 1.317 . S
N434 C430 1.328 . S
N434 C432 1.350 1_556 S
H435 C430 0.930 . S
H436 C431 0.930 . S
C437 O438 1.224 . S
C437 O456 1.247 . S
O438 C437 1.224 . S
N439 Co429 2.128 . S
N439 C440 1.355 1_554 S
N439 C442 1.311 . S
C440 N439 1.355 1_556 S
C440 C441 1.363 . S
C440 H452 0.929 . S
C441 C440 1.363 . S
C441 N443 1.375 1_556 S
C441 H459 0.931 . S
C442 N439 1.311 . S
C442 N443 1.347 . S
C442 H453 0.929 . S
N443 C441 1.375 1_554 S
N443 C442 1.347 . S
C444 C447 1.365 . S
C444 N449 1.328 . S
C444 H450 0.929 . S
C445 C446 1.362 . S
C445 C448 1.378 . S
C445 H460 0.929 . S
C446 C445 1.362 . S
C446 C447 1.366 . S
C447 C444 1.365 . S
C447 C446 1.366 . S
C447 H461 0.930 . S
C448 C445 1.378 . S
C448 N449 1.315 . S
C448 H451 0.930 . S
N449 Co429 2.194 1_556 S
N449 C444 1.328 . S
N449 C448 1.315 . S
H450 C444 0.929 . S
H451 C448 0.930 . S
H452 C440 0.929 . S
H453 C442 0.929 . S
O454 Co429 2.351 1_556 S
O454 C457 1.244 . S
O455 Co429 2.155 . S
O455 C457 1.240 1_554 S
O456 Co429 2.096 . S
O456 C437 1.247 . S
C457 O454 1.244 . S
C457 O455 1.240 1_556 S
H458 C432 0.931 . S
H459 C441 0.931 . S
H460 C445 0.929 . S
H461 C447 0.930 . S
Co462 N466 2.148 . S
Co462 N472 2.128 . S
Co462 N482 2.194 . S
Co462 O487 2.351 . S
Co462 O488 2.155 . S
Co462 O489 2.096 . S
C463 N466 1.301 . S
C463 N467 1.328 . S
C463 H468 0.930 . S
C464 C465 1.333 . S
C464 N466 1.317 . S
C464 H469 0.930 . S
C465 C464 1.333 . S
C465 N467 1.350 . S
C465 H491 0.931 . S
N466 Co462 2.148 . S
N466 C463 1.301 . S
N466 C464 1.317 . S
N467 C463 1.328 . S
N467 C465 1.350 . S
H468 C463 0.930 . S
H469 C464 0.930 . S
C470 O471 1.224 . S
C470 O489 1.247 . S
O471 C470 1.224 . S
N472 Co462 2.128 . S
N472 C473 1.355 . S
N472 C475 1.311 . S
C473 N472 1.355 . S
C473 C474 1.363 . S
C473 H485 0.929 . S
C474 C473 1.363 . S
C474 N476 1.375 . S
C474 H492 0.931 . S
C475 N472 1.311 . S
C475 N476 1.347 . S
C475 H486 0.929 . S
N476 C474 1.375 . S
N476 C475 1.347 . S
C477 C480 1.365 . S
C477 N482 1.328 . S
C477 H483 0.929 . S
C478 C479 1.362 . S
C478 C481 1.378 . S
C478 H493 0.929 . S
C479 C478 1.362 . S
C479 C480 1.366 . S
C480 C477 1.365 . S
C480 C479 1.366 . S
C480 H494 0.930 . S
C481 C478 1.378 . S
C481 N482 1.315 . S
C481 H484 0.930 . S
N482 Co462 2.194 . S
N482 C477 1.328 . S
N482 C481 1.315 . S
H483 C477 0.929 . S
H484 C481 0.930 . S
H485 C473 0.929 . S
H486 C475 0.929 . S
O487 Co462 2.351 . S
O487 C490 1.244 . S
O488 Co462 2.155 . S
O488 C490 1.240 . S
O489 Co462 2.096 . S
O489 C470 1.247 . S
C490 O487 1.244 . S
C490 O488 1.240 . S
H491 C465 0.931 . S
H492 C474 0.931 . S
H493 C478 0.929 . S
H494 C480 0.930 . S
Co495 N499 2.148 . S
Co495 N505 2.128 . S
Co495 N515 2.194 . S
Co495 O520 2.351 . S
Co495 O521 2.155 . S
Co495 O522 2.096 . S
C496 N499 1.301 . S
C496 N500 1.328 . S
C496 H501 0.930 . S
C497 C498 1.333 . S
C497 N499 1.317 . S
C497 H502 0.930 . S
C498 C497 1.333 . S
C498 N500 1.350 . S
C498 H524 0.931 . S
N499 Co495 2.148 . S
N499 C496 1.301 . S
N499 C497 1.317 . S
N500 C496 1.328 . S
N500 C498 1.350 . S
H501 C496 0.930 . S
H502 C497 0.930 . S
C503 O504 1.224 . S
C503 O522 1.247 . S
O504 C503 1.224 . S
N505 Co495 2.128 . S
N505 C506 1.355 . S
N505 C508 1.311 . S
C506 N505 1.355 . S
C506 C507 1.363 . S
C506 H518 0.929 . S
C507 C506 1.363 . S
C507 N509 1.375 . S
C507 H525 0.931 . S
C508 N505 1.311 . S
C508 N509 1.347 . S
C508 H519 0.929 . S
N509 C507 1.375 . S
N509 C508 1.347 . S
C510 C513 1.365 . S
C510 N515 1.328 . S
C510 H516 0.929 . S
C511 C512 1.362 . S
C511 C514 1.378 . S
C511 H526 0.929 . S
C512 C511 1.362 . S
C512 C513 1.366 . S
C513 C510 1.365 . S
C513 C512 1.366 . S
C513 H527 0.930 . S
C514 C511 1.378 . S
C514 N515 1.315 . S
C514 H517 0.930 . S
N515 Co495 2.194 . S
N515 C510 1.328 . S
N515 C514 1.315 . S
H516 C510 0.929 . S
H517 C514 0.930 . S
H518 C506 0.929 . S
H519 C508 0.929 . S
O520 Co495 2.351 . S
O520 C523 1.244 . S
O521 Co495 2.155 . S
O521 C523 1.240 . S
O522 Co495 2.096 . S
O522 C503 1.247 . S
C523 O520 1.244 . S
C523 O521 1.240 . S
H524 C498 0.931 . S
H525 C507 0.931 . S
H526 C511 0.929 . S
H527 C513 0.930 . S
H528 C534 0.930 . S
H529 C537 0.930 1_554 S
H530 C538 0.930 . S
H531 C539 0.930 . S
H532 C542 0.930 . S
H533 C543 0.930 . S
C534 H528 0.930 . S
C534 C535 1.355 . S
C534 C536 1.415 . S
C535 C534 1.355 . S
C535 C537 1.419 . S
C536 C534 1.415 . S
C536 C541 1.425 . S
C536 C543 1.409 . S
C537 H529 0.930 1_556 S
C537 C535 1.419 . S
C537 C538 1.362 . S
C538 H530 0.930 . S
C538 C537 1.362 . S
C538 C541 1.409 . S
C539 H531 0.930 . S
C539 C540 1.355 . S
C539 C541 1.415 . S
C540 C539 1.355 . S
C540 C542 1.419 . S
C541 C536 1.425 . S
C541 C538 1.409 . S
C541 C539 1.415 . S
C542 H532 0.930 . S
C542 C540 1.419 . S
C542 C543 1.362 . S
C543 H533 0.930 . S
C543 C536 1.409 . S
C543 C542 1.362 . S
H544 C550 0.930 . S
H545 C553 0.930 . S
H546 C554 0.930 . S
H547 C555 0.930 . S
H548 C558 0.930 . S
H549 C559 0.930 . S
C550 H544 0.930 . S
C550 C551 1.355 . S
C550 C552 1.415 . S
C551 C550 1.355 . S
C551 C553 1.419 . S
C552 C550 1.415 . S
C552 C557 1.425 . S
C552 C559 1.409 . S
C553 H545 0.930 . S
C553 C551 1.419 . S
C553 C554 1.362 . S
C554 H546 0.930 . S
C554 C553 1.362 . S
C554 C557 1.409 . S
C555 H547 0.930 . S
C555 C556 1.355 . S
C555 C557 1.415 . S
C556 C555 1.355 . S
C556 C558 1.419 . S
C557 C552 1.425 . S
C557 C554 1.409 . S
C557 C555 1.415 . S
C558 H548 0.930 . S
C558 C556 1.419 . S
C558 C559 1.362 . S
C559 H549 0.930 . S
C559 C552 1.409 . S
C559 C558 1.362 . S
H560 C566 0.930 . S
H561 C569 0.930 . S
H562 C570 0.930 . S
H563 C571 0.930 . S
H564 C574 0.930 . S
H565 C575 0.930 . S
C566 H560 0.930 . S
C566 C567 1.355 . S
C566 C568 1.415 . S
C567 C566 1.355 . S
C567 C569 1.419 . S
C568 C566 1.415 . S
C568 C573 1.425 . S
C568 C575 1.409 . S
C569 H561 0.930 . S
C569 C567 1.419 . S
C569 C570 1.362 . S
C570 H562 0.930 . S
C570 C569 1.362 . S
C570 C573 1.409 . S
C571 H563 0.930 . S
C571 C572 1.355 . S
C571 C573 1.415 . S
C572 C571 1.355 . S
C572 C574 1.419 . S
C573 C568 1.425 . S
C573 C570 1.409 . S
C573 C571 1.415 . S
C574 H564 0.930 . S
C574 C572 1.419 . S
C574 C575 1.362 . S
C575 H565 0.930 . S
C575 C568 1.409 . S
C575 C574 1.362 . S
H576 C582 0.930 . S
H577 C585 0.930 . S
H578 C586 0.930 . S
H579 C587 0.930 . S
H580 C590 0.930 . S
H581 C591 0.930 . S
C582 H576 0.930 . S
C582 C583 1.355 . S
C582 C584 1.415 . S
C583 C582 1.355 . S
C583 C585 1.419 . S
C584 C582 1.415 . S
C584 C589 1.425 . S
C584 C591 1.409 . S
C585 H577 0.930 . S
C585 C583 1.419 . S
C585 C586 1.362 . S
C586 H578 0.930 . S
C586 C585 1.362 . S
C586 C589 1.409 . S
C587 H579 0.930 . S
C587 C588 1.355 . S
C587 C589 1.415 . S
C588 C587 1.355 . S
C588 C590 1.419 . S
C589 C584 1.425 . S
C589 C586 1.409 . S
C589 C587 1.415 . S
C590 H580 0.930 . S
C590 C588 1.419 . S
C590 C591 1.362 . S
C591 H581 0.930 . S
C591 C584 1.409 . S
C591 C590 1.362 . S
H592 C598 0.930 . S
H593 C601 0.930 . S
H594 C602 0.930 . S
H595 C603 0.930 . S
H596 C606 0.930 . S
H597 C607 0.930 . S
C598 H592 0.930 . S
C598 C599 1.355 . S
C598 C600 1.415 . S
C599 C598 1.355 . S
C599 C601 1.419 . S
C600 C598 1.415 . S
C600 C605 1.425 . S
C600 C607 1.409 . S
C601 H593 0.930 . S
C601 C599 1.419 . S
C601 C602 1.362 . S
C602 H594 0.930 . S
C602 C601 1.362 . S
C602 C605 1.409 . S
C603 H595 0.930 . S
C603 C604 1.355 . S
C603 C605 1.415 . S
C604 C603 1.355 . S
C604 C606 1.419 . S
C605 C600 1.425 . S
C605 C602 1.409 . S
C605 C603 1.415 . S
C606 H596 0.930 . S
C606 C604 1.419 . S
C606 C607 1.362 . S
C607 H597 0.930 . S
C607 C600 1.409 . S
C607 C606 1.362 . S
H608 C614 0.930 . S
H609 C617 0.930 . S
H610 C618 0.930 . S
H611 C619 0.930 . S
H612 C622 0.930 . S
H613 C623 0.930 . S
C614 H608 0.930 . S
C614 C615 1.355 . S
C614 C616 1.415 . S
C615 C614 1.355 . S
C615 C617 1.419 . S
C616 C614 1.415 . S
C616 C621 1.425 . S
C616 C623 1.409 . S
C617 H609 0.930 . S
C617 C615 1.419 . S
C617 C618 1.362 . S
C618 H610 0.930 . S
C618 C617 1.362 . S
C618 C621 1.409 . S
C619 H611 0.930 . S
C619 C620 1.355 . S
C619 C621 1.415 . S
C620 C619 1.355 . S
C620 C622 1.419 . S
C621 C616 1.425 . S
C621 C618 1.409 . S
C621 C619 1.415 . S
C622 H612 0.930 . S
C622 C620 1.419 . S
C622 C623 1.362 . S
C623 H613 0.930 . S
C623 C616 1.409 . S
C623 C622 1.362 . S
H624 C630 0.930 . S
H625 C633 0.930 . S
H626 C634 0.930 . S
H627 C635 0.930 . S
H628 C638 0.930 . S
H629 C639 0.930 . S
C630 H624 0.930 . S
C630 C631 1.355 . S
C630 C632 1.415 . S
C631 C630 1.355 . S
C631 C633 1.419 . S
C632 C630 1.415 . S
C632 C637 1.425 . S
C632 C639 1.409 . S
C633 H625 0.930 . S
C633 C631 1.419 . S
C633 C634 1.362 . S
C634 H626 0.930 . S
C634 C633 1.362 . S
C634 C637 1.409 . S
C635 H627 0.930 . S
C635 C636 1.355 . S
C635 C637 1.415 . S
C636 C635 1.355 . S
C636 C638 1.419 . S
C637 C632 1.425 . S
C637 C634 1.409 . S
C637 C635 1.415 . S
C638 H628 0.930 . S
C638 C636 1.419 . S
C638 C639 1.362 . S
C639 H629 0.930 . S
C639 C632 1.409 . S
C639 C638 1.362 . S
H640 C646 0.930 . S
H641 C649 0.930 . S
H642 C650 0.930 . S
H643 C651 0.930 . S
H644 C654 0.930 . S
H645 C655 0.930 . S
C646 H640 0.930 . S
C646 C647 1.355 . S
C646 C648 1.415 . S
C647 C646 1.355 . S
C647 C649 1.419 . S
C648 C646 1.415 . S
C648 C653 1.425 . S
C648 C655 1.409 . S
C649 H641 0.930 . S
C649 C647 1.419 . S
C649 C650 1.362 . S
C650 H642 0.930 . S
C650 C649 1.362 . S
C650 C653 1.409 . S
C651 H643 0.930 . S
C651 C652 1.355 . S
C651 C653 1.415 . S
C652 C651 1.355 . S
C652 C654 1.419 . S
C653 C648 1.425 . S
C653 C650 1.409 . S
C653 C651 1.415 . S
C654 H644 0.930 . S
C654 C652 1.419 . S
C654 C655 1.362 . S
C655 H645 0.930 . S
C655 C648 1.409 . S
C655 C654 1.362 . S
H656 C662 0.930 . S
H657 C665 0.930 . S
H658 C666 0.930 . S
H659 C667 0.930 . S
H660 C670 0.930 . S
H661 C671 0.930 . S
C662 H656 0.930 . S
C662 C663 1.355 . S
C662 C664 1.415 . S
C663 C662 1.355 . S
C663 C665 1.419 . S
C664 C662 1.415 . S
C664 C669 1.425 . S
C664 C671 1.409 . S
C665 H657 0.930 . S
C665 C663 1.419 . S
C665 C666 1.362 . S
C666 H658 0.930 . S
C666 C665 1.362 . S
C666 C669 1.409 . S
C667 H659 0.930 . S
C667 C668 1.355 . S
C667 C669 1.415 . S
C668 C667 1.355 . S
C668 C670 1.419 . S
C669 C664 1.425 . S
C669 C666 1.409 . S
C669 C667 1.415 . S
C670 H660 0.930 . S
C670 C668 1.419 . S
C670 C671 1.362 . S
C671 H661 0.930 . S
C671 C664 1.409 . S
C671 C670 1.362 . S
H672 C678 0.930 . S
H673 C681 0.930 . S
H674 C682 0.930 . S
H675 C683 0.930 . S
H676 C686 0.930 . S
H677 C687 0.930 . S
C678 H672 0.930 . S
C678 C679 1.355 . S
C678 C680 1.415 . S
C679 C678 1.355 . S
C679 C681 1.419 . S
C680 C678 1.415 . S
C680 C685 1.425 . S
C680 C687 1.409 . S
C681 H673 0.930 . S
C681 C679 1.419 . S
C681 C682 1.362 . S
C682 H674 0.930 . S
C682 C681 1.362 . S
C682 C685 1.409 . S
C683 H675 0.930 . S
C683 C684 1.355 . S
C683 C685 1.415 . S
C684 C683 1.355 . S
C684 C686 1.419 . S
C685 C680 1.425 . S
C685 C682 1.409 . S
C685 C683 1.415 . S
C686 H676 0.930 . S
C686 C684 1.419 . S
C686 C687 1.362 . S
C687 H677 0.930 . S
C687 C680 1.409 . S
C687 C686 1.362 . S
H688 C694 0.930 . S
H689 C697 0.930 . S
H690 C698 0.930 . S
H691 C699 0.930 . S
H692 C702 0.930 . S
H693 C703 0.930 . S
C694 H688 0.930 . S
C694 C695 1.355 . S
C694 C696 1.415 . S
C695 C694 1.355 . S
C695 C697 1.419 . S
C696 C694 1.415 . S
C696 C701 1.425 . S
C696 C703 1.409 . S
C697 H689 0.930 . S
C697 C695 1.419 . S
C697 C698 1.362 . S
C698 H690 0.930 . S
C698 C697 1.362 . S
C698 C701 1.409 . S
C699 H691 0.930 . S
C699 C700 1.355 . S
C699 C701 1.415 . S
C700 C699 1.355 . S
C700 C702 1.419 . S
C701 C696 1.425 . S
C701 C698 1.409 . S
C701 C699 1.415 . S
C702 H692 0.930 . S
C702 C700 1.419 . S
C702 C703 1.362 . S
C703 H693 0.930 . S
C703 C696 1.409 . S
C703 C702 1.362 . S
H704 C710 0.930 . S
H705 C713 0.930 . S
H706 C714 0.930 . S
H707 C715 0.930 . S
H708 C718 0.930 . S
H709 C719 0.930 . S
C710 H704 0.930 . S
C710 C711 1.355 . S
C710 C712 1.415 . S
C711 C710 1.355 . S
C711 C713 1.419 . S
C712 C710 1.415 . S
C712 C717 1.425 . S
C712 C719 1.409 . S
C713 H705 0.930 . S
C713 C711 1.419 . S
C713 C714 1.362 . S
C714 H706 0.930 . S
C714 C713 1.362 . S
C714 C717 1.409 . S
C715 H707 0.930 . S
C715 C716 1.355 . S
C715 C717 1.415 . S
C716 C715 1.355 . S
C716 C718 1.419 . S
C717 C712 1.425 . S
C717 C714 1.409 . S
C717 C715 1.415 . S
C718 H708 0.930 . S
C718 C716 1.419 . S
C718 C719 1.362 . S
C719 H709 0.930 . S
C719 C712 1.409 . S
C719 C718 1.362 . S
H720 C726 0.930 . S
H721 C729 0.930 . S
H722 C730 0.930 . S
H723 C731 0.930 . S
H724 C734 0.930 . S
H725 C735 0.930 . S
C726 H720 0.930 . S
C726 C727 1.355 . S
C726 C728 1.415 . S
C727 C726 1.355 . S
C727 C729 1.419 . S
C728 C726 1.415 . S
C728 C733 1.425 . S
C728 C735 1.409 . S
C729 H721 0.930 . S
C729 C727 1.419 . S
C729 C730 1.362 . S
C730 H722 0.930 . S
C730 C729 1.362 . S
C730 C733 1.409 . S
C731 H723 0.930 . S
C731 C732 1.355 . S
C731 C733 1.415 . S
C732 C731 1.355 . S
C732 C734 1.419 . S
C733 C728 1.425 . S
C733 C730 1.409 . S
C733 C731 1.415 . S
C734 H724 0.930 . S
C734 C732 1.419 . S
C734 C735 1.362 . S
C735 H725 0.930 . S
C735 C728 1.409 . S
C735 C734 1.362 . S
H736 C742 0.930 . S
H737 C745 0.930 . S
H738 C746 0.930 . S
H739 C747 0.930 . S
H740 C750 0.930 . S
H741 C751 0.930 . S
C742 H736 0.930 . S
C742 C743 1.355 . S
C742 C744 1.415 . S
C743 C742 1.355 . S
C743 C745 1.419 . S
C744 C742 1.415 . S
C744 C749 1.425 . S
C744 C751 1.409 . S
C745 H737 0.930 . S
C745 C743 1.419 . S
C745 C746 1.362 . S
C746 H738 0.930 . S
C746 C745 1.362 . S
C746 C749 1.409 . S
C747 H739 0.930 . S
C747 C748 1.355 . S
C747 C749 1.415 . S
C748 C747 1.355 . S
C748 C750 1.419 . S
C749 C744 1.425 . S
C749 C746 1.409 . S
C749 C747 1.415 . S
C750 H740 0.930 . S
C750 C748 1.419 . S
C750 C751 1.362 . S
C751 H741 0.930 . S
C751 C744 1.409 . S
C751 C750 1.362 . S
H752 C758 0.930 . S
H753 C761 0.930 . S
H754 C762 0.930 . S
H755 C763 0.930 . S
H756 C766 0.930 . S
H757 C767 0.930 . S
C758 H752 0.930 . S
C758 C759 1.355 . S
C758 C760 1.415 . S
C759 C758 1.355 . S
C759 C761 1.419 . S
C760 C758 1.415 . S
C760 C765 1.425 . S
C760 C767 1.409 . S
C761 H753 0.930 . S
C761 C759 1.419 . S
C761 C762 1.362 . S
C762 H754 0.930 . S
C762 C761 1.362 . S
C762 C765 1.409 . S
C763 H755 0.930 . S
C763 C764 1.355 . S
C763 C765 1.415 . S
C764 C763 1.355 . S
C764 C766 1.419 . S
C765 C760 1.425 . S
C765 C762 1.409 . S
C765 C763 1.415 . S
C766 H756 0.930 . S
C766 C764 1.419 . S
C766 C767 1.362 . S
C767 H757 0.930 . S
C767 C760 1.409 . S
C767 C766 1.362 . S
H768 C774 0.930 . S
H769 C777 0.930 . S
H770 C778 0.930 . S
H771 C779 0.930 . S
H772 C782 0.930 . S
H773 C783 0.930 . S
C774 H768 0.930 . S
C774 C775 1.355 . S
C774 C776 1.415 . S
C775 C774 1.355 . S
C775 C777 1.419 . S
C776 C774 1.415 . S
C776 C781 1.425 . S
C776 C783 1.409 . S
C777 H769 0.930 . S
C777 C775 1.419 . S
C777 C778 1.362 . S
C778 H770 0.930 . S
C778 C777 1.362 . S
C778 C781 1.409 . S
C779 H771 0.930 . S
C779 C780 1.355 . S
C779 C781 1.415 . S
C780 C779 1.355 . S
C780 C782 1.419 . S
C781 C776 1.425 . S
C781 C778 1.409 . S
C781 C779 1.415 . S
C782 H772 0.930 . S
C782 C780 1.419 . S
C782 C783 1.362 . S
C783 H773 0.930 . S
C783 C776 1.409 . S
C783 C782 1.362 . S
H784 C790 0.930 . S
H785 C793 0.930 . S
H786 C794 0.930 . S
H787 C795 0.930 . S
H788 C798 0.930 . S
H789 C799 0.930 . S
C790 H784 0.930 . S
C790 C791 1.355 1_455 S
C790 C792 1.415 . S
C791 C790 1.355 1_655 S
C791 C793 1.419 . S
C792 C790 1.415 . S
C792 C797 1.425 . S
C792 C799 1.409 . S
C793 H785 0.930 . S
C793 C791 1.419 . S
C793 C794 1.362 . S
C794 H786 0.930 . S
C794 C793 1.362 . S
C794 C797 1.409 1_655 S
C795 H787 0.930 . S
C795 C796 1.355 . S
C795 C797 1.415 . S
C796 C795 1.355 . S
C796 C798 1.419 . S
C797 C792 1.425 . S
C797 C794 1.409 1_455 S
C797 C795 1.415 . S
C798 H788 0.930 . S
C798 C796 1.419 . S
C798 C799 1.362 . S
C799 H789 0.930 . S
C799 C792 1.409 . S
C799 C798 1.362 . S
H800 C806 0.930 . S
H801 C809 0.934 . S
H802 C810 0.930 . S
H803 C811 0.930 . S
H804 C814 0.930 . S
H805 C815 0.930 . S
C806 H800 0.930 . S
C806 C807 1.355 . S
C806 C808 1.415 1_455 S
C807 C806 1.355 . S
C807 C809 1.425 . S
C808 C806 1.415 1_655 S
C808 C813 1.425 . S
C808 C815 1.409 . S
C809 H801 0.934 . S
C809 C807 1.425 . S
C809 C810 1.353 1_455 S
C810 H802 0.930 . S
C810 C809 1.353 1_655 S
C810 C813 1.409 . S
C811 H803 0.930 . S
C811 C812 1.355 . S
C811 C813 1.415 . S
C812 C811 1.355 . S
C812 C814 1.419 . S
C813 C808 1.425 . S
C813 C810 1.409 . S
C813 C811 1.415 . S
C814 H804 0.930 . S
C814 C812 1.419 . S
C814 C815 1.362 . S
C815 H805 0.930 . S
C815 C808 1.409 . S
C815 C814 1.362 . S
H816 C822 0.930 . S
H817 C825 0.930 . S
H818 C826 0.930 . S
H819 C827 0.930 . S
H820 C830 0.930 . S
H821 C831 0.930 . S
C822 H816 0.930 . S
C822 C823 1.355 . S
C822 C824 1.415 . S
C823 C822 1.355 . S
C823 C825 1.419 . S
C824 C822 1.415 . S
C824 C829 1.425 . S
C824 C831 1.409 . S
C825 H817 0.930 . S
C825 C823 1.419 . S
C825 C826 1.362 . S
C826 H818 0.930 . S
C826 C825 1.362 . S
C826 C829 1.409 . S
C827 H819 0.930 . S
C827 C828 1.355 . S
C827 C829 1.415 . S
C828 C827 1.355 . S
C828 C830 1.419 . S
C829 C824 1.425 . S
C829 C826 1.409 . S
C829 C827 1.415 . S
C830 H820 0.930 . S
C830 C828 1.419 . S
C830 C831 1.362 . S
C831 H821 0.930 . S
C831 C824 1.409 . S
C831 C830 1.362 . S
H832 C838 0.930 . S
H833 C841 0.930 . S
H834 C842 0.930 . S
H835 C843 0.930 . S
H836 C846 0.930 . S
H837 C847 0.930 . S
C838 H832 0.930 . S
C838 C839 1.355 . S
C838 C840 1.415 . S
C839 C838 1.355 . S
C839 C841 1.419 . S
C840 C838 1.415 . S
C840 C845 1.425 . S
C840 C847 1.409 . S
C841 H833 0.930 . S
C841 C839 1.419 . S
C841 C842 1.362 . S
C842 H834 0.930 . S
C842 C841 1.362 . S
C842 C845 1.409 . S
C843 H835 0.930 . S
C843 C844 1.355 . S
C843 C845 1.415 . S
C844 C843 1.355 . S
C844 C846 1.419 . S
C845 C840 1.425 . S
C845 C842 1.409 . S
C845 C843 1.415 . S
C846 H836 0.930 . S
C846 C844 1.419 . S
C846 C847 1.362 . S
C847 H837 0.930 . S
C847 C840 1.409 . S
C847 C846 1.362 . S
H848 C854 0.930 . S
H849 C857 0.930 . S
H850 C858 0.930 . S
H851 C859 0.930 1_655 S
H852 C862 0.930 . S
H853 C863 0.930 . S
C854 H848 0.930 . S
C854 C855 1.355 1_455 S
C854 C856 1.415 . S
C855 C854 1.355 1_655 S
C855 C857 1.419 . S
C856 C854 1.415 . S
C856 C861 1.425 . S
C856 C863 1.409 . S
C857 H849 0.930 . S
C857 C855 1.419 . S
C857 C858 1.362 . S
C858 H850 0.930 . S
C858 C857 1.362 . S
C858 C861 1.409 1_655 S
C859 H851 0.930 1_455 S
C859 C860 1.355 . S
C859 C861 1.415 . S
C860 C859 1.355 . S
C860 C862 1.419 . S
C861 C856 1.425 . S
C861 C858 1.409 1_455 S
C861 C859 1.415 . S
C862 H852 0.930 . S
C862 C860 1.419 . S
C862 C863 1.362 . S
C863 H853 0.930 . S
C863 C856 1.409 . S
C863 C862 1.362 . S
H864 C870 0.930 . S
H865 C873 0.930 . S
H866 C874 0.930 . S
H867 C875 0.930 . S
H868 C878 0.930 . S
H869 C879 0.930 . S
C870 H864 0.930 . S
C870 C871 1.355 1_655 S
C870 C872 1.415 . S
C871 C870 1.355 1_455 S
C871 C873 1.419 . S
C872 C870 1.415 . S
C872 C877 1.425 . S
C872 C879 1.409 . S
C873 H865 0.930 . S
C873 C871 1.419 . S
C873 C874 1.362 . S
C874 H866 0.930 . S
C874 C873 1.362 . S
C874 C877 1.409 1_455 S
C875 H867 0.930 . S
C875 C876 1.355 . S
C875 C877 1.415 . S
C876 C875 1.355 . S
C876 C878 1.419 . S
C877 C872 1.425 . S
C877 C874 1.409 1_655 S
C877 C875 1.415 . S
C878 H868 0.930 . S
C878 C876 1.419 . S
C878 C879 1.362 . S
C879 H869 0.930 . S
C879 C872 1.409 . S
C879 C878 1.362 . S
H880 C886 0.930 . S
H881 C889 0.930 . S
H882 C890 0.930 1_565 S
H883 C891 0.930 1_556 S
H884 C894 0.930 . S
H885 C895 0.930 . S
C886 H880 0.930 . S
C886 C887 1.355 . S
C886 C888 1.415 1_556 S
C887 C886 1.355 . S
C887 C889 1.419 . S
C888 C886 1.415 1_554 S
C888 C893 1.425 1_554 S
C888 C895 1.409 . S
C889 H881 0.930 . S
C889 C887 1.419 . S
C889 C890 1.362 . S
C890 H882 0.930 1_545 S
C890 C889 1.362 . S
C890 C893 1.409 . S
C891 H883 0.930 1_554 S
C891 C892 1.355 . S
C891 C893 1.415 1_564 S
C892 C891 1.355 . S
C892 C894 1.419 1_565 S
C893 C888 1.425 1_556 S
C893 C890 1.409 . S
C893 C891 1.415 1_546 S
C894 H884 0.930 . S
C894 C892 1.419 1_545 S
C894 C895 1.362 . S
C895 H885 0.930 . S
C895 C888 1.409 . S
C895 C894 1.362 . S
H896 C902 0.930 . S
H897 C905 0.930 . S
H898 C906 0.930 . S
H899 C907 0.930 1_556 S
H900 C910 0.930 . S
H901 C911 0.930 . S
C902 H896 0.930 . S
C902 C903 1.355 . S
C902 C904 1.415 1_556 S
C903 C902 1.355 . S
C903 C905 1.419 . S
C904 C902 1.415 1_554 S
C904 C909 1.462 1_554 S
C904 C911 1.409 . S
C905 H897 0.930 . S
C905 C903 1.419 . S
C905 C906 1.362 1_565 S
C906 H898 0.930 . S
C906 C905 1.362 1_545 S
C906 C909 1.406 1_545 S
C907 H899 0.930 1_554 S
C907 C908 1.355 . S
C907 C909 1.384 1_544 S
C908 C907 1.355 . S
C908 C910 1.419 1_545 S
C909 C904 1.462 1_556 S
C909 C906 1.406 1_565 S
C909 C907 1.384 1_566 S
C910 H900 0.930 . S
C910 C908 1.419 1_565 S
C910 C911 1.362 . S
C911 H901 0.930 . S
C911 C904 1.409 . S
C911 C910 1.362 . S
H912 C918 0.930 . S
H913 C921 0.930 . S
H914 C922 0.930 . S
H915 C923 0.930 . S
H916 C926 0.930 . S
H917 C927 0.930 . S
C918 H912 0.930 . S
C918 C919 1.355 . S
C918 C920 1.415 . S
C919 C918 1.355 . S
C919 C921 1.419 . S
C920 C918 1.415 . S
C920 C925 1.425 . S
C920 C927 1.409 . S
C921 H913 0.930 . S
C921 C919 1.419 . S
C921 C922 1.362 . S
C922 H914 0.930 . S
C922 C921 1.362 . S
C922 C925 1.409 . S
C923 H915 0.930 . S
C923 C924 1.355 . S
C923 C925 1.415 . S
C924 C923 1.355 . S
C924 C926 1.419 . S
C925 C920 1.425 . S
C925 C922 1.409 . S
C925 C923 1.415 . S
C926 H916 0.930 . S
C926 C924 1.419 . S
C926 C927 1.362 . S
C927 H917 0.930 . S
C927 C920 1.409 . S
C927 C926 1.362 . S
H928 C934 0.930 . S
H929 C937 0.930 . S
H930 C938 0.930 . S
H931 C939 0.930 . S
H932 C942 0.930 . S
H933 C943 0.930 . S
C934 H928 0.930 . S
C934 C935 1.355 . S
C934 C936 1.415 . S
C935 C934 1.355 . S
C935 C937 1.419 . S
C936 C934 1.415 . S
C936 C941 1.425 . S
C936 C943 1.409 . S
C937 H929 0.930 . S
C937 C935 1.419 . S
C937 C938 1.362 . S
C938 H930 0.930 . S
C938 C937 1.362 . S
C938 C941 1.409 . S
C939 H931 0.930 . S
C939 C940 1.355 . S
C939 C941 1.415 . S
C940 C939 1.355 . S
C940 C942 1.419 . S
C941 C936 1.425 . S
C941 C938 1.409 . S
C941 C939 1.415 . S
C942 H932 0.930 . S
C942 C940 1.419 . S
C942 C943 1.362 . S
C943 H933 0.930 . S
C943 C936 1.409 . S
C943 C942 1.362 . S
H944 C950 0.930 . S
H945 C953 0.930 . S
H946 C954 0.930 . S
H947 C955 0.930 . S
H948 C958 0.930 . S
H949 C959 0.930 . S
C950 H944 0.930 . S
C950 C951 1.355 . S
C950 C952 1.415 1_554 S
C951 C950 1.355 . S
C951 C953 1.419 . S
C952 C950 1.415 1_556 S
C952 C957 1.431 . S
C952 C959 1.409 . S
C953 H945 0.930 . S
C953 C951 1.419 . S
C953 C954 1.362 . S
C954 H946 0.930 . S
C954 C953 1.362 . S
C954 C957 1.392 1_554 S
C955 H947 0.930 . S
C955 C956 1.355 . S
C955 C957 1.427 . S
C956 C955 1.355 . S
C956 C958 1.419 . S
C957 C952 1.431 . S
C957 C954 1.392 1_556 S
C957 C955 1.427 . S
C958 H948 0.930 . S
C958 C956 1.419 . S
C958 C959 1.362 . S
C959 H949 0.930 . S
C959 C952 1.409 . S
C959 C958 1.362 . S
H960 C966 0.930 . S
H961 C969 0.930 . S
H962 C970 0.930 . S
H963 C971 0.930 . S
H964 C974 0.930 . S
H965 C975 0.930 . S
C966 H960 0.930 . S
C966 C967 1.355 . S
C966 C968 1.415 1_554 S
C967 C966 1.355 . S
C967 C969 1.419 . S
C968 C966 1.415 1_556 S
C968 C973 1.424 1_556 S
C968 C975 1.409 . S
C969 H961 0.930 . S
C969 C967 1.419 . S
C969 C970 1.362 . S
C970 H962 0.930 . S
C970 C969 1.362 . S
C970 C973 1.412 . S
C971 H963 0.930 . S
C971 C972 1.355 . S
C971 C973 1.413 1_556 S
C972 C971 1.355 . S
C972 C974 1.419 . S
C973 C968 1.424 1_554 S
C973 C970 1.412 . S
C973 C971 1.413 1_554 S
C974 H964 0.930 . S
C974 C972 1.419 . S
C974 C975 1.362 . S
C975 H965 0.930 . S
C975 C968 1.409 . S
C975 C974 1.362 . S
H976 C982 0.930 . S
H977 C985 0.930 . S
H978 C986 0.930 . S
H979 C987 0.930 . S
H980 C990 0.930 . S
H981 C991 0.930 . S
C982 H976 0.930 . S
C982 C983 1.355 . S
C982 C984 1.415 . S
C983 C982 1.355 . S
C983 C985 1.419 . S
C984 C982 1.415 . S
C984 C989 1.425 . S
C984 C991 1.409 . S
C985 H977 0.930 . S
C985 C983 1.419 . S
C985 C986 1.362 . S
C986 H978 0.930 . S
C986 C985 1.362 . S
C986 C989 1.409 . S
C987 H979 0.930 . S
C987 C988 1.355 . S
C987 C989 1.415 . S
C988 C987 1.355 . S
C988 C990 1.419 . S
C989 C984 1.425 . S
C989 C986 1.409 . S
C989 C987 1.415 . S
C990 H980 0.930 . S
C990 C988 1.419 . S
C990 C991 1.362 . S
C991 H981 0.930 . S
C991 C984 1.409 . S
C991 C990 1.362 . S
H992 C998 0.930 . S
H993 C1001 0.930 . S
H994 C1002 0.930 . S
H995 C1003 0.930 . S
H996 C1006 0.930 . S
H997 C1007 0.930 . S
C998 H992 0.930 . S
C998 C999 1.355 . S
C998 C1000 1.415 . S
C999 C998 1.355 . S
C999 C1001 1.419 . S
C1000 C998 1.415 . S
C1000 C1005 1.425 . S
C1000 C1007 1.409 . S
C1001 H993 0.930 . S
C1001 C999 1.419 . S
C1001 C1002 1.362 . S
C1002 H994 0.930 . S
C1002 C1001 1.362 . S
C1002 C1005 1.409 . S
C1003 H995 0.930 . S
C1003 C1004 1.355 . S
C1003 C1005 1.415 . S
C1004 C1003 1.355 . S
C1004 C1006 1.419 . S
C1005 C1000 1.425 . S
C1005 C1002 1.409 . S
C1005 C1003 1.415 . S
C1006 H996 0.930 . S
C1006 C1004 1.419 . S
C1006 C1007 1.362 . S
C1007 H997 0.930 . S
C1007 C1000 1.409 . S
C1007 C1006 1.362 . S
H1008 C1014 0.930 . S
H1009 C1017 0.930 . S
H1010 C1018 0.930 . S
H1011 C1019 0.930 . S
H1012 C1022 0.930 . S
H1013 C1023 0.930 . S
C1014 H1008 0.930 . S
C1014 C1015 1.355 . S
C1014 C1016 1.392 1_565 S
C1015 C1014 1.355 . S
C1015 C1017 1.419 1_565 S
C1016 C1014 1.392 1_545 S
C1016 C1021 1.453 . S
C1016 C1023 1.406 1_545 S
C1017 H1009 0.930 . S
C1017 C1015 1.419 1_545 S
C1017 C1018 1.362 . S
C1018 H1010 0.930 . S
C1018 C1017 1.362 . S
C1018 C1021 1.409 . S
C1019 H1011 0.930 . S
C1019 C1020 1.355 . S
C1019 C1021 1.415 . S
C1020 C1019 1.355 . S
C1020 C1022 1.419 . S
C1021 C1016 1.453 . S
C1021 C1018 1.409 . S
C1021 C1019 1.415 . S
C1022 H1012 0.930 . S
C1022 C1020 1.419 . S
C1022 C1023 1.362 1_545 S
C1023 H1013 0.930 . S
C1023 C1016 1.406 1_565 S
C1023 C1022 1.362 1_565 S
H1024 C1030 0.930 . S
H1025 C1033 0.930 . S
H1026 C1034 0.930 . S
H1027 C1035 0.930 . S
H1028 C1038 0.930 . S
H1029 C1039 0.930 . S
C1030 H1024 0.930 . S
C1030 C1031 1.355 1_565 S
C1030 C1032 1.415 . S
C1031 C1030 1.355 1_545 S
C1031 C1033 1.419 . S
C1032 C1030 1.415 . S
C1032 C1037 1.425 . S
C1032 C1039 1.409 . S
C1033 H1025 0.930 . S
C1033 C1031 1.419 . S
C1033 C1034 1.362 . S
C1034 H1026 0.930 . S
C1034 C1033 1.362 . S
C1034 C1037 1.409 1_545 S
C1035 H1027 0.930 . S
C1035 C1036 1.355 . S
C1035 C1037 1.415 . S
C1036 C1035 1.355 . S
C1036 C1038 1.419 . S
C1037 C1032 1.425 . S
C1037 C1034 1.409 1_565 S
C1037 C1035 1.415 . S
C1038 H1028 0.930 . S
C1038 C1036 1.419 . S
C1038 C1039 1.362 . S
C1039 H1029 0.930 . S
C1039 C1032 1.409 . S
C1039 C1038 1.362 . S
H1040 C1046 0.930 . S
H1041 C1049 0.930 . S
H1042 C1050 0.930 . S
H1043 C1051 0.930 . S
H1044 C1054 0.930 . S
H1045 C1055 0.930 . S
C1046 H1040 0.930 . S
C1046 C1047 1.355 1_554 S
C1046 C1048 1.415 . S
C1047 C1046 1.355 1_556 S
C1047 C1049 1.419 . S
C1048 C1046 1.415 . S
C1048 C1053 1.425 1_554 S
C1048 C1055 1.409 . S
C1049 H1041 0.930 . S
C1049 C1047 1.419 . S
C1049 C1050 1.362 . S
C1050 H1042 0.930 . S
C1050 C1049 1.362 . S
C1050 C1053 1.409 . S
C1051 H1043 0.930 . S
C1051 C1052 1.355 . S
C1051 C1053 1.415 . S
C1052 C1051 1.355 . S
C1052 C1054 1.419 1_556 S
C1053 C1048 1.425 1_556 S
C1053 C1050 1.409 . S
C1053 C1051 1.415 . S
C1054 H1044 0.930 . S
C1054 C1052 1.419 1_554 S
C1054 C1055 1.362 . S
C1055 H1045 0.930 . S
C1055 C1048 1.409 . S
C1055 C1054 1.362 . S
H1056 C1062 0.930 . S
H1057 C1065 0.930 . S
H1058 C1066 0.930 . S
H1059 C1067 0.930 . S
H1060 C1070 0.930 . S
H1061 C1071 0.930 . S
C1062 H1056 0.930 . S
C1062 C1063 1.355 . S
C1062 C1064 1.415 . S
C1063 C1062 1.355 . S
C1063 C1065 1.419 . S
C1064 C1062 1.415 . S
C1064 C1069 1.425 . S
C1064 C1071 1.409 . S
C1065 H1057 0.930 . S
C1065 C1063 1.419 . S
C1065 C1066 1.362 . S
C1066 H1058 0.930 . S
C1066 C1065 1.362 . S
C1066 C1069 1.409 . S
C1067 H1059 0.930 . S
C1067 C1068 1.355 . S
C1067 C1069 1.415 . S
C1068 C1067 1.355 . S
C1068 C1070 1.419 . S
C1069 C1064 1.425 . S
C1069 C1066 1.409 . S
C1069 C1067 1.415 . S
C1070 H1060 0.930 . S
C1070 C1068 1.419 . S
C1070 C1071 1.362 . S
C1071 H1061 0.930 . S
C1071 C1064 1.409 . S
C1071 C1070 1.362 . S
H1072 C1078 0.930 . S
H1073 C1081 0.930 . S
H1074 C1082 0.930 1_655 S
H1075 C1083 0.930 . S
H1076 C1086 0.930 . S
H1077 C1087 0.930 1_455 S
C1078 H1072 0.930 . S
C1078 C1079 1.355 . S
C1078 C1080 1.415 . S
C1079 C1078 1.355 . S
C1079 C1081 1.419 . S
C1080 C1078 1.415 . S
C1080 C1085 1.425 1_455 S
C1080 C1087 1.409 1_455 S
C1081 H1073 0.930 . S
C1081 C1079 1.419 . S
C1081 C1082 1.362 . S
C1082 H1074 0.930 1_455 S
C1082 C1081 1.362 . S
C1082 C1085 1.409 1_455 S
C1083 H1075 0.930 . S
C1083 C1084 1.355 . S
C1083 C1085 1.415 . S
C1084 C1083 1.355 . S
C1084 C1086 1.419 . S
C1085 C1080 1.425 1_655 S
C1085 C1082 1.409 1_655 S
C1085 C1083 1.415 . S
C1086 H1076 0.930 . S
C1086 C1084 1.419 . S
C1086 C1087 1.362 . S
C1087 H1077 0.930 1_655 S
C1087 C1080 1.409 1_655 S
C1087 C1086 1.362 . S
H1088 C1094 0.930 . S
H1089 C1097 0.930 . S
H1090 C1098 0.930 . S
H1091 C1099 0.930 . S
H1092 C1102 0.930 . S
H1093 C1103 0.930 . S
C1094 H1088 0.930 . S
C1094 C1095 1.355 . S
C1094 C1096 1.415 . S
C1095 C1094 1.355 . S
C1095 C1097 1.419 . S
C1096 C1094 1.415 . S
C1096 C1101 1.425 . S
C1096 C1103 1.409 . S
C1097 H1089 0.930 . S
C1097 C1095 1.419 . S
C1097 C1098 1.362 . S
C1098 H1090 0.930 . S
C1098 C1097 1.362 . S
C1098 C1101 1.409 . S
C1099 H1091 0.930 . S
C1099 C1100 1.355 . S
C1099 C1101 1.415 . S
C1100 C1099 1.355 . S
C1100 C1102 1.419 . S
C1101 C1096 1.425 . S
C1101 C1098 1.409 . S
C1101 C1099 1.415 . S
C1102 H1092 0.930 . S
C1102 C1100 1.419 . S
C1102 C1103 1.362 . S
C1103 H1093 0.930 . S
C1103 C1096 1.409 . S
C1103 C1102 1.362 . S
H1104 C1110 0.930 . S
H1105 C1113 0.930 . S
H1106 C1114 0.930 . S
H1107 C1115 0.930 . S
H1108 C1118 0.930 . S
H1109 C1119 0.930 . S
C1110 H1104 0.930 . S
C1110 C1111 1.355 . S
C1110 C1112 1.415 . S
C1111 C1110 1.355 . S
C1111 C1113 1.419 . S
C1112 C1110 1.415 . S
C1112 C1117 1.425 . S
C1112 C1119 1.409 . S
C1113 H1105 0.930 . S
C1113 C1111 1.419 . S
C1113 C1114 1.362 . S
C1114 H1106 0.930 . S
C1114 C1113 1.362 . S
C1114 C1117 1.409 . S
C1115 H1107 0.930 . S
C1115 C1116 1.355 . S
C1115 C1117 1.415 . S
C1116 C1115 1.355 . S
C1116 C1118 1.419 . S
C1117 C1112 1.425 . S
C1117 C1114 1.409 . S
C1117 C1115 1.415 . S
C1118 H1108 0.930 . S
C1118 C1116 1.419 . S
C1118 C1119 1.362 . S
C1119 H1109 0.930 . S
C1119 C1112 1.409 . S
C1119 C1118 1.362 . S
H1120 C1126 0.930 . S
H1121 C1129 0.930 . S
H1122 C1130 0.924 1_565 S
H1123 C1131 0.930 . S
H1124 C1134 0.930 . S
H1125 C1135 0.924 1_545 S
C1126 H1120 0.930 . S
C1126 C1127 1.355 . S
C1126 C1128 1.415 . S
C1127 C1126 1.355 . S
C1127 C1129 1.419 . S
C1128 C1126 1.415 . S
C1128 C1133 1.425 1_445 S
C1128 C1135 1.405 1_445 S
C1129 H1121 0.930 . S
C1129 C1127 1.419 . S
C1129 C1130 1.375 . S
C1130 H1122 0.924 1_545 S
C1130 C1129 1.375 . S
C1130 C1133 1.405 1_445 S
C1131 H1123 0.930 . S
C1131 C1132 1.355 . S
C1131 C1133 1.415 . S
C1132 C1131 1.355 . S
C1132 C1134 1.419 . S
C1133 C1128 1.425 1_665 S
C1133 C1130 1.405 1_665 S
C1133 C1131 1.415 . S
C1134 H1124 0.930 . S
C1134 C1132 1.419 . S
C1134 C1135 1.375 . S
C1135 H1125 0.924 1_565 S
C1135 C1128 1.405 1_665 S
C1135 C1134 1.375 . S
H1136 C1142 0.930 . S
H1137 C1145 0.930 . S
H1138 C1146 0.930 . S
H1139 C1147 0.930 . S
H1140 C1150 0.930 . S
H1141 C1151 0.930 . S
C1142 H1136 0.930 . S
C1142 C1143 1.355 . S
C1142 C1144 1.415 . S
C1143 C1142 1.355 . S
C1143 C1145 1.419 . S
C1144 C1142 1.415 . S
C1144 C1149 1.425 . S
C1144 C1151 1.409 . S
C1145 H1137 0.930 . S
C1145 C1143 1.419 . S
C1145 C1146 1.362 . S
C1146 H1138 0.930 . S
C1146 C1145 1.362 . S
C1146 C1149 1.409 . S
C1147 H1139 0.930 . S
C1147 C1148 1.355 . S
C1147 C1149 1.415 . S
C1148 C1147 1.355 . S
C1148 C1150 1.419 . S
C1149 C1144 1.425 . S
C1149 C1146 1.409 . S
C1149 C1147 1.415 . S
C1150 H1140 0.930 . S
C1150 C1148 1.419 . S
C1150 C1151 1.362 . S
C1151 H1141 0.930 . S
C1151 C1144 1.409 . S
C1151 C1150 1.362 . S
H1152 C1158 0.930 . S
H1153 C1161 0.930 . S
H1154 C1162 0.930 . S
H1155 C1163 0.930 . S
H1156 C1166 0.930 . S
H1157 C1167 0.930 . S
C1158 H1152 0.930 . S
C1158 C1159 1.355 . S
C1158 C1160 1.415 . S
C1159 C1158 1.355 . S
C1159 C1161 1.419 1_565 S
C1160 C1158 1.415 . S
C1160 C1165 1.425 1_565 S
C1160 C1167 1.409 . S
C1161 H1153 0.930 . S
C1161 C1159 1.419 1_545 S
C1161 C1162 1.362 . S
C1162 H1154 0.930 . S
C1162 C1161 1.362 . S
C1162 C1165 1.409 . S
C1163 H1155 0.930 . S
C1163 C1164 1.355 . S
C1163 C1165 1.415 . S
C1164 C1163 1.355 . S
C1164 C1166 1.419 1_545 S
C1165 C1160 1.425 1_545 S
C1165 C1162 1.409 . S
C1165 C1163 1.415 . S
C1166 H1156 0.930 . S
C1166 C1164 1.419 1_565 S
C1166 C1167 1.362 . S
C1167 H1157 0.930 . S
C1167 C1160 1.409 . S
C1167 C1166 1.362 . S
C535 C28 1.769 . S
C540 N377 1.761 . S
C551 C61 1.739 . S
C556 N344 1.775 . S
C567 N47 1.756 . S
C572 C94 1.769 . S
C583 N14 1.774 . S
C588 C127 1.760 . S
C599 C160 1.754 . S
C604 N509 1.739 . S
C615 C193 1.758 . S
C620 N476 1.775 . S
C631 N179 1.761 . S
C636 C226 1.769 . S
C647 C259 1.753 . S
C652 N146 1.777 . S
C663 N113 1.754 . S
C668 C292 1.721 . S
C679 N80 1.761 . S
C684 C325 1.769 . S
C695 N311 1.757 . S
C700 C358 1.721 . S
C711 N278 1.774 . S
C716 C391 1.759 . S
C727 C424 1.744 . S
C732 N245 1.736 . S
C743 C457 1.726 . S
C748 N212 1.765 . S
C759 C490 1.764 . S
C764 N443 1.772 . S
C775 N410 1.745 . S
C780 C523 1.724 . S
C791 C182 1.181 . S
C796 C8 1.162 . S
C807 C149 1.212 . S
C812 C41 1.217 . S
C823 C74 1.206 . S
C828 C380 1.192 . S
C839 C347 1.187 . S
C844 C107 1.198 . S
C855 C50 1.189 . S
C860 C140 1.201 . S
C871 C17 1.203 . S
C876 C173 1.216 . S
C887 C206 1.150 . S
C892 C512 1.200 . S
C903 C239 1.148 . S
C908 C479 1.196 . S
C919 C272 1.173 . S
C924 C446 1.181 . S
C935 C413 1.207 . S
C940 C305 1.218 . S
C951 C116 1.181 . S
C956 C338 1.162 . S
C967 C83 1.181 . S
C972 C371 1.159 . S
C983 C314 1.181 . S
C988 C404 1.177 . S
C999 C281 1.181 . S
C1004 C437 1.180 . S
C1015 C248 1.183 . S
C1020 C470 1.186 . S
C1031 C215 1.216 . S
C1036 C503 1.213 . S
C1047 N434 1.463 . S
C1052 N5 1.394 . S
C1063 N38 1.446 . S
C1068 N401 1.424 . S
C1079 N71 1.445 . S
C1084 N104 1.398 . S
C1095 N302 1.398 . S
C1100 N137 1.444 . S
C1111 N170 1.455 . S
C1116 N269 1.412 . S
C1127 N203 1.462 . S
C1132 N236 1.398 . S
C1143 N368 1.462 . S
C1148 N335 1.398 . S
C1159 N500 1.415 . S
C1164 N467 1.453 . S
