# Generated by pormake.
# Topology sod, (4)-cn, num edge types: 1
# Building blocks:
#     Node 0, Type 0, BuildingBlock: TATPOV_clean_sbu_0, # of connection points: 4
#     Node 1, Type 0, BuildingBlock: TATPOV_clean_sbu_0, # of connection points: 4
#     Node 2, Type 0, BuildingBlock: TATPOV_clean_sbu_0, # of connection points: 4
#     Node 3, Type 0, BuildingBlock: TATPOV_clean_sbu_0, # of connection points: 4
#     Node 4, Type 0, BuildingBlock: TATPOV_clean_sbu_0, # of connection points: 4
#     Node 5, Type 0, BuildingBlock: TATPOV_clean_sbu_0, # of connection points: 4
#     Node 6, Type 0, BuildingBlock: TATPOV_clean_sbu_0, # of connection points: 4
#     Node 7, Type 0, BuildingBlock: TATPOV_clean_sbu_0, # of connection points: 4
#     Node 8, Type 0, BuildingBlock: TATPOV_clean_sbu_0, # of connection points: 4
#     Node 9, Type 0, BuildingBlock: TATPOV_clean_sbu_0, # of connection points: 4
#     Node 10, Type 0, BuildingBlock: TATPOV_clean_sbu_0, # of connection points: 4
#     Node 11, Type 0, BuildingBlock: TATPOV_clean_sbu_0, # of connection points: 4
#     Edge 12, Type (0, 0), BuildingBlock: ZUJKAS_clean_linker_0, # of connection points: 2
#     Edge 13, Type (0, 0), BuildingBlock: ZUJKAS_clean_linker_0, # of connection points: 2
#     Edge 14, Type (0, 0), BuildingBlock: ZUJKAS_clean_linker_0, # of connection points: 2
#     Edge 15, Type (0, 0), BuildingBlock: ZUJKAS_clean_linker_0, # of connection points: 2
#     Edge 16, Type (0, 0), BuildingBlock: ZUJKAS_clean_linker_0, # of connection points: 2
#     Edge 17, Type (0, 0), BuildingBlock: ZUJKAS_clean_linker_0, # of connection points: 2
#     Edge 18, Type (0, 0), BuildingBlock: ZUJKAS_clean_linker_0, # of connection points: 2
#     Edge 19, Type (0, 0), BuildingBlock: ZUJKAS_clean_linker_0, # of connection points: 2
#     Edge 20, Type (0, 0), BuildingBlock: ZUJKAS_clean_linker_0, # of connection points: 2
#     Edge 21, Type (0, 0), BuildingBlock: ZUJKAS_clean_linker_0, # of connection points: 2
#     Edge 22, Type (0, 0), BuildingBlock: ZUJKAS_clean_linker_0, # of connection points: 2
#     Edge 23, Type (0, 0), BuildingBlock: ZUJKAS_clean_linker_0, # of connection points: 2
#     Edge 24, Type (0, 0), BuildingBlock: ZUJKAS_clean_linker_0, # of connection points: 2
#     Edge 25, Type (0, 0), BuildingBlock: ZUJKAS_clean_linker_0, # of connection points: 2
#     Edge 26, Type (0, 0), BuildingBlock: ZUJKAS_clean_linker_0, # of connection points: 2
#     Edge 27, Type (0, 0), BuildingBlock: ZUJKAS_clean_linker_0, # of connection points: 2
#     Edge 28, Type (0, 0), BuildingBlock: ZUJKAS_clean_linker_0, # of connection points: 2
#     Edge 29, Type (0, 0), BuildingBlock: ZUJKAS_clean_linker_0, # of connection points: 2
#     Edge 30, Type (0, 0), BuildingBlock: ZUJKAS_clean_linker_0, # of connection points: 2
#     Edge 31, Type (0, 0), BuildingBlock: ZUJKAS_clean_linker_0, # of connection points: 2
#     Edge 32, Type (0, 0), BuildingBlock: ZUJKAS_clean_linker_0, # of connection points: 2
#     Edge 33, Type (0, 0), BuildingBlock: ZUJKAS_clean_linker_0, # of connection points: 2
#     Edge 34, Type (0, 0), BuildingBlock: ZUJKAS_clean_linker_0, # of connection points: 2
#     Edge 35, Type (0, 0), BuildingBlock: ZUJKAS_clean_linker_0, # of connection points: 2
# Relax obj value: 0.089
# Max RMSD: 0.145
# Mean RMSD: 0.126
data_MOF--net-sod--node1-TATPOV_clean_sbu_0--edge1-ZUJKAS_clean_linker_0
_symmetry_space_group_name_H-M    P1
_symmetry_Int_Tables_number       1
_symmetry_cell_setting            triclinic
loop_
_symmetry_equiv_pos_as_xyz
'x, y, z'
_cell_length_a     53.726712
_cell_length_b     54.390535
_cell_length_c     55.839565
_cell_angle_alpha  90.624144
_cell_angle_beta   90.613901
_cell_angle_gamma 92.026867
loop_
_atom_site_label
_atom_site_type_symbol
_atom_site_fract_x
_atom_site_fract_y
_atom_site_fract_z
_atom_type_partial_charge
Zn0 Zn 0.00955 0.22364 0.4493 0.0
Zn1 Zn 0.01254 0.25194 0.48856 0.0
O2 O 0.04626 0.23479 0.48871 0.0
O3 O 0.0447 0.21378 0.45471 0.0
O4 O 0.01471 0.27488 0.51752 0.0
O5 O 0.0029 0.25209 0.42863 0.0
O6 O 0.00801 0.27611 0.46044 0.0
C7 C 0.05642 0.22074 0.4735 0.0
C8 C 0.97196 0.2107 0.48303 0.0
O9 O 0.98202 0.22857 0.49507 0.0
O10 O 0.98076 0.20461 0.46299 0.0
C11 C 0.00956 0.2681 0.53869 0.0
O12 O 0.00273 0.24504 0.5424 0.0
C13 C 0.0039 0.27336 0.438 0.0
Zn14 Zn 0.78597 0.96792 0.54332 0.0
Zn15 Zn 0.77026 0.97446 0.49821 0.0
O16 O 0.79048 0.94282 0.49626 0.0
O17 O 0.80404 0.93816 0.53324 0.0
O18 O 0.75571 0.97777 0.46494 0.0
O19 O 0.75095 0.96395 0.55469 0.0
O20 O 0.73846 0.97348 0.51841 0.0
C21 C 0.80282 0.9309 0.51165 0.0
C22 C 0.80259 0.01448 0.52321 0.0
O23 O 0.79157 0.00606 0.50435 0.0
O24 O 0.80253 0.00191 0.54219 0.0
C25 C 0.74471 -0.00267 0.45965 0.0
O26 O 0.74454 0.01536 0.4755 0.0
C27 C 0.73359 0.9685 0.54012 0.0
Zn28 Zn 0.04648 0.75224 0.46448 0.0
Zn29 Zn 0.04011 0.74141 0.51112 0.0
O30 O 0.00894 0.76075 0.50326 0.0
O31 O 0.01315 0.76838 0.46482 0.0
O32 O 0.03621 0.73109 0.5455 0.0
O33 O 0.04853 0.71645 0.45661 0.0
O34 O 0.04084 0.7077 0.49427 0.0
C35 C 0.00072 0.76986 0.4839 0.0
C36 C 0.08549 0.77266 0.49446 0.0
O37 O 0.07291 0.76226 0.511 0.0
O38 O 0.07795 0.77128 0.47293 0.0
C39 C 0.01569 0.72091 0.55181 0.0
O40 O -0.00275 0.71906 0.53617 0.0
C41 C 0.04491 0.70077 0.47288 0.0
Zn42 Zn 0.2506 0.01906 0.57229 0.0
Zn43 Zn 0.28074 0.01857 0.53402 0.0
O44 O 0.25724 0.04679 0.5266 0.0
O45 O 0.23197 0.04633 0.55742 0.0
O46 O 0.30295 0.01721 0.50494 0.0
O47 O 0.27985 0.02783 0.59332 0.0
O48 O 0.30493 0.02612 0.56239 0.0
C49 C 0.23885 0.0555 0.53773 0.0
C50 C 0.2488 0.97274 0.54812 0.0
O51 O 0.26391 0.98399 0.53422 0.0
O52 O 0.24041 0.98368 0.56627 0.0
C53 C 0.29446 0.00827 0.4852 0.0
O54 O 0.27111 0.00028 0.48398 0.0
C55 C 0.30152 0.02964 0.58473 0.0
Zn56 Zn 0.51023 0.06663 0.28483 0.0
Zn57 Zn 0.50725 0.02553 0.25864 0.0
O58 O 0.47627 0.02143 0.28065 0.0
O59 O 0.47841 0.05641 0.30099 0.0
O60 O 0.50531 -0.00359 0.23545 0.0
O61 O 0.50937 0.0886 0.25641 0.0
O62 O 0.5068 0.05464 0.23468 0.0
C63 C 0.46749 0.03586 0.29643 0.0
C64 C 0.55217 0.03599 0.29226 0.0
O65 O 0.54064 0.02186 0.27712 0.0
O66 O 0.54304 0.05627 0.29829 0.0
C67 C 0.50719 0.97388 0.24085 0.0
O68 O 0.51016 0.96796 0.26343 0.0
C69 C 0.50777 0.07811 0.23611 0.0
Zn70 Zn 0.98108 0.56114 0.24132 0.0
Zn71 Zn 0.99319 0.51422 0.25376 0.0
O72 O 0.01894 0.52291 0.22877 0.0
O73 O 0.0102 0.56058 0.21812 0.0
O74 O 0.003 0.48193 0.2668 0.0
O75 O 0.98564 0.5722 0.27619 0.0
O76 O 0.9944 0.53406 0.28445 0.0
C77 C 0.02329 0.54174 0.21595 0.0
C78 C 0.94288 0.52277 0.2309 0.0
O79 O 0.95865 0.50836 0.23963 0.0
O80 O 0.94784 0.54572 0.22999 0.0
C81 C 0.99269 0.46107 0.26205 0.0
O82 O 0.97522 0.45919 0.24544 0.0
C83 C 0.9912 0.55602 0.29131 0.0
Zn84 Zn 0.55889 0.08038 0.7553 0.0
Zn85 Zn 0.5534 0.03055 0.76294 0.0
O86 O 0.57964 0.03169 0.73728 0.0
O87 O 0.58329 0.07128 0.72927 0.0
O88 O 0.54953 0.99515 0.7724 0.0
O89 O 0.56933 0.08535 0.79027 0.0
O90 O 0.56254 0.0457 0.79517 0.0
C91 C 0.58892 0.04923 0.72498 0.0
C92 C 0.50994 0.0596 0.74353 0.0
O93 O 0.51991 0.03961 0.74927 0.0
O94 O 0.52217 0.07991 0.74559 0.0
C95 C 0.52863 0.98637 0.77935 0.0
O96 O 0.50891 -0.00013 0.77781 0.0
C97 C 0.56857 0.06678 0.80379 0.0
Zn98 Zn 0.94272 0.49309 0.73085 0.0
Zn99 Zn 0.98498 0.49391 0.75598 0.0
O100 O 0.9879 0.52641 0.7371 0.0
O101 O 0.95278 0.52571 0.71641 0.0
O102 O 0.01586 0.49532 0.77723 0.0
O103 O 0.92187 0.49215 0.76033 0.0
O104 O 0.95671 0.49257 0.78136 0.0
C105 C 0.97339 0.53633 0.72207 0.0
C106 C 0.9733 0.4525 0.71893 0.0
O107 O 0.98831 0.46282 0.73416 0.0
O108 O 0.95233 0.4616 0.71482 0.0
C109 C 0.0378 0.49088 0.77044 0.0
O110 O 0.04143 0.48448 0.74803 0.0
C111 C 0.93294 0.49211 0.78043 0.0
Zn112 Zn 0.26751 0.50932 0.04439 0.0
Zn113 Zn 0.24575 0.51398 0.00167 0.0
O114 O 0.26565 0.48216 0.99788 0.0
O115 O 0.28473 0.4796 0.0328 0.0
O116 O 0.22573 0.51617 0.97079 0.0
O117 O 0.2351 0.50532 0.06107 0.0
O118 O 0.21733 0.51276 0.02635 0.0
C119 C 0.28042 0.47118 0.0119 0.0
C120 C 0.28069 0.5551 0.02141 0.0
O121 O 0.2677 0.54602 0.00397 0.0
O122 O 0.28289 0.54322 0.04065 0.0
C123 C 0.23179 0.50777 0.95039 0.0
O124 O 0.25345 0.49762 0.94797 0.0
C125 C 0.2157 0.50874 0.04874 0.0
Zn126 Zn 0.47558 0.24919 0.93584 0.0
Zn127 Zn 0.48222 0.24603 0.98422 0.0
O128 O 0.4498 0.26466 0.98115 0.0
O129 O 0.44375 0.26685 0.94213 0.0
O130 O 0.48661 0.23896 0.01933 0.0
O131 O 0.47539 0.21212 0.93247 0.0
O132 O 0.48233 0.21094 0.97126 0.0
C133 C 0.43695 0.27163 0.96329 0.0
C134 C 0.52083 0.27417 0.95458 0.0
O135 O 0.51284 0.2668 0.97477 0.0
O136 O 0.50859 0.26891 0.93553 0.0
C137 C 0.50551 0.22659 0.02467 0.0
O138 O 0.52171 0.22202 0.00787 0.0
C139 C 0.47944 0.19992 0.95121 0.0
Zn140 Zn 0.70128 0.49138 0.05277 0.0
Zn141 Zn 0.73527 0.49839 0.01864 0.0
O142 O 0.72151 0.53322 0.02277 0.0
O143 O 0.69715 0.52799 0.05396 0.0
O144 O 0.76241 0.50185 0.99388 0.0
O145 O 0.72628 0.47635 0.0746 0.0
O146 O 0.75466 0.48668 0.04805 0.0
C147 C 0.7072 0.54198 0.03858 0.0
C148 C 0.6895 0.46369 0.0102 0.0
O149 O 0.71067 0.47241 0.0037 0.0
O150 O 0.68063 0.46995 0.03017 0.0
C151 C 0.75755 0.50193 0.97155 0.0
O152 O 0.73418 0.50075 0.96434 0.0
C153 C 0.74885 0.47786 0.06838 0.0
Zn154 Zn 0.51694 0.74276 0.96487 0.0
Zn155 Zn 0.51463 0.7729 0.00214 0.0
O156 O 0.54682 0.75388 0.009 0.0
O157 O 0.54948 0.73072 0.97659 0.0
O158 O 0.5129 0.79741 0.02981 0.0
O159 O 0.51627 0.76993 0.94163 0.0
O160 O 0.51612 0.79565 0.97235 0.0
C161 C 0.55831 0.73811 0.9966 0.0
C162 C 0.47289 0.73375 0.99176 0.0
O163 O 0.48187 0.75156 0.00462 0.0
O164 O 0.48477 0.72618 0.97386 0.0
C165 C 0.51278 0.79095 0.05165 0.0
O166 O 0.5138 0.76746 0.0567 0.0
C167 C 0.51621 0.79169 0.94976 0.0
H168 H 0.98284 0.27333 0.39366 0.0
H169 H 0.98187 0.30727 0.36557 0.0
H170 H 0.01802 0.35552 0.41803 0.0
H171 H 0.01898 0.32144 0.44661 0.0
H172 H 0.96175 0.35944 0.37509 0.0
H173 H 0.06233 0.35293 0.35302 0.0
H174 H 0.04455 0.32708 0.36484 0.0
H175 H 0.05306 0.35275 0.38396 0.0
C176 C 0.99042 0.29119 0.39937 0.0
C177 C 0.00116 0.29472 0.42228 0.0
C178 C 0.98979 0.31053 0.3833 0.0
C179 C 6e-05 0.33367 0.38975 0.0
C180 C 0.01012 0.33762 0.41282 0.0
H181 H 0.02512 0.46058 0.29994 0.0
H182 H 0.02749 0.4294 0.33081 0.0
C183 C 0.01056 0.31824 0.4291 0.0
C184 C 0.00087 0.35322 0.37176 0.0
H185 H 0.03906 0.38076 0.33086 0.0
C186 C 0.97864 0.36432 0.3655 0.0
C187 C 0.02299 0.35931 0.3594 0.0
C188 C 0.04717 0.34743 0.36545 0.0
C189 C 0.9779 0.38148 0.34699 0.0
C190 C -0.00014 0.38702 0.33405 0.0
C191 C 0.02222 0.37623 0.34067 0.0
C192 C 0.0001 0.40453 0.31401 0.0
C193 C 0.9537 0.39372 0.3417 0.0
C194 C 0.98468 0.40034 0.29381 0.0
C195 C 0.98314 0.41821 0.27612 0.0
C196 C -0.0028 0.44042 0.27831 0.0
C197 C 0.01387 0.44376 0.29779 0.0
C198 C 0.01527 0.42597 0.31548 0.0
H199 H 0.94078 0.39247 0.35708 0.0
H200 H 0.957 0.41342 0.3373 0.0
H201 H 0.94437 0.38441 0.32609 0.0
H202 H 0.97332 0.38355 0.29207 0.0
H203 H 0.9703 0.415 0.26124 0.0
H204 H 0.73405 0.96075 0.4265 0.0
H205 H 0.70659 0.96278 0.39127 0.0
H206 H 0.69458 0.03923 0.40687 0.0
H207 H 0.72195 0.03744 0.44192 0.0
H208 H 0.65614 0.97483 0.39279 0.0
H209 H 0.70922 0.03928 0.33489 0.0
H210 H 0.7235 0.02333 0.3594 0.0
H211 H 0.70645 0.05065 0.365 0.0
C212 C 0.72589 0.9781 0.4222 0.0
C213 C 0.73018 -0.00105 0.43704 0.0
C214 C 0.71019 0.9792 0.40208 0.0
C215 C 0.69881 0.00123 0.39628 0.0
C216 C 0.70356 0.02217 0.41073 0.0
H217 H 0.58248 0.06417 0.32162 0.0
H218 H 0.61956 0.05219 0.34321 0.0
C219 C 0.7191 0.02107 0.43088 0.0
C220 C 0.68032 0.00204 0.37642 0.0
H221 H 0.66511 0.03495 0.32701 0.0
C222 C 0.65826 0.98756 0.37807 0.0
C223 C 0.68321 0.0186 0.35723 0.0
C224 C 0.70699 0.03367 0.35384 0.0
C225 C 0.63828 0.99049 0.36202 0.0
C226 C 0.64067 0.00807 0.34361 0.0
C227 C 0.66329 0.02152 0.34116 0.0
C228 C 0.61901 0.01509 0.32882 0.0
C229 C 0.61424 0.97594 0.36583 0.0
C230 C 0.60656 -0.00169 0.31312 0.0
C231 C 0.58509 0.00511 0.30067 0.0
C232 C 0.57583 0.02881 0.30374 0.0
C233 C 0.58891 0.04571 0.3189 0.0
C234 C 0.61023 0.03893 0.33124 0.0
H235 H 0.61423 0.96597 0.38309 0.0
H236 H 0.59818 0.98824 0.36551 0.0
H237 H 0.61148 0.96219 0.35113 0.0
H238 H 0.61326 0.97991 0.31073 0.0
H239 H 0.57551 0.99171 0.28905 0.0
H240 H 0.0017 0.52504 0.32797 0.0
H241 H 0.00709 0.53544 0.37043 0.0
H242 H 0.99251 0.61123 0.35529 0.0
H243 H 0.98673 0.601 0.3129 0.0
H244 H 0.04206 0.56629 0.39 0.0
H245 H 0.94961 0.59898 0.41345 0.0
H246 H 0.95468 0.58058 0.38691 0.0
H247 H 0.95989 0.61352 0.38648 0.0
C248 C -0.00062 0.54391 0.3337 0.0
C249 C 0.99381 0.56226 0.31704 0.0
C250 C 0.00237 0.54974 0.35799 0.0
C251 C -0.00035 0.57395 0.36606 0.0
C252 C 0.99394 0.59225 0.34952 0.0
H253 H 0.06815 0.67917 0.43596 0.0
H254 H 0.0586 0.63874 0.41882 0.0
C255 C 0.99092 0.58646 0.32525 0.0
C256 C 0.00528 0.58096 0.39122 0.0
H257 H 0.9852 0.61972 0.43451 0.0
C258 C 0.02936 0.57731 0.40018 0.0
C259 C 0.98849 0.59445 0.40501 0.0
C260 C 0.96163 0.59683 0.39755 0.0
C261 C 0.03811 0.58973 0.42088 0.0
C262 C 0.02254 0.60649 0.43239 0.0
C263 C -0.00261 0.60727 0.42541 0.0
C264 C 0.03303 0.62744 0.44673 0.0
C265 C 0.06455 0.58626 0.42915 0.0
C266 C 0.02223 0.63447 0.46845 0.0
C267 C 0.02767 0.65786 0.47829 0.0
C268 C 0.04354 0.67453 0.4662 0.0
C269 C 0.05571 0.66672 0.44552 0.0
C270 C 0.0505 0.64342 0.43589 0.0
H271 H 0.06971 0.56683 0.4265 0.0
H272 H 0.07738 0.59786 0.41822 0.0
H273 H 0.06726 0.59142 0.44832 0.0
H274 H 0.00848 0.62251 0.47693 0.0
H275 H 0.01803 0.66351 0.49426 0.0
H276 H 0.28219 0.98918 0.4409 0.0
H277 H 0.30858 0.98721 0.40556 0.0
H278 H 0.36926 0.02252 0.44548 0.0
H279 H 0.34315 0.02424 0.48101 0.0
H280 H 0.33043 0.02489 0.38098 0.0
H281 H 0.40287 0.96424 0.41532 0.0
H282 H 0.37345 0.96766 0.43013 0.0
H283 H 0.39848 0.99015 0.43479 0.0
C284 C 0.30121 -0.00361 0.44224 0.0
C285 C 0.31057 0.00682 0.46384 0.0
C286 C 0.31627 0.99522 0.422 0.0
C287 C 0.34104 0.00431 0.42296 0.0
C288 C 0.35041 0.01481 0.44447 0.0
H289 H 0.43847 0.06622 0.32191 0.0
H290 H 0.40525 0.05506 0.34937 0.0
C291 C 0.33538 0.01597 0.46473 0.0
C292 C 0.35669 0.00414 0.40118 0.0
H293 H 0.41371 0.98829 0.38074 0.0
C294 C 0.34848 0.01655 0.38081 0.0
C295 C 0.38001 0.99281 0.40069 0.0
C296 C 0.38912 0.97774 0.42132 0.0
C297 C 0.36359 0.01925 0.36057 0.0
C298 C 0.38771 0.0096 0.36086 0.0
C299 C 0.39531 0.99588 0.38061 0.0
C300 C 0.40628 0.01594 0.3422 0.0
C301 C 0.35378 0.03284 0.33925 0.0
C302 C 0.41809 -0.00238 0.32901 0.0
C303 C 0.4373 0.00398 0.31313 0.0
C304 C 0.44523 0.02874 0.31058 0.0
C305 C 0.43288 0.04697 0.32344 0.0
C306 C 0.4137 0.04064 0.33906 0.0
H307 H 0.3331 0.03161 0.33836 0.0
H308 H 0.35954 0.05259 0.34093 0.0
H309 H 0.36125 0.02553 0.32224 0.0
H310 H 0.41276 0.97841 0.33134 0.0
H311 H 0.44655 0.98952 0.30361 0.0
H312 H 0.94504 0.56322 0.69209 0.0
H313 H 0.95732 0.60018 0.6704 0.0
H314 H 0.03006 0.60029 0.70381 0.0
H315 H 0.01799 0.56279 0.72557 0.0
H316 H 0.97497 0.64722 0.68654 0.0
H317 H 0.04475 0.59931 0.63145 0.0
H318 H 0.02185 0.58268 0.64897 0.0
H319 H 0.04826 0.5978 0.66345 0.0
C320 C 0.96365 0.57107 0.69498 0.0
C321 C 0.98062 0.55985 0.71042 0.0
C322 C 0.9706 0.5923 0.68261 0.0
C323 C 0.99467 0.60281 0.68528 0.0
C324 C 0.01149 0.59223 0.70125 0.0
H325 H 0.0524 0.71431 0.58541 0.0
H326 H 0.04951 0.68951 0.62171 0.0
C327 C 0.00453 0.57089 0.71373 0.0
C328 C 0.00204 0.62416 0.67033 0.0
H329 H 0.03638 0.63988 0.62139 0.0
C330 C 0.98868 0.64579 0.67252 0.0
C331 C 0.02 0.62228 0.65213 0.0
C332 C 0.0345 0.59927 0.64862 0.0
C333 C 0.9921 0.6652 0.65638 0.0
C334 C 0.00901 0.66272 0.63736 0.0
C335 C 0.02339 0.6417 0.63598 0.0
C336 C 0.01022 0.68032 0.61727 0.0
C337 C 0.97719 0.68796 0.65955 0.0
C338 C 0.98905 0.68353 0.60285 0.0
C339 C 0.99064 0.69759 0.58211 0.0
C340 C 0.01349 0.70863 0.57528 0.0
C341 C 0.03451 0.7061 0.59019 0.0
C342 C 0.03291 0.69192 0.61092 0.0
H343 H 0.97181 0.69059 0.67854 0.0
H344 H 0.98778 0.70466 0.6536 0.0
H345 H 0.95982 0.68598 0.64866 0.0
H346 H 0.97147 0.67432 0.6071 0.0
H347 H 0.9741 0.69912 0.57104 0.0
H348 H 0.48193 0.09829 0.72984 0.0
H349 H 0.44356 0.09628 0.70579 0.0
H350 H 0.44429 0.01698 0.7059 0.0
H351 H 0.482 0.01876 0.73043 0.0
H352 H 0.43929 0.07744 0.66139 0.0
H353 H 0.37248 0.02795 0.71991 0.0
H354 H 0.40175 0.04106 0.73103 0.0
H355 H 0.40047 0.01138 0.71634 0.0
C356 C 0.4736 0.08043 0.72519 0.0
C357 C 0.48505 0.0587 0.73201 0.0
C358 C 0.45173 0.07932 0.71141 0.0
C359 C 0.44096 0.05649 0.70425 0.0
C360 C 0.45193 0.03479 0.71168 0.0
H361 H 0.35122 0.02246 0.57779 0.0
H362 H 0.38529 0.03068 0.60665 0.0
C363 C 0.47362 0.03587 0.72561 0.0
C364 C 0.41963 0.05522 0.68728 0.0
H365 H 0.36222 0.02795 0.67791 0.0
C366 C 0.42227 0.0669 0.6651 0.0
C367 C 0.3974 0.04164 0.69225 0.0
C368 C 0.39274 0.03002 0.71628 0.0
C369 C 0.40353 0.0648 0.64746 0.0
C370 C 0.38191 0.05007 0.65194 0.0
C371 C 0.37899 0.03896 0.67437 0.0
C372 C 0.36181 0.04616 0.63386 0.0
C373 C 0.407 0.07855 0.62434 0.0
C374 C 0.33735 0.05173 0.63974 0.0
C375 C 0.31792 0.04664 0.62356 0.0
C376 C 0.32257 0.03598 0.60106 0.0
C377 C 0.34715 0.03085 0.59493 0.0
C378 C 0.36661 0.03567 0.61133 0.0
H379 H 0.4205 0.09439 0.62657 0.0
H380 H 0.41444 0.06597 0.61061 0.0
H381 H 0.38907 0.08547 0.61759 0.0
H382 H 0.33324 0.05983 0.65701 0.0
H383 H 0.2992 0.05097 0.62875 0.0
H384 H 0.99317 0.26139 0.58449 0.0
H385 H 0.99141 0.29214 0.61667 0.0
H386 H 0.02604 0.34642 0.57088 0.0
H387 H 0.02729 0.31597 0.53839 0.0
H388 H 0.0268 0.32115 0.64084 0.0
H389 H 0.96228 0.3789 0.58959 0.0
H390 H 0.96951 0.34821 0.58007 0.0
H391 H 0.99103 0.37358 0.57465 0.0
C392 C 0.0005 0.27984 0.58126 0.0
C393 C 0.01008 0.28628 0.55874 0.0
C394 C -0.00045 0.29739 0.59972 0.0
C395 C 0.00819 0.32171 0.59608 0.0
C396 C 0.01873 0.32793 0.57394 0.0
H397 H 0.02024 0.43672 0.70878 0.0
H398 H 0.03086 0.40422 0.6801 0.0
C399 C 0.01951 0.31045 0.55541 0.0
C400 C 0.00516 0.34071 0.61509 0.0
H401 H 0.97679 0.39463 0.62688 0.0
C402 C 0.01592 0.33726 0.63782 0.0
C403 C 0.99072 0.3616 0.61119 0.0
C404 C 0.97752 0.36576 0.58765 0.0
C405 C 0.01251 0.35407 0.65676 0.0
C406 C -0.00172 0.37507 0.65274 0.0
C407 C 0.98779 0.3786 0.62994 0.0
C408 C 0.99257 0.39298 0.67207 0.0
C409 C 0.02347 0.34881 0.68107 0.0
C410 C 0.96762 0.39738 0.67723 0.0
C411 C 0.96156 0.41601 0.69326 0.0
C412 C 0.98032 0.43069 0.70468 0.0
C413 C 0.00539 0.42559 0.70041 0.0
C414 C 0.01147 0.40699 0.68407 0.0
H415 H 0.02876 0.32932 0.68261 0.0
H416 H 0.04048 0.36066 0.68402 0.0
H417 H 0.01011 0.35297 0.69547 0.0
H418 H 0.95271 0.38678 0.66831 0.0
H419 H 0.94207 0.41932 0.69626 0.0
H420 H 0.61229 0.00673 0.71484 0.0
H421 H 0.63029 0.99475 0.67664 0.0
H422 H 0.61386 0.0656 0.64753 0.0
H423 H 0.59666 0.07805 0.68592 0.0
H424 H 0.60609 0.99071 0.63357 0.0
H425 H 0.68528 0.05916 0.62838 0.0
H426 H 0.66818 0.05405 0.65559 0.0
H427 H 0.65528 0.07211 0.63202 0.0
C428 C 0.61301 0.01995 0.70046 0.0
C429 C 0.60324 0.04338 0.70342 0.0
C430 C 0.62311 0.01302 0.67862 0.0
C431 C 0.62346 0.02931 0.6593 0.0
C432 C 0.6142 0.05292 0.66233 0.0
H433 H 0.69939 0.00094 0.52511 0.0
H434 H 0.66456 0.01536 0.54886 0.0
C435 C 0.60442 0.06 0.68431 0.0
C436 C 0.63292 0.02112 0.63589 0.0
H437 H 0.67963 0.03153 0.59607 0.0
C438 C 0.62202 -0.00023 0.62522 0.0
C439 C 0.65347 0.03319 0.62489 0.0
C440 C 0.6664 0.05578 0.63585 0.0
C441 C 0.63196 0.98945 0.60447 0.0
C442 C 0.65323 0.00082 0.59422 0.0
C443 C 0.66313 0.02301 0.60395 0.0
C444 C 0.66834 0.98806 0.57642 0.0
C445 C 0.62023 0.96603 0.59413 0.0
C446 C 0.68118 0.96735 0.58364 0.0
C447 C 0.70121 0.95936 0.57038 0.0
C448 C 0.70852 0.97186 0.54961 0.0
C449 C 0.694 0.99092 0.54101 0.0
C450 C 0.67416 -0.0008 0.55454 0.0
H451 H 0.60032 0.96387 0.59912 0.0
H452 H 0.62165 0.9656 0.5743 0.0
H453 H 0.63015 0.95009 0.60131 0.0
H454 H 0.67721 0.95876 0.60066 0.0
H455 H 0.71211 0.94459 0.57732 0.0
H456 H 0.42144 0.29203 0.00533 0.0
H457 H 0.39032 0.32338 0.01019 0.0
H458 H 0.37333 0.31925 0.9346 0.0
H459 H 0.40434 0.28784 0.92948 0.0
H460 H 0.39546 0.3691 0.98281 0.0
H461 H 0.30375 0.31978 0.96854 0.0
H462 H 0.33124 0.30414 0.97803 0.0
H463 H 0.32811 0.31381 0.94758 0.0
C464 C 0.41072 0.29736 0.98981 0.0
C465 C 0.41551 0.28754 0.96699 0.0
C466 C 0.39298 0.31529 0.99262 0.0
C467 C 0.37952 0.32349 0.97276 0.0
C468 C 0.38333 0.31291 0.95018 0.0
H469 H 0.28049 0.44932 0.96709 0.0
H470 H 0.30384 0.41325 0.95479 0.0
C471 C 0.40115 0.29505 0.9473 0.0
C472 C 0.36365 0.34495 0.97531 0.0
H473 H 0.30334 0.3628 0.97488 0.0
C474 C 0.37532 0.36775 0.981 0.0
C475 C 0.33748 0.34313 0.97249 0.0
C476 C 0.32424 0.31892 0.96644 0.0
C477 C 0.36145 0.38876 0.98452 0.0
C478 C 0.33519 0.38677 0.98277 0.0
C479 C 0.3235 0.36417 0.97622 0.0
C480 C 0.31974 0.40748 0.98996 0.0
C481 C 0.37501 0.4129 0.99035 0.0
C482 C 0.32058 0.41565 0.01382 0.0
C483 C 0.30747 0.43607 0.02083 0.0
C484 C 0.29306 0.44874 0.00414 0.0
C485 C 0.29152 0.44003 0.98033 0.0
C486 C 0.30478 0.41945 0.97329 0.0
H487 H 0.39467 0.41294 0.98438 0.0
H488 H 0.36563 0.4285 0.98183 0.0
H489 H 0.37509 0.41596 0.01003 0.0
H490 H 0.33171 0.40637 0.02701 0.0
H491 H 0.30889 0.44205 0.03938 0.0
H492 H 0.29572 0.5855 0.05802 0.0
H493 H 0.32182 0.62297 0.05596 0.0
H494 H 0.32294 0.61626 0.97891 0.0
H495 H 0.296 0.57902 0.98083 0.0
H496 H 0.36779 0.62424 0.04036 0.0
H497 H 0.3137 0.6889 0.98667 0.0
H498 H 0.2997 0.66142 -0.0006 0.0
H499 H 0.31635 0.65983 0.97163 0.0
C500 C 0.30114 0.59224 0.04058 0.0
C501 C 0.29396 0.57925 0.01956 0.0
C502 C 0.31602 0.6137 0.03945 0.0
C503 C 0.3242 0.62259 0.01731 0.0
C504 C 0.31637 0.61012 0.99619 0.0
H505 H 0.44463 0.70423 0.96204 0.0
H506 H 0.40637 0.68115 0.97112 0.0
C507 C 0.30113 0.58874 0.99729 0.0
C508 C 0.34316 0.64307 0.01661 0.0
H509 H 0.35812 0.6974 0.98932 0.0
C510 C 0.36544 0.64049 0.0296 0.0
C511 C 0.34008 0.6643 0.00263 0.0
C512 C 0.31604 0.66892 0.9895 0.0
C513 C 0.38522 0.65788 0.02796 0.0
C514 C 0.38258 0.67845 0.01306 0.0
C515 C 0.35999 0.68159 0.0008 0.0
C516 C 0.40419 0.69487 0.00749 0.0
C517 C 0.40932 0.65343 0.04111 0.0
C518 C 0.41539 0.71065 0.02488 0.0
C519 C 0.43745 0.72402 0.01974 0.0
C520 C 0.4486 0.72154 0.99721 0.0
C521 C 0.43673 0.70635 0.97968 0.0
C522 C 0.41474 0.69325 0.98475 0.0
H523 H 0.40918 0.63517 0.04985 0.0
H524 H 0.42521 0.65463 0.02857 0.0
H525 H 0.41251 0.66784 0.05514 0.0
H526 H 0.40737 0.71219 0.04252 0.0
H527 H 0.44613 0.73565 0.03355 0.0
H528 H 0.54234 0.29456 0.91482 0.0
H529 H 0.57807 0.32365 0.9136 0.0
H530 H 0.58654 0.319 0.99029 0.0
H531 H 0.55121 0.28973 0.99169 0.0
H532 H 0.57954 0.36838 0.93491 0.0
H533 H 0.65811 0.31576 0.96895 0.0
H534 H 0.62941 0.301 0.95819 0.0
H535 H 0.63195 0.31269 0.98847 0.0
C536 C 0.55209 0.29939 0.93141 0.0
C537 C 0.54383 0.2899 0.95341 0.0
C538 C 0.57253 0.31598 0.93062 0.0
C539 C 0.58521 0.32321 0.95178 0.0
C540 C 0.57746 0.31321 0.97365 0.0
H541 H 0.64043 0.45068 0.01318 0.0
H542 H 0.61789 0.41738 0.99199 0.0
C543 C 0.55705 0.29663 0.97447 0.0
C544 C 0.60448 0.34335 0.95164 0.0
H545 H 0.66114 0.3602 0.97592 0.0
C546 C 0.59766 0.36644 0.94329 0.0
C547 C 0.62833 0.34078 0.9621 0.0
C548 C 0.63747 0.31612 0.96968 0.0
C549 C 0.61311 0.38744 0.9472 0.0
C550 C 0.63571 0.38526 0.96004 0.0
C551 C 0.64361 0.36187 0.96635 0.0
C552 C 0.64918 0.40707 0.97044 0.0
C553 C 0.60455 0.41196 0.9386 0.0
C554 C 0.67434 0.41229 0.96538 0.0
C555 C 0.68737 0.4315 0.97751 0.0
C556 C 0.67547 0.44534 0.99519 0.0
C557 C 0.65014 0.44034 -0.00028 0.0
C558 C 0.63716 0.42142 0.98748 0.0
H559 H 0.59211 0.4097 0.92264 0.0
H560 H 0.59384 0.42085 0.95299 0.0
H561 H 0.6206 0.4244 0.93403 0.0
H562 H 0.68397 0.40121 0.95244 0.0
H563 H 0.70692 0.43488 0.97374 0.0
H564 H 0.70813 0.57412 0.00111 0.0
H565 H 0.69122 0.61534 0.00063 0.0
H566 H 0.67601 0.61037 0.07618 0.0
H567 H 0.69202 0.56896 0.07655 0.0
H568 H 0.63578 0.62063 0.05214 0.0
H569 H 0.7116 0.68383 0.02219 0.0
H570 H 0.70731 0.65804 0.00212 0.0
H571 H 0.71727 0.65317 0.03257 0.0
C572 C 0.70172 0.58209 0.0177 0.0
C573 C 0.70112 0.56825 0.03879 0.0
C574 C 0.69224 0.60574 0.01748 0.0
C575 C 0.68255 0.61609 0.03845 0.0
C576 C 0.68339 0.6028 0.0598 0.0
H577 H 0.57543 0.73559 0.04311 0.0
H578 H 0.60947 0.71043 0.0577 0.0
C579 C 0.69248 0.5791 0.05996 0.0
C580 C 0.66827 0.63894 0.0374 0.0
H581 H 0.6695 0.69749 0.01588 0.0
C582 C 0.64335 0.63765 0.04477 0.0
C583 C 0.67814 0.66114 0.02781 0.0
C584 C 0.70513 0.66422 0.02097 0.0
C585 C 0.62759 0.65732 0.0414 0.0
C586 C 0.63709 0.67903 0.03058 0.0
C587 C 0.66231 0.68084 0.02426 0.0
C588 C 0.62016 0.69817 0.02238 0.0
C589 C 0.60048 0.6541 0.04796 0.0
C590 C 0.6158 0.70047 0.99776 0.0
C591 C 0.59651 0.71466 0.98946 0.0
C592 C 0.58124 0.72696 0.00563 0.0
C593 C 0.58682 0.72622 0.03026 0.0
C594 C 0.60617 0.71182 0.0386 0.0
H595 H 0.59547 0.63492 0.05321 0.0
H596 H 0.59646 0.66647 0.06326 0.0
H597 H 0.58834 0.65912 0.03268 0.0
H598 H 0.6264 0.69012 0.98496 0.0
H599 H 0.59291 0.71514 0.97035 0.0
H600 H 0.52858 0.84058 0.95791 0.0
H601 H 0.5305 0.87338 0.92805 0.0
H602 H 0.50497 0.82155 0.87332 0.0
H603 H 0.50374 0.78881 0.90262 0.0
H604 H 0.54432 0.84815 0.85869 0.0
H605 H 0.47445 0.90964 0.89713 0.0
H606 H 0.49933 0.90306 0.91752 0.0
H607 H 0.4782 0.87864 0.90741 0.0
C608 C 0.5232 0.8363 0.93954 0.0
C609 C 0.5161 0.81213 0.93259 0.0
C610 C 0.52419 0.85504 0.92254 0.0
C611 C 0.51763 0.84993 0.89851 0.0
C612 C 0.51016 0.82589 0.89173 0.0
H613 H 0.48709 0.95904 0.79114 0.0
H614 H 0.48468 0.92413 0.81837 0.0
C615 C 0.50947 0.8072 0.90854 0.0
C616 C 0.51933 0.86919 0.88002 0.0
H617 H 0.49784 0.9251 0.8644 0.0
C618 C 0.53409 0.86496 0.85989 0.0
C619 C 0.50567 0.89089 0.88146 0.0
C620 C 0.48832 0.89578 0.90192 0.0
C621 C 0.53567 0.88188 0.84116 0.0
C622 C 0.52271 0.90399 0.84299 0.0
C623 C 0.50784 0.90816 0.86307 0.0
C624 C 0.52449 0.92326 0.8245 0.0
C625 C 0.55073 0.87558 0.81941 0.0
C626 C 0.5477 0.93402 0.81856 0.0
C627 C 0.54916 0.95366 0.80271 0.0
C628 C 0.52737 0.96325 0.79293 0.0
C629 C 0.50419 0.95205 0.79841 0.0
C630 C 0.50278 0.93218 0.81402 0.0
H631 H 0.55256 0.85538 0.81738 0.0
H632 H 0.5422 0.88269 0.80279 0.0
H633 H 0.56976 0.88399 0.82146 0.0
H634 H 0.56465 0.92785 0.82687 0.0
H635 H 0.56728 0.96208 0.79906 0.0
H636 H 0.18406 0.52376 0.9506 0.0
H637 H 0.15339 0.52142 0.91799 0.0
H638 H 0.2077 0.49008 0.87145 0.0
H639 H 0.23844 0.49188 0.90417 0.0
H640 H 0.15335 0.5421 0.87332 0.0
H641 H 0.14985 0.44011 0.86554 0.0
H642 H 0.16474 0.45628 0.89049 0.0
H643 H 0.18035 0.45416 0.86226 0.0
C644 C 0.18956 0.5164 0.93343 0.0
C645 C 0.2137 0.50783 0.93009 0.0
C646 C 0.17197 0.51509 0.91478 0.0
C647 C 0.17807 0.50516 0.89239 0.0
C648 C 0.20237 0.49727 0.88873 0.0
H649 H 0.08662 0.48008 0.76295 0.0
H650 H 0.12153 0.4843 0.79151 0.0
C651 C 0.21998 0.49848 0.90743 0.0
C652 C 0.15887 0.50308 0.87301 0.0
H653 H 0.1261 0.46166 0.83731 0.0
C654 C 0.14742 0.52451 0.86543 0.0
C655 C 0.15115 0.48011 0.86269 0.0
C656 C 0.16197 0.45631 0.87076 0.0
C657 C 0.12847 0.52361 0.84787 0.0
C658 C 0.12052 0.50064 0.83783 0.0
C659 C 0.13226 0.47926 0.84504 0.0
C660 C 0.09943 0.49831 0.82044 0.0
C661 C 0.1172 0.5473 0.84009 0.0
C662 C 0.07538 0.50446 0.82734 0.0
C663 C 0.0554 0.50199 0.81114 0.0
C664 C 0.05904 0.49326 0.78766 0.0
C665 C 0.08316 0.48694 0.78085 0.0
C666 C 0.10313 0.48932 0.79714 0.0
H667 H 0.1295 0.56355 0.84472 0.0
H668 H 0.1135 0.54712 0.82049 0.0
H669 H 0.09922 0.54945 0.84934 0.0
H670 H 0.07202 0.51101 0.84537 0.0
H671 H 0.03709 0.50696 0.81704 0.0
H672 H 0.57685 0.10952 0.82917 0.0
H673 H 0.56947 0.11576 0.87154 0.0
H674 H 0.5581 0.03748 0.8806 0.0
H675 H 0.56508 0.03108 0.83788 0.0
H676 H 0.51846 0.06009 0.89337 0.0
H677 H 0.59653 0.10968 0.93778 0.0
H678 H 0.59249 0.12379 0.90928 0.0
H679 H 0.60072 0.09189 0.91066 0.0
C680 C 0.57366 0.09353 0.84026 0.0
C681 C 0.57101 0.06989 0.83005 0.0
C682 C 0.56973 0.09708 0.86467 0.0
C683 C 0.56337 0.07705 0.87938 0.0
C684 C 0.56309 0.05317 0.86964 0.0
H685 H 0.50106 0.17096 0.98478 0.0
H686 H 0.51874 0.13074 0.97763 0.0
C687 C 0.56699 0.0496 0.84517 0.0
C688 C 0.55158 0.08198 0.90271 0.0
H689 H 0.5542 0.12717 0.94524 0.0
C690 C 0.5266 0.074 0.90543 0.0
C691 C 0.56221 0.09929 0.91922 0.0
C692 C 0.58959 0.10635 0.91917 0.0
C693 C 0.51103 0.08613 0.92128 0.0
C694 C 0.52067 0.10686 0.9342 0.0
C695 C 0.54652 0.11178 0.93471 0.0
C696 C 0.50443 0.127 0.94138 0.0
C697 C 0.48391 0.07818 0.92229 0.0
C698 C 0.48979 0.13784 0.92365 0.0
C699 C 0.47987 0.16083 0.92756 0.0
C700 C 0.48449 0.17348 0.94926 0.0
C701 C 0.49724 0.16168 0.9678 0.0
C702 C 0.50734 0.13867 0.9638 0.0
H703 H 0.48179 0.0578 0.92119 0.0
H704 H 0.47509 0.08472 0.93897 0.0
H705 H 0.47389 0.08568 0.90665 0.0
H706 H 0.48777 0.12955 0.90598 0.0
H707 H 0.47002 0.16937 0.91299 0.0
H708 H 0.88236 0.48934 0.78359 0.0
H709 H 0.85705 0.49041 0.81942 0.0
H710 H 0.92344 0.49553 0.86352 0.0
H711 H 0.94922 0.49474 0.82745 0.0
H712 H 0.8566 0.45774 0.85812 0.0
H713 H 0.88223 0.5537 0.88711 0.0
H714 H 0.88852 0.5423 0.85737 0.0
H715 H 0.90743 0.53338 0.88227 0.0
C716 C 0.89172 0.49072 0.80085 0.0
C717 C 0.91789 0.49204 0.80259 0.0
C718 C 0.87716 0.4913 0.82136 0.0
C719 C 0.88832 0.49333 0.84412 0.0
C720 C 0.91444 0.49436 0.84608 0.0
H721 H 0.80799 0.50425 0.98019 0.0
H722 H 0.8414 0.50155 0.9508 0.0
C723 C 0.92913 0.49375 0.82547 0.0
C724 C 0.87223 0.49406 0.86553 0.0
H725 H 0.85244 0.53201 0.9101 0.0
C726 C 0.85585 0.4739 0.86961 0.0
C727 C 0.87135 0.51512 0.88056 0.0
C728 C 0.88817 0.53748 0.87664 0.0
C729 C 0.8382 0.47444 0.88794 0.0
C730 C 0.83661 0.49588 0.90232 0.0
C731 C 0.85364 0.51567 0.89892 0.0
C732 C 0.81654 0.49844 0.92012 0.0
C733 C 0.82126 0.45212 0.89163 0.0
C734 C 0.79155 0.49816 0.91254 0.0
C735 C 0.77244 0.49975 0.92922 0.0
C736 C 0.77795 0.50172 0.95385 0.0
C737 C 0.80308 0.50264 0.96136 0.0
C738 C 0.82221 0.50112 0.94461 0.0
H739 H 0.82918 0.43524 0.88387 0.0
H740 H 0.81779 0.44913 0.91096 0.0
H741 H 0.8031 0.45496 0.8826 0.0
H742 H 0.7868 0.49656 0.89367 0.0
H743 H 0.75334 0.49911 0.92278 0.0
H744 H 0.50746 0.0627 0.18904 0.0
H745 H 0.50813 0.08854 0.1533 0.0
H746 H 0.50747 0.15361 0.19806 0.0
H747 H 0.50715 0.12816 0.2337 0.0
H748 H 0.47427 0.12298 0.1379 0.0
H749 H 0.56736 0.1673 0.15516 0.0
H750 H 0.55647 0.14013 0.17071 0.0
H751 H 0.54644 0.16998 0.17982 0.0
C752 C 0.50749 0.08251 0.19126 0.0
C753 C 0.50744 0.09334 0.21425 0.0
C754 C 0.50787 0.09723 0.17084 0.0
C755 C 0.50832 0.12299 0.17306 0.0
C756 C 0.50773 0.1338 0.19594 0.0
H757 H 0.47292 0.22799 0.06214 0.0
H758 H 0.47386 0.20353 0.0987 0.0
C759 C 0.5074 0.11916 0.21631 0.0
C760 C 0.50899 0.13869 0.15153 0.0
H761 H 0.54268 0.18485 0.12455 0.0
C762 C 0.48926 0.13644 0.1349 0.0
C763 C 0.52872 0.15605 0.14755 0.0
C764 C 0.55108 0.1584 0.16412 0.0
C765 C 0.48849 0.15141 0.11459 0.0
C766 C 0.50777 0.16939 0.11109 0.0
C767 C 0.52774 0.17131 0.12748 0.0
C768 C 0.50804 0.1857 0.08998 0.0
C769 C 0.46729 0.14754 0.09685 0.0
C770 C 0.52752 0.18461 0.07353 0.0
C771 C 0.52718 0.19871 0.05279 0.0
C772 C 0.50734 0.21424 0.0481 0.0
C773 C 0.4884 0.21612 0.06515 0.0
C774 C 0.48879 0.20201 0.08594 0.0
H775 H 0.45761 0.12932 0.09902 0.0
H776 H 0.45348 0.16195 0.09971 0.0
H777 H 0.47404 0.14896 0.07817 0.0
H778 H 0.54266 0.17229 0.0764 0.0
H779 H 0.54212 0.19686 0.04009 0.0
H780 H 0.9254 0.47481 0.23068 0.0
H781 H 0.88948 0.45735 0.20821 0.0
H782 H 0.87247 0.52973 0.18335 0.0
H783 H 0.90784 0.5474 0.20603 0.0
H784 H 0.83072 0.50192 0.19611 0.0
H785 H 0.89185 0.4498 0.13528 0.0
H786 H 0.89435 0.44347 0.16672 0.0
H787 H 0.90405 0.47318 0.1558 0.0
C788 C 0.91383 0.48705 0.22065 0.0
C789 C 0.91963 0.51247 0.21989 0.0
C790 C 0.89342 0.477 0.20775 0.0
C791 C 0.8787 0.49221 0.19379 0.0
C792 C 0.88372 0.51769 0.19397 0.0
H793 H 0.7985 0.4898 0.06617 0.0
H794 H 0.82922 0.4868 0.09839 0.0
C795 C 0.90397 0.52775 0.20693 0.0
C796 C 0.85878 0.48188 0.17786 0.0
H797 H 0.84939 0.4501 0.12533 0.0
C798 C 0.83461 0.49022 0.18084 0.0
C799 C 0.86413 0.46673 0.15795 0.0
C800 C 0.89 0.45784 0.15352 0.0
C801 C 0.81591 0.48506 0.16367 0.0
C802 C 0.82147 0.47058 0.14332 0.0
C803 C 0.84525 0.46106 0.14104 0.0
C804 C 0.80399 0.46816 0.12276 0.0
C805 C 0.79097 0.49663 0.16666 0.0
C806 C 0.78 0.45764 0.12543 0.0
C807 C 0.76228 0.45964 0.10715 0.0
C808 C 0.76847 0.47183 0.08581 0.0
C809 C 0.79312 0.48044 0.08244 0.0
C810 C 0.81071 0.47869 0.10082 0.0
H811 H 0.79139 0.51092 0.18104 0.0
H812 H 0.7849 0.50519 0.14971 0.0
H813 H 0.77682 0.48222 0.17145 0.0
H814 H 0.77467 0.4489 0.14202 0.0
H815 H 0.74351 0.45247 0.1101 0.0
H816 H 0.5128 0.78334 0.10006 0.0
H817 H 0.51077 0.81414 0.13219 0.0
H818 H 0.50839 0.87168 0.07982 0.0
H819 H 0.51015 0.84101 0.04755 0.0
H820 H 0.54372 0.85398 0.1424 0.0
H821 H 0.44888 0.88603 0.12236 0.0
H822 H 0.46036 0.85787 0.10995 0.0
H823 H 0.4696 0.88701 0.09734 0.0
C824 C 0.51173 0.80253 0.09533 0.0
C825 C 0.51152 0.80966 0.07117 0.0
C826 C 0.51059 0.82012 0.11375 0.0
C827 C 0.50905 0.84519 0.10843 0.0
C828 C 0.50905 0.85241 0.08436 0.0
H829 H 0.50408 0.98025 0.19231 0.0
H830 H 0.50474 0.94874 0.16078 0.0
C831 C 0.5102 0.83483 0.06592 0.0
C832 C 0.50812 0.86382 0.1281 0.0
H833 H 0.4727 0.90907 0.15139 0.0
C834 C 0.52814 0.86594 0.14446 0.0
C835 C 0.4878 0.87946 0.13074 0.0
C836 C 0.46532 0.87741 0.11432 0.0
C837 C 0.52864 0.88359 0.16306 0.0
C838 C 0.50832 0.89926 0.1657 0.0
C839 C 0.48827 0.89708 0.14937 0.0
C840 C 0.50765 0.91824 0.18508 0.0
C841 C 0.55127 0.88575 0.1793 0.0
C842 C 0.50865 0.9116 0.20931 0.0
C843 C 0.50837 0.92961 0.22743 0.0
C844 C 0.50684 0.95465 0.2217 0.0
C845 C 0.50533 0.96118 0.19741 0.0
C846 C 0.50568 0.94317 0.17933 0.0
H847 H 0.56768 0.87724 0.1711 0.0
H848 H 0.55618 0.90531 0.18365 0.0
H849 H 0.5472 0.87608 0.19628 0.0
H850 H 0.50958 0.89245 0.21423 0.0
H851 H 0.50937 0.92388 0.24592 0.0
H852 H 0.17276 0.52901 0.03247 0.0
H853 H 0.13498 0.53591 0.05569 0.0
H854 H 0.16666 0.4983 0.11567 0.0
H855 H 0.20435 0.49145 0.0929 0.0
H856 H 0.10782 0.48945 0.09558 0.0
H857 H 0.14532 0.5825 0.12339 0.0
H858 H 0.14907 0.571 0.09322 0.0
H859 H 0.16639 0.55812 0.11732 0.0
C860 C 0.17146 0.52182 0.05044 0.0
C861 C 0.19157 0.50988 0.06097 0.0
C862 C 0.14995 0.52582 0.06363 0.0
C863 C 0.14831 0.51769 0.08731 0.0
C864 C 0.16776 0.50469 0.09739 0.0
H865 H 0.05779 0.50673 0.20963 0.0
H866 H 0.08619 0.50248 0.17618 0.0
C867 C 0.18925 0.50086 0.08436 0.0
C868 C 0.12726 0.52409 0.10249 0.0
H869 H 0.11044 0.5666 0.14403 0.0
C870 C 0.10804 0.50647 0.1059 0.0
C871 C 0.12774 0.54637 0.11571 0.0
C872 C 0.14816 0.56573 0.11236 0.0
C873 C 0.08963 0.51021 0.12302 0.0
C874 C 0.09103 0.53182 0.13742 0.0
C875 C 0.10956 0.54998 0.13309 0.0
C876 C 0.07444 0.53515 0.15806 0.0
C877 C 0.06908 0.49084 0.12575 0.0
C878 C 0.0594 0.55566 0.15956 0.0
C879 C 0.04338 0.55837 0.17889 0.0
C880 C 0.04221 0.5406 0.197 0.0
C881 C 0.05805 0.52061 0.19586 0.0
C882 C 0.07412 0.51801 0.17664 0.0
H883 H 0.06598 0.48004 0.1089 0.0
H884 H 0.07442 0.47786 0.13995 0.0
H885 H 0.05131 0.49918 0.13088 0.0
H886 H 0.05967 0.56926 0.14552 0.0
H887 H 0.03141 0.57398 0.17926 0.0
H888 H 0.81532 0.91598 0.46631 0.0
H889 H 0.84344 0.88304 0.45572 0.0
H890 H 0.85073 0.86469 0.53036 0.0
H891 H 0.82274 0.89711 0.54102 0.0
H892 H 0.89239 0.88299 0.47259 0.0
H893 H 0.84207 0.79709 0.49859 0.0
H894 H 0.82647 0.82555 0.49381 0.0
H895 H 0.8421 0.82012 0.52184 0.0
C896 C 0.82249 0.90454 0.48037 0.0
C897 C 0.81695 0.90924 0.50451 0.0
C898 C 0.83853 0.88577 0.4743 0.0
C899 C 0.84888 0.87124 0.49224 0.0
C900 C 0.84253 0.8753 0.51619 0.0
H901 H 0.9712 0.78104 0.52195 0.0
H902 H 0.93293 0.80418 0.52122 0.0
C903 C 0.8267 0.89405 0.52226 0.0
C904 C 0.86871 0.85398 0.48664 0.0
H905 H 0.88685 0.79542 0.49659 0.0
C906 C 0.89105 0.8637 0.47732 0.0
C907 C 0.8669 0.8289 0.49305 0.0
C908 C 0.84299 0.81724 0.50216 0.0
C909 C 0.91214 0.84938 0.4755 0.0
C910 C 0.91062 0.82453 0.48275 0.0
C911 C 0.88797 0.81452 0.49118 0.0
C912 C 0.93271 0.80908 0.48281 0.0
C913 C 0.93622 0.86133 0.46701 0.0
C914 C 0.94489 0.80376 0.4614 0.0
C915 C 0.96681 0.79075 0.46177 0.0
C916 C 0.97684 0.78259 0.48356 0.0
C917 C 0.96406 0.78717 0.5049 0.0
C918 C 0.94217 0.80032 0.50451 0.0
H919 H 0.93562 0.88173 0.46721 0.0
H920 H 0.95215 0.85584 0.47836 0.0
H921 H 0.9397 0.85524 0.44836 0.0
H922 H 0.93761 0.80996 0.44443 0.0
H923 H 0.97601 0.78728 0.44496 0.0
H924 H 0.95443 0.20829 0.52918 0.0
H925 H 0.92025 0.18123 0.54372 0.0
H926 H 0.90633 0.15438 0.4717 0.0
H927 H 0.94002 0.18103 0.45713 0.0
H928 H 0.86196 0.16537 0.5002 0.0
H929 H 0.92948 0.1045 0.54474 0.0
H930 H 0.93103 0.13695 0.55161 0.0
H931 H 0.9393 0.12635 0.52234 0.0
C932 C 0.94383 0.19683 0.51647 0.0
C933 C 0.95011 0.19654 0.49208 0.0
C934 C 0.92441 0.18139 0.52479 0.0
C935 C 0.91097 0.16574 0.50875 0.0
C936 C 0.9165 0.16634 0.48432 0.0
H937 H 0.81239 0.04413 0.48485 0.0
H938 H 0.83588 0.08344 0.48494 0.0
C939 C 0.93589 0.18149 0.47608 0.0
C940 C 0.89237 0.14719 0.51706 0.0
H941 H 0.88838 0.0895 0.54027 0.0
C942 C 0.86754 0.14897 0.50942 0.0
C943 C 0.89978 0.1259 0.52911 0.0
C944 C 0.92634 0.12306 0.53742 0.0
C945 C 0.85012 0.12947 0.51259 0.0
C946 C 0.85798 0.10746 0.5231 0.0
C947 C 0.88243 0.10632 0.53205 0.0
C948 C 0.84191 0.08475 0.52337 0.0
C949 C 0.82362 0.13251 0.50425 0.0
C950 C 0.83793 0.07215 0.54484 0.0
C951 C 0.82489 0.04949 0.54478 0.0
C952 C 0.81559 0.03893 0.52321 0.0
C953 C 0.81922 0.05179 0.50176 0.0
C954 C 0.83243 0.0744 0.50183 0.0
H955 H 0.81864 0.15216 0.50471 0.0
H956 H 0.8216 0.12587 0.48545 0.0
H957 H 0.81025 0.12181 0.51545 0.0
H958 H 0.84523 0.07971 0.56163 0.0
H959 H 0.82233 0.04014 0.56165 0.0
H960 H 0.10067 0.79195 0.53794 0.0
H961 H 0.13592 0.82091 0.54564 0.0
H962 H 0.15755 0.81492 0.4717 0.0
H963 H 0.12216 0.78656 0.46372 0.0
H964 H 0.18817 0.81973 0.539 0.0
H965 H 0.14385 0.88791 0.48011 0.0
H966 H 0.12748 0.86043 0.49005 0.0
H967 H 0.14939 0.85882 0.46603 0.0
C968 C 0.11313 0.79658 0.52342 0.0
C969 C 0.10841 0.78738 0.50015 0.0
C970 C 0.13325 0.81306 0.52784 0.0
C971 C 0.14896 0.82038 0.50909 0.0
C972 C 0.14528 0.8099 0.48625 0.0
H973 H 0.25407 0.94663 0.50634 0.0
H974 H 0.23457 0.90644 0.49596 0.0
C975 C 0.12506 0.79369 0.48176 0.0
C976 C 0.16794 0.84037 0.51299 0.0
H977 H 0.18259 0.89953 0.49738 0.0
C978 C 0.1871 0.83714 0.5298 0.0
C979 C 0.16643 0.86302 0.5009 0.0
C980 C 0.14559 0.86794 0.48341 0.0
C981 C 0.20467 0.85618 0.53511 0.0
C982 C 0.20276 0.87897 0.52344 0.0
C983 C 0.18409 0.88191 0.5061 0.0
C984 C 0.21797 0.90097 0.53072 0.0
C985 C 0.22496 0.85187 0.55329 0.0
C986 C 0.21523 0.91098 0.55373 0.0
C987 C 0.22611 0.93391 0.55963 0.0
C988 C 0.2399 0.9473 0.54258 0.0
C989 C 0.24357 0.93675 0.51985 0.0
C990 C 0.2325 0.91381 0.51391 0.0
H991 H 0.22854 0.83196 0.555 0.0
H992 H 0.24258 0.86179 0.54844 0.0
H993 H 0.21911 0.8588 0.57105 0.0
H994 H 0.20365 0.9016 0.56678 0.0
H995 H 0.22302 0.94148 0.57733 0.0
H996 H 0.08014 0.21466 0.51653 0.0
H997 H 0.11856 0.19281 0.52344 0.0
H998 H 0.12773 0.18425 0.44714 0.0
H999 H 0.08895 0.20522 0.4402 0.0
H1000 H 0.12911 0.14168 0.46831 0.0
H1001 H 0.19198 0.20693 0.51825 0.0
H1002 H 0.16218 0.20399 0.53226 0.0
H1003 H 0.16447 0.21667 0.50265 0.0
C1004 C 0.09068 0.20861 0.50126 0.0
C1005 C 0.08147 0.21139 0.47786 0.0
C1006 C 0.11274 0.19628 0.5052 0.0
C1007 C 0.12619 0.1871 0.48578 0.0
C1008 C 0.11769 0.19119 0.46238 0.0
H1009 H 0.24257 0.07627 0.49314 0.0
H1010 H 0.21869 0.11052 0.47763 0.0
C1011 C 0.0955 0.20311 0.45846 0.0
C1012 C 0.14702 0.17045 0.48986 0.0
H1013 H 0.20033 0.16364 0.52254 0.0
C1014 C 0.145 0.14669 0.47971 0.0
C1015 C 0.16775 0.17699 0.50471 0.0
C1016 C 0.17186 0.20264 0.51486 0.0
C1017 C 0.16235 0.1289 0.4851 0.0
C1018 C 0.18226 0.13506 0.50099 0.0
C1019 C 0.18497 0.15906 0.51034 0.0
C1020 C 0.19839 0.11595 0.51041 0.0
C1021 C 0.15852 0.1032 0.47491 0.0
C1022 C 0.19499 0.10807 0.53395 0.0
C1023 C 0.20831 0.08856 0.54274 0.0
C1024 C 0.22548 0.07663 0.52818 0.0
C1025 C 0.22941 0.08503 0.50474 0.0
C1026 C 0.21585 0.10455 0.49587 0.0
H1027 H 0.1408 0.10088 0.46455 0.0
H1028 H 0.17415 0.09905 0.46286 0.0
H1029 H 0.15844 0.08954 0.48955 0.0
H1030 H 0.18151 0.11664 0.54536 0.0
H1031 H 0.20498 0.08273 0.56094 0.0
loop_
_geom_bond_atom_site_label_1
_geom_bond_atom_site_label_2
_geom_bond_distance
_geom_bond_site_symmetry_2
_ccdc_geom_bond_type
Zn0 O3 2.031 . S
Zn0 O5 2.049 . S
Zn0 O10 2.067 1_455 S
Zn1 O2 1.962 . S
Zn1 O4 1.986 . S
Zn1 O6 1.996 . S
Zn1 O9 1.943 1_455 S
O2 Zn1 1.962 . S
O2 C7 1.254 . S
O3 Zn0 2.031 . S
O3 C7 1.269 . S
O4 Zn1 1.986 . S
O4 C11 1.262 . S
O5 Zn0 2.049 . S
O5 C13 1.260 . S
O6 Zn1 1.996 . S
O6 C13 1.257 . S
C7 O2 1.254 . S
C7 O3 1.269 . S
C8 O9 1.249 . S
C8 O10 1.270 . S
O9 Zn1 1.943 1_655 S
O9 C8 1.249 . S
O10 Zn0 2.067 1_655 S
O10 C8 1.270 . S
C11 O4 1.262 . S
C11 O12 1.232 . S
O12 C11 1.232 . S
C13 O5 1.260 . S
C13 O6 1.257 . S
Zn14 O17 2.031 1_545 S
Zn14 O19 2.049 . S
Zn14 O24 2.067 . S
Zn15 O16 1.962 1_545 S
Zn15 O18 1.986 . S
Zn15 O20 1.996 . S
Zn15 O23 1.943 . S
O16 Zn15 1.962 1_565 S
O16 C21 1.254 . S
O17 Zn14 2.031 1_565 S
O17 C21 1.269 . S
O18 Zn15 1.986 . S
O18 C25 1.262 . S
O19 Zn14 2.049 . S
O19 C27 1.260 . S
O20 Zn15 1.996 . S
O20 C27 1.257 . S
C21 O16 1.254 . S
C21 O17 1.269 . S
C22 O23 1.249 . S
C22 O24 1.270 . S
O23 Zn15 1.943 . S
O23 C22 1.249 . S
O24 Zn14 2.067 . S
O24 C22 1.270 . S
C25 O18 1.262 . S
C25 O26 1.232 . S
O26 C25 1.232 . S
C27 O19 1.260 . S
C27 O20 1.257 . S
Zn28 O31 2.031 1_455 S
Zn28 O33 2.049 . S
Zn28 O38 2.067 . S
Zn29 O30 1.962 1_455 S
Zn29 O32 1.986 . S
Zn29 O34 1.996 . S
Zn29 O37 1.943 . S
O30 Zn29 1.962 1_655 S
O30 C35 1.254 . S
O31 Zn28 2.031 1_655 S
O31 C35 1.269 . S
O32 Zn29 1.986 . S
O32 C39 1.262 . S
O33 Zn28 2.049 . S
O33 C41 1.260 . S
O34 Zn29 1.996 . S
O34 C41 1.257 . S
C35 O30 1.254 . S
C35 O31 1.269 . S
C36 O37 1.249 . S
C36 O38 1.270 . S
O37 Zn29 1.943 . S
O37 C36 1.249 . S
O38 Zn28 2.067 . S
O38 C36 1.270 . S
C39 O32 1.262 . S
C39 O40 1.232 . S
O40 C39 1.232 . S
C41 O33 1.260 . S
C41 O34 1.257 . S
Zn42 O45 2.031 . S
Zn42 O47 2.049 . S
Zn42 O52 2.067 1_545 S
Zn43 O44 1.962 . S
Zn43 O46 1.986 . S
Zn43 O48 1.996 . S
Zn43 O51 1.943 1_545 S
O44 Zn43 1.962 . S
O44 C49 1.254 . S
O45 Zn42 2.031 . S
O45 C49 1.269 . S
O46 Zn43 1.986 . S
O46 C53 1.262 . S
O47 Zn42 2.049 . S
O47 C55 1.260 . S
O48 Zn43 1.996 . S
O48 C55 1.257 . S
C49 O44 1.254 . S
C49 O45 1.269 . S
C50 O51 1.249 . S
C50 O52 1.270 . S
O51 Zn43 1.943 1_565 S
O51 C50 1.249 . S
O52 Zn42 2.067 1_565 S
O52 C50 1.270 . S
C53 O46 1.262 . S
C53 O54 1.232 . S
O54 C53 1.232 . S
C55 O47 1.260 . S
C55 O48 1.257 . S
Zn56 O59 2.031 . S
Zn56 O61 2.049 . S
Zn56 O66 2.067 . S
Zn57 O58 1.962 . S
Zn57 O60 1.986 1_545 S
Zn57 O62 1.996 . S
Zn57 O65 1.943 . S
O58 Zn57 1.962 . S
O58 C63 1.264 . S
O59 Zn56 2.031 . S
O59 C63 1.269 . S
O60 Zn57 1.986 1_565 S
O60 C67 1.262 . S
O61 Zn56 2.049 . S
O61 C69 1.260 . S
O62 Zn57 1.996 . S
O62 C69 1.257 . S
C63 O58 1.264 . S
C63 O59 1.269 . S
C64 O65 1.249 . S
C64 O66 1.270 . S
O65 Zn57 1.943 . S
O65 C64 1.249 . S
O66 Zn56 2.067 . S
O66 C64 1.270 . S
C67 O60 1.262 . S
C67 O68 1.232 . S
O68 C67 1.232 . S
C69 O61 1.260 . S
C69 O62 1.257 . S
Zn70 O73 2.031 . S
Zn70 O75 2.049 . S
Zn70 O80 2.067 1_455 S
Zn71 O72 1.962 . S
Zn71 O74 1.986 . S
Zn71 O76 1.996 . S
Zn71 O79 1.943 1_455 S
O72 Zn71 1.962 . S
O72 C77 1.254 . S
O73 Zn70 2.031 . S
O73 C77 1.269 . S
O74 Zn71 1.986 . S
O74 C81 1.262 . S
O75 Zn70 2.049 . S
O75 C83 1.260 . S
O76 Zn71 1.996 . S
O76 C83 1.257 . S
C77 O72 1.254 . S
C77 O73 1.269 . S
C78 O79 1.249 . S
C78 O80 1.270 . S
O79 Zn71 1.943 1_655 S
O79 C78 1.249 . S
O80 Zn70 2.067 1_655 S
O80 C78 1.270 . S
C81 O74 1.262 . S
C81 O82 1.232 . S
O82 C81 1.232 . S
C83 O75 1.260 . S
C83 O76 1.257 . S
Zn84 O87 2.031 . S
Zn84 O89 2.049 . S
Zn84 O94 2.067 . S
Zn85 O86 1.963 . S
Zn85 O88 2.000 . S
Zn85 O90 1.968 1_565 S
Zn85 O93 1.943 . S
O86 Zn85 1.963 . S
O86 C91 1.254 1_565 S
O87 Zn84 2.031 . S
O87 C91 1.269 . S
O88 Zn85 2.000 . S
O88 C95 1.262 . S
O89 Zn84 2.049 . S
O89 C97 1.260 . S
O90 Zn85 1.968 1_545 S
O90 C97 1.257 . S
C91 O86 1.254 1_545 S
C91 O87 1.269 . S
C92 O93 1.249 1_545 S
C92 O94 1.270 . S
O93 Zn85 1.943 . S
O93 C92 1.249 1_565 S
O94 Zn84 2.067 . S
O94 C92 1.270 . S
C95 O88 1.262 . S
C95 O96 1.232 . S
O96 C95 1.232 . S
C97 O89 1.260 . S
C97 O90 1.257 . S
Zn98 O101 2.031 . S
Zn98 O103 2.049 . S
Zn98 O108 2.067 . S
Zn99 O100 1.962 . S
Zn99 O102 1.986 . S
Zn99 O104 1.996 1_455 S
Zn99 O107 1.943 . S
O100 Zn99 1.962 . S
O100 C105 1.254 . S
O101 Zn98 2.031 . S
O101 C105 1.269 1_655 S
O102 Zn99 1.986 . S
O102 C109 1.262 . S
O103 Zn98 2.049 . S
O103 C111 1.260 . S
O104 Zn99 1.996 1_655 S
O104 C111 1.257 . S
C105 O100 1.254 . S
C105 O101 1.269 1_455 S
C106 O107 1.249 . S
C106 O108 1.270 1_455 S
O107 Zn99 1.943 . S
O107 C106 1.249 . S
O108 Zn98 2.067 . S
O108 C106 1.270 1_655 S
C109 O102 1.262 . S
C109 O110 1.232 . S
O110 C109 1.232 . S
C111 O103 1.260 . S
C111 O104 1.257 . S
Zn112 O115 2.031 . S
Zn112 O117 2.049 . S
Zn112 O122 2.067 . S
Zn113 O114 1.963 . S
Zn113 O116 1.995 . S
Zn113 O118 1.977 1_556 S
Zn113 O121 1.943 . S
O114 Zn113 1.963 . S
O114 C119 1.254 1_556 S
O115 Zn112 2.031 . S
O115 C119 1.269 . S
O116 Zn113 1.995 . S
O116 C123 1.262 . S
O117 Zn112 2.049 . S
O117 C125 1.260 . S
O118 Zn113 1.977 1_554 S
O118 C125 1.257 . S
C119 O114 1.254 1_554 S
C119 O115 1.269 . S
C120 O121 1.228 1_554 S
C120 O122 1.270 . S
O121 Zn113 1.943 . S
O121 C120 1.228 1_556 S
O122 Zn112 2.067 . S
O122 C120 1.270 . S
C123 O116 1.262 . S
C123 O124 1.232 . S
O124 C123 1.232 . S
C125 O117 1.260 . S
C125 O118 1.257 . S
Zn126 O129 2.031 . S
Zn126 O131 2.049 . S
Zn126 O136 2.067 . S
Zn127 O128 1.962 . S
Zn127 O130 1.986 . S
Zn127 O132 1.996 1_554 S
Zn127 O135 1.943 . S
O128 Zn127 1.962 . S
O128 C133 1.254 . S
O129 Zn126 2.031 . S
O129 C133 1.269 1_556 S
O130 Zn127 1.986 . S
O130 C137 1.262 . S
O131 Zn126 2.049 . S
O131 C139 1.260 . S
O132 Zn127 1.996 1_556 S
O132 C139 1.257 . S
C133 O128 1.254 . S
C133 O129 1.269 1_554 S
C134 O135 1.249 . S
C134 O136 1.270 1_554 S
O135 Zn127 1.943 . S
O135 C134 1.249 . S
O136 Zn126 2.067 . S
O136 C134 1.270 1_556 S
C137 O130 1.262 . S
C137 O138 1.232 . S
O138 C137 1.232 . S
C139 O131 1.260 . S
C139 O132 1.257 . S
Zn140 O143 2.031 . S
Zn140 O145 2.049 . S
Zn140 O150 2.067 . S
Zn141 O142 1.961 1_554 S
Zn141 O144 1.985 1_554 S
Zn141 O146 1.997 . S
Zn141 O149 1.943 1_554 S
O142 Zn141 1.961 1_556 S
O142 C147 1.235 1_556 S
O143 Zn140 2.031 . S
O143 C147 1.269 . S
O144 Zn141 1.985 1_556 S
O144 C151 1.262 . S
O145 Zn140 2.049 . S
O145 C153 1.260 . S
O146 Zn141 1.997 . S
O146 C153 1.257 . S
C147 O142 1.235 1_554 S
C147 O143 1.269 . S
C148 O149 1.227 1_554 S
C148 O150 1.270 . S
O149 Zn141 1.943 1_556 S
O149 C148 1.227 1_556 S
O150 Zn140 2.067 . S
O150 C148 1.270 . S
C151 O144 1.262 . S
C151 O152 1.232 . S
O152 C151 1.232 . S
C153 O145 1.260 . S
C153 O146 1.257 . S
Zn154 O157 2.031 . S
Zn154 O159 2.049 . S
Zn154 O164 2.067 . S
Zn155 O156 1.962 . S
Zn155 O158 1.986 . S
Zn155 O160 1.996 1_554 S
Zn155 O163 1.943 . S
O156 Zn155 1.962 . S
O156 C161 1.254 . S
O157 Zn154 2.031 . S
O157 C161 1.269 1_556 S
O158 Zn155 1.986 . S
O158 C165 1.262 . S
O159 Zn154 2.049 . S
O159 C167 1.260 . S
O160 Zn155 1.996 1_556 S
O160 C167 1.257 . S
C161 O156 1.254 . S
C161 O157 1.269 1_554 S
C162 O163 1.269 . S
C162 O164 1.240 1_554 S
O163 Zn155 1.943 . S
O163 C162 1.269 . S
O164 Zn154 2.067 . S
O164 C162 1.240 1_556 S
C165 O158 1.262 . S
C165 O166 1.232 . S
O166 C165 1.232 . S
C167 O159 1.260 . S
C167 O160 1.257 . S
H168 C176 0.929 . S
H169 C178 0.930 . S
H170 C180 0.930 . S
H171 C183 0.929 . S
H172 C186 0.930 . S
H173 C188 0.960 . S
H174 C188 0.960 . S
H175 C188 0.960 . S
C176 H168 0.929 . S
C176 C177 1.377 1_655 S
C176 C178 1.384 . S
C177 C176 1.377 1_455 S
C177 C183 1.390 . S
C178 H169 0.930 . S
C178 C176 1.384 . S
C178 C179 1.372 1_655 S
C179 C178 1.372 1_455 S
C179 C180 1.400 . S
C179 C184 1.490 . S
C180 H170 0.930 . S
C180 C179 1.400 . S
C180 C183 1.386 . S
H181 C197 0.930 . S
H182 C198 0.931 . S
C183 H171 0.929 . S
C183 C177 1.390 . S
C183 C180 1.386 . S
C184 C179 1.490 . S
C184 C186 1.395 1_455 S
C184 C187 1.403 . S
H185 C191 0.930 . S
C186 H172 0.930 . S
C186 C184 1.395 1_655 S
C186 C189 1.403 . S
C187 C184 1.403 . S
C187 C188 1.524 . S
C187 C191 1.400 . S
C188 H173 0.960 . S
C188 H174 0.960 . S
C188 H175 0.960 . S
C188 C187 1.524 . S
C189 C186 1.403 . S
C189 C190 1.392 1_655 S
C189 C193 1.495 . S
C190 C189 1.392 1_455 S
C190 C191 1.385 . S
C190 C192 1.478 . S
C191 H185 0.930 . S
C191 C187 1.400 . S
C191 C190 1.385 . S
C192 C190 1.478 . S
C192 C194 1.381 1_455 S
C192 C198 1.383 . S
C193 C189 1.495 . S
C193 H199 0.959 . S
C193 H200 0.961 . S
C193 H201 0.960 . S
C194 C192 1.381 1_655 S
C194 C195 1.394 . S
C194 H202 0.930 . S
C195 C194 1.394 . S
C195 C196 1.383 1_655 S
C195 H203 0.929 . S
C196 C195 1.383 1_455 S
C196 C197 1.377 . S
C197 H181 0.930 . S
C197 C196 1.377 . S
C197 C198 1.379 . S
C198 H182 0.931 . S
C198 C192 1.383 . S
C198 C197 1.379 . S
H199 C193 0.959 . S
H200 C193 0.961 . S
H201 C193 0.960 . S
H202 C194 0.930 . S
H203 C195 0.929 . S
H204 C212 0.929 . S
H205 C214 0.930 . S
H206 C216 0.930 . S
H207 C219 0.929 . S
H208 C222 0.930 . S
H209 C224 0.960 . S
H210 C224 0.960 . S
H211 C224 0.960 . S
C212 H204 0.929 . S
C212 C213 1.377 1_565 S
C212 C214 1.384 . S
C213 C212 1.377 1_545 S
C213 C219 1.390 . S
C214 H205 0.930 . S
C214 C212 1.384 . S
C214 C215 1.372 1_565 S
C215 C214 1.372 1_545 S
C215 C216 1.400 . S
C215 C220 1.490 . S
C216 H206 0.930 . S
C216 C215 1.400 . S
C216 C219 1.386 . S
H217 C233 0.930 . S
H218 C234 0.931 . S
C219 H207 0.929 . S
C219 C213 1.390 . S
C219 C216 1.386 . S
C220 C215 1.490 . S
C220 C222 1.395 . S
C220 C223 1.403 . S
H221 C227 0.930 . S
C222 H208 0.930 . S
C222 C220 1.395 . S
C222 C225 1.403 . S
C223 C220 1.403 . S
C223 C224 1.524 . S
C223 C227 1.400 . S
C224 H209 0.960 . S
C224 H210 0.960 . S
C224 H211 0.960 . S
C224 C223 1.524 . S
C225 C222 1.403 . S
C225 C226 1.392 . S
C225 C229 1.495 . S
C226 C225 1.392 . S
C226 C227 1.385 . S
C226 C228 1.478 . S
C227 H221 0.930 . S
C227 C223 1.400 . S
C227 C226 1.385 . S
C228 C226 1.478 . S
C228 C230 1.381 1_545 S
C228 C234 1.383 . S
C229 C225 1.495 . S
C229 H235 0.954 1_545 S
C229 H236 0.961 . S
C229 H237 0.960 1_545 S
C230 C228 1.381 1_565 S
C230 C231 1.394 . S
C230 H238 0.930 . S
C231 C230 1.394 . S
C231 C232 1.383 1_565 S
C231 H239 0.929 . S
C232 C231 1.383 1_545 S
C232 C233 1.377 . S
C233 H217 0.930 . S
C233 C232 1.377 . S
C233 C234 1.379 . S
C234 H218 0.931 . S
C234 C228 1.383 . S
C234 C233 1.379 . S
H235 C229 0.954 1_565 S
H236 C229 0.961 . S
H237 C229 0.960 1_565 S
H238 C230 0.930 . S
H239 C231 0.929 . S
H240 C248 0.929 . S
H241 C250 0.930 . S
H242 C252 0.930 . S
H243 C255 0.929 . S
H244 C258 0.930 . S
H245 C260 0.960 . S
H246 C260 0.960 1_655 S
H247 C260 0.960 . S
C248 H240 0.929 . S
C248 C249 1.377 1_655 S
C248 C250 1.384 . S
C249 C248 1.377 1_455 S
C249 C255 1.390 . S
C250 H241 0.930 . S
C250 C248 1.384 . S
C250 C251 1.372 1_655 S
C251 C250 1.372 1_455 S
C251 C252 1.400 . S
C251 C256 1.490 . S
C252 H242 0.930 . S
C252 C251 1.400 . S
C252 C255 1.386 . S
H253 C269 0.930 . S
H254 C270 0.931 . S
C255 H243 0.929 . S
C255 C249 1.390 . S
C255 C252 1.386 . S
C256 C251 1.490 . S
C256 C258 1.395 . S
C256 C259 1.403 . S
H257 C263 0.930 . S
C258 H244 0.930 . S
C258 C256 1.395 . S
C258 C261 1.403 . S
C259 C256 1.403 . S
C259 C260 1.524 . S
C259 C263 1.400 . S
C260 H245 0.960 . S
C260 H246 0.960 1_455 S
C260 H247 0.960 . S
C260 C259 1.524 . S
C261 C258 1.403 . S
C261 C262 1.392 . S
C261 C265 1.495 . S
C262 C261 1.392 . S
C262 C263 1.385 . S
C262 C264 1.478 . S
C263 H257 0.930 . S
C263 C259 1.400 . S
C263 C262 1.385 . S
C264 C262 1.478 . S
C264 C266 1.381 1_455 S
C264 C270 1.383 . S
C265 C261 1.495 . S
C265 H271 0.959 . S
C265 H272 0.961 . S
C265 H273 0.960 . S
C266 C264 1.381 1_655 S
C266 C267 1.394 . S
C266 H274 0.930 . S
C267 C266 1.394 . S
C267 C268 1.383 1_655 S
C267 H275 0.929 . S
C268 C267 1.383 1_455 S
C268 C269 1.377 . S
C269 H253 0.930 . S
C269 C268 1.377 . S
C269 C270 1.379 . S
C270 H254 0.931 . S
C270 C264 1.383 . S
C270 C269 1.379 . S
H271 C265 0.959 . S
H272 C265 0.961 . S
H273 C265 0.960 . S
H274 C266 0.930 . S
H275 C267 0.929 . S
H276 C284 0.929 1_565 S
H277 C286 0.938 . S
H278 C288 0.930 . S
H279 C291 0.929 . S
H280 C294 0.930 . S
H281 C296 0.960 . S
H282 C296 0.960 . S
H283 C296 0.960 . S
C284 H276 0.929 1_545 S
C284 C285 1.377 . S
C284 C286 1.383 1_545 S
C285 C284 1.377 . S
C285 C291 1.390 . S
C286 H277 0.938 . S
C286 C284 1.383 1_565 S
C286 C287 1.365 1_565 S
C287 C286 1.365 1_545 S
C287 C288 1.400 . S
C287 C292 1.490 . S
C288 H278 0.930 . S
C288 C287 1.400 . S
C288 C291 1.386 . S
H289 C305 0.930 . S
H290 C306 0.931 . S
C291 H279 0.929 . S
C291 C285 1.390 . S
C291 C288 1.386 . S
C292 C287 1.490 . S
C292 C294 1.395 . S
C292 C295 1.403 1_545 S
H293 C299 0.954 . S
C294 H280 0.930 . S
C294 C292 1.395 . S
C294 C297 1.403 . S
C295 C292 1.403 1_565 S
C295 C296 1.524 . S
C295 C299 1.402 . S
C296 H281 0.960 . S
C296 H282 0.960 . S
C296 H283 0.960 . S
C296 C295 1.524 . S
C297 C294 1.403 . S
C297 C298 1.392 . S
C297 C301 1.495 . S
C298 C297 1.392 . S
C298 C299 1.363 1_545 S
C298 C300 1.478 . S
C299 H293 0.954 . S
C299 C295 1.402 . S
C299 C298 1.363 1_565 S
C300 C298 1.478 . S
C300 C302 1.381 1_545 S
C300 C306 1.383 . S
C301 C297 1.495 . S
C301 H307 0.959 . S
C301 H308 0.961 . S
C301 H309 0.960 . S
C302 C300 1.381 1_565 S
C302 C303 1.394 . S
C302 H310 0.930 . S
C303 C302 1.394 . S
C303 C304 1.383 1_565 S
C303 H311 0.929 . S
C304 C303 1.383 1_545 S
C304 C305 1.377 . S
C305 H289 0.930 . S
C305 C304 1.377 . S
C305 C306 1.379 . S
C306 H290 0.931 . S
C306 C300 1.383 . S
C306 C305 1.379 . S
H307 C301 0.959 . S
H308 C301 0.961 . S
H309 C301 0.960 . S
H310 C302 0.930 . S
H311 C303 0.929 . S
H312 C320 0.929 . S
H313 C322 0.930 . S
H314 C324 0.930 . S
H315 C327 0.929 . S
H316 C330 0.930 . S
H317 C332 0.960 . S
H318 C332 0.960 1_655 S
H319 C332 0.960 . S
C320 H312 0.929 . S
C320 C321 1.377 1_655 S
C320 C322 1.384 . S
C321 C320 1.377 1_455 S
C321 C327 1.390 . S
C322 H313 0.930 . S
C322 C320 1.384 . S
C322 C323 1.372 1_655 S
C323 C322 1.372 1_455 S
C323 C324 1.400 . S
C323 C328 1.490 . S
C324 H314 0.930 . S
C324 C323 1.400 . S
C324 C327 1.386 . S
H325 C341 0.930 . S
H326 C342 0.931 . S
C327 H315 0.929 . S
C327 C321 1.390 . S
C327 C324 1.386 . S
C328 C323 1.490 . S
C328 C330 1.395 . S
C328 C331 1.403 . S
H329 C335 0.930 . S
C330 H316 0.930 . S
C330 C328 1.395 . S
C330 C333 1.403 . S
C331 C328 1.403 . S
C331 C332 1.524 . S
C331 C335 1.400 . S
C332 H317 0.960 . S
C332 H318 0.960 1_455 S
C332 H319 0.960 . S
C332 C331 1.524 . S
C333 C330 1.403 . S
C333 C334 1.392 . S
C333 C337 1.495 . S
C334 C333 1.392 . S
C334 C335 1.385 . S
C334 C336 1.478 . S
C335 H329 0.930 . S
C335 C331 1.400 . S
C335 C334 1.385 . S
C336 C334 1.478 . S
C336 C338 1.381 1_455 S
C336 C342 1.383 . S
C337 C333 1.495 . S
C337 H343 0.959 . S
C337 H344 0.961 . S
C337 H345 0.960 1_455 S
C338 C336 1.381 1_655 S
C338 C339 1.394 . S
C338 H346 0.930 . S
C339 C338 1.394 . S
C339 C340 1.383 1_655 S
C339 H347 0.929 . S
C340 C339 1.383 1_455 S
C340 C341 1.377 . S
C341 H325 0.930 . S
C341 C340 1.377 . S
C341 C342 1.379 . S
C342 H326 0.931 . S
C342 C336 1.383 . S
C342 C341 1.379 . S
H343 C337 0.959 . S
H344 C337 0.961 . S
H345 C337 0.960 1_655 S
H346 C338 0.930 . S
H347 C339 0.929 . S
H348 C356 0.929 . S
H349 C358 0.930 . S
H350 C360 0.930 . S
H351 C363 0.929 . S
H352 C366 0.930 . S
H353 C368 0.960 . S
H354 C368 0.960 . S
H355 C368 0.960 . S
C356 H348 0.929 . S
C356 C357 1.377 . S
C356 C358 1.384 . S
C357 C356 1.377 . S
C357 C363 1.390 1_545 S
C358 H349 0.930 . S
C358 C356 1.384 . S
C358 C359 1.372 . S
C359 C358 1.372 . S
C359 C360 1.400 1_545 S
C359 C364 1.490 . S
C360 H350 0.930 . S
C360 C359 1.400 1_565 S
C360 C363 1.386 . S
H361 C377 0.930 . S
H362 C378 0.931 . S
C363 H351 0.929 . S
C363 C357 1.390 1_565 S
C363 C360 1.386 . S
C364 C359 1.490 . S
C364 C366 1.395 . S
C364 C367 1.403 1_545 S
H365 C371 0.930 . S
C366 H352 0.930 . S
C366 C364 1.395 . S
C366 C369 1.403 . S
C367 C364 1.403 1_565 S
C367 C368 1.524 . S
C367 C371 1.400 . S
C368 H353 0.960 . S
C368 H354 0.960 . S
C368 H355 0.960 . S
C368 C367 1.524 . S
C369 C366 1.403 . S
C369 C370 1.392 . S
C369 C373 1.495 . S
C370 C369 1.392 . S
C370 C371 1.385 1_545 S
C370 C372 1.478 . S
C371 H365 0.930 . S
C371 C367 1.400 . S
C371 C370 1.385 1_565 S
C372 C370 1.478 . S
C372 C374 1.381 . S
C372 C378 1.383 1_545 S
C373 C369 1.495 . S
C373 H379 0.959 . S
C373 H380 0.961 . S
C373 H381 0.960 . S
C374 C372 1.381 . S
C374 C375 1.394 . S
C374 H382 0.930 . S
C375 C374 1.394 . S
C375 C376 1.383 . S
C375 H383 0.929 . S
C376 C375 1.383 . S
C376 C377 1.377 1_545 S
C377 H361 0.930 . S
C377 C376 1.377 1_565 S
C377 C378 1.379 . S
C378 H362 0.931 . S
C378 C372 1.383 1_565 S
C378 C377 1.379 . S
H379 C373 0.959 . S
H380 C373 0.961 . S
H381 C373 0.960 . S
H382 C374 0.930 . S
H383 C375 0.929 . S
H384 C392 0.929 . S
H385 C394 0.930 . S
H386 C396 0.930 . S
H387 C399 0.929 . S
H388 C402 0.930 . S
H389 C404 0.960 . S
H390 C404 0.960 . S
H391 C404 0.966 . S
C392 H384 0.929 . S
C392 C393 1.377 1_655 S
C392 C394 1.384 . S
C393 C392 1.377 1_455 S
C393 C399 1.390 . S
C394 H385 0.930 . S
C394 C392 1.384 . S
C394 C395 1.372 1_655 S
C395 C394 1.372 1_455 S
C395 C396 1.400 . S
C395 C400 1.490 . S
C396 H386 0.930 . S
C396 C395 1.400 . S
C396 C399 1.386 . S
H397 C413 0.930 . S
H398 C414 0.931 . S
C399 H387 0.929 . S
C399 C393 1.390 . S
C399 C396 1.386 . S
C400 C395 1.490 . S
C400 C402 1.395 . S
C400 C403 1.394 1_455 S
H401 C407 0.918 1_655 S
C402 H388 0.930 . S
C402 C400 1.395 . S
C402 C405 1.403 . S
C403 C400 1.394 1_655 S
C403 C404 1.533 . S
C403 C407 1.400 1_655 S
C404 H389 0.960 . S
C404 H390 0.960 . S
C404 H391 0.966 . S
C404 C403 1.533 . S
C405 C402 1.403 . S
C405 C406 1.392 . S
C405 C409 1.495 . S
C406 C405 1.392 . S
C406 C407 1.399 . S
C406 C408 1.478 . S
C407 H401 0.918 1_455 S
C407 C403 1.400 1_455 S
C407 C406 1.399 . S
C408 C406 1.478 . S
C408 C410 1.381 1_455 S
C408 C414 1.383 . S
C409 C405 1.495 . S
C409 H415 0.959 . S
C409 H416 0.961 . S
C409 H417 0.960 . S
C410 C408 1.381 1_655 S
C410 C411 1.394 . S
C410 H418 0.930 . S
C411 C410 1.394 . S
C411 C412 1.383 1_655 S
C411 H419 0.929 . S
C412 C411 1.383 1_455 S
C412 C413 1.377 . S
C413 H397 0.930 . S
C413 C412 1.377 . S
C413 C414 1.379 . S
C414 H398 0.931 . S
C414 C408 1.383 . S
C414 C413 1.379 . S
H415 C409 0.959 . S
H416 C409 0.961 . S
H417 C409 0.960 . S
H418 C410 0.930 . S
H419 C411 0.929 . S
H420 C428 0.929 . S
H421 C430 0.930 . S
H422 C432 0.930 . S
H423 C435 0.929 . S
H424 C438 0.930 . S
H425 C440 0.960 . S
H426 C440 0.960 . S
H427 C440 0.960 . S
C428 H420 0.929 . S
C428 C429 1.377 1_565 S
C428 C430 1.384 . S
C429 C428 1.377 1_545 S
C429 C435 1.390 . S
C430 H421 0.930 . S
C430 C428 1.384 . S
C430 C431 1.372 1_565 S
C431 C430 1.372 1_545 S
C431 C432 1.400 . S
C431 C436 1.490 . S
C432 H422 0.930 . S
C432 C431 1.400 . S
C432 C435 1.386 . S
H433 C449 0.930 . S
H434 C450 0.931 . S
C435 H423 0.929 . S
C435 C429 1.390 . S
C435 C432 1.386 . S
C436 C431 1.490 . S
C436 C438 1.395 1_545 S
C436 C439 1.403 . S
H437 C443 0.930 . S
C438 H424 0.930 . S
C438 C436 1.395 1_565 S
C438 C441 1.403 . S
C439 C436 1.403 . S
C439 C440 1.524 . S
C439 C443 1.400 . S
C440 H425 0.960 . S
C440 H426 0.960 . S
C440 H427 0.960 . S
C440 C439 1.524 . S
C441 C438 1.403 . S
C441 C442 1.392 1_565 S
C441 C445 1.495 . S
C442 C441 1.392 1_545 S
C442 C443 1.385 . S
C442 C444 1.478 . S
C443 H437 0.930 . S
C443 C439 1.400 . S
C443 C442 1.385 . S
C444 C442 1.478 . S
C444 C446 1.381 . S
C444 C450 1.383 . S
C445 C441 1.495 . S
C445 H451 0.959 . S
C445 H452 0.961 . S
C445 H453 0.960 . S
C446 C444 1.381 . S
C446 C447 1.394 . S
C446 H454 0.930 1_545 S
C447 C446 1.394 . S
C447 C448 1.383 . S
C447 H455 0.929 . S
C448 C447 1.383 . S
C448 C449 1.377 . S
C449 H433 0.930 . S
C449 C448 1.377 . S
C449 C450 1.379 . S
C450 H434 0.931 . S
C450 C444 1.383 . S
C450 C449 1.379 . S
H451 C445 0.959 . S
H452 C445 0.961 . S
H453 C445 0.960 . S
H454 C446 0.930 1_565 S
H455 C447 0.929 . S
H456 C464 0.929 . S
H457 C466 0.930 . S
H458 C468 0.930 . S
H459 C471 0.929 . S
H460 C474 0.930 . S
H461 C476 0.960 . S
H462 C476 0.960 . S
H463 C476 0.960 . S
C464 H456 0.929 . S
C464 C465 1.377 . S
C464 C466 1.384 . S
C465 C464 1.377 . S
C465 C471 1.390 1_554 S
C466 H457 0.930 . S
C466 C464 1.384 . S
C466 C467 1.372 . S
C467 C466 1.372 . S
C467 C468 1.400 1_554 S
C467 C472 1.490 . S
C468 H458 0.930 . S
C468 C467 1.400 1_556 S
C468 C471 1.386 . S
H469 C485 0.930 . S
H470 C486 0.931 . S
C471 H459 0.929 . S
C471 C465 1.390 1_556 S
C471 C468 1.386 . S
C472 C467 1.490 . S
C472 C474 1.395 . S
C472 C475 1.403 1_554 S
H473 C479 0.930 . S
C474 H460 0.930 . S
C474 C472 1.395 . S
C474 C477 1.403 . S
C475 C472 1.403 1_556 S
C475 C476 1.524 . S
C475 C479 1.400 . S
C476 H461 0.960 . S
C476 H462 0.960 . S
C476 H463 0.960 . S
C476 C475 1.524 . S
C477 C474 1.403 . S
C477 C478 1.392 . S
C477 C481 1.495 . S
C478 C477 1.392 . S
C478 C479 1.385 1_554 S
C478 C480 1.478 . S
C479 H473 0.930 . S
C479 C475 1.400 . S
C479 C478 1.385 1_556 S
C480 C478 1.478 . S
C480 C482 1.381 . S
C480 C486 1.383 1_554 S
C481 C477 1.495 . S
C481 H487 0.959 . S
C481 H488 0.961 . S
C481 H489 0.960 . S
C482 C480 1.381 . S
C482 C483 1.394 . S
C482 H490 0.930 . S
C483 C482 1.394 . S
C483 C484 1.383 . S
C483 H491 0.929 . S
C484 C483 1.383 . S
C484 C485 1.377 1_554 S
C485 H469 0.930 . S
C485 C484 1.377 1_556 S
C485 C486 1.379 . S
C486 H470 0.931 . S
C486 C480 1.383 1_556 S
C486 C485 1.379 . S
H487 C481 0.959 . S
H488 C481 0.961 . S
H489 C481 0.960 . S
H490 C482 0.930 . S
H491 C483 0.929 . S
H492 C500 0.929 . S
H493 C502 0.930 . S
H494 C504 0.930 . S
H495 C507 0.929 . S
H496 C510 0.930 . S
H497 C512 0.960 . S
H498 C512 0.960 1_554 S
H499 C512 0.960 . S
C500 H492 0.929 . S
C500 C501 1.377 . S
C500 C502 1.384 . S
C501 C500 1.377 . S
C501 C507 1.390 1_554 S
C502 H493 0.930 . S
C502 C500 1.384 . S
C502 C503 1.372 . S
C503 C502 1.372 . S
C503 C504 1.400 1_554 S
C503 C508 1.490 . S
C504 H494 0.930 . S
C504 C503 1.400 1_556 S
C504 C507 1.386 . S
H505 C521 0.930 . S
H506 C522 0.931 . S
C507 H495 0.929 . S
C507 C501 1.390 1_556 S
C507 C504 1.386 . S
C508 C503 1.490 . S
C508 C510 1.395 . S
C508 C511 1.403 . S
H509 C515 0.930 1_556 S
C510 H496 0.930 . S
C510 C508 1.395 . S
C510 C513 1.403 . S
C511 C508 1.403 . S
C511 C512 1.524 1_554 S
C511 C515 1.400 . S
C512 H497 0.960 . S
C512 H498 0.960 1_556 S
C512 H499 0.960 . S
C512 C511 1.524 1_556 S
C513 C510 1.403 . S
C513 C514 1.392 . S
C513 C517 1.495 . S
C514 C513 1.392 . S
C514 C515 1.385 . S
C514 C516 1.478 . S
C515 H509 0.930 1_554 S
C515 C511 1.400 . S
C515 C514 1.385 . S
C516 C514 1.478 . S
C516 C518 1.381 . S
C516 C522 1.383 1_554 S
C517 C513 1.495 . S
C517 H523 0.959 . S
C517 H524 0.961 . S
C517 H525 0.960 . S
C518 C516 1.381 . S
C518 C519 1.394 . S
C518 H526 0.930 . S
C519 C518 1.394 . S
C519 C520 1.383 . S
C519 H527 0.929 . S
C520 C519 1.383 . S
C520 C521 1.377 1_554 S
C521 H505 0.930 . S
C521 C520 1.377 1_556 S
C521 C522 1.379 . S
C522 H506 0.931 . S
C522 C516 1.383 1_556 S
C522 C521 1.379 . S
H523 C517 0.959 . S
H524 C517 0.961 . S
H525 C517 0.960 . S
H526 C518 0.930 . S
H527 C519 0.929 . S
H528 C536 0.929 . S
H529 C538 0.930 . S
H530 C540 0.930 . S
H531 C543 0.929 . S
H532 C546 0.930 . S
H533 C548 0.960 . S
H534 C548 0.960 . S
H535 C548 0.960 . S
C536 H528 0.929 . S
C536 C537 1.377 . S
C536 C538 1.384 . S
C537 C536 1.377 . S
C537 C543 1.390 . S
C538 H529 0.930 . S
C538 C536 1.384 . S
C538 C539 1.372 . S
C539 C538 1.372 . S
C539 C540 1.400 . S
C539 C544 1.490 . S
C540 H530 0.930 . S
C540 C539 1.400 . S
C540 C543 1.386 . S
H541 C557 0.930 . S
H542 C558 0.926 1_556 S
C543 H531 0.929 . S
C543 C537 1.390 . S
C543 C540 1.386 . S
C544 C539 1.490 . S
C544 C546 1.395 1_554 S
C544 C547 1.403 . S
H545 C551 0.930 . S
C546 H532 0.930 . S
C546 C544 1.395 1_556 S
C546 C549 1.403 . S
C547 C544 1.403 . S
C547 C548 1.524 . S
C547 C551 1.400 . S
C548 H533 0.960 . S
C548 H534 0.960 . S
C548 H535 0.960 . S
C548 C547 1.524 . S
C549 C546 1.403 . S
C549 C550 1.392 1_556 S
C549 C553 1.495 . S
C550 C549 1.392 1_554 S
C550 C551 1.385 . S
C550 C552 1.478 . S
C551 H545 0.930 . S
C551 C547 1.400 . S
C551 C550 1.385 . S
C552 C550 1.478 . S
C552 C554 1.381 . S
C552 C558 1.383 . S
C553 C549 1.495 . S
C553 H559 0.959 . S
C553 H560 0.961 . S
C553 H561 0.960 . S
C554 C552 1.381 . S
C554 C555 1.394 . S
C554 H562 0.930 . S
C555 C554 1.394 . S
C555 C556 1.383 . S
C555 H563 0.929 . S
C556 C555 1.383 . S
C556 C557 1.377 . S
C557 H541 0.930 . S
C557 C556 1.377 . S
C557 C558 1.379 . S
C558 H542 0.926 1_554 S
C558 C552 1.383 . S
C558 C557 1.379 . S
H559 C553 0.959 . S
H560 C553 0.961 . S
H561 C553 0.960 . S
H562 C554 0.930 . S
H563 C555 0.929 . S
H564 C572 0.929 . S
H565 C574 0.930 . S
H566 C576 0.930 . S
H567 C579 0.929 . S
H568 C582 0.930 . S
H569 C584 0.960 . S
H570 C584 0.960 1_556 S
H571 C584 0.960 . S
C572 H564 0.929 . S
C572 C573 1.377 1_556 S
C572 C574 1.384 . S
C573 C572 1.377 1_554 S
C573 C579 1.390 . S
C574 H565 0.930 . S
C574 C572 1.384 . S
C574 C575 1.372 1_556 S
C575 C574 1.372 1_554 S
C575 C576 1.400 . S
C575 C580 1.490 . S
C576 H566 0.930 . S
C576 C575 1.400 . S
C576 C579 1.386 . S
H577 C593 0.930 . S
H578 C594 0.931 . S
C579 H567 0.929 . S
C579 C573 1.390 . S
C579 C576 1.386 . S
C580 C575 1.490 . S
C580 C582 1.395 . S
C580 C583 1.403 . S
H581 C587 0.930 . S
C582 H568 0.930 . S
C582 C580 1.395 . S
C582 C585 1.403 . S
C583 C580 1.403 . S
C583 C584 1.524 . S
C583 C587 1.400 . S
C584 H569 0.960 . S
C584 H570 0.960 1_554 S
C584 H571 0.960 . S
C584 C583 1.524 . S
C585 C582 1.403 . S
C585 C586 1.392 . S
C585 C589 1.495 . S
C586 C585 1.392 . S
C586 C587 1.385 . S
C586 C588 1.478 . S
C587 H581 0.930 . S
C587 C583 1.400 . S
C587 C586 1.385 . S
C588 C586 1.478 . S
C588 C590 1.381 1_554 S
C588 C594 1.383 . S
C589 C585 1.495 . S
C589 H595 0.960 . S
C589 H596 0.961 . S
C589 H597 0.960 1_554 S
C590 C588 1.381 1_556 S
C590 C591 1.394 . S
C590 H598 0.930 . S
C591 C590 1.394 . S
C591 C592 1.383 1_556 S
C591 H599 0.929 . S
C592 C591 1.383 1_554 S
C592 C593 1.377 . S
C593 H577 0.930 . S
C593 C592 1.377 . S
C593 C594 1.379 . S
C594 H578 0.931 . S
C594 C588 1.383 . S
C594 C593 1.379 . S
H595 C589 0.960 . S
H596 C589 0.961 . S
H597 C589 0.960 1_556 S
H598 C590 0.930 . S
H599 C591 0.929 . S
H600 C608 0.929 . S
H601 C610 0.930 . S
H602 C612 0.930 . S
H603 C615 0.929 . S
H604 C618 0.930 . S
H605 C620 0.960 . S
H606 C620 0.960 . S
H607 C620 0.960 . S
C608 H600 0.929 . S
C608 C609 1.377 . S
C608 C610 1.384 . S
C609 C608 1.377 . S
C609 C615 1.390 . S
C610 H601 0.930 . S
C610 C608 1.384 . S
C610 C611 1.372 . S
C611 C610 1.372 . S
C611 C612 1.400 . S
C611 C616 1.490 . S
C612 H602 0.930 . S
C612 C611 1.400 . S
C612 C615 1.386 . S
H613 C629 0.930 . S
H614 C630 0.931 . S
C615 H603 0.929 . S
C615 C609 1.390 . S
C615 C612 1.386 . S
C616 C611 1.490 . S
C616 C618 1.395 . S
C616 C619 1.403 . S
H617 C623 0.930 . S
C618 H604 0.930 . S
C618 C616 1.395 . S
C618 C621 1.403 . S
C619 C616 1.403 . S
C619 C620 1.524 . S
C619 C623 1.400 . S
C620 H605 0.960 . S
C620 H606 0.960 . S
C620 H607 0.960 . S
C620 C619 1.524 . S
C621 C618 1.403 . S
C621 C622 1.392 . S
C621 C625 1.495 . S
C622 C621 1.392 . S
C622 C623 1.385 . S
C622 C624 1.478 . S
C623 H617 0.930 . S
C623 C619 1.400 . S
C623 C622 1.385 . S
C624 C622 1.478 . S
C624 C626 1.381 . S
C624 C630 1.383 . S
C625 C621 1.495 . S
C625 H631 0.959 . S
C625 H632 0.961 . S
C625 H633 0.960 . S
C626 C624 1.381 . S
C626 C627 1.394 . S
C626 H634 0.930 . S
C627 C626 1.394 . S
C627 C628 1.383 . S
C627 H635 0.929 . S
C628 C627 1.383 . S
C628 C629 1.377 . S
C629 H613 0.930 . S
C629 C628 1.377 . S
C629 C630 1.379 . S
C630 H614 0.931 . S
C630 C624 1.383 . S
C630 C629 1.379 . S
H631 C625 0.959 . S
H632 C625 0.961 . S
H633 C625 0.960 . S
H634 C626 0.930 . S
H635 C627 0.929 . S
H636 C644 0.929 . S
H637 C646 0.930 . S
H638 C648 0.930 . S
H639 C651 0.929 . S
H640 C654 0.930 . S
H641 C656 0.960 . S
H642 C656 0.960 . S
H643 C656 0.960 . S
C644 H636 0.929 . S
C644 C645 1.377 . S
C644 C646 1.384 . S
C645 C644 1.377 . S
C645 C651 1.390 . S
C646 H637 0.930 . S
C646 C644 1.384 . S
C646 C647 1.372 . S
C647 C646 1.372 . S
C647 C648 1.400 . S
C647 C652 1.490 . S
C648 H638 0.930 . S
C648 C647 1.400 . S
C648 C651 1.386 . S
H649 C665 0.930 . S
H650 C666 0.931 . S
C651 H639 0.929 . S
C651 C645 1.390 . S
C651 C648 1.386 . S
C652 C647 1.490 . S
C652 C654 1.395 . S
C652 C655 1.403 . S
H653 C659 0.930 . S
C654 H640 0.930 . S
C654 C652 1.395 . S
C654 C657 1.403 . S
C655 C652 1.403 . S
C655 C656 1.524 . S
C655 C659 1.400 . S
C656 H641 0.960 . S
C656 H642 0.960 . S
C656 H643 0.960 . S
C656 C655 1.524 . S
C657 C654 1.403 . S
C657 C658 1.392 . S
C657 C661 1.495 . S
C658 C657 1.392 . S
C658 C659 1.385 . S
C658 C660 1.478 . S
C659 H653 0.930 . S
C659 C655 1.400 . S
C659 C658 1.385 . S
C660 C658 1.478 . S
C660 C662 1.381 . S
C660 C666 1.383 . S
C661 C657 1.495 . S
C661 H667 0.959 . S
C661 H668 0.961 . S
C661 H669 0.960 . S
C662 C660 1.381 . S
C662 C663 1.394 . S
C662 H670 0.930 . S
C663 C662 1.394 . S
C663 C664 1.383 . S
C663 H671 0.929 . S
C664 C663 1.383 . S
C664 C665 1.377 . S
C665 H649 0.930 . S
C665 C664 1.377 . S
C665 C666 1.379 . S
C666 H650 0.931 . S
C666 C660 1.383 . S
C666 C665 1.379 . S
H667 C661 0.959 . S
H668 C661 0.961 . S
H669 C661 0.960 . S
H670 C662 0.930 . S
H671 C663 0.929 . S
H672 C680 0.929 . S
H673 C682 0.930 . S
H674 C684 0.930 . S
H675 C687 0.929 . S
H676 C690 0.930 . S
H677 C692 0.960 . S
H678 C692 0.960 . S
H679 C692 0.960 . S
C680 H672 0.929 . S
C680 C681 1.377 . S
C680 C682 1.384 . S
C681 C680 1.377 . S
C681 C687 1.390 . S
C682 H673 0.930 . S
C682 C680 1.384 . S
C682 C683 1.372 . S
C683 C682 1.372 . S
C683 C684 1.400 . S
C683 C688 1.490 . S
C684 H674 0.930 . S
C684 C683 1.400 . S
C684 C687 1.386 . S
H685 C701 0.930 . S
H686 C702 0.931 . S
C687 H675 0.929 . S
C687 C681 1.390 . S
C687 C684 1.386 . S
C688 C683 1.490 . S
C688 C690 1.395 . S
C688 C691 1.403 . S
H689 C695 0.930 . S
C690 H676 0.930 . S
C690 C688 1.395 . S
C690 C693 1.403 . S
C691 C688 1.403 . S
C691 C692 1.524 . S
C691 C695 1.400 . S
C692 H677 0.960 . S
C692 H678 0.960 . S
C692 H679 0.960 . S
C692 C691 1.524 . S
C693 C690 1.403 . S
C693 C694 1.392 . S
C693 C697 1.495 . S
C694 C693 1.392 . S
C694 C695 1.385 . S
C694 C696 1.478 . S
C695 H689 0.930 . S
C695 C691 1.400 . S
C695 C694 1.385 . S
C696 C694 1.478 . S
C696 C698 1.381 . S
C696 C702 1.383 . S
C697 C693 1.495 . S
C697 H703 0.959 . S
C697 H704 0.961 . S
C697 H705 0.960 . S
C698 C696 1.381 . S
C698 C699 1.394 . S
C698 H706 0.930 . S
C699 C698 1.394 . S
C699 C700 1.383 . S
C699 H707 0.929 . S
C700 C699 1.383 . S
C700 C701 1.377 . S
C701 H685 0.930 . S
C701 C700 1.377 . S
C701 C702 1.379 . S
C702 H686 0.931 . S
C702 C696 1.383 . S
C702 C701 1.379 . S
H703 C697 0.959 . S
H704 C697 0.961 . S
H705 C697 0.960 . S
H706 C698 0.930 . S
H707 C699 0.929 . S
H708 C716 0.929 . S
H709 C718 0.930 . S
H710 C720 0.930 . S
H711 C723 0.929 . S
H712 C726 0.930 . S
H713 C728 0.960 . S
H714 C728 0.960 . S
H715 C728 0.960 . S
C716 H708 0.929 . S
C716 C717 1.377 . S
C716 C718 1.384 . S
C717 C716 1.377 . S
C717 C723 1.390 . S
C718 H709 0.930 . S
C718 C716 1.384 . S
C718 C719 1.372 . S
C719 C718 1.372 . S
C719 C720 1.400 . S
C719 C724 1.490 . S
C720 H710 0.930 . S
C720 C719 1.400 . S
C720 C723 1.386 . S
H721 C737 0.930 . S
H722 C738 0.931 . S
C723 H711 0.929 . S
C723 C717 1.390 . S
C723 C720 1.386 . S
C724 C719 1.490 . S
C724 C726 1.395 . S
C724 C727 1.403 . S
H725 C731 0.930 . S
C726 H712 0.930 . S
C726 C724 1.395 . S
C726 C729 1.403 . S
C727 C724 1.403 . S
C727 C728 1.524 . S
C727 C731 1.400 . S
C728 H713 0.960 . S
C728 H714 0.960 . S
C728 H715 0.960 . S
C728 C727 1.524 . S
C729 C726 1.403 . S
C729 C730 1.392 . S
C729 C733 1.495 . S
C730 C729 1.392 . S
C730 C731 1.385 . S
C730 C732 1.478 . S
C731 H725 0.930 . S
C731 C727 1.400 . S
C731 C730 1.385 . S
C732 C730 1.478 . S
C732 C734 1.381 . S
C732 C738 1.383 . S
C733 C729 1.495 . S
C733 H739 0.959 . S
C733 H740 0.961 . S
C733 H741 0.960 . S
C734 C732 1.381 . S
C734 C735 1.394 . S
C734 H742 0.930 . S
C735 C734 1.394 . S
C735 C736 1.383 . S
C735 H743 0.929 . S
C736 C735 1.383 . S
C736 C737 1.377 . S
C737 H721 0.930 . S
C737 C736 1.377 . S
C737 C738 1.379 . S
C738 H722 0.931 . S
C738 C732 1.383 . S
C738 C737 1.379 . S
H739 C733 0.959 . S
H740 C733 0.961 . S
H741 C733 0.960 . S
H742 C734 0.930 . S
H743 C735 0.929 . S
H744 C752 0.929 . S
H745 C754 0.930 . S
H746 C756 0.930 . S
H747 C759 0.929 . S
H748 C762 0.930 . S
H749 C764 0.960 . S
H750 C764 0.960 . S
H751 C764 0.960 . S
C752 H744 0.929 . S
C752 C753 1.377 . S
C752 C754 1.384 . S
C753 C752 1.377 . S
C753 C759 1.390 . S
C754 H745 0.930 . S
C754 C752 1.384 . S
C754 C755 1.372 . S
C755 C754 1.372 . S
C755 C756 1.400 . S
C755 C760 1.490 . S
C756 H746 0.930 . S
C756 C755 1.400 . S
C756 C759 1.386 . S
H757 C773 0.930 . S
H758 C774 0.931 . S
C759 H747 0.929 . S
C759 C753 1.390 . S
C759 C756 1.386 . S
C760 C755 1.490 . S
C760 C762 1.395 . S
C760 C763 1.403 . S
H761 C767 0.930 . S
C762 H748 0.930 . S
C762 C760 1.395 . S
C762 C765 1.403 . S
C763 C760 1.403 . S
C763 C764 1.524 . S
C763 C767 1.400 . S
C764 H749 0.960 . S
C764 H750 0.960 . S
C764 H751 0.960 . S
C764 C763 1.524 . S
C765 C762 1.403 . S
C765 C766 1.392 . S
C765 C769 1.495 . S
C766 C765 1.392 . S
C766 C767 1.385 . S
C766 C768 1.478 . S
C767 H761 0.930 . S
C767 C763 1.400 . S
C767 C766 1.385 . S
C768 C766 1.478 . S
C768 C770 1.381 . S
C768 C774 1.383 . S
C769 C765 1.495 . S
C769 H775 0.959 . S
C769 H776 0.961 . S
C769 H777 0.960 . S
C770 C768 1.381 . S
C770 C771 1.394 . S
C770 H778 0.930 . S
C771 C770 1.394 . S
C771 C772 1.383 . S
C771 H779 0.929 . S
C772 C771 1.383 . S
C772 C773 1.377 . S
C773 H757 0.930 . S
C773 C772 1.377 . S
C773 C774 1.379 . S
C774 H758 0.931 . S
C774 C768 1.383 . S
C774 C773 1.379 . S
H775 C769 0.959 . S
H776 C769 0.961 . S
H777 C769 0.960 . S
H778 C770 0.930 . S
H779 C771 0.929 . S
H780 C788 0.929 . S
H781 C790 0.930 . S
H782 C792 0.930 . S
H783 C795 0.929 . S
H784 C798 0.930 . S
H785 C800 0.960 . S
H786 C800 0.960 . S
H787 C800 0.960 . S
C788 H780 0.929 . S
C788 C789 1.377 . S
C788 C790 1.384 . S
C789 C788 1.377 . S
C789 C795 1.390 . S
C790 H781 0.930 . S
C790 C788 1.384 . S
C790 C791 1.372 . S
C791 C790 1.372 . S
C791 C792 1.400 . S
C791 C796 1.490 . S
C792 H782 0.930 . S
C792 C791 1.400 . S
C792 C795 1.386 . S
H793 C809 0.930 . S
H794 C810 0.931 . S
C795 H783 0.929 . S
C795 C789 1.390 . S
C795 C792 1.386 . S
C796 C791 1.490 . S
C796 C798 1.395 . S
C796 C799 1.403 . S
H797 C803 0.930 . S
C798 H784 0.930 . S
C798 C796 1.395 . S
C798 C801 1.403 . S
C799 C796 1.403 . S
C799 C800 1.524 . S
C799 C803 1.400 . S
C800 H785 0.960 . S
C800 H786 0.960 . S
C800 H787 0.960 . S
C800 C799 1.524 . S
C801 C798 1.403 . S
C801 C802 1.392 . S
C801 C805 1.495 . S
C802 C801 1.392 . S
C802 C803 1.385 . S
C802 C804 1.478 . S
C803 H797 0.930 . S
C803 C799 1.400 . S
C803 C802 1.385 . S
C804 C802 1.478 . S
C804 C806 1.381 . S
C804 C810 1.383 . S
C805 C801 1.495 . S
C805 H811 0.959 . S
C805 H812 0.961 . S
C805 H813 0.960 . S
C806 C804 1.381 . S
C806 C807 1.394 . S
C806 H814 0.930 . S
C807 C806 1.394 . S
C807 C808 1.383 . S
C807 H815 0.929 . S
C808 C807 1.383 . S
C808 C809 1.377 . S
C809 H793 0.930 . S
C809 C808 1.377 . S
C809 C810 1.379 . S
C810 H794 0.931 . S
C810 C804 1.383 . S
C810 C809 1.379 . S
H811 C805 0.959 . S
H812 C805 0.961 . S
H813 C805 0.960 . S
H814 C806 0.930 . S
H815 C807 0.929 . S
H816 C824 0.929 . S
H817 C826 0.930 . S
H818 C828 0.930 . S
H819 C831 0.929 . S
H820 C834 0.930 . S
H821 C836 0.960 . S
H822 C836 0.960 . S
H823 C836 0.960 . S
C824 H816 0.929 . S
C824 C825 1.377 . S
C824 C826 1.384 . S
C825 C824 1.377 . S
C825 C831 1.390 . S
C826 H817 0.930 . S
C826 C824 1.384 . S
C826 C827 1.372 . S
C827 C826 1.372 . S
C827 C828 1.400 . S
C827 C832 1.490 . S
C828 H818 0.930 . S
C828 C827 1.400 . S
C828 C831 1.386 . S
H829 C845 0.930 . S
H830 C846 0.931 . S
C831 H819 0.929 . S
C831 C825 1.390 . S
C831 C828 1.386 . S
C832 C827 1.490 . S
C832 C834 1.395 . S
C832 C835 1.403 . S
H833 C839 0.930 . S
C834 H820 0.930 . S
C834 C832 1.395 . S
C834 C837 1.403 . S
C835 C832 1.403 . S
C835 C836 1.524 . S
C835 C839 1.400 . S
C836 H821 0.960 . S
C836 H822 0.960 . S
C836 H823 0.960 . S
C836 C835 1.524 . S
C837 C834 1.403 . S
C837 C838 1.392 . S
C837 C841 1.495 . S
C838 C837 1.392 . S
C838 C839 1.385 . S
C838 C840 1.478 . S
C839 H833 0.930 . S
C839 C835 1.400 . S
C839 C838 1.385 . S
C840 C838 1.478 . S
C840 C842 1.381 . S
C840 C846 1.383 . S
C841 C837 1.495 . S
C841 H847 0.959 . S
C841 H848 0.961 . S
C841 H849 0.960 . S
C842 C840 1.381 . S
C842 C843 1.394 . S
C842 H850 0.930 . S
C843 C842 1.394 . S
C843 C844 1.383 . S
C843 H851 0.929 . S
C844 C843 1.383 . S
C844 C845 1.377 . S
C845 H829 0.930 . S
C845 C844 1.377 . S
C845 C846 1.379 . S
C846 H830 0.931 . S
C846 C840 1.383 . S
C846 C845 1.379 . S
H847 C841 0.959 . S
H848 C841 0.961 . S
H849 C841 0.960 . S
H850 C842 0.930 . S
H851 C843 0.929 . S
H852 C860 0.929 . S
H853 C862 0.930 . S
H854 C864 0.930 . S
H855 C867 0.929 . S
H856 C870 0.930 . S
H857 C872 0.960 . S
H858 C872 0.960 . S
H859 C872 0.960 . S
C860 H852 0.929 . S
C860 C861 1.377 . S
C860 C862 1.384 . S
C861 C860 1.377 . S
C861 C867 1.390 . S
C862 H853 0.930 . S
C862 C860 1.384 . S
C862 C863 1.372 . S
C863 C862 1.372 . S
C863 C864 1.400 . S
C863 C868 1.490 . S
C864 H854 0.930 . S
C864 C863 1.400 . S
C864 C867 1.386 . S
H865 C881 0.930 . S
H866 C882 0.931 . S
C867 H855 0.929 . S
C867 C861 1.390 . S
C867 C864 1.386 . S
C868 C863 1.490 . S
C868 C870 1.395 . S
C868 C871 1.403 . S
H869 C875 0.930 . S
C870 H856 0.930 . S
C870 C868 1.395 . S
C870 C873 1.403 . S
C871 C868 1.403 . S
C871 C872 1.524 . S
C871 C875 1.400 . S
C872 H857 0.960 . S
C872 H858 0.960 . S
C872 H859 0.960 . S
C872 C871 1.524 . S
C873 C870 1.403 . S
C873 C874 1.392 . S
C873 C877 1.495 . S
C874 C873 1.392 . S
C874 C875 1.385 . S
C874 C876 1.478 . S
C875 H869 0.930 . S
C875 C871 1.400 . S
C875 C874 1.385 . S
C876 C874 1.478 . S
C876 C878 1.381 . S
C876 C882 1.383 . S
C877 C873 1.495 . S
C877 H883 0.959 . S
C877 H884 0.961 . S
C877 H885 0.960 . S
C878 C876 1.381 . S
C878 C879 1.394 . S
C878 H886 0.930 . S
C879 C878 1.394 . S
C879 C880 1.383 . S
C879 H887 0.929 . S
C880 C879 1.383 . S
C880 C881 1.377 . S
C881 H865 0.930 . S
C881 C880 1.377 . S
C881 C882 1.379 . S
C882 H866 0.931 . S
C882 C876 1.383 . S
C882 C881 1.379 . S
H883 C877 0.959 . S
H884 C877 0.961 . S
H885 C877 0.960 . S
H886 C878 0.930 . S
H887 C879 0.929 . S
H888 C896 0.929 . S
H889 C898 0.930 . S
H890 C900 0.930 . S
H891 C903 0.929 . S
H892 C906 0.930 . S
H893 C908 0.960 . S
H894 C908 0.960 . S
H895 C908 0.960 . S
C896 H888 0.929 . S
C896 C897 1.377 . S
C896 C898 1.384 . S
C897 C896 1.377 . S
C897 C903 1.390 . S
C898 H889 0.930 . S
C898 C896 1.384 . S
C898 C899 1.372 . S
C899 C898 1.372 . S
C899 C900 1.400 . S
C899 C904 1.490 . S
C900 H890 0.930 . S
C900 C899 1.400 . S
C900 C903 1.386 . S
H901 C917 0.930 . S
H902 C918 0.931 . S
C903 H891 0.929 . S
C903 C897 1.390 . S
C903 C900 1.386 . S
C904 C899 1.490 . S
C904 C906 1.395 . S
C904 C907 1.403 . S
H905 C911 0.930 . S
C906 H892 0.930 . S
C906 C904 1.395 . S
C906 C909 1.403 . S
C907 C904 1.403 . S
C907 C908 1.524 . S
C907 C911 1.400 . S
C908 H893 0.960 . S
C908 H894 0.960 . S
C908 H895 0.960 . S
C908 C907 1.524 . S
C909 C906 1.403 . S
C909 C910 1.392 . S
C909 C913 1.495 . S
C910 C909 1.392 . S
C910 C911 1.385 . S
C910 C912 1.478 . S
C911 H905 0.930 . S
C911 C907 1.400 . S
C911 C910 1.385 . S
C912 C910 1.478 . S
C912 C914 1.381 . S
C912 C918 1.383 . S
C913 C909 1.495 . S
C913 H919 0.959 . S
C913 H920 0.961 . S
C913 H921 0.960 . S
C914 C912 1.381 . S
C914 C915 1.394 . S
C914 H922 0.930 . S
C915 C914 1.394 . S
C915 C916 1.383 . S
C915 H923 0.929 . S
C916 C915 1.383 . S
C916 C917 1.377 . S
C917 H901 0.930 . S
C917 C916 1.377 . S
C917 C918 1.379 . S
C918 H902 0.931 . S
C918 C912 1.383 . S
C918 C917 1.379 . S
H919 C913 0.959 . S
H920 C913 0.961 . S
H921 C913 0.960 . S
H922 C914 0.930 . S
H923 C915 0.929 . S
H924 C932 0.929 . S
H925 C934 0.930 . S
H926 C936 0.930 . S
H927 C939 0.929 . S
H928 C942 0.930 . S
H929 C944 0.960 . S
H930 C944 0.960 . S
H931 C944 0.960 . S
C932 H924 0.929 . S
C932 C933 1.377 . S
C932 C934 1.384 . S
C933 C932 1.377 . S
C933 C939 1.390 . S
C934 H925 0.930 . S
C934 C932 1.384 . S
C934 C935 1.372 . S
C935 C934 1.372 . S
C935 C936 1.400 . S
C935 C940 1.490 . S
C936 H926 0.930 . S
C936 C935 1.400 . S
C936 C939 1.386 . S
H937 C953 0.930 . S
H938 C954 0.931 . S
C939 H927 0.929 . S
C939 C933 1.390 . S
C939 C936 1.386 . S
C940 C935 1.490 . S
C940 C942 1.395 . S
C940 C943 1.403 . S
H941 C947 0.930 . S
C942 H928 0.930 . S
C942 C940 1.395 . S
C942 C945 1.403 . S
C943 C940 1.403 . S
C943 C944 1.524 . S
C943 C947 1.400 . S
C944 H929 0.960 . S
C944 H930 0.960 . S
C944 H931 0.960 . S
C944 C943 1.524 . S
C945 C942 1.403 . S
C945 C946 1.392 . S
C945 C949 1.495 . S
C946 C945 1.392 . S
C946 C947 1.385 . S
C946 C948 1.478 . S
C947 H941 0.930 . S
C947 C943 1.400 . S
C947 C946 1.385 . S
C948 C946 1.478 . S
C948 C950 1.381 . S
C948 C954 1.383 . S
C949 C945 1.495 . S
C949 H955 0.959 . S
C949 H956 0.961 . S
C949 H957 0.960 . S
C950 C948 1.381 . S
C950 C951 1.394 . S
C950 H958 0.930 . S
C951 C950 1.394 . S
C951 C952 1.383 . S
C951 H959 0.929 . S
C952 C951 1.383 . S
C952 C953 1.377 . S
C953 H937 0.930 . S
C953 C952 1.377 . S
C953 C954 1.379 . S
C954 H938 0.931 . S
C954 C948 1.383 . S
C954 C953 1.379 . S
H955 C949 0.959 . S
H956 C949 0.961 . S
H957 C949 0.960 . S
H958 C950 0.930 . S
H959 C951 0.929 . S
H960 C968 0.929 . S
H961 C970 0.930 . S
H962 C972 0.930 . S
H963 C975 0.929 . S
H964 C978 0.930 . S
H965 C980 0.960 . S
H966 C980 0.960 . S
H967 C980 0.960 . S
C968 H960 0.929 . S
C968 C969 1.377 . S
C968 C970 1.384 . S
C969 C968 1.377 . S
C969 C975 1.390 . S
C970 H961 0.930 . S
C970 C968 1.384 . S
C970 C971 1.372 . S
C971 C970 1.372 . S
C971 C972 1.400 . S
C971 C976 1.490 . S
C972 H962 0.930 . S
C972 C971 1.400 . S
C972 C975 1.386 . S
H973 C989 0.930 . S
H974 C990 0.931 . S
C975 H963 0.929 . S
C975 C969 1.390 . S
C975 C972 1.386 . S
C976 C971 1.490 . S
C976 C978 1.395 . S
C976 C979 1.403 . S
H977 C983 0.930 . S
C978 H964 0.930 . S
C978 C976 1.395 . S
C978 C981 1.403 . S
C979 C976 1.403 . S
C979 C980 1.524 . S
C979 C983 1.400 . S
C980 H965 0.960 . S
C980 H966 0.960 . S
C980 H967 0.960 . S
C980 C979 1.524 . S
C981 C978 1.403 . S
C981 C982 1.392 . S
C981 C985 1.495 . S
C982 C981 1.392 . S
C982 C983 1.385 . S
C982 C984 1.478 . S
C983 H977 0.930 . S
C983 C979 1.400 . S
C983 C982 1.385 . S
C984 C982 1.478 . S
C984 C986 1.381 . S
C984 C990 1.383 . S
C985 C981 1.495 . S
C985 H991 0.959 . S
C985 H992 0.961 . S
C985 H993 0.960 . S
C986 C984 1.381 . S
C986 C987 1.394 . S
C986 H994 0.930 . S
C987 C986 1.394 . S
C987 C988 1.383 . S
C987 H995 0.929 . S
C988 C987 1.383 . S
C988 C989 1.377 . S
C989 H973 0.930 . S
C989 C988 1.377 . S
C989 C990 1.379 . S
C990 H974 0.931 . S
C990 C984 1.383 . S
C990 C989 1.379 . S
H991 C985 0.959 . S
H992 C985 0.961 . S
H993 C985 0.960 . S
H994 C986 0.930 . S
H995 C987 0.929 . S
H996 C1004 0.929 . S
H997 C1006 0.930 . S
H998 C1008 0.930 . S
H999 C1011 0.929 . S
H1000 C1014 0.930 . S
H1001 C1016 0.960 . S
H1002 C1016 0.960 . S
H1003 C1016 0.960 . S
C1004 H996 0.929 . S
C1004 C1005 1.377 . S
C1004 C1006 1.384 . S
C1005 C1004 1.377 . S
C1005 C1011 1.390 . S
C1006 H997 0.930 . S
C1006 C1004 1.384 . S
C1006 C1007 1.372 . S
C1007 C1006 1.372 . S
C1007 C1008 1.400 . S
C1007 C1012 1.490 . S
C1008 H998 0.930 . S
C1008 C1007 1.400 . S
C1008 C1011 1.386 . S
H1009 C1025 0.930 . S
H1010 C1026 0.931 . S
C1011 H999 0.929 . S
C1011 C1005 1.390 . S
C1011 C1008 1.386 . S
C1012 C1007 1.490 . S
C1012 C1014 1.395 . S
C1012 C1015 1.403 . S
H1013 C1019 0.930 . S
C1014 H1000 0.930 . S
C1014 C1012 1.395 . S
C1014 C1017 1.403 . S
C1015 C1012 1.403 . S
C1015 C1016 1.524 . S
C1015 C1019 1.400 . S
C1016 H1001 0.960 . S
C1016 H1002 0.960 . S
C1016 H1003 0.960 . S
C1016 C1015 1.524 . S
C1017 C1014 1.403 . S
C1017 C1018 1.392 . S
C1017 C1021 1.495 . S
C1018 C1017 1.392 . S
C1018 C1019 1.385 . S
C1018 C1020 1.478 . S
C1019 H1013 0.930 . S
C1019 C1015 1.400 . S
C1019 C1018 1.385 . S
C1020 C1018 1.478 . S
C1020 C1022 1.381 . S
C1020 C1026 1.383 . S
C1021 C1017 1.495 . S
C1021 H1027 0.959 . S
C1021 H1028 0.961 . S
C1021 H1029 0.960 . S
C1022 C1020 1.381 . S
C1022 C1023 1.394 . S
C1022 H1030 0.930 . S
C1023 C1022 1.394 . S
C1023 C1024 1.383 . S
C1023 H1031 0.929 . S
C1024 C1023 1.383 . S
C1024 C1025 1.377 . S
C1025 H1009 0.930 . S
C1025 C1024 1.377 . S
C1025 C1026 1.379 . S
C1026 H1010 0.931 . S
C1026 C1020 1.383 . S
C1026 C1025 1.379 . S
H1027 C1021 0.959 . S
H1028 C1021 0.961 . S
H1029 C1021 0.960 . S
H1030 C1022 0.930 . S
H1031 C1023 0.929 . S
C177 C13 1.249 . S
C196 C81 1.315 . S
C213 C25 1.216 . S
C232 C64 1.199 . S
C249 C83 1.259 . S
C268 C41 1.287 . S
C285 C53 1.266 . S
C304 C63 1.247 . S
C321 C105 1.343 . S
C340 C39 1.356 . S
C357 C92 1.384 . S
C376 C55 1.356 . S
C393 C11 1.329 . S
C412 C106 1.317 . S
C429 C91 1.391 . S
C448 C27 1.325 . S
C465 C133 1.256 . S
C484 C119 1.237 . S
C501 C120 1.124 . S
C520 C162 1.139 . S
C537 C134 1.199 . S
C556 C148 1.214 . S
C573 C147 1.263 . S
C592 C161 1.251 . S
C609 C167 1.285 . S
C628 C95 1.333 . S
C645 C123 1.043 . S
C664 C109 1.037 . S
C681 C97 1.329 . S
C700 C139 1.337 . S
C717 C111 1.107 . S
C736 C151 1.147 . S
C753 C69 1.188 . S
C772 C137 1.236 . S
C789 C78 1.468 . S
C808 C153 1.395 . S
C825 C165 1.154 . S
C844 C67 1.156 . S
C861 C125 1.370 . S
C880 C77 1.421 . S
C897 C21 1.386 . S
C916 C35 1.372 . S
C933 C8 1.267 . S
C952 C22 1.283 . S
C969 C36 1.346 . S
C988 C50 1.338 . S
C1005 C7 1.393 . S
C1024 C49 1.389 . S
