# Generated by pormake.
# Topology bcu-g, (3)-cn, num edge types: 1
# Building blocks:
#     Node 0, Type 0, BuildingBlock: WUSLED_clean_sbu_0, # of connection points: 3
#     Node 1, Type 0, BuildingBlock: WUSLED_clean_sbu_0, # of connection points: 3
#     Node 2, Type 0, BuildingBlock: WUSLED_clean_sbu_0, # of connection points: 3
#     Node 3, Type 0, BuildingBlock: WUSLED_clean_sbu_0, # of connection points: 3
#     Node 4, Type 0, BuildingBlock: WUSLED_clean_sbu_0, # of connection points: 3
#     Node 5, Type 0, BuildingBlock: WUSLED_clean_sbu_0, # of connection points: 3
#     Node 6, Type 0, BuildingBlock: WUSLED_clean_sbu_0, # of connection points: 3
#     Node 7, Type 0, BuildingBlock: WUSLED_clean_sbu_0, # of connection points: 3
#     Node 8, Type 0, BuildingBlock: WUSLED_clean_sbu_0, # of connection points: 3
#     Node 9, Type 0, BuildingBlock: WUSLED_clean_sbu_0, # of connection points: 3
#     Node 10, Type 0, BuildingBlock: WUSLED_clean_sbu_0, # of connection points: 3
#     Node 11, Type 0, BuildingBlock: WUSLED_clean_sbu_0, # of connection points: 3
#     Node 12, Type 0, BuildingBlock: WUSLED_clean_sbu_0, # of connection points: 3
#     Node 13, Type 0, BuildingBlock: WUSLED_clean_sbu_0, # of connection points: 3
#     Node 14, Type 0, BuildingBlock: WUSLED_clean_sbu_0, # of connection points: 3
#     Node 15, Type 0, BuildingBlock: WUSLED_clean_sbu_0, # of connection points: 3
#     Edge 16, Type (0, 0), BuildingBlock: XIVTED_clean_linker_0, # of connection points: 2
#     Edge 17, Type (0, 0), BuildingBlock: XIVTED_clean_linker_0, # of connection points: 2
#     Edge 18, Type (0, 0), BuildingBlock: XIVTED_clean_linker_0, # of connection points: 2
#     Edge 19, Type (0, 0), BuildingBlock: XIVTED_clean_linker_0, # of connection points: 2
#     Edge 20, Type (0, 0), BuildingBlock: XIVTED_clean_linker_0, # of connection points: 2
#     Edge 21, Type (0, 0), BuildingBlock: XIVTED_clean_linker_0, # of connection points: 2
#     Edge 22, Type (0, 0), BuildingBlock: XIVTED_clean_linker_0, # of connection points: 2
#     Edge 23, Type (0, 0), BuildingBlock: XIVTED_clean_linker_0, # of connection points: 2
#     Edge 24, Type (0, 0), BuildingBlock: XIVTED_clean_linker_0, # of connection points: 2
#     Edge 25, Type (0, 0), BuildingBlock: XIVTED_clean_linker_0, # of connection points: 2
#     Edge 26, Type (0, 0), BuildingBlock: XIVTED_clean_linker_0, # of connection points: 2
#     Edge 27, Type (0, 0), BuildingBlock: XIVTED_clean_linker_0, # of connection points: 2
#     Edge 28, Type (0, 0), BuildingBlock: XIVTED_clean_linker_0, # of connection points: 2
#     Edge 29, Type (0, 0), BuildingBlock: XIVTED_clean_linker_0, # of connection points: 2
#     Edge 30, Type (0, 0), BuildingBlock: XIVTED_clean_linker_0, # of connection points: 2
#     Edge 31, Type (0, 0), BuildingBlock: XIVTED_clean_linker_0, # of connection points: 2
#     Edge 32, Type (0, 0), BuildingBlock: XIVTED_clean_linker_0, # of connection points: 2
#     Edge 33, Type (0, 0), BuildingBlock: XIVTED_clean_linker_0, # of connection points: 2
#     Edge 34, Type (0, 0), BuildingBlock: XIVTED_clean_linker_0, # of connection points: 2
#     Edge 35, Type (0, 0), BuildingBlock: XIVTED_clean_linker_0, # of connection points: 2
#     Edge 36, Type (0, 0), BuildingBlock: XIVTED_clean_linker_0, # of connection points: 2
#     Edge 37, Type (0, 0), BuildingBlock: XIVTED_clean_linker_0, # of connection points: 2
#     Edge 38, Type (0, 0), BuildingBlock: XIVTED_clean_linker_0, # of connection points: 2
#     Edge 39, Type (0, 0), BuildingBlock: XIVTED_clean_linker_0, # of connection points: 2
# Relax obj value: 0.203
# Max RMSD: 0.161
# Mean RMSD: 0.115
data_MOF--net-bcu-g--node1-WUSLED_clean_sbu_0--edge1-XIVTED_clean_linker_0
_symmetry_space_group_name_H-M    P1
_symmetry_Int_Tables_number       1
_symmetry_cell_setting            triclinic
loop_
_symmetry_equiv_pos_as_xyz
'x, y, z'
_cell_length_a     54.348421
_cell_length_b     54.341685
_cell_length_c     63.66274
_cell_angle_alpha  89.665581
_cell_angle_beta   90.372045
_cell_angle_gamma 90.235198
loop_
_atom_site_label
_atom_site_type_symbol
_atom_site_fract_x
_atom_site_fract_y
_atom_site_fract_z
_atom_type_partial_charge
C0 C 0.58167 0.19913 0.13026 0.0
C1 C 0.57122 0.17603 0.13487 0.0
C2 C 0.55476 0.1731 0.09911 0.0
C3 C 0.55796 0.16312 0.11943 0.0
C4 C 0.56424 0.19678 0.09498 0.0
C5 C 0.5776 0.20958 0.11036 0.0
U6 U 0.60954 0.21157 0.18533 0.0
O7 O 0.64907 0.21024 0.19303 0.0
O8 O 0.62832 0.2447 0.19808 0.0
C9 C 0.64977 0.23354 0.19837 0.0
C10 C 0.59925 0.21117 0.14484 0.0
C11 C 0.67079 0.24299 0.21077 0.0
C12 C 0.71176 0.26108 0.20982 0.0
C13 C 0.68963 0.25508 0.19982 0.0
C14 C 0.69611 0.24446 0.2425 0.0
C15 C 0.71551 0.25535 0.23112 0.0
C16 C 0.67389 0.23809 0.23232 0.0
C17 C 0.57537 0.17491 0.23058 0.0
C18 C 0.59067 0.15049 0.25988 0.0
C19 C 0.54794 0.14705 0.24921 0.0
C20 C 0.55174 0.16517 0.2339 0.0
C21 C 0.5677 0.13869 0.26153 0.0
C22 C 0.59453 0.16854 0.24444 0.0
C23 C 0.58037 0.18588 0.20986 0.0
O24 O 0.59062 0.22791 0.15766 0.0
O25 O 0.61514 0.19637 0.15393 0.0
O26 O 0.59891 0.17647 0.19953 0.0
O27 O 0.57782 0.20974 0.20708 0.0
H28 H 0.57408 0.16758 0.15014 0.0
H29 H 0.55062 0.1451 0.12329 0.0
H30 H 0.56237 0.20499 0.07952 0.0
H31 H 0.58564 0.22727 0.10639 0.0
H32 H 0.72635 0.26948 0.2007 0.0
H33 H 0.68765 0.25892 0.18316 0.0
H34 H 0.69862 0.23969 0.25892 0.0
H35 H 0.65961 0.22863 0.24103 0.0
H36 H 0.60618 0.14412 0.26918 0.0
H37 H 0.53018 0.13797 0.25007 0.0
H38 H 0.53677 0.16971 0.22325 0.0
H39 H 0.61291 0.17579 0.24209 0.0
C40 C 0.65617 0.52316 0.08558 0.0
C41 C 0.66401 0.49939 0.08067 0.0
C42 C 0.6797 0.51337 0.04678 0.0
C43 C 0.67558 0.49453 0.06163 0.0
C44 C 0.67218 0.53746 0.05182 0.0
C45 C 0.66037 0.54232 0.07105 0.0
U46 U 0.62298 0.54307 0.14021 0.0
O47 O 0.60666 0.58025 0.13888 0.0
O48 O 0.64171 0.57434 0.15538 0.0
C49 C 0.62398 0.58989 0.15081 0.0
C50 C 0.64332 0.52653 0.10582 0.0
C51 C 0.61599 0.6066 0.16783 0.0
C52 C 0.60649 0.64848 0.17839 0.0
C53 C 0.61121 0.63124 0.16271 0.0
C54 C 0.61006 0.61659 0.20487 0.0
C55 C 0.60659 0.64165 0.19977 0.0
C56 C 0.61477 0.59922 0.18905 0.0
C57 C 0.59558 0.48539 0.16963 0.0
C58 C 0.57667 0.45481 0.19252 0.0
C59 C 0.59895 0.44169 0.16178 0.0
C60 C 0.60405 0.46642 0.15667 0.0
C61 C 0.5853 0.43558 0.17989 0.0
C62 C 0.58176 0.47934 0.18744 0.0
C63 C 0.60147 0.51162 0.16592 0.0
O64 O 0.62059 0.5347 0.10633 0.0
O65 O 0.65549 0.5283 0.12366 0.0
O66 O 0.58981 0.52289 0.15051 0.0
O67 O 0.62472 0.51808 0.16751 0.0
H68 H 0.661 0.48434 0.09161 0.0
H69 H 0.68146 0.47588 0.05863 0.0
H70 H 0.67494 0.55242 0.04076 0.0
H71 H 0.65445 0.56086 0.07448 0.0
H72 H 0.60323 0.66738 0.17371 0.0
H73 H 0.61185 0.63738 0.1465 0.0
H74 H 0.6102 0.61056 0.22111 0.0
H75 H 0.61821 0.58025 0.19343 0.0
H76 H 0.56656 0.45093 0.20677 0.0
H77 H 0.60573 0.42737 0.1516 0.0
H78 H 0.61478 0.47069 0.14283 0.0
H79 H 0.57522 0.49369 0.19772 0.0
C80 C 0.93101 0.15964 0.20097 0.0
C81 C 0.9258 0.16819 0.2212 0.0
C82 C 0.88544 0.14793 0.22003 0.0
C83 C 0.90324 0.1622 0.23074 0.0
C84 C 0.89146 0.13846 0.20021 0.0
C85 C 0.91396 0.14424 0.19084 0.0
U86 U 0.99217 0.19223 0.17739 0.0
O87 O 0.98785 0.20674 0.14538 0.0
O88 O 0.01285 0.17586 0.1511 0.0
C89 C 1.00392 0.19162 0.13731 0.0
C90 C 0.95202 0.16881 0.18858 0.0
C91 C 0.02098 0.20277 0.122 0.0
C92 C 0.03157 0.20845 0.08525 0.0
C93 C 0.01859 0.19594 0.10091 0.0
C94 C 0.0505 0.23439 0.11162 0.0
C95 C 0.04743 0.22815 0.09026 0.0
C96 C 0.03731 0.22186 0.12736 0.0
C97 C 0.02451 0.23124 0.22284 0.0
C98 C 0.05235 0.25903 0.24112 0.0
C99 C 0.01027 0.25455 0.25288 0.0
C100 C 0.00587 0.23707 0.23712 0.0
C101 C 0.03319 0.26668 0.25422 0.0
C102 C 0.04806 0.24138 0.22567 0.0
C103 C 0.01925 0.21939 0.20255 0.0
O104 O 0.95229 0.19201 0.18271 0.0
O105 O 0.97391 0.15862 0.19003 0.0
O106 O 0.02292 0.19563 0.20032 0.0
O107 O 1.00046 0.22788 0.19166 0.0
H108 H 0.93867 0.18021 0.22924 0.0
H109 H 0.89924 0.16986 0.246 0.0
H110 H 0.87848 0.12708 0.19163 0.0
H111 H 0.91757 0.13754 0.17516 0.0
H112 H 0.02823 0.20329 0.06908 0.0
H113 H 0.00584 0.18149 0.09642 0.0
H114 H 0.06278 0.2492 0.11616 0.0
H115 H 0.0393 0.22752 0.14357 0.0
H116 H 0.07026 0.26781 0.24198 0.0
H117 H 0.99519 0.26005 0.26283 0.0
H118 H 0.98754 0.22947 0.23519 0.0
H119 H 0.06268 0.23715 0.21478 0.0
C120 C 0.95307 0.88522 0.08384 0.0
C121 C 0.9422 0.90864 0.08456 0.0
C122 C 0.92813 0.90458 0.04803 0.0
C123 C 0.92989 0.91824 0.0668 0.0
C124 C 0.93971 0.88148 0.04739 0.0
C125 C 0.95201 0.87202 0.065 0.0
U126 U 0.98542 0.87748 0.13938 0.0
O127 O 0.97338 0.85049 0.16351 0.0
O128 O 0.01017 0.84707 0.14876 0.0
C129 C 0.99383 0.83786 0.1618 0.0
C130 C 0.96326 0.87258 0.10266 0.0
C131 C 0.99974 0.81695 0.17584 0.0
C132 C 0.99364 0.77394 0.18528 0.0
C133 C 0.98987 0.79366 0.17142 0.0
C134 C 0.01798 0.80025 0.20794 0.0
C135 C 0.00735 0.77705 0.20391 0.0
C136 C 0.01412 0.82008 0.19403 0.0
C137 C 0.00563 0.94307 0.16441 0.0
C138 C 0.02743 0.96213 0.19373 0.0
C139 C 0.0073 0.98758 0.1675 0.0
C140 C 0.99963 0.96653 0.15687 0.0
C141 C 0.02142 0.98584 0.18604 0.0
C142 C 0.01961 0.94086 0.18296 0.0
C143 C 0.99672 0.92189 0.15207 0.0
O144 O 0.98729 0.87201 0.10501 0.0
O145 O 0.95149 0.87522 0.12044 0.0
O146 O 0.97562 0.91126 0.15655 0.0
O147 O 0.01227 0.90798 0.14183 0.0
H148 H 0.94272 0.91922 0.09893 0.0
H149 H 0.92157 0.93626 0.06786 0.0
H150 H 0.9385 0.87014 0.03349 0.0
H151 H 0.96001 0.85382 0.06412 0.0
H152 H 0.98551 0.75625 0.18154 0.0
H153 H 0.97884 0.7908 0.1574 0.0
H154 H 0.0285 0.8033 0.22221 0.0
H155 H 0.02185 0.83796 0.19771 0.0
H156 H 0.03834 0.96001 0.20791 0.0
H157 H 1.00165 0.00527 0.16129 0.0
H158 H 0.98878 0.96862 0.14263 0.0
H159 H 0.02444 0.92287 0.18907 0.0
C160 C 0.57908 0.20153 0.38164 0.0
C161 C 0.56823 0.22445 0.37728 0.0
C162 C 0.55202 0.22624 0.41292 0.0
C163 C 0.55497 0.23677 0.39284 0.0
C164 C 0.56166 0.20268 0.41682 0.0
C165 C 0.57522 0.19053 0.40136 0.0
U166 U 0.60934 0.19433 0.3272 0.0
O167 O 0.64916 0.19478 0.32142 0.0
O168 O 0.62733 0.16189 0.31279 0.0
C169 C 0.64927 0.17212 0.31434 0.0
C170 C 0.59695 0.19045 0.36705 0.0
C171 C 0.66995 0.16415 0.30104 0.0
C172 C 0.70692 0.13914 0.29858 0.0
C173 C 0.6849 0.14504 0.3086 0.0
C174 C 0.69901 0.1708 0.27255 0.0
C175 C 0.71469 0.15231 0.28069 0.0
C176 C 0.6769 0.17676 0.2827 0.0
C177 C 0.57698 0.23729 0.28433 0.0
C178 C 0.58794 0.25146 0.24934 0.0
C179 C 0.55617 0.27244 0.2687 0.0
C180 C 0.55897 0.25559 0.28514 0.0
C181 C 0.5712 0.27126 0.25081 0.0
C182 C 0.591 0.23475 0.26609 0.0
C183 C 0.58209 0.22366 0.30389 0.0
O184 O 0.58834 0.17565 0.35246 0.0
O185 O 0.61386 0.20562 0.36 0.0
O186 O 0.60089 0.23128 0.31521 0.0
O187 O 0.57875 0.19967 0.3045 0.0
H188 H 0.57095 0.2333 0.36217 0.0
H189 H 0.54762 0.25486 0.38939 0.0
H190 H 0.55988 0.19425 0.43219 0.0
H191 H 0.58361 0.17299 0.40514 0.0
H192 H 0.71805 0.12448 0.30515 0.0
H193 H 0.67999 0.13518 0.32283 0.0
H194 H 0.70432 0.1815 0.2589 0.0
H195 H 0.66572 0.19169 0.27665 0.0
H196 H 0.59937 0.24937 0.23562 0.0
H197 H 0.54326 0.2873 0.27083 0.0
H198 H 0.54794 0.25781 0.29913 0.0
H199 H 0.6049 0.22058 0.26513 0.0
C200 C 0.95388 0.52846 0.42971 0.0
C201 C 0.94034 0.50637 0.42912 0.0
C202 C 0.9293 0.51109 0.46614 0.0
C203 C 0.92817 0.49776 0.44719 0.0
C204 C 0.94337 0.53286 0.46664 0.0
C205 C 0.95546 0.54138 0.44868 0.0
U206 U 0.9853 0.53776 0.37371 0.0
O207 O 0.97221 0.56598 0.35118 0.0
O208 O 0.00912 0.56955 0.36579 0.0
C209 C 0.99217 0.57941 0.35362 0.0
C210 C 0.96395 0.54047 0.41066 0.0
C211 C 0.9985 0.59879 0.33822 0.0
C212 C 0.99352 0.64145 0.32745 0.0
C213 C 0.98964 0.62252 0.34195 0.0
C214 C 0.01622 0.61355 0.30535 0.0
C215 C 0.00642 0.63717 0.30878 0.0
C216 C 0.01217 0.59438 0.31997 0.0
C217 C 0.00555 0.47219 0.3482 0.0
C218 C 0.02826 0.44995 0.32155 0.0
C219 C 1.00362 0.42754 0.34685 0.0
C220 C 0.99675 0.44974 0.3561 0.0
C221 C 0.01942 0.42727 0.3294 0.0
C222 C 0.02143 0.4722 0.33092 0.0
C223 C 0.99774 0.49537 0.35798 0.0
O224 O 0.98795 0.5413 0.40828 0.0
O225 O 0.95179 0.53789 0.39291 0.0
O226 O 0.97581 0.50488 0.35481 0.0
O227 O 0.01302 0.50868 0.36934 0.0
H228 H 0.93869 0.49613 0.41464 0.0
H229 H 0.91773 0.48078 0.4463 0.0
H230 H 0.94436 0.54386 0.48075 0.0
H231 H 0.9654 0.55869 0.44944 0.0
H232 H 0.98602 0.65946 0.3307 0.0
H233 H 0.97922 0.62635 0.35601 0.0
H234 H 0.02616 0.6097 0.29106 0.0
H235 H 0.01921 0.57616 0.31684 0.0
H236 H 0.0406 0.45054 0.30827 0.0
H237 H 0.99604 0.4106 0.35314 0.0
H238 H 0.98443 0.44938 0.36941 0.0
H239 H 0.02838 0.4894 0.32458 0.0
C240 C 0.92977 0.24931 0.317 0.0
C241 C 0.92873 0.24451 0.29541 0.0
C242 C 0.88629 0.2599 0.29378 0.0
C243 C 0.90727 0.25 0.28386 0.0
C244 C 0.88814 0.26558 0.31529 0.0
C245 C 0.90961 0.26047 0.32664 0.0
U246 U 0.99036 0.21655 0.34022 0.0
O247 O 0.98685 0.19934 0.37129 0.0
O248 O 0.01167 0.23091 0.36732 0.0
C249 C 1.00283 0.21414 0.38023 0.0
C250 C 0.94997 0.24074 0.33075 0.0
C251 C 0.01969 0.20252 0.39559 0.0
C252 C 0.02927 0.19541 0.43246 0.0
C253 C 0.01658 0.2083 0.41679 0.0
C254 C 0.04949 0.17121 0.40591 0.0
C255 C 0.04573 0.17641 0.42738 0.0
C256 C 0.03647 0.18407 0.39014 0.0
C257 C 0.02342 0.18038 0.29331 0.0
C258 C 0.05244 0.15318 0.27631 0.0
C259 C 0.0115 0.15826 0.2617 0.0
C260 C 0.00594 0.17515 0.2776 0.0
C261 C 0.03435 0.14611 0.2617 0.0
C262 C 0.04705 0.1703 0.29186 0.0
C263 C 0.0167 0.19152 0.3135 0.0
O264 O 0.95028 0.2173 0.33581 0.0
O265 O 0.97198 0.25081 0.32944 0.0
O266 O 0.02071 0.21503 0.31705 0.0
O267 O 0.99771 0.18225 0.32353 0.0
H268 H 0.94413 0.23592 0.28766 0.0
H269 H 0.90699 0.2459 0.26725 0.0
H270 H 0.87261 0.27282 0.32379 0.0
H271 H 0.91001 0.26421 0.34335 0.0
H272 H 0.02522 0.19975 0.44863 0.0
H273 H 1.00345 0.22222 0.42135 0.0
H274 H 0.06221 0.157 0.40125 0.0
H275 H 0.03899 0.17919 0.37382 0.0
H276 H 0.07024 0.14427 0.27654 0.0
H277 H 0.99725 0.15315 0.25056 0.0
H278 H 0.98757 0.18272 0.27846 0.0
H279 H 0.06078 0.17407 0.30386 0.0
C280 C 0.65816 0.87599 0.43433 0.0
C281 C 0.66626 0.90058 0.43393 0.0
C282 C 0.68098 0.8968 0.47025 0.0
C283 C 0.67755 0.91092 0.45178 0.0
C284 C 0.67193 0.87251 0.47063 0.0
C285 C 0.66074 0.86228 0.4529 0.0
U286 U 0.62535 0.86935 0.37947 0.0
O287 O 0.63654 0.84404 0.35438 0.0
O288 O 0.60087 0.83828 0.37047 0.0
C289 C 0.61696 0.83006 0.35689 0.0
C290 C 0.64856 0.86323 0.41554 0.0
C291 C 0.61038 0.81147 0.34098 0.0
C292 C 0.60773 0.76818 0.33149 0.0
C293 C 0.61173 0.78649 0.34652 0.0
C294 C 0.60011 0.79963 0.30519 0.0
C295 C 0.60216 0.77443 0.3105 0.0
C296 C 0.60431 0.81797 0.32027 0.0
C297 C 0.60132 0.93417 0.35627 0.0
C298 C 0.58672 0.95256 0.32354 0.0
C299 C 0.58991 0.97733 0.35494 0.0
C300 C 0.59831 0.95689 0.36615 0.0
C301 C 0.58404 0.9756 0.33346 0.0
C302 C 0.59537 0.93197 0.33487 0.0
C303 C 0.61215 0.91415 0.36898 0.0
O304 O 0.62455 0.86161 0.41352 0.0
O305 O 0.65986 0.86733 0.39767 0.0
O306 O 0.63312 0.9044 0.36317 0.0
O307 O 0.59768 0.89905 0.37943 0.0
H308 H 0.6644 0.91155 0.41975 0.0
H309 H 0.68428 0.92967 0.45085 0.0
H310 H 0.67361 0.86125 0.48465 0.0
H311 H 0.65453 0.84331 0.45357 0.0
H312 H 0.60992 0.74914 0.33621 0.0
H313 H 0.61662 0.78109 0.36242 0.0
H314 H 0.59548 0.80523 0.28931 0.0
H315 H 0.60316 0.83716 0.3157 0.0
H316 H 0.58224 0.95046 0.30705 0.0
H317 H 0.58881 0.99472 0.36308 0.0
H318 H 0.60308 0.95904 0.38259 0.0
H319 H 0.59767 0.91457 0.32693 0.0
C320 C 0.40005 0.01288 0.85122 0.0
C321 C 0.40832 0.01102 0.83039 0.0
C322 C 0.36635 1.00217 0.81795 0.0
C323 C 0.39167 0.00572 0.81396 0.0
C324 C 0.35848 1.00326 0.83897 0.0
C325 C 0.37508 0.0085 0.85531 0.0
U326 U 0.46347 0.02035 0.87925 0.0
O327 O 0.47832 0.05242 0.89652 0.0
O328 O 0.47324 0.01681 0.91304 0.0
C329 C 0.48117 0.03968 0.91398 0.0
C330 C 0.41641 0.02089 0.86877 0.0
C331 C 0.4852 0.05222 0.93438 0.0
C332 C 0.47203 0.07711 0.9641 0.0
C333 C 0.46664 0.06491 0.94508 0.0
C334 C 0.51438 0.06398 0.96181 0.0
C335 C 0.49606 0.07681 0.97274 0.0
C336 C 0.50899 0.05187 0.943 0.0
C337 C 0.52014 0.99376 0.84874 0.0
C338 C 0.5641 1.0007 0.85349 0.0
C339 C 0.54958 0.97378 0.82585 0.0
C340 C 0.52534 0.9779 0.83207 0.0
C341 C 0.56929 0.98549 0.83618 0.0
C342 C 0.53971 0.00482 0.85973 0.0
C343 C 0.49411 0.99956 0.85288 0.0
O344 O 0.42637 1.00351 0.88044 0.0
O345 O 0.43173 0.03907 0.86471 0.0
O346 O 0.4878 0.02285 0.85183 0.0
O347 O 0.48318 0.98747 0.86815 0.0
H348 H 0.42753 0.01414 0.82677 0.0
H349 H 0.39865 0.00462 0.7981 0.0
H350 H 0.33923 1.00101 0.84284 0.0
H351 H 0.3682 0.00985 0.8712 0.0
H352 H 0.45736 0.08658 0.97211 0.0
H353 H 0.4481 0.06546 0.93876 0.0
H354 H 0.53317 0.06365 0.96755 0.0
H355 H 0.52365 0.04238 0.93496 0.0
H356 H 0.57888 0.00976 0.86197 0.0
H357 H 0.55275 0.96227 0.81232 0.0
H358 H 0.51049 0.96929 0.82332 0.0
H359 H 0.53611 0.01707 0.8727 0.0
C360 C 0.84152 0.33855 0.81211 0.0
C361 C 0.83337 0.3375 0.7912 0.0
C362 C 0.85007 0.29587 0.78797 0.0
C363 C 0.83776 0.31639 0.77917 0.0
C364 C 0.85886 0.2976 0.80876 0.0
C365 C 0.8547 0.3187 0.8206 0.0
U366 U 0.8071 0.39767 0.83211 0.0
O367 O 0.79103 0.39778 0.86365 0.0
O368 O 0.82043 0.42415 0.85601 0.0
C369 C 0.80533 0.4156 0.87039 0.0
C370 C 0.83446 0.35842 0.82645 0.0
C371 C 0.7945 0.43266 0.88571 0.0
C372 C 0.78776 0.44126 0.92266 0.0
C373 C 0.79983 0.42829 0.90697 0.0
C374 C 0.76555 0.46447 0.89611 0.0
C375 C 0.77021 0.45915 0.91745 0.0
C376 C 0.77755 0.45115 0.88025 0.0
C377 C 0.76505 0.42379 0.78382 0.0
C378 C 0.73573 0.45263 0.76875 0.0
C379 C 0.74291 0.41359 0.75173 0.0
C380 C 0.76037 0.40756 0.76721 0.0
C381 C 0.72959 0.43574 0.75286 0.0
C382 C 0.75334 0.4467 0.78404 0.0
C383 C 0.77974 0.41629 0.80224 0.0
O384 O 0.8424 0.38091 0.82266 0.0
O385 O 0.81168 0.35763 0.83312 0.0
O386 O 0.77226 0.39814 0.81439 0.0
O387 O 0.80239 0.42402 0.80557 0.0
H388 H 0.82305 0.35263 0.78441 0.0
H389 H 0.83106 0.316 0.76313 0.0
H390 H 0.86797 0.28223 0.81635 0.0
H391 H 0.86091 0.31907 0.83681 0.0
H392 H 0.79155 0.43674 0.93896 0.0
H393 H 0.81271 0.41401 0.91152 0.0
H394 H 0.7519 0.47807 0.89176 0.0
H395 H 0.77303 0.45467 0.86392 0.0
H396 H 0.72612 0.46998 0.76993 0.0
H397 H 0.73865 0.40012 0.73975 0.0
H398 H 0.76938 0.38983 0.76673 0.0
H399 H 0.7568 0.45948 0.79674 0.0
C400 C 0.1261 0.34849 0.92849 0.0
C401 C 0.10203 0.35286 0.9354 0.0
C402 C 0.10835 0.32447 0.96492 0.0
C403 C 0.09324 0.341 0.95363 0.0
C404 C 0.13247 0.32056 0.95801 0.0
C405 C 0.14124 0.33251 0.94008 0.0
U406 U 0.13868 0.38285 0.87302 0.0
O407 O 0.17382 0.40286 0.86818 0.0
O408 O 0.16716 0.36746 0.85263 0.0
C409 C 0.1825 0.38586 0.85567 0.0
C410 C 0.13651 0.35969 0.9093 0.0
C411 C 0.19848 0.39339 0.83797 0.0
C412 C 0.24036 0.40205 0.82647 0.0
C413 C 0.22309 0.39923 0.84253 0.0
C414 C 0.2084 0.39453 0.80065 0.0
C415 C 0.23347 0.39917 0.80527 0.0
C416 C 0.1911 0.39155 0.81684 0.0
C417 C 0.07642 0.40959 0.84546 0.0
C418 C 0.05221 0.42741 0.81693 0.0
C419 C 0.03204 0.41363 0.84871 0.0
C420 C 0.05488 0.4065 0.85722 0.0
C421 C 0.03038 0.4239 0.82831 0.0
C422 C 0.07489 0.42033 0.82542 0.0
C423 C 0.10075 0.40126 0.85297 0.0
O424 O 0.13352 0.34852 0.89122 0.0
O425 O 0.13884 0.38373 0.90776 0.0
O426 O 0.11331 0.41389 0.867 0.0
O427 O 0.10759 0.37823 0.85081 0.0
H428 H 0.09006 0.36515 0.92667 0.0
H429 H 0.07452 0.34423 0.95861 0.0
H430 H 0.14458 0.30816 0.96651 0.0
H431 H 0.15995 0.32905 0.93512 0.0
H432 H 0.25938 0.40524 0.83082 0.0
H433 H 0.22931 0.40042 0.85871 0.0
H434 H 0.20222 0.39263 0.78454 0.0
H435 H 0.17222 0.38699 0.81286 0.0
H436 H 0.05174 0.43489 0.80113 0.0
H437 H 0.01566 0.41097 0.85806 0.0
H438 H 0.05567 0.39835 0.87277 0.0
H439 H 0.09134 0.42282 0.81609 0.0
C440 C 0.8054 0.98973 0.8893 0.0
C441 C 0.81971 0.96893 0.88506 0.0
C442 C 0.82899 0.96395 0.92267 0.0
C443 C 0.83132 0.95607 0.90163 0.0
C444 C 0.8142 0.98463 0.92657 0.0
C445 C 0.80252 0.99717 0.91016 0.0
U446 U 0.78967 0.02146 0.83391 0.0
O447 O 0.78667 0.06164 0.8334 0.0
O448 O 0.75414 0.03931 0.82577 0.0
C449 C 0.76338 0.06157 0.82791 0.0
C450 C 0.7945 0.00559 0.87284 0.0
C451 C 0.75569 0.08127 0.81319 0.0
C452 C 0.73354 0.11986 0.80914 0.0
C453 C 0.73801 0.098 0.82016 0.0
C454 C 0.76332 0.10802 0.78301 0.0
C455 C 0.74666 0.12559 0.79077 0.0
C456 C 0.76794 0.08609 0.79422 0.0
C457 C 0.82853 0.98914 0.78738 0.0
C458 C 0.85061 0.99079 0.75442 0.0
C459 C 0.86126 0.95989 0.78046 0.0
C460 C 0.84249 0.96861 0.79358 0.0
C461 C 0.86618 0.97181 0.76124 0.0
C462 C 0.83213 0.99946 0.76743 0.0
C463 C 0.81293 1.00288 0.80197 0.0
O464 O 0.80888 0.02231 0.86435 0.0
O465 O 0.77801 0.99654 0.85973 0.0
O466 O 0.82261 0.01997 0.81401 0.0
O467 O 0.79129 0.99455 0.80792 0.0
H468 H 0.82222 0.96293 0.86902 0.0
H469 H 0.84225 0.9401 0.89791 0.0
H470 H 0.81226 0.99185 0.94227 0.0
H471 H 0.79173 0.01332 0.91377 0.0
H472 H 0.72026 0.13265 0.81539 0.0
H473 H 0.72847 0.09474 0.83482 0.0
H474 H 0.77378 0.11181 0.76892 0.0
H475 H 0.78182 0.07352 0.78861 0.0
H476 H 0.85413 1.00037 0.73975 0.0
H477 H 0.87319 0.94532 0.78609 0.0
H478 H 0.84001 0.96043 0.80898 0.0
H479 H 0.82196 0.01561 0.76254 0.0
C480 C 0.40021 0.37535 0.66185 0.0
C481 C 0.40818 0.38151 0.68226 0.0
C482 C 0.36542 0.385 0.69401 0.0
C483 C 0.39093 0.38638 0.69819 0.0
C484 C 0.35779 0.37988 0.6733 0.0
C485 C 0.3749 0.37509 0.65752 0.0
U486 U 0.46465 0.37062 0.63586 0.0
O487 O 0.4813 0.3397 0.61861 0.0
O488 O 0.4751 0.37526 0.6025 0.0
C489 C 0.48411 0.35288 0.6014 0.0
C490 C 0.4174 0.36804 0.6449 0.0
C491 C 0.48664 0.34056 0.58078 0.0
C492 C 0.47097 0.31915 0.54974 0.0
C493 C 0.46679 0.33085 0.56916 0.0
C494 C 0.51462 0.3268 0.55356 0.0
C495 C 0.49503 0.31707 0.54161 0.0
C496 C 0.51045 0.33838 0.57273 0.0
C497 C 0.51954 0.39994 0.66775 0.0
C498 C 0.56407 0.3952 0.66556 0.0
C499 C 0.54672 0.4257 0.68868 0.0
C500 C 0.5231 0.41884 0.6823 0.0
C501 C 0.56756 0.41368 0.6808 0.0
C502 C 0.54019 0.38832 0.65911 0.0
C503 C 0.49395 0.39237 0.66316 0.0
O504 O 0.42709 0.38588 0.63359 0.0
O505 O 0.43319 0.35051 0.64947 0.0
O506 O 0.48885 0.36871 0.6637 0.0
O507 O 0.48239 0.40424 0.64804 0.0
H508 H 0.42765 0.38203 0.68599 0.0
H509 H 0.39756 0.39033 0.71389 0.0
H510 H 0.33841 0.37926 0.66926 0.0
H511 H 0.36826 0.37065 0.64191 0.0
H512 H 0.45537 0.31203 0.541 0.0
H513 H 0.44821 0.33228 0.57505 0.0
H514 H 0.53344 0.32516 0.5483 0.0
H515 H 0.52607 0.34558 0.58143 0.0
H516 H 0.57967 0.38551 0.65918 0.0
H517 H 0.54859 0.44037 0.70002 0.0
H518 H 0.50744 0.42808 0.6891 0.0
H519 H 0.53785 0.37368 0.64779 0.0
C520 C 0.80989 0.43164 0.62777 0.0
C521 C 0.82892 0.44859 0.63156 0.0
C522 C 0.83291 0.45635 0.59366 0.0
C523 C 0.8402 0.46099 0.61466 0.0
C524 C 0.81333 0.43976 0.59027 0.0
C525 C 0.80195 0.42775 0.60708 0.0
U526 U 0.7919 0.39719 0.68193 0.0
O527 O 0.75566 0.37931 0.68706 0.0
O528 O 0.78819 0.3571 0.68025 0.0
C529 C 0.76474 0.35707 0.68498 0.0
C530 C 0.79945 0.41552 0.64424 0.0
C531 C 0.75691 0.33771 0.69995 0.0
C532 C 0.73278 0.30043 0.70537 0.0
C533 C 0.73765 0.32197 0.69397 0.0
C534 C 0.76547 0.31072 0.72982 0.0
C535 C 0.74714 0.29404 0.72304 0.0
C536 C 0.77037 0.33234 0.71833 0.0
C537 C 0.83026 0.43111 0.72652 0.0
C538 C 0.84736 0.4433 0.76023 0.0
C539 C 0.8721 0.44698 0.72887 0.0
C540 C 0.85218 0.43851 0.71673 0.0
C541 C 0.87035 0.44784 0.75091 0.0
C542 C 0.82752 0.435 0.74812 0.0
C543 C 0.81273 0.41418 0.71626 0.0
O544 O 0.81381 0.39899 0.65305 0.0
O545 O 0.78179 0.42344 0.65649 0.0
O546 O 0.82225 0.39678 0.70463 0.0
O547 O 0.79165 0.42268 0.70905 0.0
H548 H 0.8354 0.4518 0.64744 0.0
H549 H 0.85487 0.47392 0.61807 0.0
H550 H 0.80733 0.43509 0.57455 0.0
H551 H 0.78747 0.41452 0.60378 0.0
H552 H 0.71818 0.28839 0.69993 0.0
H553 H 0.72708 0.32572 0.67983 0.0
H554 H 0.77695 0.30644 0.74331 0.0
H555 H 0.78541 0.34419 0.72319 0.0
H556 H 0.84528 0.44426 0.77712 0.0
H557 H 0.88949 0.45052 0.7212 0.0
H558 H 0.85464 0.43575 0.70004 0.0
H559 H 0.81076 0.42944 0.75598 0.0
C560 C 0.12668 0.04922 0.58503 0.0
C561 C 0.1017 0.05596 0.58482 0.0
C562 C 0.10598 0.07289 0.54931 0.0
C563 C 0.09147 0.06786 0.56711 0.0
C564 C 0.13067 0.06542 0.54944 0.0
C565 C 0.14089 0.05384 0.56711 0.0
U566 U 0.13271 0.01489 0.63946 0.0
O567 O 0.16391 0.99089 0.64928 0.0
O568 O 0.15666 0.02596 0.66587 0.0
C569 C 0.17071 0.00648 0.66397 0.0
C570 C 0.13928 0.0391 0.60389 0.0
C571 C 0.19108 1.00165 0.67901 0.0
C572 C 0.235 0.99779 0.68649 0.0
C573 C 0.2155 1.00029 0.67203 0.0
C574 C 0.20585 0.99698 0.71504 0.0
C575 C 0.23049 0.99634 0.70826 0.0
C576 C 0.18643 0.99979 0.7006 0.0
C577 C 0.06865 0.9899 0.66245 0.0
C578 C 0.0518 0.97836 0.69649 0.0
C579 C 0.02554 0.97816 0.66562 0.0
C580 C 0.04545 0.98564 0.65335 0.0
C581 C 0.02834 0.97493 0.68737 0.0
C582 C 0.07191 0.98573 0.68409 0.0
C583 C 0.08766 1.00117 0.64893 0.0
O584 O 0.13503 0.04987 0.62192 0.0
O585 O 0.14092 0.01505 0.60551 0.0
O586 O 0.10297 0.98693 0.63876 0.0
O587 O 0.09727 0.02235 0.65465 0.0
H588 H 0.09032 0.05252 0.59844 0.0
H589 H 0.07232 0.07329 0.56736 0.0
H590 H 0.14236 0.0693 0.5361 0.0
H591 H 0.16021 0.04902 0.56697 0.0
H592 H 0.25362 0.99704 0.68059 0.0
H593 H 0.21957 1.00178 0.65543 0.0
H594 H 0.20156 0.99612 0.73161 0.0
H595 H 0.16774 1.00081 0.70632 0.0
H596 H 0.05437 0.97599 0.71327 0.0
H597 H 0.00762 0.97618 0.65825 0.0
H598 H 0.04245 0.98912 0.63675 0.0
H599 H 0.08964 0.98896 0.69146 0.0
C600 C 0.84283 0.0817 0.70414 0.0
C601 C 0.82726 0.08789 0.72079 0.0
C602 C 0.85035 0.12591 0.72627 0.0
C603 C 0.83095 0.10994 0.73172 0.0
C604 C 0.86673 0.11894 0.71047 0.0
C605 C 0.8629 0.09706 0.69942 0.0
U606 U 0.80938 0.02245 0.68279 0.0
O607 O 0.79388 0.02259 0.65094 0.0
O608 O 0.82286 0.99602 0.65915 0.0
C609 C 0.80819 0.00486 0.64443 0.0
C610 C 0.8364 0.06206 0.6892 0.0
C611 C 0.79759 0.98824 0.62856 0.0
C612 C 0.79046 0.98142 0.59136 0.0
C613 C 0.80248 0.99391 0.60751 0.0
C614 C 0.76928 0.95612 0.61701 0.0
C615 C 0.77331 0.9628 0.59588 0.0
C616 C 0.78121 0.96897 0.63334 0.0
C617 C 0.76606 0.99424 0.72917 0.0
C618 C 0.73 0.97049 0.73933 0.0
C619 C 0.74968 0.99769 0.76438 0.0
C620 C 0.76727 1.00413 0.7494 0.0
C621 C 0.73009 0.98171 0.75922 0.0
C622 C 0.74785 0.97677 0.72442 0.0
C623 C 0.78169 0.00443 0.71246 0.0
O624 O 0.84457 0.03968 0.69283 0.0
O625 O 0.81376 0.06249 0.68194 0.0
O626 O 0.77383 0.02161 0.69947 0.0
O627 O 0.80439 0.99689 0.7096 0.0
H628 H 0.81157 0.07638 0.72459 0.0
H629 H 0.81812 0.115 0.7439 0.0
H630 H 0.8816 0.1311 0.70582 0.0
H631 H 0.87486 0.09281 0.68638 0.0
H632 H 0.79415 0.98677 0.57526 0.0
H633 H 0.81501 0.00876 0.60351 0.0
H634 H 0.75612 0.9418 0.62089 0.0
H635 H 0.77709 0.96444 0.64954 0.0
H636 H 0.71523 0.95817 0.73475 0.0
H637 H 0.75067 0.00629 0.77967 0.0
H638 H 0.78091 0.01795 0.75326 0.0
H639 H 0.74665 0.96897 0.70881 0.0
H640 H 0.57807 0.09551 0.24357 0.0
H641 H 0.55531 0.01412 0.34686 0.0
H642 H 0.55364 0.12652 0.30188 0.0
H643 H 0.59575 0.98911 0.29291 0.0
H644 H 0.54824 0.05342 0.32902 0.0
H645 H 0.578 0.05459 0.25977 0.0
C646 C 0.57263 0.09354 0.25984 0.0
C647 C 0.56618 0.11422 0.27157 0.0
C648 C 0.5585 0.03924 0.32105 0.0
C649 C 0.56602 0.06758 0.29026 0.0
C650 C 0.56267 0.01677 0.33124 0.0
C651 C 0.57657 0.99822 0.32158 0.0
C652 C 0.56806 0.04323 0.30091 0.0
C653 C 0.58489 1.00265 0.30105 0.0
C654 C 0.57258 0.07025 0.26908 0.0
C655 C 0.55896 0.11091 0.29247 0.0
N656 N 0.58065 0.0247 0.2915 0.0
N657 N 0.55919 0.08795 0.30125 0.0
H658 H 0.54352 0.41489 0.197 0.0
H659 H 0.61013 0.28921 0.22767 0.0
H660 H 0.61722 0.3965 0.17794 0.0
H661 H 0.5328 0.30194 0.23855 0.0
H662 H 0.61187 0.32698 0.20719 0.0
H663 H 0.53844 0.37314 0.21093 0.0
C664 C 0.55862 0.40206 0.19562 0.0
C665 C 0.58094 0.40942 0.18637 0.0
C666 C 0.59445 0.32144 0.21394 0.0
C667 C 0.57513 0.36134 0.20224 0.0
C668 C 0.59333 0.29956 0.22553 0.0
C669 C 0.57136 0.2922 0.23533 0.0
C670 C 0.57358 0.33647 0.21222 0.0
C671 C 0.55042 0.30701 0.23197 0.0
C672 C 0.55562 0.37814 0.20348 0.0
C673 C 0.59963 0.39175 0.18476 0.0
N674 N 0.55214 0.32854 0.221 0.0
N675 N 0.59638 0.36869 0.19278 0.0
H676 H 0.05103 0.31084 0.24079 0.0
H677 H 0.02824 0.38227 0.34816 0.0
H678 H 0.02113 0.27493 0.29562 0.0
H679 H 0.02556 0.41763 0.28726 0.0
H680 H 0.03495 0.34277 0.33089 0.0
H681 H 0.05149 0.34988 0.2597 0.0
C682 C 0.04497 0.31109 0.25696 0.0
C683 C 0.03598 0.2896 0.26666 0.0
C684 C 0.03298 0.35923 0.32137 0.0
C685 C 0.03639 0.33431 0.28835 0.0
C686 C 0.02902 0.38182 0.33118 0.0
C687 C 0.0259 0.40345 0.31919 0.0
C688 C 0.03417 0.35819 0.29941 0.0
C689 C 0.02796 0.40163 0.29724 0.0
C690 C 0.04507 0.33342 0.26767 0.0
C691 C 0.02803 0.2911 0.28754 0.0
N692 N 0.03186 0.37942 0.28808 0.0
N693 N 0.02844 0.3131 0.29772 0.0
H694 H 0.02795 0.13935 0.2191 0.0
H695 H 0.02501 0.99388 0.22879 0.0
H696 H 0.04789 0.10108 0.27618 0.0
H697 H 0.03485 0.03071 0.16911 0.0
H698 H 0.03273 0.03297 0.24653 0.0
H699 H 0.02948 0.10001 0.20017 0.0
C700 C 0.03285 0.12271 0.22756 0.0
C701 C 0.03777 0.1234 0.2492 0.0
C702 C 0.03339 0.03241 0.22954 0.0
C703 C 0.03897 0.07843 0.22791 0.0
C704 C 0.02912 0.01001 0.21937 0.0
C705 C 0.02886 0.00886 0.19732 0.0
C706 C 0.03713 0.05396 0.21763 0.0
C707 C 0.03408 0.03068 0.18609 0.0
C708 C 0.03378 0.10031 0.2168 0.0
C709 C 0.04412 0.10135 0.25946 0.0
N710 N 0.03764 0.05232 0.19632 0.0
N711 N 0.04419 0.07975 0.24881 0.0
H712 H 0.70049 0.94111 0.76775 0.0
H713 H 0.60368 0.022 0.83179 0.0
H714 H 0.70917 0.01822 0.78215 0.0
H715 H 0.59276 0.94447 0.82054 0.0
H716 H 0.64374 0.01956 0.81514 0.0
H717 H 0.66226 0.94054 0.78822 0.0
C718 C 0.69453 0.95784 0.77531 0.0
C719 C 0.70826 0.97973 0.77325 0.0
C720 C 0.63275 1.00296 0.81645 0.0
C721 C 0.66457 0.9792 0.79663 0.0
C722 C 0.60987 0.00433 0.82616 0.0
C723 C 0.59475 0.98342 0.8277 0.0
C724 C 0.64081 0.98051 0.80811 0.0
C725 C 0.60368 0.96114 0.81955 0.0
C726 C 0.67274 0.95748 0.78703 0.0
C727 C 0.69965 1.00077 0.78355 0.0
N728 N 0.62607 0.96028 0.81005 0.0
N729 N 0.67842 0.99997 0.79461 0.0
H730 H 0.61225 0.41716 0.66009 0.0
H731 H 0.68512 0.45364 0.7652 0.0
H732 H 0.57987 0.42404 0.72152 0.0
H733 H 0.72239 0.42563 0.7107 0.0
H734 H 0.64643 0.45239 0.74586 0.0
H735 H 0.65259 0.42761 0.67552 0.0
C736 C 0.61355 0.42083 0.67676 0.0
C737 C 0.59246 0.41984 0.68945 0.0
C738 C 0.66309 0.44675 0.738 0.0
C739 C 0.63841 0.43218 0.70705 0.0
C740 C 0.68532 0.44773 0.74899 0.0
C741 C 0.70709 0.43936 0.7397 0.0
C742 C 0.66241 0.43728 0.71753 0.0
C743 C 0.70596 0.43171 0.71864 0.0
C744 C 0.63654 0.42696 0.6855 0.0
C745 C 0.59534 0.42507 0.71094 0.0
N746 N 0.68393 0.4306 0.70831 0.0
N747 N 0.61776 0.43099 0.71898 0.0
H748 H 0.98748 0.3975 0.8311 0.0
H749 H 0.9113 0.47823 0.74765 0.0
H750 H 0.01774 0.46302 0.80241 0.0
H751 H 0.88142 0.41798 0.78394 0.0
H752 H 0.95016 0.47441 0.76754 0.0
H753 H 0.94834 0.40577 0.8138 0.0
C754 C 0.98584 0.41387 0.82142 0.0
C755 C 0.00602 0.42965 0.81843 0.0
C756 C 0.93497 0.46222 0.77123 0.0
C757 C 0.96097 0.43912 0.79807 0.0
C758 C 0.91282 0.46441 0.75991 0.0
C759 C 0.893 0.4485 0.7642 0.0
C760 C 0.93737 0.44373 0.78669 0.0
C761 C 0.89596 0.43095 0.78028 0.0
C762 C 0.96344 0.41852 0.81138 0.0
C763 C 1.00278 0.45021 0.8051 0.0
N764 N 0.91768 0.42894 0.79074 0.0
N765 N 0.98072 0.45432 0.79539 0.0
H766 H 0.88626 0.93121 0.74135 0.0
H767 H 0.0128 1.00328 0.71953 0.0
H768 H 0.90082 0.00674 0.75772 0.0
H769 H 0.99284 0.93871 0.68422 0.0
H770 H 0.97371 1.00059 0.73807 0.0
H771 H 0.92689 0.9296 0.72397 0.0
C772 C 0.89806 0.94732 0.74134 0.0
C773 C 0.89032 0.96918 0.75087 0.0
C774 C 0.97793 0.98677 0.72646 0.0
C775 C 0.93643 0.96742 0.73155 0.0
C776 C 1.00037 0.98819 0.71604 0.0
C777 C 0.00613 0.97109 0.70049 0.0
C778 C 0.96107 0.96793 0.72151 0.0
C779 C 0.98904 0.95221 0.69619 0.0
C780 C 0.92109 0.94645 0.73143 0.0
C781 C 0.9061 0.98961 0.75044 0.0
N782 N 0.96724 0.95108 0.70668 0.0
N783 N 0.92833 0.9882 0.74105 0.0
H784 H 0.52773 0.06209 1.00435 0.0
H785 H 0.52244 0.18855 0.0682 0.0
H786 H 0.47931 0.12173 0.9871 0.0
H787 H 0.56089 0.12404 0.09032 0.0
H788 H 0.50658 0.16479 0.0384 0.0
H789 H 0.54036 0.08486 0.03554 0.0
C790 C 0.51969 0.07998 0.00705 0.0
C791 C 0.50247 0.08995 0.99278 0.0
C792 C 0.51834 0.15578 0.04985 0.0
C793 C 0.51684 0.11623 0.02899 0.0
C794 C 0.52749 0.16937 0.06686 0.0
C795 C 0.54313 0.15837 0.08186 0.0
C796 C 0.525 0.13097 0.04759 0.0
C797 C 0.54874 0.13332 0.07934 0.0
C798 C 0.52684 0.09293 0.02504 0.0
C799 C 0.49247 0.1131 0.99759 0.0
N800 N 0.53988 0.12059 0.06251 0.0
N801 N 0.49991 0.12548 0.01514 0.0
H802 H 0.77075 0.50636 0.93326 0.0
H803 H 0.67194 0.47265 0.02239 0.0
H804 H 0.73623 0.43544 0.94087 0.0
H805 H 0.71417 0.54005 0.02387 0.0
H806 H 0.69296 0.46095 0.99042 0.0
H807 H 0.74798 0.52126 0.96414 0.0
C808 C 0.75808 0.4941 0.94126 0.0
C809 C 0.75511 0.46973 0.9345 0.0
C810 C 0.69769 0.47835 0.99764 0.0
C811 C 0.72924 0.48643 0.96969 0.0
C812 C 0.68572 0.48503 0.01606 0.0
C813 C 0.69142 0.50729 0.02617 0.0
C814 C 0.71557 0.494 0.9889 0.0
C815 C 0.70904 0.52277 0.01667 0.0
C816 C 0.74525 0.50252 0.95892 0.0
C817 C 0.73887 0.4544 0.94555 0.0
N818 N 0.72057 0.51579 0.99864 0.0
N819 N 0.72659 0.46298 0.9625 0.0
H820 H 0.05631 0.27824 0.08825 0.0
H821 H 0.10821 0.27482 0.97058 0.0
H822 H 0.06574 0.2116 0.05264 0.0
H823 H 0.08813 0.34214 1.00139 0.0
H824 H 0.09536 0.25155 1.00165 0.0
H825 H 0.07184 0.30199 0.05829 0.0
C826 C 0.06185 0.2685 0.07428 0.0
C827 C 0.05933 0.24276 0.07303 0.0
C828 C 0.09372 0.2714 1.00169 0.0
C829 C 0.07671 0.27007 0.0384 0.0
C830 C 0.10103 0.28468 0.98394 0.0
C831 C 0.09913 0.31041 0.9834 0.0
C832 C 0.08467 0.28391 0.01928 0.0
C833 C 0.08964 0.32228 1.00111 0.0
C834 C 0.07047 0.28216 0.05707 0.0
C835 C 0.06673 0.23138 0.05431 0.0
N836 N 0.08289 0.30895 0.01839 0.0
N837 N 0.07491 0.24507 0.0378 0.0
H838 H 0.87473 0.94161 0.92232 0.0
H839 H 0.88456 0.93056 0.04762 0.0
H840 H 0.81488 0.95848 0.96412 0.0
H841 H 0.93793 0.89898 1.0058 0.0
H842 H 0.85997 0.94306 0.01711 0.0
H843 H 0.89837 0.92624 0.9524 0.0
C844 C 0.86635 0.94192 0.93769 0.0
C845 C 0.84274 0.95189 0.94049 0.0
C846 C 0.87703 0.93331 0.01462 0.0
C847 C 0.87029 0.93485 0.9753 0.0
C848 C 0.89128 0.92639 0.03208 0.0
C849 C 0.91349 0.91359 0.02946 0.0
C850 C 0.88497 0.92758 0.99425 0.0
C851 C 0.92085 0.90847 0.00876 0.0
C852 C 0.88004 0.93331 0.95495 0.0
C853 C 0.83323 0.9518 0.96105 0.0
N854 N 0.9067 0.91547 0.99204 0.0
N855 N 0.84707 0.94374 0.97758 0.0
H856 H 0.47269 0.27598 0.52386 0.0
H857 H 0.56684 0.27108 0.42699 0.0
H858 H 0.52946 0.32997 0.51195 0.0
H859 H 0.5133 0.2141 0.43886 0.0
H860 H 0.5513 0.29391 0.45709 0.0
H861 H 0.48455 0.25458 0.4916 0.0
C862 C 0.48748 0.2835 0.51447 0.0
C863 C 0.50027 0.30473 0.52102 0.0
C864 C 0.54269 0.27656 0.45306 0.0
C865 C 0.51417 0.28002 0.48405 0.0
C866 C 0.55151 0.26358 0.43579 0.0
C867 C 0.54125 0.24076 0.43036 0.0
C868 C 0.52321 0.26683 0.46502 0.0
C869 C 0.52174 0.23164 0.44257 0.0
C870 C 0.49437 0.27112 0.49609 0.0
C871 C 0.51937 0.31339 0.50803 0.0
N872 N 0.51331 0.24471 0.45929 0.0
N873 N 0.52575 0.301 0.49039 0.0
H874 H 0.81468 0.4691 0.55431 0.0
H875 H 0.94435 0.51209 0.50746 0.0
H876 H 0.88222 0.46875 0.5905 0.0
H877 H 0.88226 0.49209 0.4685 0.0
H878 H 0.92058 0.50096 0.53861 0.0
H879 H 0.83786 0.48219 0.52351 0.0
C880 C 0.83435 0.47169 0.55592 0.0
C881 C 0.84639 0.4673 0.57526 0.0
C882 C 0.91218 0.49891 0.52325 0.0
C883 C 0.87308 0.48304 0.53976 0.0
C884 C 0.92571 0.50536 0.50541 0.0
C885 C 0.91537 0.50302 0.48521 0.0
C886 C 0.88795 0.49019 0.52103 0.0
C887 C 0.89116 0.49393 0.48366 0.0
C888 C 0.84757 0.47932 0.53823 0.0
C889 C 0.87189 0.47195 0.57618 0.0
N890 N 0.87827 0.48797 0.5013 0.0
N891 N 0.88431 0.47948 0.55874 0.0
H892 H 0.10699 0.06026 0.50769 0.0
H893 H 0.06068 0.19157 0.46682 0.0
H894 H 0.08344 0.11788 0.5491 0.0
H895 H 0.05801 0.12691 0.42769 0.0
H896 H 0.07456 0.16609 0.49614 0.0
H897 H 0.09392 0.08537 0.47741 0.0
C898 C 0.09892 0.07815 0.51039 0.0
C899 C 0.09613 0.08695 0.53094 0.0
C900 C 0.07097 0.15749 0.48112 0.0
C901 C 0.0817 0.11601 0.49638 0.0
C902 C 0.06291 0.17203 0.46428 0.0
C903 C 0.05752 0.16147 0.44462 0.0
C904 C 0.07421 0.13211 0.4784 0.0
C905 C 0.06188 0.13608 0.44238 0.0
C906 C 0.0915 0.09247 0.49312 0.0
C907 C 0.08564 0.11028 0.53355 0.0
N908 N 0.06988 0.12231 0.45904 0.0
N909 N 0.07902 0.12407 0.51649 0.0
H910 H 0.67969 0.94382 0.48639 0.0
H911 H 0.76572 0.91393 0.58622 0.0
H912 H 0.7131 0.87281 0.49687 0.0
H913 H 0.74768 0.98744 0.56568 0.0
H914 H 0.74309 0.89752 0.55567 0.0
H915 H 0.70154 0.95942 0.5173 0.0
C916 C 0.69169 0.93151 0.49507 0.0
C917 C 0.69438 0.90688 0.48894 0.0
C918 C 0.74405 0.91724 0.55792 0.0
C919 C 0.71924 0.9246 0.52468 0.0
C920 C 0.75681 0.92655 0.57539 0.0
C921 C 0.75862 0.95205 0.5784 0.0
C922 C 0.73273 0.93356 0.5436 0.0
C923 C 0.74691 0.96765 0.56382 0.0
C924 C 0.70407 0.94041 0.51282 0.0
C925 C 0.70998 0.89178 0.50114 0.0
N926 N 0.73446 0.95819 0.54714 0.0
N927 N 0.72174 0.90084 0.5184 0.0
H928 H 0.86798 0.23152 0.26144 0.0
H929 H 0.73019 0.28164 0.26616 0.0
H930 H 0.84836 0.2933 0.30031 0.0
H931 H 0.7578 0.23556 0.21684 0.0
H932 H 0.77248 0.28562 0.28022 0.0
H933 H 0.8273 0.23269 0.24565 0.0
C934 C 0.85541 0.24564 0.26653 0.0
C935 C 0.86202 0.26224 0.28248 0.0
C936 C 0.76923 0.27469 0.2663 0.0
C937 C 0.8144 0.263 0.2647 0.0
C938 C 0.74513 0.2723 0.25839 0.0
C939 C 0.74056 0.25817 0.24037 0.0
C940 C 0.78869 0.26244 0.25632 0.0
C941 C 0.76056 0.24667 0.23072 0.0
C942 C 0.8319 0.2461 0.25757 0.0
C943 C 0.8442 0.27965 0.2885 0.0
N944 N 0.7836 0.2489 0.23888 0.0
N945 N 0.8212 0.27941 0.2798 0.0
H946 H 0.58212 0.72758 0.3139 0.0
H947 H 0.62689 0.68782 0.19946 0.0
H948 H 0.61778 0.77616 0.26955 0.0
H949 H 0.58269 0.6399 0.23835 0.0
H950 H 0.62375 0.71979 0.22573 0.0
H951 H 0.58214 0.69499 0.2874 0.0
C952 C 0.58991 0.73149 0.29863 0.0
C953 C 0.60006 0.75482 0.2941 0.0
C954 C 0.61457 0.70237 0.22857 0.0
C955 C 0.59998 0.71744 0.26359 0.0
C956 C 0.61622 0.68403 0.21342 0.0
C957 C 0.60474 0.66105 0.21638 0.0
C958 C 0.6015 0.69795 0.24716 0.0
C959 C 0.59192 0.65722 0.23531 0.0
C960 C 0.58978 0.71285 0.28346 0.0
C961 C 0.60947 0.75873 0.27385 0.0
N962 N 0.59063 0.67547 0.24995 0.0
N963 N 0.60931 0.74028 0.2595 0.0
H964 H 0.84157 0.15001 0.19853 0.0
H965 H 0.75785 0.13999 0.30125 0.0
H966 H 0.87107 0.13851 0.26089 0.0
H967 H 0.72891 0.15416 0.23903 0.0
H968 H 0.79868 0.1349 0.28633 0.0
H969 H 0.80005 0.14727 0.21266 0.0
C970 C 0.83937 0.14657 0.21519 0.0
C971 C 0.86002 0.14461 0.22853 0.0
C972 C 0.7834 0.13904 0.27592 0.0
C973 C 0.81211 0.14182 0.24495 0.0
C974 C 0.75989 0.14177 0.28441 0.0
C975 C 0.73961 0.14773 0.27146 0.0
C976 C 0.78695 0.1424 0.25427 0.0
C977 C 0.74388 0.15011 0.24977 0.0
C978 C 0.81555 0.14518 0.22328 0.0
C979 C 0.85579 0.14054 0.25004 0.0
N980 N 0.767 0.14757 0.24192 0.0
N981 N 0.83237 0.13938 0.25757 0.0
H982 H 0.04802 0.75982 0.22594 0.0
H983 H 0.96859 0.66463 0.29378 0.0
H984 H 0.97011 0.74761 0.2177 0.0
H985 H 0.04686 0.65516 0.28706 0.0
H986 H 0.96998 0.69865 0.26878 0.0
H987 H 0.0492 0.72514 0.25116 0.0
C988 C 0.0312 0.7499 0.22945 0.0
C989 C 0.00895 0.7565 0.21953 0.0
C990 C 0.98691 0.68916 0.27264 0.0
C991 C 0.01015 0.7171 0.24836 0.0
C992 C 0.98613 0.66975 0.28701 0.0
C993 C 0.00764 0.65705 0.29258 0.0
C994 C 0.00941 0.69631 0.26374 0.0
C995 C 0.02983 0.66439 0.2831 0.0
C996 C 0.03193 0.73006 0.24371 0.0
C997 C 0.98773 0.743 0.22466 0.0
N998 N 0.03021 0.6837 0.26923 0.0
N999 N 0.98886 0.72413 0.2387 0.0
H1000 H 0.23341 0.9696 0.74526 0.0
H1001 H 0.36637 0.02274 0.7781 0.0
H1002 H 0.27527 0.02032 0.7071 0.0
H1003 H 0.32388 0.97377 0.81745 0.0
H1004 H 0.33455 0.01959 0.75096 0.0
H1005 H 0.26704 0.96921 0.77105 0.0
C1006 C 0.24962 0.98069 0.74226 0.0
C1007 C 0.25133 0.99504 0.72384 0.0
C1008 C 0.3322 0.00948 0.76552 0.0
C1009 C 0.29024 0.99451 0.75345 0.0
C1010 C 0.35055 0.01108 0.78104 0.0
C1011 C 0.34794 0.9987 0.80039 0.0
C1012 C 0.31087 0.9954 0.76919 0.0
C1013 C 0.32665 0.98414 0.8031 0.0
C1014 C 0.26892 0.98036 0.757 0.0
C1015 C 0.2731 0.0087 0.72083 0.0
N1016 N 0.30899 0.98301 0.78781 0.0
N1017 N 0.29154 0.00816 0.73544 0.0
H1018 H 0.88784 0.1469 0.74926 0.0
H1019 H 0.81711 0.27556 0.7599 0.0
H1020 H 0.8163 0.16197 0.72278 0.0
H1021 H 0.8874 0.2613 0.78959 0.0
H1022 H 0.8186 0.23513 0.74385 0.0
H1023 H 0.8895 0.18923 0.76286 0.0
C1024 C 0.87252 0.15918 0.74635 0.0
C1025 C 0.85175 0.15099 0.73518 0.0
C1026 C 0.83376 0.24084 0.75384 0.0
C1027 C 0.85366 0.19935 0.75016 0.0
C1028 C 0.83307 0.26417 0.76288 0.0
C1029 C 0.85207 0.27208 0.77635 0.0
C1030 C 0.85349 0.22499 0.75833 0.0
C1031 C 0.87201 0.25598 0.77973 0.0
C1032 C 0.87347 0.1833 0.75403 0.0
C1033 C 0.83243 0.16752 0.73166 0.0
N1034 N 0.87211 0.2332 0.77093 0.0
N1035 N 0.83387 0.19088 0.73907 0.0
H1036 H 0.27586 0.42758 0.80219 0.0
H1037 H 0.32345 0.35781 0.69947 0.0
H1038 H 0.23555 0.37047 0.76983 0.0
H1039 H 0.36422 0.41744 0.72779 0.0
H1040 H 0.29169 0.36247 0.72581 0.0
H1041 H 0.3085 0.42454 0.77593 0.0
C1042 C 0.27375 0.41442 0.7896 0.0
C1043 C 0.2527 0.39923 0.7884 0.0
C1044 C 0.30748 0.37465 0.72632 0.0
C1045 C 0.29021 0.39579 0.75807 0.0
C1046 C 0.32569 0.37209 0.71113 0.0
C1047 C 0.34655 0.38749 0.71104 0.0
C1048 C 0.30986 0.39275 0.74186 0.0
C1049 C 0.34854 0.40511 0.72713 0.0
C1050 C 0.29244 0.41278 0.77454 0.0
C1051 C 0.25108 0.38286 0.77142 0.0
N1052 N 0.33041 0.40732 0.74182 0.0
N1053 N 0.26952 0.38155 0.7571 0.0
H1054 H 0.74339 0.17027 0.81036 0.0
H1055 H 0.73859 0.24963 0.70395 0.0
H1056 H 0.74464 0.13803 0.7486 0.0
H1057 H 0.74949 0.28163 0.76521 0.0
H1058 H 0.73595 0.20897 0.72026 0.0
H1059 H 0.7409 0.21108 0.79428 0.0
C1060 C 0.74288 0.1717 0.79339 0.0
C1061 C 0.74424 0.15051 0.78085 0.0
C1062 C 0.73883 0.22487 0.73016 0.0
C1063 C 0.74169 0.19756 0.76226 0.0
C1064 C 0.74014 0.24821 0.72088 0.0
C1065 C 0.74427 0.26928 0.73318 0.0
C1066 C 0.74164 0.22235 0.752 0.0
C1067 C 0.74658 0.26599 0.75503 0.0
C1068 C 0.74164 0.19511 0.78422 0.0
C1069 C 0.74391 0.15375 0.75893 0.0
N1070 N 0.74524 0.24303 0.76371 0.0
N1071 N 0.74267 0.17678 0.75036 0.0
loop_
_geom_bond_atom_site_label_1
_geom_bond_atom_site_label_2
_geom_bond_distance
_geom_bond_site_symmetry_2
_ccdc_geom_bond_type
C0 C1 1.264 . S
C0 C5 1.479 . S
C0 C10 1.465 . S
C1 C0 1.264 . S
C1 C3 1.339 . S
C1 H28 0.931 . S
C2 C3 1.395 . S
C2 C4 1.320 . S
C3 C1 1.339 . S
C3 C2 1.395 . S
C3 H29 0.929 . S
C4 C2 1.320 . S
C4 C5 1.405 . S
C4 H30 0.930 . S
C5 C0 1.479 . S
C5 C4 1.405 . S
C5 H31 0.931 . S
U6 O7 2.454 . S
U6 O8 2.458 . S
U6 C9 2.984 . S
U6 C10 2.847 . S
U6 C23 2.882 . S
U6 O24 2.441 . S
U6 O25 2.420 . S
U6 O26 2.455 . S
U6 O27 2.449 . S
O7 U6 2.454 . S
O7 C9 1.353 . S
O8 U6 2.458 . S
O8 C9 1.286 . S
C9 U6 2.984 . S
C9 O7 1.353 . S
C9 O8 1.286 . S
C9 C11 1.363 . S
C10 C0 1.465 . S
C10 U6 2.847 . S
C10 O24 1.249 . S
C10 O25 1.202 . S
C11 C9 1.363 . S
C11 C13 1.408 . S
C11 C16 1.342 . S
C12 C13 1.310 . S
C12 C15 1.461 . S
C12 H32 0.932 . S
C13 C11 1.408 . S
C13 C12 1.310 . S
C13 H33 0.930 . S
C14 C15 1.474 . S
C14 C16 1.285 . S
C14 H34 0.929 . S
C15 C12 1.461 . S
C15 C14 1.474 . S
C16 C11 1.342 . S
C16 C14 1.285 . S
C16 H35 0.930 . S
C17 C20 1.424 . S
C17 C22 1.245 . S
C17 C23 1.428 . S
C18 C21 1.260 . S
C18 C22 1.477 . S
C18 H36 0.932 . S
C19 C20 1.384 . S
C19 C21 1.479 . S
C19 H37 0.929 . S
C20 C17 1.424 . S
C20 C19 1.384 . S
C20 H38 0.928 . S
C21 C18 1.260 . S
C21 C19 1.479 . S
C22 C17 1.245 . S
C22 C18 1.477 . S
C22 H39 0.932 . S
C23 U6 2.882 . S
C23 C17 1.428 . S
C23 O26 1.301 . S
C23 O27 1.282 . S
O24 U6 2.441 . S
O24 C10 1.249 . S
O25 U6 2.420 . S
O25 C10 1.202 . S
O26 U6 2.455 . S
O26 C23 1.301 . S
O27 U6 2.449 . S
O27 C23 1.282 . S
H28 C1 0.931 . S
H29 C3 0.929 . S
H30 C4 0.930 . S
H31 C5 0.931 . S
H32 C12 0.932 . S
H33 C13 0.930 . S
H34 C14 0.929 . S
H35 C16 0.930 . S
H36 C18 0.932 . S
H37 C19 0.929 . S
H38 C20 0.928 . S
H39 C22 0.932 . S
C40 C41 1.264 . S
C40 C45 1.479 . S
C40 C50 1.465 . S
C41 C40 1.264 . S
C41 C43 1.339 . S
C41 H68 0.931 . S
C42 C43 1.395 . S
C42 C44 1.320 . S
C43 C41 1.339 . S
C43 C42 1.395 . S
C43 H69 0.929 . S
C44 C42 1.320 . S
C44 C45 1.405 . S
C44 H70 0.930 . S
C45 C40 1.479 . S
C45 C44 1.405 . S
C45 H71 0.931 . S
U46 O47 2.454 . S
U46 O48 2.458 . S
U46 C49 2.984 . S
U46 C50 2.847 . S
U46 C63 2.882 . S
U46 O64 2.441 . S
U46 O65 2.420 . S
U46 O66 2.455 . S
U46 O67 2.449 . S
O47 U46 2.454 . S
O47 C49 1.353 . S
O48 U46 2.458 . S
O48 C49 1.286 . S
C49 U46 2.984 . S
C49 O47 1.353 . S
C49 O48 1.286 . S
C49 C51 1.363 . S
C50 C40 1.465 . S
C50 U46 2.847 . S
C50 O64 1.249 . S
C50 O65 1.202 . S
C51 C49 1.363 . S
C51 C53 1.408 . S
C51 C56 1.342 . S
C52 C53 1.310 . S
C52 C55 1.461 . S
C52 H72 0.932 . S
C53 C51 1.408 . S
C53 C52 1.310 . S
C53 H73 0.930 . S
C54 C55 1.474 . S
C54 C56 1.285 . S
C54 H74 0.929 . S
C55 C52 1.461 . S
C55 C54 1.474 . S
C56 C51 1.342 . S
C56 C54 1.285 . S
C56 H75 0.930 . S
C57 C60 1.424 . S
C57 C62 1.245 . S
C57 C63 1.428 . S
C58 C61 1.260 . S
C58 C62 1.477 . S
C58 H76 0.932 . S
C59 C60 1.384 . S
C59 C61 1.479 . S
C59 H77 0.929 . S
C60 C57 1.424 . S
C60 C59 1.384 . S
C60 H78 0.928 . S
C61 C58 1.260 . S
C61 C59 1.479 . S
C62 C57 1.245 . S
C62 C58 1.477 . S
C62 H79 0.932 . S
C63 U46 2.882 . S
C63 C57 1.428 . S
C63 O66 1.301 . S
C63 O67 1.282 . S
O64 U46 2.441 . S
O64 C50 1.249 . S
O65 U46 2.420 . S
O65 C50 1.202 . S
O66 U46 2.455 . S
O66 C63 1.301 . S
O67 U46 2.449 . S
O67 C63 1.282 . S
H68 C41 0.931 . S
H69 C43 0.929 . S
H70 C44 0.930 . S
H71 C45 0.931 . S
H72 C52 0.932 . S
H73 C53 0.930 . S
H74 C54 0.929 . S
H75 C56 0.930 . S
H76 C58 0.932 . S
H77 C59 0.929 . S
H78 C60 0.928 . S
H79 C62 0.932 . S
C80 C81 1.264 . S
C80 C85 1.479 . S
C80 C90 1.465 . S
C81 C80 1.264 . S
C81 C83 1.339 . S
C81 H108 0.931 . S
C82 C83 1.395 . S
C82 C84 1.320 . S
C83 C81 1.339 . S
C83 C82 1.395 . S
C83 H109 0.929 . S
C84 C82 1.320 . S
C84 C85 1.405 . S
C84 H110 0.930 . S
C85 C80 1.479 . S
C85 C84 1.405 . S
C85 H111 0.931 . S
U86 O87 2.454 . S
U86 O88 2.458 . S
U86 C89 2.984 . S
U86 C90 2.847 1_455 S
U86 C103 2.882 . S
U86 O104 2.441 1_455 S
U86 O105 2.420 1_455 S
U86 O106 2.455 . S
U86 O107 2.449 . S
O87 U86 2.454 . S
O87 C89 1.353 . S
O88 U86 2.458 . S
O88 C89 1.286 . S
C89 U86 2.984 . S
C89 O87 1.353 . S
C89 O88 1.286 . S
C89 C91 1.363 . S
C90 C80 1.465 . S
C90 U86 2.847 1_655 S
C90 O104 1.249 . S
C90 O105 1.202 . S
C91 C89 1.363 . S
C91 C93 1.408 . S
C91 C96 1.342 . S
C92 C93 1.310 . S
C92 C95 1.461 . S
C92 H112 0.932 . S
C93 C91 1.408 . S
C93 C92 1.310 . S
C93 H113 0.930 . S
C94 C95 1.474 . S
C94 C96 1.285 . S
C94 H114 0.929 . S
C95 C92 1.461 . S
C95 C94 1.474 . S
C96 C91 1.342 . S
C96 C94 1.285 . S
C96 H115 0.930 . S
C97 C100 1.424 . S
C97 C102 1.245 . S
C97 C103 1.428 . S
C98 C101 1.260 . S
C98 C102 1.477 . S
C98 H116 0.932 . S
C99 C100 1.384 . S
C99 C101 1.479 . S
C99 H117 0.929 . S
C100 C97 1.424 . S
C100 C99 1.384 . S
C100 H118 0.928 . S
C101 C98 1.260 . S
C101 C99 1.479 . S
C102 C97 1.245 . S
C102 C98 1.477 . S
C102 H119 0.932 . S
C103 U86 2.882 . S
C103 C97 1.428 . S
C103 O106 1.301 . S
C103 O107 1.282 . S
O104 U86 2.441 1_655 S
O104 C90 1.249 . S
O105 U86 2.420 1_655 S
O105 C90 1.202 . S
O106 U86 2.455 . S
O106 C103 1.301 . S
O107 U86 2.449 . S
O107 C103 1.282 . S
H108 C81 0.931 . S
H109 C83 0.929 . S
H110 C84 0.930 . S
H111 C85 0.931 . S
H112 C92 0.932 . S
H113 C93 0.930 . S
H114 C94 0.929 . S
H115 C96 0.930 . S
H116 C98 0.932 . S
H117 C99 0.929 . S
H118 C100 0.928 . S
H119 C102 0.932 . S
C120 C121 1.264 . S
C120 C125 1.479 . S
C120 C130 1.465 . S
C121 C120 1.264 . S
C121 C123 1.339 . S
C121 H148 0.931 . S
C122 C123 1.395 . S
C122 C124 1.320 . S
C123 C121 1.339 . S
C123 C122 1.395 . S
C123 H149 0.929 . S
C124 C122 1.320 . S
C124 C125 1.405 . S
C124 H150 0.930 . S
C125 C120 1.479 . S
C125 C124 1.405 . S
C125 H151 0.931 . S
U126 O127 2.454 . S
U126 O128 2.458 1_655 S
U126 C129 2.985 1_655 S
U126 C130 2.847 . S
U126 C143 2.882 . S
U126 O144 2.441 . S
U126 O145 2.420 . S
U126 O146 2.455 . S
U126 O147 2.449 . S
O127 U126 2.454 . S
O127 C129 1.354 1_655 S
O128 U126 2.458 1_455 S
O128 C129 1.285 . S
C129 U126 2.985 1_455 S
C129 O127 1.354 1_455 S
C129 O128 1.285 . S
C129 C131 1.363 . S
C130 C120 1.465 . S
C130 U126 2.847 . S
C130 O144 1.249 . S
C130 O145 1.202 . S
C131 C129 1.363 . S
C131 C133 1.408 . S
C131 C136 1.342 . S
C132 C133 1.310 . S
C132 C135 1.461 . S
C132 H152 0.932 . S
C133 C131 1.408 . S
C133 C132 1.310 . S
C133 H153 0.930 1_455 S
C134 C135 1.474 . S
C134 C136 1.285 . S
C134 H154 0.929 . S
C135 C132 1.461 . S
C135 C134 1.474 . S
C136 C131 1.342 . S
C136 C134 1.285 . S
C136 H155 0.930 . S
C137 C140 1.424 . S
C137 C142 1.245 . S
C137 C143 1.428 1_455 S
C138 C141 1.260 . S
C138 C142 1.477 . S
C138 H156 0.932 . S
C139 C140 1.384 . S
C139 C141 1.479 . S
C139 H157 0.929 1_565 S
C140 C137 1.424 . S
C140 C139 1.384 . S
C140 H158 0.926 1_455 S
C141 C138 1.260 . S
C141 C139 1.479 . S
C142 C137 1.245 . S
C142 C138 1.477 . S
C142 H159 0.932 . S
C143 U126 2.882 . S
C143 C137 1.428 1_655 S
C143 O146 1.301 . S
C143 O147 1.282 . S
O144 U126 2.441 . S
O144 C130 1.249 . S
O145 U126 2.420 . S
O145 C130 1.202 . S
O146 U126 2.455 . S
O146 C143 1.301 . S
O147 U126 2.449 . S
O147 C143 1.282 . S
H148 C121 0.931 . S
H149 C123 0.929 . S
H150 C124 0.930 . S
H151 C125 0.931 . S
H152 C132 0.932 . S
H153 C133 0.930 1_655 S
H154 C134 0.929 . S
H155 C136 0.930 . S
H156 C138 0.932 . S
H157 C139 0.929 1_545 S
H158 C140 0.926 1_655 S
H159 C142 0.932 . S
C160 C161 1.264 . S
C160 C165 1.479 . S
C160 C170 1.465 . S
C161 C160 1.264 . S
C161 C163 1.339 . S
C161 H188 0.931 . S
C162 C163 1.395 . S
C162 C164 1.320 . S
C163 C161 1.339 . S
C163 C162 1.395 . S
C163 H189 0.929 . S
C164 C162 1.320 . S
C164 C165 1.405 . S
C164 H190 0.930 . S
C165 C160 1.479 . S
C165 C164 1.405 . S
C165 H191 0.931 . S
U166 O167 2.454 . S
U166 O168 2.458 . S
U166 C169 2.984 . S
U166 C170 2.847 . S
U166 C183 2.882 . S
U166 O184 2.441 . S
U166 O185 2.420 . S
U166 O186 2.455 . S
U166 O187 2.449 . S
O167 U166 2.454 . S
O167 C169 1.353 . S
O168 U166 2.458 . S
O168 C169 1.286 . S
C169 U166 2.984 . S
C169 O167 1.353 . S
C169 O168 1.286 . S
C169 C171 1.363 . S
C170 C160 1.465 . S
C170 U166 2.847 . S
C170 O184 1.249 . S
C170 O185 1.202 . S
C171 C169 1.363 . S
C171 C173 1.408 . S
C171 C176 1.342 . S
C172 C173 1.310 . S
C172 C175 1.461 . S
C172 H192 0.932 . S
C173 C171 1.408 . S
C173 C172 1.310 . S
C173 H193 0.930 . S
C174 C175 1.474 . S
C174 C176 1.285 . S
C174 H194 0.929 . S
C175 C172 1.461 . S
C175 C174 1.474 . S
C176 C171 1.342 . S
C176 C174 1.285 . S
C176 H195 0.930 . S
C177 C180 1.424 . S
C177 C182 1.245 . S
C177 C183 1.428 . S
C178 C181 1.260 . S
C178 C182 1.477 . S
C178 H196 0.932 . S
C179 C180 1.384 . S
C179 C181 1.479 . S
C179 H197 0.929 . S
C180 C177 1.424 . S
C180 C179 1.384 . S
C180 H198 0.928 . S
C181 C178 1.260 . S
C181 C179 1.479 . S
C182 C177 1.245 . S
C182 C178 1.477 . S
C182 H199 0.932 . S
C183 U166 2.882 . S
C183 C177 1.428 . S
C183 O186 1.301 . S
C183 O187 1.282 . S
O184 U166 2.441 . S
O184 C170 1.249 . S
O185 U166 2.420 . S
O185 C170 1.202 . S
O186 U166 2.455 . S
O186 C183 1.301 . S
O187 U166 2.449 . S
O187 C183 1.282 . S
H188 C161 0.931 . S
H189 C163 0.929 . S
H190 C164 0.930 . S
H191 C165 0.931 . S
H192 C172 0.932 . S
H193 C173 0.930 . S
H194 C174 0.929 . S
H195 C176 0.930 . S
H196 C178 0.932 . S
H197 C179 0.929 . S
H198 C180 0.928 . S
H199 C182 0.932 . S
C200 C201 1.264 . S
C200 C205 1.479 . S
C200 C210 1.465 . S
C201 C200 1.264 . S
C201 C203 1.339 . S
C201 H228 0.931 . S
C202 C203 1.395 . S
C202 C204 1.320 . S
C203 C201 1.339 . S
C203 C202 1.395 . S
C203 H229 0.929 . S
C204 C202 1.320 . S
C204 C205 1.405 . S
C204 H230 0.930 . S
C205 C200 1.479 . S
C205 C204 1.405 . S
C205 H231 0.931 . S
U206 O207 2.454 . S
U206 O208 2.458 1_655 S
U206 C209 2.986 1_655 S
U206 C210 2.847 . S
U206 C223 2.882 . S
U206 O224 2.441 . S
U206 O225 2.420 . S
U206 O226 2.455 . S
U206 O227 2.449 . S
O207 U206 2.454 . S
O207 C209 1.355 1_655 S
O208 U206 2.458 1_455 S
O208 C209 1.285 . S
C209 U206 2.986 1_455 S
C209 O207 1.355 1_455 S
C209 O208 1.285 . S
C209 C211 1.362 . S
C210 C200 1.465 . S
C210 U206 2.847 . S
C210 O224 1.249 . S
C210 O225 1.202 . S
C211 C209 1.362 . S
C211 C213 1.408 . S
C211 C216 1.342 . S
C212 C213 1.310 . S
C212 C215 1.461 . S
C212 H232 0.932 . S
C213 C211 1.408 . S
C213 C212 1.310 . S
C213 H233 0.930 1_455 S
C214 C215 1.474 . S
C214 C216 1.285 . S
C214 H234 0.929 . S
C215 C212 1.461 . S
C215 C214 1.474 . S
C216 C211 1.342 . S
C216 C214 1.285 . S
C216 H235 0.930 . S
C217 C220 1.424 . S
C217 C222 1.245 . S
C217 C223 1.428 1_455 S
C218 C221 1.260 . S
C218 C222 1.477 . S
C218 H236 0.932 . S
C219 C220 1.384 . S
C219 C221 1.479 . S
C219 H237 0.929 . S
C220 C217 1.424 . S
C220 C219 1.384 . S
C220 H238 0.923 1_455 S
C221 C218 1.260 . S
C221 C219 1.479 . S
C222 C217 1.245 . S
C222 C218 1.477 . S
C222 H239 0.932 . S
C223 U206 2.882 . S
C223 C217 1.428 1_655 S
C223 O226 1.301 . S
C223 O227 1.282 . S
O224 U206 2.441 . S
O224 C210 1.249 . S
O225 U206 2.420 . S
O225 C210 1.202 . S
O226 U206 2.455 . S
O226 C223 1.301 . S
O227 U206 2.449 . S
O227 C223 1.282 . S
H228 C201 0.931 . S
H229 C203 0.929 . S
H230 C204 0.930 . S
H231 C205 0.931 . S
H232 C212 0.932 . S
H233 C213 0.930 1_655 S
H234 C214 0.929 . S
H235 C216 0.930 . S
H236 C218 0.932 . S
H237 C219 0.929 . S
H238 C220 0.923 1_655 S
H239 C222 0.932 . S
C240 C241 1.264 . S
C240 C245 1.479 . S
C240 C250 1.465 . S
C241 C240 1.264 . S
C241 C243 1.339 . S
C241 H268 0.931 . S
C242 C243 1.395 . S
C242 C244 1.320 . S
C243 C241 1.339 . S
C243 C242 1.395 . S
C243 H269 0.929 . S
C244 C242 1.320 . S
C244 C245 1.405 . S
C244 H270 0.930 . S
C245 C240 1.479 . S
C245 C244 1.405 . S
C245 H271 0.931 . S
U246 O247 2.454 . S
U246 O248 2.458 . S
U246 C249 2.984 . S
U246 C250 2.847 1_455 S
U246 C263 2.882 . S
U246 O264 2.441 1_455 S
U246 O265 2.420 1_455 S
U246 O266 2.455 . S
U246 O267 2.449 . S
O247 U246 2.454 . S
O247 C249 1.353 . S
O248 U246 2.458 . S
O248 C249 1.286 . S
C249 U246 2.984 . S
C249 O247 1.353 . S
C249 O248 1.286 . S
C249 C251 1.363 . S
C250 C240 1.465 . S
C250 U246 2.847 1_655 S
C250 O264 1.249 . S
C250 O265 1.202 . S
C251 C249 1.363 . S
C251 C253 1.408 . S
C251 C256 1.342 . S
C252 C253 1.310 . S
C252 C255 1.461 . S
C252 H272 0.932 . S
C253 C251 1.408 . S
C253 C252 1.310 . S
C253 H273 0.930 . S
C254 C255 1.474 . S
C254 C256 1.285 . S
C254 H274 0.929 . S
C255 C252 1.461 . S
C255 C254 1.474 . S
C256 C251 1.342 . S
C256 C254 1.285 . S
C256 H275 0.930 . S
C257 C260 1.424 . S
C257 C262 1.245 . S
C257 C263 1.428 . S
C258 C261 1.260 . S
C258 C262 1.477 . S
C258 H276 0.932 . S
C259 C260 1.384 . S
C259 C261 1.479 . S
C259 H277 0.929 . S
C260 C257 1.424 . S
C260 C259 1.384 . S
C260 H278 0.928 . S
C261 C258 1.260 . S
C261 C259 1.479 . S
C262 C257 1.245 . S
C262 C258 1.477 . S
C262 H279 0.932 . S
C263 U246 2.882 . S
C263 C257 1.428 . S
C263 O266 1.301 . S
C263 O267 1.282 . S
O264 U246 2.441 1_655 S
O264 C250 1.249 . S
O265 U246 2.420 1_655 S
O265 C250 1.202 . S
O266 U246 2.455 . S
O266 C263 1.301 . S
O267 U246 2.449 . S
O267 C263 1.282 . S
H268 C241 0.931 . S
H269 C243 0.929 . S
H270 C244 0.930 . S
H271 C245 0.931 . S
H272 C252 0.932 . S
H273 C253 0.930 . S
H274 C254 0.929 . S
H275 C256 0.930 . S
H276 C258 0.932 . S
H277 C259 0.929 . S
H278 C260 0.928 . S
H279 C262 0.932 . S
C280 C281 1.264 . S
C280 C285 1.479 . S
C280 C290 1.465 . S
C281 C280 1.264 . S
C281 C283 1.339 . S
C281 H308 0.931 . S
C282 C283 1.395 . S
C282 C284 1.320 . S
C283 C281 1.339 . S
C283 C282 1.395 . S
C283 H309 0.929 . S
C284 C282 1.320 . S
C284 C285 1.405 . S
C284 H310 0.930 . S
C285 C280 1.479 . S
C285 C284 1.405 . S
C285 H311 0.931 . S
U286 O287 2.454 . S
U286 O288 2.458 . S
U286 C289 2.984 . S
U286 C290 2.847 . S
U286 C303 2.882 . S
U286 O304 2.441 . S
U286 O305 2.420 . S
U286 O306 2.455 . S
U286 O307 2.449 . S
O287 U286 2.454 . S
O287 C289 1.353 . S
O288 U286 2.458 . S
O288 C289 1.286 . S
C289 U286 2.984 . S
C289 O287 1.353 . S
C289 O288 1.286 . S
C289 C291 1.363 . S
C290 C280 1.465 . S
C290 U286 2.847 . S
C290 O304 1.249 . S
C290 O305 1.202 . S
C291 C289 1.363 . S
C291 C293 1.408 . S
C291 C296 1.342 . S
C292 C293 1.310 . S
C292 C295 1.461 . S
C292 H312 0.932 . S
C293 C291 1.408 . S
C293 C292 1.310 . S
C293 H313 0.930 . S
C294 C295 1.474 . S
C294 C296 1.285 . S
C294 H314 0.929 . S
C295 C292 1.461 . S
C295 C294 1.474 . S
C296 C291 1.342 . S
C296 C294 1.285 . S
C296 H315 0.930 . S
C297 C300 1.424 . S
C297 C302 1.245 . S
C297 C303 1.428 . S
C298 C301 1.260 . S
C298 C302 1.477 . S
C298 H316 0.932 . S
C299 C300 1.384 . S
C299 C301 1.479 . S
C299 H317 0.889 1_565 S
C300 C297 1.424 . S
C300 C299 1.384 . S
C300 H318 0.928 . S
C301 C298 1.260 . S
C301 C299 1.479 . S
C302 C297 1.245 . S
C302 C298 1.477 . S
C302 H319 0.932 . S
C303 U286 2.882 . S
C303 C297 1.428 . S
C303 O306 1.301 . S
C303 O307 1.282 . S
O304 U286 2.441 . S
O304 C290 1.249 . S
O305 U286 2.420 . S
O305 C290 1.202 . S
O306 U286 2.455 . S
O306 C303 1.301 . S
O307 U286 2.449 . S
O307 C303 1.282 . S
H308 C281 0.931 . S
H309 C283 0.929 . S
H310 C284 0.930 . S
H311 C285 0.931 . S
H312 C292 0.932 . S
H313 C293 0.930 . S
H314 C294 0.929 . S
H315 C296 0.930 . S
H316 C298 0.932 . S
H317 C299 0.889 1_545 S
H318 C300 0.928 . S
H319 C302 0.932 . S
C320 C321 1.264 1_545 S
C320 C325 1.479 . S
C320 C330 1.465 . S
C321 C320 1.264 1_565 S
C321 C323 1.339 . S
C321 H348 0.931 . S
C322 C323 1.395 . S
C322 C324 1.320 . S
C323 C321 1.339 . S
C323 C322 1.395 . S
C323 H349 0.929 . S
C324 C322 1.320 . S
C324 C325 1.405 1_565 S
C324 H350 0.930 . S
C325 C320 1.479 . S
C325 C324 1.405 1_545 S
C325 H351 0.931 . S
U326 O327 2.454 . S
U326 O328 2.458 . S
U326 C329 2.984 . S
U326 C330 2.847 . S
U326 C343 2.882 . S
U326 O344 2.441 . S
U326 O345 2.420 . S
U326 O346 2.455 . S
U326 O347 2.449 . S
O327 U326 2.454 . S
O327 C329 1.353 . S
O328 U326 2.458 . S
O328 C329 1.286 . S
C329 U326 2.984 . S
C329 O327 1.353 . S
C329 O328 1.286 . S
C329 C331 1.363 . S
C330 C320 1.465 . S
C330 U326 2.847 . S
C330 O344 1.249 . S
C330 O345 1.202 . S
C331 C329 1.363 . S
C331 C333 1.408 . S
C331 C336 1.342 . S
C332 C333 1.310 . S
C332 C335 1.461 . S
C332 H352 0.932 . S
C333 C331 1.408 . S
C333 C332 1.310 . S
C333 H353 0.930 . S
C334 C335 1.474 . S
C334 C336 1.285 . S
C334 H354 0.929 . S
C335 C332 1.461 . S
C335 C334 1.474 . S
C336 C331 1.342 . S
C336 C334 1.285 . S
C336 H355 0.930 . S
C337 C340 1.424 . S
C337 C342 1.245 . S
C337 C343 1.428 1_565 S
C338 C341 1.260 . S
C338 C342 1.477 . S
C338 H356 0.932 . S
C339 C340 1.384 . S
C339 C341 1.479 . S
C339 H357 0.929 . S
C340 C337 1.424 . S
C340 C339 1.384 . S
C340 H358 0.928 . S
C341 C338 1.260 . S
C341 C339 1.479 . S
C342 C337 1.245 . S
C342 C338 1.477 . S
C342 H359 0.932 1_565 S
C343 U326 2.882 . S
C343 C337 1.428 1_545 S
C343 O346 1.301 . S
C343 O347 1.282 . S
O344 U326 2.441 . S
O344 C330 1.249 . S
O345 U326 2.420 . S
O345 C330 1.202 . S
O346 U326 2.455 . S
O346 C343 1.301 . S
O347 U326 2.449 . S
O347 C343 1.282 . S
H348 C321 0.931 . S
H349 C323 0.929 . S
H350 C324 0.930 . S
H351 C325 0.931 . S
H352 C332 0.932 . S
H353 C333 0.930 . S
H354 C334 0.929 . S
H355 C336 0.930 . S
H356 C338 0.932 . S
H357 C339 0.929 . S
H358 C340 0.928 . S
H359 C342 0.932 1_545 S
C360 C361 1.264 . S
C360 C365 1.479 . S
C360 C370 1.465 . S
C361 C360 1.264 . S
C361 C363 1.339 . S
C361 H388 0.931 . S
C362 C363 1.395 . S
C362 C364 1.320 . S
C363 C361 1.339 . S
C363 C362 1.395 . S
C363 H389 0.929 . S
C364 C362 1.320 . S
C364 C365 1.405 . S
C364 H390 0.930 . S
C365 C360 1.479 . S
C365 C364 1.405 . S
C365 H391 0.931 . S
U366 O367 2.454 . S
U366 O368 2.458 . S
U366 C369 2.984 . S
U366 C370 2.847 . S
U366 C383 2.882 . S
U366 O384 2.441 . S
U366 O385 2.420 . S
U366 O386 2.455 . S
U366 O387 2.449 . S
O367 U366 2.454 . S
O367 C369 1.353 . S
O368 U366 2.458 . S
O368 C369 1.286 . S
C369 U366 2.984 . S
C369 O367 1.353 . S
C369 O368 1.286 . S
C369 C371 1.363 . S
C370 C360 1.465 . S
C370 U366 2.847 . S
C370 O384 1.249 . S
C370 O385 1.202 . S
C371 C369 1.363 . S
C371 C373 1.408 . S
C371 C376 1.342 . S
C372 C373 1.310 . S
C372 C375 1.461 . S
C372 H392 0.932 . S
C373 C371 1.408 . S
C373 C372 1.310 . S
C373 H393 0.930 . S
C374 C375 1.474 . S
C374 C376 1.285 . S
C374 H394 0.929 . S
C375 C372 1.461 . S
C375 C374 1.474 . S
C376 C371 1.342 . S
C376 C374 1.285 . S
C376 H395 0.930 . S
C377 C380 1.424 . S
C377 C382 1.245 . S
C377 C383 1.428 . S
C378 C381 1.260 . S
C378 C382 1.477 . S
C378 H396 0.932 . S
C379 C380 1.384 . S
C379 C381 1.479 . S
C379 H397 0.929 . S
C380 C377 1.424 . S
C380 C379 1.384 . S
C380 H398 0.928 . S
C381 C378 1.260 . S
C381 C379 1.479 . S
C382 C377 1.245 . S
C382 C378 1.477 . S
C382 H399 0.932 . S
C383 U366 2.882 . S
C383 C377 1.428 . S
C383 O386 1.301 . S
C383 O387 1.282 . S
O384 U366 2.441 . S
O384 C370 1.249 . S
O385 U366 2.420 . S
O385 C370 1.202 . S
O386 U366 2.455 . S
O386 C383 1.301 . S
O387 U366 2.449 . S
O387 C383 1.282 . S
H388 C361 0.931 . S
H389 C363 0.929 . S
H390 C364 0.930 . S
H391 C365 0.931 . S
H392 C372 0.932 . S
H393 C373 0.930 . S
H394 C374 0.929 . S
H395 C376 0.930 . S
H396 C378 0.932 . S
H397 C379 0.929 . S
H398 C380 0.928 . S
H399 C382 0.932 . S
C400 C401 1.264 . S
C400 C405 1.479 . S
C400 C410 1.465 . S
C401 C400 1.264 . S
C401 C403 1.339 . S
C401 H428 0.931 . S
C402 C403 1.395 . S
C402 C404 1.320 . S
C403 C401 1.339 . S
C403 C402 1.395 . S
C403 H429 0.929 . S
C404 C402 1.320 . S
C404 C405 1.405 . S
C404 H430 0.930 . S
C405 C400 1.479 . S
C405 C404 1.405 . S
C405 H431 0.931 . S
U406 O407 2.454 . S
U406 O408 2.458 . S
U406 C409 2.984 . S
U406 C410 2.847 . S
U406 C423 2.882 . S
U406 O424 2.441 . S
U406 O425 2.420 . S
U406 O426 2.455 . S
U406 O427 2.449 . S
O407 U406 2.454 . S
O407 C409 1.353 . S
O408 U406 2.458 . S
O408 C409 1.286 . S
C409 U406 2.984 . S
C409 O407 1.353 . S
C409 O408 1.286 . S
C409 C411 1.363 . S
C410 C400 1.465 . S
C410 U406 2.847 . S
C410 O424 1.249 . S
C410 O425 1.202 . S
C411 C409 1.363 . S
C411 C413 1.408 . S
C411 C416 1.342 . S
C412 C413 1.310 . S
C412 C415 1.461 . S
C412 H432 0.932 . S
C413 C411 1.408 . S
C413 C412 1.310 . S
C413 H433 0.930 . S
C414 C415 1.474 . S
C414 C416 1.285 . S
C414 H434 0.929 . S
C415 C412 1.461 . S
C415 C414 1.474 . S
C416 C411 1.342 . S
C416 C414 1.285 . S
C416 H435 0.930 . S
C417 C420 1.424 . S
C417 C422 1.245 . S
C417 C423 1.428 . S
C418 C421 1.260 . S
C418 C422 1.477 . S
C418 H436 0.932 . S
C419 C420 1.384 . S
C419 C421 1.479 . S
C419 H437 0.921 1_455 S
C420 C417 1.424 . S
C420 C419 1.384 . S
C420 H438 0.928 . S
C421 C418 1.260 . S
C421 C419 1.479 . S
C422 C417 1.245 . S
C422 C418 1.477 . S
C422 H439 0.932 . S
C423 U406 2.882 . S
C423 C417 1.428 . S
C423 O426 1.301 . S
C423 O427 1.282 . S
O424 U406 2.441 . S
O424 C410 1.249 . S
O425 U406 2.420 . S
O425 C410 1.202 . S
O426 U406 2.455 . S
O426 C423 1.301 . S
O427 U406 2.449 . S
O427 C423 1.282 . S
H428 C401 0.931 . S
H429 C403 0.929 . S
H430 C404 0.930 . S
H431 C405 0.931 . S
H432 C412 0.932 . S
H433 C413 0.930 . S
H434 C414 0.929 . S
H435 C416 0.930 . S
H436 C418 0.932 . S
H437 C419 0.921 1_655 S
H438 C420 0.928 . S
H439 C422 0.932 . S
C440 C441 1.264 . S
C440 C445 1.479 . S
C440 C450 1.465 . S
C441 C440 1.264 . S
C441 C443 1.339 . S
C441 H468 0.931 . S
C442 C443 1.395 . S
C442 C444 1.320 . S
C443 C441 1.339 . S
C443 C442 1.395 . S
C443 H469 0.929 . S
C444 C442 1.320 . S
C444 C445 1.405 . S
C444 H470 0.930 . S
C445 C440 1.479 . S
C445 C444 1.405 . S
C445 H471 0.931 . S
U446 O447 2.454 1_565 S
U446 O448 2.458 1_565 S
U446 C449 2.984 1_565 S
U446 C450 2.847 . S
U446 C463 2.882 . S
U446 O464 2.441 . S
U446 O465 2.420 . S
U446 O466 2.455 . S
U446 O467 2.449 . S
O447 U446 2.454 1_545 S
O447 C449 1.353 . S
O448 U446 2.458 1_545 S
O448 C449 1.286 . S
C449 U446 2.984 1_545 S
C449 O447 1.353 . S
C449 O448 1.286 . S
C449 C451 1.363 . S
C450 C440 1.465 . S
C450 U446 2.847 . S
C450 O464 1.249 . S
C450 O465 1.202 . S
C451 C449 1.363 . S
C451 C453 1.408 . S
C451 C456 1.342 . S
C452 C453 1.310 . S
C452 C455 1.461 . S
C452 H472 0.932 . S
C453 C451 1.408 . S
C453 C452 1.310 . S
C453 H473 0.930 . S
C454 C455 1.474 . S
C454 C456 1.285 . S
C454 H474 0.929 . S
C455 C452 1.461 . S
C455 C454 1.474 . S
C456 C451 1.342 . S
C456 C454 1.285 . S
C456 H475 0.930 . S
C457 C460 1.424 . S
C457 C462 1.245 . S
C457 C463 1.428 . S
C458 C461 1.260 . S
C458 C462 1.477 . S
C458 H476 0.932 . S
C459 C460 1.384 . S
C459 C461 1.479 . S
C459 H477 0.929 . S
C460 C457 1.424 . S
C460 C459 1.384 . S
C460 H478 0.928 . S
C461 C458 1.260 . S
C461 C459 1.479 . S
C462 C457 1.245 . S
C462 C458 1.477 . S
C462 H479 0.932 . S
C463 U446 2.882 . S
C463 C457 1.428 . S
C463 O466 1.301 . S
C463 O467 1.282 . S
O464 U446 2.441 . S
O464 C450 1.249 . S
O465 U446 2.420 . S
O465 C450 1.202 . S
O466 U446 2.455 . S
O466 C463 1.301 . S
O467 U446 2.449 . S
O467 C463 1.282 . S
H468 C441 0.931 . S
H469 C443 0.929 . S
H470 C444 0.930 . S
H471 C445 0.931 . S
H472 C452 0.932 . S
H473 C453 0.930 . S
H474 C454 0.929 . S
H475 C456 0.930 . S
H476 C458 0.932 . S
H477 C459 0.929 . S
H478 C460 0.928 . S
H479 C462 0.932 . S
C480 C481 1.264 . S
C480 C485 1.479 . S
C480 C490 1.465 . S
C481 C480 1.264 . S
C481 C483 1.339 . S
C481 H508 0.931 . S
C482 C483 1.395 . S
C482 C484 1.320 . S
C483 C481 1.339 . S
C483 C482 1.395 . S
C483 H509 0.929 . S
C484 C482 1.320 . S
C484 C485 1.405 . S
C484 H510 0.930 . S
C485 C480 1.479 . S
C485 C484 1.405 . S
C485 H511 0.931 . S
U486 O487 2.454 . S
U486 O488 2.458 . S
U486 C489 2.984 . S
U486 C490 2.847 . S
U486 C503 2.882 . S
U486 O504 2.441 . S
U486 O505 2.420 . S
U486 O506 2.455 . S
U486 O507 2.449 . S
O487 U486 2.454 . S
O487 C489 1.353 . S
O488 U486 2.458 . S
O488 C489 1.286 . S
C489 U486 2.984 . S
C489 O487 1.353 . S
C489 O488 1.286 . S
C489 C491 1.363 . S
C490 C480 1.465 . S
C490 U486 2.847 . S
C490 O504 1.249 . S
C490 O505 1.202 . S
C491 C489 1.363 . S
C491 C493 1.408 . S
C491 C496 1.342 . S
C492 C493 1.310 . S
C492 C495 1.461 . S
C492 H512 0.932 . S
C493 C491 1.408 . S
C493 C492 1.310 . S
C493 H513 0.930 . S
C494 C495 1.474 . S
C494 C496 1.285 . S
C494 H514 0.929 . S
C495 C492 1.461 . S
C495 C494 1.474 . S
C496 C491 1.342 . S
C496 C494 1.285 . S
C496 H515 0.930 . S
C497 C500 1.424 . S
C497 C502 1.245 . S
C497 C503 1.428 . S
C498 C501 1.260 . S
C498 C502 1.477 . S
C498 H516 0.932 . S
C499 C500 1.384 . S
C499 C501 1.479 . S
C499 H517 0.929 . S
C500 C497 1.424 . S
C500 C499 1.384 . S
C500 H518 0.928 . S
C501 C498 1.260 . S
C501 C499 1.479 . S
C502 C497 1.245 . S
C502 C498 1.477 . S
C502 H519 0.932 . S
C503 U486 2.882 . S
C503 C497 1.428 . S
C503 O506 1.301 . S
C503 O507 1.282 . S
O504 U486 2.441 . S
O504 C490 1.249 . S
O505 U486 2.420 . S
O505 C490 1.202 . S
O506 U486 2.455 . S
O506 C503 1.301 . S
O507 U486 2.449 . S
O507 C503 1.282 . S
H508 C481 0.931 . S
H509 C483 0.929 . S
H510 C484 0.930 . S
H511 C485 0.931 . S
H512 C492 0.932 . S
H513 C493 0.930 . S
H514 C494 0.929 . S
H515 C496 0.930 . S
H516 C498 0.932 . S
H517 C499 0.929 . S
H518 C500 0.928 . S
H519 C502 0.932 . S
C520 C521 1.264 . S
C520 C525 1.479 . S
C520 C530 1.465 . S
C521 C520 1.264 . S
C521 C523 1.339 . S
C521 H548 0.931 . S
C522 C523 1.395 . S
C522 C524 1.320 . S
C523 C521 1.339 . S
C523 C522 1.395 . S
C523 H549 0.929 . S
C524 C522 1.320 . S
C524 C525 1.405 . S
C524 H550 0.930 . S
C525 C520 1.479 . S
C525 C524 1.405 . S
C525 H551 0.931 . S
U526 O527 2.454 . S
U526 O528 2.458 . S
U526 C529 2.984 . S
U526 C530 2.847 . S
U526 C543 2.882 . S
U526 O544 2.441 . S
U526 O545 2.420 . S
U526 O546 2.455 . S
U526 O547 2.449 . S
O527 U526 2.454 . S
O527 C529 1.353 . S
O528 U526 2.458 . S
O528 C529 1.286 . S
C529 U526 2.984 . S
C529 O527 1.353 . S
C529 O528 1.286 . S
C529 C531 1.363 . S
C530 C520 1.465 . S
C530 U526 2.847 . S
C530 O544 1.249 . S
C530 O545 1.202 . S
C531 C529 1.363 . S
C531 C533 1.408 . S
C531 C536 1.342 . S
C532 C533 1.310 . S
C532 C535 1.461 . S
C532 H552 0.932 . S
C533 C531 1.408 . S
C533 C532 1.310 . S
C533 H553 0.930 . S
C534 C535 1.474 . S
C534 C536 1.285 . S
C534 H554 0.929 . S
C535 C532 1.461 . S
C535 C534 1.474 . S
C536 C531 1.342 . S
C536 C534 1.285 . S
C536 H555 0.930 . S
C537 C540 1.424 . S
C537 C542 1.245 . S
C537 C543 1.428 . S
C538 C541 1.260 . S
C538 C542 1.477 . S
C538 H556 0.932 . S
C539 C540 1.384 . S
C539 C541 1.479 . S
C539 H557 0.929 . S
C540 C537 1.424 . S
C540 C539 1.384 . S
C540 H558 0.928 . S
C541 C538 1.260 . S
C541 C539 1.479 . S
C542 C537 1.245 . S
C542 C538 1.477 . S
C542 H559 0.932 . S
C543 U526 2.882 . S
C543 C537 1.428 . S
C543 O546 1.301 . S
C543 O547 1.282 . S
O544 U526 2.441 . S
O544 C530 1.249 . S
O545 U526 2.420 . S
O545 C530 1.202 . S
O546 U526 2.455 . S
O546 C543 1.301 . S
O547 U526 2.449 . S
O547 C543 1.282 . S
H548 C521 0.931 . S
H549 C523 0.929 . S
H550 C524 0.930 . S
H551 C525 0.931 . S
H552 C532 0.932 . S
H553 C533 0.930 . S
H554 C534 0.929 . S
H555 C536 0.930 . S
H556 C538 0.932 . S
H557 C539 0.929 . S
H558 C540 0.928 . S
H559 C542 0.932 . S
C560 C561 1.264 . S
C560 C565 1.479 . S
C560 C570 1.465 . S
C561 C560 1.264 . S
C561 C563 1.339 . S
C561 H588 0.931 . S
C562 C563 1.395 . S
C562 C564 1.320 . S
C563 C561 1.339 . S
C563 C562 1.395 . S
C563 H589 0.929 . S
C564 C562 1.320 . S
C564 C565 1.405 . S
C564 H590 0.930 . S
C565 C560 1.479 . S
C565 C564 1.405 . S
C565 H591 0.931 . S
U566 O567 2.454 . S
U566 O568 2.458 . S
U566 C569 2.984 . S
U566 C570 2.847 1_565 S
U566 C583 2.882 . S
U566 O584 2.441 1_565 S
U566 O585 2.420 . S
U566 O586 2.455 . S
U566 O587 2.449 . S
O567 U566 2.454 . S
O567 C569 1.353 . S
O568 U566 2.458 . S
O568 C569 1.286 . S
C569 U566 2.984 . S
C569 O567 1.353 . S
C569 O568 1.286 . S
C569 C571 1.363 . S
C570 C560 1.465 . S
C570 U566 2.847 1_545 S
C570 O584 1.249 . S
C570 O585 1.202 1_545 S
C571 C569 1.363 . S
C571 C573 1.408 . S
C571 C576 1.342 . S
C572 C573 1.310 . S
C572 C575 1.461 . S
C572 H592 0.932 . S
C573 C571 1.408 . S
C573 C572 1.310 . S
C573 H593 0.930 . S
C574 C575 1.474 . S
C574 C576 1.285 . S
C574 H594 0.929 . S
C575 C572 1.461 . S
C575 C574 1.474 . S
C576 C571 1.342 . S
C576 C574 1.285 . S
C576 H595 0.930 . S
C577 C580 1.424 . S
C577 C582 1.245 . S
C577 C583 1.428 . S
C578 C581 1.260 . S
C578 C582 1.477 . S
C578 H596 0.932 . S
C579 C580 1.384 . S
C579 C581 1.479 . S
C579 H597 0.929 1_455 S
C580 C577 1.424 . S
C580 C579 1.384 . S
C580 H598 0.928 . S
C581 C578 1.260 . S
C581 C579 1.479 . S
C582 C577 1.245 . S
C582 C578 1.477 . S
C582 H599 0.932 . S
C583 U566 2.882 . S
C583 C577 1.428 . S
C583 O586 1.301 . S
C583 O587 1.282 . S
O584 U566 2.441 1_545 S
O584 C570 1.249 . S
O585 U566 2.420 . S
O585 C570 1.202 1_565 S
O586 U566 2.455 . S
O586 C583 1.301 . S
O587 U566 2.449 . S
O587 C583 1.282 . S
H588 C561 0.931 . S
H589 C563 0.929 . S
H590 C564 0.930 . S
H591 C565 0.931 . S
H592 C572 0.932 . S
H593 C573 0.930 . S
H594 C574 0.929 . S
H595 C576 0.930 . S
H596 C578 0.932 . S
H597 C579 0.929 1_655 S
H598 C580 0.928 . S
H599 C582 0.932 . S
C600 C601 1.264 . S
C600 C605 1.479 . S
C600 C610 1.465 . S
C601 C600 1.264 . S
C601 C603 1.339 . S
C601 H628 0.931 . S
C602 C603 1.395 . S
C602 C604 1.320 . S
C603 C601 1.339 . S
C603 C602 1.395 . S
C603 H629 0.929 . S
C604 C602 1.320 . S
C604 C605 1.405 . S
C604 H630 0.930 . S
C605 C600 1.479 . S
C605 C604 1.405 . S
C605 H631 0.931 . S
U606 O607 2.454 . S
U606 O608 2.458 1_545 S
U606 C609 2.984 1_545 S
U606 C610 2.847 . S
U606 C623 2.882 1_545 S
U606 O624 2.441 . S
U606 O625 2.420 . S
U606 O626 2.455 1_545 S
U606 O627 2.449 . S
O607 U606 2.454 . S
O607 C609 1.353 1_545 S
O608 U606 2.458 1_565 S
O608 C609 1.286 . S
C609 U606 2.984 1_565 S
C609 O607 1.353 1_565 S
C609 O608 1.286 . S
C609 C611 1.363 . S
C610 C600 1.465 . S
C610 U606 2.847 . S
C610 O624 1.249 . S
C610 O625 1.202 . S
C611 C609 1.363 . S
C611 C613 1.408 . S
C611 C616 1.342 . S
C612 C613 1.310 . S
C612 C615 1.461 . S
C612 H632 0.932 . S
C613 C611 1.408 . S
C613 C612 1.310 . S
C613 H633 0.930 . S
C614 C615 1.474 . S
C614 C616 1.285 . S
C614 H634 0.929 . S
C615 C612 1.461 . S
C615 C614 1.474 . S
C616 C611 1.342 . S
C616 C614 1.285 . S
C616 H635 0.930 . S
C617 C620 1.424 . S
C617 C622 1.245 . S
C617 C623 1.428 . S
C618 C621 1.260 . S
C618 C622 1.477 . S
C618 H636 0.932 . S
C619 C620 1.384 . S
C619 C621 1.479 . S
C619 H637 0.929 . S
C620 C617 1.424 . S
C620 C619 1.384 . S
C620 H638 0.928 . S
C621 C618 1.260 . S
C621 C619 1.479 . S
C622 C617 1.245 . S
C622 C618 1.477 . S
C622 H639 0.932 . S
C623 U606 2.882 1_565 S
C623 C617 1.428 . S
C623 O626 1.301 . S
C623 O627 1.282 1_565 S
O624 U606 2.441 . S
O624 C610 1.249 . S
O625 U606 2.420 . S
O625 C610 1.202 . S
O626 U606 2.455 1_565 S
O626 C623 1.301 . S
O627 U606 2.449 . S
O627 C623 1.282 1_545 S
H628 C601 0.931 . S
H629 C603 0.929 . S
H630 C604 0.930 . S
H631 C605 0.931 . S
H632 C612 0.932 . S
H633 C613 0.930 . S
H634 C614 0.929 . S
H635 C616 0.930 . S
H636 C618 0.932 . S
H637 C619 0.929 . S
H638 C620 0.928 . S
H639 C622 0.932 . S
H640 C646 0.930 . S
H641 C650 0.930 . S
H642 C655 0.929 . S
H643 C653 0.929 . S
H644 C648 0.929 . S
H645 C654 0.929 . S
C646 H640 0.930 . S
C646 C647 1.367 . S
C646 C654 1.378 . S
C647 C646 1.367 . S
C647 C655 1.433 . S
C648 H644 0.929 . S
C648 C650 1.378 . S
C648 C652 1.350 . S
C649 C652 1.463 . S
C649 C654 1.350 . S
C649 N657 1.427 . S
C650 H641 0.930 . S
C650 C648 1.378 . S
C650 C651 1.367 . S
C651 C650 1.367 . S
C651 C653 1.433 . S
C652 C648 1.350 . S
C652 C649 1.463 . S
C652 N656 1.427 . S
C653 H643 0.929 . S
C653 C651 1.433 . S
C653 N656 1.384 . S
C654 H645 0.929 . S
C654 C646 1.378 . S
C654 C649 1.350 . S
C655 H642 0.929 . S
C655 C647 1.433 . S
C655 N657 1.384 . S
N656 C652 1.427 . S
N656 C653 1.384 . S
N657 C649 1.427 . S
N657 C655 1.384 . S
H658 C664 0.930 . S
H659 C668 0.930 . S
H660 C673 0.929 . S
H661 C671 0.929 . S
H662 C666 0.929 . S
H663 C672 0.929 . S
C664 H658 0.930 . S
C664 C665 1.367 . S
C664 C672 1.378 . S
C665 C664 1.367 . S
C665 C673 1.433 . S
C666 H662 0.929 . S
C666 C668 1.378 . S
C666 C670 1.350 . S
C667 C670 1.463 . S
C667 C672 1.350 . S
C667 N675 1.427 . S
C668 H659 0.930 . S
C668 C666 1.378 . S
C668 C669 1.367 . S
C669 C668 1.367 . S
C669 C671 1.433 . S
C670 C666 1.350 . S
C670 C667 1.463 . S
C670 N674 1.427 . S
C671 H661 0.929 . S
C671 C669 1.433 . S
C671 N674 1.384 . S
C672 H663 0.929 . S
C672 C664 1.378 . S
C672 C667 1.350 . S
C673 H660 0.929 . S
C673 C665 1.433 . S
C673 N675 1.384 . S
N674 C670 1.427 . S
N674 C671 1.384 . S
N675 C667 1.427 . S
N675 C673 1.384 . S
H676 C682 0.930 . S
H677 C686 0.930 . S
H678 C691 0.929 . S
H679 C689 0.929 . S
H680 C684 0.929 . S
H681 C690 0.929 . S
C682 H676 0.930 . S
C682 C683 1.367 . S
C682 C690 1.378 . S
C683 C682 1.367 . S
C683 C691 1.433 . S
C684 H680 0.929 . S
C684 C686 1.378 . S
C684 C688 1.350 . S
C685 C688 1.463 . S
C685 C690 1.350 . S
C685 N693 1.427 . S
C686 H677 0.930 . S
C686 C684 1.378 . S
C686 C687 1.367 . S
C687 C686 1.367 . S
C687 C689 1.433 . S
C688 C684 1.350 . S
C688 C685 1.463 . S
C688 N692 1.427 . S
C689 H679 0.929 . S
C689 C687 1.433 . S
C689 N692 1.384 . S
C690 H681 0.929 . S
C690 C682 1.378 . S
C690 C685 1.350 . S
C691 H678 0.929 . S
C691 C683 1.433 . S
C691 N693 1.384 . S
N692 C688 1.427 . S
N692 C689 1.384 . S
N693 C685 1.427 . S
N693 C691 1.384 . S
H694 C700 0.930 . S
H695 C704 0.930 . S
H696 C709 0.929 . S
H697 C707 0.929 . S
H698 C702 0.929 . S
H699 C708 0.929 . S
C700 H694 0.930 . S
C700 C701 1.367 . S
C700 C708 1.378 . S
C701 C700 1.367 . S
C701 C709 1.433 . S
C702 H698 0.929 . S
C702 C704 1.378 . S
C702 C706 1.350 . S
C703 C706 1.463 . S
C703 C708 1.350 . S
C703 N711 1.427 . S
C704 H695 0.930 . S
C704 C702 1.378 . S
C704 C705 1.367 . S
C705 C704 1.367 . S
C705 C707 1.433 . S
C706 C702 1.350 . S
C706 C703 1.463 . S
C706 N710 1.427 . S
C707 H697 0.929 . S
C707 C705 1.433 . S
C707 N710 1.384 . S
C708 H699 0.929 . S
C708 C700 1.378 . S
C708 C703 1.350 . S
C709 H696 0.929 . S
C709 C701 1.433 . S
C709 N711 1.384 . S
N710 C706 1.427 . S
N710 C707 1.384 . S
N711 C703 1.427 . S
N711 C709 1.384 . S
H712 C718 0.930 . S
H713 C722 0.930 1_545 S
H714 C727 0.929 . S
H715 C725 0.929 . S
H716 C720 0.929 . S
H717 C726 0.929 . S
C718 H712 0.930 . S
C718 C719 1.367 . S
C718 C726 1.378 . S
C719 C718 1.367 . S
C719 C727 1.433 . S
C720 H716 0.929 . S
C720 C722 1.378 . S
C720 C724 1.350 . S
C721 C724 1.463 . S
C721 C726 1.350 . S
C721 N729 1.427 . S
C722 H713 0.930 1_565 S
C722 C720 1.378 . S
C722 C723 1.367 . S
C723 C722 1.367 . S
C723 C725 1.433 . S
C724 C720 1.350 . S
C724 C721 1.463 . S
C724 N728 1.427 . S
C725 H715 0.929 . S
C725 C723 1.433 . S
C725 N728 1.384 . S
C726 H717 0.929 . S
C726 C718 1.378 . S
C726 C721 1.350 . S
C727 H714 0.929 . S
C727 C719 1.433 . S
C727 N729 1.384 . S
N728 C724 1.427 . S
N728 C725 1.384 . S
N729 C721 1.427 . S
N729 C727 1.384 . S
H730 C736 0.930 . S
H731 C740 0.930 . S
H732 C745 0.929 . S
H733 C743 0.929 . S
H734 C738 0.929 . S
H735 C744 0.929 . S
C736 H730 0.930 . S
C736 C737 1.367 . S
C736 C744 1.378 . S
C737 C736 1.367 . S
C737 C745 1.433 . S
C738 H734 0.929 . S
C738 C740 1.378 . S
C738 C742 1.350 . S
C739 C742 1.463 . S
C739 C744 1.350 . S
C739 N747 1.427 . S
C740 H731 0.930 . S
C740 C738 1.378 . S
C740 C741 1.367 . S
C741 C740 1.367 . S
C741 C743 1.433 . S
C742 C738 1.350 . S
C742 C739 1.463 . S
C742 N746 1.427 . S
C743 H733 0.929 . S
C743 C741 1.433 . S
C743 N746 1.384 . S
C744 H735 0.929 . S
C744 C736 1.378 . S
C744 C739 1.350 . S
C745 H732 0.929 . S
C745 C737 1.433 . S
C745 N747 1.384 . S
N746 C742 1.427 . S
N746 C743 1.384 . S
N747 C739 1.427 . S
N747 C745 1.384 . S
H748 C754 0.930 . S
H749 C758 0.930 . S
H750 C763 0.929 1_455 S
H751 C761 0.929 . S
H752 C756 0.929 . S
H753 C762 0.929 . S
C754 H748 0.930 . S
C754 C755 1.367 . S
C754 C762 1.378 . S
C755 C754 1.367 . S
C755 C763 1.433 . S
C756 H752 0.929 . S
C756 C758 1.378 . S
C756 C760 1.350 . S
C757 C760 1.463 . S
C757 C762 1.350 . S
C757 N765 1.427 . S
C758 H749 0.930 . S
C758 C756 1.378 . S
C758 C759 1.367 . S
C759 C758 1.367 . S
C759 C761 1.433 . S
C760 C756 1.350 . S
C760 C757 1.463 . S
C760 N764 1.427 . S
C761 H751 0.929 . S
C761 C759 1.433 . S
C761 N764 1.384 . S
C762 H753 0.929 . S
C762 C754 1.378 . S
C762 C757 1.350 . S
C763 H750 0.929 1_655 S
C763 C755 1.433 . S
C763 N765 1.384 . S
N764 C760 1.427 . S
N764 C761 1.384 . S
N765 C757 1.427 . S
N765 C763 1.384 . S
H766 C772 0.930 . S
H767 C776 0.930 1_545 S
H768 C781 0.929 . S
H769 C779 0.929 . S
H770 C774 0.929 . S
H771 C780 0.929 . S
C772 H766 0.930 . S
C772 C773 1.367 . S
C772 C780 1.378 . S
C773 C772 1.367 . S
C773 C781 1.433 . S
C774 H770 0.929 . S
C774 C776 1.378 . S
C774 C778 1.350 . S
C775 C778 1.463 . S
C775 C780 1.350 . S
C775 N783 1.427 . S
C776 H767 0.930 1_565 S
C776 C774 1.378 . S
C776 C777 1.367 . S
C777 C776 1.367 . S
C777 C779 1.433 . S
C778 C774 1.350 . S
C778 C775 1.463 . S
C778 N782 1.427 . S
C779 H769 0.929 . S
C779 C777 1.433 . S
C779 N782 1.384 . S
C780 H771 0.929 . S
C780 C772 1.378 . S
C780 C775 1.350 . S
C781 H768 0.929 . S
C781 C773 1.433 . S
C781 N783 1.384 . S
N782 C778 1.427 . S
N782 C779 1.384 . S
N783 C775 1.427 . S
N783 C781 1.384 . S
H784 C790 0.930 . S
H785 C794 0.930 . S
H786 C799 0.929 1_556 S
H787 C797 0.929 . S
H788 C792 0.929 . S
H789 C798 0.929 . S
C790 H784 0.930 . S
C790 C791 1.367 . S
C790 C798 1.378 . S
C791 C790 1.367 . S
C791 C799 1.433 . S
C792 H788 0.929 . S
C792 C794 1.378 . S
C792 C796 1.350 . S
C793 C796 1.463 . S
C793 C798 1.350 . S
C793 N801 1.427 . S
C794 H785 0.930 . S
C794 C792 1.378 . S
C794 C795 1.367 . S
C795 C794 1.367 . S
C795 C797 1.433 . S
C796 C792 1.350 . S
C796 C793 1.463 . S
C796 N800 1.427 . S
C797 H787 0.929 . S
C797 C795 1.433 . S
C797 N800 1.384 . S
C798 H789 0.929 . S
C798 C790 1.378 . S
C798 C793 1.350 . S
C799 H786 0.929 1_554 S
C799 C791 1.433 . S
C799 N801 1.384 . S
N800 C796 1.427 . S
N800 C797 1.384 . S
N801 C793 1.427 . S
N801 C799 1.384 . S
H802 C808 0.930 . S
H803 C812 0.930 . S
H804 C817 0.929 . S
H805 C815 0.944 . S
H806 C810 0.929 . S
H807 C816 0.929 . S
C808 H802 0.930 . S
C808 C809 1.367 . S
C808 C816 1.378 . S
C809 C808 1.367 . S
C809 C817 1.433 . S
C810 H806 0.929 . S
C810 C812 1.378 . S
C810 C814 1.350 . S
C811 C814 1.463 . S
C811 C816 1.350 . S
C811 N819 1.427 . S
C812 H803 0.930 . S
C812 C810 1.378 . S
C812 C813 1.367 1_556 S
C813 C812 1.367 1_554 S
C813 C815 1.436 . S
C814 C810 1.350 . S
C814 C811 1.463 . S
C814 N818 1.427 . S
C815 H805 0.944 . S
C815 C813 1.436 . S
C815 N818 1.366 1_554 S
C816 H807 0.929 . S
C816 C808 1.378 . S
C816 C811 1.350 . S
C817 H804 0.929 . S
C817 C809 1.433 . S
C817 N819 1.384 . S
N818 C814 1.427 . S
N818 C815 1.366 1_556 S
N819 C811 1.427 . S
N819 C817 1.384 . S
H820 C826 0.930 . S
H821 C830 0.930 . S
H822 C835 0.929 . S
H823 C833 0.929 . S
H824 C828 0.929 . S
H825 C834 0.929 . S
C826 H820 0.930 . S
C826 C827 1.367 . S
C826 C834 1.378 . S
C827 C826 1.367 . S
C827 C835 1.433 . S
C828 H824 0.929 . S
C828 C830 1.378 . S
C828 C832 1.350 1_556 S
C829 C832 1.463 . S
C829 C834 1.350 . S
C829 N837 1.427 . S
C830 H821 0.930 . S
C830 C828 1.378 . S
C830 C831 1.367 . S
C831 C830 1.367 . S
C831 C833 1.433 1_556 S
C832 C828 1.350 1_554 S
C832 C829 1.463 . S
C832 N836 1.427 . S
C833 H823 0.929 . S
C833 C831 1.433 1_554 S
C833 N836 1.384 . S
C834 H825 0.929 . S
C834 C826 1.378 . S
C834 C829 1.350 . S
C835 H822 0.929 . S
C835 C827 1.433 . S
C835 N837 1.384 . S
N836 C832 1.427 . S
N836 C833 1.384 . S
N837 C829 1.427 . S
N837 C835 1.384 . S
H838 C844 0.930 . S
H839 C848 0.930 . S
H840 C853 0.929 . S
H841 C851 0.929 . S
H842 C846 0.929 . S
H843 C852 0.929 . S
C844 H838 0.930 . S
C844 C845 1.367 . S
C844 C852 1.378 . S
C845 C844 1.367 . S
C845 C853 1.433 . S
C846 H842 0.929 . S
C846 C848 1.378 . S
C846 C850 1.350 1_554 S
C847 C850 1.463 . S
C847 C852 1.350 . S
C847 N855 1.427 . S
C848 H839 0.930 . S
C848 C846 1.378 . S
C848 C849 1.367 . S
C849 C848 1.367 . S
C849 C851 1.433 1_554 S
C850 C846 1.350 1_556 S
C850 C847 1.463 . S
C850 N854 1.427 . S
C851 H841 0.929 . S
C851 C849 1.433 1_556 S
C851 N854 1.384 . S
C852 H843 0.929 . S
C852 C844 1.378 . S
C852 C847 1.350 . S
C853 H840 0.929 . S
C853 C845 1.433 . S
C853 N855 1.384 . S
N854 C850 1.427 . S
N854 C851 1.384 . S
N855 C847 1.427 . S
N855 C853 1.384 . S
H856 C862 0.930 . S
H857 C866 0.930 . S
H858 C871 0.929 . S
H859 C869 0.929 . S
H860 C864 0.929 . S
H861 C870 0.929 . S
C862 H856 0.930 . S
C862 C863 1.367 . S
C862 C870 1.378 . S
C863 C862 1.367 . S
C863 C871 1.433 . S
C864 H860 0.929 . S
C864 C866 1.378 . S
C864 C868 1.350 . S
C865 C868 1.463 . S
C865 C870 1.350 . S
C865 N873 1.427 . S
C866 H857 0.930 . S
C866 C864 1.378 . S
C866 C867 1.367 . S
C867 C866 1.367 . S
C867 C869 1.433 . S
C868 C864 1.350 . S
C868 C865 1.463 . S
C868 N872 1.427 . S
C869 H859 0.929 . S
C869 C867 1.433 . S
C869 N872 1.384 . S
C870 H861 0.929 . S
C870 C862 1.378 . S
C870 C865 1.350 . S
C871 H858 0.929 . S
C871 C863 1.433 . S
C871 N873 1.384 . S
N872 C868 1.427 . S
N872 C869 1.384 . S
N873 C865 1.427 . S
N873 C871 1.384 . S
H874 C880 0.930 . S
H875 C884 0.930 . S
H876 C889 0.929 . S
H877 C887 0.929 . S
H878 C882 0.929 . S
H879 C888 0.929 . S
C880 H874 0.930 . S
C880 C881 1.367 . S
C880 C888 1.378 . S
C881 C880 1.367 . S
C881 C889 1.433 . S
C882 H878 0.929 . S
C882 C884 1.378 . S
C882 C886 1.350 . S
C883 C886 1.463 . S
C883 C888 1.350 . S
C883 N891 1.427 . S
C884 H875 0.930 . S
C884 C882 1.378 . S
C884 C885 1.367 . S
C885 C884 1.367 . S
C885 C887 1.433 . S
C886 C882 1.350 . S
C886 C883 1.463 . S
C886 N890 1.427 . S
C887 H877 0.929 . S
C887 C885 1.433 . S
C887 N890 1.384 . S
C888 H879 0.929 . S
C888 C880 1.378 . S
C888 C883 1.350 . S
C889 H876 0.929 . S
C889 C881 1.433 . S
C889 N891 1.384 . S
N890 C886 1.427 . S
N890 C887 1.384 . S
N891 C883 1.427 . S
N891 C889 1.384 . S
H892 C898 0.930 . S
H893 C902 0.930 . S
H894 C907 0.929 . S
H895 C905 0.929 . S
H896 C900 0.929 . S
H897 C906 0.929 . S
C898 H892 0.930 . S
C898 C899 1.367 . S
C898 C906 1.378 . S
C899 C898 1.367 . S
C899 C907 1.433 . S
C900 H896 0.929 . S
C900 C902 1.378 . S
C900 C904 1.350 . S
C901 C904 1.463 . S
C901 C906 1.350 . S
C901 N909 1.427 . S
C902 H893 0.930 . S
C902 C900 1.378 . S
C902 C903 1.367 . S
C903 C902 1.367 . S
C903 C905 1.433 . S
C904 C900 1.350 . S
C904 C901 1.463 . S
C904 N908 1.427 . S
C905 H895 0.929 . S
C905 C903 1.433 . S
C905 N908 1.384 . S
C906 H897 0.929 . S
C906 C898 1.378 . S
C906 C901 1.350 . S
C907 H894 0.929 . S
C907 C899 1.433 . S
C907 N909 1.384 . S
N908 C904 1.427 . S
N908 C905 1.384 . S
N909 C901 1.427 . S
N909 C907 1.384 . S
H910 C916 0.930 . S
H911 C920 0.930 . S
H912 C925 0.929 . S
H913 C923 0.929 . S
H914 C918 0.929 . S
H915 C924 0.929 . S
C916 H910 0.930 . S
C916 C917 1.367 . S
C916 C924 1.378 . S
C917 C916 1.367 . S
C917 C925 1.433 . S
C918 H914 0.929 . S
C918 C920 1.378 . S
C918 C922 1.350 . S
C919 C922 1.463 . S
C919 C924 1.350 . S
C919 N927 1.427 . S
C920 H911 0.930 . S
C920 C918 1.378 . S
C920 C921 1.367 . S
C921 C920 1.367 . S
C921 C923 1.433 . S
C922 C918 1.350 . S
C922 C919 1.463 . S
C922 N926 1.427 . S
C923 H913 0.929 . S
C923 C921 1.433 . S
C923 N926 1.384 . S
C924 H915 0.929 . S
C924 C916 1.378 . S
C924 C919 1.350 . S
C925 H912 0.929 . S
C925 C917 1.433 . S
C925 N927 1.384 . S
N926 C922 1.427 . S
N926 C923 1.384 . S
N927 C919 1.427 . S
N927 C925 1.384 . S
H928 C934 0.930 . S
H929 C938 0.930 . S
H930 C943 0.929 . S
H931 C941 0.929 . S
H932 C936 0.929 . S
H933 C942 0.929 . S
C934 H928 0.930 . S
C934 C935 1.367 . S
C934 C942 1.378 . S
C935 C934 1.367 . S
C935 C943 1.433 . S
C936 H932 0.929 . S
C936 C938 1.378 . S
C936 C940 1.350 . S
C937 C940 1.463 . S
C937 C942 1.350 . S
C937 N945 1.427 . S
C938 H929 0.930 . S
C938 C936 1.378 . S
C938 C939 1.367 . S
C939 C938 1.367 . S
C939 C941 1.433 . S
C940 C936 1.350 . S
C940 C937 1.463 . S
C940 N944 1.427 . S
C941 H931 0.929 . S
C941 C939 1.433 . S
C941 N944 1.384 . S
C942 H933 0.929 . S
C942 C934 1.378 . S
C942 C937 1.350 . S
C943 H930 0.929 . S
C943 C935 1.433 . S
C943 N945 1.384 . S
N944 C940 1.427 . S
N944 C941 1.384 . S
N945 C937 1.427 . S
N945 C943 1.384 . S
H946 C952 0.930 . S
H947 C956 0.930 . S
H948 C961 0.929 . S
H949 C959 0.929 . S
H950 C954 0.929 . S
H951 C960 0.929 . S
C952 H946 0.930 . S
C952 C953 1.367 . S
C952 C960 1.378 . S
C953 C952 1.367 . S
C953 C961 1.433 . S
C954 H950 0.929 . S
C954 C956 1.378 . S
C954 C958 1.350 . S
C955 C958 1.463 . S
C955 C960 1.350 . S
C955 N963 1.427 . S
C956 H947 0.930 . S
C956 C954 1.378 . S
C956 C957 1.367 . S
C957 C956 1.367 . S
C957 C959 1.433 . S
C958 C954 1.350 . S
C958 C955 1.463 . S
C958 N962 1.427 . S
C959 H949 0.929 . S
C959 C957 1.433 . S
C959 N962 1.384 . S
C960 H951 0.929 . S
C960 C952 1.378 . S
C960 C955 1.350 . S
C961 H948 0.929 . S
C961 C953 1.433 . S
C961 N963 1.384 . S
N962 C958 1.427 . S
N962 C959 1.384 . S
N963 C955 1.427 . S
N963 C961 1.384 . S
H964 C970 0.930 . S
H965 C974 0.930 . S
H966 C979 0.929 . S
H967 C977 0.929 . S
H968 C972 0.929 . S
H969 C978 0.929 . S
C970 H964 0.930 . S
C970 C971 1.367 . S
C970 C978 1.378 . S
C971 C970 1.367 . S
C971 C979 1.433 . S
C972 H968 0.929 . S
C972 C974 1.378 . S
C972 C976 1.350 . S
C973 C976 1.463 . S
C973 C978 1.350 . S
C973 N981 1.427 . S
C974 H965 0.930 . S
C974 C972 1.378 . S
C974 C975 1.367 . S
C975 C974 1.367 . S
C975 C977 1.433 . S
C976 C972 1.350 . S
C976 C973 1.463 . S
C976 N980 1.427 . S
C977 H967 0.929 . S
C977 C975 1.433 . S
C977 N980 1.384 . S
C978 H969 0.929 . S
C978 C970 1.378 . S
C978 C973 1.350 . S
C979 H966 0.929 . S
C979 C971 1.433 . S
C979 N981 1.384 . S
N980 C976 1.427 . S
N980 C977 1.384 . S
N981 C973 1.427 . S
N981 C979 1.384 . S
H982 C988 0.930 . S
H983 C992 0.930 . S
H984 C997 0.929 . S
H985 C995 0.929 . S
H986 C990 0.929 . S
H987 C996 0.929 . S
C988 H982 0.930 . S
C988 C989 1.367 . S
C988 C996 1.378 . S
C989 C988 1.367 . S
C989 C997 1.433 1_455 S
C990 H986 0.929 . S
C990 C992 1.378 . S
C990 C994 1.350 1_655 S
C991 C994 1.463 . S
C991 C996 1.350 . S
C991 N999 1.427 1_455 S
C992 H983 0.930 . S
C992 C990 1.378 . S
C992 C993 1.367 1_655 S
C993 C992 1.367 1_455 S
C993 C995 1.433 . S
C994 C990 1.350 1_455 S
C994 C991 1.463 . S
C994 N998 1.427 . S
C995 H985 0.929 . S
C995 C993 1.433 . S
C995 N998 1.384 . S
C996 H987 0.929 . S
C996 C988 1.378 . S
C996 C991 1.350 . S
C997 H984 0.929 . S
C997 C989 1.433 1_655 S
C997 N999 1.384 . S
N998 C994 1.427 . S
N998 C995 1.384 . S
N999 C991 1.427 1_655 S
N999 C997 1.384 . S
H1000 C1006 0.930 . S
H1001 C1010 0.930 1_545 S
H1002 C1015 0.929 1_545 S
H1003 C1013 0.929 . S
H1004 C1008 0.929 1_545 S
H1005 C1014 0.929 . S
C1006 H1000 0.930 . S
C1006 C1007 1.367 . S
C1006 C1014 1.378 . S
C1007 C1006 1.367 . S
C1007 C1015 1.433 . S
C1008 H1004 0.929 1_565 S
C1008 C1010 1.378 . S
C1008 C1012 1.350 . S
C1009 C1012 1.463 . S
C1009 C1014 1.350 . S
C1009 N1017 1.427 . S
C1010 H1001 0.930 1_565 S
C1010 C1008 1.378 . S
C1010 C1011 1.367 . S
C1011 C1010 1.367 . S
C1011 C1013 1.433 . S
C1012 C1008 1.350 . S
C1012 C1009 1.463 . S
C1012 N1016 1.427 . S
C1013 H1003 0.929 . S
C1013 C1011 1.433 . S
C1013 N1016 1.384 . S
C1014 H1005 0.929 . S
C1014 C1006 1.378 . S
C1014 C1009 1.350 . S
C1015 H1002 0.929 1_565 S
C1015 C1007 1.433 . S
C1015 N1017 1.384 . S
N1016 C1012 1.427 . S
N1016 C1013 1.384 . S
N1017 C1009 1.427 . S
N1017 C1015 1.384 . S
H1018 C1024 0.930 . S
H1019 C1028 0.930 . S
H1020 C1033 0.929 . S
H1021 C1031 0.929 . S
H1022 C1026 0.929 . S
H1023 C1032 0.929 . S
C1024 H1018 0.930 . S
C1024 C1025 1.367 . S
C1024 C1032 1.378 . S
C1025 C1024 1.367 . S
C1025 C1033 1.433 . S
C1026 H1022 0.929 . S
C1026 C1028 1.378 . S
C1026 C1030 1.350 . S
C1027 C1030 1.463 . S
C1027 C1032 1.350 . S
C1027 N1035 1.427 . S
C1028 H1019 0.930 . S
C1028 C1026 1.378 . S
C1028 C1029 1.367 . S
C1029 C1028 1.367 . S
C1029 C1031 1.433 . S
C1030 C1026 1.350 . S
C1030 C1027 1.463 . S
C1030 N1034 1.427 . S
C1031 H1021 0.929 . S
C1031 C1029 1.433 . S
C1031 N1034 1.384 . S
C1032 H1023 0.929 . S
C1032 C1024 1.378 . S
C1032 C1027 1.350 . S
C1033 H1020 0.929 . S
C1033 C1025 1.433 . S
C1033 N1035 1.384 . S
N1034 C1030 1.427 . S
N1034 C1031 1.384 . S
N1035 C1027 1.427 . S
N1035 C1033 1.384 . S
H1036 C1042 0.930 . S
H1037 C1046 0.930 . S
H1038 C1051 0.929 . S
H1039 C1049 0.929 . S
H1040 C1044 0.929 . S
H1041 C1050 0.929 . S
C1042 H1036 0.930 . S
C1042 C1043 1.367 . S
C1042 C1050 1.378 . S
C1043 C1042 1.367 . S
C1043 C1051 1.433 . S
C1044 H1040 0.929 . S
C1044 C1046 1.378 . S
C1044 C1048 1.350 . S
C1045 C1048 1.463 . S
C1045 C1050 1.350 . S
C1045 N1053 1.427 . S
C1046 H1037 0.930 . S
C1046 C1044 1.378 . S
C1046 C1047 1.367 . S
C1047 C1046 1.367 . S
C1047 C1049 1.433 . S
C1048 C1044 1.350 . S
C1048 C1045 1.463 . S
C1048 N1052 1.427 . S
C1049 H1039 0.929 . S
C1049 C1047 1.433 . S
C1049 N1052 1.384 . S
C1050 H1041 0.929 . S
C1050 C1042 1.378 . S
C1050 C1045 1.350 . S
C1051 H1038 0.929 . S
C1051 C1043 1.433 . S
C1051 N1053 1.384 . S
N1052 C1048 1.427 . S
N1052 C1049 1.384 . S
N1053 C1045 1.427 . S
N1053 C1051 1.384 . S
H1054 C1060 0.930 . S
H1055 C1064 0.930 . S
H1056 C1069 0.929 . S
H1057 C1067 0.929 . S
H1058 C1062 0.929 . S
H1059 C1068 0.929 . S
C1060 H1054 0.930 . S
C1060 C1061 1.367 . S
C1060 C1068 1.378 . S
C1061 C1060 1.367 . S
C1061 C1069 1.433 . S
C1062 H1058 0.929 . S
C1062 C1064 1.378 . S
C1062 C1066 1.350 . S
C1063 C1066 1.463 . S
C1063 C1068 1.350 . S
C1063 N1071 1.427 . S
C1064 H1055 0.930 . S
C1064 C1062 1.378 . S
C1064 C1065 1.367 . S
C1065 C1064 1.367 . S
C1065 C1067 1.433 . S
C1066 C1062 1.350 . S
C1066 C1063 1.463 . S
C1066 N1070 1.427 . S
C1067 H1057 0.929 . S
C1067 C1065 1.433 . S
C1067 N1070 1.384 . S
C1068 H1059 0.929 . S
C1068 C1060 1.378 . S
C1068 C1063 1.350 . S
C1069 H1056 0.929 . S
C1069 C1061 1.433 . S
C1069 N1071 1.384 . S
N1070 C1066 1.427 . S
N1070 C1067 1.384 . S
N1071 C1063 1.427 . S
N1071 C1069 1.384 . S
C647 C21 0.993 . S
C651 C301 1.191 1_545 S
C665 C61 1.265 . S
C669 C181 1.061 . S
C683 C101 1.259 . S
C687 C221 1.301 . S
C701 C261 1.204 . S
C705 C141 1.241 1_545 S
C719 C621 1.116 . S
C723 C341 1.278 . S
C737 C501 1.271 . S
C741 C381 1.064 . S
C755 C421 1.176 1_655 S
C759 C541 1.143 . S
C773 C461 1.171 . S
C777 C581 1.199 1_655 S
C791 C335 2.824 1_554 S
C795 C2 2.642 . S
C809 C375 2.647 . S
C813 C42 2.701 . S
C827 C95 2.669 . S
C831 C402 2.852 . S
C845 C442 2.856 . S
C849 C122 2.792 . S
C863 C495 2.719 . S
C867 C162 2.524 . S
C881 C522 2.859 . S
C885 C202 2.800 . S
C899 C562 2.935 . S
C903 C255 2.759 . S
C917 C282 2.696 . S
C921 C615 2.648 . S
C935 C242 2.737 . S
C939 C15 2.656 . S
C953 C295 1.996 . S
C957 C55 1.997 . S
C971 C82 2.712 . S
C975 C175 2.630 . S
C989 C135 2.081 . S
C993 C215 2.081 . S
C1007 C575 2.064 . S
C1011 C322 2.042 . S
C1025 C602 2.622 . S
C1029 C362 2.595 . S
C1043 C415 1.970 . S
C1047 C482 1.953 . S
C1061 C455 2.692 . S
C1065 C535 2.676 . S
