# Generated by pormake.
# Topology umo, (4)-cn, num edge types: 1
# Building blocks:
#     Node 0, Type 0, BuildingBlock: KOZSID_clean_sbu_0, # of connection points: 4
#     Node 1, Type 0, BuildingBlock: KOZSID_clean_sbu_0, # of connection points: 4
#     Node 2, Type 0, BuildingBlock: KOZSID_clean_sbu_0, # of connection points: 4
#     Node 3, Type 0, BuildingBlock: KOZSID_clean_sbu_0, # of connection points: 4
#     Node 4, Type 0, BuildingBlock: KOZSID_clean_sbu_0, # of connection points: 4
#     Node 5, Type 0, BuildingBlock: KOZSID_clean_sbu_0, # of connection points: 4
#     Node 6, Type 0, BuildingBlock: KOZSID_clean_sbu_0, # of connection points: 4
#     Node 7, Type 0, BuildingBlock: KOZSID_clean_sbu_0, # of connection points: 4
#     Node 8, Type 0, BuildingBlock: KOZSID_clean_sbu_0, # of connection points: 4
#     Node 9, Type 0, BuildingBlock: KOZSID_clean_sbu_0, # of connection points: 4
#     Node 10, Type 0, BuildingBlock: KOZSID_clean_sbu_0, # of connection points: 4
#     Node 11, Type 0, BuildingBlock: KOZSID_clean_sbu_0, # of connection points: 4
#     Edge 12, Type (0, 0), BuildingBlock: OJICUG_clean_linker_0, # of connection points: 2
#     Edge 13, Type (0, 0), BuildingBlock: OJICUG_clean_linker_0, # of connection points: 2
#     Edge 14, Type (0, 0), BuildingBlock: OJICUG_clean_linker_0, # of connection points: 2
#     Edge 15, Type (0, 0), BuildingBlock: OJICUG_clean_linker_0, # of connection points: 2
#     Edge 16, Type (0, 0), BuildingBlock: OJICUG_clean_linker_0, # of connection points: 2
#     Edge 17, Type (0, 0), BuildingBlock: OJICUG_clean_linker_0, # of connection points: 2
#     Edge 18, Type (0, 0), BuildingBlock: OJICUG_clean_linker_0, # of connection points: 2
#     Edge 19, Type (0, 0), BuildingBlock: OJICUG_clean_linker_0, # of connection points: 2
#     Edge 20, Type (0, 0), BuildingBlock: OJICUG_clean_linker_0, # of connection points: 2
#     Edge 21, Type (0, 0), BuildingBlock: OJICUG_clean_linker_0, # of connection points: 2
#     Edge 22, Type (0, 0), BuildingBlock: OJICUG_clean_linker_0, # of connection points: 2
#     Edge 23, Type (0, 0), BuildingBlock: OJICUG_clean_linker_0, # of connection points: 2
#     Edge 24, Type (0, 0), BuildingBlock: OJICUG_clean_linker_0, # of connection points: 2
#     Edge 25, Type (0, 0), BuildingBlock: OJICUG_clean_linker_0, # of connection points: 2
#     Edge 26, Type (0, 0), BuildingBlock: OJICUG_clean_linker_0, # of connection points: 2
#     Edge 27, Type (0, 0), BuildingBlock: OJICUG_clean_linker_0, # of connection points: 2
#     Edge 28, Type (0, 0), BuildingBlock: OJICUG_clean_linker_0, # of connection points: 2
#     Edge 29, Type (0, 0), BuildingBlock: OJICUG_clean_linker_0, # of connection points: 2
#     Edge 30, Type (0, 0), BuildingBlock: OJICUG_clean_linker_0, # of connection points: 2
#     Edge 31, Type (0, 0), BuildingBlock: OJICUG_clean_linker_0, # of connection points: 2
#     Edge 32, Type (0, 0), BuildingBlock: OJICUG_clean_linker_0, # of connection points: 2
#     Edge 33, Type (0, 0), BuildingBlock: OJICUG_clean_linker_0, # of connection points: 2
#     Edge 34, Type (0, 0), BuildingBlock: OJICUG_clean_linker_0, # of connection points: 2
#     Edge 35, Type (0, 0), BuildingBlock: OJICUG_clean_linker_0, # of connection points: 2
# Relax obj value: 0.198
# Max RMSD: 0.242
# Mean RMSD: 0.242
data_MOF--net-umo--node1-KOZSID_clean_sbu_0--edge1-OJICUG_clean_linker_0
_symmetry_space_group_name_H-M    P1
_symmetry_Int_Tables_number       1
_symmetry_cell_setting            triclinic
loop_
_symmetry_equiv_pos_as_xyz
'x, y, z'
_cell_length_a     50.4335
_cell_length_b     50.52701
_cell_length_c     28.879257
_cell_angle_alpha  90.054854
_cell_angle_beta   89.997478
_cell_angle_gamma 119.99812
loop_
_atom_site_label
_atom_site_type_symbol
_atom_site_fract_x
_atom_site_fract_y
_atom_site_fract_z
_atom_type_partial_charge
C0 C 0.22247 0.50692 0.35288 0.0
C1 C 0.23103 0.48527 0.36278 0.0
C2 C 0.21581 0.47043 0.40224 0.0
C3 C 0.19953 0.48425 0.41532 0.0
N4 N 0.20368 0.5069 0.38639 0.0
Co5 Co 0.18921 0.53627 0.39653 0.0
N6 N 0.18408 0.52739 0.46356 0.0
C7 C 0.18058 0.50192 0.48394 0.0
C8 C 0.17662 0.50177 0.53098 0.0
C9 C 0.17749 0.52877 0.54061 0.0
C10 C 0.18204 0.54392 0.49867 0.0
N11 N 0.17493 0.56577 0.40704 0.0
C12 C 0.17392 0.57938 0.447 0.0
C13 C 0.16228 0.59868 0.43898 0.0
C14 C 0.15564 0.5967 0.39235 0.0
C15 C 0.16359 0.57636 0.37446 0.0
N16 N 0.1943 0.54457 0.32946 0.0
C17 C 0.18065 0.55686 0.30449 0.0
C18 C 0.18939 0.5605 0.25873 0.0
C19 C 0.20973 0.54987 0.2552 0.0
C20 C 0.21248 0.54047 0.29917 0.0
N21 N 0.14606 0.50367 0.38574 0.0
C22 C 0.08342 0.464 0.36227 0.0
C23 C 0.10738 0.46464 0.33619 0.0
C24 C 0.13828 0.48441 0.34846 0.0
C25 C 0.092 0.48295 0.40166 0.0
C26 C 0.12306 0.50225 0.41281 0.0
N27 N 0.23182 0.56959 0.40608 0.0
C28 C 0.27187 0.62037 0.38532 0.0
C29 C 0.29276 0.61818 0.41462 0.0
C30 C 0.28228 0.59108 0.44032 0.0
C31 C 0.25182 0.5669 0.43514 0.0
C32 C 0.24176 0.59627 0.38207 0.0
H33 H 0.24442 0.54608 0.45447 0.0
H34 H 0.22648 0.59939 0.35972 0.0
H35 H 0.15595 0.48478 0.32684 0.0
H36 H 0.1284 0.51695 0.44258 0.0
C37 C 0.18727 0.48208 0.45953 0.0
C38 C 0.2312 0.52638 0.31102 0.0
C39 C 0.18205 0.5727 0.49286 0.0
C40 C 0.16586 0.57068 0.32716 0.0
H41 H 0.24727 0.48095 0.34488 0.0
H42 H 0.21845 0.45342 0.42121 0.0
H43 H 0.17468 0.48475 0.55561 0.0
H44 H 0.17493 0.53633 0.57455 0.0
H45 H 0.15885 0.61258 0.46412 0.0
H46 H 0.14717 0.60949 0.37356 0.0
H47 H 0.18316 0.57119 0.23169 0.0
H48 H 0.2214 0.54939 0.22404 0.0
H49 H 0.10246 0.45014 0.30609 0.0
H50 H 0.07492 0.48391 0.42312 0.0
H51 H 0.27858 0.64099 0.36559 0.0
H52 H 0.29757 0.58845 0.46371 0.0
C53 C 0.72343 0.21296 0.52605 0.0
C54 C 0.75304 0.22044 0.53852 0.0
C55 C 0.75075 0.20455 0.57816 0.0
C56 C 0.72018 0.18899 0.58879 0.0
N57 N 0.70323 0.19422 0.5581 0.0
Co58 Co 0.6595 0.18144 0.56434 0.0
N59 N 0.66099 0.17634 0.6317 0.0
C60 C 0.68143 0.17145 0.65442 0.0
C61 C 0.67596 0.16765 0.70117 0.0
C62 C 0.65039 0.17013 0.70801 0.0
C63 C 0.64176 0.1754 0.66478 0.0
N64 N 0.61586 0.16894 0.57082 0.0
C65 C 0.60048 0.1691 0.60914 0.0
C66 C 0.56996 0.15853 0.59877 0.0
C67 C 0.56641 0.1514 0.5522 0.0
C68 C 0.5949 0.158 0.53675 0.0
N69 N 0.65865 0.18632 0.49689 0.0
C70 C 0.6336 0.17325 0.46986 0.0
C71 C 0.64055 0.18211 0.42434 0.0
C72 C 0.67175 0.20195 0.42329 0.0
C73 C 0.68217 0.20428 0.46839 0.0
N74 N 0.64753 0.13787 0.55538 0.0
C75 C 0.62145 0.07509 0.53344 0.0
C76 C 0.64689 0.09751 0.50895 0.0
C77 C 0.65947 0.12875 0.52026 0.0
C78 C 0.6106 0.08477 0.57062 0.0
C79 C 0.62414 0.11593 0.58142 0.0
N80 N 0.66988 0.22445 0.57246 0.0
C81 C 0.6603 0.26495 0.54973 0.0
C82 C 0.68142 0.28498 0.58207 0.0
C83 C 0.6967 0.27395 0.60996 0.0
C84 C 0.69089 0.24371 0.60419 0.0
C85 C 0.65462 0.23504 0.54594 0.0
H86 H 0.70315 0.23581 0.62549 0.0
H87 H 0.63744 0.22035 0.52149 0.0
H88 H 0.67805 0.14561 0.49945 0.0
H89 H 0.61457 0.12227 0.6098 0.0
C90 C 0.70837 0.17682 0.63246 0.0
C91 C 0.71443 0.22267 0.48337 0.0
C92 C 0.61422 0.17727 0.65567 0.0
C93 C 0.60421 0.15949 0.49021 0.0
H94 H 0.77445 0.23646 0.52243 0.0
H95 H 0.76947 0.2064 0.59893 0.0
H96 H 0.68966 0.16482 0.72742 0.0
H97 H 0.63936 0.16816 0.74099 0.0
H98 H 0.55219 0.15611 0.62232 0.0
H99 H 0.5458 0.14351 0.53182 0.0
H100 H 0.62467 0.17646 0.39583 0.0
H101 H 0.68517 0.21369 0.39306 0.0
H102 H 0.6561 0.09108 0.47996 0.0
H103 H 0.59125 0.06831 0.59083 0.0
H104 H 0.64751 0.27213 0.52804 0.0
H105 H 0.7132 0.28864 0.63559 0.0
C106 C 0.51772 0.71164 0.6559 0.0
C107 C 0.54199 0.74132 0.65192 0.0
C108 C 0.56088 0.74609 0.68921 0.0
C109 C 0.54715 0.71906 0.71348 0.0
N110 N 0.52108 0.69786 0.6934 0.0
Co111 Co 0.49438 0.65582 0.71465 0.0
N112 N 0.50935 0.66732 0.77867 0.0
C113 C 0.53604 0.69183 0.79142 0.0
C114 C 0.54048 0.69346 0.8385 0.0
C115 C 0.5151 0.66832 0.85616 0.0
C116 C 0.49659 0.6527 0.81866 0.0
N117 N 0.4679 0.61359 0.7363 0.0
C118 C 0.45857 0.60329 0.77992 0.0
C119 C 0.44019 0.57173 0.78001 0.0
C120 C 0.43831 0.56227 0.73468 0.0
C121 C 0.45564 0.58849 0.70941 0.0
N122 N 0.47994 0.64523 0.65015 0.0
C123 C 0.46613 0.61707 0.63157 0.0
C124 C 0.45506 0.61691 0.58792 0.0
C125 C 0.46235 0.64667 0.57919 0.0
C126 C 0.47778 0.66362 0.61796 0.0
N127 N 0.52721 0.64592 0.70189 0.0
C128 C 0.56683 0.62304 0.67759 0.0
C129 C 0.56261 0.64292 0.64816 0.0
C130 C 0.54281 0.65391 0.66076 0.0
C131 C 0.5515 0.61622 0.72049 0.0
C132 C 0.5323 0.628 0.73203 0.0
N133 N 0.4605 0.66419 0.72613 0.0
C134 C 0.40729 0.64772 0.71232 0.0
C135 C 0.40924 0.6727 0.73645 0.0
C136 C 0.43829 0.69415 0.75436 0.0
C137 C 0.4637 0.68956 0.74856 0.0
C138 C 0.43239 0.64351 0.70884 0.0
H139 H 0.48577 0.7063 0.76225 0.0
H140 H 0.42878 0.62326 0.69126 0.0
H141 H 0.53943 0.66821 0.63648 0.0
H142 H 0.52056 0.62151 0.76485 0.0
C143 C 0.55368 0.71491 0.75927 0.0
C144 C 0.49135 0.69702 0.62463 0.0
C145 C 0.46853 0.6229 0.82149 0.0
C146 C 0.45625 0.59134 0.66066 0.0
H147 H 0.54518 0.7579 0.62559 0.0
H148 H 0.58104 0.76731 0.69892 0.0
H149 H 0.55937 0.71126 0.85785 0.0
H150 H 0.51093 0.662 0.89234 0.0
H151 H 0.42937 0.55715 0.80962 0.0
H152 H 0.42485 0.53919 0.72162 0.0
H153 H 0.44102 0.59714 0.56654 0.0
H154 H 0.45603 0.65433 0.54845 0.0
H155 H 0.57426 0.6499 0.61519 0.0
H156 H 0.55325 0.60089 0.74479 0.0
H157 H 0.38625 0.63098 0.6958 0.0
H158 H 0.44131 0.71398 0.77325 0.0
C159 C 0.81607 0.52331 0.85975 0.0
C160 C 0.80648 0.54417 0.86987 0.0
C161 C 0.82097 0.55882 0.90986 0.0
C162 C 0.83782 0.54564 0.92299 0.0
N163 N 0.83475 0.52361 0.89352 0.0
Co164 Co 0.84999 0.49489 0.90307 0.0
N165 N 0.85308 0.50231 0.97044 0.0
C166 C 0.85551 0.52713 0.99174 0.0
C167 C 0.85844 0.52646 0.03887 0.0
C168 C 0.85809 0.49966 0.04762 0.0
C169 C 0.85495 0.48549 0.00503 0.0
N170 N 0.86511 0.4661 0.91297 0.0
C171 C 0.86583 0.45208 0.95253 0.0
C172 C 0.87877 0.4339 0.94449 0.0
C173 C 0.88655 0.43706 0.8982 0.0
C174 C 0.87796 0.45697 0.88055 0.0
N175 N 0.84703 0.48837 0.83564 0.0
C176 C 0.86206 0.47757 0.81064 0.0
C177 C 0.85402 0.4745 0.76456 0.0
C178 C 0.83267 0.48389 0.76098 0.0
C179 C 0.82869 0.49202 0.80523 0.0
N180 N 0.89312 0.52834 0.8954 0.0
C181 C 0.95626 0.56591 0.87284 0.0
C182 C 0.933 0.56651 0.84643 0.0
C183 C 0.90183 0.54776 0.85827 0.0
C184 C 0.94673 0.54729 0.91255 0.0
C185 C 0.91549 0.52917 0.92334 0.0
N186 N 0.80743 0.46025 0.90924 0.0
C187 C 0.77023 0.40943 0.88366 0.0
C188 C 0.74792 0.40783 0.91431 0.0
C189 C 0.75605 0.43408 0.94156 0.0
C190 C 0.78584 0.46012 0.93825 0.0
C191 C 0.79947 0.43493 0.88266 0.0
H192 H 0.79156 0.47991 0.95945 0.0
H193 H 0.81575 0.43381 0.85997 0.0
H194 H 0.88467 0.54796 0.83609 0.0
H195 H 0.90947 0.51445 0.95314 0.0
C196 C 0.8491 0.54725 0.96771 0.0
C197 C 0.80839 0.50418 0.81769 0.0
C198 C 0.85642 0.45759 0.99818 0.0
C199 C 0.87693 0.46382 0.83336 0.0
H200 H 0.78994 0.54801 0.85193 0.0
H201 H 0.81735 0.5751 0.92921 0.0
H202 H 0.85946 0.54283 0.06405 0.0
H203 H 0.86022 0.49167 0.08142 0.0
H204 H 0.88242 0.42008 0.96946 0.0
H205 H 0.89635 0.42544 0.87948 0.0
H206 H 0.86123 0.46475 0.73733 0.0
H207 H 0.82104 0.48424 0.72969 0.0
H208 H 0.93864 0.58096 0.81619 0.0
H209 H 0.96311 0.54539 0.93442 0.0
H210 H 0.76549 0.39085 0.86024 0.0
H211 H 0.73987 0.43435 0.96591 0.0
C212 C 0.32534 0.81158 0.99108 0.0
C213 C 0.29643 0.80819 0.9861 0.0
C214 C 0.2924 0.82292 0.02324 0.0
C215 C 0.31908 0.83455 0.04841 0.0
N216 N 0.3394 0.82811 0.029 0.0
Co217 Co 0.38069 0.84074 0.05178 0.0
N218 N 0.36888 0.8445 0.11548 0.0
C219 C 0.34511 0.84816 0.12753 0.0
C220 C 0.34299 0.85065 0.17458 0.0
C221 C 0.36707 0.84869 0.19297 0.0
C222 C 0.38261 0.84517 0.15591 0.0
N223 N 0.42228 0.85412 0.07469 0.0
C224 C 0.43189 0.8546 0.1186 0.0
C225 C 0.4633 0.86628 0.11962 0.0
C226 C 0.47342 0.87341 0.07455 0.0
C227 C 0.44772 0.86577 0.04852 0.0
N228 N 0.39141 0.8361 0.9877 0.0
C229 C 0.4198 0.84869 0.97004 0.0
C230 C 0.41968 0.83734 0.92664 0.0
C231 C 0.38946 0.81639 0.91706 0.0
C232 C 0.37256 0.8162 0.95508 0.0
N233 N 0.39339 0.88428 0.03981 0.0
C234 C 0.41798 0.94735 0.02009 0.0
C235 C 0.4013 0.92476 0.98669 0.0
C236 C 0.38886 0.89351 0.99739 0.0
C237 C 0.42119 0.93741 0.06399 0.0
C238 C 0.40915 0.90609 0.07293 0.0
N239 N 0.36931 0.79768 0.06294 0.0
C240 C 0.38159 0.75772 0.05032 0.0
C241 C 0.35393 0.73585 0.06993 0.0
C242 C 0.33425 0.74574 0.08735 0.0
C243 C 0.34223 0.77677 0.08305 0.0
C244 C 0.38897 0.78821 0.0478 0.0
H245 H 0.32646 0.78381 0.09537 0.0
H246 H 0.41061 0.80405 0.03249 0.0
H247 H 0.37619 0.87682 0.97085 0.0
H248 H 0.41344 0.89967 0.10648 0.0
C249 C 0.32306 0.84465 0.09454 0.0
C250 C 0.33882 0.7983 0.9605 0.0
C251 C 0.41186 0.84567 0.15959 0.0
C252 C 0.44538 0.86341 -0.00023 0.0
H253 H 0.27979 0.79566 0.9593 0.0
H254 H 0.27174 0.82323 0.03233 0.0
H255 H 0.32559 0.85278 0.19339 0.0
H256 H 0.37284 0.85026 0.22934 0.0
H257 H 0.47737 0.8693 0.14967 0.0
H258 H 0.49653 0.88186 0.06214 0.0
H259 H 0.43939 0.84174 0.906 0.0
H260 H 0.38141 0.80245 0.88628 0.0
H261 H 0.3979 0.93118 0.95238 0.0
H262 H 0.43401 0.95384 0.0909 0.0
H263 H 0.39776 0.75133 0.03725 0.0
H264 H 0.31268 0.72958 0.1032 0.0
C265 C 0.52598 0.31256 0.15201 0.0
C266 C 0.50382 0.2821 0.1464 0.0
C267 C 0.48417 0.2748 0.18331 0.0
C268 C 0.49535 0.30123 0.20891 0.0
N269 N 0.52041 0.32449 0.18983 0.0
Co270 Co 0.54397 0.36648 0.21348 0.0
N271 N 0.52912 0.35307 0.27724 0.0
C272 C 0.50647 0.32501 0.28943 0.0
C273 C 0.50784 0.3189 0.33523 0.0
C274 C 0.5322 0.34484 0.35279 0.0
C275 C 0.54337 0.36647 0.31745 0.0
N276 N 0.56653 0.40879 0.2365 0.0
C277 C 0.56996 0.41922 0.28063 0.0
C278 C 0.57799 0.44992 0.28036 0.0
C279 C 0.58144 0.45905 0.23489 0.0
C280 C 0.57419 0.43336 0.20956 0.0
N281 N 0.55939 0.37889 0.14981 0.0
C282 C 0.57112 0.407 0.13193 0.0
C283 C 0.58389 0.40903 0.08897 0.0
C284 C 0.57987 0.38038 0.07995 0.0
C285 C 0.56466 0.36234 0.11788 0.0
N286 N 0.50885 0.37303 0.20058 0.0
C287 C 0.46962 0.39652 0.17684 0.0
C288 C 0.47664 0.37973 0.14486 0.0
C289 C 0.49612 0.36827 0.15732 0.0
C290 C 0.48119 0.39904 0.22199 0.0
C291 C 0.50008 0.38686 0.23318 0.0
N292 N 0.57992 0.36142 0.22551 0.0
C293 C 0.63431 0.38177 0.21556 0.0
C294 C 0.63275 0.35523 0.23365 0.0
C295 C 0.60361 0.33167 0.2477 0.0
C296 C 0.57757 0.33518 0.24328 0.0
C297 C 0.60815 0.38455 0.21251 0.0
H298 H 0.55552 0.31657 0.25367 0.0
H299 H 0.61079 0.4054 0.19817 0.0
H300 H 0.50189 0.35662 0.13126 0.0
H301 H 0.50901 0.39035 0.26791 0.0
C302 C 0.48982 0.30259 0.25599 0.0
C303 C 0.55337 0.32931 0.12343 0.0
C304 C 0.56407 0.40009 0.32288 0.0
C305 C 0.57596 0.43147 0.16094 0.0
H306 H 0.50296 0.26653 0.11993 0.0
H307 H 0.46584 0.25226 0.1926 0.0
H308 H 0.49464 0.29722 0.35277 0.0
H309 H 0.54119 0.34637 0.38716 0.0
H310 H 0.58046 0.46426 0.30976 0.0
H311 H 0.58808 0.48163 0.22198 0.0
H312 H 0.59648 0.42935 0.06806 0.0
H313 H 0.58773 0.37397 0.04944 0.0
H314 H 0.46769 0.37578 0.10996 0.0
H315 H 0.47705 0.4116 0.2486 0.0
H316 H 0.65564 0.40048 0.2028 0.0
H317 H 0.60086 0.31072 0.26227 0.0
C318 C 0.5118 0.80949 0.50541 0.0
C319 C 0.53748 0.80619 0.50776 0.0
C320 C 0.55533 0.82143 0.47009 0.0
C321 C 0.53964 0.83325 0.44724 0.0
N322 N 0.51333 0.82644 0.46858 0.0
Co323 Co 0.48393 0.83898 0.44937 0.0
N324 N 0.49802 0.84363 0.3847 0.0
C325 C 0.52535 0.84794 0.37058 0.0
C326 C 0.52897 0.85123 0.32342 0.0
C327 C 0.50238 0.84912 0.30718 0.0
C328 C 0.48397 0.84464 0.34555 0.0
N329 N 0.45468 0.85193 0.42991 0.0
C330 C 0.4443 0.85252 0.38691 0.0
C331 C 0.42411 0.86363 0.38849 0.0
C332 C 0.42222 0.87036 0.43423 0.0
C333 C 0.44131 0.86304 0.45804 0.0
N334 N 0.47036 0.83389 0.51446 0.0
C335 C 0.45495 0.84621 0.53436 0.0
C336 C 0.44495 0.83459 0.57802 0.0
C337 C 0.45458 0.81373 0.5854 0.0
C338 C 0.47032 0.8139 0.54588 0.0
N339 N 0.51479 0.88244 0.4615 0.0
C340 C 0.55314 0.94522 0.48285 0.0
C341 C 0.55136 0.92225 0.51235 0.0
C342 C 0.53192 0.89112 0.5013 0.0
C343 C 0.53615 0.93586 0.44166 0.0
C344 C 0.51761 0.90467 0.43141 0.0
N345 N 0.45226 0.79594 0.4381 0.0
C346 C 0.40051 0.7554 0.45254 0.0
C347 C 0.4059 0.73412 0.42991 0.0
C348 C 0.43503 0.74462 0.41025 0.0
C349 C 0.45806 0.77561 0.41519 0.0
C350 C 0.42356 0.7859 0.45565 0.0
H351 H 0.48053 0.78311 0.40098 0.0
H352 H 0.41804 0.80131 0.47317 0.0
H353 H 0.53012 0.87404 0.52558 0.0
H354 H 0.50483 0.89861 0.39949 0.0
C355 C 0.54471 0.84411 0.40152 0.0
C356 C 0.48594 0.79606 0.53772 0.0
C357 C 0.45482 0.84447 0.34433 0.0
C358 C 0.44287 0.86065 0.50656 0.0
H359 H 0.54231 0.79348 0.53325 0.0
H360 H 0.57616 0.82203 0.45916 0.0
H361 H 0.54821 0.85396 0.30309 0.0
H362 H 0.49737 0.85117 0.27136 0.0
H363 H 0.4121 0.8666 0.35972 0.0
H364 H 0.40768 0.87841 0.44851 0.0
H365 H 0.43007 0.83865 0.60026 0.0
H366 H 0.44946 0.79954 0.61572 0.0
H367 H 0.56398 0.92827 0.54463 0.0
H368 H 0.53701 0.95263 0.41744 0.0
H369 H 0.37827 0.74858 0.46739 0.0
H370 H 0.44013 0.72894 0.39205 0.0
C371 C 0.7301 0.5167 0.64603 0.0
C372 C 0.76095 0.53696 0.6374 0.0
C373 C 0.76263 0.54994 0.59526 0.0
C374 C 0.73307 0.53642 0.57962 0.0
N375 N 0.71284 0.5159 0.60968 0.0
Co376 Co 0.66858 0.48816 0.59845 0.0
N377 N 0.67412 0.49328 0.53064 0.0
C378 C 0.70003 0.5131 0.5084 0.0
C379 C 0.70162 0.5035 0.46464 0.0
C380 C 0.67484 0.47658 0.45881 0.0
C381 C 0.65724 0.47234 0.49814 0.0
N382 N 0.62415 0.46106 0.58703 0.0
C383 C 0.60872 0.45055 0.5463 0.0
C384 C 0.57764 0.43977 0.55328 0.0
C385 C 0.5736 0.44239 0.59971 0.0
C386 C 0.60232 0.45547 0.61866 0.0
N387 N 0.6637 0.48254 0.66618 0.0
C388 C 0.63758 0.47294 0.68987 0.0
C389 C 0.64129 0.47041 0.73655 0.0
C390 C 0.67169 0.47899 0.74214 0.0
C391 C 0.6848 0.4862 0.69843 0.0
N392 N 0.66102 0.52313 0.6029 0.0
C393 C 0.63628 0.56167 0.623 0.0
C394 C 0.65896 0.56134 0.65121 0.0
C395 C 0.67097 0.54214 0.6406 0.0
C396 C 0.62852 0.54398 0.58224 0.0
C397 C 0.64141 0.52548 0.57256 0.0
N398 N 0.67494 0.45259 0.59541 0.0
C399 C 0.65891 0.40073 0.61865 0.0
C400 C 0.68299 0.40105 0.59393 0.0
C401 C 0.70303 0.42795 0.56992 0.0
C402 C 0.69883 0.45348 0.57149 0.0
C403 C 0.65517 0.42642 0.61862 0.0
H404 H 0.71493 0.47389 0.55336 0.0
H405 H 0.63614 0.42503 0.63765 0.0
H406 H 0.68722 0.54155 0.66432 0.0
H407 H 0.63395 0.51162 0.54171 0.0
C408 C 0.72564 0.53436 0.53292 0.0
C409 C 0.71761 0.49868 0.68867 0.0
C410 C 0.62344 0.45305 0.50054 0.0
C411 C 0.60974 0.46177 0.66592 0.0
H412 H 0.78064 0.54115 0.65772 0.0
H413 H 0.78329 0.56478 0.57614 0.0
H414 H 0.721 0.51342 0.44128 0.0
H415 H 0.66881 0.46228 0.42831 0.0
H416 H 0.55967 0.43215 0.52774 0.0
H417 H 0.55231 0.4361 0.6173 0.0
H418 H 0.62382 0.46214 0.7631 0.0
H419 H 0.68292 0.47994 0.77454 0.0
H420 H 0.66708 0.57531 0.68208 0.0
H421 H 0.61142 0.54304 0.55865 0.0
H422 H 0.64254 0.38046 0.63718 0.0
H423 H 0.72207 0.42941 0.55046 0.0
C424 C 0.22525 0.714 0.83678 0.0
C425 C 0.23121 0.74389 0.84018 0.0
C426 C 0.21715 0.7486 0.80279 0.0
C427 C 0.20331 0.72133 0.77904 0.0
N428 N 0.20776 0.70003 0.79955 0.0
Co429 Co 0.19159 0.65769 0.77895 0.0
N430 N 0.18813 0.66878 0.71467 0.0
C431 C 0.18649 0.69349 0.70152 0.0
C432 C 0.18349 0.6948 0.65444 0.0
C433 C 0.18297 0.6692 0.63717 0.0
C434 C 0.18563 0.65365 0.67489 0.0
N435 N 0.17502 0.61516 0.75796 0.0
C436 C 0.17343 0.60432 0.7145 0.0
C437 C 0.15965 0.57271 0.71502 0.0
C438 C 0.15231 0.56377 0.76054 0.0
C439 C 0.16193 0.59032 0.78531 0.0
N440 N 0.19546 0.64752 0.84367 0.0
C441 C 0.1808 0.61951 0.86267 0.0
C442 C 0.19174 0.61948 0.90632 0.0
C443 C 0.21458 0.64917 0.91466 0.0
C444 C 0.21623 0.66597 0.87569 0.0
N445 N 0.14906 0.64855 0.79178 0.0
C446 C 0.08673 0.62659 0.81642 0.0
C447 C 0.11109 0.64637 0.84566 0.0
C448 C 0.14179 0.65694 0.83287 0.0
C449 C 0.09489 0.61945 0.77349 0.0
C450 C 0.12581 0.63075 0.7618 0.0
N451 N 0.23358 0.66532 0.76741 0.0
C452 C 0.26988 0.6484 0.7818 0.0
C453 C 0.29313 0.67315 0.75758 0.0
C454 C 0.28586 0.69469 0.73926 0.0
C455 C 0.25597 0.69045 0.74483 0.0
C456 C 0.24067 0.64451 0.78502 0.0
H457 H 0.25091 0.70728 0.73089 0.0
H458 H 0.22383 0.62445 0.80276 0.0
H459 H 0.15967 0.67119 0.857 0.0
H460 H 0.13077 0.62395 0.72901 0.0
C461 C 0.19249 0.71694 0.7333 0.0
C462 C 0.23653 0.69929 0.86868 0.0
C463 C 0.18296 0.62344 0.67246 0.0
C464 C 0.16447 0.5936 0.83399 0.0
H465 H 0.24484 0.76062 0.86625 0.0
H466 H 0.21857 0.76989 0.79267 0.0
H467 H 0.1827 0.71263 0.63483 0.0
H468 H 0.18043 0.66253 0.60111 0.0
H469 H 0.15528 0.55775 0.68566 0.0
H470 H 0.14229 0.54077 0.77404 0.0
H471 H 0.18581 0.5998 0.92795 0.0
H472 H 0.22876 0.65686 0.94523 0.0
H473 H 0.10667 0.65357 0.87865 0.0
H474 H 0.07756 0.60419 0.74934 0.0
H475 H 0.27391 0.63162 0.79866 0.0
H476 H 0.30283 0.71435 0.72026 0.0
C477 C 0.52733 0.21741 0.0129 0.0
C478 C 0.5031 0.2224 0.02129 0.0
C479 C 0.48265 0.20855 0.98557 0.0
C480 C 0.49557 0.19591 0.95774 0.0
N481 N 0.52256 0.20087 0.97426 0.0
Co482 Co 0.54898 0.18677 0.94729 0.0
N483 N 0.53163 0.18469 0.88532 0.0
C484 C 0.50447 0.18268 0.87621 0.0
C485 C 0.49831 0.1809 0.82964 0.0
C486 C 0.52296 0.1815 0.80841 0.0
C487 C 0.5428 0.18354 0.84343 0.0
N488 N 0.57469 0.17163 0.92028 0.0
C489 C 0.58178 0.17075 0.87536 0.0
C490 C 0.59992 0.15738 0.8712 0.0
C491 C 0.60392 0.14955 0.91534 0.0
C492 C 0.58802 0.15847 0.94402 0.0
N493 N 0.56613 0.18998 0.00978 0.0
C494 C 0.58112 0.17595 0.02492 0.0
C495 C 0.59415 0.18684 0.06773 0.0
C496 C 0.58694 0.20905 0.07943 0.0
C497 C 0.56974 0.21047 0.04311 0.0
N498 N 0.51709 0.1435 0.95916 0.0
C499 C 0.4808 0.07969 0.97845 0.0
C500 C 0.48806 0.10206 0.01313 0.0
C501 C 0.50567 0.13355 0.0027 0.0
C502 C 0.49089 0.09072 0.93335 0.0
C503 C 0.50908 0.12218 0.92468 0.0
N504 N 0.58222 0.22942 0.93613 0.0
C505 C 0.63607 0.26582 0.94548 0.0
C506 C 0.63278 0.28971 0.92747 0.0
C507 C 0.60293 0.28265 0.91437 0.0
C508 C 0.57792 0.25231 0.91901 0.0
C509 C 0.61118 0.23637 0.94853 0.0
H510 H 0.55522 0.24738 0.90913 0.0
H511 H 0.61567 0.21925 0.96211 0.0
H512 H 0.51114 0.14983 0.03045 0.0
H513 H 0.51761 0.12903 0.89 0.0
C514 C 0.48762 0.18665 0.91158 0.0
C515 C 0.55554 0.22993 0.03997 0.0
C516 C 0.57008 0.18082 0.8364 0.0
C517 C 0.58973 0.16037 0.99295 0.0
H518 H 0.50109 0.23561 0.04917 0.0
H519 H 0.46211 0.20967 0.97893 0.0
H520 H 0.47862 0.17996 0.81302 0.0
H521 H 0.52565 0.17989 0.77151 0.0
H522 H 0.6092 0.15365 0.83967 0.0
H523 H 0.6178 0.13968 0.92536 0.0
H524 H 0.60926 0.18124 0.08653 0.0
H525 H 0.59423 0.22289 0.11041 0.0
H526 H 0.48124 0.09561 0.04869 0.0
H527 H 0.48535 0.07529 0.90435 0.0
H528 H 0.65801 0.26964 0.95769 0.0
H529 H 0.59896 0.3002 0.90022 0.0
C530 C 0.31008 0.50754 0.14027 0.0
C531 C 0.27988 0.48584 0.13009 0.0
C532 C 0.28035 0.47157 0.09001 0.0
C533 C 0.31048 0.48575 0.07692 0.0
N534 N 0.32892 0.50807 0.10643 0.0
Co535 Co 0.37278 0.53781 0.09675 0.0
N536 N 0.36908 0.52989 0.0294 0.0
C537 C 0.34709 0.50465 0.00834 0.0
C538 C 0.35095 0.50502 0.96128 0.0
C539 C 0.37714 0.53209 0.9523 0.0
C540 C 0.38776 0.54676 0.99465 0.0
N541 N 0.41657 0.56772 0.08682 0.0
C542 C 0.43135 0.58168 0.04716 0.0
C543 C 0.46232 0.60088 0.05556 0.0
C544 C 0.46684 0.59846 0.10209 0.0
C545 C 0.43846 0.57797 0.11954 0.0
N546 N 0.37589 0.54504 0.16415 0.0
C547 C 0.4018 0.55709 0.18922 0.0
C548 C 0.39661 0.56008 0.23521 0.0
C549 C 0.3656 0.5493 0.23877 0.0
C550 C 0.35353 0.54046 0.1946 0.0
N551 N 0.38362 0.50529 0.10559 0.0
C552 C 0.40693 0.46543 0.12589 0.0
C553 C 0.38302 0.46497 0.15205 0.0
C554 C 0.37187 0.48498 0.14154 0.0
C555 C 0.41768 0.4857 0.08805 0.0
C556 C 0.40563 0.50488 0.0783 0.0
N557 N 0.36325 0.57108 0.08896 0.0
C558 C 0.37378 0.62152 0.11157 0.0
C559 C 0.35099 0.61977 0.08202 0.0
C560 C 0.33455 0.59302 0.05539 0.0
C561 C 0.34077 0.56878 0.0598 0.0
C562 C 0.37977 0.59739 0.11401 0.0
H563 H 0.32748 0.54824 0.03969 0.0
H564 H 0.39803 0.60024 0.13648 0.0
H565 H 0.35427 0.48458 0.16335 0.0
H566 H 0.41516 0.52031 0.04941 0.0
C567 C 0.3206 0.48433 0.0324 0.0
C568 C 0.32074 0.52657 0.18261 0.0
C569 C 0.41681 0.57526 0.00109 0.0
C570 C 0.43046 0.57149 0.16668 0.0
H571 H 0.25926 0.48115 0.14817 0.0
H572 H 0.26073 0.45473 0.07069 0.0
H573 H 0.33591 0.48825 0.93626 0.0
H574 H 0.38734 0.53994 0.9185 0.0
H575 H 0.47977 0.61492 0.03068 0.0
H576 H 0.48809 0.61094 0.12108 0.0
H577 H 0.4135 0.5705 0.26241 0.0
H578 H 0.35337 0.54839 0.27007 0.0
H579 H 0.37294 0.44947 0.1809 0.0
H580 H 0.43621 0.48783 0.06658 0.0
H581 H 0.38754 0.64186 0.13205 0.0
H582 H 0.31682 0.5907 0.03181 0.0
C583 C 0.81258 0.30102 0.31775 0.0
C584 C 0.80257 0.27032 0.30903 0.0
C585 C 0.81684 0.26915 0.26943 0.0
C586 C 0.83399 0.29887 0.25514 0.0
N587 N 0.83127 0.31861 0.2834 0.0
Co588 Co 0.84756 0.36257 0.27189 0.0
N589 N 0.85134 0.35706 0.20499 0.0
C590 C 0.8533 0.33397 0.18525 0.0
C591 C 0.85677 0.33678 0.13808 0.0
C592 C 0.85725 0.36345 0.12764 0.0
C593 C 0.85401 0.37536 0.16931 0.0
N594 N 0.8638 0.40647 0.25995 0.0
C595 C 0.86528 0.42069 0.21948 0.0
C596 C 0.87866 0.45196 0.22621 0.0
C597 C 0.88591 0.4572 0.27262 0.0
C598 C 0.87658 0.42892 0.29164 0.0
N599 N 0.8438 0.36735 0.33894 0.0
C600 C 0.85888 0.39359 0.36297 0.0
C601 C 0.85075 0.38959 0.40901 0.0
C602 C 0.82933 0.35902 0.41373 0.0
C603 C 0.8254 0.346 0.37015 0.0
N604 N 0.89029 0.37136 0.28167 0.0
C605 C 0.95309 0.39576 0.3056 0.0
C606 C 0.92934 0.37325 0.33297 0.0
C607 C 0.89833 0.3613 0.32035 0.0
C608 C 0.94424 0.40414 0.26449 0.0
C609 C 0.91314 0.39169 0.25314 0.0
N610 N 0.8055 0.3557 0.26325 0.0
C611 C 0.7693 0.3721 0.28269 0.0
C612 C 0.74731 0.35108 0.25202 0.0
C613 C 0.75498 0.33144 0.228 0.0
C614 C 0.78415 0.33406 0.2342 0.0
C615 C 0.79787 0.37436 0.2871 0.0
H616 H 0.78961 0.319 0.21511 0.0
H617 H 0.81398 0.3918 0.30991 0.0
H618 H 0.8808 0.34487 0.34305 0.0
H619 H 0.90768 0.39995 0.22227 0.0
C620 C 0.84585 0.30764 0.21052 0.0
C621 C 0.80546 0.31321 0.35949 0.0
C622 C 0.856 0.40506 0.17434 0.0
C623 C 0.87461 0.42174 0.33924 0.0
H624 H 0.78606 0.25045 0.32796 0.0
H625 H 0.81308 0.24882 0.25124 0.0
H626 H 0.85755 0.32078 0.11396 0.0
H627 H 0.85991 0.37309 0.09335 0.0
H628 H 0.88288 0.4691 0.20032 0.0
H629 H 0.89578 0.47891 0.29052 0.0
H630 H 0.85815 0.40704 0.43549 0.0
H631 H 0.81777 0.34769 0.44539 0.0
H632 H 0.93453 0.36514 0.36445 0.0
H633 H 0.96112 0.42142 0.24189 0.0
H634 H 0.76473 0.38721 0.30349 0.0
H635 H 0.73896 0.31469 0.20383 0.0
C636 C 0.3417 0.66009 0.37928 0.0
C637 C 0.32459 0.64491 0.41904 0.0
H638 H 0.38121 0.69971 0.35154 0.0
C639 C 0.33667 0.65765 0.46262 0.0
H640 H 0.33308 0.65085 0.34517 0.0
C641 C 0.36403 0.68583 0.46616 0.0
C642 C 0.38036 0.70171 0.42629 0.0
H643 H 0.32404 0.64676 0.49387 0.0
H644 H 0.37188 0.69584 0.50013 0.0
C645 C 0.36938 0.68799 0.38288 0.0
C646 C 0.69099 0.33469 0.54687 0.0
C647 C 0.68615 0.31663 0.58658 0.0
H648 H 0.69417 0.37533 0.51806 0.0
C649 C 0.68255 0.32774 0.6294 0.0
H650 H 0.69385 0.32681 0.51333 0.0
C651 C 0.68229 0.35543 0.63202 0.0
C652 C 0.68617 0.37303 0.59201 0.0
H653 H 0.67852 0.31432 0.66055 0.0
H654 H 0.67856 0.36287 0.66535 0.0
C655 C 0.69127 0.36259 0.5496 0.0
C656 C 0.32451 0.64723 0.7488 0.0
C657 C 0.32366 0.67465 0.751 0.0
H658 H 0.35079 0.62514 0.7471 0.0
C659 C 0.35196 0.70231 0.74877 0.0
H660 H 0.30367 0.62525 0.74877 0.0
C661 C 0.37997 0.70222 0.74485 0.0
C662 C 0.3804 0.67446 0.74338 0.0
H663 H 0.35254 0.724 0.75054 0.0
H664 H 0.40115 0.72382 0.74239 0.0
C665 C 0.35205 0.64715 0.74649 0.0
C666 C 0.71653 0.35023 0.90956 0.0
C667 C 0.71757 0.37822 0.9181 0.0
H668 H 0.68993 0.302 0.90217 0.0
C669 C 0.68957 0.37695 0.92873 0.0
H670 H 0.73718 0.3494 0.90265 0.0
C671 C 0.66171 0.3486 0.9306 0.0
C672 C 0.66111 0.3208 0.9218 0.0
H673 H 0.68909 0.39779 0.93533 0.0
H674 H 0.64082 0.34844 0.93986 0.0
C675 C 0.68904 0.32246 0.9103 0.0
C676 C 0.34379 0.68911 0.11555 0.0
C677 C 0.34701 0.70341 0.07256 0.0
H678 H 0.34255 0.6515 0.15224 0.0
C679 C 0.34808 0.68816 0.0323 0.0
H680 H 0.34326 0.70038 0.14717 0.0
C681 C 0.34725 0.65997 0.03507 0.0
C682 C 0.34602 0.6466 0.07827 0.0
H683 H 0.35073 0.69869 0.99867 0.0
H684 H 0.34941 0.64955 0.00356 0.0
C685 C 0.34359 0.66121 0.1184 0.0
C686 C 0.71726 0.37887 0.24875 0.0
C687 C 0.71755 0.35118 0.2452 0.0
H688 H 0.69144 0.40168 0.25075 0.0
C689 C 0.68925 0.32433 0.23718 0.0
H690 H 0.73831 0.40033 0.25371 0.0
C691 C 0.6617 0.32528 0.23372 0.0
C692 C 0.66161 0.35312 0.23817 0.0
H693 H 0.68824 0.30248 0.23434 0.0
H694 H 0.64056 0.30421 0.22711 0.0
C695 C 0.69001 0.37975 0.24605 0.0
C696 C 0.21016 0.61671 0.605 0.0
C697 C 0.18259 0.61045 0.62612 0.0
H698 H 0.2315 0.6099 0.54528 0.0
C699 C 0.15508 0.59425 0.60128 0.0
H700 H 0.23166 0.6296 0.62336 0.0
C701 C 0.15508 0.58376 0.55633 0.0
C702 C 0.18261 0.58944 0.53554 0.0
H703 H 0.13363 0.58967 0.61679 0.0
H704 H 0.1335 0.57024 0.53846 0.0
C705 C 0.21014 0.606 0.56022 0.0
C706 C 0.6102 0.20684 0.72111 0.0
C707 C 0.59764 0.17918 0.69655 0.0
H708 H 0.61136 0.22883 0.78542 0.0
C709 C 0.57523 0.15217 0.71763 0.0
H710 H 0.62819 0.22772 0.70583 0.0
C711 C 0.56637 0.15268 0.76334 0.0
C712 C 0.57986 0.18017 0.78838 0.0
H713 H 0.56607 0.13047 0.69977 0.0
H714 H 0.54948 0.13158 0.77952 0.0
C715 C 0.60117 0.20738 0.76669 0.0
C716 C 0.42408 0.60874 0.93319 0.0
C717 C 0.43379 0.59146 0.95864 0.0
H718 H 0.42748 0.63207 0.8693 0.0
C719 C 0.45482 0.5843 0.93862 0.0
H720 H 0.40723 0.61377 0.94754 0.0
C721 C 0.46565 0.59396 0.89358 0.0
C722 C 0.4555 0.6108 0.86792 0.0
H723 H 0.46188 0.57021 0.95713 0.0
H724 H 0.48183 0.58822 0.87864 0.0
C725 C 0.43512 0.61863 0.88832 0.0
C726 C 0.88415 0.43962 0.10834 0.0
C727 C 0.85634 0.42094 0.1312 0.0
H728 H 0.90586 0.46495 0.04663 0.0
C729 C 0.82866 0.41212 0.10819 0.0
H730 H 0.90571 0.44578 0.12506 0.0
C731 C 0.82874 0.42247 0.06331 0.0
C732 C 0.8565 0.44114 0.04043 0.0
H733 H 0.80701 0.39693 0.12482 0.0
H734 H 0.80716 0.41646 0.04676 0.0
C735 C 0.88423 0.4497 0.06322 0.0
C736 C 0.41592 0.81762 0.22798 0.0
C737 C 0.42379 0.84545 0.20639 0.0
H738 H 0.41957 0.79563 0.2894 0.0
C739 C 0.44049 0.87285 0.23115 0.0
H740 H 0.40266 0.79625 0.20953 0.0
C741 C 0.44946 0.87245 0.27685 0.0
C742 C 0.44176 0.84462 0.2984 0.0
H743 H 0.44635 0.89449 0.21516 0.0
H744 H 0.46291 0.89385 0.29514 0.0
C745 C 0.42513 0.81724 0.27359 0.0
C746 C 0.60448 0.44303 0.37188 0.0
C747 C 0.5768 0.41509 0.36944 0.0
H748 H 0.63483 0.48068 0.41358 0.0
C749 C 0.56193 0.40249 0.41192 0.0
H750 H 0.61747 0.45431 0.34118 0.0
C751 C 0.5774 0.41332 0.45415 0.0
C752 C 0.60513 0.44121 0.45618 0.0
H753 H 0.53851 0.38417 0.41336 0.0
H754 H 0.56736 0.39971 0.48485 0.0
C755 C 0.61601 0.45742 0.4143 0.0
C756 C 1.01042 0.42252 0.28739 0.0
C757 C 0.98652 0.41137 0.32032 0.0
H758 H 0.05869 0.44766 0.27398 0.0
C759 C 0.99509 0.41665 0.36743 0.0
H760 H 1.00528 0.41874 0.25079 0.0
C761 C 0.02613 0.43293 0.38093 0.0
C762 C 0.05002 0.44477 0.34793 0.0
H763 H 0.97779 0.40891 0.3942 0.0
H764 H 0.0313 0.43624 0.41756 0.0
C765 C 0.04144 0.43891 0.30087 0.0
C766 C 0.60207 0.99248 0.50992 0.0
C767 C 0.57126 0.9786 0.4955 0.0
H768 H 0.6424 0.03392 0.53192 0.0
C769 C 0.55761 0.997 0.49298 0.0
H770 H 0.61337 0.97908 0.51211 0.0
C771 C 0.57399 0.02811 0.50514 0.0
C772 C 0.60481 0.04207 0.51912 0.0
H773 H 0.53393 0.98716 0.48233 0.0
H774 H 0.56253 0.04138 0.50346 0.0
C775 C 0.61876 0.02392 0.52099 0.0
C776 C 0.58987 0.6036 0.61643 0.0
C777 C 0.5861 0.60885 0.66339 0.0
H778 H 0.60887 0.58619 0.56684 0.0
C779 C 0.60024 0.59944 0.69663 0.0
H780 H 0.57932 0.60991 0.58928 0.0
C781 C 0.61659 0.58471 0.68365 0.0
C782 C 0.62003 0.57908 0.63672 0.0
H783 H 0.59877 0.60334 0.73314 0.0
H784 H 0.62591 0.57712 0.71094 0.0
C785 C 0.60662 0.58927 0.6034 0.0
C786 C 0.0446 0.60727 0.87801 0.0
C787 C 0.05335 0.61271 0.83098 0.0
H788 H 1.00847 0.58979 0.92807 0.0
C789 C 0.0296 0.60375 0.7981 0.0
H790 H 0.06162 0.61326 0.90488 0.0
C791 C 0.99856 0.58925 0.81152 0.0
C792 C 0.9898 0.58332 0.85851 0.0
H793 H 0.03482 0.60781 0.76157 0.0
H794 H 0.98141 0.58204 0.78458 0.0
C795 C 1.01361 0.59311 0.89146 0.0
C796 C 0.44501 0.03318 0.02848 0.0
C797 C 0.46383 0.04548 0.98894 0.0
H798 H 0.41622 0.99329 0.06939 0.0
C799 C 0.4667 0.0245 0.95972 0.0
H800 H 0.44133 0.04775 0.05189 0.0
C801 C 0.45129 0.99294 0.96919 0.0
C802 C 0.43301 0.98098 0.00892 0.0
H803 H 0.48143 0.03226 0.92968 0.0
H804 H 0.45447 0.97791 0.94595 0.0
C805 C 0.43021 1.00162 0.03853 0.0
C806 C 0.42096 0.43614 0.18429 0.0
C807 C 0.42122 0.44595 0.13843 0.0
H808 H 0.43416 0.41243 0.23196 0.0
C809 C 0.43634 0.43773 0.10502 0.0
H810 H 0.41007 0.44187 0.21168 0.0
C811 C 0.45142 0.42157 0.11716 0.0
C812 C 0.45166 0.41226 0.16319 0.0
H813 H 0.4368 0.44382 0.06903 0.0
H814 H 0.46353 0.41709 0.09017 0.0
C815 C 0.43556 0.41948 0.19628 0.0
C816 C 0.27918 0.5545 0.26235 0.0
C817 C 0.25397 0.52678 0.27717 0.0
H818 H 0.31988 0.57614 0.22017 0.0
C819 C 0.25097 0.49932 0.26036 0.0
H820 H 0.28201 0.57607 0.27441 0.0
C821 C 0.27373 0.49935 0.23285 0.0
C822 C 0.29836 0.52686 0.21652 0.0
H823 H 0.23119 0.47758 0.26923 0.0
H824 H 0.27166 0.47763 0.22363 0.0
C825 C 0.301 0.55454 0.23186 0.0
C826 C 0.75752 0.29375 0.40785 0.0
C827 C 0.78328 0.29176 0.39444 0.0
H828 H 0.71568 0.27354 0.44736 0.0
C829 C 0.78663 0.26767 0.41179 0.0
H830 H 0.75446 0.31222 0.39516 0.0
C831 C 0.76339 0.24436 0.43767 0.0
C832 C 0.73793 0.24645 0.45218 0.0
H833 H 0.80666 0.26598 0.40332 0.0
H834 H 0.76546 0.22464 0.44632 0.0
C835 C 0.7352 0.27145 0.43702 0.0
C836 C 0.47959 0.71887 0.55375 0.0
C837 C 0.48095 0.71693 0.60206 0.0
H838 H 0.47797 0.74455 0.49597 0.0
C839 C 0.47875 0.73891 0.62936 0.0
H840 H 0.48288 0.70362 0.53136 0.0
C841 C 0.4784 0.76388 0.60899 0.0
C842 C 0.47841 0.76655 0.56065 0.0
H843 H 0.48021 0.73833 0.66675 0.0
H844 H 0.48092 0.78217 0.63126 0.0
C845 C 0.47748 0.74292 0.53341 0.0
C846 C 0.78605 0.529 0.76824 0.0
C847 C 0.78477 0.50225 0.78457 0.0
H848 H 0.76344 0.54867 0.73141 0.0
C849 C 0.76042 0.47381 0.77019 0.0
H850 H 0.80527 0.55126 0.77657 0.0
C851 C 0.73784 0.47238 0.74003 0.0
C852 C 0.73894 0.49937 0.72501 0.0
H853 H 0.75901 0.4528 0.78203 0.0
H854 H 0.71989 0.45036 0.72787 0.0
C855 C 0.76241 0.52752 0.74149 0.0
C856 C 0.29397 0.74515 0.96299 0.0
C857 C 0.31754 0.76874 0.93681 0.0
H858 H 0.24907 0.70602 0.9628 0.0
C859 C 0.3162 0.76604 0.8884 0.0
H860 H 0.29406 0.74679 0.00041 0.0
C861 C 0.29131 0.74114 0.86685 0.0
C862 C 0.2663 0.7192 0.89294 0.0
H863 H 0.33274 0.78427 0.8668 0.0
H864 H 0.29027 0.74054 0.82935 0.0
C865 C 0.26829 0.72117 0.94139 0.0
C866 C 0.57013 0.29056 0.1288 0.0
C867 C 0.56624 0.31144 0.10127 0.0
H868 H 0.56867 0.24755 0.13157 0.0
C869 C 0.56648 0.30871 0.05303 0.0
H870 H 0.56958 0.29184 0.16619 0.0
C871 C 0.56768 0.28406 0.03308 0.0
C872 C 0.56731 0.2609 0.06084 0.0
H873 H 0.56233 0.32341 0.0307 0.0
H874 H 0.56518 0.28123 0.99589 0.0
C875 C 0.57003 0.2652 0.10891 0.0
loop_
_geom_bond_atom_site_label_1
_geom_bond_atom_site_label_2
_geom_bond_distance
_geom_bond_site_symmetry_2
_ccdc_geom_bond_type
C0 C1 1.443 . S
C0 N4 1.376 . S
C0 C38 1.389 . S
C1 C0 1.443 . S
C1 C2 1.340 . S
C1 H41 0.951 . S
C2 C1 1.340 . S
C2 C3 1.439 . S
C2 H42 0.950 . S
C3 C2 1.439 . S
C3 N4 1.374 . S
C3 C37 1.395 . S
N4 C0 1.376 . S
N4 C3 1.374 . S
N4 Co5 2.008 . S
Co5 N4 2.008 . S
Co5 N6 1.995 . S
Co5 N11 2.008 . S
Co5 N16 1.995 . S
Co5 N21 2.282 . S
Co5 N27 2.282 . S
N6 Co5 1.995 . S
N6 C7 1.376 . S
N6 C10 1.383 . S
C7 N6 1.376 . S
C7 C8 1.446 . S
C7 C37 1.391 . S
C8 C7 1.446 . S
C8 C9 1.339 . S
C8 H43 0.949 . S
C9 C8 1.339 . S
C9 C10 1.439 . S
C9 H44 0.950 . S
C10 N6 1.383 . S
C10 C9 1.439 . S
C10 C39 1.392 . S
N11 Co5 2.008 . S
N11 C12 1.376 . S
N11 C15 1.374 . S
C12 N11 1.376 . S
C12 C13 1.443 . S
C12 C39 1.389 . S
C13 C12 1.443 . S
C13 C14 1.340 . S
C13 H45 0.951 . S
C14 C13 1.340 . S
C14 C15 1.439 . S
C14 H46 0.950 . S
C15 N11 1.374 . S
C15 C14 1.439 . S
C15 C40 1.395 . S
N16 Co5 1.995 . S
N16 C17 1.376 . S
N16 C20 1.383 . S
C17 N16 1.376 . S
C17 C18 1.446 . S
C17 C40 1.391 . S
C18 C17 1.446 . S
C18 C19 1.339 . S
C18 H47 0.949 . S
C19 C18 1.339 . S
C19 C20 1.439 . S
C19 H48 0.950 . S
C20 N16 1.383 . S
C20 C19 1.439 . S
C20 C38 1.392 . S
N21 Co5 2.282 . S
N21 C24 1.332 . S
N21 C26 1.332 . S
C22 C23 1.386 . S
C22 C25 1.388 . S
C23 C22 1.386 . S
C23 C24 1.382 . S
C23 H49 0.950 . S
C24 N21 1.332 . S
C24 C23 1.382 . S
C24 H35 0.952 . S
C25 C22 1.388 . S
C25 C26 1.382 . S
C25 H50 0.950 . S
C26 N21 1.332 . S
C26 C25 1.382 . S
C26 H36 0.948 . S
N27 Co5 2.282 . S
N27 C31 1.332 . S
N27 C32 1.332 . S
C28 C29 1.388 . S
C28 C32 1.382 . S
C28 H51 0.950 . S
C29 C28 1.388 . S
C29 C30 1.386 . S
C30 C29 1.386 . S
C30 C31 1.382 . S
C30 H52 0.950 . S
C31 N27 1.332 . S
C31 C30 1.382 . S
C31 H33 0.952 . S
C32 N27 1.332 . S
C32 C28 1.382 . S
C32 H34 0.948 . S
H33 C31 0.952 . S
H34 C32 0.948 . S
H35 C24 0.952 . S
H36 C26 0.948 . S
C37 C3 1.395 . S
C37 C7 1.391 . S
C38 C0 1.389 . S
C38 C20 1.392 . S
C39 C10 1.392 . S
C39 C12 1.389 . S
C40 C15 1.395 . S
C40 C17 1.391 . S
H41 C1 0.951 . S
H42 C2 0.950 . S
H43 C8 0.949 . S
H44 C9 0.950 . S
H45 C13 0.951 . S
H46 C14 0.950 . S
H47 C18 0.949 . S
H48 C19 0.950 . S
H49 C23 0.950 . S
H50 C25 0.950 . S
H51 C28 0.950 . S
H52 C30 0.950 . S
C53 C54 1.443 . S
C53 N57 1.376 . S
C53 C91 1.389 . S
C54 C53 1.443 . S
C54 C55 1.340 . S
C54 H94 0.951 . S
C55 C54 1.340 . S
C55 C56 1.439 . S
C55 H95 0.950 . S
C56 C55 1.439 . S
C56 N57 1.374 . S
C56 C90 1.395 . S
N57 C53 1.376 . S
N57 C56 1.374 . S
N57 Co58 2.008 . S
Co58 N57 2.008 . S
Co58 N59 1.995 . S
Co58 N64 2.008 . S
Co58 N69 1.995 . S
Co58 N74 2.282 . S
Co58 N80 2.282 . S
N59 Co58 1.995 . S
N59 C60 1.376 . S
N59 C63 1.383 . S
C60 N59 1.376 . S
C60 C61 1.446 . S
C60 C90 1.391 . S
C61 C60 1.446 . S
C61 C62 1.339 . S
C61 H96 0.949 . S
C62 C61 1.339 . S
C62 C63 1.439 . S
C62 H97 0.950 . S
C63 N59 1.383 . S
C63 C62 1.439 . S
C63 C92 1.392 . S
N64 Co58 2.008 . S
N64 C65 1.376 . S
N64 C68 1.374 . S
C65 N64 1.376 . S
C65 C66 1.443 . S
C65 C92 1.389 . S
C66 C65 1.443 . S
C66 C67 1.340 . S
C66 H98 0.951 . S
C67 C66 1.340 . S
C67 C68 1.439 . S
C67 H99 0.950 . S
C68 N64 1.374 . S
C68 C67 1.439 . S
C68 C93 1.395 . S
N69 Co58 1.995 . S
N69 C70 1.376 . S
N69 C73 1.383 . S
C70 N69 1.376 . S
C70 C71 1.446 . S
C70 C93 1.391 . S
C71 C70 1.446 . S
C71 C72 1.339 . S
C71 H100 0.949 . S
C72 C71 1.339 . S
C72 C73 1.439 . S
C72 H101 0.950 . S
C73 N69 1.383 . S
C73 C72 1.439 . S
C73 C91 1.392 . S
N74 Co58 2.282 . S
N74 C77 1.332 . S
N74 C79 1.332 . S
C75 C76 1.386 . S
C75 C78 1.388 . S
C76 C75 1.386 . S
C76 C77 1.382 . S
C76 H102 0.950 . S
C77 N74 1.332 . S
C77 C76 1.382 . S
C77 H88 0.952 . S
C78 C75 1.388 . S
C78 C79 1.382 . S
C78 H103 0.950 . S
C79 N74 1.332 . S
C79 C78 1.382 . S
C79 H89 0.948 . S
N80 Co58 2.282 . S
N80 C84 1.332 . S
N80 C85 1.332 . S
C81 C82 1.388 . S
C81 C85 1.382 . S
C81 H104 0.950 . S
C82 C81 1.388 . S
C82 C83 1.386 . S
C83 C82 1.386 . S
C83 C84 1.382 . S
C83 H105 0.950 . S
C84 N80 1.332 . S
C84 C83 1.382 . S
C84 H86 0.952 . S
C85 N80 1.332 . S
C85 C81 1.382 . S
C85 H87 0.948 . S
H86 C84 0.952 . S
H87 C85 0.948 . S
H88 C77 0.952 . S
H89 C79 0.948 . S
C90 C56 1.395 . S
C90 C60 1.391 . S
C91 C53 1.389 . S
C91 C73 1.392 . S
C92 C63 1.392 . S
C92 C65 1.389 . S
C93 C68 1.395 . S
C93 C70 1.391 . S
H94 C54 0.951 . S
H95 C55 0.950 . S
H96 C61 0.949 . S
H97 C62 0.950 . S
H98 C66 0.951 . S
H99 C67 0.950 . S
H100 C71 0.949 . S
H101 C72 0.950 . S
H102 C76 0.950 . S
H103 C78 0.950 . S
H104 C81 0.950 . S
H105 C83 0.950 . S
C106 C107 1.443 . S
C106 N110 1.376 . S
C106 C144 1.389 . S
C107 C106 1.443 . S
C107 C108 1.340 . S
C107 H147 0.951 . S
C108 C107 1.340 . S
C108 C109 1.439 . S
C108 H148 0.950 . S
C109 C108 1.439 . S
C109 N110 1.374 . S
C109 C143 1.395 . S
N110 C106 1.376 . S
N110 C109 1.374 . S
N110 Co111 2.008 . S
Co111 N110 2.008 . S
Co111 N112 1.995 . S
Co111 N117 2.008 . S
Co111 N122 1.995 . S
Co111 N127 2.282 . S
Co111 N133 2.282 . S
N112 Co111 1.995 . S
N112 C113 1.376 . S
N112 C116 1.383 . S
C113 N112 1.376 . S
C113 C114 1.446 . S
C113 C143 1.391 . S
C114 C113 1.446 . S
C114 C115 1.339 . S
C114 H149 0.949 . S
C115 C114 1.339 . S
C115 C116 1.439 . S
C115 H150 0.950 . S
C116 N112 1.383 . S
C116 C115 1.439 . S
C116 C145 1.392 . S
N117 Co111 2.008 . S
N117 C118 1.376 . S
N117 C121 1.374 . S
C118 N117 1.376 . S
C118 C119 1.443 . S
C118 C145 1.389 . S
C119 C118 1.443 . S
C119 C120 1.340 . S
C119 H151 0.951 . S
C120 C119 1.340 . S
C120 C121 1.439 . S
C120 H152 0.950 . S
C121 N117 1.374 . S
C121 C120 1.439 . S
C121 C146 1.395 . S
N122 Co111 1.995 . S
N122 C123 1.376 . S
N122 C126 1.383 . S
C123 N122 1.376 . S
C123 C124 1.446 . S
C123 C146 1.391 . S
C124 C123 1.446 . S
C124 C125 1.339 . S
C124 H153 0.949 . S
C125 C124 1.339 . S
C125 C126 1.439 . S
C125 H154 0.950 . S
C126 N122 1.383 . S
C126 C125 1.439 . S
C126 C144 1.392 . S
N127 Co111 2.282 . S
N127 C130 1.332 . S
N127 C132 1.332 . S
C128 C129 1.386 . S
C128 C131 1.388 . S
C129 C128 1.386 . S
C129 C130 1.382 . S
C129 H155 0.950 . S
C130 N127 1.332 . S
C130 C129 1.382 . S
C130 H141 0.952 . S
C131 C128 1.388 . S
C131 C132 1.382 . S
C131 H156 0.950 . S
C132 N127 1.332 . S
C132 C131 1.382 . S
C132 H142 0.948 . S
N133 Co111 2.282 . S
N133 C137 1.332 . S
N133 C138 1.332 . S
C134 C135 1.388 . S
C134 C138 1.382 . S
C134 H157 0.950 . S
C135 C134 1.388 . S
C135 C136 1.386 . S
C136 C135 1.386 . S
C136 C137 1.382 . S
C136 H158 0.950 . S
C137 N133 1.332 . S
C137 C136 1.382 . S
C137 H139 0.952 . S
C138 N133 1.332 . S
C138 C134 1.382 . S
C138 H140 0.948 . S
H139 C137 0.952 . S
H140 C138 0.948 . S
H141 C130 0.952 . S
H142 C132 0.948 . S
C143 C109 1.395 . S
C143 C113 1.391 . S
C144 C106 1.389 . S
C144 C126 1.392 . S
C145 C116 1.392 . S
C145 C118 1.389 . S
C146 C121 1.395 . S
C146 C123 1.391 . S
H147 C107 0.951 . S
H148 C108 0.950 . S
H149 C114 0.949 . S
H150 C115 0.950 . S
H151 C119 0.951 . S
H152 C120 0.950 . S
H153 C124 0.949 . S
H154 C125 0.950 . S
H155 C129 0.950 . S
H156 C131 0.950 . S
H157 C134 0.950 . S
H158 C136 0.950 . S
C159 C160 1.443 . S
C159 N163 1.376 . S
C159 C197 1.389 . S
C160 C159 1.443 . S
C160 C161 1.340 . S
C160 H200 0.951 . S
C161 C160 1.340 . S
C161 C162 1.439 . S
C161 H201 0.950 . S
C162 C161 1.439 . S
C162 N163 1.374 . S
C162 C196 1.395 . S
N163 C159 1.376 . S
N163 C162 1.374 . S
N163 Co164 2.008 . S
Co164 N163 2.008 . S
Co164 N165 1.995 . S
Co164 N170 2.008 . S
Co164 N175 1.995 . S
Co164 N180 2.282 . S
Co164 N186 2.282 . S
N165 Co164 1.995 . S
N165 C166 1.385 . S
N165 C169 1.383 1_556 S
C166 N165 1.385 . S
C166 C167 1.428 1_556 S
C166 C196 1.399 . S
C167 C166 1.428 1_554 S
C167 C168 1.339 . S
C167 H202 0.949 . S
C168 C167 1.339 . S
C168 C169 1.439 . S
C168 H203 0.950 . S
C169 N165 1.383 1_554 S
C169 C168 1.439 . S
C169 C198 1.392 . S
N170 Co164 2.008 . S
N170 C171 1.376 . S
N170 C174 1.374 . S
C171 N170 1.376 . S
C171 C172 1.443 . S
C171 C198 1.389 1_556 S
C172 C171 1.443 . S
C172 C173 1.340 . S
C172 H204 0.951 . S
C173 C172 1.340 . S
C173 C174 1.439 . S
C173 H205 0.950 . S
C174 N170 1.374 . S
C174 C173 1.439 . S
C174 C199 1.395 . S
N175 Co164 1.995 . S
N175 C176 1.376 . S
N175 C179 1.383 . S
C176 N175 1.376 . S
C176 C177 1.446 . S
C176 C199 1.391 . S
C177 C176 1.446 . S
C177 C178 1.339 . S
C177 H206 0.949 . S
C178 C177 1.339 . S
C178 C179 1.439 . S
C178 H207 0.950 . S
C179 N175 1.383 . S
C179 C178 1.439 . S
C179 C197 1.392 . S
N180 Co164 2.282 . S
N180 C183 1.332 . S
N180 C185 1.332 . S
C181 C182 1.386 . S
C181 C184 1.388 . S
C182 C181 1.386 . S
C182 C183 1.382 . S
C182 H208 0.950 . S
C183 N180 1.332 . S
C183 C182 1.382 . S
C183 H194 0.952 . S
C184 C181 1.388 . S
C184 C185 1.382 . S
C184 H209 0.950 . S
C185 N180 1.332 . S
C185 C184 1.382 . S
C185 H195 0.948 . S
N186 Co164 2.282 . S
N186 C190 1.332 . S
N186 C191 1.332 . S
C187 C188 1.388 . S
C187 C191 1.382 . S
C187 H210 0.950 . S
C188 C187 1.388 . S
C188 C189 1.386 . S
C189 C188 1.386 . S
C189 C190 1.382 . S
C189 H211 0.950 . S
C190 N186 1.332 . S
C190 C189 1.382 . S
C190 H192 0.952 . S
C191 N186 1.332 . S
C191 C187 1.382 . S
C191 H193 0.948 . S
H192 C190 0.952 . S
H193 C191 0.948 . S
H194 C183 0.952 . S
H195 C185 0.948 . S
C196 C162 1.395 . S
C196 C166 1.399 . S
C197 C159 1.389 . S
C197 C179 1.392 . S
C198 C169 1.392 . S
C198 C171 1.389 1_554 S
C199 C174 1.395 . S
C199 C176 1.391 . S
H200 C160 0.951 . S
H201 C161 0.950 . S
H202 C167 0.949 . S
H203 C168 0.950 . S
H204 C172 0.951 . S
H205 C173 0.950 . S
H206 C177 0.949 . S
H207 C178 0.950 . S
H208 C182 0.950 . S
H209 C184 0.950 . S
H210 C187 0.950 . S
H211 C189 0.950 . S
C212 C213 1.443 . S
C212 N216 1.376 . S
C212 C250 1.389 1_554 S
C213 C212 1.443 . S
C213 C214 1.340 . S
C213 H253 0.951 . S
C214 C213 1.340 . S
C214 C215 1.439 . S
C214 H254 0.950 . S
C215 C214 1.439 . S
C215 N216 1.374 . S
C215 C249 1.395 . S
N216 C212 1.376 . S
N216 C215 1.374 . S
N216 Co217 2.008 . S
Co217 N216 2.008 . S
Co217 N218 1.995 . S
Co217 N223 2.008 . S
Co217 N228 1.995 . S
Co217 N233 2.282 . S
Co217 N239 2.282 . S
N218 Co217 1.995 . S
N218 C219 1.376 . S
N218 C222 1.383 . S
C219 N218 1.376 . S
C219 C220 1.446 . S
C219 C249 1.391 . S
C220 C219 1.446 . S
C220 C221 1.339 . S
C220 H255 0.949 . S
C221 C220 1.339 . S
C221 C222 1.439 . S
C221 H256 0.950 . S
C222 N218 1.383 . S
C222 C221 1.439 . S
C222 C251 1.392 . S
N223 Co217 2.008 . S
N223 C224 1.376 . S
N223 C227 1.374 . S
C224 N223 1.376 . S
C224 C225 1.443 . S
C224 C251 1.389 . S
C225 C224 1.443 . S
C225 C226 1.340 . S
C225 H257 0.951 . S
C226 C225 1.340 . S
C226 C227 1.439 . S
C226 H258 0.950 . S
C227 N223 1.374 . S
C227 C226 1.439 . S
C227 C252 1.395 . S
N228 Co217 1.995 . S
N228 C229 1.376 1_554 S
N228 C232 1.383 1_554 S
C229 N228 1.376 1_556 S
C229 C230 1.446 . S
C229 C252 1.391 1_556 S
C230 C229 1.446 . S
C230 C231 1.339 . S
C230 H259 0.949 . S
C231 C230 1.339 . S
C231 C232 1.439 . S
C231 H260 0.950 . S
C232 N228 1.383 1_556 S
C232 C231 1.439 . S
C232 C250 1.392 . S
N233 Co217 2.282 . S
N233 C236 1.332 . S
N233 C238 1.332 . S
C234 C235 1.386 . S
C234 C237 1.388 . S
C235 C234 1.386 . S
C235 C236 1.382 . S
C235 H261 0.950 . S
C236 N233 1.332 . S
C236 C235 1.382 . S
C236 H247 0.952 . S
C237 C234 1.388 . S
C237 C238 1.382 . S
C237 H262 0.950 . S
C238 N233 1.332 . S
C238 C237 1.382 . S
C238 H248 0.948 . S
N239 Co217 2.282 . S
N239 C243 1.332 . S
N239 C244 1.332 . S
C240 C241 1.388 . S
C240 C244 1.382 . S
C240 H263 0.950 . S
C241 C240 1.388 . S
C241 C242 1.386 . S
C242 C241 1.386 . S
C242 C243 1.382 . S
C242 H264 0.950 . S
C243 N239 1.332 . S
C243 C242 1.382 . S
C243 H245 0.952 . S
C244 N239 1.332 . S
C244 C240 1.382 . S
C244 H246 0.948 . S
H245 C243 0.952 . S
H246 C244 0.948 . S
H247 C236 0.952 . S
H248 C238 0.948 . S
C249 C215 1.395 . S
C249 C219 1.391 . S
C250 C212 1.389 1_556 S
C250 C232 1.392 . S
C251 C222 1.392 . S
C251 C224 1.389 . S
C252 C227 1.395 . S
C252 C229 1.391 1_554 S
H253 C213 0.951 . S
H254 C214 0.950 . S
H255 C220 0.949 . S
H256 C221 0.950 . S
H257 C225 0.951 . S
H258 C226 0.950 . S
H259 C230 0.949 . S
H260 C231 0.950 . S
H261 C235 0.950 . S
H262 C237 0.950 . S
H263 C240 0.950 . S
H264 C242 0.950 . S
C265 C266 1.443 . S
C265 N269 1.376 . S
C265 C303 1.389 . S
C266 C265 1.443 . S
C266 C267 1.340 . S
C266 H306 0.951 . S
C267 C266 1.340 . S
C267 C268 1.439 . S
C267 H307 0.950 . S
C268 C267 1.439 . S
C268 N269 1.374 . S
C268 C302 1.395 . S
N269 C265 1.376 . S
N269 C268 1.374 . S
N269 Co270 2.008 . S
Co270 N269 2.008 . S
Co270 N271 1.995 . S
Co270 N276 2.008 . S
Co270 N281 1.995 . S
Co270 N286 2.282 . S
Co270 N292 2.282 . S
N271 Co270 1.995 . S
N271 C272 1.376 . S
N271 C275 1.383 . S
C272 N271 1.376 . S
C272 C273 1.446 . S
C272 C302 1.391 . S
C273 C272 1.446 . S
C273 C274 1.339 . S
C273 H308 0.949 . S
C274 C273 1.339 . S
C274 C275 1.439 . S
C274 H309 0.950 . S
C275 N271 1.383 . S
C275 C274 1.439 . S
C275 C304 1.392 . S
N276 Co270 2.008 . S
N276 C277 1.376 . S
N276 C280 1.374 . S
C277 N276 1.376 . S
C277 C278 1.443 . S
C277 C304 1.389 . S
C278 C277 1.443 . S
C278 C279 1.340 . S
C278 H310 0.951 . S
C279 C278 1.340 . S
C279 C280 1.439 . S
C279 H311 0.950 . S
C280 N276 1.374 . S
C280 C279 1.439 . S
C280 C305 1.395 . S
N281 Co270 1.995 . S
N281 C282 1.376 . S
N281 C285 1.383 . S
C282 N281 1.376 . S
C282 C283 1.446 . S
C282 C305 1.391 . S
C283 C282 1.446 . S
C283 C284 1.339 . S
C283 H312 0.949 . S
C284 C283 1.339 . S
C284 C285 1.439 . S
C284 H313 0.950 . S
C285 N281 1.383 . S
C285 C284 1.439 . S
C285 C303 1.392 . S
N286 Co270 2.282 . S
N286 C289 1.332 . S
N286 C291 1.332 . S
C287 C288 1.386 . S
C287 C290 1.388 . S
C288 C287 1.386 . S
C288 C289 1.382 . S
C288 H314 0.950 . S
C289 N286 1.332 . S
C289 C288 1.382 . S
C289 H300 0.952 . S
C290 C287 1.388 . S
C290 C291 1.382 . S
C290 H315 0.950 . S
C291 N286 1.332 . S
C291 C290 1.382 . S
C291 H301 0.948 . S
N292 Co270 2.282 . S
N292 C296 1.332 . S
N292 C297 1.332 . S
C293 C294 1.388 . S
C293 C297 1.382 . S
C293 H316 0.950 . S
C294 C293 1.388 . S
C294 C295 1.386 . S
C295 C294 1.386 . S
C295 C296 1.382 . S
C295 H317 0.950 . S
C296 N292 1.332 . S
C296 C295 1.382 . S
C296 H298 0.952 . S
C297 N292 1.332 . S
C297 C293 1.382 . S
C297 H299 0.948 . S
H298 C296 0.952 . S
H299 C297 0.948 . S
H300 C289 0.952 . S
H301 C291 0.948 . S
C302 C268 1.395 . S
C302 C272 1.391 . S
C303 C265 1.389 . S
C303 C285 1.392 . S
C304 C275 1.392 . S
C304 C277 1.389 . S
C305 C280 1.395 . S
C305 C282 1.391 . S
H306 C266 0.951 . S
H307 C267 0.950 . S
H308 C273 0.949 . S
H309 C274 0.950 . S
H310 C278 0.951 . S
H311 C279 0.950 . S
H312 C283 0.949 . S
H313 C284 0.950 . S
H314 C288 0.950 . S
H315 C290 0.950 . S
H316 C293 0.950 . S
H317 C295 0.950 . S
C318 C319 1.443 . S
C318 N322 1.376 . S
C318 C356 1.389 . S
C319 C318 1.443 . S
C319 C320 1.340 . S
C319 H359 0.951 . S
C320 C319 1.340 . S
C320 C321 1.439 . S
C320 H360 0.950 . S
C321 C320 1.439 . S
C321 N322 1.374 . S
C321 C355 1.395 . S
N322 C318 1.376 . S
N322 C321 1.374 . S
N322 Co323 2.008 . S
Co323 N322 2.008 . S
Co323 N324 1.995 . S
Co323 N329 2.008 . S
Co323 N334 1.995 . S
Co323 N339 2.282 . S
Co323 N345 2.282 . S
N324 Co323 1.995 . S
N324 C325 1.376 . S
N324 C328 1.383 . S
C325 N324 1.376 . S
C325 C326 1.446 . S
C325 C355 1.391 . S
C326 C325 1.446 . S
C326 C327 1.339 . S
C326 H361 0.949 . S
C327 C326 1.339 . S
C327 C328 1.439 . S
C327 H362 0.950 . S
C328 N324 1.383 . S
C328 C327 1.439 . S
C328 C357 1.392 . S
N329 Co323 2.008 . S
N329 C330 1.376 . S
N329 C333 1.374 . S
C330 N329 1.376 . S
C330 C331 1.443 . S
C330 C357 1.389 . S
C331 C330 1.443 . S
C331 C332 1.340 . S
C331 H363 0.951 . S
C332 C331 1.340 . S
C332 C333 1.439 . S
C332 H364 0.950 . S
C333 N329 1.374 . S
C333 C332 1.439 . S
C333 C358 1.395 . S
N334 Co323 1.995 . S
N334 C335 1.376 . S
N334 C338 1.383 . S
C335 N334 1.376 . S
C335 C336 1.446 . S
C335 C358 1.391 . S
C336 C335 1.446 . S
C336 C337 1.339 . S
C336 H365 0.949 . S
C337 C336 1.339 . S
C337 C338 1.439 . S
C337 H366 0.950 . S
C338 N334 1.383 . S
C338 C337 1.439 . S
C338 C356 1.392 . S
N339 Co323 2.282 . S
N339 C342 1.332 . S
N339 C344 1.332 . S
C340 C341 1.386 . S
C340 C343 1.388 . S
C341 C340 1.386 . S
C341 C342 1.382 . S
C341 H367 0.950 . S
C342 N339 1.332 . S
C342 C341 1.382 . S
C342 H353 0.952 . S
C343 C340 1.388 . S
C343 C344 1.382 . S
C343 H368 0.950 . S
C344 N339 1.332 . S
C344 C343 1.382 . S
C344 H354 0.948 . S
N345 Co323 2.282 . S
N345 C349 1.332 . S
N345 C350 1.332 . S
C346 C347 1.388 . S
C346 C350 1.382 . S
C346 H369 0.950 . S
C347 C346 1.388 . S
C347 C348 1.386 . S
C348 C347 1.386 . S
C348 C349 1.382 . S
C348 H370 0.950 . S
C349 N345 1.332 . S
C349 C348 1.382 . S
C349 H351 0.952 . S
C350 N345 1.332 . S
C350 C346 1.382 . S
C350 H352 0.948 . S
H351 C349 0.952 . S
H352 C350 0.948 . S
H353 C342 0.952 . S
H354 C344 0.948 . S
C355 C321 1.395 . S
C355 C325 1.391 . S
C356 C318 1.389 . S
C356 C338 1.392 . S
C357 C328 1.392 . S
C357 C330 1.389 . S
C358 C333 1.395 . S
C358 C335 1.391 . S
H359 C319 0.951 . S
H360 C320 0.950 . S
H361 C326 0.949 . S
H362 C327 0.950 . S
H363 C331 0.951 . S
H364 C332 0.950 . S
H365 C336 0.949 . S
H366 C337 0.950 . S
H367 C341 0.950 . S
H368 C343 0.950 . S
H369 C346 0.950 . S
H370 C348 0.950 . S
C371 C372 1.443 . S
C371 N375 1.376 . S
C371 C409 1.389 . S
C372 C371 1.443 . S
C372 C373 1.340 . S
C372 H412 0.951 . S
C373 C372 1.340 . S
C373 C374 1.439 . S
C373 H413 0.950 . S
C374 C373 1.439 . S
C374 N375 1.374 . S
C374 C408 1.395 . S
N375 C371 1.376 . S
N375 C374 1.374 . S
N375 Co376 2.008 . S
Co376 N375 2.008 . S
Co376 N377 1.995 . S
Co376 N382 2.008 . S
Co376 N387 1.995 . S
Co376 N392 2.282 . S
Co376 N398 2.282 . S
N377 Co376 1.995 . S
N377 C378 1.376 . S
N377 C381 1.383 . S
C378 N377 1.376 . S
C378 C379 1.446 . S
C378 C408 1.391 . S
C379 C378 1.446 . S
C379 C380 1.339 . S
C379 H414 0.949 . S
C380 C379 1.339 . S
C380 C381 1.439 . S
C380 H415 0.950 . S
C381 N377 1.383 . S
C381 C380 1.439 . S
C381 C410 1.392 . S
N382 Co376 2.008 . S
N382 C383 1.376 . S
N382 C386 1.374 . S
C383 N382 1.376 . S
C383 C384 1.443 . S
C383 C410 1.389 . S
C384 C383 1.443 . S
C384 C385 1.340 . S
C384 H416 0.951 . S
C385 C384 1.340 . S
C385 C386 1.439 . S
C385 H417 0.950 . S
C386 N382 1.374 . S
C386 C385 1.439 . S
C386 C411 1.395 . S
N387 Co376 1.995 . S
N387 C388 1.376 . S
N387 C391 1.383 . S
C388 N387 1.376 . S
C388 C389 1.446 . S
C388 C411 1.391 . S
C389 C388 1.446 . S
C389 C390 1.339 . S
C389 H418 0.949 . S
C390 C389 1.339 . S
C390 C391 1.439 . S
C390 H419 0.950 . S
C391 N387 1.383 . S
C391 C390 1.439 . S
C391 C409 1.392 . S
N392 Co376 2.282 . S
N392 C395 1.332 . S
N392 C397 1.332 . S
C393 C394 1.386 . S
C393 C396 1.388 . S
C394 C393 1.386 . S
C394 C395 1.382 . S
C394 H420 0.950 . S
C395 N392 1.332 . S
C395 C394 1.382 . S
C395 H406 0.952 . S
C396 C393 1.388 . S
C396 C397 1.382 . S
C396 H421 0.950 . S
C397 N392 1.332 . S
C397 C396 1.382 . S
C397 H407 0.948 . S
N398 Co376 2.282 . S
N398 C402 1.332 . S
N398 C403 1.332 . S
C399 C400 1.388 . S
C399 C403 1.382 . S
C399 H422 0.950 . S
C400 C399 1.388 . S
C400 C401 1.386 . S
C401 C400 1.386 . S
C401 C402 1.382 . S
C401 H423 0.950 . S
C402 N398 1.332 . S
C402 C401 1.382 . S
C402 H404 0.952 . S
C403 N398 1.332 . S
C403 C399 1.382 . S
C403 H405 0.948 . S
H404 C402 0.952 . S
H405 C403 0.948 . S
H406 C395 0.952 . S
H407 C397 0.948 . S
C408 C374 1.395 . S
C408 C378 1.391 . S
C409 C371 1.389 . S
C409 C391 1.392 . S
C410 C381 1.392 . S
C410 C383 1.389 . S
C411 C386 1.395 . S
C411 C388 1.391 . S
H412 C372 0.951 . S
H413 C373 0.950 . S
H414 C379 0.949 . S
H415 C380 0.950 . S
H416 C384 0.951 . S
H417 C385 0.950 . S
H418 C389 0.949 . S
H419 C390 0.950 . S
H420 C394 0.950 . S
H421 C396 0.950 . S
H422 C399 0.950 . S
H423 C401 0.950 . S
C424 C425 1.443 . S
C424 N428 1.376 . S
C424 C462 1.389 . S
C425 C424 1.443 . S
C425 C426 1.340 . S
C425 H465 0.951 . S
C426 C425 1.340 . S
C426 C427 1.439 . S
C426 H466 0.950 . S
C427 C426 1.439 . S
C427 N428 1.374 . S
C427 C461 1.395 . S
N428 C424 1.376 . S
N428 C427 1.374 . S
N428 Co429 2.008 . S
Co429 N428 2.008 . S
Co429 N430 1.995 . S
Co429 N435 2.008 . S
Co429 N440 1.995 . S
Co429 N445 2.282 . S
Co429 N451 2.282 . S
N430 Co429 1.995 . S
N430 C431 1.376 . S
N430 C434 1.383 . S
C431 N430 1.376 . S
C431 C432 1.446 . S
C431 C461 1.391 . S
C432 C431 1.446 . S
C432 C433 1.339 . S
C432 H467 0.949 . S
C433 C432 1.339 . S
C433 C434 1.439 . S
C433 H468 0.950 . S
C434 N430 1.383 . S
C434 C433 1.439 . S
C434 C463 1.392 . S
N435 Co429 2.008 . S
N435 C436 1.376 . S
N435 C439 1.374 . S
C436 N435 1.376 . S
C436 C437 1.443 . S
C436 C463 1.389 . S
C437 C436 1.443 . S
C437 C438 1.340 . S
C437 H469 0.951 . S
C438 C437 1.340 . S
C438 C439 1.439 . S
C438 H470 0.950 . S
C439 N435 1.374 . S
C439 C438 1.439 . S
C439 C464 1.395 . S
N440 Co429 1.995 . S
N440 C441 1.376 . S
N440 C444 1.383 . S
C441 N440 1.376 . S
C441 C442 1.446 . S
C441 C464 1.391 . S
C442 C441 1.446 . S
C442 C443 1.339 . S
C442 H471 0.949 . S
C443 C442 1.339 . S
C443 C444 1.439 . S
C443 H472 0.950 . S
C444 N440 1.383 . S
C444 C443 1.439 . S
C444 C462 1.392 . S
N445 Co429 2.282 . S
N445 C448 1.332 . S
N445 C450 1.332 . S
C446 C447 1.386 . S
C446 C449 1.388 . S
C447 C446 1.386 . S
C447 C448 1.382 . S
C447 H473 0.950 . S
C448 N445 1.332 . S
C448 C447 1.382 . S
C448 H459 0.952 . S
C449 C446 1.388 . S
C449 C450 1.382 . S
C449 H474 0.950 . S
C450 N445 1.332 . S
C450 C449 1.382 . S
C450 H460 0.948 . S
N451 Co429 2.282 . S
N451 C455 1.332 . S
N451 C456 1.332 . S
C452 C453 1.388 . S
C452 C456 1.382 . S
C452 H475 0.950 . S
C453 C452 1.388 . S
C453 C454 1.386 . S
C454 C453 1.386 . S
C454 C455 1.382 . S
C454 H476 0.950 . S
C455 N451 1.332 . S
C455 C454 1.382 . S
C455 H457 0.952 . S
C456 N451 1.332 . S
C456 C452 1.382 . S
C456 H458 0.948 . S
H457 C455 0.952 . S
H458 C456 0.948 . S
H459 C448 0.952 . S
H460 C450 0.948 . S
C461 C427 1.395 . S
C461 C431 1.391 . S
C462 C424 1.389 . S
C462 C444 1.392 . S
C463 C434 1.392 . S
C463 C436 1.389 . S
C464 C439 1.395 . S
C464 C441 1.391 . S
H465 C425 0.951 . S
H466 C426 0.950 . S
H467 C432 0.949 . S
H468 C433 0.950 . S
H469 C437 0.951 . S
H470 C438 0.950 . S
H471 C442 0.949 . S
H472 C443 0.950 . S
H473 C447 0.950 . S
H474 C449 0.950 . S
H475 C452 0.950 . S
H476 C454 0.950 . S
C477 C478 1.443 . S
C477 N481 1.376 . S
C477 C515 1.389 1_556 S
C478 C477 1.443 . S
C478 C479 1.340 . S
C478 H518 0.951 . S
C479 C478 1.340 . S
C479 C480 1.439 . S
C479 H519 0.950 . S
C480 C479 1.439 . S
C480 N481 1.374 . S
C480 C514 1.395 . S
N481 C477 1.376 . S
N481 C480 1.374 . S
N481 Co482 2.008 . S
Co482 N481 2.008 . S
Co482 N483 1.995 . S
Co482 N488 2.008 . S
Co482 N493 1.995 . S
Co482 N498 2.282 . S
Co482 N504 2.282 . S
N483 Co482 1.995 . S
N483 C484 1.376 . S
N483 C487 1.383 . S
C484 N483 1.376 . S
C484 C485 1.446 . S
C484 C514 1.391 . S
C485 C484 1.446 . S
C485 C486 1.339 . S
C485 H520 0.949 . S
C486 C485 1.339 . S
C486 C487 1.439 . S
C486 H521 0.950 . S
C487 N483 1.383 . S
C487 C486 1.439 . S
C487 C516 1.392 . S
N488 Co482 2.008 . S
N488 C489 1.376 . S
N488 C492 1.374 . S
C489 N488 1.376 . S
C489 C490 1.443 . S
C489 C516 1.389 . S
C490 C489 1.443 . S
C490 C491 1.340 . S
C490 H522 0.951 . S
C491 C490 1.340 . S
C491 C492 1.439 . S
C491 H523 0.950 . S
C492 N488 1.374 . S
C492 C491 1.439 . S
C492 C517 1.395 . S
N493 Co482 1.995 . S
N493 C494 1.376 1_556 S
N493 C497 1.383 1_556 S
C494 N493 1.376 1_554 S
C494 C495 1.446 . S
C494 C517 1.391 1_554 S
C495 C494 1.446 . S
C495 C496 1.339 . S
C495 H524 0.949 . S
C496 C495 1.339 . S
C496 C497 1.439 . S
C496 H525 0.950 . S
C497 N493 1.383 1_554 S
C497 C496 1.439 . S
C497 C515 1.392 . S
N498 Co482 2.282 . S
N498 C501 1.332 . S
N498 C503 1.332 . S
C499 C500 1.386 . S
C499 C502 1.388 . S
C500 C499 1.386 . S
C500 C501 1.382 . S
C500 H526 0.950 . S
C501 N498 1.332 . S
C501 C500 1.382 . S
C501 H512 0.952 . S
C502 C499 1.388 . S
C502 C503 1.382 . S
C502 H527 0.950 . S
C503 N498 1.332 . S
C503 C502 1.382 . S
C503 H513 0.948 . S
N504 Co482 2.282 . S
N504 C508 1.332 . S
N504 C509 1.332 . S
C505 C506 1.388 . S
C505 C509 1.382 . S
C505 H528 0.950 . S
C506 C505 1.388 . S
C506 C507 1.386 . S
C507 C506 1.386 . S
C507 C508 1.382 . S
C507 H529 0.950 . S
C508 N504 1.332 . S
C508 C507 1.382 . S
C508 H510 0.952 . S
C509 N504 1.332 . S
C509 C505 1.382 . S
C509 H511 0.948 . S
H510 C508 0.952 . S
H511 C509 0.948 . S
H512 C501 0.952 . S
H513 C503 0.948 . S
C514 C480 1.395 . S
C514 C484 1.391 . S
C515 C477 1.389 1_554 S
C515 C497 1.392 . S
C516 C487 1.392 . S
C516 C489 1.389 . S
C517 C492 1.395 . S
C517 C494 1.391 1_556 S
H518 C478 0.951 . S
H519 C479 0.950 . S
H520 C485 0.949 . S
H521 C486 0.950 . S
H522 C490 0.951 . S
H523 C491 0.950 . S
H524 C495 0.949 . S
H525 C496 0.950 . S
H526 C500 0.950 . S
H527 C502 0.950 . S
H528 C505 0.950 . S
H529 C507 0.950 . S
C530 C531 1.443 . S
C530 N534 1.376 . S
C530 C568 1.389 . S
C531 C530 1.443 . S
C531 C532 1.340 . S
C531 H571 0.951 . S
C532 C531 1.340 . S
C532 C533 1.439 . S
C532 H572 0.950 . S
C533 C532 1.439 . S
C533 N534 1.374 . S
C533 C567 1.395 . S
N534 C530 1.376 . S
N534 C533 1.374 . S
N534 Co535 2.008 . S
Co535 N534 2.008 . S
Co535 N536 1.995 . S
Co535 N541 2.008 . S
Co535 N546 1.995 . S
Co535 N551 2.282 . S
Co535 N557 2.282 . S
N536 Co535 1.995 . S
N536 C537 1.385 . S
N536 C540 1.383 1_554 S
C537 N536 1.385 . S
C537 C538 1.428 1_554 S
C537 C567 1.400 . S
C538 C537 1.428 1_556 S
C538 C539 1.339 . S
C538 H573 0.949 . S
C539 C538 1.339 . S
C539 C540 1.439 . S
C539 H574 0.950 . S
C540 N536 1.383 1_556 S
C540 C539 1.439 . S
C540 C569 1.392 . S
N541 Co535 2.008 . S
N541 C542 1.376 . S
N541 C545 1.374 . S
C542 N541 1.376 . S
C542 C543 1.443 . S
C542 C569 1.389 1_554 S
C543 C542 1.443 . S
C543 C544 1.340 . S
C543 H575 0.951 . S
C544 C543 1.340 . S
C544 C545 1.439 . S
C544 H576 0.950 . S
C545 N541 1.374 . S
C545 C544 1.439 . S
C545 C570 1.395 . S
N546 Co535 1.995 . S
N546 C547 1.376 . S
N546 C550 1.383 . S
C547 N546 1.376 . S
C547 C548 1.446 . S
C547 C570 1.391 . S
C548 C547 1.446 . S
C548 C549 1.339 . S
C548 H577 0.949 . S
C549 C548 1.339 . S
C549 C550 1.439 . S
C549 H578 0.950 . S
C550 N546 1.383 . S
C550 C549 1.439 . S
C550 C568 1.392 . S
N551 Co535 2.282 . S
N551 C554 1.332 . S
N551 C556 1.332 . S
C552 C553 1.386 . S
C552 C555 1.388 . S
C553 C552 1.386 . S
C553 C554 1.382 . S
C553 H579 0.950 . S
C554 N551 1.332 . S
C554 C553 1.382 . S
C554 H565 0.952 . S
C555 C552 1.388 . S
C555 C556 1.382 . S
C555 H580 0.950 . S
C556 N551 1.332 . S
C556 C555 1.382 . S
C556 H566 0.948 . S
N557 Co535 2.282 . S
N557 C561 1.332 . S
N557 C562 1.332 . S
C558 C559 1.388 . S
C558 C562 1.382 . S
C558 H581 0.950 . S
C559 C558 1.388 . S
C559 C560 1.386 . S
C560 C559 1.386 . S
C560 C561 1.382 . S
C560 H582 0.950 . S
C561 N557 1.332 . S
C561 C560 1.382 . S
C561 H563 0.952 . S
C562 N557 1.332 . S
C562 C558 1.382 . S
C562 H564 0.948 . S
H563 C561 0.952 . S
H564 C562 0.948 . S
H565 C554 0.952 . S
H566 C556 0.948 . S
C567 C533 1.395 . S
C567 C537 1.400 . S
C568 C530 1.389 . S
C568 C550 1.392 . S
C569 C540 1.392 . S
C569 C542 1.389 1_556 S
C570 C545 1.395 . S
C570 C547 1.391 . S
H571 C531 0.951 . S
H572 C532 0.950 . S
H573 C538 0.949 . S
H574 C539 0.950 . S
H575 C543 0.951 . S
H576 C544 0.950 . S
H577 C548 0.949 . S
H578 C549 0.950 . S
H579 C553 0.950 . S
H580 C555 0.950 . S
H581 C558 0.950 . S
H582 C560 0.950 . S
C583 C584 1.443 . S
C583 N587 1.376 . S
C583 C621 1.389 . S
C584 C583 1.443 . S
C584 C585 1.340 . S
C584 H624 0.951 . S
C585 C584 1.340 . S
C585 C586 1.439 . S
C585 H625 0.950 . S
C586 C585 1.439 . S
C586 N587 1.374 . S
C586 C620 1.395 . S
N587 C583 1.376 . S
N587 C586 1.374 . S
N587 Co588 2.008 . S
Co588 N587 2.008 . S
Co588 N589 1.995 . S
Co588 N594 2.008 . S
Co588 N599 1.995 . S
Co588 N604 2.282 . S
Co588 N610 2.282 . S
N589 Co588 1.995 . S
N589 C590 1.376 . S
N589 C593 1.383 . S
C590 N589 1.376 . S
C590 C591 1.446 . S
C590 C620 1.391 . S
C591 C590 1.446 . S
C591 C592 1.339 . S
C591 H626 0.949 . S
C592 C591 1.339 . S
C592 C593 1.439 . S
C592 H627 0.950 . S
C593 N589 1.383 . S
C593 C592 1.439 . S
C593 C622 1.392 . S
N594 Co588 2.008 . S
N594 C595 1.376 . S
N594 C598 1.374 . S
C595 N594 1.376 . S
C595 C596 1.443 . S
C595 C622 1.389 . S
C596 C595 1.443 . S
C596 C597 1.340 . S
C596 H628 0.951 . S
C597 C596 1.340 . S
C597 C598 1.439 . S
C597 H629 0.950 . S
C598 N594 1.374 . S
C598 C597 1.439 . S
C598 C623 1.395 . S
N599 Co588 1.995 . S
N599 C600 1.376 . S
N599 C603 1.383 . S
C600 N599 1.376 . S
C600 C601 1.446 . S
C600 C623 1.391 . S
C601 C600 1.446 . S
C601 C602 1.339 . S
C601 H630 0.949 . S
C602 C601 1.339 . S
C602 C603 1.439 . S
C602 H631 0.950 . S
C603 N599 1.383 . S
C603 C602 1.439 . S
C603 C621 1.392 . S
N604 Co588 2.282 . S
N604 C607 1.332 . S
N604 C609 1.332 . S
C605 C606 1.386 . S
C605 C608 1.388 . S
C606 C605 1.386 . S
C606 C607 1.382 . S
C606 H632 0.950 . S
C607 N604 1.332 . S
C607 C606 1.382 . S
C607 H618 0.952 . S
C608 C605 1.388 . S
C608 C609 1.382 . S
C608 H633 0.950 . S
C609 N604 1.332 . S
C609 C608 1.382 . S
C609 H619 0.948 . S
N610 Co588 2.282 . S
N610 C614 1.332 . S
N610 C615 1.332 . S
C611 C612 1.388 . S
C611 C615 1.382 . S
C611 H634 0.950 . S
C612 C611 1.388 . S
C612 C613 1.386 . S
C613 C612 1.386 . S
C613 C614 1.382 . S
C613 H635 0.950 . S
C614 N610 1.332 . S
C614 C613 1.382 . S
C614 H616 0.952 . S
C615 N610 1.332 . S
C615 C611 1.382 . S
C615 H617 0.948 . S
H616 C614 0.952 . S
H617 C615 0.948 . S
H618 C607 0.952 . S
H619 C609 0.948 . S
C620 C586 1.395 . S
C620 C590 1.391 . S
C621 C583 1.389 . S
C621 C603 1.392 . S
C622 C593 1.392 . S
C622 C595 1.389 . S
C623 C598 1.395 . S
C623 C600 1.391 . S
H624 C584 0.951 . S
H625 C585 0.950 . S
H626 C591 0.949 . S
H627 C592 0.950 . S
H628 C596 0.951 . S
H629 C597 0.950 . S
H630 C601 0.949 . S
H631 C602 0.950 . S
H632 C606 0.950 . S
H633 C608 0.950 . S
H634 C611 0.950 . S
H635 C613 0.950 . S
C636 C637 1.387 . S
C636 H640 0.950 . S
C636 C645 1.390 . S
C637 C636 1.387 . S
C637 C639 1.387 . S
H638 C645 0.950 . S
C639 C637 1.387 . S
C639 C641 1.390 . S
C639 H643 0.950 . S
H640 C636 0.950 . S
C641 C639 1.390 . S
C641 C642 1.387 . S
C641 H644 0.950 . S
C642 C641 1.387 . S
C642 C645 1.387 . S
H643 C639 0.950 . S
H644 C641 0.950 . S
C645 C636 1.390 . S
C645 H638 0.950 . S
C645 C642 1.387 . S
C646 C647 1.387 . S
C646 H650 0.950 . S
C646 C655 1.390 . S
C647 C646 1.387 . S
C647 C649 1.387 . S
H648 C655 0.950 . S
C649 C647 1.387 . S
C649 C651 1.390 . S
C649 H653 0.950 . S
H650 C646 0.950 . S
C651 C649 1.390 . S
C651 C652 1.387 . S
C651 H654 0.950 . S
C652 C651 1.387 . S
C652 C655 1.387 . S
H653 C649 0.950 . S
H654 C651 0.950 . S
C655 C646 1.390 . S
C655 H648 0.950 . S
C655 C652 1.387 . S
C656 C657 1.387 . S
C656 H660 0.950 . S
C656 C665 1.390 . S
C657 C656 1.387 . S
C657 C659 1.387 . S
H658 C665 0.950 . S
C659 C657 1.387 . S
C659 C661 1.390 . S
C659 H663 0.950 . S
H660 C656 0.950 . S
C661 C659 1.390 . S
C661 C662 1.387 . S
C661 H664 0.950 . S
C662 C661 1.387 . S
C662 C665 1.387 . S
H663 C659 0.950 . S
H664 C661 0.950 . S
C665 C656 1.390 . S
C665 H658 0.950 . S
C665 C662 1.387 . S
C666 C667 1.387 . S
C666 H670 0.950 . S
C666 C675 1.390 . S
C667 C666 1.387 . S
C667 C669 1.387 . S
H668 C675 0.950 . S
C669 C667 1.387 . S
C669 C671 1.390 . S
C669 H673 0.950 . S
H670 C666 0.950 . S
C671 C669 1.390 . S
C671 C672 1.387 . S
C671 H674 0.950 . S
C672 C671 1.387 . S
C672 C675 1.387 . S
H673 C669 0.950 . S
H674 C671 0.950 . S
C675 C666 1.390 . S
C675 H668 0.950 . S
C675 C672 1.387 . S
C676 C677 1.387 . S
C676 H680 0.950 . S
C676 C685 1.390 . S
C677 C676 1.387 . S
C677 C679 1.387 . S
H678 C685 0.950 . S
C679 C677 1.387 . S
C679 C681 1.390 . S
C679 H683 0.950 . S
H680 C676 0.950 . S
C681 C679 1.390 . S
C681 C682 1.387 . S
C681 H684 0.950 . S
C682 C681 1.387 . S
C682 C685 1.387 . S
H683 C679 0.950 . S
H684 C681 0.950 . S
C685 C676 1.390 . S
C685 H678 0.950 . S
C685 C682 1.387 . S
C686 C687 1.387 . S
C686 H690 0.950 . S
C686 C695 1.390 . S
C687 C686 1.387 . S
C687 C689 1.387 . S
H688 C695 0.950 . S
C689 C687 1.387 . S
C689 C691 1.390 . S
C689 H693 0.950 . S
H690 C686 0.950 . S
C691 C689 1.390 . S
C691 C692 1.387 . S
C691 H694 0.950 . S
C692 C691 1.387 . S
C692 C695 1.387 . S
H693 C689 0.950 . S
H694 C691 0.950 . S
C695 C686 1.390 . S
C695 H688 0.950 . S
C695 C692 1.387 . S
C696 C697 1.387 . S
C696 H700 0.950 . S
C696 C705 1.390 . S
C697 C696 1.387 . S
C697 C699 1.387 . S
H698 C705 0.950 . S
C699 C697 1.387 . S
C699 C701 1.390 . S
C699 H703 0.950 . S
H700 C696 0.950 . S
C701 C699 1.390 . S
C701 C702 1.387 . S
C701 H704 0.950 . S
C702 C701 1.387 . S
C702 C705 1.387 . S
H703 C699 0.950 . S
H704 C701 0.950 . S
C705 C696 1.390 . S
C705 H698 0.950 . S
C705 C702 1.387 . S
C706 C707 1.387 . S
C706 H710 0.950 . S
C706 C715 1.390 . S
C707 C706 1.387 . S
C707 C709 1.387 . S
H708 C715 0.950 . S
C709 C707 1.387 . S
C709 C711 1.390 . S
C709 H713 0.950 . S
H710 C706 0.950 . S
C711 C709 1.390 . S
C711 C712 1.387 . S
C711 H714 0.950 . S
C712 C711 1.387 . S
C712 C715 1.387 . S
H713 C709 0.950 . S
H714 C711 0.950 . S
C715 C706 1.390 . S
C715 H708 0.950 . S
C715 C712 1.387 . S
C716 C717 1.387 . S
C716 H720 0.950 . S
C716 C725 1.390 . S
C717 C716 1.387 . S
C717 C719 1.387 . S
H718 C725 0.950 . S
C719 C717 1.387 . S
C719 C721 1.390 . S
C719 H723 0.950 . S
H720 C716 0.950 . S
C721 C719 1.390 . S
C721 C722 1.387 . S
C721 H724 0.950 . S
C722 C721 1.387 . S
C722 C725 1.387 . S
H723 C719 0.950 . S
H724 C721 0.950 . S
C725 C716 1.390 . S
C725 H718 0.950 . S
C725 C722 1.387 . S
C726 C727 1.387 . S
C726 H730 0.950 . S
C726 C735 1.390 . S
C727 C726 1.387 . S
C727 C729 1.387 . S
H728 C735 0.950 . S
C729 C727 1.387 . S
C729 C731 1.390 . S
C729 H733 0.950 . S
H730 C726 0.950 . S
C731 C729 1.390 . S
C731 C732 1.387 . S
C731 H734 0.950 . S
C732 C731 1.387 . S
C732 C735 1.387 . S
H733 C729 0.950 . S
H734 C731 0.950 . S
C735 C726 1.390 . S
C735 H728 0.950 . S
C735 C732 1.387 . S
C736 C737 1.387 . S
C736 H740 0.950 . S
C736 C745 1.390 . S
C737 C736 1.387 . S
C737 C739 1.387 . S
H738 C745 0.950 . S
C739 C737 1.387 . S
C739 C741 1.390 . S
C739 H743 0.950 . S
H740 C736 0.950 . S
C741 C739 1.390 . S
C741 C742 1.387 . S
C741 H744 0.950 . S
C742 C741 1.387 . S
C742 C745 1.387 . S
H743 C739 0.950 . S
H744 C741 0.950 . S
C745 C736 1.390 . S
C745 H738 0.950 . S
C745 C742 1.387 . S
C746 C747 1.387 . S
C746 H750 0.950 . S
C746 C755 1.390 . S
C747 C746 1.387 . S
C747 C749 1.387 . S
H748 C755 0.950 . S
C749 C747 1.387 . S
C749 C751 1.390 . S
C749 H753 0.950 . S
H750 C746 0.950 . S
C751 C749 1.390 . S
C751 C752 1.387 . S
C751 H754 0.950 . S
C752 C751 1.387 . S
C752 C755 1.387 . S
H753 C749 0.950 . S
H754 C751 0.950 . S
C755 C746 1.390 . S
C755 H748 0.950 . S
C755 C752 1.387 . S
C756 C757 1.387 . S
C756 H760 0.950 . S
C756 C765 1.390 1_655 S
C757 C756 1.387 . S
C757 C759 1.387 . S
H758 C765 0.950 . S
C759 C757 1.387 . S
C759 C761 1.390 1_655 S
C759 H763 0.950 . S
H760 C756 0.950 . S
C761 C759 1.390 1_455 S
C761 C762 1.387 . S
C761 H764 0.950 . S
C762 C761 1.387 . S
C762 C765 1.387 . S
H763 C759 0.950 . S
H764 C761 0.950 . S
C765 C756 1.390 1_455 S
C765 H758 0.950 . S
C765 C762 1.387 . S
C766 C767 1.387 . S
C766 H770 0.950 . S
C766 C775 1.390 1_565 S
C767 C766 1.387 . S
C767 C769 1.387 . S
H768 C775 0.950 . S
C769 C767 1.387 . S
C769 C771 1.390 1_565 S
C769 H773 0.950 . S
H770 C766 0.950 . S
C771 C769 1.390 1_545 S
C771 C772 1.387 . S
C771 H774 0.950 . S
C772 C771 1.387 . S
C772 C775 1.387 . S
H773 C769 0.950 . S
H774 C771 0.950 . S
C775 C766 1.390 1_545 S
C775 H768 0.950 . S
C775 C772 1.387 . S
C776 C777 1.387 . S
C776 H780 0.950 . S
C776 C785 1.390 . S
C777 C776 1.387 . S
C777 C779 1.387 . S
H778 C785 0.950 . S
C779 C777 1.387 . S
C779 C781 1.390 . S
C779 H783 0.950 . S
H780 C776 0.950 . S
C781 C779 1.390 . S
C781 C782 1.387 . S
C781 H784 0.950 . S
C782 C781 1.387 . S
C782 C785 1.387 . S
H783 C779 0.950 . S
H784 C781 0.950 . S
C785 C776 1.390 . S
C785 H778 0.950 . S
C785 C782 1.387 . S
C786 C787 1.387 . S
C786 H790 0.950 . S
C786 C795 1.390 1_455 S
C787 C786 1.387 . S
C787 C789 1.387 . S
H788 C795 0.950 . S
C789 C787 1.387 . S
C789 C791 1.390 1_455 S
C789 H793 0.950 . S
H790 C786 0.950 . S
C791 C789 1.390 1_655 S
C791 C792 1.387 . S
C791 H794 0.950 . S
C792 C791 1.387 . S
C792 C795 1.387 . S
H793 C789 0.950 . S
H794 C791 0.950 . S
C795 C786 1.390 1_655 S
C795 H788 0.950 . S
C795 C792 1.387 . S
C796 C797 1.387 . S
C796 H800 0.950 . S
C796 C805 1.390 1_546 S
C797 C796 1.387 . S
C797 C799 1.387 . S
H798 C805 0.950 . S
C799 C797 1.387 . S
C799 C801 1.390 1_546 S
C799 H803 0.950 . S
H800 C796 0.950 . S
C801 C799 1.390 1_564 S
C801 C802 1.387 . S
C801 H804 0.950 . S
C802 C801 1.387 . S
C802 C805 1.387 . S
H803 C799 0.950 . S
H804 C801 0.950 . S
C805 C796 1.390 1_564 S
C805 H798 0.950 . S
C805 C802 1.387 . S
C806 C807 1.387 . S
C806 H810 0.950 . S
C806 C815 1.390 . S
C807 C806 1.387 . S
C807 C809 1.387 . S
H808 C815 0.950 . S
C809 C807 1.387 . S
C809 C811 1.390 . S
C809 H813 0.950 . S
H810 C806 0.950 . S
C811 C809 1.390 . S
C811 C812 1.387 . S
C811 H814 0.950 . S
C812 C811 1.387 . S
C812 C815 1.387 . S
H813 C809 0.950 . S
H814 C811 0.950 . S
C815 C806 1.390 . S
C815 H808 0.950 . S
C815 C812 1.387 . S
C816 C817 1.387 . S
C816 H820 0.950 . S
C816 C825 1.390 . S
C817 C816 1.387 . S
C817 C819 1.387 . S
H818 C825 0.950 . S
C819 C817 1.387 . S
C819 C821 1.390 . S
C819 H823 0.950 . S
H820 C816 0.950 . S
C821 C819 1.390 . S
C821 C822 1.387 . S
C821 H824 0.950 . S
C822 C821 1.387 . S
C822 C825 1.387 . S
H823 C819 0.950 . S
H824 C821 0.950 . S
C825 C816 1.390 . S
C825 H818 0.950 . S
C825 C822 1.387 . S
C826 C827 1.387 . S
C826 H830 0.950 . S
C826 C835 1.390 . S
C827 C826 1.387 . S
C827 C829 1.387 . S
H828 C835 0.950 . S
C829 C827 1.387 . S
C829 C831 1.390 . S
C829 H833 0.950 . S
H830 C826 0.950 . S
C831 C829 1.390 . S
C831 C832 1.387 . S
C831 H834 0.950 . S
C832 C831 1.387 . S
C832 C835 1.387 . S
H833 C829 0.950 . S
H834 C831 0.950 . S
C835 C826 1.390 . S
C835 H828 0.950 . S
C835 C832 1.387 . S
C836 C837 1.387 . S
C836 H840 0.950 . S
C836 C845 1.390 . S
C837 C836 1.387 . S
C837 C839 1.387 . S
H838 C845 0.950 . S
C839 C837 1.387 . S
C839 C841 1.390 . S
C839 H843 0.950 . S
H840 C836 0.950 . S
C841 C839 1.390 . S
C841 C842 1.387 . S
C841 H844 0.950 . S
C842 C841 1.387 . S
C842 C845 1.387 . S
H843 C839 0.950 . S
H844 C841 0.950 . S
C845 C836 1.390 . S
C845 H838 0.950 . S
C845 C842 1.387 . S
C846 C847 1.387 . S
C846 H850 0.950 . S
C846 C855 1.390 . S
C847 C846 1.387 . S
C847 C849 1.387 . S
H848 C855 0.950 . S
C849 C847 1.387 . S
C849 C851 1.390 . S
C849 H853 0.950 . S
H850 C846 0.950 . S
C851 C849 1.390 . S
C851 C852 1.387 . S
C851 H854 0.950 . S
C852 C851 1.387 . S
C852 C855 1.387 . S
H853 C849 0.950 . S
H854 C851 0.950 . S
C855 C846 1.390 . S
C855 H848 0.950 . S
C855 C852 1.387 . S
C856 C857 1.387 . S
C856 H860 0.950 . S
C856 C865 1.390 . S
C857 C856 1.387 . S
C857 C859 1.387 . S
H858 C865 0.950 . S
C859 C857 1.387 . S
C859 C861 1.390 . S
C859 H863 0.950 . S
H860 C856 0.950 . S
C861 C859 1.390 . S
C861 C862 1.387 . S
C861 H864 0.950 . S
C862 C861 1.387 . S
C862 C865 1.387 . S
H863 C859 0.950 . S
H864 C861 0.950 . S
C865 C856 1.390 . S
C865 H858 0.950 . S
C865 C862 1.387 . S
C866 C867 1.387 . S
C866 H870 0.950 . S
C866 C875 1.390 . S
C867 C866 1.387 . S
C867 C869 1.387 . S
H868 C875 0.950 . S
C869 C867 1.387 . S
C869 C871 1.390 . S
C869 H873 0.950 . S
H870 C866 0.950 . S
C871 C869 1.390 . S
C871 C872 1.387 . S
C871 H874 0.950 . S
C872 C871 1.387 . S
C872 C875 1.387 . S
H873 C869 0.950 . S
H874 C871 0.950 . S
C875 C866 1.390 . S
C875 H868 0.950 . S
C875 C872 1.387 . S
C637 C29 1.587 . S
C642 C347 1.585 . S
C647 C82 1.587 . S
C652 C400 1.585 . S
C657 C453 1.586 . S
C662 C135 1.586 . S
C667 C188 1.585 . S
C672 C506 1.586 . S
C677 C241 1.585 . S
C682 C559 1.587 . S
C687 C612 1.586 . S
C692 C294 1.586 . S
C697 C463 1.521 . S
C702 C39 1.524 . S
C707 C92 1.523 . S
C712 C516 1.523 . S
C717 C569 1.522 . S
C722 C145 1.524 . S
C727 C622 1.521 . S
C732 C198 1.522 . S
C737 C251 1.523 . S
C742 C357 1.523 . S
C747 C304 1.521 . S
C752 C410 1.524 . S
C757 C605 2.131 . S
C762 C22 2.131 . S
C767 C340 2.128 . S
C772 C75 2.128 . S
C777 C128 2.128 . S
C782 C393 2.129 . S
C787 C446 2.128 . S
C792 C181 2.128 . S
C797 C499 2.128 . S
C802 C234 2.128 . S
C807 C552 2.130 . S
C812 C287 2.131 . S
C817 C38 1.846 . S
C822 C568 1.846 . S
C827 C621 1.846 . S
C832 C91 1.846 . S
C837 C144 1.845 . S
C842 C356 1.844 . S
C847 C197 1.844 . S
C852 C409 1.844 . S
C857 C250 1.844 . S
C862 C462 1.845 . S
C867 C303 1.845 . S
C872 C515 1.845 . S
