# Generated by pormake.
# Topology rac, (4)-cn, num edge types: 1
# Building blocks:
#     Node 0, Type 0, BuildingBlock: UXUYUI_clean_sbu_0, # of connection points: 4
#     Node 1, Type 0, BuildingBlock: UXUYUI_clean_sbu_0, # of connection points: 4
#     Node 2, Type 0, BuildingBlock: UXUYUI_clean_sbu_0, # of connection points: 4
#     Node 3, Type 0, BuildingBlock: UXUYUI_clean_sbu_0, # of connection points: 4
#     Node 4, Type 0, BuildingBlock: UXUYUI_clean_sbu_0, # of connection points: 4
#     Node 5, Type 0, BuildingBlock: UXUYUI_clean_sbu_0, # of connection points: 4
#     Node 6, Type 0, BuildingBlock: UXUYUI_clean_sbu_0, # of connection points: 4
#     Node 7, Type 0, BuildingBlock: UXUYUI_clean_sbu_0, # of connection points: 4
#     Edge 8, Type (0, 0), BuildingBlock: EZIPEK_clean_linker_0, # of connection points: 2
#     Edge 9, Type (0, 0), BuildingBlock: EZIPEK_clean_linker_0, # of connection points: 2
#     Edge 10, Type (0, 0), BuildingBlock: EZIPEK_clean_linker_0, # of connection points: 2
#     Edge 11, Type (0, 0), BuildingBlock: EZIPEK_clean_linker_0, # of connection points: 2
#     Edge 12, Type (0, 0), BuildingBlock: EZIPEK_clean_linker_0, # of connection points: 2
#     Edge 13, Type (0, 0), BuildingBlock: EZIPEK_clean_linker_0, # of connection points: 2
#     Edge 14, Type (0, 0), BuildingBlock: EZIPEK_clean_linker_0, # of connection points: 2
#     Edge 15, Type (0, 0), BuildingBlock: EZIPEK_clean_linker_0, # of connection points: 2
#     Edge 16, Type (0, 0), BuildingBlock: EZIPEK_clean_linker_0, # of connection points: 2
#     Edge 17, Type (0, 0), BuildingBlock: EZIPEK_clean_linker_0, # of connection points: 2
#     Edge 18, Type (0, 0), BuildingBlock: EZIPEK_clean_linker_0, # of connection points: 2
#     Edge 19, Type (0, 0), BuildingBlock: EZIPEK_clean_linker_0, # of connection points: 2
#     Edge 20, Type (0, 0), BuildingBlock: EZIPEK_clean_linker_0, # of connection points: 2
#     Edge 21, Type (0, 0), BuildingBlock: EZIPEK_clean_linker_0, # of connection points: 2
#     Edge 22, Type (0, 0), BuildingBlock: EZIPEK_clean_linker_0, # of connection points: 2
#     Edge 23, Type (0, 0), BuildingBlock: EZIPEK_clean_linker_0, # of connection points: 2
# Relax obj value: 0.361
# Max RMSD: 0.174
# Mean RMSD: 0.174
data_MOF--net-rac--node1-UXUYUI_clean_sbu_0--edge1-EZIPEK_clean_linker_0
_symmetry_space_group_name_H-M    P1
_symmetry_Int_Tables_number       1
_symmetry_cell_setting            triclinic
loop_
_symmetry_equiv_pos_as_xyz
'x, y, z'
_cell_length_a     46.931396
_cell_length_b     24.130607
_cell_length_c     50.607701
_cell_angle_alpha  90.007944
_cell_angle_beta   90.01156
_cell_angle_gamma 89.980148
loop_
_atom_site_label
_atom_site_type_symbol
_atom_site_fract_x
_atom_site_fract_y
_atom_site_fract_z
_atom_type_partial_charge
Li0 Li 0.41337 0.27904 0.06181 0.0
Li1 Li 0.40556 0.24234 0.10819 0.0
Li2 Li 0.37467 0.20841 0.07107 0.0
Li3 Li 0.3722 0.30097 0.08606 0.0
C4 C 0.44445 0.17868 0.07442 0.0
N5 N 0.49927 0.13716 0.0725 0.0
C6 C 0.4663 0.20484 0.08837 0.0
C7 C 0.45041 0.13127 0.05956 0.0
C8 C 0.4939 0.18328 0.08713 0.0
C9 C 0.47828 0.11094 0.05881 0.0
C10 C 0.40874 0.36991 0.10608 0.0
C11 C 0.39563 0.42993 0.14222 0.0
N12 N 0.40052 0.47482 0.12662 0.0
C13 C 0.4137 0.41664 0.09045 0.0
C14 C 0.3997 0.37654 0.13221 0.0
C15 C 0.40941 0.46932 0.10118 0.0
C16 C 0.42723 0.35652 0.02209 0.0
N17 N 0.43968 0.31992 0.03908 0.0
C18 C 0.48463 0.36632 0.03378 0.0
C19 C 0.46803 0.32364 0.04469 0.0
C20 C 0.47184 0.40591 0.01726 0.0
C21 C 0.44298 0.39978 0.01087 0.0
H22 H 0.40452 0.35533 0.01891 0.0
H23 H 0.47746 0.29618 0.05904 0.0
C24 C 0.41046 0.18857 0.15789 0.0
N25 N 0.42201 0.22787 0.14205 0.0
C26 C 0.41896 0.18406 0.18431 0.0
C27 C 0.4508 0.26086 0.17773 0.0
C28 C 0.44177 0.26379 0.15148 0.0
C29 C 0.44052 0.21894 0.19484 0.0
H30 H 0.39355 0.16251 0.15038 0.0
H31 H 0.44944 0.29693 0.13897 0.0
C32 C 0.37313 0.26165 0.02286 0.0
N33 N 0.37285 0.23105 0.97023 0.0
C34 C 0.35407 0.28649 0.00524 0.0
C35 C 0.39212 0.22136 0.01368 0.0
C36 C 0.35423 0.27042 0.97872 0.0
C37 C 0.39163 0.20645 0.98701 0.0
C38 C 0.33514 0.22582 0.11062 0.0
C39 C 0.31552 0.2422 0.09133 0.0
C40 C 0.32546 0.19988 0.13361 0.0
C41 C 0.28654 0.23215 0.09533 0.0
C42 C 0.29629 0.19054 0.13687 0.0
N43 N 0.2776 0.20671 0.11782 0.0
C44 C 0.34868 0.10096 0.07584 0.0
C45 C 0.32858 0.15674 0.04258 0.0
C46 C 0.32696 0.06146 0.07256 0.0
N47 N 0.34947 0.1473 0.06064 0.0
C48 C 0.30656 0.1184 0.03871 0.0
C49 C 0.30598 0.06729 0.0525 0.0
H50 H 0.36395 0.09621 0.09171 0.0
H51 H 0.32762 0.19596 0.03241 0.0
C52 C 0.3443 0.39402 0.06941 0.0
N53 N 0.34733 0.36011 0.09062 0.0
C54 C 0.3244 0.43654 0.07003 0.0
C55 C 0.31202 0.40939 0.11474 0.0
C56 C 0.33227 0.36743 0.11327 0.0
C57 C 0.30773 0.44339 0.09269 0.0
H58 H 0.35689 0.38701 0.05183 0.0
H59 H 0.33547 0.33977 0.12982 0.0
O60 O 0.41719 0.19852 0.07561 0.0
O61 O 0.41216 0.31792 0.09573 0.0
O62 O 0.37302 0.27733 0.04887 0.0
O63 O 0.3637 0.23488 0.10714 0.0
H64 H 0.4621 0.24186 0.09971 0.0
H65 H 0.43365 0.11039 0.04874 0.0
H66 H 0.51106 0.2033 0.09775 0.0
H67 H 0.48322 0.07431 0.04736 0.0
H68 H 0.38843 0.43565 0.16234 0.0
H69 H 0.42055 0.41236 0.07018 0.0
H70 H 0.39532 0.34083 0.14449 0.0
H71 H 0.41309 0.50583 0.08925 0.0
H72 H 0.50683 0.37022 0.03933 0.0
H73 H 0.43237 0.42998 0.99846 0.0
H74 H 0.40713 0.15524 0.19631 0.0
H75 H 0.46445 0.29393 0.18434 0.0
H76 H 0.33925 0.31779 0.01203 0.0
H77 H 0.40714 0.20181 0.02684 0.0
H78 H 0.33956 0.28924 0.96489 0.0
H79 H 0.40619 0.17531 0.97965 0.0
H80 H 0.32256 0.26237 0.0734 0.0
H81 H 0.34033 0.18703 0.14876 0.0
H82 H 0.27117 0.24454 0.08053 0.0
H83 H 0.2885 0.17043 0.15455 0.0
H84 H 0.32624 0.02869 0.087 0.0
H85 H 0.28942 0.13142 0.02597 0.0
H86 H 0.32127 0.46244 0.05279 0.0
H87 H 0.29919 0.41411 0.13239 0.0
Li88 Li 0.09191 0.73294 0.06583 0.0
Li89 Li 0.10059 0.76365 0.11162 0.0
Li90 Li 0.12861 0.80991 0.07309 0.0
Li91 Li 0.13732 0.71419 0.08763 0.0
C92 C 0.06032 0.83165 0.07328 0.0
N93 N 0.00854 0.87554 0.05782 0.0
C94 C 0.03518 0.81436 0.08552 0.0
C95 C 0.05919 0.87188 0.05344 0.0
C96 C 0.00919 0.83688 0.07737 0.0
C97 C 0.03279 0.89337 0.04581 0.0
C98 C 0.08533 0.6521 0.11375 0.0
C99 C 0.08207 0.60098 0.15466 0.0
N100 N 0.05648 0.58021 0.14689 0.0
C101 C 0.05893 0.6303 0.10626 0.0
C102 C 0.09692 0.63747 0.13824 0.0
C103 C 0.0447 0.59405 0.12324 0.0
C104 C 0.07956 0.64453 0.0335 0.0
N105 N 0.06641 0.69082 0.04294 0.0
C106 C 0.021 0.6547 0.02936 0.0
C107 C 0.03766 0.69719 0.0405 0.0
C108 C 0.03414 0.60576 0.02041 0.0
C109 C 0.06388 0.60181 0.02182 0.0
H110 H 0.10217 0.63907 0.03658 0.0
H111 H 0.02734 0.73327 0.04865 0.0
C112 C 0.10216 0.79315 0.16584 0.0
N113 N 0.08508 0.77144 0.14671 0.0
C114 C 0.09536 0.78605 0.19254 0.0
C115 C 0.05235 0.73847 0.17937 0.0
C116 C 0.05993 0.74658 0.15296 0.0
C117 C 0.07069 0.75669 0.19941 0.0
H118 H 0.12198 0.81292 0.16043 0.0
H119 H 0.04676 0.72916 0.13757 0.0
C120 C 0.13078 0.74221 0.02457 0.0
N121 N 0.1288 0.74256 0.97003 0.0
C122 C 0.14639 0.70323 0.01017 0.0
C123 C 0.11414 0.78127 0.01128 0.0
C124 C 0.14512 0.70411 0.98259 0.0
C125 C 0.11342 0.78081 0.98369 0.0
C126 C 0.16756 0.77265 0.12026 0.0
C127 C 0.19269 0.79227 0.10873 0.0
C128 C 0.16909 0.74062 0.14324 0.0
C129 C 0.21889 0.77933 0.1203 0.0
C130 C 0.19569 0.72858 0.15422 0.0
N131 N 0.21984 0.74802 0.14262 0.0
C132 C 0.15706 0.91493 0.07947 0.0
C133 C 0.17028 0.86431 0.04131 0.0
C134 C 0.18074 0.95013 0.07639 0.0
N135 N 0.15259 0.87216 0.06233 0.0
C136 C 0.19408 0.89835 0.03755 0.0
C137 C 0.20007 0.94078 0.05565 0.0
H138 H 0.14353 0.91921 0.09665 0.0
H139 H 0.16735 0.82903 0.02852 0.0
C140 C 0.16628 0.61777 0.10427 0.0
N141 N 0.16739 0.66413 0.08912 0.0
C142 C 0.18962 0.5824 0.10533 0.0
C143 C 0.2144 0.64279 0.07472 0.0
C144 C 0.19059 0.67702 0.07431 0.0
C145 C 0.21385 0.59519 0.09046 0.0
H146 H 0.14738 0.60814 0.1154 0.0
H147 H 0.19057 0.71416 0.06234 0.0
O148 O 0.08601 0.8109 0.08132 0.0
O149 O 0.09968 0.68732 0.09716 0.0
O150 O 0.13153 0.74163 0.05158 0.0
O151 O 0.14172 0.78337 0.10871 0.0
H152 H 0.03568 0.78343 0.10092 0.0
H153 H 0.07852 0.88674 0.04418 0.0
H154 H 0.98954 0.82354 0.08655 0.0
H155 H 0.03159 0.92442 0.03043 0.0
H156 H 0.09086 0.5892 0.17359 0.0
H157 H 0.04941 0.64116 0.08757 0.0
H158 H 0.11702 0.6545 0.14469 0.0
H159 H 0.02429 0.57688 0.11761 0.0
H160 H 0.99805 0.65899 0.0287 0.0
H161 H 0.0747 0.56456 0.01534 0.0
H162 H 0.10992 0.80058 0.20763 0.0
H163 H 0.03319 0.71548 0.1841 0.0
H164 H 0.15928 0.67253 0.0202 0.0
H165 H 0.10191 0.81151 0.02217 0.0
H166 H 0.15708 0.67419 0.97116 0.0
H167 H 0.10062 0.81083 0.97314 0.0
H168 H 0.19209 0.81628 0.09075 0.0
H169 H 0.14999 0.72478 0.15241 0.0
H170 H 0.23848 0.79387 0.11145 0.0
H171 H 0.19715 0.70364 0.17193 0.0
H172 H 0.18482 0.9822 0.09087 0.0
H173 H 0.20862 0.88965 0.02145 0.0
H174 H 0.18877 0.54534 0.11739 0.0
H175 H 0.23291 0.65303 0.06292 0.0
Li176 Li 0.36749 0.21296 0.41486 0.0
Li177 Li 0.37637 0.30799 0.43182 0.0
Li178 Li 0.40487 0.26441 0.3928 0.0
Li179 Li 0.41116 0.22907 0.43748 0.0
C180 C 0.33856 0.27366 0.38283 0.0
N181 N 0.28731 0.24829 0.35874 0.0
C182 C 0.31314 0.29619 0.39239 0.0
C183 C 0.33788 0.23813 0.361 0.0
C184 C 0.28746 0.28292 0.37994 0.0
C185 C 0.31178 0.22582 0.3491 0.0
C186 C 0.37391 0.22086 0.47688 0.0
C187 C 0.39005 0.23541 0.52157 0.0
N188 N 0.38053 0.184 0.52817 0.0
C189 C 0.36409 0.16835 0.48412 0.0
C190 C 0.38683 0.25485 0.49574 0.0
C191 C 0.36771 0.15041 0.51015 0.0
C192 C 0.34012 0.116 0.39723 0.0
N193 N 0.33757 0.16316 0.41165 0.0
C194 C 0.28988 0.14113 0.42355 0.0
C195 C 0.31329 0.1762 0.42486 0.0
C196 C 0.29192 0.09253 0.40864 0.0
C197 C 0.3172 0.07978 0.39528 0.0
H198 H 0.35994 0.1063 0.38751 0.0
H199 H 0.31227 0.21383 0.43645 0.0
C200 C 0.34822 0.41377 0.42693 0.0
N201 N 0.35262 0.36965 0.44327 0.0
C202 C 0.3245 0.44862 0.43056 0.0
C203 C 0.31102 0.39368 0.46837 0.0
C204 C 0.3349 0.35999 0.46407 0.0
C205 C 0.3051 0.43758 0.45103 0.0
H206 H 0.36182 0.41942 0.40989 0.0
H207 H 0.33803 0.32363 0.4762 0.0
C208 C 0.42318 0.1577 0.38886 0.0
N209 N 0.45967 0.09786 0.35676 0.0
C210 C 0.45146 0.14869 0.39653 0.0
C211 C 0.41364 0.13675 0.36465 0.0
C212 C 0.46952 0.11823 0.38009 0.0
C213 C 0.43236 0.10645 0.34877 0.0
C214 C 0.44376 0.3215 0.43742 0.0
C215 C 0.4701 0.3041 0.42756 0.0
C216 C 0.44267 0.35381 0.46031 0.0
C217 C 0.49499 0.31909 0.44091 0.0
C218 C 0.46804 0.36778 0.47314 0.0
N219 N 0.49345 0.35029 0.46325 0.0
C220 C 0.40272 0.29388 0.33873 0.0
C221 C 0.44723 0.25684 0.35198 0.0
C222 C 0.40995 0.28754 0.3121 0.0
N223 N 0.42073 0.27596 0.35802 0.0
C224 C 0.45527 0.24943 0.32562 0.0
C225 C 0.43602 0.26293 0.30544 0.0
H226 H 0.38199 0.30992 0.34393 0.0
H227 H 0.46139 0.24344 0.3675 0.0
C228 C 0.42584 0.12957 0.45903 0.0
N229 N 0.43533 0.18289 0.46014 0.0
C230 C 0.44129 0.08648 0.47056 0.0
C231 C 0.47613 0.1533 0.48515 0.0
C232 C 0.45971 0.19562 0.47348 0.0
C233 C 0.46711 0.09779 0.48329 0.0
H234 H 0.40657 0.12013 0.44822 0.0
H235 H 0.46696 0.23798 0.47447 0.0
O236 O 0.36382 0.28456 0.39537 0.0
O237 O 0.37126 0.2386 0.45134 0.0
O238 O 0.4049 0.18651 0.40495 0.0
O239 O 0.41922 0.30831 0.42433 0.0
H240 H 0.31315 0.32274 0.40956 0.0
H241 H 0.35724 0.21942 0.3536 0.0
H242 H 0.26762 0.2998 0.38725 0.0
H243 H 0.31095 0.19813 0.33231 0.0
H244 H 0.40015 0.26115 0.53635 0.0
H245 H 0.35408 0.14152 0.46971 0.0
H246 H 0.39444 0.29565 0.49043 0.0
H247 H 0.3604 0.10972 0.51601 0.0
H248 H 0.27057 0.15131 0.43423 0.0
H249 H 0.31922 0.04193 0.38392 0.0
H250 H 0.32046 0.48183 0.41666 0.0
H251 H 0.29642 0.3837 0.48425 0.0
H252 H 0.45965 0.16565 0.41474 0.0
H253 H 0.39211 0.14428 0.35798 0.0
H254 H 0.49141 0.111 0.38583 0.0
H255 H 0.42521 0.08984 0.33006 0.0
H256 H 0.47129 0.27912 0.40988 0.0
H257 H 0.42245 0.36822 0.46797 0.0
H258 H 0.51552 0.30577 0.43355 0.0
H259 H 0.46752 0.39268 0.49091 0.0
H260 H 0.39472 0.29865 0.29691 0.0
H261 H 0.47561 0.2305 0.32105 0.0
H262 H 0.43363 0.0443 0.46876 0.0
H263 H 0.49597 0.16355 0.49493 0.0
Li264 Li 0.13134 0.70665 0.43445 0.0
Li265 Li 0.13386 0.79837 0.41831 0.0
Li266 Li 0.09283 0.77794 0.44315 0.0
Li267 Li 0.10033 0.73892 0.39711 0.0
C268 C 0.13332 0.76233 0.48197 0.0
N269 N 0.13382 0.73433 0.53493 0.0
C270 C 0.15243 0.78804 0.49925 0.0
C271 C 0.11439 0.72249 0.49166 0.0
C272 C 0.15238 0.77328 0.52594 0.0
C273 C 0.115 0.70888 0.51849 0.0
C274 C 0.17072 0.72181 0.39467 0.0
C275 C 0.20959 0.68557 0.36871 0.0
N276 N 0.22827 0.70243 0.38762 0.0
C277 C 0.19034 0.7389 0.41382 0.0
C278 C 0.18042 0.69505 0.37189 0.0
C279 C 0.21932 0.72869 0.4099 0.0
C280 C 0.15705 0.59894 0.43055 0.0
N281 N 0.15643 0.64574 0.44544 0.0
C282 C 0.19916 0.61671 0.46765 0.0
C283 C 0.17732 0.65534 0.46348 0.0
C284 C 0.19956 0.56522 0.45418 0.0
C285 C 0.1786 0.55919 0.43411 0.0
H286 H 0.14179 0.59399 0.41469 0.0
H287 H 0.1784 0.69482 0.47342 0.0
C288 C 0.16245 0.89229 0.43311 0.0
N289 N 0.15882 0.85687 0.41255 0.0
C290 C 0.18247 0.93443 0.43137 0.0
C291 C 0.19376 0.90374 0.38693 0.0
C292 C 0.1734 0.86225 0.3895 0.0
C293 C 0.19865 0.93934 0.40828 0.0
H294 H 0.15024 0.88676 0.45104 0.0
H295 H 0.16972 0.83346 0.37349 0.0
C296 C 0.06137 0.67765 0.43129 0.0
N297 N 0.00629 0.63748 0.43284 0.0
C298 C 0.03977 0.70447 0.41728 0.0
C299 C 0.05503 0.63028 0.44603 0.0
C300 C 0.01204 0.68358 0.41833 0.0
C301 C 0.02703 0.61065 0.4466 0.0
C302 C 0.09709 0.86661 0.39782 0.0
C303 C 0.09204 0.91411 0.41291 0.0
C304 C 0.10602 0.87196 0.37159 0.0
C305 C 0.09615 0.96625 0.40155 0.0
C306 C 0.10992 0.92484 0.36095 0.0
N307 N 0.10496 0.9705 0.37603 0.0
C308 C 0.07976 0.85786 0.48186 0.0
C309 C 0.03823 0.82208 0.46153 0.0
C310 C 0.06412 0.90108 0.49326 0.0
N311 N 0.06688 0.81981 0.4659 0.0
C312 C 0.02173 0.86472 0.47265 0.0
C313 C 0.0349 0.90569 0.48812 0.0
H314 H 0.10262 0.85768 0.48406 0.0
H315 H 0.02837 0.79328 0.44807 0.0
C316 C 0.09598 0.68365 0.34784 0.0
N317 N 0.08397 0.72307 0.36332 0.0
C318 C 0.08803 0.6785 0.3213 0.0
C319 C 0.05565 0.75479 0.32705 0.0
C320 C 0.06419 0.75843 0.35344 0.0
C321 C 0.0665 0.71277 0.31027 0.0
H322 H 0.11292 0.65811 0.35572 0.0
H323 H 0.05621 0.79181 0.36563 0.0
O324 O 0.13332 0.77674 0.4558 0.0
O325 O 0.14216 0.7311 0.39806 0.0
O326 O 0.08877 0.69676 0.43024 0.0
O327 O 0.09382 0.81515 0.40878 0.0
H328 H 0.1672 0.81902 0.49206 0.0
H329 H 0.09933 0.70225 0.47878 0.0
H330 H 0.16709 0.7928 0.53952 0.0
H331 H 0.10048 0.67811 0.52624 0.0
H332 H 0.21738 0.66483 0.35119 0.0
H333 H 0.1833 0.75977 0.43156 0.0
H334 H 0.16556 0.68169 0.35683 0.0
H335 H 0.23469 0.74162 0.42459 0.0
H336 H 0.21632 0.62975 0.48037 0.0
H337 H 0.1792 0.52602 0.41988 0.0
H338 H 0.18608 0.96157 0.44809 0.0
H339 H 0.2062 0.90692 0.36897 0.0
H340 H 0.04427 0.74151 0.40606 0.0
H341 H 0.0716 0.60891 0.4569 0.0
H342 H 0.99507 0.70411 0.40767 0.0
H343 H 0.0218 0.57405 0.45794 0.0
H344 H 0.08521 0.91084 0.43322 0.0
H345 H 0.11046 0.83566 0.35972 0.0
H346 H 0.0924 0.00334 0.41305 0.0
H347 H 0.11704 0.92957 0.34075 0.0
H348 H 0.07501 0.93234 0.50482 0.0
H349 H 0.99922 0.8674 0.46809 0.0
H350 H 0.10031 0.64979 0.30965 0.0
H351 H 0.04197 0.78747 0.32004 0.0
Li352 Li 0.59261 0.73191 0.94127 0.0
Li353 Li 0.63449 0.70817 0.91665 0.0
Li354 Li 0.63104 0.80354 0.93277 0.0
Li355 Li 0.60128 0.77117 0.89558 0.0
C356 C 0.63456 0.7476 0.97983 0.0
N357 N 0.63859 0.77721 0.03242 0.0
C358 C 0.6563 0.72581 0.99557 0.0
C359 C 0.61491 0.78462 0.99079 0.0
C360 C 0.65797 0.74125 0.02213 0.0
C361 C 0.6173 0.799 0.01743 0.0
C362 C 0.596 0.64201 0.89653 0.0
C363 C 0.60342 0.58041 0.85962 0.0
N364 N 0.60008 0.53618 0.87598 0.0
C365 C 0.59244 0.59594 0.91294 0.0
C366 C 0.6014 0.63422 0.86962 0.0
C367 C 0.59466 0.54278 0.90219 0.0
C368 C 0.53931 0.68078 0.95223 0.0
N369 N 0.56557 0.69062 0.96271 0.0
C370 C 0.55889 0.617 0.99404 0.0
C371 C 0.57532 0.66015 0.98353 0.0
C372 C 0.53237 0.60439 0.98279 0.0
C373 C 0.52223 0.63771 0.96208 0.0
H374 H 0.53248 0.70371 0.93499 0.0
H375 H 0.59669 0.66626 0.99081 0.0
C376 C 0.67876 0.64382 0.8935 0.0
N377 N 0.65956 0.64853 0.91344 0.0
C378 C 0.69826 0.60045 0.89354 0.0
C379 C 0.67758 0.56749 0.93449 0.0
C380 C 0.65847 0.61148 0.93364 0.0
C381 C 0.69788 0.56252 0.91442 0.0
H382 H 0.67963 0.67438 0.87808 0.0
H383 H 0.64311 0.61697 0.94936 0.0
C384 C 0.58103 0.8659 0.92233 0.0
N385 N 0.56715 0.97378 0.90935 0.0
C386 C 0.59764 0.89527 0.90423 0.0
C387 C 0.55734 0.89132 0.93384 0.0
C388 C 0.59029 0.94977 0.89791 0.0
C389 C 0.55068 0.94594 0.92704 0.0
C390 C 0.65789 0.79301 0.87591 0.0
C391 C 0.67287 0.84313 0.87593 0.0
C392 C 0.6575 0.76058 0.85301 0.0
C393 C 0.68737 0.85966 0.85316 0.0
C394 C 0.67224 0.77856 0.83062 0.0
N395 N 0.68676 0.82731 0.83116 0.0
C396 C 0.68447 0.8376 0.94722 0.0
C397 C 0.65336 0.91492 0.9476 0.0
C398 C 0.70813 0.87191 0.95091 0.0
N399 N 0.65779 0.85937 0.94501 0.0
C400 C 0.67658 0.95095 0.95131 0.0
C401 C 0.70444 0.92943 0.95236 0.0
H402 H 0.68752 0.79347 0.94473 0.0
H403 H 0.6321 0.93167 0.94575 0.0
C404 C 0.56157 0.75456 0.85454 0.0
N405 N 0.5843 0.78622 0.86169 0.0
C406 C 0.55342 0.75093 0.82799 0.0
C407 C 0.59114 0.81493 0.81696 0.0
C408 C 0.59778 0.81903 0.84377 0.0
C409 C 0.56954 0.77863 0.80869 0.0
H410 H 0.5511 0.72895 0.86915 0.0
H411 H 0.61517 0.84532 0.84985 0.0
O412 O 0.63293 0.73326 0.95373 0.0
O413 O 0.59448 0.6944 0.9068 0.0
O414 O 0.58762 0.8123 0.92863 0.0
O415 O 0.64333 0.77654 0.89804 0.0
H416 H 0.67173 0.69729 0.98731 0.0
H417 H 0.59795 0.80197 0.97893 0.0
H418 H 0.67468 0.72468 0.03456 0.0
H419 H 0.60222 0.82751 0.0262 0.0
H420 H 0.60767 0.57383 0.83884 0.0
H421 H 0.58842 0.60114 0.93382 0.0
H422 H 0.60403 0.66928 0.85658 0.0
H423 H 0.59216 0.50678 0.91471 0.0
H424 H 0.56747 0.59173 0.00984 0.0
H425 H 0.50196 0.62875 0.95279 0.0
H426 H 0.7141 0.59757 0.87802 0.0
H427 H 0.67718 0.53879 0.95095 0.0
H428 H 0.61619 0.87644 0.89539 0.0
H429 H 0.54423 0.86904 0.94788 0.0
H430 H 0.60303 0.97302 0.88398 0.0
H431 H 0.5324 0.96617 0.93579 0.0
H432 H 0.67318 0.86932 0.89324 0.0
H433 H 0.64563 0.72227 0.85239 0.0
H434 H 0.69904 0.89832 0.85295 0.0
H435 H 0.67201 0.75388 0.81278 0.0
H436 H 0.72926 0.85389 0.95158 0.0
H437 H 0.67299 0.99523 0.95237 0.0
H438 H 0.53627 0.72333 0.82235 0.0
H439 H 0.60373 0.83775 0.8027 0.0
Li440 Li 0.9122 0.27936 0.94375 0.0
Li441 Li 0.86835 0.29136 0.92093 0.0
Li442 Li 0.87673 0.20139 0.93633 0.0
Li443 Li 0.90425 0.24045 0.89718 0.0
C444 C 0.87567 0.25639 0.98438 0.0
N445 N 0.88075 0.22901 0.03721 0.0
C446 C 0.8591 0.28357 0.00333 0.0
C447 C 0.89479 0.21518 0.99232 0.0
C448 C 0.86199 0.26917 0.02994 0.0
C449 C 0.89705 0.20196 0.01911 0.0
C450 C 0.90587 0.37114 0.90201 0.0
C451 C 0.91057 0.44075 0.86809 0.0
N452 N 0.90583 0.48089 0.88645 0.0
C453 C 0.90094 0.41306 0.92051 0.0
C454 C 0.91066 0.38503 0.87556 0.0
C455 C 0.90105 0.4683 0.91226 0.0
C456 C 0.96642 0.32843 0.95735 0.0
N457 N 0.93856 0.32372 0.96456 0.0
C458 C 0.94292 0.40306 0.9929 0.0
C459 C 0.9269 0.35939 0.98242 0.0
C460 C 0.97133 0.41018 0.98509 0.0
C461 C 0.98338 0.37134 0.96764 0.0
H462 H 0.97504 0.30095 0.94247 0.0
H463 H 0.9045 0.35674 0.98707 0.0
C464 C 0.81676 0.33241 0.93586 0.0
N465 N 0.83755 0.34047 0.91758 0.0
C466 C 0.79254 0.36549 0.93575 0.0
C467 C 0.81145 0.41406 0.89769 0.0
C468 C 0.83518 0.37956 0.89836 0.0
C469 C 0.79011 0.4071 0.9167 0.0
H470 H 0.819 0.30002 0.95047 0.0
H471 H 0.85144 0.38368 0.88343 0.0
C472 C 0.93031 0.14862 0.92629 0.0
N473 N 0.95088 0.04246 0.91894 0.0
C474 C 0.92187 0.11777 0.90429 0.0
C475 C 0.94931 0.12563 0.94451 0.0
C476 C 0.93247 0.06413 0.90093 0.0
C477 C 0.95944 0.07183 0.94046 0.0
C478 C 0.83887 0.23311 0.88763 0.0
C479 C 0.81293 0.21331 0.89736 0.0
C480 C 0.83919 0.26569 0.86478 0.0
C481 C 0.78772 0.22651 0.8841 0.0
C482 C 0.81352 0.27799 0.85209 0.0
N483 N 0.78853 0.25832 0.86194 0.0
C484 C 0.8314 0.1514 0.96498 0.0
C485 C 0.85319 0.09024 0.93452 0.0
C486 C 0.80831 0.11521 0.96809 0.0
N487 N 0.85312 0.1391 0.94805 0.0
C488 C 0.83047 0.05274 0.9371 0.0
C489 C 0.80726 0.06594 0.95347 0.0
H490 H 0.83057 0.1914 0.97445 0.0
H491 H 0.86968 0.08197 0.92022 0.0
C492 C 0.94552 0.25344 0.85606 0.0
N493 N 0.92015 0.22997 0.86271 0.0
C494 C 0.95363 0.25719 0.82947 0.0
C495 C 0.90998 0.21041 0.8174 0.0
C496 C 0.90302 0.20662 0.84413 0.0
C497 C 0.93506 0.23764 0.80978 0.0
H498 H 0.95859 0.27225 0.87121 0.0
H499 H 0.88307 0.18786 0.84993 0.0
O500 O 0.87288 0.27034 0.95827 0.0
O501 O 0.90615 0.3168 0.90968 0.0
O502 O 0.92047 0.20145 0.92984 0.0
O503 O 0.86375 0.22152 0.90066 0.0
H504 H 0.84418 0.31556 0.99752 0.0
H505 H 0.90767 0.19337 0.97807 0.0
H506 H 0.84932 0.28994 0.0448 0.0
H507 H 0.91174 0.17012 0.02552 0.0
H508 H 0.91421 0.45207 0.84768 0.0
H509 H 0.89657 0.40306 0.94091 0.0
H510 H 0.91419 0.35315 0.86091 0.0
H511 H 0.89721 0.50115 0.92637 0.0
H512 H 0.9329 0.43242 0.00616 0.0
H513 H 0.00522 0.3758 0.96108 0.0
H514 H 0.77615 0.35942 0.95053 0.0
H515 H 0.80974 0.44584 0.88266 0.0
H516 H 0.90696 0.13469 0.89016 0.0
H517 H 0.95617 0.14914 0.96159 0.0
H518 H 0.926 0.03968 0.88405 0.0
H519 H 0.97413 0.05346 0.95442 0.0
H520 H 0.8122 0.18834 0.91505 0.0
H521 H 0.85898 0.28242 0.85726 0.0
H522 H 0.7675 0.21155 0.89148 0.0
H523 H 0.81344 0.30351 0.83452 0.0
H524 H 0.79063 0.12713 0.98061 0.0
H525 H 0.83022 0.01532 0.92528 0.0
H526 H 0.97326 0.27803 0.82421 0.0
H527 H 0.89532 0.19438 0.80274 0.0
Li528 Li 0.60253 0.74157 0.60851 0.0
Li529 Li 0.63154 0.70923 0.57062 0.0
Li530 Li 0.63577 0.80477 0.58655 0.0
Li531 Li 0.59292 0.7802 0.56282 0.0
C532 C 0.66216 0.72302 0.6255 0.0
N533 N 0.6979 0.69556 0.66692 0.0
C534 C 0.67534 0.67104 0.62627 0.0
C535 C 0.66714 0.76093 0.64589 0.0
C536 C 0.69335 0.65798 0.64734 0.0
C537 C 0.68528 0.7463 0.66663 0.0
C538 C 0.58262 0.64594 0.5824 0.0
C539 C 0.55521 0.56229 0.57667 0.0
N540 N 0.57099 0.53729 0.59581 0.0
C541 C 0.59856 0.61944 0.602 0.0
C542 C 0.56075 0.61722 0.56961 0.0
C543 C 0.59236 0.56451 0.60851 0.0
C544 C 0.56185 0.75315 0.64966 0.0
N545 N 0.58679 0.72788 0.64305 0.0
C546 C 0.59616 0.70703 0.68838 0.0
C547 C 0.60307 0.70245 0.66169 0.0
C548 C 0.57165 0.73625 0.69598 0.0
C549 C 0.55352 0.75693 0.67618 0.0
H550 H 0.54933 0.7734 0.63452 0.0
H551 H 0.6223 0.68109 0.65615 0.0
C552 C 0.68476 0.67432 0.5556 0.0
N553 N 0.65812 0.65286 0.5586 0.0
C554 C 0.70834 0.63961 0.55223 0.0
C555 C 0.67678 0.56072 0.55396 0.0
C556 C 0.65363 0.59713 0.55724 0.0
C557 C 0.70461 0.58202 0.55203 0.0
H558 H 0.68788 0.71861 0.55724 0.0
H559 H 0.63242 0.58064 0.55986 0.0
C560 C 0.59282 0.86619 0.61079 0.0
N561 N 0.58595 0.9635 0.63889 0.0
C562 C 0.58011 0.91225 0.59888 0.0
C563 C 0.60171 0.86944 0.6371 0.0
C564 C 0.57692 0.96112 0.61337 0.0
C565 C 0.59814 0.91904 0.65095 0.0
C566 C 0.63362 0.76445 0.52341 0.0
C567 C 0.65577 0.78276 0.50718 0.0
C568 C 0.61236 0.73029 0.51297 0.0
C569 C 0.65627 0.76665 0.48067 0.0
C570 C 0.6136 0.71514 0.48635 0.0
N571 N 0.63535 0.73347 0.47089 0.0
C572 C 0.68781 0.85405 0.59957 0.0
C573 C 0.65302 0.91385 0.58085 0.0
C574 C 0.70745 0.89705 0.60056 0.0
N575 N 0.66112 0.86349 0.59024 0.0
C576 C 0.67212 0.95794 0.58112 0.0
C577 C 0.69957 0.94929 0.59106 0.0
H578 H 0.6942 0.81285 0.60534 0.0
H579 H 0.6321 0.91916 0.5723 0.0
C580 C 0.53772 0.82237 0.54619 0.0
N581 N 0.56629 0.8223 0.54145 0.0
C582 C 0.52035 0.86448 0.53569 0.0
C583 C 0.56194 0.90485 0.51529 0.0
C584 C 0.57842 0.8621 0.52603 0.0
C585 C 0.53264 0.90715 0.52056 0.0
H586 H 0.52867 0.79179 0.55937 0.0
H587 H 0.60128 0.86296 0.52349 0.0
O588 O 0.64432 0.73634 0.60502 0.0
O589 O 0.58817 0.6998 0.57575 0.0
O590 O 0.59598 0.81789 0.59689 0.0
O591 O 0.63311 0.77949 0.54947 0.0
H592 H 0.67154 0.64082 0.61091 0.0
H593 H 0.65734 0.80144 0.64559 0.0
H594 H 0.70365 0.61791 0.64816 0.0
H595 H 0.68936 0.77532 0.68248 0.0
H596 H 0.53835 0.53953 0.56693 0.0
H597 H 0.61571 0.64078 0.61188 0.0
H598 H 0.54821 0.63721 0.55439 0.0
H599 H 0.6046 0.54347 0.6236 0.0
H600 H 0.61043 0.68969 0.70305 0.0
H601 H 0.53421 0.779 0.68133 0.0
H602 H 0.72947 0.65746 0.55091 0.0
H603 H 0.67317 0.5164 0.55392 0.0
H604 H 0.57292 0.91044 0.57861 0.0
H605 H 0.61106 0.83399 0.64682 0.0
H606 H 0.56725 0.99714 0.60434 0.0
H607 H 0.60499 0.92213 0.67131 0.0
H608 H 0.67244 0.80906 0.51503 0.0
H609 H 0.59504 0.71567 0.52519 0.0
H610 H 0.6733 0.78049 0.46787 0.0
H611 H 0.59728 0.68879 0.47799 0.0
H612 H 0.72886 0.88927 0.60766 0.0
H613 H 0.66588 0.99777 0.57311 0.0
H614 H 0.49782 0.86513 0.54027 0.0
H615 H 0.57218 0.9372 0.50389 0.0
Li616 Li 0.87744 0.31099 0.57051 0.0
Li617 Li 0.90548 0.27324 0.60962 0.0
Li618 Li 0.91373 0.23436 0.56311 0.0
Li619 Li 0.86996 0.22039 0.58614 0.0
C620 C 0.93033 0.36603 0.5801 0.0
N621 N 0.94946 0.47338 0.58679 0.0
C622 C 0.92204 0.39657 0.60226 0.0
C623 C 0.94843 0.38995 0.56139 0.0
C624 C 0.93192 0.45081 0.60528 0.0
C625 C 0.95784 0.44433 0.5651 0.0
C626 C 0.84057 0.27791 0.61999 0.0
C627 C 0.81668 0.22813 0.65488 0.0
N628 N 0.79143 0.25043 0.64705 0.0
C629 C 0.81441 0.30048 0.61236 0.0
C630 C 0.84177 0.2416 0.6415 0.0
C631 C 0.7898 0.28604 0.62627 0.0
C632 C 0.83029 0.35668 0.54351 0.0
N633 N 0.85313 0.37194 0.55852 0.0
C634 C 0.83137 0.46048 0.56674 0.0
C635 C 0.85419 0.42327 0.56974 0.0
C636 C 0.80712 0.44451 0.55234 0.0
C637 C 0.80711 0.39248 0.54005 0.0
H638 H 0.82888 0.31501 0.5359 0.0
H639 H 0.87172 0.43419 0.58248 0.0
C640 C 0.94668 0.26177 0.651 0.0
N641 N 0.92109 0.28415 0.64415 0.0
C642 C 0.95455 0.25815 0.67766 0.0
C643 C 0.91017 0.30269 0.6894 0.0
C644 C 0.90343 0.30637 0.66263 0.0
C645 C 0.93552 0.27665 0.6972 0.0
H646 H 0.96013 0.2437 0.63593 0.0
H647 H 0.8833 0.32415 0.65669 0.0
C648 C 0.87598 0.25514 0.52264 0.0
N649 N 0.87923 0.28176 0.46963 0.0
C650 C 0.85823 0.22874 0.50438 0.0
C651 C 0.89532 0.29522 0.51395 0.0
C652 C 0.86021 0.24274 0.47766 0.0
C653 C 0.89666 0.30805 0.48706 0.0
C654 C 0.90951 0.14273 0.60479 0.0
C655 C 0.90705 0.10051 0.58601 0.0
C656 C 0.91354 0.12923 0.63139 0.0
C657 C 0.90859 0.04531 0.59423 0.0
C658 C 0.91504 0.07354 0.63879 0.0
N659 N 0.91255 0.03309 0.62021 0.0
C660 C 0.96613 0.17753 0.55508 0.0
C661 C 0.93264 0.16296 0.52078 0.0
C662 C 0.98321 0.13418 0.54549 0.0
N663 N 0.94108 0.19056 0.54295 0.0
C664 C 0.94909 0.11953 0.51052 0.0
C665 C 0.97432 0.10377 0.52331 0.0
H666 H 0.97195 0.19839 0.57322 0.0
H667 H 0.91222 0.17173 0.51197 0.0
C668 C 0.81703 0.1844 0.57366 0.0
N669 N 0.83936 0.17082 0.58949 0.0
C670 C 0.79247 0.15233 0.57377 0.0
C671 C 0.81445 0.0926 0.60643 0.0
C672 C 0.83835 0.12667 0.60614 0.0
C673 C 0.79143 0.10542 0.58993 0.0
H674 H 0.81834 0.22048 0.56105 0.0
H675 H 0.85579 0.11801 0.61934 0.0
O676 O 0.9212 0.31266 0.57686 0.0
O677 O 0.86482 0.29053 0.60622 0.0
O678 O 0.87403 0.24177 0.54886 0.0
O679 O 0.90807 0.19704 0.59724 0.0
H680 H 0.90777 0.37896 0.61675 0.0
H681 H 0.95516 0.36671 0.54418 0.0
H682 H 0.92555 0.47503 0.62227 0.0
H683 H 0.97183 0.46342 0.55076 0.0
H684 H 0.81726 0.19971 0.6714 0.0
H685 H 0.81306 0.32861 0.5958 0.0
H686 H 0.86179 0.22312 0.64744 0.0
H687 H 0.7694 0.30308 0.62052 0.0
H688 H 0.83198 0.50016 0.57673 0.0
H689 H 0.78863 0.37847 0.5291 0.0
H690 H 0.97438 0.2382 0.68306 0.0
H691 H 0.89515 0.31785 0.70396 0.0
H692 H 0.84308 0.19773 0.51083 0.0
H693 H 0.90914 0.31628 0.52771 0.0
H694 H 0.84661 0.2226 0.46332 0.0
H695 H 0.91155 0.33895 0.48006 0.0
H696 H 0.90364 0.11022 0.56539 0.0
H697 H 0.9152 0.16135 0.64622 0.0
H698 H 0.9066 0.01218 0.57995 0.0
H699 H 0.91808 0.06249 0.65931 0.0
H700 H 1.00247 0.12285 0.55596 0.0
H701 H 0.94148 0.09665 0.49351 0.0
H702 H 0.77477 0.16311 0.56102 0.0
H703 H 0.81384 0.0568 0.61933 0.0
C704 C 0.27902 0.97662 0.06426 0.0
C705 C 0.28163 0.02517 0.04854 0.0
C706 C 0.23215 0.01121 0.03362 0.0
C707 C 0.22786 0.97129 0.05381 0.0
N708 N 0.24802 0.91498 0.08861 0.0
N709 N 0.26716 0.05204 0.00472 0.0
C710 C 0.25152 0.95383 0.06927 0.0
C711 C 0.25997 0.03299 0.02919 0.0
N712 N 0.30273 0.94623 0.06996 0.0
N713 N 0.20968 0.02899 0.01874 0.0
H714 H 0.28842 0.0577 0.99926 0.0
H715 H 0.25283 0.05387 0.989 0.0
H716 H 0.18902 0.01392 0.02128 0.0
H717 H 0.2113 0.06194 0.00549 0.0
H718 H 0.30203 0.90777 0.07931 0.0
H719 H 0.32242 0.95543 0.06141 0.0
H720 H 0.26405 0.9052 0.1021 0.0
H721 H 0.22861 0.89559 0.09235 0.0
C722 C 0.22613 0.4739 0.44289 0.0
C723 C 0.22373 0.52279 0.45839 0.0
C724 C 0.27318 0.50815 0.47334 0.0
C725 C 0.27728 0.46799 0.45321 0.0
N726 N 0.25685 0.41196 0.41846 0.0
N727 N 0.23839 0.55053 0.50203 0.0
C728 C 0.25352 0.45076 0.43784 0.0
C729 C 0.24546 0.53064 0.47768 0.0
N730 N 0.20232 0.44367 0.4374 0.0
N731 N 0.29574 0.5255 0.48822 0.0
H732 H 0.21717 0.55677 0.50746 0.0
H733 H 0.25273 0.55249 0.51774 0.0
H734 H 0.31628 0.50972 0.48581 0.0
H735 H 0.29433 0.55866 0.50137 0.0
H736 H 0.20291 0.40501 0.42822 0.0
H737 H 0.18268 0.45332 0.44594 0.0
H738 H 0.24072 0.40229 0.40506 0.0
H739 H 0.27625 0.39262 0.41457 0.0
C740 C 0.73858 0.99542 0.92999 0.0
C741 C 0.73003 0.96658 0.95315 0.0
C742 C 0.77338 0.999 0.97589 0.0
C743 C 0.78073 0.03126 0.95341 0.0
N744 N 0.76725 0.06888 0.91102 0.0
N745 N 0.73676 0.94771 0.99945 0.0
C746 C 0.76244 0.03192 0.93101 0.0
C747 C 0.74674 0.97036 0.9765 0.0
N748 N 0.72461 0.98633 0.90668 0.0
N749 N 0.79229 0.99426 0.9963 0.0
H750 H 0.71741 0.92655 1.00058 0.0
H751 H 0.74635 0.95383 0.01777 0.0
H752 H 0.8119 0.0146 0.99652 0.0
H753 H 0.78966 0.96681 0.01198 0.0
H754 H 0.73189 1.00102 0.88854 0.0
H755 H 0.70704 0.96012 0.905 0.0
H756 H 0.7529 0.07573 0.89566 0.0
H757 H 0.78435 0.09643 0.91097 0.0
C758 C 0.73961 0.51958 0.57556 0.0
C759 C 0.73016 0.54471 0.55173 0.0
C760 C 0.77248 0.50815 0.52875 0.0
C761 C 0.78075 0.47965 0.55209 0.0
N762 N 0.7692 0.44958 0.59629 0.0
N763 N 0.73507 0.55634 0.5047 0.0
C764 C 0.76345 0.48296 0.57511 0.0
C765 C 0.74591 0.53707 0.52803 0.0
N766 N 0.72644 0.53228 0.5989 0.0
N767 N 0.79048 0.50901 0.50752 0.0
H768 H 0.7158 0.57777 0.50351 0.0
H769 H 0.74386 0.54725 0.48632 0.0
H770 H 0.80998 0.48825 0.50735 0.0
H771 H 0.78725 0.53373 0.49093 0.0
H772 H 0.73439 0.52062 0.61729 0.0
H773 H 0.70879 0.55842 0.60013 0.0
H774 H 0.75555 0.44538 0.61239 0.0
H775 H 0.78639 0.42223 0.59683 0.0
C776 C 0.43608 0.17877 0.24171 0.0
C777 C 0.44862 0.21728 0.22409 0.0
C778 C 0.46111 0.27611 0.26181 0.0
C779 C 0.44186 0.2456 0.27778 0.0
N780 N 0.41237 0.16422 0.28351 0.0
N781 N 0.4917 0.27119 0.22354 0.0
C782 C 0.42991 0.19551 0.26799 0.0
C783 C 0.46674 0.25761 0.23567 0.0
N784 N 0.43421 0.1244 0.2346 0.0
N785 N 0.47349 0.32332 0.27122 0.0
H786 H 0.49851 0.25034 0.20659 0.0
H787 H 0.50704 0.29664 0.23217 0.0
H788 H 0.47012 0.3379 0.29038 0.0
H789 H 0.48546 0.34973 0.25928 0.0
H790 H 0.42771 0.09321 0.24751 0.0
H791 H 0.44293 0.11014 0.21687 0.0
H792 H 0.40088 0.13057 0.27622 0.0
H793 H 0.40795 0.17393 0.30317 0.0
C794 C 0.04001 0.74944 0.26916 0.0
C795 C 0.05893 0.71067 0.28088 0.0
C796 C 0.07876 0.69093 0.23718 0.0
C797 C 0.06552 0.7396 0.22723 0.0
N798 N 0.03179 0.81406 0.23339 0.0
N799 N 0.07543 0.61911 0.27023 0.0
C800 C 0.04536 0.76827 0.24301 0.0
C801 C 0.07261 0.67344 0.26335 0.0
N802 N 0.01476 0.76116 0.28123 0.0
N803 N 0.09744 0.66163 0.22192 0.0
H804 H 0.06647 0.60378 0.28766 0.0
H805 H 0.08284 0.58874 0.2573 0.0
H806 H 0.1021 0.67215 0.20241 0.0
H807 H 0.10967 0.62912 0.22938 0.0
H808 H 0.99888 0.78523 0.27253 0.0
H809 H 0.00841 0.74014 0.29829 0.0
H810 H 0.01907 0.83944 0.24518 0.0
H811 H 0.03489 0.82867 0.2142 0.0
C812 C 0.56095 0.81108 0.76202 0.0
C813 C 0.5657 0.76677 0.77992 0.0
C814 C 0.56545 0.70205 0.74256 0.0
C815 C 0.56634 0.74719 0.72463 0.0
N816 N 0.57056 0.84642 0.71831 0.0
N817 N 0.57869 0.67034 0.78604 0.0
C818 C 0.56535 0.80234 0.73456 0.0
C819 C 0.56941 0.71209 0.76995 0.0
N820 N 0.55207 0.86142 0.77121 0.0
N821 N 0.56076 0.64956 0.73345 0.0
H822 H 0.58392 0.6761 0.80586 0.0
H823 H 0.58427 0.63127 0.77894 0.0
H824 H 0.55702 0.64097 0.71354 0.0
H825 H 0.55754 0.61587 0.746 0.0
H826 H 0.54595 0.89366 0.75872 0.0
H827 H 0.54792 0.86878 0.79116 0.0
H828 H 0.57286 0.88679 0.72532 0.0
H829 H 0.57562 0.84231 0.69838 0.0
C830 C 0.94017 0.21128 0.73603 0.0
C831 C 0.94074 0.2662 0.72586 0.0
C832 C 0.93937 0.30314 0.77098 0.0
C833 C 0.94044 0.24825 0.78117 0.0
N834 N 0.94954 0.15133 0.77347 0.0
N835 N 0.94862 0.36347 0.73366 0.0
C836 C 0.94344 0.20273 0.76366 0.0
C837 C 0.94297 0.31183 0.7434 0.0
N838 N 0.93464 0.16745 0.7197 0.0
N839 N 0.93307 0.34672 0.78722 0.0
H840 H 0.9517 0.371 0.71356 0.0
H841 H 0.9531 0.39741 0.7457 0.0
H842 H 0.9293 0.34245 0.8074 0.0
H843 H 0.92895 0.38654 0.78023 0.0
H844 H 0.93087 0.12747 0.72663 0.0
H845 H 0.93119 0.17157 0.69946 0.0
H846 H 0.95459 0.1176 0.7615 0.0
H847 H 0.9524 0.14392 0.79361 0.0
C848 C 0.50305 0.45603 0.98433 0.0
C849 C 0.48777 0.45643 0.00852 0.0
C850 C 0.49951 0.55518 0.01461 0.0
C851 C 0.51644 0.55371 0.99139 0.0
N852 N 0.53761 0.50131 0.95588 0.0
N853 N 0.4741 0.50379 0.04851 0.0
C854 C 0.51907 0.5037 0.97669 0.0
C855 C 0.48676 0.50536 0.02418 0.0
N856 N 0.50172 0.41039 0.96836 0.0
N857 N 0.49498 0.60467 0.0271 0.0
H858 H 0.46405 0.46857 0.05595 0.0
H859 H 0.47527 0.5359 0.0622 0.0
H860 H 0.50427 0.64167 0.02084 0.0
H861 H 0.48042 0.6101 0.04239 0.0
H862 H 0.50954 0.40946 0.94912 0.0
H863 H 0.49098 0.37424 0.9737 0.0
H864 H 0.54307 0.46478 0.94619 0.0
H865 H 0.54925 0.53547 0.94938 0.0
C866 C 0.00503 0.55532 0.98578 0.0
C867 C 0.01699 0.55662 0.01158 0.0
C868 C 0.99875 0.46231 0.02017 0.0
C869 C 0.98766 0.46023 0.99405 0.0
N870 N 0.97992 0.50321 0.95167 0.0
N871 N 0.02598 0.51235 0.05346 0.0
C872 C 0.99071 0.50645 0.97677 0.0
C873 C 0.01396 0.51034 0.02883 0.0
N874 N 0.00727 0.60124 0.97003 0.0
N875 N 0.99427 0.41841 0.03679 0.0
H876 H 0.03536 0.54797 0.06122 0.0
H877 H 0.0276 0.47872 0.0662 0.0
H878 H 0.98471 0.38155 0.0307 0.0
H879 H 0.99895 0.41847 0.05686 0.0
H880 H 0.99739 0.60587 0.9518 0.0
H881 H 0.0185 0.63663 0.97562 0.0
H882 H 0.98311 0.53271 0.93703 0.0
H883 H 0.96806 0.46955 0.94489 0.0
C884 C 0.50557 0.99613 0.52962 0.0
C885 C 0.51545 0.95583 0.51124 0.0
C886 C 0.49764 0.01356 0.47472 0.0
C887 C 0.48503 0.05064 0.49317 0.0
N888 N 0.47327 0.07259 0.53833 0.0
N889 N 0.51681 0.92178 0.46649 0.0
C890 C 0.48801 0.0407 0.52069 0.0
C891 C 0.51035 0.96338 0.48382 0.0
N892 N 0.51382 0.99306 0.55549 0.0
N893 N 0.49826 0.02715 0.44849 0.0
H894 H 0.52588 0.88431 0.47242 0.0
H895 H 0.51083 0.92228 0.44668 0.0
H896 H 0.48963 0.06387 0.44111 0.0
H897 H 0.50967 0.00476 0.43444 0.0
H898 H 0.50997 0.02441 0.56918 0.0
H899 H 0.52671 0.96141 0.56282 0.0
H900 H 0.472 0.06352 0.55842 0.0
H901 H 0.46033 0.10562 0.53261 0.0
C902 C 0.98718 1.00261 0.52876 0.0
C903 C 0.99018 0.0531 0.51451 0.0
C904 C 0.02005 0.00531 0.48165 0.0
C905 C 0.01887 0.95602 0.49701 0.0
N906 N 0.0045 0.90918 0.53683 0.0
N907 N 0.01248 0.10486 0.4795 0.0
C908 C 0.00331 0.9551 0.52105 0.0
C909 C 0.00744 0.05504 0.49149 0.0
N910 N 0.96812 0.99955 0.54914 0.0
N911 N 0.03267 0.00419 0.45729 0.0
H912 H 0.00346 0.14192 0.48605 0.0
H913 H 0.02728 0.11039 0.46442 0.0
H914 H 0.04246 0.96892 0.44958 0.0
H915 H 0.03159 0.03673 0.44383 0.0
H916 H 0.96248 0.96268 0.55844 0.0
H917 H 0.95617 0.03341 0.55552 0.0
H918 H 0.99643 0.90792 0.55597 0.0
H919 H 0.01544 0.87324 0.53148 0.0
C920 C 0.26279 0.57068 0.10577 0.0
C921 C 0.23832 0.5573 0.09063 0.0
C922 C 0.25851 0.46757 0.0789 0.0
C923 C 0.28389 0.48269 0.09227 0.0
N924 N 0.31239 0.55053 0.11517 0.0
N925 N 0.21449 0.49866 0.05894 0.0
C926 C 0.28671 0.53487 0.10481 0.0
C927 C 0.23662 0.50733 0.07605 0.0
N928 N 0.26278 0.61661 0.1216 0.0
N929 N 0.25504 0.41471 0.06964 0.0
H930 H 0.19793 0.52698 0.05634 0.0
H931 H 0.21378 0.46577 0.04563 0.0
H932 H 0.27069 0.38419 0.07124 0.0
H933 H 0.23579 0.39965 0.06235 0.0
H934 H 0.27878 0.62536 0.13523 0.0
H935 H 0.24567 0.64413 0.12257 0.0
H936 H 0.31663 0.59034 0.12204 0.0
H937 H 0.33026 0.52479 0.11512 0.0
C938 C 0.26974 0.00448 0.42359 0.0
C939 C 0.26802 0.05334 0.40816 0.0
C940 C 0.21988 0.02923 0.39393 0.0
C941 C 0.22263 0.97829 0.40758 0.0
N942 N 0.25158 0.91215 0.43132 0.0
N943 N 0.24389 0.10946 0.37566 0.0
C944 C 0.248 0.96431 0.42123 0.0
C945 C 0.24375 0.06504 0.39244 0.0
N946 N 0.29162 0.99741 0.44114 0.0
N947 N 0.19427 0.0439 0.38308 0.0
H948 H 0.26104 0.13679 0.37421 0.0
H949 H 0.22802 0.11687 0.36172 0.0
H950 H 0.17642 0.01815 0.38353 0.0
H951 H 0.19006 0.08305 0.37537 0.0
H952 H 0.29221 0.96555 0.45501 0.0
H953 H 0.30805 0.02609 0.4435 0.0
H954 H 0.27085 0.89784 0.43892 0.0
H955 H 0.23606 0.88133 0.43003 0.0
C956 C 0.74528 0.53331 0.93134 0.0
C957 C 0.72052 0.52074 0.91644 0.0
C958 C 0.74133 0.4333 0.90166 0.0
C959 C 0.76566 0.44505 0.91728 0.0
N960 N 0.78962 0.50046 0.95018 0.0
N961 N 0.6924 0.4568 0.89082 0.0
C962 C 0.76725 0.49332 0.93316 0.0
C963 C 0.71775 0.47002 0.90259 0.0
N964 N 0.74818 0.58429 0.9429 0.0
N965 N 0.74113 0.38775 0.88556 0.0
H966 H 0.67484 0.48333 0.89089 0.0
H967 H 0.68796 0.4182 0.88263 0.0
H968 H 0.75767 0.35886 0.88514 0.0
H969 H 0.72546 0.38002 0.87149 0.0
H970 H 0.76706 0.59848 0.9513 0.0
H971 H 0.73222 0.61437 0.94262 0.0
H972 H 0.79035 0.53135 0.96452 0.0
H973 H 0.80677 0.47307 0.95135 0.0
C974 C 0.7411 0.99169 0.56827 0.0
C975 C 0.72116 0.99328 0.58932 0.0
C976 C 0.74617 0.07098 0.60987 0.0
C977 C 0.76646 0.06865 0.58911 0.0
N978 N 0.78254 0.03242 0.54721 0.0
N979 N 0.70163 0.03678 0.62815 0.0
C980 C 0.76363 0.03077 0.56781 0.0
C981 C 0.72272 0.03385 0.60952 0.0
N982 N 0.73879 0.95164 0.54921 0.0
N983 N 0.74981 0.10808 0.63007 0.0
H984 H 0.6846 0.00907 0.62885 0.0
H985 H 0.69989 0.06807 0.64218 0.0
H986 H 0.76588 0.13793 0.63016 0.0
H987 H 0.7377 0.1086 0.64726 0.0
H988 H 0.7542 0.94355 0.53497 0.0
H989 H 0.72156 0.92445 0.548 0.0
H990 H 0.78012 0.01047 0.52968 0.0
H991 H 0.80046 0.05794 0.54695 0.0
loop_
_geom_bond_atom_site_label_1
_geom_bond_atom_site_label_2
_geom_bond_distance
_geom_bond_site_symmetry_2
_ccdc_geom_bond_type
Li0 N17 1.990 . S
Li0 O60 1.956 . S
Li0 O61 1.970 . S
Li0 O62 1.961 . S
Li1 N25 1.990 . S
Li1 O60 1.970 . S
Li1 O61 1.956 . S
Li1 O63 1.961 . S
Li2 N47 1.990 . S
Li2 O60 1.961 . S
Li2 O62 1.956 . S
Li2 O63 1.970 . S
Li3 N53 1.990 . S
Li3 O61 1.961 . S
Li3 O62 1.970 . S
Li3 O63 1.956 . S
C4 C6 1.348 . S
C4 C7 1.356 . S
C4 O60 1.325 . S
N5 C8 1.314 . S
N5 C9 1.279 . S
C6 C4 1.348 . S
C6 C8 1.353 . S
C6 H64 0.929 . S
C7 C4 1.356 . S
C7 C9 1.358 . S
C7 H65 0.930 . S
C8 N5 1.314 . S
C8 C6 1.353 . S
C8 H66 0.930 . S
C9 N5 1.279 . S
C9 C7 1.358 . S
C9 H67 0.930 . S
C10 C13 1.348 . S
C10 C14 1.356 . S
C10 O61 1.325 . S
C11 N12 1.279 . S
C11 C14 1.358 . S
C11 H68 0.930 . S
N12 C11 1.279 . S
N12 C15 1.314 . S
C13 C10 1.348 . S
C13 C15 1.353 . S
C13 H69 0.929 . S
C14 C10 1.356 . S
C14 C11 1.358 . S
C14 H70 0.930 . S
C15 N12 1.314 . S
C15 C13 1.353 . S
C15 H71 0.930 . S
C16 N17 1.314 . S
C16 C21 1.353 1_554 S
C16 H22 0.930 . S
N17 Li0 1.990 . S
N17 C16 1.314 . S
N17 C19 1.279 . S
C18 C19 1.358 . S
C18 C20 1.356 . S
C18 H72 0.930 . S
C19 N17 1.279 . S
C19 C18 1.358 . S
C19 H23 0.930 . S
C20 C18 1.356 . S
C20 C21 1.348 1_554 S
C21 C16 1.353 1_556 S
C21 C20 1.348 1_556 S
C21 H73 0.929 . S
H22 C16 0.930 . S
H23 C19 0.930 . S
C24 N25 1.314 . S
C24 C26 1.353 . S
C24 H30 0.930 . S
N25 Li1 1.990 . S
N25 C24 1.314 . S
N25 C28 1.279 . S
C26 C24 1.353 . S
C26 C29 1.348 . S
C26 H74 0.929 . S
C27 C28 1.358 . S
C27 C29 1.356 . S
C27 H75 0.930 . S
C28 N25 1.279 . S
C28 C27 1.358 . S
C28 H31 0.930 . S
C29 C26 1.348 . S
C29 C27 1.356 . S
H30 C24 0.930 . S
H31 C28 0.930 . S
C32 C34 1.347 1_554 S
C32 C35 1.356 1_554 S
C32 O62 1.325 . S
N33 C36 1.314 . S
N33 C37 1.279 . S
C34 C32 1.347 1_556 S
C34 C36 1.355 . S
C34 H76 0.928 1_556 S
C35 C32 1.356 1_556 S
C35 C37 1.358 . S
C35 H77 0.930 . S
C36 N33 1.314 . S
C36 C34 1.355 . S
C36 H78 0.930 . S
C37 N33 1.279 . S
C37 C35 1.358 . S
C37 H79 0.930 . S
C38 C39 1.348 . S
C38 C40 1.356 . S
C38 O63 1.325 . S
C39 C38 1.348 . S
C39 C41 1.353 . S
C39 H80 0.929 . S
C40 C38 1.356 . S
C40 C42 1.358 . S
C40 H81 0.930 . S
C41 C39 1.353 . S
C41 N43 1.314 . S
C41 H82 0.930 . S
C42 C40 1.358 . S
C42 N43 1.279 . S
C42 H83 0.930 . S
N43 C41 1.314 . S
N43 C42 1.279 . S
C44 C46 1.353 . S
C44 N47 1.314 . S
C44 H50 0.930 . S
C45 N47 1.279 . S
C45 C48 1.358 . S
C45 H51 0.930 . S
C46 C44 1.353 . S
C46 C49 1.348 . S
C46 H84 0.929 . S
N47 Li2 1.990 . S
N47 C44 1.314 . S
N47 C45 1.279 . S
C48 C45 1.358 . S
C48 C49 1.356 . S
C48 H85 0.930 1_554 S
C49 C46 1.348 . S
C49 C48 1.356 . S
H50 C44 0.930 . S
H51 C45 0.930 . S
C52 N53 1.314 . S
C52 C54 1.353 . S
C52 H58 0.930 . S
N53 Li3 1.990 . S
N53 C52 1.314 . S
N53 C56 1.279 . S
C54 C52 1.353 . S
C54 C57 1.348 . S
C54 H86 0.929 . S
C55 C56 1.358 . S
C55 C57 1.356 . S
C55 H87 0.930 . S
C56 N53 1.279 . S
C56 C55 1.358 . S
C56 H59 0.930 . S
C57 C54 1.348 . S
C57 C55 1.356 . S
H58 C52 0.930 . S
H59 C56 0.930 . S
O60 Li0 1.956 . S
O60 Li1 1.970 . S
O60 Li2 1.961 . S
O60 C4 1.325 . S
O61 Li0 1.970 . S
O61 Li1 1.956 . S
O61 Li3 1.961 . S
O61 C10 1.325 . S
O62 Li0 1.961 . S
O62 Li2 1.956 . S
O62 Li3 1.970 . S
O62 C32 1.325 . S
O63 Li1 1.961 . S
O63 Li2 1.970 . S
O63 Li3 1.956 . S
O63 C38 1.325 . S
H64 C6 0.929 . S
H65 C7 0.930 . S
H66 C8 0.930 . S
H67 C9 0.930 . S
H68 C11 0.930 . S
H69 C13 0.929 . S
H70 C14 0.930 . S
H71 C15 0.930 . S
H72 C18 0.930 . S
H73 C21 0.929 . S
H74 C26 0.929 . S
H75 C27 0.930 . S
H76 C34 0.928 1_554 S
H77 C35 0.930 . S
H78 C36 0.930 . S
H79 C37 0.930 . S
H80 C39 0.929 . S
H81 C40 0.930 . S
H82 C41 0.930 . S
H83 C42 0.930 . S
H84 C46 0.929 . S
H85 C48 0.930 1_556 S
H86 C54 0.929 . S
H87 C55 0.930 . S
Li88 N105 1.990 . S
Li88 O148 1.956 . S
Li88 O149 1.970 . S
Li88 O150 1.961 . S
Li89 N113 1.990 . S
Li89 O148 1.970 . S
Li89 O149 1.956 . S
Li89 O151 1.961 . S
Li90 N135 1.990 . S
Li90 O148 1.961 . S
Li90 O150 1.956 . S
Li90 O151 1.970 . S
Li91 N141 1.990 . S
Li91 O149 1.961 . S
Li91 O150 1.970 . S
Li91 O151 1.956 . S
C92 C94 1.348 . S
C92 C95 1.356 . S
C92 O148 1.325 . S
N93 C96 1.314 . S
N93 C97 1.279 . S
C94 C92 1.348 . S
C94 C96 1.353 . S
C94 H152 0.929 . S
C95 C92 1.356 . S
C95 C97 1.358 . S
C95 H153 0.930 . S
C96 N93 1.314 . S
C96 C94 1.353 . S
C96 H154 0.930 . S
C97 N93 1.279 . S
C97 C95 1.358 . S
C97 H155 0.930 . S
C98 C101 1.348 . S
C98 C102 1.356 . S
C98 O149 1.325 . S
C99 N100 1.279 . S
C99 C102 1.358 . S
C99 H156 0.930 . S
N100 C99 1.279 . S
N100 C103 1.314 . S
C101 C98 1.348 . S
C101 C103 1.353 . S
C101 H157 0.929 . S
C102 C98 1.356 . S
C102 C99 1.358 . S
C102 H158 0.930 . S
C103 N100 1.314 . S
C103 C101 1.353 . S
C103 H159 0.930 . S
C104 N105 1.314 . S
C104 C109 1.353 1_554 S
C104 H110 0.930 . S
N105 Li88 1.990 . S
N105 C104 1.314 . S
N105 C107 1.279 . S
C106 C107 1.358 . S
C106 C108 1.356 . S
C106 H160 0.930 1_455 S
C107 N105 1.279 . S
C107 C106 1.358 . S
C107 H111 0.930 . S
C108 C106 1.356 . S
C108 C109 1.348 1_554 S
C109 C104 1.353 1_556 S
C109 C108 1.348 1_556 S
C109 H161 0.929 . S
H110 C104 0.930 . S
H111 C107 0.930 . S
C112 N113 1.314 . S
C112 C114 1.353 . S
C112 H118 0.930 . S
N113 Li89 1.990 . S
N113 C112 1.314 . S
N113 C116 1.279 . S
C114 C112 1.353 . S
C114 C117 1.348 . S
C114 H162 0.929 . S
C115 C116 1.358 . S
C115 C117 1.356 . S
C115 H163 0.930 . S
C116 N113 1.279 . S
C116 C115 1.358 . S
C116 H119 0.930 . S
C117 C114 1.348 . S
C117 C115 1.356 . S
H118 C112 0.930 . S
H119 C116 0.930 . S
C120 C122 1.347 1_554 S
C120 C123 1.356 1_554 S
C120 O150 1.325 . S
N121 C124 1.314 . S
N121 C125 1.279 . S
C122 C120 1.347 1_556 S
C122 C124 1.355 . S
C122 H164 0.928 1_556 S
C123 C120 1.356 1_556 S
C123 C125 1.358 . S
C123 H165 0.930 . S
C124 N121 1.314 . S
C124 C122 1.355 . S
C124 H166 0.930 . S
C125 N121 1.279 . S
C125 C123 1.358 . S
C125 H167 0.930 . S
C126 C127 1.348 . S
C126 C128 1.356 . S
C126 O151 1.325 . S
C127 C126 1.348 . S
C127 C129 1.353 . S
C127 H168 0.929 . S
C128 C126 1.356 . S
C128 C130 1.358 . S
C128 H169 0.930 . S
C129 C127 1.353 . S
C129 N131 1.314 . S
C129 H170 0.930 . S
C130 C128 1.358 . S
C130 N131 1.279 . S
C130 H171 0.930 . S
N131 C129 1.314 . S
N131 C130 1.279 . S
C132 C134 1.353 . S
C132 N135 1.314 . S
C132 H138 0.930 . S
C133 N135 1.279 . S
C133 C136 1.358 . S
C133 H139 0.930 . S
C134 C132 1.353 . S
C134 C137 1.348 . S
C134 H172 0.929 . S
N135 Li90 1.990 . S
N135 C132 1.314 . S
N135 C133 1.279 . S
C136 C133 1.358 . S
C136 C137 1.356 . S
C136 H173 0.930 1_554 S
C137 C134 1.348 . S
C137 C136 1.356 . S
H138 C132 0.930 . S
H139 C133 0.930 . S
C140 N141 1.314 . S
C140 C142 1.353 . S
C140 H146 0.930 . S
N141 Li91 1.990 . S
N141 C140 1.314 . S
N141 C144 1.279 . S
C142 C140 1.353 . S
C142 C145 1.348 . S
C142 H174 0.929 . S
C143 C144 1.358 . S
C143 C145 1.356 . S
C143 H175 0.930 . S
C144 N141 1.279 . S
C144 C143 1.358 . S
C144 H147 0.930 . S
C145 C142 1.348 . S
C145 C143 1.356 . S
H146 C140 0.930 . S
H147 C144 0.930 . S
O148 Li88 1.956 . S
O148 Li89 1.970 . S
O148 Li90 1.961 . S
O148 C92 1.325 . S
O149 Li88 1.970 . S
O149 Li89 1.956 . S
O149 Li91 1.961 . S
O149 C98 1.325 . S
O150 Li88 1.961 . S
O150 Li90 1.956 . S
O150 Li91 1.970 . S
O150 C120 1.325 . S
O151 Li89 1.961 . S
O151 Li90 1.970 . S
O151 Li91 1.956 . S
O151 C126 1.325 . S
H152 C94 0.929 . S
H153 C95 0.930 . S
H154 C96 0.930 . S
H155 C97 0.930 . S
H156 C99 0.930 . S
H157 C101 0.929 . S
H158 C102 0.930 . S
H159 C103 0.930 . S
H160 C106 0.930 1_655 S
H161 C109 0.929 . S
H162 C114 0.929 . S
H163 C115 0.930 . S
H164 C122 0.928 1_554 S
H165 C123 0.930 . S
H166 C124 0.930 . S
H167 C125 0.930 . S
H168 C127 0.929 . S
H169 C128 0.930 . S
H170 C129 0.930 . S
H171 C130 0.930 . S
H172 C134 0.929 . S
H173 C136 0.930 1_556 S
H174 C142 0.929 . S
H175 C143 0.930 . S
Li176 N193 1.990 . S
Li176 O236 1.956 . S
Li176 O237 1.970 . S
Li176 O238 1.961 . S
Li177 N201 1.990 . S
Li177 O236 1.970 . S
Li177 O237 1.956 . S
Li177 O239 1.961 . S
Li178 N223 1.990 . S
Li178 O236 1.961 . S
Li178 O238 1.956 . S
Li178 O239 1.970 . S
Li179 N229 1.990 . S
Li179 O237 1.961 . S
Li179 O238 1.970 . S
Li179 O239 1.956 . S
C180 C182 1.348 . S
C180 C183 1.356 . S
C180 O236 1.325 . S
N181 C184 1.314 . S
N181 C185 1.279 . S
C182 C180 1.348 . S
C182 C184 1.353 . S
C182 H240 0.929 . S
C183 C180 1.356 . S
C183 C185 1.358 . S
C183 H241 0.930 . S
C184 N181 1.314 . S
C184 C182 1.353 . S
C184 H242 0.930 . S
C185 N181 1.279 . S
C185 C183 1.358 . S
C185 H243 0.930 . S
C186 C189 1.348 . S
C186 C190 1.356 . S
C186 O237 1.325 . S
C187 N188 1.279 . S
C187 C190 1.358 . S
C187 H244 0.930 . S
N188 C187 1.279 . S
N188 C191 1.314 . S
C189 C186 1.348 . S
C189 C191 1.353 . S
C189 H245 0.929 . S
C190 C186 1.356 . S
C190 C187 1.358 . S
C190 H246 0.930 . S
C191 N188 1.314 . S
C191 C189 1.353 . S
C191 H247 0.930 . S
C192 N193 1.314 . S
C192 C197 1.353 . S
C192 H198 0.930 . S
N193 Li176 1.990 . S
N193 C192 1.314 . S
N193 C195 1.279 . S
C194 C195 1.358 . S
C194 C196 1.356 . S
C194 H248 0.930 . S
C195 N193 1.279 . S
C195 C194 1.358 . S
C195 H199 0.930 . S
C196 C194 1.356 . S
C196 C197 1.348 . S
C197 C192 1.353 . S
C197 C196 1.348 . S
C197 H249 0.929 . S
H198 C192 0.930 . S
H199 C195 0.930 . S
C200 N201 1.314 . S
C200 C202 1.353 . S
C200 H206 0.930 . S
N201 Li177 1.990 . S
N201 C200 1.314 . S
N201 C204 1.279 . S
C202 C200 1.353 . S
C202 C205 1.348 . S
C202 H250 0.929 . S
C203 C204 1.358 . S
C203 C205 1.356 . S
C203 H251 0.930 . S
C204 N201 1.279 . S
C204 C203 1.358 . S
C204 H207 0.930 . S
C205 C202 1.348 . S
C205 C203 1.356 . S
H206 C200 0.930 . S
H207 C204 0.930 . S
C208 C210 1.348 . S
C208 C211 1.356 . S
C208 O238 1.325 . S
N209 C212 1.314 . S
N209 C213 1.279 . S
C210 C208 1.348 . S
C210 C212 1.353 . S
C210 H252 0.929 . S
C211 C208 1.356 . S
C211 C213 1.358 . S
C211 H253 0.930 . S
C212 N209 1.314 . S
C212 C210 1.353 . S
C212 H254 0.930 . S
C213 N209 1.279 . S
C213 C211 1.358 . S
C213 H255 0.930 . S
C214 C215 1.348 . S
C214 C216 1.356 . S
C214 O239 1.325 . S
C215 C214 1.348 . S
C215 C217 1.353 . S
C215 H256 0.929 . S
C216 C214 1.356 . S
C216 C218 1.358 . S
C216 H257 0.930 . S
C217 C215 1.353 . S
C217 N219 1.314 . S
C217 H258 0.930 . S
C218 C216 1.358 . S
C218 N219 1.279 . S
C218 H259 0.930 . S
N219 C217 1.314 . S
N219 C218 1.279 . S
C220 C222 1.353 . S
C220 N223 1.314 . S
C220 H226 0.930 . S
C221 N223 1.279 . S
C221 C224 1.358 . S
C221 H227 0.930 . S
C222 C220 1.353 . S
C222 C225 1.348 . S
C222 H260 0.929 . S
N223 Li178 1.990 . S
N223 C220 1.314 . S
N223 C221 1.279 . S
C224 C221 1.358 . S
C224 C225 1.356 . S
C224 H261 0.930 . S
C225 C222 1.348 . S
C225 C224 1.356 . S
H226 C220 0.930 . S
H227 C221 0.930 . S
C228 N229 1.314 . S
C228 C230 1.353 . S
C228 H234 0.930 . S
N229 Li179 1.990 . S
N229 C228 1.314 . S
N229 C232 1.279 . S
C230 C228 1.353 . S
C230 C233 1.348 . S
C230 H262 0.929 . S
C231 C232 1.358 . S
C231 C233 1.356 . S
C231 H263 0.930 . S
C232 N229 1.279 . S
C232 C231 1.358 . S
C232 H235 0.930 . S
C233 C230 1.348 . S
C233 C231 1.356 . S
H234 C228 0.930 . S
H235 C232 0.930 . S
O236 Li176 1.956 . S
O236 Li177 1.970 . S
O236 Li178 1.961 . S
O236 C180 1.325 . S
O237 Li176 1.970 . S
O237 Li177 1.956 . S
O237 Li179 1.961 . S
O237 C186 1.325 . S
O238 Li176 1.961 . S
O238 Li178 1.956 . S
O238 Li179 1.970 . S
O238 C208 1.325 . S
O239 Li177 1.961 . S
O239 Li178 1.970 . S
O239 Li179 1.956 . S
O239 C214 1.325 . S
H240 C182 0.929 . S
H241 C183 0.930 . S
H242 C184 0.930 . S
H243 C185 0.930 . S
H244 C187 0.930 . S
H245 C189 0.929 . S
H246 C190 0.930 . S
H247 C191 0.930 . S
H248 C194 0.930 . S
H249 C197 0.929 . S
H250 C202 0.929 . S
H251 C203 0.930 . S
H252 C210 0.929 . S
H253 C211 0.930 . S
H254 C212 0.930 . S
H255 C213 0.930 . S
H256 C215 0.929 . S
H257 C216 0.930 . S
H258 C217 0.930 . S
H259 C218 0.930 . S
H260 C222 0.929 . S
H261 C224 0.930 . S
H262 C230 0.929 . S
H263 C231 0.930 . S
Li264 N281 1.990 . S
Li264 O324 1.956 . S
Li264 O325 1.970 . S
Li264 O326 1.961 . S
Li265 N289 1.990 . S
Li265 O324 1.970 . S
Li265 O325 1.956 . S
Li265 O327 1.961 . S
Li266 N311 1.990 . S
Li266 O324 1.961 . S
Li266 O326 1.956 . S
Li266 O327 1.970 . S
Li267 N317 1.990 . S
Li267 O325 1.961 . S
Li267 O326 1.970 . S
Li267 O327 1.956 . S
C268 C270 1.348 . S
C268 C271 1.356 . S
C268 O324 1.325 . S
N269 C272 1.314 . S
N269 C273 1.279 . S
C270 C268 1.348 . S
C270 C272 1.353 . S
C270 H328 0.929 . S
C271 C268 1.356 . S
C271 C273 1.358 . S
C271 H329 0.930 . S
C272 N269 1.314 . S
C272 C270 1.353 . S
C272 H330 0.930 . S
C273 N269 1.279 . S
C273 C271 1.358 . S
C273 H331 0.930 . S
C274 C277 1.348 . S
C274 C278 1.356 . S
C274 O325 1.325 . S
C275 N276 1.279 . S
C275 C278 1.358 . S
C275 H332 0.930 . S
N276 C275 1.279 . S
N276 C279 1.314 . S
C277 C274 1.348 . S
C277 C279 1.353 . S
C277 H333 0.929 . S
C278 C274 1.356 . S
C278 C275 1.358 . S
C278 H334 0.930 . S
C279 N276 1.314 . S
C279 C277 1.353 . S
C279 H335 0.930 . S
C280 N281 1.314 . S
C280 C285 1.353 . S
C280 H286 0.930 . S
N281 Li264 1.990 . S
N281 C280 1.314 . S
N281 C283 1.279 . S
C282 C283 1.358 . S
C282 C284 1.356 . S
C282 H336 0.930 . S
C283 N281 1.279 . S
C283 C282 1.358 . S
C283 H287 0.930 . S
C284 C282 1.356 . S
C284 C285 1.348 . S
C285 C280 1.353 . S
C285 C284 1.348 . S
C285 H337 0.929 . S
H286 C280 0.930 . S
H287 C283 0.930 . S
C288 N289 1.314 . S
C288 C290 1.353 . S
C288 H294 0.930 . S
N289 Li265 1.990 . S
N289 C288 1.314 . S
N289 C292 1.279 . S
C290 C288 1.353 . S
C290 C293 1.348 . S
C290 H338 0.929 . S
C291 C292 1.358 . S
C291 C293 1.356 . S
C291 H339 0.930 . S
C292 N289 1.279 . S
C292 C291 1.358 . S
C292 H295 0.930 . S
C293 C290 1.348 . S
C293 C291 1.356 . S
H294 C288 0.930 . S
H295 C292 0.930 . S
C296 C298 1.348 . S
C296 C299 1.356 . S
C296 O326 1.325 . S
N297 C300 1.314 . S
N297 C301 1.279 . S
C298 C296 1.348 . S
C298 C300 1.353 . S
C298 H340 0.929 . S
C299 C296 1.356 . S
C299 C301 1.358 . S
C299 H341 0.930 . S
C300 N297 1.314 . S
C300 C298 1.353 . S
C300 H342 0.930 . S
C301 N297 1.279 . S
C301 C299 1.358 . S
C301 H343 0.930 . S
C302 C303 1.348 . S
C302 C304 1.356 . S
C302 O327 1.325 . S
C303 C302 1.348 . S
C303 C305 1.353 . S
C303 H344 0.929 . S
C304 C302 1.356 . S
C304 C306 1.358 . S
C304 H345 0.930 . S
C305 C303 1.353 . S
C305 N307 1.314 . S
C305 H346 0.930 . S
C306 C304 1.358 . S
C306 N307 1.279 . S
C306 H347 0.930 . S
N307 C305 1.314 . S
N307 C306 1.279 . S
C308 C310 1.353 . S
C308 N311 1.314 . S
C308 H314 0.930 . S
C309 N311 1.279 . S
C309 C312 1.358 . S
C309 H315 0.930 . S
C310 C308 1.353 . S
C310 C313 1.348 . S
C310 H348 0.929 . S
N311 Li266 1.990 . S
N311 C308 1.314 . S
N311 C309 1.279 . S
C312 C309 1.358 . S
C312 C313 1.356 . S
C312 H349 0.930 1_455 S
C313 C310 1.348 . S
C313 C312 1.356 . S
H314 C308 0.930 . S
H315 C309 0.930 . S
C316 N317 1.314 . S
C316 C318 1.353 . S
C316 H322 0.930 . S
N317 Li267 1.990 . S
N317 C316 1.314 . S
N317 C320 1.279 . S
C318 C316 1.353 . S
C318 C321 1.348 . S
C318 H350 0.929 . S
C319 C320 1.358 . S
C319 C321 1.356 . S
C319 H351 0.930 . S
C320 N317 1.279 . S
C320 C319 1.358 . S
C320 H323 0.930 . S
C321 C318 1.348 . S
C321 C319 1.356 . S
H322 C316 0.930 . S
H323 C320 0.930 . S
O324 Li264 1.956 . S
O324 Li265 1.970 . S
O324 Li266 1.961 . S
O324 C268 1.325 . S
O325 Li264 1.970 . S
O325 Li265 1.956 . S
O325 Li267 1.961 . S
O325 C274 1.325 . S
O326 Li264 1.961 . S
O326 Li266 1.956 . S
O326 Li267 1.970 . S
O326 C296 1.325 . S
O327 Li265 1.961 . S
O327 Li266 1.970 . S
O327 Li267 1.956 . S
O327 C302 1.325 . S
H328 C270 0.929 . S
H329 C271 0.930 . S
H330 C272 0.930 . S
H331 C273 0.930 . S
H332 C275 0.930 . S
H333 C277 0.929 . S
H334 C278 0.930 . S
H335 C279 0.930 . S
H336 C282 0.930 . S
H337 C285 0.929 . S
H338 C290 0.929 . S
H339 C291 0.930 . S
H340 C298 0.929 . S
H341 C299 0.930 . S
H342 C300 0.930 . S
H343 C301 0.930 . S
H344 C303 0.929 . S
H345 C304 0.930 . S
H346 C305 0.930 . S
H347 C306 0.930 . S
H348 C310 0.929 . S
H349 C312 0.930 1_655 S
H350 C318 0.929 . S
H351 C319 0.930 . S
Li352 N369 1.990 . S
Li352 O412 1.956 . S
Li352 O413 1.970 . S
Li352 O414 1.961 . S
Li353 N377 1.990 . S
Li353 O412 1.970 . S
Li353 O413 1.956 . S
Li353 O415 1.961 . S
Li354 N399 1.990 . S
Li354 O412 1.961 . S
Li354 O414 1.956 . S
Li354 O415 1.970 . S
Li355 N405 1.990 . S
Li355 O413 1.961 . S
Li355 O414 1.970 . S
Li355 O415 1.956 . S
C356 C358 1.348 1_556 S
C356 C359 1.356 1_556 S
C356 O412 1.325 . S
N357 C360 1.314 . S
N357 C361 1.279 . S
C358 C356 1.348 1_554 S
C358 C360 1.353 . S
C358 H416 0.929 1_554 S
C359 C356 1.356 1_554 S
C359 C361 1.358 . S
C359 H417 0.930 . S
C360 N357 1.314 . S
C360 C358 1.353 . S
C360 H418 0.930 . S
C361 N357 1.279 . S
C361 C359 1.358 . S
C361 H419 0.930 . S
C362 C365 1.348 . S
C362 C366 1.356 . S
C362 O413 1.325 . S
C363 N364 1.279 . S
C363 C366 1.358 . S
C363 H420 0.930 . S
N364 C363 1.279 . S
N364 C367 1.314 . S
C365 C362 1.348 . S
C365 C367 1.353 . S
C365 H421 0.929 . S
C366 C362 1.356 . S
C366 C363 1.358 . S
C366 H422 0.930 . S
C367 N364 1.314 . S
C367 C365 1.353 . S
C367 H423 0.930 . S
C368 N369 1.314 . S
C368 C373 1.353 . S
C368 H374 0.930 . S
N369 Li352 1.990 . S
N369 C368 1.314 . S
N369 C371 1.279 . S
C370 C371 1.358 1_554 S
C370 C372 1.356 1_554 S
C370 H424 0.930 . S
C371 N369 1.279 . S
C371 C370 1.358 1_556 S
C371 H375 0.930 1_556 S
C372 C370 1.356 1_556 S
C372 C373 1.348 . S
C373 C368 1.353 . S
C373 C372 1.348 . S
C373 H425 0.929 . S
H374 C368 0.930 . S
H375 C371 0.930 1_554 S
C376 N377 1.314 . S
C376 C378 1.353 . S
C376 H382 0.930 . S
N377 Li353 1.990 . S
N377 C376 1.314 . S
N377 C380 1.279 . S
C378 C376 1.353 . S
C378 C381 1.348 . S
C378 H426 0.929 . S
C379 C380 1.358 . S
C379 C381 1.356 . S
C379 H427 0.930 . S
C380 N377 1.279 . S
C380 C379 1.358 . S
C380 H383 0.930 . S
C381 C378 1.348 . S
C381 C379 1.356 . S
H382 C376 0.930 . S
H383 C380 0.930 . S
C384 C386 1.348 . S
C384 C387 1.356 . S
C384 O414 1.325 . S
N385 C388 1.314 . S
N385 C389 1.279 . S
C386 C384 1.348 . S
C386 C388 1.353 . S
C386 H428 0.929 . S
C387 C384 1.356 . S
C387 C389 1.358 . S
C387 H429 0.930 . S
C388 N385 1.314 . S
C388 C386 1.353 . S
C388 H430 0.930 . S
C389 N385 1.279 . S
C389 C387 1.358 . S
C389 H431 0.930 . S
C390 C391 1.348 . S
C390 C392 1.356 . S
C390 O415 1.325 . S
C391 C390 1.348 . S
C391 C393 1.353 . S
C391 H432 0.929 . S
C392 C390 1.356 . S
C392 C394 1.358 . S
C392 H433 0.930 . S
C393 C391 1.353 . S
C393 N395 1.314 . S
C393 H434 0.930 . S
C394 C392 1.358 . S
C394 N395 1.279 . S
C394 H435 0.930 . S
N395 C393 1.314 . S
N395 C394 1.279 . S
C396 C398 1.353 . S
C396 N399 1.314 . S
C396 H402 0.930 . S
C397 N399 1.279 . S
C397 C400 1.358 . S
C397 H403 0.930 . S
C398 C396 1.353 . S
C398 C401 1.348 . S
C398 H436 0.929 . S
N399 Li354 1.990 . S
N399 C396 1.314 . S
N399 C397 1.279 . S
C400 C397 1.358 . S
C400 C401 1.356 . S
C400 H437 0.930 . S
C401 C398 1.348 . S
C401 C400 1.356 . S
H402 C396 0.930 . S
H403 C397 0.930 . S
C404 N405 1.314 . S
C404 C406 1.353 . S
C404 H410 0.930 . S
N405 Li355 1.990 . S
N405 C404 1.314 . S
N405 C408 1.279 . S
C406 C404 1.353 . S
C406 C409 1.348 . S
C406 H438 0.929 . S
C407 C408 1.358 . S
C407 C409 1.356 . S
C407 H439 0.930 . S
C408 N405 1.279 . S
C408 C407 1.358 . S
C408 H411 0.930 . S
C409 C406 1.348 . S
C409 C407 1.356 . S
H410 C404 0.930 . S
H411 C408 0.930 . S
O412 Li352 1.956 . S
O412 Li353 1.970 . S
O412 Li354 1.961 . S
O412 C356 1.325 . S
O413 Li352 1.970 . S
O413 Li353 1.956 . S
O413 Li355 1.961 . S
O413 C362 1.325 . S
O414 Li352 1.961 . S
O414 Li354 1.956 . S
O414 Li355 1.970 . S
O414 C384 1.325 . S
O415 Li353 1.961 . S
O415 Li354 1.970 . S
O415 Li355 1.956 . S
O415 C390 1.325 . S
H416 C358 0.929 1_556 S
H417 C359 0.930 . S
H418 C360 0.930 . S
H419 C361 0.930 . S
H420 C363 0.930 . S
H421 C365 0.929 . S
H422 C366 0.930 . S
H423 C367 0.930 . S
H424 C370 0.930 . S
H425 C373 0.929 . S
H426 C378 0.929 . S
H427 C379 0.930 . S
H428 C386 0.929 . S
H429 C387 0.930 . S
H430 C388 0.930 . S
H431 C389 0.930 . S
H432 C391 0.929 . S
H433 C392 0.930 . S
H434 C393 0.930 . S
H435 C394 0.930 . S
H436 C398 0.929 . S
H437 C400 0.930 . S
H438 C406 0.929 . S
H439 C407 0.930 . S
Li440 N457 1.990 . S
Li440 O500 1.956 . S
Li440 O501 1.970 . S
Li440 O502 1.961 . S
Li441 N465 1.990 . S
Li441 O500 1.970 . S
Li441 O501 1.956 . S
Li441 O503 1.961 . S
Li442 N487 1.990 . S
Li442 O500 1.961 . S
Li442 O502 1.956 . S
Li442 O503 1.970 . S
Li443 N493 1.990 . S
Li443 O501 1.961 . S
Li443 O502 1.970 . S
Li443 O503 1.956 . S
C444 C446 1.348 1_556 S
C444 C447 1.356 1_556 S
C444 O500 1.325 . S
N445 C448 1.314 . S
N445 C449 1.279 . S
C446 C444 1.348 1_554 S
C446 C448 1.353 . S
C446 H504 0.929 1_554 S
C447 C444 1.356 1_554 S
C447 C449 1.358 . S
C447 H505 0.930 . S
C448 N445 1.314 . S
C448 C446 1.353 . S
C448 H506 0.930 . S
C449 N445 1.279 . S
C449 C447 1.358 . S
C449 H507 0.930 . S
C450 C453 1.348 . S
C450 C454 1.356 . S
C450 O501 1.325 . S
C451 N452 1.279 . S
C451 C454 1.358 . S
C451 H508 0.930 . S
N452 C451 1.279 . S
N452 C455 1.314 . S
C453 C450 1.348 . S
C453 C455 1.353 . S
C453 H509 0.929 . S
C454 C450 1.356 . S
C454 C451 1.358 . S
C454 H510 0.930 . S
C455 N452 1.314 . S
C455 C453 1.353 . S
C455 H511 0.930 . S
C456 N457 1.314 . S
C456 C461 1.353 . S
C456 H462 0.930 . S
N457 Li440 1.990 . S
N457 C456 1.314 . S
N457 C459 1.279 . S
C458 C459 1.358 1_554 S
C458 C460 1.356 1_554 S
C458 H512 0.930 . S
C459 N457 1.279 . S
C459 C458 1.358 1_556 S
C459 H463 0.930 1_556 S
C460 C458 1.356 1_556 S
C460 C461 1.348 . S
C461 C456 1.353 . S
C461 C460 1.348 . S
C461 H513 0.929 1_655 S
H462 C456 0.930 . S
H463 C459 0.930 1_554 S
C464 N465 1.314 . S
C464 C466 1.353 . S
C464 H470 0.930 . S
N465 Li441 1.990 . S
N465 C464 1.314 . S
N465 C468 1.279 . S
C466 C464 1.353 . S
C466 C469 1.348 . S
C466 H514 0.929 . S
C467 C468 1.358 . S
C467 C469 1.356 . S
C467 H515 0.930 . S
C468 N465 1.279 . S
C468 C467 1.358 . S
C468 H471 0.930 . S
C469 C466 1.348 . S
C469 C467 1.356 . S
H470 C464 0.930 . S
H471 C468 0.930 . S
C472 C474 1.348 . S
C472 C475 1.356 . S
C472 O502 1.325 . S
N473 C476 1.314 . S
N473 C477 1.279 . S
C474 C472 1.348 . S
C474 C476 1.353 . S
C474 H516 0.929 . S
C475 C472 1.356 . S
C475 C477 1.358 . S
C475 H517 0.930 . S
C476 N473 1.314 . S
C476 C474 1.353 . S
C476 H518 0.930 . S
C477 N473 1.279 . S
C477 C475 1.358 . S
C477 H519 0.930 . S
C478 C479 1.348 . S
C478 C480 1.356 . S
C478 O503 1.325 . S
C479 C478 1.348 . S
C479 C481 1.353 . S
C479 H520 0.929 . S
C480 C478 1.356 . S
C480 C482 1.358 . S
C480 H521 0.930 . S
C481 C479 1.353 . S
C481 N483 1.314 . S
C481 H522 0.930 . S
C482 C480 1.358 . S
C482 N483 1.279 . S
C482 H523 0.930 . S
N483 C481 1.314 . S
N483 C482 1.279 . S
C484 C486 1.353 . S
C484 N487 1.314 . S
C484 H490 0.930 . S
C485 N487 1.279 . S
C485 C488 1.358 . S
C485 H491 0.930 . S
C486 C484 1.353 . S
C486 C489 1.348 . S
C486 H524 0.929 . S
N487 Li442 1.990 . S
N487 C484 1.314 . S
N487 C485 1.279 . S
C488 C485 1.358 . S
C488 C489 1.356 . S
C488 H525 0.930 . S
C489 C486 1.348 . S
C489 C488 1.356 . S
H490 C484 0.930 . S
H491 C485 0.930 . S
C492 N493 1.314 . S
C492 C494 1.353 . S
C492 H498 0.930 . S
N493 Li443 1.990 . S
N493 C492 1.314 . S
N493 C496 1.279 . S
C494 C492 1.353 . S
C494 C497 1.348 . S
C494 H526 0.929 . S
C495 C496 1.358 . S
C495 C497 1.356 . S
C495 H527 0.930 . S
C496 N493 1.279 . S
C496 C495 1.358 . S
C496 H499 0.930 . S
C497 C494 1.348 . S
C497 C495 1.356 . S
H498 C492 0.930 . S
H499 C496 0.930 . S
O500 Li440 1.956 . S
O500 Li441 1.970 . S
O500 Li442 1.961 . S
O500 C444 1.325 . S
O501 Li440 1.970 . S
O501 Li441 1.956 . S
O501 Li443 1.961 . S
O501 C450 1.325 . S
O502 Li440 1.961 . S
O502 Li442 1.956 . S
O502 Li443 1.970 . S
O502 C472 1.325 . S
O503 Li441 1.961 . S
O503 Li442 1.970 . S
O503 Li443 1.956 . S
O503 C478 1.325 . S
H504 C446 0.929 1_556 S
H505 C447 0.930 . S
H506 C448 0.930 . S
H507 C449 0.930 . S
H508 C451 0.930 . S
H509 C453 0.929 . S
H510 C454 0.930 . S
H511 C455 0.930 . S
H512 C458 0.930 . S
H513 C461 0.929 1_455 S
H514 C466 0.929 . S
H515 C467 0.930 . S
H516 C474 0.929 . S
H517 C475 0.930 . S
H518 C476 0.930 . S
H519 C477 0.930 . S
H520 C479 0.929 . S
H521 C480 0.930 . S
H522 C481 0.930 . S
H523 C482 0.930 . S
H524 C486 0.929 . S
H525 C488 0.930 . S
H526 C494 0.929 . S
H527 C495 0.930 . S
Li528 N545 1.990 . S
Li528 O588 1.956 . S
Li528 O589 1.970 . S
Li528 O590 1.961 . S
Li529 N553 1.990 . S
Li529 O588 1.970 . S
Li529 O589 1.956 . S
Li529 O591 1.961 . S
Li530 N575 1.990 . S
Li530 O588 1.961 . S
Li530 O590 1.956 . S
Li530 O591 1.970 . S
Li531 N581 1.990 . S
Li531 O589 1.961 . S
Li531 O590 1.970 . S
Li531 O591 1.956 . S
C532 C534 1.348 . S
C532 C535 1.356 . S
C532 O588 1.325 . S
N533 C536 1.314 . S
N533 C537 1.279 . S
C534 C532 1.348 . S
C534 C536 1.353 . S
C534 H592 0.929 . S
C535 C532 1.356 . S
C535 C537 1.358 . S
C535 H593 0.930 . S
C536 N533 1.314 . S
C536 C534 1.353 . S
C536 H594 0.930 . S
C537 N533 1.279 . S
C537 C535 1.358 . S
C537 H595 0.930 . S
C538 C541 1.348 . S
C538 C542 1.356 . S
C538 O589 1.325 . S
C539 N540 1.279 . S
C539 C542 1.358 . S
C539 H596 0.930 . S
N540 C539 1.279 . S
N540 C543 1.314 . S
C541 C538 1.348 . S
C541 C543 1.353 . S
C541 H597 0.929 . S
C542 C538 1.356 . S
C542 C539 1.358 . S
C542 H598 0.930 . S
C543 N540 1.314 . S
C543 C541 1.353 . S
C543 H599 0.930 . S
C544 N545 1.314 . S
C544 C549 1.353 . S
C544 H550 0.930 . S
N545 Li528 1.990 . S
N545 C544 1.314 . S
N545 C547 1.279 . S
C546 C547 1.358 . S
C546 C548 1.356 . S
C546 H600 0.930 . S
C547 N545 1.279 . S
C547 C546 1.358 . S
C547 H551 0.930 . S
C548 C546 1.356 . S
C548 C549 1.348 . S
C549 C544 1.353 . S
C549 C548 1.348 . S
C549 H601 0.929 . S
H550 C544 0.930 . S
H551 C547 0.930 . S
C552 N553 1.314 . S
C552 C554 1.353 . S
C552 H558 0.930 . S
N553 Li529 1.990 . S
N553 C552 1.314 . S
N553 C556 1.279 . S
C554 C552 1.353 . S
C554 C557 1.348 . S
C554 H602 0.929 . S
C555 C556 1.358 . S
C555 C557 1.356 . S
C555 H603 0.930 . S
C556 N553 1.279 . S
C556 C555 1.358 . S
C556 H559 0.930 . S
C557 C554 1.348 . S
C557 C555 1.356 . S
H558 C552 0.930 . S
H559 C556 0.930 . S
C560 C562 1.348 . S
C560 C563 1.356 . S
C560 O590 1.325 . S
N561 C564 1.314 . S
N561 C565 1.279 . S
C562 C560 1.348 . S
C562 C564 1.353 . S
C562 H604 0.929 . S
C563 C560 1.356 . S
C563 C565 1.358 . S
C563 H605 0.930 . S
C564 N561 1.314 . S
C564 C562 1.353 . S
C564 H606 0.930 . S
C565 N561 1.279 . S
C565 C563 1.358 . S
C565 H607 0.930 . S
C566 C567 1.348 . S
C566 C568 1.356 . S
C566 O591 1.325 . S
C567 C566 1.348 . S
C567 C569 1.353 . S
C567 H608 0.929 . S
C568 C566 1.356 . S
C568 C570 1.358 . S
C568 H609 0.930 . S
C569 C567 1.353 . S
C569 N571 1.314 . S
C569 H610 0.930 . S
C570 C568 1.358 . S
C570 N571 1.279 . S
C570 H611 0.930 . S
N571 C569 1.314 . S
N571 C570 1.279 . S
C572 C574 1.353 . S
C572 N575 1.314 . S
C572 H578 0.930 . S
C573 N575 1.279 . S
C573 C576 1.358 . S
C573 H579 0.930 . S
C574 C572 1.353 . S
C574 C577 1.348 . S
C574 H612 0.929 . S
N575 Li530 1.990 . S
N575 C572 1.314 . S
N575 C573 1.279 . S
C576 C573 1.358 . S
C576 C577 1.356 . S
C576 H613 0.930 1_565 S
C577 C574 1.348 . S
C577 C576 1.356 . S
H578 C572 0.930 . S
H579 C573 0.930 . S
C580 N581 1.314 . S
C580 C582 1.353 . S
C580 H586 0.930 . S
N581 Li531 1.990 . S
N581 C580 1.314 . S
N581 C584 1.279 . S
C582 C580 1.353 . S
C582 C585 1.348 . S
C582 H614 0.929 . S
C583 C584 1.358 . S
C583 C585 1.356 . S
C583 H615 0.930 . S
C584 N581 1.279 . S
C584 C583 1.358 . S
C584 H587 0.930 . S
C585 C582 1.348 . S
C585 C583 1.356 . S
H586 C580 0.930 . S
H587 C584 0.930 . S
O588 Li528 1.956 . S
O588 Li529 1.970 . S
O588 Li530 1.961 . S
O588 C532 1.325 . S
O589 Li528 1.970 . S
O589 Li529 1.956 . S
O589 Li531 1.961 . S
O589 C538 1.325 . S
O590 Li528 1.961 . S
O590 Li530 1.956 . S
O590 Li531 1.970 . S
O590 C560 1.325 . S
O591 Li529 1.961 . S
O591 Li530 1.970 . S
O591 Li531 1.956 . S
O591 C566 1.325 . S
H592 C534 0.929 . S
H593 C535 0.930 . S
H594 C536 0.930 . S
H595 C537 0.930 . S
H596 C539 0.930 . S
H597 C541 0.929 . S
H598 C542 0.930 . S
H599 C543 0.930 . S
H600 C546 0.930 . S
H601 C549 0.929 . S
H602 C554 0.929 . S
H603 C555 0.930 . S
H604 C562 0.929 . S
H605 C563 0.930 . S
H606 C564 0.930 . S
H607 C565 0.930 . S
H608 C567 0.929 . S
H609 C568 0.930 . S
H610 C569 0.930 . S
H611 C570 0.930 . S
H612 C574 0.929 . S
H613 C576 0.930 1_545 S
H614 C582 0.929 . S
H615 C583 0.930 . S
Li616 N633 1.990 . S
Li616 O676 1.956 . S
Li616 O677 1.970 . S
Li616 O678 1.961 . S
Li617 N641 1.990 . S
Li617 O676 1.970 . S
Li617 O677 1.956 . S
Li617 O679 1.961 . S
Li618 N663 1.990 . S
Li618 O676 1.961 . S
Li618 O678 1.956 . S
Li618 O679 1.970 . S
Li619 N669 1.990 . S
Li619 O677 1.961 . S
Li619 O678 1.970 . S
Li619 O679 1.956 . S
C620 C622 1.348 . S
C620 C623 1.356 . S
C620 O676 1.325 . S
N621 C624 1.314 . S
N621 C625 1.279 . S
C622 C620 1.348 . S
C622 C624 1.353 . S
C622 H680 0.929 . S
C623 C620 1.356 . S
C623 C625 1.358 . S
C623 H681 0.930 . S
C624 N621 1.314 . S
C624 C622 1.353 . S
C624 H682 0.930 . S
C625 N621 1.279 . S
C625 C623 1.358 . S
C625 H683 0.930 . S
C626 C629 1.348 . S
C626 C630 1.356 . S
C626 O677 1.325 . S
C627 N628 1.279 . S
C627 C630 1.358 . S
C627 H684 0.930 . S
N628 C627 1.279 . S
N628 C631 1.314 . S
C629 C626 1.348 . S
C629 C631 1.353 . S
C629 H685 0.929 . S
C630 C626 1.356 . S
C630 C627 1.358 . S
C630 H686 0.930 . S
C631 N628 1.314 . S
C631 C629 1.353 . S
C631 H687 0.930 . S
C632 N633 1.314 . S
C632 C637 1.353 . S
C632 H638 0.930 . S
N633 Li616 1.990 . S
N633 C632 1.314 . S
N633 C635 1.279 . S
C634 C635 1.358 . S
C634 C636 1.356 . S
C634 H688 0.930 . S
C635 N633 1.279 . S
C635 C634 1.358 . S
C635 H639 0.930 . S
C636 C634 1.356 . S
C636 C637 1.348 . S
C637 C632 1.353 . S
C637 C636 1.348 . S
C637 H689 0.929 . S
H638 C632 0.930 . S
H639 C635 0.930 . S
C640 N641 1.314 . S
C640 C642 1.353 . S
C640 H646 0.930 . S
N641 Li617 1.990 . S
N641 C640 1.314 . S
N641 C644 1.279 . S
C642 C640 1.353 . S
C642 C645 1.348 . S
C642 H690 0.929 . S
C643 C644 1.358 . S
C643 C645 1.356 . S
C643 H691 0.930 . S
C644 N641 1.279 . S
C644 C643 1.358 . S
C644 H647 0.930 . S
C645 C642 1.348 . S
C645 C643 1.356 . S
H646 C640 0.930 . S
H647 C644 0.930 . S
C648 C650 1.348 . S
C648 C651 1.356 . S
C648 O678 1.325 . S
N649 C652 1.314 . S
N649 C653 1.279 . S
C650 C648 1.348 . S
C650 C652 1.353 . S
C650 H692 0.929 . S
C651 C648 1.356 . S
C651 C653 1.358 . S
C651 H693 0.930 . S
C652 N649 1.314 . S
C652 C650 1.353 . S
C652 H694 0.930 . S
C653 N649 1.279 . S
C653 C651 1.358 . S
C653 H695 0.930 . S
C654 C655 1.348 . S
C654 C656 1.356 . S
C654 O679 1.325 . S
C655 C654 1.348 . S
C655 C657 1.353 . S
C655 H696 0.929 . S
C656 C654 1.356 . S
C656 C658 1.358 . S
C656 H697 0.930 . S
C657 C655 1.353 . S
C657 N659 1.314 . S
C657 H698 0.930 . S
C658 C656 1.358 . S
C658 N659 1.279 . S
C658 H699 0.930 . S
N659 C657 1.314 . S
N659 C658 1.279 . S
C660 C662 1.353 . S
C660 N663 1.314 . S
C660 H666 0.930 . S
C661 N663 1.279 . S
C661 C664 1.358 . S
C661 H667 0.930 . S
C662 C660 1.353 . S
C662 C665 1.348 . S
C662 H700 0.929 1_655 S
N663 Li618 1.990 . S
N663 C660 1.314 . S
N663 C661 1.279 . S
C664 C661 1.358 . S
C664 C665 1.356 . S
C664 H701 0.930 . S
C665 C662 1.348 . S
C665 C664 1.356 . S
H666 C660 0.930 . S
H667 C661 0.930 . S
C668 N669 1.314 . S
C668 C670 1.353 . S
C668 H674 0.930 . S
N669 Li619 1.990 . S
N669 C668 1.314 . S
N669 C672 1.279 . S
C670 C668 1.353 . S
C670 C673 1.348 . S
C670 H702 0.929 . S
C671 C672 1.358 . S
C671 C673 1.356 . S
C671 H703 0.930 1_545 S
C672 N669 1.279 . S
C672 C671 1.358 . S
C672 H675 0.930 . S
C673 C670 1.348 . S
C673 C671 1.356 . S
H674 C668 0.930 . S
H675 C672 0.930 . S
O676 Li616 1.956 . S
O676 Li617 1.970 . S
O676 Li618 1.961 . S
O676 C620 1.325 . S
O677 Li616 1.970 . S
O677 Li617 1.956 . S
O677 Li619 1.961 . S
O677 C626 1.325 . S
O678 Li616 1.961 . S
O678 Li618 1.956 . S
O678 Li619 1.970 . S
O678 C648 1.325 . S
O679 Li617 1.961 . S
O679 Li618 1.970 . S
O679 Li619 1.956 . S
O679 C654 1.325 . S
H680 C622 0.929 . S
H681 C623 0.930 . S
H682 C624 0.930 . S
H683 C625 0.930 . S
H684 C627 0.930 . S
H685 C629 0.929 . S
H686 C630 0.930 . S
H687 C631 0.930 . S
H688 C634 0.930 . S
H689 C637 0.929 . S
H690 C642 0.929 . S
H691 C643 0.930 . S
H692 C650 0.929 . S
H693 C651 0.930 . S
H694 C652 0.930 . S
H695 C653 0.930 . S
H696 C655 0.929 . S
H697 C656 0.930 . S
H698 C657 0.930 . S
H699 C658 0.930 . S
H700 C662 0.929 1_455 S
H701 C664 0.930 . S
H702 C670 0.929 . S
H703 C671 0.930 1_565 S
C704 C705 1.363 1_565 S
C704 C710 1.379 . S
C704 N712 1.356 . S
C705 C704 1.363 1_545 S
C705 C711 1.363 . S
C706 C707 1.363 1_545 S
C706 C711 1.379 . S
C706 N713 1.356 1_554 S
C707 C706 1.363 1_565 S
C707 C710 1.363 . S
N708 C710 1.356 . S
N708 H720 0.984 . S
N708 H721 0.985 . S
N709 C711 1.356 1_556 S
N709 H714 0.984 . S
N709 H715 0.985 . S
C710 C704 1.379 . S
C710 C707 1.363 . S
C710 N708 1.356 . S
C711 C705 1.363 . S
C711 C706 1.379 . S
C711 N709 1.356 1_554 S
N712 C704 1.356 . S
N712 H718 0.984 . S
N712 H719 0.984 . S
N713 C706 1.356 1_556 S
N713 H716 0.984 . S
N713 H717 0.985 . S
H714 N709 0.984 . S
H715 N709 0.985 . S
H716 N713 0.984 . S
H717 N713 0.985 . S
H718 N712 0.984 . S
H719 N712 0.984 . S
H720 N708 0.984 . S
H721 N708 0.985 . S
C722 C723 1.363 . S
C722 C728 1.379 . S
C722 N730 1.356 . S
C723 C722 1.363 . S
C723 C729 1.363 . S
C724 C725 1.363 . S
C724 C729 1.379 . S
C724 N731 1.356 . S
C725 C724 1.363 . S
C725 C728 1.363 . S
N726 C728 1.356 . S
N726 H738 0.984 . S
N726 H739 0.985 . S
N727 C729 1.356 . S
N727 H732 0.984 . S
N727 H733 0.985 . S
C728 C722 1.379 . S
C728 C725 1.363 . S
C728 N726 1.356 . S
C729 C723 1.363 . S
C729 C724 1.379 . S
C729 N727 1.356 . S
N730 C722 1.356 . S
N730 H736 0.984 . S
N730 H737 0.984 . S
N731 C724 1.356 . S
N731 H734 0.984 . S
N731 H735 0.985 . S
H732 N727 0.984 . S
H733 N727 0.985 . S
H734 N731 0.984 . S
H735 N731 0.985 . S
H736 N730 0.984 . S
H737 N730 0.984 . S
H738 N726 0.984 . S
H739 N726 0.985 . S
C740 C741 1.363 . S
C740 C746 1.379 . S
C740 N748 1.356 . S
C741 C740 1.363 . S
C741 C747 1.363 1_565 S
C742 C743 1.363 . S
C742 C747 1.379 . S
C742 N749 1.356 1_556 S
C743 C742 1.363 . S
C743 C746 1.363 1_545 S
N744 C746 1.356 . S
N744 H756 0.984 . S
N744 H757 0.985 . S
N745 C747 1.356 1_554 S
N745 H750 0.984 . S
N745 H751 0.985 . S
C746 C740 1.379 . S
C746 C743 1.363 1_565 S
C746 N744 1.356 . S
C747 C741 1.363 1_545 S
C747 C742 1.379 . S
C747 N745 1.356 1_556 S
N748 C740 1.356 . S
N748 H754 0.984 . S
N748 H755 0.984 . S
N749 C742 1.356 1_554 S
N749 H752 0.984 . S
N749 H753 0.985 . S
H750 N745 0.984 . S
H751 N745 0.985 . S
H752 N749 0.984 . S
H753 N749 0.985 . S
H754 N748 0.984 . S
H755 N748 0.984 . S
H756 N744 0.984 . S
H757 N744 0.985 . S
C758 C759 1.363 . S
C758 C764 1.379 . S
C758 N766 1.356 . S
C759 C758 1.363 . S
C759 C765 1.363 . S
C760 C761 1.363 . S
C760 C765 1.379 . S
C760 N767 1.356 . S
C761 C760 1.363 . S
C761 C764 1.363 . S
N762 C764 1.356 . S
N762 H774 0.984 . S
N762 H775 0.985 . S
N763 C765 1.356 . S
N763 H768 0.984 . S
N763 H769 0.985 . S
C764 C758 1.379 . S
C764 C761 1.363 . S
C764 N762 1.356 . S
C765 C759 1.363 . S
C765 C760 1.379 . S
C765 N763 1.356 . S
N766 C758 1.356 . S
N766 H772 0.984 . S
N766 H773 0.984 . S
N767 C760 1.356 . S
N767 H770 0.984 . S
N767 H771 0.985 . S
H768 N763 0.984 . S
H769 N763 0.985 . S
H770 N767 0.984 . S
H771 N767 0.985 . S
H772 N766 0.984 . S
H773 N766 0.984 . S
H774 N762 0.984 . S
H775 N762 0.985 . S
C776 C777 1.363 . S
C776 C782 1.379 . S
C776 N784 1.356 . S
C777 C776 1.363 . S
C777 C783 1.363 . S
C778 C779 1.363 . S
C778 C783 1.379 . S
C778 N785 1.356 . S
C779 C778 1.363 . S
C779 C782 1.363 . S
N780 C782 1.356 . S
N780 H792 0.984 . S
N780 H793 0.985 . S
N781 C783 1.356 . S
N781 H786 0.984 . S
N781 H787 0.985 . S
C782 C776 1.379 . S
C782 C779 1.363 . S
C782 N780 1.356 . S
C783 C777 1.363 . S
C783 C778 1.379 . S
C783 N781 1.356 . S
N784 C776 1.356 . S
N784 H790 0.984 . S
N784 H791 0.984 . S
N785 C778 1.356 . S
N785 H788 0.984 . S
N785 H789 0.985 . S
H786 N781 0.984 . S
H787 N781 0.985 . S
H788 N785 0.984 . S
H789 N785 0.985 . S
H790 N784 0.984 . S
H791 N784 0.984 . S
H792 N780 0.984 . S
H793 N780 0.985 . S
C794 C795 1.363 . S
C794 C800 1.379 . S
C794 N802 1.356 . S
C795 C794 1.363 . S
C795 C801 1.363 . S
C796 C797 1.363 . S
C796 C801 1.379 . S
C796 N803 1.356 . S
C797 C796 1.363 . S
C797 C800 1.363 . S
N798 C800 1.356 . S
N798 H810 0.984 . S
N798 H811 0.985 . S
N799 C801 1.356 . S
N799 H804 0.984 . S
N799 H805 0.985 . S
C800 C794 1.379 . S
C800 C797 1.363 . S
C800 N798 1.356 . S
C801 C795 1.363 . S
C801 C796 1.379 . S
C801 N799 1.356 . S
N802 C794 1.356 . S
N802 H808 0.984 . S
N802 H809 0.984 . S
N803 C796 1.356 . S
N803 H806 0.984 . S
N803 H807 0.985 . S
H804 N799 0.984 . S
H805 N799 0.985 . S
H806 N803 0.984 . S
H807 N803 0.985 . S
H808 N802 0.984 . S
H809 N802 0.984 . S
H810 N798 0.984 . S
H811 N798 0.985 . S
C812 C813 1.363 . S
C812 C818 1.379 . S
C812 N820 1.356 . S
C813 C812 1.363 . S
C813 C819 1.363 . S
C814 C815 1.363 . S
C814 C819 1.379 . S
C814 N821 1.356 . S
C815 C814 1.363 . S
C815 C818 1.363 . S
N816 C818 1.356 . S
N816 H828 0.984 . S
N816 H829 0.985 . S
N817 C819 1.356 . S
N817 H822 0.984 . S
N817 H823 0.985 . S
C818 C812 1.379 . S
C818 C815 1.363 . S
C818 N816 1.356 . S
C819 C813 1.363 . S
C819 C814 1.379 . S
C819 N817 1.356 . S
N820 C812 1.356 . S
N820 H826 0.984 . S
N820 H827 0.984 . S
N821 C814 1.356 . S
N821 H824 0.984 . S
N821 H825 0.985 . S
H822 N817 0.984 . S
H823 N817 0.985 . S
H824 N821 0.984 . S
H825 N821 0.985 . S
H826 N820 0.984 . S
H827 N820 0.984 . S
H828 N816 0.984 . S
H829 N816 0.985 . S
C830 C831 1.363 . S
C830 C836 1.379 . S
C830 N838 1.356 . S
C831 C830 1.363 . S
C831 C837 1.363 . S
C832 C833 1.363 . S
C832 C837 1.379 . S
C832 N839 1.356 . S
C833 C832 1.363 . S
C833 C836 1.363 . S
N834 C836 1.356 . S
N834 H846 0.984 . S
N834 H847 0.985 . S
N835 C837 1.356 . S
N835 H840 0.984 . S
N835 H841 0.985 . S
C836 C830 1.379 . S
C836 C833 1.363 . S
C836 N834 1.356 . S
C837 C831 1.363 . S
C837 C832 1.379 . S
C837 N835 1.356 . S
N838 C830 1.356 . S
N838 H844 0.984 . S
N838 H845 0.984 . S
N839 C832 1.356 . S
N839 H842 0.984 . S
N839 H843 0.985 . S
H840 N835 0.984 . S
H841 N835 0.985 . S
H842 N839 0.984 . S
H843 N839 0.985 . S
H844 N838 0.984 . S
H845 N838 0.984 . S
H846 N834 0.984 . S
H847 N834 0.985 . S
C848 C849 1.363 . S
C848 C854 1.379 . S
C848 N856 1.356 . S
C849 C848 1.363 . S
C849 C855 1.363 1_556 S
C850 C851 1.363 . S
C850 C855 1.379 . S
C850 N857 1.356 . S
C851 C850 1.363 . S
C851 C854 1.363 1_554 S
N852 C854 1.356 . S
N852 H864 0.984 . S
N852 H865 0.985 . S
N853 C855 1.356 . S
N853 H858 0.984 . S
N853 H859 0.985 . S
C854 C848 1.379 . S
C854 C851 1.363 1_556 S
C854 N852 1.356 . S
C855 C849 1.363 1_554 S
C855 C850 1.379 . S
C855 N853 1.356 . S
N856 C848 1.356 . S
N856 H862 0.984 . S
N856 H863 0.984 . S
N857 C850 1.356 . S
N857 H860 0.984 . S
N857 H861 0.985 . S
H858 N853 0.984 . S
H859 N853 0.985 . S
H860 N857 0.984 . S
H861 N857 0.985 . S
H862 N856 0.984 . S
H863 N856 0.984 . S
H864 N852 0.984 . S
H865 N852 0.985 . S
C866 C867 1.363 1_655 S
C866 C872 1.379 . S
C866 N874 1.356 . S
C867 C866 1.363 1_455 S
C867 C873 1.363 1_556 S
C868 C869 1.344 1_455 S
C868 C873 1.379 . S
C868 N875 1.356 . S
C869 C868 1.344 1_655 S
C869 C872 1.381 1_554 S
N870 C872 1.356 . S
N870 H882 0.984 . S
N870 H883 0.985 . S
N871 C873 1.356 . S
N871 H876 0.984 . S
N871 H877 0.985 . S
C872 C866 1.379 . S
C872 C869 1.381 1_556 S
C872 N870 1.356 . S
C873 C867 1.363 1_554 S
C873 C868 1.379 . S
C873 N871 1.356 . S
N874 C866 1.356 . S
N874 H880 0.984 . S
N874 H881 0.984 . S
N875 C868 1.356 . S
N875 H878 0.984 . S
N875 H879 0.985 . S
H876 N871 0.984 . S
H877 N871 0.985 . S
H878 N875 0.984 . S
H879 N875 0.985 . S
H880 N874 0.984 . S
H881 N874 0.984 . S
H882 N870 0.984 . S
H883 N870 0.985 . S
C884 C885 1.363 . S
C884 C890 1.379 1_565 S
C884 N892 1.356 . S
C885 C884 1.363 . S
C885 C891 1.363 . S
C886 C887 1.363 . S
C886 C891 1.379 1_545 S
C886 N893 1.356 . S
C887 C886 1.363 . S
C887 C890 1.363 . S
N888 C890 1.356 . S
N888 H900 0.984 . S
N888 H901 0.985 . S
N889 C891 1.356 . S
N889 H894 0.984 . S
N889 H895 0.985 . S
C890 C884 1.379 1_545 S
C890 C887 1.363 . S
C890 N888 1.356 . S
C891 C885 1.363 . S
C891 C886 1.379 1_565 S
C891 N889 1.356 . S
N892 C884 1.356 . S
N892 H898 0.984 . S
N892 H899 0.984 . S
N893 C886 1.356 . S
N893 H896 0.984 . S
N893 H897 0.985 . S
H894 N889 0.984 . S
H895 N889 0.985 . S
H896 N893 0.984 . S
H897 N893 0.985 . S
H898 N892 0.984 . S
H899 N892 0.984 . S
H900 N888 0.984 . S
H901 N888 0.985 . S
C902 C903 1.346 1_455 S
C902 C908 1.379 1_545 S
C902 N910 1.356 . S
C903 C902 1.346 1_655 S
C903 C909 1.379 . S
C904 C905 1.363 1_655 S
C904 C909 1.379 1_565 S
C904 N911 1.356 . S
C905 C904 1.363 1_455 S
C905 C908 1.363 . S
N906 C908 1.356 . S
N906 H918 0.984 . S
N906 H919 0.985 . S
N907 C909 1.356 . S
N907 H912 0.984 . S
N907 H913 0.985 . S
C908 C902 1.379 1_565 S
C908 C905 1.363 . S
C908 N906 1.356 . S
C909 C903 1.379 . S
C909 C904 1.379 1_545 S
C909 N907 1.356 . S
N910 C902 1.356 . S
N910 H916 0.984 . S
N910 H917 0.984 . S
N911 C904 1.356 . S
N911 H914 0.984 . S
N911 H915 0.985 . S
H912 N907 0.984 . S
H913 N907 0.985 . S
H914 N911 0.984 . S
H915 N911 0.985 . S
H916 N910 0.984 . S
H917 N910 0.984 . S
H918 N906 0.984 . S
H919 N906 0.985 . S
C920 C921 1.363 . S
C920 C926 1.379 . S
C920 N928 1.356 . S
C921 C920 1.363 . S
C921 C927 1.363 . S
C922 C923 1.363 . S
C922 C927 1.379 . S
C922 N929 1.356 . S
C923 C922 1.363 . S
C923 C926 1.363 . S
N924 C926 1.356 . S
N924 H936 0.984 . S
N924 H937 0.985 . S
N925 C927 1.356 . S
N925 H930 0.984 . S
N925 H931 0.985 . S
C926 C920 1.379 . S
C926 C923 1.363 . S
C926 N924 1.356 . S
C927 C921 1.363 . S
C927 C922 1.379 . S
C927 N925 1.356 . S
N928 C920 1.356 . S
N928 H934 0.984 . S
N928 H935 0.984 . S
N929 C922 1.356 . S
N929 H932 0.984 . S
N929 H933 0.985 . S
H930 N925 0.984 . S
H931 N925 0.985 . S
H932 N929 0.984 . S
H933 N929 0.985 . S
H934 N928 0.984 . S
H935 N928 0.984 . S
H936 N924 0.984 . S
H937 N924 0.985 . S
C938 C939 1.363 1_565 S
C938 C944 1.379 . S
C938 N946 1.356 1_565 S
C939 C938 1.363 1_545 S
C939 C945 1.363 . S
C940 C941 1.363 1_545 S
C940 C945 1.379 . S
C940 N947 1.356 1_545 S
C941 C940 1.363 1_565 S
C941 C944 1.363 . S
N942 C944 1.356 . S
N942 H954 0.984 . S
N942 H955 0.985 . S
N943 C945 1.356 . S
N943 H948 0.984 . S
N943 H949 0.985 . S
C944 C938 1.379 . S
C944 C941 1.363 . S
C944 N942 1.356 . S
C945 C939 1.363 . S
C945 C940 1.379 . S
C945 N943 1.356 . S
N946 C938 1.356 1_545 S
N946 H952 0.984 1_545 S
N946 H953 0.984 . S
N947 C940 1.356 1_565 S
N947 H950 0.984 . S
N947 H951 0.985 1_565 S
H948 N943 0.984 . S
H949 N943 0.985 . S
H950 N947 0.984 . S
H951 N947 0.985 1_545 S
H952 N946 0.984 1_565 S
H953 N946 0.984 . S
H954 N942 0.984 . S
H955 N942 0.985 . S
C956 C957 1.363 . S
C956 C962 1.379 . S
C956 N964 1.356 . S
C957 C956 1.363 . S
C957 C963 1.363 . S
C958 C959 1.363 . S
C958 C963 1.379 . S
C958 N965 1.356 . S
C959 C958 1.363 . S
C959 C962 1.363 . S
N960 C962 1.356 . S
N960 H972 1.019 . S
N960 H973 0.985 . S
N961 C963 1.356 . S
N961 H966 0.984 . S
N961 H967 0.985 . S
C962 C956 1.379 . S
C962 C959 1.363 . S
C962 N960 1.356 . S
C963 C957 1.363 . S
C963 C958 1.379 . S
C963 N961 1.356 . S
N964 C956 1.356 . S
N964 H970 1.019 . S
N964 H971 0.984 . S
N965 C958 1.356 . S
N965 H968 0.984 . S
N965 H969 0.985 . S
H966 N961 0.984 . S
H967 N961 0.985 . S
H968 N965 0.984 . S
H969 N965 0.985 . S
H970 N964 1.019 . S
H971 N964 0.984 . S
H972 N960 1.019 . S
H973 N960 0.985 . S
C974 C975 1.363 . S
C974 C980 1.379 . S
C974 N982 1.356 . S
C975 C974 1.363 . S
C975 C981 1.363 1_565 S
C976 C977 1.363 . S
C976 C981 1.379 . S
C976 N983 1.356 . S
C977 C976 1.363 . S
C977 C980 1.363 1_545 S
N978 C980 1.356 1_545 S
N978 H990 0.984 1_545 S
N978 H991 0.985 . S
N979 C981 1.356 1_565 S
N979 H984 0.984 . S
N979 H985 0.985 1_565 S
C980 C974 1.379 . S
C980 C977 1.363 1_565 S
C980 N978 1.356 1_565 S
C981 C975 1.363 1_545 S
C981 C976 1.379 . S
C981 N979 1.356 1_545 S
N982 C974 1.356 . S
N982 H988 0.984 . S
N982 H989 0.984 . S
N983 C976 1.356 . S
N983 H986 0.984 . S
N983 H987 0.985 . S
H984 N979 0.984 . S
H985 N979 0.985 1_545 S
H986 N983 0.984 . S
H987 N983 0.985 . S
H988 N982 0.984 . S
H989 N982 0.984 . S
H990 N978 0.984 1_565 S
H991 N978 0.985 . S
C705 C49 2.293 . S
C707 C137 2.293 . S
C723 C284 2.293 . S
C725 C205 2.293 . S
C741 C401 2.305 . S
C743 C489 2.305 . S
C759 C557 2.305 . S
C761 C636 2.305 . S
C777 C29 1.635 . S
C779 C225 1.635 . S
C795 C321 1.635 . S
C797 C117 1.635 . S
C813 C409 1.634 . S
C815 C548 1.634 . S
C831 C645 1.634 . S
C833 C497 1.634 . S
C849 C20 2.675 1_556 S
C851 C372 2.668 1_554 S
C867 C108 2.675 1_556 S
C869 C460 2.677 1_554 S
C885 C585 2.668 . S
C887 C233 2.675 . S
C903 C665 2.677 . S
C905 C313 2.675 . S
C921 C145 0.295 . S
C923 C57 0.295 . S
C939 C196 0.295 . S
C941 C293 0.295 . S
C957 C381 0.298 . S
C959 C469 0.298 . S
C975 C577 0.298 . S
C977 C673 0.298 . S
