# Generated by pormake.
# Topology lcs, (4)-cn, num edge types: 1
# Building blocks:
#     Node 0, Type 0, BuildingBlock: TATPOV_clean_sbu_0, # of connection points: 4
#     Node 1, Type 0, BuildingBlock: TATPOV_clean_sbu_0, # of connection points: 4
#     Node 2, Type 0, BuildingBlock: TATPOV_clean_sbu_0, # of connection points: 4
#     Node 3, Type 0, BuildingBlock: TATPOV_clean_sbu_0, # of connection points: 4
#     Node 4, Type 0, BuildingBlock: TATPOV_clean_sbu_0, # of connection points: 4
#     Node 5, Type 0, BuildingBlock: TATPOV_clean_sbu_0, # of connection points: 4
#     Node 6, Type 0, BuildingBlock: TATPOV_clean_sbu_0, # of connection points: 4
#     Node 7, Type 0, BuildingBlock: TATPOV_clean_sbu_0, # of connection points: 4
#     Node 8, Type 0, BuildingBlock: TATPOV_clean_sbu_0, # of connection points: 4
#     Node 9, Type 0, BuildingBlock: TATPOV_clean_sbu_0, # of connection points: 4
#     Node 10, Type 0, BuildingBlock: TATPOV_clean_sbu_0, # of connection points: 4
#     Node 11, Type 0, BuildingBlock: TATPOV_clean_sbu_0, # of connection points: 4
#     Node 12, Type 0, BuildingBlock: TATPOV_clean_sbu_0, # of connection points: 4
#     Node 13, Type 0, BuildingBlock: TATPOV_clean_sbu_0, # of connection points: 4
#     Node 14, Type 0, BuildingBlock: TATPOV_clean_sbu_0, # of connection points: 4
#     Node 15, Type 0, BuildingBlock: TATPOV_clean_sbu_0, # of connection points: 4
#     Node 16, Type 0, BuildingBlock: TATPOV_clean_sbu_0, # of connection points: 4
#     Node 17, Type 0, BuildingBlock: TATPOV_clean_sbu_0, # of connection points: 4
#     Node 18, Type 0, BuildingBlock: TATPOV_clean_sbu_0, # of connection points: 4
#     Node 19, Type 0, BuildingBlock: TATPOV_clean_sbu_0, # of connection points: 4
#     Node 20, Type 0, BuildingBlock: TATPOV_clean_sbu_0, # of connection points: 4
#     Node 21, Type 0, BuildingBlock: TATPOV_clean_sbu_0, # of connection points: 4
#     Node 22, Type 0, BuildingBlock: TATPOV_clean_sbu_0, # of connection points: 4
#     Node 23, Type 0, BuildingBlock: TATPOV_clean_sbu_0, # of connection points: 4
#     Edge 24, Type (0, 0), BuildingBlock: AJUNOK_clean_linker_0, # of connection points: 2
#     Edge 25, Type (0, 0), BuildingBlock: AJUNOK_clean_linker_0, # of connection points: 2
#     Edge 26, Type (0, 0), BuildingBlock: AJUNOK_clean_linker_0, # of connection points: 2
#     Edge 27, Type (0, 0), BuildingBlock: AJUNOK_clean_linker_0, # of connection points: 2
#     Edge 28, Type (0, 0), BuildingBlock: AJUNOK_clean_linker_0, # of connection points: 2
#     Edge 29, Type (0, 0), BuildingBlock: AJUNOK_clean_linker_0, # of connection points: 2
#     Edge 30, Type (0, 0), BuildingBlock: AJUNOK_clean_linker_0, # of connection points: 2
#     Edge 31, Type (0, 0), BuildingBlock: AJUNOK_clean_linker_0, # of connection points: 2
#     Edge 32, Type (0, 0), BuildingBlock: AJUNOK_clean_linker_0, # of connection points: 2
#     Edge 33, Type (0, 0), BuildingBlock: AJUNOK_clean_linker_0, # of connection points: 2
#     Edge 34, Type (0, 0), BuildingBlock: AJUNOK_clean_linker_0, # of connection points: 2
#     Edge 35, Type (0, 0), BuildingBlock: AJUNOK_clean_linker_0, # of connection points: 2
#     Edge 36, Type (0, 0), BuildingBlock: AJUNOK_clean_linker_0, # of connection points: 2
#     Edge 37, Type (0, 0), BuildingBlock: AJUNOK_clean_linker_0, # of connection points: 2
#     Edge 38, Type (0, 0), BuildingBlock: AJUNOK_clean_linker_0, # of connection points: 2
#     Edge 39, Type (0, 0), BuildingBlock: AJUNOK_clean_linker_0, # of connection points: 2
#     Edge 40, Type (0, 0), BuildingBlock: AJUNOK_clean_linker_0, # of connection points: 2
#     Edge 41, Type (0, 0), BuildingBlock: AJUNOK_clean_linker_0, # of connection points: 2
#     Edge 42, Type (0, 0), BuildingBlock: AJUNOK_clean_linker_0, # of connection points: 2
#     Edge 43, Type (0, 0), BuildingBlock: AJUNOK_clean_linker_0, # of connection points: 2
#     Edge 44, Type (0, 0), BuildingBlock: AJUNOK_clean_linker_0, # of connection points: 2
#     Edge 45, Type (0, 0), BuildingBlock: AJUNOK_clean_linker_0, # of connection points: 2
#     Edge 46, Type (0, 0), BuildingBlock: AJUNOK_clean_linker_0, # of connection points: 2
#     Edge 47, Type (0, 0), BuildingBlock: AJUNOK_clean_linker_0, # of connection points: 2
#     Edge 48, Type (0, 0), BuildingBlock: AJUNOK_clean_linker_0, # of connection points: 2
#     Edge 49, Type (0, 0), BuildingBlock: AJUNOK_clean_linker_0, # of connection points: 2
#     Edge 50, Type (0, 0), BuildingBlock: AJUNOK_clean_linker_0, # of connection points: 2
#     Edge 51, Type (0, 0), BuildingBlock: AJUNOK_clean_linker_0, # of connection points: 2
#     Edge 52, Type (0, 0), BuildingBlock: AJUNOK_clean_linker_0, # of connection points: 2
#     Edge 53, Type (0, 0), BuildingBlock: AJUNOK_clean_linker_0, # of connection points: 2
#     Edge 54, Type (0, 0), BuildingBlock: AJUNOK_clean_linker_0, # of connection points: 2
#     Edge 55, Type (0, 0), BuildingBlock: AJUNOK_clean_linker_0, # of connection points: 2
#     Edge 56, Type (0, 0), BuildingBlock: AJUNOK_clean_linker_0, # of connection points: 2
#     Edge 57, Type (0, 0), BuildingBlock: AJUNOK_clean_linker_0, # of connection points: 2
#     Edge 58, Type (0, 0), BuildingBlock: AJUNOK_clean_linker_0, # of connection points: 2
#     Edge 59, Type (0, 0), BuildingBlock: AJUNOK_clean_linker_0, # of connection points: 2
#     Edge 60, Type (0, 0), BuildingBlock: AJUNOK_clean_linker_0, # of connection points: 2
#     Edge 61, Type (0, 0), BuildingBlock: AJUNOK_clean_linker_0, # of connection points: 2
#     Edge 62, Type (0, 0), BuildingBlock: AJUNOK_clean_linker_0, # of connection points: 2
#     Edge 63, Type (0, 0), BuildingBlock: AJUNOK_clean_linker_0, # of connection points: 2
#     Edge 64, Type (0, 0), BuildingBlock: AJUNOK_clean_linker_0, # of connection points: 2
#     Edge 65, Type (0, 0), BuildingBlock: AJUNOK_clean_linker_0, # of connection points: 2
#     Edge 66, Type (0, 0), BuildingBlock: AJUNOK_clean_linker_0, # of connection points: 2
#     Edge 67, Type (0, 0), BuildingBlock: AJUNOK_clean_linker_0, # of connection points: 2
#     Edge 68, Type (0, 0), BuildingBlock: AJUNOK_clean_linker_0, # of connection points: 2
#     Edge 69, Type (0, 0), BuildingBlock: AJUNOK_clean_linker_0, # of connection points: 2
#     Edge 70, Type (0, 0), BuildingBlock: AJUNOK_clean_linker_0, # of connection points: 2
#     Edge 71, Type (0, 0), BuildingBlock: AJUNOK_clean_linker_0, # of connection points: 2
# Relax obj value: 0.083
# Max RMSD: 0.146
# Mean RMSD: 0.143
data_MOF--net-lcs--node1-TATPOV_clean_sbu_0--edge1-AJUNOK_clean_linker_0
_symmetry_space_group_name_H-M    P1
_symmetry_Int_Tables_number       1
_symmetry_cell_setting            triclinic
loop_
_symmetry_equiv_pos_as_xyz
'x, y, z'
_cell_length_a     35.950402
_cell_length_b     36.060742
_cell_length_c     36.048683
_cell_angle_alpha  91.127305
_cell_angle_beta   91.034544
_cell_angle_gamma 91.317837
loop_
_atom_site_label
_atom_site_type_symbol
_atom_site_fract_x
_atom_site_fract_y
_atom_site_fract_z
_atom_type_partial_charge
Zn0 Zn 0.9982 0.16276 0.45411 0.0
Zn1 Zn 0.01602 0.22445 0.4189 0.0
O2 O 0.97196 0.23928 0.45232 0.0
O3 O 0.95734 0.18839 0.48186 0.0
O4 O 0.02897 0.27192 0.39283 0.0
O5 O 0.05019 0.15816 0.47419 0.0
O6 O 0.06624 0.2063 0.44109 0.0
C7 C 0.95101 0.22193 0.47469 0.0
C8 C 0.98647 0.15764 0.37489 0.0
O9 O 0.997 0.19151 0.37633 0.0
O10 O 0.98545 0.13882 0.40417 0.0
C11 C 0.00329 0.28683 0.37396 0.0
O12 O 0.97009 0.27081 0.3724 0.0
C13 C 0.07523 0.17985 0.46231 0.0
Zn14 Zn 0.01372 0.8391 0.5363 0.0
Zn15 Zn 0.99639 0.77705 0.57275 0.0
O16 O 0.94605 0.79411 0.54999 0.0
O17 O 0.9622 0.84056 0.51432 0.0
O18 O 0.98609 0.72749 0.59673 0.0
O19 O 0.05581 0.81498 0.50938 0.0
O20 O 0.04083 0.76443 0.53934 0.0
C21 C 0.93734 0.81918 0.52704 0.0
C22 C 0.02321 0.84492 0.6165 0.0
O23 O 0.01384 0.8107 0.61543 0.0
O24 O 0.02421 0.86326 0.58688 0.0
C25 C 0.97821 0.72265 0.63064 0.0
O26 O 0.97381 0.75168 0.65255 0.0
C27 C 0.06195 0.78154 0.51695 0.0
Zn28 Zn 0.50376 0.66515 0.95396 0.0
Zn29 Zn 0.51814 0.72821 0.91977 0.0
O30 O 0.47377 0.7408 0.95393 0.0
O31 O 0.46171 0.68827 0.98178 0.0
O32 O 0.52961 0.77632 0.89384 0.0
O33 O 0.55551 0.66347 0.97497 0.0
O34 O 0.56914 0.71282 0.94257 0.0
C35 C 0.45401 0.72178 0.97609 0.0
C36 C 0.49199 0.65997 0.87505 0.0
O37 O 0.50037 0.69442 0.87698 0.0
O38 O 0.49256 0.64071 0.90404 0.0
C39 C 0.5039 0.79136 0.87511 0.0
O40 O 0.47071 0.77532 0.87347 0.0
C41 C 0.57931 0.68694 0.96395 0.0
Zn42 Zn 0.51118 0.35199 0.05967 0.0
Zn43 Zn 0.49705 0.28741 0.09192 0.0
O44 O 0.44577 0.30372 0.07115 0.0
O45 O 0.45849 0.35483 0.04119 0.0
O46 O 0.48574 0.23893 0.11671 0.0
O47 O 0.5516 0.32856 0.02946 0.0
O48 O 0.5395 0.27524 0.05582 0.0
C49 C 0.43496 0.33078 0.05169 0.0
C50 C 0.52604 0.35346 0.13825 0.0
O51 O 0.51692 0.31926 0.13519 0.0
O52 O 0.52477 0.374 0.11019 0.0
C53 C 0.51212 0.22092 0.13117 0.0
O54 O 0.54648 0.23366 0.12845 0.0
C55 C 0.55876 0.29466 0.03364 0.0
Zn56 Zn 0.91995 0.74978 0.21517 0.0
Zn57 Zn 0.98416 0.7647 0.18255 0.0
O58 O 0.96712 0.81556 0.20458 0.0
O59 O 0.91844 0.80048 0.23795 0.0
O60 O 0.03468 0.77448 0.15966 0.0
O61 O 0.94105 0.70733 0.24309 0.0
O62 O 0.99458 0.72027 0.21711 0.0
C63 C 0.94118 0.82474 0.22651 0.0
C64 C 0.91722 0.73969 0.13563 0.0
O65 O 0.95184 0.74744 0.13857 0.0
O66 O 0.89709 0.74014 0.16411 0.0
C67 C 0.03953 0.78539 0.12663 0.0
O68 O 0.01037 0.79296 0.10591 0.0
C69 C 0.97494 0.70021 0.23846 0.0
Zn70 Zn 0.60095 0.76252 0.30204 0.0
Zn71 Zn 0.5366 0.74563 0.33381 0.0
O72 O 0.52576 0.7907 0.30095 0.0
O73 O 0.57854 0.8051 0.27437 0.0
O74 O 0.48599 0.7347 0.35491 0.0
O75 O 0.60414 0.71121 0.28029 0.0
O76 O 0.55408 0.6956 0.31106 0.0
C77 C 0.54469 0.81182 0.28008 0.0
C78 C 0.6021 0.77099 0.38202 0.0
O79 O 0.56778 0.76207 0.37872 0.0
O80 O 0.62237 0.77225 0.35367 0.0
C81 C 0.47999 0.72478 0.388 0.0
O82 O 0.50836 0.71899 0.41045 0.0
C83 C 0.58109 0.68657 0.29044 0.0
Zn84 Zn 0.40813 0.24394 0.6959 0.0
Zn85 Zn 0.47434 0.25774 0.66543 0.0
O86 O 0.45859 0.30919 0.68603 0.0
O87 O 0.40619 0.29663 0.71424 0.0
O88 O 0.52544 0.26601 0.6442 0.0
O89 O 0.42947 0.20317 0.72693 0.0
O90 O 0.48347 0.21488 0.70145 0.0
C91 C 0.43091 0.31998 0.70479 0.0
C92 C 0.40916 0.23015 0.61688 0.0
O93 O 0.44334 0.23941 0.62088 0.0
O94 O 0.38791 0.23088 0.64452 0.0
C95 C 0.53159 0.275 0.61085 0.0
O96 O 0.50332 0.28138 0.58848 0.0
C97 C 0.46345 0.19574 0.72318 0.0
Zn98 Zn 0.09235 0.25807 0.80082 0.0
Zn99 Zn 0.02828 0.2428 0.83333 0.0
O100 O 0.01606 0.28672 0.79855 0.0
O101 O 0.06928 0.29889 0.7716 0.0
O102 O 0.97953 0.23097 0.85858 0.0
O103 O 0.09579 0.20637 0.78061 0.0
O104 O 0.04518 0.19201 0.81111 0.0
C105 C 0.03545 0.30626 0.77649 0.0
C106 C 0.09506 0.2711 0.87953 0.0
O107 O 0.06089 0.26139 0.87675 0.0
O108 O 0.11523 0.27077 0.85109 0.0
C109 C 0.96367 0.25668 0.87659 0.0
O110 O 0.97909 0.29007 0.87766 0.0
C111 C 0.07217 0.18229 0.79074 0.0
Zn112 Zn 0.46921 -0.00285 0.16059 0.0
Zn113 Zn 0.43195 0.01391 0.22253 0.0
O114 O 0.46433 0.96937 0.23718 0.0
O115 O 0.4945 0.95519 0.18645 0.0
O116 O 0.40365 0.02617 0.26907 0.0
O117 O 0.49183 0.04854 0.15992 0.0
O118 O 0.45677 0.06364 0.20715 0.0
C119 C 0.48671 0.94855 0.21982 0.0
C120 C 0.38947 0.98762 0.15303 0.0
O121 O 0.39049 -0.00285 0.18715 0.0
O122 O 0.41929 0.98667 0.13484 0.0
C123 C 0.38504 0.0005 0.28453 0.0
O124 O 0.38566 0.96663 0.27048 0.0
C125 C 0.47988 0.0728 0.18227 0.0
Zn126 Zn 0.34946 0.04315 0.50531 0.0
Zn127 Zn 0.28479 0.07512 0.49019 0.0
O128 O 0.30094 0.05275 0.43929 0.0
O129 O 0.35005 0.02025 0.45422 0.0
O130 O 0.234 0.09712 0.48228 0.0
O131 O 0.32831 0.01583 0.54872 0.0
O132 O 0.27495 0.04124 0.53501 0.0
C133 C 0.327 0.03107 0.43005 0.0
C134 C 0.35141 0.12308 0.51401 0.0
O135 O 0.31687 0.11964 0.50623 0.0
O136 O 0.37172 0.09481 0.51415 0.0
C137 C 0.22785 0.1296 0.47079 0.0
O138 O 0.25577 0.15039 0.45956 0.0
C139 C 0.29436 0.02053 0.55571 0.0
Zn140 Zn 0.20313 0.90781 0.73947 0.0
Zn141 Zn 0.17136 0.97269 0.75261 0.0
O142 O 0.19088 0.9568 0.80463 0.0
O143 O 0.22024 0.90526 0.79244 0.0
O144 O 0.14924 0.0232 0.76023 0.0
O145 O 0.23522 0.92933 0.69947 0.0
O146 O 0.20808 0.98242 0.71 0.0
C147 C 0.20973 0.92938 0.81572 0.0
C148 C 0.12414 0.90739 0.72373 0.0
O149 O 0.12721 0.94143 0.73338 0.0
O150 O 0.15224 0.88686 0.72498 0.0
C151 C 0.11799 0.02942 0.77486 0.0
O152 O 0.09878 0.00178 0.78886 0.0
C153 C 0.23077 0.96298 0.6915 0.0
Zn154 Zn 0.26913 0.80735 0.09195 0.0
Zn155 Zn 0.25327 0.83763 0.02792 0.0
O156 O 0.297 0.80244 0.01689 0.0
O157 O 0.31023 0.77699 0.07025 0.0
O158 O 0.24164 0.8576 0.9771 0.0
O159 O 0.21724 0.78773 0.0982 0.0
O160 O 0.20226 0.81788 0.04791 0.0
C161 C 0.31714 0.78115 0.03627 0.0
C162 C 0.2824 0.88663 0.09098 0.0
O163 O 0.27311 0.88297 0.05689 0.0
O164 O 0.28184 0.85885 0.11193 0.0
C165 C 0.22868 0.88949 0.97084 0.0
O166 O 0.22026 0.91121 -0.00101 0.0
C167 C 0.19257 0.79872 0.07577 0.0
Zn168 Zn 0.15925 0.45702 0.99342 0.0
Zn169 Zn 0.22264 0.42276 0.0101 0.0
O170 O 0.23458 0.45687 0.96642 0.0
O171 O 0.18341 0.48604 0.95232 0.0
O172 O 0.27296 0.40133 0.02075 0.0
O173 O 0.15616 0.47652 0.0458 0.0
O174 O 0.20546 0.44453 0.06045 0.0
C175 C 0.21712 0.47929 0.94591 0.0
C176 C 0.15648 0.3768 0.98235 0.0
O177 O 0.19061 0.37876 0.99224 0.0
O178 O 0.1373 0.40584 0.98135 0.0
C179 C 0.27924 0.3686 0.03143 0.0
O180 O 0.25107 0.34597 0.03794 0.0
C181 C 0.17888 0.4653 0.0701 0.0
Zn182 Zn 0.7409 0.21138 0.9115 0.0
Zn183 Zn 0.75728 0.1788 0.97543 0.0
O184 O 0.80827 0.20125 0.95846 0.0
O185 O 0.79238 0.23369 0.90962 0.0
O186 O 0.76623 0.15613 0.02569 0.0
O187 O 0.69877 0.23933 0.93412 0.0
O188 O 0.71324 0.21328 0.9869 0.0
C189 C 0.81698 0.22314 0.93235 0.0
C190 C 0.72995 0.13172 0.90947 0.0
O191 O 0.73935 0.13475 0.94358 0.0
O192 O 0.73001 0.16012 0.88931 0.0
C193 C 0.77783 0.12363 0.03156 0.0
O194 O 0.78844 0.10292 0.00348 0.0
C195 C 0.69253 0.23456 0.96814 0.0
Zn196 Zn 0.05133 0.50787 0.34853 0.0
Zn197 Zn 0.08187 0.49443 0.2828 0.0
O198 O 0.05787 0.4438 0.29686 0.0
O199 O 0.02615 0.4576 0.34688 0.0
O200 O 0.10249 0.48746 0.23155 0.0
O201 O 0.02583 0.55329 0.32975 0.0
O202 O 0.04975 0.54073 0.27541 0.0
C203 C 0.03581 0.43422 0.32249 0.0
C204 C 0.1318 0.51371 0.34899 0.0
O205 O 0.12743 0.50743 0.31437 0.0
O206 O 0.10381 0.51376 0.36988 0.0
C207 C 0.13478 0.47595 0.22424 0.0
O208 O 0.15633 0.46442 0.25127 0.0
C209 C 0.03028 0.56146 0.29612 0.0
Zn210 Zn 0.66394 0.95356 0.49651 0.0
Zn211 Zn 0.728 0.9223 0.51207 0.0
O212 O 0.74038 0.95558 0.4669 0.0
O213 O 0.68676 0.98088 0.45393 0.0
O214 O 0.77617 0.89681 0.52395 0.0
O215 O 0.66078 0.97551 0.54769 0.0
O216 O 0.71127 0.94546 0.56254 0.0
C217 C 0.72062 0.97628 0.44643 0.0
C218 C 0.66112 0.87473 0.48657 0.0
O219 O 0.69541 0.87834 0.49537 0.0
O220 O 0.64071 0.90288 0.48626 0.0
C221 C 0.79201 0.87895 0.4981 0.0
O222 O 0.77767 0.87934 0.46433 0.0
C223 C 0.68425 0.96584 0.57199 0.0
Zn224 Zn 0.80121 0.09374 0.26043 0.0
Zn225 Zn 0.83411 0.03069 0.24361 0.0
O226 O 0.80029 0.01657 0.28792 0.0
O227 O 0.77305 0.06901 0.30143 0.0
O228 O 0.86095 0.9836 0.23087 0.0
O229 O 0.78063 0.09797 0.20879 0.0
O230 O 0.81137 0.04817 0.19328 0.0
C231 C 0.77846 0.03524 0.30827 0.0
C232 C 0.8801 0.09739 0.27213 0.0
O233 O 0.87728 0.06353 0.2619 0.0
O234 O 0.85152 0.11725 0.27277 0.0
C235 C 0.87975 0.96841 0.25643 0.0
O236 O 0.87923 0.98262 0.29025 0.0
C237 C 0.79091 0.07517 0.18414 0.0
Zn238 Zn 0.24896 0.69436 0.40628 0.0
Zn239 Zn 0.26344 0.66402 0.47197 0.0
O240 O 0.31449 0.68589 0.45627 0.0
O241 O 0.30124 0.71481 0.4047 0.0
O242 O 0.27108 0.64465 0.52345 0.0
O243 O 0.20609 0.72352 0.42677 0.0
O244 O 0.21878 0.69782 0.48011 0.0
C245 C 0.32491 0.70533 0.42895 0.0
C246 C 0.23928 0.61422 0.40747 0.0
O247 O 0.24756 0.61829 0.44176 0.0
O248 O 0.2388 0.64207 0.38658 0.0
C249 C 0.28294 0.61277 0.5314 0.0
O250 O 0.29435 0.59065 0.50477 0.0
C251 C 0.19848 0.71863 0.4605 0.0
Zn252 Zn 0.30506 0.59574 0.76286 0.0
Zn253 Zn 0.33809 0.53125 0.74752 0.0
O254 O 0.30362 0.52088 0.79148 0.0
O255 O 0.27541 0.57292 0.80424 0.0
O256 O 0.35955 0.48085 0.73773 0.0
O257 O 0.28567 0.59774 0.71037 0.0
O258 O 0.31617 0.54719 0.6969 0.0
C259 C 0.28141 0.53934 0.81147 0.0
C260 C 0.38535 0.59709 0.77418 0.0
O261 O 0.38257 0.56304 0.76451 0.0
O262 O 0.35669 0.61692 0.7748 0.0
C263 C 0.39213 0.47484 0.72612 0.0
O264 O 0.4141 0.50311 0.71828 0.0
C265 C 0.29598 0.57393 0.68667 0.0
Zn266 Zn 0.54669 0.01405 0.84476 0.0
Zn267 Zn 0.58105 -0.00074 0.78108 0.0
O268 O 0.55893 0.94795 0.79668 0.0
O269 O 0.52492 0.96245 0.84497 0.0
O270 O 0.60444 0.99139 0.73093 0.0
O271 O 0.51846 0.05601 0.82241 0.0
O272 O 0.54584 0.04257 0.76995 0.0
C273 C 0.53638 0.93852 0.82202 0.0
C274 C 0.62661 0.02574 0.84835 0.0
O275 O 0.62444 0.01733 0.81394 0.0
O276 O 0.59767 0.02498 0.86791 0.0
C277 C 0.63692 0.97954 0.72492 0.0
O278 O 0.65739 0.96815 0.75282 0.0
C279 C 0.52377 0.06262 0.78855 0.0
Zn280 Zn 0.85598 0.5588 0.01341 0.0
Zn281 Zn 0.79072 0.5909 0.0005 0.0
O282 O 0.80593 0.57119 0.94851 0.0
O283 O 0.85764 0.54182 0.96029 0.0
O284 O 0.74002 0.61286 0.99356 0.0
O285 O 0.83423 0.52696 0.05346 0.0
O286 O 0.78118 0.55435 0.04295 0.0
C287 C 0.83325 0.55225 0.93724 0.0
C288 C 0.85664 0.63782 0.02862 0.0
O289 O 0.82247 0.63483 0.01908 0.0
O290 O 0.87705 0.60964 0.02766 0.0
C291 C 0.73341 0.64401 0.97916 0.0
O292 O 0.76084 0.66339 0.96488 0.0
C293 C 0.80048 0.53159 0.06137 0.0
Zn294 Zn 0.95545 0.49371 0.66101 0.0
Zn295 Zn 0.92464 0.50904 0.72506 0.0
O296 O 0.95837 0.46424 0.73543 0.0
O297 O 0.98414 0.45117 0.68212 0.0
O298 O 0.90447 0.52008 0.77581 0.0
O299 O 0.9766 0.54521 0.65649 0.0
O300 O 0.94579 0.55973 0.70661 0.0
C301 C 0.97926 0.44378 0.71589 0.0
C302 C 0.87546 0.48322 0.66093 0.0
O303 O 0.87902 0.49151 0.69526 0.0
O304 O 0.90361 0.48326 0.64029 0.0
C305 C 0.87273 0.53354 0.78209 0.0
O306 O 0.85138 0.54288 0.75401 0.0
C307 C 0.96565 0.56957 0.67928 0.0
Zn308 Zn 0.76294 0.29971 0.59061 0.0
Zn309 Zn 0.74761 0.33587 0.52838 0.0
O310 O 0.79281 0.30377 0.51478 0.0
O311 O 0.80509 0.27322 0.56558 0.0
O312 O 0.73596 0.3629 0.48127 0.0
O313 O 0.71063 0.27909 0.5922 0.0
O314 O 0.69721 0.31187 0.54319 0.0
C315 C 0.81301 0.28122 0.53254 0.0
C316 C 0.77313 0.37914 0.59745 0.0
O317 O 0.76368 0.37796 0.56331 0.0
O318 O 0.77417 0.34951 0.61573 0.0
C319 C 0.76127 0.38327 0.46738 0.0
O320 O 0.79412 0.38563 0.48392 0.0
C321 C 0.68683 0.2905 0.56904 0.0
Zn322 Zn 0.71731 0.41299 0.24628 0.0
Zn323 Zn 0.68525 0.47829 0.26081 0.0
O324 O 0.70756 0.46362 0.31182 0.0
O325 O 0.73971 0.41402 0.29776 0.0
O326 O 0.66275 0.52868 0.26792 0.0
O327 O 0.74501 0.43419 0.20304 0.0
O328 O 0.71968 0.4876 0.21642 0.0
C329 C 0.72935 0.43788 0.32136 0.0
C330 C 0.63712 0.41165 0.23714 0.0
O331 O 0.64092 0.44599 0.24517 0.0
O332 O 0.66529 0.39113 0.23712 0.0
C333 C 0.63 0.53446 0.2792 0.0
O334 O 0.60942 0.50647 0.29051 0.0
C335 C 0.74058 0.46806 0.196 0.0
C336 C 0.05384 0.36872 0.33113 0.0
C337 C 0.02567 0.39492 0.32797 0.0
C338 C 0.04625 0.33338 0.34526 0.0
C339 C 0.01008 0.32284 0.35588 0.0
H340 H 0.08234 0.37635 0.32487 0.0
H341 H 0.06902 0.31452 0.34868 0.0
S342 S 0.92613 0.38046 0.34933 0.0
N343 N 0.96013 0.40753 0.33441 0.0
N344 N 0.94538 0.34073 0.35956 0.0
C345 C 0.98131 0.34813 0.35063 0.0
C346 C 0.98925 0.38431 0.33707 0.0
C347 C 0.88824 0.84102 0.48358 0.0
C348 C 0.89804 0.82755 0.51869 0.0
C349 C 0.85328 0.85623 0.47683 0.0
C350 C 0.82721 0.85954 0.50526 0.0
H351 H 0.90821 0.84087 0.46142 0.0
H352 H 0.84735 0.867 0.44956 0.0
S353 S 0.83831 0.82625 0.60148 0.0
N354 N 0.878 0.81631 0.58159 0.0
N355 N 0.8126 0.84585 0.56923 0.0
C356 C 0.83611 0.84495 0.54015 0.0
C357 C 0.87142 0.82865 0.54676 0.0
C358 C 0.42544 0.65114 0.79421 0.0
C359 C 0.42048 0.61244 0.79052 0.0
C360 C 0.45218 0.66672 0.81886 0.0
C361 C 0.47434 0.64402 0.841 0.0
H362 H 0.40674 0.66954 0.78005 0.0
H363 H 0.45287 0.69657 0.82308 0.0
S364 S 0.47854 0.54148 0.83514 0.0
N365 N 0.44488 0.55199 0.80568 0.0
N366 N 0.49469 0.58145 0.85267 0.0
C367 C 0.47278 0.60552 0.8343 0.0
C368 C 0.44592 0.58963 0.80878 0.0
C369 C 0.60956 0.24813 0.03078 0.0
C370 C 0.59184 0.27888 0.01547 0.0
C371 C 0.64268 0.2347 0.01604 0.0
C372 C 0.65915 0.25112 0.98503 0.0
H373 H 0.59819 0.2347 0.05483 0.0
H374 H 0.65511 0.21085 0.02872 0.0
S375 S 0.62375 0.33215 0.93434 0.0
N376 N 0.59336 0.32533 0.96743 0.0
N377 N 0.65514 0.29989 0.93956 0.0
C378 C 0.6416 0.28175 0.96932 0.0
C379 C 0.60811 0.29565 0.98455 0.0
C380 C 0.03095 0.6129 0.25018 0.0
C381 C 0.01543 0.59669 0.2818 0.0
C382 C 0.01882 0.64715 0.23723 0.0
C383 C 0.99029 0.6663 0.25505 0.0
H384 H 0.05295 0.59923 0.23543 0.0
H385 H 0.03125 0.65819 0.21249 0.0
S386 S 0.94083 0.63638 0.33931 0.0
N387 N 0.9704 0.60301 0.331 0.0
N388 N 0.94737 0.66693 0.30642 0.0
C389 C 0.97469 0.65056 0.28681 0.0
C390 C 0.9873 0.61592 0.30023 0.0
C391 C 0.59307 0.80825 0.43945 0.0
C392 C 0.61671 0.78708 0.41728 0.0
C393 C 0.60775 0.8343 0.46526 0.0
C394 C 0.64645 0.83952 0.47002 0.0
H395 H 0.56327 0.80752 0.43428 0.0
H396 H 0.58875 0.85251 0.47928 0.0
S397 S 0.71936 0.783 0.42625 0.0
N398 N 0.6799 0.76725 0.40704 0.0
N399 N 0.70771 0.81569 0.45626 0.0
C400 C 0.67004 0.81462 0.45197 0.0
C401 C 0.65508 0.78849 0.42527 0.0
C402 C 0.39385 0.37021 0.73375 0.0
C403 C 0.42487 0.36002 0.71283 0.0
C404 C 0.38404 0.40729 0.7382 0.0
C405 C 0.40489 0.43608 0.72218 0.0
H406 H 0.37621 0.34931 0.74618 0.0
H407 H 0.35953 0.41329 0.7541 0.0
S408 S 0.49019 0.42494 0.66677 0.0
N409 N 0.47757 0.38217 0.67731 0.0
N410 N 0.45926 0.45211 0.686 0.0
C411 C 0.43688 0.42661 0.70238 0.0
C412 C 0.44684 0.38859 0.69766 0.0
C413 C 0.91773 0.21342 0.90621 0.0
C414 C 0.92764 0.24947 0.89496 0.0
C415 C 0.88272 0.20557 0.92138 0.0
C416 C 0.85616 0.23335 0.92506 0.0
H417 H 0.9369 0.19093 0.90266 0.0
H418 H 0.87564 0.17718 0.92823 0.0
S419 S 0.86874 0.33248 0.90194 0.0
N420 N 0.90857 0.31361 0.89087 0.0
N421 N 0.84255 0.29845 0.9181 0.0
C422 C 0.86612 0.26965 0.91514 0.0
C423 C 0.90193 0.27783 0.90045 0.0
C424 C 0.34804 0.98694 0.3812 0.0
C425 C 0.33435 0.02203 0.39073 0.0
C426 C 0.36278 0.97978 0.34611 0.0
C427 C 0.36543 0.0078 0.31962 0.0
H428 H 0.34855 0.9652 0.40152 0.0
H429 H 0.3739 0.95262 0.34043 0.0
S430 S 0.33124 0.10367 0.32992 0.0
N431 N 0.32206 0.08435 0.37001 0.0
N432 N 0.35081 0.07126 0.30434 0.0
C433 C 0.35053 0.04259 0.32824 0.0
C434 C 0.33465 0.04959 0.3637 0.0
C435 C 0.23246 0.00791 0.63932 0.0
C436 C 0.24875 0.97831 0.65811 0.0
C437 C 0.24676 0.02065 0.60577 0.0
C438 C 0.27829 0.00471 0.58987 0.0
H439 H 0.20793 0.02089 0.65015 0.0
H440 H 0.23323 0.04356 0.59249 0.0
S441 S 0.33182 0.92694 0.62838 0.0
N442 N 0.29839 0.93362 0.65843 0.0
N443 N 0.32554 0.95783 0.5958 0.0
C444 C 0.29509 0.97534 0.60858 0.0
C445 C 0.28028 0.9621 0.64254 0.0
C446 C 0.23809 0.89239 0.86631 0.0
C447 C 0.2167 0.92289 0.8559 0.0
C448 C 0.24187 0.88221 0.90338 0.0
C449 C 0.22469 0.90216 0.93199 0.0
H450 H 0.25153 0.87548 0.84556 0.0
H451 H 0.2583 0.85821 0.90953 0.0
S452 S 0.16711 0.98551 0.92026 0.0
N453 N 0.17909 0.9739 0.87766 0.0
N454 N 0.18653 0.95494 0.94759 0.0
C455 C 0.20418 0.93351 0.92231 0.0
C456 C 0.20015 0.94384 0.88428 0.0
C457 C 0.32596 0.9398 0.08218 0.0
C458 C 0.30063 0.92116 0.10489 0.0
C459 C 0.35287 0.96443 0.09765 0.0
C460 C 0.35484 0.97151 0.13618 0.0
H461 H 0.32744 0.93267 0.05291 0.0
H462 H 0.37389 0.97578 0.07965 0.0
S463 S 0.28822 0.93672 0.20573 0.0
N464 N 0.27448 0.91632 0.16627 0.0
N465 N 0.32438 0.96339 0.19548 0.0
C466 C 0.32641 0.95679 0.15832 0.0
C467 C 0.29944 0.93129 0.1426 0.0
C468 C 0.34701 0.37786 0.02001 0.0
C469 C 0.31827 0.35633 0.03534 0.0
C470 C 0.38429 0.36832 0.02418 0.0
C471 C 0.39474 0.33688 0.04413 0.0
H472 H 0.34081 0.40267 0.00482 0.0
H473 H 0.40513 0.38646 0.01228 0.0
S474 S 0.33006 0.26989 0.08824 0.0
N475 N 0.30258 0.30101 0.06993 0.0
N476 N 0.37288 0.28316 0.0781 0.0
C477 C 0.36623 0.31434 0.05871 0.0
C478 C 0.32801 0.32402 0.05425 0.0
C479 C 0.92073 0.87376 0.27055 0.0
C480 C 0.9334 0.86397 0.23509 0.0
C481 C 0.90493 0.90831 0.27753 0.0
C482 C 0.90018 0.93392 0.24899 0.0
H483 H 0.92176 0.85397 0.29276 0.0
H484 H 0.89469 0.91418 0.30506 0.0
S485 S 0.93118 0.92268 0.15187 0.0
N486 N 0.94256 0.88353 0.17175 0.0
N487 N 0.9119 0.94822 0.18452 0.0
C488 C 0.91414 0.92511 0.21375 0.0
C489 C 0.93106 0.89021 0.2069 0.0
C490 C 0.14653 0.76379 0.45787 0.0
C491 C 0.16417 0.73461 0.47605 0.0
C492 C 0.11321 0.77827 0.4709 0.0
C493 C 0.09572 0.76377 0.50229 0.0
H494 H 0.15865 0.77577 0.43342 0.0
H495 H 0.10106 0.80106 0.45617 0.0
S496 S 0.13006 0.68684 0.55975 0.0
N497 N 0.16138 0.6915 0.52715 0.0
N498 N 0.09862 0.71839 0.55128 0.0
C499 C 0.11281 0.7343 0.52055 0.0
C500 C 0.14706 0.71988 0.5076 0.0
C501 C 0.99199 0.65521 0.62516 0.0
C502 C 0.97625 0.68444 0.64541 0.0
C503 C 0.99004 0.61868 0.63751 0.0
C504 C 0.97189 0.60946 0.67055 0.0
H505 H 0.00584 0.66044 0.59927 0.0
H506 H 0.00207 0.59735 0.62022 0.0
S507 S 0.92758 0.67609 0.73499 0.0
N508 N 0.9433 0.70208 0.7012 0.0
N509 N 0.93916 0.63321 0.72422 0.0
C510 C 0.95694 0.63859 0.69175 0.0
C511 C 0.95921 0.67605 0.67924 0.0
C512 C 0.1795 0.17322 0.44771 0.0
C513 C 0.18957 0.14426 0.47123 0.0
C514 C 0.14289 0.1861 0.44638 0.0
C515 C 0.115 0.17071 0.46877 0.0
H516 H 0.19972 0.18525 0.42926 0.0
H517 H 0.13616 0.20725 0.42659 0.0
S518 S 0.1286 0.09823 0.5394 0.0
N519 N 0.1697 0.10331 0.52024 0.0
N520 N 0.10131 0.12763 0.5182 0.0
C521 C 0.12538 0.14324 0.49402 0.0
C522 C 0.16249 0.12995 0.49509 0.0
C523 C 0.59643 0.35828 0.216 0.0
C524 C 0.60136 0.39681 0.22163 0.0
C525 C 0.56862 0.34387 0.19185 0.0
C526 C 0.54525 0.3676 0.1722 0.0
H527 H 0.61587 0.33924 0.22811 0.0
H528 H 0.5679 0.31428 0.18592 0.0
S529 S 0.54036 0.46961 0.18438 0.0
N530 N 0.57553 0.45781 0.21141 0.0
N531 N 0.52381 0.4305 0.16528 0.0
C532 C 0.54686 0.40568 0.18103 0.0
C533 C 0.5748 0.42037 0.20605 0.0
C534 C 0.368 0.78022 0.98927 0.0
C535 C 0.35104 0.76446 0.02039 0.0
C536 C 0.40187 0.76712 0.97586 0.0
C537 C 0.41995 0.73739 0.9927 0.0
H538 H 0.3554 0.80337 0.97552 0.0
H539 H 0.41361 0.78003 0.95169 0.0
S540 S 0.3871 0.68613 0.07478 0.0
N541 N 0.35504 0.71735 0.06758 0.0
N542 N 0.41821 0.6926 0.04229 0.0
C543 C 0.40318 0.72126 0.02371 0.0
C544 C 0.36891 0.73479 0.03755 0.0
C545 C 0.97889 0.39319 0.76298 0.0
C546 C 0.99474 0.40923 0.7314 0.0
C547 C 0.99112 0.35917 0.77652 0.0
C548 C 0.02006 0.34 0.75936 0.0
H549 H 0.95645 0.40675 0.77713 0.0
H550 H 0.97836 0.34827 0.80116 0.0
S551 S 0.07072 0.36964 0.67566 0.0
N552 N 0.04073 0.40282 0.68314 0.0
N553 N 0.06387 0.33936 0.70872 0.0
C554 C 0.03607 0.35565 0.72773 0.0
C555 C 0.02342 0.39008 0.71375 0.0
C556 C 0.34244 0.18129 0.5502 0.0
C557 C 0.36633 0.15833 0.53016 0.0
C558 C 0.35674 0.20765 0.57591 0.0
C559 C 0.39533 0.21225 0.58197 0.0
H560 H 0.31258 0.17653 0.54879 0.0
H561 H 0.33738 0.2224 0.59317 0.0
S562 S 0.46927 0.16627 0.52858 0.0
N563 N 0.43001 0.14703 0.51229 0.0
N564 N 0.45708 0.19718 0.56021 0.0
C565 C 0.41939 0.1932 0.55826 0.0
C566 C 0.4048 0.16597 0.53243 0.0
C567 C 0.57372 0.61897 0.30494 0.0
C568 C 0.58927 0.64693 0.28284 0.0
C569 C 0.58631 0.58239 0.30293 0.0
C570 C 0.61509 0.57247 0.27897 0.0
H571 H 0.55286 0.62566 0.32516 0.0
H572 H 0.57436 0.56211 0.32131 0.0
S573 S 0.6608 0.63366 0.2109 0.0
N574 N 0.63184 0.66087 0.23293 0.0
N575 N 0.65562 0.59248 0.22955 0.0
C576 C 0.6293 0.59959 0.25519 0.0
C577 C 0.61632 0.63668 0.25699 0.0
C578 C 0.1073 0.77143 0.13064 0.0
C579 C 0.07775 0.78786 0.11144 0.0
C580 C 0.14378 0.77369 0.11778 0.0
C581 C 0.15266 0.79279 0.08522 0.0
H582 H 0.10237 0.75676 0.15609 0.0
H583 H 0.16534 0.761 0.13425 0.0
S584 S 0.08524 0.83951 0.02358 0.0
N585 N 0.05956 0.82278 0.05718 0.0
N586 N 0.1283 0.8274 0.03323 0.0
C587 C 0.12325 0.80857 0.0651 0.0
C588 C 0.08585 0.80605 0.07815 0.0
C589 C 0.69199 0.95195 0.63976 0.0
C590 C 0.67662 0.97394 0.61174 0.0
C591 C 0.67978 0.9546 0.67655 0.0
C592 C 0.65158 0.97911 0.68664 0.0
H593 H 0.71237 0.93135 0.63298 0.0
H594 H 0.69155 0.93628 0.69689 0.0
S595 S 0.60661 0.04704 0.62521 0.0
N596 N 0.63489 0.02427 0.59785 0.0
N597 N 0.61182 0.02883 0.66656 0.0
C598 C 0.63758 0.00273 0.6594 0.0
C599 C 0.65017 0.00029 0.62211 0.0
C600 C 0.77969 0.98981 0.36048 0.0
C601 C 0.76217 0.01911 0.34227 0.0
C602 C 0.7669 0.97687 0.3947 0.0
C603 C 0.7358 0.9924 0.41188 0.0
H604 H 0.80399 0.97728 0.34864 0.0
H605 H 0.7812 0.95414 0.40747 0.0
S606 S 0.67956 0.06927 0.3753 0.0
N607 N 0.71177 0.06292 0.34392 0.0
N608 N 0.68774 0.03866 0.4077 0.0
C609 C 0.71789 0.02151 0.39374 0.0
C610 C 0.73104 0.0348 0.35914 0.0
C611 C 0.80289 0.08077 0.07967 0.0
C612 C 0.77838 0.109 0.0698 0.0
C613 C 0.80538 0.06831 0.11635 0.0
C614 C 0.78323 0.08343 0.14446 0.0
H615 H 0.82125 0.06911 0.05924 0.0
H616 H 0.82593 0.04784 0.12295 0.0
S617 S 0.71013 0.15352 0.13149 0.0
N618 N 0.72856 0.14862 0.09014 0.0
N619 N 0.7328 0.12507 0.15863 0.0
C620 C 0.75694 0.10999 0.13429 0.0
C621 C 0.75467 0.12284 0.09713 0.0
C622 C 0.68337 0.06515 0.84084 0.0
C623 C 0.66093 0.04347 0.86395 0.0
C624 C 0.70866 0.09161 0.85594 0.0
C625 C 0.71276 0.09681 0.89458 0.0
H626 H 0.67899 0.06422 0.81101 0.0
H627 H 0.72308 0.10989 0.83721 0.0
S628 S 0.66728 0.04019 0.96657 0.0
N629 N 0.64919 0.02397 0.9269 0.0
N630 N 0.69737 0.07323 0.95544 0.0
C631 C 0.69405 0.07191 0.91781 0.0
C632 C 0.66787 0.04534 0.90242 0.0
C633 C 0.64686 0.69495 0.94855 0.0
C634 C 0.61935 0.68077 0.97208 0.0
C635 C 0.684 0.68385 0.95169 0.0
C636 C 0.69492 0.65802 0.97834 0.0
H637 H 0.63942 0.71341 0.9264 0.0
H638 H 0.70393 0.69447 0.93213 0.0
S639 S 0.635 0.61747 0.05066 0.0
N640 N 0.60674 0.64307 0.02592 0.0
N641 N 0.67617 0.62212 0.03156 0.0
C642 C 0.66817 0.64543 0.00346 0.0
C643 C 0.63052 0.65686 0.00043 0.0
C644 C 0.07705 0.07793 0.80245 0.0
C645 C 0.10349 0.06765 0.776 0.0
C646 C 0.06521 0.11473 0.80573 0.0
C647 C 0.07925 0.14254 0.78255 0.0
H648 H 0.06645 0.05775 0.8217 0.0
H649 H 0.04626 0.1217 0.82768 0.0
S650 S 0.14412 0.12859 0.70467 0.0
N651 N 0.13992 0.08736 0.7234 0.0
N652 N 0.1176 0.15613 0.72931 0.0
C653 C 0.10385 0.13201 0.75445 0.0
C654 C 0.11602 0.09471 0.75127 0.0
C655 C 0.89861 0.22257 0.51955 0.0
C656 C 0.917 0.23921 0.48976 0.0
C657 C 0.86487 0.23599 0.53261 0.0
C658 C 0.8476 0.26642 0.5162 0.0
H659 H 0.91031 0.19876 0.53299 0.0
H660 H 0.85218 0.22219 0.55578 0.0
S661 S 0.88408 0.32028 0.43734 0.0
N662 N 0.91534 0.28816 0.44424 0.0
N663 N 0.8518 0.3132 0.4686 0.0
C664 C 0.86559 0.28342 0.48633 0.0
C665 C 0.90031 0.26997 0.47325 0.0
C666 C 0.55467 0.87309 0.83189 0.0
C667 C 0.5265 0.89923 0.82829 0.0
C668 C 0.54702 0.83788 0.84637 0.0
C669 C 0.5108 0.82738 0.85697 0.0
H670 H 0.58318 0.88066 0.82561 0.0
H671 H 0.56979 0.81905 0.85002 0.0
S672 S 0.42681 0.88499 0.84969 0.0
N673 N 0.46086 0.9118 0.83444 0.0
N674 N 0.4461 0.84538 0.8604 0.0
C675 C 0.48206 0.85264 0.85142 0.0
C676 C 0.49002 0.88865 0.83743 0.0
C677 C 0.94712 0.16556 0.31867 0.0
C678 C 0.96859 0.14224 0.34083 0.0
C679 C 0.9205 0.15069 0.2935 0.0
C680 C 0.91505 0.1121 0.28928 0.0
H681 H 0.94832 0.19537 0.3232 0.0
H682 H 0.90231 0.16953 0.27927 0.0
S683 S 0.97097 0.03967 0.33429 0.0
N684 N 0.98752 0.07923 0.35243 0.0
N685 N 0.93809 0.05105 0.30433 0.0
C686 C 0.93974 0.08866 0.30777 0.0
C687 C 0.96639 0.10383 0.33387 0.0
C688 C 0.52388 0.11254 0.74117 0.0
C689 C 0.50697 0.09572 0.77169 0.0
C690 C 0.5103 0.14544 0.72644 0.0
C691 C 0.47888 0.16258 0.74125 0.0
H692 H 0.54827 0.1006 0.72889 0.0
H693 H 0.52423 0.15714 0.70282 0.0
S694 S 0.42397 0.12941 0.82086 0.0
N695 N 0.45693 0.09863 0.81612 0.0
N696 N 0.43112 0.16005 0.78816 0.0
C697 C 0.46152 0.14589 0.77161 0.0
C698 C 0.47561 0.11262 0.78687 0.0
C699 C 0.16393 0.31921 0.94475 0.0
C700 C 0.14078 0.34221 0.96559 0.0
C701 C 0.14873 0.29322 0.91912 0.0
C702 C 0.10997 0.28902 0.91399 0.0
H703 H 0.19385 0.32362 0.94561 0.0
H704 H 0.16748 0.27831 0.90132 0.0
S705 S 0.03784 0.33614 0.96887 0.0
N706 N 0.07768 0.3546 0.98456 0.0
N707 N 0.04894 0.30511 0.9369 0.0
C708 C 0.08669 0.30842 0.9382 0.0
C709 C 0.10218 0.3353 0.96388 0.0
C710 C 0.41225 0.73652 0.37994 0.0
C711 C 0.44116 0.7213 0.40109 0.0
C712 C 0.37512 0.73276 0.39038 0.0
C713 C 0.36501 0.71331 0.42233 0.0
H714 H 0.41821 0.75126 0.35475 0.0
H715 H 0.35411 0.74443 0.37246 0.0
S716 S 0.43034 0.67 0.48873 0.0
N717 N 0.45744 0.68761 0.45671 0.0
N718 N 0.38742 0.68016 0.47619 0.0
C719 C 0.39374 0.69901 0.44456 0.0
C720 C 0.4318 0.70306 0.43397 0.0
C721 C 0.87941 0.5193 0.84927 0.0
C722 C 0.85991 0.53726 0.82091 0.0
C723 C 0.86932 0.52305 0.88638 0.0
C724 C 0.83936 0.54514 0.89705 0.0
H725 H 0.90304 0.50235 0.84291 0.0
H726 H 0.8859 0.50905 0.90697 0.0
S727 S 0.77787 0.59672 0.83336 0.0
N728 N 0.80801 0.57677 0.80577 0.0
N729 N 0.78919 0.58412 0.8758 0.0
C730 C 0.81875 0.56237 0.86889 0.0
C731 C 0.829 0.5584 0.83083 0.0
C732 C 0.74138 0.51554 0.14618 0.0
C733 C 0.75702 0.48401 0.16213 0.0
C734 C 0.75476 0.52989 0.11294 0.0
C735 C 0.78473 0.51365 0.09454 0.0
H736 H 0.71821 0.52904 0.15917 0.0
H737 H 0.74196 0.5544 0.10205 0.0
S738 S 0.83554 0.4306 0.12457 0.0
N739 N 0.80401 0.43679 0.1567 0.0
N740 N 0.82946 0.46406 0.09462 0.0
C741 C 0.80066 0.48212 0.11017 0.0
C742 C 0.78675 0.46724 0.1438 0.0
C743 C 0.71774 0.41069 0.42089 0.0
C744 C 0.75434 0.40237 0.43197 0.0
C745 C 0.71013 0.42556 0.38593 0.0
C746 C 0.73877 0.43187 0.36066 0.0
H747 H 0.69468 0.40482 0.43896 0.0
H748 H 0.68143 0.4299 0.37776 0.0
S749 S 0.83934 0.41781 0.37695 0.0
N750 N 0.81976 0.40448 0.41572 0.0
N751 N 0.80504 0.43106 0.34957 0.0
C752 C 0.77551 0.4252 0.37188 0.0
C753 C 0.78342 0.41085 0.4077 0.0
C754 C 0.82018 0.44217 0.66883 0.0
C755 C 0.84043 0.46644 0.64636 0.0
C756 C 0.79509 0.41596 0.65299 0.0
C757 C 0.78917 0.41367 0.61431 0.0
H758 H 0.82643 0.4408 0.69829 0.0
H759 H 0.78256 0.39555 0.67086 0.0
S760 S 0.82791 0.47821 0.54508 0.0
N761 N 0.84771 0.49175 0.58491 0.0
N762 N 0.79978 0.44309 0.55498 0.0
C763 C 0.8053 0.44134 0.59231 0.0
C764 C 0.83127 0.46762 0.60842 0.0
C765 C 0.5242 0.12158 0.16061 0.0
C766 C 0.4895 0.11219 0.1757 0.0
C767 C 0.53181 0.15734 0.14776 0.0
C768 C 0.50463 0.18476 0.14862 0.0
H769 H 0.5453 0.10079 0.1577 0.0
H770 H 0.5586 0.16297 0.13551 0.0
S771 S 0.41023 0.1751 0.18776 0.0
N772 N 0.42857 0.13391 0.19304 0.0
N773 N 0.44252 0.20092 0.168 0.0
C774 C 0.47031 0.17619 0.16492 0.0
C775 C 0.46286 0.13997 0.17876 0.0
C776 C 0.05852 0.83889 0.67575 0.0
C777 C 0.03943 0.8616 0.65091 0.0
C778 C 0.0836 0.85429 0.70216 0.0
C779 C 0.08989 0.89288 0.70497 0.0
H780 H 0.05675 0.80894 0.67266 0.0
H781 H 0.10012 0.83572 0.71861 0.0
S782 S 0.03963 0.96442 0.65256 0.0
N783 N 0.02323 0.92451 0.63512 0.0
N784 N 0.06994 0.95366 0.68535 0.0
C785 C 0.06737 0.91599 0.68357 0.0
C786 C 0.04223 0.90026 0.65627 0.0
C787 C 0.54588 0.86403 0.23531 0.0
C788 C 0.52841 0.84603 0.26483 0.0
C789 C 0.53261 0.89743 0.22157 0.0
C790 C 0.5016 0.91468 0.23709 0.0
H791 H 0.57003 0.85217 0.2225 0.0
H792 H 0.54688 0.90982 0.1985 0.0
S793 S 0.44609 0.87947 0.31541 0.0
N794 N 0.47846 0.84826 0.30948 0.0
N795 N 0.45379 0.91121 0.28389 0.0
C796 C 0.48403 0.89724 0.26692 0.0
C797 C 0.49728 0.86287 0.28063 0.0
C798 C 0.91012 0.67741 0.0513 0.0
C799 C 0.87139 0.67219 0.04689 0.0
C800 C 0.92511 0.7028 0.07761 0.0
C801 C 0.90179 0.72336 0.10071 0.0
H802 H 0.929 0.65982 0.03632 0.0
H803 H 0.955 0.70367 0.08213 0.0
S804 S 0.79891 0.7267 0.09383 0.0
N805 N 0.81026 0.69493 0.0627 0.0
N806 N 0.8386 0.74228 0.1127 0.0
C807 C 0.86326 0.72173 0.09347 0.0
C808 C 0.84797 0.69623 0.0663 0.0
C809 C 0.59906 0.26155 0.6187 0.0
C810 C 0.57042 0.27712 0.59746 0.0
C811 C 0.63622 0.26428 0.60803 0.0
C812 C 0.64662 0.28306 0.57576 0.0
H813 H 0.59289 0.2474 0.64418 0.0
H814 H 0.65706 0.25252 0.62609 0.0
S815 S 0.58196 0.32657 0.50883 0.0
N816 N 0.55465 0.31015 0.5413 0.0
N817 N 0.62467 0.31569 0.52138 0.0
C818 C 0.6181 0.29759 0.55341 0.0
C819 C 0.58003 0.29455 0.56422 0.0
C820 C 0.18806 0.45068 0.13744 0.0
C821 C 0.1712 0.47233 0.11 0.0
C822 C 0.17678 0.45263 0.17452 0.0
C823 C 0.14806 0.47609 0.18552 0.0
H824 H 0.20912 0.43099 0.13006 0.0
H825 H 0.18982 0.43467 0.19441 0.0
S826 S 0.09875 0.54255 0.12576 0.0
N827 N 0.12712 0.52104 0.09749 0.0
N828 N 0.10582 0.52433 0.16685 0.0
C829 C 0.13236 0.49929 0.15881 0.0
C830 C 0.14399 0.49753 0.12119 0.0
C831 C 0.23402 0.53904 0.8617 0.0
C832 C 0.26499 0.52276 0.84508 0.0
C833 C 0.21913 0.52518 0.89451 0.0
C834 C 0.23495 0.49485 0.9125 0.0
H835 H 0.221 0.56265 0.84918 0.0
H836 H 0.19501 0.53846 0.90589 0.0
S837 S 0.31685 0.44259 0.88086 0.0
N838 N 0.31122 0.4747 0.84938 0.0
N839 N 0.28358 0.44898 0.91113 0.0
C840 C 0.26617 0.4785 0.89638 0.0
C841 C 0.28103 0.4923 0.86266 0.0
C842 C 0.30739 0.57273 0.58204 0.0
C843 C 0.28336 0.6007 0.57048 0.0
C844 C 0.30994 0.56275 0.61945 0.0
C845 C 0.2884 0.58024 0.64666 0.0
H846 H 0.32532 0.55931 0.5623 0.0
H847 H 0.33005 0.54225 0.62723 0.0
S848 S 0.21682 0.65099 0.62962 0.0
N849 N 0.23464 0.64279 0.58849 0.0
N850 N 0.23916 0.62397 0.6585 0.0
C851 C 0.26265 0.60668 0.63499 0.0
C852 C 0.26023 0.61695 0.59702 0.0
C853 C 0.17279 0.53327 0.4025 0.0
C854 C 0.16795 0.52817 0.36389 0.0
C855 C 0.19987 0.55816 0.41712 0.0
C856 C 0.22256 0.57894 0.39351 0.0
H857 H 0.15345 0.52057 0.42142 0.0
H858 H 0.20017 0.56397 0.44674 0.0
S859 S 0.22877 0.5673 0.29149 0.0
N860 N 0.19415 0.5392 0.30305 0.0
N861 N 0.24453 0.58668 0.33075 0.0
C862 C 0.2217 0.57008 0.35542 0.0
C863 C 0.19448 0.54436 0.34052 0.0
loop_
_geom_bond_atom_site_label_1
_geom_bond_atom_site_label_2
_geom_bond_distance
_geom_bond_site_symmetry_2
_ccdc_geom_bond_type
Zn0 O3 2.031 . S
Zn0 O5 2.049 1_655 S
Zn0 O10 2.067 . S
Zn1 O2 1.962 1_455 S
Zn1 O4 1.986 . S
Zn1 O6 1.996 . S
Zn1 O9 1.943 1_455 S
O2 Zn1 1.962 1_655 S
O2 C7 1.254 . S
O3 Zn0 2.031 . S
O3 C7 1.269 . S
O4 Zn1 1.986 . S
O4 C11 1.262 . S
O5 Zn0 2.049 1_455 S
O5 C13 1.260 . S
O6 Zn1 1.996 . S
O6 C13 1.257 . S
C7 O2 1.254 . S
C7 O3 1.269 . S
C8 O9 1.249 . S
C8 O10 1.270 . S
O9 Zn1 1.943 1_655 S
O9 C8 1.249 . S
O10 Zn0 2.067 . S
O10 C8 1.270 . S
C11 O4 1.262 . S
C11 O12 1.210 1_455 S
O12 C11 1.210 1_655 S
C13 O5 1.260 . S
C13 O6 1.257 . S
Zn14 O17 2.031 1_455 S
Zn14 O19 2.049 . S
Zn14 O24 2.067 . S
Zn15 O16 1.962 1_455 S
Zn15 O18 1.986 . S
Zn15 O20 1.996 . S
Zn15 O23 1.943 . S
O16 Zn15 1.962 1_655 S
O16 C21 1.254 . S
O17 Zn14 2.031 1_655 S
O17 C21 1.269 . S
O18 Zn15 1.986 . S
O18 C25 1.262 1_455 S
O19 Zn14 2.049 . S
O19 C27 1.260 . S
O20 Zn15 1.996 . S
O20 C27 1.257 . S
C21 O16 1.254 . S
C21 O17 1.269 . S
C22 O23 1.249 . S
C22 O24 1.270 . S
O23 Zn15 1.943 . S
O23 C22 1.249 . S
O24 Zn14 2.067 . S
O24 C22 1.270 . S
C25 O18 1.262 1_655 S
C25 O26 1.232 . S
O26 C25 1.232 . S
C27 O19 1.260 . S
C27 O20 1.257 . S
Zn28 O31 2.031 . S
Zn28 O33 2.049 . S
Zn28 O38 2.067 . S
Zn29 O30 1.962 . S
Zn29 O32 1.986 . S
Zn29 O34 1.996 . S
Zn29 O37 1.943 . S
O30 Zn29 1.962 . S
O30 C35 1.254 . S
O31 Zn28 2.031 . S
O31 C35 1.269 . S
O32 Zn29 1.986 . S
O32 C39 1.262 . S
O33 Zn28 2.049 . S
O33 C41 1.260 . S
O34 Zn29 1.996 . S
O34 C41 1.257 . S
C35 O30 1.254 . S
C35 O31 1.269 . S
C36 O37 1.249 . S
C36 O38 1.270 . S
O37 Zn29 1.943 . S
O37 C36 1.249 . S
O38 Zn28 2.067 . S
O38 C36 1.270 . S
C39 O32 1.262 . S
C39 O40 1.232 . S
O40 C39 1.232 . S
C41 O33 1.260 . S
C41 O34 1.257 . S
Zn42 O45 2.031 . S
Zn42 O47 2.049 . S
Zn42 O52 2.067 . S
Zn43 O44 1.962 . S
Zn43 O46 1.986 . S
Zn43 O48 1.996 . S
Zn43 O51 1.943 . S
O44 Zn43 1.962 . S
O44 C49 1.254 . S
O45 Zn42 2.031 . S
O45 C49 1.269 . S
O46 Zn43 1.986 . S
O46 C53 1.262 . S
O47 Zn42 2.049 . S
O47 C55 1.260 . S
O48 Zn43 1.996 . S
O48 C55 1.257 . S
C49 O44 1.254 . S
C49 O45 1.269 . S
C50 O51 1.249 . S
C50 O52 1.270 . S
O51 Zn43 1.943 . S
O51 C50 1.249 . S
O52 Zn42 2.067 . S
O52 C50 1.270 . S
C53 O46 1.262 . S
C53 O54 1.232 . S
O54 C53 1.232 . S
C55 O47 1.260 . S
C55 O48 1.257 . S
Zn56 O59 2.031 . S
Zn56 O61 2.049 . S
Zn56 O66 2.067 . S
Zn57 O58 1.962 . S
Zn57 O60 1.986 . S
Zn57 O62 1.996 . S
Zn57 O65 1.943 1_455 S
O58 Zn57 1.962 . S
O58 C63 1.254 1_455 S
O59 Zn56 2.031 . S
O59 C63 1.269 . S
O60 Zn57 1.986 . S
O60 C67 1.262 . S
O61 Zn56 2.049 . S
O61 C69 1.260 1_655 S
O62 Zn57 1.996 . S
O62 C69 1.257 . S
C63 O58 1.254 1_655 S
C63 O59 1.269 . S
C64 O65 1.249 . S
C64 O66 1.270 . S
O65 Zn57 1.943 1_655 S
O65 C64 1.249 . S
O66 Zn56 2.067 . S
O66 C64 1.270 . S
C67 O60 1.262 . S
C67 O68 1.232 . S
O68 C67 1.232 . S
C69 O61 1.260 1_455 S
C69 O62 1.257 . S
Zn70 O73 2.031 . S
Zn70 O75 2.049 . S
Zn70 O80 2.067 . S
Zn71 O72 1.962 . S
Zn71 O74 1.986 . S
Zn71 O76 1.996 . S
Zn71 O79 1.943 . S
O72 Zn71 1.962 . S
O72 C77 1.254 . S
O73 Zn70 2.031 . S
O73 C77 1.269 . S
O74 Zn71 1.986 . S
O74 C81 1.262 . S
O75 Zn70 2.049 . S
O75 C83 1.260 . S
O76 Zn71 1.996 . S
O76 C83 1.257 . S
C77 O72 1.254 . S
C77 O73 1.269 . S
C78 O79 1.249 . S
C78 O80 1.270 . S
O79 Zn71 1.943 . S
O79 C78 1.249 . S
O80 Zn70 2.067 . S
O80 C78 1.270 . S
C81 O74 1.262 . S
C81 O82 1.232 . S
O82 C81 1.232 . S
C83 O75 1.260 . S
C83 O76 1.257 . S
Zn84 O87 2.031 . S
Zn84 O89 2.049 . S
Zn84 O94 2.067 . S
Zn85 O86 1.962 . S
Zn85 O88 1.986 . S
Zn85 O90 1.996 . S
Zn85 O93 1.943 . S
O86 Zn85 1.962 . S
O86 C91 1.254 . S
O87 Zn84 2.031 . S
O87 C91 1.269 . S
O88 Zn85 1.986 . S
O88 C95 1.262 . S
O89 Zn84 2.049 . S
O89 C97 1.260 . S
O90 Zn85 1.996 . S
O90 C97 1.257 . S
C91 O86 1.254 . S
C91 O87 1.269 . S
C92 O93 1.249 . S
C92 O94 1.270 . S
O93 Zn85 1.943 . S
O93 C92 1.249 . S
O94 Zn84 2.067 . S
O94 C92 1.270 . S
C95 O88 1.262 . S
C95 O96 1.232 . S
O96 C95 1.232 . S
C97 O89 1.260 . S
C97 O90 1.257 . S
Zn98 O101 2.031 . S
Zn98 O103 2.049 . S
Zn98 O108 2.067 . S
Zn99 O100 1.962 . S
Zn99 O102 1.986 . S
Zn99 O104 1.996 1_655 S
Zn99 O107 1.943 1_655 S
O100 Zn99 1.962 . S
O100 C105 1.254 . S
O101 Zn98 2.031 . S
O101 C105 1.269 1_455 S
O102 Zn99 1.986 . S
O102 C109 1.262 . S
O103 Zn98 2.049 . S
O103 C111 1.260 . S
O104 Zn99 1.996 1_455 S
O104 C111 1.257 . S
C105 O100 1.254 . S
C105 O101 1.269 1_655 S
C106 O107 1.249 . S
C106 O108 1.270 . S
O107 Zn99 1.943 1_455 S
O107 C106 1.249 . S
O108 Zn98 2.067 . S
O108 C106 1.270 . S
C109 O102 1.262 . S
C109 O110 1.232 . S
O110 C109 1.232 . S
C111 O103 1.260 . S
C111 O104 1.257 . S
Zn112 O115 2.031 . S
Zn112 O117 2.049 1_565 S
Zn112 O122 2.067 . S
Zn113 O114 1.962 1_545 S
Zn113 O116 1.986 . S
Zn113 O118 1.996 . S
Zn113 O121 1.943 1_545 S
O114 Zn113 1.962 1_565 S
O114 C119 1.254 . S
O115 Zn112 2.031 . S
O115 C119 1.269 . S
O116 Zn113 1.986 . S
O116 C123 1.262 . S
O117 Zn112 2.049 1_545 S
O117 C125 1.260 . S
O118 Zn113 1.996 . S
O118 C125 1.257 . S
C119 O114 1.254 . S
C119 O115 1.269 . S
C120 O121 1.249 . S
C120 O122 1.270 . S
O121 Zn113 1.943 1_565 S
O121 C120 1.249 . S
O122 Zn112 2.067 . S
O122 C120 1.270 . S
C123 O116 1.262 . S
C123 O124 1.210 1_545 S
O124 C123 1.210 1_565 S
C125 O117 1.260 . S
C125 O118 1.257 . S
Zn126 O129 2.031 . S
Zn126 O131 2.049 . S
Zn126 O136 2.067 . S
Zn127 O128 1.962 . S
Zn127 O130 1.986 . S
Zn127 O132 1.996 . S
Zn127 O135 1.943 . S
O128 Zn127 1.962 . S
O128 C133 1.254 . S
O129 Zn126 2.031 . S
O129 C133 1.269 . S
O130 Zn127 1.986 . S
O130 C137 1.262 . S
O131 Zn126 2.049 . S
O131 C139 1.260 . S
O132 Zn127 1.996 . S
O132 C139 1.257 . S
C133 O128 1.254 . S
C133 O129 1.269 . S
C134 O135 1.249 . S
C134 O136 1.270 . S
O135 Zn127 1.943 . S
O135 C134 1.249 . S
O136 Zn126 2.067 . S
O136 C134 1.270 . S
C137 O130 1.262 . S
C137 O138 1.232 . S
O138 C137 1.232 . S
C139 O131 1.260 . S
C139 O132 1.257 . S
Zn140 O143 2.031 . S
Zn140 O145 2.049 . S
Zn140 O150 2.067 . S
Zn141 O142 1.962 . S
Zn141 O144 1.986 . S
Zn141 O146 1.996 . S
Zn141 O149 1.943 1_545 S
O142 Zn141 1.962 . S
O142 C147 1.254 1_545 S
O143 Zn140 2.031 . S
O143 C147 1.269 . S
O144 Zn141 1.986 . S
O144 C151 1.262 . S
O145 Zn140 2.049 . S
O145 C153 1.260 1_565 S
O146 Zn141 1.996 . S
O146 C153 1.257 . S
C147 O142 1.254 1_565 S
C147 O143 1.269 . S
C148 O149 1.249 . S
C148 O150 1.270 . S
O149 Zn141 1.943 1_565 S
O149 C148 1.249 . S
O150 Zn140 2.067 . S
O150 C148 1.270 . S
C151 O144 1.262 . S
C151 O152 1.232 . S
O152 C151 1.232 . S
C153 O145 1.260 1_545 S
C153 O146 1.257 . S
Zn154 O157 2.031 . S
Zn154 O159 2.049 . S
Zn154 O164 2.067 . S
Zn155 O156 1.962 . S
Zn155 O158 1.986 . S
Zn155 O160 1.996 1_556 S
Zn155 O163 1.943 1_556 S
O156 Zn155 1.962 . S
O156 C161 1.254 . S
O157 Zn154 2.031 . S
O157 C161 1.269 1_554 S
O158 Zn155 1.986 . S
O158 C165 1.262 . S
O159 Zn154 2.049 . S
O159 C167 1.260 . S
O160 Zn155 1.996 1_554 S
O160 C167 1.257 . S
C161 O156 1.254 . S
C161 O157 1.269 1_556 S
C162 O163 1.249 . S
C162 O164 1.270 . S
O163 Zn155 1.943 1_554 S
O163 C162 1.249 . S
O164 Zn154 2.067 . S
O164 C162 1.270 . S
C165 O158 1.262 . S
C165 O166 1.232 . S
O166 C165 1.232 . S
C167 O159 1.260 . S
C167 O160 1.257 . S
Zn168 O171 2.031 . S
Zn168 O173 2.049 1_556 S
Zn168 O178 2.067 . S
Zn169 O170 1.962 1_554 S
Zn169 O172 1.986 . S
Zn169 O174 1.996 . S
Zn169 O177 1.943 1_554 S
O170 Zn169 1.962 1_556 S
O170 C175 1.254 . S
O171 Zn168 2.031 . S
O171 C175 1.269 . S
O172 Zn169 1.986 . S
O172 C179 1.262 . S
O173 Zn168 2.049 1_554 S
O173 C181 1.260 . S
O174 Zn169 1.996 . S
O174 C181 1.257 . S
C175 O170 1.254 . S
C175 O171 1.269 . S
C176 O177 1.249 . S
C176 O178 1.270 . S
O177 Zn169 1.943 1_556 S
O177 C176 1.249 . S
O178 Zn168 2.067 . S
O178 C176 1.270 . S
C179 O172 1.262 . S
C179 O180 1.210 1_554 S
O180 C179 1.210 1_556 S
C181 O173 1.260 . S
C181 O174 1.257 . S
Zn182 O185 2.031 . S
Zn182 O187 2.049 . S
Zn182 O192 2.067 . S
Zn183 O184 1.962 . S
Zn183 O186 1.986 . S
Zn183 O188 1.996 . S
Zn183 O191 1.943 1_554 S
O184 Zn183 1.962 . S
O184 C189 1.254 1_554 S
O185 Zn182 2.031 . S
O185 C189 1.269 . S
O186 Zn183 1.986 . S
O186 C193 1.262 . S
O187 Zn182 2.049 . S
O187 C195 1.260 1_556 S
O188 Zn183 1.996 . S
O188 C195 1.257 . S
C189 O184 1.254 1_556 S
C189 O185 1.269 . S
C190 O191 1.249 . S
C190 O192 1.270 . S
O191 Zn183 1.943 1_556 S
O191 C190 1.249 . S
O192 Zn182 2.067 . S
O192 C190 1.270 . S
C193 O186 1.262 . S
C193 O194 1.232 . S
O194 C193 1.232 . S
C195 O187 1.260 1_554 S
C195 O188 1.257 . S
Zn196 O199 2.031 . S
Zn196 O201 2.049 . S
Zn196 O206 2.067 . S
Zn197 O198 1.962 . S
Zn197 O200 1.986 . S
Zn197 O202 1.996 . S
Zn197 O205 1.943 . S
O198 Zn197 1.962 . S
O198 C203 1.254 . S
O199 Zn196 2.031 . S
O199 C203 1.269 . S
O200 Zn197 1.986 . S
O200 C207 1.262 . S
O201 Zn196 2.049 . S
O201 C209 1.260 . S
O202 Zn197 1.996 . S
O202 C209 1.257 . S
C203 O198 1.254 . S
C203 O199 1.269 . S
C204 O205 1.249 . S
C204 O206 1.270 . S
O205 Zn197 1.943 . S
O205 C204 1.249 . S
O206 Zn196 2.067 . S
O206 C204 1.270 . S
C207 O200 1.262 . S
C207 O208 1.232 . S
O208 C207 1.232 . S
C209 O201 1.260 . S
C209 O202 1.257 . S
Zn210 O213 2.031 . S
Zn210 O215 2.049 . S
Zn210 O220 2.067 . S
Zn211 O212 1.962 . S
Zn211 O214 1.986 . S
Zn211 O216 1.996 . S
Zn211 O219 1.943 . S
O212 Zn211 1.962 . S
O212 C217 1.254 . S
O213 Zn210 2.031 . S
O213 C217 1.269 . S
O214 Zn211 1.986 . S
O214 C221 1.262 . S
O215 Zn210 2.049 . S
O215 C223 1.260 . S
O216 Zn211 1.996 . S
O216 C223 1.257 . S
C217 O212 1.254 . S
C217 O213 1.269 . S
C218 O219 1.249 . S
C218 O220 1.270 . S
O219 Zn211 1.943 . S
O219 C218 1.249 . S
O220 Zn210 2.067 . S
O220 C218 1.270 . S
C221 O214 1.262 . S
C221 O222 1.232 . S
O222 C221 1.232 . S
C223 O215 1.260 . S
C223 O216 1.257 . S
Zn224 O227 2.031 . S
Zn224 O229 2.049 . S
Zn224 O234 2.067 . S
Zn225 O226 1.962 . S
Zn225 O228 1.986 . S
Zn225 O230 1.996 1_565 S
Zn225 O233 1.943 1_565 S
O226 Zn225 1.962 . S
O226 C231 1.254 . S
O227 Zn224 2.031 . S
O227 C231 1.269 1_545 S
O228 Zn225 1.986 . S
O228 C235 1.262 . S
O229 Zn224 2.049 . S
O229 C237 1.260 . S
O230 Zn225 1.996 1_545 S
O230 C237 1.257 . S
C231 O226 1.254 . S
C231 O227 1.269 1_565 S
C232 O233 1.249 . S
C232 O234 1.270 . S
O233 Zn225 1.943 1_545 S
O233 C232 1.249 . S
O234 Zn224 2.067 . S
O234 C232 1.270 . S
C235 O228 1.262 . S
C235 O236 1.232 . S
O236 C235 1.232 . S
C237 O229 1.260 . S
C237 O230 1.257 . S
Zn238 O241 2.031 . S
Zn238 O243 2.049 . S
Zn238 O248 2.067 . S
Zn239 O240 1.962 . S
Zn239 O242 1.986 . S
Zn239 O244 1.996 . S
Zn239 O247 1.943 . S
O240 Zn239 1.962 . S
O240 C245 1.254 . S
O241 Zn238 2.031 . S
O241 C245 1.269 . S
O242 Zn239 1.986 . S
O242 C249 1.262 . S
O243 Zn238 2.049 . S
O243 C251 1.260 . S
O244 Zn239 1.996 . S
O244 C251 1.257 . S
C245 O240 1.254 . S
C245 O241 1.269 . S
C246 O247 1.249 . S
C246 O248 1.270 . S
O247 Zn239 1.943 . S
O247 C246 1.249 . S
O248 Zn238 2.067 . S
O248 C246 1.270 . S
C249 O242 1.262 . S
C249 O250 1.232 . S
O250 C249 1.232 . S
C251 O243 1.260 . S
C251 O244 1.257 . S
Zn252 O255 2.031 . S
Zn252 O257 2.049 . S
Zn252 O262 2.067 . S
Zn253 O254 1.962 . S
Zn253 O256 1.986 . S
Zn253 O258 1.996 . S
Zn253 O261 1.943 . S
O254 Zn253 1.962 . S
O254 C259 1.254 . S
O255 Zn252 2.031 . S
O255 C259 1.269 . S
O256 Zn253 1.986 . S
O256 C263 1.262 . S
O257 Zn252 2.049 . S
O257 C265 1.260 . S
O258 Zn253 1.996 . S
O258 C265 1.257 . S
C259 O254 1.254 . S
C259 O255 1.269 . S
C260 O261 1.249 . S
C260 O262 1.270 . S
O261 Zn253 1.943 . S
O261 C260 1.249 . S
O262 Zn252 2.067 . S
O262 C260 1.270 . S
C263 O256 1.262 . S
C263 O264 1.232 . S
O264 C263 1.232 . S
C265 O257 1.260 . S
C265 O258 1.257 . S
Zn266 O269 2.031 1_545 S
Zn266 O271 2.049 . S
Zn266 O276 2.067 . S
Zn267 O268 1.962 1_545 S
Zn267 O270 1.986 . S
Zn267 O272 1.996 . S
Zn267 O275 1.943 . S
O268 Zn267 1.962 1_565 S
O268 C273 1.254 . S
O269 Zn266 2.031 1_565 S
O269 C273 1.269 . S
O270 Zn267 1.986 . S
O270 C277 1.262 1_545 S
O271 Zn266 2.049 . S
O271 C279 1.260 . S
O272 Zn267 1.996 . S
O272 C279 1.257 . S
C273 O268 1.254 . S
C273 O269 1.269 . S
C274 O275 1.249 . S
C274 O276 1.270 . S
O275 Zn267 1.943 . S
O275 C274 1.249 . S
O276 Zn266 2.067 . S
O276 C274 1.270 . S
C277 O270 1.262 1_565 S
C277 O278 1.232 . S
O278 C277 1.232 . S
C279 O271 1.260 . S
C279 O272 1.257 . S
Zn280 O283 2.031 1_554 S
Zn280 O285 2.049 . S
Zn280 O290 2.067 . S
Zn281 O282 1.962 1_554 S
Zn281 O284 1.986 . S
Zn281 O286 1.996 . S
Zn281 O289 1.943 . S
O282 Zn281 1.962 1_556 S
O282 C287 1.254 . S
O283 Zn280 2.031 1_556 S
O283 C287 1.269 . S
O284 Zn281 1.986 . S
O284 C291 1.262 1_554 S
O285 Zn280 2.049 . S
O285 C293 1.260 . S
O286 Zn281 1.996 . S
O286 C293 1.257 . S
C287 O282 1.254 . S
C287 O283 1.269 . S
C288 O289 1.249 . S
C288 O290 1.270 . S
O289 Zn281 1.943 . S
O289 C288 1.249 . S
O290 Zn280 2.067 . S
O290 C288 1.270 . S
C291 O284 1.262 1_556 S
C291 O292 1.232 . S
O292 C291 1.232 . S
C293 O285 1.260 . S
C293 O286 1.257 . S
Zn294 O297 2.031 . S
Zn294 O299 2.049 . S
Zn294 O304 2.067 . S
Zn295 O296 1.962 . S
Zn295 O298 1.986 . S
Zn295 O300 1.996 . S
Zn295 O303 1.943 . S
O296 Zn295 1.962 . S
O296 C301 1.254 . S
O297 Zn294 2.031 . S
O297 C301 1.269 . S
O298 Zn295 1.986 . S
O298 C305 1.262 . S
O299 Zn294 2.049 . S
O299 C307 1.260 . S
O300 Zn295 1.996 . S
O300 C307 1.257 . S
C301 O296 1.254 . S
C301 O297 1.269 . S
C302 O303 1.249 . S
C302 O304 1.270 . S
O303 Zn295 1.943 . S
O303 C302 1.249 . S
O304 Zn294 2.067 . S
O304 C302 1.270 . S
C305 O298 1.262 . S
C305 O306 1.232 . S
O306 C305 1.232 . S
C307 O299 1.260 . S
C307 O300 1.257 . S
Zn308 O311 2.031 . S
Zn308 O313 2.049 . S
Zn308 O318 2.067 . S
Zn309 O310 1.962 . S
Zn309 O312 1.986 . S
Zn309 O314 1.996 . S
Zn309 O317 1.943 . S
O310 Zn309 1.962 . S
O310 C315 1.254 . S
O311 Zn308 2.031 . S
O311 C315 1.269 . S
O312 Zn309 1.986 . S
O312 C319 1.262 . S
O313 Zn308 2.049 . S
O313 C321 1.260 . S
O314 Zn309 1.996 . S
O314 C321 1.257 . S
C315 O310 1.254 . S
C315 O311 1.269 . S
C316 O317 1.249 . S
C316 O318 1.270 . S
O317 Zn309 1.943 . S
O317 C316 1.249 . S
O318 Zn308 2.067 . S
O318 C316 1.270 . S
C319 O312 1.262 . S
C319 O320 1.232 . S
O320 C319 1.232 . S
C321 O313 1.260 . S
C321 O314 1.257 . S
Zn322 O325 2.031 . S
Zn322 O327 2.049 . S
Zn322 O332 2.067 . S
Zn323 O324 1.962 . S
Zn323 O326 1.986 . S
Zn323 O328 1.996 . S
Zn323 O331 1.943 . S
O324 Zn323 1.962 . S
O324 C329 1.254 . S
O325 Zn322 2.031 . S
O325 C329 1.269 . S
O326 Zn323 1.986 . S
O326 C333 1.262 . S
O327 Zn322 2.049 . S
O327 C335 1.260 . S
O328 Zn323 1.996 . S
O328 C335 1.257 . S
C329 O324 1.254 . S
C329 O325 1.269 . S
C330 O331 1.249 . S
C330 O332 1.270 . S
O331 Zn323 1.943 . S
O331 C330 1.249 . S
O332 Zn322 2.067 . S
O332 C330 1.270 . S
C333 O326 1.262 . S
C333 O334 1.232 . S
O334 C333 1.232 . S
C335 O327 1.260 . S
C335 O328 1.257 . S
C336 C337 1.369 . S
C336 C338 1.419 . S
C336 H340 0.930 . S
C337 C336 1.369 . S
C337 C346 1.429 . S
C338 C336 1.419 . S
C338 C339 1.363 . S
C338 H341 0.929 . S
C339 C338 1.363 . S
C339 C345 1.428 . S
H340 C336 0.930 . S
H341 C338 0.929 . S
S342 N343 1.613 . S
S342 N344 1.610 . S
N343 S342 1.613 . S
N343 C346 1.350 . S
N344 S342 1.610 . S
N344 C345 1.351 . S
C345 C339 1.428 . S
C345 N344 1.351 . S
C345 C346 1.434 . S
C346 C337 1.429 . S
C346 N343 1.350 . S
C346 C345 1.434 . S
C347 C348 1.369 . S
C347 C349 1.419 . S
C347 H351 0.930 . S
C348 C347 1.369 . S
C348 C357 1.429 . S
C349 C347 1.419 . S
C349 C350 1.363 . S
C349 H352 0.929 . S
C350 C349 1.363 . S
C350 C356 1.428 . S
H351 C347 0.930 . S
H352 C349 0.929 . S
S353 N354 1.613 . S
S353 N355 1.610 . S
N354 S353 1.613 . S
N354 C357 1.350 . S
N355 S353 1.610 . S
N355 C356 1.351 . S
C356 C350 1.428 . S
C356 N355 1.351 . S
C356 C357 1.434 . S
C357 C348 1.429 . S
C357 N354 1.350 . S
C357 C356 1.434 . S
C358 C359 1.369 . S
C358 C360 1.419 . S
C358 H362 0.930 . S
C359 C358 1.369 . S
C359 C368 1.429 . S
C360 C358 1.419 . S
C360 C361 1.363 . S
C360 H363 0.929 . S
C361 C360 1.363 . S
C361 C367 1.428 . S
H362 C358 0.930 . S
H363 C360 0.929 . S
S364 N365 1.613 . S
S364 N366 1.610 . S
N365 S364 1.613 . S
N365 C368 1.350 . S
N366 S364 1.610 . S
N366 C367 1.351 . S
C367 C361 1.428 . S
C367 N366 1.351 . S
C367 C368 1.434 . S
C368 C359 1.429 . S
C368 N365 1.350 . S
C368 C367 1.434 . S
C369 C370 1.369 . S
C369 C371 1.419 . S
C369 H373 0.930 . S
C370 C369 1.369 . S
C370 C379 1.429 . S
C371 C369 1.419 . S
C371 C372 1.363 . S
C371 H374 0.929 . S
C372 C371 1.363 . S
C372 C378 1.428 . S
H373 C369 0.930 . S
H374 C371 0.929 . S
S375 N376 1.613 . S
S375 N377 1.610 . S
N376 S375 1.613 . S
N376 C379 1.350 . S
N377 S375 1.610 . S
N377 C378 1.351 . S
C378 C372 1.428 . S
C378 N377 1.351 . S
C378 C379 1.434 . S
C379 C370 1.429 . S
C379 N376 1.350 . S
C379 C378 1.434 . S
C380 C381 1.369 . S
C380 C382 1.419 . S
C380 H384 0.930 . S
C381 C380 1.369 . S
C381 C390 1.429 . S
C382 C380 1.419 . S
C382 C383 1.363 . S
C382 H385 0.929 . S
C383 C382 1.363 . S
C383 C389 1.428 . S
H384 C380 0.930 . S
H385 C382 0.929 . S
S386 N387 1.613 . S
S386 N388 1.610 . S
N387 S386 1.613 . S
N387 C390 1.350 . S
N388 S386 1.610 . S
N388 C389 1.351 . S
C389 C383 1.428 . S
C389 N388 1.351 . S
C389 C390 1.434 . S
C390 C381 1.429 . S
C390 N387 1.350 . S
C390 C389 1.434 . S
C391 C392 1.369 . S
C391 C393 1.419 . S
C391 H395 0.930 . S
C392 C391 1.369 . S
C392 C401 1.429 . S
C393 C391 1.419 . S
C393 C394 1.363 . S
C393 H396 0.929 . S
C394 C393 1.363 . S
C394 C400 1.428 . S
H395 C391 0.930 . S
H396 C393 0.929 . S
S397 N398 1.613 . S
S397 N399 1.610 . S
N398 S397 1.613 . S
N398 C401 1.350 . S
N399 S397 1.610 . S
N399 C400 1.351 . S
C400 C394 1.428 . S
C400 N399 1.351 . S
C400 C401 1.434 . S
C401 C392 1.429 . S
C401 N398 1.350 . S
C401 C400 1.434 . S
C402 C403 1.369 . S
C402 C404 1.419 . S
C402 H406 0.930 . S
C403 C402 1.369 . S
C403 C412 1.429 . S
C404 C402 1.419 . S
C404 C405 1.363 . S
C404 H407 0.929 . S
C405 C404 1.363 . S
C405 C411 1.428 . S
H406 C402 0.930 . S
H407 C404 0.929 . S
S408 N409 1.613 . S
S408 N410 1.610 . S
N409 S408 1.613 . S
N409 C412 1.350 . S
N410 S408 1.610 . S
N410 C411 1.351 . S
C411 C405 1.428 . S
C411 N410 1.351 . S
C411 C412 1.434 . S
C412 C403 1.429 . S
C412 N409 1.350 . S
C412 C411 1.434 . S
C413 C414 1.369 . S
C413 C415 1.419 . S
C413 H417 0.930 . S
C414 C413 1.369 . S
C414 C423 1.429 . S
C415 C413 1.419 . S
C415 C416 1.363 . S
C415 H418 0.929 . S
C416 C415 1.363 . S
C416 C422 1.428 . S
H417 C413 0.930 . S
H418 C415 0.929 . S
S419 N420 1.613 1_554 S
S419 N421 1.610 . S
N420 S419 1.613 1_556 S
N420 C423 1.350 . S
N421 S419 1.610 . S
N421 C422 1.351 1_554 S
C422 C416 1.428 . S
C422 N421 1.351 1_556 S
C422 C423 1.434 . S
C423 C414 1.429 . S
C423 N420 1.350 . S
C423 C422 1.434 . S
C424 C425 1.369 . S
C424 C426 1.419 . S
C424 H428 0.930 . S
C425 C424 1.369 . S
C425 C434 1.429 . S
C426 C424 1.419 . S
C426 C427 1.363 . S
C426 H429 0.929 . S
C427 C426 1.363 . S
C427 C433 1.428 . S
H428 C424 0.930 . S
H429 C426 0.929 . S
S430 N431 1.613 . S
S430 N432 1.610 . S
N431 S430 1.613 . S
N431 C434 1.350 . S
N432 S430 1.610 . S
N432 C433 1.351 . S
C433 C427 1.428 . S
C433 N432 1.351 . S
C433 C434 1.434 . S
C434 C425 1.429 . S
C434 N431 1.350 . S
C434 C433 1.434 . S
C435 C436 1.369 . S
C435 C437 1.419 . S
C435 H439 0.930 . S
C436 C435 1.369 . S
C436 C445 1.429 . S
C437 C435 1.419 . S
C437 C438 1.363 . S
C437 H440 0.929 . S
C438 C437 1.363 . S
C438 C444 1.428 . S
H439 C435 0.930 . S
H440 C437 0.929 . S
S441 N442 1.613 . S
S441 N443 1.610 1_565 S
N442 S441 1.613 . S
N442 C445 1.350 1_565 S
N443 S441 1.610 1_545 S
N443 C444 1.351 . S
C444 C438 1.428 . S
C444 N443 1.351 . S
C444 C445 1.434 . S
C445 C436 1.429 . S
C445 N442 1.350 1_545 S
C445 C444 1.434 . S
C446 C447 1.369 . S
C446 C448 1.419 . S
C446 H450 0.930 . S
C447 C446 1.369 . S
C447 C456 1.429 . S
C448 C446 1.419 . S
C448 C449 1.363 . S
C448 H451 0.929 . S
C449 C448 1.363 . S
C449 C455 1.428 . S
H450 C446 0.930 . S
H451 C448 0.929 . S
S452 N453 1.613 . S
S452 N454 1.610 1_545 S
N453 S452 1.613 . S
N453 C456 1.350 1_545 S
N454 S452 1.610 1_565 S
N454 C455 1.351 . S
C455 C449 1.428 . S
C455 N454 1.351 . S
C455 C456 1.434 . S
C456 C447 1.429 . S
C456 N453 1.350 1_565 S
C456 C455 1.434 . S
C457 C458 1.369 . S
C457 C459 1.419 . S
C457 H461 0.930 . S
C458 C457 1.369 . S
C458 C467 1.429 . S
C459 C457 1.419 . S
C459 C460 1.363 . S
C459 H462 0.929 . S
C460 C459 1.363 . S
C460 C466 1.428 . S
H461 C457 0.930 . S
H462 C459 0.929 . S
S463 N464 1.613 . S
S463 N465 1.610 . S
N464 S463 1.613 . S
N464 C467 1.350 . S
N465 S463 1.610 . S
N465 C466 1.351 . S
C466 C460 1.428 . S
C466 N465 1.351 . S
C466 C467 1.434 . S
C467 C458 1.429 . S
C467 N464 1.350 . S
C467 C466 1.434 . S
C468 C469 1.369 . S
C468 C470 1.419 . S
C468 H472 0.930 . S
C469 C468 1.369 . S
C469 C478 1.429 . S
C470 C468 1.419 . S
C470 C471 1.363 . S
C470 H473 0.929 . S
C471 C470 1.363 . S
C471 C477 1.428 . S
H472 C468 0.930 . S
H473 C470 0.929 . S
S474 N475 1.613 . S
S474 N476 1.610 . S
N475 S474 1.613 . S
N475 C478 1.350 . S
N476 S474 1.610 . S
N476 C477 1.351 . S
C477 C471 1.428 . S
C477 N476 1.351 . S
C477 C478 1.434 . S
C478 C469 1.429 . S
C478 N475 1.350 . S
C478 C477 1.434 . S
C479 C480 1.369 . S
C479 C481 1.419 . S
C479 H483 0.930 . S
C480 C479 1.369 . S
C480 C489 1.429 . S
C481 C479 1.419 . S
C481 C482 1.363 . S
C481 H484 0.929 . S
C482 C481 1.363 . S
C482 C488 1.428 . S
H483 C479 0.930 . S
H484 C481 0.929 . S
S485 N486 1.613 . S
S485 N487 1.610 . S
N486 S485 1.613 . S
N486 C489 1.350 . S
N487 S485 1.610 . S
N487 C488 1.351 . S
C488 C482 1.428 . S
C488 N487 1.351 . S
C488 C489 1.434 . S
C489 C480 1.429 . S
C489 N486 1.350 . S
C489 C488 1.434 . S
C490 C491 1.369 . S
C490 C492 1.419 . S
C490 H494 0.930 . S
C491 C490 1.369 . S
C491 C500 1.429 . S
C492 C490 1.419 . S
C492 C493 1.363 . S
C492 H495 0.929 . S
C493 C492 1.363 . S
C493 C499 1.428 . S
H494 C490 0.930 . S
H495 C492 0.929 . S
S496 N497 1.613 . S
S496 N498 1.610 . S
N497 S496 1.613 . S
N497 C500 1.350 . S
N498 S496 1.610 . S
N498 C499 1.351 . S
C499 C493 1.428 . S
C499 N498 1.351 . S
C499 C500 1.434 . S
C500 C491 1.429 . S
C500 N497 1.350 . S
C500 C499 1.434 . S
C501 C502 1.369 . S
C501 C503 1.419 . S
C501 H505 0.930 . S
C502 C501 1.369 . S
C502 C511 1.429 . S
C503 C501 1.419 . S
C503 C504 1.363 . S
C503 H506 0.929 . S
C504 C503 1.363 . S
C504 C510 1.428 . S
H505 C501 0.930 . S
H506 C503 0.929 . S
S507 N508 1.615 . S
S507 N509 1.610 1_455 S
N508 S507 1.615 . S
N508 C511 1.340 1_455 S
N509 S507 1.610 1_655 S
N509 C510 1.351 . S
C510 C504 1.428 . S
C510 N509 1.351 . S
C510 C511 1.434 . S
C511 C502 1.429 . S
C511 N508 1.340 1_655 S
C511 C510 1.434 . S
C512 C513 1.369 . S
C512 C514 1.419 . S
C512 H516 0.930 . S
C513 C512 1.369 . S
C513 C522 1.429 . S
C514 C512 1.419 . S
C514 C515 1.363 . S
C514 H517 0.929 . S
C515 C514 1.363 . S
C515 C521 1.428 . S
H516 C512 0.930 . S
H517 C514 0.929 . S
S518 N519 1.613 . S
S518 N520 1.610 . S
N519 S518 1.613 . S
N519 C522 1.350 . S
N520 S518 1.610 . S
N520 C521 1.351 . S
C521 C515 1.428 . S
C521 N520 1.351 . S
C521 C522 1.434 . S
C522 C513 1.429 . S
C522 N519 1.350 . S
C522 C521 1.434 . S
C523 C524 1.369 . S
C523 C525 1.419 . S
C523 H527 0.930 . S
C524 C523 1.369 . S
C524 C533 1.429 . S
C525 C523 1.419 . S
C525 C526 1.363 . S
C525 H528 0.929 . S
C526 C525 1.363 . S
C526 C532 1.428 . S
H527 C523 0.930 . S
H528 C525 0.929 . S
S529 N530 1.613 . S
S529 N531 1.610 . S
N530 S529 1.613 . S
N530 C533 1.350 . S
N531 S529 1.610 . S
N531 C532 1.351 . S
C532 C526 1.428 . S
C532 N531 1.351 . S
C532 C533 1.434 . S
C533 C524 1.429 . S
C533 N530 1.350 . S
C533 C532 1.434 . S
C534 C535 1.369 . S
C534 C536 1.419 . S
C534 H538 0.930 . S
C535 C534 1.369 . S
C535 C544 1.429 . S
C536 C534 1.419 . S
C536 C537 1.363 . S
C536 H539 0.929 . S
C537 C536 1.363 . S
C537 C543 1.428 . S
H538 C534 0.930 . S
H539 C536 0.929 . S
S540 N541 1.613 . S
S540 N542 1.610 . S
N541 S540 1.613 . S
N541 C544 1.350 . S
N542 S540 1.610 . S
N542 C543 1.351 . S
C543 C537 1.428 . S
C543 N542 1.351 . S
C543 C544 1.434 . S
C544 C535 1.429 . S
C544 N541 1.350 . S
C544 C543 1.434 . S
C545 C546 1.369 . S
C545 C547 1.419 . S
C545 H549 0.930 . S
C546 C545 1.369 . S
C546 C555 1.429 . S
C547 C545 1.419 . S
C547 C548 1.363 . S
C547 H550 0.929 1_655 S
C548 C547 1.363 . S
C548 C554 1.428 . S
H549 C545 0.930 . S
H550 C547 0.929 1_455 S
S551 N552 1.613 . S
S551 N553 1.610 . S
N552 S551 1.613 . S
N552 C555 1.350 . S
N553 S551 1.610 . S
N553 C554 1.351 . S
C554 C548 1.428 . S
C554 N553 1.351 . S
C554 C555 1.434 . S
C555 C546 1.429 . S
C555 N552 1.350 . S
C555 C554 1.434 . S
C556 C557 1.369 . S
C556 C558 1.419 . S
C556 H560 0.930 . S
C557 C556 1.369 . S
C557 C566 1.429 . S
C558 C556 1.419 . S
C558 C559 1.363 . S
C558 H561 0.929 . S
C559 C558 1.363 . S
C559 C565 1.428 . S
H560 C556 0.930 . S
H561 C558 0.929 . S
S562 N563 1.613 . S
S562 N564 1.610 . S
N563 S562 1.613 . S
N563 C566 1.350 . S
N564 S562 1.610 . S
N564 C565 1.351 . S
C565 C559 1.428 . S
C565 N564 1.351 . S
C565 C566 1.434 . S
C566 C557 1.429 . S
C566 N563 1.350 . S
C566 C565 1.434 . S
C567 C568 1.369 . S
C567 C569 1.419 . S
C567 H571 0.930 . S
C568 C567 1.369 . S
C568 C577 1.429 . S
C569 C567 1.419 . S
C569 C570 1.363 . S
C569 H572 0.929 . S
C570 C569 1.363 . S
C570 C576 1.428 . S
H571 C567 0.930 . S
H572 C569 0.929 . S
S573 N574 1.613 . S
S573 N575 1.610 . S
N574 S573 1.613 . S
N574 C577 1.350 . S
N575 S573 1.610 . S
N575 C576 1.351 . S
C576 C570 1.428 . S
C576 N575 1.351 . S
C576 C577 1.434 . S
C577 C568 1.429 . S
C577 N574 1.350 . S
C577 C576 1.434 . S
C578 C579 1.369 . S
C578 C580 1.419 . S
C578 H582 0.930 . S
C579 C578 1.369 . S
C579 C588 1.429 . S
C580 C578 1.419 . S
C580 C581 1.363 . S
C580 H583 0.929 . S
C581 C580 1.363 . S
C581 C587 1.428 . S
H582 C578 0.930 . S
H583 C580 0.929 . S
S584 N585 1.613 1_556 S
S584 N586 1.610 . S
N585 S584 1.613 1_554 S
N585 C588 1.350 . S
N586 S584 1.610 . S
N586 C587 1.351 1_556 S
C587 C581 1.428 . S
C587 N586 1.351 1_554 S
C587 C588 1.434 . S
C588 C579 1.429 . S
C588 N585 1.350 . S
C588 C587 1.434 . S
C589 C590 1.369 . S
C589 C591 1.419 . S
C589 H593 0.930 . S
C590 C589 1.369 . S
C590 C599 1.429 . S
C591 C589 1.419 . S
C591 C592 1.363 . S
C591 H594 0.929 . S
C592 C591 1.363 . S
C592 C598 1.428 . S
H593 C589 0.930 . S
H594 C591 0.929 . S
S595 N596 1.613 . S
S595 N597 1.610 . S
N596 S595 1.613 . S
N596 C599 1.350 1_545 S
N597 S595 1.610 . S
N597 C598 1.351 1_545 S
C598 C592 1.428 . S
C598 N597 1.351 1_565 S
C598 C599 1.434 . S
C599 C590 1.429 . S
C599 N596 1.350 1_565 S
C599 C598 1.434 . S
C600 C601 1.369 . S
C600 C602 1.419 . S
C600 H604 0.930 . S
C601 C600 1.369 . S
C601 C610 1.429 . S
C602 C600 1.419 . S
C602 C603 1.363 . S
C602 H605 0.929 . S
C603 C602 1.363 . S
C603 C609 1.428 . S
H604 C600 0.930 . S
H605 C602 0.929 . S
S606 N607 1.613 . S
S606 N608 1.610 . S
N607 S606 1.613 . S
N607 C610 1.350 . S
N608 S606 1.610 . S
N608 C609 1.351 . S
C609 C603 1.428 . S
C609 N608 1.351 . S
C609 C610 1.434 . S
C610 C601 1.429 . S
C610 N607 1.350 . S
C610 C609 1.434 . S
C611 C612 1.369 . S
C611 C613 1.419 . S
C611 H615 0.930 . S
C612 C611 1.369 . S
C612 C621 1.429 . S
C613 C611 1.419 . S
C613 C614 1.363 . S
C613 H616 0.929 . S
C614 C613 1.363 . S
C614 C620 1.428 . S
H615 C611 0.930 . S
H616 C613 0.929 . S
S617 N618 1.613 . S
S617 N619 1.610 . S
N618 S617 1.613 . S
N618 C621 1.350 . S
N619 S617 1.610 . S
N619 C620 1.351 . S
C620 C614 1.428 . S
C620 N619 1.351 . S
C620 C621 1.434 . S
C621 C612 1.429 . S
C621 N618 1.350 . S
C621 C620 1.434 . S
C622 C623 1.369 . S
C622 C624 1.419 . S
C622 H626 0.930 . S
C623 C622 1.369 . S
C623 C632 1.429 . S
C624 C622 1.419 . S
C624 C625 1.363 . S
C624 H627 0.929 . S
C625 C624 1.363 . S
C625 C631 1.428 . S
H626 C622 0.930 . S
H627 C624 0.929 . S
S628 N629 1.613 . S
S628 N630 1.610 . S
N629 S628 1.613 . S
N629 C632 1.350 . S
N630 S628 1.610 . S
N630 C631 1.351 . S
C631 C625 1.428 . S
C631 N630 1.351 . S
C631 C632 1.434 . S
C632 C623 1.429 . S
C632 N629 1.350 . S
C632 C631 1.434 . S
C633 C634 1.369 . S
C633 C635 1.419 . S
C633 H637 0.930 . S
C634 C633 1.369 . S
C634 C643 1.429 . S
C635 C633 1.419 . S
C635 C636 1.363 . S
C635 H638 0.929 . S
C636 C635 1.363 . S
C636 C642 1.427 . S
H637 C633 0.930 . S
H638 C635 0.929 . S
S639 N640 1.613 . S
S639 N641 1.610 . S
N640 S639 1.613 . S
N640 C643 1.350 1_554 S
N641 S639 1.610 . S
N641 C642 1.352 1_554 S
C642 C636 1.427 . S
C642 N641 1.352 1_556 S
C642 C643 1.434 . S
C643 C634 1.429 . S
C643 N640 1.350 1_556 S
C643 C642 1.434 . S
C644 C645 1.369 . S
C644 C646 1.419 . S
C644 H648 0.930 . S
C645 C644 1.369 . S
C645 C654 1.429 . S
C646 C644 1.419 . S
C646 C647 1.363 . S
C646 H649 0.929 . S
C647 C646 1.363 . S
C647 C653 1.428 . S
H648 C644 0.930 . S
H649 C646 0.929 . S
S650 N651 1.613 . S
S650 N652 1.610 . S
N651 S650 1.613 . S
N651 C654 1.350 . S
N652 S650 1.610 . S
N652 C653 1.351 . S
C653 C647 1.428 . S
C653 N652 1.351 . S
C653 C654 1.434 . S
C654 C645 1.429 . S
C654 N651 1.350 . S
C654 C653 1.434 . S
C655 C656 1.369 . S
C655 C657 1.419 . S
C655 H659 0.930 . S
C656 C655 1.369 . S
C656 C665 1.429 . S
C657 C655 1.419 . S
C657 C658 1.363 . S
C657 H660 0.929 . S
C658 C657 1.363 . S
C658 C664 1.428 . S
H659 C655 0.930 . S
H660 C657 0.929 . S
S661 N662 1.613 . S
S661 N663 1.610 . S
N662 S661 1.613 . S
N662 C665 1.350 . S
N663 S661 1.610 . S
N663 C664 1.351 . S
C664 C658 1.428 . S
C664 N663 1.351 . S
C664 C665 1.434 . S
C665 C656 1.429 . S
C665 N662 1.350 . S
C665 C664 1.434 . S
C666 C667 1.369 . S
C666 C668 1.419 . S
C666 H670 0.930 . S
C667 C666 1.369 . S
C667 C676 1.429 . S
C668 C666 1.419 . S
C668 C669 1.363 . S
C668 H671 0.929 . S
C669 C668 1.363 . S
C669 C675 1.428 . S
H670 C666 0.930 . S
H671 C668 0.929 . S
S672 N673 1.613 . S
S672 N674 1.610 . S
N673 S672 1.613 . S
N673 C676 1.350 . S
N674 S672 1.610 . S
N674 C675 1.351 . S
C675 C669 1.428 . S
C675 N674 1.351 . S
C675 C676 1.434 . S
C676 C667 1.429 . S
C676 N673 1.350 . S
C676 C675 1.434 . S
C677 C678 1.369 . S
C677 C679 1.419 . S
C677 H681 0.930 . S
C678 C677 1.369 . S
C678 C687 1.429 . S
C679 C677 1.419 . S
C679 C680 1.363 . S
C679 H682 0.929 . S
C680 C679 1.363 . S
C680 C686 1.428 . S
H681 C677 0.930 . S
H682 C679 0.929 . S
S683 N684 1.613 . S
S683 N685 1.610 . S
N684 S683 1.613 . S
N684 C687 1.350 . S
N685 S683 1.610 . S
N685 C686 1.351 . S
C686 C680 1.428 . S
C686 N685 1.351 . S
C686 C687 1.434 . S
C687 C678 1.429 . S
C687 N684 1.350 . S
C687 C686 1.434 . S
C688 C689 1.369 . S
C688 C690 1.419 . S
C688 H692 0.930 . S
C689 C688 1.369 . S
C689 C698 1.429 . S
C690 C688 1.419 . S
C690 C691 1.363 . S
C690 H693 0.929 . S
C691 C690 1.363 . S
C691 C697 1.428 . S
H692 C688 0.930 . S
H693 C690 0.929 . S
S694 N695 1.613 . S
S694 N696 1.610 . S
N695 S694 1.613 . S
N695 C698 1.350 . S
N696 S694 1.610 . S
N696 C697 1.351 . S
C697 C691 1.428 . S
C697 N696 1.351 . S
C697 C698 1.434 . S
C698 C689 1.429 . S
C698 N695 1.350 . S
C698 C697 1.434 . S
C699 C700 1.369 . S
C699 C701 1.419 . S
C699 H703 0.930 . S
C700 C699 1.369 . S
C700 C709 1.429 . S
C701 C699 1.419 . S
C701 C702 1.363 . S
C701 H704 0.929 . S
C702 C701 1.363 . S
C702 C708 1.428 . S
H703 C699 0.930 . S
H704 C701 0.929 . S
S705 N706 1.613 . S
S705 N707 1.610 1_554 S
N706 S705 1.613 . S
N706 C709 1.350 1_554 S
N707 S705 1.610 1_556 S
N707 C708 1.351 . S
C708 C702 1.428 . S
C708 N707 1.351 . S
C708 C709 1.434 . S
C709 C700 1.429 . S
C709 N706 1.350 1_556 S
C709 C708 1.434 . S
C710 C711 1.369 . S
C710 C712 1.419 . S
C710 H714 0.930 . S
C711 C710 1.369 . S
C711 C720 1.429 . S
C712 C710 1.419 . S
C712 C713 1.363 . S
C712 H715 0.929 . S
C713 C712 1.363 . S
C713 C719 1.428 . S
H714 C710 0.930 . S
H715 C712 0.929 . S
S716 N717 1.613 . S
S716 N718 1.610 . S
N717 S716 1.613 . S
N717 C720 1.350 . S
N718 S716 1.610 . S
N718 C719 1.351 . S
C719 C713 1.428 . S
C719 N718 1.351 . S
C719 C720 1.434 . S
C720 C711 1.429 . S
C720 N717 1.350 . S
C720 C719 1.434 . S
C721 C722 1.369 . S
C721 C723 1.419 . S
C721 H725 0.930 . S
C722 C721 1.369 . S
C722 C731 1.429 . S
C723 C721 1.419 . S
C723 C724 1.363 . S
C723 H726 0.929 . S
C724 C723 1.363 . S
C724 C730 1.428 . S
H725 C721 0.930 . S
H726 C723 0.929 . S
S727 N728 1.613 . S
S727 N729 1.610 . S
N728 S727 1.613 . S
N728 C731 1.350 . S
N729 S727 1.610 . S
N729 C730 1.351 . S
C730 C724 1.428 . S
C730 N729 1.351 . S
C730 C731 1.434 . S
C731 C722 1.429 . S
C731 N728 1.350 . S
C731 C730 1.434 . S
C732 C733 1.369 . S
C732 C734 1.419 . S
C732 H736 0.930 . S
C733 C732 1.369 . S
C733 C742 1.429 . S
C734 C732 1.419 . S
C734 C735 1.363 . S
C734 H737 0.929 . S
C735 C734 1.363 . S
C735 C741 1.428 . S
H736 C732 0.930 . S
H737 C734 0.929 . S
S738 N739 1.613 . S
S738 N740 1.610 . S
N739 S738 1.613 . S
N739 C742 1.350 . S
N740 S738 1.610 . S
N740 C741 1.351 . S
C741 C735 1.428 . S
C741 N740 1.351 . S
C741 C742 1.434 . S
C742 C733 1.429 . S
C742 N739 1.350 . S
C742 C741 1.434 . S
C743 C744 1.369 . S
C743 C745 1.419 . S
C743 H747 0.930 . S
C744 C743 1.369 . S
C744 C753 1.429 . S
C745 C743 1.419 . S
C745 C746 1.363 . S
C745 H748 0.929 . S
C746 C745 1.363 . S
C746 C752 1.428 . S
H747 C743 0.930 . S
H748 C745 0.929 . S
S749 N750 1.613 . S
S749 N751 1.610 . S
N750 S749 1.613 . S
N750 C753 1.350 . S
N751 S749 1.610 . S
N751 C752 1.351 . S
C752 C746 1.428 . S
C752 N751 1.351 . S
C752 C753 1.434 . S
C753 C744 1.429 . S
C753 N750 1.350 . S
C753 C752 1.434 . S
C754 C755 1.369 . S
C754 C756 1.419 . S
C754 H758 0.930 . S
C755 C754 1.369 . S
C755 C764 1.429 . S
C756 C754 1.419 . S
C756 C757 1.363 . S
C756 H759 0.929 . S
C757 C756 1.363 . S
C757 C763 1.428 . S
H758 C754 0.930 . S
H759 C756 0.929 . S
S760 N761 1.613 . S
S760 N762 1.610 . S
N761 S760 1.613 . S
N761 C764 1.350 . S
N762 S760 1.610 . S
N762 C763 1.351 . S
C763 C757 1.428 . S
C763 N762 1.351 . S
C763 C764 1.434 . S
C764 C755 1.429 . S
C764 N761 1.350 . S
C764 C763 1.434 . S
C765 C766 1.369 . S
C765 C767 1.419 . S
C765 H769 0.930 . S
C766 C765 1.369 . S
C766 C775 1.429 . S
C767 C765 1.419 . S
C767 C768 1.363 . S
C767 H770 0.929 . S
C768 C767 1.363 . S
C768 C774 1.428 . S
H769 C765 0.930 . S
H770 C767 0.929 . S
S771 N772 1.613 . S
S771 N773 1.610 . S
N772 S771 1.613 . S
N772 C775 1.350 . S
N773 S771 1.610 . S
N773 C774 1.351 . S
C774 C768 1.428 . S
C774 N773 1.351 . S
C774 C775 1.434 . S
C775 C766 1.429 . S
C775 N772 1.350 . S
C775 C774 1.434 . S
C776 C777 1.369 . S
C776 C778 1.419 . S
C776 H780 0.930 . S
C777 C776 1.369 . S
C777 C786 1.429 . S
C778 C776 1.419 . S
C778 C779 1.363 . S
C778 H781 0.929 . S
C779 C778 1.363 . S
C779 C785 1.428 . S
H780 C776 0.930 . S
H781 C778 0.929 . S
S782 N783 1.613 1_655 S
S782 N784 1.610 1_655 S
N783 S782 1.613 1_455 S
N783 C786 1.350 . S
N784 S782 1.610 1_455 S
N784 C785 1.351 . S
C785 C779 1.428 . S
C785 N784 1.351 . S
C785 C786 1.434 . S
C786 C777 1.429 . S
C786 N783 1.350 . S
C786 C785 1.434 . S
C787 C788 1.369 . S
C787 C789 1.419 . S
C787 H791 0.930 . S
C788 C787 1.369 . S
C788 C797 1.429 . S
C789 C787 1.419 . S
C789 C790 1.363 . S
C789 H792 0.929 . S
C790 C789 1.363 . S
C790 C796 1.428 . S
H791 C787 0.930 . S
H792 C789 0.929 . S
S793 N794 1.613 . S
S793 N795 1.610 . S
N794 S793 1.613 . S
N794 C797 1.350 . S
N795 S793 1.610 . S
N795 C796 1.351 . S
C796 C790 1.428 . S
C796 N795 1.351 . S
C796 C797 1.434 . S
C797 C788 1.429 . S
C797 N794 1.350 . S
C797 C796 1.434 . S
C798 C799 1.369 . S
C798 C800 1.419 . S
C798 H802 0.930 . S
C799 C798 1.369 . S
C799 C808 1.429 . S
C800 C798 1.419 . S
C800 C801 1.363 . S
C800 H803 0.929 . S
C801 C800 1.363 . S
C801 C807 1.428 . S
H802 C798 0.930 . S
H803 C800 0.929 . S
S804 N805 1.613 . S
S804 N806 1.610 . S
N805 S804 1.613 . S
N805 C808 1.350 . S
N806 S804 1.610 . S
N806 C807 1.351 . S
C807 C801 1.428 . S
C807 N806 1.351 . S
C807 C808 1.434 . S
C808 C799 1.429 . S
C808 N805 1.350 . S
C808 C807 1.434 . S
C809 C810 1.369 . S
C809 C811 1.419 . S
C809 H813 0.930 . S
C810 C809 1.369 . S
C810 C819 1.429 . S
C811 C809 1.419 . S
C811 C812 1.363 . S
C811 H814 0.929 . S
C812 C811 1.363 . S
C812 C818 1.428 . S
H813 C809 0.930 . S
H814 C811 0.929 . S
S815 N816 1.613 . S
S815 N817 1.610 . S
N816 S815 1.613 . S
N816 C819 1.350 . S
N817 S815 1.610 . S
N817 C818 1.351 . S
C818 C812 1.428 . S
C818 N817 1.351 . S
C818 C819 1.434 . S
C819 C810 1.429 . S
C819 N816 1.350 . S
C819 C818 1.434 . S
C820 C821 1.369 . S
C820 C822 1.419 . S
C820 H824 0.930 . S
C821 C820 1.369 . S
C821 C830 1.429 . S
C822 C820 1.419 . S
C822 C823 1.363 . S
C822 H825 0.929 . S
C823 C822 1.363 . S
C823 C829 1.428 . S
H824 C820 0.930 . S
H825 C822 0.929 . S
S826 N827 1.613 . S
S826 N828 1.610 . S
N827 S826 1.613 . S
N827 C830 1.350 . S
N828 S826 1.610 . S
N828 C829 1.351 . S
C829 C823 1.428 . S
C829 N828 1.351 . S
C829 C830 1.434 . S
C830 C821 1.429 . S
C830 N827 1.350 . S
C830 C829 1.434 . S
C831 C832 1.369 . S
C831 C833 1.419 . S
C831 H835 0.930 . S
C832 C831 1.369 . S
C832 C841 1.429 . S
C833 C831 1.419 . S
C833 C834 1.363 . S
C833 H836 0.929 . S
C834 C833 1.363 . S
C834 C840 1.428 . S
H835 C831 0.930 . S
H836 C833 0.929 . S
S837 N838 1.613 . S
S837 N839 1.610 . S
N838 S837 1.613 . S
N838 C841 1.350 . S
N839 S837 1.610 . S
N839 C840 1.351 . S
C840 C834 1.428 . S
C840 N839 1.351 . S
C840 C841 1.434 . S
C841 C832 1.429 . S
C841 N838 1.350 . S
C841 C840 1.434 . S
C842 C843 1.369 . S
C842 C844 1.419 . S
C842 H846 0.930 . S
C843 C842 1.369 . S
C843 C852 1.429 . S
C844 C842 1.419 . S
C844 C845 1.363 . S
C844 H847 0.929 . S
C845 C844 1.363 . S
C845 C851 1.428 . S
H846 C842 0.930 . S
H847 C844 0.929 . S
S848 N849 1.613 . S
S848 N850 1.610 . S
N849 S848 1.613 . S
N849 C852 1.350 . S
N850 S848 1.610 . S
N850 C851 1.351 . S
C851 C845 1.428 . S
C851 N850 1.351 . S
C851 C852 1.434 . S
C852 C843 1.429 . S
C852 N849 1.350 . S
C852 C851 1.434 . S
C853 C854 1.369 . S
C853 C855 1.419 . S
C853 H857 0.930 . S
C854 C853 1.369 . S
C854 C863 1.429 . S
C855 C853 1.419 . S
C855 C856 1.363 . S
C855 H858 0.929 . S
C856 C855 1.363 . S
C856 C862 1.428 . S
H857 C853 0.930 . S
H858 C855 0.929 . S
S859 N860 1.613 . S
S859 N861 1.610 . S
N860 S859 1.613 . S
N860 C863 1.350 . S
N861 S859 1.610 . S
N861 C862 1.351 . S
C862 C856 1.428 . S
C862 N861 1.351 . S
C862 C863 1.434 . S
C863 C854 1.429 . S
C863 N860 1.350 . S
C863 C862 1.434 . S
C337 C203 1.502 . S
C339 C11 1.470 . S
C348 C21 1.501 . S
C350 C221 1.472 . S
C359 C260 1.488 . S
C361 C36 1.481 . S
C370 C55 1.327 . S
C372 C195 1.331 . S
C381 C209 1.328 . S
C383 C69 1.332 . S
C392 C78 1.483 . S
C394 C218 1.485 . S
C403 C91 1.502 . S
C405 C263 1.475 . S
C414 C109 1.473 . S
C416 C189 1.502 . S
C425 C133 1.501 . S
C427 C123 1.475 . S
C436 C153 1.327 . S
C438 C139 1.330 . S
C447 C147 1.502 . S
C449 C165 1.474 . S
C458 C162 1.480 . S
C460 C120 1.487 . S
C469 C179 1.476 . S
C471 C49 1.502 . S
C480 C63 1.501 . S
C482 C235 1.475 . S
C491 C251 1.339 . S
C493 C27 1.336 . S
C502 C25 1.351 . S
C504 C307 1.323 . S
C513 C137 1.347 . S
C515 C13 1.319 . S
C524 C330 1.321 . S
C526 C50 1.320 . S
C535 C161 1.355 . S
C537 C35 1.355 . S
C546 C301 1.354 . S
C548 C105 1.356 . S
C557 C134 1.318 . S
C559 C92 1.319 . S
C568 C83 1.319 . S
C570 C333 1.348 . S
C579 C67 1.351 . S
C581 C167 1.324 . S
C590 C223 1.324 . S
C592 C277 1.350 . S
C601 C231 1.356 . S
C603 C217 1.354 . S
C612 C193 1.349 . S
C614 C237 1.321 . S
C623 C274 1.310 . S
C625 C190 1.313 . S
C634 C41 1.322 . S
C636 C291 1.350 . S
C645 C151 1.346 . S
C647 C111 1.319 . S
C656 C7 1.356 . S
C658 C315 1.355 . S
C667 C273 1.502 . S
C669 C39 1.471 . S
C678 C8 1.478 . S
C680 C232 1.488 . S
C689 C279 1.336 . S
C691 C97 1.331 . S
C700 C176 1.479 . S
C702 C106 1.487 . S
C711 C81 1.476 . S
C713 C245 1.502 . S
C722 C305 1.475 . S
C724 C287 1.502 . S
C733 C335 1.328 . S
C735 C293 1.332 . S
C744 C319 1.472 . S
C746 C329 1.502 . S
C755 C302 1.480 . S
C757 C316 1.487 . S
C766 C125 1.319 . S
C768 C53 1.347 . S
C777 C22 1.313 . S
C779 C148 1.316 . S
C788 C77 1.355 . S
C790 C119 1.356 . S
C799 C288 1.317 . S
C801 C64 1.314 . S
C810 C95 1.351 . S
C812 C321 1.325 . S
C821 C181 1.320 . S
C823 C207 1.349 . S
C832 C259 1.357 . S
C834 C175 1.354 . S
C843 C249 1.346 . S
C845 C265 1.319 . S
C854 C204 1.319 . S
C856 C246 1.316 . S
