# Generated by pormake.
# Topology smu, (6)-cn, num edge types: 1
# Building blocks:
#     Node 0, Type 0, BuildingBlock: BETDIP_clean_sbu_0, # of connection points: 6
#     Node 1, Type 0, BuildingBlock: BETDIP_clean_sbu_0, # of connection points: 6
#     Node 2, Type 0, BuildingBlock: BETDIP_clean_sbu_0, # of connection points: 6
#     Node 3, Type 0, BuildingBlock: BETDIP_clean_sbu_0, # of connection points: 6
#     Node 4, Type 0, BuildingBlock: BETDIP_clean_sbu_0, # of connection points: 6
#     Node 5, Type 0, BuildingBlock: BETDIP_clean_sbu_0, # of connection points: 6
#     Edge 6, Type (0, 0), BuildingBlock: EZIPEK_clean_linker_0, # of connection points: 2
#     Edge 7, Type (0, 0), BuildingBlock: EZIPEK_clean_linker_0, # of connection points: 2
#     Edge 8, Type (0, 0), BuildingBlock: EZIPEK_clean_linker_0, # of connection points: 2
#     Edge 9, Type (0, 0), BuildingBlock: EZIPEK_clean_linker_0, # of connection points: 2
#     Edge 10, Type (0, 0), BuildingBlock: EZIPEK_clean_linker_0, # of connection points: 2
#     Edge 11, Type (0, 0), BuildingBlock: EZIPEK_clean_linker_0, # of connection points: 2
#     Edge 12, Type (0, 0), BuildingBlock: EZIPEK_clean_linker_0, # of connection points: 2
#     Edge 13, Type (0, 0), BuildingBlock: EZIPEK_clean_linker_0, # of connection points: 2
#     Edge 14, Type (0, 0), BuildingBlock: EZIPEK_clean_linker_0, # of connection points: 2
#     Edge 15, Type (0, 0), BuildingBlock: EZIPEK_clean_linker_0, # of connection points: 2
#     Edge 16, Type (0, 0), BuildingBlock: EZIPEK_clean_linker_0, # of connection points: 2
#     Edge 17, Type (0, 0), BuildingBlock: EZIPEK_clean_linker_0, # of connection points: 2
#     Edge 18, Type (0, 0), BuildingBlock: EZIPEK_clean_linker_0, # of connection points: 2
#     Edge 19, Type (0, 0), BuildingBlock: EZIPEK_clean_linker_0, # of connection points: 2
#     Edge 20, Type (0, 0), BuildingBlock: EZIPEK_clean_linker_0, # of connection points: 2
#     Edge 21, Type (0, 0), BuildingBlock: EZIPEK_clean_linker_0, # of connection points: 2
#     Edge 22, Type (0, 0), BuildingBlock: EZIPEK_clean_linker_0, # of connection points: 2
#     Edge 23, Type (0, 0), BuildingBlock: EZIPEK_clean_linker_0, # of connection points: 2
# Relax obj value: 0.239
# Max RMSD: 0.338
# Mean RMSD: 0.338
data_MOF--net-smu--node1-BETDIP_clean_sbu_0--edge1-EZIPEK_clean_linker_0
_symmetry_space_group_name_H-M    P1
_symmetry_Int_Tables_number       1
_symmetry_cell_setting            triclinic
loop_
_symmetry_equiv_pos_as_xyz
'x, y, z'
_cell_length_a     31.173892
_cell_length_b     31.089795
_cell_length_c     19.505317
_cell_angle_alpha  90.723861
_cell_angle_beta   89.460185
_cell_angle_gamma 120.41878
loop_
_atom_site_label
_atom_site_type_symbol
_atom_site_fract_x
_atom_site_fract_y
_atom_site_fract_z
_atom_type_partial_charge
Tb0 Tb 0.33302 0.0495 0.26379 0.0
Tb1 Tb 0.39328 0.14966 0.2726 0.0
C2 C 0.25894 0.96632 0.29537 0.0
C3 C 0.20421 0.94278 0.28761 0.0
C4 C 0.17515 0.93473 0.34693 0.0
C5 C 0.12369 0.9141 0.34254 0.0
C6 C 0.09982 0.90052 0.27876 0.0
C7 C 0.12861 0.90893 0.21904 0.0
C8 C 0.1805 0.93017 0.22335 0.0
C9 C 0.3555 0.07348 0.13927 0.0
C10 C 0.28846 0.12546 0.26194 0.0
C11 C 0.45611 0.24288 0.27328 0.0
C12 C 0.49336 0.29808 0.27355 0.0
C13 C 0.52439 0.32138 0.21646 0.0
C14 C 0.55564 0.37375 0.21397 0.0
C15 C 0.55618 0.40469 0.26791 0.0
C16 C 0.5259 0.38125 0.32556 0.0
C17 C 0.49529 0.32888 0.32852 0.0
C18 C 0.36885 0.09472 0.3936 0.0
C19 C 0.45176 0.09795 0.24919 0.0
O20 O 0.27855 1.00561 0.33522 0.0
O21 O 0.28663 0.97262 0.24116 0.0
O22 O 0.34725 0.10093 0.18281 0.0
O23 O 0.35558 0.0367 0.16902 0.0
O24 O 0.28006 0.07939 0.26957 0.0
O25 O 0.33363 0.16167 0.25456 0.0
O26 O 0.44113 0.2157 0.21753 0.0
O27 O 0.43719 0.21696 0.32893 0.0
O28 O 0.38474 0.08892 0.33809 0.0
O29 O 0.36302 0.1326 0.38227 0.0
O30 O 0.44999 0.13712 0.23158 0.0
O31 O 0.41015 0.05879 0.27358 0.0
H32 H 0.19236 0.94431 0.3971 0.0
H33 H 0.10219 0.90734 0.38924 0.0
H34 H 0.11078 0.89798 0.16939 0.0
H35 H 0.20185 0.93631 0.17666 0.0
H36 H 0.52409 0.2991 0.17313 0.0
H37 H 0.57885 0.39025 0.1692 0.0
H38 H 0.52558 0.40368 0.36828 0.0
H39 H 0.4719 0.31257 0.37319 0.0
Tb40 Tb 0.76844 0.74099 0.26341 0.0
Tb41 Tb 0.80426 0.67398 0.2708 0.0
C42 C 0.74477 0.8061 0.28549 0.0
C43 C 0.77503 0.8611 0.2751 0.0
C44 C 0.77816 0.89368 0.32811 0.0
C45 C 0.81162 0.9453 0.32383 0.0
C46 C 0.84314 0.96567 0.26663 0.0
C47 C 0.84038 0.93307 0.21379 0.0
C48 C 0.80669 0.88146 0.21788 0.0
C49 C 0.79782 0.73448 0.13844 0.0
C50 C 0.8838 0.78023 0.26907 0.0
C51 C 0.83592 0.6132 0.27132 0.0
C52 C 0.85465 0.5772 0.27159 0.0
C53 C 0.8398 0.53989 0.22067 0.0
C54 C 0.85977 0.50799 0.21805 0.0
C55 C 0.89545 0.51269 0.26615 0.0
C56 C 0.90983 0.54972 0.31756 0.0
C57 C 0.88987 0.58161 0.32011 0.0
C58 C 0.78304 0.70664 0.39391 0.0
C59 C 0.6943 0.61978 0.24648 0.0
O60 O 0.76291 0.79011 0.33221 0.0
O61 O 0.72964 0.77658 0.23128 0.0
O62 O 0.77621 0.69798 0.18073 0.0
O63 O 0.81155 0.77486 0.17261 0.0
O64 O 0.84805 0.78608 0.29681 0.0
O65 O 0.87113 0.73846 0.23763 0.0
O66 O 0.85908 0.65613 0.24022 0.0
O67 O 0.7946 0.60427 0.30162 0.0
O68 O 0.75999 0.69215 0.33933 0.0
O69 O 0.82139 0.70213 0.3813 0.0
O70 O 0.73446 0.61876 0.23021 0.0
O71 O 0.69791 0.66352 0.2651 0.0
H72 H 0.75529 0.87901 0.37365 0.0
H73 H 0.81285 0.96945 0.36523 0.0
H74 H 0.86409 0.94769 0.16902 0.0
H75 H 0.80609 0.85749 0.17675 0.0
H76 H 0.813 0.53571 0.18234 0.0
H77 H 0.8474 0.47963 0.17826 0.0
H78 H 0.9367 0.554 0.35582 0.0
H79 H 0.9023 0.61004 0.35983 0.0
Tb80 Tb 1.01844 0.30388 0.27134 0.0
Tb81 Tb 0.91554 0.25853 0.27786 0.0
C82 C 0.10391 0.31861 0.2974 0.0
C83 C 0.12564 0.28533 0.29124 0.0
C84 C 0.12384 0.25589 0.34651 0.0
C85 C 0.14606 0.22629 0.34193 0.0
C86 C 0.17465 0.22789 0.28393 0.0
C87 C 0.16867 0.25105 0.2253 0.0
C88 C 0.14638 0.28059 0.22944 0.0
C89 C 0.99123 0.29998 0.14635 0.0
C90 C 0.94452 0.18099 0.26594 0.0
C91 C 0.82364 0.22885 0.27569 0.0
C92 C 0.76944 0.21148 0.27395 0.0
C93 C 0.748 0.21962 0.21602 0.0
C94 C 0.69632 0.20032 0.21252 0.0
C95 C 0.66475 0.1714 0.26623 0.0
C96 C 0.6864 0.16402 0.32461 0.0
C97 C 0.73813 0.1841 0.32863 0.0
C98 C 0.96668 0.28256 0.40051 0.0
C99 C 0.96817 0.37073 0.25899 0.0
O100 O 0.06931 0.3067 0.34385 0.0
O101 O 0.0931 0.33304 0.2407 0.0
O102 O 0.96652 0.26458 0.19046 0.0
O103 O 1.02677 0.33885 0.17633 0.0
O104 O 0.99042 0.2205 0.27178 0.0
O105 O 0.9066 0.18735 0.26335 0.0
O106 O 0.84765 0.22475 0.22318 0.0
O107 O 0.85156 0.25039 0.32922 0.0
O108 O 0.97418 0.30744 0.34765 0.0
O109 O 0.92864 0.23942 0.38464 0.0
O110 O 0.93072 0.32882 0.23721 0.0
O111 O 1.00772 0.37035 0.28517 0.0
H112 H 0.10482 0.2553 0.39358 0.0
H113 H 0.13935 0.20182 0.38436 0.0
H114 H 0.18113 0.24685 0.17516 0.0
H115 H 0.14536 0.2996 0.18386 0.0
H116 H 0.77125 0.24088 0.17332 0.0
H117 H 0.68087 0.20743 0.1675 0.0
H118 H 0.66311 0.14241 0.36708 0.0
H119 H 0.75352 0.17708 0.37381 0.0
Tb120 Tb 0.10797 0.39916 0.76966 0.0
Tb121 Tb 0.13729 0.31971 0.77022 0.0
C122 C 0.10446 0.47537 0.80985 0.0
C123 C 0.13073 0.53044 0.796 0.0
C124 C 0.16771 0.5637 0.84195 0.0
C125 C 0.19213 0.61551 0.83273 0.0
C126 C 0.18017 0.63613 0.77762 0.0
C127 C 0.1432 0.6032 0.73134 0.0
C128 C 0.11878 0.55097 0.74036 0.0
C129 C 0.1006 0.36546 0.63935 0.0
C130 C 0.22316 0.43305 0.75903 0.0
C131 C 0.17639 0.26731 0.74973 0.0
C132 C 0.17325 0.21928 0.76193 0.0
C133 C 0.17504 0.19249 0.70533 0.0
C134 C 0.18667 0.15517 0.71335 0.0
C135 C 0.19595 0.1421 0.7789 0.0
C136 C 0.19159 0.16842 0.83587 0.0
C137 C 0.17959 0.20567 0.82755 0.0
C138 C 0.09913 0.32707 0.88994 0.0
C139 C 1.02541 0.28255 0.76908 0.0
O140 O 0.13191 0.45965 0.83778 0.0
O141 O 0.07366 0.44321 0.7645 0.0
O142 O 0.11572 0.35315 0.69238 0.0
O143 O 0.09467 0.4019 0.66003 0.0
O144 O 0.18939 0.44673 0.75621 0.0
O145 O 0.21019 0.38596 0.76267 0.0
O146 O 0.14475 0.26842 0.7073 0.0
O147 O 0.18684 0.2977 0.8021 0.0
O148 O 0.12648 0.36312 0.84928 0.0
O149 O 0.0985 0.28765 0.86617 0.0
O150 O 0.06017 0.27269 0.75011 0.0
O151 O 1.03525 0.32844 0.78729 0.0
H152 H 0.17759 0.54963 0.88594 0.0
H153 H 0.22006 0.63972 0.86949 0.0
H154 H 0.13288 0.61795 0.68861 0.0
H155 H 0.09032 0.5268 0.70421 0.0
H156 H 0.17167 0.20326 0.65388 0.0
H157 H 0.19258 0.1407 0.66606 0.0
H158 H 0.20133 0.16452 0.88713 0.0
H159 H 0.1793 0.22648 0.87235 0.0
Tb160 Tb 0.34956 0.9699 0.76658 0.0
Tb161 Tb 0.24121 0.92835 0.76845 0.0
C162 C 0.43815 0.99181 0.78923 0.0
C163 C 0.46139 0.95941 0.78407 0.0
C164 C 0.45149 0.92282 0.83379 0.0
C165 C 0.47295 0.89244 0.82918 0.0
C166 C 0.5054 0.89769 0.77502 0.0
C167 C 0.51476 0.93355 0.72461 0.0
C168 C 0.49305 0.96389 0.72902 0.0
C169 C 0.31448 0.96197 0.63839 0.0
C170 C 0.27578 0.8541 0.75742 0.0
C171 C 0.15055 0.89281 0.74452 0.0
C172 C 0.1012 0.88639 0.7567 0.0
C173 C 0.07018 0.87379 0.69972 0.0
C174 C 1.01955 0.85512 0.70833 0.0
C175 C 0.9989 0.85003 0.7742 0.0
C176 C 1.03051 0.86608 0.83148 0.0
C177 C 0.08151 0.88346 0.82287 0.0
C178 C 0.2839 0.95048 0.89625 0.0
C179 C 0.30168 0.04293 0.77678 0.0
O180 O 0.40465 0.9806 0.83698 0.0
O181 O 0.42455 1.00324 0.73237 0.0
O182 O 0.29945 0.97192 0.69333 0.0
O183 O 0.34608 0.94924 0.6576 0.0
O184 O 0.31537 0.88909 0.7898 0.0
O185 O 0.24744 0.86714 0.72624 0.0
O186 O 0.18528 0.9329 0.71438 0.0
O187 O 0.16766 0.87431 0.78919 0.0
O188 O 0.30009 0.9702 0.8397 0.0
O189 O 0.23903 0.91546 0.88184 0.0
O190 O 0.25716 1.00292 0.77236 0.0
O191 O 0.34383 0.04026 0.78 0.0
H192 H 0.42726 0.9177 0.87691 0.0
H193 H 0.46506 0.86541 0.86898 0.0
H194 H 0.53965 0.93871 0.68234 0.0
H195 H 0.50141 0.99121 0.68948 0.0
H196 H 0.08465 0.87565 0.64839 0.0
H197 H 0.99616 0.84393 0.6632 0.0
H198 H 1.0155 0.86363 0.88252 0.0
H199 H 0.10505 0.89287 0.8676 0.0
Tb200 Tb 0.67074 0.72882 0.77889 0.0
Tb201 Tb 0.73917 0.83673 0.76188 0.0
C202 C 0.59985 0.64621 0.82084 0.0
C203 C 0.54491 0.6181 0.80708 0.0
C204 C 0.51146 0.61566 0.85797 0.0
C205 C 0.45988 0.5893 0.84658 0.0
C206 C 0.43995 0.56407 0.78413 0.0
C207 C 0.47322 0.56665 0.73279 0.0
C208 C 0.52502 0.59338 0.74402 0.0
C209 C 0.70238 0.74311 0.65222 0.0
C210 C 0.62606 0.80196 0.76451 0.0
C211 C 0.7886 0.92688 0.72757 0.0
C212 C 0.83412 0.97484 0.74338 0.0
C213 C 0.86967 0.99958 0.69151 0.0
C214 C 0.90496 0.05043 0.69828 0.0
C215 C 0.904 0.07718 0.75626 0.0
C216 C 0.87225 0.05118 0.81112 0.0
C217 C 0.8378 1.00042 0.80498 0.0
C218 C 0.74777 0.80386 0.8868 0.0
C219 C 0.78797 0.77522 0.75721 0.0
O220 O 0.61746 0.68806 0.85515 0.0
O221 O 0.62964 0.6503 0.77071 0.0
O222 O 0.69593 0.77547 0.68759 0.0
O223 O 0.68088 0.70121 0.68357 0.0
O224 O 0.61658 0.75517 0.76446 0.0
O225 O 0.67168 0.83938 0.76415 0.0
O226 O 0.79318 0.89168 0.69709 0.0
O227 O 0.75313 0.90944 0.77366 0.0
O228 O 0.70901 0.78866 0.85014 0.0
O229 O 0.78072 0.84403 0.8568 0.0
O230 O 0.78501 0.81062 0.72694 0.0
O231 O 0.74813 0.74024 0.79212 0.0
H232 H 0.52524 0.6339 0.90715 0.0
H233 H 0.43525 0.58761 0.88734 0.0
H234 H 0.45904 0.54721 0.68444 0.0
H235 H 0.54938 0.59422 0.70345 0.0
H236 H 0.8679 0.98056 0.64377 0.0
H237 H 0.93018 0.06964 0.65618 0.0
H238 H 0.87186 0.07088 0.85715 0.0
H239 H 0.81167 0.98233 0.84657 0.0
C240 C 0.34849 1.00458 0.98338 0.0
C241 C 0.29898 0.98368 0.95986 0.0
C242 C 0.28719 0.03488 0.04856 0.0
C243 C 0.33873 0.05962 0.06599 0.0
N244 N 0.42021 0.07617 0.03383 0.0
N245 N 0.22435 0.98972 0.96166 0.0
C246 C 0.36988 0.04792 0.02624 0.0
C247 C 0.26914 1.00205 0.98972 0.0
N248 N 0.37394 0.98045 0.96981 0.0
N249 N 0.25477 0.04052 0.0897 0.0
H250 H 0.21037 0.96818 0.91741 0.0
H251 H 0.20307 1.00493 0.97877 0.0
H252 H 0.26641 0.06517 0.1311 0.0
H253 H 0.21626 1.01858 0.08488 0.0
H254 H 0.4089 0.99177 0.9903 0.0
H255 H 0.35713 0.94567 0.94528 0.0
H256 H 0.44502 0.07101 1.00354 0.0
H257 H 0.43653 0.10755 0.066 0.0
C258 C 0.76509 0.72747 0.58517 0.0
C259 C 0.73142 0.74652 0.58677 0.0
C260 C 0.7246 0.73113 0.46204 0.0
C261 C 0.76655 0.72321 0.45962 0.0
N262 N 0.83652 0.73392 0.52696 0.0
N263 N 0.68747 0.77517 0.51777 0.0
C264 C 0.79054 0.7289 0.52333 0.0
C265 C 0.71533 0.75283 0.52202 0.0
N266 N 0.7714 0.70459 0.6402 0.0
N267 N 0.68956 0.71284 0.41188 0.0
H268 H 0.67903 0.78984 0.56081 0.0
H269 H 0.67735 0.78309 0.47079 0.0
H270 H 0.68759 0.68765 0.37533 0.0
H271 H 0.65763 0.71565 0.41401 0.0
H272 H 0.79334 0.68807 0.63756 0.0
H273 H 0.75077 0.69586 0.68498 0.0
H274 H 0.8552 0.74057 0.57355 0.0
H275 H 0.85849 0.73829 0.48427 0.0
C276 C 1.03818 0.27528 0.06387 0.0
C277 C 1.00583 0.2946 0.07394 0.0
C278 C 1.03997 0.34343 0.96696 0.0
C279 C 0.07432 0.32597 0.95887 0.0
N280 N 0.11401 0.28576 1.01201 0.0
N281 N 0.97399 0.34528 0.03378 0.0
C282 C 0.07539 0.29476 1.01101 0.0
C283 C 1.00619 0.32798 0.0245 0.0
N284 N 1.033 0.23758 0.10459 0.0
N285 N 1.03862 0.37363 0.91844 0.0
H286 H 0.94686 0.3315 0.07226 0.0
H287 H 0.97363 0.37285 1.00468 0.0
H288 H 0.06437 0.38704 0.87931 0.0
H289 H 1.01262 0.38506 0.91583 0.0
H290 H 0.052 0.21842 0.09643 0.0
H291 H 1.00523 0.22142 0.14153 0.0
H292 H 0.12007 0.26739 0.05168 0.0
H293 H 0.14351 0.30205 0.97718 0.0
C294 C 0.33514 1.00717 0.45223 0.0
C295 C 0.35608 0.06059 0.45701 0.0
C296 C 0.3621 0.04912 0.58132 0.0
C297 C 0.32825 0.99643 0.57666 0.0
N298 N 0.2777 0.92713 0.50214 0.0
N299 N 0.39014 0.13137 0.53455 0.0
C300 C 0.31256 0.97634 0.51054 0.0
C301 C 0.36878 0.08113 0.52441 0.0
N302 N 0.34121 0.98505 0.39544 0.0
N303 N 0.39099 0.06875 0.63798 0.0
H304 H 0.3994 0.15664 0.4948 0.0
H305 H 0.39662 0.14772 0.58318 0.0
H306 H 0.3896 0.04665 0.67806 0.0
H307 H 0.41958 0.10581 0.64167 0.0
H308 H 0.33103 0.94748 0.39383 0.0
H309 H 0.3601 1.00436 0.35263 0.0
H310 H 0.26268 0.91193 0.45419 0.0
H311 H 0.26114 0.90308 0.5434 0.0
C312 C 0.8071 0.78672 0.96049 0.0
C313 C 0.75793 0.77847 0.94747 0.0
C314 C 0.73065 0.72874 0.05539 0.0
C315 C 0.7793 0.73616 0.06654 0.0
N316 N 0.85944 0.76151 1.01927 0.0
N317 N 0.67178 0.73646 0.98347 0.0
C318 C 0.81575 0.76166 1.01551 0.0
C319 C 0.71939 0.74717 0.99453 0.0
N320 N 0.84711 0.82006 0.92268 0.0
N321 N 0.69557 0.70717 0.10557 0.0
H322 H 0.66256 0.75594 0.94948 0.0
H323 H 0.6409 0.70714 1.00719 0.0
H324 H 0.70063 0.69063 0.14794 0.0
H325 H 0.66236 0.7075 0.10712 0.0
H326 H 0.88371 0.83446 0.9387 0.0
H327 H 0.84538 0.83496 0.87642 0.0
H328 H 0.88592 0.7742 0.98012 0.0
H329 H 0.86664 0.74353 0.05854 0.0
C330 C 1.03744 0.35267 0.47122 0.0
C331 C 1.00243 0.30035 0.46262 0.0
C332 C 0.04385 0.2867 0.56223 0.0
C333 C 0.0772 0.33898 0.57087 0.0
N334 N 0.11872 0.41659 0.51164 0.0
N335 N 0.97496 0.21701 0.50474 0.0
C336 C 0.07811 0.36991 0.51782 0.0
C337 C 1.00644 0.26735 0.50941 0.0
N338 N 1.02969 0.38719 0.44016 0.0
N339 N 0.04969 0.25368 0.59944 0.0
H340 H 0.94697 0.19987 0.46847 0.0
H341 H 0.97631 0.19213 0.53891 0.0
H342 H 0.0804 0.26463 0.63067 0.0
H343 H 0.0804 0.26463 0.63067 0.0
H344 H 0.05211 0.42548 0.44844 0.0
H345 H 0.99672 0.37791 0.41575 0.0
H346 H 0.12436 0.4394 0.46975 0.0
H347 H 0.1494 0.42956 0.54407 0.0
C348 C 0.52711 0.09291 0.21019 0.0
C349 C 0.5034 0.10714 0.26058 0.0
C350 C 0.58588 0.16751 0.3085 0.0
C351 C 0.60918 0.14982 0.26263 0.0
N352 N 0.6011 0.09092 0.17475 0.0
N353 N 0.5103 0.15245 0.36526 0.0
C354 C 0.57949 0.11112 0.21481 0.0
C355 C 0.53295 0.14256 0.31216 0.0
N356 N 0.49991 0.06356 0.15632 0.0
N357 N 0.61433 0.21003 0.34608 0.0
H358 H 0.47191 0.13471 0.37037 0.0
H359 H 0.52929 0.17414 0.40781 0.0
H360 H 0.6531 0.23011 0.34368 0.0
H361 H 0.5996 0.2283 0.37414 0.0
H362 H 0.51574 0.05706 0.11308 0.0
H363 H 0.46143 0.04799 0.15331 0.0
H364 H 0.58098 0.05965 0.14355 0.0
H365 H 0.63897 0.103 0.17667 0.0
C366 C 0.61442 0.54188 0.20706 0.0
C367 C 0.64963 0.56858 0.25952 0.0
C368 C 0.62651 0.48786 0.31375 0.0
C369 C 0.58838 0.46134 0.2646 0.0
N370 N 0.54025 0.46525 0.17129 0.0
N371 N 0.6807 0.56655 0.37123 0.0
C372 C 0.58066 0.48906 0.21324 0.0
C373 C 0.65256 0.54123 0.31564 0.0
N374 N 0.61436 0.56666 0.14989 0.0
N375 N 0.6402 0.46226 0.35624 0.0
H376 H 0.69876 0.60525 0.37509 0.0
H377 H 0.68142 0.54921 0.41621 0.0
H378 H 0.62356 0.42352 0.35488 0.0
H379 H 0.67144 0.47962 0.38764 0.0
H380 H 0.59439 0.54875 0.10578 0.0
H381 H 0.63666 0.60525 0.14563 0.0
H382 H 0.52993 0.48393 0.13726 0.0
H383 H 0.51439 0.42725 0.17484 0.0
C384 C 0.92395 0.41021 0.31862 0.0
C385 C 0.9575 0.41301 0.26599 0.0
C386 C 0.95046 0.48135 0.2129 0.0
C387 C 0.91629 0.47774 0.26484 0.0
N388 N 0.86273 0.43148 0.35865 0.0
N389 N 0.99325 0.44373 0.15489 0.0
C390 C 0.90135 0.44046 0.31576 0.0
C391 C 0.96821 0.44668 0.21096 0.0
N392 N 0.91237 0.37726 0.37096 0.0
N393 N 0.96679 0.51866 0.16586 0.0
H394 H 1.00833 0.42046 0.15289 0.0
H395 H 0.99629 0.46172 0.10889 0.0
H396 H 0.95433 0.54409 0.165 0.0
H397 H 0.99518 0.5267 0.13078 0.0
H398 H 0.89473 0.37818 0.41605 0.0
H399 H 0.92242 0.35008 0.37097 0.0
H400 H 0.84548 0.40117 0.39147 0.0
H401 H 0.8446 0.4519 0.35737 0.0
C402 C 0.23998 0.71793 0.71751 0.0
C403 C 0.20525 0.69224 0.77115 0.0
C404 C 0.22604 0.77349 0.82263 0.0
C405 C 0.25682 0.7991 0.76555 0.0
N406 N 0.28843 0.79507 0.65415 0.0
N407 N 0.15802 0.69604 0.86715 0.0
C408 C 0.26237 0.77103 0.71165 0.0
C409 C 0.19638 0.72025 0.82164 0.0
N410 N 0.25295 0.69186 0.67345 0.0
N411 N 0.22569 0.80006 0.87867 0.0
H412 H 0.1348 0.65736 0.86714 0.0
H413 H 0.14606 0.71441 0.90027 0.0
H414 H 0.24793 0.8387 0.88191 0.0
H415 H 0.20771 0.78363 0.92445 0.0
H416 H 0.28179 0.70877 0.63792 0.0
H417 H 0.23748 0.6533 0.67604 0.0
H418 H 0.28906 0.77656 0.60962 0.0
H419 H 0.30714 0.83381 0.64962 0.0
C420 C 0.52229 0.83122 0.72312 0.0
C421 C 0.53227 0.86832 0.77432 0.0
C422 C 0.59048 0.84737 0.82874 0.0
C423 C 0.58635 0.81602 0.77236 0.0
N424 N 0.55013 0.78035 0.66298 0.0
N425 N 0.58271 0.91696 0.87006 0.0
C426 C 0.5523 0.80813 0.719 0.0
C427 C 0.56797 0.8775 0.82586 0.0
N428 N 0.48344 0.81728 0.67927 0.0
N429 N 0.61574 0.84791 0.88594 0.0
H430 H 0.56853 0.94096 0.86874 0.0
H431 H 0.61253 0.92894 0.90356 0.0
H432 H 0.63177 0.82562 0.89035 0.0
H433 H 0.61616 0.86611 0.93136 0.0
H434 H 0.47097 0.78725 0.64527 0.0
H435 H 0.46097 0.83322 0.68093 0.0
H436 H 0.53062 0.77778 0.61862 0.0
H437 H 0.57037 0.76204 0.65953 0.0
C438 C 0.30493 0.4631 0.81927 0.0
C439 C 0.27807 0.47063 0.76662 0.0
C440 C 0.35729 0.54382 0.72894 0.0
C441 C 0.38427 0.53156 0.77572 0.0
N442 N 0.38318 0.47172 0.85421 0.0
N443 N 0.28057 0.5155 0.6653 0.0
C444 C 0.35785 0.48891 0.81753 0.0
C445 C 0.30474 0.51052 0.7199 0.0
N446 N 0.27995 0.43287 0.8733 0.0
N447 N 0.38153 0.58787 0.69445 0.0
H448 H 0.24264 0.49184 0.65678 0.0
H449 H 0.2988 0.54046 0.62562 0.0
H450 H 0.41961 0.61279 0.69966 0.0
H451 H 0.3633 0.60153 0.66525 0.0
H452 H 0.29792 0.42974 0.91611 0.0
H453 H 0.24149 0.41579 0.87943 0.0
H454 H 0.36553 0.43777 0.87982 0.0
H455 H 0.42185 0.48855 0.85311 0.0
C456 C 0.25264 0.17318 0.2103 0.0
C457 C 0.24927 0.14006 0.26232 0.0
C458 C 0.20937 0.17438 0.33693 0.0
C459 C 0.20678 0.20279 0.2816 0.0
N460 N 0.26192 0.25353 0.19123 0.0
N461 N 0.21732 0.10433 0.37303 0.0
C462 C 0.23786 0.20884 0.22416 0.0
C463 C 0.22449 0.13848 0.32435 0.0
N464 N 0.27189 0.17193 0.14766 0.0
N465 N 0.20931 0.18953 0.40283 0.0
H466 H 0.22855 0.07818 0.36609 0.0
H467 H 0.19584 0.09903 0.41687 0.0
H468 H 0.21412 0.22463 0.41387 0.0
H469 H 0.21461 0.17269 0.44522 0.0
H470 H 0.27132 0.19243 0.10611 0.0
H471 H 0.28396 0.14695 0.13591 0.0
H472 H 0.28849 0.2617 0.153 0.0
H473 H 0.26148 0.28487 0.2101 0.0
C474 C 0.96306 0.86499 0.25638 0.0
C475 C 0.93839 0.81506 0.28042 0.0
C476 C 1.01946 0.82074 0.29593 0.0
C477 C 0.04423 0.87144 0.27651 0.0
N478 N 0.04058 0.94455 0.24748 0.0
N479 N 0.94443 0.75047 0.33961 0.0
C480 C 1.01628 0.89446 0.25956 0.0
C481 C 0.9671 0.79457 0.3051 0.0
N482 N 0.93597 0.88349 0.22769 0.0
N483 N 0.04582 0.79684 0.30362 0.0
H484 H 0.90644 0.73056 0.34916 0.0
H485 H 0.96381 0.73638 0.36519 0.0
H486 H 0.08432 0.81448 0.29742 0.0
H487 H 1.02908 0.7584 0.30966 0.0
H488 H 0.95186 0.91741 0.20224 0.0
H489 H 0.89724 0.86338 0.22565 0.0
H490 H 1.0225 0.96472 0.24185 0.0
H491 H 0.07929 0.96666 0.24778 0.0
C492 C 0.94278 0.10218 0.30701 0.0
C493 C 0.93235 0.12787 0.25609 0.0
C494 C 0.86593 0.04742 0.21013 0.0
C495 C 0.87647 1.02136 0.26017 0.0
N496 N 0.93312 1.02338 0.34505 0.0
N497 N 0.89554 0.12363 0.14629 0.0
C498 C 0.91766 0.04864 0.30503 0.0
C499 C 0.89793 0.09981 0.20324 0.0
N500 N 0.97451 0.1285 0.3592 0.0
N501 N 0.82346 1.02289 0.17196 0.0
H502 H 0.91868 0.16192 0.13939 0.0
H503 H 0.87455 0.10481 0.10323 0.0
H504 H 0.79797 0.98487 0.17646 0.0
H505 H 0.81102 0.04118 0.14056 0.0
H506 H 0.97919 0.11184 0.40225 0.0
H507 H 0.99438 0.16737 0.36105 0.0
H508 H 0.9656 0.04091 0.37396 0.0
H509 H 0.91575 0.98454 0.34439 0.0
C510 C 0.24116 0.10526 0.84617 0.0
C511 C 0.21911 0.10927 0.78474 0.0
C512 C 0.27464 0.09191 0.71852 0.0
C513 C 0.29835 0.08876 0.77803 0.0
N514 N 0.31008 0.10209 0.89889 0.0
N515 N 0.19235 0.06444 0.6778 0.0
C516 C 0.284 0.09967 0.84198 0.0
C517 C 0.22907 0.09046 0.72452 0.0
N518 N 0.21559 0.09633 0.90634 0.0
N519 N 0.2933 0.09116 0.65591 0.0
H520 H 0.15607 0.05702 0.6864 0.0
H521 H 0.19707 0.04622 0.63562 0.0
H522 H 0.32824 0.09511 0.65265 0.0
H523 H 0.27719 0.09331 0.61034 0.0
H524 H 0.22799 0.09036 0.95267 0.0
H525 H 0.17858 0.08781 0.90708 0.0
H526 H 0.30426 0.11365 0.94669 0.0
H527 H 0.34043 0.09656 0.89569 0.0
C528 C 0.91117 0.78198 0.80772 0.0
C529 C 0.94431 0.82991 0.77977 0.0
C530 C 0.87636 0.82556 0.71665 0.0
C531 C 0.84017 0.7833 0.75492 0.0
N532 N 0.8261 0.71977 0.83715 0.0
N533 N 0.95419 0.90201 0.72034 0.0
C534 C 0.85835 0.76084 0.8007 0.0
C535 C 0.92499 0.85357 0.74031 0.0
N536 N 0.92991 0.75553 0.83763 0.0
N537 N 0.8666 0.83981 0.65577 0.0
H538 H 0.9904 0.92476 0.73833 0.0
H539 H 0.94047 0.9199 0.6902 0.0
H540 H 0.83374 0.81933 0.62829 0.0
H541 H 0.83374 0.81933 0.62829 0.0
H542 H 0.90789 0.71844 0.85217 0.0
H543 H 0.96792 0.76949 0.84337 0.0
H544 H 0.83722 0.70665 0.87823 0.0
H545 H 0.78826 0.69901 0.82668 0.0
C546 C 0.9766 0.20585 0.83113 0.0
C547 C 0.97669 0.2368 0.77896 0.0
C548 C 0.92093 0.16125 0.71334 0.0
C549 C 0.93223 0.13265 0.75883 0.0
N550 N 0.9817 0.13266 0.85351 0.0
N551 N 0.94603 0.2442 0.67071 0.0
C552 C 0.96369 0.15653 0.81537 0.0
C553 C 0.94735 0.21437 0.72024 0.0
N554 N 0.98773 0.22361 0.8962 0.0
N555 N 0.88437 0.13805 0.66541 0.0
H556 H 0.96373 0.28287 0.67735 0.0
H557 H 0.92907 0.231 0.62329 0.0
H558 H 0.86323 0.09943 0.65981 0.0
H559 H 0.87209 0.15693 0.63502 0.0
H560 H 0.98683 0.20204 0.93737 0.0
H561 H 0.98947 0.25707 0.9083 0.0
H562 H 1.00783 0.15081 0.8923 0.0
H563 H 0.9745 0.09681 0.84131 0.0
loop_
_geom_bond_atom_site_label_1
_geom_bond_atom_site_label_2
_geom_bond_distance
_geom_bond_site_symmetry_2
_ccdc_geom_bond_type
Tb0 C2 2.809 1_545 S
Tb0 O20 2.484 1_545 S
Tb0 O21 2.440 1_545 S
Tb0 O22 2.658 . S
Tb0 O23 2.409 . S
Tb0 O24 2.378 . S
Tb0 O28 2.325 . S
Tb0 O31 2.341 . S
Tb1 C11 2.809 . S
Tb1 O22 2.325 . S
Tb1 O25 2.341 . S
Tb1 O26 2.484 . S
Tb1 O27 2.440 . S
Tb1 O28 2.658 . S
Tb1 O29 2.409 . S
Tb1 O30 2.378 . S
C2 Tb0 2.809 1_565 S
C2 C3 1.514 . S
C2 O20 1.248 . S
C2 O21 1.266 . S
C3 C2 1.514 . S
C3 C4 1.359 . S
C3 C8 1.348 . S
C4 C3 1.359 . S
C4 C5 1.380 . S
C4 H32 0.929 . S
C5 C4 1.380 . S
C5 C6 1.347 . S
C5 H33 0.931 . S
C6 C5 1.347 . S
C6 C7 1.369 . S
C7 C6 1.369 . S
C7 C8 1.408 . S
C7 H34 0.930 . S
C8 C3 1.348 . S
C8 C7 1.408 . S
C8 H35 0.930 . S
C9 O22 1.281 . S
C9 O23 1.254 . S
C10 O24 1.236 . S
C10 O25 1.266 . S
C11 Tb1 2.809 . S
C11 C12 1.514 . S
C11 O26 1.248 . S
C11 O27 1.266 . S
C12 C11 1.514 . S
C12 C13 1.359 . S
C12 C17 1.348 . S
C13 C12 1.359 . S
C13 C14 1.380 . S
C13 H36 0.929 . S
C14 C13 1.380 . S
C14 C15 1.347 . S
C14 H37 0.931 . S
C15 C14 1.347 . S
C15 C16 1.369 . S
C16 C15 1.369 . S
C16 C17 1.408 . S
C16 H38 0.930 . S
C17 C12 1.348 . S
C17 C16 1.408 . S
C17 H39 0.930 . S
C18 O28 1.281 . S
C18 O29 1.254 . S
C19 O30 1.236 . S
C19 O31 1.266 . S
O20 Tb0 2.484 1_565 S
O20 C2 1.248 . S
O21 Tb0 2.440 1_565 S
O21 C2 1.266 . S
O22 Tb0 2.658 . S
O22 Tb1 2.325 . S
O22 C9 1.281 . S
O23 Tb0 2.409 . S
O23 C9 1.254 . S
O24 Tb0 2.378 . S
O24 C10 1.236 . S
O25 Tb1 2.341 . S
O25 C10 1.266 . S
O26 Tb1 2.484 . S
O26 C11 1.248 . S
O27 Tb1 2.440 . S
O27 C11 1.266 . S
O28 Tb0 2.325 . S
O28 Tb1 2.658 . S
O28 C18 1.281 . S
O29 Tb1 2.409 . S
O29 C18 1.254 . S
O30 Tb1 2.378 . S
O30 C19 1.236 . S
O31 Tb0 2.341 . S
O31 C19 1.266 . S
H32 C4 0.929 . S
H33 C5 0.931 . S
H34 C7 0.930 . S
H35 C8 0.930 . S
H36 C13 0.929 . S
H37 C14 0.931 . S
H38 C16 0.930 . S
H39 C17 0.930 . S
Tb40 C42 2.809 . S
Tb40 O60 2.484 . S
Tb40 O61 2.440 . S
Tb40 O62 2.658 . S
Tb40 O63 2.409 . S
Tb40 O64 2.378 . S
Tb40 O68 2.325 . S
Tb40 O71 2.341 . S
Tb41 C51 2.809 . S
Tb41 O62 2.325 . S
Tb41 O65 2.341 . S
Tb41 O66 2.484 . S
Tb41 O67 2.440 . S
Tb41 O68 2.658 . S
Tb41 O69 2.409 . S
Tb41 O70 2.378 . S
C42 Tb40 2.809 . S
C42 C43 1.514 . S
C42 O60 1.248 . S
C42 O61 1.266 . S
C43 C42 1.514 . S
C43 C44 1.359 . S
C43 C48 1.348 . S
C44 C43 1.359 . S
C44 C45 1.380 . S
C44 H72 0.929 . S
C45 C44 1.380 . S
C45 C46 1.347 . S
C45 H73 0.931 . S
C46 C45 1.347 . S
C46 C47 1.369 . S
C47 C46 1.369 . S
C47 C48 1.408 . S
C47 H74 0.930 . S
C48 C43 1.348 . S
C48 C47 1.408 . S
C48 H75 0.930 . S
C49 O62 1.281 . S
C49 O63 1.254 . S
C50 O64 1.236 . S
C50 O65 1.266 . S
C51 Tb41 2.809 . S
C51 C52 1.514 . S
C51 O66 1.248 . S
C51 O67 1.266 . S
C52 C51 1.514 . S
C52 C53 1.359 . S
C52 C57 1.348 . S
C53 C52 1.359 . S
C53 C54 1.380 . S
C53 H76 0.929 . S
C54 C53 1.380 . S
C54 C55 1.347 . S
C54 H77 0.931 . S
C55 C54 1.347 . S
C55 C56 1.369 . S
C56 C55 1.369 . S
C56 C57 1.408 . S
C56 H78 0.930 . S
C57 C52 1.348 . S
C57 C56 1.408 . S
C57 H79 0.930 . S
C58 O68 1.281 . S
C58 O69 1.254 . S
C59 O70 1.236 . S
C59 O71 1.266 . S
O60 Tb40 2.484 . S
O60 C42 1.248 . S
O61 Tb40 2.440 . S
O61 C42 1.266 . S
O62 Tb40 2.658 . S
O62 Tb41 2.325 . S
O62 C49 1.281 . S
O63 Tb40 2.409 . S
O63 C49 1.254 . S
O64 Tb40 2.378 . S
O64 C50 1.236 . S
O65 Tb41 2.341 . S
O65 C50 1.266 . S
O66 Tb41 2.484 . S
O66 C51 1.248 . S
O67 Tb41 2.440 . S
O67 C51 1.266 . S
O68 Tb40 2.325 . S
O68 Tb41 2.658 . S
O68 C58 1.281 . S
O69 Tb41 2.409 . S
O69 C58 1.254 . S
O70 Tb41 2.378 . S
O70 C59 1.236 . S
O71 Tb40 2.341 . S
O71 C59 1.266 . S
H72 C44 0.929 . S
H73 C45 0.931 . S
H74 C47 0.930 . S
H75 C48 0.930 . S
H76 C53 0.929 . S
H77 C54 0.931 . S
H78 C56 0.930 . S
H79 C57 0.930 . S
Tb80 C82 2.809 1_655 S
Tb80 O100 2.484 1_655 S
Tb80 O101 2.440 1_655 S
Tb80 O102 2.658 . S
Tb80 O103 2.409 . S
Tb80 O104 2.378 . S
Tb80 O108 2.325 . S
Tb80 O111 2.341 . S
Tb81 C91 2.809 . S
Tb81 O102 2.325 . S
Tb81 O105 2.341 . S
Tb81 O106 2.484 . S
Tb81 O107 2.440 . S
Tb81 O108 2.658 . S
Tb81 O109 2.409 . S
Tb81 O110 2.378 . S
C82 Tb80 2.809 1_455 S
C82 C83 1.514 . S
C82 O100 1.248 . S
C82 O101 1.266 . S
C83 C82 1.514 . S
C83 C84 1.359 . S
C83 C88 1.348 . S
C84 C83 1.359 . S
C84 C85 1.380 . S
C84 H112 0.929 . S
C85 C84 1.380 . S
C85 C86 1.347 . S
C85 H113 0.931 . S
C86 C85 1.347 . S
C86 C87 1.369 . S
C87 C86 1.369 . S
C87 C88 1.408 . S
C87 H114 0.930 . S
C88 C83 1.348 . S
C88 C87 1.408 . S
C88 H115 0.930 . S
C89 O102 1.281 . S
C89 O103 1.254 . S
C90 O104 1.236 . S
C90 O105 1.266 . S
C91 Tb81 2.809 . S
C91 C92 1.514 . S
C91 O106 1.248 . S
C91 O107 1.266 . S
C92 C91 1.514 . S
C92 C93 1.359 . S
C92 C97 1.348 . S
C93 C92 1.359 . S
C93 C94 1.380 . S
C93 H116 0.929 . S
C94 C93 1.380 . S
C94 C95 1.347 . S
C94 H117 0.931 . S
C95 C94 1.347 . S
C95 C96 1.369 . S
C96 C95 1.369 . S
C96 C97 1.408 . S
C96 H118 0.930 . S
C97 C92 1.348 . S
C97 C96 1.408 . S
C97 H119 0.930 . S
C98 O108 1.281 . S
C98 O109 1.254 . S
C99 O110 1.236 . S
C99 O111 1.266 . S
O100 Tb80 2.484 1_455 S
O100 C82 1.248 . S
O101 Tb80 2.440 1_455 S
O101 C82 1.266 . S
O102 Tb80 2.658 . S
O102 Tb81 2.325 . S
O102 C89 1.281 . S
O103 Tb80 2.409 . S
O103 C89 1.254 . S
O104 Tb80 2.378 . S
O104 C90 1.236 . S
O105 Tb81 2.341 . S
O105 C90 1.266 . S
O106 Tb81 2.484 . S
O106 C91 1.248 . S
O107 Tb81 2.440 . S
O107 C91 1.266 . S
O108 Tb80 2.325 . S
O108 Tb81 2.658 . S
O108 C98 1.281 . S
O109 Tb81 2.409 . S
O109 C98 1.254 . S
O110 Tb81 2.378 . S
O110 C99 1.236 . S
O111 Tb80 2.341 . S
O111 C99 1.266 . S
H112 C84 0.929 . S
H113 C85 0.931 . S
H114 C87 0.930 . S
H115 C88 0.930 . S
H116 C93 0.929 . S
H117 C94 0.931 . S
H118 C96 0.930 . S
H119 C97 0.930 . S
Tb120 C122 2.809 . S
Tb120 O140 2.484 . S
Tb120 O141 2.440 . S
Tb120 O142 2.658 . S
Tb120 O143 2.409 . S
Tb120 O144 2.378 . S
Tb120 O148 2.325 . S
Tb120 O151 2.341 . S
Tb121 C131 2.809 . S
Tb121 O142 2.325 . S
Tb121 O145 2.341 . S
Tb121 O146 2.484 . S
Tb121 O147 2.440 . S
Tb121 O148 2.658 . S
Tb121 O149 2.409 . S
Tb121 O150 2.378 . S
C122 Tb120 2.809 . S
C122 C123 1.514 . S
C122 O140 1.248 . S
C122 O141 1.266 . S
C123 C122 1.514 . S
C123 C124 1.359 . S
C123 C128 1.348 . S
C124 C123 1.359 . S
C124 C125 1.380 . S
C124 H152 0.929 . S
C125 C124 1.380 . S
C125 C126 1.347 . S
C125 H153 0.931 . S
C126 C125 1.347 . S
C126 C127 1.369 . S
C127 C126 1.369 . S
C127 C128 1.408 . S
C127 H154 0.930 . S
C128 C123 1.348 . S
C128 C127 1.408 . S
C128 H155 0.930 . S
C129 O142 1.281 . S
C129 O143 1.254 . S
C130 O144 1.236 . S
C130 O145 1.266 . S
C131 Tb121 2.809 . S
C131 C132 1.514 . S
C131 O146 1.248 . S
C131 O147 1.266 . S
C132 C131 1.514 . S
C132 C133 1.359 . S
C132 C137 1.348 . S
C133 C132 1.359 . S
C133 C134 1.380 . S
C133 H156 0.929 . S
C134 C133 1.380 . S
C134 C135 1.347 . S
C134 H157 0.931 . S
C135 C134 1.347 . S
C135 C136 1.369 . S
C136 C135 1.369 . S
C136 C137 1.408 . S
C136 H158 0.930 . S
C137 C132 1.348 . S
C137 C136 1.408 . S
C137 H159 0.930 . S
C138 O148 1.281 . S
C138 O149 1.254 . S
C139 O150 1.236 . S
C139 O151 1.266 . S
O140 Tb120 2.484 . S
O140 C122 1.248 . S
O141 Tb120 2.440 . S
O141 C122 1.266 . S
O142 Tb120 2.658 . S
O142 Tb121 2.325 . S
O142 C129 1.281 . S
O143 Tb120 2.409 . S
O143 C129 1.254 . S
O144 Tb120 2.378 . S
O144 C130 1.236 . S
O145 Tb121 2.341 . S
O145 C130 1.266 . S
O146 Tb121 2.484 . S
O146 C131 1.248 . S
O147 Tb121 2.440 . S
O147 C131 1.266 . S
O148 Tb120 2.325 . S
O148 Tb121 2.658 . S
O148 C138 1.281 . S
O149 Tb121 2.409 . S
O149 C138 1.254 . S
O150 Tb121 2.378 . S
O150 C139 1.236 . S
O151 Tb120 2.341 . S
O151 C139 1.266 . S
H152 C124 0.929 . S
H153 C125 0.931 . S
H154 C127 0.930 . S
H155 C128 0.930 . S
H156 C133 0.929 . S
H157 C134 0.931 . S
H158 C136 0.930 . S
H159 C137 0.930 . S
Tb160 C162 2.809 . S
Tb160 O180 2.484 . S
Tb160 O181 2.440 . S
Tb160 O182 2.658 . S
Tb160 O183 2.409 . S
Tb160 O184 2.378 . S
Tb160 O188 2.325 . S
Tb160 O191 2.341 . S
Tb161 C171 2.809 . S
Tb161 O182 2.325 . S
Tb161 O185 2.341 . S
Tb161 O186 2.484 . S
Tb161 O187 2.440 . S
Tb161 O188 2.658 . S
Tb161 O189 2.409 . S
Tb161 O190 2.378 . S
C162 Tb160 2.809 . S
C162 C163 1.514 . S
C162 O180 1.248 . S
C162 O181 1.266 . S
C163 C162 1.514 . S
C163 C164 1.359 . S
C163 C168 1.348 . S
C164 C163 1.359 . S
C164 C165 1.380 . S
C164 H192 0.929 . S
C165 C164 1.380 . S
C165 C166 1.347 . S
C165 H193 0.931 . S
C166 C165 1.347 . S
C166 C167 1.369 . S
C167 C166 1.369 . S
C167 C168 1.408 . S
C167 H194 0.930 . S
C168 C163 1.348 . S
C168 C167 1.408 . S
C168 H195 0.930 . S
C169 O182 1.281 . S
C169 O183 1.254 . S
C170 O184 1.236 . S
C170 O185 1.266 . S
C171 Tb161 2.809 . S
C171 C172 1.514 . S
C171 O186 1.248 . S
C171 O187 1.266 . S
C172 C171 1.514 . S
C172 C173 1.359 . S
C172 C177 1.348 . S
C173 C172 1.359 . S
C173 C174 1.380 1_455 S
C173 H196 0.929 . S
C174 C173 1.380 1_655 S
C174 C175 1.347 . S
C174 H197 0.931 . S
C175 C174 1.347 . S
C175 C176 1.369 . S
C176 C175 1.369 . S
C176 C177 1.408 1_655 S
C176 H198 0.930 . S
C177 C172 1.348 . S
C177 C176 1.408 1_455 S
C177 H199 0.930 . S
C178 O188 1.281 . S
C178 O189 1.254 . S
C179 O190 1.236 . S
C179 O191 1.266 . S
O180 Tb160 2.484 . S
O180 C162 1.248 . S
O181 Tb160 2.440 . S
O181 C162 1.266 . S
O182 Tb160 2.658 . S
O182 Tb161 2.325 . S
O182 C169 1.281 . S
O183 Tb160 2.409 . S
O183 C169 1.254 . S
O184 Tb160 2.378 . S
O184 C170 1.236 . S
O185 Tb161 2.341 . S
O185 C170 1.266 . S
O186 Tb161 2.484 . S
O186 C171 1.248 . S
O187 Tb161 2.440 . S
O187 C171 1.266 . S
O188 Tb160 2.325 . S
O188 Tb161 2.658 . S
O188 C178 1.281 . S
O189 Tb161 2.409 . S
O189 C178 1.254 . S
O190 Tb161 2.378 . S
O190 C179 1.236 . S
O191 Tb160 2.341 . S
O191 C179 1.266 . S
H192 C164 0.929 . S
H193 C165 0.931 . S
H194 C167 0.930 . S
H195 C168 0.930 . S
H196 C173 0.929 . S
H197 C174 0.931 . S
H198 C176 0.930 . S
H199 C177 0.930 . S
Tb200 C202 2.809 . S
Tb200 O220 2.484 . S
Tb200 O221 2.440 . S
Tb200 O222 2.658 . S
Tb200 O223 2.409 . S
Tb200 O224 2.378 . S
Tb200 O228 2.325 . S
Tb200 O231 2.341 . S
Tb201 C211 2.809 . S
Tb201 O222 2.325 . S
Tb201 O225 2.341 . S
Tb201 O226 2.484 . S
Tb201 O227 2.440 . S
Tb201 O228 2.658 . S
Tb201 O229 2.409 . S
Tb201 O230 2.378 . S
C202 Tb200 2.809 . S
C202 C203 1.514 . S
C202 O220 1.248 . S
C202 O221 1.266 . S
C203 C202 1.514 . S
C203 C204 1.359 . S
C203 C208 1.348 . S
C204 C203 1.359 . S
C204 C205 1.380 . S
C204 H232 0.929 . S
C205 C204 1.380 . S
C205 C206 1.347 . S
C205 H233 0.931 . S
C206 C205 1.347 . S
C206 C207 1.369 . S
C207 C206 1.369 . S
C207 C208 1.408 . S
C207 H234 0.930 . S
C208 C203 1.348 . S
C208 C207 1.408 . S
C208 H235 0.930 . S
C209 O222 1.281 . S
C209 O223 1.254 . S
C210 O224 1.236 . S
C210 O225 1.266 . S
C211 Tb201 2.809 . S
C211 C212 1.514 . S
C211 O226 1.248 . S
C211 O227 1.266 . S
C212 C211 1.514 . S
C212 C213 1.359 . S
C212 C217 1.348 . S
C213 C212 1.359 . S
C213 C214 1.380 1_565 S
C213 H236 0.929 . S
C214 C213 1.380 1_545 S
C214 C215 1.347 . S
C214 H237 0.931 . S
C215 C214 1.347 . S
C215 C216 1.369 . S
C216 C215 1.369 . S
C216 C217 1.408 1_545 S
C216 H238 0.930 . S
C217 C212 1.348 . S
C217 C216 1.408 1_565 S
C217 H239 0.930 . S
C218 O228 1.281 . S
C218 O229 1.254 . S
C219 O230 1.236 . S
C219 O231 1.266 . S
O220 Tb200 2.484 . S
O220 C202 1.248 . S
O221 Tb200 2.440 . S
O221 C202 1.266 . S
O222 Tb200 2.658 . S
O222 Tb201 2.325 . S
O222 C209 1.281 . S
O223 Tb200 2.409 . S
O223 C209 1.254 . S
O224 Tb200 2.378 . S
O224 C210 1.236 . S
O225 Tb201 2.341 . S
O225 C210 1.266 . S
O226 Tb201 2.484 . S
O226 C211 1.248 . S
O227 Tb201 2.440 . S
O227 C211 1.266 . S
O228 Tb200 2.325 . S
O228 Tb201 2.658 . S
O228 C218 1.281 . S
O229 Tb201 2.409 . S
O229 C218 1.254 . S
O230 Tb201 2.378 . S
O230 C219 1.236 . S
O231 Tb200 2.341 . S
O231 C219 1.266 . S
H232 C204 0.929 . S
H233 C205 0.931 . S
H234 C207 0.930 . S
H235 C208 0.930 . S
H236 C213 0.929 . S
H237 C214 0.931 . S
H238 C216 0.930 . S
H239 C217 0.930 . S
C240 C241 1.363 . S
C240 C246 1.379 1_566 S
C240 N248 1.356 . S
C241 C240 1.363 . S
C241 C247 1.363 . S
C242 C243 1.363 . S
C242 C247 1.379 1_544 S
C242 N249 1.356 . S
C243 C242 1.363 . S
C243 C246 1.363 . S
N244 C246 1.356 . S
N244 H256 0.984 . S
N244 H257 0.985 . S
N245 C247 1.356 . S
N245 H250 0.984 . S
N245 H251 0.985 . S
C246 C240 1.379 1_544 S
C246 C243 1.363 . S
C246 N244 1.356 . S
C247 C241 1.363 . S
C247 C242 1.379 1_566 S
C247 N245 1.356 . S
N248 C240 1.356 . S
N248 H254 0.984 . S
N248 H255 0.984 . S
N249 C242 1.356 . S
N249 H252 0.984 . S
N249 H253 0.985 . S
H250 N245 0.984 . S
H251 N245 0.985 . S
H252 N249 0.984 . S
H253 N249 0.985 . S
H254 N248 0.984 . S
H255 N248 0.984 . S
H256 N244 0.984 . S
H257 N244 0.985 . S
C258 C259 1.363 . S
C258 C264 1.379 . S
C258 N266 1.356 . S
C259 C258 1.363 . S
C259 C265 1.363 . S
C260 C261 1.363 . S
C260 C265 1.379 . S
C260 N267 1.356 . S
C261 C260 1.363 . S
C261 C264 1.363 . S
N262 C264 1.356 . S
N262 H274 0.984 . S
N262 H275 0.985 . S
N263 C265 1.356 . S
N263 H268 0.984 . S
N263 H269 0.985 . S
C264 C258 1.379 . S
C264 C261 1.363 . S
C264 N262 1.356 . S
C265 C259 1.363 . S
C265 C260 1.379 . S
C265 N263 1.356 . S
N266 C258 1.356 . S
N266 H272 0.984 . S
N266 H273 0.984 . S
N267 C260 1.356 . S
N267 H270 0.984 . S
N267 H271 0.985 . S
H268 N263 0.984 . S
H269 N263 0.985 . S
H270 N267 0.984 . S
H271 N267 0.985 . S
H272 N266 0.984 . S
H273 N266 0.984 . S
H274 N262 0.984 . S
H275 N262 0.985 . S
C276 C277 1.363 . S
C276 C282 1.379 1_654 S
C276 N284 1.356 . S
C277 C276 1.363 . S
C277 C283 1.363 . S
C278 C279 1.363 . S
C278 C283 1.379 1_456 S
C278 N285 1.356 . S
C279 C278 1.363 . S
C279 C282 1.363 . S
N280 C282 1.356 . S
N280 H292 0.984 . S
N280 H293 0.985 . S
N281 C283 1.356 . S
N281 H286 0.984 . S
N281 H287 0.985 . S
C282 C276 1.379 1_456 S
C282 C279 1.363 . S
C282 N280 1.356 . S
C283 C277 1.363 . S
C283 C278 1.379 1_654 S
C283 N281 1.356 . S
N284 C276 1.356 . S
N284 H290 0.984 . S
N284 H291 0.984 . S
N285 C278 1.356 . S
N285 H288 0.984 . S
N285 H289 0.985 . S
H286 N281 0.984 . S
H287 N281 0.985 . S
H288 N285 0.984 . S
H289 N285 0.985 . S
H290 N284 0.984 . S
H291 N284 0.984 . S
H292 N280 0.984 . S
H293 N280 0.985 . S
C294 C295 1.363 1_565 S
C294 C300 1.379 . S
C294 N302 1.356 1_565 S
C295 C294 1.363 1_545 S
C295 C301 1.363 . S
C296 C297 1.363 . S
C296 C301 1.379 1_565 S
C296 N303 1.356 . S
C297 C296 1.363 . S
C297 C300 1.363 . S
N298 C300 1.356 . S
N298 H310 0.984 . S
N298 H311 0.985 . S
N299 C301 1.356 . S
N299 H304 0.984 . S
N299 H305 0.985 . S
C300 C294 1.379 . S
C300 C297 1.363 . S
C300 N298 1.356 . S
C301 C295 1.363 . S
C301 C296 1.379 1_545 S
C301 N299 1.356 . S
N302 C294 1.356 1_545 S
N302 H308 0.984 1_545 S
N302 H309 0.984 . S
N303 C296 1.356 . S
N303 H306 0.984 . S
N303 H307 0.985 1_565 S
H304 N299 0.984 . S
H305 N299 0.985 . S
H306 N303 0.984 . S
H307 N303 0.985 1_545 S
H308 N302 0.984 1_565 S
H309 N302 0.984 . S
H310 N298 0.984 . S
H311 N298 0.985 . S
C312 C313 1.363 . S
C312 C318 1.379 . S
C312 N320 1.356 . S
C313 C312 1.363 . S
C313 C319 1.363 1_556 S
C314 C315 1.363 . S
C314 C319 1.379 . S
C314 N321 1.356 . S
C315 C314 1.363 . S
C315 C318 1.363 1_554 S
N316 C318 1.356 . S
N316 H328 0.984 . S
N316 H329 0.985 1_556 S
N317 C319 1.356 . S
N317 H322 0.984 1_554 S
N317 H323 0.985 . S
C318 C312 1.379 . S
C318 C315 1.363 1_556 S
C318 N316 1.356 . S
C319 C313 1.363 1_554 S
C319 C314 1.379 . S
C319 N317 1.356 . S
N320 C312 1.356 . S
N320 H326 0.984 . S
N320 H327 0.984 . S
N321 C314 1.356 . S
N321 H324 0.984 . S
N321 H325 0.985 . S
H322 N317 0.984 1_556 S
H323 N317 0.985 . S
H324 N321 0.984 . S
H325 N321 0.985 . S
H326 N320 0.984 . S
H327 N320 0.984 . S
H328 N316 0.984 . S
H329 N316 0.985 1_554 S
C330 C331 1.363 1_455 S
C330 C336 1.379 . S
C330 N338 1.356 1_455 S
C331 C330 1.363 1_655 S
C331 C337 1.363 . S
C332 C333 1.363 . S
C332 C337 1.379 1_455 S
C332 N339 1.356 . S
C333 C332 1.363 . S
C333 C336 1.363 . S
N334 C336 1.356 . S
N334 H346 0.984 . S
N334 H347 0.985 . S
N335 C337 1.356 . S
N335 H340 0.984 . S
N335 H341 0.985 . S
C336 C330 1.379 . S
C336 C333 1.363 . S
C336 N334 1.356 . S
C337 C331 1.363 . S
C337 C332 1.379 1_655 S
C337 N335 1.356 . S
N338 C330 1.356 1_655 S
N338 H344 0.984 1_655 S
N338 H345 0.984 . S
N339 C332 1.356 . S
N339 H342 0.984 . S
N339 H343 0.985 1_455 S
H340 N335 0.984 . S
H341 N335 0.985 . S
H342 N339 0.984 . S
H343 N339 0.985 1_655 S
H344 N338 0.984 1_455 S
H345 N338 0.984 . S
H346 N334 0.984 . S
H347 N334 0.985 . S
C348 C349 1.363 . S
C348 C354 1.379 . S
C348 N356 1.356 . S
C349 C348 1.363 . S
C349 C355 1.363 . S
C350 C351 1.363 . S
C350 C355 1.379 . S
C350 N357 1.356 . S
C351 C350 1.363 . S
C351 C354 1.363 . S
N352 C354 1.356 . S
N352 H364 0.984 . S
N352 H365 0.985 . S
N353 C355 1.356 . S
N353 H358 0.984 . S
N353 H359 0.985 . S
C354 C348 1.379 . S
C354 C351 1.363 . S
C354 N352 1.356 . S
C355 C349 1.363 . S
C355 C350 1.379 . S
C355 N353 1.356 . S
N356 C348 1.356 . S
N356 H362 0.984 . S
N356 H363 0.984 . S
N357 C350 1.356 . S
N357 H360 0.984 . S
N357 H361 0.985 . S
H358 N353 0.984 . S
H359 N353 0.985 . S
H360 N357 0.984 . S
H361 N357 0.985 . S
H362 N356 0.984 . S
H363 N356 0.984 . S
H364 N352 0.984 . S
H365 N352 0.985 . S
C366 C367 1.363 . S
C366 C372 1.379 . S
C366 N374 1.356 . S
C367 C366 1.363 . S
C367 C373 1.363 . S
C368 C369 1.363 . S
C368 C373 1.379 . S
C368 N375 1.356 . S
C369 C368 1.363 . S
C369 C372 1.363 . S
N370 C372 1.356 . S
N370 H382 0.984 . S
N370 H383 0.985 . S
N371 C373 1.356 . S
N371 H376 0.984 . S
N371 H377 0.985 . S
C372 C366 1.379 . S
C372 C369 1.363 . S
C372 N370 1.356 . S
C373 C367 1.363 . S
C373 C368 1.379 . S
C373 N371 1.356 . S
N374 C366 1.356 . S
N374 H380 0.984 . S
N374 H381 0.984 . S
N375 C368 1.356 . S
N375 H378 0.984 . S
N375 H379 0.985 . S
H376 N371 0.984 . S
H377 N371 0.985 . S
H378 N375 0.984 . S
H379 N375 0.985 . S
H380 N374 0.984 . S
H381 N374 0.984 . S
H382 N370 0.984 . S
H383 N370 0.985 . S
C384 C385 1.363 . S
C384 C390 1.379 . S
C384 N392 1.356 . S
C385 C384 1.363 . S
C385 C391 1.363 . S
C386 C387 1.363 . S
C386 C391 1.379 . S
C386 N393 1.356 . S
C387 C386 1.363 . S
C387 C390 1.363 . S
N388 C390 1.356 . S
N388 H400 0.984 . S
N388 H401 0.985 . S
N389 C391 1.356 . S
N389 H394 0.984 . S
N389 H395 0.985 . S
C390 C384 1.379 . S
C390 C387 1.363 . S
C390 N388 1.356 . S
C391 C385 1.363 . S
C391 C386 1.379 . S
C391 N389 1.356 . S
N392 C384 1.356 . S
N392 H398 0.984 . S
N392 H399 0.984 . S
N393 C386 1.356 . S
N393 H396 0.984 . S
N393 H397 0.985 . S
H394 N389 0.984 . S
H395 N389 0.985 . S
H396 N393 0.984 . S
H397 N393 0.985 . S
H398 N392 0.984 . S
H399 N392 0.984 . S
H400 N388 0.984 . S
H401 N388 0.985 . S
C402 C403 1.363 . S
C402 C408 1.379 . S
C402 N410 1.356 . S
C403 C402 1.363 . S
C403 C409 1.363 . S
C404 C405 1.363 . S
C404 C409 1.379 . S
C404 N411 1.356 . S
C405 C404 1.363 . S
C405 C408 1.363 . S
N406 C408 1.356 . S
N406 H418 0.984 . S
N406 H419 0.985 . S
N407 C409 1.356 . S
N407 H412 0.984 . S
N407 H413 0.985 . S
C408 C402 1.379 . S
C408 C405 1.363 . S
C408 N406 1.356 . S
C409 C403 1.363 . S
C409 C404 1.379 . S
C409 N407 1.356 . S
N410 C402 1.356 . S
N410 H416 0.984 . S
N410 H417 0.984 . S
N411 C404 1.356 . S
N411 H414 0.984 . S
N411 H415 0.985 . S
H412 N407 0.984 . S
H413 N407 0.985 . S
H414 N411 0.984 . S
H415 N411 0.985 . S
H416 N410 0.984 . S
H417 N410 0.984 . S
H418 N406 0.984 . S
H419 N406 0.985 . S
C420 C421 1.363 . S
C420 C426 1.379 . S
C420 N428 1.356 . S
C421 C420 1.363 . S
C421 C427 1.363 . S
C422 C423 1.363 . S
C422 C427 1.379 . S
C422 N429 1.356 . S
C423 C422 1.363 . S
C423 C426 1.363 . S
N424 C426 1.356 . S
N424 H436 0.984 . S
N424 H437 0.985 . S
N425 C427 1.356 . S
N425 H430 0.984 . S
N425 H431 0.985 . S
C426 C420 1.379 . S
C426 C423 1.363 . S
C426 N424 1.356 . S
C427 C421 1.363 . S
C427 C422 1.379 . S
C427 N425 1.356 . S
N428 C420 1.356 . S
N428 H434 0.984 . S
N428 H435 0.984 . S
N429 C422 1.356 . S
N429 H432 0.984 . S
N429 H433 0.985 . S
H430 N425 0.984 . S
H431 N425 0.985 . S
H432 N429 0.984 . S
H433 N429 0.985 . S
H434 N428 0.984 . S
H435 N428 0.984 . S
H436 N424 0.984 . S
H437 N424 0.985 . S
C438 C439 1.363 . S
C438 C444 1.379 . S
C438 N446 1.356 . S
C439 C438 1.363 . S
C439 C445 1.363 . S
C440 C441 1.363 . S
C440 C445 1.379 . S
C440 N447 1.356 . S
C441 C440 1.363 . S
C441 C444 1.363 . S
N442 C444 1.356 . S
N442 H454 0.984 . S
N442 H455 0.985 . S
N443 C445 1.356 . S
N443 H448 0.984 . S
N443 H449 0.985 . S
C444 C438 1.379 . S
C444 C441 1.363 . S
C444 N442 1.356 . S
C445 C439 1.363 . S
C445 C440 1.379 . S
C445 N443 1.356 . S
N446 C438 1.356 . S
N446 H452 0.984 . S
N446 H453 0.984 . S
N447 C440 1.356 . S
N447 H450 0.984 . S
N447 H451 0.985 . S
H448 N443 0.984 . S
H449 N443 0.985 . S
H450 N447 0.984 . S
H451 N447 0.985 . S
H452 N446 0.984 . S
H453 N446 0.984 . S
H454 N442 0.984 . S
H455 N442 0.985 . S
C456 C457 1.363 . S
C456 C462 1.379 . S
C456 N464 1.356 . S
C457 C456 1.363 . S
C457 C463 1.363 . S
C458 C459 1.363 . S
C458 C463 1.379 . S
C458 N465 1.356 . S
C459 C458 1.363 . S
C459 C462 1.363 . S
N460 C462 1.356 . S
N460 H472 0.984 . S
N460 H473 0.985 . S
N461 C463 1.356 . S
N461 H466 0.984 . S
N461 H467 0.985 . S
C462 C456 1.379 . S
C462 C459 1.363 . S
C462 N460 1.356 . S
C463 C457 1.363 . S
C463 C458 1.379 . S
C463 N461 1.356 . S
N464 C456 1.356 . S
N464 H470 0.984 . S
N464 H471 0.984 . S
N465 C458 1.356 . S
N465 H468 0.984 . S
N465 H469 0.985 . S
H466 N461 0.984 . S
H467 N461 0.985 . S
H468 N465 0.984 . S
H469 N465 0.985 . S
H470 N464 0.984 . S
H471 N464 0.984 . S
H472 N460 0.984 . S
H473 N460 0.985 . S
C474 C475 1.363 . S
C474 C480 1.379 . S
C474 N482 1.356 . S
C475 C474 1.363 . S
C475 C481 1.363 . S
C476 C477 1.363 1_655 S
C476 C481 1.379 . S
C476 N483 1.356 . S
C477 C476 1.363 1_455 S
C477 C480 1.363 1_455 S
N478 C480 1.356 1_455 S
N478 H490 0.984 . S
N478 H491 0.985 . S
N479 C481 1.356 . S
N479 H484 0.984 . S
N479 H485 0.985 . S
C480 C474 1.379 . S
C480 C477 1.363 1_655 S
C480 N478 1.356 1_655 S
C481 C475 1.363 . S
C481 C476 1.379 . S
C481 N479 1.356 . S
N482 C474 1.356 . S
N482 H488 0.984 . S
N482 H489 0.984 . S
N483 C476 1.356 . S
N483 H486 0.984 1_655 S
N483 H487 0.985 . S
H484 N479 0.984 . S
H485 N479 0.985 . S
H486 N483 0.984 1_455 S
H487 N483 0.985 . S
H488 N482 0.984 . S
H489 N482 0.984 . S
H490 N478 0.984 . S
H491 N478 0.985 . S
C492 C493 1.363 . S
C492 C498 1.379 . S
C492 N500 1.356 . S
C493 C492 1.363 . S
C493 C499 1.363 . S
C494 C495 1.363 1_545 S
C494 C499 1.379 . S
C494 N501 1.356 1_545 S
C495 C494 1.363 1_565 S
C495 C498 1.363 1_565 S
N496 C498 1.356 1_565 S
N496 H508 0.984 . S
N496 H509 0.985 . S
N497 C499 1.356 . S
N497 H502 0.984 . S
N497 H503 0.985 . S
C498 C492 1.379 . S
C498 C495 1.363 1_545 S
C498 N496 1.356 1_545 S
C499 C493 1.363 . S
C499 C494 1.379 . S
C499 N497 1.356 . S
N500 C492 1.356 . S
N500 H506 0.984 . S
N500 H507 0.984 . S
N501 C494 1.356 1_565 S
N501 H504 0.984 . S
N501 H505 0.986 1_565 S
H502 N497 0.984 . S
H503 N497 0.985 . S
H504 N501 0.984 . S
H505 N501 0.986 1_545 S
H506 N500 0.984 . S
H507 N500 0.984 . S
H508 N496 0.984 . S
H509 N496 0.985 . S
C510 C511 1.363 . S
C510 C516 1.379 . S
C510 N518 1.356 . S
C511 C510 1.363 . S
C511 C517 1.363 . S
C512 C513 1.363 . S
C512 C517 1.379 . S
C512 N519 1.356 1_545 S
C513 C512 1.363 . S
C513 C516 1.363 . S
N514 C516 1.356 . S
N514 H526 0.984 . S
N514 H527 0.985 . S
N515 C517 1.356 . S
N515 H520 0.984 . S
N515 H521 0.985 . S
C516 C510 1.379 . S
C516 C513 1.363 . S
C516 N514 1.356 . S
C517 C511 1.363 . S
C517 C512 1.379 . S
C517 N515 1.356 . S
N518 C510 1.356 . S
N518 H524 0.984 . S
N518 H525 0.984 . S
N519 C512 1.356 1_565 S
N519 H522 0.984 . S
N519 H523 0.985 . S
H520 N515 0.984 . S
H521 N515 0.985 . S
H522 N519 0.984 . S
H523 N519 0.985 . S
H524 N518 0.984 . S
H525 N518 0.984 . S
H526 N514 0.984 . S
H527 N514 0.985 . S
C528 C529 1.363 . S
C528 C534 1.379 . S
C528 N536 1.356 . S
C529 C528 1.363 . S
C529 C535 1.363 . S
C530 C531 1.363 . S
C530 C535 1.379 . S
C530 N537 1.356 . S
C531 C530 1.363 . S
C531 C534 1.363 . S
N532 C534 1.356 . S
N532 H544 0.984 . S
N532 H545 0.985 . S
N533 C535 1.356 . S
N533 H538 0.984 . S
N533 H539 0.985 . S
C534 C528 1.379 . S
C534 C531 1.363 . S
C534 N532 1.356 . S
C535 C529 1.363 . S
C535 C530 1.379 . S
C535 N533 1.356 . S
N536 C528 1.356 . S
N536 H542 0.984 . S
N536 H543 0.984 . S
N537 C530 1.356 . S
N537 H540 0.984 . S
N537 H541 0.985 . S
H538 N533 0.984 . S
H539 N533 0.985 . S
H540 N537 0.984 . S
H541 N537 0.985 . S
H542 N536 0.984 . S
H543 N536 0.984 . S
H544 N532 0.984 . S
H545 N532 0.985 . S
C546 C547 1.363 1_455 S
C546 C552 1.379 . S
C546 N554 1.356 . S
C547 C546 1.363 1_655 S
C547 C553 1.363 . S
C548 C549 1.363 . S
C548 C553 1.379 . S
C548 N555 1.356 . S
C549 C548 1.363 . S
C549 C552 1.363 1_655 S
N550 C552 1.356 . S
N550 H562 0.984 . S
N550 H563 0.985 . S
N551 C553 1.356 . S
N551 H556 0.984 . S
N551 H557 0.985 . S
C552 C546 1.379 . S
C552 C549 1.363 1_455 S
C552 N550 1.356 . S
C553 C547 1.363 . S
C553 C548 1.379 . S
C553 N551 1.356 . S
N554 C546 1.356 . S
N554 H560 0.984 . S
N554 H561 0.984 . S
N555 C548 1.356 . S
N555 H558 0.984 . S
N555 H559 0.985 . S
H556 N551 0.984 . S
H557 N551 0.985 . S
H558 N555 0.984 . S
H559 N555 0.985 . S
H560 N554 0.984 . S
H561 N554 0.984 . S
H562 N550 0.984 . S
H563 N550 0.985 . S
C241 C178 2.700 . S
C243 C9 2.242 . S
C259 C209 2.271 . S
C261 C58 2.707 . S
C277 C89 2.242 . S
C279 C138 2.700 . S
C295 C18 2.707 . S
C297 C169 2.271 . S
C313 C218 2.700 . S
C315 C49 2.242 . S
C331 C98 2.707 . S
C333 C129 2.271 . S
C349 C19 2.144 . S
C351 C95 2.050 . S
C367 C59 2.144 . S
C369 C15 2.050 . S
C385 C99 2.144 . S
C387 C55 2.050 . S
C403 C126 1.950 . S
C405 C170 1.884 . S
C421 C166 1.950 . S
C423 C210 1.884 . S
C439 C130 1.884 . S
C441 C206 1.950 . S
C457 C10 1.282 . S
C459 C86 1.335 . S
C475 C50 1.282 . S
C477 C6 1.335 . S
C493 C90 1.282 . S
C495 C46 1.335 . S
C511 C135 1.455 . S
C513 C179 1.547 1_545 S
C529 C175 1.455 . S
C531 C219 1.547 . S
C547 C139 1.547 1_655 S
C549 C215 1.455 . S
