# Generated by pormake.
# Topology smc, (6)-cn, num edge types: 1
# Building blocks:
#     Node 0, Type 0, BuildingBlock: PAMTUU_clean_sbu_0, # of connection points: 6
#     Node 1, Type 0, BuildingBlock: PAMTUU_clean_sbu_0, # of connection points: 6
#     Node 2, Type 0, BuildingBlock: PAMTUU_clean_sbu_0, # of connection points: 6
#     Node 3, Type 0, BuildingBlock: PAMTUU_clean_sbu_0, # of connection points: 6
#     Node 4, Type 0, BuildingBlock: PAMTUU_clean_sbu_0, # of connection points: 6
#     Node 5, Type 0, BuildingBlock: PAMTUU_clean_sbu_0, # of connection points: 6
#     Node 6, Type 0, BuildingBlock: PAMTUU_clean_sbu_0, # of connection points: 6
#     Node 7, Type 0, BuildingBlock: PAMTUU_clean_sbu_0, # of connection points: 6
#     Node 8, Type 0, BuildingBlock: PAMTUU_clean_sbu_0, # of connection points: 6
#     Edge 9, Type (0, 0), BuildingBlock: CIFDUS_clean_linker_0, # of connection points: 2
#     Edge 10, Type (0, 0), BuildingBlock: CIFDUS_clean_linker_0, # of connection points: 2
#     Edge 11, Type (0, 0), BuildingBlock: CIFDUS_clean_linker_0, # of connection points: 2
#     Edge 12, Type (0, 0), BuildingBlock: CIFDUS_clean_linker_0, # of connection points: 2
#     Edge 13, Type (0, 0), BuildingBlock: CIFDUS_clean_linker_0, # of connection points: 2
#     Edge 14, Type (0, 0), BuildingBlock: CIFDUS_clean_linker_0, # of connection points: 2
#     Edge 15, Type (0, 0), BuildingBlock: CIFDUS_clean_linker_0, # of connection points: 2
#     Edge 16, Type (0, 0), BuildingBlock: CIFDUS_clean_linker_0, # of connection points: 2
#     Edge 17, Type (0, 0), BuildingBlock: CIFDUS_clean_linker_0, # of connection points: 2
#     Edge 18, Type (0, 0), BuildingBlock: CIFDUS_clean_linker_0, # of connection points: 2
#     Edge 19, Type (0, 0), BuildingBlock: CIFDUS_clean_linker_0, # of connection points: 2
#     Edge 20, Type (0, 0), BuildingBlock: CIFDUS_clean_linker_0, # of connection points: 2
#     Edge 21, Type (0, 0), BuildingBlock: CIFDUS_clean_linker_0, # of connection points: 2
#     Edge 22, Type (0, 0), BuildingBlock: CIFDUS_clean_linker_0, # of connection points: 2
#     Edge 23, Type (0, 0), BuildingBlock: CIFDUS_clean_linker_0, # of connection points: 2
#     Edge 24, Type (0, 0), BuildingBlock: CIFDUS_clean_linker_0, # of connection points: 2
#     Edge 25, Type (0, 0), BuildingBlock: CIFDUS_clean_linker_0, # of connection points: 2
#     Edge 26, Type (0, 0), BuildingBlock: CIFDUS_clean_linker_0, # of connection points: 2
#     Edge 27, Type (0, 0), BuildingBlock: CIFDUS_clean_linker_0, # of connection points: 2
#     Edge 28, Type (0, 0), BuildingBlock: CIFDUS_clean_linker_0, # of connection points: 2
#     Edge 29, Type (0, 0), BuildingBlock: CIFDUS_clean_linker_0, # of connection points: 2
#     Edge 30, Type (0, 0), BuildingBlock: CIFDUS_clean_linker_0, # of connection points: 2
#     Edge 31, Type (0, 0), BuildingBlock: CIFDUS_clean_linker_0, # of connection points: 2
#     Edge 32, Type (0, 0), BuildingBlock: CIFDUS_clean_linker_0, # of connection points: 2
#     Edge 33, Type (0, 0), BuildingBlock: CIFDUS_clean_linker_0, # of connection points: 2
#     Edge 34, Type (0, 0), BuildingBlock: CIFDUS_clean_linker_0, # of connection points: 2
#     Edge 35, Type (0, 0), BuildingBlock: CIFDUS_clean_linker_0, # of connection points: 2
# Relax obj value: 0.340
# Max RMSD: 0.362
# Mean RMSD: 0.321
data_MOF--net-smc--node1-PAMTUU_clean_sbu_0--edge1-CIFDUS_clean_linker_0
_symmetry_space_group_name_H-M    P1
_symmetry_Int_Tables_number       1
_symmetry_cell_setting            triclinic
loop_
_symmetry_equiv_pos_as_xyz
'x, y, z'
_cell_length_a     38.91751
_cell_length_b     28.864883
_cell_length_c     34.617956
_cell_angle_alpha  91.357982
_cell_angle_beta   89.692869
_cell_angle_gamma 118.55094
loop_
_atom_site_label
_atom_site_type_symbol
_atom_site_fract_x
_atom_site_fract_y
_atom_site_fract_z
_atom_type_partial_charge
Tb0 Tb 0.07866 0.40127 0.99638 0.0
Tb1 Tb 1.05364 0.48838 0.02461 0.0
C2 C 1.02272 0.4256 0.94257 0.0
C3 C 0.1464 0.35466 0.98354 0.0
C4 C 0.22269 0.43788 0.98263 0.0
C5 C 0.20844 0.40155 0.95129 0.0
C6 C 0.17034 0.35982 0.9518 0.0
C7 C 0.1635 0.3839 0.0177 0.0
C8 C 0.20118 0.42615 0.017 0.0
C9 C 0.10602 0.34215 0.97544 0.0
O10 O 0.13182 0.47969 1.00008 0.0
O11 O 0.10209 0.52769 0.98533 0.0
O12 O 0.08943 0.48428 0.07302 0.0
O13 O 0.08736 0.4048 0.05878 0.0
O14 O 0.07129 0.56759 0.04055 0.0
O15 O 1.01083 0.50741 0.04385 0.0
O16 O 1.01472 0.41515 0.05198 0.0
O17 O 1.01581 0.35818 1.00609 0.0
O18 O 1.04662 0.40558 0.94609 0.0
O19 O 1.02012 0.45698 0.96969 0.0
C20 C 0.13433 0.52486 0.98976 0.0
O21 O 0.0831 0.33238 1.00533 0.0
O22 O 0.10411 0.37653 0.95292 0.0
C23 C 0.09602 0.445 0.08258 0.0
C24 C 1.02295 0.59339 0.02852 0.0
C25 C 0.99278 0.65996 1.005 0.0
C26 C 0.97435 0.60626 0.99361 0.0
C27 C 0.98935 0.57344 1.00505 0.0
C28 C 1.04288 0.64751 0.03789 0.0
C29 C 1.02812 0.68061 0.02603 0.0
C30 C 1.03534 0.55776 0.04629 0.0
C31 C 0.9973 0.36984 0.03318 0.0
H32 H 0.22531 0.4081 0.92508 0.0
H33 H 0.15791 0.33716 0.92534 0.0
H34 H 0.14595 0.37999 0.04304 0.0
H35 H 0.21148 0.45256 0.04202 0.0
H36 H 0.94685 0.58848 0.9779 0.0
H37 H 0.97347 0.53191 0.99703 0.0
H38 H 0.06906 0.66384 0.05571 0.0
H39 H 1.04355 0.72191 0.03468 0.0
Tb40 Tb 0.65302 0.63893 0.02842 0.0
Tb41 Tb 0.57779 0.60063 0.9864 0.0
C42 C 0.58812 0.61548 0.07943 0.0
C43 C 0.7582 0.70824 0.06118 0.0
C44 C 0.83895 0.75187 0.04743 0.0
C45 C 0.82365 0.73476 0.0845 0.0
C46 C 0.78363 0.71315 0.09124 0.0
C47 C 0.7735 0.72993 0.02522 0.0
C48 C 0.81369 0.75185 0.01842 0.0
C49 C 0.71643 0.67169 0.06575 0.0
O50 O 0.63114 0.54705 0.02059 0.0
O51 O 0.56987 0.51984 0.99804 0.0
O52 O 0.6227 0.61098 0.93995 0.0
O53 O 0.67849 0.66525 0.97207 0.0
O54 O 0.51718 0.55149 0.98505 0.0
O55 O 0.54733 0.60161 0.93697 0.0
O56 O 0.58723 0.68268 0.98843 0.0
O57 O 0.6389 0.71141 0.02943 0.0
O58 O 0.61186 0.59727 0.07227 0.0
O59 O 0.57401 0.62693 0.04842 0.0
C60 C 0.59582 0.50598 1.01017 0.0
O61 O 0.69275 0.69139 0.07027 0.0
O62 O 0.70238 0.63155 0.04165 0.0
C63 C 0.66131 0.64316 0.93958 0.0
C64 C 0.4881 0.59637 0.95596 0.0
C65 C 0.43249 0.6306 0.96822 0.0
C66 C 0.42988 0.59865 0.93556 0.0
C67 C 0.45757 0.58174 0.92953 0.0
C68 C 0.49317 0.63248 0.98614 0.0
C69 C 0.46607 0.6505 0.99169 0.0
C70 C 0.5137 0.5725 0.95325 0.0
C71 C 0.61183 0.7211 1.01119 0.0
H72 H 0.84186 0.73345 0.10752 0.0
H73 H 0.77223 0.69635 0.11911 0.0
H74 H 0.75416 0.72654 1.00169 0.0
H75 H 0.82453 0.76554 0.98977 0.0
H76 H 0.40449 0.58204 0.9167 0.0
H77 H 0.45369 0.55454 0.90575 0.0
H78 H 0.51669 0.64429 1.00692 0.0
H79 H 0.46946 0.67589 0.01654 0.0
Tb80 Tb 0.49104 1.0335 0.01231 0.0
Tb81 Tb 0.57489 0.09415 0.04185 0.0
C82 C 0.54928 0.08895 0.95116 0.0
C83 C 0.38549 0.92555 0.99652 0.0
C84 C 0.31835 0.82218 0.99479 0.0
C85 C 0.31665 0.86632 1.01123 0.0
C86 C 0.3495 0.91691 0.01198 0.0
C87 C 0.3879 0.88129 0.98137 0.0
C88 C 0.35489 0.8304 0.98065 0.0
C89 C 0.41865 0.98111 0.99392 0.0
O90 O 0.51077 0.96847 1.00995 0.0
O91 O 0.57102 1.01353 0.03716 0.0
O92 O 0.53381 0.08096 0.09246 0.0
O93 O 0.48578 1.00439 0.06994 0.0
O94 O 0.63089 0.10272 0.03597 0.0
O95 O 0.61758 0.14138 0.08374 0.0
O96 O 0.57411 0.16821 0.03241 0.0
O97 O 0.50935 0.1274 0.01539 0.0
O98 O 0.51982 1.0439 0.95866 0.0
O99 O 0.57345 0.11756 0.97974 0.0
C100 C 0.54389 0.96848 0.02187 0.0
O101 O 0.43162 1.00922 0.02577 0.0
O102 O 0.44737 0.98938 0.97079 0.0
C103 C 0.49982 1.03809 0.09849 0.0
C104 C 0.68473 0.17788 0.0641 0.0
C105 C 0.76658 0.24342 0.0628 0.0
C106 C 0.74618 0.23248 0.09792 0.0
C107 C 0.70566 0.19983 0.09854 0.0
C108 C 0.70471 0.19156 0.02874 0.0
C109 C 0.74527 0.22393 0.02813 0.0
C110 C 0.64445 0.13384 0.06636 0.0
C111 C 0.54368 0.17401 0.02298 0.0
H112 H 0.28956 0.86201 0.02324 0.0
H113 H 0.34645 0.94977 0.02394 0.0
H114 H 0.41507 0.88612 0.96918 0.0
H115 H 0.35768 0.79788 0.96766 0.0
H116 H 0.76178 0.24674 0.12512 0.0
H117 H 0.69099 0.18932 0.12616 0.0
H118 H 0.68938 0.1752 1.00167 0.0
H119 H 0.76012 0.23249 1.00058 0.0
Tb120 Tb 0.75653 0.76615 0.33958 0.0
Tb121 Tb 0.69017 0.81204 0.36821 0.0
C122 C 0.69395 0.76229 0.27928 0.0
C123 C 0.87196 0.79038 0.33123 0.0
C124 C 0.95796 0.81985 0.32972 0.0
C125 C 0.92657 0.76728 0.32289 0.0
C126 C 0.88548 0.7532 0.32349 0.0
C127 C 0.90316 0.84296 0.33772 0.0
C128 C 0.94429 0.85716 0.33675 0.0
C129 C 0.82696 0.77603 0.33386 0.0
O130 O 0.77046 0.84495 0.32056 0.0
O131 O 0.74802 0.87841 0.36843 0.0
O132 O 0.7308 0.82339 0.41849 0.0
O133 O 0.74673 0.75825 0.40153 0.0
O134 O 0.67097 0.86795 0.35651 0.0
O135 O 0.64181 0.80941 0.3995 0.0
O136 O 0.66642 0.73198 0.38562 0.0
O137 O 0.69256 0.69652 0.34134 0.0
O138 O 0.72581 0.75717 0.28492 0.0
O139 O 0.67853 0.78095 0.30636 0.0
C140 C 0.77469 0.88445 0.34314 0.0
O141 O 0.81764 0.81065 0.34852 0.0
O142 O 0.79503 0.73292 0.32202 0.0
C143 C 0.74864 0.79471 0.42619 0.0
C144 C 0.60487 0.85226 0.37329 0.0
C145 C 0.53555 0.86626 0.36537 0.0
C146 C 0.53389 0.82038 0.38154 0.0
C147 C 0.56765 0.81376 0.38566 0.0
C148 C 0.60664 0.89802 0.35714 0.0
C149 C 0.57296 0.90492 0.35333 0.0
C150 C 0.6425 0.84926 0.3815 0.0
C151 C 0.6613 0.69393 0.36129 0.0
H152 H 0.93352 0.73585 0.31657 0.0
H153 H 0.86408 0.71234 0.31815 0.0
H154 H 0.89581 0.87411 0.34389 0.0
H155 H 0.96552 0.89799 0.34246 0.0
H156 H 0.50637 0.78951 0.392 0.0
H157 H 0.56455 0.77855 0.3992 0.0
H158 H 0.63457 0.92944 0.34794 0.0
H159 H 0.57634 0.94068 0.34049 0.0
Tb160 Tb 0.29952 0.99663 0.33524 0.0
Tb161 Tb 0.26353 0.87947 0.3247 0.0
C162 C 0.32613 0.95891 0.26129 0.0
C163 C 0.30408 0.117 0.37256 0.0
C164 C 0.26385 0.16342 0.41014 0.0
C165 C 0.24648 0.10836 0.4059 0.0
C166 C 0.26646 0.08532 0.38716 0.0
C167 C 0.32236 0.17166 0.37837 0.0
C168 C 0.30235 0.19483 0.39708 0.0
C169 C 0.32362 0.09242 0.35101 0.0
O170 O 0.23535 0.96808 0.31725 0.0
O171 O 0.21197 0.88838 0.3428 0.0
O172 O 0.27854 0.89286 0.38784 0.0
O173 O 0.27429 0.96795 0.391 0.0
O174 O 0.21738 0.82588 0.28999 0.0
O175 O 0.24864 0.79957 0.32814 0.0
O176 O 0.32145 0.88867 0.33249 0.0
O177 O 0.34921 0.97734 0.34688 0.0
O178 O 0.33266 0.99928 0.28373 0.0
O179 O 0.29649 0.91194 0.26939 0.0
C180 C 0.20408 0.92437 0.32935 0.0
O181 O 0.33216 0.06203 0.37157 0.0
O182 O 0.30719 0.07011 0.31797 0.0
C183 C 0.27955 0.93261 0.40871 0.0
C184 C 0.23145 0.76204 0.26513 0.0
C185 C 0.24392 0.70255 0.20741 0.0
C186 C 0.27569 0.7493 0.22209 0.0
C187 C 0.26952 0.77816 0.25171 0.0
C188 C 0.19961 0.72335 0.24447 0.0
C189 C 0.20575 0.69476 0.21489 0.0
C190 C 0.22441 0.78755 0.29884 0.0
C191 C 0.35228 0.93303 0.34261 0.0
H192 H 0.21694 0.08334 0.41577 0.0
H193 H 0.2521 1.04285 0.38307 0.0
H194 H 0.3515 0.19642 0.36743 0.0
H195 H 0.3162 0.23747 0.39936 0.0
H196 H 0.30546 0.75858 0.21526 0.0
H197 H 0.29451 0.81074 0.26569 0.0
H198 H 0.16995 0.71306 0.25273 0.0
H199 H 0.18008 0.66158 0.20244 0.0
Tb200 Tb 0.11517 0.38728 0.35745 0.0
Tb201 Tb 0.21567 0.44625 0.3766 0.0
C202 C 0.17473 0.41142 0.29153 0.0
C203 C 1.00989 0.28592 0.34827 0.0
C204 C 0.94679 0.18266 0.35302 0.0
C205 C 0.95652 0.20844 0.31754 0.0
C206 C 0.98768 0.2597 0.31526 0.0
C207 C 1.00055 0.25985 0.38367 0.0
C208 C 0.96925 0.2088 0.386 0.0
C209 C 1.04212 0.34047 0.34531 0.0
O210 O 0.12836 0.33037 0.38475 0.0
O211 O 0.19208 0.36322 0.3634 0.0
O212 O 0.17944 0.42183 0.43267 0.0
O213 O 0.12791 0.43136 0.41112 0.0
O214 O 0.26644 0.44265 0.39732 0.0
O215 O 0.27199 0.51391 0.37437 0.0
O216 O 0.19282 0.50149 0.37788 0.0
O217 O 0.14217 0.46615 0.33467 0.0
O218 O 0.14443 0.37359 0.30859 0.0
O219 O 0.20603 0.4449 0.31229 0.0
C220 C 0.16023 0.32616 0.37912 0.0
O221 O 1.0586 0.36539 0.37743 0.0
O222 O 0.06789 0.34856 0.31861 0.0
C223 C 0.1447 0.42051 0.43941 0.0
C224 C 0.33397 0.50899 0.37687 0.0
C225 C 0.41919 0.55535 0.36385 0.0
C226 C 0.3989 0.51366 0.38983 0.0
C227 C 0.3576 0.49142 0.3963 0.0
C228 C 0.35398 0.54934 0.35004 0.0
C229 C 0.39505 0.57148 0.34359 0.0
C230 C 0.29101 0.49139 0.3889 0.0
C231 C 0.17494 0.50641 0.34736 0.0
H232 H 0.93949 0.18945 0.29175 0.0
H233 H 0.99425 0.27907 0.2877 0.0
H234 H 1.01723 0.27887 0.40965 0.0
H235 H 0.96267 0.18965 0.41364 0.0
H236 H 0.41518 0.49939 0.40656 0.0
H237 H 0.34432 0.46132 0.41778 0.0
H238 H 0.33802 0.56515 0.33443 0.0
H239 H 0.40795 0.60224 0.32258 0.0
Tb240 Tb 0.41852 0.04718 0.68249 0.0
Tb241 Tb 0.39934 0.1419 0.69468 0.0
C242 C 0.37513 0.06953 0.61652 0.0
C243 C 0.45548 0.95375 0.69852 0.0
C244 C 0.52002 0.95871 0.73691 0.0
C245 C 0.51219 0.94043 0.69827 0.0
C246 C 0.48012 0.9384 0.67903 0.0
C247 C 0.45951 0.96298 0.73872 0.0
C248 C 0.49148 0.96478 0.75795 0.0
C249 C 0.43103 0.96938 0.67609 0.0
O250 O 0.47554 0.1235 0.68289 0.0
O251 O 0.44992 0.17203 0.65812 0.0
O252 O 0.43955 0.14884 0.7434 0.0
O253 O 0.43151 0.06508 0.74355 0.0
O254 O 0.38549 0.19788 0.672 0.0
O255 O 0.3983 0.19894 0.73257 0.0
O256 O 0.34913 0.07825 0.72087 0.0
O257 O 0.35388 1.01179 0.6886 0.0
O258 O 0.40313 0.05826 0.62458 0.0
O259 O 0.36553 0.09645 0.64211 0.0
C260 C 0.48072 0.1682 0.66764 0.0
O261 O 0.4014 0.9684 0.69442 0.0
O262 O 0.45004 1.01256 0.65663 0.0
C263 C 0.44495 0.11181 0.76004 0.0
C264 C 0.35156 0.22405 0.71662 0.0
C265 C 0.28646 0.23471 0.7404 0.0
C266 C 0.32431 0.27112 0.75327 0.0
C267 C 0.35657 0.26589 0.74134 0.0
C268 C 0.31385 0.1869 0.70423 0.0
C269 C 0.28153 0.19233 0.7159 0.0
C270 C 0.38586 0.21842 0.70599 0.0
C271 C 0.33298 1.0294 0.70812 0.0
H272 H 0.53374 0.93536 0.68138 0.0
H273 H 0.47706 0.93043 0.64813 0.0
H274 H 0.44038 0.97403 0.75462 0.0
H275 H 0.49667 0.97806 0.78789 0.0
H276 H 0.32904 0.30362 0.77271 0.0
H277 H 0.38546 0.29437 0.75166 0.0
H278 H 0.30939 0.15385 0.6855 0.0
H279 H 0.25283 0.16396 0.70513 0.0
Tb280 Tb 0.96956 0.31417 0.69879 0.0
Tb281 Tb 0.89427 0.27076 0.65887 0.0
C282 C 0.90483 0.27737 0.75028 0.0
C283 C 0.06073 0.34331 0.75108 0.0
C284 C 0.12232 0.32163 0.76627 0.0
C285 C 0.12239 0.36671 0.78275 0.0
C286 C 0.0918 0.37755 0.77506 0.0
C287 C 1.0592 0.29662 0.73662 0.0
C288 C 0.08981 0.28588 0.74409 0.0
C289 C 1.03219 0.35892 0.73808 0.0
O290 O 0.95445 0.22524 0.69294 0.0
O291 O 0.89222 0.19203 0.67106 0.0
O292 O 0.93971 0.30063 0.61084 0.0
O293 O 0.99327 0.31024 0.64308 0.0
O294 O 0.84233 0.20157 0.64732 0.0
O295 O 0.85321 0.27452 0.62141 0.0
O296 O 0.89271 0.34602 0.66907 0.0
O297 O 0.95351 0.38422 0.69539 0.0
O298 O 0.92935 0.26201 0.73944 0.0
O299 O 0.88991 0.29187 0.72178 0.0
C300 C 0.92019 0.18182 0.68325 0.0
O301 O 1.0303 0.36232 0.70084 0.0
O302 O 0.9976 0.33445 0.75319 0.0
C303 C 0.97714 0.31126 0.61058 0.0
C304 C 0.78974 0.21672 0.64309 0.0
C305 C 0.72137 0.17394 0.6866 0.0
C306 C 0.72197 0.15204 0.65011 0.0
C307 C 0.75606 0.17339 0.62842 0.0
C308 C 0.78817 0.24172 0.6779 0.0
C309 C 0.75388 0.22048 0.69956 0.0
C310 C 0.82742 0.22592 0.62809 0.0
C311 C 0.92187 0.38921 0.68388 0.0
H312 H 0.14676 0.39454 0.80041 0.0
H313 H 0.09317 0.41366 0.78654 0.0
H314 H 1.03531 0.26983 0.71799 0.0
H315 H 0.08902 0.25116 0.73056 0.0
H316 H 0.69676 0.11648 0.63949 0.0
H317 H 0.75704 0.15338 0.60188 0.0
H318 H 0.81425 0.27485 0.68984 0.0
H319 H 0.75371 0.23791 0.72758 0.0
Tb320 Tb 0.80816 0.70575 0.68141 0.0
Tb321 Tb 0.89676 0.77533 0.70199 0.0
C322 C 0.85688 0.76298 0.61651 0.0
C323 C 0.70835 0.5853 0.66527 0.0
C324 C 0.652 0.47437 0.66069 0.0
C325 C 0.66875 0.49968 0.69642 0.0
C326 C 0.69631 0.55428 0.69871 0.0
C327 C 0.69249 0.55951 0.62965 0.0
C328 C 0.66511 0.50541 0.62738 0.0
C329 C 0.73573 0.64432 0.66642 0.0
O330 O 0.82916 0.64307 0.68164 0.0
O331 O 0.89345 0.6941 0.69721 0.0
O332 O 0.86088 0.76403 0.75752 0.0
O333 O 0.81074 0.68532 0.73997 0.0
O334 O 0.95271 0.8074 0.67704 0.0
O335 O 0.94642 0.81208 0.73969 0.0
O336 O 0.88853 0.8458 0.70314 0.0
O337 O 0.82344 0.79835 0.68556 0.0
O338 O 0.83656 0.71473 0.62699 0.0
O339 O 0.88137 0.79571 0.64326 0.0
C340 C 0.86424 0.64614 0.68871 0.0
O341 O 0.74896 0.66859 0.69962 0.0
O342 O 0.76313 0.66277 0.64055 0.0
C343 C 0.8269 0.72184 0.76646 0.0
C344 C 1.01395 0.85221 0.71376 0.0
C345 C 0.09752 0.90456 0.71552 0.0
C346 C 0.07562 0.86245 0.7402 0.0
C347 C 1.03433 0.837 0.73964 0.0
C348 C 1.03583 0.89384 0.68883 0.0
C349 C 0.07697 0.92009 0.69006 0.0
C350 C 0.97033 0.82238 0.71052 0.0
C351 C 0.85614 0.84695 0.69367 0.0
H352 H 0.65951 0.47778 0.72284 0.0
H353 H 0.70765 0.5723 0.7268 0.0
H354 H 0.70084 0.58157 0.60324 0.0
H355 H 0.65375 0.48792 0.59916 0.0
H356 H 0.09043 0.84973 0.76036 0.0
H357 H 1.01832 0.80464 0.75888 0.0
H358 H 1.02106 0.90619 0.66833 0.0
H359 H 0.09282 0.95228 0.67063 0.0
H360 H 0.37329 0.63377 0.92804 0.0
H361 H 0.40862 0.62194 0.04373 0.0
H362 H 0.34136 0.56466 0.06087 0.0
H363 H 0.27865 0.49503 0.03653 0.0
H364 H 0.24348 0.49974 0.91921 0.0
H365 H 0.30481 0.57982 0.90858 0.0
C366 C 0.36602 0.62004 0.95738 0.0
C367 C 0.39612 0.6286 0.98344 0.0
C368 C 0.32761 0.58275 0.96603 0.0
C369 C 0.38634 0.61417 0.0222 0.0
C370 C 0.34772 0.58017 0.03197 0.0
C371 C 0.28385 0.51418 1.00893 0.0
C372 C 0.25755 0.48993 0.9781 0.0
C373 C 0.31905 0.56011 1.00297 0.0
C374 C 0.26444 0.51599 0.94275 0.0
C375 C 0.29914 0.56232 0.93683 0.0
H376 H 0.60715 0.94818 0.04985 0.0
H377 H 0.50004 0.86897 0.9839 0.0
H378 H 0.51096 0.79241 0.97479 0.0
H379 H 0.5509 0.74397 0.98386 0.0
H380 H 0.65639 0.82007 0.05229 0.0
H381 H 0.64618 0.8976 0.06103 0.0
C382 C 0.58567 0.91447 0.03339 0.0
C383 C 0.55194 0.91785 0.01774 0.0
C384 C 0.59217 0.86792 0.02823 0.0
C385 C 0.526 0.87098 0.99683 0.0
C386 C 0.53249 0.82593 0.99142 0.0
C387 C 0.57212 0.77703 1.00099 0.0
C388 C 0.60529 0.77276 0.01698 0.0
C389 C 0.56548 0.82318 1.00671 0.0
C390 C 0.6309 0.81884 0.03888 0.0
C391 C 0.62479 0.86442 0.04405 0.0
H392 H 0.30796 0.72 1.00305 0.0
H393 H 0.24481 0.80404 0.97578 0.0
H394 H 0.18421 0.72123 0.97046 0.0
H395 H 0.14774 0.62496 0.97496 0.0
H396 H 0.20877 0.53863 1.00281 0.0
H397 H 0.27086 0.62133 1.00573 0.0
C398 C 0.28103 0.72028 0.9957 0.0
C399 C 0.28151 0.76928 0.99052 0.0
C400 C 0.24551 0.67164 0.99255 0.0
C401 C 0.24583 0.76788 0.98102 0.0
C402 C 0.2109 0.72016 0.9776 0.0
C403 C 0.17458 0.62384 0.98134 0.0
C404 C 0.17312 0.57484 0.98838 0.0
C405 C 0.2102 0.67181 0.98359 0.0
C406 C 0.20862 0.57516 0.99686 0.0
C407 C 0.24429 0.62276 0.99874 0.0
H408 H 0.50622 0.23942 0.99109 0.0
H409 H 0.60754 0.26009 0.05526 0.0
H410 H 0.63265 0.35438 0.05709 0.0
H411 H 0.62973 0.43889 0.04147 0.0
H412 H 0.52857 0.42073 0.97893 0.0
H413 H 0.50265 0.32524 0.97645 0.0
C414 C 0.53371 0.26352 1.00597 0.0
C415 C 0.55363 0.23656 0.02305 0.0
C416 C 0.54959 0.32231 1.00742 0.0
C417 C 0.58969 0.27425 0.04121 0.0
C418 C 0.60491 0.3306 0.04249 0.0
C419 C 0.60196 0.41502 0.02699 0.0
C420 C 0.58245 0.44243 1.01022 0.0
C421 C 0.58576 0.35647 0.02569 0.0
C422 C 0.54602 0.40551 0.99244 0.0
C423 C 0.53049 0.34877 0.99092 0.0
H424 H 0.81528 0.218 0.02183 0.0
H425 H 0.8154 0.33291 0.10392 0.0
H426 H 0.88691 0.37928 0.10459 0.0
H427 H 0.94907 0.38894 0.08018 0.0
H428 H 0.94925 0.27547 0.99669 0.0
H429 H 0.87786 0.22645 0.99859 0.0
C430 C 0.83098 0.25348 0.03959 0.0
C431 C 0.81004 0.27226 0.06255 0.0
C432 C 0.87208 0.27988 0.03986 0.0
C433 C 0.83081 0.31759 0.08608 0.0
C434 C 0.87168 0.34412 0.08645 0.0
C435 C 0.93363 0.3531 0.06273 0.0
C436 C 0.95464 0.33593 0.03837 0.0
C437 C 0.89259 0.32571 0.06336 0.0
C438 C 0.93394 0.28951 0.01586 0.0
C439 C 0.89307 0.26163 0.01672 0.0
H440 H 0.99055 0.73297 0.05499 0.0
H441 H 0.94775 0.65774 0.94327 0.0
H442 H 0.89941 0.68868 0.94357 0.0
H443 H 0.86154 0.72083 0.98151 0.0
H444 H 0.90577 0.79891 0.09209 0.0
H445 H 0.96229 0.78425 0.08552 0.0
C446 C 0.97179 0.7249 0.02993 0.0
C447 C 0.97201 0.69141 0.99975 0.0
C448 C 0.94396 0.7427 0.03029 0.0
C449 C 0.94731 0.68174 0.9676 0.0
C450 C 0.91971 0.69959 0.96765 0.0
C451 C 0.88421 0.73669 1.00356 0.0
C452 C 0.87864 0.75945 0.03787 0.0
C453 C 0.91645 0.72766 0.9998 0.0
C454 C 0.90861 0.7797 0.06595 0.0
C455 C 0.94097 0.77132 0.06223 0.0
H456 H 1.03134 0.91743 0.3166 0.0
H457 H 0.99131 0.75532 0.34631 0.0
H458 H 1.05861 0.77171 0.3485 0.0
H459 H 0.13151 0.83105 0.34278 0.0
H460 H 0.17332 0.9928 0.31213 0.0
H461 H 0.10546 0.97742 0.31001 0.0
C462 C 1.03675 0.88514 0.32365 0.0
C463 C 1.00325 0.83397 0.3308 0.0
C464 C 0.07748 0.89494 0.32488 0.0
C465 C 1.01389 0.79461 0.33968 0.0
C466 C 1.05347 0.80421 0.34129 0.0
C467 C 0.12635 0.86351 0.33554 0.0
C468 C 0.15993 0.91388 0.32768 0.0
C469 C 0.08594 0.85407 0.33395 0.0
C470 C 0.15004 0.95374 0.31837 0.0
C471 C 0.11035 0.94472 0.31718 0.0
H472 H 0.20951 0.33076 0.43338 0.0
H473 H 0.11806 0.22285 0.35666 0.0
H474 H 0.13792 0.15519 0.36739 0.0
H475 H 0.19059 0.13657 0.3864 0.0
H476 H 0.28469 0.24772 0.45973 0.0
H477 H 0.25414 0.3045 0.46328 0.0
C478 C 0.19322 0.29166 0.42015 0.0
C479 C 0.16293 0.28128 0.39401 0.0
C480 C 0.20569 0.25427 0.42544 0.0
C481 C 0.14154 0.23105 0.3769 0.0
C482 C 0.15314 0.1928 0.38278 0.0
C483 C 0.2036 0.17215 0.40443 0.0
C484 C 0.24021 0.18872 0.42212 0.0
C485 C 0.18656 0.20523 0.40523 0.0
C486 C 0.25688 0.23494 0.44526 0.0
C487 C 0.23949 0.26735 0.44722 0.0
H488 H 0.92674 0.09719 0.305 0.0
H489 H 0.89006 0.1487 0.40773 0.0
H490 H 0.83349 0.06135 0.4132 0.0
H491 H 0.79464 0.97079 0.38914 0.0
H492 H 0.83114 0.91746 0.28713 0.0
H493 H 0.88749 1.00528 0.28087 0.0
C494 C 0.90619 0.08926 0.32841 0.0
C495 C 0.9126 0.1293 0.35596 0.0
C496 C 0.87372 1.03879 0.33147 0.0
C497 C 0.88602 0.11838 0.38644 0.0
C498 C 0.85357 0.06855 0.38947 0.0
C499 C 0.81472 0.9783 0.36534 0.0
C500 C 0.80844 0.93767 0.33844 0.0
C501 C 0.84716 1.02852 0.36219 0.0
C502 C 0.83514 0.94808 0.30812 0.0
C503 C 0.8674 0.99828 0.30456 0.0
H504 H 0.29808 0.67917 0.24095 0.0
H505 H 0.20204 0.61007 0.1611 0.0
H506 H 0.16542 0.53862 0.20531 0.0
H507 H 0.15457 0.51201 0.27327 0.0
H508 H 0.24962 0.58747 0.35573 0.0
H509 H 0.29181 0.64409 0.30533 0.0
C510 C 0.26944 0.64759 0.23265 0.0
C511 C 0.24888 0.65458 0.20192 0.0
C512 C 0.24762 0.61037 0.26028 0.0
C513 C 0.21623 0.60873 0.18757 0.0
C514 C 0.1946 0.56866 0.21344 0.0
C515 C 0.18452 0.54058 0.28039 0.0
C516 C 0.19875 0.54566 0.31845 0.0
C517 C 0.20879 0.57222 0.25125 0.0
C518 C 0.23775 0.58303 0.32685 0.0
C519 C 0.26212 0.61478 0.29792 0.0
H520 H 0.47691 0.51971 0.36965 0.0
H521 H 0.46756 0.66034 0.34887 0.0
H522 H 0.53776 0.71027 0.34131 0.0
H523 H 0.60373 0.71858 0.34421 0.0
H524 H 0.61746 0.58224 0.36606 0.0
H525 H 0.54554 0.52784 0.36918 0.0
C526 C 0.48997 0.56128 0.36345 0.0
C527 C 0.46479 0.58479 0.35945 0.0
C528 C 0.53216 0.59144 0.35917 0.0
C529 C 0.48411 0.63926 0.35135 0.0
C530 C 0.5251 0.66866 0.3473 0.0
C531 C 0.59131 0.67658 0.34873 0.0
C532 C 0.61741 0.65525 0.35383 0.0
C533 C 0.54961 0.64562 0.3513 0.0
C534 C 0.59938 0.60056 0.36066 0.0
C535 C 0.55772 0.56934 0.36309 0.0
H536 H 0.36491 0.84643 0.3396 0.0
H537 H 0.4278 1.01487 0.35916 0.0
H538 H 0.48883 1.01011 0.36732 0.0
H539 H 0.52534 0.95747 0.36908 0.0
H540 H 0.46014 0.78889 0.34912 0.0
H541 H 0.40034 0.79485 0.34143 0.0
C542 C 0.3918 0.8825 0.34573 0.0
C543 C 0.39076 0.93121 0.34871 0.0
C544 C 0.42711 0.87941 0.35053 0.0
C545 C 0.42674 0.97675 0.3567 0.0
C546 C 0.46199 0.97395 0.36134 0.0
C547 C 0.4982 0.92185 0.36289 0.0
C548 C 0.49842 0.87237 0.36026 0.0
C549 C 0.46277 0.92544 0.3583 0.0
C550 C 0.462 0.82741 0.35236 0.0
C551 C 0.42731 0.8308 0.34758 0.0
H552 H 0.69615 0.07564 0.71074 0.0
H553 H 0.67273 0.20712 0.71896 0.0
H554 H 0.60898 0.1506 0.74798 0.0
H555 H 0.55575 0.06128 0.75425 0.0
H556 H 0.57662 0.92805 0.74025 0.0
H557 H 0.64641 0.98795 0.73086 0.0
C558 C 0.67731 0.09192 0.71986 0.0
C559 C 0.68806 0.1446 0.71206 0.0
C560 C 0.64056 0.05891 0.73521 0.0
C561 C 0.66439 0.16631 0.72444 0.0
C562 C 0.62808 0.13401 0.74083 0.0
C563 C 0.57591 1.04535 0.75173 0.0
C564 C 0.56136 0.99048 0.74827 0.0
C565 C 0.61515 0.07977 0.74424 0.0
C566 C 0.58746 0.97022 0.74327 0.0
C567 C 0.62713 1.00442 0.73738 0.0
H568 H 0.857 0.41005 0.66745 0.0
H569 H 0.97592 0.49459 0.70873 0.0
H570 H 0.97024 0.57589 0.71355 0.0
H571 H 0.93165 0.62782 0.7062 0.0
H572 H 0.8122 0.54124 0.66628 0.0
H573 H 0.81844 0.46083 0.66133 0.0
C574 C 0.88219 0.44589 0.67763 0.0
C575 C 0.91749 0.44265 0.68748 0.0
C576 C 0.87856 0.49467 0.68074 0.0
C577 C 0.94833 0.49231 0.70058 0.0
C578 C 0.94495 0.54016 0.70339 0.0
C579 C 0.90652 0.59172 0.69633 0.0
C580 C 0.87081 0.59426 0.68664 0.0
C581 C 0.91025 0.54278 0.69359 0.0
C582 C 0.84005 0.54416 0.67421 0.0
C583 C 0.84371 0.49675 0.67127 0.0
H584 H 0.64136 0.38298 0.69871 0.0
H585 H 0.5864 0.43676 0.61589 0.0
H586 H 0.5324 0.34791 0.60833 0.0
H587 H 0.4985 0.25542 0.62603 0.0
H588 H 0.54978 0.19756 0.70932 0.0
H589 H 0.60704 0.28615 0.71516 0.0
C590 C 0.61758 0.37531 0.67902 0.0
C591 C 0.61884 0.4177 0.65763 0.0
C592 C 0.58573 0.32281 0.67457 0.0
C593 C 0.58733 0.40588 0.63227 0.0
C594 C 0.55602 0.35466 0.62799 0.0
C595 C 0.52232 0.2616 0.64523 0.0
C596 C 0.51938 0.21889 0.66702 0.0
C597 C 0.55475 0.31285 0.64894 0.0
C598 C 0.55099 0.22878 0.69166 0.0
C599 C 0.5837 0.27993 0.69533 0.0
H600 H 0.92162 0.95208 0.70845 0.0
H601 H 0.80181 0.88352 0.67022 0.0
H602 H 0.80972 0.97304 0.66378 0.0
H603 H 0.85092 0.07581 0.66824 0.0
H604 H 0.97064 0.14221 0.70671 0.0
H605 H 0.96209 0.05291 0.71316 0.0
C606 C 0.89654 0.95549 0.69876 0.0
C607 C 0.86031 0.90623 0.69035 0.0
C608 C 0.9015 1.00951 0.69482 0.0
C609 C 0.82994 0.91673 0.67763 0.0
C610 C 0.83472 0.96963 0.67374 0.0
C611 C 0.87568 0.07178 0.67811 0.0
C612 C 0.91233 0.12067 0.68671 0.0
C613 C 0.87038 1.0173 0.68211 0.0
C614 C 0.94227 0.10939 0.69943 0.0
C615 C 0.9372 0.05664 0.70326 0.0
H616 H 0.14984 0.86543 0.7088 0.0
H617 H 0.14437 1.01026 0.72538 0.0
H618 H 0.21577 0.06046 0.72677 0.0
H619 H 0.2799 0.06414 0.72173 0.0
H620 H 0.28701 0.92124 0.70015 0.0
H621 H 0.21534 0.86965 0.70238 0.0
C622 C 0.16435 0.90794 0.71294 0.0
C623 C 0.14151 0.93393 0.71711 0.0
C624 C 0.20587 0.93701 0.71277 0.0
C625 C 0.16098 0.98918 0.72196 0.0
C626 C 0.20191 1.01796 0.72282 0.0
C627 C 0.26598 1.02163 0.71782 0.0
C628 C 0.28928 0.99677 0.71118 0.0
C629 C 0.2247 0.99243 0.71806 0.0
C630 C 0.27016 0.94162 0.70552 0.0
C631 C 0.22904 0.91206 0.70674 0.0
H632 H 0.28417 0.32699 0.74462 0.0
H633 H 0.21252 0.15954 0.7599 0.0
H634 H 0.15575 0.17228 0.77286 0.0
H635 H 0.12594 0.2306 0.77615 0.0
H636 H 0.19818 0.39765 0.75931 0.0
H637 H 0.25571 0.38563 0.75261 0.0
C638 C 0.25637 0.29333 0.75159 0.0
C639 C 0.25257 0.24239 0.75111 0.0
C640 C 0.22403 0.30092 0.75909 0.0
C641 C 0.21609 0.19911 0.75947 0.0
C642 C 0.18369 0.20639 0.76713 0.0
C643 C 0.15433 0.26438 0.77125 0.0
C644 C 0.15768 0.31487 0.76811 0.0
C645 C 0.18721 0.25704 0.76636 0.0
C646 C 0.19477 0.35842 0.76238 0.0
C647 C 0.22767 0.35154 0.75808 0.0
H648 H 0.10654 0.39261 0.2575 0.0
H649 H 0.22891 0.45563 0.23179 0.0
H650 H 0.21603 0.47141 0.16493 0.0
H651 H 0.16866 0.46681 0.11307 0.0
H652 H 1.04797 0.41107 0.14373 0.0
H653 H 0.06145 0.39335 0.20906 0.0
C654 C 0.13057 0.40924 0.23738 0.0
C655 C 0.16865 0.42157 0.24999 0.0
C656 C 0.12308 0.42005 0.19961 0.0
C657 C 0.19927 0.44489 0.22322 0.0
C658 C 0.1918 0.45397 0.18485 0.0
C659 C 0.14549 0.4514 0.13428 0.0
C660 C 0.10719 0.44081 0.1234 0.0
C661 C 0.15371 0.44181 0.17258 0.0
C662 C 0.07761 0.42035 0.15126 0.0
C663 C 0.08531 0.40982 0.18865 0.0
H664 H 0.62242 0.67628 0.2587 0.0
H665 H 0.72186 0.8095 0.21054 0.0
H666 H 0.69396 0.78121 0.14551 0.0
H667 H 0.64395 0.7155 0.10143 0.0
H668 H 0.54901 0.57545 0.14737 0.0
H669 H 0.57112 0.60994 0.21338 0.0
C670 C 0.63769 0.69952 0.23399 0.0
C671 C 0.67429 0.74572 0.23995 0.0
C672 C 0.62185 0.68178 0.19597 0.0
C673 C 0.69378 0.77433 0.20722 0.0
C674 C 0.67771 0.75802 0.16985 0.0
C675 C 0.62745 0.69272 0.12565 0.0
C676 C 0.59389 0.64306 0.11861 0.0
C677 C 0.64203 0.71145 0.16368 0.0
C678 C 0.57393 0.61436 0.15123 0.0
C679 C 0.58712 0.63385 0.18923 0.0
H680 H 0.42781 0.95252 0.11519 0.0
H681 H 0.50983 0.1063 0.16104 0.0
H682 H 0.46401 0.09634 0.21334 0.0
H683 H 0.39944 1.04453 0.24625 0.0
H684 H 0.31856 0.88984 0.20084 0.0
H685 H 0.36451 0.89993 0.14889 0.0
C686 C 0.43615 0.98398 0.13672 0.0
C687 C 0.47325 1.03035 0.13352 0.0
C688 C 0.40922 0.97796 0.16703 0.0
C689 C 0.48233 0.07008 0.16221 0.0
C690 C 0.45572 0.0644 0.19225 0.0
C691 C 0.39149 1.01295 0.22489 0.0
C692 C 0.35443 0.96644 0.22789 0.0
C693 C 0.41883 1.01871 0.19494 0.0
C694 C 0.346 0.9262 0.19978 0.0
C695 C 0.37262 0.93197 0.16987 0.0
H696 H 0.51983 0.15462 0.93019 0.0
H697 H 0.56837 0.0592 0.88324 0.0
H698 H 0.54095 0.05859 0.8201 0.0
H699 H 0.49611 0.07555 0.77908 0.0
H700 H 0.44838 0.17287 0.82435 0.0
H701 H 0.48221 0.18249 0.88624 0.0
C702 C 0.52617 0.13602 0.90561 0.0
C703 C 0.54773 0.10853 0.91168 0.0
C704 C 0.50917 0.13475 0.86884 0.0
C705 C 0.55354 0.08244 0.87956 0.0
C706 C 0.53703 0.08122 0.84329 0.0
C707 C 0.4933 0.09931 0.80233 0.0
C708 C 0.46891 0.12275 0.79682 0.0
C709 C 0.51362 0.10557 0.83776 0.0
C710 C 0.46655 0.15414 0.82739 0.0
C711 C 0.486 0.15959 0.86297 0.0
H712 H 0.96955 0.32526 0.92043 0.0
H713 H 1.01619 0.48603 0.88519 0.0
H714 H 0.9788 0.45548 0.82424 0.0
H715 H 0.93788 0.38139 0.77752 0.0
H716 H 0.89072 0.22134 0.81499 0.0
H717 H 0.92179 0.25291 0.87818 0.0
C718 C 0.97107 0.35374 0.89968 0.0
C719 C 0.99602 0.40808 0.90758 0.0
C720 C 0.94884 0.33577 0.86487 0.0
C721 C 0.99731 0.44416 0.88021 0.0
C722 C 0.97589 0.42653 0.84517 0.0
C723 C 0.93282 0.3535 0.8001 0.0
C724 C 0.91068 0.29858 0.79132 0.0
C725 C 0.95195 0.37223 0.83672 0.0
C726 C 0.90631 0.2635 0.82086 0.0
C727 C 0.9248 0.28164 0.857 0.0
H728 H 0.74911 0.65028 0.77893 0.0
H729 H 0.847 0.77791 0.83812 0.0
H730 H 0.80537 0.765 0.89516 0.0
H731 H 0.74037 0.71704 0.92899 0.0
H732 H 0.64256 0.59245 0.86738 0.0
H733 H 0.68459 0.60513 0.81121 0.0
C734 C 0.76189 0.67565 0.80415 0.0
C735 C 0.80229 0.71518 0.80329 0.0
C736 C 0.73724 0.66857 0.83686 0.0
C737 C 0.8168 0.74717 0.83699 0.0
C738 C 0.79264 0.73967 0.86989 0.0
C739 C 0.72789 0.69252 0.90332 0.0
C740 C 0.68731 0.65328 0.90341 0.0
C741 C 0.75267 0.70049 0.87032 0.0
C742 C 0.67286 0.62281 0.86909 0.0
C743 C 0.69724 0.63008 0.83668 0.0
H744 H 0.7334 0.78464 0.50635 0.0
H745 H 0.82556 0.82355 0.42362 0.0
H746 H 0.86861 0.82166 0.47373 0.0
H747 H 0.8791 0.80037 0.54097 0.0
H748 H 0.78674 0.7615 0.62353 0.0
H749 H 0.74643 0.77252 0.57513 0.0
C750 C 0.76326 0.79438 0.49946 0.0
C751 C 0.77589 0.80503 0.4606 0.0
C752 C 0.78842 0.79268 0.52898 0.0
C753 C 0.81466 0.81577 0.45285 0.0
C754 C 0.83953 0.81438 0.48174 0.0
C755 C 0.85064 0.79576 0.54876 0.0
C756 C 0.83692 0.78096 0.58693 0.0
C757 C 0.82667 0.8017 0.51995 0.0
C758 C 0.79912 0.77388 0.59524 0.0
C759 C 0.77551 0.77978 0.56713 0.0
H760 H 0.27569 1.00514 0.45905 0.0
H761 H 0.31771 0.89138 0.45197 0.0
H762 H 0.3507 0.92372 0.5147 0.0
H763 H 0.37099 0.98788 0.5702 0.0
H764 H 0.32747 0.09999 0.57791 0.0
H765 H 0.2922 0.06509 0.51653 0.0
C766 C 0.29148 0.98657 0.47138 0.0
C767 C 0.29368 0.94514 0.45029 0.0
C768 C 0.3108 1.00586 0.50757 0.0
C769 C 0.31471 0.92243 0.46724 0.0
C770 C 0.33404 0.94148 0.50312 0.0
C771 C 0.35385 1.00492 0.55856 0.0
C772 C 0.35263 0.0475 0.57897 0.0
C773 C 0.33291 0.98382 0.5233 0.0
C774 C 0.32945 0.0678 0.56324 0.0
C775 C 0.30914 0.04764 0.52798 0.0
H776 H 1.05443 0.33025 0.60129 0.0
H777 H 0.96088 0.3344 0.53774 0.0
H778 H 1.00411 0.36897 0.48196 0.0
H779 H 0.06848 0.40017 0.451 0.0
H780 H 0.16225 0.39308 0.5118 0.0
H781 H 0.11933 0.35857 0.5684 0.0
C782 C 1.04313 0.33829 0.57521 0.0
C783 C 1.00344 0.32902 0.57457 0.0
C784 C 0.06863 0.35843 0.54255 0.0
C785 C 0.99046 0.34029 0.5399 0.0
C786 C 1.01553 0.36052 0.50777 0.0
C787 C 0.08012 0.39125 0.4764 0.0
C788 C 0.11971 0.40034 0.47621 0.0
C789 C 1.05474 0.37016 0.50873 0.0
C790 C 0.13274 0.38754 0.51025 0.0
C791 C 0.10783 0.36743 0.54284 0.0
loop_
_geom_bond_atom_site_label_1
_geom_bond_atom_site_label_2
_geom_bond_distance
_geom_bond_site_symmetry_2
_ccdc_geom_bond_type
Tb0 C9 2.764 1_554 S
Tb0 O10 2.322 1_554 S
Tb0 O13 2.321 . S
Tb0 O17 2.325 1_455 S
Tb0 O18 2.329 1_554 S
Tb0 O21 2.424 . S
Tb0 O22 2.389 1_554 S
Tb1 O11 2.322 1_655 S
Tb1 O12 2.357 . S
Tb1 O14 2.415 1_554 S
Tb1 O15 2.399 . S
Tb1 O16 2.325 . S
Tb1 O19 2.303 1_554 S
Tb1 C30 2.764 . S
C2 O18 1.261 1_655 S
C2 O19 1.257 . S
C3 C6 1.356 1_554 S
C3 C7 1.333 . S
C3 C9 1.504 1_554 S
C4 C5 1.351 1_554 S
C4 C8 1.330 . S
C5 C4 1.351 1_556 S
C5 C6 1.429 . S
C5 H32 0.932 . S
C6 C3 1.356 1_556 S
C6 C5 1.429 . S
C6 H33 0.930 . S
C7 C3 1.333 . S
C7 C8 1.394 . S
C7 H34 0.932 . S
C8 C4 1.330 . S
C8 C7 1.394 . S
C8 H35 0.929 . S
C9 Tb0 2.764 1_556 S
C9 C3 1.504 1_556 S
C9 O21 1.238 1_556 S
C9 O22 1.263 . S
O10 Tb0 2.322 1_556 S
O10 C20 1.236 1_556 S
O11 Tb1 2.322 1_455 S
O11 C20 1.257 . S
O12 Tb1 2.357 . S
O12 C23 1.241 1_655 S
O13 Tb0 2.321 . S
O13 C23 1.257 . S
O14 Tb1 2.415 1_556 S
O14 C30 1.239 1_556 S
O15 Tb1 2.399 . S
O15 C30 1.263 . S
O16 Tb1 2.325 . S
O16 C31 1.236 . S
O17 Tb0 2.325 1_655 S
O17 C31 1.257 . S
O18 Tb0 2.329 1_556 S
O18 C2 1.261 1_455 S
O19 Tb1 2.303 1_556 S
O19 C2 1.257 . S
C20 O10 1.236 1_554 S
C20 O11 1.257 . S
O21 Tb0 2.424 . S
O21 C9 1.238 1_554 S
O22 Tb0 2.389 1_556 S
O22 C9 1.263 . S
C23 O12 1.241 1_455 S
C23 O13 1.257 . S
C24 C27 1.358 . S
C24 C28 1.332 1_554 S
C24 C30 1.504 . S
C25 C26 1.373 . S
C25 C29 1.308 1_554 S
C26 C25 1.373 . S
C26 C27 1.429 . S
C26 H36 0.932 . S
C27 C24 1.358 . S
C27 C26 1.429 . S
C27 H37 0.930 . S
C28 C24 1.332 1_556 S
C28 C29 1.394 . S
C28 H38 0.932 . S
C29 C25 1.308 1_556 S
C29 C28 1.394 . S
C29 H39 0.929 . S
C30 Tb1 2.764 . S
C30 O14 1.239 1_554 S
C30 O15 1.263 . S
C30 C24 1.504 . S
C31 O16 1.236 . S
C31 O17 1.257 . S
H32 C5 0.932 . S
H33 C6 0.930 . S
H34 C7 0.932 . S
H35 C8 0.929 . S
H36 C26 0.932 . S
H37 C27 0.930 . S
H38 C28 0.932 . S
H39 C29 0.929 . S
Tb40 C49 2.764 . S
Tb40 O50 2.325 . S
Tb40 O53 2.303 1_554 S
Tb40 O57 2.322 . S
Tb40 O58 2.349 . S
Tb40 O61 2.415 1_554 S
Tb40 O62 2.399 . S
Tb41 O51 2.322 . S
Tb41 O52 2.349 . S
Tb41 O54 2.415 1_556 S
Tb41 O55 2.399 . S
Tb41 O56 2.325 . S
Tb41 O59 2.303 1_556 S
Tb41 C70 2.764 . S
C42 O58 1.261 . S
C42 O59 1.257 . S
C43 C46 1.358 . S
C43 C47 1.332 1_554 S
C43 C49 1.504 . S
C44 C45 1.373 . S
C44 C48 1.308 1_554 S
C45 C44 1.373 . S
C45 C46 1.429 . S
C45 H72 0.932 . S
C46 C43 1.358 . S
C46 C45 1.429 . S
C46 H73 0.930 . S
C47 C43 1.332 1_556 S
C47 C48 1.394 . S
C47 H74 0.932 . S
C48 C44 1.308 1_556 S
C48 C47 1.394 . S
C48 H75 0.929 . S
C49 Tb40 2.764 . S
C49 C43 1.504 . S
C49 O61 1.239 1_554 S
C49 O62 1.263 . S
O50 Tb40 2.325 . S
O50 C60 1.236 . S
O51 Tb41 2.322 . S
O51 C60 1.257 1_556 S
O52 Tb41 2.349 . S
O52 C63 1.261 . S
O53 Tb40 2.303 1_556 S
O53 C63 1.257 . S
O54 Tb41 2.415 1_554 S
O54 C70 1.239 1_554 S
O55 Tb41 2.399 . S
O55 C70 1.263 . S
O56 Tb41 2.325 . S
O56 C71 1.236 . S
O57 Tb40 2.322 . S
O57 C71 1.257 1_554 S
O58 Tb40 2.349 . S
O58 C42 1.261 . S
O59 Tb41 2.303 1_554 S
O59 C42 1.257 . S
C60 O50 1.236 . S
C60 O51 1.257 1_554 S
O61 Tb40 2.415 1_556 S
O61 C49 1.239 1_556 S
O62 Tb40 2.399 . S
O62 C49 1.263 . S
C63 O52 1.261 . S
C63 O53 1.257 . S
C64 C67 1.358 . S
C64 C68 1.332 1_556 S
C64 C70 1.504 . S
C65 C66 1.373 . S
C65 C69 1.308 1_556 S
C66 C65 1.373 . S
C66 C67 1.429 . S
C66 H76 0.932 . S
C67 C64 1.358 . S
C67 C66 1.429 . S
C67 H77 0.930 . S
C68 C64 1.332 1_554 S
C68 C69 1.394 . S
C68 H78 0.932 . S
C69 C65 1.308 1_554 S
C69 C68 1.394 . S
C69 H79 0.929 . S
C70 Tb41 2.764 . S
C70 O54 1.239 1_556 S
C70 O55 1.263 . S
C70 C64 1.504 . S
C71 O56 1.236 . S
C71 O57 1.257 1_556 S
H72 C45 0.932 . S
H73 C46 0.930 . S
H74 C47 0.932 . S
H75 C48 0.929 . S
H76 C66 0.932 . S
H77 C67 0.930 . S
H78 C68 0.932 . S
H79 C69 0.929 . S
Tb80 C89 2.763 . S
Tb80 O90 2.328 . S
Tb80 O93 2.282 1_556 S
Tb80 O97 2.321 1_566 S
Tb80 O98 2.374 . S
Tb80 O101 2.403 1_556 S
Tb80 O102 2.410 . S
Tb81 O91 2.322 1_545 S
Tb81 O92 2.349 . S
Tb81 O94 2.415 1_554 S
Tb81 O95 2.399 . S
Tb81 O96 2.325 . S
Tb81 O99 2.303 1_554 S
Tb81 C110 2.764 . S
C82 O98 1.261 1_545 S
C82 O99 1.257 . S
C83 C86 1.371 . S
C83 C87 1.319 1_556 S
C83 C89 1.505 . S
C84 C85 1.354 1_554 S
C84 C88 1.325 . S
C85 C84 1.354 1_556 S
C85 C86 1.429 . S
C85 H112 0.932 . S
C86 C83 1.371 . S
C86 C85 1.429 . S
C86 H113 0.930 . S
C87 C83 1.319 1_554 S
C87 C88 1.394 . S
C87 H114 0.932 . S
C88 C84 1.325 . S
C88 C87 1.394 . S
C88 H115 0.929 . S
C89 Tb80 2.763 . S
C89 C83 1.505 . S
C89 O101 1.239 1_556 S
C89 O102 1.263 . S
O90 Tb80 2.328 . S
O90 C100 1.236 1_556 S
O91 Tb81 2.322 1_565 S
O91 C100 1.257 . S
O92 Tb81 2.349 . S
O92 C103 1.261 1_545 S
O93 Tb80 2.282 1_554 S
O93 C103 1.257 . S
O94 Tb81 2.415 1_556 S
O94 C110 1.239 1_556 S
O95 Tb81 2.399 . S
O95 C110 1.263 . S
O96 Tb81 2.325 . S
O96 C111 1.236 . S
O97 Tb80 2.321 1_544 S
O97 C111 1.257 . S
O98 Tb80 2.374 . S
O98 C82 1.261 1_565 S
O99 Tb81 2.303 1_556 S
O99 C82 1.257 . S
C100 O90 1.236 1_554 S
C100 O91 1.257 . S
O101 Tb80 2.403 1_554 S
O101 C89 1.239 1_554 S
O102 Tb80 2.410 . S
O102 C89 1.263 . S
C103 O92 1.261 1_565 S
C103 O93 1.257 . S
C104 C107 1.358 . S
C104 C108 1.332 1_554 S
C104 C110 1.504 . S
C105 C106 1.373 . S
C105 C109 1.308 1_554 S
C106 C105 1.373 . S
C106 C107 1.429 . S
C106 H116 0.932 . S
C107 C104 1.358 . S
C107 C106 1.429 . S
C107 H117 0.930 . S
C108 C104 1.332 1_556 S
C108 C109 1.394 . S
C108 H118 0.932 . S
C109 C105 1.308 1_556 S
C109 C108 1.394 . S
C109 H119 0.929 . S
C110 Tb81 2.764 . S
C110 O94 1.239 1_554 S
C110 O95 1.263 . S
C110 C104 1.504 . S
C111 O96 1.236 . S
C111 O97 1.257 . S
H112 C85 0.932 . S
H113 C86 0.930 . S
H114 C87 0.932 . S
H115 C88 0.929 . S
H116 C106 0.932 . S
H117 C107 0.930 . S
H118 C108 0.932 . S
H119 C109 0.929 . S
Tb120 C129 2.764 . S
Tb120 O130 2.325 . S
Tb120 O133 2.303 . S
Tb120 O137 2.322 . S
Tb120 O138 2.349 . S
Tb120 O141 2.415 . S
Tb120 O142 2.399 . S
Tb121 O131 2.322 . S
Tb121 O132 2.349 . S
Tb121 O134 2.415 . S
Tb121 O135 2.399 . S
Tb121 O136 2.325 . S
Tb121 O139 2.303 . S
Tb121 C150 2.764 . S
C122 O138 1.261 . S
C122 O139 1.257 . S
C123 C126 1.358 . S
C123 C127 1.332 . S
C123 C129 1.504 . S
C124 C125 1.373 . S
C124 C128 1.308 . S
C125 C124 1.373 . S
C125 C126 1.429 . S
C125 H152 0.932 . S
C126 C123 1.358 . S
C126 C125 1.429 . S
C126 H153 0.930 . S
C127 C123 1.332 . S
C127 C128 1.394 . S
C127 H154 0.932 . S
C128 C124 1.308 . S
C128 C127 1.394 . S
C128 H155 0.929 . S
C129 Tb120 2.764 . S
C129 C123 1.504 . S
C129 O141 1.239 . S
C129 O142 1.263 . S
O130 Tb120 2.325 . S
O130 C140 1.236 . S
O131 Tb121 2.322 . S
O131 C140 1.257 . S
O132 Tb121 2.349 . S
O132 C143 1.261 . S
O133 Tb120 2.303 . S
O133 C143 1.257 . S
O134 Tb121 2.415 . S
O134 C150 1.239 . S
O135 Tb121 2.399 . S
O135 C150 1.263 . S
O136 Tb121 2.325 . S
O136 C151 1.236 . S
O137 Tb120 2.322 . S
O137 C151 1.257 . S
O138 Tb120 2.349 . S
O138 C122 1.261 . S
O139 Tb121 2.303 . S
O139 C122 1.257 . S
C140 O130 1.236 . S
C140 O131 1.257 . S
O141 Tb120 2.415 . S
O141 C129 1.239 . S
O142 Tb120 2.399 . S
O142 C129 1.263 . S
C143 O132 1.261 . S
C143 O133 1.257 . S
C144 C147 1.358 . S
C144 C148 1.332 . S
C144 C150 1.504 . S
C145 C146 1.373 . S
C145 C149 1.308 . S
C146 C145 1.373 . S
C146 C147 1.429 . S
C146 H156 0.932 . S
C147 C144 1.358 . S
C147 C146 1.429 . S
C147 H157 0.930 . S
C148 C144 1.332 . S
C148 C149 1.394 . S
C148 H158 0.932 . S
C149 C145 1.308 . S
C149 C148 1.394 . S
C149 H159 0.929 . S
C150 Tb121 2.764 . S
C150 O134 1.239 . S
C150 O135 1.263 . S
C150 C144 1.504 . S
C151 O136 1.236 . S
C151 O137 1.257 . S
H152 C125 0.932 . S
H153 C126 0.930 . S
H154 C127 0.932 . S
H155 C128 0.929 . S
H156 C146 0.932 . S
H157 C147 0.930 . S
H158 C148 0.932 . S
H159 C149 0.929 . S
Tb160 C169 2.764 1_565 S
Tb160 O170 2.325 . S
Tb160 O173 2.303 . S
Tb160 O177 2.322 . S
Tb160 O178 2.349 . S
Tb160 O181 2.415 1_565 S
Tb160 O182 2.399 1_565 S
Tb161 O171 2.322 . S
Tb161 O172 2.349 . S
Tb161 O174 2.415 . S
Tb161 O175 2.399 . S
Tb161 O176 2.325 . S
Tb161 O179 2.303 . S
Tb161 C190 2.764 . S
C162 O178 1.261 . S
C162 O179 1.257 . S
C163 C166 1.358 . S
C163 C167 1.332 . S
C163 C169 1.504 . S
C164 C165 1.373 . S
C164 C168 1.308 . S
C165 C164 1.373 . S
C165 C166 1.429 . S
C165 H192 0.932 . S
C166 C163 1.358 . S
C166 C165 1.429 . S
C166 H193 0.930 . S
C167 C163 1.332 . S
C167 C168 1.394 . S
C167 H194 0.932 . S
C168 C164 1.308 . S
C168 C167 1.394 . S
C168 H195 0.929 . S
C169 Tb160 2.764 1_545 S
C169 C163 1.504 . S
C169 O181 1.239 . S
C169 O182 1.263 . S
O170 Tb160 2.325 . S
O170 C180 1.236 . S
O171 Tb161 2.322 . S
O171 C180 1.257 . S
O172 Tb161 2.349 . S
O172 C183 1.261 . S
O173 Tb160 2.303 . S
O173 C183 1.257 . S
O174 Tb161 2.415 . S
O174 C190 1.239 . S
O175 Tb161 2.399 . S
O175 C190 1.263 . S
O176 Tb161 2.325 . S
O176 C191 1.236 . S
O177 Tb160 2.322 . S
O177 C191 1.257 . S
O178 Tb160 2.349 . S
O178 C162 1.261 . S
O179 Tb161 2.303 . S
O179 C162 1.257 . S
C180 O170 1.236 . S
C180 O171 1.257 . S
O181 Tb160 2.415 1_545 S
O181 C169 1.239 . S
O182 Tb160 2.399 1_545 S
O182 C169 1.263 . S
C183 O172 1.261 . S
C183 O173 1.257 . S
C184 C187 1.358 . S
C184 C188 1.332 . S
C184 C190 1.504 . S
C185 C186 1.373 . S
C185 C189 1.308 . S
C186 C185 1.373 . S
C186 C187 1.429 . S
C186 H196 0.932 . S
C187 C184 1.358 . S
C187 C186 1.429 . S
C187 H197 0.930 . S
C188 C184 1.332 . S
C188 C189 1.394 . S
C188 H198 0.932 . S
C189 C185 1.308 . S
C189 C188 1.394 . S
C189 H199 0.929 . S
C190 Tb161 2.764 . S
C190 O174 1.239 . S
C190 O175 1.263 . S
C190 C184 1.504 . S
C191 O176 1.236 . S
C191 O177 1.257 . S
H192 C165 0.932 . S
H193 C166 0.930 . S
H194 C167 0.932 . S
H195 C168 0.929 . S
H196 C186 0.932 . S
H197 C187 0.930 . S
H198 C188 0.932 . S
H199 C189 0.929 . S
Tb200 C209 2.764 . S
Tb200 O210 2.325 . S
Tb200 O213 2.303 . S
Tb200 O217 2.322 . S
Tb200 O218 2.349 . S
Tb200 O221 2.415 . S
Tb200 O222 2.399 . S
Tb201 O211 2.322 . S
Tb201 O212 2.349 . S
Tb201 O214 2.415 . S
Tb201 O215 2.399 . S
Tb201 O216 2.325 . S
Tb201 O219 2.303 . S
Tb201 C230 2.764 . S
C202 O218 1.261 . S
C202 O219 1.257 . S
C203 C206 1.358 . S
C203 C207 1.332 . S
C203 C209 1.504 1_655 S
C204 C205 1.373 . S
C204 C208 1.308 . S
C205 C204 1.373 . S
C205 C206 1.429 . S
C205 H232 0.932 . S
C206 C203 1.358 . S
C206 C205 1.429 . S
C206 H233 0.930 . S
C207 C203 1.332 . S
C207 C208 1.394 . S
C207 H234 0.932 . S
C208 C204 1.308 . S
C208 C207 1.394 . S
C208 H235 0.929 . S
C209 Tb200 2.764 . S
C209 C203 1.504 1_455 S
C209 O221 1.239 . S
C209 O222 1.263 . S
O210 Tb200 2.325 . S
O210 C220 1.236 . S
O211 Tb201 2.322 . S
O211 C220 1.257 . S
O212 Tb201 2.349 . S
O212 C223 1.261 . S
O213 Tb200 2.303 . S
O213 C223 1.257 . S
O214 Tb201 2.415 . S
O214 C230 1.239 . S
O215 Tb201 2.399 . S
O215 C230 1.263 . S
O216 Tb201 2.325 . S
O216 C231 1.236 . S
O217 Tb200 2.322 . S
O217 C231 1.257 . S
O218 Tb200 2.349 . S
O218 C202 1.261 . S
O219 Tb201 2.303 . S
O219 C202 1.257 . S
C220 O210 1.236 . S
C220 O211 1.257 . S
O221 Tb200 2.415 . S
O221 C209 1.239 . S
O222 Tb200 2.399 . S
O222 C209 1.263 . S
C223 O212 1.261 . S
C223 O213 1.257 . S
C224 C227 1.358 . S
C224 C228 1.332 . S
C224 C230 1.504 . S
C225 C226 1.373 . S
C225 C229 1.308 . S
C226 C225 1.373 . S
C226 C227 1.429 . S
C226 H236 0.932 . S
C227 C224 1.358 . S
C227 C226 1.429 . S
C227 H237 0.930 . S
C228 C224 1.332 . S
C228 C229 1.394 . S
C228 H238 0.932 . S
C229 C225 1.308 . S
C229 C228 1.394 . S
C229 H239 0.929 . S
C230 Tb201 2.764 . S
C230 O214 1.239 . S
C230 O215 1.263 . S
C230 C224 1.504 . S
C231 O216 1.236 . S
C231 O217 1.257 . S
H232 C205 0.932 . S
H233 C206 0.930 . S
H234 C207 0.932 . S
H235 C208 0.929 . S
H236 C226 0.932 . S
H237 C227 0.930 . S
H238 C228 0.932 . S
H239 C229 0.929 . S
Tb240 C249 2.764 . S
Tb240 O250 2.325 . S
Tb240 O253 2.303 . S
Tb240 O257 2.322 . S
Tb240 O258 2.349 . S
Tb240 O261 2.415 . S
Tb240 O262 2.399 . S
Tb241 O251 2.322 . S
Tb241 O252 2.349 . S
Tb241 O254 2.415 . S
Tb241 O255 2.399 . S
Tb241 O256 2.325 . S
Tb241 O259 2.303 . S
Tb241 C270 2.764 . S
C242 O258 1.261 . S
C242 O259 1.257 . S
C243 C246 1.358 . S
C243 C247 1.332 . S
C243 C249 1.504 . S
C244 C245 1.373 . S
C244 C248 1.308 . S
C245 C244 1.373 . S
C245 C246 1.429 . S
C245 H272 0.932 . S
C246 C243 1.358 . S
C246 C245 1.429 . S
C246 H273 0.930 . S
C247 C243 1.332 . S
C247 C248 1.394 . S
C247 H274 0.932 . S
C248 C244 1.308 . S
C248 C247 1.394 . S
C248 H275 0.929 . S
C249 Tb240 2.764 . S
C249 C243 1.504 . S
C249 O261 1.239 . S
C249 O262 1.263 . S
O250 Tb240 2.325 . S
O250 C260 1.236 . S
O251 Tb241 2.322 . S
O251 C260 1.257 . S
O252 Tb241 2.349 . S
O252 C263 1.261 . S
O253 Tb240 2.303 . S
O253 C263 1.257 . S
O254 Tb241 2.415 . S
O254 C270 1.239 . S
O255 Tb241 2.399 . S
O255 C270 1.263 . S
O256 Tb241 2.325 . S
O256 C271 1.236 . S
O257 Tb240 2.322 . S
O257 C271 1.257 . S
O258 Tb240 2.349 . S
O258 C242 1.261 . S
O259 Tb241 2.303 . S
O259 C242 1.257 . S
C260 O250 1.236 . S
C260 O251 1.257 . S
O261 Tb240 2.415 . S
O261 C249 1.239 . S
O262 Tb240 2.399 . S
O262 C249 1.263 . S
C263 O252 1.261 . S
C263 O253 1.257 . S
C264 C267 1.358 . S
C264 C268 1.332 . S
C264 C270 1.504 . S
C265 C266 1.373 . S
C265 C269 1.308 . S
C266 C265 1.373 . S
C266 C267 1.429 . S
C266 H276 0.932 . S
C267 C264 1.358 . S
C267 C266 1.429 . S
C267 H277 0.930 . S
C268 C264 1.332 . S
C268 C269 1.394 . S
C268 H278 0.932 . S
C269 C265 1.308 . S
C269 C268 1.394 . S
C269 H279 0.929 . S
C270 Tb241 2.764 . S
C270 O254 1.239 . S
C270 O255 1.263 . S
C270 C264 1.504 . S
C271 O256 1.236 . S
C271 O257 1.257 . S
H272 C245 0.932 . S
H273 C246 0.930 . S
H274 C247 0.932 . S
H275 C248 0.929 . S
H276 C266 0.932 . S
H277 C267 0.930 . S
H278 C268 0.932 . S
H279 C269 0.929 . S
Tb280 C289 2.764 1_655 S
Tb280 O290 2.325 . S
Tb280 O293 2.303 . S
Tb280 O297 2.322 . S
Tb280 O298 2.349 . S
Tb280 O301 2.415 . S
Tb280 O302 2.399 . S
Tb281 O291 2.322 . S
Tb281 O292 2.349 . S
Tb281 O294 2.415 . S
Tb281 O295 2.399 . S
Tb281 O296 2.325 . S
Tb281 O299 2.303 . S
Tb281 C310 2.764 . S
C282 O298 1.261 . S
C282 O299 1.257 . S
C283 C286 1.358 . S
C283 C287 1.332 . S
C283 C289 1.504 . S
C284 C285 1.373 . S
C284 C288 1.308 . S
C285 C284 1.373 . S
C285 C286 1.429 . S
C285 H312 0.932 . S
C286 C283 1.358 . S
C286 C285 1.429 . S
C286 H313 0.930 . S
C287 C283 1.332 . S
C287 C288 1.394 . S
C287 H314 0.932 . S
C288 C284 1.308 . S
C288 C287 1.394 . S
C288 H315 0.929 . S
C289 Tb280 2.764 1_455 S
C289 C283 1.504 . S
C289 O301 1.239 1_455 S
C289 O302 1.263 1_455 S
O290 Tb280 2.325 . S
O290 C300 1.236 . S
O291 Tb281 2.322 . S
O291 C300 1.257 . S
O292 Tb281 2.349 . S
O292 C303 1.261 . S
O293 Tb280 2.303 . S
O293 C303 1.257 . S
O294 Tb281 2.415 . S
O294 C310 1.239 . S
O295 Tb281 2.399 . S
O295 C310 1.263 . S
O296 Tb281 2.325 . S
O296 C311 1.236 . S
O297 Tb280 2.322 . S
O297 C311 1.257 . S
O298 Tb280 2.349 . S
O298 C282 1.261 . S
O299 Tb281 2.303 . S
O299 C282 1.257 . S
C300 O290 1.236 . S
C300 O291 1.257 . S
O301 Tb280 2.415 . S
O301 C289 1.239 1_655 S
O302 Tb280 2.399 . S
O302 C289 1.263 1_655 S
C303 O292 1.261 . S
C303 O293 1.257 . S
C304 C307 1.358 . S
C304 C308 1.332 . S
C304 C310 1.504 . S
C305 C306 1.373 . S
C305 C309 1.308 . S
C306 C305 1.373 . S
C306 C307 1.429 . S
C306 H316 0.932 . S
C307 C304 1.358 . S
C307 C306 1.429 . S
C307 H317 0.930 . S
C308 C304 1.332 . S
C308 C309 1.394 . S
C308 H318 0.932 . S
C309 C305 1.308 . S
C309 C308 1.394 . S
C309 H319 0.929 . S
C310 Tb281 2.764 . S
C310 O294 1.239 . S
C310 O295 1.263 . S
C310 C304 1.504 . S
C311 O296 1.236 . S
C311 O297 1.257 . S
H312 C285 0.932 . S
H313 C286 0.930 . S
H314 C287 0.932 . S
H315 C288 0.929 . S
H316 C306 0.932 . S
H317 C307 0.930 . S
H318 C308 0.932 . S
H319 C309 0.929 . S
Tb320 C329 2.764 . S
Tb320 O330 2.325 . S
Tb320 O333 2.303 . S
Tb320 O337 2.322 . S
Tb320 O338 2.349 . S
Tb320 O341 2.415 . S
Tb320 O342 2.399 . S
Tb321 O331 2.322 . S
Tb321 O332 2.349 . S
Tb321 O334 2.415 . S
Tb321 O335 2.399 . S
Tb321 O336 2.325 . S
Tb321 O339 2.303 . S
Tb321 C350 2.764 . S
C322 O338 1.261 . S
C322 O339 1.257 . S
C323 C326 1.358 . S
C323 C327 1.332 . S
C323 C329 1.504 . S
C324 C325 1.373 . S
C324 C328 1.308 . S
C325 C324 1.373 . S
C325 C326 1.429 . S
C325 H352 0.932 . S
C326 C323 1.358 . S
C326 C325 1.429 . S
C326 H353 0.930 . S
C327 C323 1.332 . S
C327 C328 1.394 . S
C327 H354 0.932 . S
C328 C324 1.308 . S
C328 C327 1.394 . S
C328 H355 0.929 . S
C329 Tb320 2.764 . S
C329 C323 1.504 . S
C329 O341 1.239 . S
C329 O342 1.263 . S
O330 Tb320 2.325 . S
O330 C340 1.236 . S
O331 Tb321 2.322 . S
O331 C340 1.257 . S
O332 Tb321 2.349 . S
O332 C343 1.261 . S
O333 Tb320 2.303 . S
O333 C343 1.257 . S
O334 Tb321 2.415 . S
O334 C350 1.239 . S
O335 Tb321 2.399 . S
O335 C350 1.263 . S
O336 Tb321 2.325 . S
O336 C351 1.236 . S
O337 Tb320 2.322 . S
O337 C351 1.257 . S
O338 Tb320 2.349 . S
O338 C322 1.261 . S
O339 Tb321 2.303 . S
O339 C322 1.257 . S
C340 O330 1.236 . S
C340 O331 1.257 . S
O341 Tb320 2.415 . S
O341 C329 1.239 . S
O342 Tb320 2.399 . S
O342 C329 1.263 . S
C343 O332 1.261 . S
C343 O333 1.257 . S
C344 C347 1.358 . S
C344 C348 1.332 . S
C344 C350 1.504 . S
C345 C346 1.373 . S
C345 C349 1.308 1_455 S
C346 C345 1.373 . S
C346 C347 1.429 1_455 S
C346 H356 0.932 . S
C347 C344 1.358 . S
C347 C346 1.429 1_655 S
C347 H357 0.930 . S
C348 C344 1.332 . S
C348 C349 1.394 . S
C348 H358 0.932 . S
C349 C345 1.308 1_655 S
C349 C348 1.394 . S
C349 H359 0.931 1_655 S
C350 Tb321 2.764 . S
C350 O334 1.239 . S
C350 O335 1.263 . S
C350 C344 1.504 . S
C351 O336 1.236 . S
C351 O337 1.257 . S
H352 C325 0.932 . S
H353 C326 0.930 . S
H354 C327 0.932 . S
H355 C328 0.929 . S
H356 C346 0.932 . S
H357 C347 0.930 . S
H358 C348 0.932 . S
H359 C349 0.931 1_455 S
H360 C366 0.930 . S
H361 C369 0.930 . S
H362 C370 0.930 . S
H363 C371 0.930 . S
H364 C374 0.930 . S
H365 C375 0.930 . S
C366 H360 0.930 . S
C366 C367 1.355 . S
C366 C368 1.415 . S
C367 C366 1.355 . S
C367 C369 1.419 1_556 S
C368 C366 1.415 . S
C368 C373 1.426 . S
C368 C375 1.409 . S
C369 H361 0.930 . S
C369 C367 1.419 1_554 S
C369 C370 1.362 . S
C370 H362 0.930 . S
C370 C369 1.362 . S
C370 C373 1.409 1_554 S
C371 H363 0.930 . S
C371 C372 1.355 1_554 S
C371 C373 1.414 1_554 S
C372 C371 1.355 1_556 S
C372 C374 1.419 . S
C373 C368 1.426 . S
C373 C370 1.409 1_556 S
C373 C371 1.414 1_556 S
C374 H364 0.930 . S
C374 C372 1.419 . S
C374 C375 1.362 . S
C375 H365 0.930 . S
C375 C368 1.409 . S
C375 C374 1.362 . S
H376 C382 0.930 . S
H377 C385 0.930 . S
H378 C386 0.930 . S
H379 C387 0.930 . S
H380 C390 0.930 . S
H381 C391 0.930 . S
C382 H376 0.930 . S
C382 C383 1.355 . S
C382 C384 1.415 . S
C383 C382 1.355 . S
C383 C385 1.419 1_554 S
C384 C382 1.415 . S
C384 C389 1.425 1_554 S
C384 C391 1.409 . S
C385 H377 0.930 . S
C385 C383 1.419 1_556 S
C385 C386 1.362 . S
C386 H378 0.930 . S
C386 C385 1.362 . S
C386 C389 1.409 . S
C387 H379 0.930 . S
C387 C388 1.355 1_556 S
C387 C389 1.415 . S
C388 C387 1.355 1_554 S
C388 C390 1.419 . S
C389 C384 1.425 1_556 S
C389 C386 1.409 . S
C389 C387 1.415 . S
C390 H380 0.930 . S
C390 C388 1.419 . S
C390 C391 1.362 . S
C391 H381 0.930 . S
C391 C384 1.409 . S
C391 C390 1.362 . S
H392 C398 0.930 . S
H393 C401 0.930 . S
H394 C402 0.930 . S
H395 C403 0.930 . S
H396 C406 0.930 . S
H397 C407 0.930 . S
C398 H392 0.930 . S
C398 C399 1.355 1_554 S
C398 C400 1.415 . S
C399 C398 1.355 1_556 S
C399 C401 1.419 . S
C400 C398 1.415 . S
C400 C405 1.425 1_554 S
C400 C407 1.409 . S
C401 H393 0.930 . S
C401 C399 1.419 . S
C401 C402 1.362 . S
C402 H394 0.930 . S
C402 C401 1.362 . S
C402 C405 1.409 . S
C403 H395 0.930 . S
C403 C404 1.355 1_556 S
C403 C405 1.415 . S
C404 C403 1.355 1_554 S
C404 C406 1.419 . S
C405 C400 1.425 1_556 S
C405 C402 1.409 . S
C405 C403 1.415 . S
C406 H396 0.930 . S
C406 C404 1.419 . S
C406 C407 1.362 . S
C407 H397 0.930 . S
C407 C400 1.409 . S
C407 C406 1.362 . S
H408 C414 0.930 . S
H409 C417 0.930 . S
H410 C418 0.930 . S
H411 C419 0.930 . S
H412 C422 0.930 . S
H413 C423 0.930 . S
C414 H408 0.930 . S
C414 C415 1.355 1_556 S
C414 C416 1.415 . S
C415 C414 1.355 1_554 S
C415 C417 1.419 . S
C416 C414 1.415 . S
C416 C421 1.425 1_556 S
C416 C423 1.409 . S
C417 H409 0.930 . S
C417 C415 1.419 . S
C417 C418 1.362 . S
C418 H410 0.930 . S
C418 C417 1.362 . S
C418 C421 1.409 . S
C419 H411 0.930 . S
C419 C420 1.355 . S
C419 C421 1.415 . S
C420 C419 1.355 . S
C420 C422 1.419 1_554 S
C421 C416 1.425 1_554 S
C421 C418 1.409 . S
C421 C419 1.415 . S
C422 H412 0.930 . S
C422 C420 1.419 1_556 S
C422 C423 1.362 . S
C423 H413 0.930 . S
C423 C416 1.409 . S
C423 C422 1.362 . S
H424 C430 0.930 . S
H425 C433 0.930 . S
H426 C434 0.930 . S
H427 C435 0.930 . S
H428 C438 0.930 . S
H429 C439 0.930 . S
C430 H424 0.930 . S
C430 C431 1.355 . S
C430 C432 1.415 . S
C431 C430 1.355 . S
C431 C433 1.419 . S
C432 C430 1.415 . S
C432 C437 1.425 . S
C432 C439 1.409 . S
C433 H425 0.930 . S
C433 C431 1.419 . S
C433 C434 1.362 . S
C434 H426 0.930 . S
C434 C433 1.362 . S
C434 C437 1.409 . S
C435 H427 0.930 . S
C435 C436 1.355 . S
C435 C437 1.415 . S
C436 C435 1.355 . S
C436 C438 1.419 . S
C437 C432 1.425 . S
C437 C434 1.409 . S
C437 C435 1.415 . S
C438 H428 0.930 . S
C438 C436 1.419 . S
C438 C439 1.362 . S
C439 H429 0.930 . S
C439 C432 1.409 . S
C439 C438 1.362 . S
H440 C446 0.930 . S
H441 C449 0.930 . S
H442 C450 0.930 . S
H443 C451 0.930 . S
H444 C454 0.930 . S
H445 C455 0.930 . S
C446 H440 0.930 . S
C446 C447 1.355 . S
C446 C448 1.415 . S
C447 C446 1.355 . S
C447 C449 1.419 . S
C448 C446 1.415 . S
C448 C453 1.425 . S
C448 C455 1.409 . S
C449 H441 0.930 . S
C449 C447 1.419 . S
C449 C450 1.362 . S
C450 H442 0.930 . S
C450 C449 1.362 . S
C450 C453 1.409 . S
C451 H443 0.930 . S
C451 C452 1.355 . S
C451 C453 1.415 . S
C452 C451 1.355 . S
C452 C454 1.419 . S
C453 C448 1.425 . S
C453 C450 1.409 . S
C453 C451 1.415 . S
C454 H444 0.930 . S
C454 C452 1.419 . S
C454 C455 1.362 . S
C455 H445 0.930 . S
C455 C448 1.409 . S
C455 C454 1.362 . S
H456 C462 0.930 . S
H457 C465 0.930 . S
H458 C466 0.930 . S
H459 C467 0.930 . S
H460 C470 0.930 . S
H461 C471 0.930 . S
C462 H456 0.930 . S
C462 C463 1.355 . S
C462 C464 1.415 1_655 S
C463 C462 1.355 . S
C463 C465 1.419 . S
C464 C462 1.415 1_455 S
C464 C469 1.425 . S
C464 C471 1.409 . S
C465 H457 0.930 . S
C465 C463 1.419 . S
C465 C466 1.362 . S
C466 H458 0.930 . S
C466 C465 1.362 . S
C466 C469 1.409 1_655 S
C467 H459 0.930 . S
C467 C468 1.355 . S
C467 C469 1.415 . S
C468 C467 1.355 . S
C468 C470 1.419 . S
C469 C464 1.425 . S
C469 C466 1.409 1_455 S
C469 C467 1.415 . S
C470 H460 0.930 . S
C470 C468 1.419 . S
C470 C471 1.362 . S
C471 H461 0.930 . S
C471 C464 1.409 . S
C471 C470 1.362 . S
H472 C478 0.930 . S
H473 C481 0.930 . S
H474 C482 0.930 . S
H475 C483 0.930 . S
H476 C486 0.930 . S
H477 C487 0.930 . S
C478 H472 0.930 . S
C478 C479 1.355 . S
C478 C480 1.415 . S
C479 C478 1.355 . S
C479 C481 1.419 . S
C480 C478 1.415 . S
C480 C485 1.425 . S
C480 C487 1.409 . S
C481 H473 0.930 . S
C481 C479 1.419 . S
C481 C482 1.362 . S
C482 H474 0.930 . S
C482 C481 1.362 . S
C482 C485 1.409 . S
C483 H475 0.930 . S
C483 C484 1.355 . S
C483 C485 1.415 . S
C484 C483 1.355 . S
C484 C486 1.419 . S
C485 C480 1.425 . S
C485 C482 1.409 . S
C485 C483 1.415 . S
C486 H476 0.930 . S
C486 C484 1.419 . S
C486 C487 1.362 . S
C487 H477 0.930 . S
C487 C480 1.409 . S
C487 C486 1.362 . S
H488 C494 0.930 . S
H489 C497 0.930 . S
H490 C498 0.930 . S
H491 C499 0.930 . S
H492 C502 0.930 . S
H493 C503 0.930 . S
C494 H488 0.930 . S
C494 C495 1.355 . S
C494 C496 1.415 1_545 S
C495 C494 1.355 . S
C495 C497 1.419 . S
C496 C494 1.415 1_565 S
C496 C501 1.425 . S
C496 C503 1.409 . S
C497 H489 0.930 . S
C497 C495 1.419 . S
C497 C498 1.362 . S
C498 H490 0.930 . S
C498 C497 1.362 . S
C498 C501 1.409 1_545 S
C499 H491 0.930 . S
C499 C500 1.355 . S
C499 C501 1.415 . S
C500 C499 1.355 . S
C500 C502 1.419 . S
C501 C496 1.425 . S
C501 C498 1.409 1_565 S
C501 C499 1.415 . S
C502 H492 0.930 . S
C502 C500 1.419 . S
C502 C503 1.362 . S
C503 H493 0.930 . S
C503 C496 1.409 . S
C503 C502 1.362 . S
H504 C510 0.930 . S
H505 C513 0.930 . S
H506 C514 0.930 . S
H507 C515 0.930 . S
H508 C518 0.930 . S
H509 C519 0.930 . S
C510 H504 0.930 . S
C510 C511 1.355 . S
C510 C512 1.415 . S
C511 C510 1.355 . S
C511 C513 1.419 . S
C512 C510 1.415 . S
C512 C517 1.425 . S
C512 C519 1.409 . S
C513 H505 0.930 . S
C513 C511 1.419 . S
C513 C514 1.362 . S
C514 H506 0.930 . S
C514 C513 1.362 . S
C514 C517 1.409 . S
C515 H507 0.930 . S
C515 C516 1.355 . S
C515 C517 1.415 . S
C516 C515 1.355 . S
C516 C518 1.419 . S
C517 C512 1.425 . S
C517 C514 1.409 . S
C517 C515 1.415 . S
C518 H508 0.930 . S
C518 C516 1.419 . S
C518 C519 1.362 . S
C519 H509 0.930 . S
C519 C512 1.409 . S
C519 C518 1.362 . S
H520 C526 0.930 . S
H521 C529 0.930 . S
H522 C530 0.930 . S
H523 C531 0.930 . S
H524 C534 0.930 . S
H525 C535 0.930 . S
C526 H520 0.930 . S
C526 C527 1.355 . S
C526 C528 1.415 . S
C527 C526 1.355 . S
C527 C529 1.419 . S
C528 C526 1.415 . S
C528 C533 1.425 . S
C528 C535 1.409 . S
C529 H521 0.930 . S
C529 C527 1.419 . S
C529 C530 1.362 . S
C530 H522 0.930 . S
C530 C529 1.362 . S
C530 C533 1.409 . S
C531 H523 0.930 . S
C531 C532 1.355 . S
C531 C533 1.415 . S
C532 C531 1.355 . S
C532 C534 1.419 . S
C533 C528 1.425 . S
C533 C530 1.409 . S
C533 C531 1.415 . S
C534 H524 0.930 . S
C534 C532 1.419 . S
C534 C535 1.362 . S
C535 H525 0.930 . S
C535 C528 1.409 . S
C535 C534 1.362 . S
H536 C542 0.930 . S
H537 C545 0.930 . S
H538 C546 0.930 . S
H539 C547 0.930 . S
H540 C550 0.930 . S
H541 C551 0.930 . S
C542 H536 0.930 . S
C542 C543 1.355 . S
C542 C544 1.415 . S
C543 C542 1.355 . S
C543 C545 1.419 . S
C544 C542 1.415 . S
C544 C549 1.425 . S
C544 C551 1.409 . S
C545 H537 0.930 . S
C545 C543 1.419 . S
C545 C546 1.362 . S
C546 H538 0.930 . S
C546 C545 1.362 . S
C546 C549 1.409 . S
C547 H539 0.930 . S
C547 C548 1.355 . S
C547 C549 1.415 . S
C548 C547 1.355 . S
C548 C550 1.419 . S
C549 C544 1.425 . S
C549 C546 1.409 . S
C549 C547 1.415 . S
C550 H540 0.930 . S
C550 C548 1.419 . S
C550 C551 1.362 . S
C551 H541 0.930 . S
C551 C544 1.409 . S
C551 C550 1.362 . S
H552 C558 0.930 . S
H553 C561 0.930 . S
H554 C562 0.930 . S
H555 C563 0.930 . S
H556 C566 0.930 . S
H557 C567 0.930 . S
C558 H552 0.930 . S
C558 C559 1.355 . S
C558 C560 1.415 . S
C559 C558 1.355 . S
C559 C561 1.419 . S
C560 C558 1.415 . S
C560 C565 1.425 . S
C560 C567 1.409 . S
C561 H553 0.930 . S
C561 C559 1.419 . S
C561 C562 1.362 . S
C562 H554 0.930 . S
C562 C561 1.362 . S
C562 C565 1.409 . S
C563 H555 0.930 . S
C563 C564 1.355 . S
C563 C565 1.415 . S
C564 C563 1.355 . S
C564 C566 1.419 . S
C565 C560 1.425 . S
C565 C562 1.409 . S
C565 C563 1.415 . S
C566 H556 0.930 . S
C566 C564 1.419 . S
C566 C567 1.362 . S
C567 H557 0.930 . S
C567 C560 1.409 . S
C567 C566 1.362 . S
H568 C574 0.930 . S
H569 C577 0.930 . S
H570 C578 0.930 . S
H571 C579 0.930 . S
H572 C582 0.930 . S
H573 C583 0.930 . S
C574 H568 0.930 . S
C574 C575 1.355 . S
C574 C576 1.415 . S
C575 C574 1.355 . S
C575 C577 1.419 . S
C576 C574 1.415 . S
C576 C581 1.425 . S
C576 C583 1.409 . S
C577 H569 0.930 . S
C577 C575 1.419 . S
C577 C578 1.362 . S
C578 H570 0.930 . S
C578 C577 1.362 . S
C578 C581 1.409 . S
C579 H571 0.930 . S
C579 C580 1.355 . S
C579 C581 1.415 . S
C580 C579 1.355 . S
C580 C582 1.419 . S
C581 C576 1.425 . S
C581 C578 1.409 . S
C581 C579 1.415 . S
C582 H572 0.930 . S
C582 C580 1.419 . S
C582 C583 1.362 . S
C583 H573 0.930 . S
C583 C576 1.409 . S
C583 C582 1.362 . S
H584 C590 0.930 . S
H585 C593 0.930 . S
H586 C594 0.930 . S
H587 C595 0.930 . S
H588 C598 0.930 . S
H589 C599 0.930 . S
C590 H584 0.930 . S
C590 C591 1.355 . S
C590 C592 1.415 . S
C591 C590 1.355 . S
C591 C593 1.419 . S
C592 C590 1.415 . S
C592 C597 1.425 . S
C592 C599 1.409 . S
C593 H585 0.930 . S
C593 C591 1.419 . S
C593 C594 1.362 . S
C594 H586 0.930 . S
C594 C593 1.362 . S
C594 C597 1.409 . S
C595 H587 0.930 . S
C595 C596 1.355 . S
C595 C597 1.415 . S
C596 C595 1.355 . S
C596 C598 1.419 . S
C597 C592 1.425 . S
C597 C594 1.409 . S
C597 C595 1.415 . S
C598 H588 0.930 . S
C598 C596 1.419 . S
C598 C599 1.362 . S
C599 H589 0.930 . S
C599 C592 1.409 . S
C599 C598 1.362 . S
H600 C606 0.930 . S
H601 C609 0.930 . S
H602 C610 0.930 . S
H603 C611 0.930 . S
H604 C614 0.930 . S
H605 C615 0.930 . S
C606 H600 0.930 . S
C606 C607 1.355 . S
C606 C608 1.415 . S
C607 C606 1.355 . S
C607 C609 1.419 . S
C608 C606 1.415 . S
C608 C613 1.425 . S
C608 C615 1.409 . S
C609 H601 0.930 . S
C609 C607 1.419 . S
C609 C610 1.362 . S
C610 H602 0.930 . S
C610 C609 1.362 . S
C610 C613 1.409 . S
C611 H603 0.930 . S
C611 C612 1.355 . S
C611 C613 1.415 1_545 S
C612 C611 1.355 . S
C612 C614 1.419 . S
C613 C608 1.425 . S
C613 C610 1.409 . S
C613 C611 1.415 1_565 S
C614 H604 0.930 . S
C614 C612 1.419 . S
C614 C615 1.362 1_545 S
C615 H605 0.930 . S
C615 C608 1.409 . S
C615 C614 1.362 1_565 S
H616 C622 0.930 . S
H617 C625 0.915 1_545 S
H618 C626 0.930 . S
H619 C627 0.930 . S
H620 C630 0.930 . S
H621 C631 0.930 . S
C622 H616 0.930 . S
C622 C623 1.355 . S
C622 C624 1.415 . S
C623 C622 1.355 . S
C623 C625 1.429 . S
C624 C622 1.415 . S
C624 C629 1.425 . S
C624 C631 1.409 . S
C625 H617 0.915 1_565 S
C625 C623 1.429 . S
C625 C626 1.367 1_565 S
C626 H618 0.930 . S
C626 C625 1.367 1_545 S
C626 C629 1.409 1_545 S
C627 H619 0.930 . S
C627 C628 1.355 1_545 S
C627 C629 1.415 1_545 S
C628 C627 1.355 1_565 S
C628 C630 1.419 . S
C629 C624 1.425 . S
C629 C626 1.409 1_565 S
C629 C627 1.415 1_565 S
C630 H620 0.930 . S
C630 C628 1.419 . S
C630 C631 1.362 . S
C631 H621 0.930 . S
C631 C624 1.409 . S
C631 C630 1.362 . S
H632 C638 0.930 . S
H633 C641 0.930 . S
H634 C642 0.930 . S
H635 C643 0.930 . S
H636 C646 0.930 . S
H637 C647 0.930 . S
C638 H632 0.930 . S
C638 C639 1.355 . S
C638 C640 1.415 . S
C639 C638 1.355 . S
C639 C641 1.419 . S
C640 C638 1.415 . S
C640 C645 1.425 . S
C640 C647 1.409 . S
C641 H633 0.930 . S
C641 C639 1.419 . S
C641 C642 1.362 . S
C642 H634 0.930 . S
C642 C641 1.362 . S
C642 C645 1.409 . S
C643 H635 0.930 . S
C643 C644 1.355 . S
C643 C645 1.415 . S
C644 C643 1.355 . S
C644 C646 1.419 . S
C645 C640 1.425 . S
C645 C642 1.409 . S
C645 C643 1.415 . S
C646 H636 0.930 . S
C646 C644 1.419 . S
C646 C647 1.362 . S
C647 H637 0.930 . S
C647 C640 1.409 . S
C647 C646 1.362 . S
H648 C654 0.930 . S
H649 C657 0.930 . S
H650 C658 0.930 . S
H651 C659 0.930 . S
H652 C662 0.930 . S
H653 C663 0.930 . S
C654 H648 0.930 . S
C654 C655 1.355 . S
C654 C656 1.415 . S
C655 C654 1.355 . S
C655 C657 1.419 . S
C656 C654 1.415 . S
C656 C661 1.425 . S
C656 C663 1.409 . S
C657 H649 0.930 . S
C657 C655 1.419 . S
C657 C658 1.362 . S
C658 H650 0.930 . S
C658 C657 1.362 . S
C658 C661 1.409 . S
C659 H651 0.930 . S
C659 C660 1.355 . S
C659 C661 1.415 . S
C660 C659 1.355 . S
C660 C662 1.419 . S
C661 C656 1.425 . S
C661 C658 1.409 . S
C661 C659 1.415 . S
C662 H652 0.930 . S
C662 C660 1.419 . S
C662 C663 1.362 . S
C663 H653 0.930 . S
C663 C656 1.409 . S
C663 C662 1.362 . S
H664 C670 0.930 . S
H665 C673 0.930 . S
H666 C674 0.930 . S
H667 C675 0.930 . S
H668 C678 0.930 . S
H669 C679 0.930 . S
C670 H664 0.930 . S
C670 C671 1.355 . S
C670 C672 1.415 . S
C671 C670 1.355 . S
C671 C673 1.419 . S
C672 C670 1.415 . S
C672 C677 1.425 . S
C672 C679 1.409 . S
C673 H665 0.930 . S
C673 C671 1.419 . S
C673 C674 1.362 . S
C674 H666 0.930 . S
C674 C673 1.362 . S
C674 C677 1.409 . S
C675 H667 0.930 . S
C675 C676 1.355 . S
C675 C677 1.415 . S
C676 C675 1.355 . S
C676 C678 1.419 . S
C677 C672 1.425 . S
C677 C674 1.409 . S
C677 C675 1.415 . S
C678 H668 0.930 . S
C678 C676 1.419 . S
C678 C679 1.362 . S
C679 H669 0.930 . S
C679 C672 1.409 . S
C679 C678 1.362 . S
H680 C686 0.930 . S
H681 C689 0.930 1_545 S
H682 C690 0.930 1_545 S
H683 C691 0.930 . S
H684 C694 0.930 . S
H685 C695 0.930 . S
C686 H680 0.930 . S
C686 C687 1.355 . S
C686 C688 1.415 . S
C687 C686 1.355 . S
C687 C689 1.419 . S
C688 C686 1.415 . S
C688 C693 1.425 . S
C688 C695 1.409 . S
C689 H681 0.930 1_565 S
C689 C687 1.419 . S
C689 C690 1.362 . S
C690 H682 0.930 1_565 S
C690 C689 1.362 . S
C690 C693 1.409 . S
C691 H683 0.930 . S
C691 C692 1.355 . S
C691 C693 1.415 . S
C692 C691 1.355 . S
C692 C694 1.419 . S
C693 C688 1.425 . S
C693 C690 1.409 . S
C693 C691 1.415 . S
C694 H684 0.930 . S
C694 C692 1.419 . S
C694 C695 1.362 . S
C695 H685 0.930 . S
C695 C688 1.409 . S
C695 C694 1.362 . S
H696 C702 0.930 . S
H697 C705 0.937 . S
H698 C706 0.930 1_565 S
H699 C707 0.930 . S
H700 C710 0.930 . S
H701 C711 0.930 . S
C702 H696 0.930 . S
C702 C703 1.355 . S
C702 C704 1.415 . S
C703 C702 1.355 . S
C703 C705 1.416 1_545 S
C704 C702 1.415 . S
C704 C709 1.425 . S
C704 C711 1.409 . S
C705 H697 0.937 . S
C705 C703 1.416 1_565 S
C705 C706 1.358 1_565 S
C706 H698 0.930 1_545 S
C706 C705 1.358 1_545 S
C706 C709 1.409 . S
C707 H699 0.930 . S
C707 C708 1.355 . S
C707 C709 1.415 . S
C708 C707 1.355 . S
C708 C710 1.419 . S
C709 C704 1.425 . S
C709 C706 1.409 . S
C709 C707 1.415 . S
C710 H700 0.930 . S
C710 C708 1.419 . S
C710 C711 1.362 . S
C711 H701 0.930 . S
C711 C704 1.409 . S
C711 C710 1.362 . S
H712 C718 0.930 . S
H713 C721 0.930 . S
H714 C722 0.930 . S
H715 C723 0.930 . S
H716 C726 0.930 . S
H717 C727 0.930 . S
C718 H712 0.930 . S
C718 C719 1.355 . S
C718 C720 1.415 . S
C719 C718 1.355 . S
C719 C721 1.419 . S
C720 C718 1.415 . S
C720 C725 1.425 . S
C720 C727 1.409 . S
C721 H713 0.930 . S
C721 C719 1.419 . S
C721 C722 1.362 . S
C722 H714 0.930 . S
C722 C721 1.362 . S
C722 C725 1.409 . S
C723 H715 0.930 . S
C723 C724 1.355 . S
C723 C725 1.415 . S
C724 C723 1.355 . S
C724 C726 1.419 . S
C725 C720 1.425 . S
C725 C722 1.409 . S
C725 C723 1.415 . S
C726 H716 0.930 . S
C726 C724 1.419 . S
C726 C727 1.362 . S
C727 H717 0.930 . S
C727 C720 1.409 . S
C727 C726 1.362 . S
H728 C734 0.930 . S
H729 C737 0.930 . S
H730 C738 0.930 . S
H731 C739 0.930 . S
H732 C742 0.930 . S
H733 C743 0.930 . S
C734 H728 0.930 . S
C734 C735 1.355 . S
C734 C736 1.415 . S
C735 C734 1.355 . S
C735 C737 1.419 . S
C736 C734 1.415 . S
C736 C741 1.425 . S
C736 C743 1.409 . S
C737 H729 0.930 . S
C737 C735 1.419 . S
C737 C738 1.362 . S
C738 H730 0.930 . S
C738 C737 1.362 . S
C738 C741 1.409 . S
C739 H731 0.930 . S
C739 C740 1.355 . S
C739 C741 1.415 . S
C740 C739 1.355 . S
C740 C742 1.419 . S
C741 C736 1.425 . S
C741 C738 1.409 . S
C741 C739 1.415 . S
C742 H732 0.930 . S
C742 C740 1.419 . S
C742 C743 1.362 . S
C743 H733 0.930 . S
C743 C736 1.409 . S
C743 C742 1.362 . S
H744 C750 0.930 . S
H745 C753 0.930 . S
H746 C754 0.930 . S
H747 C755 0.930 . S
H748 C758 0.930 . S
H749 C759 0.930 . S
C750 H744 0.930 . S
C750 C751 1.355 . S
C750 C752 1.415 . S
C751 C750 1.355 . S
C751 C753 1.419 . S
C752 C750 1.415 . S
C752 C757 1.425 . S
C752 C759 1.409 . S
C753 H745 0.930 . S
C753 C751 1.419 . S
C753 C754 1.362 . S
C754 H746 0.930 . S
C754 C753 1.362 . S
C754 C757 1.409 . S
C755 H747 0.930 . S
C755 C756 1.355 . S
C755 C757 1.415 . S
C756 C755 1.355 . S
C756 C758 1.419 . S
C757 C752 1.425 . S
C757 C754 1.409 . S
C757 C755 1.415 . S
C758 H748 0.930 . S
C758 C756 1.419 . S
C758 C759 1.362 . S
C759 H749 0.930 . S
C759 C752 1.409 . S
C759 C758 1.362 . S
H760 C766 0.930 . S
H761 C769 0.930 . S
H762 C770 0.930 . S
H763 C771 0.930 . S
H764 C774 0.930 . S
H765 C775 0.930 . S
C766 H760 0.930 . S
C766 C767 1.355 . S
C766 C768 1.415 . S
C767 C766 1.355 . S
C767 C769 1.419 . S
C768 C766 1.415 . S
C768 C773 1.425 1_565 S
C768 C775 1.409 . S
C769 H761 0.930 . S
C769 C767 1.419 . S
C769 C770 1.362 1_565 S
C770 H762 0.930 . S
C770 C769 1.362 1_545 S
C770 C773 1.409 . S
C771 H763 0.930 . S
C771 C772 1.355 . S
C771 C773 1.415 . S
C772 C771 1.355 . S
C772 C774 1.419 . S
C773 C768 1.425 1_545 S
C773 C770 1.409 . S
C773 C771 1.415 . S
C774 H764 0.930 . S
C774 C772 1.419 . S
C774 C775 1.362 1_545 S
C775 H765 0.930 . S
C775 C768 1.409 . S
C775 C774 1.362 1_565 S
H776 C782 0.930 . S
H777 C785 0.930 . S
H778 C786 0.930 . S
H779 C787 0.930 . S
H780 C790 0.930 . S
H781 C791 0.930 . S
C782 H776 0.930 . S
C782 C783 1.355 . S
C782 C784 1.415 . S
C783 C782 1.355 . S
C783 C785 1.419 . S
C784 C782 1.415 . S
C784 C789 1.425 1_655 S
C784 C791 1.409 . S
C785 H777 0.930 . S
C785 C783 1.419 . S
C785 C786 1.362 1_655 S
C786 H778 0.930 . S
C786 C785 1.362 1_455 S
C786 C789 1.409 . S
C787 H779 0.930 . S
C787 C788 1.355 . S
C787 C789 1.415 . S
C788 C787 1.355 . S
C788 C790 1.419 . S
C789 C784 1.425 1_455 S
C789 C786 1.409 . S
C789 C787 1.415 . S
C790 H780 0.930 . S
C790 C788 1.419 . S
C790 C791 1.362 1_455 S
C791 H781 0.930 . S
C791 C784 1.409 . S
C791 C790 1.362 1_655 S
C367 C65 0.603 . S
C372 C4 0.620 1_556 S
C383 C100 3.424 . S
C388 C71 3.464 1_554 S
C399 C84 1.015 1_556 S
C404 C20 1.017 . S
C415 C111 3.054 . S
C420 C60 3.030 . S
C431 C105 2.152 . S
C436 C31 2.151 . S
C447 C25 0.735 . S
C452 C44 0.857 . S
C463 C124 2.871 . S
C468 C180 2.909 . S
C479 C220 0.903 . S
C484 C164 0.925 . S
C495 C204 0.880 . S
C500 C140 0.880 . S
C511 C185 0.376 . S
C516 C231 0.337 . S
C527 C225 2.229 . S
C532 C151 2.228 . S
C543 C191 2.353 . S
C548 C145 2.355 . S
C559 C305 0.758 . S
C564 C244 0.764 . S
C575 C311 3.500 . S
C580 C340 3.465 . S
C591 C324 1.011 . S
C596 C260 1.012 . S
C607 C351 2.998 . S
C612 C300 2.973 . S
C623 C345 2.165 . S
C628 C271 2.164 1_565 S
C639 C265 0.711 . S
C644 C284 0.834 . S
C655 C202 2.287 . S
C660 C23 2.642 . S
C671 C122 2.041 . S
C676 C42 1.936 . S
C687 C103 3.041 . S
C692 C162 2.846 . S
C703 C82 2.307 . S
C708 C263 2.655 . S
C719 C2 1.976 . S
C724 C282 1.954 . S
C735 C343 3.017 . S
C740 C63 3.054 . S
C751 C143 2.706 . S
C756 C322 2.354 . S
C767 C183 2.137 . S
C772 C242 1.936 . S
C783 C303 2.998 . S
C788 C223 2.969 . S
