# Generated by pormake.
# Topology smc, (6)-cn, num edge types: 1
# Building blocks:
#     Node 0, Type 0, BuildingBlock: BETDIP_clean_sbu_0, # of connection points: 6
#     Node 1, Type 0, BuildingBlock: BETDIP_clean_sbu_0, # of connection points: 6
#     Node 2, Type 0, BuildingBlock: BETDIP_clean_sbu_0, # of connection points: 6
#     Node 3, Type 0, BuildingBlock: BETDIP_clean_sbu_0, # of connection points: 6
#     Node 4, Type 0, BuildingBlock: BETDIP_clean_sbu_0, # of connection points: 6
#     Node 5, Type 0, BuildingBlock: BETDIP_clean_sbu_0, # of connection points: 6
#     Node 6, Type 0, BuildingBlock: BETDIP_clean_sbu_0, # of connection points: 6
#     Node 7, Type 0, BuildingBlock: BETDIP_clean_sbu_0, # of connection points: 6
#     Node 8, Type 0, BuildingBlock: BETDIP_clean_sbu_0, # of connection points: 6
#     Edge 9, Type (0, 0), BuildingBlock: UVAHIK_clean_linker_0, # of connection points: 2
#     Edge 10, Type (0, 0), BuildingBlock: UVAHIK_clean_linker_0, # of connection points: 2
#     Edge 11, Type (0, 0), BuildingBlock: UVAHIK_clean_linker_0, # of connection points: 2
#     Edge 12, Type (0, 0), BuildingBlock: UVAHIK_clean_linker_0, # of connection points: 2
#     Edge 13, Type (0, 0), BuildingBlock: UVAHIK_clean_linker_0, # of connection points: 2
#     Edge 14, Type (0, 0), BuildingBlock: UVAHIK_clean_linker_0, # of connection points: 2
#     Edge 15, Type (0, 0), BuildingBlock: UVAHIK_clean_linker_0, # of connection points: 2
#     Edge 16, Type (0, 0), BuildingBlock: UVAHIK_clean_linker_0, # of connection points: 2
#     Edge 17, Type (0, 0), BuildingBlock: UVAHIK_clean_linker_0, # of connection points: 2
#     Edge 18, Type (0, 0), BuildingBlock: UVAHIK_clean_linker_0, # of connection points: 2
#     Edge 19, Type (0, 0), BuildingBlock: UVAHIK_clean_linker_0, # of connection points: 2
#     Edge 20, Type (0, 0), BuildingBlock: UVAHIK_clean_linker_0, # of connection points: 2
#     Edge 21, Type (0, 0), BuildingBlock: UVAHIK_clean_linker_0, # of connection points: 2
#     Edge 22, Type (0, 0), BuildingBlock: UVAHIK_clean_linker_0, # of connection points: 2
#     Edge 23, Type (0, 0), BuildingBlock: UVAHIK_clean_linker_0, # of connection points: 2
#     Edge 24, Type (0, 0), BuildingBlock: UVAHIK_clean_linker_0, # of connection points: 2
#     Edge 25, Type (0, 0), BuildingBlock: UVAHIK_clean_linker_0, # of connection points: 2
#     Edge 26, Type (0, 0), BuildingBlock: UVAHIK_clean_linker_0, # of connection points: 2
#     Edge 27, Type (0, 0), BuildingBlock: UVAHIK_clean_linker_0, # of connection points: 2
#     Edge 28, Type (0, 0), BuildingBlock: UVAHIK_clean_linker_0, # of connection points: 2
#     Edge 29, Type (0, 0), BuildingBlock: UVAHIK_clean_linker_0, # of connection points: 2
#     Edge 30, Type (0, 0), BuildingBlock: UVAHIK_clean_linker_0, # of connection points: 2
#     Edge 31, Type (0, 0), BuildingBlock: UVAHIK_clean_linker_0, # of connection points: 2
#     Edge 32, Type (0, 0), BuildingBlock: UVAHIK_clean_linker_0, # of connection points: 2
#     Edge 33, Type (0, 0), BuildingBlock: UVAHIK_clean_linker_0, # of connection points: 2
#     Edge 34, Type (0, 0), BuildingBlock: UVAHIK_clean_linker_0, # of connection points: 2
#     Edge 35, Type (0, 0), BuildingBlock: UVAHIK_clean_linker_0, # of connection points: 2
# Relax obj value: 0.191
# Max RMSD: 0.304
# Mean RMSD: 0.304
data_MOF--net-smc--node1-BETDIP_clean_sbu_0--edge1-UVAHIK_clean_linker_0
_symmetry_space_group_name_H-M    P1
_symmetry_Int_Tables_number       1
_symmetry_cell_setting            triclinic
loop_
_symmetry_equiv_pos_as_xyz
'x, y, z'
_cell_length_a     47.882532
_cell_length_b     48.029895
_cell_length_c     51.12658
_cell_angle_alpha  90.07258
_cell_angle_beta   90.099192
_cell_angle_gamma 119.89183
loop_
_atom_site_label
_atom_site_type_symbol
_atom_site_fract_x
_atom_site_fract_y
_atom_site_fract_z
_atom_type_partial_charge
Tb0 Tb 0.04228 0.47646 1.021 0.0
Tb1 Tb 0.99452 0.40327 0.02517 0.0
C2 C 0.0866 0.53312 0.02286 0.0
C3 C 0.11276 0.56657 0.02399 0.0
C4 C 0.12471 0.58143 0.04823 0.0
C5 C 0.14852 0.61369 0.04946 0.0
C6 C 0.16035 0.63193 0.02646 0.0
C7 C 0.14851 0.61669 1.00214 0.0
C8 C 0.1251 0.58423 1.00093 0.0
C9 C 1.01488 0.44422 0.97742 0.0
C10 C 0.06883 0.42857 0.02631 0.0
C11 C 0.95148 0.34882 1.01074 0.0
C12 C 0.91673 0.32826 1.01587 0.0
C13 C 0.89515 0.32058 0.99492 0.0
C14 C 0.86204 0.30219 0.99892 0.0
C15 C 0.8497 0.29087 0.02399 0.0
C16 C 0.87128 0.29836 0.04504 0.0
C17 C 0.90456 0.31707 0.04106 0.0
C18 C 1.01262 0.4271 0.07272 0.0
C19 C 0.97055 0.45513 0.03018 0.0
O20 O 0.06516 0.52012 0.04154 0.0
O21 O 0.08329 0.51404 1.00328 0.0
O22 O 0.02494 0.43543 0.99644 0.0
O23 O 0.02058 0.47315 0.9819 0.0
O24 O 0.07323 0.4574 0.03157 0.0
O25 O 0.04038 0.40395 1.0194 0.0
O26 O 0.95909 0.37529 0.99792 0.0
O27 O 0.97182 0.35325 0.02977 0.0
O28 O 0.02056 0.4421 0.05126 0.0
O29 O 0.99201 0.39733 0.06757 0.0
O30 O 0.96317 0.42501 0.02519 0.0
O31 O 1.00048 0.47885 0.03225 0.0
H32 H 0.11561 0.56808 0.06625 0.0
H33 H 0.15754 0.62431 0.0685 0.0
H34 H 0.15656 0.62998 0.98402 0.0
H35 H 0.11597 0.57321 0.982 0.0
H36 H 0.90395 0.32901 0.97535 0.0
H37 H 0.84609 0.29649 0.98225 0.0
H38 H 0.86241 0.29018 0.06463 0.0
H39 H 0.92062 0.3229 0.05766 0.0
Tb40 Tb 0.56095 0.57756 1.02032 0.0
Tb41 Tb 0.62926 0.59922 0.03019 0.0
C42 C 0.50046 0.54929 1.02094 0.0
C43 C 0.47026 0.55036 0.02287 0.0
C44 C 0.45042 0.53617 0.04463 0.0
C45 C 0.41865 0.52981 0.04462 0.0
C46 C 0.40591 0.53757 1.02282 0.0
C47 C 0.42634 0.55333 1.00153 0.0
C48 C 0.45818 0.55954 1.00149 0.0
C49 C 0.59645 0.58983 0.97804 0.0
C50 C 0.60465 0.65032 1.02159 0.0
C51 C 0.68895 0.62007 0.02849 0.0
C52 C 0.70905 0.60452 0.02871 0.0
C53 C 0.70759 0.58408 1.00835 0.0
C54 C 0.7269 0.56977 1.00904 0.0
C55 C 0.74801 0.5754 0.03015 0.0
C56 C 0.749 0.59547 0.05066 0.0
C57 C 0.72988 0.60993 0.04987 0.0
C58 C 0.59571 0.59199 0.07376 0.0
C59 C 0.58231 0.52548 0.03036 0.0
O60 O 0.51811 0.5549 0.04202 0.0
O61 O 0.51764 0.55992 0.99963 0.0
O62 O 0.59812 0.57577 0.99827 0.0
O63 O 0.57331 0.59618 0.98057 0.0
O64 O 0.575 0.62702 0.0258 0.0
O65 O 0.62936 0.6448 1.02043 0.0
O66 O 0.67123 0.61586 1.00771 0.0
O67 O 0.67341 0.61781 0.05009 0.0
O68 O 0.5932 0.60301 0.05206 0.0
O69 O 0.61684 0.58296 0.07053 0.0
O70 O 0.61284 0.54791 0.02813 0.0
O71 O 0.55919 0.53271 0.03025 0.0
H72 H 0.45887 0.52822 0.06112 0.0
H73 H 0.40361 0.51716 0.06119 0.0
H74 H 0.4175 0.56008 0.98457 0.0
H75 H 0.47276 0.5702 0.98425 0.0
H76 H 0.69167 0.57921 0.99179 0.0
H77 H 0.72567 0.55474 0.99277 0.0
H78 H 0.7644 0.59987 0.06751 0.0
H79 H 0.73132 0.62534 0.06593 0.0
Tb80 Tb 0.46348 1.00004 1.02282 0.0
Tb81 Tb 0.4352 0.04174 0.0323 0.0
C82 C 0.48521 0.96221 1.01924 0.0
C83 C 0.48557 0.93183 1.02268 0.0
C84 C 0.50238 0.92851 0.04387 0.0
C85 C 0.50999 0.90397 0.04413 0.0
C86 C 0.50094 0.88204 0.02321 0.0
C87 C 0.48267 0.88443 1.00263 0.0
C88 C 0.47523 0.90915 1.00231 0.0
C89 C 0.46079 0.03282 0.98185 0.0
C90 C 0.38802 0.96687 0.02553 0.0
C91 C 0.41348 0.0795 0.02775 0.0
C92 C 0.4279 0.1148 0.03026 0.0
C93 C 0.42955 0.13261 1.00799 0.0
C94 C 0.44403 0.16601 1.00917 0.0
C95 C 0.45705 0.1826 0.03276 0.0
C96 C 0.45568 0.16481 0.05509 0.0
C97 C 0.44133 0.13124 0.05385 0.0
C98 C 0.44927 0.02203 0.07631 0.0
C99 C 0.50968 0.07075 0.03491 0.0
O100 O 0.49039 0.98103 0.03947 0.0
O101 O 0.46646 0.96419 1.00154 0.0
O102 O 0.4403 0.01885 0.99919 0.0
O103 O 0.48489 0.02861 0.98668 0.0
O104 O 0.4135 0.9631 0.02452 0.0
O105 O 0.39011 0.99537 0.0285 0.0
O106 O 0.42449 0.07026 1.00819 0.0
O107 O 0.40979 0.06268 0.04898 0.0
O108 O 0.43811 1.00588 0.05553 0.0
O109 O 0.45507 0.05097 0.07165 0.0
O110 O 0.48662 0.07607 0.0266 0.0
O111 O 0.50347 0.04152 0.04022 0.0
H112 H 0.51135 0.946 0.05959 0.0
H113 H 0.5245 0.90332 0.06013 0.0
H114 H 0.47482 0.86771 0.98638 0.0
H115 H 0.46272 0.91135 0.98545 0.0
H116 H 0.41987 0.12063 0.98946 0.0
H117 H 0.44526 0.17888 0.99143 0.0
H118 H 0.46528 0.17675 0.07363 0.0
H119 H 0.44082 0.11826 0.07132 0.0
Tb120 Tb 0.70859 0.8105 0.35604 0.0
Tb121 Tb 0.66247 0.74137 0.36387 0.0
C122 C 0.74044 0.87083 0.35962 0.0
C123 C 0.77152 0.90127 0.35738 0.0
C124 C 0.79173 0.91444 0.37928 0.0
C125 C 0.81708 0.94627 0.379 0.0
C126 C 0.82265 0.96581 0.35689 0.0
C127 C 0.8033 0.95205 0.33457 0.0
C128 C 0.77808 0.92022 0.33482 0.0
C129 C 0.68633 0.77695 0.31261 0.0
C130 C 0.73794 0.76671 0.35308 0.0
C131 C 0.62371 0.68183 0.36214 0.0
C132 C 0.588 0.66189 0.36215 0.0
C133 C 0.56916 0.66208 0.34106 0.0
C134 C 0.53549 0.64311 0.3417 0.0
C135 C 0.51983 0.62356 0.36345 0.0
C136 C 0.53878 0.62378 0.38461 0.0
C137 C 0.57237 0.64257 0.38391 0.0
C138 C 0.68787 0.77346 0.40796 0.0
C139 C 0.63515 0.7877 0.36595 0.0
O140 O 0.73609 0.85148 0.37918 0.0
O141 O 0.72618 0.85539 0.33815 0.0
O142 O 0.67031 0.77382 0.33305 0.0
O143 O 0.71538 0.8008 0.31551 0.0
O144 O 0.74448 0.7965 0.35675 0.0
O145 O 0.70795 0.74179 0.35346 0.0
O146 O 0.63749 0.69924 0.34141 0.0
O147 O 0.63678 0.69754 0.38374 0.0
O148 O 0.70204 0.77686 0.38645 0.0
O149 O 0.65775 0.75265 0.40433 0.0
O150 O 0.62763 0.75787 0.3607 0.0
O151 O 0.66531 0.81048 0.3689 0.0
H152 H 0.78711 0.90068 0.39711 0.0
H153 H 0.83179 0.95578 0.3964 0.0
H154 H 0.80644 0.96631 0.31729 0.0
H155 H 0.76262 0.91106 0.31777 0.0
H156 H 0.58033 0.67674 0.32399 0.0
H157 H 0.5218 0.64337 0.32491 0.0
H158 H 0.52766 0.6096 0.40193 0.0
H159 H 0.58619 0.64208 0.40053 0.0
Tb160 Tb 0.22888 0.91262 0.35655 0.0
Tb161 Tb 0.29834 0.93617 0.36295 0.0
C162 C 0.1685 0.8838 0.36063 0.0
C163 C 0.13791 0.88389 0.35692 0.0
C164 C 0.12354 0.89029 0.37828 0.0
C165 C 0.09152 0.88325 0.37694 0.0
C166 C 0.07302 0.86939 0.35427 0.0
C167 C 0.08795 0.86457 0.33242 0.0
C168 C 0.12002 0.8717 0.33374 0.0
C169 C 0.26137 0.9231 0.31262 0.0
C170 C 0.27224 0.98561 0.3529 0.0
C171 C 0.35776 0.95664 0.35949 0.0
C172 C 0.3772 0.94037 0.3598 0.0
C173 C 0.38899 0.93493 0.33634 0.0
C174 C 0.40748 0.91977 0.33653 0.0
C175 C 0.41464 0.90973 0.3602 0.0
C176 C 0.40256 0.91486 0.38363 0.0
C177 C 0.38412 0.93004 0.38346 0.0
C178 C 0.2677 0.93022 0.4079 0.0
C179 C 0.25248 0.86324 0.36821 0.0
O180 O 0.18821 0.90177 0.37917 0.0
O181 O 0.18364 0.88207 0.33995 0.0
O182 O 0.26477 0.91051 0.33306 0.0
O183 O 0.23791 0.92891 0.31583 0.0
O184 O 0.24258 0.96233 0.35715 0.0
O185 O 0.29731 0.9807 0.35245 0.0
O186 O 0.33914 0.95135 0.33912 0.0
O187 O 0.3434 0.95622 0.38132 0.0
O188 O 0.26348 0.94021 0.3863 0.0
O189 O 0.28893 0.9215 0.40379 0.0
O190 O 0.28156 0.88496 0.3605 0.0
O191 O 0.23019 0.87114 0.3723 0.0
H192 H 0.13651 0.89925 0.39655 0.0
H193 H 0.08099 0.8878 0.39399 0.0
H194 H 0.0744 0.85362 0.31473 0.0
H195 H 0.13016 0.86597 0.31705 0.0
H196 H 0.38396 0.94245 0.3178 0.0
H197 H 0.41609 0.9158 0.31811 0.0
H198 H 0.40796 0.90777 0.40222 0.0
H199 H 0.37549 0.93382 0.40195 0.0
Tb200 Tb 0.12846 0.33196 0.3527 0.0
Tb201 Tb 0.101 0.37742 0.3599 0.0
C202 C 0.14671 0.29152 0.34894 0.0
C203 C 0.14787 0.26188 0.35398 0.0
C204 C 0.16723 0.26108 0.37429 0.0
C205 C 0.17525 0.23685 0.37518 0.0
C206 C 0.16402 0.2128 0.35582 0.0
C207 C 0.14318 0.21267 0.33633 0.0
C208 C 0.13535 0.23706 0.33533 0.0
C209 C 0.1224 0.36105 0.31067 0.0
C210 C 0.05403 0.30254 0.35973 0.0
C211 C 0.08797 0.41999 0.34694 0.0
C212 C 0.10239 0.45494 0.3517 0.0
C213 C 0.11886 0.47633 0.33121 0.0
C214 C 0.13301 0.50943 0.33485 0.0
C215 C 0.13091 0.52207 0.35909 0.0
C216 C 0.11436 0.50072 0.37967 0.0
C217 C 0.10031 0.46745 0.37606 0.0
C218 C 0.10721 0.35807 0.40658 0.0
C219 C 0.17691 0.40319 0.36499 0.0
O220 O 0.15755 0.31424 0.36675 0.0
O221 O 0.1241 0.29091 0.33403 0.0
O222 O 0.10357 0.34927 0.32945 0.0
O223 O 0.14654 0.35663 0.3146 0.0
O224 O 0.07924 0.29881 0.36393 0.0
O225 O 0.05666 0.33087 0.35419 0.0
O226 O 0.10575 0.41196 0.33292 0.0
O227 O 0.07371 0.40014 0.36647 0.0
O228 O 0.11481 0.3508 0.38492 0.0
O229 O 0.09761 0.37853 0.40219 0.0
O230 O 0.15378 0.41003 0.35989 0.0
O231 O 0.17116 0.37348 0.36672 0.0
H232 H 0.17783 0.28021 0.38865 0.0
H233 H 0.19173 0.2381 0.39027 0.0
H234 H 0.13364 0.19425 0.32134 0.0
H235 H 0.12084 0.23734 0.31916 0.0
H236 H 0.12077 0.46743 0.31219 0.0
H237 H 0.14513 0.52511 0.31847 0.0
H238 H 0.11257 0.50974 0.39865 0.0
H239 H 0.08793 0.45163 0.3923 0.0
Tb240 Tb 0.3766 0.14533 0.69219 0.0
Tb241 Tb 0.32728 0.07102 0.69462 0.0
C242 C 0.40868 0.20486 0.69955 0.0
C243 C 0.43871 0.2352 0.69392 0.0
C244 C 0.46328 0.24841 0.71284 0.0
C245 C 0.4884 0.28009 0.71068 0.0
C246 C 0.48939 0.29939 0.68964 0.0
C247 C 0.4658 0.28558 0.66993 0.0
C248 C 0.4407 0.25385 0.67207 0.0
C249 C 0.35792 0.11423 0.64727 0.0
C250 C 0.40323 0.09855 0.68992 0.0
C251 C 0.28531 0.01412 0.68386 0.0
C252 C 0.24967 0.99532 0.68581 0.0
C253 C 0.23003 0.99362 0.66468 0.0
C254 C 0.19645 0.97489 0.66638 0.0
C255 C 0.18176 0.9574 0.68922 0.0
C256 C 0.20144 0.95962 0.71048 0.0
C257 C 0.23493 0.9782 0.70876 0.0
C258 C 0.3511 0.09407 0.74175 0.0
C259 C 0.30197 0.11961 0.70361 0.0
O260 O 0.41035 0.18383 0.71491 0.0
O261 O 0.38762 0.19141 0.68057 0.0
O262 O 0.34102 0.10926 0.66742 0.0
O263 O 0.3864 0.13874 0.65136 0.0
O264 O 0.40923 0.12743 0.69711 0.0
O265 O 0.37382 0.07439 0.68415 0.0
O266 O 0.29771 0.03709 0.6665 0.0
O267 O 0.30119 0.02278 0.70594 0.0
O268 O 0.35688 0.10885 0.72041 0.0
O269 O 0.32927 0.06476 0.737 0.0
O270 O 0.29396 0.0894 0.69865 0.0
O271 O 0.3322 0.14328 0.70466 0.0
H272 H 0.46227 0.2348 0.73005 0.0
H273 H 0.50648 0.28979 0.72597 0.0
H274 H 0.46562 0.2998 0.65358 0.0
H275 H 0.42196 0.24458 0.65728 0.0
H276 H 0.24059 1.00643 0.64669 0.0
H277 H 0.18206 0.97351 0.64954 0.0
H278 H 0.19098 0.94699 0.72856 0.0
H279 H 0.24927 0.97896 0.72544 0.0
Tb280 Tb 0.89592 0.24726 0.68494 0.0
Tb281 Tb 0.96417 0.26845 0.69536 0.0
C282 C 0.83538 0.21879 0.68543 0.0
C283 C 0.80448 0.21851 0.6874 0.0
C284 C 0.78409 0.20217 0.70841 0.0
C285 C 0.75202 0.19494 0.70827 0.0
C286 C 0.73949 0.20402 0.68711 0.0
C287 C 0.76041 0.22176 0.66658 0.0
C288 C 0.79254 0.22878 0.66665 0.0
C289 C 0.93177 0.25791 0.64315 0.0
C290 C 0.94021 0.31978 0.68525 0.0
C291 C 0.02369 0.28846 0.69368 0.0
C292 C 0.04347 0.27257 0.6948 0.0
C293 C 0.04171 0.25122 0.67512 0.0
C294 C 0.06088 0.23678 0.6765 0.0
C295 C 0.08213 0.24317 0.69766 0.0
C296 C 0.08337 0.2641 0.71751 0.0
C297 C 0.0644 0.27869 0.71603 0.0
C298 C 0.93064 0.26164 0.73846 0.0
C299 C 0.91669 0.1949 0.69629 0.0
O300 O 0.85296 0.22432 0.70653 0.0
O301 O 0.85264 0.23004 0.66421 0.0
O302 O 0.93291 0.24437 0.6638 0.0
O303 O 0.90879 0.26459 0.64466 0.0
O304 O 0.91038 0.29687 0.68939 0.0
O305 O 0.96474 0.31398 0.68477 0.0
O306 O 1.00583 0.28336 0.67283 0.0
O307 O 1.00847 0.28758 0.71514 0.0
O308 O 0.9281 0.2729 0.71686 0.0
O309 O 0.95161 0.25233 0.73554 0.0
O310 O 0.94729 0.21708 0.69402 0.0
O311 O 0.89374 0.2024 0.69566 0.0
H312 H 0.79244 0.19335 0.72438 0.0
H313 H 0.73672 0.18076 0.72422 0.0
H314 H 0.75183 0.22963 0.65015 0.0
H315 H 0.80756 0.2411 0.64998 0.0
H316 H 0.0257 0.24577 0.65853 0.0
H317 H 0.05945 0.22107 0.66071 0.0
H318 H 0.09888 0.26911 0.73438 0.0
H319 H 0.06607 0.29481 0.73157 0.0
Tb320 Tb 0.7942 0.66375 0.69143 0.0
Tb321 Tb 0.76562 0.71012 0.69305 0.0
C322 C 0.81352 0.6247 0.70024 0.0
C323 C 0.81517 0.59562 0.69355 0.0
C324 C 0.80629 0.57178 0.71266 0.0
C325 C 0.81458 0.54786 0.71001 0.0
C326 C 0.83212 0.5473 0.68818 0.0
C327 C 0.83933 0.57008 0.66824 0.0
C328 C 0.83099 0.59405 0.6709 0.0
C329 C 0.78693 0.68696 0.64611 0.0
C330 C 0.71832 0.63439 0.69039 0.0
C331 C 0.75311 0.75205 0.67741 0.0
C332 C 0.76641 0.78661 0.68224 0.0
C333 C 0.76762 0.80603 0.6614 0.0
C334 C 0.78145 0.83914 0.66472 0.0
C335 C 0.79434 0.85362 0.68904 0.0
C336 C 0.79351 0.83411 0.70992 0.0
C337 C 0.77975 0.80085 0.70652 0.0
C338 C 0.77357 0.69485 0.74123 0.0
C339 C 0.84037 0.736 0.70109 0.0
O340 O 0.78698 0.6217 0.71033 0.0
O341 O 0.82865 0.64995 0.68519 0.0
O342 O 0.76952 0.67915 0.66588 0.0
O343 O 0.80883 0.67912 0.65017 0.0
O344 O 0.74306 0.62933 0.69226 0.0
O345 O 0.72119 0.6634 0.6881 0.0
O346 O 0.77263 0.74473 0.66518 0.0
O347 O 0.73752 0.73225 0.69668 0.0
O348 O 0.78127 0.68736 0.71987 0.0
O349 O 0.7625 0.71385 0.73559 0.0
O350 O 0.81815 0.74197 0.69152 0.0
O351 O 0.83335 0.70686 0.70813 0.0
H352 H 0.79444 0.57265 0.73043 0.0
H353 H 0.8081 0.53037 0.72551 0.0
H354 H 0.85301 0.57052 0.65123 0.0
H355 H 0.83847 0.61228 0.6559 0.0
H356 H 0.75814 0.79557 0.64237 0.0
H357 H 0.78238 0.85347 0.64805 0.0
H358 H 0.80313 0.84448 0.72893 0.0
H359 H 0.77963 0.78633 0.72277 0.0
C360 C 0.35459 0.52737 0.04455 0.0
C361 C 0.37099 0.52728 1.0218 0.0
C362 C 0.32134 0.51519 0.04414 0.0
C363 C 0.24793 0.46184 1.00551 0.0
H364 H 0.20997 0.50005 0.04932 0.0
C365 C 0.1124 0.42605 1.00223 0.0
C366 C 0.09828 0.42637 0.02616 0.0
C367 C 0.1453 0.43597 1.00103 0.0
C368 C 0.22014 0.48884 0.03719 0.0
H369 H 0.365 0.51449 0.98061 0.0
H370 H 0.30733 0.49476 0.97961 0.0
H371 H 0.26817 0.524 0.04789 0.0
H372 H 0.10668 0.43565 0.06764 0.0
H373 H 0.16359 0.45195 0.06583 0.0
H374 H 0.19967 0.42689 0.99462 0.0
C375 C 0.32009 0.50355 0.99796 0.0
C376 C 0.25359 0.5026 0.03637 0.0
C377 C 0.35334 0.51542 0.99844 0.0
C378 C 0.11694 0.43476 0.04903 0.0
C379 C 0.14966 0.44461 0.0479 0.0
C380 C 0.21442 0.44817 1.00622 0.0
C381 C 0.30358 0.50295 1.02088 0.0
C382 C 0.26796 0.4891 1.02075 0.0
C383 C 0.16451 0.4465 0.02377 0.0
C384 C 0.20012 0.46126 1.02234 0.0
H385 H 0.36739 0.53662 0.06284 0.0
H386 H 0.30949 0.51476 0.06228 0.0
H387 H 0.25806 0.45051 0.99349 0.0
H388 H 0.09869 0.42077 0.98422 0.0
H389 H 0.15606 0.43738 0.98212 0.0
C390 C 0.51483 0.84364 0.04531 0.0
C391 C 0.51212 0.85809 1.02227 0.0
C392 C 0.52723 0.82276 0.04467 0.0
C393 C 0.5757 0.79883 1.00307 0.0
H394 H 0.54279 0.72696 0.05099 0.0
C395 C 0.60663 0.69598 0.99751 0.0
C396 C 0.6091 0.68282 1.02128 0.0
C397 C 0.59817 0.72005 0.99723 0.0
C398 C 0.5526 0.74718 0.0377 0.0
H399 H 0.52036 0.86151 0.98034 0.0
H400 H 0.54036 0.8239 0.97906 0.0
H401 H 0.51944 0.76171 0.05079 0.0
H402 H 0.60538 0.6847 0.06332 0.0
H403 H 0.59202 0.72747 0.06304 0.0
H404 H 0.60843 0.78365 0.98967 0.0
C405 C 0.53364 0.82933 0.99778 0.0
C406 C 0.53916 0.76717 0.03758 0.0
C407 C 0.52158 0.85053 0.99847 0.0
C408 C 0.60476 0.69527 0.04478 0.0
C409 C 0.59636 0.71925 0.04456 0.0
C410 C 0.58899 0.77863 1.00306 0.0
C411 C 0.53692 0.81536 1.02092 0.0
C412 C 0.55067 0.79346 1.02041 0.0
C413 C 0.59173 0.73106 1.02076 0.0
C414 C 0.57782 0.75275 1.02057 0.0
H415 H 0.50747 0.84852 0.06396 0.0
H416 H 0.52974 0.8129 0.06297 0.0
H417 H 0.58554 0.81903 0.98978 0.0
H418 H 0.6086 0.68584 0.97913 0.0
H419 H 0.59449 0.72836 0.97855 0.0
C420 C 0.33713 0.92496 0.04571 0.0
C421 C 0.35695 0.93727 0.02367 0.0
C422 C 0.31367 0.89234 0.04664 0.0
C423 C 0.30033 0.81609 1.01941 0.0
H424 H 0.21316 0.78042 0.04528 0.0
C425 C 0.20762 0.68188 1.00846 0.0
C426 C 0.184 0.66688 0.02787 0.0
C427 C 0.22862 0.71499 1.00908 0.0
C428 C 0.23761 0.78992 0.03841 0.0
H429 H 0.3673 0.92632 0.98507 0.0
H430 H 0.32585 0.86986 0.98627 0.0
H431 H 0.24837 0.83853 0.04411 0.0
H432 H 0.16441 0.67525 0.06341 0.0
H433 H 0.20225 0.7324 0.06538 0.0
H434 H 0.29013 0.76784 1.01414 0.0
C435 C 0.32848 0.88495 1.00293 0.0
C436 C 0.25768 0.82324 0.03764 0.0
C437 C 0.35177 0.91731 1.00204 0.0
C438 C 0.18253 0.68576 0.04829 0.0
C439 C 0.20391 0.71877 0.04917 0.0
C440 C 0.28046 0.78286 1.02045 0.0
C441 C 0.31007 0.87185 0.0256 0.0
C442 C 0.28902 0.83662 0.0277 0.0
C443 C 0.22695 0.7339 0.0294 0.0
C444 C 0.24867 0.76931 0.02961 0.0
H445 H 0.3415 0.93982 0.06289 0.0
H446 H 0.29988 0.88277 0.06442 0.0
H447 H 0.32469 0.82576 1.01221 0.0
H448 H 0.2099 0.66812 0.99266 0.0
H449 H 0.24575 0.72578 0.99329 0.0
C450 C 0.49952 0.23756 0.04858 0.0
C451 C 0.47145 0.21822 0.0339 0.0
C452 C 0.51304 0.27103 0.04916 0.0
C453 C 0.49198 0.33431 0.03846 0.0
H454 H 0.58391 0.39123 0.03057 0.0
C455 C 0.54208 0.46852 1.02086 0.0
C456 C 0.57247 0.49099 0.03085 0.0
C457 C 0.53137 0.43574 1.02174 0.0
C458 C 0.55825 0.3758 0.03323 0.0
H459 H 0.43543 0.21917 1.00867 0.0
H460 H 0.45922 0.27722 1.00933 0.0
H461 H 0.56219 0.33323 0.03176 0.0
H462 H 0.61568 0.49674 0.04938 0.0
H463 H 0.59639 0.43901 0.05213 0.0
H464 H 0.48771 0.37632 0.04062 0.0
C465 C 0.47069 0.26655 1.02055 0.0
C466 C 0.54579 0.34248 0.03381 0.0
C467 C 0.45724 0.23322 1.01994 0.0
C468 C 0.59218 0.47992 0.0415 0.0
C469 C 0.5811 0.44681 0.04293 0.0
C470 C 0.5044 0.36749 0.03824 0.0
C471 C 0.4987 0.28589 0.0352 0.0
C472 C 0.51244 0.32135 0.03601 0.0
C473 C 0.55034 0.42421 0.03325 0.0
C474 C 0.53766 0.3888 0.03512 0.0
H475 H 0.51129 0.2269 0.05938 0.0
H476 H 0.5345 0.28525 0.06079 0.0
H477 H 0.46624 0.31876 0.04073 0.0
H478 H 0.5265 0.47629 1.01207 0.0
H479 H 0.50811 0.41948 1.01318 0.0
C480 C 0.5663 0.09114 0.04931 0.0
C481 C 0.54345 0.09696 0.03693 0.0
C482 C 0.59878 0.11448 0.04956 0.0
C483 C 0.65848 0.18481 1.01346 0.0
H484 H 0.71124 0.19775 0.07492 0.0
C485 C 0.79346 0.27949 1.01532 0.0
C486 C 0.81439 0.27113 0.02784 0.0
C487 C 0.76015 0.26009 1.0177 0.0
C488 C 0.69695 0.19421 0.0575 0.0
H489 H 0.5367 0.13203 1.01545 0.0
H490 H 0.59384 0.17324 1.01607 0.0
H491 H 0.65338 0.16111 0.07696 0.0
H492 H 0.81682 0.23596 0.0528 0.0
H493 H 0.75863 0.20176 0.0567 0.0
H494 H 0.70204 0.21722 0.99377 0.0
C495 C 0.58643 0.15039 0.02542 0.0
C496 C 0.66375 0.17329 0.0587 0.0
C497 C 0.55373 0.12695 0.02526 0.0
C498 C 0.80129 0.24321 0.04317 0.0
C499 C 0.76792 0.22366 0.04542 0.0
C500 C 0.69172 0.2056 1.0122 0.0
C501 C 0.60929 0.14426 0.03744 0.0
C502 C 0.64419 0.16817 0.03665 0.0
C503 C 0.74692 0.23174 0.03255 0.0
C504 C 0.71141 0.2104 0.03416 0.0
H505 H 0.55923 0.06825 0.05848 0.0
H506 H 0.61579 0.1088 0.05863 0.0
H507 H 0.64412 0.18097 0.99602 0.0
H508 H 0.80286 0.30114 1.00369 0.0
H509 H 0.74477 0.26743 1.00796 0.0
C510 C 0.95254 0.49421 0.04198 0.0
C511 C 0.94478 0.4636 0.03263 0.0
C512 C 0.92939 0.50373 0.04279 0.0
C513 C 0.85218 0.48702 1.01343 0.0
H514 H 0.85218 0.53965 0.071 0.0
C515 C 0.7583 0.52953 1.02127 0.0
C516 C 0.76923 0.56084 0.03072 0.0
C517 C 0.77827 0.51597 1.02203 0.0
C518 C 0.85203 0.52528 0.05461 0.0
H519 H 0.90625 0.41881 1.0171 0.0
H520 H 0.86545 0.43541 1.01876 0.0
H521 H 0.88882 0.5184 0.07191 0.0
H522 H 0.81032 0.60264 0.04774 0.0
H523 H 0.84492 0.57912 0.04909 0.0
H524 H 0.81568 0.49434 0.99595 0.0
C525 C 0.88972 0.45211 0.02525 0.0
C526 C 0.87303 0.51299 0.05517 0.0
C527 C 0.91299 0.44248 0.02451 0.0
C528 C 0.80074 0.57825 0.04079 0.0
C529 C 0.82067 0.56471 0.04156 0.0
C530 C 0.83118 0.4994 1.01283 0.0
C531 C 0.89772 0.48294 0.03431 0.0
C532 C 0.87366 0.494 0.03446 0.0
C533 C 0.8097 0.53334 0.03229 0.0
C534 C 0.83107 0.519 0.0333 0.0
H535 H 0.97674 0.51121 0.04844 0.0
H536 H 0.93663 0.5278 0.04949 0.0
H537 H 0.8523 0.47283 0.99699 0.0
H538 H 0.73407 0.5152 1.01368 0.0
H539 H 0.76883 0.49162 1.01501 0.0
C540 C 0.77998 0.75702 0.37181 0.0
C541 C 0.76602 0.7626 0.34976 0.0
C542 C 0.81248 0.76533 0.37152 0.0
C543 C 0.8878 0.82215 0.33757 0.0
H544 H 0.92362 0.77678 0.37467 0.0
C545 C 0.02268 0.86062 0.33132 0.0
C546 C 0.03784 0.85798 0.354 0.0
C547 C 0.98936 0.84822 0.33069 0.0
C548 C 0.91405 0.78996 0.36446 0.0
H549 H 0.77425 0.78014 0.31002 0.0
H550 H 0.83037 0.79306 0.30888 0.0
H551 H 0.86541 0.75422 0.37309 0.0
H552 H 0.02957 0.84008 0.39385 0.0
H553 H 0.9718 0.81964 0.39307 0.0
H554 H 0.93634 0.85801 0.32911 0.0
C555 C 0.81666 0.7828 0.32657 0.0
C556 C 0.88062 0.77695 0.3635 0.0
C557 C 0.78433 0.77472 0.32696 0.0
C558 C 0.01886 0.84302 0.37615 0.0
C559 C 0.98558 0.83079 0.37558 0.0
C560 C 0.92117 0.83515 0.33854 0.0
C561 C 0.83151 0.77944 0.34917 0.0
C562 C 0.86705 0.79279 0.34994 0.0
C563 C 0.97034 0.83299 0.35277 0.0
C564 C 0.93475 0.81921 0.35194 0.0
H565 H 0.76658 0.74882 0.38991 0.0
H566 H 0.82315 0.76272 0.38938 0.0
H567 H 0.87832 0.83551 0.32752 0.0
H568 H 0.03656 0.87223 0.31397 0.0
H569 H 0.97845 0.85008 0.3127 0.0
C570 C 0.18143 0.1774 0.37837 0.0
C571 C 0.17571 0.18931 0.35509 0.0
C572 C 0.19447 0.15709 0.37773 0.0
C573 C 0.23956 0.13115 0.33421 0.0
H574 H 0.21377 0.06366 0.38575 0.0
C575 C 0.2701 0.02857 0.32812 0.0
C576 C 0.27645 0.01789 0.3517 0.0
C577 C 0.26161 0.05254 0.32821 0.0
C578 C 0.22157 0.08269 0.37143 0.0
H579 H 0.17918 0.18885 0.31276 0.0
H580 H 0.20021 0.15213 0.31159 0.0
H581 H 0.1892 0.09738 0.38618 0.0
H582 H 0.27969 0.02395 0.39372 0.0
H583 H 0.26575 0.06648 0.39396 0.0
H584 H 0.27134 0.11569 0.3191 0.0
C585 C 0.19541 0.15914 0.33044 0.0
C586 C 0.20746 0.10207 0.37167 0.0
C587 C 0.18275 0.1798 0.3311 0.0
C588 C 0.27594 0.03265 0.37523 0.0
C589 C 0.26731 0.05647 0.37538 0.0
C590 C 0.25346 0.11154 0.33383 0.0
C591 C 0.20178 0.14778 0.35375 0.0
C592 C 0.21637 0.12669 0.35314 0.0
C593 C 0.2589 0.06583 0.35197 0.0
C594 C 0.24479 0.08725 0.35255 0.0
H595 H 0.17599 0.18389 0.3972 0.0
H596 H 0.19939 0.14922 0.39612 0.0
H597 H 0.24744 0.15015 0.31987 0.0
H598 H 0.26917 0.01659 0.30989 0.0
H599 H 0.25493 0.05896 0.30989 0.0
C600 C 1.01463 0.25531 0.33457 0.0
C601 C 0.02291 0.27267 0.35811 0.0
C602 C 0.99119 0.22276 0.33414 0.0
C603 C 0.92515 0.15743 0.37226 0.0
H604 H 0.94804 0.10294 0.33248 0.0
C605 C 0.85173 0.01903 0.38045 0.0
C606 C 0.84702 1.00081 0.35759 0.0
C607 C 0.87316 0.05216 0.38072 0.0
C608 C 0.94095 0.11773 0.34341 0.0
H609 H 1.01322 0.27007 0.39957 0.0
H610 H 0.9717 0.21324 0.39891 0.0
H611 H 0.98333 0.16089 0.33186 0.0
H612 H 0.86203 1.00348 0.31721 0.0
H613 H 0.89828 0.06122 0.31737 0.0
H614 H 0.88265 0.11435 0.38368 0.0
C615 C 0.98289 0.22478 0.38066 0.0
C616 C 0.96126 0.15106 0.34305 0.0
C617 C 1.00649 0.25736 0.38106 0.0
C618 C 0.86467 0.01667 0.3351 0.0
C619 C 0.88587 0.04985 0.3353 0.0
C620 C 0.90471 0.12408 0.3725 0.0
C621 C 0.97567 0.20683 0.35732 0.0
C622 C 0.9536 0.17136 0.35742 0.0
C623 C 0.8903 0.06815 0.35807 0.0
C624 C 0.91229 0.10373 0.35806 0.0
H625 H 0.02775 0.26643 0.31679 0.0
H626 H 0.98599 0.2098 0.31579 0.0
H627 H 0.9184 0.17234 0.3834 0.0
H628 H 0.83829 1.00788 0.39806 0.0
H629 H 0.87624 0.06523 0.39876 0.0
C630 C 0.26342 0.8178 0.36096 0.0
C631 C 0.2433 0.829 0.37048 0.0
C632 C 0.25313 0.78492 0.36115 0.0
C633 C 0.19357 0.70781 0.39145 0.0
H634 H 0.20718 0.67002 0.32921 0.0
C635 C 0.12901 0.5704 0.37578 0.0
C636 C 0.14558 0.55741 0.36249 0.0
C637 C 0.14214 0.60368 0.3777 0.0
C638 C 0.20358 0.68015 0.34694 0.0
H639 H 0.19676 0.81446 0.38809 0.0
H640 H 0.17898 0.75746 0.38838 0.0
H641 H 0.22875 0.72779 0.33133 0.0
H642 H 0.1895 0.56926 0.34159 0.0
H643 H 0.21263 0.62712 0.34532 0.0
H644 H 0.16852 0.66031 0.40716 0.0
C645 C 0.2028 0.77398 0.38098 0.0
C646 C 0.21596 0.71335 0.34812 0.0
C647 C 0.21299 0.80672 0.38069 0.0
C648 C 0.17586 0.57848 0.35162 0.0
C649 C 0.18909 0.61172 0.35368 0.0
C650 C 0.18136 0.67465 0.39035 0.0
C651 C 0.2226 0.76262 0.37102 0.0
C652 C 0.2109 0.72755 0.37031 0.0
C653 C 0.1723 0.62481 0.36655 0.0
C654 C 0.186 0.6603 0.36801 0.0
H655 H 0.2868 0.83431 0.35282 0.0
H656 H 0.26907 0.77694 0.35353 0.0
H657 H 0.1896 0.71804 0.40898 0.0
H658 H 0.10545 0.55485 0.38407 0.0
H659 H 0.12822 0.61278 0.38739 0.0
C660 C 0.2215 0.46044 0.35855 0.0
C661 C 0.211 0.42915 0.36763 0.0
C662 C 0.25438 0.48368 0.35906 0.0
C663 C 0.3322 0.50194 0.38988 0.0
H664 H 0.37071 0.55528 0.32888 0.0
C665 C 0.46973 0.57199 0.37538 0.0
C666 C 0.48399 0.60273 0.36405 0.0
C667 C 0.43623 0.55249 0.3763 0.0
C668 C 0.36034 0.54093 0.34625 0.0
H669 H 0.22688 0.39806 0.38492 0.0
H670 H 0.28355 0.43816 0.38572 0.0
H671 H 0.31256 0.51915 0.33032 0.0
H672 H 0.47374 0.63693 0.34486 0.0
H673 H 0.41533 0.60292 0.34645 0.0
H674 H 0.37977 0.52345 0.40584 0.0
C675 C 0.26661 0.44502 0.37839 0.0
C676 C 0.32693 0.5202 0.34706 0.0
C677 C 0.23398 0.4219 0.37776 0.0
C678 C 0.46372 0.61328 0.35345 0.0
C679 C 0.43014 0.59373 0.35437 0.0
C680 C 0.3655 0.52268 0.3891 0.0
C681 C 0.27735 0.47616 0.36889 0.0
C682 C 0.31249 0.50012 0.36875 0.0
C683 C 0.41592 0.56311 0.36592 0.0
C684 C 0.38014 0.54217 0.36714 0.0
H685 H 0.20448 0.46675 0.35045 0.0
H686 H 0.26183 0.50752 0.35175 0.0
H687 H 0.32186 0.48725 0.4071 0.0
H688 H 0.48445 0.56268 0.38325 0.0
H689 H 0.42629 0.52882 0.38483 0.0
C690 C 0.4281 0.8685 0.37684 0.0
C691 C 0.43543 0.89486 0.36056 0.0
C692 C 0.44831 0.85525 0.3777 0.0
C693 C 0.53191 0.87628 0.36673 0.0
H694 H 0.49869 0.78455 0.36146 0.0
C695 C 0.61867 0.82777 0.35547 0.0
C696 C 0.61047 0.79748 0.36553 0.0
C697 C 0.59624 0.83815 0.35496 0.0
C698 C 0.50846 0.81018 0.36345 0.0
H699 H 0.46982 0.92801 0.3325 0.0
H700 H 0.50496 0.90479 0.33393 0.0
H701 H 0.46153 0.80538 0.36082 0.0
H702 H 0.57239 0.75407 0.38279 0.0
H703 H 0.53339 0.77292 0.3836 0.0
H704 H 0.57852 0.8815 0.37053 0.0
C705 C 0.48359 0.89444 0.34604 0.0
C706 C 0.48708 0.82209 0.36291 0.0
C707 C 0.46329 0.90752 0.34504 0.0
C708 C 0.57922 0.77755 0.37496 0.0
C709 C 0.55688 0.78837 0.3752 0.0
C710 C 0.55318 0.86442 0.36784 0.0
C711 C 0.4764 0.8683 0.36248 0.0
C712 C 0.49868 0.8553 0.36412 0.0
C713 C 0.56516 0.81898 0.36532 0.0
C714 C 0.54192 0.83121 0.36571 0.0
H715 H 0.40668 0.85805 0.38889 0.0
H716 H 0.44233 0.83524 0.39066 0.0
H717 H 0.54148 0.90197 0.36821 0.0
H718 H 0.64246 0.8434 0.34754 0.0
H719 H 0.60343 0.86125 0.3462 0.0
C720 C 0.68723 0.19073 0.70901 0.0
C721 C 0.70442 0.19342 0.68599 0.0
C722 C 0.65395 0.17845 0.70832 0.0
C723 C 0.58159 0.13095 0.66612 0.0
H724 H 0.54218 0.16144 0.71619 0.0
C725 C 0.44718 0.09994 0.66342 0.0
C726 C 0.43183 0.09502 0.6877 0.0
C727 C 0.47985 0.10889 0.66221 0.0
C728 C 0.55278 0.15241 0.70224 0.0
H729 H 0.69966 0.1855 0.64399 0.0
H730 H 0.64209 0.16598 0.64259 0.0
H731 H 0.60037 0.18536 0.71549 0.0
H732 H 0.43779 0.09417 0.72956 0.0
H733 H 0.49449 0.10919 0.72757 0.0
H734 H 0.53365 0.09859 0.65248 0.0
C735 C 0.65418 0.17245 0.66138 0.0
C736 C 0.58624 0.1661 0.70186 0.0
C737 C 0.68745 0.18427 0.66212 0.0
C738 C 0.44899 0.09726 0.7106 0.0
C739 C 0.48155 0.10635 0.70945 0.0
C740 C 0.54806 0.11753 0.66629 0.0
C741 C 0.63687 0.16903 0.68451 0.0
C742 C 0.60117 0.15533 0.68402 0.0
C743 C 0.49766 0.11343 0.68532 0.0
C744 C 0.53327 0.12781 0.6846 0.0
H745 H 0.6994 0.19793 0.72773 0.0
H746 H 0.64161 0.1758 0.72666 0.0
H747 H 0.59202 0.12164 0.6523 0.0
H748 H 0.43468 0.09948 0.64558 0.0
H749 H 0.49165 0.11442 0.64335 0.0
C750 C 0.93492 0.35986 0.65919 0.0
C751 C 0.94479 0.35215 0.68257 0.0
C752 C 0.9265 0.38385 0.65871 0.0
C753 C 0.92737 0.45005 0.6977 0.0
H754 H 0.85022 0.42755 0.65742 0.0
C755 C 0.85708 0.51797 0.70983 0.0
C756 C 0.8447 0.52452 0.68714 0.0
C757 C 0.8701 0.49763 0.70886 0.0
C758 C 0.872 0.43444 0.66853 0.0
H759 H 0.95429 0.3636 0.72368 0.0
H760 H 0.93981 0.40567 0.72305 0.0
H761 H 0.87371 0.39288 0.65596 0.0
H762 H 0.83598 0.51432 0.64567 0.0
H763 H 0.85936 0.47939 0.64383 0.0
H764 H 0.92532 0.49141 0.71053 0.0
C765 C 0.93923 0.39387 0.70483 0.0
C766 C 0.8856 0.41459 0.66764 0.0
C767 C 0.94785 0.36997 0.70521 0.0
C768 C 0.84551 0.51001 0.66347 0.0
C769 C 0.85862 0.4897 0.66249 0.0
C770 C 0.91372 0.46988 0.69863 0.0
C771 C 0.9273 0.40029 0.68177 0.0
C772 C 0.91352 0.42214 0.68217 0.0
C773 C 0.87126 0.4834 0.68515 0.0
C774 C 0.88585 0.46233 0.68407 0.0
H775 H 0.93135 0.34565 0.64171 0.0
H776 H 0.91798 0.38847 0.6405 0.0
H777 H 0.949 0.45681 0.70897 0.0
H778 H 0.85734 0.52908 0.72835 0.0
H779 H 0.87918 0.493 0.72678 0.0
C780 C 0.67775 0.58868 0.6646 0.0
C781 C 0.6868 0.60533 0.68844 0.0
C782 C 0.6539 0.55633 0.66388 0.0
C783 C 0.58963 0.49031 0.70298 0.0
H784 H 0.61052 0.4367 0.65989 0.0
C785 C 0.52113 0.35249 0.71249 0.0
C786 C 0.51334 0.33433 0.68928 0.0
C787 C 0.54201 0.38566 0.71208 0.0
C788 C 0.60409 0.45132 0.67179 0.0
H789 H 0.67824 0.60194 0.7301 0.0
H790 H 0.63629 0.54544 0.72902 0.0
H791 H 0.64531 0.49475 0.65916 0.0
H792 H 0.52206 0.33686 0.64751 0.0
H793 H 0.55788 0.39485 0.64668 0.0
H794 H 0.54855 0.44683 0.71579 0.0
C795 C 0.64693 0.55733 0.71074 0.0
C796 C 0.624 0.48466 0.67132 0.0
C797 C 0.67076 0.58973 0.7114 0.0
C798 C 0.52732 0.35014 0.6657 0.0
C799 C 0.54814 0.38336 0.66528 0.0
C800 C 0.56971 0.45697 0.70346 0.0
C801 C 0.63897 0.53997 0.68708 0.0
C802 C 0.61701 0.50458 0.68691 0.0
C803 C 0.5555 0.40156 0.68844 0.0
C804 C 0.57673 0.43705 0.6879 0.0
H805 H 0.69062 0.60011 0.64681 0.0
H806 H 0.64806 0.54381 0.64529 0.0
H807 H 0.58338 0.50494 0.71505 0.0
H808 H 0.51046 0.34124 0.73096 0.0
H809 H 0.54752 0.39884 0.73034 0.0
C810 C 0.79315 0.90443 0.68056 0.0
C811 C 0.80819 0.88889 0.69239 0.0
C812 C 0.80629 0.93757 0.68292 0.0
C813 C 0.88146 0.01274 0.6962 0.0
H814 H 0.82345 0.04555 0.70927 0.0
C815 C 0.92712 0.1496 0.70669 0.0
C816 C 0.90667 0.16042 0.69721 0.0
C817 C 0.91633 0.11657 0.70797 0.0
C818 C 0.84005 0.03698 0.70521 0.0
H819 H 0.84901 0.89621 0.716 0.0
H820 H 0.87176 0.95433 0.72045 0.0
H821 H 0.80239 0.98804 0.70769 0.0
H822 H 0.8595 0.14532 0.68054 0.0
H823 H 0.8415 0.08861 0.68151 0.0
H824 H 0.91901 0.06172 0.69283 0.0
C825 C 0.84989 0.94069 0.70915 0.0
C826 C 0.82791 1.00389 0.70445 0.0
C827 C 0.83666 0.90738 0.70684 0.0
C828 C 0.8757 0.13777 0.68843 0.0
C829 C 0.86522 0.10506 0.6892 0.0
C830 C 0.89361 0.04599 0.69659 0.0
C831 C 0.83478 0.9561 0.69724 0.0
C832 C 0.84836 0.99136 0.69961 0.0
C833 C 0.8851 0.09384 0.69936 0.0
C834 C 0.87296 0.05857 0.7007 0.0
H835 H 0.77101 0.89094 0.66956 0.0
H836 H 0.79426 0.94877 0.67325 0.0
H837 H 0.8978 1.00378 0.6923 0.0
H838 H 0.9511 0.16657 0.7136 0.0
H839 H 0.93229 0.10893 0.71612 0.0
C840 C 0.89765 0.7556 0.71383 0.0
C841 C 0.8745 0.76188 0.70263 0.0
C842 C 0.93028 0.77871 0.71335 0.0
C843 C 0.9892 0.85075 0.67751 0.0
H844 H 0.04427 0.86002 0.73645 0.0
C845 C 0.12525 0.94582 0.6798 0.0
C846 C 0.14615 0.93633 0.69079 0.0
C847 C 0.09181 0.926 0.68163 0.0
C848 C 0.02932 0.85753 0.7197 0.0
H849 H 0.86758 0.79771 0.68249 0.0
H850 H 0.92474 0.83839 0.682 0.0
H851 H 0.98653 0.8235 0.73952 0.0
H852 H 0.14807 0.89794 0.71158 0.0
H853 H 0.09007 0.86356 0.71474 0.0
H854 H 0.03213 0.88454 0.65757 0.0
C855 C 0.91754 0.81534 0.6909 0.0
C856 C 0.99616 0.8366 0.72148 0.0
C857 C 0.88476 0.79214 0.6914 0.0
C858 C 0.13277 0.90639 0.7034 0.0
C859 C 0.09943 0.88663 0.70521 0.0
C860 C 0.02244 0.8717 0.6757 0.0
C861 C 0.94071 0.80878 0.7017 0.0
C862 C 0.97571 0.83267 0.70032 0.0
C863 C 0.07849 0.89622 0.69447 0.0
C864 C 0.04296 0.87507 0.69668 0.0
H865 H 0.89072 0.73252 0.72256 0.0
H866 H 0.94744 0.7726 0.72149 0.0
H867 H 0.97422 0.848 0.66071 0.0
H868 H 0.13469 0.96885 0.6702 0.0
H869 H 0.07643 0.93431 0.67337 0.0
C870 C 0.28498 0.15968 0.71481 0.0
C871 C 0.27659 0.12857 0.70632 0.0
C872 C 0.2623 0.16984 0.71496 0.0
C873 C 0.18531 0.1532 0.68495 0.0
H874 H 0.18641 0.20866 0.74059 0.0
C875 C 0.09217 0.19685 0.69027 0.0
C876 C 0.10326 0.22851 0.69891 0.0
C877 C 0.11206 0.18322 0.69164 0.0
C878 C 0.18597 0.1935 0.72471 0.0
H879 H 0.23745 0.08365 0.69155 0.0
H880 H 0.19749 0.10128 0.69223 0.0
H881 H 0.22261 0.18693 0.74271 0.0
H882 H 0.14455 0.27084 0.7151 0.0
H883 H 0.17901 0.2472 0.71749 0.0
H884 H 0.14894 0.16014 0.66677 0.0
C885 C 0.22185 0.11788 0.69856 0.0
C886 C 0.20672 0.18095 0.72597 0.0
C887 C 0.24465 0.10764 0.69845 0.0
C888 C 0.13485 0.24619 0.70878 0.0
C889 C 0.15469 0.23258 0.71015 0.0
C890 C 0.16456 0.16584 0.68365 0.0
C891 C 0.23049 0.1492 0.70667 0.0
C892 C 0.2069 0.16087 0.706 0.0
C893 C 0.14356 0.20086 0.7017 0.0
C894 C 0.16482 0.18642 0.70341 0.0
H895 H 0.30937 0.17661 0.7209 0.0
H896 H 0.27001 0.19427 0.72092 0.0
H897 H 0.18509 0.13817 0.66904 0.0
H898 H 0.06788 0.18231 0.68286 0.0
H899 H 0.10247 0.15861 0.68526 0.0
C900 C 0.08435 0.37034 0.28393 0.0
C901 C 0.11499 0.3735 0.28675 0.0
C902 C 0.07616 0.38083 0.26128 0.0
C903 C 0.10905 0.43211 0.20249 0.0
H904 H 0.02318 0.37552 0.1757 0.0
C905 C 0.06209 0.44928 0.10097 0.0
C906 C 0.02868 0.43656 0.09846 0.0
C907 C 0.07523 0.44578 0.12458 0.0
C908 C 0.04705 0.3921 0.18304 0.0
H909 H 0.16127 0.39049 0.26822 0.0
H910 H 0.14677 0.40856 0.22811 0.0
H911 H 0.04093 0.36105 0.21504 0.0
H912 H 0.98336 0.41317 0.1191 0.0
H913 H 1.00612 0.40963 0.16049 0.0
H914 H 0.11496 0.46328 0.17034 0.0
C915 C 0.12923 0.39828 0.24367 0.0
C916 C 0.05731 0.38361 0.20568 0.0
C917 C 0.13748 0.38776 0.26651 0.0
C918 C 1.00924 0.42344 0.12057 0.0
C919 C 0.02229 0.42068 0.14416 0.0
C920 C 0.09864 0.44081 0.17979 0.0
C921 C 0.09827 0.39452 0.24066 0.0
C922 C 0.08829 0.40361 0.21591 0.0
C923 C 0.05514 0.43005 0.14616 0.0
C924 C 0.06725 0.42111 0.16996 0.0
H925 H 0.06646 0.35947 0.2992 0.0
H926 H 0.05233 0.37808 0.25992 0.0
H927 H 0.13308 0.44809 0.20987 0.0
H928 H 0.07759 0.45937 0.08417 0.0
H929 H 0.10066 0.45348 0.12527 0.0
C930 C 0.64258 0.73136 0.28661 0.0
C931 C 0.67403 0.75756 0.28838 0.0
C932 C 0.63212 0.71239 0.26389 0.0
C933 C 0.66454 0.69954 0.20006 0.0
H934 H 0.57379 0.64865 0.18291 0.0
C935 C 0.62014 0.64345 0.0983 0.0
C936 C 0.59859 0.61016 0.09789 0.0
C937 C 0.62713 0.66079 0.12166 0.0
C938 C 0.59921 0.66274 0.18754 0.0
H939 H 0.7185 0.78573 0.26717 0.0
H940 H 0.69977 0.75524 0.22712 0.0
H941 H 0.59022 0.6807 0.22282 0.0
H942 H 0.56725 0.56891 0.12139 0.0
H943 H 0.57878 0.5996 0.16254 0.0
H944 H 0.67325 0.68273 0.16385 0.0
C945 C 0.6835 0.74729 0.24358 0.0
C946 C 0.6088 0.68103 0.21063 0.0
C947 C 0.69425 0.76535 0.26658 0.0
C948 C 0.58352 0.59462 0.1212 0.0
C949 C 0.59014 0.61215 0.14464 0.0
C950 C 0.65496 0.68208 0.1767 0.0
C951 C 0.65246 0.71998 0.24188 0.0
C952 C 0.64173 0.69989 0.21733 0.0
C953 C 0.61255 0.64528 0.14515 0.0
C954 C 0.62224 0.6635 0.17018 0.0
H955 H 0.6261 0.72536 0.30283 0.0
H956 H 0.60819 0.69162 0.26392 0.0
H957 H 0.69002 0.71244 0.20448 0.0
H958 H 0.63267 0.65586 0.08067 0.0
H959 H 0.6444 0.68628 0.12145 0.0
C960 C 0.44409 0.02849 0.12417 0.0
C961 C 0.43586 1.00809 0.10234 0.0
C962 C 0.42679 0.01776 0.1475 0.0
C963 C 0.36788 0.94521 0.18437 0.0
H964 H 0.34966 1.00652 0.21853 0.0
C965 C 0.30419 0.92086 0.28567 0.0
C966 C 0.28193 0.93158 0.28901 0.0
C967 C 0.32355 0.92923 0.26323 0.0
C968 C 0.35425 0.98894 0.2092 0.0
H969 H 0.40346 0.9598 0.08828 0.0
H970 H 0.37326 0.94096 0.12915 0.0
H971 H 0.38166 0.02177 0.17889 0.0
H972 H 0.26248 0.95937 0.27155 0.0
H973 H 0.29562 0.97351 0.23239 0.0
H974 H 0.3395 0.91207 0.21446 0.0
C975 C 0.39337 0.96528 0.12828 0.0
C976 C 0.37307 0.99787 0.18657 0.0
C977 C 0.4108 0.97605 0.10485 0.0
C978 C 0.27937 0.95071 0.26951 0.0
C979 C 0.29863 0.95905 0.24713 0.0
C980 C 0.34894 0.93623 0.20708 0.0
C981 C 0.40063 0.98629 0.14972 0.0
C982 C 0.38031 0.97623 0.17385 0.0
C983 C 0.32106 0.94852 0.24365 0.0
C984 C 0.3418 0.95798 0.21977 0.0
H985 H 0.46308 0.05333 0.12284 0.0
H986 H 0.43355 0.03448 0.16369 0.0
H987 H 0.37304 0.92794 0.17521 0.0
H988 H 0.30662 0.90598 0.30037 0.0
H989 H 0.34077 0.92097 0.2614 0.0
C990 C 0.47704 0.0591 0.93751 0.0
C991 C 0.45397 0.04472 0.95734 0.0
C992 C 0.46908 0.06876 0.91404 0.0
C993 C 0.3973 0.05221 0.87447 0.0
H994 H 0.45517 0.13107 0.83823 0.0
C995 C 0.34933 0.09227 0.78962 0.0
C996 C 0.36815 0.10385 0.76702 0.0
C997 C 0.36272 0.08966 0.81306 0.0
C998 C 0.43882 0.10884 0.84798 0.0
H999 H 0.40459 0.02929 0.96824 0.0
H1000 H 0.3912 0.04693 0.92823 0.0
H1001 H 0.47308 0.11677 0.87837 0.0
H1002 H 0.4163 0.12361 0.75148 0.0
H1003 H 0.44 0.11843 0.79258 0.0
H1004 H 0.36319 0.04377 0.84434 0.0
C1005 C 0.41523 0.05035 0.93028 0.0
C1006 C 0.44911 0.10061 0.87099 0.0
C1007 C 0.42307 0.04058 0.95346 0.0
C1008 C 0.40137 0.11505 0.76876 0.0
C1009 C 0.41484 0.11186 0.7923 0.0
C1010 C 0.38711 0.06032 0.85161 0.0
C1011 C 0.43789 0.0641 0.91004 0.0
C1012 C 0.42822 0.07244 0.88476 0.0
C1013 C 0.39525 0.09777 0.81444 0.0
C1014 C 0.40741 0.08906 0.83827 0.0
H1015 H 0.501 0.06248 0.94 0.0
H1016 H 0.48706 0.0791 0.89881 0.0
H1017 H 0.38083 0.02983 0.88403 0.0
H1018 H 0.32357 0.08304 0.78869 0.0
H1019 H 0.34702 0.07971 0.82982 0.0
C1020 C 1.0024 0.39625 0.95022 0.0
C1021 C 1.00212 0.42522 0.95306 0.0
C1022 C 0.99108 0.37805 0.92734 0.0
C1023 C 0.97344 0.38371 0.85728 0.0
H1024 H 0.92992 0.29086 0.8616 0.0
C1025 C 0.92478 0.30283 0.76473 0.0
C1026 C 0.92972 0.27631 0.76378 0.0
C1027 C 0.93034 0.32049 0.78795 0.0
C1028 C 0.94228 0.31676 0.85993 0.0
H1029 H 0.98989 0.45795 0.93406 0.0
H1030 H 0.96967 0.42596 0.89392 0.0
H1031 H 0.94597 0.32262 0.90145 0.0
H1032 H 0.94339 0.24703 0.78659 0.0
H1033 H 0.95308 0.27752 0.82681 0.0
H1034 H 0.96995 0.37773 0.81566 0.0
C1035 C 0.97893 0.41741 0.90938 0.0
C1036 C 0.95155 0.33507 0.88289 0.0
C1037 C 0.99032 0.43569 0.93242 0.0
C1038 C 0.93901 0.2671 0.78676 0.0
C1039 C 0.94455 0.28466 0.80989 0.0
C1040 C 0.96412 0.36535 0.83425 0.0
C1041 C 0.97917 0.38831 0.90653 0.0
C1042 C 0.96764 0.36884 0.88194 0.0
C1043 C 0.94078 0.31191 0.81078 0.0
C1044 C 0.94876 0.33159 0.83524 0.0
H1045 H 1.01165 0.38765 0.96569 0.0
H1046 H 0.99234 0.35621 0.92583 0.0
H1047 H 0.98611 0.40963 0.85567 0.0
H1048 H 0.91789 0.31074 0.7473 0.0
H1049 H 0.92682 0.34108 0.7879 0.0
C1050 C 0.74351 0.64603 0.76917 0.0
C1051 C 0.76693 0.67865 0.76678 0.0
C1052 C 0.72791 0.63388 0.79324 0.0
C1053 C 0.70869 0.66506 0.85297 0.0
H1054 H 0.67488 0.57868 0.87959 0.0
C1055 C 0.61516 0.61749 0.93525 0.0
C1056 C 0.61736 0.59812 0.95472 0.0
C1057 C 0.63441 0.62566 0.91295 0.0
C1058 C 0.68446 0.60301 0.87256 0.0
H1059 H 0.79354 0.72354 0.78766 0.0
H1060 H 0.76816 0.7023 0.82963 0.0
H1061 H 0.70814 0.59518 0.84005 0.0
H1062 H 0.6413 0.57183 0.96609 0.0
H1063 H 0.67568 0.58666 0.92712 0.0
H1064 H 0.68579 0.67332 0.88543 0.0
C1065 C 0.76098 0.68607 0.81308 0.0
C1066 C 0.70323 0.61235 0.84971 0.0
C1067 C 0.77612 0.69816 0.78913 0.0
C1068 C 0.63926 0.58696 0.95142 0.0
C1069 C 0.6587 0.59522 0.92899 0.0
C1070 C 0.69017 0.65582 0.8757 0.0
C1071 C 0.73558 0.6542 0.81525 0.0
C1072 C 0.71571 0.6436 0.83965 0.0
C1073 C 0.6566 0.61484 0.9095 0.0
C1074 C 0.67755 0.62462 0.88577 0.0
H1075 H 0.73523 0.63072 0.75202 0.0
H1076 H 0.70836 0.60926 0.79407 0.0
H1077 H 0.71714 0.68909 0.84564 0.0
H1078 H 0.5985 0.62644 0.93723 0.0
H1079 H 0.63161 0.6403 0.89824 0.0
C1080 C 0.73438 0.77758 0.43414 0.0
C1081 C 0.70309 0.7733 0.43323 0.0
C1082 C 0.74618 0.77125 0.45718 0.0
C1083 C 0.73065 0.75887 0.52899 0.0
H1084 H 0.77821 0.71329 0.52389 0.0
C1085 C 0.7509 0.69917 0.61911 0.0
C1086 C 0.77992 0.69872 0.62153 0.0
C1087 C 0.74359 0.71017 0.59625 0.0
C1088 C 0.76539 0.72644 0.52575 0.0
H1089 H 0.66011 0.75987 0.4559 0.0
H1090 H 0.68048 0.74896 0.4959 0.0
H1091 H 0.76254 0.73006 0.48417 0.0
H1092 H 0.82395 0.70918 0.60173 0.0
H1093 H 0.81149 0.72886 0.56165 0.0
H1094 H 0.7333 0.75525 0.57045 0.0
C1095 C 0.69619 0.75753 0.47905 0.0
C1096 C 0.75637 0.73609 0.50288 0.0
C1097 C 0.68443 0.76378 0.45607 0.0
C1098 C 0.80143 0.7093 0.60041 0.0
C1099 C 0.79414 0.7204 0.57741 0.0
C1100 C 0.73971 0.74932 0.5518 0.0
C1101 C 0.72705 0.76071 0.47989 0.0
C1102 C 0.73854 0.75214 0.50418 0.0
C1103 C 0.7651 0.72106 0.57503 0.0
C1104 C 0.7569 0.73262 0.55056 0.0
H1105 H 0.74926 0.78454 0.41677 0.0
H1106 H 0.77016 0.7743 0.45711 0.0
H1107 H 0.7175 0.77171 0.53087 0.0
H1108 H 0.73358 0.69082 0.63493 0.0
H1109 H 0.72072 0.70957 0.59514 0.0
C1110 C 0.25201 0.93647 0.45348 0.0
C1111 C 0.2721 0.94935 0.43166 0.0
C1112 C 0.25913 0.95434 0.47676 0.0
C1113 C 0.32777 0.01566 0.51319 0.0
H1114 H 0.2665 0.03078 0.55085 0.0
C1115 C 0.3693 0.09915 0.60339 0.0
C1116 C 0.34694 0.09554 0.62262 0.0
C1117 C 0.35916 0.08149 0.58009 0.0
C1118 C 0.28395 0.02636 0.54112 0.0
H1119 H 0.31469 0.99084 0.41649 0.0
H1120 H 0.32742 0.02172 0.45713 0.0
H1121 H 0.24985 0.9988 0.51102 0.0
H1122 H 0.29613 0.07218 0.63176 0.0
H1123 H 0.2786 0.03854 0.59301 0.0
H1124 H 0.36145 0.0412 0.54346 0.0
C1125 C 0.30623 0.99804 0.45639 0.0
C1126 C 0.27428 1.00814 0.51804 0.0
C1127 C 0.29886 0.98047 0.43316 0.0
C1128 C 0.31412 0.07432 0.61787 0.0
C1129 C 0.304 0.05563 0.59507 0.0
C1130 C 0.3372 0.03302 0.53661 0.0
C1131 C 0.28675 0.985 0.47857 0.0
C1132 C 0.29624 1.00301 0.50367 0.0
C1133 C 0.32634 0.0589 0.57563 0.0
C1134 C 0.31566 0.03918 0.5509 0.0
H1135 H 0.23135 0.91246 0.4527 0.0
H1136 H 0.24377 0.94375 0.49362 0.0
H1137 H 0.34511 0.0117 0.50266 0.0
H1138 H 0.39475 0.11577 0.60629 0.0
H1139 H 0.37732 0.08606 0.56557 0.0
C1140 C 0.98006 0.29489 0.61709 0.0
C1141 C 0.95283 0.26451 0.62036 0.0
C1142 C 0.99928 0.30169 0.59477 0.0
C1143 C 0.9968 0.27402 0.52631 0.0
H1144 H 0.08924 0.33012 0.53075 0.0
C1145 C 0.07753 0.3085 0.43379 0.0
C1146 C 0.10045 0.34132 0.43192 0.0
C1147 C 0.06152 0.2956 0.45756 0.0
C1148 C 0.06344 0.31453 0.52906 0.0
H1149 H 0.92413 0.21729 0.60343 0.0
H1150 H 0.95766 0.2289 0.56435 0.0
H1151 H 0.05715 0.31522 0.57041 0.0
H1152 H 0.12536 0.38594 0.45342 0.0
H1153 H 0.09851 0.36376 0.49462 0.0
H1154 H 1.0031 0.27388 0.48484 0.0
C1155 C 0.96423 0.24768 0.57879 0.0
C1156 C 0.04496 0.30603 0.55189 0.0
C1157 C 0.94514 0.24088 0.60121 0.0
C1158 C 0.10856 0.36036 0.45453 0.0
C1159 C 0.09287 0.34759 0.47817 0.0
C1160 C 1.01532 0.28259 0.50341 0.0
C1161 C 0.99148 0.27826 0.57516 0.0
C1162 C 1.01132 0.28596 0.55086 0.0
C1163 C 0.06837 0.31528 0.4799 0.0
C1164 C 0.0489 0.30332 0.50442 0.0
H1165 H 0.98628 0.31348 0.63167 0.0
H1166 H 0.01977 0.32562 0.59261 0.0
H1167 H 0.97093 0.25887 0.52463 0.0
H1168 H 0.07009 0.29344 0.41652 0.0
H1169 H 0.04298 0.27054 0.45817 0.0
loop_
_geom_bond_atom_site_label_1
_geom_bond_atom_site_label_2
_geom_bond_distance
_geom_bond_site_symmetry_2
_ccdc_geom_bond_type
Tb0 C2 2.809 . S
Tb0 O20 2.484 1_556 S
Tb0 O21 2.440 . S
Tb0 O22 2.658 1_455 S
Tb0 O23 2.409 . S
Tb0 O24 2.378 . S
Tb0 O28 2.325 1_556 S
Tb0 O31 2.341 1_456 S
Tb1 C11 2.809 . S
Tb1 O22 2.325 1_554 S
Tb1 O25 2.341 1_655 S
Tb1 O26 2.484 1_554 S
Tb1 O27 2.440 . S
Tb1 O28 2.658 1_655 S
Tb1 O29 2.409 . S
Tb1 O30 2.378 . S
C2 Tb0 2.809 . S
C2 C3 1.514 . S
C2 O20 1.248 1_556 S
C2 O21 1.266 . S
C3 C2 1.514 . S
C3 C4 1.359 1_556 S
C3 C8 1.348 . S
C4 C3 1.359 1_554 S
C4 C5 1.380 . S
C4 H32 0.929 . S
C5 C4 1.380 . S
C5 C6 1.347 1_554 S
C5 H33 0.931 . S
C6 C5 1.347 1_556 S
C6 C7 1.369 . S
C7 C6 1.369 . S
C7 C8 1.408 . S
C7 H34 0.930 . S
C8 C3 1.348 . S
C8 C7 1.408 . S
C8 H35 0.930 . S
C9 O22 1.281 . S
C9 O23 1.254 1_655 S
C10 O24 1.236 . S
C10 O25 1.266 1_556 S
C11 Tb1 2.809 . S
C11 C12 1.514 . S
C11 O26 1.248 1_554 S
C11 O27 1.266 . S
C12 C11 1.514 . S
C12 C13 1.359 1_554 S
C12 C17 1.348 . S
C13 C12 1.359 1_556 S
C13 C14 1.380 . S
C13 H36 0.929 . S
C14 C13 1.380 . S
C14 C15 1.347 1_556 S
C14 H37 0.931 . S
C15 C14 1.347 1_554 S
C15 C16 1.369 . S
C16 C15 1.369 . S
C16 C17 1.408 . S
C16 H38 0.930 . S
C17 C12 1.348 . S
C17 C16 1.408 . S
C17 H39 0.930 . S
C18 O28 1.281 . S
C18 O29 1.254 1_455 S
C19 O30 1.236 . S
C19 O31 1.266 . S
O20 Tb0 2.484 1_554 S
O20 C2 1.248 1_554 S
O21 Tb0 2.440 . S
O21 C2 1.266 . S
O22 Tb0 2.658 1_655 S
O22 Tb1 2.325 1_556 S
O22 C9 1.281 . S
O23 Tb0 2.409 . S
O23 C9 1.254 1_455 S
O24 Tb0 2.378 . S
O24 C10 1.236 . S
O25 Tb1 2.341 1_455 S
O25 C10 1.266 1_554 S
O26 Tb1 2.484 1_556 S
O26 C11 1.248 1_556 S
O27 Tb1 2.440 . S
O27 C11 1.266 . S
O28 Tb0 2.325 1_554 S
O28 Tb1 2.658 1_455 S
O28 C18 1.281 . S
O29 Tb1 2.409 . S
O29 C18 1.254 1_655 S
O30 Tb1 2.378 . S
O30 C19 1.236 . S
O31 Tb0 2.341 1_654 S
O31 C19 1.266 . S
H32 C4 0.929 . S
H33 C5 0.931 . S
H34 C7 0.930 . S
H35 C8 0.930 . S
H36 C13 0.929 . S
H37 C14 0.931 . S
H38 C16 0.930 . S
H39 C17 0.930 . S
Tb40 C42 2.809 . S
Tb40 O60 2.484 1_556 S
Tb40 O61 2.440 . S
Tb40 O62 2.658 . S
Tb40 O63 2.409 . S
Tb40 O64 2.378 . S
Tb40 O68 2.325 1_556 S
Tb40 O71 2.341 1_556 S
Tb41 C51 2.809 . S
Tb41 O62 2.325 1_554 S
Tb41 O65 2.341 . S
Tb41 O66 2.484 1_554 S
Tb41 O67 2.440 . S
Tb41 O68 2.658 . S
Tb41 O69 2.409 . S
Tb41 O70 2.378 . S
C42 Tb40 2.809 . S
C42 C43 1.514 . S
C42 O60 1.248 1_556 S
C42 O61 1.266 . S
C43 C42 1.514 . S
C43 C44 1.359 1_556 S
C43 C48 1.348 . S
C44 C43 1.359 1_554 S
C44 C45 1.380 . S
C44 H72 0.929 . S
C45 C44 1.380 . S
C45 C46 1.347 1_554 S
C45 H73 0.931 . S
C46 C45 1.347 1_556 S
C46 C47 1.369 . S
C47 C46 1.369 . S
C47 C48 1.408 . S
C47 H74 0.930 . S
C48 C43 1.348 . S
C48 C47 1.408 . S
C48 H75 0.930 . S
C49 O62 1.281 . S
C49 O63 1.254 . S
C50 O64 1.236 . S
C50 O65 1.266 1_556 S
C51 Tb41 2.809 . S
C51 C52 1.514 . S
C51 O66 1.248 1_554 S
C51 O67 1.266 . S
C52 C51 1.514 . S
C52 C53 1.359 1_554 S
C52 C57 1.348 . S
C53 C52 1.359 1_556 S
C53 C54 1.380 . S
C53 H76 0.929 . S
C54 C53 1.380 . S
C54 C55 1.347 1_556 S
C54 H77 0.931 . S
C55 C54 1.347 1_554 S
C55 C56 1.369 . S
C56 C55 1.369 . S
C56 C57 1.408 . S
C56 H78 0.930 . S
C57 C52 1.348 . S
C57 C56 1.408 . S
C57 H79 0.930 . S
C58 O68 1.281 . S
C58 O69 1.254 . S
C59 O70 1.236 . S
C59 O71 1.266 . S
O60 Tb40 2.484 1_554 S
O60 C42 1.248 1_554 S
O61 Tb40 2.440 . S
O61 C42 1.266 . S
O62 Tb40 2.658 . S
O62 Tb41 2.325 1_556 S
O62 C49 1.281 . S
O63 Tb40 2.409 . S
O63 C49 1.254 . S
O64 Tb40 2.378 . S
O64 C50 1.236 . S
O65 Tb41 2.341 . S
O65 C50 1.266 1_554 S
O66 Tb41 2.484 1_556 S
O66 C51 1.248 1_556 S
O67 Tb41 2.440 . S
O67 C51 1.266 . S
O68 Tb40 2.325 1_554 S
O68 Tb41 2.658 . S
O68 C58 1.281 . S
O69 Tb41 2.409 . S
O69 C58 1.254 . S
O70 Tb41 2.378 . S
O70 C59 1.236 . S
O71 Tb40 2.341 1_554 S
O71 C59 1.266 . S
H72 C44 0.929 . S
H73 C45 0.931 . S
H74 C47 0.930 . S
H75 C48 0.930 . S
H76 C53 0.929 . S
H77 C54 0.931 . S
H78 C56 0.930 . S
H79 C57 0.930 . S
Tb80 C82 2.809 . S
Tb80 O100 2.484 1_556 S
Tb80 O101 2.440 . S
Tb80 O102 2.658 1_565 S
Tb80 O103 2.409 . S
Tb80 O104 2.378 . S
Tb80 O108 2.325 1_556 S
Tb80 O111 2.341 1_566 S
Tb81 C91 2.809 . S
Tb81 O102 2.325 1_554 S
Tb81 O105 2.341 1_545 S
Tb81 O106 2.484 1_554 S
Tb81 O107 2.440 . S
Tb81 O108 2.658 1_545 S
Tb81 O109 2.409 . S
Tb81 O110 2.378 . S
C82 Tb80 2.809 . S
C82 C83 1.514 . S
C82 O100 1.248 1_556 S
C82 O101 1.266 . S
C83 C82 1.514 . S
C83 C84 1.359 1_556 S
C83 C88 1.348 . S
C84 C83 1.359 1_554 S
C84 C85 1.380 . S
C84 H112 0.929 . S
C85 C84 1.380 . S
C85 C86 1.347 1_554 S
C85 H113 0.931 . S
C86 C85 1.347 1_556 S
C86 C87 1.369 . S
C87 C86 1.369 . S
C87 C88 1.408 . S
C87 H114 0.930 . S
C88 C83 1.348 . S
C88 C87 1.408 . S
C88 H115 0.930 . S
C89 O102 1.281 . S
C89 O103 1.254 1_545 S
C90 O104 1.236 . S
C90 O105 1.266 1_556 S
C91 Tb81 2.809 . S
C91 C92 1.514 . S
C91 O106 1.248 1_554 S
C91 O107 1.266 . S
C92 C91 1.514 . S
C92 C93 1.359 1_554 S
C92 C97 1.348 . S
C93 C92 1.359 1_556 S
C93 C94 1.380 . S
C93 H116 0.929 . S
C94 C93 1.380 . S
C94 C95 1.347 1_556 S
C94 H117 0.931 . S
C95 C94 1.347 1_554 S
C95 C96 1.369 . S
C96 C95 1.369 . S
C96 C97 1.408 . S
C96 H118 0.930 . S
C97 C92 1.348 . S
C97 C96 1.408 . S
C97 H119 0.930 . S
C98 O108 1.281 1_545 S
C98 O109 1.254 . S
C99 O110 1.236 . S
C99 O111 1.266 . S
O100 Tb80 2.484 1_554 S
O100 C82 1.248 1_554 S
O101 Tb80 2.440 . S
O101 C82 1.266 . S
O102 Tb80 2.658 1_545 S
O102 Tb81 2.325 1_556 S
O102 C89 1.281 . S
O103 Tb80 2.409 . S
O103 C89 1.254 1_565 S
O104 Tb80 2.378 . S
O104 C90 1.236 . S
O105 Tb81 2.341 1_565 S
O105 C90 1.266 1_554 S
O106 Tb81 2.484 1_556 S
O106 C91 1.248 1_556 S
O107 Tb81 2.440 . S
O107 C91 1.266 . S
O108 Tb80 2.325 1_554 S
O108 Tb81 2.658 1_565 S
O108 C98 1.281 1_565 S
O109 Tb81 2.409 . S
O109 C98 1.254 . S
O110 Tb81 2.378 . S
O110 C99 1.236 . S
O111 Tb80 2.341 1_544 S
O111 C99 1.266 . S
H112 C84 0.929 . S
H113 C85 0.931 . S
H114 C87 0.930 . S
H115 C88 0.930 . S
H116 C93 0.929 . S
H117 C94 0.931 . S
H118 C96 0.930 . S
H119 C97 0.930 . S
Tb120 C122 2.809 . S
Tb120 O140 2.484 . S
Tb120 O141 2.440 . S
Tb120 O142 2.658 . S
Tb120 O143 2.409 . S
Tb120 O144 2.378 . S
Tb120 O148 2.325 . S
Tb120 O151 2.341 . S
Tb121 C131 2.809 . S
Tb121 O142 2.325 . S
Tb121 O145 2.341 . S
Tb121 O146 2.484 . S
Tb121 O147 2.440 . S
Tb121 O148 2.658 . S
Tb121 O149 2.409 . S
Tb121 O150 2.378 . S
C122 Tb120 2.809 . S
C122 C123 1.514 . S
C122 O140 1.248 . S
C122 O141 1.266 . S
C123 C122 1.514 . S
C123 C124 1.359 . S
C123 C128 1.348 . S
C124 C123 1.359 . S
C124 C125 1.380 . S
C124 H152 0.929 . S
C125 C124 1.380 . S
C125 C126 1.347 . S
C125 H153 0.931 . S
C126 C125 1.347 . S
C126 C127 1.369 . S
C127 C126 1.369 . S
C127 C128 1.408 . S
C127 H154 0.930 . S
C128 C123 1.348 . S
C128 C127 1.408 . S
C128 H155 0.930 . S
C129 O142 1.281 . S
C129 O143 1.254 . S
C130 O144 1.236 . S
C130 O145 1.266 . S
C131 Tb121 2.809 . S
C131 C132 1.514 . S
C131 O146 1.248 . S
C131 O147 1.266 . S
C132 C131 1.514 . S
C132 C133 1.359 . S
C132 C137 1.348 . S
C133 C132 1.359 . S
C133 C134 1.380 . S
C133 H156 0.929 . S
C134 C133 1.380 . S
C134 C135 1.347 . S
C134 H157 0.931 . S
C135 C134 1.347 . S
C135 C136 1.369 . S
C136 C135 1.369 . S
C136 C137 1.408 . S
C136 H158 0.930 . S
C137 C132 1.348 . S
C137 C136 1.408 . S
C137 H159 0.930 . S
C138 O148 1.281 . S
C138 O149 1.254 . S
C139 O150 1.236 . S
C139 O151 1.266 . S
O140 Tb120 2.484 . S
O140 C122 1.248 . S
O141 Tb120 2.440 . S
O141 C122 1.266 . S
O142 Tb120 2.658 . S
O142 Tb121 2.325 . S
O142 C129 1.281 . S
O143 Tb120 2.409 . S
O143 C129 1.254 . S
O144 Tb120 2.378 . S
O144 C130 1.236 . S
O145 Tb121 2.341 . S
O145 C130 1.266 . S
O146 Tb121 2.484 . S
O146 C131 1.248 . S
O147 Tb121 2.440 . S
O147 C131 1.266 . S
O148 Tb120 2.325 . S
O148 Tb121 2.658 . S
O148 C138 1.281 . S
O149 Tb121 2.409 . S
O149 C138 1.254 . S
O150 Tb121 2.378 . S
O150 C139 1.236 . S
O151 Tb120 2.341 . S
O151 C139 1.266 . S
H152 C124 0.929 . S
H153 C125 0.931 . S
H154 C127 0.930 . S
H155 C128 0.930 . S
H156 C133 0.929 . S
H157 C134 0.931 . S
H158 C136 0.930 . S
H159 C137 0.930 . S
Tb160 C162 2.809 . S
Tb160 O180 2.484 . S
Tb160 O181 2.440 . S
Tb160 O182 2.658 . S
Tb160 O183 2.409 . S
Tb160 O184 2.378 . S
Tb160 O188 2.325 . S
Tb160 O191 2.341 . S
Tb161 C171 2.809 . S
Tb161 O182 2.325 . S
Tb161 O185 2.341 . S
Tb161 O186 2.484 . S
Tb161 O187 2.440 . S
Tb161 O188 2.658 . S
Tb161 O189 2.409 . S
Tb161 O190 2.378 . S
C162 Tb160 2.809 . S
C162 C163 1.514 . S
C162 O180 1.248 . S
C162 O181 1.266 . S
C163 C162 1.514 . S
C163 C164 1.359 . S
C163 C168 1.348 . S
C164 C163 1.359 . S
C164 C165 1.380 . S
C164 H192 0.929 . S
C165 C164 1.380 . S
C165 C166 1.347 . S
C165 H193 0.931 . S
C166 C165 1.347 . S
C166 C167 1.369 . S
C167 C166 1.369 . S
C167 C168 1.408 . S
C167 H194 0.930 . S
C168 C163 1.348 . S
C168 C167 1.408 . S
C168 H195 0.930 . S
C169 O182 1.281 . S
C169 O183 1.254 . S
C170 O184 1.236 . S
C170 O185 1.266 . S
C171 Tb161 2.809 . S
C171 C172 1.514 . S
C171 O186 1.248 . S
C171 O187 1.266 . S
C172 C171 1.514 . S
C172 C173 1.359 . S
C172 C177 1.348 . S
C173 C172 1.359 . S
C173 C174 1.380 . S
C173 H196 0.929 . S
C174 C173 1.380 . S
C174 C175 1.347 . S
C174 H197 0.931 . S
C175 C174 1.347 . S
C175 C176 1.369 . S
C176 C175 1.369 . S
C176 C177 1.408 . S
C176 H198 0.930 . S
C177 C172 1.348 . S
C177 C176 1.408 . S
C177 H199 0.930 . S
C178 O188 1.281 . S
C178 O189 1.254 . S
C179 O190 1.236 . S
C179 O191 1.266 . S
O180 Tb160 2.484 . S
O180 C162 1.248 . S
O181 Tb160 2.440 . S
O181 C162 1.266 . S
O182 Tb160 2.658 . S
O182 Tb161 2.325 . S
O182 C169 1.281 . S
O183 Tb160 2.409 . S
O183 C169 1.254 . S
O184 Tb160 2.378 . S
O184 C170 1.236 . S
O185 Tb161 2.341 . S
O185 C170 1.266 . S
O186 Tb161 2.484 . S
O186 C171 1.248 . S
O187 Tb161 2.440 . S
O187 C171 1.266 . S
O188 Tb160 2.325 . S
O188 Tb161 2.658 . S
O188 C178 1.281 . S
O189 Tb161 2.409 . S
O189 C178 1.254 . S
O190 Tb161 2.378 . S
O190 C179 1.236 . S
O191 Tb160 2.341 . S
O191 C179 1.266 . S
H192 C164 0.929 . S
H193 C165 0.931 . S
H194 C167 0.930 . S
H195 C168 0.930 . S
H196 C173 0.929 . S
H197 C174 0.931 . S
H198 C176 0.930 . S
H199 C177 0.930 . S
Tb200 C202 2.809 . S
Tb200 O220 2.484 . S
Tb200 O221 2.440 . S
Tb200 O222 2.658 . S
Tb200 O223 2.409 . S
Tb200 O224 2.378 . S
Tb200 O228 2.325 . S
Tb200 O231 2.341 . S
Tb201 C211 2.809 . S
Tb201 O222 2.325 . S
Tb201 O225 2.341 . S
Tb201 O226 2.484 . S
Tb201 O227 2.440 . S
Tb201 O228 2.658 . S
Tb201 O229 2.409 . S
Tb201 O230 2.378 . S
C202 Tb200 2.809 . S
C202 C203 1.514 . S
C202 O220 1.248 . S
C202 O221 1.266 . S
C203 C202 1.514 . S
C203 C204 1.359 . S
C203 C208 1.348 . S
C204 C203 1.359 . S
C204 C205 1.380 . S
C204 H232 0.929 . S
C205 C204 1.380 . S
C205 C206 1.347 . S
C205 H233 0.931 . S
C206 C205 1.347 . S
C206 C207 1.369 . S
C207 C206 1.369 . S
C207 C208 1.408 . S
C207 H234 0.930 . S
C208 C203 1.348 . S
C208 C207 1.408 . S
C208 H235 0.930 . S
C209 O222 1.281 . S
C209 O223 1.254 . S
C210 O224 1.236 . S
C210 O225 1.266 . S
C211 Tb201 2.809 . S
C211 C212 1.514 . S
C211 O226 1.248 . S
C211 O227 1.266 . S
C212 C211 1.514 . S
C212 C213 1.359 . S
C212 C217 1.348 . S
C213 C212 1.359 . S
C213 C214 1.380 . S
C213 H236 0.929 . S
C214 C213 1.380 . S
C214 C215 1.347 . S
C214 H237 0.931 . S
C215 C214 1.347 . S
C215 C216 1.369 . S
C216 C215 1.369 . S
C216 C217 1.408 . S
C216 H238 0.930 . S
C217 C212 1.348 . S
C217 C216 1.408 . S
C217 H239 0.930 . S
C218 O228 1.281 . S
C218 O229 1.254 . S
C219 O230 1.236 . S
C219 O231 1.266 . S
O220 Tb200 2.484 . S
O220 C202 1.248 . S
O221 Tb200 2.440 . S
O221 C202 1.266 . S
O222 Tb200 2.658 . S
O222 Tb201 2.325 . S
O222 C209 1.281 . S
O223 Tb200 2.409 . S
O223 C209 1.254 . S
O224 Tb200 2.378 . S
O224 C210 1.236 . S
O225 Tb201 2.341 . S
O225 C210 1.266 . S
O226 Tb201 2.484 . S
O226 C211 1.248 . S
O227 Tb201 2.440 . S
O227 C211 1.266 . S
O228 Tb200 2.325 . S
O228 Tb201 2.658 . S
O228 C218 1.281 . S
O229 Tb201 2.409 . S
O229 C218 1.254 . S
O230 Tb201 2.378 . S
O230 C219 1.236 . S
O231 Tb200 2.341 . S
O231 C219 1.266 . S
H232 C204 0.929 . S
H233 C205 0.931 . S
H234 C207 0.930 . S
H235 C208 0.930 . S
H236 C213 0.929 . S
H237 C214 0.931 . S
H238 C216 0.930 . S
H239 C217 0.930 . S
Tb240 C242 2.809 . S
Tb240 O260 2.484 . S
Tb240 O261 2.440 . S
Tb240 O262 2.658 . S
Tb240 O263 2.409 . S
Tb240 O264 2.378 . S
Tb240 O268 2.325 . S
Tb240 O271 2.341 . S
Tb241 C251 2.809 . S
Tb241 O262 2.325 . S
Tb241 O265 2.341 . S
Tb241 O266 2.484 . S
Tb241 O267 2.440 . S
Tb241 O268 2.658 . S
Tb241 O269 2.409 . S
Tb241 O270 2.378 . S
C242 Tb240 2.809 . S
C242 C243 1.514 . S
C242 O260 1.248 . S
C242 O261 1.266 . S
C243 C242 1.514 . S
C243 C244 1.359 . S
C243 C248 1.348 . S
C244 C243 1.359 . S
C244 C245 1.380 . S
C244 H272 0.929 . S
C245 C244 1.380 . S
C245 C246 1.347 . S
C245 H273 0.931 . S
C246 C245 1.347 . S
C246 C247 1.369 . S
C247 C246 1.369 . S
C247 C248 1.408 . S
C247 H274 0.930 . S
C248 C243 1.348 . S
C248 C247 1.408 . S
C248 H275 0.930 . S
C249 O262 1.281 . S
C249 O263 1.254 . S
C250 O264 1.236 . S
C250 O265 1.266 . S
C251 Tb241 2.809 . S
C251 C252 1.519 . S
C251 O266 1.248 . S
C251 O267 1.266 . S
C252 C251 1.519 . S
C252 C253 1.360 1_545 S
C252 C257 1.341 1_545 S
C253 C252 1.360 1_565 S
C253 C254 1.380 . S
C253 H276 0.929 1_565 S
C254 C253 1.380 . S
C254 C255 1.347 . S
C254 H277 0.931 . S
C255 C254 1.347 . S
C255 C256 1.369 . S
C256 C255 1.369 . S
C256 C257 1.408 . S
C256 H278 0.930 . S
C257 C252 1.341 1_565 S
C257 C256 1.408 . S
C257 H279 0.930 . S
C258 O268 1.281 . S
C258 O269 1.254 . S
C259 O270 1.236 . S
C259 O271 1.266 . S
O260 Tb240 2.484 . S
O260 C242 1.248 . S
O261 Tb240 2.440 . S
O261 C242 1.266 . S
O262 Tb240 2.658 . S
O262 Tb241 2.325 . S
O262 C249 1.281 . S
O263 Tb240 2.409 . S
O263 C249 1.254 . S
O264 Tb240 2.378 . S
O264 C250 1.236 . S
O265 Tb241 2.341 . S
O265 C250 1.266 . S
O266 Tb241 2.484 . S
O266 C251 1.248 . S
O267 Tb241 2.440 . S
O267 C251 1.266 . S
O268 Tb240 2.325 . S
O268 Tb241 2.658 . S
O268 C258 1.281 . S
O269 Tb241 2.409 . S
O269 C258 1.254 . S
O270 Tb241 2.378 . S
O270 C259 1.236 . S
O271 Tb240 2.341 . S
O271 C259 1.266 . S
H272 C244 0.929 . S
H273 C245 0.931 . S
H274 C247 0.930 . S
H275 C248 0.930 . S
H276 C253 0.929 1_545 S
H277 C254 0.931 . S
H278 C256 0.930 . S
H279 C257 0.930 . S
Tb280 C282 2.809 . S
Tb280 O300 2.484 . S
Tb280 O301 2.440 . S
Tb280 O302 2.658 . S
Tb280 O303 2.409 . S
Tb280 O304 2.378 . S
Tb280 O308 2.325 . S
Tb280 O311 2.341 . S
Tb281 C291 2.809 . S
Tb281 O302 2.325 . S
Tb281 O305 2.341 . S
Tb281 O306 2.484 . S
Tb281 O307 2.440 . S
Tb281 O308 2.658 . S
Tb281 O309 2.409 . S
Tb281 O310 2.378 . S
C282 Tb280 2.809 . S
C282 C283 1.514 . S
C282 O300 1.248 . S
C282 O301 1.266 . S
C283 C282 1.514 . S
C283 C284 1.359 . S
C283 C288 1.348 . S
C284 C283 1.359 . S
C284 C285 1.380 . S
C284 H312 0.929 . S
C285 C284 1.380 . S
C285 C286 1.347 . S
C285 H313 0.931 . S
C286 C285 1.347 . S
C286 C287 1.369 . S
C287 C286 1.369 . S
C287 C288 1.408 . S
C287 H314 0.930 . S
C288 C283 1.348 . S
C288 C287 1.408 . S
C288 H315 0.930 . S
C289 O302 1.281 . S
C289 O303 1.254 . S
C290 O304 1.236 . S
C290 O305 1.266 . S
C291 Tb281 2.809 . S
C291 C292 1.514 1_655 S
C291 O306 1.248 . S
C291 O307 1.266 . S
C292 C291 1.514 1_455 S
C292 C293 1.359 . S
C292 C297 1.348 . S
C293 C292 1.359 . S
C293 C294 1.380 . S
C293 H316 0.929 . S
C294 C293 1.380 . S
C294 C295 1.347 . S
C294 H317 0.931 . S
C295 C294 1.347 . S
C295 C296 1.369 . S
C296 C295 1.369 . S
C296 C297 1.408 . S
C296 H318 0.930 . S
C297 C292 1.348 . S
C297 C296 1.408 . S
C297 H319 0.930 . S
C298 O308 1.281 . S
C298 O309 1.254 . S
C299 O310 1.236 . S
C299 O311 1.266 . S
O300 Tb280 2.484 . S
O300 C282 1.248 . S
O301 Tb280 2.440 . S
O301 C282 1.266 . S
O302 Tb280 2.658 . S
O302 Tb281 2.325 . S
O302 C289 1.281 . S
O303 Tb280 2.409 . S
O303 C289 1.254 . S
O304 Tb280 2.378 . S
O304 C290 1.236 . S
O305 Tb281 2.341 . S
O305 C290 1.266 . S
O306 Tb281 2.484 . S
O306 C291 1.248 . S
O307 Tb281 2.440 . S
O307 C291 1.266 . S
O308 Tb280 2.325 . S
O308 Tb281 2.658 . S
O308 C298 1.281 . S
O309 Tb281 2.409 . S
O309 C298 1.254 . S
O310 Tb281 2.378 . S
O310 C299 1.236 . S
O311 Tb280 2.341 . S
O311 C299 1.266 . S
H312 C284 0.929 . S
H313 C285 0.931 . S
H314 C287 0.930 . S
H315 C288 0.930 . S
H316 C293 0.929 . S
H317 C294 0.931 . S
H318 C296 0.930 . S
H319 C297 0.930 . S
Tb320 C322 2.809 . S
Tb320 O340 2.484 . S
Tb320 O341 2.440 . S
Tb320 O342 2.658 . S
Tb320 O343 2.409 . S
Tb320 O344 2.378 . S
Tb320 O348 2.325 . S
Tb320 O351 2.341 . S
Tb321 C331 2.809 . S
Tb321 O342 2.325 . S
Tb321 O345 2.341 . S
Tb321 O346 2.484 . S
Tb321 O347 2.440 . S
Tb321 O348 2.658 . S
Tb321 O349 2.409 . S
Tb321 O350 2.378 . S
C322 Tb320 2.809 . S
C322 C323 1.514 . S
C322 O340 1.248 . S
C322 O341 1.266 . S
C323 C322 1.514 . S
C323 C324 1.359 . S
C323 C328 1.348 . S
C324 C323 1.359 . S
C324 C325 1.380 . S
C324 H352 0.929 . S
C325 C324 1.380 . S
C325 C326 1.347 . S
C325 H353 0.931 . S
C326 C325 1.347 . S
C326 C327 1.369 . S
C327 C326 1.369 . S
C327 C328 1.408 . S
C327 H354 0.930 . S
C328 C323 1.348 . S
C328 C327 1.408 . S
C328 H355 0.930 . S
C329 O342 1.281 . S
C329 O343 1.254 . S
C330 O344 1.236 . S
C330 O345 1.266 . S
C331 Tb321 2.809 . S
C331 C332 1.514 . S
C331 O346 1.248 . S
C331 O347 1.266 . S
C332 C331 1.514 . S
C332 C333 1.359 . S
C332 C337 1.348 . S
C333 C332 1.359 . S
C333 C334 1.380 . S
C333 H356 0.929 . S
C334 C333 1.380 . S
C334 C335 1.347 . S
C334 H357 0.931 . S
C335 C334 1.347 . S
C335 C336 1.369 . S
C336 C335 1.369 . S
C336 C337 1.408 . S
C336 H358 0.930 . S
C337 C332 1.348 . S
C337 C336 1.408 . S
C337 H359 0.930 . S
C338 O348 1.281 . S
C338 O349 1.254 . S
C339 O350 1.236 . S
C339 O351 1.266 . S
O340 Tb320 2.484 . S
O340 C322 1.248 . S
O341 Tb320 2.440 . S
O341 C322 1.266 . S
O342 Tb320 2.658 . S
O342 Tb321 2.325 . S
O342 C329 1.281 . S
O343 Tb320 2.409 . S
O343 C329 1.254 . S
O344 Tb320 2.378 . S
O344 C330 1.236 . S
O345 Tb321 2.341 . S
O345 C330 1.266 . S
O346 Tb321 2.484 . S
O346 C331 1.248 . S
O347 Tb321 2.440 . S
O347 C331 1.266 . S
O348 Tb320 2.325 . S
O348 Tb321 2.658 . S
O348 C338 1.281 . S
O349 Tb321 2.409 . S
O349 C338 1.254 . S
O350 Tb321 2.378 . S
O350 C339 1.236 . S
O351 Tb320 2.341 . S
O351 C339 1.266 . S
H352 C324 0.929 . S
H353 C325 0.931 . S
H354 C327 0.930 . S
H355 C328 0.930 . S
H356 C333 0.929 . S
H357 C334 0.931 . S
H358 C336 0.930 . S
H359 C337 0.930 . S
C360 C361 1.349 1_554 S
C360 C362 1.327 . S
C360 H385 0.950 . S
C361 C360 1.349 1_556 S
C361 C377 1.349 . S
C362 C360 1.327 . S
C362 C381 1.429 1_554 S
C362 H386 0.950 . S
C363 C380 1.574 . S
C363 C382 1.368 . S
C363 H387 0.949 . S
H364 C368 0.949 . S
C365 C366 1.349 . S
C365 C367 1.327 . S
C365 H388 0.950 . S
C366 C365 1.349 . S
C366 C378 1.349 1_556 S
C367 C365 1.327 . S
C367 C383 1.429 . S
C367 H389 0.950 . S
C368 H364 0.949 . S
C368 C376 1.574 . S
C368 C384 1.368 1_554 S
H369 C377 0.950 . S
H370 C375 0.950 . S
H371 C376 0.949 . S
H372 C378 0.950 . S
H373 C379 0.950 . S
H374 C380 0.949 . S
C375 H370 0.950 . S
C375 C377 1.327 . S
C375 C381 1.429 . S
C376 C368 1.574 . S
C376 H371 0.949 . S
C376 C382 1.368 1_554 S
C377 C361 1.349 . S
C377 H369 0.950 . S
C377 C375 1.327 . S
C378 C366 1.349 1_554 S
C378 H372 0.950 . S
C378 C379 1.327 . S
C379 H373 0.950 . S
C379 C378 1.327 . S
C379 C383 1.429 1_554 S
C380 C363 1.574 . S
C380 H374 0.949 . S
C380 C384 1.368 . S
C381 C362 1.429 1_556 S
C381 C375 1.429 . S
C381 C382 1.523 . S
C382 C363 1.368 . S
C382 C376 1.368 1_556 S
C382 C381 1.523 . S
C383 C367 1.429 . S
C383 C379 1.429 1_556 S
C383 C384 1.523 . S
C384 C368 1.368 1_556 S
C384 C380 1.368 . S
C384 C383 1.523 . S
H385 C360 0.950 . S
H386 C362 0.950 . S
H387 C363 0.949 . S
H388 C365 0.950 . S
H389 C367 0.950 . S
C390 C391 1.349 1_554 S
C390 C392 1.327 . S
C390 H415 0.950 . S
C391 C390 1.349 1_556 S
C391 C407 1.349 . S
C392 C390 1.327 . S
C392 C411 1.429 1_554 S
C392 H416 0.950 . S
C393 C410 1.574 . S
C393 C412 1.368 . S
C393 H417 0.949 . S
H394 C398 0.949 . S
C395 C396 1.349 . S
C395 C397 1.327 . S
C395 H418 0.950 . S
C396 C395 1.349 . S
C396 C408 1.349 1_556 S
C397 C395 1.327 . S
C397 C413 1.429 . S
C397 H419 0.950 . S
C398 H394 0.949 . S
C398 C406 1.574 . S
C398 C414 1.368 1_554 S
H399 C407 0.950 . S
H400 C405 0.950 . S
H401 C406 0.949 . S
H402 C408 0.950 . S
H403 C409 0.950 . S
H404 C410 0.949 . S
C405 H400 0.950 . S
C405 C407 1.327 . S
C405 C411 1.429 . S
C406 C398 1.574 . S
C406 H401 0.949 . S
C406 C412 1.368 1_554 S
C407 C391 1.349 . S
C407 H399 0.950 . S
C407 C405 1.327 . S
C408 C396 1.349 1_554 S
C408 H402 0.950 . S
C408 C409 1.327 . S
C409 H403 0.950 . S
C409 C408 1.327 . S
C409 C413 1.429 1_554 S
C410 C393 1.574 . S
C410 H404 0.949 . S
C410 C414 1.368 . S
C411 C392 1.429 1_556 S
C411 C405 1.429 . S
C411 C412 1.523 . S
C412 C393 1.368 . S
C412 C406 1.368 1_556 S
C412 C411 1.523 . S
C413 C397 1.429 . S
C413 C409 1.429 1_556 S
C413 C414 1.523 . S
C414 C398 1.368 1_556 S
C414 C410 1.368 . S
C414 C413 1.523 . S
H415 C390 0.950 . S
H416 C392 0.950 . S
H417 C393 0.949 . S
H418 C395 0.950 . S
H419 C397 0.950 . S
C420 C421 1.349 1_554 S
C420 C422 1.327 . S
C420 H445 0.950 . S
C421 C420 1.349 1_556 S
C421 C437 1.349 . S
C422 C420 1.327 . S
C422 C441 1.429 1_554 S
C422 H446 0.950 . S
C423 C440 1.574 . S
C423 C442 1.368 . S
C423 H447 0.949 . S
H424 C428 0.949 . S
C425 C426 1.349 . S
C425 C427 1.327 . S
C425 H448 0.950 . S
C426 C425 1.349 . S
C426 C438 1.349 1_556 S
C427 C425 1.327 . S
C427 C443 1.429 . S
C427 H449 0.950 . S
C428 H424 0.949 . S
C428 C436 1.574 . S
C428 C444 1.368 1_554 S
H429 C437 0.950 . S
H430 C435 0.950 . S
H431 C436 0.949 . S
H432 C438 0.950 . S
H433 C439 0.950 . S
H434 C440 0.949 . S
C435 H430 0.950 . S
C435 C437 1.327 . S
C435 C441 1.429 . S
C436 C428 1.574 . S
C436 H431 0.949 . S
C436 C442 1.368 1_554 S
C437 C421 1.349 . S
C437 H429 0.950 . S
C437 C435 1.327 . S
C438 C426 1.349 1_554 S
C438 H432 0.950 . S
C438 C439 1.327 . S
C439 H433 0.950 . S
C439 C438 1.327 . S
C439 C443 1.429 1_554 S
C440 C423 1.574 . S
C440 H434 0.949 . S
C440 C444 1.368 . S
C441 C422 1.429 1_556 S
C441 C435 1.429 . S
C441 C442 1.523 . S
C442 C423 1.368 . S
C442 C436 1.368 1_556 S
C442 C441 1.523 . S
C443 C427 1.429 . S
C443 C439 1.429 1_556 S
C443 C444 1.523 . S
C444 C428 1.368 1_556 S
C444 C440 1.368 . S
C444 C443 1.523 . S
H445 C420 0.950 . S
H446 C422 0.950 . S
H447 C423 0.949 . S
H448 C425 0.950 . S
H449 C427 0.950 . S
C450 C451 1.349 . S
C450 C452 1.327 . S
C450 H475 0.950 . S
C451 C450 1.349 . S
C451 C467 1.349 1_554 S
C452 C450 1.327 . S
C452 C471 1.429 . S
C452 H476 0.950 . S
C453 C470 1.574 . S
C453 C472 1.368 1_556 S
C453 H477 0.949 . S
H454 C458 0.949 . S
C455 C456 1.349 1_556 S
C455 C457 1.327 . S
C455 H478 0.950 . S
C456 C455 1.349 1_554 S
C456 C468 1.349 . S
C457 C455 1.327 . S
C457 C473 1.429 1_556 S
C457 H479 0.950 . S
C458 H454 0.949 . S
C458 C466 1.574 . S
C458 C474 1.368 . S
H459 C467 0.950 . S
H460 C465 0.950 . S
H461 C466 0.949 . S
H462 C468 0.950 . S
H463 C469 0.950 . S
H464 C470 0.949 . S
C465 H460 0.950 . S
C465 C467 1.327 . S
C465 C471 1.429 1_556 S
C466 C458 1.574 . S
C466 H461 0.949 . S
C466 C472 1.368 . S
C467 C451 1.349 1_556 S
C467 H459 0.950 . S
C467 C465 1.327 . S
C468 C456 1.349 . S
C468 H462 0.950 . S
C468 C469 1.327 . S
C469 H463 0.950 . S
C469 C468 1.327 . S
C469 C473 1.429 . S
C470 C453 1.574 . S
C470 H464 0.949 . S
C470 C474 1.368 1_556 S
C471 C452 1.429 . S
C471 C465 1.429 1_554 S
C471 C472 1.523 . S
C472 C453 1.368 1_554 S
C472 C466 1.368 . S
C472 C471 1.523 . S
C473 C457 1.429 1_554 S
C473 C469 1.429 . S
C473 C474 1.523 . S
C474 C458 1.368 . S
C474 C470 1.368 1_554 S
C474 C473 1.523 . S
H475 C450 0.950 . S
H476 C452 0.950 . S
H477 C453 0.949 . S
H478 C455 0.950 . S
H479 C457 0.950 . S
C480 C481 1.349 . S
C480 C482 1.327 . S
C480 H505 0.950 . S
C481 C480 1.349 . S
C481 C497 1.349 1_554 S
C482 C480 1.327 . S
C482 C501 1.429 . S
C482 H506 0.950 . S
C483 C500 1.574 . S
C483 C502 1.368 1_556 S
C483 H507 0.949 . S
H484 C488 0.949 . S
C485 C486 1.349 1_556 S
C485 C487 1.327 . S
C485 H508 0.950 . S
C486 C485 1.349 1_554 S
C486 C498 1.349 . S
C487 C485 1.327 . S
C487 C503 1.429 1_556 S
C487 H509 0.950 . S
C488 H484 0.949 . S
C488 C496 1.574 . S
C488 C504 1.368 . S
H489 C497 0.950 . S
H490 C495 0.950 . S
H491 C496 0.949 . S
H492 C498 0.950 . S
H493 C499 0.950 . S
H494 C500 0.949 . S
C495 H490 0.950 . S
C495 C497 1.327 . S
C495 C501 1.429 1_556 S
C496 C488 1.574 . S
C496 H491 0.949 . S
C496 C502 1.368 . S
C497 C481 1.349 1_556 S
C497 H489 0.950 . S
C497 C495 1.327 . S
C498 C486 1.349 . S
C498 H492 0.950 . S
C498 C499 1.327 . S
C499 H493 0.950 . S
C499 C498 1.327 . S
C499 C503 1.429 . S
C500 C483 1.574 . S
C500 H494 0.949 . S
C500 C504 1.368 1_556 S
C501 C482 1.429 . S
C501 C495 1.429 1_554 S
C501 C502 1.523 . S
C502 C483 1.368 1_554 S
C502 C496 1.368 . S
C502 C501 1.523 . S
C503 C487 1.429 1_554 S
C503 C499 1.429 . S
C503 C504 1.523 . S
C504 C488 1.368 . S
C504 C500 1.368 1_554 S
C504 C503 1.523 . S
H505 C480 0.950 . S
H506 C482 0.950 . S
H507 C483 0.949 . S
H508 C485 0.950 . S
H509 C487 0.950 . S
C510 C511 1.349 . S
C510 C512 1.327 . S
C510 H535 0.950 . S
C511 C510 1.349 . S
C511 C527 1.349 1_554 S
C512 C510 1.327 . S
C512 C531 1.429 . S
C512 H536 0.950 . S
C513 C530 1.574 . S
C513 C532 1.368 1_556 S
C513 H537 0.949 . S
H514 C518 0.949 . S
C515 C516 1.349 1_556 S
C515 C517 1.327 . S
C515 H538 0.950 . S
C516 C515 1.349 1_554 S
C516 C528 1.349 . S
C517 C515 1.327 . S
C517 C533 1.429 1_556 S
C517 H539 0.950 . S
C518 H514 0.949 . S
C518 C526 1.574 . S
C518 C534 1.368 . S
H519 C527 0.950 . S
H520 C525 0.950 . S
H521 C526 0.949 . S
H522 C528 0.950 . S
H523 C529 0.950 . S
H524 C530 0.949 . S
C525 H520 0.950 . S
C525 C527 1.327 . S
C525 C531 1.429 1_556 S
C526 C518 1.574 . S
C526 H521 0.949 . S
C526 C532 1.368 . S
C527 C511 1.349 1_556 S
C527 H519 0.950 . S
C527 C525 1.327 . S
C528 C516 1.349 . S
C528 H522 0.950 . S
C528 C529 1.327 . S
C529 H523 0.950 . S
C529 C528 1.327 . S
C529 C533 1.429 . S
C530 C513 1.574 . S
C530 H524 0.949 . S
C530 C534 1.368 1_556 S
C531 C512 1.429 . S
C531 C525 1.429 1_554 S
C531 C532 1.523 . S
C532 C513 1.368 1_554 S
C532 C526 1.368 . S
C532 C531 1.523 . S
C533 C517 1.429 1_554 S
C533 C529 1.429 . S
C533 C534 1.523 . S
C534 C518 1.368 . S
C534 C530 1.368 1_554 S
C534 C533 1.523 . S
H535 C510 0.950 . S
H536 C512 0.950 . S
H537 C513 0.949 . S
H538 C515 0.950 . S
H539 C517 0.950 . S
C540 C541 1.349 . S
C540 C542 1.327 . S
C540 H565 0.950 . S
C541 C540 1.349 . S
C541 C557 1.349 . S
C542 C540 1.327 . S
C542 C561 1.429 . S
C542 H566 0.950 . S
C543 C560 1.574 . S
C543 C562 1.368 . S
C543 H567 0.949 . S
H544 C548 0.949 . S
C545 C546 1.349 . S
C545 C547 1.327 1_455 S
C545 H568 0.950 . S
C546 C545 1.349 . S
C546 C558 1.349 . S
C547 C545 1.327 1_655 S
C547 C563 1.429 . S
C547 H569 0.950 . S
C548 H544 0.949 . S
C548 C556 1.574 . S
C548 C564 1.368 . S
H549 C557 0.950 . S
H550 C555 0.950 . S
H551 C556 0.949 . S
H552 C558 0.950 . S
H553 C559 0.950 . S
H554 C560 0.949 . S
C555 H550 0.950 . S
C555 C557 1.327 . S
C555 C561 1.429 . S
C556 C548 1.574 . S
C556 H551 0.949 . S
C556 C562 1.368 . S
C557 C541 1.349 . S
C557 H549 0.950 . S
C557 C555 1.327 . S
C558 C546 1.349 . S
C558 H552 0.950 . S
C558 C559 1.327 1_455 S
C559 H553 0.950 . S
C559 C558 1.327 1_655 S
C559 C563 1.429 . S
C560 C543 1.574 . S
C560 H554 0.949 . S
C560 C564 1.368 . S
C561 C542 1.429 . S
C561 C555 1.429 . S
C561 C562 1.523 . S
C562 C543 1.368 . S
C562 C556 1.368 . S
C562 C561 1.523 . S
C563 C547 1.429 . S
C563 C559 1.429 . S
C563 C564 1.523 . S
C564 C548 1.368 . S
C564 C560 1.368 . S
C564 C563 1.523 . S
H565 C540 0.950 . S
H566 C542 0.950 . S
H567 C543 0.949 . S
H568 C545 0.950 . S
H569 C547 0.950 . S
C570 C571 1.349 . S
C570 C572 1.327 . S
C570 H595 0.950 . S
C571 C570 1.349 . S
C571 C587 1.349 . S
C572 C570 1.327 . S
C572 C591 1.429 . S
C572 H596 0.950 . S
C573 C590 1.574 . S
C573 C592 1.368 . S
C573 H597 0.949 . S
H574 C578 0.949 . S
C575 C576 1.349 . S
C575 C577 1.327 1_565 S
C575 H598 0.950 . S
C576 C575 1.349 . S
C576 C588 1.349 . S
C577 C575 1.327 1_545 S
C577 C593 1.429 . S
C577 H599 0.950 . S
C578 H574 0.949 . S
C578 C586 1.574 . S
C578 C594 1.368 . S
H579 C587 0.950 . S
H580 C585 0.950 . S
H581 C586 0.949 . S
H582 C588 0.950 . S
H583 C589 0.950 . S
H584 C590 0.949 . S
C585 H580 0.950 . S
C585 C587 1.327 . S
C585 C591 1.429 . S
C586 C578 1.574 . S
C586 H581 0.949 . S
C586 C592 1.368 . S
C587 C571 1.349 . S
C587 H579 0.950 . S
C587 C585 1.327 . S
C588 C576 1.349 . S
C588 H582 0.950 . S
C588 C589 1.327 . S
C589 H583 0.950 . S
C589 C588 1.327 . S
C589 C593 1.429 1_565 S
C590 C573 1.574 . S
C590 H584 0.949 . S
C590 C594 1.368 . S
C591 C572 1.429 . S
C591 C585 1.429 . S
C591 C592 1.523 . S
C592 C573 1.368 . S
C592 C586 1.368 . S
C592 C591 1.523 . S
C593 C577 1.429 . S
C593 C589 1.429 1_545 S
C593 C594 1.523 . S
C594 C578 1.368 . S
C594 C590 1.368 . S
C594 C593 1.523 . S
H595 C570 0.950 . S
H596 C572 0.950 . S
H597 C573 0.949 . S
H598 C575 0.950 . S
H599 C577 0.950 . S
C600 C601 1.349 . S
C600 C602 1.327 . S
C600 H625 0.950 . S
C601 C600 1.349 . S
C601 C617 1.349 . S
C602 C600 1.327 . S
C602 C621 1.429 1_455 S
C602 H626 0.950 . S
C603 C620 1.574 . S
C603 C622 1.368 . S
C603 H627 0.949 . S
H604 C608 0.949 . S
C605 C606 1.349 1_545 S
C605 C607 1.327 . S
C605 H628 0.950 1_545 S
C606 C605 1.349 1_565 S
C606 C618 1.349 1_565 S
C607 C605 1.327 . S
C607 C623 1.429 . S
C607 H629 0.950 . S
C608 H604 0.949 . S
C608 C616 1.574 . S
C608 C624 1.368 . S
H609 C617 0.950 . S
H610 C615 0.950 . S
H611 C616 0.949 . S
H612 C618 0.950 1_565 S
H613 C619 0.950 . S
H614 C620 0.949 . S
C615 H610 0.950 . S
C615 C617 1.327 1_655 S
C615 C621 1.429 . S
C616 C608 1.574 . S
C616 H611 0.949 . S
C616 C622 1.368 . S
C617 C601 1.349 . S
C617 H609 0.950 . S
C617 C615 1.327 1_455 S
C618 C606 1.349 1_545 S
C618 H612 0.950 1_545 S
C618 C619 1.327 . S
C619 H613 0.950 . S
C619 C618 1.327 . S
C619 C623 1.429 . S
C620 C603 1.574 . S
C620 H614 0.949 . S
C620 C624 1.368 . S
C621 C602 1.429 1_655 S
C621 C615 1.429 . S
C621 C622 1.523 . S
C622 C603 1.368 . S
C622 C616 1.368 . S
C622 C621 1.523 . S
C623 C607 1.429 . S
C623 C619 1.429 . S
C623 C624 1.523 . S
C624 C608 1.368 . S
C624 C620 1.368 . S
C624 C623 1.523 . S
H625 C600 0.950 . S
H626 C602 0.950 . S
H627 C603 0.949 . S
H628 C605 0.950 1_565 S
H629 C607 0.950 . S
C630 C631 1.349 . S
C630 C632 1.327 . S
C630 H655 0.950 . S
C631 C630 1.349 . S
C631 C647 1.349 . S
C632 C630 1.327 . S
C632 C651 1.429 . S
C632 H656 0.950 . S
C633 C650 1.574 . S
C633 C652 1.368 . S
C633 H657 0.949 . S
H634 C638 0.949 . S
C635 C636 1.349 . S
C635 C637 1.327 . S
C635 H658 0.950 . S
C636 C635 1.349 . S
C636 C648 1.349 . S
C637 C635 1.327 . S
C637 C653 1.429 . S
C637 H659 0.950 . S
C638 H634 0.949 . S
C638 C646 1.574 . S
C638 C654 1.368 . S
H639 C647 0.950 . S
H640 C645 0.950 . S
H641 C646 0.949 . S
H642 C648 0.950 . S
H643 C649 0.950 . S
H644 C650 0.949 . S
C645 H640 0.950 . S
C645 C647 1.327 . S
C645 C651 1.429 . S
C646 C638 1.574 . S
C646 H641 0.949 . S
C646 C652 1.368 . S
C647 C631 1.349 . S
C647 H639 0.950 . S
C647 C645 1.327 . S
C648 C636 1.349 . S
C648 H642 0.950 . S
C648 C649 1.327 . S
C649 H643 0.950 . S
C649 C648 1.327 . S
C649 C653 1.429 . S
C650 C633 1.574 . S
C650 H644 0.949 . S
C650 C654 1.368 . S
C651 C632 1.429 . S
C651 C645 1.429 . S
C651 C652 1.523 . S
C652 C633 1.368 . S
C652 C646 1.368 . S
C652 C651 1.523 . S
C653 C637 1.429 . S
C653 C649 1.429 . S
C653 C654 1.523 . S
C654 C638 1.368 . S
C654 C650 1.368 . S
C654 C653 1.523 . S
H655 C630 0.950 . S
H656 C632 0.950 . S
H657 C633 0.949 . S
H658 C635 0.950 . S
H659 C637 0.950 . S
C660 C661 1.349 . S
C660 C662 1.327 . S
C660 H685 0.950 . S
C661 C660 1.349 . S
C661 C677 1.349 . S
C662 C660 1.327 . S
C662 C681 1.429 . S
C662 H686 0.950 . S
C663 C680 1.574 . S
C663 C682 1.368 . S
C663 H687 0.949 . S
H664 C668 0.949 . S
C665 C666 1.349 . S
C665 C667 1.327 . S
C665 H688 0.950 . S
C666 C665 1.349 . S
C666 C678 1.349 . S
C667 C665 1.327 . S
C667 C683 1.429 . S
C667 H689 0.950 . S
C668 H664 0.949 . S
C668 C676 1.574 . S
C668 C684 1.368 . S
H669 C677 0.950 . S
H670 C675 0.950 . S
H671 C676 0.949 . S
H672 C678 0.950 . S
H673 C679 0.950 . S
H674 C680 0.949 . S
C675 H670 0.950 . S
C675 C677 1.327 . S
C675 C681 1.429 . S
C676 C668 1.574 . S
C676 H671 0.949 . S
C676 C682 1.368 . S
C677 C661 1.349 . S
C677 H669 0.950 . S
C677 C675 1.327 . S
C678 C666 1.349 . S
C678 H672 0.950 . S
C678 C679 1.327 . S
C679 H673 0.950 . S
C679 C678 1.327 . S
C679 C683 1.429 . S
C680 C663 1.574 . S
C680 H674 0.949 . S
C680 C684 1.368 . S
C681 C662 1.429 . S
C681 C675 1.429 . S
C681 C682 1.523 . S
C682 C663 1.368 . S
C682 C676 1.368 . S
C682 C681 1.523 . S
C683 C667 1.429 . S
C683 C679 1.429 . S
C683 C684 1.523 . S
C684 C668 1.368 . S
C684 C680 1.368 . S
C684 C683 1.523 . S
H685 C660 0.950 . S
H686 C662 0.950 . S
H687 C663 0.949 . S
H688 C665 0.950 . S
H689 C667 0.950 . S
C690 C691 1.349 . S
C690 C692 1.327 . S
C690 H715 0.950 . S
C691 C690 1.349 . S
C691 C707 1.349 . S
C692 C690 1.327 . S
C692 C711 1.429 . S
C692 H716 0.950 . S
C693 C710 1.574 . S
C693 C712 1.368 . S
C693 H717 0.949 . S
H694 C698 0.949 . S
C695 C696 1.349 . S
C695 C697 1.327 . S
C695 H718 0.950 . S
C696 C695 1.349 . S
C696 C708 1.349 . S
C697 C695 1.327 . S
C697 C713 1.429 . S
C697 H719 0.950 . S
C698 H694 0.949 . S
C698 C706 1.574 . S
C698 C714 1.368 . S
H699 C707 0.950 . S
H700 C705 0.950 . S
H701 C706 0.949 . S
H702 C708 0.950 . S
H703 C709 0.950 . S
H704 C710 0.949 . S
C705 H700 0.950 . S
C705 C707 1.327 . S
C705 C711 1.429 . S
C706 C698 1.574 . S
C706 H701 0.949 . S
C706 C712 1.368 . S
C707 C691 1.349 . S
C707 H699 0.950 . S
C707 C705 1.327 . S
C708 C696 1.349 . S
C708 H702 0.950 . S
C708 C709 1.327 . S
C709 H703 0.950 . S
C709 C708 1.327 . S
C709 C713 1.429 . S
C710 C693 1.574 . S
C710 H704 0.949 . S
C710 C714 1.368 . S
C711 C692 1.429 . S
C711 C705 1.429 . S
C711 C712 1.523 . S
C712 C693 1.368 . S
C712 C706 1.368 . S
C712 C711 1.523 . S
C713 C697 1.429 . S
C713 C709 1.429 . S
C713 C714 1.523 . S
C714 C698 1.368 . S
C714 C710 1.368 . S
C714 C713 1.523 . S
H715 C690 0.950 . S
H716 C692 0.950 . S
H717 C693 0.949 . S
H718 C695 0.950 . S
H719 C697 0.950 . S
C720 C721 1.349 . S
C720 C722 1.327 . S
C720 H745 0.950 . S
C721 C720 1.349 . S
C721 C737 1.349 . S
C722 C720 1.327 . S
C722 C741 1.429 . S
C722 H746 0.950 . S
C723 C740 1.574 . S
C723 C742 1.368 . S
C723 H747 0.949 . S
H724 C728 0.949 . S
C725 C726 1.349 . S
C725 C727 1.327 . S
C725 H748 0.950 . S
C726 C725 1.349 . S
C726 C738 1.349 . S
C727 C725 1.327 . S
C727 C743 1.429 . S
C727 H749 0.950 . S
C728 H724 0.949 . S
C728 C736 1.574 . S
C728 C744 1.368 . S
H729 C737 0.950 . S
H730 C735 0.950 . S
H731 C736 0.949 . S
H732 C738 0.950 . S
H733 C739 0.950 . S
H734 C740 0.949 . S
C735 H730 0.950 . S
C735 C737 1.327 . S
C735 C741 1.429 . S
C736 C728 1.574 . S
C736 H731 0.949 . S
C736 C742 1.368 . S
C737 C721 1.349 . S
C737 H729 0.950 . S
C737 C735 1.327 . S
C738 C726 1.349 . S
C738 H732 0.950 . S
C738 C739 1.327 . S
C739 H733 0.950 . S
C739 C738 1.327 . S
C739 C743 1.429 . S
C740 C723 1.574 . S
C740 H734 0.949 . S
C740 C744 1.368 . S
C741 C722 1.429 . S
C741 C735 1.429 . S
C741 C742 1.523 . S
C742 C723 1.368 . S
C742 C736 1.368 . S
C742 C741 1.523 . S
C743 C727 1.429 . S
C743 C739 1.429 . S
C743 C744 1.523 . S
C744 C728 1.368 . S
C744 C740 1.368 . S
C744 C743 1.523 . S
H745 C720 0.950 . S
H746 C722 0.950 . S
H747 C723 0.949 . S
H748 C725 0.950 . S
H749 C727 0.950 . S
C750 C751 1.349 . S
C750 C752 1.327 . S
C750 H775 0.950 . S
C751 C750 1.349 . S
C751 C767 1.349 . S
C752 C750 1.327 . S
C752 C771 1.429 . S
C752 H776 0.950 . S
C753 C770 1.574 . S
C753 C772 1.368 . S
C753 H777 0.949 . S
H754 C758 0.949 . S
C755 C756 1.349 . S
C755 C757 1.327 . S
C755 H778 0.950 . S
C756 C755 1.349 . S
C756 C768 1.349 . S
C757 C755 1.327 . S
C757 C773 1.429 . S
C757 H779 0.950 . S
C758 H754 0.949 . S
C758 C766 1.574 . S
C758 C774 1.368 . S
H759 C767 0.950 . S
H760 C765 0.950 . S
H761 C766 0.949 . S
H762 C768 0.950 . S
H763 C769 0.950 . S
H764 C770 0.949 . S
C765 H760 0.950 . S
C765 C767 1.327 . S
C765 C771 1.429 . S
C766 C758 1.574 . S
C766 H761 0.949 . S
C766 C772 1.368 . S
C767 C751 1.349 . S
C767 H759 0.950 . S
C767 C765 1.327 . S
C768 C756 1.349 . S
C768 H762 0.950 . S
C768 C769 1.327 . S
C769 H763 0.950 . S
C769 C768 1.327 . S
C769 C773 1.429 . S
C770 C753 1.574 . S
C770 H764 0.949 . S
C770 C774 1.368 . S
C771 C752 1.429 . S
C771 C765 1.429 . S
C771 C772 1.523 . S
C772 C753 1.368 . S
C772 C766 1.368 . S
C772 C771 1.523 . S
C773 C757 1.429 . S
C773 C769 1.429 . S
C773 C774 1.523 . S
C774 C758 1.368 . S
C774 C770 1.368 . S
C774 C773 1.523 . S
H775 C750 0.950 . S
H776 C752 0.950 . S
H777 C753 0.949 . S
H778 C755 0.950 . S
H779 C757 0.950 . S
C780 C781 1.349 . S
C780 C782 1.327 . S
C780 H805 0.950 . S
C781 C780 1.349 . S
C781 C797 1.349 . S
C782 C780 1.327 . S
C782 C801 1.429 . S
C782 H806 0.950 . S
C783 C800 1.574 . S
C783 C802 1.368 . S
C783 H807 0.949 . S
H784 C788 0.949 . S
C785 C786 1.349 . S
C785 C787 1.327 . S
C785 H808 0.950 . S
C786 C785 1.349 . S
C786 C798 1.349 . S
C787 C785 1.327 . S
C787 C803 1.429 . S
C787 H809 0.950 . S
C788 H784 0.949 . S
C788 C796 1.574 . S
C788 C804 1.368 . S
H789 C797 0.950 . S
H790 C795 0.950 . S
H791 C796 0.949 . S
H792 C798 0.950 . S
H793 C799 0.950 . S
H794 C800 0.949 . S
C795 H790 0.950 . S
C795 C797 1.327 . S
C795 C801 1.429 . S
C796 C788 1.574 . S
C796 H791 0.949 . S
C796 C802 1.368 . S
C797 C781 1.349 . S
C797 H789 0.950 . S
C797 C795 1.327 . S
C798 C786 1.349 . S
C798 H792 0.950 . S
C798 C799 1.327 . S
C799 H793 0.950 . S
C799 C798 1.327 . S
C799 C803 1.429 . S
C800 C783 1.574 . S
C800 H794 0.949 . S
C800 C804 1.368 . S
C801 C782 1.429 . S
C801 C795 1.429 . S
C801 C802 1.523 . S
C802 C783 1.368 . S
C802 C796 1.368 . S
C802 C801 1.523 . S
C803 C787 1.429 . S
C803 C799 1.429 . S
C803 C804 1.523 . S
C804 C788 1.368 . S
C804 C800 1.368 . S
C804 C803 1.523 . S
H805 C780 0.950 . S
H806 C782 0.950 . S
H807 C783 0.949 . S
H808 C785 0.950 . S
H809 C787 0.950 . S
C810 C811 1.349 . S
C810 C812 1.327 . S
C810 H835 0.950 . S
C811 C810 1.349 . S
C811 C827 1.349 . S
C812 C810 1.327 . S
C812 C831 1.429 . S
C812 H836 0.950 . S
C813 C830 1.580 . S
C813 C832 1.367 1_545 S
C813 H837 0.945 1_545 S
H814 C818 0.949 . S
C815 C816 1.349 . S
C815 C817 1.327 . S
C815 H838 0.950 . S
C816 C815 1.349 . S
C816 C828 1.349 . S
C817 C815 1.327 . S
C817 C833 1.429 . S
C817 H839 0.950 . S
C818 H814 0.949 . S
C818 C826 1.574 1_545 S
C818 C834 1.368 . S
H819 C827 0.950 . S
H820 C825 0.950 . S
H821 C826 0.949 . S
H822 C828 0.950 . S
H823 C829 0.950 . S
H824 C830 0.949 . S
C825 H820 0.950 . S
C825 C827 1.327 . S
C825 C831 1.429 . S
C826 C818 1.574 1_565 S
C826 H821 0.949 . S
C826 C832 1.368 . S
C827 C811 1.349 . S
C827 H819 0.950 . S
C827 C825 1.327 . S
C828 C816 1.349 . S
C828 H822 0.950 . S
C828 C829 1.327 . S
C829 H823 0.950 . S
C829 C828 1.327 . S
C829 C833 1.429 . S
C830 C813 1.580 . S
C830 H824 0.949 . S
C830 C834 1.368 . S
C831 C812 1.429 . S
C831 C825 1.429 . S
C831 C832 1.523 . S
C832 C813 1.367 1_565 S
C832 C826 1.368 . S
C832 C831 1.523 . S
C833 C817 1.429 . S
C833 C829 1.429 . S
C833 C834 1.523 . S
C834 C818 1.368 . S
C834 C830 1.368 . S
C834 C833 1.523 . S
H835 C810 0.950 . S
H836 C812 0.950 . S
H837 C813 0.945 1_565 S
H838 C815 0.950 . S
H839 C817 0.950 . S
C840 C841 1.349 . S
C840 C842 1.327 . S
C840 H865 0.950 . S
C841 C840 1.349 . S
C841 C857 1.349 . S
C842 C840 1.327 . S
C842 C861 1.429 . S
C842 H866 0.950 . S
C843 C860 1.574 1_655 S
C843 C862 1.368 . S
C843 H867 0.949 . S
H844 C848 0.949 . S
C845 C846 1.349 . S
C845 C847 1.327 . S
C845 H868 0.950 . S
C846 C845 1.349 . S
C846 C858 1.349 . S
C847 C845 1.327 . S
C847 C863 1.429 . S
C847 H869 0.950 . S
C848 H844 0.949 . S
C848 C856 1.574 1_455 S
C848 C864 1.368 . S
H849 C857 0.950 . S
H850 C855 0.950 . S
H851 C856 0.949 . S
H852 C858 0.950 . S
H853 C859 0.950 . S
H854 C860 0.949 . S
C855 H850 0.950 . S
C855 C857 1.327 . S
C855 C861 1.429 . S
C856 C848 1.574 1_655 S
C856 H851 0.949 . S
C856 C862 1.368 . S
C857 C841 1.349 . S
C857 H849 0.950 . S
C857 C855 1.327 . S
C858 C846 1.349 . S
C858 H852 0.950 . S
C858 C859 1.327 . S
C859 H853 0.950 . S
C859 C858 1.327 . S
C859 C863 1.429 . S
C860 C843 1.574 1_455 S
C860 H854 0.949 . S
C860 C864 1.368 . S
C861 C842 1.429 . S
C861 C855 1.429 . S
C861 C862 1.523 . S
C862 C843 1.368 . S
C862 C856 1.368 . S
C862 C861 1.523 . S
C863 C847 1.429 . S
C863 C859 1.429 . S
C863 C864 1.523 . S
C864 C848 1.368 . S
C864 C860 1.368 . S
C864 C863 1.523 . S
H865 C840 0.950 . S
H866 C842 0.950 . S
H867 C843 0.949 . S
H868 C845 0.950 . S
H869 C847 0.950 . S
C870 C871 1.349 . S
C870 C872 1.327 . S
C870 H895 0.950 . S
C871 C870 1.349 . S
C871 C887 1.349 . S
C872 C870 1.327 . S
C872 C891 1.429 . S
C872 H896 0.950 . S
C873 C890 1.574 . S
C873 C892 1.368 . S
C873 H897 0.949 . S
H874 C878 0.949 . S
C875 C876 1.349 . S
C875 C877 1.327 . S
C875 H898 0.950 . S
C876 C875 1.349 . S
C876 C888 1.349 . S
C877 C875 1.327 . S
C877 C893 1.429 . S
C877 H899 0.950 . S
C878 H874 0.949 . S
C878 C886 1.574 . S
C878 C894 1.368 . S
H879 C887 0.950 . S
H880 C885 0.950 . S
H881 C886 0.949 . S
H882 C888 0.950 . S
H883 C889 0.950 . S
H884 C890 0.949 . S
C885 H880 0.950 . S
C885 C887 1.327 . S
C885 C891 1.429 . S
C886 C878 1.574 . S
C886 H881 0.949 . S
C886 C892 1.368 . S
C887 C871 1.349 . S
C887 H879 0.950 . S
C887 C885 1.327 . S
C888 C876 1.349 . S
C888 H882 0.950 . S
C888 C889 1.327 . S
C889 H883 0.950 . S
C889 C888 1.327 . S
C889 C893 1.429 . S
C890 C873 1.574 . S
C890 H884 0.949 . S
C890 C894 1.368 . S
C891 C872 1.429 . S
C891 C885 1.429 . S
C891 C892 1.523 . S
C892 C873 1.368 . S
C892 C886 1.368 . S
C892 C891 1.523 . S
C893 C877 1.429 . S
C893 C889 1.429 . S
C893 C894 1.523 . S
C894 C878 1.368 . S
C894 C890 1.368 . S
C894 C893 1.523 . S
H895 C870 0.950 . S
H896 C872 0.950 . S
H897 C873 0.949 . S
H898 C875 0.950 . S
H899 C877 0.950 . S
C900 C901 1.349 . S
C900 C902 1.327 . S
C900 H925 0.950 . S
C901 C900 1.349 . S
C901 C917 1.349 . S
C902 C900 1.327 . S
C902 C921 1.429 . S
C902 H926 0.950 . S
C903 C920 1.574 . S
C903 C922 1.368 . S
C903 H927 0.949 . S
H904 C908 0.949 . S
C905 C906 1.349 . S
C905 C907 1.327 . S
C905 H928 0.950 . S
C906 C905 1.349 . S
C906 C918 1.349 . S
C907 C905 1.327 . S
C907 C923 1.429 . S
C907 H929 0.950 . S
C908 H904 0.949 . S
C908 C916 1.574 . S
C908 C924 1.368 . S
H909 C917 0.950 . S
H910 C915 0.950 . S
H911 C916 0.949 . S
H912 C918 0.950 1_655 S
H913 C919 0.950 1_655 S
H914 C920 0.949 . S
C915 H910 0.950 . S
C915 C917 1.327 . S
C915 C921 1.429 . S
C916 C908 1.574 . S
C916 H911 0.949 . S
C916 C922 1.368 . S
C917 C901 1.349 . S
C917 H909 0.950 . S
C917 C915 1.327 . S
C918 C906 1.349 . S
C918 H912 0.950 1_455 S
C918 C919 1.327 . S
C919 H913 0.950 1_455 S
C919 C918 1.327 . S
C919 C923 1.429 . S
C920 C903 1.574 . S
C920 H914 0.949 . S
C920 C924 1.368 . S
C921 C902 1.429 . S
C921 C915 1.429 . S
C921 C922 1.523 . S
C922 C903 1.368 . S
C922 C916 1.368 . S
C922 C921 1.523 . S
C923 C907 1.429 . S
C923 C919 1.429 . S
C923 C924 1.523 . S
C924 C908 1.368 . S
C924 C920 1.368 . S
C924 C923 1.523 . S
H925 C900 0.950 . S
H926 C902 0.950 . S
H927 C903 0.949 . S
H928 C905 0.950 . S
H929 C907 0.950 . S
C930 C931 1.349 . S
C930 C932 1.327 . S
C930 H955 0.950 . S
C931 C930 1.349 . S
C931 C947 1.349 . S
C932 C930 1.327 . S
C932 C951 1.429 . S
C932 H956 0.950 . S
C933 C950 1.574 . S
C933 C952 1.368 . S
C933 H957 0.949 . S
H934 C938 0.949 . S
C935 C936 1.349 . S
C935 C937 1.327 . S
C935 H958 0.950 . S
C936 C935 1.349 . S
C936 C948 1.349 . S
C937 C935 1.327 . S
C937 C953 1.429 . S
C937 H959 0.950 . S
C938 H934 0.949 . S
C938 C946 1.574 . S
C938 C954 1.368 . S
H939 C947 0.950 . S
H940 C945 0.950 . S
H941 C946 0.949 . S
H942 C948 0.950 . S
H943 C949 0.950 . S
H944 C950 0.949 . S
C945 H940 0.950 . S
C945 C947 1.327 . S
C945 C951 1.429 . S
C946 C938 1.574 . S
C946 H941 0.949 . S
C946 C952 1.368 . S
C947 C931 1.349 . S
C947 H939 0.950 . S
C947 C945 1.327 . S
C948 C936 1.349 . S
C948 H942 0.950 . S
C948 C949 1.327 . S
C949 H943 0.950 . S
C949 C948 1.327 . S
C949 C953 1.429 . S
C950 C933 1.574 . S
C950 H944 0.949 . S
C950 C954 1.368 . S
C951 C932 1.429 . S
C951 C945 1.429 . S
C951 C952 1.523 . S
C952 C933 1.368 . S
C952 C946 1.368 . S
C952 C951 1.523 . S
C953 C937 1.429 . S
C953 C949 1.429 . S
C953 C954 1.523 . S
C954 C938 1.368 . S
C954 C950 1.368 . S
C954 C953 1.523 . S
H955 C930 0.950 . S
H956 C932 0.950 . S
H957 C933 0.949 . S
H958 C935 0.950 . S
H959 C937 0.950 . S
C960 C961 1.349 1_545 S
C960 C962 1.327 1_545 S
C960 H985 0.950 . S
C961 C960 1.349 1_565 S
C961 C977 1.349 . S
C962 C960 1.327 1_565 S
C962 C981 1.429 . S
C962 H986 0.950 1_565 S
C963 C980 1.574 . S
C963 C982 1.368 . S
C963 H987 0.949 . S
H964 C968 0.949 . S
C965 C966 1.349 . S
C965 C967 1.327 . S
C965 H988 0.950 . S
C966 C965 1.349 . S
C966 C978 1.349 . S
C967 C965 1.327 . S
C967 C983 1.429 . S
C967 H989 0.950 . S
C968 H964 0.949 . S
C968 C976 1.574 . S
C968 C984 1.368 . S
H969 C977 0.950 . S
H970 C975 0.950 . S
H971 C976 0.949 . S
H972 C978 0.950 . S
H973 C979 0.950 . S
H974 C980 0.949 . S
C975 H970 0.950 . S
C975 C977 1.327 . S
C975 C981 1.429 . S
C976 C968 1.574 . S
C976 H971 0.949 . S
C976 C982 1.368 . S
C977 C961 1.349 . S
C977 H969 0.950 . S
C977 C975 1.327 . S
C978 C966 1.349 . S
C978 H972 0.950 . S
C978 C979 1.327 . S
C979 H973 0.950 . S
C979 C978 1.327 . S
C979 C983 1.429 . S
C980 C963 1.574 . S
C980 H974 0.949 . S
C980 C984 1.368 . S
C981 C962 1.429 . S
C981 C975 1.429 . S
C981 C982 1.523 . S
C982 C963 1.368 . S
C982 C976 1.368 . S
C982 C981 1.523 . S
C983 C967 1.429 . S
C983 C979 1.429 . S
C983 C984 1.523 . S
C984 C968 1.368 . S
C984 C980 1.368 . S
C984 C983 1.523 . S
H985 C960 0.950 . S
H986 C962 0.950 1_545 S
H987 C963 0.949 . S
H988 C965 0.950 . S
H989 C967 0.950 . S
C990 C991 1.349 . S
C990 C992 1.327 . S
C990 H1015 0.950 . S
C991 C990 1.349 . S
C991 C1007 1.349 . S
C992 C990 1.327 . S
C992 C1011 1.429 . S
C992 H1016 0.950 . S
C993 C1010 1.574 . S
C993 C1012 1.368 . S
C993 H1017 0.949 . S
H994 C998 0.949 . S
C995 C996 1.349 . S
C995 C997 1.327 . S
C995 H1018 0.950 . S
C996 C995 1.349 . S
C996 C1008 1.349 . S
C997 C995 1.327 . S
C997 C1013 1.429 . S
C997 H1019 0.950 . S
C998 H994 0.949 . S
C998 C1006 1.574 . S
C998 C1014 1.368 . S
H999 C1007 0.950 1_565 S
H1000 C1005 0.950 . S
H1001 C1006 0.949 . S
H1002 C1008 0.950 . S
H1003 C1009 0.950 . S
H1004 C1010 0.949 . S
C1005 H1000 0.950 . S
C1005 C1007 1.327 . S
C1005 C1011 1.429 . S
C1006 C998 1.574 . S
C1006 H1001 0.949 . S
C1006 C1012 1.368 . S
C1007 C991 1.349 . S
C1007 H999 0.950 1_545 S
C1007 C1005 1.327 . S
C1008 C996 1.349 . S
C1008 H1002 0.950 . S
C1008 C1009 1.327 . S
C1009 H1003 0.950 . S
C1009 C1008 1.327 . S
C1009 C1013 1.429 . S
C1010 C993 1.574 . S
C1010 H1004 0.949 . S
C1010 C1014 1.368 . S
C1011 C992 1.429 . S
C1011 C1005 1.429 . S
C1011 C1012 1.523 . S
C1012 C993 1.368 . S
C1012 C1006 1.368 . S
C1012 C1011 1.523 . S
C1013 C997 1.429 . S
C1013 C1009 1.429 . S
C1013 C1014 1.523 . S
C1014 C998 1.368 . S
C1014 C1010 1.368 . S
C1014 C1013 1.523 . S
H1015 C990 0.950 . S
H1016 C992 0.950 . S
H1017 C993 0.949 . S
H1018 C995 0.950 . S
H1019 C997 0.950 . S
C1020 C1021 1.349 . S
C1020 C1022 1.327 . S
C1020 H1045 0.950 . S
C1021 C1020 1.349 . S
C1021 C1037 1.349 . S
C1022 C1020 1.327 . S
C1022 C1041 1.429 . S
C1022 H1046 0.950 . S
C1023 C1040 1.574 . S
C1023 C1042 1.368 . S
C1023 H1047 0.949 . S
H1024 C1028 0.949 . S
C1025 C1026 1.349 . S
C1025 C1027 1.327 . S
C1025 H1048 0.950 . S
C1026 C1025 1.349 . S
C1026 C1038 1.349 . S
C1027 C1025 1.327 . S
C1027 C1043 1.429 . S
C1027 H1049 0.950 . S
C1028 H1024 0.949 . S
C1028 C1036 1.574 . S
C1028 C1044 1.368 . S
H1029 C1037 0.950 1_455 S
H1030 C1035 0.950 . S
H1031 C1036 0.949 . S
H1032 C1038 0.950 . S
H1033 C1039 0.950 . S
H1034 C1040 0.949 . S
C1035 H1030 0.950 . S
C1035 C1037 1.327 . S
C1035 C1041 1.429 . S
C1036 C1028 1.574 . S
C1036 H1031 0.949 . S
C1036 C1042 1.368 . S
C1037 C1021 1.349 . S
C1037 H1029 0.950 1_655 S
C1037 C1035 1.327 . S
C1038 C1026 1.349 . S
C1038 H1032 0.950 . S
C1038 C1039 1.327 . S
C1039 H1033 0.950 . S
C1039 C1038 1.327 . S
C1039 C1043 1.429 . S
C1040 C1023 1.574 . S
C1040 H1034 0.949 . S
C1040 C1044 1.368 . S
C1041 C1022 1.429 . S
C1041 C1035 1.429 . S
C1041 C1042 1.523 . S
C1042 C1023 1.368 . S
C1042 C1036 1.368 . S
C1042 C1041 1.523 . S
C1043 C1027 1.429 . S
C1043 C1039 1.429 . S
C1043 C1044 1.523 . S
C1044 C1028 1.368 . S
C1044 C1040 1.368 . S
C1044 C1043 1.523 . S
H1045 C1020 0.950 . S
H1046 C1022 0.950 . S
H1047 C1023 0.949 . S
H1048 C1025 0.950 . S
H1049 C1027 0.950 . S
C1050 C1051 1.349 . S
C1050 C1052 1.327 . S
C1050 H1075 0.950 . S
C1051 C1050 1.349 . S
C1051 C1067 1.349 . S
C1052 C1050 1.327 . S
C1052 C1071 1.429 . S
C1052 H1076 0.950 . S
C1053 C1070 1.574 . S
C1053 C1072 1.368 . S
C1053 H1077 0.949 . S
H1054 C1058 0.949 . S
C1055 C1056 1.349 . S
C1055 C1057 1.327 . S
C1055 H1078 0.950 . S
C1056 C1055 1.349 . S
C1056 C1068 1.349 . S
C1057 C1055 1.327 . S
C1057 C1073 1.429 . S
C1057 H1079 0.950 . S
C1058 H1054 0.949 . S
C1058 C1066 1.574 . S
C1058 C1074 1.368 . S
H1059 C1067 0.950 . S
H1060 C1065 0.950 . S
H1061 C1066 0.949 . S
H1062 C1068 0.950 . S
H1063 C1069 0.950 . S
H1064 C1070 0.949 . S
C1065 H1060 0.950 . S
C1065 C1067 1.327 . S
C1065 C1071 1.429 . S
C1066 C1058 1.574 . S
C1066 H1061 0.949 . S
C1066 C1072 1.368 . S
C1067 C1051 1.349 . S
C1067 H1059 0.950 . S
C1067 C1065 1.327 . S
C1068 C1056 1.349 . S
C1068 H1062 0.950 . S
C1068 C1069 1.327 . S
C1069 H1063 0.950 . S
C1069 C1068 1.327 . S
C1069 C1073 1.429 . S
C1070 C1053 1.574 . S
C1070 H1064 0.949 . S
C1070 C1074 1.368 . S
C1071 C1052 1.429 . S
C1071 C1065 1.429 . S
C1071 C1072 1.523 . S
C1072 C1053 1.368 . S
C1072 C1066 1.368 . S
C1072 C1071 1.523 . S
C1073 C1057 1.429 . S
C1073 C1069 1.429 . S
C1073 C1074 1.523 . S
C1074 C1058 1.368 . S
C1074 C1070 1.368 . S
C1074 C1073 1.523 . S
H1075 C1050 0.950 . S
H1076 C1052 0.950 . S
H1077 C1053 0.949 . S
H1078 C1055 0.950 . S
H1079 C1057 0.950 . S
C1080 C1081 1.349 . S
C1080 C1082 1.327 . S
C1080 H1105 0.950 . S
C1081 C1080 1.349 . S
C1081 C1097 1.349 . S
C1082 C1080 1.327 . S
C1082 C1101 1.429 . S
C1082 H1106 0.950 . S
C1083 C1100 1.574 . S
C1083 C1102 1.368 . S
C1083 H1107 0.949 . S
H1084 C1088 0.949 . S
C1085 C1086 1.349 . S
C1085 C1087 1.327 . S
C1085 H1108 0.950 . S
C1086 C1085 1.349 . S
C1086 C1098 1.349 . S
C1087 C1085 1.327 . S
C1087 C1103 1.429 . S
C1087 H1109 0.950 . S
C1088 H1084 0.949 . S
C1088 C1096 1.574 . S
C1088 C1104 1.368 . S
H1089 C1097 0.950 . S
H1090 C1095 0.950 . S
H1091 C1096 0.949 . S
H1092 C1098 0.950 . S
H1093 C1099 0.950 . S
H1094 C1100 0.949 . S
C1095 H1090 0.950 . S
C1095 C1097 1.327 . S
C1095 C1101 1.429 . S
C1096 C1088 1.574 . S
C1096 H1091 0.949 . S
C1096 C1102 1.368 . S
C1097 C1081 1.349 . S
C1097 H1089 0.950 . S
C1097 C1095 1.327 . S
C1098 C1086 1.349 . S
C1098 H1092 0.950 . S
C1098 C1099 1.327 . S
C1099 H1093 0.950 . S
C1099 C1098 1.327 . S
C1099 C1103 1.429 . S
C1100 C1083 1.574 . S
C1100 H1094 0.949 . S
C1100 C1104 1.368 . S
C1101 C1082 1.429 . S
C1101 C1095 1.429 . S
C1101 C1102 1.523 . S
C1102 C1083 1.368 . S
C1102 C1096 1.368 . S
C1102 C1101 1.523 . S
C1103 C1087 1.429 . S
C1103 C1099 1.429 . S
C1103 C1104 1.523 . S
C1104 C1088 1.368 . S
C1104 C1100 1.368 . S
C1104 C1103 1.523 . S
H1105 C1080 0.950 . S
H1106 C1082 0.950 . S
H1107 C1083 0.949 . S
H1108 C1085 0.950 . S
H1109 C1087 0.950 . S
C1110 C1111 1.349 . S
C1110 C1112 1.327 . S
C1110 H1135 0.950 . S
C1111 C1110 1.349 . S
C1111 C1127 1.349 . S
C1112 C1110 1.327 . S
C1112 C1131 1.429 . S
C1112 H1136 0.950 . S
C1113 C1130 1.574 . S
C1113 C1132 1.368 1_545 S
C1113 H1137 0.949 . S
H1114 C1118 0.946 . S
C1115 C1116 1.349 . S
C1115 C1117 1.327 . S
C1115 H1138 0.950 . S
C1116 C1115 1.349 . S
C1116 C1128 1.349 . S
C1117 C1115 1.327 . S
C1117 C1133 1.429 . S
C1117 H1139 0.950 . S
C1118 H1114 0.946 . S
C1118 C1126 1.583 . S
C1118 C1134 1.363 1_565 S
H1119 C1127 0.950 . S
H1120 C1125 0.950 . S
H1121 C1126 0.949 . S
H1122 C1128 0.950 . S
H1123 C1129 0.950 . S
H1124 C1130 0.949 . S
C1125 H1120 0.950 . S
C1125 C1127 1.327 . S
C1125 C1131 1.429 . S
C1126 C1118 1.583 . S
C1126 H1121 0.949 . S
C1126 C1132 1.368 . S
C1127 C1111 1.349 . S
C1127 H1119 0.950 . S
C1127 C1125 1.327 . S
C1128 C1116 1.349 . S
C1128 H1122 0.950 . S
C1128 C1129 1.327 . S
C1129 H1123 0.950 . S
C1129 C1128 1.327 . S
C1129 C1133 1.429 . S
C1130 C1113 1.574 . S
C1130 H1124 0.949 . S
C1130 C1134 1.368 . S
C1131 C1112 1.429 . S
C1131 C1125 1.429 . S
C1131 C1132 1.523 . S
C1132 C1113 1.368 1_565 S
C1132 C1126 1.368 . S
C1132 C1131 1.523 . S
C1133 C1117 1.429 . S
C1133 C1129 1.429 . S
C1133 C1134 1.523 . S
C1134 C1118 1.363 1_545 S
C1134 C1130 1.368 . S
C1134 C1133 1.523 . S
H1135 C1110 0.950 . S
H1136 C1112 0.950 . S
H1137 C1113 0.949 . S
H1138 C1115 0.950 . S
H1139 C1117 0.950 . S
C1140 C1141 1.349 . S
C1140 C1142 1.327 . S
C1140 H1165 0.950 . S
C1141 C1140 1.349 . S
C1141 C1157 1.349 . S
C1142 C1140 1.327 . S
C1142 C1161 1.429 . S
C1142 H1166 0.950 . S
C1143 C1160 1.574 . S
C1143 C1162 1.368 . S
C1143 H1167 0.949 . S
H1144 C1148 0.949 . S
C1145 C1146 1.349 . S
C1145 C1147 1.327 . S
C1145 H1168 0.950 . S
C1146 C1145 1.349 . S
C1146 C1158 1.349 . S
C1147 C1145 1.327 . S
C1147 C1163 1.429 . S
C1147 H1169 0.950 . S
C1148 H1144 0.949 . S
C1148 C1156 1.574 . S
C1148 C1164 1.368 . S
H1149 C1157 0.950 . S
H1150 C1155 0.950 . S
H1151 C1156 0.949 . S
H1152 C1158 0.950 . S
H1153 C1159 0.950 . S
H1154 C1160 0.949 . S
C1155 H1150 0.950 . S
C1155 C1157 1.327 . S
C1155 C1161 1.429 . S
C1156 C1148 1.574 . S
C1156 H1151 0.949 . S
C1156 C1162 1.368 1_455 S
C1157 C1141 1.349 . S
C1157 H1149 0.950 . S
C1157 C1155 1.327 . S
C1158 C1146 1.349 . S
C1158 H1152 0.950 . S
C1158 C1159 1.327 . S
C1159 H1153 0.950 . S
C1159 C1158 1.327 . S
C1159 C1163 1.429 . S
C1160 C1143 1.574 . S
C1160 H1154 0.949 . S
C1160 C1164 1.368 1_655 S
C1161 C1142 1.429 . S
C1161 C1155 1.429 . S
C1161 C1162 1.523 . S
C1162 C1143 1.368 . S
C1162 C1156 1.368 1_655 S
C1162 C1161 1.523 . S
C1163 C1147 1.429 . S
C1163 C1159 1.429 . S
C1163 C1164 1.523 . S
C1164 C1148 1.368 . S
C1164 C1160 1.368 1_455 S
C1164 C1163 1.523 . S
H1165 C1140 0.950 . S
H1166 C1142 0.950 . S
H1167 C1143 0.949 . S
H1168 C1145 0.950 . S
H1169 C1147 0.950 . S
C361 C46 1.542 . S
C366 C10 1.579 . S
C391 C86 1.542 . S
C396 C50 1.579 . S
C421 C90 1.579 . S
C426 C6 1.542 . S
C451 C95 1.360 . S
C456 C59 1.329 . S
C481 C99 1.329 . S
C486 C15 1.360 . S
C511 C19 1.329 . S
C516 C55 1.360 . S
C541 C130 1.579 . S
C546 C166 1.542 . S
C571 C206 1.542 . S
C576 C170 1.579 . S
C601 C210 1.579 . S
C606 C126 1.542 . S
C631 C179 1.329 . S
C636 C215 1.360 . S
C661 C219 1.329 . S
C666 C135 1.360 . S
C691 C175 1.360 . S
C696 C139 1.329 . S
C721 C286 1.542 . S
C726 C250 1.579 . S
C751 C290 1.579 . S
C756 C326 1.542 . S
C781 C330 1.579 . S
C786 C246 1.542 . S
C811 C335 1.360 . S
C816 C299 1.329 . S
C841 C339 1.329 . S
C846 C255 1.360 . S
C871 C259 1.329 . S
C876 C295 1.360 . S
C901 C209 2.517 . S
C906 C18 2.218 . S
C931 C129 2.517 . S
C936 C58 2.219 . S
C961 C98 2.218 1_565 S
C966 C169 2.517 . S
C991 C89 2.517 . S
C996 C258 2.218 . S
C1021 C9 2.517 . S
C1026 C298 2.219 . S
C1051 C338 2.218 . S
C1056 C49 2.517 . S
C1081 C138 2.219 . S
C1086 C329 2.517 . S
C1111 C178 2.219 . S
C1116 C249 2.517 . S
C1141 C289 2.517 . S
C1146 C218 2.218 . S
