# Generated by pormake.
# Topology ecv, (8)-cn, num edge types: 1
# Building blocks:
#     Node 0, Type 0, BuildingBlock: TAGTUT_clean_sbu_3, # of connection points: 8
#     Node 1, Type 0, BuildingBlock: TAGTUT_clean_sbu_3, # of connection points: 8
#     Node 2, Type 0, BuildingBlock: TAGTUT_clean_sbu_3, # of connection points: 8
#     Node 3, Type 0, BuildingBlock: TAGTUT_clean_sbu_3, # of connection points: 8
#     Node 4, Type 0, BuildingBlock: TAGTUT_clean_sbu_3, # of connection points: 8
#     Node 5, Type 0, BuildingBlock: TAGTUT_clean_sbu_3, # of connection points: 8
#     Node 6, Type 0, BuildingBlock: TAGTUT_clean_sbu_3, # of connection points: 8
#     Node 7, Type 0, BuildingBlock: TAGTUT_clean_sbu_3, # of connection points: 8
#     Node 8, Type 0, BuildingBlock: TAGTUT_clean_sbu_3, # of connection points: 8
#     Node 9, Type 0, BuildingBlock: TAGTUT_clean_sbu_3, # of connection points: 8
#     Node 10, Type 0, BuildingBlock: TAGTUT_clean_sbu_3, # of connection points: 8
#     Node 11, Type 0, BuildingBlock: TAGTUT_clean_sbu_3, # of connection points: 8
#     Node 12, Type 0, BuildingBlock: TAGTUT_clean_sbu_3, # of connection points: 8
#     Node 13, Type 0, BuildingBlock: TAGTUT_clean_sbu_3, # of connection points: 8
#     Node 14, Type 0, BuildingBlock: TAGTUT_clean_sbu_3, # of connection points: 8
#     Node 15, Type 0, BuildingBlock: TAGTUT_clean_sbu_3, # of connection points: 8
#     Edge 16, Type (0, 0), BuildingBlock: OJICUG_clean_linker_0, # of connection points: 2
#     Edge 17, Type (0, 0), BuildingBlock: OJICUG_clean_linker_0, # of connection points: 2
#     Edge 18, Type (0, 0), BuildingBlock: OJICUG_clean_linker_0, # of connection points: 2
#     Edge 19, Type (0, 0), BuildingBlock: OJICUG_clean_linker_0, # of connection points: 2
#     Edge 20, Type (0, 0), BuildingBlock: OJICUG_clean_linker_0, # of connection points: 2
#     Edge 21, Type (0, 0), BuildingBlock: OJICUG_clean_linker_0, # of connection points: 2
#     Edge 22, Type (0, 0), BuildingBlock: OJICUG_clean_linker_0, # of connection points: 2
#     Edge 23, Type (0, 0), BuildingBlock: OJICUG_clean_linker_0, # of connection points: 2
#     Edge 24, Type (0, 0), BuildingBlock: OJICUG_clean_linker_0, # of connection points: 2
#     Edge 25, Type (0, 0), BuildingBlock: OJICUG_clean_linker_0, # of connection points: 2
#     Edge 26, Type (0, 0), BuildingBlock: OJICUG_clean_linker_0, # of connection points: 2
#     Edge 27, Type (0, 0), BuildingBlock: OJICUG_clean_linker_0, # of connection points: 2
#     Edge 28, Type (0, 0), BuildingBlock: OJICUG_clean_linker_0, # of connection points: 2
#     Edge 29, Type (0, 0), BuildingBlock: OJICUG_clean_linker_0, # of connection points: 2
#     Edge 30, Type (0, 0), BuildingBlock: OJICUG_clean_linker_0, # of connection points: 2
#     Edge 31, Type (0, 0), BuildingBlock: OJICUG_clean_linker_0, # of connection points: 2
#     Edge 32, Type (0, 0), BuildingBlock: OJICUG_clean_linker_0, # of connection points: 2
#     Edge 33, Type (0, 0), BuildingBlock: OJICUG_clean_linker_0, # of connection points: 2
#     Edge 34, Type (0, 0), BuildingBlock: OJICUG_clean_linker_0, # of connection points: 2
#     Edge 35, Type (0, 0), BuildingBlock: OJICUG_clean_linker_0, # of connection points: 2
#     Edge 36, Type (0, 0), BuildingBlock: OJICUG_clean_linker_0, # of connection points: 2
#     Edge 37, Type (0, 0), BuildingBlock: OJICUG_clean_linker_0, # of connection points: 2
#     Edge 38, Type (0, 0), BuildingBlock: OJICUG_clean_linker_0, # of connection points: 2
#     Edge 39, Type (0, 0), BuildingBlock: OJICUG_clean_linker_0, # of connection points: 2
#     Edge 40, Type (0, 0), BuildingBlock: OJICUG_clean_linker_0, # of connection points: 2
#     Edge 41, Type (0, 0), BuildingBlock: OJICUG_clean_linker_0, # of connection points: 2
#     Edge 42, Type (0, 0), BuildingBlock: OJICUG_clean_linker_0, # of connection points: 2
#     Edge 43, Type (0, 0), BuildingBlock: OJICUG_clean_linker_0, # of connection points: 2
#     Edge 44, Type (0, 0), BuildingBlock: OJICUG_clean_linker_0, # of connection points: 2
#     Edge 45, Type (0, 0), BuildingBlock: OJICUG_clean_linker_0, # of connection points: 2
#     Edge 46, Type (0, 0), BuildingBlock: OJICUG_clean_linker_0, # of connection points: 2
#     Edge 47, Type (0, 0), BuildingBlock: OJICUG_clean_linker_0, # of connection points: 2
#     Edge 48, Type (0, 0), BuildingBlock: OJICUG_clean_linker_0, # of connection points: 2
#     Edge 49, Type (0, 0), BuildingBlock: OJICUG_clean_linker_0, # of connection points: 2
#     Edge 50, Type (0, 0), BuildingBlock: OJICUG_clean_linker_0, # of connection points: 2
#     Edge 51, Type (0, 0), BuildingBlock: OJICUG_clean_linker_0, # of connection points: 2
#     Edge 52, Type (0, 0), BuildingBlock: OJICUG_clean_linker_0, # of connection points: 2
#     Edge 53, Type (0, 0), BuildingBlock: OJICUG_clean_linker_0, # of connection points: 2
#     Edge 54, Type (0, 0), BuildingBlock: OJICUG_clean_linker_0, # of connection points: 2
#     Edge 55, Type (0, 0), BuildingBlock: OJICUG_clean_linker_0, # of connection points: 2
#     Edge 56, Type (0, 0), BuildingBlock: OJICUG_clean_linker_0, # of connection points: 2
#     Edge 57, Type (0, 0), BuildingBlock: OJICUG_clean_linker_0, # of connection points: 2
#     Edge 58, Type (0, 0), BuildingBlock: OJICUG_clean_linker_0, # of connection points: 2
#     Edge 59, Type (0, 0), BuildingBlock: OJICUG_clean_linker_0, # of connection points: 2
#     Edge 60, Type (0, 0), BuildingBlock: OJICUG_clean_linker_0, # of connection points: 2
#     Edge 61, Type (0, 0), BuildingBlock: OJICUG_clean_linker_0, # of connection points: 2
#     Edge 62, Type (0, 0), BuildingBlock: OJICUG_clean_linker_0, # of connection points: 2
#     Edge 63, Type (0, 0), BuildingBlock: OJICUG_clean_linker_0, # of connection points: 2
#     Edge 64, Type (0, 0), BuildingBlock: OJICUG_clean_linker_0, # of connection points: 2
#     Edge 65, Type (0, 0), BuildingBlock: OJICUG_clean_linker_0, # of connection points: 2
#     Edge 66, Type (0, 0), BuildingBlock: OJICUG_clean_linker_0, # of connection points: 2
#     Edge 67, Type (0, 0), BuildingBlock: OJICUG_clean_linker_0, # of connection points: 2
#     Edge 68, Type (0, 0), BuildingBlock: OJICUG_clean_linker_0, # of connection points: 2
#     Edge 69, Type (0, 0), BuildingBlock: OJICUG_clean_linker_0, # of connection points: 2
#     Edge 70, Type (0, 0), BuildingBlock: OJICUG_clean_linker_0, # of connection points: 2
#     Edge 71, Type (0, 0), BuildingBlock: OJICUG_clean_linker_0, # of connection points: 2
#     Edge 72, Type (0, 0), BuildingBlock: OJICUG_clean_linker_0, # of connection points: 2
#     Edge 73, Type (0, 0), BuildingBlock: OJICUG_clean_linker_0, # of connection points: 2
#     Edge 74, Type (0, 0), BuildingBlock: OJICUG_clean_linker_0, # of connection points: 2
#     Edge 75, Type (0, 0), BuildingBlock: OJICUG_clean_linker_0, # of connection points: 2
#     Edge 76, Type (0, 0), BuildingBlock: OJICUG_clean_linker_0, # of connection points: 2
#     Edge 77, Type (0, 0), BuildingBlock: OJICUG_clean_linker_0, # of connection points: 2
#     Edge 78, Type (0, 0), BuildingBlock: OJICUG_clean_linker_0, # of connection points: 2
#     Edge 79, Type (0, 0), BuildingBlock: OJICUG_clean_linker_0, # of connection points: 2
# Relax obj value: 0.132
# Max RMSD: 0.211
# Mean RMSD: 0.191
data_MOF--net-ecv--node1-TAGTUT_clean_sbu_3--edge1-OJICUG_clean_linker_0
_symmetry_space_group_name_H-M    P1
_symmetry_Int_Tables_number       1
_symmetry_cell_setting            triclinic
loop_
_symmetry_equiv_pos_as_xyz
'x, y, z'
_cell_length_a     16.312081
_cell_length_b     18.196434
_cell_length_c     94.978218
_cell_angle_alpha  86.810047
_cell_angle_beta   90.041084
_cell_angle_gamma 90.045883
loop_
_atom_site_label
_atom_site_type_symbol
_atom_site_fract_x
_atom_site_fract_y
_atom_site_fract_z
_atom_type_partial_charge
C0 C 0.00568 0.07415 0.47198 0.0
C1 C 0.18303 0.16245 0.49232 0.0
C2 C 0.31324 0.21205 0.45468 0.0
Mg3 Mg 0.92893 0.03507 0.44227 0.0
Mg4 Mg 0.03428 -0.00667 0.41382 0.0
O5 O 0.01336 0.05927 0.42797 0.0
Mg6 Mg 0.09645 0.08784 0.44113 0.0
O7 O 0.1702 0.12254 0.45513 0.0
Mg8 Mg 0.10967 0.21055 0.46098 0.0
Mg9 Mg 0.23822 0.07623 0.46877 0.0
C10 C 0.16998 0.11276 0.40801 0.0
O11 O 0.17462 0.97508 0.44119 0.0
O12 O 0.84302 0.03615 0.42268 0.0
O13 O 0.26272 0.97241 0.45958 0.0
O14 O 0.96001 0.92034 0.43951 0.0
O15 O 0.91673 0.00541 0.40386 0.0
O16 O 0.0471 0.88529 0.42343 0.0
O17 O 0.02814 0.20424 0.44075 0.0
O18 O 0.90438 0.15321 0.4434 0.0
C19 C 0.94884 0.21011 0.44137 0.0
C20 C 0.84958 0.02545 0.40945 0.0
O21 O 0.16723 0.13284 0.42083 0.0
O22 O 0.16884 0.21116 0.48246 0.0
O23 O 0.13161 0.05605 0.404 0.0
O24 O 0.24118 0.23857 0.45134 0.0
O25 O 0.19992 0.09601 0.48984 0.0
O26 O 0.32518 0.15755 0.46351 0.0
O27 O 0.02242 0.03977 0.46085 0.0
O28 O 0.00671 0.14443 0.4715 0.0
C29 C 0.99822 0.8696 0.4336 0.0
C30 C 0.23325 0.94416 0.44858 0.0
C31 C 0.92787 0.01783 0.82592 0.0
C32 C 0.8179 0.20961 0.85802 0.0
C33 C 0.99223 0.35299 0.8378 0.0
Mg34 Mg 0.09863 0.00239 0.80969 0.0
Mg35 Mg 0.26775 0.09756 0.82895 0.0
O36 O 0.16308 0.09921 0.81803 0.0
Mg37 Mg 0.07714 0.13324 0.83079 0.0
O38 O 0.98638 0.16052 0.84253 0.0
Mg39 Mg 0.9139 0.19304 0.8268 0.0
Mg40 Mg 0.00581 0.22633 0.85698 0.0
C41 C 0.22832 0.25265 0.83759 0.0
O42 O 0.13253 0.08664 0.85262 0.0
O43 O 0.20487 0.08561 0.80777 0.0
O44 O 0.09075 0.16109 0.86929 0.0
O45 O 0.18947 0.92182 0.82193 0.0
O46 O 0.33677 0.09581 0.80909 0.0
O47 O 0.2103 0.00049 0.83774 0.0
O48 O 0.0172 0.18443 0.80983 0.0
O49 O 0.02278 0.08491 0.79697 0.0
C50 C 0.00669 0.15306 0.79807 0.0
C51 C 0.27497 0.08066 0.80157 0.0
O52 O 0.15368 0.24381 0.83354 0.0
O53 O 0.81723 0.19608 0.84486 0.0
O54 O 0.27654 0.198 0.83923 0.0
O55 O 0.9527 0.30565 0.83108 0.0
O56 O 0.88311 0.22705 0.86453 0.0
O57 O 0.03742 0.33216 0.84816 0.0
O58 O 0.0063 0.02334 0.82784 0.0
O59 O 0.88345 0.07531 0.8245 0.0
C60 C 0.23715 0.94842 0.83101 0.0
C61 C 0.13017 0.10467 0.86555 0.0
C62 C 0.02461 0.74737 0.57604 0.0
C63 C 0.96391 0.842 0.62512 0.0
C64 C 0.72929 0.90969 0.60691 0.0
Mg65 Mg 0.95444 0.79825 0.54516 0.0
Mg66 Mg 0.8869 0.96793 0.53717 0.0
O67 O 0.87925 0.88427 0.54936 0.0
Mg68 Mg 0.90299 0.89043 0.57007 0.0
O69 O 0.92475 0.88401 0.59077 0.0
Mg70 Mg 0.86924 0.78733 0.59597 0.0
Mg71 Mg 0.9055 0.96245 0.60241 0.0
C72 C 0.77554 0.03331 0.56077 0.0
O73 O 0.99757 0.98964 0.56922 0.0
O74 O 0.89499 0.79884 0.52399 0.0
O75 O 0.98137 0.04256 0.59006 0.0
O76 O 0.04963 0.8752 0.53195 0.0
O77 O 0.85371 0.91476 0.51806 0.0
O78 O 0.01424 0.98378 0.53852 0.0
O79 O 0.81247 0.79202 0.57346 0.0
O80 O 0.84935 0.72613 0.55541 0.0
C81 C 0.80264 0.73567 0.56603 0.0
C82 C 0.86348 0.84701 0.51532 0.0
O83 O 0.7985 0.98274 0.57012 0.0
O84 O 0.93415 0.7912 0.61775 0.0
O85 O 0.8053 0.03802 0.54826 0.0
O86 O 0.75733 0.8464 0.60427 0.0
O87 O 0.9593 0.91045 0.62119 0.0
O88 O 0.77421 0.96738 0.60584 0.0
O89 O 0.00781 0.8041 0.56779 0.0
O90 O 0.98174 0.73223 0.58708 0.0
C91 C 0.04889 0.94536 0.52954 0.0
C92 C 0.01573 0.03982 0.57788 0.0
C93 C 0.86527 -0.00498 0.20239 0.0
C94 C 0.90626 0.89389 0.25257 0.0
C95 C 0.09967 0.79645 0.24128 0.0
Mg96 Mg 0.9367 0.94312 0.17293 0.0
Mg97 Mg 0.97588 0.76836 0.16683 0.0
O98 O 0.99366 0.8474 0.17841 0.0
Mg99 Mg 0.96905 0.84113 0.19902 0.0
O100 O 0.9418 0.84813 0.21959 0.0
Mg101 Mg 0.01375 0.93687 0.22399 0.0
Mg102 Mg 0.94225 0.76669 0.23244 0.0
C103 C 0.08498 0.69183 0.19178 0.0
O104 O 0.86626 0.74799 0.19843 0.0
O105 O 0.00368 0.9396 0.1514 0.0
O106 O 0.86699 0.69494 0.22051 0.0
O107 O 0.82639 0.8825 0.16432 0.0
O108 O 0.03008 0.82043 0.14811 0.0
O109 O 0.84488 0.7616 0.16302 0.0
O110 O 0.07129 0.92937 0.20181 0.0
O111 O 0.04741 -0.00011 0.18225 0.0
C112 C 0.08842 0.98591 0.19356 0.0
C113 C 0.03419 0.88886 0.14413 0.0
O114 O 0.06583 0.74198 0.20042 0.0
O115 O 0.9471 0.93822 0.2444 0.0
O116 O 0.05154 0.68932 0.17951 0.0
O117 O 0.10961 0.86472 0.23763 0.0
O118 O 0.8945 0.82596 0.25012 0.0
O119 O 0.07107 0.75602 0.23204 0.0
O120 O 0.87681 0.93827 0.19514 0.0
O121 O 0.91055 0.00588 0.2131 0.0
C122 C 0.79936 0.81877 0.16171 0.0
C123 C 0.84147 0.69796 0.20772 0.0
C124 C 0.00281 0.55307 0.9687 0.0
C125 C 0.24649 0.69975 0.97315 0.0
C126 C 0.22338 0.74848 0.93142 0.0
Mg127 Mg 0.90955 0.50191 0.94076 0.0
Mg128 Mg 0.99703 0.46975 0.9097 0.0
O129 O 0.98112 0.53275 0.92461 0.0
Mg130 Mg 0.06932 0.56643 0.93631 0.0
O131 O 0.14754 0.60539 0.95023 0.0
Mg132 Mg 0.0821 0.70038 0.95365 0.0
Mg133 Mg 0.25547 0.61589 0.94504 0.0
C134 C 0.11667 0.59582 0.90108 0.0
O135 O 0.15886 0.46204 0.93497 0.0
O136 O 0.81124 0.49406 0.92354 0.0
O137 O 0.28339 0.50694 0.94 0.0
O138 O 0.95668 0.3905 0.93712 0.0
O139 O 0.87145 0.46966 0.90303 0.0
O140 O 0.03525 0.36649 0.91893 0.0
O141 O 0.9894 0.6727 0.93718 0.0
O142 O 0.87024 0.61864 0.94242 0.0
C143 C 0.91229 0.67674 0.93984 0.0
C144 C 0.80811 0.48428 0.9103 0.0
O145 O 0.12008 0.61219 0.9141 0.0
O146 O 0.17257 0.71816 0.97046 0.0
O147 O 0.07827 0.53899 0.89721 0.0
O148 O 0.1702 0.77655 0.93938 0.0
O149 O 0.28902 0.6601 0.9651 0.0
O150 O 0.21102 0.68387 0.92832 0.0
O151 O 0.01298 0.51736 0.95744 0.0
O152 O 0.00913 0.6233 0.96832 0.0
C153 C 0.99903 0.34532 0.93031 0.0
C154 C 0.23733 0.45417 0.93654 0.0
C155 C 0.91352 0.58153 0.32824 0.0
C156 C 0.81224 0.77924 0.35645 0.0
C157 C 0.0079 0.91268 0.33458 0.0
Mg158 Mg 0.08469 0.55188 0.31515 0.0
Mg159 Mg 0.25754 0.63608 0.32307 0.0
O160 O 0.15035 0.64735 0.31743 0.0
Mg161 Mg 0.07166 0.69128 0.33073 0.0
O162 O 0.98428 0.72869 0.34217 0.0
Mg163 Mg 0.91252 0.75594 0.32591 0.0
Mg164 Mg 1.00137 0.79379 0.35677 0.0
C165 C 0.24369 0.80018 0.32996 0.0
O166 O 0.11793 0.64935 0.35283 0.0
O167 O 0.17633 0.526 0.29898 0.0
O168 O 0.08147 0.72458 0.36968 0.0
O169 O 0.17182 0.48083 0.33074 0.0
O170 O 0.29399 0.58277 0.30415 0.0
O171 O 0.21658 0.57563 0.341 0.0
O172 O 0.01561 0.73524 0.30942 0.0
O173 O 0.01498 0.62654 0.29936 0.0
C174 C 0.00705 0.69681 0.29848 0.0
C175 C 0.25127 0.54134 0.29646 0.0
O176 O 0.1649 0.79412 0.33151 0.0
O177 O 0.81502 0.769 0.3432 0.0
O178 O 0.2884 0.74588 0.32687 0.0
O179 O 0.9638 0.86686 0.32824 0.0
O180 O 0.87593 0.79475 0.36359 0.0
O181 O 0.04109 0.89437 0.34641 0.0
O182 O 0.99063 0.5866 0.33076 0.0
O183 O 0.87094 0.63901 0.32538 0.0
C184 C 0.22342 0.50881 0.33908 0.0
C185 C 0.11613 0.66604 0.36577 0.0
C186 C 0.08615 0.26113 0.07383 0.0
C187 C 0.03569 0.35786 0.12353 0.0
C188 C 0.80024 0.42914 0.10639 0.0
Mg189 Mg 0.01041 0.31227 0.04339 0.0
Mg190 Mg 0.94115 0.48356 0.03543 0.0
O191 O 0.94048 0.40146 0.04812 0.0
Mg192 Mg 0.96845 0.40717 0.06869 0.0
O193 O 0.99372 0.40002 0.08929 0.0
Mg194 Mg 0.93613 0.30462 0.09477 0.0
Mg195 Mg 0.97674 0.47879 0.10096 0.0
C196 C 0.8423 0.55188 0.06038 0.0
O197 O 0.06617 0.50561 0.06733 0.0
O198 O 0.94267 0.31316 0.02296 0.0
O199 O 0.05224 0.55783 0.08829 0.0
O200 O 0.10645 0.38391 0.02959 0.0
O201 O 0.89171 0.42646 0.01767 0.0
O202 O 0.07018 0.49342 0.03508 0.0
O203 O 0.87528 0.31058 0.0726 0.0
O204 O 0.90681 0.24403 0.05438 0.0
C205 C 0.8626 0.25445 0.06523 0.0
C206 C 0.90257 0.35884 0.01494 0.0
O207 O 0.8667 0.50103 0.06954 0.0
O208 O 0.00461 0.30724 0.11626 0.0
O209 O 0.86763 0.5556 0.04758 0.0
O210 O 0.82665 0.36542 0.10366 0.0
O211 O 0.03159 0.42632 0.11958 0.0
O212 O 0.84606 0.48616 0.10503 0.0
O213 O 0.06943 0.31801 0.06563 0.0
O214 O 0.0456 0.24755 0.08521 0.0
C215 C 0.09692 0.45212 0.02582 0.0
C216 C 0.0856 0.55548 0.07602 0.0
C217 C 0.01798 0.4708 0.69409 0.0
C218 C 0.96946 0.37409 0.64449 0.0
C219 C 0.7352 0.29856 0.66178 0.0
Mg220 Mg 0.94784 0.41465 0.72454 0.0
Mg221 Mg 0.888 0.24084 0.73189 0.0
O222 O 0.87795 0.32532 0.71992 0.0
Mg223 Mg 0.90399 0.32201 0.69924 0.0
O224 O 0.92805 0.33049 0.67864 0.0
Mg225 Mg 0.86893 0.42517 0.67333 0.0
Mg226 Mg 0.91275 0.25158 0.66692 0.0
C227 C 0.78317 0.17335 0.70756 0.0
O228 O 0.00379 0.22589 0.70034 0.0
O229 O 0.8873 0.40806 0.74558 0.0
O230 O 0.99024 0.17332 0.67942 0.0
O231 O 0.04893 0.34375 0.73735 0.0
O232 O 0.84766 0.2909 0.75087 0.0
O233 O 0.01692 0.23343 0.73142 0.0
O234 O 0.80878 0.41755 0.6957 0.0
O235 O 0.83983 0.48194 0.71429 0.0
C236 C 0.7953 0.47244 0.70339 0.0
C237 C 0.85596 0.35829 0.75394 0.0
O238 O 0.80428 0.22593 0.69849 0.0
O239 O 0.93736 0.42409 0.65177 0.0
O240 O 0.81219 0.16826 0.72014 0.0
O241 O 0.76061 0.36256 0.66457 0.0
O242 O 0.96645 0.30551 0.64836 0.0
O243 O 0.78211 0.24225 0.66296 0.0
O244 O 0.0026 0.41306 0.70212 0.0
O245 O 0.97736 0.48424 0.68272 0.0
C246 C 0.04634 0.27438 0.74055 0.0
C247 C 0.02396 0.17638 0.69166 0.0
C248 C 0.49905 0.06224 0.96822 0.0
C249 C 0.74409 0.2161 0.97038 0.0
C250 C 0.71493 0.24772 0.92688 0.0
Mg251 Mg 0.4071 -0.00108 0.94011 0.0
Mg252 Mg 0.51161 0.94456 0.91245 0.0
O253 O 0.48392 0.02126 0.92438 0.0
Mg254 Mg 0.56773 0.06308 0.93598 0.0
O255 O 0.64417 0.11034 0.94923 0.0
Mg256 Mg 0.57789 0.206 0.9511 0.0
Mg257 Mg 0.75135 0.12134 0.94357 0.0
C258 C 0.62634 0.06762 0.90138 0.0
O259 O 0.65889 0.96015 0.93681 0.0
O260 O 0.31786 0.97807 0.92143 0.0
O261 O 0.7826 0.01046 0.94047 0.0
O262 O 0.45771 0.88759 0.94009 0.0
O263 O 0.39207 0.93589 0.90364 0.0
O264 O 0.54676 0.84839 0.9248 0.0
O265 O 0.48618 0.16904 0.93496 0.0
O266 O 0.36512 0.11621 0.93898 0.0
C267 C 0.40811 0.17393 0.93661 0.0
C268 C 0.32411 0.95739 0.90872 0.0
O269 O 0.62126 0.09631 0.91344 0.0
O270 O 0.66977 0.23371 0.96764 0.0
O271 O 0.59658 0.00422 0.89922 0.0
O272 O 0.66389 0.27609 0.93524 0.0
O273 O 0.78581 0.17364 0.96276 0.0
O274 O 0.70907 0.18036 0.9254 0.0
O275 O 0.50711 0.02365 0.95728 0.0
O276 O 0.50715 0.13251 0.96719 0.0
C277 C 0.50432 0.83718 0.93593 0.0
C278 C 0.73759 0.95486 0.93827 0.0
C279 C 0.4984 0.19692 0.30153 0.0
C280 C 0.74473 0.0475 0.29538 0.0
C281 C 0.73229 0.0077 0.3381 0.0
Mg282 Mg 0.41688 0.25218 0.33143 0.0
Mg283 Mg 0.52848 0.29873 0.35895 0.0
O284 O 0.49931 0.22624 0.34606 0.0
Mg285 Mg 0.57869 0.18933 0.33305 0.0
O286 O 0.65009 0.14786 0.31826 0.0
Mg287 Mg 0.58512 0.05106 0.31626 0.0
Mg288 Mg 0.75889 0.13749 0.3228 0.0
C289 C 0.65131 0.17679 0.36717 0.0
O290 O 0.66695 0.29366 0.33236 0.0
O291 O 0.33496 0.26377 0.3514 0.0
O292 O 0.78977 0.2474 0.32676 0.0
O293 O 0.46437 0.36438 0.3326 0.0
O294 O 0.41269 0.29988 0.36934 0.0
O295 O 0.55536 0.40086 0.3479 0.0
O296 O 0.49895 0.08154 0.33377 0.0
O297 O 0.37714 0.13516 0.33138 0.0
C298 C 0.42041 0.0771 0.33262 0.0
C299 C 0.34415 0.27884 0.36441 0.0
O300 O 0.64174 0.15132 0.35488 0.0
O301 O 0.67082 0.02951 0.29841 0.0
O302 O 0.62063 0.23831 0.37035 0.0
O303 O 0.68017 0.97871 0.33004 0.0
O304 O 0.78809 0.08853 0.30306 0.0
O305 O 0.72121 0.0733 0.34052 0.0
O306 O 0.51025 0.23398 0.31262 0.0
O307 O 0.50496 0.12652 0.30213 0.0
C308 C 0.51012 0.41441 0.33718 0.0
C309 C 0.74473 0.30102 0.3301 0.0
C310 C 0.58964 0.76362 0.07383 0.0
C311 C 0.53469 0.85649 0.1236 0.0
C312 C 0.29918 0.92629 0.10611 0.0
Mg313 Mg 0.51417 0.81456 0.04345 0.0
Mg314 Mg 0.43959 0.98377 0.03543 0.0
O315 O 0.44175 0.90188 0.04818 0.0
Mg316 Mg 0.46882 0.90755 0.06876 0.0
O317 O 0.49364 0.90014 0.08937 0.0
Mg318 Mg 0.43745 0.80382 0.09462 0.0
Mg319 Mg 0.47529 0.97801 0.10118 0.0
C320 C 0.33906 0.04979 0.06041 0.0
O321 O 0.56398 0.00725 0.06758 0.0
O322 O 0.44744 0.81341 0.02333 0.0
O323 O 0.54982 0.05834 0.08866 0.0
O324 O 0.60557 0.89012 0.02911 0.0
O325 O 0.39327 0.92508 0.01768 0.0
O326 O 0.5675 -0.00106 0.03485 0.0
O327 O 0.37752 0.80954 0.07244 0.0
O328 O 0.41202 0.74299 0.0544 0.0
C329 C 0.36647 0.75306 0.0651 0.0
C330 C 0.40664 0.85752 0.01516 0.0
O331 O 0.3648 -0.00039 0.06959 0.0
O332 O 0.50458 0.80613 0.11618 0.0
O333 O 0.36401 0.05372 0.04759 0.0
O334 O 0.32661 0.86288 0.10341 0.0
O335 O 0.52997 0.92513 0.11981 0.0
O336 O 0.34434 0.98377 0.1049 0.0
O337 O 0.5726 0.8207 0.06569 0.0
O338 O 0.54837 0.74891 0.08509 0.0
C339 C 0.59521 0.95862 0.02552 0.0
C340 C 0.58283 0.05688 0.07634 0.0
C341 C 0.30562 0.98109 0.70311 0.0
C342 C 0.31589 0.91772 0.75205 0.0
C343 C 0.49375 0.77154 0.74777 0.0
Mg344 Mg 0.3722 0.92433 0.67426 0.0
Mg345 Mg 0.40632 0.74909 0.66783 0.0
O346 O 0.42475 0.82691 0.67963 0.0
Mg347 Mg 0.40196 0.82217 0.7003 0.0
O348 O 0.38091 0.83205 0.72071 0.0
Mg349 Mg 0.44833 0.91861 0.72542 0.0
Mg350 Mg 0.31975 0.78402 0.73478 0.0
C351 C 0.51374 0.66998 0.69278 0.0
O352 O 0.29209 0.73446 0.7 0.0
O353 O 0.43763 0.91995 0.65269 0.0
O354 O 0.25119 0.70917 0.72254 0.0
O355 O 0.25918 0.86707 0.66562 0.0
O356 O 0.46175 0.80078 0.64914 0.0
O357 O 0.27522 0.74595 0.66402 0.0
O358 O 0.50946 0.90573 0.70329 0.0
O359 O 0.48585 0.97631 0.68367 0.0
C360 C 0.52778 0.96152 0.69487 0.0
C361 C 0.46683 0.86929 0.64528 0.0
O362 O 0.49504 0.71977 0.70154 0.0
O363 O 0.37932 0.93653 0.74502 0.0
O364 O 0.4807 0.66873 0.68045 0.0
O365 O 0.51994 0.83076 0.74088 0.0
O366 O 0.26998 0.86456 0.74862 0.0
O367 O 0.42252 0.74428 0.74601 0.0
O368 O 0.31378 0.92205 0.69644 0.0
O369 O 0.35298 -0.00654 0.71349 0.0
C370 C 0.23081 0.80393 0.66288 0.0
C371 C 0.24779 0.69801 0.70933 0.0
C372 C 0.40245 0.67614 0.43383 0.0
C373 C 0.30924 0.4847 0.40293 0.0
C374 C 0.50772 0.34665 0.4234 0.0
Mg375 Mg 0.5705 0.70891 0.44729 0.0
Mg376 Mg 0.75035 0.64211 0.43776 0.0
O377 O 0.64459 0.62007 0.44343 0.0
Mg378 Mg 0.56918 0.57293 0.42991 0.0
O379 O 0.48345 0.53169 0.41814 0.0
Mg380 Mg 0.40809 0.49913 0.43371 0.0
Mg381 Mg 0.49838 0.47333 0.40248 0.0
C382 C 0.7521 0.47658 0.43096 0.0
O383 O 0.61721 0.62097 0.40793 0.0
O384 O 0.66156 0.73556 0.46373 0.0
O385 O 0.58031 0.54682 0.3908 0.0
O386 O 0.64354 0.7928 0.43212 0.0
O387 O 0.78238 0.68661 0.45787 0.0
O388 O 0.70041 0.70683 0.42086 0.0
O389 O 0.51169 0.52008 0.45033 0.0
O390 O 0.51203 0.62297 0.46231 0.0
C391 C 0.50363 0.55304 0.46191 0.0
C392 C 0.73708 0.72216 0.46618 0.0
O393 O 0.6727 0.47587 0.4294 0.0
O394 O 0.31123 0.48807 0.41636 0.0
O395 O 0.79102 0.5354 0.43337 0.0
O396 O 0.46202 0.38665 0.43081 0.0
O397 O 0.3736 0.47588 0.39554 0.0
O398 O 0.53445 0.36825 0.41128 0.0
O399 O 0.47976 0.67369 0.43128 0.0
O400 O 0.36148 0.61654 0.43533 0.0
C401 C 0.69969 0.77293 0.42375 0.0
C402 C 0.61559 0.60487 0.3949 0.0
C403 C 0.39573 0.53638 0.83489 0.0
C404 C 0.30991 0.75658 0.85969 0.0
C405 C 0.5049 0.86975 0.83242 0.0
Mg406 Mg 0.56604 0.49688 0.822 0.0
Mg407 Mg 0.74384 0.57563 0.82985 0.0
O408 O 0.63744 0.58944 0.82365 0.0
Mg409 Mg 0.56045 0.64395 0.83542 0.0
O410 O 0.47517 0.69195 0.84593 0.0
Mg411 Mg 0.401 0.71093 0.82951 0.0
Mg412 Mg 0.49995 0.76834 0.85801 0.0
C413 C 0.73859 0.7453 0.83275 0.0
O414 O 0.60863 0.61332 0.85776 0.0
O415 O 0.65877 0.46197 0.8065 0.0
O416 O 0.58187 0.70514 0.87195 0.0
O417 O 0.64083 0.42708 0.83951 0.0
O418 O 0.77616 0.52156 0.81077 0.0
O419 O 0.70009 0.52015 0.8485 0.0
O420 O 0.50424 0.67915 0.81399 0.0
O421 O 0.50729 0.56996 0.80433 0.0
C422 C 0.49887 0.6401 0.80316 0.0
C423 C 0.73289 0.47861 0.80349 0.0
O424 O 0.65916 0.74393 0.83379 0.0
O425 O 0.30768 0.73832 0.84681 0.0
O426 O 0.78055 0.68661 0.83184 0.0
O427 O 0.45608 0.82138 0.82805 0.0
O428 O 0.37638 0.77591 0.86567 0.0
O429 O 0.5392 0.86059 0.84446 0.0
O430 O 0.47335 0.54136 0.83699 0.0
O431 O 0.3541 0.59397 0.83164 0.0
C432 C 0.69684 0.45198 0.84745 0.0
C433 C 0.61146 0.64143 0.86984 0.0
C434 C 0.51886 0.24439 0.57298 0.0
C435 C 0.4714 0.3361 0.6236 0.0
C436 C 0.23618 0.40988 0.60671 0.0
Mg437 Mg 0.43384 0.28301 0.5423 0.0
Mg438 Mg 0.33541 0.47149 0.53713 0.0
O439 O 0.38227 0.38722 0.54825 0.0
Mg440 Mg 0.40395 0.38964 0.56896 0.0
O441 O 0.42943 0.38032 0.5895 0.0
Mg442 Mg 0.37124 0.28593 0.5947 0.0
Mg443 Mg 0.41316 0.45853 0.60137 0.0
C444 C 0.28821 0.5448 0.56377 0.0
O445 O 0.50334 0.48687 0.56791 0.0
O446 O 0.32046 0.35101 0.54147 0.0
O447 O 0.48925 0.53818 0.58895 0.0
O448 O 0.4969 0.36119 0.52415 0.0
O449 O 0.22269 0.41508 0.53172 0.0
O450 O 0.42489 0.46817 0.52087 0.0
O451 O 0.30933 0.29186 0.57268 0.0
O452 O 0.34698 0.21383 0.55651 0.0
C453 C 0.29971 0.23104 0.56655 0.0
C454 C 0.25259 0.35155 0.53466 0.0
O455 O 0.30263 0.48464 0.57129 0.0
O456 O 0.44027 0.28639 0.61613 0.0
O457 O 0.31835 0.55598 0.55145 0.0
O458 O 0.262 0.34612 0.60386 0.0
O459 O 0.46755 0.40487 0.61991 0.0
O460 O 0.28251 0.4666 0.60545 0.0
O461 O 0.49902 0.29959 0.56448 0.0
O462 O 0.48053 0.23168 0.58462 0.0
C463 C 0.48084 0.42332 0.51733 0.0
C464 C 0.5229 0.53625 0.57669 0.0
C465 C 0.36475 0.49363 0.20321 0.0
C466 C 0.40267 0.38685 0.25326 0.0
C467 C 0.59308 0.29161 0.24375 0.0
Mg468 Mg 0.4374 0.44428 0.17366 0.0
Mg469 Mg 0.4764 0.27065 0.16706 0.0
O470 O 0.49431 0.34846 0.17893 0.0
Mg471 Mg 0.46939 0.34024 0.19954 0.0
O472 O 0.44219 0.34461 0.22013 0.0
Mg473 Mg 0.51182 0.4331 0.22515 0.0
Mg474 Mg 0.43893 0.26265 0.23287 0.0
C475 C 0.58436 0.19177 0.19183 0.0
O476 O 0.36655 0.24746 0.19846 0.0
O477 O 0.50567 0.44272 0.15213 0.0
O478 O 0.36582 0.19201 0.22036 0.0
O479 O 0.32718 0.38477 0.16464 0.0
O480 O 0.53144 0.32379 0.14852 0.0
O481 O 0.3457 0.26408 0.16307 0.0
O482 O 0.57187 0.42836 0.20291 0.0
O483 O 0.54744 0.49948 0.18341 0.0
C484 C 0.5885 0.48538 0.19472 0.0
C485 C 0.53617 0.39243 0.14474 0.0
O486 O 0.56561 0.24121 0.20063 0.0
O487 O 0.44381 0.43184 0.24529 0.0
O488 O 0.55097 0.19034 0.17954 0.0
O489 O 0.60437 0.3593 0.23959 0.0
O490 O 0.3892 0.31972 0.25046 0.0
O491 O 0.56696 0.2488 0.23466 0.0
O492 O 0.37698 0.43746 0.19584 0.0
O493 O 0.40911 0.50348 0.21408 0.0
C494 C 0.30026 0.3213 0.16182 0.0
C495 C 0.34124 0.19647 0.20751 0.0
C496 C 0.45995 0.24411 0.45162 0.0
C497 C 0.38332 0.22906 0.4457 0.0
H498 H 0.58137 0.28253 0.44724 0.0
C499 C 0.37878 0.21488 0.43137 0.0
H500 H 0.46709 0.24741 0.46291 0.0
C501 C 0.44574 0.23112 0.42262 0.0
C502 C 0.51161 0.26962 0.42815 0.0
H503 H 0.32344 0.19268 0.42701 0.0
H504 H 0.43742 0.22969 0.41131 0.0
C505 C 0.52641 0.26009 0.44271 0.0
C506 C 0.88847 0.7987 0.44396 0.0
C507 C 0.94945 0.80205 0.43349 0.0
H508 H 0.76291 0.82654 0.44746 0.0
C509 C 0.92715 0.78176 0.41995 0.0
H510 H 0.90454 0.80966 0.45473 0.0
C511 C 0.84435 0.78062 0.4162 0.0
C512 C 0.78359 0.79801 0.42604 0.0
H513 H 0.97285 0.77781 0.41175 0.0
H514 H 0.82753 0.76587 0.40569 0.0
C515 C 0.80758 0.81123 0.43977 0.0
C516 C 0.37718 0.98699 0.83808 0.0
C517 C 0.3259 0.95394 0.82813 0.0
H518 H 0.50052 0.00709 0.84444 0.0
C519 C 0.36063 0.93666 0.81514 0.0
H520 H 0.35265 0.0082 0.84763 0.0
C521 C 0.4461 0.94302 0.81339 0.0
C522 C 0.49313 0.94445 0.82586 0.0
H523 H 0.32321 0.91701 0.80672 0.0
H524 H 0.47306 0.92262 0.80395 0.0
C525 C 0.46185 0.98965 0.83596 0.0
C526 C 0.88543 0.42909 0.82819 0.0
C527 C 0.94595 0.42177 0.83866 0.0
H528 H 0.7619 0.39466 0.82463 0.0
C529 C 0.92318 0.43884 0.85241 0.0
H530 H 0.90184 0.42112 0.81731 0.0
C531 C 0.8399 0.4405 0.85601 0.0
C532 C 0.77995 0.4238 0.84596 0.0
H533 H 0.96864 0.44086 0.8607 0.0
H534 H 0.82225 0.45463 0.86651 0.0
C535 C 0.8054 0.41214 0.83229 0.0
C536 C 0.61011 0.64594 0.58255 0.0
C537 C 0.59196 0.58954 0.57338 0.0
H538 H 0.68961 0.73488 0.5876 0.0
C539 C 0.64461 0.58163 0.56181 0.0
H540 H 0.5717 0.65414 0.59162 0.0
C541 C 0.71331 0.62794 0.55961 0.0
C542 C 0.7316 0.68398 0.56885 0.0
H543 H 0.63363 0.53879 0.55457 0.0
H544 H 0.752 0.61985 0.55057 0.0
C545 C 0.67846 0.69234 0.58031 0.0
C546 C 0.10321 0.15031 0.58325 0.0
C547 C 0.08536 0.09186 0.57453 0.0
H548 H 0.18433 0.23937 0.58774 0.0
C549 C 0.13947 0.07967 0.56339 0.0
H550 H 0.06347 0.16147 0.59201 0.0
C551 C 0.20933 0.12373 0.56112 0.0
C552 C 0.22761 0.18188 0.56986 0.0
H553 H 0.12905 0.03493 0.55656 0.0
H554 H 0.24885 0.11221 0.55235 0.0
C555 C 0.17305 0.19485 0.5809 0.0
C556 C 0.74035 0.0365 0.18808 0.0
C557 C 0.79346 0.04542 0.19952 0.0
H558 H 0.63306 0.07404 0.17681 0.0
C559 C 0.77463 0.10104 0.20881 0.0
H560 H 0.75202 -0.00582 0.18076 0.0
C561 C 0.70557 0.14658 0.20667 0.0
C562 C 0.65305 0.1384 0.19511 0.0
H563 H 0.81326 0.10952 0.21786 0.0
H564 H 0.69438 0.18922 0.21395 0.0
C565 C 0.67149 0.0823 0.18588 0.0
C566 C 0.17263 0.58193 0.18618 0.0
C567 C 0.15378 0.63856 0.19526 0.0
H568 H 0.25288 0.49307 0.18137 0.0
C569 C 0.20575 0.64695 0.2069 0.0
H570 H 0.13475 0.5734 0.17704 0.0
C571 C 0.27442 0.60096 0.20928 0.0
C572 C 0.29353 0.54473 0.20013 0.0
H573 H 0.19435 0.68999 0.21408 0.0
H574 H 0.31252 0.60956 0.21838 0.0
C575 C 0.24109 0.5358 0.18859 0.0
C576 C 0.42026 0.7636 0.95134 0.0
C577 C 0.47692 0.76232 0.9402 0.0
H578 H 0.29685 0.80018 0.95493 0.0
C579 C 0.45118 0.72549 0.92842 0.0
H580 H 0.4406 0.78145 0.96146 0.0
C581 C 0.36813 0.72927 0.92482 0.0
C582 C 0.31103 0.75969 0.93409 0.0
H583 H 0.49503 0.71041 0.92051 0.0
H584 H 0.34848 0.70864 0.91487 0.0
C585 C 0.33837 0.77734 0.94749 0.0
C586 C 0.83492 0.27545 0.94112 0.0
C587 C 0.80158 0.26734 0.92772 0.0
H588 H 0.94108 0.26836 0.95411 0.0
C589 C 0.85469 0.2469 0.91687 0.0
H590 H 0.797 0.29362 0.9495 0.0
C591 C 0.93944 0.24431 0.91922 0.0
C592 C 0.96986 0.26888 0.93198 0.0
H593 H 0.83074 0.23271 0.90675 0.0
H594 H 0.97993 0.23815 0.91032 0.0
C595 C 0.9176 0.2592 0.94367 0.0
C596 C 0.44799 0.51836 0.3463 0.0
C597 C 0.47899 0.48893 0.33406 0.0
H598 H 0.33941 0.53243 0.35859 0.0
C599 C 0.42667 0.49123 0.32228 0.0
H600 H 0.48831 0.52884 0.35504 0.0
C601 C 0.3436 0.47698 0.32496 0.0
C602 C 0.3104 0.49021 0.33817 0.0
H603 H 0.45075 0.4772 0.31214 0.0
H604 H 0.30534 0.45697 0.31675 0.0
C605 C 0.36349 0.51495 0.34868 0.0
C606 C 0.87523 0.02007 0.34634 0.0
C607 C 0.82004 -0.0055 0.33619 0.0
H608 H 1.00145 0.03415 0.35187 0.0
C609 C 0.85044 0.98335 0.32267 0.0
H610 H 0.85364 0.03749 0.35639 0.0
C611 C 0.93337 -0.00268 0.31966 0.0
C612 C 0.98671 0.99046 0.3313 0.0
H613 H 0.81088 0.96356 0.31462 0.0
H614 H 0.95554 0.98445 0.30933 0.0
C615 C 0.95924 0.02328 0.34342 0.0
C616 C 0.67033 0.1665 0.08215 0.0
C617 C 0.65123 0.11043 0.07295 0.0
H618 H 0.75116 0.25482 0.08711 0.0
C619 C 0.7028 0.10249 0.06127 0.0
H620 H 0.63265 0.17456 0.09132 0.0
C621 C 0.77156 0.14828 0.05897 0.0
C622 C 0.79107 0.20388 0.06824 0.0
H623 H 0.6911 0.05986 0.05401 0.0
H624 H 0.80945 0.13997 0.04984 0.0
C625 C 0.73894 0.21253 0.07981 0.0
C626 C 0.17325 0.66516 0.08174 0.0
C627 C 0.1547 0.60857 0.07263 0.0
H628 H 0.25354 0.75378 0.0867 0.0
C629 C 0.20727 0.59996 0.06109 0.0
H630 H 0.13489 0.67386 0.0908 0.0
C631 C 0.27631 0.64574 0.05885 0.0
C632 C 0.29509 0.70194 0.06803 0.0
H633 H 0.19606 0.55692 0.05389 0.0
H634 H 0.31491 0.63708 0.04982 0.0
C635 C 0.24201 0.71106 0.07946 0.0
C636 C 0.63389 0.62313 0.70787 0.0
C637 C 0.5823 0.61613 0.69613 0.0
H638 H 0.74083 0.58505 0.71922 0.0
C639 C 0.60179 0.56085 0.68678 0.0
H640 H 0.62199 0.66506 0.71527 0.0
C641 C 0.67065 0.51491 0.689 0.0
C642 C 0.72288 0.52267 0.70061 0.0
H643 H 0.56428 0.55341 0.67756 0.0
H644 H 0.68308 0.47342 0.68154 0.0
C645 C 0.70294 0.57736 0.71005 0.0
C646 C 0.14787 0.13558 0.70636 0.0
C647 C 0.09394 0.12448 0.69509 0.0
H648 H 0.25668 0.10082 0.71755 0.0
C649 C 0.11165 0.06634 0.68631 0.0
H650 H 0.13745 0.18004 0.71326 0.0
C651 C 0.18067 0.02099 0.68871 0.0
C652 C 0.23488 0.03237 0.69991 0.0
H653 H 0.07225 0.0558 0.67747 0.0
H654 H 0.19134 0.97676 0.68178 0.0
C655 C 0.2172 0.09042 0.70871 0.0
C656 C 0.23174 0.8161 0.43928 0.0
C657 C 0.27535 0.87706 0.44376 0.0
H658 H 0.23742 0.70509 0.43279 0.0
C659 C 0.36167 0.87281 0.44425 0.0
H660 H 0.16551 0.81707 0.43893 0.0
C661 C 0.40333 0.80917 0.44052 0.0
C662 C 0.35976 0.74694 0.43657 0.0
H663 H 0.39729 0.91906 0.44758 0.0
H664 H 0.46953 0.80826 0.44113 0.0
C665 C 0.27331 0.75167 0.43587 0.0
C666 C 0.81476 0.27569 0.43657 0.0
C667 C 0.90146 0.27981 0.43799 0.0
H668 H 0.70063 0.33239 0.43292 0.0
C669 C 0.93835 0.34894 0.43571 0.0
H670 H 0.78286 0.22358 0.43795 0.0
C671 C 0.88977 0.41194 0.43269 0.0
C672 C 0.80288 0.4077 0.4318 0.0
H673 H 0.00428 0.35463 0.43647 0.0
H674 H 0.92064 0.46458 0.43139 0.0
C675 C 0.76657 0.33826 0.4335 0.0
C676 C 0.22687 0.39126 0.83301 0.0
C677 C 0.26628 0.32722 0.83845 0.0
H678 H 0.23658 0.50674 0.82754 0.0
C679 C 0.34833 0.33335 0.84308 0.0
H680 H 0.16458 0.38887 0.82913 0.0
C681 C 0.39052 0.40057 0.84187 0.0
C682 C 0.35182 0.46415 0.83612 0.0
H683 H 0.38128 0.28546 0.84734 0.0
H684 H 0.45362 0.40255 0.84539 0.0
C685 C 0.26892 0.4588 0.83194 0.0
C686 C 0.87234 0.81522 0.83356 0.0
C687 C 0.78615 0.81575 0.83158 0.0
H688 H 0.98507 0.87717 0.83323 0.0
C689 C 0.74881 0.88239 0.82725 0.0
H690 H 0.9037 0.76471 0.83686 0.0
C691 C 0.79594 0.94637 0.82492 0.0
C692 C 0.8821 0.94626 0.82698 0.0
H693 H 0.68341 0.88495 0.82535 0.0
H694 H 0.76395 -0.00349 0.8216 0.0
C695 C 0.9196 0.87955 0.83134 0.0
C696 C 0.62837 0.1969 0.55686 0.0
C697 C 0.58503 0.19125 0.56962 0.0
H698 H 0.72211 0.15229 0.54411 0.0
C699 C 0.60604 0.13359 0.57958 0.0
H700 H 0.61433 0.24035 0.54897 0.0
C701 C 0.66798 0.08297 0.57686 0.0
C702 C 0.71105 0.08822 0.56408 0.0
H703 H 0.57452 0.12716 0.58961 0.0
H704 H 0.68143 0.03936 0.58473 0.0
C705 C 0.69041 0.14609 0.55412 0.0
C706 C 0.17153 0.5839 0.5792 0.0
C707 C 0.22651 0.59987 0.5681 0.0
H708 H 0.06498 0.61707 0.5903 0.0
C709 C 0.21578 0.66637 0.55986 0.0
H710 H 0.17678 0.53313 0.58563 0.0
C711 C 0.1506 0.71415 0.56233 0.0
C712 C 0.09445 0.69727 0.57319 0.0
H713 H 0.2568 0.68099 0.55119 0.0
H714 H 0.14401 0.76404 0.55565 0.0
C715 C 0.10661 0.63199 0.58174 0.0
C716 C 0.67488 0.59698 0.18831 0.0
C717 C 0.65491 0.53816 0.19807 0.0
H718 H 0.74853 0.69288 0.18358 0.0
C719 C 0.69881 0.53135 0.21077 0.0
H720 H 0.64284 0.60415 0.17834 0.0
C721 C 0.75998 0.58253 0.21372 0.0
C722 C 0.77921 0.6419 0.20403 0.0
H723 H 0.68551 0.48691 0.2185 0.0
H724 H 0.79192 0.57562 0.2237 0.0
C725 C 0.73611 0.648 0.19124 0.0
C726 C 0.26024 0.08037 0.21287 0.0
C727 C 0.27921 0.14099 0.20347 0.0
H728 H 0.18595 0.98439 0.21722 0.0
C729 C 0.2358 0.14894 0.19073 0.0
H730 H 0.29239 0.07198 0.2228 0.0
C731 C 0.17442 0.09843 0.18756 0.0
C732 C 0.15472 0.03843 0.19705 0.0
H733 H 0.24802 0.1949 0.1833 0.0
H734 H 0.142 0.10692 0.17765 0.0
C735 C 0.19898 0.02983 0.2097 0.0
C736 C 0.3651 0.37964 0.9337 0.0
C737 C 0.27885 0.38205 0.93514 0.0
H738 H 0.47353 0.3131 0.9331 0.0
C739 C 0.23579 0.31542 0.93653 0.0
H740 H 0.4006 0.42995 0.93253 0.0
C741 C 0.2781 0.2483 0.93691 0.0
C742 C 0.36459 0.24601 0.9359 0.0
H743 H 0.16989 0.31504 0.9378 0.0
H744 H 0.24264 0.19802 0.93819 0.0
C745 C 0.40737 0.31261 0.93407 0.0
C746 C 0.9093 0.81486 0.93634 0.0
C747 C 0.8683 0.74832 0.9395 0.0
H748 H 0.89985 0.93169 0.9332 0.0
C749 C 0.78266 0.74994 0.94173 0.0
H750 H 0.97476 0.81572 0.93443 0.0
C751 C 0.73935 0.81642 0.94096 0.0
C752 C 0.78047 0.88298 0.93793 0.0
H753 H 0.7486 0.69967 0.94412 0.0
H754 H 0.67427 0.81573 0.94312 0.0
C755 C 0.86595 0.8813 0.93558 0.0
C756 C 0.2458 0.93844 0.33126 0.0
C757 C 0.28758 0.87126 0.33144 0.0
H758 H 0.2546 0.05535 0.33144 0.0
C759 C 0.37424 0.87213 0.33233 0.0
H760 H 0.17972 0.94016 0.33045 0.0
C761 C 0.41789 0.93832 0.33278 0.0
C762 C 0.37611 0.00556 0.33233 0.0
H763 H 0.40899 0.82137 0.33259 0.0
H764 H 0.48419 0.93675 0.33337 0.0
C765 C 0.28941 0.00462 0.3317 0.0
C766 C 0.78434 0.50669 0.3278 0.0
C767 C 0.8706 0.50951 0.32901 0.0
H768 H 0.67675 0.43907 0.32727 0.0
C769 C 0.91387 0.44353 0.33138 0.0
H770 H 0.74867 0.5566 0.32612 0.0
C771 C 0.87213 0.37631 0.33219 0.0
C772 C 0.78608 0.37337 0.33071 0.0
H773 H 0.97996 0.44366 0.33251 0.0
H774 H 0.90771 0.32632 0.33384 0.0
C775 C 0.74257 0.4394 0.32866 0.0
C776 C 0.67623 0.65192 0.08005 0.0
C777 C 0.65624 0.71123 0.07041 0.0
H778 H 0.74974 0.55578 0.08457 0.0
C779 C 0.70014 0.71879 0.05772 0.0
H780 H 0.64418 0.64416 0.09 0.0
C781 C 0.76125 0.66783 0.05467 0.0
C782 C 0.78043 0.6079 0.06423 0.0
H783 H 0.68684 0.76361 0.05008 0.0
H784 H 0.79311 0.67531 0.04469 0.0
C785 C 0.73739 0.60111 0.07701 0.0
C786 C 0.23333 0.09816 0.077 0.0
C787 C 0.27656 0.10521 0.06424 0.0
H788 H 0.13982 0.14107 0.08998 0.0
C789 C 0.25729 0.16509 0.05468 0.0
H790 H 0.24577 0.05284 0.08456 0.0
C791 C 0.19609 0.21589 0.05772 0.0
C792 C 0.15214 0.20824 0.0704 0.0
H793 H 0.2893 0.1728 0.04472 0.0
H794 H 0.18292 0.26078 0.05009 0.0
C795 C 0.17199 0.14886 0.08003 0.0
C796 C 0.6152 0.07255 0.68833 0.0
C797 C 0.59543 0.01362 0.69808 0.0
H798 H 0.68885 0.16843 0.68354 0.0
C799 C 0.64021 0.00652 0.7107 0.0
H800 H 0.58253 0.08003 0.67842 0.0
C801 C 0.70186 0.05751 0.71357 0.0
C802 C 0.72069 0.11715 0.70391 0.0
H803 H 0.62712 0.96207 0.71843 0.0
H804 H 0.73428 0.05038 0.7235 0.0
C805 C 0.67677 0.12346 0.6912 0.0
C806 C 0.11169 0.52745 0.71167 0.0
C807 C 0.0802 0.52624 0.69794 0.0
H808 H 0.18859 0.58253 0.72598 0.0
C809 C 0.10667 0.58083 0.68779 0.0
H810 H 0.09296 0.48647 0.71973 0.0
C811 C 0.16204 0.63582 0.69132 0.0
C812 C 0.1918 0.63824 0.70513 0.0
H813 H 0.08414 0.58154 0.67705 0.0
H814 H 0.17987 0.67734 0.68332 0.0
C815 C 0.16632 0.58297 0.71523 0.0
C816 C 0.24499 0.22886 0.39955 0.0
C817 C 0.21007 0.16039 0.3968 0.0
H818 H 0.31501 0.32155 0.39131 0.0
C819 C 0.20734 0.13957 0.38274 0.0
H820 H 0.2437 0.24905 0.41003 0.0
C821 C 0.24276 0.1834 0.37191 0.0
C822 C 0.2842 0.24841 0.37483 0.0
H823 H 0.17892 0.08843 0.38003 0.0
H824 H 0.24299 0.16309 0.3614 0.0
C825 C 0.28334 0.27171 0.38872 0.0
C826 C 0.72574 0.06216 0.3763 0.0
C827 C 0.69526 0.1329 0.37847 0.0
H828 H 0.79953 0.97183 0.38448 0.0
C829 C 0.70492 0.16122 0.39187 0.0
H830 H 0.71535 0.03663 0.36649 0.0
C831 C 0.74859 0.12215 0.40246 0.0
C832 C 0.78523 0.05456 0.39981 0.0
H833 H 0.68056 0.21464 0.39414 0.0
H834 H 0.75853 0.14749 0.41238 0.0
C835 C 0.77204 0.02406 0.38675 0.0
C836 C 0.19963 0.03084 0.90178 0.0
C837 C 0.25907 0.97884 0.8984 0.0
H838 H 0.11399 0.11227 0.89411 0.0
C839 C 0.26833 0.96223 0.88418 0.0
H840 H 0.19076 0.0454 0.91258 0.0
C841 C 0.22439 0.00091 0.87356 0.0
C842 C 0.17096 0.05787 0.87681 0.0
H843 H 0.31395 0.92304 0.8811 0.0
H844 H 0.23561 0.98822 0.86282 0.0
C845 C 0.15654 0.07023 0.89111 0.0
C846 C 0.67546 0.07685 0.87636 0.0
C847 C 0.66434 0.10985 0.88928 0.0
H848 H 0.72991 0.08514 0.85587 0.0
C849 C 0.68846 0.18353 0.89031 0.0
H850 H 0.65549 0.02093 0.87498 0.0
C851 C 0.73189 0.22015 0.87937 0.0
C852 C 0.74903 0.18459 0.86697 0.0
H853 H 0.67618 0.21234 0.8997 0.0
H854 H 0.75613 0.27462 0.88089 0.0
C855 C 0.7167 0.11419 0.86526 0.0
C856 C 0.56158 0.95696 0.63207 0.0
C857 C 0.51752 0.89028 0.63281 0.0
H858 H 0.66408 0.01633 0.62299 0.0
C859 C 0.53233 0.83872 0.62268 0.0
H860 H 0.55103 -0.00196 0.63969 0.0
C861 C 0.59611 0.8496 0.61304 0.0
C862 C 0.6472 0.91177 0.61348 0.0
H863 H 0.49822 0.78756 0.6228 0.0
H864 H 0.60943 0.80623 0.60602 0.0
C865 C 0.62627 0.96759 0.62247 0.0
C866 C 0.03199 0.87384 0.64744 0.0
C867 C 0.01569 0.82148 0.63751 0.0
H868 H 0.1115 0.9079 0.66367 0.0
C869 C 0.06016 0.75509 0.63822 0.0
H870 H 0.9978 0.92491 0.64734 0.0
C871 C 0.12628 0.7454 0.64758 0.0
C872 C 0.14841 0.80192 0.65635 0.0
H873 H 0.04869 0.71348 0.63073 0.0
H874 H 0.16398 0.69665 0.64706 0.0
C875 C 0.09734 0.86399 0.65681 0.0
C876 C 0.66454 0.87622 0.15579 0.0
C877 C 0.71733 0.81543 0.15511 0.0
H878 H 0.56447 0.93655 0.14635 0.0
C879 C 0.69761 0.75995 0.14595 0.0
H880 H 0.67692 0.91923 0.16294 0.0
C881 C 0.63215 0.76977 0.13645 0.0
C882 C 0.58611 0.83528 0.13599 0.0
H883 H 0.73681 0.71228 0.14523 0.0
H884 H 0.62248 0.72923 0.12868 0.0
C885 C 0.59998 0.88628 0.14627 0.0
C886 C 0.10039 0.85765 0.12165 0.0
C887 C 0.08557 0.90952 0.13172 0.0
H888 H 0.17822 0.82392 0.1052 0.0
C889 C 0.13081 0.97554 0.13108 0.0
H890 H 0.06549 0.80694 0.12171 0.0
C891 C 0.19642 0.98519 0.12163 0.0
C892 C 0.21711 0.92902 0.1127 0.0
H893 H 0.12039 0.01675 0.13869 0.0
H894 H 0.23491 0.03347 0.1222 0.0
C895 C 0.16512 0.86751 0.11218 0.0
C896 C 0.19504 0.66989 0.86543 0.0
C897 C 0.24228 0.73071 0.86911 0.0
H898 H 0.12134 0.57833 0.87264 0.0
C899 C 0.23896 0.7523 0.88306 0.0
H900 H 0.19619 0.65113 0.85481 0.0
C901 C 0.19483 0.71076 0.89329 0.0
C902 C 0.15561 0.64512 0.88998 0.0
H903 H 0.27462 0.79856 0.8863 0.0
H904 H 0.19395 0.72921 0.90383 0.0
C905 C 0.15307 0.62715 0.87576 0.0
C906 C 0.71875 0.59007 0.90424 0.0
C907 C 0.73833 0.51592 0.90242 0.0
H908 H 0.66552 0.68903 0.89507 0.0
C909 C 0.70602 0.48086 0.89093 0.0
H910 H 0.74395 0.61848 0.913 0.0
C911 C 0.65918 0.52089 0.88089 0.0
C912 C 0.64848 0.59732 0.88173 0.0
H913 H 0.7201 0.42367 0.88939 0.0
H914 H 0.63341 0.49233 0.87227 0.0
C915 C 0.67483 0.63075 0.89389 0.0
C916 C 0.1678 0.54051 0.37335 0.0
C917 C 0.15234 0.6139 0.37651 0.0
H918 H 0.23153 0.44041 0.37933 0.0
C919 C 0.17213 0.63652 0.38997 0.0
H920 H 0.14677 0.51947 0.36359 0.0
C921 C 0.21448 0.58916 0.39945 0.0
C922 C 0.23934 0.5192 0.39549 0.0
H923 H 0.15883 0.69193 0.39291 0.0
H924 H 0.23473 0.61017 0.40933 0.0
C925 C 0.21329 0.49416 0.38257 0.0
C926 C 0.66987 0.63254 0.3705 0.0
C927 C 0.65412 0.65582 0.38409 0.0
H928 H 0.72932 0.65588 0.35075 0.0
C929 C 0.67516 0.72827 0.38713 0.0
H930 H 0.65239 0.57798 0.36758 0.0
C931 C 0.72109 0.77265 0.37758 0.0
C932 C 0.74277 0.74671 0.36448 0.0
H933 H 0.6576 0.75039 0.39695 0.0
H934 H 0.74277 0.82571 0.38067 0.0
C935 C 0.71293 0.67786 0.36074 0.0
C936 C 0.60085 0.36255 0.12205 0.0
C937 C 0.58771 0.41352 0.13236 0.0
H938 H 0.67692 0.32925 0.10532 0.0
C939 C 0.63457 0.47862 0.13192 0.0
H940 H 0.56475 0.31256 0.12195 0.0
C941 C 0.69987 0.48811 0.12238 0.0
C942 C 0.71866 0.43269 0.11316 0.0
H943 H 0.62554 0.51908 0.13972 0.0
H944 H 0.73957 0.5355 0.12309 0.0
C945 C 0.66525 0.37224 0.1125 0.0
C946 C 0.19869 0.26227 0.14602 0.0
C947 C 0.21855 0.31823 0.15507 0.0
H948 H 0.12339 0.23066 0.12883 0.0
C949 C 0.166 0.37927 0.1556 0.0
H950 H 0.23767 0.21438 0.14543 0.0
C951 C 0.10141 0.38885 0.14608 0.0
C952 C 0.08726 0.3372 0.13592 0.0
H953 H 0.17845 0.42269 0.16266 0.0
H954 H 0.06599 0.43922 0.14606 0.0
C955 C 0.13322 0.27166 0.13651 0.0
C956 C 0.57023 0.24951 0.63612 0.0
C957 C 0.52257 0.31402 0.63595 0.0
H958 H 0.67608 0.1931 0.64472 0.0
C959 C 0.53466 0.36371 0.64653 0.0
H960 H 0.56192 0.21005 0.62811 0.0
C961 C 0.599 0.35361 0.65608 0.0
C962 C 0.65342 0.29416 0.65513 0.0
H963 H 0.49787 0.41317 0.64681 0.0
H964 H 0.60998 0.39578 0.66348 0.0
C965 C 0.63555 0.23969 0.64565 0.0
C966 C 0.1354 0.46919 0.6226 0.0
C967 C 0.15428 0.4139 0.61336 0.0
H968 H 0.06006 0.50028 0.63982 0.0
C969 C 0.10011 0.35415 0.61247 0.0
H970 H 0.17566 0.51608 0.62348 0.0
C971 C 0.03474 0.34488 0.62183 0.0
C972 C 0.0214 0.39557 0.63218 0.0
H973 H 0.11175 0.31134 0.60526 0.0
H974 H 0.99807 0.29527 0.62159 0.0
C975 C 0.06913 0.46012 0.63196 0.0
C976 C 0.27769 0.22901 0.52461 0.0
C977 C 0.22438 0.28772 0.52709 0.0
H978 H 0.3046 0.13968 0.51157 0.0
C979 C 0.14738 0.2902 0.52053 0.0
H980 H 0.33726 0.22498 0.52943 0.0
C981 C 0.12877 0.24098 0.5103 0.0
C982 C 0.18685 0.18866 0.50654 0.0
H983 H 0.10432 0.33384 0.52245 0.0
H984 H 0.07247 0.2486 0.50433 0.0
C985 C 0.25882 0.17936 0.51441 0.0
C986 C 0.05171 0.93242 0.50271 0.0
C987 C 0.04346 0.97603 0.51449 0.0
H988 H 0.04571 0.92802 0.48004 0.0
C989 C 0.0193 0.04987 0.51192 0.0
H990 H 0.06887 0.87504 0.50419 0.0
C991 C 0.00246 0.07882 0.49831 0.0
C992 C 0.01205 0.03645 0.48646 0.0
H993 H 0.01164 0.08588 0.52053 0.0
H994 H 0.98374 0.13592 0.4971 0.0
C995 C 0.03686 0.96245 0.48885 0.0
C996 C 0.37086 0.98807 0.7714 0.0
C997 C 0.30234 0.95709 0.76491 0.0
H998 H 0.41562 0.05225 0.78786 0.0
C999 C 0.22408 0.96772 0.77042 0.0
H1000 H 0.43235 0.9803 0.76744 0.0
C1001 C 0.21471 0.00974 0.7822 0.0
C1002 C 0.28361 0.04009 0.78872 0.0
H1003 H 0.17046 0.94515 0.76549 0.0
H1004 H 0.15361 0.01836 0.78613 0.0
C1005 C 0.36155 0.02937 0.78312 0.0
C1006 C 0.97215 0.15762 0.77259 0.0
C1007 C 1.00041 0.19557 0.78415 0.0
H1008 H 0.96794 0.14934 0.75039 0.0
C1009 C 0.04017 0.26373 0.78132 0.0
H1010 H 0.94142 0.10501 0.77425 0.0
C1011 C 0.05463 0.29074 0.76724 0.0
C1012 C 0.03121 0.24939 0.75573 0.0
H1013 H 0.06423 0.29396 0.78992 0.0
H1014 H 0.08648 0.3426 0.76539 0.0
C1015 C 0.98865 0.18295 0.75876 0.0
C1016 C 0.84552 0.72896 0.4844 0.0
C1017 C 0.77416 0.75745 0.47805 0.0
H1018 H 0.93036 0.73621 0.50137 0.0
C1019 C 0.73731 0.82068 0.48313 0.0
H1020 H 0.8755 0.68101 0.48051 0.0
C1021 C 0.76908 0.85284 0.49488 0.0
C1022 C 0.83724 0.82141 0.50177 0.0
H1023 H 0.68316 0.84481 0.47815 0.0
H1024 H 0.7382 0.89995 0.49893 0.0
C1025 C 0.87661 0.76051 0.49628 0.0
C1026 C 0.78866 0.90625 0.2688 0.0
C1027 C 0.86824 0.92609 0.26467 0.0
H1028 H 0.68559 0.93118 0.28147 0.0
C1029 C 0.90729 0.98556 0.2707 0.0
H1030 H 0.75725 0.86115 0.26411 0.0
C1031 C 0.86643 0.02627 0.28044 0.0
C1032 C 0.78569 0.00826 0.28428 0.0
H1033 H 0.96902 0.00164 0.26764 0.0
H1034 H 0.8981 0.07188 0.2849 0.0
C1035 C 0.74737 0.94738 0.27849 0.0
C1036 C 0.00503 0.68676 0.27243 0.0
C1037 C 0.01793 0.7311 0.28389 0.0
H1038 H 0.02392 0.66985 0.25075 0.0
C1039 C 0.056 0.80018 0.28118 0.0
H1040 H 0.97605 0.63331 0.27397 0.0
C1041 C 0.08309 0.82244 0.26744 0.0
C1042 C 0.0735 0.77573 0.25616 0.0
H1043 H 0.06807 0.83555 0.28975 0.0
H1044 H 0.11261 0.87548 0.26571 0.0
C1045 C 0.03355 0.70779 0.25899 0.0
C1046 C 0.40989 0.76562 0.99717 0.0
C1047 C 0.36987 0.82495 0.00308 0.0
H1048 H 0.40104 0.67741 0.98335 0.0
C1049 C 0.28983 0.84315 0.99911 0.0
H1050 H 0.47213 0.75093 1.00017 0.0
C1051 C 0.24877 0.80034 0.98973 0.0
C1052 C 0.28784 0.73945 0.98408 0.0
H1053 H 0.25779 0.88801 0.00375 0.0
H1054 H 0.18647 0.81545 0.98689 0.0
C1055 C 0.36906 0.72297 0.98775 0.0
C1056 C 0.9969 0.5591 0.99479 0.0
C1057 C 0.01349 0.51684 0.98317 0.0
H1058 H 0.0136 0.57523 0.01654 0.0
C1059 C 0.05527 0.44944 0.98574 0.0
H1060 H 0.96488 0.61116 0.99339 0.0
C1061 C 0.08234 0.42709 0.99951 0.0
C1062 C 0.06952 0.47231 0.01094 0.0
H1063 H 0.07033 0.41575 0.97706 0.0
H1064 H 0.11487 0.37547 1.00114 0.0
C1065 C 0.0259 0.53842 0.00822 0.0
C1066 C 0.24958 0.44169 0.27964 0.0
C1067 C 0.29183 0.49954 0.28578 0.0
H1068 H 0.25339 0.35822 0.26466 0.0
C1069 C 0.37394 0.51323 0.2823 0.0
H1070 H 0.18653 0.42869 0.28236 0.0
C1071 C 0.41193 0.47213 0.27233 0.0
C1072 C 0.36829 0.41693 0.26576 0.0
H1073 H 0.40838 0.55626 0.28708 0.0
H1074 H 0.47468 0.48516 0.26938 0.0
C1075 C 0.28789 0.40026 0.26974 0.0
C1076 C 0.86503 0.23338 0.98576 0.0
C1077 C 0.78601 0.25464 0.98146 0.0
H1078 H 0.96483 0.25171 0.99964 0.0
C1079 C 0.74874 0.3157 0.98733 0.0
H1080 H 0.89579 0.18747 0.98126 0.0
C1081 C 0.78886 0.35324 0.9977 0.0
C1082 C 0.86607 0.32949 0.00242 0.0
H1083 H 0.68836 0.33434 0.98401 0.0
H1084 H 0.75808 0.39847 0.00243 0.0
C1085 C 0.90464 0.27041 0.99619 0.0
C1086 C 0.73282 0.37951 0.78659 0.0
C1087 C 0.77053 0.44198 0.79186 0.0
H1088 H 0.73161 0.30279 0.77031 0.0
C1089 C 0.8421 0.47044 0.78557 0.0
H1090 H 0.67842 0.35544 0.79149 0.0
C1091 C 0.87205 0.44031 0.77352 0.0
C1092 C 0.83108 0.38114 0.76771 0.0
H1093 H 0.87288 0.51776 0.78958 0.0
H1094 H 0.92588 0.46481 0.76848 0.0
C1095 C 0.76334 0.3489 0.77459 0.0
C1096 C 0.54831 0.95776 0.98549 0.0
C1097 C 0.51268 0.02804 0.98286 0.0
H1098 H 0.60319 0.88024 1.00081 0.0
C1099 C 0.50357 0.07257 0.99441 0.0
H1100 H 0.55755 0.92196 0.9769 0.0
C1101 C 0.53219 0.05008 0.00783 0.0
C1102 C 0.56943 0.9808 0.01058 0.0
H1103 H 0.47678 0.12695 0.99299 0.0
H1104 H 0.52477 0.08799 0.01613 0.0
C1105 C 0.57601 0.93431 0.99919 0.0
C1106 C 0.55316 0.29816 0.28398 0.0
C1107 C 0.50986 0.23163 0.28685 0.0
H1108 H 0.61375 0.36992 0.26828 0.0
C1109 C 0.49172 0.18884 0.27535 0.0
H1110 H 0.56954 0.33236 0.29252 0.0
C1111 C 0.52005 0.20827 0.26177 0.0
C1112 C 0.56538 0.27332 0.25877 0.0
H1113 H 0.4586 0.13741 0.27695 0.0
H1114 H 0.506 0.17122 0.25356 0.0
C1115 C 0.57997 0.31904 0.27008 0.0
C1116 C 0.52572 0.63377 0.77713 0.0
C1117 C 0.51005 0.67654 0.78876 0.0
H1118 H 0.5403 0.63172 0.75474 0.0
C1119 C 0.51207 0.75375 0.78656 0.0
H1120 H 0.52704 0.57425 0.77834 0.0
C1121 C 0.52257 0.78678 0.77293 0.0
C1122 C 0.53112 0.74348 0.76117 0.0
H1123 H 0.50228 0.78872 0.79527 0.0
H1124 H 0.5152 0.84588 0.77141 0.0
C1125 C 0.53636 0.66675 0.76358 0.0
C1126 C 0.54898 0.51128 0.50066 0.0
C1127 C 0.51513 0.44115 0.5032 0.0
H1128 H 0.57115 0.60107 0.48587 0.0
C1129 C 0.48583 0.40324 0.49165 0.0
H1130 H 0.57029 0.54234 0.50937 0.0
C1131 C 0.48434 0.43768 0.47799 0.0
C1132 C 0.51101 0.5109 0.47578 0.0
H1133 H 0.45702 0.34984 0.49339 0.0
H1134 H 0.45788 0.40885 0.4694 0.0
C1135 C 0.54704 0.54562 0.48718 0.0
loop_
_geom_bond_atom_site_label_1
_geom_bond_atom_site_label_2
_geom_bond_distance
_geom_bond_site_symmetry_2
_ccdc_geom_bond_type
C0 O27 1.312 . S
C0 O28 1.208 1_655 S
C1 O22 1.331 . S
C1 O25 1.244 . S
C2 O24 1.264 . S
C2 O26 1.273 . S
Mg3 O5 1.936 . S
Mg3 O12 2.081 . S
Mg3 O14 2.023 1_545 S
Mg3 O18 2.031 . S
Mg3 O27 2.291 . S
Mg4 O5 1.963 1_455 S
Mg4 O15 1.942 1_455 S
Mg4 O16 1.955 1_445 S
Mg4 O23 1.986 . S
O5 Mg3 1.936 . S
O5 Mg4 1.963 1_655 S
O5 Mg6 1.915 1_655 S
Mg6 O5 1.915 1_455 S
Mg6 O7 1.915 . S
Mg6 O11 2.013 . S
Mg6 O17 2.114 . S
Mg6 O21 2.013 . S
Mg6 O27 2.114 1_455 S
O7 Mg6 1.915 . S
O7 Mg8 1.936 . S
O7 Mg9 1.963 . S
Mg8 O7 1.936 . S
Mg8 O17 2.291 . S
Mg8 O22 2.081 . S
Mg8 O24 2.023 . S
Mg8 O28 2.031 . S
Mg9 O7 1.963 . S
Mg9 O13 1.986 . S
Mg9 O25 1.942 . S
Mg9 O26 1.955 . S
C10 O21 1.191 . S
C10 O23 1.307 . S
O11 Mg6 2.013 . S
O11 C30 1.191 1_545 S
O12 Mg3 2.081 . S
O12 C20 1.331 . S
O13 Mg9 1.986 . S
O13 C30 1.307 1_545 S
O14 Mg3 2.023 1_565 S
O14 C29 1.264 . S
O15 Mg4 1.942 1_655 S
O15 C20 1.244 . S
O16 Mg4 1.955 1_665 S
O16 C29 1.273 . S
O17 Mg6 2.114 . S
O17 Mg8 2.291 . S
O17 C19 1.312 1_455 S
O18 Mg3 2.031 . S
O18 C19 1.208 . S
C19 O17 1.312 1_655 S
C19 O18 1.208 . S
C20 O12 1.331 . S
C20 O15 1.244 . S
O21 Mg6 2.013 . S
O21 C10 1.191 . S
O22 C1 1.331 . S
O22 Mg8 2.081 . S
O23 Mg4 1.986 . S
O23 C10 1.307 . S
O24 C2 1.264 . S
O24 Mg8 2.023 . S
O25 C1 1.244 . S
O25 Mg9 1.942 . S
O26 C2 1.273 . S
O26 Mg9 1.955 . S
O27 C0 1.312 . S
O27 Mg3 2.291 . S
O27 Mg6 2.114 1_655 S
O28 C0 1.208 1_455 S
O28 Mg8 2.031 . S
C29 O14 1.264 . S
C29 O16 1.273 . S
C30 O11 1.191 1_565 S
C30 O13 1.307 1_565 S
C31 O58 1.312 1_655 S
C31 O59 1.208 . S
C32 O53 1.331 . S
C32 O56 1.244 . S
C33 O55 1.264 . S
C33 O57 1.273 . S
Mg34 O36 1.936 . S
Mg34 O43 2.081 . S
Mg34 O45 2.023 1_545 S
Mg34 O49 2.031 . S
Mg34 O58 2.291 . S
Mg35 O36 1.963 . S
Mg35 O46 1.942 . S
Mg35 O47 1.955 . S
Mg35 O54 1.986 . S
O36 Mg34 1.936 . S
O36 Mg35 1.963 . S
O36 Mg37 1.915 . S
Mg37 O36 1.915 . S
Mg37 O38 1.915 1_455 S
Mg37 O42 2.013 . S
Mg37 O48 2.114 1_455 S
Mg37 O52 2.013 . S
Mg37 O58 2.114 . S
O38 Mg37 1.915 1_655 S
O38 Mg39 1.936 . S
O38 Mg40 1.963 1_655 S
Mg39 O38 1.936 . S
Mg39 O48 2.291 . S
Mg39 O53 2.081 . S
Mg39 O55 2.023 . S
Mg39 O59 2.031 . S
Mg40 O38 1.963 1_455 S
Mg40 O44 1.986 . S
Mg40 O56 1.942 1_455 S
Mg40 O57 1.955 1_455 S
C41 O52 1.191 . S
C41 O54 1.307 . S
O42 Mg37 2.013 . S
O42 C61 1.191 . S
O43 Mg34 2.081 . S
O43 C51 1.331 . S
O44 Mg40 1.986 . S
O44 C61 1.307 . S
O45 Mg34 2.023 1_565 S
O45 C60 1.264 . S
O46 Mg35 1.942 . S
O46 C51 1.244 . S
O47 Mg35 1.955 . S
O47 C60 1.273 1_545 S
O48 Mg37 2.114 1_655 S
O48 Mg39 2.291 . S
O48 C50 1.312 . S
O49 Mg34 2.031 . S
O49 C50 1.208 1_455 S
C50 O48 1.312 . S
C50 O49 1.208 1_655 S
C51 O43 1.331 . S
C51 O46 1.244 . S
O52 Mg37 2.013 . S
O52 C41 1.191 . S
O53 C32 1.331 . S
O53 Mg39 2.081 . S
O54 Mg35 1.986 . S
O54 C41 1.307 . S
O55 C33 1.264 . S
O55 Mg39 2.023 . S
O56 C32 1.244 . S
O56 Mg40 1.942 1_655 S
O57 C33 1.273 . S
O57 Mg40 1.955 1_655 S
O58 C31 1.312 1_455 S
O58 Mg34 2.291 . S
O58 Mg37 2.114 . S
O59 C31 1.208 . S
O59 Mg39 2.031 . S
C60 O45 1.264 . S
C60 O47 1.273 1_565 S
C61 O42 1.191 . S
C61 O44 1.307 . S
C62 O89 1.312 . S
C62 O90 1.208 . S
C63 O84 1.331 . S
C63 O87 1.244 . S
C64 O86 1.264 . S
C64 O88 1.273 . S
Mg65 O67 1.936 . S
Mg65 O74 2.081 . S
Mg65 O76 2.023 1_655 S
Mg65 O80 2.031 . S
Mg65 O89 2.291 1_655 S
Mg66 O67 1.963 . S
Mg66 O77 1.942 . S
Mg66 O78 1.955 . S
Mg66 O85 1.986 1_565 S
O67 Mg65 1.936 . S
O67 Mg66 1.963 . S
O67 Mg68 1.915 . S
Mg68 O67 1.915 . S
Mg68 O69 1.915 . S
Mg68 O73 2.013 1_655 S
Mg68 O79 2.114 . S
Mg68 O83 2.013 . S
Mg68 O89 2.114 1_655 S
O69 Mg68 1.915 . S
O69 Mg70 1.936 . S
O69 Mg71 1.963 . S
Mg70 O69 1.936 . S
Mg70 O79 2.291 . S
Mg70 O84 2.081 1_655 S
Mg70 O86 2.023 . S
Mg70 O90 2.031 1_655 S
Mg71 O69 1.963 . S
Mg71 O75 1.986 1_665 S
Mg71 O87 1.942 1_655 S
Mg71 O88 1.955 . S
C72 O83 1.191 . S
C72 O85 1.307 1_565 S
O73 Mg68 2.013 1_455 S
O73 C92 1.191 1_565 S
O74 Mg65 2.081 . S
O74 C82 1.331 . S
O75 Mg71 1.986 1_445 S
O75 C92 1.307 . S
O76 Mg65 2.023 1_455 S
O76 C91 1.264 . S
O77 Mg66 1.942 . S
O77 C82 1.244 . S
O78 Mg66 1.955 . S
O78 C91 1.273 1_655 S
O79 Mg68 2.114 . S
O79 Mg70 2.291 . S
O79 C81 1.312 . S
O80 Mg65 2.031 . S
O80 C81 1.208 . S
C81 O79 1.312 . S
C81 O80 1.208 . S
C82 O74 1.331 . S
C82 O77 1.244 . S
O83 Mg68 2.013 . S
O83 C72 1.191 . S
O84 C63 1.331 . S
O84 Mg70 2.081 1_455 S
O85 Mg66 1.986 1_545 S
O85 C72 1.307 1_545 S
O86 C64 1.264 . S
O86 Mg70 2.023 . S
O87 C63 1.244 . S
O87 Mg71 1.942 1_455 S
O88 C64 1.273 . S
O88 Mg71 1.955 . S
O89 C62 1.312 . S
O89 Mg65 2.291 1_455 S
O89 Mg68 2.114 1_455 S
O90 C62 1.208 . S
O90 Mg70 2.031 1_455 S
C91 O76 1.264 . S
C91 O78 1.273 1_455 S
C92 O73 1.191 1_545 S
C92 O75 1.307 . S
C93 O120 1.312 1_545 S
C93 O121 1.208 . S
C94 O115 1.331 . S
C94 O118 1.244 . S
C95 O117 1.264 . S
C95 O119 1.273 1_455 S
Mg96 O98 1.936 . S
Mg96 O105 2.081 1_655 S
Mg96 O107 2.023 . S
Mg96 O111 2.031 1_665 S
Mg96 O120 2.291 . S
Mg97 O98 1.963 . S
Mg97 O108 1.942 1_655 S
Mg97 O109 1.955 . S
Mg97 O116 1.986 1_655 S
O98 Mg96 1.936 . S
O98 Mg97 1.963 . S
O98 Mg99 1.915 . S
Mg99 O98 1.915 . S
Mg99 O100 1.915 . S
Mg99 O104 2.013 . S
Mg99 O110 2.114 1_655 S
Mg99 O114 2.013 1_655 S
Mg99 O120 2.114 . S
O100 Mg99 1.915 . S
O100 Mg101 1.936 . S
O100 Mg102 1.963 . S
Mg101 O100 1.936 . S
Mg101 O110 2.291 1_655 S
Mg101 O115 2.081 . S
Mg101 O117 2.023 1_655 S
Mg101 O121 2.031 1_565 S
Mg102 O100 1.963 . S
Mg102 O106 1.986 . S
Mg102 O118 1.942 . S
Mg102 O119 1.955 . S
C103 O114 1.191 . S
C103 O116 1.307 . S
O104 Mg99 2.013 . S
O104 C123 1.191 . S
O105 Mg96 2.081 1_455 S
O105 C113 1.331 . S
O106 Mg102 1.986 . S
O106 C123 1.307 . S
O107 Mg96 2.023 . S
O107 C122 1.264 . S
O108 Mg97 1.942 1_455 S
O108 C113 1.244 . S
O109 Mg97 1.955 . S
O109 C122 1.273 . S
O110 Mg99 2.114 1_455 S
O110 Mg101 2.291 1_455 S
O110 C112 1.312 . S
O111 Mg96 2.031 1_445 S
O111 C112 1.208 1_545 S
C112 O110 1.312 . S
C112 O111 1.208 1_565 S
C113 O105 1.331 . S
C113 O108 1.244 . S
O114 Mg99 2.013 1_455 S
O114 C103 1.191 . S
O115 C94 1.331 . S
O115 Mg101 2.081 . S
O116 Mg97 1.986 1_455 S
O116 C103 1.307 . S
O117 C95 1.264 . S
O117 Mg101 2.023 1_455 S
O118 C94 1.244 . S
O118 Mg102 1.942 . S
O119 C95 1.273 1_655 S
O119 Mg102 1.955 . S
O120 C93 1.312 1_565 S
O120 Mg96 2.291 . S
O120 Mg99 2.114 . S
O121 C93 1.208 . S
O121 Mg101 2.031 1_545 S
C122 O107 1.264 . S
C122 O109 1.273 . S
C123 O104 1.191 . S
C123 O106 1.307 . S
C124 O151 1.312 . S
C124 O152 1.208 1_655 S
C125 O146 1.331 . S
C125 O149 1.244 . S
C126 O148 1.264 . S
C126 O150 1.273 . S
Mg127 O129 1.936 . S
Mg127 O136 2.081 . S
Mg127 O138 2.023 . S
Mg127 O142 2.031 . S
Mg127 O151 2.291 . S
Mg128 O129 1.963 1_455 S
Mg128 O139 1.942 1_455 S
Mg128 O140 1.955 1_455 S
Mg128 O147 1.986 . S
O129 Mg127 1.936 . S
O129 Mg128 1.963 1_655 S
O129 Mg130 1.915 1_655 S
Mg130 O129 1.915 1_455 S
Mg130 O131 1.915 . S
Mg130 O135 2.013 . S
Mg130 O141 2.114 . S
Mg130 O145 2.013 . S
Mg130 O151 2.114 1_455 S
O131 Mg130 1.915 . S
O131 Mg132 1.936 . S
O131 Mg133 1.963 . S
Mg132 O131 1.936 . S
Mg132 O141 2.291 . S
Mg132 O146 2.081 . S
Mg132 O148 2.023 . S
Mg132 O152 2.031 . S
Mg133 O131 1.963 . S
Mg133 O137 1.986 . S
Mg133 O149 1.942 . S
Mg133 O150 1.955 . S
C134 O145 1.191 . S
C134 O147 1.307 . S
O135 Mg130 2.013 . S
O135 C154 1.191 . S
O136 Mg127 2.081 . S
O136 C144 1.331 . S
O137 Mg133 1.986 . S
O137 C154 1.307 . S
O138 Mg127 2.023 . S
O138 C153 1.264 . S
O139 Mg128 1.942 1_655 S
O139 C144 1.244 . S
O140 Mg128 1.955 1_655 S
O140 C153 1.273 . S
O141 Mg130 2.114 . S
O141 Mg132 2.291 . S
O141 C143 1.312 1_455 S
O142 Mg127 2.031 . S
O142 C143 1.208 . S
C143 O141 1.312 1_655 S
C143 O142 1.208 . S
C144 O136 1.331 . S
C144 O139 1.244 . S
O145 Mg130 2.013 . S
O145 C134 1.191 . S
O146 C125 1.331 . S
O146 Mg132 2.081 . S
O147 Mg128 1.986 . S
O147 C134 1.307 . S
O148 C126 1.264 . S
O148 Mg132 2.023 . S
O149 C125 1.244 . S
O149 Mg133 1.942 . S
O150 C126 1.273 . S
O150 Mg133 1.955 . S
O151 C124 1.312 . S
O151 Mg127 2.291 . S
O151 Mg130 2.114 1_655 S
O152 C124 1.208 1_455 S
O152 Mg132 2.031 . S
C153 O138 1.264 . S
C153 O140 1.273 . S
C154 O135 1.191 . S
C154 O137 1.307 . S
C155 O182 1.312 1_655 S
C155 O183 1.208 . S
C156 O177 1.331 . S
C156 O180 1.244 . S
C157 O179 1.264 . S
C157 O181 1.273 . S
Mg158 O160 1.936 . S
Mg158 O167 2.081 . S
Mg158 O169 2.023 . S
Mg158 O173 2.031 . S
Mg158 O182 2.291 . S
Mg159 O160 1.963 . S
Mg159 O170 1.942 . S
Mg159 O171 1.955 . S
Mg159 O178 1.986 . S
O160 Mg158 1.936 . S
O160 Mg159 1.963 . S
O160 Mg161 1.915 . S
Mg161 O160 1.915 . S
Mg161 O162 1.915 1_455 S
Mg161 O166 2.013 . S
Mg161 O172 2.114 1_455 S
Mg161 O176 2.013 . S
Mg161 O182 2.114 . S
O162 Mg161 1.915 1_655 S
O162 Mg163 1.936 . S
O162 Mg164 1.963 1_655 S
Mg163 O162 1.936 . S
Mg163 O172 2.291 . S
Mg163 O177 2.081 . S
Mg163 O179 2.023 . S
Mg163 O183 2.031 . S
Mg164 O162 1.963 1_455 S
Mg164 O168 1.986 . S
Mg164 O180 1.942 1_455 S
Mg164 O181 1.955 1_455 S
C165 O176 1.191 . S
C165 O178 1.307 . S
O166 Mg161 2.013 . S
O166 C185 1.191 . S
O167 Mg158 2.081 . S
O167 C175 1.331 . S
O168 Mg164 1.986 . S
O168 C185 1.307 . S
O169 Mg158 2.023 . S
O169 C184 1.264 . S
O170 Mg159 1.942 . S
O170 C175 1.244 . S
O171 Mg159 1.955 . S
O171 C184 1.273 . S
O172 Mg161 2.114 1_655 S
O172 Mg163 2.291 . S
O172 C174 1.312 . S
O173 Mg158 2.031 . S
O173 C174 1.208 1_455 S
C174 O172 1.312 . S
C174 O173 1.208 1_655 S
C175 O167 1.331 . S
C175 O170 1.244 . S
O176 Mg161 2.013 . S
O176 C165 1.191 . S
O177 C156 1.331 . S
O177 Mg163 2.081 . S
O178 Mg159 1.986 . S
O178 C165 1.307 . S
O179 C157 1.264 . S
O179 Mg163 2.023 . S
O180 C156 1.244 . S
O180 Mg164 1.942 1_655 S
O181 C157 1.273 . S
O181 Mg164 1.955 1_655 S
O182 C155 1.312 1_455 S
O182 Mg158 2.291 . S
O182 Mg161 2.114 . S
O183 C155 1.208 . S
O183 Mg163 2.031 . S
C184 O169 1.264 . S
C184 O171 1.273 . S
C185 O166 1.191 . S
C185 O168 1.307 . S
C186 O213 1.312 . S
C186 O214 1.208 . S
C187 O208 1.331 . S
C187 O211 1.244 . S
C188 O210 1.264 . S
C188 O212 1.273 . S
Mg189 O191 1.936 . S
Mg189 O198 2.081 . S
Mg189 O200 2.023 1_655 S
Mg189 O204 2.031 . S
Mg189 O213 2.291 1_655 S
Mg190 O191 1.963 . S
Mg190 O201 1.942 . S
Mg190 O202 1.955 . S
Mg190 O209 1.986 . S
O191 Mg189 1.936 . S
O191 Mg190 1.963 . S
O191 Mg192 1.915 . S
Mg192 O191 1.915 . S
Mg192 O193 1.915 . S
Mg192 O197 2.013 1_655 S
Mg192 O203 2.114 . S
Mg192 O207 2.013 . S
Mg192 O213 2.114 1_655 S
O193 Mg192 1.915 . S
O193 Mg194 1.936 . S
O193 Mg195 1.963 . S
Mg194 O193 1.936 . S
Mg194 O203 2.291 . S
Mg194 O208 2.081 1_655 S
Mg194 O210 2.023 . S
Mg194 O214 2.031 1_655 S
Mg195 O193 1.963 . S
Mg195 O199 1.986 1_655 S
Mg195 O211 1.942 1_655 S
Mg195 O212 1.955 . S
C196 O207 1.191 . S
C196 O209 1.307 . S
O197 Mg192 2.013 1_455 S
O197 C216 1.191 . S
O198 Mg189 2.081 . S
O198 C206 1.331 . S
O199 Mg195 1.986 1_455 S
O199 C216 1.307 . S
O200 Mg189 2.023 1_455 S
O200 C215 1.264 . S
O201 Mg190 1.942 . S
O201 C206 1.244 . S
O202 Mg190 1.955 . S
O202 C215 1.273 1_655 S
O203 Mg192 2.114 . S
O203 Mg194 2.291 . S
O203 C205 1.312 . S
O204 Mg189 2.031 . S
O204 C205 1.208 . S
C205 O203 1.312 . S
C205 O204 1.208 . S
C206 O198 1.331 . S
C206 O201 1.244 . S
O207 Mg192 2.013 . S
O207 C196 1.191 . S
O208 C187 1.331 . S
O208 Mg194 2.081 1_455 S
O209 Mg190 1.986 . S
O209 C196 1.307 . S
O210 C188 1.264 . S
O210 Mg194 2.023 . S
O211 C187 1.244 . S
O211 Mg195 1.942 1_455 S
O212 C188 1.273 . S
O212 Mg195 1.955 . S
O213 C186 1.312 . S
O213 Mg189 2.291 1_455 S
O213 Mg192 2.114 1_455 S
O214 C186 1.208 . S
O214 Mg194 2.031 1_455 S
C215 O200 1.264 . S
C215 O202 1.273 1_455 S
C216 O197 1.191 . S
C216 O199 1.307 . S
C217 O244 1.312 . S
C217 O245 1.208 . S
C218 O239 1.331 . S
C218 O242 1.244 . S
C219 O241 1.264 . S
C219 O243 1.273 . S
Mg220 O222 1.936 . S
Mg220 O229 2.081 . S
Mg220 O231 2.023 1_655 S
Mg220 O235 2.031 . S
Mg220 O244 2.291 1_655 S
Mg221 O222 1.963 . S
Mg221 O232 1.942 . S
Mg221 O233 1.955 . S
Mg221 O240 1.986 . S
O222 Mg220 1.936 . S
O222 Mg221 1.963 . S
O222 Mg223 1.915 . S
Mg223 O222 1.915 . S
Mg223 O224 1.915 . S
Mg223 O228 2.013 1_655 S
Mg223 O234 2.114 . S
Mg223 O238 2.013 . S
Mg223 O244 2.114 1_655 S
O224 Mg223 1.915 . S
O224 Mg225 1.936 . S
O224 Mg226 1.963 . S
Mg225 O224 1.936 . S
Mg225 O234 2.291 . S
Mg225 O239 2.081 1_655 S
Mg225 O241 2.023 . S
Mg225 O245 2.031 1_655 S
Mg226 O224 1.963 . S
Mg226 O230 1.986 1_655 S
Mg226 O242 1.942 1_655 S
Mg226 O243 1.955 . S
C227 O238 1.191 . S
C227 O240 1.307 . S
O228 Mg223 2.013 1_455 S
O228 C247 1.191 . S
O229 Mg220 2.081 . S
O229 C237 1.331 . S
O230 Mg226 1.986 1_455 S
O230 C247 1.307 . S
O231 Mg220 2.023 1_455 S
O231 C246 1.264 . S
O232 Mg221 1.942 . S
O232 C237 1.244 . S
O233 Mg221 1.955 . S
O233 C246 1.273 1_655 S
O234 Mg223 2.114 . S
O234 Mg225 2.291 . S
O234 C236 1.312 . S
O235 Mg220 2.031 . S
O235 C236 1.208 . S
C236 O234 1.312 . S
C236 O235 1.208 . S
C237 O229 1.331 . S
C237 O232 1.244 . S
O238 Mg223 2.013 . S
O238 C227 1.191 . S
O239 C218 1.331 . S
O239 Mg225 2.081 1_455 S
O240 Mg221 1.986 . S
O240 C227 1.307 . S
O241 C219 1.264 . S
O241 Mg225 2.023 . S
O242 C218 1.244 . S
O242 Mg226 1.942 1_455 S
O243 C219 1.273 . S
O243 Mg226 1.955 . S
O244 C217 1.312 . S
O244 Mg220 2.291 1_455 S
O244 Mg223 2.114 1_455 S
O245 C217 1.208 . S
O245 Mg225 2.031 1_455 S
C246 O231 1.264 . S
C246 O233 1.273 1_455 S
C247 O228 1.191 . S
C247 O230 1.307 . S
C248 O275 1.312 . S
C248 O276 1.208 . S
C249 O270 1.331 . S
C249 O273 1.244 . S
C250 O272 1.264 . S
C250 O274 1.273 . S
Mg251 O253 1.936 . S
Mg251 O260 2.081 . S
Mg251 O262 2.023 1_545 S
Mg251 O266 2.031 . S
Mg251 O275 2.291 . S
Mg252 O253 1.963 . S
Mg252 O263 1.942 . S
Mg252 O264 1.955 1_545 S
Mg252 O271 1.986 . S
O253 Mg251 1.936 . S
O253 Mg252 1.963 . S
O253 Mg254 1.915 . S
Mg254 O253 1.915 . S
Mg254 O255 1.915 . S
Mg254 O259 2.013 . S
Mg254 O265 2.114 . S
Mg254 O269 2.013 . S
Mg254 O275 2.114 . S
O255 Mg254 1.915 . S
O255 Mg256 1.936 . S
O255 Mg257 1.963 . S
Mg256 O255 1.936 . S
Mg256 O265 2.291 . S
Mg256 O270 2.081 . S
Mg256 O272 2.023 . S
Mg256 O276 2.031 . S
Mg257 O255 1.963 . S
Mg257 O261 1.986 . S
Mg257 O273 1.942 . S
Mg257 O274 1.955 . S
C258 O269 1.191 . S
C258 O271 1.307 . S
O259 Mg254 2.013 . S
O259 C278 1.191 1_545 S
O260 Mg251 2.081 . S
O260 C268 1.331 . S
O261 Mg257 1.986 . S
O261 C278 1.307 1_545 S
O262 Mg251 2.023 1_565 S
O262 C277 1.264 . S
O263 Mg252 1.942 . S
O263 C268 1.244 . S
O264 Mg252 1.955 1_565 S
O264 C277 1.273 . S
O265 Mg254 2.114 . S
O265 Mg256 2.291 . S
O265 C267 1.312 . S
O266 Mg251 2.031 . S
O266 C267 1.208 . S
C267 O265 1.312 . S
C267 O266 1.208 . S
C268 O260 1.331 . S
C268 O263 1.244 . S
O269 Mg254 2.013 . S
O269 C258 1.191 . S
O270 C249 1.331 . S
O270 Mg256 2.081 . S
O271 Mg252 1.986 . S
O271 C258 1.307 . S
O272 C250 1.264 . S
O272 Mg256 2.023 . S
O273 C249 1.244 . S
O273 Mg257 1.942 . S
O274 C250 1.273 . S
O274 Mg257 1.955 . S
O275 C248 1.312 . S
O275 Mg251 2.291 . S
O275 Mg254 2.114 . S
O276 C248 1.208 . S
O276 Mg256 2.031 . S
C277 O262 1.264 . S
C277 O264 1.273 . S
C278 O259 1.191 1_565 S
C278 O261 1.307 1_565 S
C279 O306 1.312 . S
C279 O307 1.208 . S
C280 O301 1.331 . S
C280 O304 1.244 . S
C281 O303 1.264 . S
C281 O305 1.273 1_565 S
Mg282 O284 1.936 . S
Mg282 O291 2.081 . S
Mg282 O293 2.023 . S
Mg282 O297 2.031 . S
Mg282 O306 2.291 . S
Mg283 O284 1.963 . S
Mg283 O294 1.942 . S
Mg283 O295 1.955 . S
Mg283 O302 1.986 . S
O284 Mg282 1.936 . S
O284 Mg283 1.963 . S
O284 Mg285 1.915 . S
Mg285 O284 1.915 . S
Mg285 O286 1.915 . S
Mg285 O290 2.013 . S
Mg285 O296 2.114 . S
Mg285 O300 2.013 . S
Mg285 O306 2.114 . S
O286 Mg285 1.915 . S
O286 Mg287 1.936 . S
O286 Mg288 1.963 . S
Mg287 O286 1.936 . S
Mg287 O296 2.291 . S
Mg287 O301 2.081 . S
Mg287 O303 2.023 1_545 S
Mg287 O307 2.031 . S
Mg288 O286 1.963 . S
Mg288 O292 1.986 . S
Mg288 O304 1.942 . S
Mg288 O305 1.955 . S
C289 O300 1.191 . S
C289 O302 1.307 . S
O290 Mg285 2.013 . S
O290 C309 1.191 . S
O291 Mg282 2.081 . S
O291 C299 1.331 . S
O292 Mg288 1.986 . S
O292 C309 1.307 . S
O293 Mg282 2.023 . S
O293 C308 1.264 . S
O294 Mg283 1.942 . S
O294 C299 1.244 . S
O295 Mg283 1.955 . S
O295 C308 1.273 . S
O296 Mg285 2.114 . S
O296 Mg287 2.291 . S
O296 C298 1.312 . S
O297 Mg282 2.031 . S
O297 C298 1.208 . S
C298 O296 1.312 . S
C298 O297 1.208 . S
C299 O291 1.331 . S
C299 O294 1.244 . S
O300 Mg285 2.013 . S
O300 C289 1.191 . S
O301 C280 1.331 . S
O301 Mg287 2.081 . S
O302 Mg283 1.986 . S
O302 C289 1.307 . S
O303 C281 1.264 . S
O303 Mg287 2.023 1_565 S
O304 C280 1.244 . S
O304 Mg288 1.942 . S
O305 C281 1.273 1_545 S
O305 Mg288 1.955 . S
O306 C279 1.312 . S
O306 Mg282 2.291 . S
O306 Mg285 2.114 . S
O307 C279 1.208 . S
O307 Mg287 2.031 . S
C308 O293 1.264 . S
C308 O295 1.273 . S
C309 O290 1.191 . S
C309 O292 1.307 . S
C310 O337 1.312 . S
C310 O338 1.208 . S
C311 O332 1.331 . S
C311 O335 1.244 . S
C312 O334 1.264 . S
C312 O336 1.273 . S
Mg313 O315 1.936 . S
Mg313 O322 2.081 . S
Mg313 O324 2.023 . S
Mg313 O328 2.031 . S
Mg313 O337 2.291 . S
Mg314 O315 1.963 . S
Mg314 O325 1.942 . S
Mg314 O326 1.955 . S
Mg314 O333 1.986 1_565 S
O315 Mg313 1.936 . S
O315 Mg314 1.963 . S
O315 Mg316 1.915 . S
Mg316 O315 1.915 . S
Mg316 O317 1.915 . S
Mg316 O321 2.013 . S
Mg316 O327 2.114 . S
Mg316 O331 2.013 . S
Mg316 O337 2.114 . S
O317 Mg316 1.915 . S
O317 Mg318 1.936 . S
O317 Mg319 1.963 . S
Mg318 O317 1.936 . S
Mg318 O327 2.291 . S
Mg318 O332 2.081 . S
Mg318 O334 2.023 . S
Mg318 O338 2.031 . S
Mg319 O317 1.963 . S
Mg319 O323 1.986 1_565 S
Mg319 O335 1.942 . S
Mg319 O336 1.955 . S
C320 O331 1.191 . S
C320 O333 1.307 1_565 S
O321 Mg316 2.013 . S
O321 C340 1.191 1_565 S
O322 Mg313 2.081 . S
O322 C330 1.331 . S
O323 Mg319 1.986 1_545 S
O323 C340 1.307 . S
O324 Mg313 2.023 . S
O324 C339 1.264 . S
O325 Mg314 1.942 . S
O325 C330 1.244 . S
O326 Mg314 1.955 . S
O326 C339 1.273 . S
O327 Mg316 2.114 . S
O327 Mg318 2.291 . S
O327 C329 1.312 . S
O328 Mg313 2.031 . S
O328 C329 1.208 . S
C329 O327 1.312 . S
C329 O328 1.208 . S
C330 O322 1.331 . S
C330 O325 1.244 . S
O331 Mg316 2.013 . S
O331 C320 1.191 . S
O332 C311 1.331 . S
O332 Mg318 2.081 . S
O333 Mg314 1.986 1_545 S
O333 C320 1.307 1_545 S
O334 C312 1.264 . S
O334 Mg318 2.023 . S
O335 C311 1.244 . S
O335 Mg319 1.942 . S
O336 C312 1.273 . S
O336 Mg319 1.955 . S
O337 C310 1.312 . S
O337 Mg313 2.291 . S
O337 Mg316 2.114 . S
O338 C310 1.208 . S
O338 Mg318 2.031 . S
C339 O324 1.264 . S
C339 O326 1.273 . S
C340 O321 1.191 1_545 S
C340 O323 1.307 . S
C341 O368 1.312 1_545 S
C341 O369 1.208 . S
C342 O363 1.331 . S
C342 O366 1.244 . S
C343 O365 1.264 . S
C343 O367 1.273 . S
Mg344 O346 1.936 . S
Mg344 O353 2.081 . S
Mg344 O355 2.023 . S
Mg344 O359 2.031 1_565 S
Mg344 O368 2.291 . S
Mg345 O346 1.963 . S
Mg345 O356 1.942 . S
Mg345 O357 1.955 . S
Mg345 O364 1.986 . S
O346 Mg344 1.936 . S
O346 Mg345 1.963 . S
O346 Mg347 1.915 . S
Mg347 O346 1.915 . S
Mg347 O348 1.915 . S
Mg347 O352 2.013 . S
Mg347 O358 2.114 . S
Mg347 O362 2.013 . S
Mg347 O368 2.114 . S
O348 Mg347 1.915 . S
O348 Mg349 1.936 . S
O348 Mg350 1.963 . S
Mg349 O348 1.936 . S
Mg349 O358 2.291 . S
Mg349 O363 2.081 . S
Mg349 O365 2.023 . S
Mg349 O369 2.031 1_565 S
Mg350 O348 1.963 . S
Mg350 O354 1.986 . S
Mg350 O366 1.942 . S
Mg350 O367 1.955 . S
C351 O362 1.191 . S
C351 O364 1.307 . S
O352 Mg347 2.013 . S
O352 C371 1.191 . S
O353 Mg344 2.081 . S
O353 C361 1.331 . S
O354 Mg350 1.986 . S
O354 C371 1.307 . S
O355 Mg344 2.023 . S
O355 C370 1.264 . S
O356 Mg345 1.942 . S
O356 C361 1.244 . S
O357 Mg345 1.955 . S
O357 C370 1.273 . S
O358 Mg347 2.114 . S
O358 Mg349 2.291 . S
O358 C360 1.312 . S
O359 Mg344 2.031 1_545 S
O359 C360 1.208 1_545 S
C360 O358 1.312 . S
C360 O359 1.208 1_565 S
C361 O353 1.331 . S
C361 O356 1.244 . S
O362 Mg347 2.013 . S
O362 C351 1.191 . S
O363 C342 1.331 . S
O363 Mg349 2.081 . S
O364 Mg345 1.986 . S
O364 C351 1.307 . S
O365 C343 1.264 . S
O365 Mg349 2.023 . S
O366 C342 1.244 . S
O366 Mg350 1.942 . S
O367 C343 1.273 . S
O367 Mg350 1.955 . S
O368 C341 1.312 1_565 S
O368 Mg344 2.291 . S
O368 Mg347 2.114 . S
O369 C341 1.208 . S
O369 Mg349 2.031 1_545 S
C370 O355 1.264 . S
C370 O357 1.273 . S
C371 O352 1.191 . S
C371 O354 1.307 . S
C372 O399 1.312 . S
C372 O400 1.208 . S
C373 O394 1.331 . S
C373 O397 1.244 . S
C374 O396 1.264 . S
C374 O398 1.273 . S
Mg375 O377 1.936 . S
Mg375 O384 2.081 . S
Mg375 O386 2.023 . S
Mg375 O390 2.031 . S
Mg375 O399 2.291 . S
Mg376 O377 1.963 . S
Mg376 O387 1.942 . S
Mg376 O388 1.955 . S
Mg376 O395 1.986 . S
O377 Mg375 1.936 . S
O377 Mg376 1.963 . S
O377 Mg378 1.915 . S
Mg378 O377 1.915 . S
Mg378 O379 1.915 . S
Mg378 O383 2.013 . S
Mg378 O389 2.114 . S
Mg378 O393 2.013 . S
Mg378 O399 2.114 . S
O379 Mg378 1.915 . S
O379 Mg380 1.936 . S
O379 Mg381 1.963 . S
Mg380 O379 1.936 . S
Mg380 O389 2.291 . S
Mg380 O394 2.081 . S
Mg380 O396 2.023 . S
Mg380 O400 2.031 . S
Mg381 O379 1.963 . S
Mg381 O385 1.986 . S
Mg381 O397 1.942 . S
Mg381 O398 1.955 . S
C382 O393 1.191 . S
C382 O395 1.307 . S
O383 Mg378 2.013 . S
O383 C402 1.191 . S
O384 Mg375 2.081 . S
O384 C392 1.331 . S
O385 Mg381 1.986 . S
O385 C402 1.307 . S
O386 Mg375 2.023 . S
O386 C401 1.264 . S
O387 Mg376 1.942 . S
O387 C392 1.244 . S
O388 Mg376 1.955 . S
O388 C401 1.273 . S
O389 Mg378 2.114 . S
O389 Mg380 2.291 . S
O389 C391 1.312 . S
O390 Mg375 2.031 . S
O390 C391 1.208 . S
C391 O389 1.312 . S
C391 O390 1.208 . S
C392 O384 1.331 . S
C392 O387 1.244 . S
O393 Mg378 2.013 . S
O393 C382 1.191 . S
O394 C373 1.331 . S
O394 Mg380 2.081 . S
O395 Mg376 1.986 . S
O395 C382 1.307 . S
O396 C374 1.264 . S
O396 Mg380 2.023 . S
O397 C373 1.244 . S
O397 Mg381 1.942 . S
O398 C374 1.273 . S
O398 Mg381 1.955 . S
O399 C372 1.312 . S
O399 Mg375 2.291 . S
O399 Mg378 2.114 . S
O400 C372 1.208 . S
O400 Mg380 2.031 . S
C401 O386 1.264 . S
C401 O388 1.273 . S
C402 O383 1.191 . S
C402 O385 1.307 . S
C403 O430 1.312 . S
C403 O431 1.208 . S
C404 O425 1.331 . S
C404 O428 1.244 . S
C405 O427 1.264 . S
C405 O429 1.273 . S
Mg406 O408 1.936 . S
Mg406 O415 2.081 . S
Mg406 O417 2.023 . S
Mg406 O421 2.031 . S
Mg406 O430 2.291 . S
Mg407 O408 1.963 . S
Mg407 O418 1.942 . S
Mg407 O419 1.955 . S
Mg407 O426 1.986 . S
O408 Mg406 1.936 . S
O408 Mg407 1.963 . S
O408 Mg409 1.915 . S
Mg409 O408 1.915 . S
Mg409 O410 1.915 . S
Mg409 O414 2.013 . S
Mg409 O420 2.114 . S
Mg409 O424 2.013 . S
Mg409 O430 2.114 . S
O410 Mg409 1.915 . S
O410 Mg411 1.936 . S
O410 Mg412 1.963 . S
Mg411 O410 1.936 . S
Mg411 O420 2.291 . S
Mg411 O425 2.081 . S
Mg411 O427 2.023 . S
Mg411 O431 2.031 . S
Mg412 O410 1.963 . S
Mg412 O416 1.986 . S
Mg412 O428 1.942 . S
Mg412 O429 1.955 . S
C413 O424 1.191 . S
C413 O426 1.307 . S
O414 Mg409 2.013 . S
O414 C433 1.191 . S
O415 Mg406 2.081 . S
O415 C423 1.331 . S
O416 Mg412 1.986 . S
O416 C433 1.307 . S
O417 Mg406 2.023 . S
O417 C432 1.264 . S
O418 Mg407 1.942 . S
O418 C423 1.244 . S
O419 Mg407 1.955 . S
O419 C432 1.273 . S
O420 Mg409 2.114 . S
O420 Mg411 2.291 . S
O420 C422 1.312 . S
O421 Mg406 2.031 . S
O421 C422 1.208 . S
C422 O420 1.312 . S
C422 O421 1.208 . S
C423 O415 1.331 . S
C423 O418 1.244 . S
O424 Mg409 2.013 . S
O424 C413 1.191 . S
O425 C404 1.331 . S
O425 Mg411 2.081 . S
O426 Mg407 1.986 . S
O426 C413 1.307 . S
O427 C405 1.264 . S
O427 Mg411 2.023 . S
O428 C404 1.244 . S
O428 Mg412 1.942 . S
O429 C405 1.273 . S
O429 Mg412 1.955 . S
O430 C403 1.312 . S
O430 Mg406 2.291 . S
O430 Mg409 2.114 . S
O431 C403 1.208 . S
O431 Mg411 2.031 . S
C432 O417 1.264 . S
C432 O419 1.273 . S
C433 O414 1.191 . S
C433 O416 1.307 . S
C434 O461 1.312 . S
C434 O462 1.208 . S
C435 O456 1.331 . S
C435 O459 1.244 . S
C436 O458 1.264 . S
C436 O460 1.273 . S
Mg437 O439 1.936 . S
Mg437 O446 2.081 . S
Mg437 O448 2.023 . S
Mg437 O452 2.031 . S
Mg437 O461 2.291 . S
Mg438 O439 1.963 . S
Mg438 O449 1.942 . S
Mg438 O450 1.955 . S
Mg438 O457 1.986 . S
O439 Mg437 1.936 . S
O439 Mg438 1.963 . S
O439 Mg440 1.915 . S
Mg440 O439 1.915 . S
Mg440 O441 1.915 . S
Mg440 O445 2.013 . S
Mg440 O451 2.114 . S
Mg440 O455 2.013 . S
Mg440 O461 2.114 . S
O441 Mg440 1.915 . S
O441 Mg442 1.936 . S
O441 Mg443 1.963 . S
Mg442 O441 1.936 . S
Mg442 O451 2.291 . S
Mg442 O456 2.081 . S
Mg442 O458 2.023 . S
Mg442 O462 2.031 . S
Mg443 O441 1.963 . S
Mg443 O447 1.986 . S
Mg443 O459 1.942 . S
Mg443 O460 1.955 . S
C444 O455 1.191 . S
C444 O457 1.307 . S
O445 Mg440 2.013 . S
O445 C464 1.191 . S
O446 Mg437 2.081 . S
O446 C454 1.331 . S
O447 Mg443 1.986 . S
O447 C464 1.307 . S
O448 Mg437 2.023 . S
O448 C463 1.264 . S
O449 Mg438 1.942 . S
O449 C454 1.244 . S
O450 Mg438 1.955 . S
O450 C463 1.273 . S
O451 Mg440 2.114 . S
O451 Mg442 2.291 . S
O451 C453 1.312 . S
O452 Mg437 2.031 . S
O452 C453 1.208 . S
C453 O451 1.312 . S
C453 O452 1.208 . S
C454 O446 1.331 . S
C454 O449 1.244 . S
O455 Mg440 2.013 . S
O455 C444 1.191 . S
O456 C435 1.331 . S
O456 Mg442 2.081 . S
O457 Mg438 1.986 . S
O457 C444 1.307 . S
O458 C436 1.264 . S
O458 Mg442 2.023 . S
O459 C435 1.244 . S
O459 Mg443 1.942 . S
O460 C436 1.273 . S
O460 Mg443 1.955 . S
O461 C434 1.312 . S
O461 Mg437 2.291 . S
O461 Mg440 2.114 . S
O462 C434 1.208 . S
O462 Mg442 2.031 . S
C463 O448 1.264 . S
C463 O450 1.273 . S
C464 O445 1.191 . S
C464 O447 1.307 . S
C465 O492 1.312 . S
C465 O493 1.208 . S
C466 O487 1.331 . S
C466 O490 1.244 . S
C467 O489 1.264 . S
C467 O491 1.273 . S
Mg468 O470 1.936 . S
Mg468 O477 2.081 . S
Mg468 O479 2.023 . S
Mg468 O483 2.031 . S
Mg468 O492 2.291 . S
Mg469 O470 1.963 . S
Mg469 O480 1.942 . S
Mg469 O481 1.955 . S
Mg469 O488 1.986 . S
O470 Mg468 1.936 . S
O470 Mg469 1.963 . S
O470 Mg471 1.915 . S
Mg471 O470 1.915 . S
Mg471 O472 1.915 . S
Mg471 O476 2.013 . S
Mg471 O482 2.114 . S
Mg471 O486 2.013 . S
Mg471 O492 2.114 . S
O472 Mg471 1.915 . S
O472 Mg473 1.936 . S
O472 Mg474 1.963 . S
Mg473 O472 1.936 . S
Mg473 O482 2.291 . S
Mg473 O487 2.081 . S
Mg473 O489 2.023 . S
Mg473 O493 2.031 . S
Mg474 O472 1.963 . S
Mg474 O478 1.986 . S
Mg474 O490 1.942 . S
Mg474 O491 1.955 . S
C475 O486 1.191 . S
C475 O488 1.307 . S
O476 Mg471 2.013 . S
O476 C495 1.191 . S
O477 Mg468 2.081 . S
O477 C485 1.331 . S
O478 Mg474 1.986 . S
O478 C495 1.307 . S
O479 Mg468 2.023 . S
O479 C494 1.264 . S
O480 Mg469 1.942 . S
O480 C485 1.244 . S
O481 Mg469 1.955 . S
O481 C494 1.273 . S
O482 Mg471 2.114 . S
O482 Mg473 2.291 . S
O482 C484 1.312 . S
O483 Mg468 2.031 . S
O483 C484 1.208 . S
C484 O482 1.312 . S
C484 O483 1.208 . S
C485 O477 1.331 . S
C485 O480 1.244 . S
O486 Mg471 2.013 . S
O486 C475 1.191 . S
O487 C466 1.331 . S
O487 Mg473 2.081 . S
O488 Mg469 1.986 . S
O488 C475 1.307 . S
O489 C467 1.264 . S
O489 Mg473 2.023 . S
O490 C466 1.244 . S
O490 Mg474 1.942 . S
O491 C467 1.273 . S
O491 Mg474 1.955 . S
O492 C465 1.312 . S
O492 Mg468 2.291 . S
O492 Mg471 2.114 . S
O493 C465 1.208 . S
O493 Mg473 2.031 . S
C494 O479 1.264 . S
C494 O481 1.273 . S
C495 O476 1.191 . S
C495 O478 1.307 . S
C496 C497 1.387 . S
C496 H500 0.950 . S
C496 C505 1.390 . S
C497 C496 1.387 . S
C497 C499 1.387 . S
H498 C505 0.950 . S
C499 C497 1.387 . S
C499 C501 1.390 . S
C499 H503 0.950 . S
H500 C496 0.950 . S
C501 C499 1.390 . S
C501 C502 1.387 . S
C501 H504 0.950 . S
C502 C501 1.387 . S
C502 C505 1.387 . S
H503 C499 0.950 . S
H504 C501 0.950 . S
C505 C496 1.390 . S
C505 H498 0.950 . S
C505 C502 1.387 . S
C506 C507 1.387 . S
C506 H510 0.950 . S
C506 C515 1.390 . S
C507 C506 1.387 . S
C507 C509 1.387 . S
H508 C515 0.950 . S
C509 C507 1.387 . S
C509 C511 1.390 . S
C509 H513 0.950 . S
H510 C506 0.950 . S
C511 C509 1.390 . S
C511 C512 1.387 . S
C511 H514 0.950 . S
C512 C511 1.387 . S
C512 C515 1.387 . S
H513 C509 0.950 . S
H514 C511 0.950 . S
C515 C506 1.390 . S
C515 H508 0.950 . S
C515 C512 1.387 . S
C516 C517 1.387 . S
C516 H520 0.950 . S
C516 C525 1.390 . S
C517 C516 1.387 . S
C517 C519 1.387 . S
H518 C525 0.950 . S
C519 C517 1.387 . S
C519 C521 1.390 . S
C519 H523 0.950 . S
H520 C516 0.950 . S
C521 C519 1.390 . S
C521 C522 1.387 . S
C521 H524 0.950 . S
C522 C521 1.387 . S
C522 C525 1.387 . S
H523 C519 0.950 . S
H524 C521 0.950 . S
C525 C516 1.390 . S
C525 H518 0.950 . S
C525 C522 1.387 . S
C526 C527 1.387 . S
C526 H530 0.950 . S
C526 C535 1.390 . S
C527 C526 1.387 . S
C527 C529 1.387 . S
H528 C535 0.950 . S
C529 C527 1.387 . S
C529 C531 1.390 . S
C529 H533 0.950 . S
H530 C526 0.950 . S
C531 C529 1.390 . S
C531 C532 1.387 . S
C531 H534 0.950 . S
C532 C531 1.387 . S
C532 C535 1.387 . S
H533 C529 0.950 . S
H534 C531 0.950 . S
C535 C526 1.390 . S
C535 H528 0.950 . S
C535 C532 1.387 . S
C536 C537 1.387 . S
C536 H540 0.950 . S
C536 C545 1.390 . S
C537 C536 1.387 . S
C537 C539 1.387 . S
H538 C545 0.950 . S
C539 C537 1.387 . S
C539 C541 1.390 . S
C539 H543 0.950 . S
H540 C536 0.950 . S
C541 C539 1.390 . S
C541 C542 1.387 . S
C541 H544 0.950 . S
C542 C541 1.387 . S
C542 C545 1.387 . S
H543 C539 0.950 . S
H544 C541 0.950 . S
C545 C536 1.390 . S
C545 H538 0.950 . S
C545 C542 1.387 . S
C546 C547 1.387 . S
C546 H550 0.950 . S
C546 C555 1.390 . S
C547 C546 1.387 . S
C547 C549 1.387 . S
H548 C555 0.950 . S
C549 C547 1.387 . S
C549 C551 1.390 . S
C549 H553 0.950 . S
H550 C546 0.950 . S
C551 C549 1.390 . S
C551 C552 1.387 . S
C551 H554 0.950 . S
C552 C551 1.387 . S
C552 C555 1.387 . S
H553 C549 0.950 . S
H554 C551 0.950 . S
C555 C546 1.390 . S
C555 H548 0.950 . S
C555 C552 1.387 . S
C556 C557 1.387 . S
C556 H560 0.950 . S
C556 C565 1.390 . S
C557 C556 1.387 . S
C557 C559 1.387 . S
H558 C565 0.950 . S
C559 C557 1.387 . S
C559 C561 1.390 . S
C559 H563 0.950 . S
H560 C556 0.950 . S
C561 C559 1.390 . S
C561 C562 1.387 . S
C561 H564 0.950 . S
C562 C561 1.387 . S
C562 C565 1.387 . S
H563 C559 0.950 . S
H564 C561 0.950 . S
C565 C556 1.390 . S
C565 H558 0.950 . S
C565 C562 1.387 . S
C566 C567 1.387 . S
C566 H570 0.950 . S
C566 C575 1.390 . S
C567 C566 1.387 . S
C567 C569 1.387 . S
H568 C575 0.950 . S
C569 C567 1.387 . S
C569 C571 1.390 . S
C569 H573 0.950 . S
H570 C566 0.950 . S
C571 C569 1.390 . S
C571 C572 1.387 . S
C571 H574 0.950 . S
C572 C571 1.387 . S
C572 C575 1.387 . S
H573 C569 0.950 . S
H574 C571 0.950 . S
C575 C566 1.390 . S
C575 H568 0.950 . S
C575 C572 1.387 . S
C576 C577 1.387 . S
C576 H580 0.950 . S
C576 C585 1.390 . S
C577 C576 1.387 . S
C577 C579 1.387 . S
H578 C585 0.950 . S
C579 C577 1.387 . S
C579 C581 1.390 . S
C579 H583 0.950 . S
H580 C576 0.950 . S
C581 C579 1.390 . S
C581 C582 1.387 . S
C581 H584 0.950 . S
C582 C581 1.387 . S
C582 C585 1.387 . S
H583 C579 0.950 . S
H584 C581 0.950 . S
C585 C576 1.390 . S
C585 H578 0.950 . S
C585 C582 1.387 . S
C586 C587 1.387 . S
C586 H590 0.950 . S
C586 C595 1.390 . S
C587 C586 1.387 . S
C587 C589 1.387 . S
H588 C595 0.950 . S
C589 C587 1.387 . S
C589 C591 1.390 . S
C589 H593 0.950 . S
H590 C586 0.950 . S
C591 C589 1.390 . S
C591 C592 1.387 . S
C591 H594 0.950 . S
C592 C591 1.387 . S
C592 C595 1.387 . S
H593 C589 0.950 . S
H594 C591 0.950 . S
C595 C586 1.390 . S
C595 H588 0.950 . S
C595 C592 1.387 . S
C596 C597 1.387 . S
C596 H600 0.950 . S
C596 C605 1.390 . S
C597 C596 1.387 . S
C597 C599 1.387 . S
H598 C605 0.950 . S
C599 C597 1.387 . S
C599 C601 1.390 . S
C599 H603 0.950 . S
H600 C596 0.950 . S
C601 C599 1.390 . S
C601 C602 1.387 . S
C601 H604 0.950 . S
C602 C601 1.387 . S
C602 C605 1.387 . S
H603 C599 0.950 . S
H604 C601 0.950 . S
C605 C596 1.390 . S
C605 H598 0.950 . S
C605 C602 1.387 . S
C606 C607 1.387 . S
C606 H610 0.950 . S
C606 C615 1.390 . S
C607 C606 1.387 . S
C607 C609 1.387 . S
H608 C615 0.950 . S
C609 C607 1.387 . S
C609 C611 1.390 . S
C609 H613 0.950 . S
H610 C606 0.950 . S
C611 C609 1.390 . S
C611 C612 1.387 . S
C611 H614 0.950 . S
C612 C611 1.387 . S
C612 C615 1.387 . S
H613 C609 0.950 . S
H614 C611 0.950 . S
C615 C606 1.390 . S
C615 H608 0.950 . S
C615 C612 1.387 . S
C616 C617 1.387 . S
C616 H620 0.950 . S
C616 C625 1.390 . S
C617 C616 1.387 . S
C617 C619 1.387 . S
H618 C625 0.950 . S
C619 C617 1.387 . S
C619 C621 1.390 . S
C619 H623 0.950 . S
H620 C616 0.950 . S
C621 C619 1.390 . S
C621 C622 1.387 . S
C621 H624 0.950 . S
C622 C621 1.387 . S
C622 C625 1.387 . S
H623 C619 0.950 . S
H624 C621 0.950 . S
C625 C616 1.390 . S
C625 H618 0.950 . S
C625 C622 1.387 . S
C626 C627 1.387 . S
C626 H630 0.950 . S
C626 C635 1.390 . S
C627 C626 1.387 . S
C627 C629 1.387 . S
H628 C635 0.950 . S
C629 C627 1.387 . S
C629 C631 1.390 . S
C629 H633 0.950 . S
H630 C626 0.950 . S
C631 C629 1.390 . S
C631 C632 1.387 . S
C631 H634 0.950 . S
C632 C631 1.387 . S
C632 C635 1.387 . S
H633 C629 0.950 . S
H634 C631 0.950 . S
C635 C626 1.390 . S
C635 H628 0.950 . S
C635 C632 1.387 . S
C636 C637 1.387 . S
C636 H640 0.950 . S
C636 C645 1.390 . S
C637 C636 1.387 . S
C637 C639 1.387 . S
H638 C645 0.950 . S
C639 C637 1.387 . S
C639 C641 1.390 . S
C639 H643 0.950 . S
H640 C636 0.950 . S
C641 C639 1.390 . S
C641 C642 1.387 . S
C641 H644 0.950 . S
C642 C641 1.387 . S
C642 C645 1.387 . S
H643 C639 0.950 . S
H644 C641 0.950 . S
C645 C636 1.390 . S
C645 H638 0.950 . S
C645 C642 1.387 . S
C646 C647 1.387 . S
C646 H650 0.950 . S
C646 C655 1.390 . S
C647 C646 1.387 . S
C647 C649 1.387 . S
H648 C655 0.950 . S
C649 C647 1.387 . S
C649 C651 1.390 . S
C649 H653 0.950 . S
H650 C646 0.950 . S
C651 C649 1.390 . S
C651 C652 1.387 . S
C651 H654 0.950 . S
C652 C651 1.387 . S
C652 C655 1.387 . S
H653 C649 0.950 . S
H654 C651 0.950 . S
C655 C646 1.390 . S
C655 H648 0.950 . S
C655 C652 1.387 . S
C656 C657 1.387 . S
C656 H660 0.950 . S
C656 C665 1.390 . S
C657 C656 1.387 . S
C657 C659 1.387 . S
H658 C665 0.950 . S
C659 C657 1.387 . S
C659 C661 1.390 . S
C659 H663 0.950 . S
H660 C656 0.950 . S
C661 C659 1.390 . S
C661 C662 1.387 . S
C661 H664 0.950 . S
C662 C661 1.387 . S
C662 C665 1.387 . S
H663 C659 0.950 . S
H664 C661 0.950 . S
C665 C656 1.390 . S
C665 H658 0.950 . S
C665 C662 1.387 . S
C666 C667 1.387 . S
C666 H670 0.950 . S
C666 C675 1.390 . S
C667 C666 1.387 . S
C667 C669 1.387 . S
H668 C675 0.950 . S
C669 C667 1.387 . S
C669 C671 1.390 . S
C669 H673 0.950 . S
H670 C666 0.950 . S
C671 C669 1.390 . S
C671 C672 1.387 . S
C671 H674 0.950 . S
C672 C671 1.387 . S
C672 C675 1.387 . S
H673 C669 0.950 . S
H674 C671 0.950 . S
C675 C666 1.390 . S
C675 H668 0.950 . S
C675 C672 1.387 . S
C676 C677 1.387 . S
C676 H680 0.950 . S
C676 C685 1.390 . S
C677 C676 1.387 . S
C677 C679 1.387 . S
H678 C685 0.950 . S
C679 C677 1.387 . S
C679 C681 1.390 . S
C679 H683 0.950 . S
H680 C676 0.950 . S
C681 C679 1.390 . S
C681 C682 1.387 . S
C681 H684 0.950 . S
C682 C681 1.387 . S
C682 C685 1.387 . S
H683 C679 0.950 . S
H684 C681 0.950 . S
C685 C676 1.390 . S
C685 H678 0.950 . S
C685 C682 1.387 . S
C686 C687 1.387 . S
C686 H690 0.950 . S
C686 C695 1.390 . S
C687 C686 1.387 . S
C687 C689 1.387 . S
H688 C695 0.950 . S
C689 C687 1.387 . S
C689 C691 1.390 . S
C689 H693 0.950 . S
H690 C686 0.950 . S
C691 C689 1.390 . S
C691 C692 1.387 . S
C691 H694 0.950 . S
C692 C691 1.387 . S
C692 C695 1.387 . S
H693 C689 0.950 . S
H694 C691 0.950 . S
C695 C686 1.390 . S
C695 H688 0.950 . S
C695 C692 1.387 . S
C696 C697 1.387 . S
C696 H700 0.950 . S
C696 C705 1.390 . S
C697 C696 1.387 . S
C697 C699 1.387 . S
H698 C705 0.950 . S
C699 C697 1.387 . S
C699 C701 1.390 . S
C699 H703 0.950 . S
H700 C696 0.950 . S
C701 C699 1.390 . S
C701 C702 1.387 . S
C701 H704 0.950 . S
C702 C701 1.387 . S
C702 C705 1.387 . S
H703 C699 0.950 . S
H704 C701 0.950 . S
C705 C696 1.390 . S
C705 H698 0.950 . S
C705 C702 1.387 . S
C706 C707 1.387 . S
C706 H710 0.950 . S
C706 C715 1.390 . S
C707 C706 1.387 . S
C707 C709 1.387 . S
H708 C715 0.950 . S
C709 C707 1.387 . S
C709 C711 1.390 . S
C709 H713 0.950 . S
H710 C706 0.950 . S
C711 C709 1.390 . S
C711 C712 1.387 . S
C711 H714 0.950 . S
C712 C711 1.387 . S
C712 C715 1.387 . S
H713 C709 0.950 . S
H714 C711 0.950 . S
C715 C706 1.390 . S
C715 H708 0.950 . S
C715 C712 1.387 . S
C716 C717 1.387 . S
C716 H720 0.950 . S
C716 C725 1.390 . S
C717 C716 1.387 . S
C717 C719 1.387 . S
H718 C725 0.950 . S
C719 C717 1.387 . S
C719 C721 1.390 . S
C719 H723 0.950 . S
H720 C716 0.950 . S
C721 C719 1.390 . S
C721 C722 1.387 . S
C721 H724 0.950 . S
C722 C721 1.387 . S
C722 C725 1.387 . S
H723 C719 0.950 . S
H724 C721 0.950 . S
C725 C716 1.390 . S
C725 H718 0.950 . S
C725 C722 1.387 . S
C726 C727 1.387 . S
C726 H730 0.950 . S
C726 C735 1.390 . S
C727 C726 1.387 . S
C727 C729 1.387 . S
H728 C735 0.950 . S
C729 C727 1.387 . S
C729 C731 1.390 . S
C729 H733 0.950 . S
H730 C726 0.950 . S
C731 C729 1.390 . S
C731 C732 1.387 . S
C731 H734 0.950 . S
C732 C731 1.387 . S
C732 C735 1.387 . S
H733 C729 0.950 . S
H734 C731 0.950 . S
C735 C726 1.390 . S
C735 H728 0.950 . S
C735 C732 1.387 . S
C736 C737 1.387 . S
C736 H740 0.950 . S
C736 C745 1.390 . S
C737 C736 1.387 . S
C737 C739 1.387 . S
H738 C745 0.950 . S
C739 C737 1.387 . S
C739 C741 1.390 . S
C739 H743 0.950 . S
H740 C736 0.950 . S
C741 C739 1.390 . S
C741 C742 1.387 . S
C741 H744 0.950 . S
C742 C741 1.387 . S
C742 C745 1.387 . S
H743 C739 0.950 . S
H744 C741 0.950 . S
C745 C736 1.390 . S
C745 H738 0.950 . S
C745 C742 1.387 . S
C746 C747 1.387 . S
C746 H750 0.950 . S
C746 C755 1.390 . S
C747 C746 1.387 . S
C747 C749 1.387 . S
H748 C755 0.950 . S
C749 C747 1.387 . S
C749 C751 1.390 . S
C749 H753 0.950 . S
H750 C746 0.950 . S
C751 C749 1.390 . S
C751 C752 1.387 . S
C751 H754 0.950 . S
C752 C751 1.387 . S
C752 C755 1.387 . S
H753 C749 0.950 . S
H754 C751 0.950 . S
C755 C746 1.390 . S
C755 H748 0.950 . S
C755 C752 1.387 . S
C756 C757 1.387 . S
C756 H760 0.950 . S
C756 C765 1.390 . S
C757 C756 1.387 . S
C757 C759 1.387 . S
H758 C765 0.950 . S
C759 C757 1.387 . S
C759 C761 1.390 . S
C759 H763 0.950 . S
H760 C756 0.950 . S
C761 C759 1.390 . S
C761 C762 1.387 . S
C761 H764 0.950 . S
C762 C761 1.387 . S
C762 C765 1.387 . S
H763 C759 0.950 . S
H764 C761 0.950 . S
C765 C756 1.390 . S
C765 H758 0.950 . S
C765 C762 1.387 . S
C766 C767 1.387 . S
C766 H770 0.950 . S
C766 C775 1.390 . S
C767 C766 1.387 . S
C767 C769 1.387 . S
H768 C775 0.950 . S
C769 C767 1.387 . S
C769 C771 1.390 . S
C769 H773 0.950 . S
H770 C766 0.950 . S
C771 C769 1.390 . S
C771 C772 1.387 . S
C771 H774 0.950 . S
C772 C771 1.387 . S
C772 C775 1.387 . S
H773 C769 0.950 . S
H774 C771 0.950 . S
C775 C766 1.390 . S
C775 H768 0.950 . S
C775 C772 1.387 . S
C776 C777 1.387 . S
C776 H780 0.950 . S
C776 C785 1.390 . S
C777 C776 1.387 . S
C777 C779 1.387 . S
H778 C785 0.950 . S
C779 C777 1.387 . S
C779 C781 1.390 . S
C779 H783 0.950 . S
H780 C776 0.950 . S
C781 C779 1.390 . S
C781 C782 1.387 . S
C781 H784 0.950 . S
C782 C781 1.387 . S
C782 C785 1.387 . S
H783 C779 0.950 . S
H784 C781 0.950 . S
C785 C776 1.390 . S
C785 H778 0.950 . S
C785 C782 1.387 . S
C786 C787 1.387 . S
C786 H790 0.950 . S
C786 C795 1.390 . S
C787 C786 1.387 . S
C787 C789 1.387 . S
H788 C795 0.950 . S
C789 C787 1.387 . S
C789 C791 1.390 . S
C789 H793 0.950 . S
H790 C786 0.950 . S
C791 C789 1.390 . S
C791 C792 1.387 . S
C791 H794 0.950 . S
C792 C791 1.387 . S
C792 C795 1.387 . S
H793 C789 0.950 . S
H794 C791 0.950 . S
C795 C786 1.390 . S
C795 H788 0.950 . S
C795 C792 1.387 . S
C796 C797 1.387 . S
C796 H800 0.950 . S
C796 C805 1.390 . S
C797 C796 1.387 . S
C797 C799 1.387 . S
H798 C805 0.950 . S
C799 C797 1.387 . S
C799 C801 1.390 . S
C799 H803 0.950 . S
H800 C796 0.950 . S
C801 C799 1.390 . S
C801 C802 1.387 . S
C801 H804 0.950 . S
C802 C801 1.387 . S
C802 C805 1.387 . S
H803 C799 0.950 . S
H804 C801 0.950 . S
C805 C796 1.390 . S
C805 H798 0.950 . S
C805 C802 1.387 . S
C806 C807 1.387 . S
C806 H810 0.950 . S
C806 C815 1.390 . S
C807 C806 1.387 . S
C807 C809 1.387 . S
H808 C815 0.950 . S
C809 C807 1.387 . S
C809 C811 1.390 . S
C809 H813 0.950 . S
H810 C806 0.950 . S
C811 C809 1.390 . S
C811 C812 1.387 . S
C811 H814 0.950 . S
C812 C811 1.387 . S
C812 C815 1.387 . S
H813 C809 0.950 . S
H814 C811 0.950 . S
C815 C806 1.390 . S
C815 H808 0.950 . S
C815 C812 1.387 . S
C816 C817 1.387 . S
C816 H820 0.950 . S
C816 C825 1.390 . S
C817 C816 1.387 . S
C817 C819 1.387 . S
H818 C825 0.950 . S
C819 C817 1.387 . S
C819 C821 1.390 . S
C819 H823 0.950 . S
H820 C816 0.950 . S
C821 C819 1.390 . S
C821 C822 1.387 . S
C821 H824 0.950 . S
C822 C821 1.387 . S
C822 C825 1.387 . S
H823 C819 0.950 . S
H824 C821 0.950 . S
C825 C816 1.390 . S
C825 H818 0.950 . S
C825 C822 1.387 . S
C826 C827 1.387 . S
C826 H830 0.950 1_545 S
C826 C835 1.390 . S
C827 C826 1.387 . S
C827 C829 1.387 . S
H828 C835 0.950 1_565 S
C829 C827 1.387 . S
C829 C831 1.390 . S
C829 H833 0.950 . S
H830 C826 0.950 1_565 S
C831 C829 1.390 . S
C831 C832 1.387 . S
C831 H834 0.950 . S
C832 C831 1.387 . S
C832 C835 1.387 . S
H833 C829 0.950 . S
H834 C831 0.950 . S
C835 C826 1.390 . S
C835 H828 0.950 1_545 S
C835 C832 1.387 . S
C836 C837 1.387 . S
C836 H840 0.950 . S
C836 C845 1.390 . S
C837 C836 1.387 . S
C837 C839 1.387 . S
H838 C845 0.950 . S
C839 C837 1.387 . S
C839 C841 1.390 . S
C839 H843 0.950 1_545 S
H840 C836 0.950 . S
C841 C839 1.390 . S
C841 C842 1.387 . S
C841 H844 0.950 1_545 S
C842 C841 1.387 . S
C842 C845 1.387 . S
H843 C839 0.950 1_565 S
H844 C841 0.950 1_565 S
C845 C836 1.390 . S
C845 H838 0.950 . S
C845 C842 1.387 . S
C846 C847 1.387 . S
C846 H850 0.950 . S
C846 C855 1.390 . S
C847 C846 1.387 . S
C847 C849 1.387 . S
H848 C855 0.950 . S
C849 C847 1.387 . S
C849 C851 1.390 . S
C849 H853 0.950 . S
H850 C846 0.950 . S
C851 C849 1.390 . S
C851 C852 1.387 . S
C851 H854 0.950 . S
C852 C851 1.387 . S
C852 C855 1.387 . S
H853 C849 0.950 . S
H854 C851 0.950 . S
C855 C846 1.390 . S
C855 H848 0.950 . S
C855 C852 1.387 . S
C856 C857 1.387 . S
C856 H860 0.950 . S
C856 C865 1.390 . S
C857 C856 1.387 . S
C857 C859 1.387 . S
H858 C865 0.950 . S
C859 C857 1.387 . S
C859 C861 1.390 . S
C859 H863 0.950 . S
H860 C856 0.950 . S
C861 C859 1.390 . S
C861 C862 1.387 . S
C861 H864 0.950 . S
C862 C861 1.387 . S
C862 C865 1.387 . S
H863 C859 0.950 . S
H864 C861 0.950 . S
C865 C856 1.390 . S
C865 H858 0.950 . S
C865 C862 1.387 . S
C866 C867 1.387 . S
C866 H870 0.950 . S
C866 C875 1.390 . S
C867 C866 1.387 . S
C867 C869 1.387 . S
H868 C875 0.950 . S
C869 C867 1.387 . S
C869 C871 1.390 . S
C869 H873 0.950 . S
H870 C866 0.950 . S
C871 C869 1.390 . S
C871 C872 1.387 . S
C871 H874 0.950 . S
C872 C871 1.387 . S
C872 C875 1.387 . S
H873 C869 0.950 . S
H874 C871 0.950 . S
C875 C866 1.390 . S
C875 H868 0.950 . S
C875 C872 1.387 . S
C876 C877 1.387 . S
C876 H880 0.950 . S
C876 C885 1.390 . S
C877 C876 1.387 . S
C877 C879 1.387 . S
H878 C885 0.950 . S
C879 C877 1.387 . S
C879 C881 1.390 . S
C879 H883 0.950 . S
H880 C876 0.950 . S
C881 C879 1.390 . S
C881 C882 1.387 . S
C881 H884 0.950 . S
C882 C881 1.387 . S
C882 C885 1.387 . S
H883 C879 0.950 . S
H884 C881 0.950 . S
C885 C876 1.390 . S
C885 H878 0.950 . S
C885 C882 1.387 . S
C886 C887 1.387 . S
C886 H890 0.950 . S
C886 C895 1.390 . S
C887 C886 1.387 . S
C887 C889 1.387 . S
H888 C895 0.950 . S
C889 C887 1.387 . S
C889 C891 1.390 . S
C889 H893 0.950 . S
H890 C886 0.950 . S
C891 C889 1.390 . S
C891 C892 1.387 . S
C891 H894 0.950 . S
C892 C891 1.387 . S
C892 C895 1.387 . S
H893 C889 0.950 . S
H894 C891 0.950 . S
C895 C886 1.390 . S
C895 H888 0.950 . S
C895 C892 1.387 . S
C896 C897 1.387 . S
C896 H900 0.950 . S
C896 C905 1.390 . S
C897 C896 1.387 . S
C897 C899 1.387 . S
H898 C905 0.950 . S
C899 C897 1.387 . S
C899 C901 1.390 . S
C899 H903 0.950 . S
H900 C896 0.950 . S
C901 C899 1.390 . S
C901 C902 1.387 . S
C901 H904 0.950 . S
C902 C901 1.387 . S
C902 C905 1.387 . S
H903 C899 0.950 . S
H904 C901 0.950 . S
C905 C896 1.390 . S
C905 H898 0.950 . S
C905 C902 1.387 . S
C906 C907 1.387 . S
C906 H910 0.950 . S
C906 C915 1.390 . S
C907 C906 1.387 . S
C907 C909 1.387 . S
H908 C915 0.950 . S
C909 C907 1.387 . S
C909 C911 1.390 . S
C909 H913 0.950 . S
H910 C906 0.950 . S
C911 C909 1.390 . S
C911 C912 1.387 . S
C911 H914 0.950 . S
C912 C911 1.387 . S
C912 C915 1.387 . S
H913 C909 0.950 . S
H914 C911 0.950 . S
C915 C906 1.390 . S
C915 H908 0.950 . S
C915 C912 1.387 . S
C916 C917 1.387 . S
C916 H920 0.950 . S
C916 C925 1.390 . S
C917 C916 1.387 . S
C917 C919 1.387 . S
H918 C925 0.950 . S
C919 C917 1.387 . S
C919 C921 1.390 . S
C919 H923 0.950 . S
H920 C916 0.950 . S
C921 C919 1.390 . S
C921 C922 1.387 . S
C921 H924 0.950 . S
C922 C921 1.387 . S
C922 C925 1.387 . S
H923 C919 0.950 . S
H924 C921 0.950 . S
C925 C916 1.390 . S
C925 H918 0.950 . S
C925 C922 1.387 . S
C926 C927 1.387 . S
C926 H930 0.950 . S
C926 C935 1.390 . S
C927 C926 1.387 . S
C927 C929 1.387 . S
H928 C935 0.950 . S
C929 C927 1.387 . S
C929 C931 1.390 . S
C929 H933 0.950 . S
H930 C926 0.950 . S
C931 C929 1.390 . S
C931 C932 1.387 . S
C931 H934 0.950 . S
C932 C931 1.387 . S
C932 C935 1.387 . S
H933 C929 0.950 . S
H934 C931 0.950 . S
C935 C926 1.390 . S
C935 H928 0.950 . S
C935 C932 1.387 . S
C936 C937 1.387 . S
C936 H940 0.950 . S
C936 C945 1.390 . S
C937 C936 1.387 . S
C937 C939 1.387 . S
H938 C945 0.950 . S
C939 C937 1.387 . S
C939 C941 1.390 . S
C939 H943 0.950 . S
H940 C936 0.950 . S
C941 C939 1.390 . S
C941 C942 1.387 . S
C941 H944 0.950 . S
C942 C941 1.387 . S
C942 C945 1.387 . S
H943 C939 0.950 . S
H944 C941 0.950 . S
C945 C936 1.390 . S
C945 H938 0.950 . S
C945 C942 1.387 . S
C946 C947 1.387 . S
C946 H950 0.950 . S
C946 C955 1.390 . S
C947 C946 1.387 . S
C947 C949 1.387 . S
H948 C955 0.950 . S
C949 C947 1.387 . S
C949 C951 1.390 . S
C949 H953 0.950 . S
H950 C946 0.950 . S
C951 C949 1.390 . S
C951 C952 1.387 . S
C951 H954 0.950 . S
C952 C951 1.387 . S
C952 C955 1.387 . S
H953 C949 0.950 . S
H954 C951 0.950 . S
C955 C946 1.390 . S
C955 H948 0.950 . S
C955 C952 1.387 . S
C956 C957 1.387 . S
C956 H960 0.950 . S
C956 C965 1.390 . S
C957 C956 1.387 . S
C957 C959 1.387 . S
H958 C965 0.950 . S
C959 C957 1.387 . S
C959 C961 1.390 . S
C959 H963 0.950 . S
H960 C956 0.950 . S
C961 C959 1.390 . S
C961 C962 1.387 . S
C961 H964 0.950 . S
C962 C961 1.387 . S
C962 C965 1.387 . S
H963 C959 0.950 . S
H964 C961 0.950 . S
C965 C956 1.390 . S
C965 H958 0.950 . S
C965 C962 1.387 . S
C966 C967 1.387 . S
C966 H970 0.950 . S
C966 C975 1.390 . S
C967 C966 1.387 . S
C967 C969 1.387 . S
H968 C975 0.950 . S
C969 C967 1.387 . S
C969 C971 1.390 . S
C969 H973 0.950 . S
H970 C966 0.950 . S
C971 C969 1.390 . S
C971 C972 1.387 . S
C971 H974 0.950 . S
C972 C971 1.387 . S
C972 C975 1.387 . S
H973 C969 0.950 . S
H974 C971 0.950 . S
C975 C966 1.390 . S
C975 H968 0.950 . S
C975 C972 1.387 . S
C976 C977 1.387 . S
C976 H980 0.950 . S
C976 C985 1.390 . S
C977 C976 1.387 . S
C977 C979 1.387 . S
H978 C985 0.950 . S
C979 C977 1.387 . S
C979 C981 1.390 . S
C979 H983 0.950 . S
H980 C976 0.950 . S
C981 C979 1.390 . S
C981 C982 1.387 . S
C981 H984 0.950 . S
C982 C981 1.387 . S
C982 C985 1.387 . S
H983 C979 0.950 . S
H984 C981 0.950 . S
C985 C976 1.390 . S
C985 H978 0.950 . S
C985 C982 1.387 . S
C986 C987 1.387 . S
C986 H990 0.950 . S
C986 C995 1.390 . S
C987 C986 1.387 . S
C987 C989 1.387 1_565 S
H988 C995 0.950 . S
C989 C987 1.387 1_545 S
C989 C991 1.390 1_455 S
C989 H993 0.950 . S
H990 C986 0.950 . S
C991 C989 1.390 1_655 S
C991 C992 1.387 . S
C991 H994 0.950 . S
C992 C991 1.387 . S
C992 C995 1.387 1_645 S
H993 C989 0.950 . S
H994 C991 0.950 . S
C995 C986 1.390 . S
C995 H988 0.950 . S
C995 C992 1.387 1_465 S
C996 C997 1.387 1_545 S
C996 H1000 0.950 . S
C996 C1005 1.390 . S
C997 C996 1.387 1_565 S
C997 C999 1.387 . S
H998 C1005 0.950 . S
C999 C997 1.387 . S
C999 C1001 1.390 . S
C999 H1003 0.950 . S
H1000 C996 0.950 . S
C1001 C999 1.390 . S
C1001 C1002 1.387 1_565 S
C1001 H1004 0.950 . S
C1002 C1001 1.387 1_545 S
C1002 C1005 1.387 . S
H1003 C999 0.950 . S
H1004 C1001 0.950 . S
C1005 C996 1.390 . S
C1005 H998 0.950 . S
C1005 C1002 1.387 . S
C1006 C1007 1.387 . S
C1006 H1010 0.950 . S
C1006 C1015 1.390 . S
C1007 C1006 1.387 . S
C1007 C1009 1.387 1_655 S
H1008 C1015 0.950 . S
C1009 C1007 1.387 1_455 S
C1009 C1011 1.390 . S
C1009 H1013 0.950 . S
H1010 C1006 0.950 . S
C1011 C1009 1.390 . S
C1011 C1012 1.387 . S
C1011 H1014 0.950 . S
C1012 C1011 1.387 . S
C1012 C1015 1.387 1_455 S
H1013 C1009 0.950 . S
H1014 C1011 0.950 . S
C1015 C1006 1.390 . S
C1015 H1008 0.950 . S
C1015 C1012 1.387 1_655 S
C1016 C1017 1.387 . S
C1016 H1020 0.950 . S
C1016 C1025 1.390 . S
C1017 C1016 1.387 . S
C1017 C1019 1.387 . S
H1018 C1025 0.950 . S
C1019 C1017 1.387 . S
C1019 C1021 1.390 . S
C1019 H1023 0.950 . S
H1020 C1016 0.950 . S
C1021 C1019 1.390 . S
C1021 C1022 1.387 . S
C1021 H1024 0.950 . S
C1022 C1021 1.387 . S
C1022 C1025 1.387 . S
H1023 C1019 0.950 . S
H1024 C1021 0.950 . S
C1025 C1016 1.390 . S
C1025 H1018 0.950 . S
C1025 C1022 1.387 . S
C1026 C1027 1.387 1_545 S
C1026 H1030 0.950 . S
C1026 C1035 1.390 . S
C1027 C1026 1.387 1_565 S
C1027 C1029 1.387 . S
H1028 C1035 0.950 . S
C1029 C1027 1.387 . S
C1029 C1031 1.390 . S
C1029 H1033 0.950 . S
H1030 C1026 0.950 . S
C1031 C1029 1.390 . S
C1031 C1032 1.387 1_565 S
C1031 H1034 0.950 . S
C1032 C1031 1.387 1_545 S
C1032 C1035 1.387 . S
H1033 C1029 0.950 . S
H1034 C1031 0.950 . S
C1035 C1026 1.390 . S
C1035 H1028 0.950 . S
C1035 C1032 1.387 . S
C1036 C1037 1.387 1_455 S
C1036 H1040 0.950 . S
C1036 C1045 1.390 . S
C1037 C1036 1.387 1_655 S
C1037 C1039 1.387 1_655 S
H1038 C1045 0.950 . S
C1039 C1037 1.387 1_455 S
C1039 C1041 1.390 . S
C1039 H1043 0.950 1_455 S
H1040 C1036 0.950 . S
C1041 C1039 1.390 . S
C1041 C1042 1.387 . S
C1041 H1044 0.950 . S
C1042 C1041 1.387 . S
C1042 C1045 1.387 . S
H1043 C1039 0.950 1_655 S
H1044 C1041 0.950 . S
C1045 C1036 1.390 . S
C1045 H1038 0.950 . S
C1045 C1042 1.387 . S
C1046 C1047 1.387 . S
C1046 H1050 0.950 . S
C1046 C1055 1.390 1_554 S
C1047 C1046 1.387 . S
C1047 C1049 1.387 . S
H1048 C1055 0.950 . S
C1049 C1047 1.387 . S
C1049 C1051 1.390 1_554 S
C1049 H1053 0.950 . S
H1050 C1046 0.950 . S
C1051 C1049 1.390 1_556 S
C1051 C1052 1.387 . S
C1051 H1054 0.950 . S
C1052 C1051 1.387 . S
C1052 C1055 1.387 . S
H1053 C1049 0.950 . S
H1054 C1051 0.950 . S
C1055 C1046 1.390 1_556 S
C1055 H1048 0.950 . S
C1055 C1052 1.387 . S
C1056 C1057 1.387 . S
C1056 H1060 0.950 . S
C1056 C1065 1.390 1_556 S
C1057 C1056 1.387 . S
C1057 C1059 1.387 1_655 S
H1058 C1065 0.950 . S
C1059 C1057 1.387 1_455 S
C1059 C1061 1.390 . S
C1059 H1063 0.950 . S
H1060 C1056 0.950 . S
C1061 C1059 1.390 . S
C1061 C1062 1.387 1_556 S
C1061 H1064 0.950 . S
C1062 C1061 1.387 1_554 S
C1062 C1065 1.387 1_455 S
H1063 C1059 0.950 . S
H1064 C1061 0.950 . S
C1065 C1056 1.390 1_554 S
C1065 H1058 0.950 . S
C1065 C1062 1.387 1_655 S
C1066 C1067 1.387 . S
C1066 H1070 0.950 . S
C1066 C1075 1.390 . S
C1067 C1066 1.387 . S
C1067 C1069 1.387 . S
H1068 C1075 0.950 . S
C1069 C1067 1.387 . S
C1069 C1071 1.390 . S
C1069 H1073 0.950 . S
H1070 C1066 0.950 . S
C1071 C1069 1.390 . S
C1071 C1072 1.387 . S
C1071 H1074 0.950 . S
C1072 C1071 1.387 . S
C1072 C1075 1.387 . S
H1073 C1069 0.950 . S
H1074 C1071 0.950 . S
C1075 C1066 1.390 . S
C1075 H1068 0.950 . S
C1075 C1072 1.387 . S
C1076 C1077 1.387 . S
C1076 H1080 0.950 . S
C1076 C1085 1.390 1_556 S
C1077 C1076 1.387 . S
C1077 C1079 1.378 1_556 S
H1078 C1085 0.950 . S
C1079 C1077 1.378 1_554 S
C1079 C1081 1.401 . S
C1079 H1083 0.949 1_554 S
H1080 C1076 0.950 . S
C1081 C1079 1.401 . S
C1081 C1082 1.387 . S
C1081 H1084 0.950 . S
C1082 C1081 1.387 . S
C1082 C1085 1.387 . S
H1083 C1079 0.949 1_556 S
H1084 C1081 0.950 . S
C1085 C1076 1.390 1_554 S
C1085 H1078 0.950 . S
C1085 C1082 1.387 . S
C1086 C1087 1.387 . S
C1086 H1090 0.950 . S
C1086 C1095 1.390 . S
C1087 C1086 1.387 . S
C1087 C1089 1.387 . S
H1088 C1095 0.950 . S
C1089 C1087 1.387 . S
C1089 C1091 1.390 . S
C1089 H1093 0.950 . S
H1090 C1086 0.950 . S
C1091 C1089 1.390 . S
C1091 C1092 1.387 . S
C1091 H1094 0.950 . S
C1092 C1091 1.387 . S
C1092 C1095 1.387 . S
H1093 C1089 0.950 . S
H1094 C1091 0.950 . S
C1095 C1086 1.390 . S
C1095 H1088 0.950 . S
C1095 C1092 1.387 . S
C1096 C1097 1.387 1_565 S
C1096 H1100 0.950 . S
C1096 C1105 1.390 1_556 S
C1097 C1096 1.387 1_545 S
C1097 C1099 1.387 . S
H1098 C1105 0.950 . S
C1099 C1097 1.387 . S
C1099 C1101 1.340 1_546 S
C1099 H1103 0.950 . S
H1100 C1096 0.950 . S
C1101 C1099 1.340 1_564 S
C1101 C1102 1.416 . S
C1101 H1104 0.974 . S
C1102 C1101 1.416 . S
C1102 C1105 1.387 . S
H1103 C1099 0.950 . S
H1104 C1101 0.974 . S
C1105 C1096 1.390 1_554 S
C1105 H1098 0.950 . S
C1105 C1102 1.387 . S
C1106 C1107 1.387 . S
C1106 H1110 0.950 . S
C1106 C1115 1.390 . S
C1107 C1106 1.387 . S
C1107 C1109 1.387 . S
H1108 C1115 0.950 . S
C1109 C1107 1.387 . S
C1109 C1111 1.390 . S
C1109 H1113 0.950 . S
H1110 C1106 0.950 . S
C1111 C1109 1.390 . S
C1111 C1112 1.387 . S
C1111 H1114 0.950 . S
C1112 C1111 1.387 . S
C1112 C1115 1.387 . S
H1113 C1109 0.950 . S
H1114 C1111 0.950 . S
C1115 C1106 1.390 . S
C1115 H1108 0.950 . S
C1115 C1112 1.387 . S
C1116 C1117 1.387 . S
C1116 H1120 0.950 . S
C1116 C1125 1.390 . S
C1117 C1116 1.387 . S
C1117 C1119 1.387 . S
H1118 C1125 0.950 . S
C1119 C1117 1.387 . S
C1119 C1121 1.390 . S
C1119 H1123 0.950 . S
H1120 C1116 0.950 . S
C1121 C1119 1.390 . S
C1121 C1122 1.387 . S
C1121 H1124 0.950 . S
C1122 C1121 1.387 . S
C1122 C1125 1.387 . S
H1123 C1119 0.950 . S
H1124 C1121 0.950 . S
C1125 C1116 1.390 . S
C1125 H1118 0.950 . S
C1125 C1122 1.387 . S
C1126 C1127 1.387 . S
C1126 H1130 0.950 . S
C1126 C1135 1.390 . S
C1127 C1126 1.387 . S
C1127 C1129 1.387 . S
H1128 C1135 0.950 . S
C1129 C1127 1.387 . S
C1129 C1131 1.390 . S
C1129 H1133 0.950 . S
H1130 C1126 0.950 . S
C1131 C1129 1.390 . S
C1131 C1132 1.387 . S
C1131 H1134 0.950 . S
C1132 C1131 1.387 . S
C1132 C1135 1.387 . S
H1133 C1129 0.950 . S
H1134 C1131 0.950 . S
C1135 C1126 1.390 . S
C1135 H1128 0.950 . S
C1135 C1132 1.387 . S
C497 C2 0.792 . S
C502 C374 0.787 . S
C507 C29 0.788 . S
C512 C401 0.793 . S
C517 C60 0.784 . S
C522 C405 0.779 . S
C527 C33 0.787 . S
C532 C432 0.792 . S
C537 C464 1.797 . S
C542 C81 1.780 . S
C547 C92 1.797 . S
C552 C453 1.780 . S
C557 C93 1.780 . S
C562 C475 1.797 . S
C567 C103 1.797 . S
C572 C465 1.780 . S
C577 C277 0.788 . S
C582 C126 0.793 . S
C587 C250 0.791 . S
C592 C153 0.786 . S
C597 C308 0.779 . S
C602 C184 0.784 . S
C607 C281 0.784 . S
C612 C157 0.779 . S
C617 C340 1.797 . S
C622 C205 1.780 . S
C627 C216 1.797 . S
C632 C329 1.780 . S
C637 C351 1.798 . S
C642 C236 1.782 . S
C647 C247 1.798 . S
C652 C341 1.782 . S
C657 C30 1.822 . S
C662 C372 1.774 . S
C667 C19 1.773 . S
C672 C382 1.821 . S
C677 C41 1.822 . S
C682 C403 1.774 . S
C687 C413 1.824 . S
C692 C31 1.777 1_565 S
C697 C434 1.764 . S
C702 C72 1.805 1_545 S
C707 C444 1.807 . S
C712 C62 1.767 . S
C717 C484 1.767 . S
C722 C123 1.807 . S
C727 C495 1.805 . S
C732 C112 1.764 1_545 S
C737 C154 1.825 . S
C742 C267 1.777 . S
C747 C143 1.776 . S
C752 C278 1.824 . S
C757 C165 1.822 . S
C762 C298 1.774 1_565 S
C767 C155 1.774 . S
C772 C309 1.822 . S
C777 C310 1.767 . S
C782 C196 1.807 . S
C787 C320 1.807 1_545 S
C792 C186 1.767 . S
C797 C360 1.767 1_545 S
C802 C227 1.807 . S
C807 C217 1.764 . S
C812 C371 1.805 . S
C817 C10 1.584 . S
C822 C299 1.614 . S
C827 C289 1.583 . S
C832 C20 1.614 . S
C837 C268 1.614 . S
C842 C61 1.584 . S
C847 C258 1.583 . S
C852 C32 1.613 . S
C857 C361 1.647 . S
C862 C64 1.659 . S
C867 C63 1.650 . S
C872 C370 1.661 . S
C877 C122 1.660 . S
C882 C311 1.649 . S
C887 C113 1.650 . S
C892 C312 1.661 . S
C897 C404 1.614 . S
C902 C134 1.584 . S
C907 C144 1.613 . S
C912 C433 1.583 . S
C917 C185 1.584 . S
C922 C373 1.614 . S
C927 C402 1.583 . S
C932 C156 1.613 . S
C937 C485 1.650 . S
C942 C188 1.661 . S
C947 C494 1.659 . S
C952 C187 1.647 . S
C957 C435 1.648 . S
C962 C219 1.659 . S
C967 C436 1.659 . S
C972 C218 1.647 . S
C977 C454 1.398 . S
C982 C1 1.397 . S
C987 C91 1.822 . S
C992 C0 2.084 . S
C997 C342 1.396 . S
C1002 C51 1.396 . S
C1007 C50 2.082 . S
C1012 C246 1.819 . S
C1017 C392 1.398 . S
C1022 C82 1.399 . S
C1027 C94 1.395 . S
C1032 C280 1.393 . S
C1037 C174 2.082 . S
C1042 C95 1.817 . S
C1047 C330 1.399 . S
C1052 C125 1.398 . S
C1057 C124 2.082 . S
C1062 C215 1.818 . S
C1067 C175 1.392 . S
C1072 C466 1.397 . S
C1077 C249 1.398 . S
C1082 C206 1.400 . S
C1087 C423 1.393 . S
C1092 C237 1.397 . S
C1097 C248 2.083 . S
C1102 C339 1.821 . S
C1107 C279 2.083 . S
C1112 C467 1.819 . S
C1117 C422 2.082 . S
C1122 C343 1.818 . S
C1127 C463 1.818 . S
C1132 C391 2.083 . S
