# Generated by pormake.
# Topology umv, (4)-cn, num edge types: 1
# Building blocks:
#     Node 0, Type 0, BuildingBlock: QUQFOY_clean_sbu_3, # of connection points: 4
#     Node 1, Type 0, BuildingBlock: QUQFOY_clean_sbu_3, # of connection points: 4
#     Node 2, Type 0, BuildingBlock: QUQFOY_clean_sbu_3, # of connection points: 4
#     Node 3, Type 0, BuildingBlock: QUQFOY_clean_sbu_3, # of connection points: 4
#     Node 4, Type 0, BuildingBlock: QUQFOY_clean_sbu_3, # of connection points: 4
#     Node 5, Type 0, BuildingBlock: QUQFOY_clean_sbu_3, # of connection points: 4
#     Node 6, Type 0, BuildingBlock: QUQFOY_clean_sbu_3, # of connection points: 4
#     Node 7, Type 0, BuildingBlock: QUQFOY_clean_sbu_3, # of connection points: 4
#     Node 8, Type 0, BuildingBlock: QUQFOY_clean_sbu_3, # of connection points: 4
#     Node 9, Type 0, BuildingBlock: QUQFOY_clean_sbu_3, # of connection points: 4
#     Node 10, Type 0, BuildingBlock: QUQFOY_clean_sbu_3, # of connection points: 4
#     Node 11, Type 0, BuildingBlock: QUQFOY_clean_sbu_3, # of connection points: 4
#     Node 12, Type 0, BuildingBlock: QUQFOY_clean_sbu_3, # of connection points: 4
#     Node 13, Type 0, BuildingBlock: QUQFOY_clean_sbu_3, # of connection points: 4
#     Node 14, Type 0, BuildingBlock: QUQFOY_clean_sbu_3, # of connection points: 4
#     Node 15, Type 0, BuildingBlock: QUQFOY_clean_sbu_3, # of connection points: 4
#     Node 16, Type 0, BuildingBlock: QUQFOY_clean_sbu_3, # of connection points: 4
#     Node 17, Type 0, BuildingBlock: QUQFOY_clean_sbu_3, # of connection points: 4
#     Node 18, Type 0, BuildingBlock: QUQFOY_clean_sbu_3, # of connection points: 4
#     Node 19, Type 0, BuildingBlock: QUQFOY_clean_sbu_3, # of connection points: 4
#     Node 20, Type 0, BuildingBlock: QUQFOY_clean_sbu_3, # of connection points: 4
#     Node 21, Type 0, BuildingBlock: QUQFOY_clean_sbu_3, # of connection points: 4
#     Node 22, Type 0, BuildingBlock: QUQFOY_clean_sbu_3, # of connection points: 4
#     Node 23, Type 0, BuildingBlock: QUQFOY_clean_sbu_3, # of connection points: 4
#     Node 24, Type 0, BuildingBlock: QUQFOY_clean_sbu_3, # of connection points: 4
#     Node 25, Type 0, BuildingBlock: QUQFOY_clean_sbu_3, # of connection points: 4
#     Node 26, Type 0, BuildingBlock: QUQFOY_clean_sbu_3, # of connection points: 4
#     Node 27, Type 0, BuildingBlock: QUQFOY_clean_sbu_3, # of connection points: 4
#     Node 28, Type 0, BuildingBlock: QUQFOY_clean_sbu_3, # of connection points: 4
#     Node 29, Type 0, BuildingBlock: QUQFOY_clean_sbu_3, # of connection points: 4
#     Node 30, Type 0, BuildingBlock: QUQFOY_clean_sbu_3, # of connection points: 4
#     Node 31, Type 0, BuildingBlock: QUQFOY_clean_sbu_3, # of connection points: 4
#     Edge 32, Type (0, 0), BuildingBlock: CIFDUS_clean_linker_0, # of connection points: 2
#     Edge 33, Type (0, 0), BuildingBlock: CIFDUS_clean_linker_0, # of connection points: 2
#     Edge 34, Type (0, 0), BuildingBlock: CIFDUS_clean_linker_0, # of connection points: 2
#     Edge 35, Type (0, 0), BuildingBlock: CIFDUS_clean_linker_0, # of connection points: 2
#     Edge 36, Type (0, 0), BuildingBlock: CIFDUS_clean_linker_0, # of connection points: 2
#     Edge 37, Type (0, 0), BuildingBlock: CIFDUS_clean_linker_0, # of connection points: 2
#     Edge 38, Type (0, 0), BuildingBlock: CIFDUS_clean_linker_0, # of connection points: 2
#     Edge 39, Type (0, 0), BuildingBlock: CIFDUS_clean_linker_0, # of connection points: 2
#     Edge 40, Type (0, 0), BuildingBlock: CIFDUS_clean_linker_0, # of connection points: 2
#     Edge 41, Type (0, 0), BuildingBlock: CIFDUS_clean_linker_0, # of connection points: 2
#     Edge 42, Type (0, 0), BuildingBlock: CIFDUS_clean_linker_0, # of connection points: 2
#     Edge 43, Type (0, 0), BuildingBlock: CIFDUS_clean_linker_0, # of connection points: 2
#     Edge 44, Type (0, 0), BuildingBlock: CIFDUS_clean_linker_0, # of connection points: 2
#     Edge 45, Type (0, 0), BuildingBlock: CIFDUS_clean_linker_0, # of connection points: 2
#     Edge 46, Type (0, 0), BuildingBlock: CIFDUS_clean_linker_0, # of connection points: 2
#     Edge 47, Type (0, 0), BuildingBlock: CIFDUS_clean_linker_0, # of connection points: 2
#     Edge 48, Type (0, 0), BuildingBlock: CIFDUS_clean_linker_0, # of connection points: 2
#     Edge 49, Type (0, 0), BuildingBlock: CIFDUS_clean_linker_0, # of connection points: 2
#     Edge 50, Type (0, 0), BuildingBlock: CIFDUS_clean_linker_0, # of connection points: 2
#     Edge 51, Type (0, 0), BuildingBlock: CIFDUS_clean_linker_0, # of connection points: 2
#     Edge 52, Type (0, 0), BuildingBlock: CIFDUS_clean_linker_0, # of connection points: 2
#     Edge 53, Type (0, 0), BuildingBlock: CIFDUS_clean_linker_0, # of connection points: 2
#     Edge 54, Type (0, 0), BuildingBlock: CIFDUS_clean_linker_0, # of connection points: 2
#     Edge 55, Type (0, 0), BuildingBlock: CIFDUS_clean_linker_0, # of connection points: 2
#     Edge 56, Type (0, 0), BuildingBlock: CIFDUS_clean_linker_0, # of connection points: 2
#     Edge 57, Type (0, 0), BuildingBlock: CIFDUS_clean_linker_0, # of connection points: 2
#     Edge 58, Type (0, 0), BuildingBlock: CIFDUS_clean_linker_0, # of connection points: 2
#     Edge 59, Type (0, 0), BuildingBlock: CIFDUS_clean_linker_0, # of connection points: 2
#     Edge 60, Type (0, 0), BuildingBlock: CIFDUS_clean_linker_0, # of connection points: 2
#     Edge 61, Type (0, 0), BuildingBlock: CIFDUS_clean_linker_0, # of connection points: 2
#     Edge 62, Type (0, 0), BuildingBlock: CIFDUS_clean_linker_0, # of connection points: 2
#     Edge 63, Type (0, 0), BuildingBlock: CIFDUS_clean_linker_0, # of connection points: 2
#     Edge 64, Type (0, 0), BuildingBlock: CIFDUS_clean_linker_0, # of connection points: 2
#     Edge 65, Type (0, 0), BuildingBlock: CIFDUS_clean_linker_0, # of connection points: 2
#     Edge 66, Type (0, 0), BuildingBlock: CIFDUS_clean_linker_0, # of connection points: 2
#     Edge 67, Type (0, 0), BuildingBlock: CIFDUS_clean_linker_0, # of connection points: 2
#     Edge 68, Type (0, 0), BuildingBlock: CIFDUS_clean_linker_0, # of connection points: 2
#     Edge 69, Type (0, 0), BuildingBlock: CIFDUS_clean_linker_0, # of connection points: 2
#     Edge 70, Type (0, 0), BuildingBlock: CIFDUS_clean_linker_0, # of connection points: 2
#     Edge 71, Type (0, 0), BuildingBlock: CIFDUS_clean_linker_0, # of connection points: 2
#     Edge 72, Type (0, 0), BuildingBlock: CIFDUS_clean_linker_0, # of connection points: 2
#     Edge 73, Type (0, 0), BuildingBlock: CIFDUS_clean_linker_0, # of connection points: 2
#     Edge 74, Type (0, 0), BuildingBlock: CIFDUS_clean_linker_0, # of connection points: 2
#     Edge 75, Type (0, 0), BuildingBlock: CIFDUS_clean_linker_0, # of connection points: 2
#     Edge 76, Type (0, 0), BuildingBlock: CIFDUS_clean_linker_0, # of connection points: 2
#     Edge 77, Type (0, 0), BuildingBlock: CIFDUS_clean_linker_0, # of connection points: 2
#     Edge 78, Type (0, 0), BuildingBlock: CIFDUS_clean_linker_0, # of connection points: 2
#     Edge 79, Type (0, 0), BuildingBlock: CIFDUS_clean_linker_0, # of connection points: 2
#     Edge 80, Type (0, 0), BuildingBlock: CIFDUS_clean_linker_0, # of connection points: 2
#     Edge 81, Type (0, 0), BuildingBlock: CIFDUS_clean_linker_0, # of connection points: 2
#     Edge 82, Type (0, 0), BuildingBlock: CIFDUS_clean_linker_0, # of connection points: 2
#     Edge 83, Type (0, 0), BuildingBlock: CIFDUS_clean_linker_0, # of connection points: 2
#     Edge 84, Type (0, 0), BuildingBlock: CIFDUS_clean_linker_0, # of connection points: 2
#     Edge 85, Type (0, 0), BuildingBlock: CIFDUS_clean_linker_0, # of connection points: 2
#     Edge 86, Type (0, 0), BuildingBlock: CIFDUS_clean_linker_0, # of connection points: 2
#     Edge 87, Type (0, 0), BuildingBlock: CIFDUS_clean_linker_0, # of connection points: 2
#     Edge 88, Type (0, 0), BuildingBlock: CIFDUS_clean_linker_0, # of connection points: 2
#     Edge 89, Type (0, 0), BuildingBlock: CIFDUS_clean_linker_0, # of connection points: 2
#     Edge 90, Type (0, 0), BuildingBlock: CIFDUS_clean_linker_0, # of connection points: 2
#     Edge 91, Type (0, 0), BuildingBlock: CIFDUS_clean_linker_0, # of connection points: 2
#     Edge 92, Type (0, 0), BuildingBlock: CIFDUS_clean_linker_0, # of connection points: 2
#     Edge 93, Type (0, 0), BuildingBlock: CIFDUS_clean_linker_0, # of connection points: 2
#     Edge 94, Type (0, 0), BuildingBlock: CIFDUS_clean_linker_0, # of connection points: 2
#     Edge 95, Type (0, 0), BuildingBlock: CIFDUS_clean_linker_0, # of connection points: 2
# Relax obj value: 0.122
# Max RMSD: 0.107
# Mean RMSD: 0.107
data_MOF--net-umv--node1-QUQFOY_clean_sbu_3--edge1-CIFDUS_clean_linker_0
_symmetry_space_group_name_H-M    P1
_symmetry_Int_Tables_number       1
_symmetry_cell_setting            triclinic
loop_
_symmetry_equiv_pos_as_xyz
'x, y, z'
_cell_length_a     94.744912
_cell_length_b     23.045425
_cell_length_c     54.957648
_cell_angle_alpha  89.86193
_cell_angle_beta   89.937535
_cell_angle_gamma 89.980193
loop_
_atom_site_label
_atom_site_type_symbol
_atom_site_fract_x
_atom_site_fract_y
_atom_site_fract_z
_atom_type_partial_charge
C0 C 0.05558 0.03849 0.35101 0.0
O1 O 0.0645 0.06327 0.36469 0.0
Cd2 Cd 0.07742 0.14636 0.35318 0.0
O3 O 0.05305 0.05799 0.32967 0.0
Cd4 Cd 0.05972 0.14373 0.30389 0.0
C5 C 0.09357 0.10409 0.29934 0.0
O6 O 0.05888 0.20579 0.33887 0.0
O7 O 0.06588 0.24766 0.30593 0.0
O8 O 0.03467 0.13834 0.29548 0.0
C9 C 0.06194 0.25222 0.32786 0.0
O10 O 0.09377 0.11608 0.3219 0.0
C11 C 0.03525 0.16189 0.27465 0.0
O12 O 0.08229 0.10855 0.28689 0.0
O13 O 0.04748 0.1717 0.26608 0.0
C14 C 0.19657 0.20196 0.34966 0.0
O15 O 0.19275 0.16509 0.36557 0.0
Cd16 Cd 0.1931 0.06197 0.36257 0.0
O17 O 0.20158 0.18564 0.3292 0.0
Cd18 Cd 0.20658 0.09021 0.30974 0.0
C19 C 0.17243 0.04941 0.31105 0.0
O20 O 0.21513 0.03953 0.34551 0.0
O21 O 0.21011 0.98644 0.31468 0.0
O22 O 0.22963 0.11969 0.2948 0.0
C23 C 0.21517 -0.0103 0.33593 0.0
O24 O 0.1748 0.03806 0.33337 0.0
C25 C 0.22826 0.09319 0.27469 0.0
O26 O 0.18169 0.07469 0.29789 0.0
O27 O 0.21599 0.07484 0.26941 0.0
C28 C 0.02392 0.21045 0.87856 0.0
O29 O 0.02633 0.17353 0.86198 0.0
Cd30 Cd 0.03788 0.08543 0.87315 0.0
O31 O 0.02335 0.19466 0.90083 0.0
Cd32 Cd 0.02356 0.10481 0.92623 0.0
C33 C 0.05749 0.13833 0.92265 0.0
O34 O 0.02329 0.02639 0.89717 0.0
O35 O 0.03334 0.00912 0.93178 0.0
O36 O -0.00128 0.09642 0.93623 0.0
C37 C 0.02968 -0.00916 0.91099 0.0
O38 O 0.05599 0.12192 0.90066 0.0
C39 C 0.00062 0.09445 0.95911 0.0
O40 O 0.04724 0.13761 0.93771 0.0
O41 O 0.01309 0.10395 0.96675 0.0
C42 C 0.17793 0.02134 0.90334 0.0
O43 O 0.17218 0.04615 0.88526 0.0
Cd44 Cd 0.16329 0.14285 0.88672 0.0
O45 O 0.17911 0.04761 0.92362 0.0
Cd46 Cd 0.17381 0.14713 0.93822 0.0
C47 C 0.13909 0.14354 0.93336 0.0
O48 O 0.18223 0.19808 0.90243 0.0
O49 O 0.17006 0.24887 0.92795 0.0
O50 O 0.19743 0.14822 0.95374 0.0
C51 C 0.17915 0.24738 0.91103 0.0
O52 O 0.142 0.15134 0.91099 0.0
C53 C 0.19463 0.17612 0.97298 0.0
O54 O 0.14881 0.13335 0.94876 0.0
O55 O 0.18165 0.18221 0.97836 0.0
C56 C 0.96572 0.92485 0.6262 0.0
O57 O 0.95806 0.89067 0.61385 0.0
Cd58 Cd 0.94494 0.81248 0.63029 0.0
O59 O 0.96829 0.9147 0.64865 0.0
Cd60 Cd 0.96457 0.83709 0.67996 0.0
C61 C 0.93078 0.88043 0.68215 0.0
O62 O 0.9615 0.75904 0.65225 0.0
O63 O 0.95488 0.74086 0.689 0.0
O64 O 0.99003 0.831 0.68487 0.0
C65 C 0.95628 0.7235 0.66731 0.0
O66 O 0.93005 0.85848 0.66092 0.0
C67 C 0.9896 0.82378 0.70775 0.0
O68 O 0.9423 0.8812 0.69419 0.0
O69 O 0.97762 0.82879 0.71802 0.0
C70 C 0.81539 0.74772 0.67601 0.0
O71 O 0.81959 0.78027 0.65881 0.0
Cd72 Cd 0.82469 0.88096 0.66246 0.0
O73 O 0.81371 0.76785 0.69745 0.0
Cd74 Cd 0.81587 0.8655 0.71675 0.0
C75 C 0.85051 0.8824 0.70654 0.0
O76 O 0.80495 0.91796 0.68359 0.0
O77 O 0.81561 0.97055 0.71027 0.0
O78 O 0.79323 0.85156 0.73584 0.0
C79 C 0.807 0.96754 0.6927 0.0
O80 O 0.84649 0.89387 0.68497 0.0
C81 C 0.79651 0.87496 0.7559 0.0
O82 O 0.84176 0.86431 0.72248 0.0
O83 O 0.80954 0.88523 0.7594 0.0
C84 C 0.9346 0.7449 0.0994 0.0
O85 O 0.92685 0.76237 0.11673 0.0
Cd86 Cd 0.90979 0.83618 0.11498 0.0
O87 O 0.93418 0.76905 0.07847 0.0
Cd88 Cd 0.92281 0.8596 0.06206 0.0
C89 C 0.88992 0.80654 0.06341 0.0
O90 O 0.92333 0.91328 0.09974 0.0
O91 O 0.91081 0.95099 0.07096 0.0
O92 O 0.94532 0.89906 0.04935 0.0
C93 C 0.9163 0.95593 0.09186 0.0
O94 O 0.89142 0.80908 0.08639 0.0
C95 C 0.94194 0.90845 0.02739 0.0
O96 O 0.89986 0.82126 0.04907 0.0
O97 O 0.92983 0.89083 0.02073 0.0
C98 C 0.78305 -0.00249 0.09002 0.0
O99 O 0.78509 0.95636 0.10502 0.0
Cd100 Cd 0.78654 0.85534 0.09681 0.0
O101 O 0.78038 0.98774 0.06762 0.0
Cd102 Cd 0.77611 0.90092 0.04145 0.0
C103 C 0.81001 0.85906 0.04751 0.0
O104 O 0.76711 0.83687 0.07227 0.0
O105 O 0.77331 0.79571 0.03901 0.0
O106 O 0.75312 0.93209 0.02807 0.0
C107 C 0.7685 0.79028 0.06039 0.0
O108 O 0.80631 0.8444 0.06898 0.0
C109 C 0.75515 0.92017 0.00579 0.0
O110 O 0.80157 0.88603 0.0333 0.0
O111 O 0.76775 0.9082 -0.00051 0.0
C112 C 0.06211 0.51197 0.86105 0.0
O113 O 0.07023 0.53532 0.87653 0.0
Cd114 Cd 0.08302 0.62175 0.8692 0.0
O115 O 0.06053 0.53449 0.83997 0.0
Cd116 Cd 0.06853 0.62498 0.81836 0.0
C117 C 0.10301 0.59196 0.81818 0.0
O118 O 0.06501 0.68429 0.8543 0.0
O119 O 0.07401 0.7281 0.82323 0.0
O120 O 0.04418 0.62214 0.80516 0.0
C121 C 0.06825 0.73154 0.84398 0.0
O122 O 0.10191 0.60002 0.84097 0.0
C123 C 0.04618 0.64634 0.78472 0.0
O124 O 0.09233 0.59641 0.80426 0.0
O125 O 0.05892 0.6554 0.7786 0.0
C126 C 0.20815 0.71353 0.86426 0.0
O127 O 0.20479 0.67851 0.88117 0.0
Cd128 Cd 0.20418 0.5754 0.8812 0.0
O129 O 0.21283 0.69501 0.84389 0.0
Cd130 Cd 0.21811 0.59718 0.82658 0.0
C131 C 0.1835 0.5593 0.82972 0.0
O132 O 0.22497 0.54295 0.86293 0.0
O133 O 0.22084 0.49387 0.83058 0.0
O134 O 0.24178 0.62005 0.81199 0.0
C135 C 0.22432 0.49366 0.85278 0.0
O136 O 0.18589 0.55171 0.85231 0.0
C137 C 0.23991 0.59519 0.79162 0.0
O138 O 0.19284 0.58116 0.81561 0.0
O139 O 0.22734 0.58081 0.7862 0.0
C140 C 0.02502 0.72912 0.3769 0.0
O141 O 0.02859 0.69331 0.3605 0.0
Cd142 Cd 0.04014 0.60414 0.36905 0.0
O143 O 0.02473 0.71403 0.39928 0.0
Cd144 Cd 0.02728 0.62397 0.42421 0.0
C145 C 0.06178 0.64831 0.41762 0.0
O146 O 0.02543 0.54904 0.39406 0.0
O147 O 0.0363 0.52608 0.42722 0.0
O148 O 0.00308 0.61268 0.4372 0.0
C149 C 0.03189 0.51092 0.40644 0.0
O150 O 0.05947 0.63323 0.39565 0.0
C151 C 0.00594 0.60987 0.45975 0.0
O152 O 0.05183 0.65039 0.43327 0.0
O153 O 0.01859 0.62092 0.46597 0.0
C154 C 0.17998 0.52137 0.39742 0.0
O155 O 0.17905 0.55586 0.37946 0.0
Cd156 Cd 0.17571 0.65755 0.3819 0.0
O157 O 0.17918 0.54024 0.41922 0.0
Cd158 Cd 0.17695 0.63773 0.43888 0.0
C159 C 0.145 0.66553 0.41636 0.0
O160 O 0.19273 0.68645 0.41064 0.0
O161 O 0.18023 0.74158 0.43382 0.0
O162 O 0.19529 0.6054 0.46618 0.0
C163 C 0.19047 0.7365 0.41918 0.0
O164 O 0.15196 0.67389 0.39683 0.0
C165 C 0.19192 0.63989 0.48319 0.0
O166 O 0.15112 0.64663 0.43546 0.0
O167 O 0.17992 0.66416 0.48153 0.0
C168 C 0.94559 0.42342 0.12742 0.0
O169 O 0.93707 0.38907 0.11697 0.0
Cd170 Cd 0.92575 0.30877 0.13536 0.0
O171 O 0.94959 0.41439 0.14933 0.0
Cd172 Cd 0.94718 0.33903 0.18203 0.0
C173 C 0.91315 0.37646 0.18816 0.0
O174 O 0.94446 0.26166 0.15427 0.0
O175 O 0.93888 0.23914 0.19101 0.0
O176 O 0.97278 0.34074 0.18465 0.0
C177 C 0.94024 0.22351 0.16907 0.0
O178 O 0.91161 0.35041 0.16792 0.0
C179 C 0.97323 0.33073 0.20735 0.0
O180 O 0.9253 0.38425 0.19762 0.0
O181 O 0.96154 0.33074 0.21876 0.0
C182 C 0.80607 0.31922 0.12363 0.0
O183 O 0.81467 0.35156 0.11218 0.0
Cd184 Cd 0.8197 0.4489 0.12383 0.0
O185 O 0.80002 0.33712 0.14297 0.0
Cd186 Cd 0.79997 0.42813 0.1671 0.0
C187 C 0.83454 0.42913 0.17983 0.0
O188 O 0.79681 0.48676 0.13108 0.0
O189 O 0.80135 0.53422 0.16391 0.0
O190 O 0.77512 0.40487 0.17459 0.0
C191 C 0.7967 0.53449 0.14231 0.0
O192 O 0.83573 0.44933 0.15838 0.0
C193 C 0.77451 0.43269 0.19445 0.0
O194 O 0.82269 0.4109 0.18768 0.0
O195 O 0.78608 0.45128 0.20302 0.0
C196 C 0.95055 0.24556 0.60588 0.0
O197 O 0.94341 0.26335 0.62392 0.0
Cd198 Cd 0.92532 0.33306 0.62276 0.0
O199 O 0.94885 0.26746 0.58472 0.0
Cd200 Cd 0.93567 0.35331 0.56815 0.0
C201 C 0.90405 0.29169 0.57428 0.0
O202 O 0.93685 0.41179 0.60436 0.0
O203 O 0.92286 0.44371 0.57642 0.0
O204 O 0.95738 0.3941 0.55288 0.0
C205 C 0.92902 0.45206 0.59653 0.0
O206 O 0.9065 0.29798 0.59689 0.0
C207 C 0.95307 0.40362 0.53143 0.0
O208 O 0.91309 0.30702 0.55836 0.0
O209 O 0.94086 0.38463 0.52607 0.0
C210 C 0.79798 0.43188 0.62521 0.0
O211 O 0.80044 0.39529 0.642 0.0
Cd212 Cd 0.79989 0.29198 0.64119 0.0
O213 O 0.79436 0.4153 0.60392 0.0
Cd214 Cd 0.79032 0.31873 0.58436 0.0
C215 C 0.82361 0.26992 0.59431 0.0
O216 O 0.77972 0.2689 0.61871 0.0
O217 O 0.78554 0.21563 0.58839 0.0
O218 O 0.7684 0.33869 0.56373 0.0
C219 C 0.78009 0.21881 0.60936 0.0
O220 O 0.81979 0.26291 0.61636 0.0
C221 C 0.77266 0.32046 0.54319 0.0
O222 O 0.81549 0.29435 0.57885 0.0
O223 O 0.78581 0.31091 0.54093 0.0
C224 C 0.56238 0.03302 0.85155 0.0
O225 O 0.56689 0.06465 0.86875 0.0
Cd226 Cd 0.57255 0.16481 0.86454 0.0
O227 O 0.56072 0.05395 0.8302 0.0
Cd228 Cd 0.56325 0.15193 0.81084 0.0
C229 C 0.59804 0.16481 0.81972 0.0
O230 O 0.55254 0.20379 0.8446 0.0
O231 O 0.5629 0.25694 0.81766 0.0
O232 O 0.54118 0.13048 0.79042 0.0
C233 C 0.55455 0.25365 0.83562 0.0
O234 O 0.59428 0.17638 0.84142 0.0
C235 C 0.54396 0.15906 0.77126 0.0
O236 O 0.58904 0.14779 0.80408 0.0
O237 O 0.55652 0.17767 0.76904 0.0
C238 C 0.71825 0.22737 0.87855 0.0
O239 O 0.71306 0.19961 0.89641 0.0
Cd240 Cd 0.69713 0.12112 0.89071 0.0
O241 O 0.71794 0.20577 0.85721 0.0
Cd242 Cd 0.71172 0.11186 0.83774 0.0
C243 C 0.67928 0.16761 0.83809 0.0
O244 O 0.70846 0.04426 0.87111 0.0
O245 O 0.69698 0.02796 0.83775 0.0
O246 O 0.7357 0.07927 0.83129 0.0
C247 C 0.70011 0.01202 0.85915 0.0
O248 O 0.68027 0.158 0.86089 0.0
C249 C 0.73427 0.06937 0.80872 0.0
O250 O 0.68944 0.15613 0.82357 0.0
O251 O 0.72265 0.08472 0.799 0.0
C252 C 0.55165 0.1321 0.39088 0.0
O253 O 0.5592 0.09561 0.37946 0.0
Cd254 Cd 0.56417 -0.00022 0.39256 0.0
O255 O 0.54645 0.11994 0.41176 0.0
Cd256 Cd 0.54634 0.03564 0.44036 0.0
C257 C 0.58179 0.03137 0.44557 0.0
O258 O 0.54166 0.97444 0.40713 0.0
O259 O 0.54605 0.92732 0.44001 0.0
O260 O 0.52188 0.05737 0.44933 0.0
C261 C 0.54168 0.92668 0.41823 0.0
O262 O 0.58165 0.00841 0.42456 0.0
C263 C 0.52248 0.04223 0.47151 0.0
O264 O 0.57055 0.05097 0.45531 0.0
O265 O 0.53466 0.03155 0.4801 0.0
C266 C 0.69196 0.00741 0.39489 0.0
O267 O 0.68545 0.04063 0.38023 0.0
Cd268 Cd 0.67951 0.13977 0.38532 0.0
O269 O 0.69602 0.02565 0.41567 0.0
Cd270 Cd 0.69432 0.12149 0.43658 0.0
C271 C 0.65889 0.12862 0.43634 0.0
O272 O 0.70041 0.17822 0.40145 0.0
O273 O 0.6916 0.22697 0.43108 0.0
O274 O 0.71814 0.12209 0.45285 0.0
C275 C 0.69774 0.22711 0.4106 0.0
O276 O 0.66017 0.14556 0.41439 0.0
C277 C 0.71439 0.13713 0.4741 0.0
O278 O 0.66947 0.11046 0.44841 0.0
O279 O 0.70124 0.13668 0.47866 0.0
C280 C 0.46591 0.96006 0.1227 0.0
O281 O 0.46157 0.93005 0.10494 0.0
Cd282 Cd 0.44205 0.86823 0.11325 0.0
O283 O 0.46349 0.94296 0.14439 0.0
Cd284 Cd 0.45419 0.8529 0.1638 0.0
C285 C 0.42492 0.92847 0.16345 0.0
O286 O 0.44843 0.78119 0.13261 0.0
O287 O 0.43547 0.78362 0.16527 0.0
O288 O 0.47604 0.80267 0.17342 0.0
C289 C 0.43871 0.7587 0.14554 0.0
O290 O 0.42589 0.91845 0.1407 0.0
C291 C 0.47339 0.7979 0.19599 0.0
O292 O 0.43426 0.91013 0.17825 0.0
O293 O 0.46255 0.82443 0.20393 0.0
C294 C 0.31211 0.77429 0.14151 0.0
O295 O 0.31682 0.80703 0.12477 0.0
Cd296 Cd 0.32119 0.90811 0.12889 0.0
O297 O 0.30942 0.79445 0.16262 0.0
Cd298 Cd 0.31006 0.89276 0.18145 0.0
C299 C 0.34454 0.91501 0.17696 0.0
O300 O 0.30025 0.94387 0.14661 0.0
O301 O 0.30969 -0.00294 0.1744 0.0
O302 O 0.28735 0.86941 0.1992 0.0
C303 C 0.30189 -0.00635 0.15578 0.0
O304 O 0.34146 0.92559 0.15485 0.0
C305 C 0.28912 0.90031 0.21801 0.0
O306 O 0.33532 0.89456 0.19153 0.0
O307 O 0.30146 0.91985 0.22167 0.0
C308 C 0.42939 0.76625 0.59167 0.0
O309 O 0.41988 0.78967 0.60465 0.0
Cd310 Cd 0.40745 0.87557 0.59419 0.0
O311 O 0.43281 0.78802 0.5711 0.0
Cd312 Cd 0.42641 0.87639 0.54692 0.0
C313 C 0.39235 0.84135 0.539 0.0
O314 O 0.4262 0.93708 0.5825 0.0
O315 O 0.41949 0.97909 0.54936 0.0
O316 O 0.45158 0.88572 0.54031 0.0
C317 C 0.42341 0.98362 0.57131 0.0
O318 O 0.39129 0.85351 0.56147 0.0
C319 C 0.45078 0.90113 0.51821 0.0
O320 O 0.40423 0.84201 0.52817 0.0
O321 O 0.43863 0.89933 0.50845 0.0
C322 C 0.29 0.96397 0.59085 0.0
O323 O 0.29644 0.92664 0.60374 0.0
Cd324 Cd 0.2989 0.82592 0.59607 0.0
O325 O 0.28337 0.94902 0.57161 0.0
Cd326 Cd 0.27873 0.85498 0.55041 0.0
C327 C 0.3132 0.83783 0.53822 0.0
O328 O 0.27612 0.79544 0.58608 0.0
O329 O 0.28037 0.74931 0.55298 0.0
O330 O 0.25355 0.87472 0.54572 0.0
C331 C 0.27707 0.74728 0.57529 0.0
O332 O 0.31387 0.82026 0.56019 0.0
C333 C 0.2528 0.84905 0.52535 0.0
O334 O 0.30186 0.85961 0.52959 0.0
O335 O 0.26437 0.83577 0.51507 0.0
C336 C 0.53427 0.45496 0.35224 0.0
O337 O 0.53548 0.49245 0.36899 0.0
Cd338 Cd 0.54153 0.59126 0.36511 0.0
O339 O 0.53522 0.46894 0.32976 0.0
Cd340 Cd 0.53741 0.56168 0.30611 0.0
C341 C 0.5707 0.57842 0.32598 0.0
O342 O 0.52593 0.62304 0.33535 0.0
O343 O 0.5378 0.66738 0.30771 0.0
O344 O 0.51622 0.54872 0.2828 0.0
C345 C 0.52974 0.67064 0.32603 0.0
O346 O 0.56472 0.59032 0.34616 0.0
C347 C 0.52157 0.56547 0.26279 0.0
O348 O 0.56345 0.5631 0.3075 0.0
O349 O 0.53495 0.56975 0.26193 0.0
C350 C 0.69022 0.69314 0.33669 0.0
O351 O 0.68782 0.65756 0.35388 0.0
Cd352 Cd 0.68125 0.55964 0.34911 0.0
O353 O 0.6902 0.67672 0.31447 0.0
Cd354 Cd 0.68824 0.58478 0.29022 0.0
C355 C 0.65415 0.57961 0.30575 0.0
O356 O 0.69839 0.5279 0.32183 0.0
O357 O 0.68884 0.47818 0.29325 0.0
O358 O 0.70978 0.61915 0.27184 0.0
C359 C 0.69581 0.47871 0.31288 0.0
O360 O 0.6593 0.5681 0.32664 0.0
C361 C 0.70832 0.5914 0.2521 0.0
O362 O 0.66218 0.58982 0.28754 0.0
O363 O 0.69644 0.5672 0.24853 0.0
C364 C 0.54215 0.71915 0.90227 0.0
O365 O 0.54574 0.6818 0.88647 0.0
Cd366 Cd 0.54542 0.57843 0.88884 0.0
O367 O 0.53717 0.70351 0.9229 0.0
Cd368 Cd 0.53167 0.60823 0.9429 0.0
C369 C 0.56531 0.56051 0.94131 0.0
O370 O 0.52412 0.55398 0.90751 0.0
O371 O 0.52857 0.50377 0.93952 0.0
O372 O 0.50792 0.62817 0.95656 0.0
C373 C 0.52457 0.50452 0.91756 0.0
O374 O 0.56302 0.55182 0.91877 0.0
C375 C 0.51016 0.61344 0.9785 0.0
O376 O 0.55633 0.58671 0.95471 0.0
O377 O 0.52294 0.60502 0.98467 0.0
C378 C 0.68996 0.52549 0.90934 0.0
O379 O 0.68124 0.5265 0.89189 0.0
Cd380 Cd 0.66124 0.58775 0.89059 0.0
O381 O 0.68889 0.56116 0.92691 0.0
Cd382 Cd 0.67418 0.64972 0.93352 0.0
C383 C 0.64475 0.57906 0.94662 0.0
O384 O 0.67045 0.68309 0.89173 0.0
O385 O 0.65716 0.72055 0.91946 0.0
O386 O 0.69542 0.70833 0.93647 0.0
C387 C 0.66242 0.72411 0.89831 0.0
O388 O 0.64509 0.56818 0.92393 0.0
C389 C 0.69263 0.73005 0.95707 0.0
O390 O 0.65463 0.60769 0.95663 0.0
O391 O 0.68157 0.71171 0.96768 0.0
C392 C 0.46265 0.45964 0.61776 0.0
O393 O 0.45934 0.42355 0.60133 0.0
Cd394 Cd 0.44818 0.3346 0.61148 0.0
O395 O 0.46364 0.44379 0.63999 0.0
Cd396 Cd 0.46376 0.35095 0.66394 0.0
C397 C 0.42939 0.3778 0.66391 0.0
O398 O 0.46424 0.27726 0.63276 0.0
O399 O 0.4551 0.25284 0.66728 0.0
O400 O 0.48907 0.35243 0.6718 0.0
C401 C 0.45845 0.23853 0.64581 0.0
O402 O 0.43058 0.36397 0.64154 0.0
C403 C 0.48786 0.33773 0.69399 0.0
O404 O 0.44003 0.37814 0.67813 0.0
O405 O 0.47545 0.33595 0.70282 0.0
C406 C 0.31008 0.27585 0.64174 0.0
O407 O 0.31245 0.30901 0.62372 0.0
Cd408 Cd 0.31784 0.40909 0.62546 0.0
O409 O 0.3105 0.29512 0.66351 0.0
Cd410 Cd 0.31383 0.39257 0.68289 0.0
C411 C 0.34697 0.41202 0.66413 0.0
O412 O 0.30038 0.44334 0.65206 0.0
O413 O 0.31245 0.49698 0.67645 0.0
O414 O 0.29365 0.36711 0.70774 0.0
C415 C 0.30309 0.49338 0.66013 0.0
O416 O 0.34091 0.42087 0.64378 0.0
C417 C 0.29701 0.39943 0.72546 0.0
O418 O 0.33994 0.39465 0.68257 0.0
O419 O 0.30938 0.42067 0.72517 0.0
C420 C 0.43918 0.2692 0.10798 0.0
O421 O 0.4296 0.28501 0.12268 0.0
Cd422 Cd 0.411 0.3489 0.11225 0.0
O423 O 0.43971 0.29025 0.08651 0.0
Cd424 Cd 0.42727 0.3698 0.06397 0.0
C425 C 0.39719 0.29651 0.05833 0.0
O426 O 0.42215 0.43402 0.09781 0.0
O427 O 0.41184 0.454 0.06372 0.0
O428 O 0.45005 0.41478 0.05734 0.0
C429 C 0.41514 0.46963 0.08503 0.0
O430 O 0.39644 0.30489 0.08116 0.0
C431 C 0.44859 0.42252 0.03466 0.0
O432 O 0.40774 0.31438 0.04605 0.0
O433 O 0.43759 0.40111 0.02494 0.0
C434 C 0.29446 0.46183 0.08784 0.0
O435 O 0.29848 0.4235 0.10297 0.0
Cd436 Cd 0.29901 0.32084 0.09793 0.0
O437 O 0.28941 0.44756 0.06715 0.0
Cd438 Cd 0.28411 0.35465 0.04579 0.0
C439 C 0.31839 0.31631 0.04418 0.0
O440 O 0.27735 0.29703 0.08041 0.0
O441 O 0.28233 0.24926 0.048 0.0
O442 O 0.25987 0.37695 0.03606 0.0
C443 C 0.27802 0.24845 0.06981 0.0
O444 O 0.31657 0.30364 0.06656 0.0
C445 C 0.26081 0.3611 0.01401 0.0
O446 O 0.30875 0.34153 0.03184 0.0
O447 O 0.27316 0.3517 0.00577 0.0
H448 H 0.10808 0.00795 0.30945 0.0
H449 H 0.10937 0.16413 0.26649 0.0
H450 H 0.13501 0.15423 0.26181 0.0
H451 H 0.15723 0.11326 0.27833 0.0
H452 H 0.15538 0.96048 0.32373 0.0
H453 H 0.12988 0.95577 0.31862 0.0
C454 C 0.11394 0.0382 0.29814 0.0
C455 C 0.107 0.08651 0.28828 0.0
C456 C 0.12864 0.03337 0.29643 0.0
C457 C 0.11457 0.12617 0.27394 0.0
C458 C 0.12925 0.12093 0.2716 0.0
C459 C 0.15127 0.07784 0.28633 0.0
C460 C 0.15809 0.03795 0.30178 0.0
C461 C 0.13647 0.07654 0.28399 0.0
C462 C 0.15029 -0.00776 0.3121 0.0
C463 C 0.1357 -0.01042 0.30925 0.0
H464 H 0.11965 0.21715 0.91632 0.0
H465 H 0.12515 0.07507 0.9665 0.0
H466 H 0.09943 0.06747 0.97144 0.0
H467 H 0.0755 0.09113 0.95564 0.0
H468 H 0.07078 0.23072 0.90397 0.0
H469 H 0.09605 0.25065 0.90581 0.0
C470 C 0.1152 0.18525 0.9287 0.0
C471 C 0.12415 0.14601 0.94069 0.0
C472 C 0.10055 0.18081 0.9311 0.0
C473 C 0.11838 0.10553 0.95702 0.0
C474 C 0.1037 0.10102 0.95971 0.0
C475 C 0.08001 0.12718 0.94557 0.0
C476 C 0.07145 0.15967 0.92974 0.0
C477 C 0.09467 0.13699 0.94608 0.0
C478 C 0.07729 0.20557 0.91632 0.0
C479 C 0.09171 0.2166 0.91722 0.0
H480 H 0.91508 0.83375 0.7184 0.0
H481 H 0.91671 0.975 0.66701 0.0
H482 H 0.89165 -0.0054 0.67349 0.0
H483 H 0.86874 0.95944 0.68752 0.0
H484 H 0.86641 0.81475 0.73718 0.0
H485 H 0.89226 0.8089 0.73807 0.0
C486 C 0.91002 0.87029 0.70949 0.0
C487 C 0.91763 0.9034 0.69245 0.0
C488 C 0.89544 0.87967 0.71259 0.0
C489 C 0.911 0.94966 0.68043 0.0
C490 C 0.89667 0.96038 0.68393 0.0
C491 C 0.87391 0.92742 0.69896 0.0
C492 C 0.86574 0.88687 0.7119 0.0
C493 C 0.88867 0.92379 0.69898 0.0
C494 C 0.87251 0.84624 0.72698 0.0
C495 C 0.88728 0.84269 0.72735 0.0
H496 H 0.87515 0.86848 0.03007 0.0
H497 H 0.8727 0.71945 0.07743 0.0
H498 H 0.84711 0.71662 0.07259 0.0
H499 H 0.82553 0.76785 0.06177 0.0
H500 H 0.82739 0.92188 0.01724 0.0
H501 H 0.85309 0.9112 0.01366 0.0
C502 C 0.86902 0.83413 0.03849 0.0
C503 C 0.8757 0.79419 0.05409 0.0
C504 C 0.85421 0.83462 0.03658 0.0
C505 C 0.86771 0.75045 0.06533 0.0
C506 C 0.85309 0.74918 0.06274 0.0
C507 C 0.83154 0.79847 0.05087 0.0
C508 C 0.82468 0.84625 0.04022 0.0
C509 C 0.84622 0.79288 0.04951 0.0
C510 C 0.83248 0.88494 0.02573 0.0
C511 C 0.84717 0.87902 0.02383 0.0
H512 H 0.11969 0.50314 0.83037 0.0
H513 H 0.11819 0.65696 0.78594 0.0
H514 H 0.14397 0.65482 0.78145 0.0
H515 H 0.16701 0.61987 0.79752 0.0
H516 H 0.16778 0.46771 0.84337 0.0
H517 H 0.14232 0.45736 0.83946 0.0
C518 C 0.125 0.53479 0.81893 0.0
C519 C 0.1172 0.58009 0.80852 0.0
C520 C 0.13975 0.53394 0.81701 0.0
C521 C 0.12407 0.62133 0.79389 0.0
C522 C 0.13881 0.62046 0.79159 0.0
C523 C 0.16162 0.58338 0.80587 0.0
C524 C 0.16918 0.54513 0.82102 0.0
C525 C 0.14682 0.57858 0.80411 0.0
C526 C 0.16211 0.49811 0.83188 0.0
C527 C 0.14755 0.49226 0.82974 0.0
H528 H 0.08124 0.7005 0.38997 0.0
H529 H 0.07526 0.62215 0.46047 0.0
H530 H 0.10086 0.62475 0.4676 0.0
H531 H 0.12511 0.6388 0.45122 0.0
H532 H 0.13015 0.71695 0.38013 0.0
H533 H 0.10478 0.72504 0.37591 0.0
C534 C 0.08553 0.68487 0.40708 0.0
C535 C 0.07649 0.66058 0.42454 0.0
C536 C 0.10012 0.68575 0.4108 0.0
C537 C 0.08209 0.64119 0.44678 0.0
C538 C 0.09671 0.64218 0.45074 0.0
C539 C 0.12065 0.65822 0.43497 0.0
C540 C 0.12957 0.67603 0.41583 0.0
C541 C 0.10588 0.66267 0.4325 0.0
C542 C 0.12359 0.70178 0.395 0.0
C543 C 0.10905 0.70665 0.39253 0.0
H544 H 0.89144 0.32006 0.20906 0.0
H545 H 0.9061 0.48991 0.18832 0.0
H546 H 0.88184 0.52629 0.18843 0.0
H547 H 0.8566 0.50237 0.18457 0.0
H548 H 0.84188 0.33227 0.20513 0.0
H549 H 0.86598 0.3034 0.2156 0.0
C550 C 0.88932 0.3657 0.20582 0.0
C551 C 0.90041 0.40245 0.19871 0.0
C552 C 0.87533 0.38574 0.20536 0.0
C553 C 0.89767 0.46126 0.19414 0.0
C554 C 0.88379 0.48175 0.19384 0.0
C555 C 0.85864 0.45973 0.19222 0.0
C556 C 0.84762 0.41907 0.1937 0.0
C557 C 0.87252 0.44339 0.19793 0.0
C558 C 0.85025 0.36416 0.20382 0.0
C559 C 0.86404 0.3475 0.20958 0.0
H560 H 0.88771 0.21313 0.5967 0.0
H561 H 0.88804 0.33448 0.53698 0.0
H562 H 0.86221 0.33124 0.53508 0.0
H563 H 0.83973 0.30936 0.55631 0.0
H564 H 0.8401 0.19132 0.61746 0.0
H565 H 0.86538 0.17729 0.61274 0.0
C566 C 0.88212 0.23735 0.58275 0.0
C567 C 0.88965 0.27461 0.56728 0.0
C568 C 0.86736 0.23683 0.5824 0.0
C569 C 0.88241 0.30541 0.54908 0.0
C570 C 0.86764 0.30416 0.54823 0.0
C571 C 0.8453 0.2795 0.56817 0.0
C572 C 0.83813 0.25271 0.58762 0.0
C573 C 0.85999 0.27248 0.5657 0.0
C574 C 0.84545 0.21363 0.60272 0.0
C575 C 0.85991 0.20543 0.60003 0.0
H576 H 0.66262 0.11868 0.80346 0.0
H577 H 0.66495 0.26048 0.85428 0.0
H578 H 0.63968 0.27792 0.84992 0.0
H579 H 0.6166 0.24152 0.83774 0.0
H580 H 0.6135 0.09688 0.7885 0.0
H581 H 0.63934 0.09203 0.78583 0.0
C582 C 0.65763 0.15475 0.81276 0.0
C583 C 0.66555 0.18844 0.82913 0.0
C584 C 0.64293 0.163 0.81089 0.0
C585 C 0.65901 0.23432 0.84152 0.0
C586 C 0.64456 0.24391 0.83921 0.0
C587 C 0.62159 0.20962 0.82605 0.0
C588 C 0.61322 0.16892 0.8137 0.0
C589 C 0.63634 0.2067 0.82493 0.0
C590 C 0.61976 0.1285 0.79827 0.0
C591 C 0.63453 0.12555 0.79686 0.0
H592 H 0.64661 0.03572 0.45754 0.0
H593 H 0.63916 0.21334 0.43663 0.0
H594 H 0.61389 0.20167 0.44437 0.0
H595 H 0.59376 0.13579 0.44884 0.0
H596 H 0.60099 0.95447 0.46296 0.0
H597 H 0.62638 0.97226 0.46685 0.0
C598 C 0.63945 0.07219 0.45552 0.0
C599 C 0.64459 0.12526 0.44661 0.0
C600 C 0.62486 0.06406 0.45862 0.0
C601 C 0.63532 0.17214 0.44349 0.0
C602 C 0.6209 0.16538 0.44781 0.0
C603 C 0.60089 0.10084 0.45382 0.0
C604 C 0.59565 0.04421 0.45603 0.0
C605 C 0.61549 0.11083 0.45425 0.0
C606 C 0.60489 -0.00145 0.46162 0.0
C607 C 0.61939 0.00866 0.46353 0.0
H608 H 0.36238 -0.00382 0.16012 0.0
H609 H 0.35968 0.85398 0.211 0.0
H610 H 0.38539 0.85564 0.21614 0.0
H611 H 0.40859 0.8843 0.19929 0.0
H612 H 0.41075 0.02123 0.14586 0.0
H613 H 0.38532 0.03646 0.14914 0.0
C614 C 0.36741 0.96634 0.17273 0.0
C615 C 0.35927 0.92409 0.18472 0.0
C616 C 0.38211 0.96677 0.17508 0.0
C617 C 0.36579 0.88653 0.20142 0.0
C618 C 0.38048 0.88732 0.20424 0.0
C619 C 0.40354 0.91914 0.18924 0.0
C620 C 0.41142 0.9516 0.17231 0.0
C621 C 0.38879 0.92542 0.19025 0.0
C622 C 0.40482 -0.00405 0.15901 0.0
C623 C 0.39028 0.00415 0.16067 0.0
H624 H 0.33204 0.75154 0.53316 0.0
H625 H 0.32447 0.93032 0.51431 0.0
H626 H 0.34971 0.94453 0.50664 0.0
H627 H 0.374 0.91187 0.51595 0.0
H628 H 0.3813 0.73405 0.53653 0.0
H629 H 0.35616 0.71278 0.53223 0.0
C630 C 0.33589 0.79285 0.52633 0.0
C631 C 0.32656 0.84004 0.52457 0.0
C632 C 0.3504 0.80089 0.52262 0.0
C633 C 0.33152 0.89341 0.51569 0.0
C634 C 0.34597 0.90168 0.51163 0.0
C635 C 0.37012 0.8679 0.51822 0.0
C636 C 0.37936 0.82439 0.52643 0.0
C637 C 0.35557 0.85666 0.51652 0.0
C638 C 0.37432 0.7678 0.52989 0.0
C639 C 0.35993 0.7559 0.52775 0.0
H640 H 0.63605 0.59852 0.34224 0.0
H641 H 0.63728 0.5672 0.26494 0.0
H642 H 0.61131 0.5644 0.26397 0.0
H643 H 0.58824 0.56714 0.28604 0.0
H644 H 0.5884 0.59889 0.3636 0.0
H645 H 0.61386 0.60474 0.36339 0.0
C646 C 0.6307 0.59099 0.32508 0.0
C647 C 0.63858 0.58236 0.30375 0.0
C648 C 0.61598 0.58919 0.32474 0.0
C649 C 0.63143 0.5739 0.28164 0.0
C650 C 0.6166 0.57202 0.28113 0.0
C651 C 0.59387 0.57531 0.30284 0.0
C652 C 0.58632 0.58218 0.32481 0.0
C653 C 0.60875 0.57891 0.3027 0.0
C654 C 0.59381 0.59324 0.3464 0.0
C655 C 0.60844 0.59667 0.34637 0.0
H656 H 0.62761 0.48719 0.94122 0.0
H657 H 0.63166 0.64885 0.97973 0.0
H658 H 0.60616 0.65112 0.98673 0.0
H659 H 0.5826 0.6198 0.97217 0.0
H660 H 0.57911 0.46151 0.93094 0.0
H661 H 0.60436 0.4444 0.93514 0.0
C662 C 0.62295 0.52163 0.95201 0.0
C663 C 0.63136 0.56829 0.95951 0.0
C664 C 0.60828 0.52381 0.955 0.0
C665 C 0.62533 0.61246 0.97371 0.0
C666 C 0.61071 0.61419 0.9774 0.0
C667 C 0.58733 0.58054 0.96498 0.0
C668 C 0.57916 0.54256 0.95084 0.0
C669 C 0.60201 0.57209 0.96668 0.0
C670 C 0.58532 0.49178 0.94155 0.0
C671 C 0.59975 0.48206 0.94387 0.0
H672 H 0.36616 0.3682 0.69714 0.0
H673 H 0.3625 0.47838 0.63372 0.0
H674 H 0.38797 0.48468 0.63064 0.0
H675 H 0.4111 0.44856 0.64214 0.0
H676 H 0.41574 0.3372 0.70461 0.0
H677 H 0.39019 0.34265 0.71228 0.0
C678 C 0.37097 0.39433 0.68295 0.0
C679 C 0.36241 0.42159 0.66535 0.0
C680 C 0.38581 0.39741 0.68104 0.0
C681 C 0.3688 0.45578 0.64718 0.0
C682 C 0.3834 0.45966 0.64541 0.0
C683 C 0.40654 0.42666 0.65779 0.0
C684 C 0.41514 0.3923 0.67269 0.0
C685 C 0.39196 0.42906 0.66166 0.0
C686 C 0.40924 0.36426 0.693 0.0
C687 C 0.39463 0.36687 0.69719 0.0
H688 H 0.3354 0.22586 0.05344 0.0
H689 H 0.33327 0.38573 0.01282 0.0
H690 H 0.35896 0.38461 0.00759 0.0
H691 H 0.38191 0.35098 0.0238 0.0
H692 H 0.38347 0.1965 0.06799 0.0
H693 H 0.35822 0.1812 0.06198 0.0
C694 C 0.34054 0.25943 0.04276 0.0
C695 C 0.33258 0.30643 0.03397 0.0
C696 C 0.35527 0.25948 0.04067 0.0
C697 C 0.33924 0.34927 0.01984 0.0
C698 C 0.35394 0.34887 0.01707 0.0
C699 C 0.3768 0.31248 0.03102 0.0
C700 C 0.38442 0.27483 0.04632 0.0
C701 C 0.3621 0.30604 0.02868 0.0
C702 C 0.37774 0.2257 0.05607 0.0
C703 C 0.36329 0.21743 0.05289 0.0
H704 H 0.03339 0.23671 0.23632 0.0
H705 H 0.00806 0.13987 0.28759 0.0
H706 H 0.98682 0.18817 0.27286 0.0
H707 H 0.97542 0.25859 0.24587 0.0
H708 H 0.00035 0.35295 0.19338 0.0
H709 H 0.02183 0.30613 0.20857 0.0
C710 C 0.02319 0.22553 0.244 0.0
C711 C 0.02232 0.18452 0.26295 0.0
C712 C 0.011 0.25405 0.23564 0.0
C713 C 0.00903 0.17104 0.2729 0.0
C714 C -0.00312 0.199 0.26464 0.0
C715 C 0.98559 0.26973 0.23807 0.0
C716 C 0.98636 0.30984 0.21883 0.0
C717 C -0.00223 0.2411 0.24626 0.0
C718 C -0.00045 0.32269 0.20843 0.0
C719 C 0.01179 0.29554 0.21695 0.0
H720 H 0.22971 -0.00619 0.24921 0.0
H721 H 0.25505 0.13725 0.27417 0.0
H722 H 0.27651 0.08662 0.26115 0.0
H723 H 0.28796 0.00058 0.24354 0.0
H724 H 0.26244 0.85654 0.21959 0.0
H725 H 0.24109 0.90757 0.23241 0.0
C726 C 0.2399 0.01469 0.25128 0.0
C727 C 0.24079 0.06974 0.26218 0.0
C728 C 0.25214 0.98431 0.24479 0.0
C729 C 0.2541 0.09536 0.26541 0.0
C730 C 0.26636 0.06607 0.25831 0.0
C731 C 0.27775 0.97974 0.24167 0.0
C732 C 0.27679 0.92453 0.23089 0.0
C733 C 0.26551 0.01008 0.24839 0.0
C734 C 0.26346 0.89869 0.2281 0.0
C735 C 0.25125 0.92817 0.23511 0.0
H736 H 0.97571 0.04485 0.94638 0.0
H737 H 0.00096 0.09085 0.00876 0.0
H738 H 0.98496 0.0368 0.03531 0.0
H739 H 0.96485 0.97113 0.04038 0.0
H740 H 0.93966 0.92391 0.97813 0.0
H741 H 0.95477 0.98323 0.95181 0.0
C742 C 0.97757 0.04404 0.96584 0.0
C743 C 0.98953 0.07189 0.97557 0.0
C744 C 0.96854 0.01162 0.98091 0.0
C745 C 0.99183 0.06995 0.00081 0.0
C746 C 0.98275 0.03863 0.01598 0.0
C747 C 0.96269 0.97352 0.02103 0.0
C748 C 0.95127 0.94246 0.01115 0.0
C749 C 0.9713 0.00814 0.00613 0.0
C750 C 0.94847 0.94693 0.98612 0.0
C751 C 0.95706 0.98105 0.97111 0.0
H752 H 0.21891 0.21215 0.9527 0.0
H753 H 0.19469 0.22167 0.01909 0.0
H754 H 0.21228 0.28778 0.03648 0.0
H755 H 0.23492 0.33941 0.03308 0.0
H756 H 0.25886 0.32949 0.96631 0.0
H757 H 0.24054 0.26873 0.94829 0.0
C758 C 0.21756 0.22793 0.97114 0.0
C759 C 0.20572 0.21079 0.98491 0.0
C760 C 0.22743 0.26702 0.98062 0.0
C761 C 0.20387 0.23331 0.00839 0.0
C762 C 0.21384 0.27151 0.01819 0.0
C763 C 0.23598 0.32521 0.01437 0.0
C764 C 0.24827 0.33895 0.00105 0.0
C765 C 0.22565 0.28861 0.00444 0.0
C766 C 0.2495 0.31974 0.97691 0.0
C767 C 0.23913 0.28436 0.96672 0.0
H768 H 0.98916 0.75235 0.74655 0.0
H769 H 0.01752 0.8396 0.6972 0.0
H770 H 0.03767 0.78944 0.71569 0.0
H771 H 0.04709 0.7196 0.74567 0.0
H772 H 0.01824 0.6292 0.79339 0.0
H773 H -0.00162 0.6806 0.77527 0.0
C774 C -0.00022 0.76118 0.74015 0.0
C775 C 0.00192 0.8004 0.7209 0.0
C776 C 0.01118 0.73055 0.75017 0.0
C777 C 0.01568 0.81014 0.71226 0.0
C778 C 0.02716 0.78109 0.72266 0.0
C779 C 0.03643 0.71049 0.75183 0.0
C780 C 0.03417 0.67051 0.77083 0.0
C781 C 0.02501 0.74067 0.74146 0.0
C782 C 0.0203 0.65959 0.77874 0.0
C783 C 0.00892 0.68932 0.76854 0.0
H784 H 0.75944 0.02898 0.82563 0.0
H785 H 0.73277 0.03052 0.76195 0.0
H786 H 0.74892 0.96423 0.7414 0.0
H787 H 0.77057 0.9069 0.74128 0.0
H788 H 0.79824 0.90962 0.80355 0.0
H789 H 0.78145 0.97189 0.82529 0.0
C790 C 0.75721 0.01524 0.80717 0.0
C791 C 0.74492 0.03497 0.7953 0.0
C792 C 0.76654 0.97692 0.79546 0.0
C793 C 0.74219 0.01648 0.77143 0.0
C794 C 0.75136 0.97813 0.75974 0.0
C795 C 0.77281 0.91998 0.75983 0.0
C796 C 0.78552 0.9028 0.77099 0.0
C797 C 0.76349 0.95781 0.77165 0.0
C798 C 0.78843 0.92157 0.79474 0.0
C799 C 0.77891 0.95765 0.80703 0.0
H800 H 0.71594 0.77942 0.93695 0.0
H801 H 0.68967 0.78309 0.00117 0.0
H802 H 0.70547 0.85384 0.01982 0.0
H803 H 0.72805 0.90483 0.01984 0.0
H804 H 0.75536 0.89513 0.95707 0.0
H805 H 0.73753 0.83853 0.93545 0.0
C806 C 0.71363 0.79589 0.95499 0.0
C807 C 0.7018 0.77509 0.96787 0.0
C808 C 0.72286 0.83601 0.96572 0.0
C809 C 0.69882 0.79766 0.99103 0.0
C810 C 0.70782 0.83832 0.00166 0.0
C811 C 0.72998 0.89185 0.00117 0.0
C812 C 0.74309 0.90379 0.99016 0.0
C813 C 0.72004 0.85665 0.98941 0.0
C814 C 0.74537 0.88647 0.96598 0.0
C815 C 0.73525 0.85345 0.95373 0.0
H816 H 0.24022 0.49311 0.76828 0.0
H817 H 0.26686 0.63736 0.78763 0.0
H818 H 0.2875 0.58587 0.77138 0.0
H819 H 0.29776 0.4998 0.75138 0.0
H820 H 0.27089 0.3546 0.7338 0.0
H821 H 0.25057 0.40566 0.7507 0.0
C822 C 0.2505 0.51384 0.76849 0.0
C823 C 0.25198 0.56965 0.77847 0.0
C824 C 0.2623 0.48301 0.7602 0.0
C825 C 0.26544 0.59499 0.7795 0.0
C826 C 0.27724 0.56524 0.77052 0.0
C827 C 0.28754 0.47868 0.75184 0.0
C828 C 0.28586 0.42328 0.74142 0.0
C829 C 0.2758 0.50897 0.76103 0.0
C830 C 0.27249 0.39698 0.74184 0.0
C831 C 0.26083 0.42647 0.75119 0.0
H832 H 0.98141 0.55504 0.44906 0.0
H833 H 0.00821 0.60313 0.5092 0.0
H834 H -0.00579 0.54237 0.53657 0.0
H835 H 0.9755 0.47064 0.54273 0.0
H836 H 0.94881 0.42124 0.48267 0.0
H837 H 0.96186 0.48684 0.45572 0.0
C838 C 0.98403 0.55322 0.46825 0.0
C839 C -0.00416 0.58365 0.47709 0.0
C840 C 0.97619 0.51688 0.48371 0.0
C841 C -0.00085 0.58034 0.50196 0.0
C842 C 0.99123 0.54517 0.51756 0.0
C843 C 0.97258 0.47384 0.5237 0.0
C844 C 0.96134 0.44044 0.5146 0.0
C845 C 0.97998 0.51214 0.50848 0.0
C846 C 0.95752 0.44599 0.49003 0.0
C847 C 0.96493 0.48375 0.47467 0.0
H848 H 0.19239 0.74753 0.50326 0.0
H849 H 0.21723 0.59174 0.49491 0.0
H850 H 0.2385 0.64496 0.50612 0.0
H851 H 0.25034 0.73736 0.51378 0.0
H852 H 0.22588 0.89317 0.52363 0.0
H853 H 0.20407 0.83868 0.5155 0.0
C854 C 0.20237 0.72471 0.50471 0.0
C855 C 0.20323 0.66565 0.49818 0.0
C856 C 0.21465 0.75612 0.51034 0.0
C857 C 0.21628 0.63701 0.49992 0.0
C858 C 0.22848 0.66765 0.50594 0.0
C859 C 0.24023 0.75954 0.51377 0.0
C860 C 0.23967 0.81949 0.51828 0.0
C861 C 0.22785 0.72758 0.51015 0.0
C862 C 0.22652 0.84734 0.51944 0.0
C863 C 0.2141 0.81605 0.5151 0.0
H864 H 0.76966 0.5322 0.21847 0.0
H865 H 0.74869 0.3802 0.19069 0.0
H866 H 0.72579 0.42006 0.20315 0.0
H867 H 0.71195 0.49711 0.22319 0.0
H868 H 0.73322 0.64958 0.25004 0.0
H869 H 0.75579 0.61156 0.23574 0.0
C870 C 0.7601 0.50737 0.21548 0.0
C871 C 0.76086 0.45268 0.20429 0.0
C872 C 0.74702 0.5314 0.22189 0.0
C873 C 0.74835 0.4219 0.19973 0.0
C874 C 0.73527 0.44495 0.20661 0.0
C875 C 0.72146 0.52275 0.22528 0.0
C876 C 0.72091 0.57622 0.2376 0.0
C877 C 0.73448 0.49978 0.21766 0.0
C878 C 0.73337 0.60849 0.24051 0.0
C879 C 0.7463 0.58643 0.23262 0.0
H880 H 0.74608 0.28554 0.55255 0.0
H881 H 0.77707 0.29564 0.49511 0.0
H882 H 0.76211 0.2352 0.46913 0.0
H883 H 0.74066 0.17663 0.46353 0.0
H884 H 0.71019 0.16442 0.52178 0.0
H885 H 0.72485 0.22698 0.54712 0.0
C886 C 0.74944 0.27573 0.53413 0.0
C887 C 0.76256 0.29582 0.52559 0.0
C888 C 0.74112 0.23899 0.51981 0.0
C889 C 0.76691 0.2814 0.50193 0.0
C890 C 0.75845 0.24622 0.48723 0.0
C891 C 0.73735 0.18676 0.48193 0.0
C892 C 0.72441 0.16542 0.49086 0.0
C893 C 0.74568 0.2238 0.49619 0.0
C894 C 0.72016 0.17981 0.51458 0.0
C895 C 0.72846 0.21611 0.52896 0.0
H896 H 0.48718 0.25111 0.72683 0.0
H897 H 0.51573 0.36687 0.68964 0.0
H898 H 0.53593 0.31782 0.70854 0.0
H899 H 0.54533 0.24252 0.7361 0.0
H900 H 0.51651 0.12434 0.77157 0.0
H901 H 0.49656 0.17264 0.75219 0.0
C902 C 0.49782 0.26619 0.72319 0.0
C903 C 0.49999 0.31338 0.70739 0.0
C904 C 0.50932 0.23641 0.73331 0.0
C905 C 0.51383 0.33124 0.70212 0.0
C906 C 0.52536 0.30287 0.71272 0.0
C907 C 0.53471 0.22654 0.73918 0.0
C908 C 0.53244 0.17982 0.75529 0.0
C909 C 0.52323 0.25515 0.72825 0.0
C910 C 0.51858 0.16003 0.75921 0.0
C911 C 0.50714 0.18802 0.74834 0.0
H912 H 0.47601 0.92949 0.5381 0.0
H913 H 0.453 0.93284 0.47035 0.0
H914 H 0.47265 0.98345 0.45071 0.0
H915 H 0.49647 0.0246 0.45262 0.0
H916 H 0.51971 0.01911 0.5201 0.0
H917 H 0.49959 0.97302 0.54028 0.0
C918 C 0.47532 0.94077 0.51897 0.0
C919 C 0.46311 0.92677 0.50562 0.0
C920 C 0.48656 0.97053 0.50792 0.0
C921 C 0.46233 0.94255 0.48096 0.0
C922 C 0.47351 0.97189 0.46978 0.0
C923 C 0.49705 0.01446 0.47188 0.0
C924 C 0.50955 0.02565 0.4849 0.0
C925 C 0.48565 0.98621 0.48311 0.0
C926 C 0.51018 0.01135 0.50973 0.0
C927 C 0.49874 0.98446 0.5212 0.0
H928 H 0.49651 0.7337 0.18366 0.0
H929 H 0.46771 0.76797 0.2429 0.0
H930 H 0.47878 0.69175 0.26702 0.0
H931 H 0.4968 0.61749 0.27178 0.0
H932 H 0.52716 0.58784 0.21461 0.0
H933 H 0.51494 0.65872 0.18871 0.0
C934 C 0.49275 0.72485 0.20194 0.0
C935 C 0.48134 0.75683 0.21151 0.0
C936 C 0.49919 0.68087 0.21579 0.0
C937 C 0.47655 0.74455 0.23516 0.0
C938 C 0.48278 0.70052 0.24889 0.0
C939 C 0.50056 0.62529 0.25341 0.0
C940 C 0.51272 0.59663 0.24493 0.0
C941 C 0.49404 0.66832 0.23935 0.0
C942 C 0.51768 0.60865 0.22136 0.0
C943 C 0.51081 0.64971 0.20673 0.0
H944 H 0.47194 0.47671 0.052 0.0
H945 H 0.44748 0.45241 0.98656 0.0
H946 H 0.46329 0.5177 0.96447 0.0
H947 H 0.48461 0.57737 0.96324 0.0
H948 H 0.51 0.59683 0.02782 0.0
H949 H 0.49293 0.5393 0.05107 0.0
C950 C 0.47008 0.48548 0.03288 0.0
C951 C 0.45863 0.45918 0.02087 0.0
C952 C 0.47921 0.52304 0.0203 0.0
C953 C 0.45631 0.4715 0.99616 0.0
C954 C 0.46528 0.50919 0.98357 0.0
C955 C 0.48624 0.57037 0.98256 0.0
C956 C 0.49849 0.5918 0.99387 0.0
C957 C 0.47678 0.53496 0.99543 0.0
C958 C 0.50059 0.58126 0.01879 0.0
C959 C 0.49092 0.54781 0.03199 0.0
H960 H 0.03771 0.49404 0.35881 0.0
H961 H 0.03891 0.41088 0.42922 0.0
H962 H 0.04961 0.32463 0.41113 0.0
H963 H 0.05806 0.2728 0.37538 0.0
H964 H 0.05759 0.35621 0.305 0.0
H965 H 0.04758 0.44393 0.32322 0.0
C966 C 0.04023 0.45682 0.37011 0.0
C967 C 0.03738 0.45805 0.39518 0.0
C968 C 0.04672 0.40828 0.35973 0.0
C969 C 0.04093 0.41029 0.40981 0.0
C970 C 0.0471 0.36131 0.39953 0.0
C971 C 0.05591 0.31045 0.36407 0.0
C972 C 0.05843 0.30821 0.33893 0.0
C973 C 0.05003 0.35994 0.37455 0.0
C974 C 0.05577 0.35725 0.32445 0.0
C975 C 0.04992 0.40703 0.3348 0.0
H976 H 0.20591 0.74278 0.37799 0.0
H977 H 0.19152 0.84427 0.43908 0.0
H978 H 0.20102 0.93222 0.42034 0.0
H979 H 0.20993 0.98122 0.384 0.0
H980 H 0.22169 0.88086 0.32099 0.0
H981 H 0.21712 0.79093 0.34335 0.0
C982 C 0.20507 0.78402 0.38737 0.0
C983 C 0.19783 0.78758 0.40958 0.0
C984 C 0.21009 0.83441 0.37612 0.0
C985 C 0.19685 0.84098 0.42169 0.0
C986 C 0.2023 0.89112 0.41104 0.0
C987 C 0.21186 0.93962 0.37541 0.0
C988 C 0.21597 0.93721 0.35091 0.0
C989 C 0.20844 0.88857 0.38786 0.0
C990 C 0.2184 0.88331 0.33985 0.0
C991 C 0.21571 0.83208 0.35254 0.0
H992 H 0.03969 0.97201 0.86569 0.0
H993 H 0.03408 0.89118 0.93589 0.0
H994 H 0.04633 0.8042 0.9216 0.0
H995 H 0.0586 0.75186 0.88925 0.0
H996 H 0.06535 0.83432 0.81961 0.0
H997 H 0.05302 0.9211 0.83382 0.0
C998 C 0.04102 0.93499 0.8777 0.0
C999 C 0.03584 0.93711 0.90161 0.0
C1000 C 0.04849 0.88624 0.86964 0.0
C1001 C 0.03789 0.8898 0.9173 0.0
C1002 C 0.04496 0.84043 0.90921 0.0
C1003 C 0.05748 0.78905 0.87726 0.0
C1004 C 0.06281 0.78678 0.85344 0.0
C1005 C 0.05036 0.83839 0.88548 0.0
C1006 C 0.0614 0.83528 0.83811 0.0
C1007 C 0.05424 0.88462 0.84612 0.0
H1008 H 0.21082 0.48403 0.89608 0.0
H1009 H 0.23098 0.38417 0.83965 0.0
H1010 H 0.21904 0.29653 0.85396 0.0
H1011 H 0.20009 0.25292 0.87785 0.0
H1012 H 0.17781 0.35556 0.93116 0.0
H1013 H 0.19286 0.43881 0.92186 0.0
C1014 C 0.21279 0.443 0.8872 0.0
C1015 C 0.22153 0.44049 0.86661 0.0
C1016 C 0.20505 0.39408 0.89428 0.0
C1017 C 0.22423 0.3868 0.85555 0.0
C1018 C 0.21724 0.33706 0.86345 0.0
C1019 C 0.1985 0.29352 0.88743 0.0
C1020 C 0.18769 0.29853 0.90481 0.0
C1021 C 0.20709 0.341 0.88192 0.0
C1022 C 0.18589 0.35107 0.91734 0.0
C1023 C 0.19459 0.39842 0.91224 0.0
H1024 H 0.94416 0.70529 0.62378 0.0
H1025 H 0.95296 0.62329 0.69275 0.0
H1026 H 0.94306 0.53195 0.67774 0.0
H1027 H 0.93441 0.47413 0.6435 0.0
H1028 H 0.92515 0.55716 0.57487 0.0
H1029 H 0.93225 0.65089 0.59165 0.0
C1030 C 0.94381 0.66753 0.63556 0.0
C1031 C 0.94952 0.67007 0.65906 0.0
C1032 C 0.93791 0.61603 0.62699 0.0
C1033 C 0.94875 0.62158 0.67445 0.0
C1034 C 0.94308 0.56967 0.66592 0.0
C1035 C 0.93367 0.51303 0.63245 0.0
C1036 C 0.92954 0.50913 0.60802 0.0
C1037 C 0.93796 0.56619 0.64203 0.0
C1038 C 0.92835 0.55952 0.59382 0.0
C1039 C 0.93254 0.61283 0.60326 0.0
H1040 H 0.79218 0.97368 0.65094 0.0
H1041 H 0.80643 0.0769 0.71158 0.0
H1042 H 0.79619 0.16371 0.693 0.0
H1043 H 0.78576 0.21117 0.65747 0.0
H1044 H 0.77424 0.1092 0.59484 0.0
H1045 H 0.7802 0.02014 0.61678 0.0
C1046 C 0.79295 0.01509 0.6602 0.0
C1047 C 0.80023 0.0193 0.68234 0.0
C1048 C 0.78737 0.06472 0.64917 0.0
C1049 C 0.80106 0.07298 0.69427 0.0
C1050 C 0.79515 0.12246 0.68374 0.0
C1051 C 0.78429 0.16942 0.6488 0.0
C1052 C 0.77978 0.16644 0.62453 0.0
C1053 C 0.78862 0.11901 0.6609 0.0
C1054 C 0.77779 0.11218 0.61353 0.0
C1055 C 0.78133 0.06147 0.62595 0.0
H1056 H 0.92796 0.20766 0.12566 0.0
H1057 H 0.93854 0.11909 0.19242 0.0
H1058 H 0.93012 0.02729 0.17512 0.0
H1059 H 0.9222 0.97214 0.13935 0.0
H1060 H 0.91107 0.06321 0.07335 0.0
H1061 H 0.91677 0.15562 0.09253 0.0
C1062 C 0.92826 0.16853 0.1366 0.0
C1063 C 0.93406 0.16949 0.16006 0.0
C1064 C 0.92322 0.11693 0.12676 0.0
C1065 C 0.93421 0.11879 0.17419 0.0
C1066 C 0.92941 0.06659 0.16433 0.0
C1067 C 0.92078 0.0124 0.12937 0.0
C1068 C 0.91651 0.01121 0.1049 0.0
C1069 C 0.92423 0.06508 0.1404 0.0
C1070 C 0.91443 0.06331 0.09218 0.0
C1071 C 0.9178 0.11598 0.10305 0.0
H1072 H 0.7881 0.54613 0.09585 0.0
H1073 H 0.79113 0.63867 0.16387 0.0
H1074 H 0.78016 0.72378 0.14512 0.0
H1075 H 0.77108 0.77299 0.10895 0.0
H1076 H 0.77001 0.68283 0.0402 0.0
H1077 H 0.77822 0.59415 0.06009 0.0
C1078 C 0.78637 0.58492 0.1066 0.0
C1079 C 0.79055 0.58654 0.13109 0.0
C1080 C 0.7802 0.63349 0.09571 0.0
C1081 C 0.78816 0.63683 0.14486 0.0
C1082 C 0.7818 0.68523 0.13422 0.0
C1083 C 0.7725 0.73382 0.09834 0.0
C1084 C 0.77019 0.73455 0.0731 0.0
C1085 C 0.77793 0.68416 0.1096 0.0
C1086 C 0.77184 0.68326 0.05966 0.0
C1087 C 0.77665 0.63281 0.07096 0.0
H1088 H 0.54015 0.25949 0.87796 0.0
H1089 H 0.55379 0.36322 0.8168 0.0
H1090 H 0.54322 0.44941 0.83517 0.0
H1091 H 0.532 0.49617 0.87012 0.0
H1092 H 0.52053 0.39387 0.93295 0.0
H1093 H 0.52786 0.30543 0.91196 0.0
C1094 C 0.54074 0.3009 0.86858 0.0
C1095 C 0.54787 0.3053 0.84624 0.0
C1096 C 0.5349 0.35021 0.87942 0.0
C1097 C 0.54851 0.35905 0.83421 0.0
C1098 C 0.54241 0.4082 0.84462 0.0
C1099 C 0.53088 0.45444 0.87906 0.0
C1100 C 0.52587 0.45133 0.90308 0.0
C1101 C 0.53582 0.40443 0.86743 0.0
C1102 C 0.52443 0.39705 0.91445 0.0
C1103 C 0.52872 0.34668 0.90256 0.0
H1104 H 0.67213 0.81602 0.92214 0.0
H1105 H 0.65967 0.75666 0.85104 0.0
H1106 H 0.66969 0.8445 0.83256 0.0
H1107 H 0.68421 0.93172 0.83656 0.0
H1108 H 0.69895 0.98472 0.90743 0.0
H1109 H 0.68604 0.90457 0.92628 0.0
C1110 C 0.67121 0.82345 0.90269 0.0
C1111 C 0.66494 0.7813 0.88786 0.0
C1112 C 0.67776 0.87168 0.89224 0.0
C1113 C 0.66423 0.78963 0.86265 0.0
C1114 C 0.6701 0.83924 0.85215 0.0
C1115 C 0.68452 0.92591 0.85614 0.0
C1116 C 0.69255 0.96365 0.87062 0.0
C1117 C 0.67728 0.87948 0.86673 0.0
C1118 C 0.69294 0.95571 0.89594 0.0
C1119 C 0.68549 0.91028 0.90671 0.0
H1120 H 0.52795 0.68118 0.37492 0.0
H1121 H 0.53043 0.78012 0.30826 0.0
H1122 H 0.53342 0.86941 0.33158 0.0
H1123 H 0.53759 0.9168 0.37022 0.0
H1124 H 0.53748 0.81767 0.437 0.0
H1125 H 0.53155 0.72973 0.41413 0.0
C1126 C 0.52897 0.72239 0.36554 0.0
C1127 C 0.52907 0.72449 0.33999 0.0
C1128 C 0.53139 0.77279 0.37899 0.0
C1129 C 0.53039 0.7779 0.32796 0.0
C1130 C 0.53217 0.82866 0.34124 0.0
C1131 C 0.53622 0.87604 0.37987 0.0
C1132 C 0.53805 0.87333 0.40519 0.0
C1133 C 0.5331 0.8262 0.36667 0.0
C1134 C 0.53624 0.82039 0.41744 0.0
C1135 C 0.5328 0.7704 0.40441 0.0
H1136 H 0.69872 0.23314 0.36176 0.0
H1137 H 0.699 0.33863 0.42655 0.0
H1138 H 0.69973 0.42663 0.40152 0.0
H1139 H 0.69902 0.47264 0.36147 0.0
H1140 H 0.69658 0.36719 0.2968 0.0
H1141 H 0.69811 0.27918 0.32169 0.0
C1142 C 0.69908 0.27541 0.37039 0.0
C1143 C 0.69883 0.27986 0.39586 0.0
C1144 C 0.69908 0.32534 0.35597 0.0
C1145 C 0.69913 0.3346 0.40691 0.0
C1146 C 0.69956 0.38467 0.39265 0.0
C1147 C 0.69896 0.43039 0.3528 0.0
C1148 C 0.6977 0.42599 0.32743 0.0
C1149 C 0.69936 0.38045 0.3672 0.0
C1150 C 0.6975 0.37123 0.31637 0.0
C1151 C 0.69836 0.32113 0.33055 0.0
H1152 H 0.41339 0.5116 0.13038 0.0
H1153 H 0.41672 0.56371 0.05518 0.0
H1154 H 0.4236 0.66147 0.06754 0.0
H1155 H 0.43228 0.72644 0.09972 0.0
H1156 H 0.42837 0.67469 0.17489 0.0
H1157 H 0.41811 0.58204 0.16261 0.0
C1158 C 0.41523 0.54498 0.11678 0.0
C1159 C 0.4148 0.53078 0.09204 0.0
C1160 C 0.41939 0.60045 0.12399 0.0
C1161 C 0.41701 0.57402 0.0744 0.0
C1162 C 0.42112 0.6296 0.08143 0.0
C1163 C 0.42905 0.69489 0.11331 0.0
C1164 C 0.43134 0.70608 0.13803 0.0
C1165 C 0.42297 0.64234 0.10615 0.0
C1166 C 0.42681 0.66616 0.15569 0.0
C1167 C 0.42095 0.61341 0.14872 0.0
H1168 H 0.29039 0.00096 0.11096 0.0
H1169 H 0.29991 0.10211 0.1749 0.0
H1170 H 0.29105 0.18945 0.15481 0.0
H1171 H 0.28274 0.23789 0.11799 0.0
H1172 H 0.27525 0.13836 0.05286 0.0
H1173 H 0.28083 0.04877 0.07478 0.0
C1174 C 0.29042 0.04205 0.12055 0.0
C1175 C 0.29593 0.0455 0.14419 0.0
C1176 C 0.28562 0.09206 0.10874 0.0
C1177 C 0.29588 0.09879 0.15651 0.0
C1178 C 0.29078 0.14857 0.1451 0.0
C1179 C 0.28208 0.19649 0.10871 0.0
C1180 C 0.27871 0.19442 0.08388 0.0
C1181 C 0.28591 0.14585 0.12106 0.0
C1182 C 0.27791 0.14069 0.072 0.0
C1183 C 0.28116 0.08967 0.08446 0.0
H1184 H 0.45051 0.22275 0.59897 0.0
H1185 H 0.4521 0.13856 0.66915 0.0
H1186 H 0.43999 0.05397 0.65255 0.0
H1187 H 0.42941 0.0039 0.6182 0.0
H1188 H 0.4274 0.08744 0.54792 0.0
H1189 H 0.4388 0.17381 0.56473 0.0
C1190 C 0.44832 0.18558 0.61051 0.0
C1191 C 0.45232 0.18617 0.63511 0.0
C1192 C 0.44105 0.13787 0.60101 0.0
C1193 C 0.44919 0.13851 0.65008 0.0
C1194 C 0.44221 0.09047 0.64068 0.0
C1195 C 0.43131 0.04127 0.6066 0.0
C1196 C 0.42768 0.03937 0.58188 0.0
C1197 C 0.43808 0.08983 0.61621 0.0
C1198 C 0.43007 0.08813 0.56707 0.0
C1199 C 0.43672 0.13716 0.5766 0.0
H1200 H 0.29056 0.50007 0.61622 0.0
H1201 H 0.30206 0.60229 0.67885 0.0
H1202 H 0.2931 0.68977 0.65893 0.0
H1203 H 0.2839 0.73758 0.62263 0.0
H1204 H 0.2744 0.6369 0.55859 0.0
H1205 H 0.28048 0.54757 0.58037 0.0
C1206 C 0.29097 0.54144 0.62557 0.0
C1207 C 0.29701 0.5452 0.64881 0.0
C1208 C 0.28617 0.59145 0.6138 0.0
C1209 C 0.29756 0.59881 0.66079 0.0
C1210 C 0.29242 0.64863 0.64947 0.0
C1211 C 0.28293 0.69598 0.61357 0.0
C1212 C 0.27877 0.6934 0.58912 0.0
C1213 C 0.28696 0.64553 0.62582 0.0
C1214 C 0.27766 0.63953 0.57745 0.0
C1215 C 0.28116 0.58869 0.58983 0.0
H1216 H 0.03239 0.81887 0.40549 0.0
H1217 H 0.01819 0.77751 0.33305 0.0
H1218 H 0.02522 0.87393 0.31886 0.0
H1219 H 0.03889 0.96322 0.32574 0.0
H1220 H 0.05483 -0.00055 0.39774 0.0
H1221 H 0.04375 0.91173 0.4133 0.0
C1222 C 0.03039 0.83161 0.38679 0.0
C1223 C 0.02486 0.79115 0.37031 0.0
C1224 C 0.03518 0.88565 0.3785 0.0
C1225 C 0.02247 0.80804 0.34606 0.0
C1226 C 0.02663 0.86288 0.33789 0.0
C1227 C 0.03981 0.95219 0.34487 0.0
C1228 C 0.04791 0.98727 0.36041 0.0
C1229 C 0.03362 0.90093 0.3537 0.0
C1230 C 0.04889 0.97266 0.38523 0.0
C1231 C 0.04249 0.92263 0.39422 0.0
H1232 H 0.18808 0.47277 0.35482 0.0
H1233 H 0.178 0.43038 0.42943 0.0
H1234 H 0.18255 0.3278 0.4212 0.0
H1235 H 0.18914 0.25064 0.39277 0.0
H1236 H 0.19962 0.29365 0.31836 0.0
H1237 H 0.19524 0.39611 0.32671 0.0
C1238 C 0.18681 0.44115 0.36931 0.0
C1239 C 0.1826 0.45917 0.39268 0.0
C1240 C 0.18957 0.38257 0.36452 0.0
C1241 C 0.1812 0.41765 0.41128 0.0
C1242 C 0.1838 0.35905 0.40659 0.0
C1243 C 0.1905 0.28235 0.37834 0.0
C1244 C 0.19465 0.26439 0.35492 0.0
C1245 C 0.18797 0.34109 0.38327 0.0
C1246 C 0.19645 0.30622 0.33654 0.0
C1247 C 0.1939 0.36479 0.34128 0.0
H1248 H 0.04536 0.44306 0.83256 0.0
H1249 H 0.06017 0.46474 0.90632 0.0
H1250 H 0.04716 0.37908 0.91901 0.0
H1251 H 0.03354 0.29333 0.90876 0.0
H1252 H 0.02019 0.26526 0.83471 0.0
H1253 H 0.03019 0.35909 0.82278 0.0
C1254 C 0.04568 0.42916 0.85142 0.0
C1255 C 0.05391 0.46 0.86834 0.0
C1256 C 0.03828 0.37907 0.85865 0.0
C1257 C 0.05412 0.44152 0.89276 0.0
C1258 C 0.0466 0.39265 0.90014 0.0
C1259 C 0.03241 0.3084 0.89014 0.0
C1260 C 0.02609 0.27243 0.87267 0.0
C1261 C 0.03885 0.36058 0.88319 0.0
C1262 C 0.02496 0.29232 0.84853 0.0
C1263 C 0.03082 0.34563 0.84165 0.0
H1264 H 0.18651 0.97146 0.86126 0.0
H1265 H 0.18363 0.94135 0.93866 0.0
H1266 H 0.19396 0.84492 0.93348 0.0
H1267 H 0.20276 0.76812 0.90683 0.0
H1268 H 0.20602 0.79839 0.82946 0.0
H1269 H 0.19689 0.89678 0.83488 0.0
C1270 C 0.18809 0.94367 0.87699 0.0
C1271 C 0.18411 0.96303 0.90028 0.0
C1272 C 0.19423 0.88879 0.87391 0.0
C1273 C 0.18651 0.92718 0.92054 0.0
C1274 C 0.19244 0.87217 0.91759 0.0
C1275 C 0.20161 0.79639 0.89114 0.0
C1276 C 0.20495 0.77575 0.86774 0.0
C1277 C 0.19622 0.85244 0.89435 0.0
C1278 C 0.20356 0.81319 0.84767 0.0
C1279 C 0.19823 0.86927 0.85073 0.0
H1280 H 0.9565 0.15886 0.57412 0.0
H1281 H 0.9652 0.21966 0.64672 0.0
H1282 H 0.97459 0.12487 0.65791 0.0
H1283 H 0.97477 0.02086 0.64996 0.0
H1284 H 0.96406 0.95778 0.57845 0.0
H1285 H 0.9615 0.05707 0.56374 0.0
C1286 C 0.96092 0.15176 0.59209 0.0
C1287 C 0.95986 0.19535 0.60976 0.0
C1288 C 0.96574 0.09635 0.59873 0.0
C1289 C 0.96565 0.18604 0.63298 0.0
C1290 C 0.97099 0.13186 0.63942 0.0
C1291 C 0.97234 0.02877 0.63096 0.0
C1292 C 0.96913 0.9821 0.61557 0.0
C1293 C 0.97024 0.08584 0.6229 0.0
C1294 C 0.96624 -0.00691 0.59086 0.0
C1295 C 0.96469 0.0499 0.58244 0.0
H1296 H 0.80114 0.48117 0.66958 0.0
H1297 H 0.79959 0.52261 0.59295 0.0
H1298 H 0.80493 0.62407 0.60207 0.0
H1299 H 0.81077 0.69991 0.63167 0.0
H1300 H 0.81186 0.65847 0.70832 0.0
H1301 H 0.80603 0.55751 0.69922 0.0
C1302 C 0.80192 0.51234 0.65482 0.0
C1303 C 0.80005 0.4942 0.63058 0.0
C1304 C 0.80501 0.57036 0.66018 0.0
C1305 C 0.80096 0.53538 0.61175 0.0
C1306 C 0.80408 0.59332 0.61695 0.0
C1307 C 0.80979 0.66878 0.64641 0.0
C1308 C 0.81188 0.68656 0.67065 0.0
C1309 C 0.80628 0.61109 0.64107 0.0
C1310 C 0.81035 0.64587 0.68953 0.0
C1311 C 0.80701 0.58819 0.68434 0.0
H1312 H 0.95621 0.52105 0.14788 0.0
H1313 H 0.94223 0.45043 0.07936 0.0
H1314 H 0.94079 0.54777 0.0621 0.0
H1315 H 0.93812 0.65239 0.06974 0.0
H1316 H 0.94991 0.72154 0.13961 0.0
H1317 H 0.95793 0.62598 0.15286 0.0
C1318 C 0.95328 0.52678 0.12895 0.0
C1319 C 0.94893 0.47885 0.11517 0.0
C1320 C 0.9519 0.58297 0.11945 0.0
C1321 C 0.94532 0.48689 0.09056 0.0
C1322 C 0.94444 0.54259 0.08067 0.0
C1323 C 0.94295 0.64669 0.08748 0.0
C1324 C 0.94326 0.69319 0.10386 0.0
C1325 C 0.94688 0.59103 0.09541 0.0
C1326 C 0.94944 0.68576 0.12687 0.0
C1327 C 0.95395 0.63116 0.13449 0.0
H1328 H 0.79193 0.23177 0.14622 0.0
H1329 H 0.81205 0.27772 0.07833 0.0
H1330 H 0.8055 0.1841 0.06113 0.0
H1331 H 0.79461 0.08791 0.06569 0.0
H1332 H 0.77592 0.03967 0.13438 0.0
H1333 H 0.78112 0.13576 0.15083 0.0
C1334 C 0.79487 0.22133 0.12766 0.0
C1335 C 0.80249 0.26163 0.11363 0.0
C1336 C 0.79122 0.16718 0.11795 0.0
C1337 C 0.80628 0.24731 0.08962 0.0
C1338 C 0.80247 0.19389 0.0797 0.0
C1339 C 0.79149 0.09894 0.08411 0.0
C1340 C 0.7848 0.05731 0.09877 0.0
C1341 C 0.79497 0.15345 0.09371 0.0
C1342 C 0.78106 0.07137 0.12279 0.0
C1343 C 0.78408 0.1261 0.13221 0.0
H1344 H 0.54693 0.7673 0.85796 0.0
H1345 H 0.54288 0.81052 0.93405 0.0
H1346 H 0.54893 0.91143 0.92494 0.0
H1347 H 0.55612 0.9863 0.89558 0.0
H1348 H 0.55947 0.94355 0.81936 0.0
H1349 H 0.55299 0.84304 0.82838 0.0
C1350 C 0.54731 0.79878 0.87258 0.0
C1351 C 0.54454 0.78127 0.8967 0.0
C1352 C 0.55077 0.85657 0.86721 0.0
C1353 C 0.54493 0.82282 0.91534 0.0
C1354 C 0.54846 0.88045 0.91016 0.0
C1355 C 0.55549 0.95495 0.88093 0.0
C1356 C 0.55843 0.97219 0.85685 0.0
C1357 C 0.55156 0.89759 0.88621 0.0
C1358 C 0.55731 0.93132 0.83804 0.0
C1359 C 0.5536 0.8739 0.84319 0.0
H1360 H 0.70427 0.48518 0.87067 0.0
H1361 H 0.69974 0.46358 0.94821 0.0
H1362 H 0.71243 0.37107 0.94617 0.0
H1363 H 0.71937 0.28804 0.92095 0.0
H1364 H 0.72263 0.30875 0.84301 0.0
H1365 H 0.71655 0.41098 0.84673 0.0
C1366 C 0.70642 0.46084 0.88719 0.0
C1367 C 0.7008 0.47983 0.90944 0.0
C1368 C 0.71344 0.40753 0.88576 0.0
C1369 C 0.70388 0.44916 0.93085 0.0
C1370 C 0.71105 0.39621 0.92965 0.0
C1371 C 0.71922 0.31533 0.90483 0.0
C1372 C 0.72084 0.29023 0.88164 0.0
C1373 C 0.7151 0.37352 0.90699 0.0
C1374 C 0.72109 0.32654 0.86105 0.0
C1375 C 0.71746 0.38499 0.86312 0.0
H1376 H 0.54616 0.36284 0.32982 0.0
H1377 H 0.52102 0.41132 0.39199 0.0
H1378 H 0.52365 0.31404 0.4091 0.0
H1379 H 0.53496 0.21864 0.40823 0.0
H1380 H 0.56119 0.17181 0.34699 0.0
H1381 H 0.55636 0.26507 0.32781 0.0
C1382 C 0.54098 0.35149 0.34679 0.0
C1383 C 0.53341 0.39378 0.35964 0.0
C1384 C 0.54298 0.29625 0.35696 0.0
C1385 C 0.52691 0.37916 0.38182 0.0
C1386 C 0.52849 0.32378 0.39168 0.0
C1387 C 0.5396 0.22873 0.39068 0.0
C1388 C 0.54854 0.18852 0.37925 0.0
C1389 C 0.53686 0.28258 0.37977 0.0
C1390 C 0.55436 0.20215 0.35636 0.0
C1391 C 0.55157 0.25542 0.34528 0.0
H1392 H 0.69097 0.96386 0.34931 0.0
H1393 H 0.69823 0.91451 0.4241 0.0
H1394 H 0.69942 0.81245 0.41212 0.0
H1395 H 0.69642 0.73751 0.38101 0.0
H1396 H 0.68901 0.78712 0.30627 0.0
H1397 H 0.68999 0.88945 0.31769 0.0
C1398 C 0.69289 0.93084 0.36301 0.0
C1399 C 0.69429 0.94656 0.38762 0.0
C1400 C 0.69348 0.87253 0.35603 0.0
C1401 C 0.69706 0.90345 0.40506 0.0
C1402 C 0.69768 0.84514 0.39824 0.0
C1403 C 0.6951 0.77067 0.36716 0.0
C1404 C 0.69243 0.75477 0.34287 0.0
C1405 C 0.69559 0.82921 0.37386 0.0
C1406 C 0.69101 0.79822 0.32509 0.0
C1407 C 0.69152 0.85669 0.33162 0.0
H1408 H 0.45568 0.20082 0.07917 0.0
H1409 H 0.44478 0.23358 0.15419 0.0
H1410 H 0.45655 0.14446 0.16658 0.0
H1411 H 0.46487 0.04845 0.15502 0.0
H1412 H 0.47371 0.01097 0.07965 0.0
H1413 H 0.46855 0.11144 0.06871 0.0
C1414 C 0.4562 0.18917 0.09829 0.0
C1415 C 0.44899 0.22277 0.11562 0.0
C1416 C 0.46262 0.13675 0.10525 0.0
C1417 C 0.44992 0.20759 0.14038 0.0
C1418 C 0.45669 0.15667 0.14752 0.0
C1419 C 0.46621 0.06265 0.13633 0.0
C1420 C 0.46919 0.02185 0.11807 0.0
C1421 C 0.46236 0.1194 0.12996 0.0
C1422 C 0.47113 0.04133 0.09401 0.0
C1423 C 0.468 0.09866 0.08768 0.0
H1424 H 0.30647 0.72961 0.09716 0.0
H1425 H 0.31008 0.68254 0.17296 0.0
H1426 H 0.3045 0.58163 0.16299 0.0
H1427 H 0.29902 0.50707 0.13265 0.0
H1428 H 0.29452 0.55522 0.05707 0.0
H1429 H 0.29987 0.65605 0.06715 0.0
C1430 C 0.30612 0.69721 0.1115 0.0
C1431 C 0.30886 0.71324 0.13573 0.0
C1432 C 0.30265 0.63979 0.10571 0.0
C1433 C 0.30807 0.67111 0.15417 0.0
C1434 C 0.30487 0.61353 0.14848 0.0
C1435 C 0.29916 0.53964 0.11837 0.0
C1436 C 0.29647 0.5236 0.09411 0.0
C1437 C 0.30218 0.59743 0.1243 0.0
C1438 C 0.29652 0.56643 0.07588 0.0
C1439 C 0.29965 0.62401 0.08161 0.0
H1440 H 0.45229 0.54495 0.64592 0.0
H1441 H 0.46997 0.51192 0.57499 0.0
H1442 H 0.46215 0.60754 0.56096 0.0
H1443 H 0.44746 0.69436 0.56736 0.0
H1444 H 0.4281 0.72202 0.63759 0.0
H1445 H 0.43927 0.63459 0.65326 0.0
C1446 C 0.45485 0.55949 0.62765 0.0
C1447 C 0.46174 0.52175 0.61153 0.0
C1448 C 0.44964 0.61292 0.61935 0.0
C1449 C 0.46472 0.54055 0.58773 0.0
C1450 C 0.46012 0.59488 0.57964 0.0
C1451 C 0.44578 0.68148 0.58614 0.0
C1452 C 0.43678 0.7143 0.60112 0.0
C1453 C 0.45206 0.6304 0.59501 0.0
C1454 C 0.43478 0.69715 0.62548 0.0
C1455 C 0.44123 0.64726 0.63455 0.0
H1456 H 0.29836 0.00748 0.6343 0.0
H1457 H 0.28451 0.05916 0.5626 0.0
H1458 H 0.28934 0.16058 0.57243 0.0
H1459 H 0.29877 0.23331 0.60042 0.0
H1460 H 0.31219 0.18241 0.6724 0.0
H1461 H 0.30626 0.08129 0.66334 0.0
C1462 C 0.2963 0.04095 0.62085 0.0
C1463 C 0.29121 0.02575 0.59765 0.0
C1464 C 0.29914 0.09898 0.62659 0.0
C1465 C 0.28842 0.06969 0.58057 0.0
C1466 C 0.29126 0.12761 0.58613 0.0
C1467 C 0.30043 0.20009 0.61414 0.0
C1468 C 0.30612 0.21504 0.63692 0.0
C1469 C 0.29686 0.14251 0.6089 0.0
C1470 C 0.30791 0.17182 0.65469 0.0
C1471 C 0.30453 0.11412 0.64951 0.0
loop_
_geom_bond_atom_site_label_1
_geom_bond_atom_site_label_2
_geom_bond_distance
_geom_bond_site_symmetry_2
_ccdc_geom_bond_type
C0 O1 1.306 . S
C0 O3 1.160 . S
O1 C0 1.306 . S
O1 Cd2 2.228 . S
Cd2 O1 2.228 . S
Cd2 O6 2.273 . S
Cd2 O10 2.277 . S
O3 C0 1.160 . S
O3 Cd4 2.203 . S
Cd4 O3 2.203 . S
Cd4 O6 2.411 . S
Cd4 O7 2.333 . S
Cd4 O8 2.352 . S
Cd4 O12 2.277 . S
Cd4 O13 2.356 . S
C5 O10 1.209 . S
C5 O12 1.226 . S
O6 Cd2 2.273 . S
O6 Cd4 2.411 . S
O6 C9 1.320 . S
O7 Cd4 2.333 . S
O7 C9 1.214 . S
O8 Cd4 2.352 . S
O8 C11 1.258 . S
C9 O6 1.320 . S
C9 O7 1.214 . S
O10 Cd2 2.277 . S
O10 C5 1.209 . S
C11 O8 1.258 . S
C11 O13 1.282 . S
O12 Cd4 2.277 . S
O12 C5 1.226 . S
O13 Cd4 2.356 . S
O13 C11 1.282 . S
C14 O15 1.306 . S
C14 O17 1.160 . S
O15 C14 1.306 . S
O15 Cd16 2.228 . S
Cd16 O15 2.228 . S
Cd16 O20 2.273 . S
Cd16 O24 2.277 . S
O17 C14 1.160 . S
O17 Cd18 2.203 . S
Cd18 O17 2.203 . S
Cd18 O20 2.411 . S
Cd18 O21 2.333 . S
Cd18 O22 2.352 . S
Cd18 O26 2.277 . S
Cd18 O27 2.356 . S
C19 O24 1.209 . S
C19 O26 1.226 . S
O20 Cd16 2.273 . S
O20 Cd18 2.411 . S
O20 C23 1.320 . S
O21 Cd18 2.333 . S
O21 C23 1.214 . S
O22 Cd18 2.352 . S
O22 C25 1.258 . S
C23 O20 1.320 . S
C23 O21 1.214 . S
O24 Cd16 2.277 . S
O24 C19 1.209 . S
C25 O22 1.258 . S
C25 O27 1.282 . S
O26 Cd18 2.277 . S
O26 C19 1.226 . S
O27 Cd18 2.356 . S
O27 C25 1.282 . S
C28 O29 1.306 . S
C28 O31 1.160 . S
O29 C28 1.306 . S
O29 Cd30 2.228 . S
Cd30 O29 2.228 . S
Cd30 O34 2.273 . S
Cd30 O38 2.277 . S
O31 C28 1.160 . S
O31 Cd32 2.203 . S
Cd32 O31 2.203 . S
Cd32 O34 2.411 . S
Cd32 O35 2.333 . S
Cd32 O36 2.352 . S
Cd32 O40 2.277 . S
Cd32 O41 2.356 . S
C33 O38 1.209 . S
C33 O40 1.226 . S
O34 Cd30 2.273 . S
O34 Cd32 2.411 . S
O34 C37 1.320 . S
O35 Cd32 2.333 . S
O35 C37 1.214 . S
O36 Cd32 2.352 . S
O36 C39 1.258 . S
C37 O34 1.320 . S
C37 O35 1.214 . S
O38 Cd30 2.277 . S
O38 C33 1.209 . S
C39 O36 1.258 . S
C39 O41 1.282 . S
O40 Cd32 2.277 . S
O40 C33 1.226 . S
O41 Cd32 2.356 . S
O41 C39 1.282 . S
C42 O43 1.306 . S
C42 O45 1.160 . S
O43 C42 1.306 . S
O43 Cd44 2.228 . S
Cd44 O43 2.228 . S
Cd44 O48 2.273 . S
Cd44 O52 2.277 . S
O45 C42 1.160 . S
O45 Cd46 2.203 . S
Cd46 O45 2.203 . S
Cd46 O48 2.411 . S
Cd46 O49 2.333 . S
Cd46 O50 2.352 . S
Cd46 O54 2.277 . S
Cd46 O55 2.356 . S
C47 O52 1.209 . S
C47 O54 1.226 . S
O48 Cd44 2.273 . S
O48 Cd46 2.411 . S
O48 C51 1.320 . S
O49 Cd46 2.333 . S
O49 C51 1.214 . S
O50 Cd46 2.352 . S
O50 C53 1.258 . S
C51 O48 1.320 . S
C51 O49 1.214 . S
O52 Cd44 2.277 . S
O52 C47 1.209 . S
C53 O50 1.258 . S
C53 O55 1.282 . S
O54 Cd46 2.277 . S
O54 C47 1.226 . S
O55 Cd46 2.356 . S
O55 C53 1.282 . S
C56 O57 1.306 . S
C56 O59 1.160 . S
O57 C56 1.306 . S
O57 Cd58 2.228 . S
Cd58 O57 2.228 . S
Cd58 O62 2.273 . S
Cd58 O66 2.277 . S
O59 C56 1.160 . S
O59 Cd60 2.203 . S
Cd60 O59 2.203 . S
Cd60 O62 2.411 . S
Cd60 O63 2.333 . S
Cd60 O64 2.352 . S
Cd60 O68 2.277 . S
Cd60 O69 2.356 . S
C61 O66 1.209 . S
C61 O68 1.226 . S
O62 Cd58 2.273 . S
O62 Cd60 2.411 . S
O62 C65 1.320 . S
O63 Cd60 2.333 . S
O63 C65 1.214 . S
O64 Cd60 2.352 . S
O64 C67 1.258 . S
C65 O62 1.320 . S
C65 O63 1.214 . S
O66 Cd58 2.277 . S
O66 C61 1.209 . S
C67 O64 1.258 . S
C67 O69 1.282 . S
O68 Cd60 2.277 . S
O68 C61 1.226 . S
O69 Cd60 2.356 . S
O69 C67 1.282 . S
C70 O71 1.306 . S
C70 O73 1.160 . S
O71 C70 1.306 . S
O71 Cd72 2.228 . S
Cd72 O71 2.228 . S
Cd72 O76 2.273 . S
Cd72 O80 2.277 . S
O73 C70 1.160 . S
O73 Cd74 2.203 . S
Cd74 O73 2.203 . S
Cd74 O76 2.411 . S
Cd74 O77 2.333 . S
Cd74 O78 2.352 . S
Cd74 O82 2.277 . S
Cd74 O83 2.356 . S
C75 O80 1.209 . S
C75 O82 1.226 . S
O76 Cd72 2.273 . S
O76 Cd74 2.411 . S
O76 C79 1.320 . S
O77 Cd74 2.333 . S
O77 C79 1.214 . S
O78 Cd74 2.352 . S
O78 C81 1.258 . S
C79 O76 1.320 . S
C79 O77 1.214 . S
O80 Cd72 2.277 . S
O80 C75 1.209 . S
C81 O78 1.258 . S
C81 O83 1.282 . S
O82 Cd74 2.277 . S
O82 C75 1.226 . S
O83 Cd74 2.356 . S
O83 C81 1.282 . S
C84 O85 1.306 . S
C84 O87 1.160 . S
O85 C84 1.306 . S
O85 Cd86 2.228 . S
Cd86 O85 2.228 . S
Cd86 O90 2.273 . S
Cd86 O94 2.277 . S
O87 C84 1.160 . S
O87 Cd88 2.203 . S
Cd88 O87 2.203 . S
Cd88 O90 2.411 . S
Cd88 O91 2.333 . S
Cd88 O92 2.352 . S
Cd88 O96 2.277 . S
Cd88 O97 2.356 . S
C89 O94 1.209 . S
C89 O96 1.226 . S
O90 Cd86 2.273 . S
O90 Cd88 2.411 . S
O90 C93 1.320 . S
O91 Cd88 2.333 . S
O91 C93 1.214 . S
O92 Cd88 2.352 . S
O92 C95 1.258 . S
C93 O90 1.320 . S
C93 O91 1.214 . S
O94 Cd86 2.277 . S
O94 C89 1.209 . S
C95 O92 1.258 . S
C95 O97 1.282 . S
O96 Cd88 2.277 . S
O96 C89 1.226 . S
O97 Cd88 2.356 . S
O97 C95 1.282 . S
C98 O99 1.306 . S
C98 O101 1.160 . S
O99 C98 1.306 . S
O99 Cd100 2.228 . S
Cd100 O99 2.228 . S
Cd100 O104 2.273 . S
Cd100 O108 2.277 . S
O101 C98 1.160 . S
O101 Cd102 2.203 . S
Cd102 O101 2.203 . S
Cd102 O104 2.411 . S
Cd102 O105 2.333 . S
Cd102 O106 2.352 . S
Cd102 O110 2.277 . S
Cd102 O111 2.356 . S
C103 O108 1.209 . S
C103 O110 1.226 . S
O104 Cd100 2.273 . S
O104 Cd102 2.411 . S
O104 C107 1.320 . S
O105 Cd102 2.333 . S
O105 C107 1.214 . S
O106 Cd102 2.352 . S
O106 C109 1.258 . S
C107 O104 1.320 . S
C107 O105 1.214 . S
O108 Cd100 2.277 . S
O108 C103 1.209 . S
C109 O106 1.258 . S
C109 O111 1.282 . S
O110 Cd102 2.277 . S
O110 C103 1.226 . S
O111 Cd102 2.356 . S
O111 C109 1.282 . S
C112 O113 1.306 . S
C112 O115 1.160 . S
O113 C112 1.306 . S
O113 Cd114 2.228 . S
Cd114 O113 2.228 . S
Cd114 O118 2.273 . S
Cd114 O122 2.277 . S
O115 C112 1.160 . S
O115 Cd116 2.203 . S
Cd116 O115 2.203 . S
Cd116 O118 2.411 . S
Cd116 O119 2.333 . S
Cd116 O120 2.352 . S
Cd116 O124 2.277 . S
Cd116 O125 2.356 . S
C117 O122 1.209 . S
C117 O124 1.226 . S
O118 Cd114 2.273 . S
O118 Cd116 2.411 . S
O118 C121 1.320 . S
O119 Cd116 2.333 . S
O119 C121 1.214 . S
O120 Cd116 2.352 . S
O120 C123 1.258 . S
C121 O118 1.320 . S
C121 O119 1.214 . S
O122 Cd114 2.277 . S
O122 C117 1.209 . S
C123 O120 1.258 . S
C123 O125 1.282 . S
O124 Cd116 2.277 . S
O124 C117 1.226 . S
O125 Cd116 2.356 . S
O125 C123 1.282 . S
C126 O127 1.306 . S
C126 O129 1.160 . S
O127 C126 1.306 . S
O127 Cd128 2.228 . S
Cd128 O127 2.228 . S
Cd128 O132 2.273 . S
Cd128 O136 2.277 . S
O129 C126 1.160 . S
O129 Cd130 2.203 . S
Cd130 O129 2.203 . S
Cd130 O132 2.411 . S
Cd130 O133 2.333 . S
Cd130 O134 2.352 . S
Cd130 O138 2.277 . S
Cd130 O139 2.356 . S
C131 O136 1.209 . S
C131 O138 1.226 . S
O132 Cd128 2.273 . S
O132 Cd130 2.411 . S
O132 C135 1.320 . S
O133 Cd130 2.333 . S
O133 C135 1.214 . S
O134 Cd130 2.352 . S
O134 C137 1.258 . S
C135 O132 1.320 . S
C135 O133 1.214 . S
O136 Cd128 2.277 . S
O136 C131 1.209 . S
C137 O134 1.258 . S
C137 O139 1.282 . S
O138 Cd130 2.277 . S
O138 C131 1.226 . S
O139 Cd130 2.356 . S
O139 C137 1.282 . S
C140 O141 1.306 . S
C140 O143 1.160 . S
O141 C140 1.306 . S
O141 Cd142 2.228 . S
Cd142 O141 2.228 . S
Cd142 O146 2.273 . S
Cd142 O150 2.277 . S
O143 C140 1.160 . S
O143 Cd144 2.203 . S
Cd144 O143 2.203 . S
Cd144 O146 2.411 . S
Cd144 O147 2.333 . S
Cd144 O148 2.352 . S
Cd144 O152 2.277 . S
Cd144 O153 2.356 . S
C145 O150 1.209 . S
C145 O152 1.226 . S
O146 Cd142 2.273 . S
O146 Cd144 2.411 . S
O146 C149 1.320 . S
O147 Cd144 2.333 . S
O147 C149 1.214 . S
O148 Cd144 2.352 . S
O148 C151 1.258 . S
C149 O146 1.320 . S
C149 O147 1.214 . S
O150 Cd142 2.277 . S
O150 C145 1.209 . S
C151 O148 1.258 . S
C151 O153 1.282 . S
O152 Cd144 2.277 . S
O152 C145 1.226 . S
O153 Cd144 2.356 . S
O153 C151 1.282 . S
C154 O155 1.306 . S
C154 O157 1.160 . S
O155 C154 1.306 . S
O155 Cd156 2.228 . S
Cd156 O155 2.228 . S
Cd156 O160 2.273 . S
Cd156 O164 2.277 . S
O157 C154 1.160 . S
O157 Cd158 2.203 . S
Cd158 O157 2.203 . S
Cd158 O160 2.411 . S
Cd158 O161 2.333 . S
Cd158 O162 2.352 . S
Cd158 O166 2.277 . S
Cd158 O167 2.356 . S
C159 O164 1.209 . S
C159 O166 1.226 . S
O160 Cd156 2.273 . S
O160 Cd158 2.411 . S
O160 C163 1.320 . S
O161 Cd158 2.333 . S
O161 C163 1.214 . S
O162 Cd158 2.352 . S
O162 C165 1.258 . S
C163 O160 1.320 . S
C163 O161 1.214 . S
O164 Cd156 2.277 . S
O164 C159 1.209 . S
C165 O162 1.258 . S
C165 O167 1.282 . S
O166 Cd158 2.277 . S
O166 C159 1.226 . S
O167 Cd158 2.356 . S
O167 C165 1.282 . S
C168 O169 1.306 . S
C168 O171 1.160 . S
O169 C168 1.306 . S
O169 Cd170 2.228 . S
Cd170 O169 2.228 . S
Cd170 O174 2.273 . S
Cd170 O178 2.277 . S
O171 C168 1.160 . S
O171 Cd172 2.203 . S
Cd172 O171 2.203 . S
Cd172 O174 2.411 . S
Cd172 O175 2.333 . S
Cd172 O176 2.352 . S
Cd172 O180 2.277 . S
Cd172 O181 2.356 . S
C173 O178 1.209 . S
C173 O180 1.226 . S
O174 Cd170 2.273 . S
O174 Cd172 2.411 . S
O174 C177 1.320 . S
O175 Cd172 2.333 . S
O175 C177 1.214 . S
O176 Cd172 2.352 . S
O176 C179 1.258 . S
C177 O174 1.320 . S
C177 O175 1.214 . S
O178 Cd170 2.277 . S
O178 C173 1.209 . S
C179 O176 1.258 . S
C179 O181 1.282 . S
O180 Cd172 2.277 . S
O180 C173 1.226 . S
O181 Cd172 2.356 . S
O181 C179 1.282 . S
C182 O183 1.306 . S
C182 O185 1.160 . S
O183 C182 1.306 . S
O183 Cd184 2.228 . S
Cd184 O183 2.228 . S
Cd184 O188 2.273 . S
Cd184 O192 2.277 . S
O185 C182 1.160 . S
O185 Cd186 2.203 . S
Cd186 O185 2.203 . S
Cd186 O188 2.411 . S
Cd186 O189 2.333 . S
Cd186 O190 2.352 . S
Cd186 O194 2.277 . S
Cd186 O195 2.356 . S
C187 O192 1.209 . S
C187 O194 1.226 . S
O188 Cd184 2.273 . S
O188 Cd186 2.411 . S
O188 C191 1.320 . S
O189 Cd186 2.333 . S
O189 C191 1.214 . S
O190 Cd186 2.352 . S
O190 C193 1.258 . S
C191 O188 1.320 . S
C191 O189 1.214 . S
O192 Cd184 2.277 . S
O192 C187 1.209 . S
C193 O190 1.258 . S
C193 O195 1.282 . S
O194 Cd186 2.277 . S
O194 C187 1.226 . S
O195 Cd186 2.356 . S
O195 C193 1.282 . S
C196 O197 1.306 . S
C196 O199 1.160 . S
O197 C196 1.306 . S
O197 Cd198 2.228 . S
Cd198 O197 2.228 . S
Cd198 O202 2.273 . S
Cd198 O206 2.277 . S
O199 C196 1.160 . S
O199 Cd200 2.203 . S
Cd200 O199 2.203 . S
Cd200 O202 2.411 . S
Cd200 O203 2.333 . S
Cd200 O204 2.352 . S
Cd200 O208 2.277 . S
Cd200 O209 2.356 . S
C201 O206 1.209 . S
C201 O208 1.226 . S
O202 Cd198 2.273 . S
O202 Cd200 2.411 . S
O202 C205 1.320 . S
O203 Cd200 2.333 . S
O203 C205 1.214 . S
O204 Cd200 2.352 . S
O204 C207 1.258 . S
C205 O202 1.320 . S
C205 O203 1.214 . S
O206 Cd198 2.277 . S
O206 C201 1.209 . S
C207 O204 1.258 . S
C207 O209 1.282 . S
O208 Cd200 2.277 . S
O208 C201 1.226 . S
O209 Cd200 2.356 . S
O209 C207 1.282 . S
C210 O211 1.306 . S
C210 O213 1.160 . S
O211 C210 1.306 . S
O211 Cd212 2.228 . S
Cd212 O211 2.228 . S
Cd212 O216 2.273 . S
Cd212 O220 2.277 . S
O213 C210 1.160 . S
O213 Cd214 2.203 . S
Cd214 O213 2.203 . S
Cd214 O216 2.411 . S
Cd214 O217 2.333 . S
Cd214 O218 2.352 . S
Cd214 O222 2.277 . S
Cd214 O223 2.356 . S
C215 O220 1.209 . S
C215 O222 1.226 . S
O216 Cd212 2.273 . S
O216 Cd214 2.411 . S
O216 C219 1.320 . S
O217 Cd214 2.333 . S
O217 C219 1.214 . S
O218 Cd214 2.352 . S
O218 C221 1.258 . S
C219 O216 1.320 . S
C219 O217 1.214 . S
O220 Cd212 2.277 . S
O220 C215 1.209 . S
C221 O218 1.258 . S
C221 O223 1.282 . S
O222 Cd214 2.277 . S
O222 C215 1.226 . S
O223 Cd214 2.356 . S
O223 C221 1.282 . S
C224 O225 1.306 . S
C224 O227 1.160 . S
O225 C224 1.306 . S
O225 Cd226 2.228 . S
Cd226 O225 2.228 . S
Cd226 O230 2.273 . S
Cd226 O234 2.277 . S
O227 C224 1.160 . S
O227 Cd228 2.203 . S
Cd228 O227 2.203 . S
Cd228 O230 2.411 . S
Cd228 O231 2.333 . S
Cd228 O232 2.352 . S
Cd228 O236 2.277 . S
Cd228 O237 2.356 . S
C229 O234 1.209 . S
C229 O236 1.226 . S
O230 Cd226 2.273 . S
O230 Cd228 2.411 . S
O230 C233 1.320 . S
O231 Cd228 2.333 . S
O231 C233 1.214 . S
O232 Cd228 2.352 . S
O232 C235 1.258 . S
C233 O230 1.320 . S
C233 O231 1.214 . S
O234 Cd226 2.277 . S
O234 C229 1.209 . S
C235 O232 1.258 . S
C235 O237 1.282 . S
O236 Cd228 2.277 . S
O236 C229 1.226 . S
O237 Cd228 2.356 . S
O237 C235 1.282 . S
C238 O239 1.306 . S
C238 O241 1.160 . S
O239 C238 1.306 . S
O239 Cd240 2.228 . S
Cd240 O239 2.228 . S
Cd240 O244 2.273 . S
Cd240 O248 2.277 . S
O241 C238 1.160 . S
O241 Cd242 2.203 . S
Cd242 O241 2.203 . S
Cd242 O244 2.411 . S
Cd242 O245 2.333 . S
Cd242 O246 2.352 . S
Cd242 O250 2.277 . S
Cd242 O251 2.356 . S
C243 O248 1.209 . S
C243 O250 1.226 . S
O244 Cd240 2.273 . S
O244 Cd242 2.411 . S
O244 C247 1.320 . S
O245 Cd242 2.333 . S
O245 C247 1.214 . S
O246 Cd242 2.352 . S
O246 C249 1.258 . S
C247 O244 1.320 . S
C247 O245 1.214 . S
O248 Cd240 2.277 . S
O248 C243 1.209 . S
C249 O246 1.258 . S
C249 O251 1.282 . S
O250 Cd242 2.277 . S
O250 C243 1.226 . S
O251 Cd242 2.356 . S
O251 C249 1.282 . S
C252 O253 1.306 . S
C252 O255 1.160 . S
O253 C252 1.306 . S
O253 Cd254 2.228 . S
Cd254 O253 2.228 . S
Cd254 O258 2.273 . S
Cd254 O262 2.277 . S
O255 C252 1.160 . S
O255 Cd256 2.203 . S
Cd256 O255 2.203 . S
Cd256 O258 2.411 . S
Cd256 O259 2.333 . S
Cd256 O260 2.352 . S
Cd256 O264 2.277 . S
Cd256 O265 2.356 . S
C257 O262 1.209 . S
C257 O264 1.226 . S
O258 Cd254 2.273 . S
O258 Cd256 2.411 . S
O258 C261 1.320 . S
O259 Cd256 2.333 . S
O259 C261 1.214 . S
O260 Cd256 2.352 . S
O260 C263 1.258 . S
C261 O258 1.320 . S
C261 O259 1.214 . S
O262 Cd254 2.277 . S
O262 C257 1.209 . S
C263 O260 1.258 . S
C263 O265 1.282 . S
O264 Cd256 2.277 . S
O264 C257 1.226 . S
O265 Cd256 2.356 . S
O265 C263 1.282 . S
C266 O267 1.306 . S
C266 O269 1.160 . S
O267 C266 1.306 . S
O267 Cd268 2.228 . S
Cd268 O267 2.228 . S
Cd268 O272 2.273 . S
Cd268 O276 2.277 . S
O269 C266 1.160 . S
O269 Cd270 2.203 . S
Cd270 O269 2.203 . S
Cd270 O272 2.411 . S
Cd270 O273 2.333 . S
Cd270 O274 2.352 . S
Cd270 O278 2.277 . S
Cd270 O279 2.356 . S
C271 O276 1.209 . S
C271 O278 1.226 . S
O272 Cd268 2.273 . S
O272 Cd270 2.411 . S
O272 C275 1.320 . S
O273 Cd270 2.333 . S
O273 C275 1.214 . S
O274 Cd270 2.352 . S
O274 C277 1.258 . S
C275 O272 1.320 . S
C275 O273 1.214 . S
O276 Cd268 2.277 . S
O276 C271 1.209 . S
C277 O274 1.258 . S
C277 O279 1.282 . S
O278 Cd270 2.277 . S
O278 C271 1.226 . S
O279 Cd270 2.356 . S
O279 C277 1.282 . S
C280 O281 1.306 . S
C280 O283 1.160 . S
O281 C280 1.306 . S
O281 Cd282 2.228 . S
Cd282 O281 2.228 . S
Cd282 O286 2.273 . S
Cd282 O290 2.277 . S
O283 C280 1.160 . S
O283 Cd284 2.203 . S
Cd284 O283 2.203 . S
Cd284 O286 2.411 . S
Cd284 O287 2.333 . S
Cd284 O288 2.352 . S
Cd284 O292 2.277 . S
Cd284 O293 2.356 . S
C285 O290 1.209 . S
C285 O292 1.226 . S
O286 Cd282 2.273 . S
O286 Cd284 2.411 . S
O286 C289 1.320 . S
O287 Cd284 2.333 . S
O287 C289 1.214 . S
O288 Cd284 2.352 . S
O288 C291 1.258 . S
C289 O286 1.320 . S
C289 O287 1.214 . S
O290 Cd282 2.277 . S
O290 C285 1.209 . S
C291 O288 1.258 . S
C291 O293 1.282 . S
O292 Cd284 2.277 . S
O292 C285 1.226 . S
O293 Cd284 2.356 . S
O293 C291 1.282 . S
C294 O295 1.306 . S
C294 O297 1.160 . S
O295 C294 1.306 . S
O295 Cd296 2.228 . S
Cd296 O295 2.228 . S
Cd296 O300 2.273 . S
Cd296 O304 2.277 . S
O297 C294 1.160 . S
O297 Cd298 2.203 . S
Cd298 O297 2.203 . S
Cd298 O300 2.411 . S
Cd298 O301 2.333 . S
Cd298 O302 2.352 . S
Cd298 O306 2.277 . S
Cd298 O307 2.356 . S
C299 O304 1.209 . S
C299 O306 1.226 . S
O300 Cd296 2.273 . S
O300 Cd298 2.411 . S
O300 C303 1.320 . S
O301 Cd298 2.333 . S
O301 C303 1.214 . S
O302 Cd298 2.352 . S
O302 C305 1.258 . S
C303 O300 1.320 . S
C303 O301 1.214 . S
O304 Cd296 2.277 . S
O304 C299 1.209 . S
C305 O302 1.258 . S
C305 O307 1.282 . S
O306 Cd298 2.277 . S
O306 C299 1.226 . S
O307 Cd298 2.356 . S
O307 C305 1.282 . S
C308 O309 1.306 . S
C308 O311 1.160 . S
O309 C308 1.306 . S
O309 Cd310 2.228 . S
Cd310 O309 2.228 . S
Cd310 O314 2.273 . S
Cd310 O318 2.277 . S
O311 C308 1.160 . S
O311 Cd312 2.203 . S
Cd312 O311 2.203 . S
Cd312 O314 2.411 . S
Cd312 O315 2.333 . S
Cd312 O316 2.352 . S
Cd312 O320 2.277 . S
Cd312 O321 2.356 . S
C313 O318 1.209 . S
C313 O320 1.226 . S
O314 Cd310 2.273 . S
O314 Cd312 2.411 . S
O314 C317 1.320 . S
O315 Cd312 2.333 . S
O315 C317 1.214 . S
O316 Cd312 2.352 . S
O316 C319 1.258 . S
C317 O314 1.320 . S
C317 O315 1.214 . S
O318 Cd310 2.277 . S
O318 C313 1.209 . S
C319 O316 1.258 . S
C319 O321 1.282 . S
O320 Cd312 2.277 . S
O320 C313 1.226 . S
O321 Cd312 2.356 . S
O321 C319 1.282 . S
C322 O323 1.306 . S
C322 O325 1.160 . S
O323 C322 1.306 . S
O323 Cd324 2.228 . S
Cd324 O323 2.228 . S
Cd324 O328 2.273 . S
Cd324 O332 2.277 . S
O325 C322 1.160 . S
O325 Cd326 2.203 . S
Cd326 O325 2.203 . S
Cd326 O328 2.411 . S
Cd326 O329 2.333 . S
Cd326 O330 2.352 . S
Cd326 O334 2.277 . S
Cd326 O335 2.356 . S
C327 O332 1.209 . S
C327 O334 1.226 . S
O328 Cd324 2.273 . S
O328 Cd326 2.411 . S
O328 C331 1.320 . S
O329 Cd326 2.333 . S
O329 C331 1.214 . S
O330 Cd326 2.352 . S
O330 C333 1.258 . S
C331 O328 1.320 . S
C331 O329 1.214 . S
O332 Cd324 2.277 . S
O332 C327 1.209 . S
C333 O330 1.258 . S
C333 O335 1.282 . S
O334 Cd326 2.277 . S
O334 C327 1.226 . S
O335 Cd326 2.356 . S
O335 C333 1.282 . S
C336 O337 1.306 . S
C336 O339 1.160 . S
O337 C336 1.306 . S
O337 Cd338 2.228 . S
Cd338 O337 2.228 . S
Cd338 O342 2.273 . S
Cd338 O346 2.277 . S
O339 C336 1.160 . S
O339 Cd340 2.203 . S
Cd340 O339 2.203 . S
Cd340 O342 2.411 . S
Cd340 O343 2.333 . S
Cd340 O344 2.352 . S
Cd340 O348 2.277 . S
Cd340 O349 2.356 . S
C341 O346 1.209 . S
C341 O348 1.226 . S
O342 Cd338 2.273 . S
O342 Cd340 2.411 . S
O342 C345 1.320 . S
O343 Cd340 2.333 . S
O343 C345 1.214 . S
O344 Cd340 2.352 . S
O344 C347 1.258 . S
C345 O342 1.320 . S
C345 O343 1.214 . S
O346 Cd338 2.277 . S
O346 C341 1.209 . S
C347 O344 1.258 . S
C347 O349 1.282 . S
O348 Cd340 2.277 . S
O348 C341 1.226 . S
O349 Cd340 2.356 . S
O349 C347 1.282 . S
C350 O351 1.306 . S
C350 O353 1.160 . S
O351 C350 1.306 . S
O351 Cd352 2.228 . S
Cd352 O351 2.228 . S
Cd352 O356 2.273 . S
Cd352 O360 2.277 . S
O353 C350 1.160 . S
O353 Cd354 2.203 . S
Cd354 O353 2.203 . S
Cd354 O356 2.411 . S
Cd354 O357 2.333 . S
Cd354 O358 2.352 . S
Cd354 O362 2.277 . S
Cd354 O363 2.356 . S
C355 O360 1.209 . S
C355 O362 1.226 . S
O356 Cd352 2.273 . S
O356 Cd354 2.411 . S
O356 C359 1.320 . S
O357 Cd354 2.333 . S
O357 C359 1.214 . S
O358 Cd354 2.352 . S
O358 C361 1.258 . S
C359 O356 1.320 . S
C359 O357 1.214 . S
O360 Cd352 2.277 . S
O360 C355 1.209 . S
C361 O358 1.258 . S
C361 O363 1.282 . S
O362 Cd354 2.277 . S
O362 C355 1.226 . S
O363 Cd354 2.356 . S
O363 C361 1.282 . S
C364 O365 1.306 . S
C364 O367 1.160 . S
O365 C364 1.306 . S
O365 Cd366 2.228 . S
Cd366 O365 2.228 . S
Cd366 O370 2.273 . S
Cd366 O374 2.277 . S
O367 C364 1.160 . S
O367 Cd368 2.203 . S
Cd368 O367 2.203 . S
Cd368 O370 2.411 . S
Cd368 O371 2.333 . S
Cd368 O372 2.352 . S
Cd368 O376 2.277 . S
Cd368 O377 2.356 . S
C369 O374 1.209 . S
C369 O376 1.226 . S
O370 Cd366 2.273 . S
O370 Cd368 2.411 . S
O370 C373 1.320 . S
O371 Cd368 2.333 . S
O371 C373 1.214 . S
O372 Cd368 2.352 . S
O372 C375 1.258 . S
C373 O370 1.320 . S
C373 O371 1.214 . S
O374 Cd366 2.277 . S
O374 C369 1.209 . S
C375 O372 1.258 . S
C375 O377 1.282 . S
O376 Cd368 2.277 . S
O376 C369 1.226 . S
O377 Cd368 2.356 . S
O377 C375 1.282 . S
C378 O379 1.306 . S
C378 O381 1.160 . S
O379 C378 1.306 . S
O379 Cd380 2.228 . S
Cd380 O379 2.228 . S
Cd380 O384 2.273 . S
Cd380 O388 2.277 . S
O381 C378 1.160 . S
O381 Cd382 2.203 . S
Cd382 O381 2.203 . S
Cd382 O384 2.411 . S
Cd382 O385 2.333 . S
Cd382 O386 2.352 . S
Cd382 O390 2.277 . S
Cd382 O391 2.356 . S
C383 O388 1.209 . S
C383 O390 1.226 . S
O384 Cd380 2.273 . S
O384 Cd382 2.411 . S
O384 C387 1.320 . S
O385 Cd382 2.333 . S
O385 C387 1.214 . S
O386 Cd382 2.352 . S
O386 C389 1.258 . S
C387 O384 1.320 . S
C387 O385 1.214 . S
O388 Cd380 2.277 . S
O388 C383 1.209 . S
C389 O386 1.258 . S
C389 O391 1.282 . S
O390 Cd382 2.277 . S
O390 C383 1.226 . S
O391 Cd382 2.356 . S
O391 C389 1.282 . S
C392 O393 1.306 . S
C392 O395 1.160 . S
O393 C392 1.306 . S
O393 Cd394 2.228 . S
Cd394 O393 2.228 . S
Cd394 O398 2.273 . S
Cd394 O402 2.277 . S
O395 C392 1.160 . S
O395 Cd396 2.203 . S
Cd396 O395 2.203 . S
Cd396 O398 2.411 . S
Cd396 O399 2.333 . S
Cd396 O400 2.352 . S
Cd396 O404 2.277 . S
Cd396 O405 2.356 . S
C397 O402 1.209 . S
C397 O404 1.226 . S
O398 Cd394 2.273 . S
O398 Cd396 2.411 . S
O398 C401 1.320 . S
O399 Cd396 2.333 . S
O399 C401 1.214 . S
O400 Cd396 2.352 . S
O400 C403 1.258 . S
C401 O398 1.320 . S
C401 O399 1.214 . S
O402 Cd394 2.277 . S
O402 C397 1.209 . S
C403 O400 1.258 . S
C403 O405 1.282 . S
O404 Cd396 2.277 . S
O404 C397 1.226 . S
O405 Cd396 2.356 . S
O405 C403 1.282 . S
C406 O407 1.306 . S
C406 O409 1.160 . S
O407 C406 1.306 . S
O407 Cd408 2.228 . S
Cd408 O407 2.228 . S
Cd408 O412 2.273 . S
Cd408 O416 2.277 . S
O409 C406 1.160 . S
O409 Cd410 2.203 . S
Cd410 O409 2.203 . S
Cd410 O412 2.411 . S
Cd410 O413 2.333 . S
Cd410 O414 2.352 . S
Cd410 O418 2.277 . S
Cd410 O419 2.356 . S
C411 O416 1.209 . S
C411 O418 1.226 . S
O412 Cd408 2.273 . S
O412 Cd410 2.411 . S
O412 C415 1.320 . S
O413 Cd410 2.333 . S
O413 C415 1.214 . S
O414 Cd410 2.352 . S
O414 C417 1.258 . S
C415 O412 1.320 . S
C415 O413 1.214 . S
O416 Cd408 2.277 . S
O416 C411 1.209 . S
C417 O414 1.258 . S
C417 O419 1.282 . S
O418 Cd410 2.277 . S
O418 C411 1.226 . S
O419 Cd410 2.356 . S
O419 C417 1.282 . S
C420 O421 1.306 . S
C420 O423 1.160 . S
O421 C420 1.306 . S
O421 Cd422 2.228 . S
Cd422 O421 2.228 . S
Cd422 O426 2.273 . S
Cd422 O430 2.277 . S
O423 C420 1.160 . S
O423 Cd424 2.203 . S
Cd424 O423 2.203 . S
Cd424 O426 2.411 . S
Cd424 O427 2.333 . S
Cd424 O428 2.352 . S
Cd424 O432 2.277 . S
Cd424 O433 2.356 . S
C425 O430 1.209 . S
C425 O432 1.226 . S
O426 Cd422 2.273 . S
O426 Cd424 2.411 . S
O426 C429 1.320 . S
O427 Cd424 2.333 . S
O427 C429 1.214 . S
O428 Cd424 2.352 . S
O428 C431 1.258 . S
C429 O426 1.320 . S
C429 O427 1.214 . S
O430 Cd422 2.277 . S
O430 C425 1.209 . S
C431 O428 1.258 . S
C431 O433 1.282 . S
O432 Cd424 2.277 . S
O432 C425 1.226 . S
O433 Cd424 2.356 . S
O433 C431 1.282 . S
C434 O435 1.306 . S
C434 O437 1.160 . S
O435 C434 1.306 . S
O435 Cd436 2.228 . S
Cd436 O435 2.228 . S
Cd436 O440 2.273 . S
Cd436 O444 2.277 . S
O437 C434 1.160 . S
O437 Cd438 2.203 . S
Cd438 O437 2.203 . S
Cd438 O440 2.411 . S
Cd438 O441 2.333 . S
Cd438 O442 2.352 . S
Cd438 O446 2.277 . S
Cd438 O447 2.356 . S
C439 O444 1.209 . S
C439 O446 1.226 . S
O440 Cd436 2.273 . S
O440 Cd438 2.411 . S
O440 C443 1.320 . S
O441 Cd438 2.333 . S
O441 C443 1.214 . S
O442 Cd438 2.352 . S
O442 C445 1.258 . S
C443 O440 1.320 . S
C443 O441 1.214 . S
O444 Cd436 2.277 . S
O444 C439 1.209 . S
C445 O442 1.258 . S
C445 O447 1.282 . S
O446 Cd438 2.277 . S
O446 C439 1.226 . S
O447 Cd438 2.356 . S
O447 C445 1.282 . S
H448 C454 0.930 . S
H449 C457 0.930 . S
H450 C458 0.930 . S
H451 C459 0.930 . S
H452 C462 0.930 . S
H453 C463 0.930 . S
C454 H448 0.930 . S
C454 C455 1.355 . S
C454 C456 1.415 . S
C455 C454 1.355 . S
C455 C457 1.419 . S
C456 C454 1.415 . S
C456 C461 1.425 . S
C456 C463 1.409 . S
C457 H449 0.930 . S
C457 C455 1.419 . S
C457 C458 1.362 . S
C458 H450 0.930 . S
C458 C457 1.362 . S
C458 C461 1.409 . S
C459 H451 0.930 . S
C459 C460 1.355 . S
C459 C461 1.415 . S
C460 C459 1.355 . S
C460 C462 1.419 . S
C461 C456 1.425 . S
C461 C458 1.409 . S
C461 C459 1.415 . S
C462 H452 0.930 . S
C462 C460 1.419 . S
C462 C463 1.362 . S
C463 H453 0.930 . S
C463 C456 1.409 . S
C463 C462 1.362 . S
H464 C470 0.930 . S
H465 C473 0.930 . S
H466 C474 0.930 . S
H467 C475 0.930 . S
H468 C478 0.930 . S
H469 C479 0.930 . S
C470 H464 0.930 . S
C470 C471 1.355 . S
C470 C472 1.415 . S
C471 C470 1.355 . S
C471 C473 1.419 . S
C472 C470 1.415 . S
C472 C477 1.425 . S
C472 C479 1.409 . S
C473 H465 0.930 . S
C473 C471 1.419 . S
C473 C474 1.362 . S
C474 H466 0.930 . S
C474 C473 1.362 . S
C474 C477 1.409 . S
C475 H467 0.930 . S
C475 C476 1.355 . S
C475 C477 1.415 . S
C476 C475 1.355 . S
C476 C478 1.419 . S
C477 C472 1.425 . S
C477 C474 1.409 . S
C477 C475 1.415 . S
C478 H468 0.930 . S
C478 C476 1.419 . S
C478 C479 1.362 . S
C479 H469 0.930 . S
C479 C472 1.409 . S
C479 C478 1.362 . S
H480 C486 0.930 . S
H481 C489 0.930 . S
H482 C490 0.930 . S
H483 C491 0.930 . S
H484 C494 0.930 . S
H485 C495 0.930 . S
C486 H480 0.930 . S
C486 C487 1.355 . S
C486 C488 1.415 . S
C487 C486 1.355 . S
C487 C489 1.419 . S
C488 C486 1.415 . S
C488 C493 1.425 . S
C488 C495 1.409 . S
C489 H481 0.930 . S
C489 C487 1.419 . S
C489 C490 1.362 . S
C490 H482 0.930 . S
C490 C489 1.362 . S
C490 C493 1.409 . S
C491 H483 0.930 . S
C491 C492 1.355 . S
C491 C493 1.415 . S
C492 C491 1.355 . S
C492 C494 1.419 . S
C493 C488 1.425 . S
C493 C490 1.409 . S
C493 C491 1.415 . S
C494 H484 0.930 . S
C494 C492 1.419 . S
C494 C495 1.362 . S
C495 H485 0.930 . S
C495 C488 1.409 . S
C495 C494 1.362 . S
H496 C502 0.930 . S
H497 C505 0.930 . S
H498 C506 0.930 . S
H499 C507 0.930 . S
H500 C510 0.930 . S
H501 C511 0.930 . S
C502 H496 0.930 . S
C502 C503 1.355 . S
C502 C504 1.415 . S
C503 C502 1.355 . S
C503 C505 1.419 . S
C504 C502 1.415 . S
C504 C509 1.425 . S
C504 C511 1.409 . S
C505 H497 0.930 . S
C505 C503 1.419 . S
C505 C506 1.362 . S
C506 H498 0.930 . S
C506 C505 1.362 . S
C506 C509 1.409 . S
C507 H499 0.930 . S
C507 C508 1.355 . S
C507 C509 1.415 . S
C508 C507 1.355 . S
C508 C510 1.419 . S
C509 C504 1.425 . S
C509 C506 1.409 . S
C509 C507 1.415 . S
C510 H500 0.930 . S
C510 C508 1.419 . S
C510 C511 1.362 . S
C511 H501 0.930 . S
C511 C504 1.409 . S
C511 C510 1.362 . S
H512 C518 0.930 . S
H513 C521 0.930 . S
H514 C522 0.930 . S
H515 C523 0.930 . S
H516 C526 0.930 . S
H517 C527 0.930 . S
C518 H512 0.930 . S
C518 C519 1.355 . S
C518 C520 1.415 . S
C519 C518 1.355 . S
C519 C521 1.419 . S
C520 C518 1.415 . S
C520 C525 1.425 . S
C520 C527 1.409 . S
C521 H513 0.930 . S
C521 C519 1.419 . S
C521 C522 1.362 . S
C522 H514 0.930 . S
C522 C521 1.362 . S
C522 C525 1.409 . S
C523 H515 0.930 . S
C523 C524 1.355 . S
C523 C525 1.415 . S
C524 C523 1.355 . S
C524 C526 1.419 . S
C525 C520 1.425 . S
C525 C522 1.409 . S
C525 C523 1.415 . S
C526 H516 0.930 . S
C526 C524 1.419 . S
C526 C527 1.362 . S
C527 H517 0.930 . S
C527 C520 1.409 . S
C527 C526 1.362 . S
H528 C534 0.930 . S
H529 C537 0.930 . S
H530 C538 0.930 . S
H531 C539 0.930 . S
H532 C542 0.930 . S
H533 C543 0.930 . S
C534 H528 0.930 . S
C534 C535 1.355 . S
C534 C536 1.415 . S
C535 C534 1.355 . S
C535 C537 1.419 . S
C536 C534 1.415 . S
C536 C541 1.425 . S
C536 C543 1.409 . S
C537 H529 0.930 . S
C537 C535 1.419 . S
C537 C538 1.362 . S
C538 H530 0.930 . S
C538 C537 1.362 . S
C538 C541 1.409 . S
C539 H531 0.930 . S
C539 C540 1.355 . S
C539 C541 1.415 . S
C540 C539 1.355 . S
C540 C542 1.419 . S
C541 C536 1.425 . S
C541 C538 1.409 . S
C541 C539 1.415 . S
C542 H532 0.930 . S
C542 C540 1.419 . S
C542 C543 1.362 . S
C543 H533 0.930 . S
C543 C536 1.409 . S
C543 C542 1.362 . S
H544 C550 0.930 . S
H545 C553 0.930 . S
H546 C554 0.930 . S
H547 C555 0.930 . S
H548 C558 0.930 . S
H549 C559 0.930 . S
C550 H544 0.930 . S
C550 C551 1.355 . S
C550 C552 1.415 . S
C551 C550 1.355 . S
C551 C553 1.419 . S
C552 C550 1.415 . S
C552 C557 1.425 . S
C552 C559 1.409 . S
C553 H545 0.930 . S
C553 C551 1.419 . S
C553 C554 1.362 . S
C554 H546 0.930 . S
C554 C553 1.362 . S
C554 C557 1.409 . S
C555 H547 0.930 . S
C555 C556 1.355 . S
C555 C557 1.415 . S
C556 C555 1.355 . S
C556 C558 1.419 . S
C557 C552 1.425 . S
C557 C554 1.409 . S
C557 C555 1.415 . S
C558 H548 0.930 . S
C558 C556 1.419 . S
C558 C559 1.362 . S
C559 H549 0.930 . S
C559 C552 1.409 . S
C559 C558 1.362 . S
H560 C566 0.930 . S
H561 C569 0.930 . S
H562 C570 0.930 . S
H563 C571 0.930 . S
H564 C574 0.930 . S
H565 C575 0.930 . S
C566 H560 0.930 . S
C566 C567 1.355 . S
C566 C568 1.415 . S
C567 C566 1.355 . S
C567 C569 1.419 . S
C568 C566 1.415 . S
C568 C573 1.425 . S
C568 C575 1.409 . S
C569 H561 0.930 . S
C569 C567 1.419 . S
C569 C570 1.362 . S
C570 H562 0.930 . S
C570 C569 1.362 . S
C570 C573 1.409 . S
C571 H563 0.930 . S
C571 C572 1.355 . S
C571 C573 1.415 . S
C572 C571 1.355 . S
C572 C574 1.419 . S
C573 C568 1.425 . S
C573 C570 1.409 . S
C573 C571 1.415 . S
C574 H564 0.930 . S
C574 C572 1.419 . S
C574 C575 1.362 . S
C575 H565 0.930 . S
C575 C568 1.409 . S
C575 C574 1.362 . S
H576 C582 0.930 . S
H577 C585 0.930 . S
H578 C586 0.930 . S
H579 C587 0.930 . S
H580 C590 0.930 . S
H581 C591 0.930 . S
C582 H576 0.930 . S
C582 C583 1.355 . S
C582 C584 1.415 . S
C583 C582 1.355 . S
C583 C585 1.419 . S
C584 C582 1.415 . S
C584 C589 1.425 . S
C584 C591 1.409 . S
C585 H577 0.930 . S
C585 C583 1.419 . S
C585 C586 1.362 . S
C586 H578 0.930 . S
C586 C585 1.362 . S
C586 C589 1.409 . S
C587 H579 0.930 . S
C587 C588 1.355 . S
C587 C589 1.415 . S
C588 C587 1.355 . S
C588 C590 1.419 . S
C589 C584 1.425 . S
C589 C586 1.409 . S
C589 C587 1.415 . S
C590 H580 0.930 . S
C590 C588 1.419 . S
C590 C591 1.362 . S
C591 H581 0.930 . S
C591 C584 1.409 . S
C591 C590 1.362 . S
H592 C598 0.930 . S
H593 C601 0.930 . S
H594 C602 0.930 . S
H595 C603 0.930 . S
H596 C606 0.930 . S
H597 C607 0.930 . S
C598 H592 0.930 . S
C598 C599 1.355 . S
C598 C600 1.415 . S
C599 C598 1.355 . S
C599 C601 1.419 . S
C600 C598 1.415 . S
C600 C605 1.425 . S
C600 C607 1.409 . S
C601 H593 0.930 . S
C601 C599 1.419 . S
C601 C602 1.362 . S
C602 H594 0.930 . S
C602 C601 1.362 . S
C602 C605 1.409 . S
C603 H595 0.930 . S
C603 C604 1.355 . S
C603 C605 1.415 . S
C604 C603 1.355 . S
C604 C606 1.419 . S
C605 C600 1.425 . S
C605 C602 1.409 . S
C605 C603 1.415 . S
C606 H596 0.930 . S
C606 C604 1.419 . S
C606 C607 1.362 . S
C607 H597 0.930 . S
C607 C600 1.409 . S
C607 C606 1.362 . S
H608 C614 0.930 . S
H609 C617 0.930 . S
H610 C618 0.930 . S
H611 C619 0.930 . S
H612 C622 0.930 . S
H613 C623 0.930 . S
C614 H608 0.930 . S
C614 C615 1.355 . S
C614 C616 1.415 . S
C615 C614 1.355 . S
C615 C617 1.419 . S
C616 C614 1.415 . S
C616 C621 1.425 . S
C616 C623 1.409 . S
C617 H609 0.930 . S
C617 C615 1.419 . S
C617 C618 1.362 . S
C618 H610 0.930 . S
C618 C617 1.362 . S
C618 C621 1.409 . S
C619 H611 0.930 . S
C619 C620 1.355 . S
C619 C621 1.415 . S
C620 C619 1.355 . S
C620 C622 1.419 . S
C621 C616 1.425 . S
C621 C618 1.409 . S
C621 C619 1.415 . S
C622 H612 0.930 . S
C622 C620 1.419 . S
C622 C623 1.362 . S
C623 H613 0.930 . S
C623 C616 1.409 . S
C623 C622 1.362 . S
H624 C630 0.930 . S
H625 C633 0.930 . S
H626 C634 0.930 . S
H627 C635 0.930 . S
H628 C638 0.930 . S
H629 C639 0.930 . S
C630 H624 0.930 . S
C630 C631 1.355 . S
C630 C632 1.415 . S
C631 C630 1.355 . S
C631 C633 1.419 . S
C632 C630 1.415 . S
C632 C637 1.425 . S
C632 C639 1.409 . S
C633 H625 0.930 . S
C633 C631 1.419 . S
C633 C634 1.362 . S
C634 H626 0.930 . S
C634 C633 1.362 . S
C634 C637 1.409 . S
C635 H627 0.930 . S
C635 C636 1.355 . S
C635 C637 1.415 . S
C636 C635 1.355 . S
C636 C638 1.419 . S
C637 C632 1.425 . S
C637 C634 1.409 . S
C637 C635 1.415 . S
C638 H628 0.930 . S
C638 C636 1.419 . S
C638 C639 1.362 . S
C639 H629 0.930 . S
C639 C632 1.409 . S
C639 C638 1.362 . S
H640 C646 0.930 . S
H641 C649 0.930 . S
H642 C650 0.930 . S
H643 C651 0.930 . S
H644 C654 0.930 . S
H645 C655 0.930 . S
C646 H640 0.930 . S
C646 C647 1.355 . S
C646 C648 1.415 . S
C647 C646 1.355 . S
C647 C649 1.419 . S
C648 C646 1.415 . S
C648 C653 1.425 . S
C648 C655 1.409 . S
C649 H641 0.930 . S
C649 C647 1.419 . S
C649 C650 1.362 . S
C650 H642 0.930 . S
C650 C649 1.362 . S
C650 C653 1.409 . S
C651 H643 0.930 . S
C651 C652 1.355 . S
C651 C653 1.415 . S
C652 C651 1.355 . S
C652 C654 1.419 . S
C653 C648 1.425 . S
C653 C650 1.409 . S
C653 C651 1.415 . S
C654 H644 0.930 . S
C654 C652 1.419 . S
C654 C655 1.362 . S
C655 H645 0.930 . S
C655 C648 1.409 . S
C655 C654 1.362 . S
H656 C662 0.930 . S
H657 C665 0.930 . S
H658 C666 0.930 . S
H659 C667 0.930 . S
H660 C670 0.930 . S
H661 C671 0.930 . S
C662 H656 0.930 . S
C662 C663 1.355 . S
C662 C664 1.415 . S
C663 C662 1.355 . S
C663 C665 1.419 . S
C664 C662 1.415 . S
C664 C669 1.425 . S
C664 C671 1.409 . S
C665 H657 0.930 . S
C665 C663 1.419 . S
C665 C666 1.362 . S
C666 H658 0.930 . S
C666 C665 1.362 . S
C666 C669 1.409 . S
C667 H659 0.930 . S
C667 C668 1.355 . S
C667 C669 1.415 . S
C668 C667 1.355 . S
C668 C670 1.419 . S
C669 C664 1.425 . S
C669 C666 1.409 . S
C669 C667 1.415 . S
C670 H660 0.930 . S
C670 C668 1.419 . S
C670 C671 1.362 . S
C671 H661 0.930 . S
C671 C664 1.409 . S
C671 C670 1.362 . S
H672 C678 0.930 . S
H673 C681 0.930 . S
H674 C682 0.930 . S
H675 C683 0.930 . S
H676 C686 0.930 . S
H677 C687 0.930 . S
C678 H672 0.930 . S
C678 C679 1.355 . S
C678 C680 1.415 . S
C679 C678 1.355 . S
C679 C681 1.419 . S
C680 C678 1.415 . S
C680 C685 1.425 . S
C680 C687 1.409 . S
C681 H673 0.930 . S
C681 C679 1.419 . S
C681 C682 1.362 . S
C682 H674 0.930 . S
C682 C681 1.362 . S
C682 C685 1.409 . S
C683 H675 0.930 . S
C683 C684 1.355 . S
C683 C685 1.415 . S
C684 C683 1.355 . S
C684 C686 1.419 . S
C685 C680 1.425 . S
C685 C682 1.409 . S
C685 C683 1.415 . S
C686 H676 0.930 . S
C686 C684 1.419 . S
C686 C687 1.362 . S
C687 H677 0.930 . S
C687 C680 1.409 . S
C687 C686 1.362 . S
H688 C694 0.930 . S
H689 C697 0.930 . S
H690 C698 0.930 . S
H691 C699 0.930 . S
H692 C702 0.930 . S
H693 C703 0.930 . S
C694 H688 0.930 . S
C694 C695 1.355 . S
C694 C696 1.415 . S
C695 C694 1.355 . S
C695 C697 1.419 . S
C696 C694 1.415 . S
C696 C701 1.425 . S
C696 C703 1.409 . S
C697 H689 0.930 . S
C697 C695 1.419 . S
C697 C698 1.362 . S
C698 H690 0.930 . S
C698 C697 1.362 . S
C698 C701 1.409 . S
C699 H691 0.930 . S
C699 C700 1.355 . S
C699 C701 1.415 . S
C700 C699 1.355 . S
C700 C702 1.419 . S
C701 C696 1.425 . S
C701 C698 1.409 . S
C701 C699 1.415 . S
C702 H692 0.930 . S
C702 C700 1.419 . S
C702 C703 1.362 . S
C703 H693 0.930 . S
C703 C696 1.409 . S
C703 C702 1.362 . S
H704 C710 0.930 . S
H705 C713 0.930 . S
H706 C714 0.930 . S
H707 C715 0.930 . S
H708 C718 0.930 . S
H709 C719 0.930 . S
C710 H704 0.930 . S
C710 C711 1.355 . S
C710 C712 1.415 . S
C711 C710 1.355 . S
C711 C713 1.419 . S
C712 C710 1.415 . S
C712 C717 1.425 1_455 S
C712 C719 1.409 . S
C713 H705 0.930 . S
C713 C711 1.419 . S
C713 C714 1.362 1_455 S
C714 H706 0.930 . S
C714 C713 1.362 1_655 S
C714 C717 1.409 . S
C715 H707 0.930 . S
C715 C716 1.355 . S
C715 C717 1.415 . S
C716 C715 1.355 . S
C716 C718 1.419 . S
C717 C712 1.425 1_655 S
C717 C714 1.409 . S
C717 C715 1.415 . S
C718 H708 0.930 . S
C718 C716 1.419 . S
C718 C719 1.362 1_655 S
C719 H709 0.930 . S
C719 C712 1.409 . S
C719 C718 1.362 1_455 S
H720 C726 0.930 . S
H721 C729 0.930 . S
H722 C730 0.930 . S
H723 C731 0.930 . S
H724 C734 0.930 . S
H725 C735 0.930 . S
C726 H720 0.930 . S
C726 C727 1.355 . S
C726 C728 1.415 1_545 S
C727 C726 1.355 . S
C727 C729 1.419 . S
C728 C726 1.415 1_565 S
C728 C733 1.425 1_565 S
C728 C735 1.409 . S
C729 H721 0.930 . S
C729 C727 1.419 . S
C729 C730 1.362 . S
C730 H722 0.930 . S
C730 C729 1.362 . S
C730 C733 1.409 . S
C731 H723 0.930 . S
C731 C732 1.355 . S
C731 C733 1.415 1_565 S
C732 C731 1.355 . S
C732 C734 1.419 . S
C733 C728 1.425 1_545 S
C733 C730 1.409 . S
C733 C731 1.415 1_545 S
C734 H724 0.930 . S
C734 C732 1.419 . S
C734 C735 1.362 . S
C735 H725 0.930 . S
C735 C728 1.409 . S
C735 C734 1.362 . S
H736 C742 0.930 . S
H737 C745 0.927 1_565 S
H738 C746 0.930 . S
H739 C747 0.930 . S
H740 C750 0.927 1_545 S
H741 C751 0.930 . S
C742 H736 0.930 . S
C742 C743 1.355 . S
C742 C744 1.415 1_455 S
C743 C742 1.355 . S
C743 C745 1.430 . S
C744 C742 1.415 1_655 S
C744 C749 1.425 1_646 S
C744 C751 1.409 1_556 S
C745 H737 0.927 1_545 S
C745 C743 1.430 . S
C745 C746 1.354 1_545 S
C746 H738 0.930 . S
C746 C745 1.354 1_565 S
C746 C749 1.409 1_556 S
C747 H739 0.930 . S
C747 C748 1.355 . S
C747 C749 1.415 1_655 S
C748 C747 1.355 . S
C748 C750 1.430 . S
C749 C744 1.425 1_464 S
C749 C746 1.409 1_554 S
C749 C747 1.415 1_455 S
C750 H740 0.927 1_565 S
C750 C748 1.430 . S
C750 C751 1.354 1_565 S
C751 H741 0.930 . S
C751 C744 1.409 1_554 S
C751 C750 1.354 1_545 S
H752 C758 0.930 . S
H753 C761 0.930 . S
H754 C762 0.930 . S
H755 C763 0.930 . S
H756 C766 0.930 . S
H757 C767 0.930 . S
C758 H752 0.930 . S
C758 C759 1.355 . S
C758 C760 1.415 . S
C759 C758 1.355 . S
C759 C761 1.419 . S
C760 C758 1.415 . S
C760 C765 1.425 1_556 S
C760 C767 1.409 1_556 S
C761 H753 0.930 . S
C761 C759 1.419 . S
C761 C762 1.362 . S
C762 H754 0.930 . S
C762 C761 1.362 . S
C762 C765 1.409 1_556 S
C763 H755 0.930 . S
C763 C764 1.355 . S
C763 C765 1.415 . S
C764 C763 1.355 . S
C764 C766 1.419 . S
C765 C760 1.425 1_554 S
C765 C762 1.409 1_554 S
C765 C763 1.415 . S
C766 H756 0.930 . S
C766 C764 1.419 . S
C766 C767 1.362 . S
C767 H757 0.930 . S
C767 C760 1.409 1_554 S
C767 C766 1.362 . S
H768 C774 0.930 . S
H769 C777 0.930 . S
H770 C778 0.930 . S
H771 C779 0.930 . S
H772 C782 0.930 . S
H773 C783 0.930 . S
C774 H768 0.930 . S
C774 C775 1.355 . S
C774 C776 1.415 . S
C775 C774 1.355 . S
C775 C777 1.419 . S
C776 C774 1.415 . S
C776 C781 1.425 1_655 S
C776 C783 1.409 . S
C777 H769 0.930 . S
C777 C775 1.419 . S
C777 C778 1.362 1_655 S
C778 H770 0.930 . S
C778 C777 1.362 1_455 S
C778 C781 1.409 . S
C779 H771 0.930 . S
C779 C780 1.355 . S
C779 C781 1.415 . S
C780 C779 1.355 . S
C780 C782 1.419 . S
C781 C776 1.425 1_455 S
C781 C778 1.409 . S
C781 C779 1.415 . S
C782 H772 0.930 . S
C782 C780 1.419 . S
C782 C783 1.362 1_455 S
C783 H773 0.930 . S
C783 C776 1.409 . S
C783 C782 1.362 1_655 S
H784 C790 0.930 . S
H785 C793 0.930 . S
H786 C794 0.930 . S
H787 C795 0.930 . S
H788 C798 0.930 . S
H789 C799 0.930 . S
C790 H784 0.930 . S
C790 C791 1.355 . S
C790 C792 1.415 . S
C791 C790 1.355 . S
C791 C793 1.419 1_545 S
C792 C790 1.415 . S
C792 C797 1.425 1_545 S
C792 C799 1.409 . S
C793 H785 0.930 . S
C793 C791 1.419 1_565 S
C793 C794 1.362 . S
C794 H786 0.930 . S
C794 C793 1.362 . S
C794 C797 1.409 . S
C795 H787 0.930 . S
C795 C796 1.355 . S
C795 C797 1.415 . S
C796 C795 1.355 . S
C796 C798 1.419 1_565 S
C797 C792 1.425 1_565 S
C797 C794 1.409 . S
C797 C795 1.415 . S
C798 H788 0.930 . S
C798 C796 1.419 1_545 S
C798 C799 1.362 . S
C799 H789 0.930 . S
C799 C792 1.409 . S
C799 C798 1.362 . S
H800 C806 0.930 . S
H801 C809 0.930 . S
H802 C810 0.930 . S
H803 C811 0.930 . S
H804 C814 0.930 . S
H805 C815 0.930 . S
C806 H800 0.930 . S
C806 C807 1.355 . S
C806 C808 1.415 . S
C807 C806 1.355 . S
C807 C809 1.419 1_556 S
C808 C806 1.415 . S
C808 C813 1.425 1_556 S
C808 C815 1.409 . S
C809 H801 0.930 . S
C809 C807 1.419 1_554 S
C809 C810 1.362 . S
C810 H802 0.930 . S
C810 C809 1.362 . S
C810 C813 1.409 . S
C811 H803 0.930 . S
C811 C812 1.355 . S
C811 C813 1.415 . S
C812 C811 1.355 . S
C812 C814 1.419 1_554 S
C813 C808 1.425 1_554 S
C813 C810 1.409 . S
C813 C811 1.415 . S
C814 H804 0.930 . S
C814 C812 1.419 1_556 S
C814 C815 1.362 . S
C815 H805 0.930 . S
C815 C808 1.409 . S
C815 C814 1.362 . S
H816 C822 0.930 . S
H817 C825 0.930 . S
H818 C826 0.930 . S
H819 C827 0.930 . S
H820 C830 0.930 . S
H821 C831 0.930 . S
C822 H816 0.930 . S
C822 C823 1.355 . S
C822 C824 1.415 . S
C823 C822 1.355 . S
C823 C825 1.419 . S
C824 C822 1.415 . S
C824 C829 1.425 . S
C824 C831 1.409 . S
C825 H817 0.930 . S
C825 C823 1.419 . S
C825 C826 1.362 . S
C826 H818 0.930 . S
C826 C825 1.362 . S
C826 C829 1.409 . S
C827 H819 0.930 . S
C827 C828 1.355 . S
C827 C829 1.415 . S
C828 C827 1.355 . S
C828 C830 1.419 . S
C829 C824 1.425 . S
C829 C826 1.409 . S
C829 C827 1.415 . S
C830 H820 0.930 . S
C830 C828 1.419 . S
C830 C831 1.362 . S
C831 H821 0.930 . S
C831 C824 1.409 . S
C831 C830 1.362 . S
H832 C838 0.963 . S
H833 C841 0.930 . S
H834 C842 0.930 . S
H835 C843 0.963 . S
H836 C846 0.930 . S
H837 C847 0.930 . S
C838 H832 0.963 . S
C838 C839 1.355 . S
C838 C840 1.415 1_455 S
C839 C838 1.355 . S
C839 C841 1.419 . S
C840 C838 1.415 1_655 S
C840 C845 1.425 1_655 S
C840 C847 1.409 . S
C841 H833 0.930 . S
C841 C839 1.419 . S
C841 C842 1.362 . S
C842 H834 0.930 . S
C842 C841 1.362 . S
C842 C845 1.409 . S
C843 H835 0.963 . S
C843 C844 1.355 . S
C843 C845 1.415 1_655 S
C844 C843 1.355 . S
C844 C846 1.419 . S
C845 C840 1.425 1_455 S
C845 C842 1.409 . S
C845 C843 1.415 1_455 S
C846 H836 0.930 . S
C846 C844 1.419 . S
C846 C847 1.362 . S
C847 H837 0.930 . S
C847 C840 1.409 . S
C847 C846 1.362 . S
H848 C854 0.930 . S
H849 C857 0.930 . S
H850 C858 0.930 . S
H851 C859 0.930 . S
H852 C862 0.930 . S
H853 C863 0.930 . S
C854 H848 0.930 . S
C854 C855 1.355 . S
C854 C856 1.415 . S
C855 C854 1.355 . S
C855 C857 1.419 . S
C856 C854 1.415 . S
C856 C861 1.425 . S
C856 C863 1.409 . S
C857 H849 0.930 . S
C857 C855 1.419 . S
C857 C858 1.362 . S
C858 H850 0.930 . S
C858 C857 1.362 . S
C858 C861 1.409 . S
C859 H851 0.930 . S
C859 C860 1.355 . S
C859 C861 1.415 . S
C860 C859 1.355 . S
C860 C862 1.419 . S
C861 C856 1.425 . S
C861 C858 1.409 . S
C861 C859 1.415 . S
C862 H852 0.930 . S
C862 C860 1.419 . S
C862 C863 1.362 . S
C863 H853 0.930 . S
C863 C856 1.409 . S
C863 C862 1.362 . S
H864 C870 0.930 . S
H865 C873 0.930 . S
H866 C874 0.930 . S
H867 C875 0.930 . S
H868 C878 0.930 . S
H869 C879 0.930 . S
C870 H864 0.930 . S
C870 C871 1.355 . S
C870 C872 1.415 . S
C871 C870 1.355 . S
C871 C873 1.419 . S
C872 C870 1.415 . S
C872 C877 1.425 . S
C872 C879 1.409 . S
C873 H865 0.930 . S
C873 C871 1.419 . S
C873 C874 1.362 . S
C874 H866 0.930 . S
C874 C873 1.362 . S
C874 C877 1.409 . S
C875 H867 0.930 . S
C875 C876 1.355 . S
C875 C877 1.415 . S
C876 C875 1.355 . S
C876 C878 1.419 . S
C877 C872 1.425 . S
C877 C874 1.409 . S
C877 C875 1.415 . S
C878 H868 0.930 . S
C878 C876 1.419 . S
C878 C879 1.362 . S
C879 H869 0.930 . S
C879 C872 1.409 . S
C879 C878 1.362 . S
H880 C886 0.930 . S
H881 C889 0.930 . S
H882 C890 0.930 . S
H883 C891 0.930 . S
H884 C894 0.930 . S
H885 C895 0.930 . S
C886 H880 0.930 . S
C886 C887 1.355 . S
C886 C888 1.415 . S
C887 C886 1.355 . S
C887 C889 1.419 . S
C888 C886 1.415 . S
C888 C893 1.425 . S
C888 C895 1.409 . S
C889 H881 0.930 . S
C889 C887 1.419 . S
C889 C890 1.362 . S
C890 H882 0.930 . S
C890 C889 1.362 . S
C890 C893 1.409 . S
C891 H883 0.930 . S
C891 C892 1.355 . S
C891 C893 1.415 . S
C892 C891 1.355 . S
C892 C894 1.419 . S
C893 C888 1.425 . S
C893 C890 1.409 . S
C893 C891 1.415 . S
C894 H884 0.930 . S
C894 C892 1.419 . S
C894 C895 1.362 . S
C895 H885 0.930 . S
C895 C888 1.409 . S
C895 C894 1.362 . S
H896 C902 0.930 . S
H897 C905 0.930 . S
H898 C906 0.930 . S
H899 C907 0.930 . S
H900 C910 0.930 . S
H901 C911 0.930 . S
C902 H896 0.930 . S
C902 C903 1.355 . S
C902 C904 1.415 . S
C903 C902 1.355 . S
C903 C905 1.419 . S
C904 C902 1.415 . S
C904 C909 1.425 . S
C904 C911 1.409 . S
C905 H897 0.930 . S
C905 C903 1.419 . S
C905 C906 1.362 . S
C906 H898 0.930 . S
C906 C905 1.362 . S
C906 C909 1.409 . S
C907 H899 0.930 . S
C907 C908 1.355 . S
C907 C909 1.415 . S
C908 C907 1.355 . S
C908 C910 1.419 . S
C909 C904 1.425 . S
C909 C906 1.409 . S
C909 C907 1.415 . S
C910 H900 0.930 . S
C910 C908 1.419 . S
C910 C911 1.362 . S
C911 H901 0.930 . S
C911 C904 1.409 . S
C911 C910 1.362 . S
H912 C918 0.930 . S
H913 C921 0.930 . S
H914 C922 0.930 . S
H915 C923 0.930 . S
H916 C926 0.930 . S
H917 C927 0.930 . S
C918 H912 0.930 . S
C918 C919 1.355 . S
C918 C920 1.415 . S
C919 C918 1.355 . S
C919 C921 1.419 . S
C920 C918 1.415 . S
C920 C925 1.425 1_565 S
C920 C927 1.409 . S
C921 H913 0.930 . S
C921 C919 1.419 . S
C921 C922 1.362 1_565 S
C922 H914 0.930 . S
C922 C921 1.362 1_545 S
C922 C925 1.409 . S
C923 H915 0.930 . S
C923 C924 1.355 . S
C923 C925 1.415 . S
C924 C923 1.355 . S
C924 C926 1.419 . S
C925 C920 1.425 1_545 S
C925 C922 1.409 . S
C925 C923 1.415 . S
C926 H916 0.930 . S
C926 C924 1.419 . S
C926 C927 1.362 1_545 S
C927 H917 0.930 . S
C927 C920 1.409 . S
C927 C926 1.362 1_565 S
H928 C934 0.930 . S
H929 C937 0.930 . S
H930 C938 0.930 . S
H931 C939 0.930 . S
H932 C942 0.930 . S
H933 C943 0.930 . S
C934 H928 0.930 . S
C934 C935 1.355 . S
C934 C936 1.415 . S
C935 C934 1.355 . S
C935 C937 1.419 . S
C936 C934 1.415 . S
C936 C941 1.425 . S
C936 C943 1.409 . S
C937 H929 0.930 . S
C937 C935 1.419 . S
C937 C938 1.362 . S
C938 H930 0.930 . S
C938 C937 1.362 . S
C938 C941 1.409 . S
C939 H931 0.930 . S
C939 C940 1.355 . S
C939 C941 1.415 . S
C940 C939 1.355 . S
C940 C942 1.419 . S
C941 C936 1.425 . S
C941 C938 1.409 . S
C941 C939 1.415 . S
C942 H932 0.930 . S
C942 C940 1.419 . S
C942 C943 1.362 . S
C943 H933 0.930 . S
C943 C936 1.409 . S
C943 C942 1.362 . S
H944 C950 0.930 . S
H945 C953 0.930 . S
H946 C954 0.930 . S
H947 C955 0.930 . S
H948 C958 0.930 . S
H949 C959 0.930 . S
C950 H944 0.930 . S
C950 C951 1.355 . S
C950 C952 1.415 . S
C951 C950 1.355 . S
C951 C953 1.419 1_554 S
C952 C950 1.415 . S
C952 C957 1.425 1_554 S
C952 C959 1.409 . S
C953 H945 0.930 . S
C953 C951 1.419 1_556 S
C953 C954 1.362 . S
C954 H946 0.930 . S
C954 C953 1.362 . S
C954 C957 1.409 . S
C955 H947 0.930 . S
C955 C956 1.355 . S
C955 C957 1.415 . S
C956 C955 1.355 . S
C956 C958 1.419 1_556 S
C957 C952 1.425 1_556 S
C957 C954 1.409 . S
C957 C955 1.415 . S
C958 H948 0.930 . S
C958 C956 1.419 1_554 S
C958 C959 1.362 . S
C959 H949 0.930 . S
C959 C952 1.409 . S
C959 C958 1.362 . S
H960 C966 0.930 . S
H961 C969 0.930 . S
H962 C970 0.930 . S
H963 C971 0.930 . S
H964 C974 0.930 . S
H965 C975 0.930 . S
C966 H960 0.930 . S
C966 C967 1.355 . S
C966 C968 1.415 . S
C967 C966 1.355 . S
C967 C969 1.419 . S
C968 C966 1.415 . S
C968 C973 1.425 . S
C968 C975 1.409 . S
C969 H961 0.930 . S
C969 C967 1.419 . S
C969 C970 1.362 . S
C970 H962 0.930 . S
C970 C969 1.362 . S
C970 C973 1.409 . S
C971 H963 0.930 . S
C971 C972 1.355 . S
C971 C973 1.415 . S
C972 C971 1.355 . S
C972 C974 1.419 . S
C973 C968 1.425 . S
C973 C970 1.409 . S
C973 C971 1.415 . S
C974 H964 0.930 . S
C974 C972 1.419 . S
C974 C975 1.362 . S
C975 H965 0.930 . S
C975 C968 1.409 . S
C975 C974 1.362 . S
H976 C982 0.930 . S
H977 C985 0.930 . S
H978 C986 0.930 . S
H979 C987 0.930 . S
H980 C990 0.930 . S
H981 C991 0.930 . S
C982 H976 0.930 . S
C982 C983 1.355 . S
C982 C984 1.415 . S
C983 C982 1.355 . S
C983 C985 1.419 . S
C984 C982 1.415 . S
C984 C989 1.425 . S
C984 C991 1.409 . S
C985 H977 0.930 . S
C985 C983 1.419 . S
C985 C986 1.362 . S
C986 H978 0.930 . S
C986 C985 1.362 . S
C986 C989 1.409 . S
C987 H979 0.930 . S
C987 C988 1.355 . S
C987 C989 1.415 . S
C988 C987 1.355 . S
C988 C990 1.419 . S
C989 C984 1.425 . S
C989 C986 1.409 . S
C989 C987 1.415 . S
C990 H980 0.930 . S
C990 C988 1.419 . S
C990 C991 1.362 . S
C991 H981 0.930 . S
C991 C984 1.409 . S
C991 C990 1.362 . S
H992 C998 0.930 . S
H993 C1001 0.930 . S
H994 C1002 0.930 . S
H995 C1003 0.930 . S
H996 C1006 0.930 . S
H997 C1007 0.930 . S
C998 H992 0.930 . S
C998 C999 1.355 . S
C998 C1000 1.415 . S
C999 C998 1.355 . S
C999 C1001 1.419 . S
C1000 C998 1.415 . S
C1000 C1005 1.425 . S
C1000 C1007 1.409 . S
C1001 H993 0.930 . S
C1001 C999 1.419 . S
C1001 C1002 1.362 . S
C1002 H994 0.930 . S
C1002 C1001 1.362 . S
C1002 C1005 1.409 . S
C1003 H995 0.930 . S
C1003 C1004 1.355 . S
C1003 C1005 1.415 . S
C1004 C1003 1.355 . S
C1004 C1006 1.419 . S
C1005 C1000 1.425 . S
C1005 C1002 1.409 . S
C1005 C1003 1.415 . S
C1006 H996 0.930 . S
C1006 C1004 1.419 . S
C1006 C1007 1.362 . S
C1007 H997 0.930 . S
C1007 C1000 1.409 . S
C1007 C1006 1.362 . S
H1008 C1014 0.930 . S
H1009 C1017 0.930 . S
H1010 C1018 0.930 . S
H1011 C1019 0.930 . S
H1012 C1022 0.930 . S
H1013 C1023 0.930 . S
C1014 H1008 0.930 . S
C1014 C1015 1.355 . S
C1014 C1016 1.415 . S
C1015 C1014 1.355 . S
C1015 C1017 1.419 . S
C1016 C1014 1.415 . S
C1016 C1021 1.425 . S
C1016 C1023 1.409 . S
C1017 H1009 0.930 . S
C1017 C1015 1.419 . S
C1017 C1018 1.362 . S
C1018 H1010 0.930 . S
C1018 C1017 1.362 . S
C1018 C1021 1.409 . S
C1019 H1011 0.930 . S
C1019 C1020 1.355 . S
C1019 C1021 1.415 . S
C1020 C1019 1.355 . S
C1020 C1022 1.419 . S
C1021 C1016 1.425 . S
C1021 C1018 1.409 . S
C1021 C1019 1.415 . S
C1022 H1012 0.930 . S
C1022 C1020 1.419 . S
C1022 C1023 1.362 . S
C1023 H1013 0.930 . S
C1023 C1016 1.409 . S
C1023 C1022 1.362 . S
H1024 C1030 0.930 . S
H1025 C1033 0.930 . S
H1026 C1034 0.930 . S
H1027 C1035 0.930 . S
H1028 C1038 0.930 . S
H1029 C1039 0.930 . S
C1030 H1024 0.930 . S
C1030 C1031 1.355 . S
C1030 C1032 1.415 . S
C1031 C1030 1.355 . S
C1031 C1033 1.419 . S
C1032 C1030 1.415 . S
C1032 C1037 1.425 . S
C1032 C1039 1.409 . S
C1033 H1025 0.930 . S
C1033 C1031 1.419 . S
C1033 C1034 1.362 . S
C1034 H1026 0.930 . S
C1034 C1033 1.362 . S
C1034 C1037 1.409 . S
C1035 H1027 0.930 . S
C1035 C1036 1.355 . S
C1035 C1037 1.415 . S
C1036 C1035 1.355 . S
C1036 C1038 1.419 . S
C1037 C1032 1.425 . S
C1037 C1034 1.409 . S
C1037 C1035 1.415 . S
C1038 H1028 0.930 . S
C1038 C1036 1.419 . S
C1038 C1039 1.362 . S
C1039 H1029 0.930 . S
C1039 C1032 1.409 . S
C1039 C1038 1.362 . S
H1040 C1046 0.930 . S
H1041 C1049 0.930 . S
H1042 C1050 0.930 . S
H1043 C1051 0.930 . S
H1044 C1054 0.930 . S
H1045 C1055 0.930 . S
C1046 H1040 0.930 . S
C1046 C1047 1.355 . S
C1046 C1048 1.415 . S
C1047 C1046 1.355 . S
C1047 C1049 1.419 . S
C1048 C1046 1.415 . S
C1048 C1053 1.425 . S
C1048 C1055 1.409 . S
C1049 H1041 0.930 . S
C1049 C1047 1.419 . S
C1049 C1050 1.362 . S
C1050 H1042 0.930 . S
C1050 C1049 1.362 . S
C1050 C1053 1.409 . S
C1051 H1043 0.930 . S
C1051 C1052 1.355 . S
C1051 C1053 1.415 . S
C1052 C1051 1.355 . S
C1052 C1054 1.419 . S
C1053 C1048 1.425 . S
C1053 C1050 1.409 . S
C1053 C1051 1.415 . S
C1054 H1044 0.930 . S
C1054 C1052 1.419 . S
C1054 C1055 1.362 . S
C1055 H1045 0.930 . S
C1055 C1048 1.409 . S
C1055 C1054 1.362 . S
H1056 C1062 0.930 . S
H1057 C1065 0.930 . S
H1058 C1066 0.930 . S
H1059 C1067 0.930 . S
H1060 C1070 0.930 . S
H1061 C1071 0.930 . S
C1062 H1056 0.930 . S
C1062 C1063 1.355 . S
C1062 C1064 1.415 . S
C1063 C1062 1.355 . S
C1063 C1065 1.419 . S
C1064 C1062 1.415 . S
C1064 C1069 1.425 . S
C1064 C1071 1.409 . S
C1065 H1057 0.930 . S
C1065 C1063 1.419 . S
C1065 C1066 1.362 . S
C1066 H1058 0.930 . S
C1066 C1065 1.362 . S
C1066 C1069 1.409 . S
C1067 H1059 0.930 . S
C1067 C1068 1.355 . S
C1067 C1069 1.415 . S
C1068 C1067 1.355 . S
C1068 C1070 1.419 . S
C1069 C1064 1.425 . S
C1069 C1066 1.409 . S
C1069 C1067 1.415 . S
C1070 H1060 0.930 . S
C1070 C1068 1.419 . S
C1070 C1071 1.362 . S
C1071 H1061 0.930 . S
C1071 C1064 1.409 . S
C1071 C1070 1.362 . S
H1072 C1078 0.930 . S
H1073 C1081 0.930 . S
H1074 C1082 0.930 . S
H1075 C1083 0.930 . S
H1076 C1086 0.930 . S
H1077 C1087 0.930 . S
C1078 H1072 0.930 . S
C1078 C1079 1.355 . S
C1078 C1080 1.415 . S
C1079 C1078 1.355 . S
C1079 C1081 1.419 . S
C1080 C1078 1.415 . S
C1080 C1085 1.425 . S
C1080 C1087 1.409 . S
C1081 H1073 0.930 . S
C1081 C1079 1.419 . S
C1081 C1082 1.362 . S
C1082 H1074 0.930 . S
C1082 C1081 1.362 . S
C1082 C1085 1.409 . S
C1083 H1075 0.930 . S
C1083 C1084 1.355 . S
C1083 C1085 1.415 . S
C1084 C1083 1.355 . S
C1084 C1086 1.419 . S
C1085 C1080 1.425 . S
C1085 C1082 1.409 . S
C1085 C1083 1.415 . S
C1086 H1076 0.930 . S
C1086 C1084 1.419 . S
C1086 C1087 1.362 . S
C1087 H1077 0.930 . S
C1087 C1080 1.409 . S
C1087 C1086 1.362 . S
H1088 C1094 0.930 . S
H1089 C1097 0.930 . S
H1090 C1098 0.930 . S
H1091 C1099 0.930 . S
H1092 C1102 0.930 . S
H1093 C1103 0.930 . S
C1094 H1088 0.930 . S
C1094 C1095 1.355 . S
C1094 C1096 1.415 . S
C1095 C1094 1.355 . S
C1095 C1097 1.419 . S
C1096 C1094 1.415 . S
C1096 C1101 1.425 . S
C1096 C1103 1.409 . S
C1097 H1089 0.930 . S
C1097 C1095 1.419 . S
C1097 C1098 1.362 . S
C1098 H1090 0.930 . S
C1098 C1097 1.362 . S
C1098 C1101 1.409 . S
C1099 H1091 0.930 . S
C1099 C1100 1.355 . S
C1099 C1101 1.415 . S
C1100 C1099 1.355 . S
C1100 C1102 1.419 . S
C1101 C1096 1.425 . S
C1101 C1098 1.409 . S
C1101 C1099 1.415 . S
C1102 H1092 0.930 . S
C1102 C1100 1.419 . S
C1102 C1103 1.362 . S
C1103 H1093 0.930 . S
C1103 C1096 1.409 . S
C1103 C1102 1.362 . S
H1104 C1110 0.930 . S
H1105 C1113 0.930 . S
H1106 C1114 0.930 . S
H1107 C1115 0.930 . S
H1108 C1118 0.930 1_545 S
H1109 C1119 0.930 . S
C1110 H1104 0.930 . S
C1110 C1111 1.355 . S
C1110 C1112 1.415 . S
C1111 C1110 1.355 . S
C1111 C1113 1.419 . S
C1112 C1110 1.415 . S
C1112 C1117 1.425 . S
C1112 C1119 1.409 . S
C1113 H1105 0.930 . S
C1113 C1111 1.419 . S
C1113 C1114 1.362 . S
C1114 H1106 0.930 . S
C1114 C1113 1.362 . S
C1114 C1117 1.409 . S
C1115 H1107 0.930 . S
C1115 C1116 1.355 . S
C1115 C1117 1.415 . S
C1116 C1115 1.355 . S
C1116 C1118 1.419 . S
C1117 C1112 1.425 . S
C1117 C1114 1.409 . S
C1117 C1115 1.415 . S
C1118 H1108 0.930 1_565 S
C1118 C1116 1.419 . S
C1118 C1119 1.362 . S
C1119 H1109 0.930 . S
C1119 C1112 1.409 . S
C1119 C1118 1.362 . S
H1120 C1126 0.930 . S
H1121 C1129 0.930 . S
H1122 C1130 0.930 . S
H1123 C1131 0.930 . S
H1124 C1134 0.930 . S
H1125 C1135 0.930 . S
C1126 H1120 0.930 . S
C1126 C1127 1.355 . S
C1126 C1128 1.415 . S
C1127 C1126 1.355 . S
C1127 C1129 1.419 . S
C1128 C1126 1.415 . S
C1128 C1133 1.425 . S
C1128 C1135 1.409 . S
C1129 H1121 0.930 . S
C1129 C1127 1.419 . S
C1129 C1130 1.362 . S
C1130 H1122 0.930 . S
C1130 C1129 1.362 . S
C1130 C1133 1.409 . S
C1131 H1123 0.930 . S
C1131 C1132 1.355 . S
C1131 C1133 1.415 . S
C1132 C1131 1.355 . S
C1132 C1134 1.419 . S
C1133 C1128 1.425 . S
C1133 C1130 1.409 . S
C1133 C1131 1.415 . S
C1134 H1124 0.930 . S
C1134 C1132 1.419 . S
C1134 C1135 1.362 . S
C1135 H1125 0.930 . S
C1135 C1128 1.409 . S
C1135 C1134 1.362 . S
H1136 C1142 0.930 . S
H1137 C1145 0.930 . S
H1138 C1146 0.930 . S
H1139 C1147 0.930 . S
H1140 C1150 0.930 . S
H1141 C1151 0.930 . S
C1142 H1136 0.930 . S
C1142 C1143 1.355 . S
C1142 C1144 1.415 . S
C1143 C1142 1.355 . S
C1143 C1145 1.419 . S
C1144 C1142 1.415 . S
C1144 C1149 1.425 . S
C1144 C1151 1.409 . S
C1145 H1137 0.930 . S
C1145 C1143 1.419 . S
C1145 C1146 1.362 . S
C1146 H1138 0.930 . S
C1146 C1145 1.362 . S
C1146 C1149 1.409 . S
C1147 H1139 0.930 . S
C1147 C1148 1.355 . S
C1147 C1149 1.415 . S
C1148 C1147 1.355 . S
C1148 C1150 1.419 . S
C1149 C1144 1.425 . S
C1149 C1146 1.409 . S
C1149 C1147 1.415 . S
C1150 H1140 0.930 . S
C1150 C1148 1.419 . S
C1150 C1151 1.362 . S
C1151 H1141 0.930 . S
C1151 C1144 1.409 . S
C1151 C1150 1.362 . S
H1152 C1158 0.930 . S
H1153 C1161 0.930 . S
H1154 C1162 0.930 . S
H1155 C1163 0.930 . S
H1156 C1166 0.930 . S
H1157 C1167 0.930 . S
C1158 H1152 0.930 . S
C1158 C1159 1.355 . S
C1158 C1160 1.415 . S
C1159 C1158 1.355 . S
C1159 C1161 1.419 . S
C1160 C1158 1.415 . S
C1160 C1165 1.425 . S
C1160 C1167 1.409 . S
C1161 H1153 0.930 . S
C1161 C1159 1.419 . S
C1161 C1162 1.362 . S
C1162 H1154 0.930 . S
C1162 C1161 1.362 . S
C1162 C1165 1.409 . S
C1163 H1155 0.930 . S
C1163 C1164 1.355 . S
C1163 C1165 1.415 . S
C1164 C1163 1.355 . S
C1164 C1166 1.419 . S
C1165 C1160 1.425 . S
C1165 C1162 1.409 . S
C1165 C1163 1.415 . S
C1166 H1156 0.930 . S
C1166 C1164 1.419 . S
C1166 C1167 1.362 . S
C1167 H1157 0.930 . S
C1167 C1160 1.409 . S
C1167 C1166 1.362 . S
H1168 C1174 0.930 . S
H1169 C1177 0.930 . S
H1170 C1178 0.930 . S
H1171 C1179 0.930 . S
H1172 C1182 0.930 . S
H1173 C1183 0.930 . S
C1174 H1168 0.930 . S
C1174 C1175 1.355 . S
C1174 C1176 1.415 . S
C1175 C1174 1.355 . S
C1175 C1177 1.419 . S
C1176 C1174 1.415 . S
C1176 C1181 1.425 . S
C1176 C1183 1.409 . S
C1177 H1169 0.930 . S
C1177 C1175 1.419 . S
C1177 C1178 1.362 . S
C1178 H1170 0.930 . S
C1178 C1177 1.362 . S
C1178 C1181 1.409 . S
C1179 H1171 0.930 . S
C1179 C1180 1.355 . S
C1179 C1181 1.415 . S
C1180 C1179 1.355 . S
C1180 C1182 1.419 . S
C1181 C1176 1.425 . S
C1181 C1178 1.409 . S
C1181 C1179 1.415 . S
C1182 H1172 0.930 . S
C1182 C1180 1.419 . S
C1182 C1183 1.362 . S
C1183 H1173 0.930 . S
C1183 C1176 1.409 . S
C1183 C1182 1.362 . S
H1184 C1190 0.930 . S
H1185 C1193 0.930 . S
H1186 C1194 0.930 . S
H1187 C1195 0.930 . S
H1188 C1198 0.930 . S
H1189 C1199 0.930 . S
C1190 H1184 0.930 . S
C1190 C1191 1.355 . S
C1190 C1192 1.415 . S
C1191 C1190 1.355 . S
C1191 C1193 1.419 . S
C1192 C1190 1.415 . S
C1192 C1197 1.425 . S
C1192 C1199 1.409 . S
C1193 H1185 0.930 . S
C1193 C1191 1.419 . S
C1193 C1194 1.362 . S
C1194 H1186 0.930 . S
C1194 C1193 1.362 . S
C1194 C1197 1.409 . S
C1195 H1187 0.930 . S
C1195 C1196 1.355 . S
C1195 C1197 1.415 . S
C1196 C1195 1.355 . S
C1196 C1198 1.419 . S
C1197 C1192 1.425 . S
C1197 C1194 1.409 . S
C1197 C1195 1.415 . S
C1198 H1188 0.930 . S
C1198 C1196 1.419 . S
C1198 C1199 1.362 . S
C1199 H1189 0.930 . S
C1199 C1192 1.409 . S
C1199 C1198 1.362 . S
H1200 C1206 0.930 . S
H1201 C1209 0.930 . S
H1202 C1210 0.930 . S
H1203 C1211 0.930 . S
H1204 C1214 0.930 . S
H1205 C1215 0.930 . S
C1206 H1200 0.930 . S
C1206 C1207 1.355 . S
C1206 C1208 1.415 . S
C1207 C1206 1.355 . S
C1207 C1209 1.419 . S
C1208 C1206 1.415 . S
C1208 C1213 1.425 . S
C1208 C1215 1.409 . S
C1209 H1201 0.930 . S
C1209 C1207 1.419 . S
C1209 C1210 1.362 . S
C1210 H1202 0.930 . S
C1210 C1209 1.362 . S
C1210 C1213 1.409 . S
C1211 H1203 0.930 . S
C1211 C1212 1.355 . S
C1211 C1213 1.415 . S
C1212 C1211 1.355 . S
C1212 C1214 1.419 . S
C1213 C1208 1.425 . S
C1213 C1210 1.409 . S
C1213 C1211 1.415 . S
C1214 H1204 0.930 . S
C1214 C1212 1.419 . S
C1214 C1215 1.362 . S
C1215 H1205 0.930 . S
C1215 C1208 1.409 . S
C1215 C1214 1.362 . S
H1216 C1222 0.930 . S
H1217 C1225 0.930 . S
H1218 C1226 0.930 . S
H1219 C1227 0.930 . S
H1220 C1230 0.930 1_545 S
H1221 C1231 0.930 . S
C1222 H1216 0.930 . S
C1222 C1223 1.355 . S
C1222 C1224 1.415 . S
C1223 C1222 1.355 . S
C1223 C1225 1.419 . S
C1224 C1222 1.415 . S
C1224 C1229 1.425 . S
C1224 C1231 1.409 . S
C1225 H1217 0.930 . S
C1225 C1223 1.419 . S
C1225 C1226 1.362 . S
C1226 H1218 0.930 . S
C1226 C1225 1.362 . S
C1226 C1229 1.409 . S
C1227 H1219 0.930 . S
C1227 C1228 1.355 . S
C1227 C1229 1.415 . S
C1228 C1227 1.355 . S
C1228 C1230 1.419 . S
C1229 C1224 1.425 . S
C1229 C1226 1.409 . S
C1229 C1227 1.415 . S
C1230 H1220 0.930 1_565 S
C1230 C1228 1.419 . S
C1230 C1231 1.362 . S
C1231 H1221 0.930 . S
C1231 C1224 1.409 . S
C1231 C1230 1.362 . S
H1232 C1238 0.930 . S
H1233 C1241 0.930 . S
H1234 C1242 0.930 . S
H1235 C1243 0.930 . S
H1236 C1246 0.930 . S
H1237 C1247 0.930 . S
C1238 H1232 0.930 . S
C1238 C1239 1.355 . S
C1238 C1240 1.415 . S
C1239 C1238 1.355 . S
C1239 C1241 1.419 . S
C1240 C1238 1.415 . S
C1240 C1245 1.425 . S
C1240 C1247 1.409 . S
C1241 H1233 0.930 . S
C1241 C1239 1.419 . S
C1241 C1242 1.362 . S
C1242 H1234 0.930 . S
C1242 C1241 1.362 . S
C1242 C1245 1.409 . S
C1243 H1235 0.930 . S
C1243 C1244 1.355 . S
C1243 C1245 1.415 . S
C1244 C1243 1.355 . S
C1244 C1246 1.419 . S
C1245 C1240 1.425 . S
C1245 C1242 1.409 . S
C1245 C1243 1.415 . S
C1246 H1236 0.930 . S
C1246 C1244 1.419 . S
C1246 C1247 1.362 . S
C1247 H1237 0.930 . S
C1247 C1240 1.409 . S
C1247 C1246 1.362 . S
H1248 C1254 0.930 . S
H1249 C1257 0.930 . S
H1250 C1258 0.930 . S
H1251 C1259 0.930 . S
H1252 C1262 0.930 . S
H1253 C1263 0.930 . S
C1254 H1248 0.930 . S
C1254 C1255 1.355 . S
C1254 C1256 1.415 . S
C1255 C1254 1.355 . S
C1255 C1257 1.419 . S
C1256 C1254 1.415 . S
C1256 C1261 1.425 . S
C1256 C1263 1.409 . S
C1257 H1249 0.930 . S
C1257 C1255 1.419 . S
C1257 C1258 1.362 . S
C1258 H1250 0.930 . S
C1258 C1257 1.362 . S
C1258 C1261 1.409 . S
C1259 H1251 0.930 . S
C1259 C1260 1.355 . S
C1259 C1261 1.415 . S
C1260 C1259 1.355 . S
C1260 C1262 1.419 . S
C1261 C1256 1.425 . S
C1261 C1258 1.409 . S
C1261 C1259 1.415 . S
C1262 H1252 0.930 . S
C1262 C1260 1.419 . S
C1262 C1263 1.362 . S
C1263 H1253 0.930 . S
C1263 C1256 1.409 . S
C1263 C1262 1.362 . S
H1264 C1270 0.930 . S
H1265 C1273 0.930 . S
H1266 C1274 0.930 . S
H1267 C1275 0.930 . S
H1268 C1278 0.930 . S
H1269 C1279 0.930 . S
C1270 H1264 0.930 . S
C1270 C1271 1.355 . S
C1270 C1272 1.415 . S
C1271 C1270 1.355 . S
C1271 C1273 1.419 . S
C1272 C1270 1.415 . S
C1272 C1277 1.425 . S
C1272 C1279 1.409 . S
C1273 H1265 0.930 . S
C1273 C1271 1.419 . S
C1273 C1274 1.362 . S
C1274 H1266 0.930 . S
C1274 C1273 1.362 . S
C1274 C1277 1.409 . S
C1275 H1267 0.930 . S
C1275 C1276 1.355 . S
C1275 C1277 1.415 . S
C1276 C1275 1.355 . S
C1276 C1278 1.419 . S
C1277 C1272 1.425 . S
C1277 C1274 1.409 . S
C1277 C1275 1.415 . S
C1278 H1268 0.930 . S
C1278 C1276 1.419 . S
C1278 C1279 1.362 . S
C1279 H1269 0.930 . S
C1279 C1272 1.409 . S
C1279 C1278 1.362 . S
H1280 C1286 0.930 . S
H1281 C1289 0.930 . S
H1282 C1290 0.930 . S
H1283 C1291 0.930 . S
H1284 C1294 0.930 1_565 S
H1285 C1295 0.930 . S
C1286 H1280 0.930 . S
C1286 C1287 1.355 . S
C1286 C1288 1.415 . S
C1287 C1286 1.355 . S
C1287 C1289 1.419 . S
C1288 C1286 1.415 . S
C1288 C1293 1.425 . S
C1288 C1295 1.409 . S
C1289 H1281 0.930 . S
C1289 C1287 1.419 . S
C1289 C1290 1.362 . S
C1290 H1282 0.930 . S
C1290 C1289 1.362 . S
C1290 C1293 1.409 . S
C1291 H1283 0.930 . S
C1291 C1292 1.355 . S
C1291 C1293 1.415 . S
C1292 C1291 1.355 . S
C1292 C1294 1.419 . S
C1293 C1288 1.425 . S
C1293 C1290 1.409 . S
C1293 C1291 1.415 . S
C1294 H1284 0.930 1_545 S
C1294 C1292 1.419 . S
C1294 C1295 1.362 . S
C1295 H1285 0.930 . S
C1295 C1288 1.409 . S
C1295 C1294 1.362 . S
H1296 C1302 0.930 . S
H1297 C1305 0.930 . S
H1298 C1306 0.930 . S
H1299 C1307 0.930 . S
H1300 C1310 0.930 . S
H1301 C1311 0.930 . S
C1302 H1296 0.930 . S
C1302 C1303 1.355 . S
C1302 C1304 1.415 . S
C1303 C1302 1.355 . S
C1303 C1305 1.419 . S
C1304 C1302 1.415 . S
C1304 C1309 1.425 . S
C1304 C1311 1.409 . S
C1305 H1297 0.930 . S
C1305 C1303 1.419 . S
C1305 C1306 1.362 . S
C1306 H1298 0.930 . S
C1306 C1305 1.362 . S
C1306 C1309 1.409 . S
C1307 H1299 0.930 . S
C1307 C1308 1.355 . S
C1307 C1309 1.415 . S
C1308 C1307 1.355 . S
C1308 C1310 1.419 . S
C1309 C1304 1.425 . S
C1309 C1306 1.409 . S
C1309 C1307 1.415 . S
C1310 H1300 0.930 . S
C1310 C1308 1.419 . S
C1310 C1311 1.362 . S
C1311 H1301 0.930 . S
C1311 C1304 1.409 . S
C1311 C1310 1.362 . S
H1312 C1318 0.930 . S
H1313 C1321 0.930 . S
H1314 C1322 0.930 . S
H1315 C1323 0.930 . S
H1316 C1326 0.930 . S
H1317 C1327 0.930 . S
C1318 H1312 0.930 . S
C1318 C1319 1.355 . S
C1318 C1320 1.415 . S
C1319 C1318 1.355 . S
C1319 C1321 1.419 . S
C1320 C1318 1.415 . S
C1320 C1325 1.425 . S
C1320 C1327 1.409 . S
C1321 H1313 0.930 . S
C1321 C1319 1.419 . S
C1321 C1322 1.362 . S
C1322 H1314 0.930 . S
C1322 C1321 1.362 . S
C1322 C1325 1.409 . S
C1323 H1315 0.930 . S
C1323 C1324 1.355 . S
C1323 C1325 1.415 . S
C1324 C1323 1.355 . S
C1324 C1326 1.419 . S
C1325 C1320 1.425 . S
C1325 C1322 1.409 . S
C1325 C1323 1.415 . S
C1326 H1316 0.930 . S
C1326 C1324 1.419 . S
C1326 C1327 1.362 . S
C1327 H1317 0.930 . S
C1327 C1320 1.409 . S
C1327 C1326 1.362 . S
H1328 C1334 0.930 . S
H1329 C1337 0.930 . S
H1330 C1338 0.930 . S
H1331 C1339 0.930 . S
H1332 C1342 0.930 1_565 S
H1333 C1343 0.930 . S
C1334 H1328 0.930 . S
C1334 C1335 1.355 . S
C1334 C1336 1.415 . S
C1335 C1334 1.355 . S
C1335 C1337 1.419 . S
C1336 C1334 1.415 . S
C1336 C1341 1.425 . S
C1336 C1343 1.409 . S
C1337 H1329 0.930 . S
C1337 C1335 1.419 . S
C1337 C1338 1.362 . S
C1338 H1330 0.930 . S
C1338 C1337 1.362 . S
C1338 C1341 1.409 . S
C1339 H1331 0.930 . S
C1339 C1340 1.355 . S
C1339 C1341 1.415 . S
C1340 C1339 1.355 . S
C1340 C1342 1.419 . S
C1341 C1336 1.425 . S
C1341 C1338 1.409 . S
C1341 C1339 1.415 . S
C1342 H1332 0.930 1_545 S
C1342 C1340 1.419 . S
C1342 C1343 1.362 . S
C1343 H1333 0.930 . S
C1343 C1336 1.409 . S
C1343 C1342 1.362 . S
H1344 C1350 0.930 . S
H1345 C1353 0.930 . S
H1346 C1354 0.930 . S
H1347 C1355 0.930 . S
H1348 C1358 0.930 . S
H1349 C1359 0.930 . S
C1350 H1344 0.930 . S
C1350 C1351 1.355 . S
C1350 C1352 1.415 . S
C1351 C1350 1.355 . S
C1351 C1353 1.419 . S
C1352 C1350 1.415 . S
C1352 C1357 1.425 . S
C1352 C1359 1.409 . S
C1353 H1345 0.930 . S
C1353 C1351 1.419 . S
C1353 C1354 1.362 . S
C1354 H1346 0.930 . S
C1354 C1353 1.362 . S
C1354 C1357 1.409 . S
C1355 H1347 0.930 . S
C1355 C1356 1.355 . S
C1355 C1357 1.415 . S
C1356 C1355 1.355 . S
C1356 C1358 1.419 . S
C1357 C1352 1.425 . S
C1357 C1354 1.409 . S
C1357 C1355 1.415 . S
C1358 H1348 0.930 . S
C1358 C1356 1.419 . S
C1358 C1359 1.362 . S
C1359 H1349 0.930 . S
C1359 C1352 1.409 . S
C1359 C1358 1.362 . S
H1360 C1366 0.930 . S
H1361 C1369 0.930 . S
H1362 C1370 0.930 . S
H1363 C1371 0.930 . S
H1364 C1374 0.930 . S
H1365 C1375 0.930 . S
C1366 H1360 0.930 . S
C1366 C1367 1.355 . S
C1366 C1368 1.415 . S
C1367 C1366 1.355 . S
C1367 C1369 1.419 . S
C1368 C1366 1.415 . S
C1368 C1373 1.425 . S
C1368 C1375 1.409 . S
C1369 H1361 0.930 . S
C1369 C1367 1.419 . S
C1369 C1370 1.362 . S
C1370 H1362 0.930 . S
C1370 C1369 1.362 . S
C1370 C1373 1.409 . S
C1371 H1363 0.930 . S
C1371 C1372 1.355 . S
C1371 C1373 1.415 . S
C1372 C1371 1.355 . S
C1372 C1374 1.419 . S
C1373 C1368 1.425 . S
C1373 C1370 1.409 . S
C1373 C1371 1.415 . S
C1374 H1364 0.930 . S
C1374 C1372 1.419 . S
C1374 C1375 1.362 . S
C1375 H1365 0.930 . S
C1375 C1368 1.409 . S
C1375 C1374 1.362 . S
H1376 C1382 0.930 . S
H1377 C1385 0.930 . S
H1378 C1386 0.930 . S
H1379 C1387 0.930 . S
H1380 C1390 0.930 . S
H1381 C1391 0.930 . S
C1382 H1376 0.930 . S
C1382 C1383 1.355 . S
C1382 C1384 1.415 . S
C1383 C1382 1.355 . S
C1383 C1385 1.419 . S
C1384 C1382 1.415 . S
C1384 C1389 1.425 . S
C1384 C1391 1.409 . S
C1385 H1377 0.930 . S
C1385 C1383 1.419 . S
C1385 C1386 1.362 . S
C1386 H1378 0.930 . S
C1386 C1385 1.362 . S
C1386 C1389 1.409 . S
C1387 H1379 0.930 . S
C1387 C1388 1.355 . S
C1387 C1389 1.415 . S
C1388 C1387 1.355 . S
C1388 C1390 1.419 . S
C1389 C1384 1.425 . S
C1389 C1386 1.409 . S
C1389 C1387 1.415 . S
C1390 H1380 0.930 . S
C1390 C1388 1.419 . S
C1390 C1391 1.362 . S
C1391 H1381 0.930 . S
C1391 C1384 1.409 . S
C1391 C1390 1.362 . S
H1392 C1398 0.930 . S
H1393 C1401 0.930 . S
H1394 C1402 0.930 . S
H1395 C1403 0.930 . S
H1396 C1406 0.930 . S
H1397 C1407 0.930 . S
C1398 H1392 0.930 . S
C1398 C1399 1.355 . S
C1398 C1400 1.415 . S
C1399 C1398 1.355 . S
C1399 C1401 1.419 . S
C1400 C1398 1.415 . S
C1400 C1405 1.425 . S
C1400 C1407 1.409 . S
C1401 H1393 0.930 . S
C1401 C1399 1.419 . S
C1401 C1402 1.362 . S
C1402 H1394 0.930 . S
C1402 C1401 1.362 . S
C1402 C1405 1.409 . S
C1403 H1395 0.930 . S
C1403 C1404 1.355 . S
C1403 C1405 1.415 . S
C1404 C1403 1.355 . S
C1404 C1406 1.419 . S
C1405 C1400 1.425 . S
C1405 C1402 1.409 . S
C1405 C1403 1.415 . S
C1406 H1396 0.930 . S
C1406 C1404 1.419 . S
C1406 C1407 1.362 . S
C1407 H1397 0.930 . S
C1407 C1400 1.409 . S
C1407 C1406 1.362 . S
H1408 C1414 0.930 . S
H1409 C1417 0.930 . S
H1410 C1418 0.930 . S
H1411 C1419 0.930 . S
H1412 C1422 0.930 1_565 S
H1413 C1423 0.930 . S
C1414 H1408 0.930 . S
C1414 C1415 1.355 . S
C1414 C1416 1.415 . S
C1415 C1414 1.355 . S
C1415 C1417 1.419 . S
C1416 C1414 1.415 . S
C1416 C1421 1.425 . S
C1416 C1423 1.409 . S
C1417 H1409 0.930 . S
C1417 C1415 1.419 . S
C1417 C1418 1.362 . S
C1418 H1410 0.930 . S
C1418 C1417 1.362 . S
C1418 C1421 1.409 . S
C1419 H1411 0.930 . S
C1419 C1420 1.355 . S
C1419 C1421 1.415 . S
C1420 C1419 1.355 . S
C1420 C1422 1.419 . S
C1421 C1416 1.425 . S
C1421 C1418 1.409 . S
C1421 C1419 1.415 . S
C1422 H1412 0.930 1_545 S
C1422 C1420 1.419 . S
C1422 C1423 1.362 . S
C1423 H1413 0.930 . S
C1423 C1416 1.409 . S
C1423 C1422 1.362 . S
H1424 C1430 0.930 . S
H1425 C1433 0.930 . S
H1426 C1434 0.930 . S
H1427 C1435 0.930 . S
H1428 C1438 0.930 . S
H1429 C1439 0.930 . S
C1430 H1424 0.930 . S
C1430 C1431 1.355 . S
C1430 C1432 1.415 . S
C1431 C1430 1.355 . S
C1431 C1433 1.419 . S
C1432 C1430 1.415 . S
C1432 C1437 1.425 . S
C1432 C1439 1.409 . S
C1433 H1425 0.930 . S
C1433 C1431 1.419 . S
C1433 C1434 1.362 . S
C1434 H1426 0.930 . S
C1434 C1433 1.362 . S
C1434 C1437 1.409 . S
C1435 H1427 0.930 . S
C1435 C1436 1.355 . S
C1435 C1437 1.415 . S
C1436 C1435 1.355 . S
C1436 C1438 1.419 . S
C1437 C1432 1.425 . S
C1437 C1434 1.409 . S
C1437 C1435 1.415 . S
C1438 H1428 0.930 . S
C1438 C1436 1.419 . S
C1438 C1439 1.362 . S
C1439 H1429 0.930 . S
C1439 C1432 1.409 . S
C1439 C1438 1.362 . S
H1440 C1446 0.930 . S
H1441 C1449 0.930 . S
H1442 C1450 0.930 . S
H1443 C1451 0.930 . S
H1444 C1454 0.930 . S
H1445 C1455 0.930 . S
C1446 H1440 0.930 . S
C1446 C1447 1.355 . S
C1446 C1448 1.415 . S
C1447 C1446 1.355 . S
C1447 C1449 1.419 . S
C1448 C1446 1.415 . S
C1448 C1453 1.425 . S
C1448 C1455 1.409 . S
C1449 H1441 0.930 . S
C1449 C1447 1.419 . S
C1449 C1450 1.362 . S
C1450 H1442 0.930 . S
C1450 C1449 1.362 . S
C1450 C1453 1.409 . S
C1451 H1443 0.930 . S
C1451 C1452 1.355 . S
C1451 C1453 1.415 . S
C1452 C1451 1.355 . S
C1452 C1454 1.419 . S
C1453 C1448 1.425 . S
C1453 C1450 1.409 . S
C1453 C1451 1.415 . S
C1454 H1444 0.930 . S
C1454 C1452 1.419 . S
C1454 C1455 1.362 . S
C1455 H1445 0.930 . S
C1455 C1448 1.409 . S
C1455 C1454 1.362 . S
H1456 C1462 0.930 . S
H1457 C1465 0.930 . S
H1458 C1466 0.930 . S
H1459 C1467 0.930 . S
H1460 C1470 0.930 . S
H1461 C1471 0.930 . S
C1462 H1456 0.930 . S
C1462 C1463 1.355 . S
C1462 C1464 1.415 . S
C1463 C1462 1.355 . S
C1463 C1465 1.419 . S
C1464 C1462 1.415 . S
C1464 C1469 1.425 . S
C1464 C1471 1.409 . S
C1465 H1457 0.930 . S
C1465 C1463 1.419 . S
C1465 C1466 1.362 . S
C1466 H1458 0.930 . S
C1466 C1465 1.362 . S
C1466 C1469 1.409 . S
C1467 H1459 0.930 . S
C1467 C1468 1.355 . S
C1467 C1469 1.415 . S
C1468 C1467 1.355 . S
C1468 C1470 1.419 . S
C1469 C1464 1.425 . S
C1469 C1466 1.409 . S
C1469 C1467 1.415 . S
C1470 H1460 0.930 . S
C1470 C1468 1.419 . S
C1470 C1471 1.362 . S
C1471 H1461 0.930 . S
C1471 C1464 1.409 . S
C1471 C1470 1.362 . S
C455 C5 1.433 . S
C460 C19 1.426 . S
C471 C47 1.444 . S
C476 C33 1.421 . S
C487 C61 1.428 . S
C492 C75 1.441 . S
C503 C89 1.429 . S
C508 C103 1.440 . S
C519 C117 1.443 . S
C524 C131 1.425 . S
C535 C145 1.441 . S
C540 C159 1.421 . S
C551 C173 1.430 . S
C556 C187 1.439 . S
C567 C201 1.444 . S
C572 C215 1.423 . S
C583 C243 1.436 . S
C588 C229 1.434 . S
C599 C271 1.422 . S
C604 C257 1.439 . S
C615 C299 1.439 . S
C620 C285 1.431 . S
C631 C327 1.422 . S
C636 C313 1.444 . S
C647 C355 1.429 . S
C652 C341 1.430 . S
C663 C383 1.426 . S
C668 C369 1.434 . S
C679 C411 1.431 . S
C684 C397 1.428 . S
C695 C439 1.429 . S
C700 C425 1.440 . S
C711 C11 1.524 . S
C716 C179 1.524 . S
C727 C25 1.499 . S
C732 C305 1.499 . S
C743 C39 1.467 . S
C748 C95 1.467 . S
C759 C53 1.468 . S
C764 C445 1.468 . S
C775 C67 1.522 . S
C780 C123 1.522 . S
C791 C249 1.460 . S
C796 C81 1.460 . S
C807 C389 1.510 . S
C812 C109 1.510 . S
C823 C137 1.518 . S
C828 C417 1.518 . S
C839 C151 1.477 . S
C844 C207 1.477 . S
C855 C165 1.512 . S
C860 C333 1.512 . S
C871 C193 1.493 . S
C876 C361 1.493 . S
C887 C221 1.462 . S
C892 C277 1.462 . S
C903 C403 1.506 . S
C908 C235 1.506 . S
C919 C319 1.466 . S
C924 C263 1.466 . S
C935 C291 1.500 . S
C940 C347 1.500 . S
C951 C431 1.517 . S
C956 C375 1.517 . S
C967 C149 0.868 . S
C972 C9 0.866 . S
C983 C163 0.864 . S
C988 C23 0.862 1_565 S
C999 C37 0.869 1_565 S
C1004 C121 0.872 . S
C1015 C135 0.906 . S
C1020 C51 0.908 . S
C1031 C65 0.862 . S
C1036 C205 0.862 . S
C1047 C79 0.901 1_545 S
C1052 C219 0.897 . S
C1063 C177 0.864 . S
C1068 C93 0.866 1_545 S
C1079 C191 0.883 . S
C1084 C107 0.887 . S
C1095 C233 0.896 . S
C1100 C373 0.892 . S
C1111 C387 0.906 . S
C1116 C247 0.903 1_565 S
C1127 C345 0.873 . S
C1132 C261 0.869 1_565 S
C1143 C275 0.862 . S
C1148 C359 0.862 . S
C1159 C429 0.883 . S
C1164 C289 0.879 . S
C1175 C303 0.888 1_545 S
C1180 C443 0.884 . S
C1191 C401 0.862 . S
C1196 C317 0.862 1_545 S
C1207 C415 0.882 . S
C1212 C331 0.886 . S
C1223 C140 1.511 . S
C1228 C0 1.511 1_565 S
C1239 C154 1.524 . S
C1244 C14 1.558 . S
C1255 C112 1.531 . S
C1260 C28 1.503 . S
C1271 C42 1.545 1_565 S
C1276 C126 1.556 . S
C1287 C196 1.516 . S
C1292 C56 1.507 1_545 S
C1303 C210 1.554 . S
C1308 C70 1.516 . S
C1319 C168 1.525 . S
C1324 C84 1.503 . S
C1335 C182 1.503 . S
C1340 C98 1.532 1_545 S
C1351 C364 1.504 . S
C1356 C224 1.539 1_565 S
C1367 C378 1.512 . S
C1372 C238 1.551 . S
C1383 C336 1.538 . S
C1388 C252 1.504 . S
C1399 C266 1.534 1_565 S
C1404 C350 1.559 . S
C1415 C420 1.505 . S
C1420 C280 1.541 1_545 S
C1431 C294 1.527 . S
C1436 C434 1.559 . S
C1447 C392 1.535 . S
C1452 C308 1.503 . S
C1463 C322 1.545 1_545 S
C1468 C406 1.507 . S
