# Generated by pormake.
# Topology snz, (6)-cn, num edge types: 1
# Building blocks:
#     Node 0, Type 0, BuildingBlock: FUNLAD_clean_sbu_0, # of connection points: 6
#     Node 1, Type 0, BuildingBlock: FUNLAD_clean_sbu_0, # of connection points: 6
#     Node 2, Type 0, BuildingBlock: FUNLAD_clean_sbu_0, # of connection points: 6
#     Node 3, Type 0, BuildingBlock: FUNLAD_clean_sbu_0, # of connection points: 6
#     Node 4, Type 0, BuildingBlock: FUNLAD_clean_sbu_0, # of connection points: 6
#     Node 5, Type 0, BuildingBlock: FUNLAD_clean_sbu_0, # of connection points: 6
#     Node 6, Type 0, BuildingBlock: FUNLAD_clean_sbu_0, # of connection points: 6
#     Node 7, Type 0, BuildingBlock: FUNLAD_clean_sbu_0, # of connection points: 6
#     Node 8, Type 0, BuildingBlock: FUNLAD_clean_sbu_0, # of connection points: 6
#     Edge 9, Type (0, 0), BuildingBlock: KIFKEQ_clean_linker_1, # of connection points: 2
#     Edge 10, Type (0, 0), BuildingBlock: KIFKEQ_clean_linker_1, # of connection points: 2
#     Edge 11, Type (0, 0), BuildingBlock: KIFKEQ_clean_linker_1, # of connection points: 2
#     Edge 12, Type (0, 0), BuildingBlock: KIFKEQ_clean_linker_1, # of connection points: 2
#     Edge 13, Type (0, 0), BuildingBlock: KIFKEQ_clean_linker_1, # of connection points: 2
#     Edge 14, Type (0, 0), BuildingBlock: KIFKEQ_clean_linker_1, # of connection points: 2
#     Edge 15, Type (0, 0), BuildingBlock: KIFKEQ_clean_linker_1, # of connection points: 2
#     Edge 16, Type (0, 0), BuildingBlock: KIFKEQ_clean_linker_1, # of connection points: 2
#     Edge 17, Type (0, 0), BuildingBlock: KIFKEQ_clean_linker_1, # of connection points: 2
#     Edge 18, Type (0, 0), BuildingBlock: KIFKEQ_clean_linker_1, # of connection points: 2
#     Edge 19, Type (0, 0), BuildingBlock: KIFKEQ_clean_linker_1, # of connection points: 2
#     Edge 20, Type (0, 0), BuildingBlock: KIFKEQ_clean_linker_1, # of connection points: 2
#     Edge 21, Type (0, 0), BuildingBlock: KIFKEQ_clean_linker_1, # of connection points: 2
#     Edge 22, Type (0, 0), BuildingBlock: KIFKEQ_clean_linker_1, # of connection points: 2
#     Edge 23, Type (0, 0), BuildingBlock: KIFKEQ_clean_linker_1, # of connection points: 2
#     Edge 24, Type (0, 0), BuildingBlock: KIFKEQ_clean_linker_1, # of connection points: 2
#     Edge 25, Type (0, 0), BuildingBlock: KIFKEQ_clean_linker_1, # of connection points: 2
#     Edge 26, Type (0, 0), BuildingBlock: KIFKEQ_clean_linker_1, # of connection points: 2
#     Edge 27, Type (0, 0), BuildingBlock: KIFKEQ_clean_linker_1, # of connection points: 2
#     Edge 28, Type (0, 0), BuildingBlock: KIFKEQ_clean_linker_1, # of connection points: 2
#     Edge 29, Type (0, 0), BuildingBlock: KIFKEQ_clean_linker_1, # of connection points: 2
#     Edge 30, Type (0, 0), BuildingBlock: KIFKEQ_clean_linker_1, # of connection points: 2
#     Edge 31, Type (0, 0), BuildingBlock: KIFKEQ_clean_linker_1, # of connection points: 2
#     Edge 32, Type (0, 0), BuildingBlock: KIFKEQ_clean_linker_1, # of connection points: 2
#     Edge 33, Type (0, 0), BuildingBlock: KIFKEQ_clean_linker_1, # of connection points: 2
#     Edge 34, Type (0, 0), BuildingBlock: KIFKEQ_clean_linker_1, # of connection points: 2
#     Edge 35, Type (0, 0), BuildingBlock: KIFKEQ_clean_linker_1, # of connection points: 2
# Relax obj value: 0.648
# Max RMSD: 0.282
# Mean RMSD: 0.258
data_MOF--net-snz--node1-FUNLAD_clean_sbu_0--edge1-KIFKEQ_clean_linker_1
_symmetry_space_group_name_H-M    P1
_symmetry_Int_Tables_number       1
_symmetry_cell_setting            triclinic
loop_
_symmetry_equiv_pos_as_xyz
'x, y, z'
_cell_length_a     49.245973
_cell_length_b     54.658397
_cell_length_c     17.093926
_cell_angle_alpha  89.570578
_cell_angle_beta   89.540808
_cell_angle_gamma 120.14318
loop_
_atom_site_label
_atom_site_type_symbol
_atom_site_fract_x
_atom_site_fract_y
_atom_site_fract_z
_atom_type_partial_charge
C0 C -0.00275 0.51843 0.98095 0.0
N1 N 0.08348 0.52466 0.92436 0.0
C2 C 0.08212 0.5423 0.87028 0.0
C3 C 0.07955 0.53525 0.79154 0.0
C4 C 0.07932 0.51033 0.76972 0.0
C5 C 0.08924 0.49734 0.82471 0.0
C6 C 0.09076 0.50467 0.90306 0.0
Zn7 Zn 0.05424 0.51471 1.01896 0.0
C8 C 0.0676 0.56123 0.12127 0.0
N9 N -0.01239 0.48607 0.20641 0.0
C10 C 0.9595 0.46134 0.20546 0.0
C11 C -0.00187 0.50127 0.27299 0.0
C12 C 0.98173 0.49073 0.34285 0.0
C13 C 0.95499 0.46363 0.34538 0.0
C14 C 0.94302 0.44927 0.27534 0.0
Zn15 Zn 0.01849 0.49833 0.11381 0.0
O16 O 0.02509 0.52696 0.95657 0.0
C17 C 0.00323 0.45342 1.00453 0.0
O18 O -0.01169 0.50575 0.04659 0.0
H19 H 0.02064 0.52045 0.27421 0.0
H20 H 0.0773 0.55866 0.88856 0.0
H21 H 0.95093 0.44974 0.15185 0.0
O22 O 0.02664 0.47393 0.97049 0.0
O23 O -0.00434 0.45668 0.07297 0.0
H24 H 0.09224 0.49101 0.94675 0.0
O25 O 0.04839 0.48928 0.18142 0.0
O26 O 0.08125 0.50086 0.08237 0.0
O27 O 0.04196 0.54141 0.15001 0.0
O28 O 0.08077 0.55593 0.06488 0.0
C29 C 0.0728 0.4907 0.15117 0.0
H30 H 0.07286 0.54666 0.75145 0.0
H31 H 0.091 0.47897 0.80973 0.0
H32 H -0.00779 0.50219 0.39599 0.0
H33 H 0.92268 0.42817 0.27549 0.0
C34 C 0.4269 0.48341 0.10872 0.0
N35 N 0.5164 0.49661 0.15275 0.0
C36 C 0.53771 0.51726 0.19922 0.0
C37 C 0.54328 0.51035 0.27357 0.0
C38 C 0.52678 0.48186 0.29913 0.0
C39 C 0.51163 0.46098 0.24247 0.0
C40 C 0.50539 0.46881 0.17017 0.0
Zn41 Zn 0.49491 0.50716 0.06842 0.0
C42 C 0.46972 0.46458 0.94338 0.0
N43 N 0.44748 0.5268 0.89468 0.0
C44 C 0.41854 0.5058 0.87343 0.0
C45 C 0.46527 0.54893 0.84566 0.0
C46 C 0.45813 0.5466 0.76654 0.0
C47 C 0.43247 0.52124 0.73988 0.0
C48 C 0.40988 0.50329 0.79534 0.0
Zn49 Zn 0.47001 0.51807 0.97962 0.0
O50 O 0.45207 0.48513 0.13321 0.0
C51 C 0.49589 0.56192 0.09968 0.0
O52 O 0.4275 0.49557 0.04465 0.0
H53 H 0.48754 0.56614 0.86482 0.0
H54 H 0.54764 0.53926 0.18269 0.0
H55 H 0.40422 0.4886 0.91346 0.0
O56 O 0.50569 0.54597 0.12649 0.0
O57 O 0.47983 0.555 1.03776 0.0
H58 H 0.48903 0.4524 0.13233 0.0
O59 O 0.51404 0.54014 0.91539 0.0
O60 O 0.53666 0.52772 1.00514 0.0
O61 O 0.46016 0.48083 0.91849 0.0
O62 O 0.48434 0.47017 1.00736 0.0
C63 C 0.53805 0.53968 0.9403 0.0
H64 H 0.5565 0.52755 0.31324 0.0
H65 H 0.50029 0.4387 0.25775 0.0
H66 H 0.47568 0.56203 0.72677 0.0
H67 H 0.38868 0.48445 0.77754 0.0
C68 C 0.53106 0.02376 0.89983 0.0
N69 N 0.44819 0.9489 0.83709 0.0
C70 C 0.46789 0.94306 0.79606 0.0
C71 C 0.45691 0.92502 0.73255 0.0
C72 C 0.42503 0.91232 0.71137 0.0
C73 C 0.40464 0.91614 0.76128 0.0
C74 C 0.41688 0.93526 0.82234 0.0
Zn75 Zn 0.4658 0.97673 0.92597 0.0
C76 C 0.49487 0.95726 0.04255 0.0
N77 N 0.49919 0.03179 0.11869 0.0
C78 C 0.52402 0.03218 0.15409 0.0
C79 C 0.47716 0.03421 0.16069 0.0
C80 C 0.47414 0.02812 0.24046 0.0
C81 C 0.49446 0.02014 0.27437 0.0
C82 C 0.52204 0.02614 0.23379 0.0
Zn83 Zn 0.48244 0.00565 1.02609 0.0
O84 O 0.50948 0.00243 0.86498 0.0
C85 C 0.45322 0.02474 0.90877 0.0
O86 O 0.52595 0.02921 0.96861 0.0
H87 H 0.45806 0.03459 0.13094 0.0
H88 H 0.49249 0.95326 0.81066 0.0
H89 H 0.54171 0.03096 0.11922 0.0
O90 O 0.44829 0.002 0.87625 0.0
O91 O 0.46754 0.03174 0.97347 0.0
H92 H 0.40133 0.93972 0.85637 0.0
O93 O 0.43818 0.98168 0.08447 0.0
O94 O 0.42285 0.95182 0.98825 0.0
O95 O 0.49685 0.97822 0.07908 0.0
O96 O 0.48351 0.95197 0.97448 0.0
C97 C 0.41717 0.95908 0.05381 0.0
H98 H 0.47412 0.92312 0.69757 0.0
H99 H 0.37972 0.90606 0.75055 0.0
H100 H 0.45291 0.02439 0.2705 0.0
H101 H 0.5387 0.02102 0.25923 0.0
C102 C 0.56263 0.82857 0.2912 0.0
N103 N 0.64812 0.83222 0.24783 0.0
C104 C 0.65481 0.85694 0.2124 0.0
C105 C 0.66829 0.86341 0.13806 0.0
C106 C 0.67429 0.84381 0.09968 0.0
C107 C 0.67412 0.82222 0.14569 0.0
C108 C 0.65979 0.81613 0.21952 0.0
Zn109 Zn 0.61429 0.8171 0.3316 0.0
C110 C 0.62743 0.85902 0.45279 0.0
N111 N 0.54273 0.78574 0.50575 0.0
C112 C 0.53318 0.80379 0.53112 0.0
C113 C 0.53881 0.76365 0.55107 0.0
C114 C 0.53252 0.76341 0.6307 0.0
C115 C 0.53095 0.78643 0.66171 0.0
C116 C 0.52593 0.8038 0.60999 0.0
Zn117 Zn 0.57626 0.79994 0.42043 0.0
O118 O 0.58781 0.8307 0.26405 0.0
C119 C 0.56553 0.75664 0.30364 0.0
O120 O 0.55178 0.81606 0.35647 0.0
H121 H 0.54563 0.74902 0.52883 0.0
H122 H 0.64631 0.86999 0.2375 0.0
H123 H 0.53606 0.82104 0.49396 0.0
O124 O 0.59146 0.77698 0.27799 0.0
O125 O 0.55215 0.76058 0.36223 0.0
H126 H 0.65519 0.79705 0.25035 0.0
O127 O 0.60245 0.78536 0.48588 0.0
O128 O 0.64049 0.80457 0.39854 0.0
O129 O 0.60172 0.839 0.4804 0.0
O130 O 0.63739 0.85613 0.38692 0.0
C131 C 0.62985 0.79157 0.46323 0.0
H132 H 0.66918 0.88128 0.10815 0.0
H133 H 0.68085 0.80777 0.12144 0.0
H134 H 0.53532 0.74879 0.66823 0.0
H135 H 0.52337 0.82111 0.63177 0.0
C136 C 0.09698 0.77602 0.49136 0.0
N137 N 0.18851 0.79059 0.53873 0.0
C138 C 0.17119 0.76881 0.58923 0.0
C139 C 0.18063 0.77068 0.66651 0.0
C140 C 0.20806 0.79524 0.69014 0.0
C141 C 0.22931 0.81275 0.63182 0.0
C142 C 0.21841 0.8108 0.55603 0.0
Zn143 Zn 0.1656 0.79919 0.45408 0.0
C144 C 0.14084 0.75582 0.33115 0.0
N145 N 0.11916 0.82021 0.28062 0.0
C146 C 0.13098 0.84813 0.26317 0.0
C147 C 0.09898 0.79983 0.23171 0.0
C148 C 0.096 0.80711 0.15539 0.0
C149 C 0.11409 0.8356 0.13076 0.0
C150 C 0.12745 0.85633 0.18849 0.0
Zn151 Zn 0.14029 0.80947 0.36504 0.0
O152 O 0.12154 0.77701 0.51823 0.0
C153 C 0.1636 0.85136 0.49208 0.0
O154 O 0.09798 0.78705 0.4252 0.0
H155 H 0.08851 0.77775 0.24801 0.0
H156 H 0.14809 0.75213 0.57316 0.0
H157 H 0.14651 0.86427 0.30291 0.0
O158 O 0.17542 0.83668 0.51557 0.0
O159 O 0.14823 0.84479 0.4292 0.0
H160 H 0.23238 0.82777 0.51513 0.0
O161 O 0.18385 0.83358 0.30312 0.0
O162 O 0.20797 0.82181 0.38936 0.0
O163 O 0.1317 0.77215 0.30378 0.0
O164 O 0.15578 0.76203 0.39493 0.0
C165 C 0.20894 0.83505 0.32724 0.0
H166 H 0.16386 0.75564 0.70841 0.0
H167 H 0.2516 0.83096 0.64691 0.0
H168 H 0.08403 0.79013 0.11426 0.0
H169 H 0.14003 0.87863 0.17306 0.0
C170 C 0.22112 0.36139 0.39452 0.0
N171 N 0.14091 0.2904 0.31314 0.0
C172 C 0.16523 0.28835 0.28214 0.0
C173 C 0.17852 0.30197 0.21112 0.0
C174 C 0.16507 0.31592 0.17249 0.0
C175 C 0.13503 0.31026 0.19562 0.0
C176 C 0.12254 0.29608 0.26639 0.0
Zn177 Zn 0.15399 0.31447 0.41181 0.0
C178 C 0.18075 0.29316 0.53057 0.0
N179 N 0.18577 0.36814 0.60782 0.0
C180 C 0.2056 0.39651 0.59704 0.0
C181 C 0.17711 0.35636 0.68038 0.0
C182 C 0.18909 0.37317 0.74583 0.0
C183 C 0.21037 0.40225 0.73627 0.0
C184 C 0.21861 0.41412 0.66124 0.0
Zn185 Zn 0.17063 0.34264 0.51415 0.0
O186 O 0.19907 0.34062 0.35971 0.0
C187 C 0.14409 0.36465 0.39732 0.0
O188 O 0.21618 0.36702 0.46314 0.0
H189 H 0.16155 0.3338 0.68738 0.0
H190 H 0.1788 0.28249 0.31917 0.0
H191 H 0.21198 0.40542 0.53858 0.0
O192 O 0.13916 0.34237 0.36237 0.0
O193 O 0.15717 0.37003 0.46342 0.0
H194 H 0.10213 0.29592 0.29097 0.0
O195 O 0.12437 0.31752 0.5642 0.0
O196 O 0.10982 0.28887 0.46374 0.0
O197 O 0.18431 0.31489 0.5663 0.0
O198 O 0.16895 0.28803 0.46275 0.0
C199 C 0.10369 0.29538 0.5301 0.0
H200 H 0.20134 0.3053 0.19366 0.0
H201 H 0.12345 0.31987 0.16514 0.0
H202 H 0.1827 0.36344 0.80358 0.0
H203 H 0.23519 0.43645 0.65252 0.0
C204 C 0.31416 0.15648 0.89815 0.0
N205 N 0.37083 0.22042 0.72071 0.0
C206 C 0.36461 0.23516 0.7747 0.0
C207 C 0.38248 0.2644 0.77681 0.0
C208 C 0.40717 0.27882 0.72308 0.0
C209 C 0.41433 0.26337 0.6699 0.0
C210 C 0.39544 0.23376 0.66933 0.0
Zn211 Zn 0.33718 0.17874 0.7168 0.0
C212 C 0.35769 0.13837 0.72172 0.0
N213 N 0.26051 0.09519 0.71379 0.0
C214 C 0.23626 0.08161 0.76605 0.0
C215 C 0.26537 0.08089 0.65573 0.0
C216 C 0.24535 0.05209 0.64728 0.0
C217 C 0.2203 0.03749 0.69997 0.0
C218 C 0.21574 0.05231 0.76052 0.0
Zn219 Zn 0.29433 0.13683 0.71836 0.0
O220 O 0.3353 0.17707 0.85619 0.0
C221 C 0.2737 0.17711 0.71336 0.0
O222 O 0.29301 0.13585 0.85803 0.0
H223 H 0.28538 0.09164 0.61668 0.0
H224 H 0.34472 0.22438 0.81417 0.0
H225 H 0.23316 0.09334 0.81254 0.0
O226 O 0.30344 0.19201 0.71367 0.0
O227 O 0.26079 0.15032 0.71585 0.0
H228 H 0.39971 0.22161 0.62635 0.0
O229 O 0.29608 0.13879 0.57887 0.0
O230 O 0.33873 0.17969 0.57712 0.0
O231 O 0.32795 0.12347 0.72065 0.0
O232 O 0.37062 0.16519 0.71999 0.0
C233 C 0.3174 0.15923 0.53695 0.0
H234 H 0.37654 0.27576 0.8189 0.0
H235 H 0.43338 0.27407 0.62776 0.0
H236 H 0.24985 0.04113 0.60088 0.0
H237 H 0.19666 0.04144 0.80249 0.0
C238 C 0.81902 0.15671 0.54273 0.0
N239 N 0.80319 0.0923 0.71853 0.0
C240 C 0.78111 0.07794 0.66363 0.0
C241 C 0.76688 0.04882 0.65911 0.0
C242 C 0.77522 0.03412 0.71171 0.0
C243 C 0.79857 0.04909 0.76689 0.0
C244 C 0.8124 0.07864 0.76946 0.0
Zn245 Zn 0.81635 0.13394 0.72326 0.0
C246 C 0.88205 0.17353 0.71815 0.0
N247 N 0.83381 0.21762 0.73006 0.0
C248 C 0.82318 0.23126 0.68335 0.0
C249 C 0.85559 0.23161 0.78588 0.0
C250 C 0.8676 0.26026 0.79678 0.0
C251 C 0.85739 0.2749 0.74957 0.0
C252 C 0.83489 0.26039 0.69215 0.0
Zn253 Zn 0.82113 0.17612 0.72331 0.0
O254 O 0.81652 0.13584 0.58409 0.0
C255 C 0.7553 0.13626 0.72747 0.0
O256 O 0.82151 0.17756 0.58347 0.0
H257 H 0.86423 0.22066 0.82156 0.0
H258 H 0.77345 0.08892 0.62496 0.0
H259 H 0.80599 0.21969 0.63903 0.0
O260 O 0.76805 0.12106 0.72749 0.0
O261 O 0.77263 0.16302 0.72565 0.0
H262 H 0.82972 0.09051 0.81324 0.0
O263 O 0.82018 0.17391 0.86251 0.0
O264 O 0.81677 0.13284 0.86312 0.0
O265 O 0.86974 0.18907 0.72094 0.0
O266 O 0.86454 0.14681 0.71792 0.0
C267 C 0.81847 0.15337 0.90388 0.0
H268 H 0.74888 0.03772 0.61595 0.0
H269 H 0.80536 0.03809 0.80824 0.0
H270 H 0.88515 0.27105 0.84118 0.0
H271 H 0.82677 0.27139 0.65466 0.0
C272 C 0.81759 0.66022 0.89721 0.0
N273 N 0.83199 0.60933 0.72483 0.0
C274 C 0.85312 0.61397 0.78176 0.0
C275 C 0.86434 0.59553 0.7928 0.0
C276 C 0.85422 0.5722 0.74412 0.0
C277 C 0.83287 0.56784 0.68454 0.0
C278 C 0.82174 0.58685 0.67613 0.0
Zn279 Zn 0.81982 0.63978 0.7179 0.0
C280 C 0.7543 0.62087 0.7221 0.0
N281 N 0.80263 0.70801 0.70994 0.0
C282 C 0.81092 0.72917 0.7625 0.0
C283 C 0.78044 0.70249 0.6552 0.0
C284 C 0.76467 0.71749 0.65363 0.0
C285 C 0.77165 0.73851 0.70878 0.0
C286 C 0.79569 0.74507 0.76251 0.0
Zn287 Zn 0.81567 0.67805 0.71546 0.0
O288 O 0.81929 0.64119 0.85691 0.0
C289 C 0.8812 0.69689 0.71124 0.0
O290 O 0.81589 0.67919 0.8554 0.0
H291 H 0.7735 0.68523 0.61518 0.0
H292 H 0.8618 0.63235 0.81834 0.0
H293 H 0.82829 0.7329 0.80625 0.0
O294 O 0.86828 0.67014 0.7144 0.0
O295 O 0.8642 0.70832 0.71063 0.0
H296 H 0.80522 0.5838 0.63064 0.0
O297 O 0.81602 0.67657 0.57647 0.0
O298 O 0.81975 0.63871 0.57798 0.0
O299 O 0.7672 0.6476 0.71938 0.0
O300 O 0.77134 0.60952 0.72233 0.0
C301 C 0.81789 0.65761 0.53619 0.0
H302 H 0.88119 0.59966 0.83853 0.0
H303 H 0.82484 0.55 0.6458 0.0
H304 H 0.74641 0.71213 0.61096 0.0
H305 H 0.80162 0.76136 0.80562 0.0
H306 H 0.07224 0.53049 0.6278 0.0
H307 H 0.04127 0.45252 0.75878 0.0
H308 H 0.02721 0.50579 0.54276 0.0
H309 H -0.00241 0.42789 0.66995 0.0
H310 H 0.96112 0.41869 0.3832 0.0
H311 H -0.01012 0.42209 0.50153 0.0
H312 H 0.96301 0.47963 0.59805 0.0
H313 H 0.93442 0.47638 0.47938 0.0
C314 C 0.05634 0.5081 0.63784 0.0
C315 C 0.05996 0.49395 0.70229 0.0
C316 C 0.03049 0.49404 0.5895 0.0
C317 C 0.0083 0.46541 0.60328 0.0
C318 C 0.01387 0.45024 0.66071 0.0
C319 C 0.0394 0.46443 0.71036 0.0
C320 C 0.95916 0.43024 0.43213 0.0
C321 C 0.94717 0.44856 0.42116 0.0
C322 C 0.97605 0.43246 0.4995 0.0
C323 C 0.97968 0.45214 0.55633 0.0
C324 C 0.96099 0.46483 0.55348 0.0
C325 C 0.94415 0.46258 0.48615 0.0
H326 H 0.41557 0.46582 0.71391 0.0
H327 H 0.46041 0.54838 0.60041 0.0
H328 H 0.44009 0.44987 0.6202 0.0
H329 H 0.48597 0.53217 0.5084 0.0
H330 H 0.55746 0.50991 0.43344 0.0
H331 H 0.52945 0.516 0.54304 0.0
H332 H 0.44272 0.4449 0.46596 0.0
H333 H 0.46949 0.43947 0.35516 0.0
C334 C 0.42981 0.48049 0.66791 0.0
C335 C 0.43675 0.50893 0.66674 0.0
C336 C 0.4443 0.47128 0.61509 0.0
C337 C 0.46597 0.49028 0.56038 0.0
C338 C 0.47027 0.51759 0.55293 0.0
C339 C 0.45536 0.52672 0.60494 0.0
C340 C 0.53257 0.4951 0.44065 0.0
C341 C 0.5156 0.47553 0.38199 0.0
C342 C 0.51661 0.49868 0.50323 0.0
C343 C 0.48386 0.48174 0.50971 0.0
C344 C 0.46793 0.45863 0.46054 0.0
C345 C 0.48368 0.45543 0.39713 0.0
H346 H 0.37618 0.91 0.62411 0.0
H347 H 0.45086 0.89043 0.60597 0.0
H348 H 0.38646 0.92752 0.49186 0.0
H349 H 0.46315 0.91089 0.4753 0.0
H350 H 0.49279 0.96997 0.26451 0.0
H351 H 0.46182 0.92773 0.34485 0.0
H352 H 0.43318 0.975 0.49228 0.0
H353 H 0.46363 0.01698 0.41077 0.0
C354 C 0.39422 0.90842 0.59207 0.0
C355 C 0.41573 0.90246 0.62946 0.0
C356 C 0.40019 0.91879 0.51555 0.0
C357 C 0.4275 0.92316 0.47689 0.0
C358 C 0.44296 0.90933 0.5057 0.0
C359 C 0.43616 0.89796 0.58144 0.0
C360 C 0.48036 0.97144 0.31516 0.0
C361 C 0.48104 -0.0031 0.33261 0.0
C362 C 0.46219 0.94709 0.36012 0.0
C363 C 0.44436 0.94776 0.42341 0.0
C364 C 0.44571 0.97345 0.44196 0.0
C365 C 0.46373 -0.00227 0.39672 0.0
H366 H 0.52712 0.76066 0.80359 0.0
H367 H 0.57723 0.84077 0.68004 0.0
H368 H 0.56936 0.77744 0.89797 0.0
H369 H 0.62037 0.85641 0.76814 0.0
H370 H 0.68272 0.8835 0.98438 0.0
H371 H 0.64505 0.87168 0.88173 0.0
H372 H 0.61912 0.7837 0.90385 0.0
H373 H 0.65314 0.79476 1.0133 0.0
C374 C 0.54685 0.78199 0.79747 0.0
C375 C 0.54901 0.79911 0.73355 0.0
C376 C 0.57155 0.79141 0.85009 0.0
C377 C 0.5992 0.81782 0.83857 0.0
C378 C 0.59984 0.83589 0.77904 0.0
C379 C 0.57479 0.82686 0.72828 0.0
C380 C 0.66889 0.86155 0.96793 0.0
C381 C 0.66871 0.83991 1.01363 0.0
C382 C 0.64733 0.85473 0.90789 0.0
C383 C 0.627 0.82627 0.88864 0.0
C384 C 0.63246 0.80557 0.92166 0.0
C385 C 0.65298 0.81223 0.98378 0.0
H386 H 0.22826 0.85103 0.7205 0.0
H387 H 0.18459 0.7682 0.83233 0.0
H388 H 0.20685 0.86743 0.82131 0.0
H389 H 0.16188 0.78488 0.93137 0.0
H390 H 0.08809 0.80942 0.99132 0.0
H391 H 0.1185 0.80322 0.88782 0.0
H392 H 0.2043 0.86948 0.98514 0.0
H393 H 0.17492 0.87498 0.09025 0.0
C394 C 0.21521 0.83646 0.76786 0.0
C395 C 0.20729 0.80775 0.7664 0.0
C396 C 0.20252 0.84595 0.8249 0.0
C397 C 0.18176 0.82696 0.88099 0.0
C398 C 0.17708 0.79948 0.88622 0.0
C399 C 0.19028 0.79007 0.83005 0.0
C400 C 0.11335 0.82319 0.98975 0.0
C401 C 0.12891 0.84169 0.05159 0.0
C402 C 0.13066 0.81949 0.93092 0.0
C403 C 0.16357 0.83511 0.93156 0.0
C404 C 0.17889 0.85686 0.98508 0.0
C405 C 0.16171 0.86019 0.04478 0.0
H406 H 0.18551 0.42249 0.84115 0.0
H407 H 0.26754 0.41608 0.79116 0.0
H408 H 0.19035 0.41563 0.97893 0.0
H409 H 0.27296 0.40952 0.93004 0.0
H410 H 0.20166 0.31973 0.04701 0.0
H411 H 0.23203 0.36082 0.96235 0.0
H412 H 0.20621 0.41043 0.10852 0.0
H413 H 0.17531 0.36892 0.19212 0.0
C414 C 0.20608 0.4219 0.86057 0.0
C415 C 0.22535 0.41852 0.80634 0.0
C416 C 0.2089 0.41781 0.93991 0.0
C417 C 0.23088 0.41015 0.96433 0.0
C418 C 0.25501 0.41422 0.912 0.0
C419 C 0.25212 0.41827 0.8325 0.0
C420 C 0.2028 0.33951 0.06111 0.0
C421 C 0.185 0.34093 0.12318 0.0
C422 C 0.22074 0.3633 1.01385 0.0
C423 C 0.2214 0.38898 1.0285 0.0
C424 C 0.20587 0.39093 0.09523 0.0
C425 C 0.1877 0.36706 0.14193 0.0
H426 H 0.27496 0.11828 0.43028 0.0
H427 H 0.35908 0.1995 0.42265 0.0
H428 H 0.27397 0.11744 0.28732 0.0
H429 H 0.35843 0.19896 0.27947 0.0
H430 H 0.35618 0.19775 1.00482 0.0
H431 H 0.35715 0.1986 0.14778 0.0
H432 H 0.27359 0.11644 0.15562 0.0
H433 H 0.27292 0.11591 1.01245 0.0
C434 C 0.29355 0.13625 0.39892 0.0
C435 C 0.31711 0.15897 0.44316 0.0
C436 C 0.29304 0.13582 0.31404 0.0
C437 C 0.31608 0.15811 0.26488 0.0
C438 C 0.33968 0.18086 0.30973 0.0
C439 C 0.34016 0.18126 0.3947 0.0
C440 C 0.33778 0.17964 1.03618 0.0
C441 C 0.31446 0.15675 0.99193 0.0
C442 C 0.33829 0.18007 0.12106 0.0
C443 C 0.31549 0.15762 0.17021 0.0
C444 C 0.29212 0.1347 0.12536 0.0
C445 C 0.29164 0.1343 1.0404 0.0
H446 H 0.82427 0.19774 0.42902 0.0
H447 H 0.81362 0.11489 0.43544 0.0
H448 H 0.82421 0.19707 0.28581 0.0
H449 H 0.81343 0.11387 0.29248 0.0
H450 H 0.81487 0.11297 1.01753 0.0
H451 H 0.81503 0.11368 0.16074 0.0
H452 H 0.82236 0.19556 0.15418 0.0
H453 H 0.82225 0.19457 1.01122 0.0
C454 C 0.82187 0.1791 0.4008 0.0
C455 C 0.81897 0.15642 0.44894 0.0
C456 C 0.8218 0.17861 0.31582 0.0
C457 C 0.81881 0.15535 0.27064 0.0
C458 C 0.8159 0.13268 0.31947 0.0
C459 C 0.81598 0.13321 0.40435 0.0
C460 C 0.81653 0.13133 0.04577 0.0
C461 C 0.81853 0.15366 0.99767 0.0
C462 C 0.81662 0.13183 0.13075 0.0
C463 C 0.81871 0.15474 0.17596 0.0
C464 C 0.82072 0.17707 0.12717 0.0
C465 C 0.82063 0.17654 1.04229 0.0
H466 H 0.81381 0.69518 0.42673 0.0
H467 H 0.82187 0.62061 0.42463 0.0
H468 H 0.81372 0.696 0.28373 0.0
H469 H 0.82183 0.62115 0.28139 0.0
H470 H 0.82136 0.62249 1.00666 0.0
H471 H 0.82143 0.62167 0.14966 0.0
H472 H 0.814 0.69686 0.15199 0.0
H473 H 0.81393 0.69739 1.00875 0.0
C474 C 0.81561 0.67869 0.3966 0.0
C475 C 0.81786 0.65782 0.44239 0.0
C476 C 0.81556 0.67911 0.31169 0.0
C477 C 0.81777 0.65867 0.26405 0.0
C478 C 0.82002 0.63776 0.31044 0.0
C479 C 0.82006 0.63736 0.39544 0.0
C480 C 0.81971 0.63906 1.0368 0.0
C481 C 0.81762 0.66001 0.991 0.0
C482 C 0.81975 0.63863 0.1217 0.0
C483 C 0.81772 0.65916 0.16934 0.0
C484 C 0.81564 0.68016 0.12294 0.0
C485 C 0.8156 0.68056 1.03795 0.0
H486 H 0.14541 0.41025 0.46519 0.0
H487 H 0.12322 0.36418 0.24864 0.0
H488 H 0.13162 0.44336 0.40719 0.0
H489 H 0.10939 0.39745 0.19062 0.0
H490 H 0.11551 0.4778 0.08971 0.0
H491 H 0.13448 0.44852 0.14944 0.0
H492 H 0.08312 0.44209 0.36185 0.0
H493 H 0.0642 0.47136 0.30247 0.0
C494 C 0.13758 0.40716 0.40517 0.0
C495 C 0.13532 0.38448 0.36161 0.0
C496 C 0.1296 0.42613 0.37206 0.0
C497 C 0.11946 0.42307 0.29435 0.0
C498 C 0.11748 0.40056 0.25042 0.0
C499 C 0.12517 0.38138 0.28382 0.0
C500 C 0.10873 0.47059 0.14966 0.0
C501 C 0.08832 0.47693 0.19131 0.0
C502 C 0.11933 0.45356 0.18353 0.0
C503 C 0.11006 0.44277 0.26005 0.0
C504 C 0.09082 0.45019 0.30291 0.0
C505 C 0.07996 0.46697 0.26883 0.0
H506 H 0.54573 0.59427 0.19394 0.0
H507 H 0.46427 0.59072 0.08939 0.0
H508 H 0.56144 0.64138 0.24449 0.0
H509 H 0.47968 0.63741 0.14117 0.0
H510 H 0.50674 0.71027 0.32382 0.0
H511 H 0.48849 0.66196 0.27937 0.0
H512 H 0.57872 0.68981 0.16956 0.0
H513 H 0.59682 0.73803 0.2122 0.0
C514 C 0.53097 0.60335 0.18283 0.0
C515 C 0.50389 0.58892 0.13745 0.0
C516 C 0.54003 0.6303 0.2113 0.0
C517 C 0.52179 0.64298 0.19629 0.0
C518 C 0.49406 0.62805 0.15372 0.0
C519 C 0.48535 0.60141 0.12393 0.0
C520 C 0.52253 0.70612 0.28945 0.0
C521 C 0.55316 0.72799 0.27125 0.0
C522 C 0.51211 0.67851 0.26426 0.0
C523 C 0.53237 0.6722 0.22192 0.0
C524 C 0.56281 0.69409 0.20302 0.0
C525 C 0.57301 0.72172 0.22679 0.0
H526 H 0.36376 0.91621 0.9914 0.0
H527 H 0.40122 0.96173 0.20598 0.0
H528 H 0.31323 0.88638 0.0568 0.0
H529 H 0.35055 0.93178 0.27135 0.0
H530 H 0.26765 0.85019 0.37789 0.0
H531 H 0.31776 0.88062 0.31163 0.0
H532 H 0.26906 0.89088 0.11645 0.0
H533 H 0.21875 0.86039 0.18273 0.0
C534 C 0.36119 0.91987 0.05251 0.0
C535 C 0.38648 0.94132 0.09354 0.0
C536 C 0.33219 0.90289 0.08976 0.0
C537 C 0.32794 0.90676 0.16911 0.0
C538 C 0.35323 0.92818 0.21025 0.0
C539 C 0.38216 0.94542 0.17273 0.0
C540 C 0.26757 0.85884 0.32072 0.0
C541 C 0.2392 0.85283 0.28552 0.0
C542 C 0.29631 0.87644 0.28309 0.0
C543 C 0.29734 0.88821 0.20905 0.0
C544 C 0.26897 0.88196 0.17332 0.0
C545 C 0.24019 0.86458 0.21137 0.0
H546 H 0.42391 0.01751 0.76825 0.0
H547 H 0.4589 0.07367 0.9654 0.0
H548 H 0.40541 0.04726 0.70961 0.0
H549 H 0.43984 0.10296 0.90768 0.0
H550 H 0.33728 0.08258 0.70185 0.0
H551 H 0.36361 0.05684 0.73812 0.0
H552 H 0.44612 0.13528 0.80056 0.0
H553 H 0.41927 0.16122 0.76548 0.0
C554 C 0.42768 0.0362 0.79905 0.0
C555 C 0.44263 0.04306 0.87183 0.0
C556 C 0.41706 0.05324 0.76548 0.0
C557 C 0.42111 0.0775 0.80398 0.0
C558 C 0.43675 0.0847 0.87584 0.0
C559 C 0.44739 0.0677 0.90934 0.0
C560 C 0.36122 0.09447 0.72224 0.0
C561 C 0.37609 0.12394 0.73158 0.0
C562 C 0.37642 0.07967 0.74256 0.0
C563 C 0.4069 0.09394 0.77282 0.0
C564 C 0.42244 0.12363 0.77843 0.0
C565 C 0.4072 0.13852 0.75774 0.0
H566 H 0.8389 0.30099 0.85271 0.0
H567 H 0.91003 0.31613 0.67994 0.0
H568 H 0.87348 0.34729 0.90942 0.0
H569 H 0.94508 0.36206 0.73713 0.0
H570 H -0.0022 0.44896 0.84682 0.0
H571 H 0.95806 0.40941 0.77259 0.0
H572 H 0.91988 0.36167 0.98752 0.0
H573 H 0.959 0.40163 0.06191 0.0
C574 C 0.86142 0.31489 0.82482 0.0
C575 C 0.87184 0.30543 0.76164 0.0
C576 C 0.88146 0.34108 0.85806 0.0
C577 C 0.91229 0.35798 0.82898 0.0
C578 C 0.92147 0.34959 0.76087 0.0
C579 C 0.90137 0.32343 0.72756 0.0
C580 C 0.98133 0.42977 0.87797 0.0
C581 C 0.98186 0.4281 0.95998 0.0
C582 C 0.95844 0.40725 0.83548 0.0
C583 C 0.93577 0.3825 0.87404 0.0
C584 C 0.93661 0.3807 0.9561 0.0
C585 C 0.9593 0.40336 0.99869 0.0
H586 H 0.72076 0.57226 0.80734 0.0
H587 H 0.71095 0.63262 0.66412 0.0
H588 H 0.66614 0.551 0.8489 0.0
H589 H 0.65565 0.61032 0.70104 0.0
H590 H 0.57498 0.59197 0.87353 0.0
H591 H 0.62563 0.6089 0.80733 0.0
H592 H 0.61335 0.52485 0.82632 0.0
H593 H 0.56422 0.50899 0.89741 0.0
C594 C 0.7065 0.58026 0.78255 0.0
C595 C 0.72 0.60409 0.73298 0.0
C596 C 0.67507 0.56807 0.80616 0.0
C597 C 0.65628 0.57909 0.7792 0.0
C598 C 0.66945 0.60172 0.72494 0.0
C599 C 0.70105 0.61429 0.7029 0.0
C600 C 0.58322 0.57727 0.86263 0.0
C601 C 0.56622 0.54942 0.89106 0.0
C602 C 0.61211 0.58679 0.82423 0.0
C603 C 0.62401 0.56835 0.81199 0.0
C604 C 0.60565 0.53995 0.83657 0.0
C605 C 0.57735 0.53075 0.8767 0.0
H606 H 0.8432 0.53849 0.86965 0.0
H607 H 0.89564 0.56578 0.65247 0.0
H608 H 0.87635 0.52038 0.91492 0.0
H609 H 0.92877 0.54675 0.69638 0.0
H610 H 0.00877 0.55752 0.86494 0.0
H611 H 0.96978 0.56309 0.79133 0.0
H612 H 0.89541 0.48888 0.90832 0.0
H613 H 0.93417 0.48439 0.98426 0.0
C614 C 0.86103 0.53935 0.83025 0.0
C615 C 0.86691 0.5533 0.75773 0.0
C616 C 0.88013 0.52901 0.85602 0.0
C617 C 0.90557 0.53239 0.80965 0.0
C618 C 0.90973 0.54425 0.73401 0.0
C619 C 0.89051 0.5547 0.70826 0.0
C620 C -0.01594 0.54244 0.87448 0.0
C621 C 0.97441 0.52106 0.93176 0.0
C622 C 0.96171 0.54536 0.83169 0.0
C623 C 0.92936 0.52659 0.84453 0.0
C624 C 0.92002 0.50413 0.89832 0.0
C625 C 0.94225 0.50159 0.942 0.0
H626 H 0.44817 0.45127 0.79396 0.0
H627 H 0.48176 0.423 0.98766 0.0
H628 H 0.44043 0.41059 0.71827 0.0
H629 H 0.47331 0.38213 0.91325 0.0
H630 H 0.46765 0.31496 0.76468 0.0
H631 H 0.48886 0.36437 0.80285 0.0
H632 H 0.40348 0.36073 0.7258 0.0
H633 H 0.38305 0.31197 0.68646 0.0
C634 C 0.4538 0.43633 0.8204 0.0
C635 C 0.46512 0.4401 0.89713 0.0
C636 C 0.4495 0.41311 0.77697 0.0
C637 C 0.45632 0.39312 0.80956 0.0
C638 C 0.46841 0.39737 0.88564 0.0
C639 C 0.47284 0.42062 0.9288 0.0
C640 C 0.45418 0.32529 0.75303 0.0
C641 C 0.42383 0.30993 0.72295 0.0
C642 C 0.46604 0.35336 0.77572 0.0
C643 C 0.4476 0.36631 0.76877 0.0
C644 C 0.41843 0.35157 0.73164 0.0
C645 C 0.40666 0.32362 0.70911 0.0
H646 H 0.71906 0.15976 0.76573 0.0
H647 H 0.71332 0.08072 0.70475 0.0
H648 H 0.66251 0.13441 0.79392 0.0
H649 H 0.65744 0.05557 0.73402 0.0
H650 H 0.57924 0.07259 0.95649 0.0
H651 H 0.63135 0.10184 0.90017 0.0
H652 H 0.60535 0.04693 0.70047 0.0
H653 H 0.55293 0.01712 0.75778 0.0
C654 C 0.70569 0.13711 0.75716 0.0
C655 C 0.7207 0.12221 0.73405 0.0
C656 C 0.67338 0.12257 0.77369 0.0
C657 C 0.65554 0.09293 0.76683 0.0
C658 C 0.67035 0.07838 0.73926 0.0
C659 C 0.70252 0.09283 0.72316 0.0
C660 C 0.58446 0.06678 0.90025 0.0
C661 C 0.56201 0.0423 0.86202 0.0
C662 C 0.6143 0.0838 0.86753 0.0
C663 C 0.62252 0.07677 0.79578 0.0
C664 C 0.59978 0.05276 0.75621 0.0
C665 C 0.56978 0.03572 0.78894 0.0
H666 H 0.538 0.94428 0.98898 0.0
H667 H 0.47214 0.92723 0.17761 0.0
H668 H 0.55317 0.91238 0.04859 0.0
H669 H 0.48482 0.89333 0.23471 0.0
H670 H 0.53418 0.85414 0.36189 0.0
H671 H 0.51831 0.88538 0.30309 0.0
H672 H 0.54237 0.86792 0.07396 0.0
H673 H 0.56097 0.83872 0.13491 0.0
C674 C 0.52666 0.93341 0.0432 0.0
C675 C 0.50436 0.9384 0.07962 0.0
C676 C 0.53494 0.91473 0.07711 0.0
C677 C 0.52025 0.89979 0.14695 0.0
C678 C 0.49744 0.90472 0.18233 0.0
C679 C 0.48996 0.92411 0.1496 0.0
C680 C 0.53573 0.8568 0.29882 0.0
C681 C 0.54873 0.84396 0.25291 0.0
C682 C 0.52645 0.87471 0.26465 0.0
C683 C 0.529 0.87962 0.1831 0.0
C684 C 0.54079 0.86559 0.13699 0.0
C685 C 0.55106 0.84842 0.17165 0.0
H686 H 0.09394 0.72654 0.22694 0.0
H687 H 0.16967 0.72454 0.34711 0.0
H688 H 0.07776 0.67998 0.17218 0.0
H689 H 0.1538 0.67828 0.29084 0.0
H690 H 0.12741 0.60652 0.10281 0.0
H691 H 0.14722 0.65509 0.14795 0.0
H692 H 0.05601 0.63039 0.24688 0.0
H693 H 0.0364 0.582 0.2039 0.0
C694 C 0.10741 0.71638 0.24065 0.0
C695 C 0.13294 0.72909 0.29168 0.0
C696 C 0.09809 0.68974 0.20958 0.0
C697 C 0.11453 0.67561 0.22759 0.0
C698 C 0.14086 0.68883 0.27584 0.0
C699 C 0.1498 0.7152 0.30823 0.0
C700 C 0.11169 0.61148 0.13453 0.0
C701 C 0.0804 0.59042 0.15006 0.0
C702 C 0.12301 0.6392 0.16026 0.0
C703 C 0.10301 0.64642 0.2002 0.0
C704 C 0.07178 0.6254 0.21546 0.0
C705 C 0.06068 0.59767 0.19134 0.0
H706 H 0.41833 0.45935 0.25448 0.0
H707 H 0.36786 0.46931 0.06263 0.0
H708 H 0.36875 0.43005 0.32469 0.0
H709 H 0.31841 0.44014 0.13308 0.0
H710 H 0.23601 0.35956 0.24138 0.0
H711 H 0.28578 0.38972 0.17377 0.0
H712 H 0.32535 0.43399 0.38867 0.0
H713 H 0.27538 0.40377 0.45657 0.0
C714 C 0.3967 0.45542 0.22746 0.0
C715 C 0.39704 0.46664 0.15291 0.0
C716 C 0.36833 0.43874 0.26786 0.0
C717 C 0.3397 0.43273 0.23428 0.0
C718 C 0.34007 0.44415 0.16006 0.0
C719 C 0.36843 0.461 0.11995 0.0
C720 C 0.25529 0.37567 0.27433 0.0
C721 C 0.25172 0.37925 0.35438 0.0
C722 C 0.28378 0.39306 0.23544 0.0
C723 C 0.30946 0.41427 0.27589 0.0
C724 C 0.30604 0.41767 0.35614 0.0
C725 C 0.2774 0.40044 0.39491 0.0
H726 H 0.70971 0.71388 0.74136 0.0
H727 H 0.79041 0.79323 0.67106 0.0
H728 H 0.67493 0.73062 0.69702 0.0
H729 H 0.75564 0.81052 0.62783 0.0
H730 H 0.68845 0.80151 0.42802 0.0
H731 H 0.72357 0.79427 0.51072 0.0
H732 H 0.65394 0.76288 0.697 0.0
H733 H 0.61823 0.76985 0.61311 0.0
C734 C 0.71992 0.73545 0.71965 0.0
C735 C 0.75256 0.7523 0.70896 0.0
C736 C 0.70004 0.74506 0.69424 0.0
C737 C 0.71254 0.77166 0.65736 0.0
C738 C 0.74537 0.78969 0.65468 0.0
C739 C 0.76529 0.78002 0.68022 0.0
C740 C 0.68053 0.79309 0.48661 0.0
C741 C 0.6504 0.78598 0.51368 0.0
C742 C 0.70091 0.78935 0.53455 0.0
C743 C 0.69175 0.7784 0.6109 0.0
C744 C 0.66166 0.77138 0.63841 0.0
C745 C 0.64117 0.7752 0.59026 0.0
H746 H 0.18364 0.01098 0.57732 0.0
H747 H 0.21435 -0.00451 0.79811 0.0
H748 H 0.16441 0.96232 0.5402 0.0
H749 H 0.19421 0.94597 0.76228 0.0
H750 H 0.207 0.88239 0.60336 0.0
H751 H 0.21277 0.92409 0.67038 0.0
H752 H 0.12949 0.91349 0.55649 0.0
H753 H 0.12477 0.87296 0.48717 0.0
C754 C 0.18498 -0.00335 0.61923 0.0
C755 C 0.20028 0.00675 0.69044 0.0
C756 C 0.17397 0.9687 0.59815 0.0
C757 C 0.17804 0.9502 0.64795 0.0
C758 C 0.19116 0.9598 0.72214 0.0
C759 C 0.20222 0.98793 0.74325 0.0
C760 C 0.18993 0.889 0.59313 0.0
C761 C 0.16602 0.875 0.53844 0.0
C762 C 0.19296 0.91266 0.63217 0.0
C763 C 0.1718 0.9224 0.61802 0.0
C764 C 0.14667 0.90706 0.56727 0.0
C765 C 0.144 0.88384 0.52741 0.0
H766 H 0.92685 0.21916 0.79397 0.0
H767 H 0.9137 0.15941 0.61435 0.0
H768 H 0.98247 0.24693 0.76022 0.0
H769 H 0.96851 0.18818 0.57502 0.0
H770 H 0.0716 0.23816 0.53029 0.0
H771 H 0.02065 0.20637 0.58985 0.0
H772 H 0.01495 0.27877 0.66932 0.0
H773 H 0.06724 0.31016 0.61538 0.0
C774 C 0.93612 0.2119 0.74763 0.0
C775 C 0.91624 0.18715 0.70699 0.0
C776 C 0.96791 0.22804 0.72719 0.0
C777 C 0.9803 0.22037 0.66352 0.0
C778 C 0.96036 0.1948 0.6251 0.0
C779 C 0.92878 0.17819 0.64739 0.0
C780 C 0.05941 0.24712 0.56125 0.0
C781 C 0.07311 0.27652 0.56803 0.0
C782 C 0.03002 0.22891 0.595 0.0
C783 C 0.01308 0.23971 0.63415 0.0
C784 C 0.02722 0.26934 0.64138 0.0
C785 C 0.05713 0.2875 0.60976 0.0
H786 H 0.29362 0.23255 0.73787 0.0
H787 H 0.21261 0.1546 0.6659 0.0
H788 H 0.26741 0.25854 0.70282 0.0
H789 H 0.18594 0.1808 0.6316 0.0
H790 H 0.20686 0.29767 0.67445 0.0
H791 H 0.22445 0.26704 0.73173 0.0
H792 H 0.19399 0.21485 0.52624 0.0
H793 H 0.17595 0.2451 0.46956 0.0
C794 C 0.26991 0.22086 0.71586 0.0
C795 C 0.25528 0.19153 0.70395 0.0
C796 C 0.25478 0.23578 0.69624 0.0
C797 C 0.22465 0.2218 0.66394 0.0
C798 C 0.20933 0.19222 0.65552 0.0
C799 C 0.22446 0.17718 0.67572 0.0
C800 C 0.20372 0.27955 0.64173 0.0
C801 C 0.19028 0.27401 0.56709 0.0
C802 C 0.21382 0.26201 0.67453 0.0
C803 C 0.21068 0.23853 0.6335 0.0
C804 C 0.19637 0.23252 0.5599 0.0
C805 C 0.18631 0.25006 0.52706 0.0
H806 H 0.62435 0.86417 0.61061 0.0
H807 H 0.67828 0.90847 0.40426 0.0
H808 H 0.66264 0.90212 0.69253 0.0
H809 H 0.71638 0.94632 0.48544 0.0
H810 H 0.71759 -0.00145 0.77118 0.0
H811 H 0.68102 0.95243 0.71717 0.0
H812 H 0.75688 0.95489 0.58181 0.0
H813 H 0.7932 0.00139 0.63512 0.0
C814 C 0.64397 0.88229 0.58277 0.0
C815 C 0.64807 0.88354 0.50112 0.0
C816 C 0.6661 0.90382 0.62964 0.0
C817 C 0.69282 0.92691 0.59555 0.0
C818 C 0.6965 0.9284 0.51369 0.0
C819 C 0.67442 0.90694 0.46703 0.0
C820 C 0.72662 0.98845 0.73303 0.0
C821 C 0.75804 0.00318 0.70736 0.0
C822 C 0.70569 0.96217 0.70162 0.0
C823 C 0.71598 0.95045 0.64378 0.0
C824 C 0.74822 0.96379 0.62506 0.0
C825 C 0.76912 0.99009 0.65647 0.0
H826 H 0.91488 0.74522 0.62473 0.0
H827 H 0.92445 0.68517 0.76998 0.0
H828 H 0.9694 0.76599 0.58247 0.0
H829 H 0.97962 0.70693 0.73209 0.0
H830 H 0.05944 0.72379 0.55816 0.0
H831 H 0.00894 0.70748 0.62469 0.0
H832 H 0.02242 0.79192 0.60491 0.0
H833 H 0.07147 0.80722 0.53384 0.0
C834 C 0.92907 0.73719 0.64981 0.0
C835 C 0.91552 0.71358 0.70016 0.0
C836 C 0.96043 0.74908 0.62575 0.0
C837 C 0.97908 0.73796 0.65296 0.0
C838 C 0.9659 0.71559 0.70801 0.0
C839 C 0.93439 0.70333 0.7306 0.0
C840 C 0.05149 0.73871 0.56897 0.0
C841 C 0.06883 0.76652 0.54048 0.0
C842 C 0.0227 0.72955 0.60753 0.0
C843 C 0.0112 0.7483 0.61971 0.0
C844 C 0.02985 0.77662 0.59481 0.0
C845 C 0.05809 0.78549 0.55468 0.0
loop_
_geom_bond_atom_site_label_1
_geom_bond_atom_site_label_2
_geom_bond_distance
_geom_bond_site_symmetry_2
_ccdc_geom_bond_type
C0 O16 1.251 1_554 S
C0 O18 1.254 . S
N1 C2 1.333 . S
N1 C6 1.307 . S
N1 Zn7 2.020 . S
C2 N1 1.333 . S
C2 C3 1.379 . S
C2 H20 0.952 . S
C3 C2 1.379 . S
C3 C4 1.390 . S
C3 H30 0.949 . S
C4 C3 1.390 . S
C4 C5 1.357 . S
C5 C4 1.357 . S
C5 C6 1.370 . S
C5 H31 0.950 . S
C6 N1 1.307 . S
C6 C5 1.370 . S
C6 H24 0.948 . S
Zn7 N1 2.020 . S
Zn7 O16 2.039 . S
Zn7 O22 2.034 . S
Zn7 O26 2.025 1_556 S
Zn7 O28 2.024 1_556 S
C8 O27 1.246 . S
C8 O28 1.249 . S
N9 C10 1.307 1_455 S
N9 C11 1.333 . S
N9 Zn15 2.020 . S
C10 N9 1.307 1_655 S
C10 C14 1.370 . S
C10 H21 0.948 . S
C11 N9 1.333 . S
C11 C12 1.379 . S
C11 H19 0.952 . S
C12 C11 1.379 . S
C12 C13 1.390 1_455 S
C12 H32 0.949 . S
C13 C12 1.390 1_655 S
C13 C14 1.357 . S
C14 C10 1.370 . S
C14 C13 1.357 . S
C14 H33 0.950 . S
Zn15 N9 2.020 . S
Zn15 O18 2.025 . S
Zn15 O23 2.025 . S
Zn15 O25 2.039 . S
Zn15 O27 2.034 . S
O16 C0 1.251 1_556 S
O16 Zn7 2.039 . S
C17 O22 1.246 1_554 S
C17 O23 1.251 . S
O18 C0 1.254 . S
O18 Zn15 2.025 . S
H19 C11 0.952 . S
H20 C2 0.952 . S
H21 C10 0.948 . S
O22 Zn7 2.034 . S
O22 C17 1.246 1_556 S
O23 Zn15 2.025 . S
O23 C17 1.251 . S
H24 C6 0.948 . S
O25 Zn15 2.039 . S
O25 C29 1.251 . S
O26 Zn7 2.025 1_554 S
O26 C29 1.254 . S
O27 C8 1.246 . S
O27 Zn15 2.034 . S
O28 Zn7 2.024 1_554 S
O28 C8 1.249 . S
C29 O25 1.251 . S
C29 O26 1.254 . S
H30 C3 0.949 . S
H31 C5 0.950 . S
H32 C12 0.949 . S
H33 C14 0.950 . S
C34 O50 1.251 . S
C34 O52 1.250 1_554 S
N35 C36 1.333 . S
N35 C40 1.307 . S
N35 Zn41 2.020 . S
C36 N35 1.333 . S
C36 C37 1.379 . S
C36 H54 0.952 . S
C37 C36 1.379 . S
C37 C38 1.390 . S
C37 H64 0.949 . S
C38 C37 1.390 . S
C38 C39 1.357 . S
C39 C38 1.357 . S
C39 C40 1.370 . S
C39 H65 0.950 . S
C40 N35 1.307 . S
C40 C39 1.370 . S
C40 H58 0.948 . S
Zn41 N35 2.020 . S
Zn41 O50 2.039 . S
Zn41 O56 2.034 . S
Zn41 O60 2.025 . S
Zn41 O62 2.024 . S
C42 O61 1.246 1_554 S
C42 O62 1.249 . S
N43 C44 1.307 . S
N43 C45 1.333 . S
N43 Zn49 2.020 . S
C44 N43 1.307 . S
C44 C48 1.370 . S
C44 H55 0.948 . S
C45 N43 1.333 . S
C45 C46 1.379 . S
C45 H53 0.952 . S
C46 C45 1.379 . S
C46 C47 1.390 . S
C46 H66 0.949 . S
C47 C46 1.390 . S
C47 C48 1.357 . S
C48 C44 1.370 . S
C48 C47 1.357 . S
C48 H67 0.950 . S
Zn49 N43 2.020 . S
Zn49 O52 2.027 . S
Zn49 O57 2.024 . S
Zn49 O59 2.039 . S
Zn49 O61 2.034 . S
O50 C34 1.251 . S
O50 Zn41 2.039 . S
C51 O56 1.246 . S
C51 O57 1.249 1_554 S
O52 C34 1.250 1_556 S
O52 Zn49 2.027 . S
H53 C45 0.952 . S
H54 C36 0.952 . S
H55 C44 0.948 . S
O56 Zn41 2.034 . S
O56 C51 1.246 . S
O57 Zn49 2.024 . S
O57 C51 1.249 1_556 S
H58 C40 0.948 . S
O59 Zn49 2.039 . S
O59 C63 1.251 . S
O60 Zn41 2.025 . S
O60 C63 1.254 1_554 S
O61 C42 1.246 1_556 S
O61 Zn49 2.034 . S
O62 Zn41 2.024 . S
O62 C42 1.249 . S
C63 O59 1.251 . S
C63 O60 1.254 1_556 S
H64 C37 0.949 . S
H65 C39 0.950 . S
H66 C46 0.949 . S
H67 C48 0.950 . S
C68 O84 1.251 . S
C68 O86 1.254 1_556 S
N69 C70 1.333 1_565 S
N69 C74 1.307 . S
N69 Zn75 2.011 1_565 S
C70 N69 1.333 1_545 S
C70 C71 1.379 . S
C70 H88 0.952 . S
C71 C70 1.379 . S
C71 C72 1.390 1_545 S
C71 H98 0.949 . S
C72 C71 1.390 1_565 S
C72 C73 1.357 . S
C73 C72 1.357 . S
C73 C74 1.370 . S
C73 H99 0.950 . S
C74 N69 1.307 . S
C74 C73 1.370 . S
C74 H92 0.948 . S
Zn75 N69 2.011 1_545 S
Zn75 O84 2.050 . S
Zn75 O90 2.075 . S
Zn75 O94 2.019 1_545 S
Zn75 O96 1.987 1_545 S
C76 O95 1.246 . S
C76 O96 1.249 1_554 S
N77 C78 1.307 . S
N77 C79 1.333 . S
N77 Zn83 2.020 . S
C78 N77 1.307 . S
C78 C82 1.370 . S
C78 H89 0.948 . S
C79 N77 1.333 . S
C79 C80 1.379 . S
C79 H87 0.952 1_545 S
C80 C79 1.379 . S
C80 C81 1.390 . S
C80 H100 0.949 . S
C81 C80 1.390 . S
C81 C82 1.357 . S
C82 C78 1.370 . S
C82 C81 1.357 . S
C82 H101 0.950 . S
Zn83 N77 2.020 . S
Zn83 O86 2.025 . S
Zn83 O91 2.024 . S
Zn83 O93 2.039 1_545 S
Zn83 O95 2.034 1_545 S
O84 C68 1.251 . S
O84 Zn75 2.050 . S
C85 O90 1.246 . S
C85 O91 1.249 1_556 S
O86 C68 1.254 1_554 S
O86 Zn83 2.025 . S
H87 C79 0.952 1_565 S
H88 C70 0.952 . S
H89 C78 0.948 . S
O90 Zn75 2.075 . S
O90 C85 1.246 . S
O91 Zn83 2.024 . S
O91 C85 1.249 1_554 S
H92 C74 0.948 . S
O93 Zn83 2.039 1_565 S
O93 C97 1.251 . S
O94 Zn75 2.019 1_565 S
O94 C97 1.254 1_556 S
O95 C76 1.246 . S
O95 Zn83 2.034 1_565 S
O96 Zn75 1.987 1_565 S
O96 C76 1.249 1_556 S
C97 O93 1.251 . S
C97 O94 1.254 1_554 S
H98 C71 0.949 . S
H99 C73 0.950 . S
H100 C80 0.949 . S
H101 C82 0.950 . S
C102 O118 1.251 . S
C102 O120 1.254 . S
N103 C104 1.333 . S
N103 C108 1.307 . S
N103 Zn109 2.020 . S
C104 N103 1.333 . S
C104 C105 1.388 . S
C104 H122 0.952 . S
C105 C104 1.388 . S
C105 C106 1.387 1_554 S
C105 H132 0.944 1_554 S
C106 C105 1.387 1_556 S
C106 C107 1.357 1_556 S
C107 C106 1.357 1_554 S
C107 C108 1.370 . S
C107 H133 0.950 . S
C108 N103 1.307 . S
C108 C107 1.370 . S
C108 H126 0.948 . S
Zn109 N103 2.020 . S
Zn109 O118 2.039 . S
Zn109 O124 2.034 . S
Zn109 O128 2.025 . S
Zn109 O130 2.024 . S
C110 O129 1.246 . S
C110 O130 1.249 . S
N111 C112 1.307 . S
N111 C113 1.333 . S
N111 Zn117 2.020 . S
C112 N111 1.307 . S
C112 C116 1.370 . S
C112 H123 0.948 . S
C113 N111 1.333 . S
C113 C114 1.379 . S
C113 H121 0.952 . S
C114 C113 1.379 . S
C114 C115 1.390 . S
C114 H134 0.949 . S
C115 C114 1.390 . S
C115 C116 1.357 . S
C116 C112 1.370 . S
C116 C115 1.357 . S
C116 H135 0.950 . S
Zn117 N111 2.020 . S
Zn117 O120 2.025 . S
Zn117 O125 2.024 . S
Zn117 O127 2.039 . S
Zn117 O129 2.034 . S
O118 C102 1.251 . S
O118 Zn109 2.039 . S
C119 O124 1.246 . S
C119 O125 1.249 . S
O120 C102 1.254 . S
O120 Zn117 2.025 . S
H121 C113 0.952 . S
H122 C104 0.952 . S
H123 C112 0.948 . S
O124 Zn109 2.034 . S
O124 C119 1.246 . S
O125 Zn117 2.024 . S
O125 C119 1.249 . S
H126 C108 0.948 . S
O127 Zn117 2.039 . S
O127 C131 1.251 . S
O128 Zn109 2.025 . S
O128 C131 1.254 . S
O129 C110 1.246 . S
O129 Zn117 2.034 . S
O130 Zn109 2.024 . S
O130 C110 1.249 . S
C131 O127 1.251 . S
C131 O128 1.254 . S
H132 C105 0.944 1_556 S
H133 C107 0.950 . S
H134 C114 0.949 . S
H135 C116 0.950 . S
C136 O152 1.251 . S
C136 O154 1.254 . S
N137 C138 1.333 . S
N137 C142 1.307 . S
N137 Zn143 2.020 . S
C138 N137 1.333 . S
C138 C139 1.379 . S
C138 H156 0.952 . S
C139 C138 1.379 . S
C139 C140 1.390 . S
C139 H166 0.949 . S
C140 C139 1.390 . S
C140 C141 1.357 . S
C141 C140 1.357 . S
C141 C142 1.370 . S
C141 H167 0.950 . S
C142 N137 1.307 . S
C142 C141 1.370 . S
C142 H160 0.948 . S
Zn143 N137 2.020 . S
Zn143 O152 2.039 . S
Zn143 O158 2.034 . S
Zn143 O162 2.025 . S
Zn143 O164 2.024 . S
C144 O163 1.246 . S
C144 O164 1.249 . S
N145 C146 1.307 . S
N145 C147 1.333 . S
N145 Zn151 2.020 . S
C146 N145 1.307 . S
C146 C150 1.370 . S
C146 H157 0.948 . S
C147 N145 1.333 . S
C147 C148 1.379 . S
C147 H155 0.952 . S
C148 C147 1.379 . S
C148 C149 1.390 . S
C148 H168 0.949 1_554 S
C149 C148 1.390 . S
C149 C150 1.357 . S
C150 C146 1.370 . S
C150 C149 1.357 . S
C150 H169 0.950 . S
Zn151 N145 2.020 . S
Zn151 O154 2.025 . S
Zn151 O159 2.024 . S
Zn151 O161 2.039 . S
Zn151 O163 2.034 . S
O152 C136 1.251 . S
O152 Zn143 2.039 . S
C153 O158 1.246 . S
C153 O159 1.249 . S
O154 C136 1.254 . S
O154 Zn151 2.025 . S
H155 C147 0.952 . S
H156 C138 0.952 . S
H157 C146 0.948 . S
O158 Zn143 2.034 . S
O158 C153 1.246 . S
O159 Zn151 2.024 . S
O159 C153 1.249 . S
H160 C142 0.948 . S
O161 Zn151 2.039 . S
O161 C165 1.251 . S
O162 Zn143 2.025 . S
O162 C165 1.254 . S
O163 C144 1.246 . S
O163 Zn151 2.034 . S
O164 Zn143 2.024 . S
O164 C144 1.249 . S
C165 O161 1.251 . S
C165 O162 1.254 . S
H166 C139 0.949 . S
H167 C141 0.950 . S
H168 C148 0.949 1_556 S
H169 C150 0.950 . S
C170 O186 1.251 . S
C170 O188 1.254 . S
N171 C172 1.333 . S
N171 C176 1.307 . S
N171 Zn177 2.020 . S
C172 N171 1.333 . S
C172 C173 1.379 . S
C172 H190 0.952 . S
C173 C172 1.379 . S
C173 C174 1.390 . S
C173 H200 0.949 . S
C174 C173 1.390 . S
C174 C175 1.357 . S
C175 C174 1.357 . S
C175 C176 1.370 . S
C175 H201 0.950 . S
C176 N171 1.307 . S
C176 C175 1.370 . S
C176 H194 0.948 . S
Zn177 N171 2.020 . S
Zn177 O186 2.039 . S
Zn177 O192 2.034 . S
Zn177 O196 2.025 . S
Zn177 O198 2.024 . S
C178 O197 1.246 . S
C178 O198 1.249 . S
N179 C180 1.307 . S
N179 C181 1.333 . S
N179 Zn185 2.020 . S
C180 N179 1.307 . S
C180 C184 1.370 . S
C180 H191 0.948 . S
C181 N179 1.333 . S
C181 C182 1.379 . S
C181 H189 0.952 . S
C182 C181 1.379 . S
C182 C183 1.390 . S
C182 H202 0.949 . S
C183 C182 1.390 . S
C183 C184 1.357 . S
C184 C180 1.370 . S
C184 C183 1.357 . S
C184 H203 0.950 . S
Zn185 N179 2.020 . S
Zn185 O188 2.025 . S
Zn185 O193 2.024 . S
Zn185 O195 2.039 . S
Zn185 O197 2.034 . S
O186 C170 1.251 . S
O186 Zn177 2.039 . S
C187 O192 1.246 . S
C187 O193 1.249 . S
O188 C170 1.254 . S
O188 Zn185 2.025 . S
H189 C181 0.952 . S
H190 C172 0.952 . S
H191 C180 0.948 . S
O192 Zn177 2.034 . S
O192 C187 1.246 . S
O193 Zn185 2.024 . S
O193 C187 1.249 . S
H194 C176 0.948 . S
O195 Zn185 2.039 . S
O195 C199 1.251 . S
O196 Zn177 2.025 . S
O196 C199 1.254 . S
O197 C178 1.246 . S
O197 Zn185 2.034 . S
O198 Zn177 2.024 . S
O198 C178 1.249 . S
C199 O195 1.251 . S
C199 O196 1.254 . S
H200 C173 0.949 . S
H201 C175 0.950 . S
H202 C182 0.949 . S
H203 C184 0.950 . S
C204 O220 1.251 . S
C204 O222 1.254 . S
N205 C206 1.333 . S
N205 C210 1.307 . S
N205 Zn211 2.020 . S
C206 N205 1.333 . S
C206 C207 1.379 . S
C206 H224 0.952 . S
C207 C206 1.379 . S
C207 C208 1.390 . S
C207 H234 0.949 . S
C208 C207 1.390 . S
C208 C209 1.357 . S
C209 C208 1.357 . S
C209 C210 1.370 . S
C209 H235 0.950 . S
C210 N205 1.307 . S
C210 C209 1.370 . S
C210 H228 0.948 . S
Zn211 N205 2.020 . S
Zn211 O220 2.039 . S
Zn211 O226 2.034 . S
Zn211 O230 2.025 . S
Zn211 O232 2.024 . S
C212 O231 1.246 . S
C212 O232 1.249 . S
N213 C214 1.307 . S
N213 C215 1.333 . S
N213 Zn219 2.020 . S
C214 N213 1.307 . S
C214 C218 1.370 . S
C214 H225 0.948 . S
C215 N213 1.333 . S
C215 C216 1.379 . S
C215 H223 0.952 . S
C216 C215 1.379 . S
C216 C217 1.390 . S
C216 H236 0.949 . S
C217 C216 1.390 . S
C217 C218 1.357 . S
C218 C214 1.370 . S
C218 C217 1.357 . S
C218 H237 0.950 . S
Zn219 N213 2.020 . S
Zn219 O222 2.025 . S
Zn219 O227 2.024 . S
Zn219 O229 2.039 . S
Zn219 O231 2.034 . S
O220 C204 1.251 . S
O220 Zn211 2.039 . S
C221 O226 1.246 . S
C221 O227 1.249 . S
O222 C204 1.254 . S
O222 Zn219 2.025 . S
H223 C215 0.952 . S
H224 C206 0.952 . S
H225 C214 0.948 . S
O226 Zn211 2.034 . S
O226 C221 1.246 . S
O227 Zn219 2.024 . S
O227 C221 1.249 . S
H228 C210 0.948 . S
O229 Zn219 2.039 . S
O229 C233 1.251 . S
O230 Zn211 2.025 . S
O230 C233 1.254 . S
O231 C212 1.246 . S
O231 Zn219 2.034 . S
O232 Zn211 2.024 . S
O232 C212 1.249 . S
C233 O229 1.251 . S
C233 O230 1.254 . S
H234 C207 0.949 . S
H235 C209 0.950 . S
H236 C216 0.949 . S
H237 C218 0.950 . S
C238 O254 1.251 . S
C238 O256 1.254 . S
N239 C240 1.333 . S
N239 C244 1.307 . S
N239 Zn245 2.020 . S
C240 N239 1.333 . S
C240 C241 1.379 . S
C240 H258 0.952 . S
C241 C240 1.379 . S
C241 C242 1.390 . S
C241 H268 0.949 . S
C242 C241 1.390 . S
C242 C243 1.357 . S
C243 C242 1.357 . S
C243 C244 1.370 . S
C243 H269 0.950 . S
C244 N239 1.307 . S
C244 C243 1.370 . S
C244 H262 0.948 . S
Zn245 N239 2.020 . S
Zn245 O254 2.039 . S
Zn245 O260 2.034 . S
Zn245 O264 2.025 . S
Zn245 O266 2.024 . S
C246 O265 1.246 . S
C246 O266 1.249 . S
N247 C248 1.307 . S
N247 C249 1.333 . S
N247 Zn253 2.020 . S
C248 N247 1.307 . S
C248 C252 1.370 . S
C248 H259 0.948 . S
C249 N247 1.333 . S
C249 C250 1.379 . S
C249 H257 0.952 . S
C250 C249 1.379 . S
C250 C251 1.390 . S
C250 H270 0.949 . S
C251 C250 1.390 . S
C251 C252 1.357 . S
C252 C248 1.370 . S
C252 C251 1.357 . S
C252 H271 0.950 . S
Zn253 N247 2.020 . S
Zn253 O256 2.025 . S
Zn253 O261 2.024 . S
Zn253 O263 2.039 . S
Zn253 O265 2.034 . S
O254 C238 1.251 . S
O254 Zn245 2.039 . S
C255 O260 1.246 . S
C255 O261 1.249 . S
O256 C238 1.254 . S
O256 Zn253 2.025 . S
H257 C249 0.952 . S
H258 C240 0.952 . S
H259 C248 0.948 . S
O260 Zn245 2.034 . S
O260 C255 1.246 . S
O261 Zn253 2.024 . S
O261 C255 1.249 . S
H262 C244 0.948 . S
O263 Zn253 2.039 . S
O263 C267 1.251 . S
O264 Zn245 2.025 . S
O264 C267 1.254 . S
O265 C246 1.246 . S
O265 Zn253 2.034 . S
O266 Zn245 2.024 . S
O266 C246 1.249 . S
C267 O263 1.251 . S
C267 O264 1.254 . S
H268 C241 0.949 . S
H269 C243 0.950 . S
H270 C250 0.949 . S
H271 C252 0.950 . S
C272 O288 1.251 . S
C272 O290 1.254 . S
N273 C274 1.333 . S
N273 C278 1.307 . S
N273 Zn279 2.020 . S
C274 N273 1.333 . S
C274 C275 1.379 . S
C274 H292 0.952 . S
C275 C274 1.379 . S
C275 C276 1.390 . S
C275 H302 0.949 . S
C276 C275 1.390 . S
C276 C277 1.357 . S
C277 C276 1.357 . S
C277 C278 1.370 . S
C277 H303 0.950 . S
C278 N273 1.307 . S
C278 C277 1.370 . S
C278 H296 0.948 . S
Zn279 N273 2.020 . S
Zn279 O288 2.039 . S
Zn279 O294 2.034 . S
Zn279 O298 2.025 . S
Zn279 O300 2.024 . S
C280 O299 1.246 . S
C280 O300 1.249 . S
N281 C282 1.307 . S
N281 C283 1.333 . S
N281 Zn287 2.020 . S
C282 N281 1.307 . S
C282 C286 1.370 . S
C282 H293 0.948 . S
C283 N281 1.333 . S
C283 C284 1.379 . S
C283 H291 0.952 . S
C284 C283 1.379 . S
C284 C285 1.390 . S
C284 H304 0.949 . S
C285 C284 1.390 . S
C285 C286 1.357 . S
C286 C282 1.370 . S
C286 C285 1.357 . S
C286 H305 0.950 . S
Zn287 N281 2.020 . S
Zn287 O290 2.025 . S
Zn287 O295 2.024 . S
Zn287 O297 2.039 . S
Zn287 O299 2.034 . S
O288 C272 1.251 . S
O288 Zn279 2.039 . S
C289 O294 1.246 . S
C289 O295 1.249 . S
O290 C272 1.254 . S
O290 Zn287 2.025 . S
H291 C283 0.952 . S
H292 C274 0.952 . S
H293 C282 0.948 . S
O294 Zn279 2.034 . S
O294 C289 1.246 . S
O295 Zn287 2.024 . S
O295 C289 1.249 . S
H296 C278 0.948 . S
O297 Zn287 2.039 . S
O297 C301 1.251 . S
O298 Zn279 2.025 . S
O298 C301 1.254 . S
O299 C280 1.246 . S
O299 Zn287 2.034 . S
O300 Zn279 2.024 . S
O300 C280 1.249 . S
C301 O297 1.251 . S
C301 O298 1.254 . S
H302 C275 0.949 . S
H303 C277 0.950 . S
H304 C284 0.949 . S
H305 C286 0.950 . S
H306 C314 0.950 . S
H307 C319 0.950 . S
H308 C316 0.950 . S
H309 C318 0.950 . S
H310 C320 0.950 . S
H311 C322 0.950 . S
H312 C324 0.950 . S
H313 C325 0.950 . S
C314 H306 0.950 . S
C314 C315 1.386 . S
C314 C316 1.391 . S
C315 C314 1.386 . S
C315 C319 1.393 . S
C316 H308 0.950 . S
C316 C314 1.391 . S
C316 C317 1.400 . S
C317 C316 1.400 . S
C317 C318 1.398 . S
C317 C323 1.491 . S
C318 H309 0.950 . S
C318 C317 1.398 . S
C318 C319 1.391 . S
C319 H307 0.950 . S
C319 C315 1.393 . S
C319 C318 1.391 . S
C320 H310 0.950 . S
C320 C321 1.386 1_455 S
C320 C322 1.391 . S
C321 C320 1.386 1_655 S
C321 C325 1.393 . S
C322 H311 0.950 . S
C322 C320 1.391 . S
C322 C323 1.400 . S
C323 C317 1.491 . S
C323 C322 1.400 . S
C323 C324 1.398 . S
C324 H312 0.950 . S
C324 C323 1.398 . S
C324 C325 1.391 1_455 S
C325 H313 0.950 . S
C325 C321 1.393 . S
C325 C324 1.391 1_655 S
H326 C334 0.950 . S
H327 C339 0.950 . S
H328 C336 0.950 . S
H329 C338 0.950 . S
H330 C340 0.950 . S
H331 C342 0.950 . S
H332 C344 0.950 . S
H333 C345 0.950 . S
C334 H326 0.950 . S
C334 C335 1.386 . S
C334 C336 1.391 . S
C335 C334 1.386 . S
C335 C339 1.393 . S
C336 H328 0.950 . S
C336 C334 1.391 . S
C336 C337 1.400 . S
C337 C336 1.400 . S
C337 C338 1.398 . S
C337 C343 1.491 . S
C338 H329 0.950 . S
C338 C337 1.398 . S
C338 C339 1.391 . S
C339 H327 0.950 . S
C339 C335 1.393 . S
C339 C338 1.391 . S
C340 H330 0.950 . S
C340 C341 1.386 . S
C340 C342 1.391 . S
C341 C340 1.386 . S
C341 C345 1.393 . S
C342 H331 0.950 . S
C342 C340 1.391 . S
C342 C343 1.400 . S
C343 C337 1.491 . S
C343 C342 1.400 . S
C343 C344 1.398 . S
C344 H332 0.950 . S
C344 C343 1.398 . S
C344 C345 1.391 . S
C345 H333 0.950 . S
C345 C341 1.393 . S
C345 C344 1.391 . S
H346 C354 0.950 1_545 S
H347 C359 0.950 . S
H348 C356 0.950 . S
H349 C358 0.950 . S
H350 C360 0.950 . S
H351 C362 0.950 1_565 S
H352 C364 0.950 . S
H353 C365 0.950 . S
C354 H346 0.950 1_565 S
C354 C355 1.386 . S
C354 C356 1.391 1_565 S
C355 C354 1.386 . S
C355 C359 1.393 . S
C356 H348 0.950 . S
C356 C354 1.391 1_545 S
C356 C357 1.400 . S
C357 C356 1.400 . S
C357 C358 1.398 1_545 S
C357 C363 1.491 . S
C358 H349 0.950 . S
C358 C357 1.398 1_565 S
C358 C359 1.391 . S
C359 H347 0.950 . S
C359 C355 1.393 . S
C359 C358 1.391 . S
C360 H350 0.950 . S
C360 C361 1.386 . S
C360 C362 1.391 . S
C361 C360 1.386 . S
C361 C365 1.393 . S
C362 H351 0.950 1_545 S
C362 C360 1.391 . S
C362 C363 1.400 . S
C363 C357 1.491 . S
C363 C362 1.400 . S
C363 C364 1.398 . S
C364 H352 0.950 . S
C364 C363 1.398 . S
C364 C365 1.391 . S
C365 H353 0.950 . S
C365 C361 1.393 . S
C365 C364 1.391 . S
H366 C374 0.950 . S
H367 C379 0.950 . S
H368 C376 0.950 . S
H369 C378 0.950 . S
H370 C380 0.950 . S
H371 C382 0.950 . S
H372 C384 0.950 . S
H373 C385 0.950 1_554 S
C374 H366 0.950 . S
C374 C375 1.386 . S
C374 C376 1.391 . S
C375 C374 1.386 . S
C375 C379 1.393 . S
C376 H368 0.950 . S
C376 C374 1.391 . S
C376 C377 1.400 . S
C377 C376 1.400 . S
C377 C378 1.398 . S
C377 C383 1.491 . S
C378 H369 0.950 . S
C378 C377 1.398 . S
C378 C379 1.391 . S
C379 H367 0.950 . S
C379 C375 1.393 . S
C379 C378 1.391 . S
C380 H370 0.950 . S
C380 C381 1.386 . S
C380 C382 1.391 . S
C381 C380 1.386 . S
C381 C385 1.393 . S
C382 H371 0.950 . S
C382 C380 1.391 . S
C382 C383 1.400 . S
C383 C377 1.491 . S
C383 C382 1.400 . S
C383 C384 1.398 . S
C384 H372 0.950 . S
C384 C383 1.398 . S
C384 C385 1.391 . S
C385 H373 0.950 1_556 S
C385 C381 1.393 . S
C385 C384 1.391 . S
H386 C394 0.950 . S
H387 C399 0.950 . S
H388 C396 0.950 . S
H389 C398 0.950 . S
H390 C400 0.950 . S
H391 C402 0.950 . S
H392 C404 0.950 . S
H393 C405 0.950 1_554 S
C394 H386 0.950 . S
C394 C395 1.386 . S
C394 C396 1.391 . S
C395 C394 1.386 . S
C395 C399 1.393 . S
C396 H388 0.950 . S
C396 C394 1.391 . S
C396 C397 1.400 . S
C397 C396 1.400 . S
C397 C398 1.398 . S
C397 C403 1.491 . S
C398 H389 0.950 . S
C398 C397 1.398 . S
C398 C399 1.391 . S
C399 H387 0.950 . S
C399 C395 1.393 . S
C399 C398 1.391 . S
C400 H390 0.950 . S
C400 C401 1.386 . S
C400 C402 1.391 . S
C401 C400 1.386 . S
C401 C405 1.393 . S
C402 H391 0.950 . S
C402 C400 1.391 . S
C402 C403 1.400 . S
C403 C397 1.491 . S
C403 C402 1.400 . S
C403 C404 1.398 . S
C404 H392 0.950 . S
C404 C403 1.398 . S
C404 C405 1.391 . S
C405 H393 0.950 1_556 S
C405 C401 1.393 . S
C405 C404 1.391 . S
H406 C414 0.950 . S
H407 C419 0.950 . S
H408 C416 0.950 . S
H409 C418 0.950 . S
H410 C420 0.950 . S
H411 C422 0.950 . S
H412 C424 0.950 . S
H413 C425 0.950 1_554 S
C414 H406 0.950 . S
C414 C415 1.386 . S
C414 C416 1.391 . S
C415 C414 1.386 . S
C415 C419 1.393 . S
C416 H408 0.950 . S
C416 C414 1.391 . S
C416 C417 1.400 . S
C417 C416 1.400 . S
C417 C418 1.398 . S
C417 C423 1.491 . S
C418 H409 0.950 . S
C418 C417 1.398 . S
C418 C419 1.391 . S
C419 H407 0.950 . S
C419 C415 1.393 . S
C419 C418 1.391 . S
C420 H410 0.950 . S
C420 C421 1.386 1_556 S
C420 C422 1.391 . S
C421 C420 1.386 1_554 S
C421 C425 1.393 1_554 S
C422 H411 0.950 . S
C422 C420 1.391 . S
C422 C423 1.400 . S
C423 C417 1.491 . S
C423 C422 1.400 . S
C423 C424 1.398 . S
C424 H412 0.950 . S
C424 C423 1.398 . S
C424 C425 1.391 . S
C425 H413 0.950 1_556 S
C425 C421 1.393 1_556 S
C425 C424 1.391 . S
H426 C434 0.950 . S
H427 C439 0.950 . S
H428 C436 0.950 . S
H429 C438 0.950 . S
H430 C440 0.950 1_556 S
H431 C442 0.950 . S
H432 C444 0.950 . S
H433 C445 0.950 . S
C434 H426 0.950 . S
C434 C435 1.386 . S
C434 C436 1.391 . S
C435 C434 1.386 . S
C435 C439 1.393 . S
C436 H428 0.950 . S
C436 C434 1.391 . S
C436 C437 1.400 . S
C437 C436 1.400 . S
C437 C438 1.398 . S
C437 C443 1.491 . S
C438 H429 0.950 . S
C438 C437 1.398 . S
C438 C439 1.391 . S
C439 H427 0.950 . S
C439 C435 1.393 . S
C439 C438 1.391 . S
C440 H430 0.950 1_554 S
C440 C441 1.386 1_554 S
C440 C442 1.391 . S
C441 C440 1.386 1_556 S
C441 C445 1.393 1_556 S
C442 H431 0.950 . S
C442 C440 1.391 . S
C442 C443 1.400 . S
C443 C437 1.491 . S
C443 C442 1.400 . S
C443 C444 1.398 . S
C444 H432 0.950 . S
C444 C443 1.398 . S
C444 C445 1.391 . S
C445 H433 0.950 . S
C445 C441 1.393 1_554 S
C445 C444 1.391 . S
H446 C454 0.950 . S
H447 C459 0.950 . S
H448 C456 0.950 . S
H449 C458 0.950 . S
H450 C460 0.950 . S
H451 C462 0.950 . S
H452 C464 0.950 . S
H453 C465 0.950 1_556 S
C454 H446 0.950 . S
C454 C455 1.386 . S
C454 C456 1.391 . S
C455 C454 1.386 . S
C455 C459 1.393 . S
C456 H448 0.950 . S
C456 C454 1.391 . S
C456 C457 1.400 . S
C457 C456 1.400 . S
C457 C458 1.398 . S
C457 C463 1.491 . S
C458 H449 0.950 . S
C458 C457 1.398 . S
C458 C459 1.391 . S
C459 H447 0.950 . S
C459 C455 1.393 . S
C459 C458 1.391 . S
C460 H450 0.950 . S
C460 C461 1.386 1_554 S
C460 C462 1.391 . S
C461 C460 1.386 1_556 S
C461 C465 1.393 1_556 S
C462 H451 0.950 . S
C462 C460 1.391 . S
C462 C463 1.400 . S
C463 C457 1.491 . S
C463 C462 1.400 . S
C463 C464 1.398 . S
C464 H452 0.950 . S
C464 C463 1.398 . S
C464 C465 1.391 . S
C465 H453 0.950 1_554 S
C465 C461 1.393 1_554 S
C465 C464 1.391 . S
H466 C474 0.950 . S
H467 C479 0.950 . S
H468 C476 0.950 . S
H469 C478 0.950 . S
H470 C480 0.950 1_556 S
H471 C482 0.950 . S
H472 C484 0.950 . S
H473 C485 0.950 . S
C474 H466 0.950 . S
C474 C475 1.386 . S
C474 C476 1.391 . S
C475 C474 1.386 . S
C475 C479 1.393 . S
C476 H468 0.950 . S
C476 C474 1.391 . S
C476 C477 1.400 . S
C477 C476 1.400 . S
C477 C478 1.398 . S
C477 C483 1.491 . S
C478 H469 0.950 . S
C478 C477 1.398 . S
C478 C479 1.391 . S
C479 H467 0.950 . S
C479 C475 1.393 . S
C479 C478 1.391 . S
C480 H470 0.950 1_554 S
C480 C481 1.386 1_554 S
C480 C482 1.391 . S
C481 C480 1.386 1_556 S
C481 C485 1.393 1_556 S
C482 H471 0.950 . S
C482 C480 1.391 . S
C482 C483 1.400 . S
C483 C477 1.491 . S
C483 C482 1.400 . S
C483 C484 1.398 . S
C484 H472 0.950 . S
C484 C483 1.398 . S
C484 C485 1.391 . S
C485 H473 0.950 . S
C485 C481 1.393 1_554 S
C485 C484 1.391 . S
H486 C494 0.950 . S
H487 C499 0.950 . S
H488 C496 0.950 . S
H489 C498 0.950 . S
H490 C500 0.950 . S
H491 C502 0.950 . S
H492 C504 0.950 . S
H493 C505 0.950 . S
C494 H486 0.950 . S
C494 C495 1.386 . S
C494 C496 1.391 . S
C495 C494 1.386 . S
C495 C499 1.393 . S
C496 H488 0.950 . S
C496 C494 1.391 . S
C496 C497 1.400 . S
C497 C496 1.400 . S
C497 C498 1.398 . S
C497 C503 1.491 . S
C498 H489 0.950 . S
C498 C497 1.398 . S
C498 C499 1.391 . S
C499 H487 0.950 . S
C499 C495 1.393 . S
C499 C498 1.391 . S
C500 H490 0.950 . S
C500 C501 1.386 . S
C500 C502 1.391 . S
C501 C500 1.386 . S
C501 C505 1.393 . S
C502 H491 0.950 . S
C502 C500 1.391 . S
C502 C503 1.400 . S
C503 C497 1.491 . S
C503 C502 1.400 . S
C503 C504 1.398 . S
C504 H492 0.950 . S
C504 C503 1.398 . S
C504 C505 1.391 . S
C505 H493 0.950 . S
C505 C501 1.393 . S
C505 C504 1.391 . S
H506 C514 0.950 . S
H507 C519 0.950 . S
H508 C516 0.950 . S
H509 C518 0.950 . S
H510 C520 0.950 . S
H511 C522 0.950 . S
H512 C524 0.950 . S
H513 C525 0.950 . S
C514 H506 0.950 . S
C514 C515 1.386 . S
C514 C516 1.391 . S
C515 C514 1.386 . S
C515 C519 1.393 . S
C516 H508 0.950 . S
C516 C514 1.391 . S
C516 C517 1.400 . S
C517 C516 1.400 . S
C517 C518 1.398 . S
C517 C523 1.491 . S
C518 H509 0.950 . S
C518 C517 1.398 . S
C518 C519 1.391 . S
C519 H507 0.950 . S
C519 C515 1.393 . S
C519 C518 1.391 . S
C520 H510 0.950 . S
C520 C521 1.386 . S
C520 C522 1.391 . S
C521 C520 1.386 . S
C521 C525 1.393 . S
C522 H511 0.950 . S
C522 C520 1.391 . S
C522 C523 1.400 . S
C523 C517 1.491 . S
C523 C522 1.400 . S
C523 C524 1.398 . S
C524 H512 0.950 . S
C524 C523 1.398 . S
C524 C525 1.391 . S
C525 H513 0.950 . S
C525 C521 1.393 . S
C525 C524 1.391 . S
H526 C534 0.950 1_556 S
H527 C539 0.950 . S
H528 C536 0.950 . S
H529 C538 0.950 . S
H530 C540 0.950 . S
H531 C542 0.950 . S
H532 C544 0.950 . S
H533 C545 0.950 . S
C534 H526 0.950 1_554 S
C534 C535 1.386 . S
C534 C536 1.391 . S
C535 C534 1.386 . S
C535 C539 1.393 . S
C536 H528 0.950 . S
C536 C534 1.391 . S
C536 C537 1.400 . S
C537 C536 1.400 . S
C537 C538 1.398 . S
C537 C543 1.491 . S
C538 H529 0.950 . S
C538 C537 1.398 . S
C538 C539 1.391 . S
C539 H527 0.950 . S
C539 C535 1.393 . S
C539 C538 1.391 . S
C540 H530 0.950 . S
C540 C541 1.386 . S
C540 C542 1.391 . S
C541 C540 1.386 . S
C541 C545 1.393 . S
C542 H531 0.950 . S
C542 C540 1.391 . S
C542 C543 1.400 . S
C543 C537 1.491 . S
C543 C542 1.400 . S
C543 C544 1.398 . S
C544 H532 0.950 . S
C544 C543 1.398 . S
C544 C545 1.391 . S
C545 H533 0.950 . S
C545 C541 1.393 . S
C545 C544 1.391 . S
H546 C554 0.950 . S
H547 C559 0.950 . S
H548 C556 0.950 . S
H549 C558 0.950 . S
H550 C560 0.950 . S
H551 C562 0.950 . S
H552 C564 0.950 . S
H553 C565 0.950 . S
C554 H546 0.950 . S
C554 C555 1.386 . S
C554 C556 1.391 . S
C555 C554 1.386 . S
C555 C559 1.393 . S
C556 H548 0.950 . S
C556 C554 1.391 . S
C556 C557 1.400 . S
C557 C556 1.400 . S
C557 C558 1.398 . S
C557 C563 1.491 . S
C558 H549 0.950 . S
C558 C557 1.398 . S
C558 C559 1.391 . S
C559 H547 0.950 . S
C559 C555 1.393 . S
C559 C558 1.391 . S
C560 H550 0.950 . S
C560 C561 1.386 . S
C560 C562 1.391 . S
C561 C560 1.386 . S
C561 C565 1.393 . S
C562 H551 0.950 . S
C562 C560 1.391 . S
C562 C563 1.400 . S
C563 C557 1.491 . S
C563 C562 1.400 . S
C563 C564 1.398 . S
C564 H552 0.950 . S
C564 C563 1.398 . S
C564 C565 1.391 . S
C565 H553 0.950 . S
C565 C561 1.393 . S
C565 C564 1.391 . S
H566 C574 0.950 . S
H567 C579 0.950 . S
H568 C576 0.950 . S
H569 C578 0.950 . S
H570 C580 0.950 . S
H571 C582 0.950 . S
H572 C584 0.950 1_554 S
H573 C585 0.950 . S
C574 H566 0.950 . S
C574 C575 1.386 . S
C574 C576 1.391 . S
C575 C574 1.386 . S
C575 C579 1.393 . S
C576 H568 0.950 . S
C576 C574 1.391 . S
C576 C577 1.400 . S
C577 C576 1.400 . S
C577 C578 1.398 . S
C577 C583 1.491 . S
C578 H569 0.950 . S
C578 C577 1.398 . S
C578 C579 1.391 . S
C579 H567 0.950 . S
C579 C575 1.393 . S
C579 C578 1.391 . S
C580 H570 0.950 . S
C580 C581 1.386 1_556 S
C580 C582 1.391 . S
C581 C580 1.386 1_554 S
C581 C585 1.393 . S
C582 H571 0.950 . S
C582 C580 1.391 . S
C582 C583 1.400 . S
C583 C577 1.491 . S
C583 C582 1.400 . S
C583 C584 1.398 . S
C584 H572 0.950 1_556 S
C584 C583 1.398 . S
C584 C585 1.391 1_556 S
C585 H573 0.950 . S
C585 C581 1.393 . S
C585 C584 1.391 1_554 S
H586 C594 0.950 . S
H587 C599 0.950 . S
H588 C596 0.950 . S
H589 C598 0.950 . S
H590 C600 0.950 . S
H591 C602 0.950 . S
H592 C604 0.950 . S
H593 C605 0.950 . S
C594 H586 0.950 . S
C594 C595 1.386 . S
C594 C596 1.391 . S
C595 C594 1.386 . S
C595 C599 1.393 . S
C596 H588 0.950 . S
C596 C594 1.391 . S
C596 C597 1.400 . S
C597 C596 1.400 . S
C597 C598 1.398 . S
C597 C603 1.491 . S
C598 H589 0.950 . S
C598 C597 1.398 . S
C598 C599 1.391 . S
C599 H587 0.950 . S
C599 C595 1.393 . S
C599 C598 1.391 . S
C600 H590 0.950 . S
C600 C601 1.386 . S
C600 C602 1.391 . S
C601 C600 1.386 . S
C601 C605 1.393 . S
C602 H591 0.950 . S
C602 C600 1.391 . S
C602 C603 1.400 . S
C603 C597 1.491 . S
C603 C602 1.400 . S
C603 C604 1.398 . S
C604 H592 0.950 . S
C604 C603 1.398 . S
C604 C605 1.391 . S
C605 H593 0.950 . S
C605 C601 1.393 . S
C605 C604 1.391 . S
H606 C614 0.950 . S
H607 C619 0.950 . S
H608 C616 0.950 . S
H609 C618 0.950 . S
H610 C620 0.950 . S
H611 C622 0.950 . S
H612 C624 0.950 . S
H613 C625 0.950 . S
C614 H606 0.950 . S
C614 C615 1.386 . S
C614 C616 1.391 . S
C615 C614 1.386 . S
C615 C619 1.393 . S
C616 H608 0.950 . S
C616 C614 1.391 . S
C616 C617 1.400 . S
C617 C616 1.400 . S
C617 C618 1.398 . S
C617 C623 1.491 . S
C618 H609 0.950 . S
C618 C617 1.398 . S
C618 C619 1.391 . S
C619 H607 0.950 . S
C619 C615 1.393 . S
C619 C618 1.391 . S
C620 H610 0.950 . S
C620 C621 1.386 1_456 S
C620 C622 1.391 1_455 S
C621 C620 1.386 1_654 S
C621 C625 1.393 . S
C622 H611 0.950 . S
C622 C620 1.391 1_655 S
C622 C623 1.400 . S
C623 C617 1.491 . S
C623 C622 1.400 . S
C623 C624 1.398 . S
C624 H612 0.950 . S
C624 C623 1.398 . S
C624 C625 1.391 1_556 S
C625 H613 0.950 . S
C625 C621 1.393 . S
C625 C624 1.391 1_554 S
H626 C634 0.950 . S
H627 C639 0.950 . S
H628 C636 0.950 . S
H629 C638 0.950 . S
H630 C640 0.950 . S
H631 C642 0.950 . S
H632 C644 0.950 . S
H633 C645 0.950 . S
C634 H626 0.950 . S
C634 C635 1.386 . S
C634 C636 1.391 . S
C635 C634 1.386 . S
C635 C639 1.393 1_556 S
C636 H628 0.950 . S
C636 C634 1.391 . S
C636 C637 1.400 . S
C637 C636 1.400 . S
C637 C638 1.398 . S
C637 C643 1.491 . S
C638 H629 0.950 . S
C638 C637 1.398 . S
C638 C639 1.391 1_556 S
C639 H627 0.950 . S
C639 C635 1.393 1_554 S
C639 C638 1.391 1_554 S
C640 H630 0.950 . S
C640 C641 1.386 . S
C640 C642 1.391 . S
C641 C640 1.386 . S
C641 C645 1.393 . S
C642 H631 0.950 . S
C642 C640 1.391 . S
C642 C643 1.400 . S
C643 C637 1.491 . S
C643 C642 1.400 . S
C643 C644 1.398 . S
C644 H632 0.950 . S
C644 C643 1.398 . S
C644 C645 1.391 . S
C645 H633 0.950 . S
C645 C641 1.393 . S
C645 C644 1.391 . S
H646 C654 0.950 . S
H647 C659 0.950 . S
H648 C656 0.950 . S
H649 C658 0.950 . S
H650 C660 0.950 . S
H651 C662 0.950 . S
H652 C664 0.950 . S
H653 C665 0.950 . S
C654 H646 0.950 . S
C654 C655 1.386 . S
C654 C656 1.391 . S
C655 C654 1.386 . S
C655 C659 1.393 . S
C656 H648 0.950 . S
C656 C654 1.391 . S
C656 C657 1.400 . S
C657 C656 1.400 . S
C657 C658 1.398 . S
C657 C663 1.491 . S
C658 H649 0.950 . S
C658 C657 1.398 . S
C658 C659 1.391 . S
C659 H647 0.950 . S
C659 C655 1.393 . S
C659 C658 1.391 . S
C660 H650 0.950 . S
C660 C661 1.386 . S
C660 C662 1.391 . S
C661 C660 1.386 . S
C661 C665 1.393 . S
C662 H651 0.950 . S
C662 C660 1.391 . S
C662 C663 1.400 . S
C663 C657 1.491 . S
C663 C662 1.400 . S
C663 C664 1.398 . S
C664 H652 0.950 . S
C664 C663 1.398 . S
C664 C665 1.391 . S
C665 H653 0.950 . S
C665 C661 1.393 . S
C665 C664 1.391 . S
H666 C674 0.950 1_556 S
H667 C679 0.950 . S
H668 C676 0.950 . S
H669 C678 0.950 . S
H670 C680 0.950 . S
H671 C682 0.950 . S
H672 C684 0.950 . S
H673 C685 0.950 . S
C674 H666 0.950 1_554 S
C674 C675 1.386 . S
C674 C676 1.391 . S
C675 C674 1.386 . S
C675 C679 1.393 . S
C676 H668 0.950 . S
C676 C674 1.391 . S
C676 C677 1.400 . S
C677 C676 1.400 . S
C677 C678 1.398 . S
C677 C683 1.491 . S
C678 H669 0.950 . S
C678 C677 1.398 . S
C678 C679 1.391 . S
C679 H667 0.950 . S
C679 C675 1.393 . S
C679 C678 1.391 . S
C680 H670 0.950 . S
C680 C681 1.386 . S
C680 C682 1.391 . S
C681 C680 1.386 . S
C681 C685 1.393 . S
C682 H671 0.950 . S
C682 C680 1.391 . S
C682 C683 1.400 . S
C683 C677 1.491 . S
C683 C682 1.400 . S
C683 C684 1.398 . S
C684 H672 0.950 . S
C684 C683 1.398 . S
C684 C685 1.391 . S
C685 H673 0.950 . S
C685 C681 1.393 . S
C685 C684 1.391 . S
H686 C694 0.950 . S
H687 C699 0.950 . S
H688 C696 0.950 . S
H689 C698 0.950 . S
H690 C700 0.950 . S
H691 C702 0.950 . S
H692 C704 0.950 . S
H693 C705 0.950 . S
C694 H686 0.950 . S
C694 C695 1.386 . S
C694 C696 1.391 . S
C695 C694 1.386 . S
C695 C699 1.393 . S
C696 H688 0.950 . S
C696 C694 1.391 . S
C696 C697 1.400 . S
C697 C696 1.400 . S
C697 C698 1.398 . S
C697 C703 1.491 . S
C698 H689 0.950 . S
C698 C697 1.398 . S
C698 C699 1.391 . S
C699 H687 0.950 . S
C699 C695 1.393 . S
C699 C698 1.391 . S
C700 H690 0.950 . S
C700 C701 1.386 . S
C700 C702 1.391 . S
C701 C700 1.386 . S
C701 C705 1.393 . S
C702 H691 0.950 . S
C702 C700 1.391 . S
C702 C703 1.400 . S
C703 C697 1.491 . S
C703 C702 1.400 . S
C703 C704 1.398 . S
C704 H692 0.950 . S
C704 C703 1.398 . S
C704 C705 1.391 . S
C705 H693 0.950 . S
C705 C701 1.393 . S
C705 C704 1.391 . S
H706 C714 0.950 . S
H707 C719 0.950 . S
H708 C716 0.950 . S
H709 C718 0.950 . S
H710 C720 0.950 . S
H711 C722 0.950 . S
H712 C724 0.950 . S
H713 C725 0.950 . S
C714 H706 0.950 . S
C714 C715 1.386 . S
C714 C716 1.391 . S
C715 C714 1.386 . S
C715 C719 1.393 . S
C716 H708 0.950 . S
C716 C714 1.391 . S
C716 C717 1.400 . S
C717 C716 1.400 . S
C717 C718 1.398 . S
C717 C723 1.491 . S
C718 H709 0.950 . S
C718 C717 1.398 . S
C718 C719 1.391 . S
C719 H707 0.950 . S
C719 C715 1.393 . S
C719 C718 1.391 . S
C720 H710 0.950 . S
C720 C721 1.386 . S
C720 C722 1.391 . S
C721 C720 1.386 . S
C721 C725 1.393 . S
C722 H711 0.950 . S
C722 C720 1.391 . S
C722 C723 1.400 . S
C723 C717 1.491 . S
C723 C722 1.400 . S
C723 C724 1.398 . S
C724 H712 0.950 . S
C724 C723 1.398 . S
C724 C725 1.391 . S
C725 H713 0.950 . S
C725 C721 1.393 . S
C725 C724 1.391 . S
H726 C734 0.950 . S
H727 C739 0.950 . S
H728 C736 0.950 . S
H729 C738 0.950 . S
H730 C740 0.950 . S
H731 C742 0.950 . S
H732 C744 0.950 . S
H733 C745 0.950 . S
C734 H726 0.950 . S
C734 C735 1.386 . S
C734 C736 1.391 . S
C735 C734 1.386 . S
C735 C739 1.393 . S
C736 H728 0.950 . S
C736 C734 1.391 . S
C736 C737 1.400 . S
C737 C736 1.400 . S
C737 C738 1.398 . S
C737 C743 1.491 . S
C738 H729 0.950 . S
C738 C737 1.398 . S
C738 C739 1.391 . S
C739 H727 0.950 . S
C739 C735 1.393 . S
C739 C738 1.391 . S
C740 H730 0.950 . S
C740 C741 1.386 . S
C740 C742 1.391 . S
C741 C740 1.386 . S
C741 C745 1.393 . S
C742 H731 0.950 . S
C742 C740 1.391 . S
C742 C743 1.400 . S
C743 C737 1.491 . S
C743 C742 1.400 . S
C743 C744 1.398 . S
C744 H732 0.950 . S
C744 C743 1.398 . S
C744 C745 1.391 . S
C745 H733 0.950 . S
C745 C741 1.393 . S
C745 C744 1.391 . S
H746 C754 0.950 . S
H747 C759 0.950 . S
H748 C756 0.950 . S
H749 C758 0.950 . S
H750 C760 0.950 . S
H751 C762 0.950 . S
H752 C764 0.950 . S
H753 C765 0.950 . S
C754 H746 0.950 . S
C754 C755 1.386 . S
C754 C756 1.391 1_545 S
C755 C754 1.386 . S
C755 C759 1.393 1_545 S
C756 H748 0.950 . S
C756 C754 1.391 1_565 S
C756 C757 1.400 . S
C757 C756 1.400 . S
C757 C758 1.398 . S
C757 C763 1.491 . S
C758 H749 0.950 . S
C758 C757 1.398 . S
C758 C759 1.391 . S
C759 H747 0.950 . S
C759 C755 1.393 1_565 S
C759 C758 1.391 . S
C760 H750 0.950 . S
C760 C761 1.386 . S
C760 C762 1.391 . S
C761 C760 1.386 . S
C761 C765 1.393 . S
C762 H751 0.950 . S
C762 C760 1.391 . S
C762 C763 1.400 . S
C763 C757 1.491 . S
C763 C762 1.400 . S
C763 C764 1.398 . S
C764 H752 0.950 . S
C764 C763 1.398 . S
C764 C765 1.391 . S
C765 H753 0.950 . S
C765 C761 1.393 . S
C765 C764 1.391 . S
H766 C774 0.950 . S
H767 C779 0.950 . S
H768 C776 0.950 . S
H769 C778 0.950 . S
H770 C780 0.950 . S
H771 C782 0.950 . S
H772 C784 0.950 . S
H773 C785 0.950 . S
C774 H766 0.950 . S
C774 C775 1.386 . S
C774 C776 1.391 . S
C775 C774 1.386 . S
C775 C779 1.393 . S
C776 H768 0.950 . S
C776 C774 1.391 . S
C776 C777 1.400 . S
C777 C776 1.400 . S
C777 C778 1.398 . S
C777 C783 1.491 1_655 S
C778 H769 0.950 . S
C778 C777 1.398 . S
C778 C779 1.391 . S
C779 H767 0.950 . S
C779 C775 1.393 . S
C779 C778 1.391 . S
C780 H770 0.950 . S
C780 C781 1.386 . S
C780 C782 1.391 . S
C781 C780 1.386 . S
C781 C785 1.393 . S
C782 H771 0.950 . S
C782 C780 1.391 . S
C782 C783 1.400 . S
C783 C777 1.491 1_455 S
C783 C782 1.400 . S
C783 C784 1.398 . S
C784 H772 0.950 . S
C784 C783 1.398 . S
C784 C785 1.391 . S
C785 H773 0.950 . S
C785 C781 1.393 . S
C785 C784 1.391 . S
H786 C794 0.950 . S
H787 C799 0.950 . S
H788 C796 0.950 . S
H789 C798 0.950 . S
H790 C800 0.950 . S
H791 C802 0.950 . S
H792 C804 0.950 . S
H793 C805 0.950 . S
C794 H786 0.950 . S
C794 C795 1.386 . S
C794 C796 1.391 . S
C795 C794 1.386 . S
C795 C799 1.393 . S
C796 H788 0.950 . S
C796 C794 1.391 . S
C796 C797 1.400 . S
C797 C796 1.400 . S
C797 C798 1.398 . S
C797 C803 1.491 . S
C798 H789 0.950 . S
C798 C797 1.398 . S
C798 C799 1.391 . S
C799 H787 0.950 . S
C799 C795 1.393 . S
C799 C798 1.391 . S
C800 H790 0.950 . S
C800 C801 1.386 . S
C800 C802 1.391 . S
C801 C800 1.386 . S
C801 C805 1.393 . S
C802 H791 0.950 . S
C802 C800 1.391 . S
C802 C803 1.400 . S
C803 C797 1.491 . S
C803 C802 1.400 . S
C803 C804 1.398 . S
C804 H792 0.950 . S
C804 C803 1.398 . S
C804 C805 1.391 . S
C805 H793 0.950 . S
C805 C801 1.393 . S
C805 C804 1.391 . S
H806 C814 0.950 . S
H807 C819 0.950 . S
H808 C816 0.950 . S
H809 C818 0.950 . S
H810 C820 0.950 . S
H811 C822 0.950 . S
H812 C824 0.950 . S
H813 C825 0.950 . S
C814 H806 0.950 . S
C814 C815 1.386 . S
C814 C816 1.391 . S
C815 C814 1.386 . S
C815 C819 1.393 . S
C816 H808 0.950 . S
C816 C814 1.391 . S
C816 C817 1.400 . S
C817 C816 1.400 . S
C817 C818 1.398 . S
C817 C823 1.491 . S
C818 H809 0.950 . S
C818 C817 1.398 . S
C818 C819 1.391 . S
C819 H807 0.950 . S
C819 C815 1.393 . S
C819 C818 1.391 . S
C820 H810 0.950 . S
C820 C821 1.386 . S
C820 C822 1.391 1_545 S
C821 C820 1.386 . S
C821 C825 1.393 1_545 S
C822 H811 0.950 . S
C822 C820 1.391 1_565 S
C822 C823 1.400 . S
C823 C817 1.491 . S
C823 C822 1.400 . S
C823 C824 1.398 . S
C824 H812 0.950 . S
C824 C823 1.398 . S
C824 C825 1.391 . S
C825 H813 0.950 . S
C825 C821 1.393 1_565 S
C825 C824 1.391 . S
H826 C834 0.950 . S
H827 C839 0.950 . S
H828 C836 0.950 . S
H829 C838 0.950 . S
H830 C840 0.950 . S
H831 C842 0.950 . S
H832 C844 0.950 1_655 S
H833 C845 0.950 . S
C834 H826 0.950 . S
C834 C835 1.386 . S
C834 C836 1.391 . S
C835 C834 1.386 . S
C835 C839 1.393 . S
C836 H828 0.950 . S
C836 C834 1.391 . S
C836 C837 1.400 . S
C837 C836 1.400 . S
C837 C838 1.398 . S
C837 C843 1.491 1_655 S
C838 H829 0.950 . S
C838 C837 1.398 . S
C838 C839 1.391 . S
C839 H827 0.950 . S
C839 C835 1.393 . S
C839 C838 1.391 . S
C840 H830 0.950 . S
C840 C841 1.386 . S
C840 C842 1.391 . S
C841 C840 1.386 . S
C841 C845 1.393 . S
C842 H831 0.950 . S
C842 C840 1.391 . S
C842 C843 1.400 . S
C843 C837 1.491 1_455 S
C843 C842 1.400 . S
C843 C844 1.398 . S
C844 H832 0.950 1_455 S
C844 C843 1.398 . S
C844 C845 1.391 . S
C845 H833 0.950 . S
C845 C841 1.393 . S
C845 C844 1.391 . S
C315 C4 0.659 . S
C321 C13 0.659 . S
C335 C47 0.614 . S
C341 C38 0.614 . S
C355 C72 0.566 . S
C361 C81 0.566 . S
C375 C115 0.618 . S
C381 C106 0.618 . S
C395 C140 0.555 . S
C401 C149 0.555 1_556 S
C415 C183 0.507 . S
C421 C174 0.507 . S
C435 C233 3.283 . S
C441 C204 3.283 . S
C455 C238 3.283 . S
C461 C267 3.283 . S
C475 C301 3.300 . S
C481 C272 3.300 . S
C495 C187 1.662 . S
C501 C29 1.636 . S
C515 C51 1.671 . S
C521 C119 1.655 . S
C535 C97 1.686 . S
C541 C165 1.666 . S
C555 C85 1.631 . S
C561 C212 1.643 . S
C575 C251 1.081 . S
C581 C17 1.092 1_655 S
C595 C280 1.391 . S
C601 C63 1.385 . S
C615 C276 1.042 . S
C621 C0 1.046 1_655 S
C635 C42 1.197 1_556 S
C641 C208 1.182 . S
C655 C255 1.579 . S
C661 C68 1.578 . S
C675 C76 1.663 . S
C681 C102 1.646 . S
C695 C144 1.660 . S
C701 C8 1.642 . S
C715 C34 1.678 . S
C721 C170 1.691 . S
C735 C285 1.039 . S
C741 C131 1.032 . S
C755 C217 1.174 . S
C761 C153 1.186 . S
C775 C246 1.583 . S
C781 C199 1.576 . S
C795 C221 1.649 . S
C801 C178 1.638 . S
C815 C110 1.098 . S
C821 C242 1.087 . S
C835 C289 1.404 . S
C841 C136 1.397 . S
