# Generated by pormake.
# Topology vby, (6)-cn, num edge types: 1
# Building blocks:
#     Node 0, Type 0, BuildingBlock: BETFEN_clean_sbu_0, # of connection points: 6
#     Node 1, Type 0, BuildingBlock: BETFEN_clean_sbu_0, # of connection points: 6
#     Node 2, Type 0, BuildingBlock: BETFEN_clean_sbu_0, # of connection points: 6
#     Node 3, Type 0, BuildingBlock: BETFEN_clean_sbu_0, # of connection points: 6
#     Node 4, Type 0, BuildingBlock: BETFEN_clean_sbu_0, # of connection points: 6
#     Node 5, Type 0, BuildingBlock: BETFEN_clean_sbu_0, # of connection points: 6
#     Node 6, Type 0, BuildingBlock: BETFEN_clean_sbu_0, # of connection points: 6
#     Node 7, Type 0, BuildingBlock: BETFEN_clean_sbu_0, # of connection points: 6
#     Edge 8, Type (0, 0), BuildingBlock: XIVTED_clean_linker_0, # of connection points: 2
#     Edge 9, Type (0, 0), BuildingBlock: XIVTED_clean_linker_0, # of connection points: 2
#     Edge 10, Type (0, 0), BuildingBlock: XIVTED_clean_linker_0, # of connection points: 2
#     Edge 11, Type (0, 0), BuildingBlock: XIVTED_clean_linker_0, # of connection points: 2
#     Edge 12, Type (0, 0), BuildingBlock: XIVTED_clean_linker_0, # of connection points: 2
#     Edge 13, Type (0, 0), BuildingBlock: XIVTED_clean_linker_0, # of connection points: 2
#     Edge 14, Type (0, 0), BuildingBlock: XIVTED_clean_linker_0, # of connection points: 2
#     Edge 15, Type (0, 0), BuildingBlock: XIVTED_clean_linker_0, # of connection points: 2
#     Edge 16, Type (0, 0), BuildingBlock: XIVTED_clean_linker_0, # of connection points: 2
#     Edge 17, Type (0, 0), BuildingBlock: XIVTED_clean_linker_0, # of connection points: 2
#     Edge 18, Type (0, 0), BuildingBlock: XIVTED_clean_linker_0, # of connection points: 2
#     Edge 19, Type (0, 0), BuildingBlock: XIVTED_clean_linker_0, # of connection points: 2
#     Edge 20, Type (0, 0), BuildingBlock: XIVTED_clean_linker_0, # of connection points: 2
#     Edge 21, Type (0, 0), BuildingBlock: XIVTED_clean_linker_0, # of connection points: 2
#     Edge 22, Type (0, 0), BuildingBlock: XIVTED_clean_linker_0, # of connection points: 2
#     Edge 23, Type (0, 0), BuildingBlock: XIVTED_clean_linker_0, # of connection points: 2
#     Edge 24, Type (0, 0), BuildingBlock: XIVTED_clean_linker_0, # of connection points: 2
#     Edge 25, Type (0, 0), BuildingBlock: XIVTED_clean_linker_0, # of connection points: 2
#     Edge 26, Type (0, 0), BuildingBlock: XIVTED_clean_linker_0, # of connection points: 2
#     Edge 27, Type (0, 0), BuildingBlock: XIVTED_clean_linker_0, # of connection points: 2
#     Edge 28, Type (0, 0), BuildingBlock: XIVTED_clean_linker_0, # of connection points: 2
#     Edge 29, Type (0, 0), BuildingBlock: XIVTED_clean_linker_0, # of connection points: 2
#     Edge 30, Type (0, 0), BuildingBlock: XIVTED_clean_linker_0, # of connection points: 2
#     Edge 31, Type (0, 0), BuildingBlock: XIVTED_clean_linker_0, # of connection points: 2
# Relax obj value: 0.201
# Max RMSD: 0.215
# Mean RMSD: 0.215
data_MOF--net-vby--node1-BETFEN_clean_sbu_0--edge1-XIVTED_clean_linker_0
_symmetry_space_group_name_H-M    P1
_symmetry_Int_Tables_number       1
_symmetry_cell_setting            triclinic
loop_
_symmetry_equiv_pos_as_xyz
'x, y, z'
_cell_length_a     15.894851
_cell_length_b     105.28343
_cell_length_c     29.767392
_cell_angle_alpha  90.220988
_cell_angle_beta   94.716088
_cell_angle_gamma 90.150242
loop_
_atom_site_label
_atom_site_type_symbol
_atom_site_fract_x
_atom_site_fract_y
_atom_site_fract_z
_atom_type_partial_charge
Pr0 Pr 0.07789 0.36917 0.01139 0.0
Pr1 Pr 0.08353 0.39836 0.01696 0.0
C2 C 0.0827 0.34504 0.98088 0.0
C3 C 0.12094 0.33239 0.99008 0.0
C4 C 0.10985 0.32572 0.03003 0.0
C5 C 0.14119 0.31335 0.03603 0.0
C6 C 0.18424 0.30737 0.00225 0.0
C7 C 0.19639 0.3142 0.96273 0.0
C8 C 0.16514 0.32654 0.95679 0.0
C9 C 0.08055 0.37508 0.10324 0.0
C10 C 0.26494 0.38401 0.02333 0.0
C11 C 0.06959 0.42368 0.02412 0.0
C12 C 0.06103 0.43766 0.02543 0.0
C13 C 0.03934 0.44433 0.98543 0.0
C14 C 0.03498 0.45758 0.98553 0.0
C15 C 0.05126 0.46454 0.02579 0.0
C16 C 0.07245 0.45781 0.06598 0.0
C17 C 0.0777 0.44451 0.06574 0.0
C18 C 0.09444 0.38788 0.93091 0.0
C19 C 0.89731 0.38386 0.01529 0.0
O20 O 0.13178 0.35406 0.9675 0.0
O21 O 1.02645 0.34912 0.00728 0.0
O22 O 0.08165 0.38334 0.07249 0.0
O23 O 0.08409 0.36371 0.08688 0.0
O24 O 0.22649 0.39444 0.03505 0.0
O25 O 0.22208 0.37382 0.00896 0.0
O26 O 0.10973 0.41697 0.05608 0.0
O27 O 0.0351 0.41711 0.99005 0.0
O28 O 0.04336 0.38452 0.9588 0.0
O29 O 0.14464 0.3967 0.94781 0.0
O30 O 0.93368 0.37353 0.0009 0.0
O31 O 0.94189 0.39402 0.02848 0.0
H32 H 0.07616 0.32997 0.05643 0.0
H33 H 0.13171 0.30849 0.0672 0.0
H34 H 0.228 0.3099 0.93565 0.0
H35 H 0.17396 0.33143 0.92555 0.0
H36 H 1.02727 0.43933 0.95367 0.0
H37 H 1.02047 0.46233 0.95367 0.0
H38 H 0.08434 0.46277 0.09779 0.0
H39 H 0.09473 0.43961 0.09707 0.0
Pr40 Pr 0.97369 0.62507 0.01252 0.0
Pr41 Pr 0.98139 0.6548 0.01942 0.0
C42 C 0.97551 0.60002 0.99284 0.0
C43 C 1.00206 0.58669 -0.00024 0.0
C44 C 1.00477 0.58088 0.04232 0.0
C45 C 1.01628 0.56772 0.04638 0.0
C46 C 1.02456 0.56012 0.00795 0.0
C47 C 1.02515 0.56609 0.96576 0.0
C48 C 1.01403 0.57921 0.96178 0.0
C49 C 0.97441 0.63502 0.10036 0.0
C50 C 0.16313 0.63937 0.01881 0.0
C51 C 0.97802 0.679 0.04935 0.0
C52 C 0.93888 0.69162 0.04057 0.0
C53 C 0.94961 0.69842 0.00084 0.0
C54 C 0.9179 0.71078 0.99529 0.0
C55 C 0.87483 0.71663 0.02932 0.0
C56 C 0.86296 0.70967 0.06861 0.0
C57 C 0.89459 0.69734 0.0741 0.0
C58 C 0.96658 0.64822 0.92696 0.0
C59 C 0.79558 0.6403 0.00711 0.0
O60 O 1.02471 0.60817 0.97465 0.0
O61 O 0.92699 0.6051 0.02128 0.0
O62 O 1.01972 0.63892 0.07038 0.0
O63 O 0.9289 0.62541 0.08579 0.0
O64 O 0.12592 0.65027 0.02689 0.0
O65 O 0.11985 0.62868 0.01131 0.0
O66 O 0.93056 0.66998 0.06417 0.0
O67 O 0.0322 0.67488 0.02178 0.0
O68 O 0.96784 0.64064 0.95969 0.0
O69 O 0.96918 0.65977 0.94226 0.0
O70 O 0.83409 0.63054 0.99 0.0
O71 O 0.83893 0.64987 0.0262 0.0
H72 H 0.99502 0.58643 0.07215 0.0
H73 H 1.01503 0.56343 0.07934 0.0
H74 H 0.03278 0.56059 0.93557 0.0
H75 H 1.01153 0.58346 0.9286 0.0
H76 H 0.98341 0.69428 0.97426 0.0
H77 H 0.92718 0.71574 0.96429 0.0
H78 H 0.83133 0.71387 0.09586 0.0
H79 H 0.88608 0.69237 0.10521 0.0
Pr80 Pr 0.07792 0.62337 0.52508 0.0
Pr81 Pr 0.07521 0.65509 0.51317 0.0
C82 C 0.08236 0.59958 0.55814 0.0
C83 C 0.06742 0.58597 0.54809 0.0
C84 C 0.09648 0.58008 0.50986 0.0
C85 C 0.08811 0.56691 0.50375 0.0
C86 C 0.05063 0.55938 0.53575 0.0
C87 C 1.02026 0.56542 0.57344 0.0
C88 C 1.02849 0.57854 0.57943 0.0
C89 C 0.06023 0.63059 0.4336 0.0
C90 C 0.89414 0.63903 0.51699 0.0
C91 C 0.07626 0.67889 0.48043 0.0
C92 C 0.11304 0.69171 0.48848 0.0
C93 C 0.1117 0.69796 0.53025 0.0
C94 C 0.14084 0.71051 0.53546 0.0
C95 C 0.17196 0.71706 0.49905 0.0
C96 C 0.17534 0.71058 0.45777 0.0
C97 C 0.14606 0.69809 0.45259 0.0
C98 C 0.0887 0.64803 0.6048 0.0
C99 C 0.25979 0.63971 0.52355 0.0
O100 O 1.01655 0.607 0.55977 0.0
O101 O 0.14687 0.60507 0.54137 0.0
O102 O 0.06447 0.63761 0.46791 0.0
O103 O 0.06592 0.6188 0.44641 0.0
O104 O 0.9318 0.64932 0.50244 0.0
O105 O 0.9363 0.62879 0.53164 0.0
O106 O 0.12619 0.66993 0.46742 0.0
O107 O 1.02114 0.67487 0.50767 0.0
O108 O 0.08484 0.64077 0.57098 0.0
O109 O 0.09011 0.65974 0.59126 0.0
O110 O 0.22147 0.62921 0.53585 0.0
O111 O 0.21826 0.65012 0.51041 0.0
H112 H 0.12673 0.5856 0.48509 0.0
H113 H 0.1111 0.56264 0.47398 0.0
H114 H 0.99229 0.55997 0.59919 0.0
H115 H 1.00628 0.58287 0.60934 0.0
H116 H 0.08667 0.69326 0.55861 0.0
H117 H 0.13663 0.71519 0.56765 0.0
H118 H 0.20046 0.71517 0.42924 0.0
H119 H 0.14797 0.69346 0.42011 0.0
Pr120 Pr 0.98043 0.36928 0.51837 0.0
Pr121 Pr 0.97553 0.39924 0.50888 0.0
C122 C 0.97763 0.34526 0.5494 0.0
C123 C 0.93922 0.33253 0.54063 0.0
C124 C 0.95341 0.32546 0.50176 0.0
C125 C 0.92288 0.313 0.49634 0.0
C126 C 0.87731 0.30729 0.5296 0.0
C127 C 0.86154 0.31453 0.56788 0.0
C128 C 0.89234 0.32695 0.57335 0.0
C129 C 0.95782 0.37533 0.42604 0.0
C130 C 0.79645 0.38396 0.50698 0.0
C131 C 0.98128 0.42396 0.48525 0.0
C132 C 1.00233 0.43734 0.4965 0.0
C133 C 0.97489 0.44332 0.53497 0.0
C134 C 0.98559 0.45644 0.54126 0.0
C135 C 1.02358 0.46386 0.50915 0.0
C136 C 0.05305 0.45773 0.47142 0.0
C137 C 0.04258 0.44463 0.46526 0.0
C138 C 0.97798 0.39014 0.59742 0.0
C139 C 0.16275 0.38445 0.51345 0.0
O140 O 0.92949 0.35428 0.56366 0.0
O141 O 0.03232 0.34934 0.52207 0.0
O142 O 0.96399 0.38312 0.45826 0.0
O143 O 0.95962 0.36383 0.44142 0.0
O144 O 0.83513 0.39345 0.48824 0.0
O145 O 0.83959 0.37461 0.52723 0.0
O146 O 0.04205 0.416 0.47859 0.0
O147 O 0.91767 0.41875 0.50347 0.0
O148 O 1.02061 0.38575 0.56711 0.0
O149 O 0.93659 0.40014 0.58323 0.0
O150 O 0.12531 0.37377 0.52414 0.0
O151 O 0.11986 0.39501 0.5039 0.0
H152 H 0.9896 0.32945 0.47591 0.0
H153 H 0.93724 0.30773 0.46664 0.0
H154 H 0.82543 0.3106 0.59385 0.0
H155 H 0.88063 0.33215 0.60368 0.0
H156 H 0.94342 0.43792 0.55961 0.0
H157 H 0.96337 0.46078 0.57112 0.0
H158 H 0.08144 0.46309 0.4456 0.0
H159 H 0.06328 0.44026 0.43506 0.0
Pr160 Pr 0.57372 0.86963 0.01242 0.0
Pr161 Pr 0.57836 0.89935 0.01633 0.0
C162 C 0.57754 0.84538 0.98321 0.0
C163 C 0.61672 0.83275 0.99172 0.0
C164 C 0.60605 0.82589 0.03131 0.0
C165 C 0.63757 0.81351 0.03654 0.0
C166 C 0.68033 0.80771 0.0023 0.0
C167 C 0.69215 0.81472 0.96315 0.0
C168 C 0.66073 0.82707 0.95798 0.0
C169 C 0.58617 0.8767 0.10355 0.0
C170 C 0.75998 0.8848 0.02166 0.0
C171 C 0.5646 0.92464 0.02358 0.0
C172 C 0.55549 0.93861 0.02545 0.0
C173 C 0.52127 0.94518 0.98728 0.0
C174 C 0.51625 0.9584 0.9875 0.0
C175 C 0.54464 0.96546 0.02607 0.0
C176 C 0.57851 0.95886 0.06446 0.0
C177 C 0.5841 0.94557 0.06409 0.0
C178 C 0.58891 0.88843 0.93119 0.0
C179 C 0.39313 0.8845 0.01696 0.0
O180 O 0.62467 0.85439 0.96804 0.0
O181 O 0.52383 0.8495 0.01104 0.0
O182 O 0.58339 0.88429 0.07088 0.0
O183 O 0.58709 0.86503 0.08963 0.0
O184 O 0.72168 0.89529 0.03311 0.0
O185 O 0.71724 0.8745 0.00803 0.0
O186 O 0.60595 0.91793 0.05514 0.0
O187 O 0.52895 0.91809 0.98975 0.0
O188 O 0.53868 0.88503 0.95956 0.0
O189 O 0.63738 0.8976 0.94699 0.0
O190 O 0.42946 0.87403 0.00354 0.0
O191 O 0.43737 0.8948 0.02888 0.0
H192 H 0.57241 0.82999 0.05802 0.0
H193 H 0.62834 0.8085 0.06745 0.0
H194 H 0.72354 0.81056 0.93575 0.0
H195 H 0.66913 0.8321 0.92696 0.0
H196 H 0.4996 0.94011 0.95674 0.0
H197 H 0.49157 0.96309 0.9569 0.0
H198 H 0.60013 0.96392 0.09498 0.0
H199 H 0.61106 0.94076 0.09397 0.0
Pr200 Pr 0.47632 0.1254 0.01081 0.0
Pr201 Pr 0.48417 0.15485 0.02294 0.0
C202 C 0.47865 0.10069 0.98624 0.0
C203 C 0.50194 0.08732 0.99441 0.0
C204 C 0.51417 0.08224 0.03803 0.0
C205 C 0.52508 0.0691 0.04397 0.0
C206 C 0.52287 0.06089 0.00641 0.0
C207 C 0.51336 0.06615 0.96296 0.0
C208 C 0.50313 0.07921 0.9571 0.0
C209 C 0.47739 0.13394 0.10033 0.0
C210 C 0.66576 0.13963 0.01905 0.0
C211 C 0.48095 0.17872 0.05594 0.0
C212 C 0.44286 0.19139 0.04688 0.0
C213 C 0.45302 0.198 0.00668 0.0
C214 C 0.42155 0.21036 0.00059 0.0
C215 C 0.37917 0.21639 0.03451 0.0
C216 C 0.36786 0.20963 0.07428 0.0
C217 C 0.39932 0.1973 0.08033 0.0
C218 C 0.46915 0.14985 0.92958 0.0
C219 C 0.29851 0.14057 0.00829 0.0
O220 O 0.53592 0.10882 0.97549 0.0
O221 O 0.42151 0.10563 0.01006 0.0
O222 O 0.52228 0.13836 0.07112 0.0
O223 O 0.4327 0.12442 0.08421 0.0
O224 O 0.62878 0.15035 0.02972 0.0
O225 O 0.62216 0.12912 0.00906 0.0
O226 O 0.43141 0.16965 0.06855 0.0
O227 O 0.53752 0.17474 0.02955 0.0
O228 O 0.47112 0.14157 0.96013 0.0
O229 O 0.47019 0.16109 0.94741 0.0
O230 O 0.337 0.13121 0.9888 0.0
O231 O 0.34212 0.14973 0.02977 0.0
H232 H 0.51283 0.08835 0.06733 0.0
H233 H 0.53189 0.06533 0.07788 0.0
H234 H 0.5127 0.06014 0.93333 0.0
H235 H 0.49336 0.08295 0.9232 0.0
H236 H 0.48605 0.1937 0.98011 0.0
H237 H 0.43034 0.21517 0.96923 0.0
H238 H 0.33671 0.21397 0.10144 0.0
H239 H 0.39108 0.19245 0.11172 0.0
Pr240 Pr 0.57557 0.12401 0.52209 0.0
Pr241 Pr 0.57685 0.15392 0.5133 0.0
C242 C 0.54439 0.09949 0.54032 0.0
C243 C 0.55442 0.08564 0.53652 0.0
C244 C 0.59407 0.07994 0.50116 0.0
C245 C 0.59461 0.06665 0.49667 0.0
C246 C 0.55474 0.0589 0.52719 0.0
C247 C 0.51677 0.06475 0.56294 0.0
C248 C 0.51667 0.07795 0.56748 0.0
C249 C 0.58541 0.13333 0.43481 0.0
C250 C 0.39398 0.13997 0.52 0.0
C251 C 0.58482 0.17788 0.48212 0.0
C252 C 0.62314 0.19059 0.49125 0.0
C253 C 0.60821 0.19764 0.53004 0.0
C254 C 0.63855 0.21011 0.53563 0.0
C255 C 0.68461 0.21584 0.50261 0.0
C256 C 0.70118 0.20861 0.46444 0.0
C257 C 0.67061 0.19618 0.45882 0.0
C258 C 0.58849 0.14797 0.60557 0.0
C259 C 0.76008 0.13794 0.52325 0.0
O260 O 0.50721 0.10556 0.50599 0.0
O261 O 0.60092 0.10624 0.56452 0.0
O262 O 0.53863 0.13773 0.4634 0.0
O263 O 0.62806 0.1236 0.45075 0.0
O264 O 0.43177 0.14993 0.50377 0.0
O265 O 0.43703 0.12991 0.53496 0.0
O266 O 0.63382 0.16875 0.46951 0.0
O267 O 0.52724 0.17398 0.50804 0.0
O268 O 0.58404 0.14005 0.57363 0.0
O269 O 0.59079 0.15943 0.58999 0.0
O270 O 0.72052 0.12768 0.53623 0.0
O271 O 0.71874 0.14821 0.50859 0.0
H272 H 0.62296 0.08575 0.47666 0.0
H273 H 0.62399 0.06248 0.46858 0.0
H274 H 0.48683 0.05913 0.58754 0.0
H275 H 0.48533 0.08218 0.59483 0.0
H276 H 0.57156 0.19364 0.55567 0.0
H277 H 0.62363 0.21537 0.56525 0.0
H278 H 0.73771 0.21255 0.43868 0.0
H279 H 0.68288 0.19099 0.42855 0.0
Pr280 Pr 0.4851 0.87047 0.51877 0.0
Pr281 Pr 0.47661 0.89842 0.50642 0.0
C282 C 0.47447 0.84575 0.54227 0.0
C283 C 0.42859 0.83351 0.53576 0.0
C284 C 0.42319 0.82708 0.49411 0.0
C285 C 0.3903 0.81473 0.49037 0.0
C286 C 0.36189 0.80851 0.52815 0.0
C287 C 0.36476 0.81517 0.56937 0.0
C288 C 0.39796 0.82748 0.57311 0.0
C289 C 0.50146 0.8776 0.42975 0.0
C290 C 0.29652 0.88398 0.50295 0.0
C291 C 0.48389 0.92322 0.48316 0.0
C292 C 0.50418 0.93666 0.49431 0.0
C293 C 0.46802 0.94301 0.52961 0.0
C294 C 0.47733 0.95618 0.53496 0.0
C295 C 0.52269 0.96332 0.50505 0.0
C296 C 0.5611 0.95684 0.47071 0.0
C297 C 0.55186 0.94368 0.46544 0.0
C298 C 0.47884 0.89086 0.5971 0.0
C299 C 0.66492 0.88467 0.51813 0.0
O300 O 0.44055 0.8549 0.56446 0.0
O301 O 0.51717 0.84983 0.50955 0.0
O302 O 0.44783 0.88252 0.45383 0.0
O303 O 0.54258 0.86848 0.45047 0.0
O304 O 0.33548 0.89359 0.48553 0.0
O305 O 0.34013 0.87454 0.52211 0.0
O306 O 0.54459 0.91522 0.47682 0.0
O307 O 0.41994 0.918 0.5009 0.0
O308 O 0.52507 0.88641 0.56868 0.0
O309 O 0.43161 0.89986 0.57969 0.0
O310 O 0.62695 0.87531 0.53785 0.0
O311 O 0.6202 0.89395 0.49826 0.0
H312 H 0.44679 0.83141 0.46466 0.0
H313 H 0.39013 0.8099 0.45817 0.0
H314 H 0.34208 0.81083 0.59902 0.0
H315 H 0.40185 0.83218 0.60567 0.0
H316 H 0.43058 0.93787 0.55237 0.0
H317 H 0.44809 0.96078 0.56229 0.0
H318 H 0.59557 0.96198 0.44666 0.0
H319 H 0.57933 0.93905 0.43758 0.0
H320 H 0.36605 0.36412 0.00281 0.0
H321 H 0.79787 0.40371 0.03876 0.0
H322 H 0.37769 0.40348 0.04423 0.0
H323 H 0.78382 0.36451 0.9956 0.0
H324 H 0.64467 0.40381 0.04163 0.0
H325 H 0.51911 0.36409 0.00101 0.0
C326 C 0.40068 0.37277 0.01173 0.0
C327 C 0.35852 0.38382 0.02386 0.0
C328 C 0.67509 0.39519 0.03154 0.0
C329 C 0.53474 0.38385 0.0216 0.0
C330 C 0.76273 0.39512 0.02988 0.0
C331 C 0.80415 0.38409 0.01688 0.0
C332 C 0.62817 0.38414 0.02022 0.0
C333 C 0.75489 0.37325 0.00573 0.0
C334 C 0.48833 0.37274 0.0106 0.0
C335 C 0.40726 0.39472 0.03488 0.0
N336 N 0.6697 0.37355 0.00769 0.0
N337 N 0.49265 0.39446 0.03344 0.0
H338 H 0.26461 0.6193 0.99916 0.0
H339 H 0.69395 0.65969 0.03156 0.0
H340 H 0.27532 0.65906 0.03532 0.0
H341 H 0.68326 0.62093 0.98364 0.0
H342 H 0.54105 0.6594 0.03465 0.0
H343 H 0.41778 0.61946 0.99533 0.0
C344 C 0.299 0.62806 0.0065 0.0
C345 C 0.25657 0.63917 0.01773 0.0
C346 C 0.57197 0.65096 0.02332 0.0
C347 C 0.43251 0.63942 0.0132 0.0
C348 C 0.65953 0.65112 0.02149 0.0
C349 C 0.70193 0.64033 0.00711 0.0
C350 C 0.52587 0.63991 0.01098 0.0
C351 C 0.65347 0.6295 0.99464 0.0
C352 C 0.3866 0.62814 0.00415 0.0
C353 C 0.30492 0.65024 0.02663 0.0
N354 N 0.56819 0.62955 0.99699 0.0
N355 N 0.39003 0.65007 0.0242 0.0
H356 H 0.79176 0.6195 0.54066 0.0
H357 H 0.36286 0.65937 0.50195 0.0
H358 H 0.78199 0.65839 0.49508 0.0
H359 H 0.37165 0.62021 0.5446 0.0
H360 H 0.51605 0.65923 0.5001 0.0
H361 H 0.63856 0.61964 0.54278 0.0
C362 C 0.75761 0.62808 0.53101 0.0
C363 C 0.80045 0.63895 0.51757 0.0
C364 C 0.48457 0.65067 0.50993 0.0
C365 C 0.62393 0.63916 0.52014 0.0
C366 C 0.3968 0.65073 0.51108 0.0
C367 C 0.35363 0.63979 0.52358 0.0
C368 C 0.53025 0.63957 0.52131 0.0
C369 C 0.40175 0.6289 0.53489 0.0
C370 C 0.66985 0.62814 0.53227 0.0
C371 C 0.75211 0.64977 0.50553 0.0
N372 N 0.48722 0.62907 0.53346 0.0
N373 N 0.6667 0.6496 0.50715 0.0
H374 H 0.69465 0.36491 0.53425 0.0
H375 H 0.26434 0.40419 0.49054 0.0
H376 H 0.68405 0.40286 0.47977 0.0
H377 H 0.27506 0.36509 0.53377 0.0
H378 H 0.41777 0.40414 0.48824 0.0
H379 H 0.54143 0.36506 0.53583 0.0
C380 C 0.66021 0.37328 0.52249 0.0
C381 C 0.70274 0.38388 0.5067 0.0
C382 C 0.38655 0.39557 0.49821 0.0
C383 C 0.52626 0.38413 0.50872 0.0
C384 C 0.29876 0.39559 0.49962 0.0
C385 C 0.25623 0.38462 0.5124 0.0
C386 C 0.43262 0.38452 0.50976 0.0
C387 C 0.30471 0.37378 0.52371 0.0
C388 C 0.57246 0.37335 0.52343 0.0
C389 C 0.6542 0.39444 0.49199 0.0
N390 N 0.39005 0.37401 0.52216 0.0
N391 N 0.56872 0.39431 0.49347 0.0
H392 H 0.86132 0.86491 0.00125 0.0
H393 H 0.29331 0.90439 0.03982 0.0
H394 H 0.87266 0.90425 0.04286 0.0
H395 H 0.27978 0.86512 0.99741 0.0
H396 H 0.13989 0.90452 0.04172 0.0
H397 H 1.01458 0.86483 0.00043 0.0
C398 C 0.8959 0.87354 0.01037 0.0
C399 C 0.85359 0.8846 0.02227 0.0
C400 C 0.17049 0.89588 0.03203 0.0
C401 C 1.03006 0.88457 0.02121 0.0
C402 C 0.25826 0.89578 0.03094 0.0
C403 C 0.29991 0.88472 0.01843 0.0
C404 C 0.12365 0.88483 0.02058 0.0
C405 C 0.25073 0.87388 0.00723 0.0
C406 C 0.98367 0.87348 0.00983 0.0
C407 C 0.90231 0.89549 0.03361 0.0
N408 N 0.16542 0.87421 0.00858 0.0
N409 N 0.98781 0.89519 0.03276 0.0
H410 H 0.19752 0.15955 0.03658 0.0
H411 H 0.76647 0.11988 0.99548 0.0
H412 H 0.18548 0.12163 0.98069 0.0
H413 H 0.77876 0.15902 0.03946 0.0
H414 H 0.91967 0.12004 0.99187 0.0
H415 H 0.04458 0.15925 0.03938 0.0
C416 C 0.16279 0.15115 0.02472 0.0
C417 C 0.20484 0.14061 0.00819 0.0
C418 C 0.88884 0.12859 0.00233 0.0
C419 C 1.02867 0.14018 0.01169 0.0
C420 C 0.80121 0.1285 0.00454 0.0
C421 C 0.7592 0.13945 0.01791 0.0
C422 C 0.93523 0.13969 0.01366 0.0
C423 C 0.80802 0.15034 0.02905 0.0
C424 C 0.0752 0.151 0.02636 0.0
C425 C 0.15597 0.13002 0.99341 0.0
N426 N 0.89316 0.15017 0.0267 0.0
N427 N 0.07064 0.13006 0.99564 0.0
H428 H 0.28162 0.159 0.49519 0.0
H429 H 0.87185 0.1188 0.54877 0.0
H430 H 0.29275 0.12075 0.54708 0.0
H431 H 0.86284 0.15728 0.49901 0.0
H432 H 1.02586 0.11928 0.5485 0.0
H433 H 0.12809 0.1585 0.49651 0.0
C434 C 0.25196 0.1505 0.5069 0.0
C435 C 0.30059 0.13991 0.52107 0.0
C436 C 0.9901 0.12762 0.5377 0.0
C437 C 0.12413 0.13926 0.52257 0.0
C438 C 0.90203 0.12735 0.53786 0.0
C439 C 0.85384 0.13801 0.52395 0.0
C440 C 1.03058 0.13862 0.52349 0.0
C441 C 0.89692 0.14882 0.51008 0.0
C442 C 0.1641 0.15022 0.50765 0.0
C443 C 0.25817 0.12916 0.5359 0.0
N444 N 0.9825 0.14883 0.5102 0.0
N445 N 0.1726 0.12911 0.53621 0.0
H446 H 0.77715 0.86651 0.551 0.0
H447 H 0.18483 0.90234 0.47064 0.0
H448 H 0.76595 0.90253 0.48205 0.0
H449 H 0.19433 0.86587 0.5366 0.0
H450 H 0.03173 0.90262 0.47459 0.0
H451 H 0.92999 0.86622 0.54654 0.0
C452 C 0.80674 0.8744 0.5351 0.0
C453 C 0.7583 0.88459 0.51703 0.0
C454 C 0.06725 0.89454 0.48805 0.0
C455 C 0.93396 0.88428 0.51161 0.0
C456 C 0.15482 0.89435 0.48569 0.0
C457 C 0.20289 0.88403 0.50309 0.0
C458 C 1.02704 0.88435 0.50805 0.0
C459 C 0.16014 0.87401 0.52254 0.0
C460 C 0.89419 0.87421 0.53247 0.0
C461 C 0.80051 0.89449 0.49659 0.0
N462 N 0.07493 0.87443 0.52451 0.0
N463 N 0.88571 0.89409 0.49445 0.0
H464 H 0.94565 0.54259 0.95066 0.0
H465 H 0.14773 0.48181 0.07808 0.0
H466 H 0.11094 0.5454 0.07282 0.0
H467 H 0.94432 0.47988 0.9726 0.0
H468 H 0.14047 0.50497 0.07527 0.0
H469 H 0.95208 0.51952 0.95578 0.0
C470 C 0.98389 0.53837 0.97844 0.0
C471 C 1.02834 0.546 0.01119 0.0
C472 C 0.09747 0.49945 0.0528 0.0
C473 C 0.03505 0.51944 0.01759 0.0
C474 C 0.10108 0.48618 0.05455 0.0
C475 C 0.04675 0.47873 0.02543 0.0
C476 C 0.03966 0.50538 0.02144 0.0
C477 C 0.98887 0.4851 0.99514 0.0
C478 C 0.98694 0.52516 0.98154 0.0
C479 C 0.07527 0.53992 0.04694 0.0
N480 N 0.98719 0.498 0.99384 0.0
N481 N 0.07768 0.527 0.04909 0.0
H482 H 0.1518 0.47969 0.48661 0.0
H483 H 0.92236 0.5435 0.55743 0.0
H484 H 0.90924 0.48037 0.54216 0.0
H485 H 0.16572 0.54295 0.50274 0.0
H486 H 0.91687 0.52039 0.5521 0.0
H487 H 0.15757 0.50281 0.49167 0.0
C488 C 0.09958 0.48466 0.4998 0.0
C489 C 1.02986 0.47797 0.51395 0.0
C490 C 0.97141 0.52532 0.54115 0.0
C491 C 0.03673 0.50458 0.52033 0.0
C492 C 0.97488 0.53855 0.54442 0.0
C493 C 0.04479 0.54528 0.53067 0.0
C494 C 0.03819 0.51868 0.52389 0.0
C495 C 0.10998 0.53826 0.51324 0.0
C496 C 0.1032 0.4979 0.50288 0.0
C497 C 0.96493 0.48503 0.53145 0.0
N498 N 0.10513 0.52537 0.51043 0.0
N499 N 0.96994 0.49791 0.53407 0.0
H500 H 0.42087 0.9804 0.98375 0.0
H501 H 0.62639 0.04685 0.06612 0.0
H502 H 0.6554 0.98299 0.06765 0.0
H503 H 0.42677 0.04292 0.95959 0.0
H504 H 0.63121 0.02362 0.07307 0.0
H505 H 0.41612 1.00345 0.98 0.0
C506 C 0.47177 0.98577 0.00125 0.0
C507 C 0.53915 0.97962 0.0257 0.0
C508 C 0.58652 0.02787 0.04816 0.0
C509 C 0.53281 1.00624 0.02232 0.0
C510 C 0.58342 0.04112 0.04434 0.0
C511 C 0.52652 0.04685 0.012 0.0
C512 C 0.53162 0.02033 0.01981 0.0
C513 C 0.47263 0.03894 0.9845 0.0
C514 C 0.46865 0.99899 -0.00071 0.0
C515 C 0.60173 0.98724 0.04872 0.0
N516 N 0.47645 0.02612 0.98908 0.0
N517 N 0.59708 1.00014 0.04643 0.0
H518 H 0.67823 0.04267 0.50169 0.0
H519 H 0.39922 0.97992 0.52731 0.0
H520 H 0.42222 0.04292 0.54012 0.0
H521 H 0.65606 0.97915 0.49005 0.0
H522 H 0.40702 1.00302 0.53183 0.0
H523 H 0.67083 0.01948 0.49543 0.0
C524 C 0.6203 0.03788 0.50855 0.0
C525 C 0.55099 0.04481 0.52176 0.0
C526 C 0.46175 0.99781 0.52267 0.0
C527 C 0.54238 0.01821 0.51508 0.0
C528 C 0.45763 0.98456 0.52045 0.0
C529 C 0.52727 0.97747 0.50852 0.0
C530 C 0.53601 1.00411 0.51282 0.0
C531 C 0.60041 0.98416 0.49896 0.0
C532 C 0.61631 0.02462 0.50524 0.0
C533 C 0.47789 0.03802 0.53065 0.0
N534 N 0.60285 0.99707 0.50135 0.0
N535 N 0.47562 0.02515 0.52722 0.0
H536 H 0.33014 0.29689 0.97465 0.0
H537 H 0.23354 0.22688 0.06237 0.0
H538 H 0.10815 0.2872 0.04182 0.0
H539 H 0.45459 0.23652 0.99432 0.0
H540 H 0.18715 0.24892 0.05549 0.0
H541 H 0.37631 0.27485 0.98132 0.0
C542 C 0.29079 0.29015 0.99067 0.0
C543 C 0.21481 0.294 0.00759 0.0
C544 C 0.24573 0.24621 0.04197 0.0
C545 C 0.26829 0.26863 0.01586 0.0
C546 C 0.27263 0.23361 0.0461 0.0
C547 C 0.34842 0.22975 0.02902 0.0
C548 C 0.29473 0.25511 0.02054 0.0
C549 C 0.39525 0.23894 0.00753 0.0
C550 C 0.31756 0.27754 0.99469 0.0
C551 C 0.16765 0.28479 0.02878 0.0
N552 N 0.36776 0.25116 0.00399 0.0
N553 N 0.19507 0.27257 0.03223 0.0
H554 H 0.82596 0.79737 0.97385 0.0
H555 H 0.7288 0.72695 0.05732 0.0
H556 H 0.60421 0.78735 0.0407 0.0
H557 H 0.95071 0.73696 0.99059 0.0
H558 H 0.68251 0.74901 0.05167 0.0
H559 H 0.87203 0.7753 0.9792 0.0
C560 C 0.78665 0.79055 0.98953 0.0
C561 C 0.7108 0.79432 0.00677 0.0
C562 C 0.74125 0.74638 0.03817 0.0
C563 C 0.76412 0.76892 0.01352 0.0
C564 C 0.76809 0.73377 0.0416 0.0
C565 C 0.8441 0.73 0.02452 0.0
C566 C 0.79051 0.75538 0.01743 0.0
C567 C 0.89119 0.7393 0.00374 0.0
C568 C 0.81336 0.77793 0.99279 0.0
C569 C 0.66365 0.785 0.02746 0.0
N570 N 0.86373 0.75153 0.00087 0.0
N571 N 0.69099 0.77277 0.03018 0.0
H572 H 0.14932 0.73604 0.43614 0.0
H573 H 0.38515 0.7896 0.59168 0.0
H574 H 0.25544 0.72923 0.57211 0.0
H575 H 0.27126 0.79646 0.45722 0.0
H576 H 0.33758 0.76757 0.58548 0.0
H577 H 0.19503 0.75811 0.44325 0.0
C578 C 0.18276 0.73913 0.46745 0.0
C579 C 0.19888 0.73064 0.50347 0.0
C580 C 0.32294 0.7739 0.55735 0.0
C581 C 0.25033 0.75614 0.51209 0.0
C582 C 0.34952 0.78655 0.56095 0.0
C583 C 0.33212 0.79503 0.52497 0.0
C584 C 0.27875 0.76959 0.5174 0.0
C585 C 0.2873 0.79032 0.48568 0.0
C586 C 0.20831 0.75181 0.47158 0.0
C587 C 0.24078 0.73539 0.54353 0.0
N588 N 0.26232 0.77795 0.48298 0.0
N589 N 0.26513 0.74779 0.54671 0.0
H590 H 0.81846 0.29434 0.45249 0.0
H591 H 0.74234 0.22882 0.57986 0.0
H592 H 0.86941 0.28927 0.59606 0.0
H593 H 0.6928 0.23385 0.4362 0.0
H594 H 0.78758 0.25098 0.58654 0.0
H595 H 0.77302 0.27219 0.44588 0.0
C596 C 0.82053 0.2886 0.48266 0.0
C597 C 0.84795 0.2938 0.52495 0.0
C598 C 0.76698 0.24722 0.55353 0.0
C599 C 0.79456 0.26834 0.51758 0.0
C600 C 0.74055 0.23455 0.54969 0.0
C601 C 0.71364 0.22934 0.50735 0.0
C602 C 0.76672 0.25481 0.5148 0.0
C603 C 0.71424 0.2373 0.46949 0.0
C604 C 0.79397 0.27594 0.47885 0.0
C605 C 0.8476 0.28584 0.56281 0.0
N606 N 0.74027 0.24959 0.47412 0.0
N607 N 0.82143 0.27355 0.55821 0.0
H608 H 0.99666 0.35862 0.15104 0.0
H609 H 1.0266 0.3962 0.38522 0.0
H610 H 0.1048 0.39625 0.16057 0.0
H611 H 0.89709 0.36069 0.35685 0.0
H612 H 0.05043 0.39797 0.30429 0.0
H613 H 0.95569 0.36057 0.22672 0.0
C614 C 1.01231 0.36735 0.16931 0.0
C615 C 0.05535 0.37721 0.14952 0.0
C616 C 1.0156 0.38993 0.31584 0.0
C617 C 1.00829 0.37956 0.23794 0.0
C618 C 1.00152 0.38896 0.36184 0.0
C619 C 0.96013 0.37823 0.3776 0.0
C620 C 0.98766 0.38012 0.28594 0.0
C621 C 0.92977 0.36906 0.34624 0.0
C622 C 0.9883 0.3685 0.21281 0.0
C623 C 0.07208 0.38839 0.17478 0.0
N624 N 0.94453 0.37019 0.30229 0.0
N625 N 0.04943 0.38922 0.21816 0.0
H626 H 0.12655 0.6394 0.14804 0.0
H627 H 0.95302 0.64783 0.38998 0.0
H628 H 0.85999 0.63645 0.16339 0.0
H629 H 0.15573 0.62197 0.36885 0.0
H630 H 0.93362 0.65133 0.30763 0.0
H631 H 0.15327 0.64066 0.23069 0.0
C632 C 0.07362 0.63934 0.16876 0.0
C633 C 0.99094 0.63779 0.14908 0.0
C634 C 0.98328 0.64509 0.32136 0.0
C635 C 1.02089 0.63951 0.24298 0.0
C636 C 0.99472 0.64317 0.36812 0.0
C637 C 0.05609 0.63461 0.38594 0.0
C638 C 0.0355 0.63872 0.29276 0.0
C639 C 0.10773 0.62863 0.35627 0.0
C640 C 0.08892 0.63999 0.21575 0.0
C641 C 0.92461 0.6376 0.17742 0.0
N642 N 0.09663 0.63084 0.31117 0.0
N643 N 0.9409 0.63848 0.22299 0.0
H644 H 0.09091 0.65978 0.88764 0.0
H645 H 1.00438 0.62805 0.64262 0.0
H646 H 0.90607 0.63 0.86356 0.0
H647 H 0.1617 0.66067 0.67614 0.0
H648 H 0.98043 0.62582 0.72345 0.0
H649 H 0.13151 0.65728 0.81151 0.0
C650 C 0.05884 0.65265 0.86611 0.0
C651 C 0.99426 0.64522 0.88175 0.0
C652 C 1.02126 0.63331 0.71303 0.0
C653 C 0.03971 0.64239 0.7931 0.0
C654 C 0.03556 0.63451 0.66708 0.0
C655 C 0.0853 0.64456 0.65282 0.0
C656 C 0.05787 0.64215 0.74455 0.0
C657 C 0.12291 0.6528 0.6856 0.0
C658 C 0.08209 0.65121 0.82242 0.0
C659 C 0.956 0.63596 0.85259 0.0
N660 N 0.10825 0.65144 0.72955 0.0
N661 N 0.97846 0.63491 0.80923 0.0
H662 H 0.86846 0.39308 0.66188 0.0
H663 H 0.20804 0.39055 0.86769 0.0
H664 H 0.12129 0.38064 0.64289 0.0
H665 H 0.94959 0.38002 0.88278 0.0
H666 H 0.17994 0.3888 0.78545 0.0
H667 H 0.89729 0.39023 0.74344 0.0
C668 C 0.92977 0.38962 0.67495 0.0
C669 C 0.99256 0.38708 0.6458 0.0
C670 C 0.12982 0.38671 0.80686 0.0
C671 C 1.02664 0.38412 0.73886 0.0
C672 C 0.14571 0.38773 0.85365 0.0
C673 C 0.08103 0.38543 0.88192 0.0
C674 C 0.04808 0.38372 0.78829 0.0
C675 C 1.00128 0.38183 0.86213 0.0
C676 C 0.94609 0.38798 0.72137 0.0
C677 C 0.07107 0.38264 0.66432 0.0
N678 N 0.9866 0.3813 0.81647 0.0
N679 N 0.0865 0.38152 0.70985 0.0
H680 H 0.67428 0.86535 0.17274 0.0
H681 H 0.40036 0.89099 0.36486 0.0
H682 H 0.49266 0.89509 0.14319 0.0
H683 H 0.6388 0.87164 0.38791 0.0
H684 H 0.42754 0.89334 0.28447 0.0
H685 H 0.65796 0.86798 0.25261 0.0
C686 C 0.63187 0.87261 0.18335 0.0
C687 C 0.58539 0.88007 0.1516 0.0
C688 C 0.47406 0.88874 0.30751 0.0
C689 C 0.56378 0.88294 0.24338 0.0
C690 C 0.45857 0.88741 0.35321 0.0
C691 C 0.51667 0.88089 0.3828 0.0
C692 C 0.54786 0.8835 0.29193 0.0
C693 C 0.59131 0.87649 0.36618 0.0
C694 C 0.62223 0.87412 0.22902 0.0
C695 C 0.53048 0.88927 0.16698 0.0
N696 N 0.60419 0.87776 0.32209 0.0
N697 N 0.51999 0.89033 0.21197 0.0
H698 H 0.36455 0.13138 0.16347 0.0
H699 H 0.69793 0.12949 0.37188 0.0
H700 H 0.62292 0.14189 0.14827 0.0
H701 H 0.44595 0.14303 0.38674 0.0
H702 H 0.67263 0.13184 0.28978 0.0
H703 H 0.39192 0.13347 0.24556 0.0
C704 C 0.42682 0.13424 0.17749 0.0
C705 C 0.49155 0.13648 0.14923 0.0
C706 C 0.62336 0.13445 0.31111 0.0
C707 C 0.5238 0.13854 0.24284 0.0
C708 C 0.63764 0.13308 0.35783 0.0
C709 C 0.57395 0.13607 0.386 0.0
C710 C 0.54398 0.13847 0.29242 0.0
C711 C 0.49684 0.14067 0.36617 0.0
C712 C 0.44229 0.13546 0.2242 0.0
C713 C 0.57121 0.14014 0.16898 0.0
N714 N 0.48341 0.14151 0.32049 0.0
N715 N 0.58561 0.14084 0.2147 0.0
H716 H 0.53598 0.16707 0.87684 0.0
H717 H 0.51666 0.12749 0.64753 0.0
H718 H 0.45119 0.1281 0.87492 0.0
H719 H 0.65033 0.16274 0.67408 0.0
H720 H 0.4915 0.12628 0.72849 0.0
H721 H 0.57464 0.16478 0.80077 0.0
C722 C 0.52467 0.15799 0.86016 0.0
C723 C 0.48927 0.14782 0.88228 0.0
C724 C 0.52752 0.13413 0.71652 0.0
C725 C 0.5341 0.14505 0.79353 0.0
C726 C 0.54229 0.13479 0.6705 0.0
C727 C 0.5851 0.1453 0.65417 0.0
C728 C 0.55592 0.14407 0.7458 0.0
C729 C 0.61631 0.15455 0.68507 0.0
C730 C 0.54756 0.15664 0.81647 0.0
C731 C 0.47786 0.13621 0.85888 0.0
N732 N 0.60063 0.15375 0.72898 0.0
N733 N 0.49943 0.13516 0.81536 0.0
H734 H 0.36959 0.8956 0.66099 0.0
H735 H 0.70409 0.88975 0.86878 0.0
H736 H 0.61791 0.88082 0.64432 0.0
H737 H 0.44106 0.882 0.88269 0.0
H738 H 0.67635 0.88845 0.78652 0.0
H739 H 0.39543 0.89281 0.74283 0.0
C740 C 0.42934 0.89172 0.67461 0.0
C741 C 0.49182 0.88848 0.64604 0.0
C742 C 0.62502 0.88686 0.80764 0.0
C743 C 0.5222 0.88547 0.73926 0.0
C744 C 0.64077 0.88761 0.85443 0.0
C745 C 0.57482 0.88594 0.88235 0.0
C746 C 0.54226 0.88482 0.7887 0.0
C747 C 0.49373 0.88325 0.86224 0.0
C748 C 0.44385 0.89008 0.72116 0.0
C749 C 0.56809 0.88343 0.66527 0.0
N750 N 0.47935 0.883 0.81652 0.0
N751 N 0.58173 0.88227 0.7108 0.0
loop_
_geom_bond_atom_site_label_1
_geom_bond_atom_site_label_2
_geom_bond_distance
_geom_bond_site_symmetry_2
_ccdc_geom_bond_type
Pr0 C2 2.880 . S
Pr0 O20 2.562 1_554 S
Pr0 O21 2.490 . S
Pr0 O22 2.695 . S
Pr0 O23 2.512 . S
Pr0 O25 2.437 . S
Pr0 O28 2.436 1_554 S
Pr0 O30 2.438 1_455 S
Pr1 C11 2.880 1_455 S
Pr1 O22 2.436 . S
Pr1 O24 2.438 . S
Pr1 O26 2.562 . S
Pr1 O27 2.490 1_554 S
Pr1 O28 2.695 1_554 S
Pr1 O29 2.512 1_554 S
Pr1 O31 2.437 1_454 S
C2 Pr0 2.880 . S
C2 C3 1.491 . S
C2 O20 1.254 1_554 S
C2 O21 1.225 . S
C3 C2 1.491 . S
C3 C4 1.392 . S
C3 C8 1.356 1_554 S
C4 C3 1.392 . S
C4 C5 1.368 . S
C4 H32 0.929 . S
C5 C4 1.368 . S
C5 C6 1.386 . S
C5 H33 0.929 . S
C6 C5 1.386 . S
C6 C7 1.373 1_554 S
C7 C6 1.373 1_556 S
C7 C8 1.409 . S
C7 H34 0.931 . S
C8 C3 1.356 1_556 S
C8 C7 1.409 . S
C8 H35 0.930 . S
C9 O22 1.270 . S
C9 O23 1.248 . S
C10 O24 1.267 . S
C10 O25 1.278 . S
C11 Pr1 2.880 1_655 S
C11 C12 1.491 . S
C11 O26 1.254 1_655 S
C11 O27 1.225 1_654 S
C12 C11 1.491 . S
C12 C13 1.392 1_554 S
C12 C17 1.356 . S
C13 C12 1.392 1_556 S
C13 C14 1.368 . S
C13 H36 0.929 . S
C14 C13 1.368 . S
C14 C15 1.386 1_556 S
C14 H37 0.929 . S
C15 C14 1.386 1_554 S
C15 C16 1.373 . S
C16 C15 1.373 . S
C16 C17 1.409 . S
C16 H38 0.931 . S
C17 C12 1.356 . S
C17 C16 1.409 . S
C17 H39 0.930 . S
C18 O28 1.270 . S
C18 O29 1.248 . S
C19 O30 1.267 . S
C19 O31 1.278 1_554 S
O20 Pr0 2.562 1_556 S
O20 C2 1.254 1_556 S
O21 Pr0 2.490 . S
O21 C2 1.225 . S
O22 Pr0 2.695 . S
O22 Pr1 2.436 . S
O22 C9 1.270 . S
O23 Pr0 2.512 . S
O23 C9 1.248 . S
O24 Pr1 2.438 . S
O24 C10 1.267 . S
O25 Pr0 2.437 . S
O25 C10 1.278 . S
O26 Pr1 2.562 . S
O26 C11 1.254 1_455 S
O27 Pr1 2.490 1_556 S
O27 C11 1.225 1_456 S
O28 Pr0 2.436 1_556 S
O28 Pr1 2.695 1_556 S
O28 C18 1.270 . S
O29 Pr1 2.512 1_556 S
O29 C18 1.248 . S
O30 Pr0 2.438 1_655 S
O30 C19 1.267 . S
O31 Pr1 2.437 1_656 S
O31 C19 1.278 1_556 S
H32 C4 0.929 . S
H33 C5 0.929 . S
H34 C7 0.931 . S
H35 C8 0.930 . S
H36 C13 0.929 . S
H37 C14 0.929 . S
H38 C16 0.931 . S
H39 C17 0.930 . S
Pr40 C42 2.880 1_655 S
Pr40 O60 2.562 1_554 S
Pr40 O61 2.490 . S
Pr40 O62 2.695 . S
Pr40 O63 2.512 . S
Pr40 O65 2.437 1_655 S
Pr40 O68 2.436 1_554 S
Pr40 O70 2.438 . S
Pr41 C51 2.880 . S
Pr41 O62 2.436 . S
Pr41 O64 2.438 1_655 S
Pr41 O66 2.562 . S
Pr41 O67 2.490 1_554 S
Pr41 O68 2.695 1_554 S
Pr41 O69 2.512 1_554 S
Pr41 O71 2.437 1_554 S
C42 Pr40 2.880 1_455 S
C42 C43 1.491 . S
C42 O60 1.254 1_454 S
C42 O61 1.225 1_455 S
C43 C42 1.491 . S
C43 C44 1.392 . S
C43 C48 1.356 1_554 S
C44 C43 1.392 . S
C44 C45 1.368 . S
C44 H72 0.929 . S
C45 C44 1.368 . S
C45 C46 1.386 . S
C45 H73 0.929 . S
C46 C45 1.386 . S
C46 C47 1.373 1_554 S
C47 C46 1.373 1_556 S
C47 C48 1.409 . S
C47 H74 0.931 . S
C48 C43 1.356 1_556 S
C48 C47 1.409 . S
C48 H75 0.930 . S
C49 O62 1.270 . S
C49 O63 1.248 . S
C50 O64 1.267 . S
C50 O65 1.278 . S
C51 Pr41 2.880 . S
C51 C52 1.491 . S
C51 O66 1.254 . S
C51 O67 1.225 1_554 S
C52 C51 1.491 . S
C52 C53 1.392 1_554 S
C52 C57 1.356 . S
C53 C52 1.392 1_556 S
C53 C54 1.368 . S
C53 H76 0.929 . S
C54 C53 1.368 . S
C54 C55 1.386 1_556 S
C54 H77 0.929 . S
C55 C54 1.386 1_554 S
C55 C56 1.373 . S
C56 C55 1.373 . S
C56 C57 1.409 . S
C56 H78 0.931 . S
C57 C52 1.356 . S
C57 C56 1.409 . S
C57 H79 0.930 . S
C58 O68 1.270 . S
C58 O69 1.248 . S
C59 O70 1.267 . S
C59 O71 1.278 1_554 S
O60 Pr40 2.562 1_556 S
O60 C42 1.254 1_656 S
O61 Pr40 2.490 . S
O61 C42 1.225 1_655 S
O62 Pr40 2.695 . S
O62 Pr41 2.436 . S
O62 C49 1.270 . S
O63 Pr40 2.512 . S
O63 C49 1.248 . S
O64 Pr41 2.438 1_455 S
O64 C50 1.267 . S
O65 Pr40 2.437 1_455 S
O65 C50 1.278 . S
O66 Pr41 2.562 . S
O66 C51 1.254 . S
O67 Pr41 2.490 1_556 S
O67 C51 1.225 1_556 S
O68 Pr40 2.436 1_556 S
O68 Pr41 2.695 1_556 S
O68 C58 1.270 . S
O69 Pr41 2.512 1_556 S
O69 C58 1.248 . S
O70 Pr40 2.438 . S
O70 C59 1.267 . S
O71 Pr41 2.437 1_556 S
O71 C59 1.278 1_556 S
H72 C44 0.929 . S
H73 C45 0.929 . S
H74 C47 0.931 . S
H75 C48 0.930 . S
H76 C53 0.929 . S
H77 C54 0.929 . S
H78 C56 0.931 . S
H79 C57 0.930 . S
Pr80 C82 2.880 1_455 S
Pr80 O100 2.562 . S
Pr80 O101 2.490 . S
Pr80 O102 2.695 . S
Pr80 O103 2.512 . S
Pr80 O105 2.437 1_455 S
Pr80 O108 2.436 . S
Pr80 O110 2.438 . S
Pr81 C91 2.880 . S
Pr81 O102 2.436 . S
Pr81 O104 2.438 1_455 S
Pr81 O106 2.562 . S
Pr81 O107 2.490 . S
Pr81 O108 2.695 . S
Pr81 O109 2.512 . S
Pr81 O111 2.437 . S
C82 Pr80 2.880 1_655 S
C82 C83 1.491 . S
C82 O100 1.254 1_655 S
C82 O101 1.225 1_655 S
C83 C82 1.491 . S
C83 C84 1.392 . S
C83 C88 1.356 . S
C84 C83 1.392 . S
C84 C85 1.368 . S
C84 H112 0.929 . S
C85 C84 1.368 . S
C85 C86 1.386 . S
C85 H113 0.929 . S
C86 C85 1.386 . S
C86 C87 1.373 . S
C87 C86 1.373 . S
C87 C88 1.409 . S
C87 H114 0.931 . S
C88 C83 1.356 . S
C88 C87 1.409 . S
C88 H115 0.930 . S
C89 O102 1.270 . S
C89 O103 1.248 . S
C90 O104 1.267 . S
C90 O105 1.278 . S
C91 Pr81 2.880 . S
C91 C92 1.491 . S
C91 O106 1.254 . S
C91 O107 1.225 . S
C92 C91 1.491 . S
C92 C93 1.392 . S
C92 C97 1.356 . S
C93 C92 1.392 . S
C93 C94 1.368 . S
C93 H116 0.929 . S
C94 C93 1.368 . S
C94 C95 1.386 . S
C94 H117 0.929 . S
C95 C94 1.386 . S
C95 C96 1.373 . S
C96 C95 1.373 . S
C96 C97 1.409 . S
C96 H118 0.931 . S
C97 C92 1.356 . S
C97 C96 1.409 . S
C97 H119 0.930 . S
C98 O108 1.270 . S
C98 O109 1.248 . S
C99 O110 1.267 . S
C99 O111 1.278 . S
O100 Pr80 2.562 . S
O100 C82 1.254 1_455 S
O101 Pr80 2.490 . S
O101 C82 1.225 1_455 S
O102 Pr80 2.695 . S
O102 Pr81 2.436 . S
O102 C89 1.270 . S
O103 Pr80 2.512 . S
O103 C89 1.248 . S
O104 Pr81 2.438 1_655 S
O104 C90 1.267 . S
O105 Pr80 2.437 1_655 S
O105 C90 1.278 . S
O106 Pr81 2.562 . S
O106 C91 1.254 . S
O107 Pr81 2.490 . S
O107 C91 1.225 . S
O108 Pr80 2.436 . S
O108 Pr81 2.695 . S
O108 C98 1.270 . S
O109 Pr81 2.512 . S
O109 C98 1.248 . S
O110 Pr80 2.438 . S
O110 C99 1.267 . S
O111 Pr81 2.437 . S
O111 C99 1.278 . S
H112 C84 0.929 . S
H113 C85 0.929 . S
H114 C87 0.931 . S
H115 C88 0.930 . S
H116 C93 0.929 . S
H117 C94 0.929 . S
H118 C96 0.931 . S
H119 C97 0.930 . S
Pr120 C122 2.880 . S
Pr120 O140 2.562 . S
Pr120 O141 2.490 . S
Pr120 O142 2.695 . S
Pr120 O143 2.512 . S
Pr120 O145 2.437 . S
Pr120 O148 2.436 . S
Pr120 O150 2.438 1_655 S
Pr121 C131 2.880 1_655 S
Pr121 O142 2.436 . S
Pr121 O144 2.438 . S
Pr121 O146 2.562 . S
Pr121 O147 2.490 . S
Pr121 O148 2.695 . S
Pr121 O149 2.512 . S
Pr121 O151 2.437 1_655 S
C122 Pr120 2.880 . S
C122 C123 1.491 . S
C122 O140 1.254 . S
C122 O141 1.225 . S
C123 C122 1.491 . S
C123 C124 1.392 . S
C123 C128 1.356 . S
C124 C123 1.392 . S
C124 C125 1.368 . S
C124 H152 0.929 . S
C125 C124 1.368 . S
C125 C126 1.386 . S
C125 H153 0.929 . S
C126 C125 1.386 . S
C126 C127 1.373 . S
C127 C126 1.373 . S
C127 C128 1.409 . S
C127 H154 0.931 . S
C128 C123 1.356 . S
C128 C127 1.409 . S
C128 H155 0.930 . S
C129 O142 1.270 . S
C129 O143 1.248 . S
C130 O144 1.267 . S
C130 O145 1.278 . S
C131 Pr121 2.880 1_455 S
C131 C132 1.491 . S
C131 O146 1.254 1_455 S
C131 O147 1.225 1_455 S
C132 C131 1.491 . S
C132 C133 1.392 . S
C132 C137 1.356 . S
C133 C132 1.392 . S
C133 C134 1.368 . S
C133 H156 0.929 . S
C134 C133 1.368 . S
C134 C135 1.386 . S
C134 H157 0.929 . S
C135 C134 1.386 . S
C135 C136 1.373 . S
C136 C135 1.373 . S
C136 C137 1.409 . S
C136 H158 0.931 . S
C137 C132 1.356 . S
C137 C136 1.409 . S
C137 H159 0.930 . S
C138 O148 1.270 . S
C138 O149 1.248 . S
C139 O150 1.267 . S
C139 O151 1.278 . S
O140 Pr120 2.562 . S
O140 C122 1.254 . S
O141 Pr120 2.490 . S
O141 C122 1.225 . S
O142 Pr120 2.695 . S
O142 Pr121 2.436 . S
O142 C129 1.270 . S
O143 Pr120 2.512 . S
O143 C129 1.248 . S
O144 Pr121 2.438 . S
O144 C130 1.267 . S
O145 Pr120 2.437 . S
O145 C130 1.278 . S
O146 Pr121 2.562 . S
O146 C131 1.254 1_655 S
O147 Pr121 2.490 . S
O147 C131 1.225 1_655 S
O148 Pr120 2.436 . S
O148 Pr121 2.695 . S
O148 C138 1.270 . S
O149 Pr121 2.512 . S
O149 C138 1.248 . S
O150 Pr120 2.438 1_455 S
O150 C139 1.267 . S
O151 Pr121 2.437 1_455 S
O151 C139 1.278 . S
H152 C124 0.929 . S
H153 C125 0.929 . S
H154 C127 0.931 . S
H155 C128 0.930 . S
H156 C133 0.929 . S
H157 C134 0.929 . S
H158 C136 0.931 . S
H159 C137 0.930 . S
Pr160 C162 2.880 . S
Pr160 O180 2.562 1_554 S
Pr160 O181 2.490 . S
Pr160 O182 2.695 . S
Pr160 O183 2.512 . S
Pr160 O185 2.437 . S
Pr160 O188 2.436 1_554 S
Pr160 O190 2.438 . S
Pr161 C171 2.880 . S
Pr161 O182 2.436 . S
Pr161 O184 2.438 . S
Pr161 O186 2.562 . S
Pr161 O187 2.490 1_554 S
Pr161 O188 2.695 1_554 S
Pr161 O189 2.512 1_554 S
Pr161 O191 2.437 1_554 S
C162 Pr160 2.880 . S
C162 C163 1.491 . S
C162 O180 1.254 1_554 S
C162 O181 1.225 . S
C163 C162 1.491 . S
C163 C164 1.392 . S
C163 C168 1.356 1_554 S
C164 C163 1.392 . S
C164 C165 1.368 . S
C164 H192 0.929 . S
C165 C164 1.368 . S
C165 C166 1.386 . S
C165 H193 0.929 . S
C166 C165 1.386 . S
C166 C167 1.373 1_554 S
C167 C166 1.373 1_556 S
C167 C168 1.409 . S
C167 H194 0.931 . S
C168 C163 1.356 1_556 S
C168 C167 1.409 . S
C168 H195 0.930 . S
C169 O182 1.270 . S
C169 O183 1.248 . S
C170 O184 1.267 . S
C170 O185 1.278 . S
C171 Pr161 2.880 . S
C171 C172 1.491 . S
C171 O186 1.254 . S
C171 O187 1.225 1_554 S
C172 C171 1.491 . S
C172 C173 1.392 1_554 S
C172 C177 1.356 . S
C173 C172 1.392 1_556 S
C173 C174 1.368 . S
C173 H196 0.929 . S
C174 C173 1.368 . S
C174 C175 1.386 1_556 S
C174 H197 0.929 . S
C175 C174 1.386 1_554 S
C175 C176 1.373 . S
C176 C175 1.373 . S
C176 C177 1.409 . S
C176 H198 0.931 . S
C177 C172 1.356 . S
C177 C176 1.409 . S
C177 H199 0.930 . S
C178 O188 1.270 . S
C178 O189 1.248 . S
C179 O190 1.267 . S
C179 O191 1.278 1_554 S
O180 Pr160 2.562 1_556 S
O180 C162 1.254 1_556 S
O181 Pr160 2.490 . S
O181 C162 1.225 . S
O182 Pr160 2.695 . S
O182 Pr161 2.436 . S
O182 C169 1.270 . S
O183 Pr160 2.512 . S
O183 C169 1.248 . S
O184 Pr161 2.438 . S
O184 C170 1.267 . S
O185 Pr160 2.437 . S
O185 C170 1.278 . S
O186 Pr161 2.562 . S
O186 C171 1.254 . S
O187 Pr161 2.490 1_556 S
O187 C171 1.225 1_556 S
O188 Pr160 2.436 1_556 S
O188 Pr161 2.695 1_556 S
O188 C178 1.270 . S
O189 Pr161 2.512 1_556 S
O189 C178 1.248 . S
O190 Pr160 2.438 . S
O190 C179 1.267 . S
O191 Pr161 2.437 1_556 S
O191 C179 1.278 1_556 S
H192 C164 0.929 . S
H193 C165 0.929 . S
H194 C167 0.931 . S
H195 C168 0.930 . S
H196 C173 0.929 . S
H197 C174 0.929 . S
H198 C176 0.931 . S
H199 C177 0.930 . S
Pr200 C202 2.880 . S
Pr200 O220 2.562 1_554 S
Pr200 O221 2.490 . S
Pr200 O222 2.695 . S
Pr200 O223 2.512 . S
Pr200 O225 2.437 . S
Pr200 O228 2.436 1_554 S
Pr200 O230 2.438 . S
Pr201 C211 2.880 . S
Pr201 O222 2.436 . S
Pr201 O224 2.438 . S
Pr201 O226 2.562 . S
Pr201 O227 2.490 1_554 S
Pr201 O228 2.695 1_554 S
Pr201 O229 2.512 1_554 S
Pr201 O231 2.437 1_554 S
C202 Pr200 2.880 . S
C202 C203 1.491 . S
C202 O220 1.254 1_554 S
C202 O221 1.225 . S
C203 C202 1.491 . S
C203 C204 1.392 . S
C203 C208 1.356 1_554 S
C204 C203 1.392 . S
C204 C205 1.368 . S
C204 H232 0.929 . S
C205 C204 1.368 . S
C205 C206 1.386 . S
C205 H233 0.929 . S
C206 C205 1.386 . S
C206 C207 1.373 1_554 S
C207 C206 1.373 1_556 S
C207 C208 1.409 . S
C207 H234 0.931 . S
C208 C203 1.356 1_556 S
C208 C207 1.409 . S
C208 H235 0.930 . S
C209 O222 1.270 . S
C209 O223 1.248 . S
C210 O224 1.267 . S
C210 O225 1.278 . S
C211 Pr201 2.880 . S
C211 C212 1.491 . S
C211 O226 1.254 . S
C211 O227 1.225 1_554 S
C212 C211 1.491 . S
C212 C213 1.392 1_554 S
C212 C217 1.356 . S
C213 C212 1.392 1_556 S
C213 C214 1.368 . S
C213 H236 0.929 . S
C214 C213 1.368 . S
C214 C215 1.386 1_556 S
C214 H237 0.929 . S
C215 C214 1.386 1_554 S
C215 C216 1.373 . S
C216 C215 1.373 . S
C216 C217 1.409 . S
C216 H238 0.931 . S
C217 C212 1.356 . S
C217 C216 1.409 . S
C217 H239 0.930 . S
C218 O228 1.270 . S
C218 O229 1.248 . S
C219 O230 1.267 . S
C219 O231 1.278 1_554 S
O220 Pr200 2.562 1_556 S
O220 C202 1.254 1_556 S
O221 Pr200 2.490 . S
O221 C202 1.225 . S
O222 Pr200 2.695 . S
O222 Pr201 2.436 . S
O222 C209 1.270 . S
O223 Pr200 2.512 . S
O223 C209 1.248 . S
O224 Pr201 2.438 . S
O224 C210 1.267 . S
O225 Pr200 2.437 . S
O225 C210 1.278 . S
O226 Pr201 2.562 . S
O226 C211 1.254 . S
O227 Pr201 2.490 1_556 S
O227 C211 1.225 1_556 S
O228 Pr200 2.436 1_556 S
O228 Pr201 2.695 1_556 S
O228 C218 1.270 . S
O229 Pr201 2.512 1_556 S
O229 C218 1.248 . S
O230 Pr200 2.438 . S
O230 C219 1.267 . S
O231 Pr201 2.437 1_556 S
O231 C219 1.278 1_556 S
H232 C204 0.929 . S
H233 C205 0.929 . S
H234 C207 0.931 . S
H235 C208 0.930 . S
H236 C213 0.929 . S
H237 C214 0.929 . S
H238 C216 0.931 . S
H239 C217 0.930 . S
Pr240 C242 2.880 . S
Pr240 O260 2.562 . S
Pr240 O261 2.490 . S
Pr240 O262 2.695 . S
Pr240 O263 2.512 . S
Pr240 O265 2.437 . S
Pr240 O268 2.436 . S
Pr240 O270 2.438 . S
Pr241 C251 2.880 . S
Pr241 O262 2.436 . S
Pr241 O264 2.438 . S
Pr241 O266 2.562 . S
Pr241 O267 2.490 . S
Pr241 O268 2.695 . S
Pr241 O269 2.512 . S
Pr241 O271 2.437 . S
C242 Pr240 2.880 . S
C242 C243 1.491 . S
C242 O260 1.254 . S
C242 O261 1.225 . S
C243 C242 1.491 . S
C243 C244 1.392 . S
C243 C248 1.356 . S
C244 C243 1.392 . S
C244 C245 1.368 . S
C244 H272 0.929 . S
C245 C244 1.368 . S
C245 C246 1.386 . S
C245 H273 0.929 . S
C246 C245 1.386 . S
C246 C247 1.373 . S
C247 C246 1.373 . S
C247 C248 1.409 . S
C247 H274 0.931 . S
C248 C243 1.356 . S
C248 C247 1.409 . S
C248 H275 0.930 . S
C249 O262 1.270 . S
C249 O263 1.248 . S
C250 O264 1.267 . S
C250 O265 1.278 . S
C251 Pr241 2.880 . S
C251 C252 1.491 . S
C251 O266 1.254 . S
C251 O267 1.225 . S
C252 C251 1.491 . S
C252 C253 1.392 . S
C252 C257 1.356 . S
C253 C252 1.392 . S
C253 C254 1.368 . S
C253 H276 0.929 . S
C254 C253 1.368 . S
C254 C255 1.386 . S
C254 H277 0.929 . S
C255 C254 1.386 . S
C255 C256 1.373 . S
C256 C255 1.373 . S
C256 C257 1.409 . S
C256 H278 0.931 . S
C257 C252 1.356 . S
C257 C256 1.409 . S
C257 H279 0.930 . S
C258 O268 1.270 . S
C258 O269 1.248 . S
C259 O270 1.267 . S
C259 O271 1.278 . S
O260 Pr240 2.562 . S
O260 C242 1.254 . S
O261 Pr240 2.490 . S
O261 C242 1.225 . S
O262 Pr240 2.695 . S
O262 Pr241 2.436 . S
O262 C249 1.270 . S
O263 Pr240 2.512 . S
O263 C249 1.248 . S
O264 Pr241 2.438 . S
O264 C250 1.267 . S
O265 Pr240 2.437 . S
O265 C250 1.278 . S
O266 Pr241 2.562 . S
O266 C251 1.254 . S
O267 Pr241 2.490 . S
O267 C251 1.225 . S
O268 Pr240 2.436 . S
O268 Pr241 2.695 . S
O268 C258 1.270 . S
O269 Pr241 2.512 . S
O269 C258 1.248 . S
O270 Pr240 2.438 . S
O270 C259 1.267 . S
O271 Pr241 2.437 . S
O271 C259 1.278 . S
H272 C244 0.929 . S
H273 C245 0.929 . S
H274 C247 0.931 . S
H275 C248 0.930 . S
H276 C253 0.929 . S
H277 C254 0.929 . S
H278 C256 0.931 . S
H279 C257 0.930 . S
Pr280 C282 2.880 . S
Pr280 O300 2.562 . S
Pr280 O301 2.490 . S
Pr280 O302 2.695 . S
Pr280 O303 2.512 . S
Pr280 O305 2.437 . S
Pr280 O308 2.436 . S
Pr280 O310 2.438 . S
Pr281 C291 2.880 . S
Pr281 O302 2.436 . S
Pr281 O304 2.438 . S
Pr281 O306 2.562 . S
Pr281 O307 2.490 . S
Pr281 O308 2.695 . S
Pr281 O309 2.512 . S
Pr281 O311 2.437 . S
C282 Pr280 2.880 . S
C282 C283 1.491 . S
C282 O300 1.254 . S
C282 O301 1.225 . S
C283 C282 1.491 . S
C283 C284 1.392 . S
C283 C288 1.356 . S
C284 C283 1.392 . S
C284 C285 1.368 . S
C284 H312 0.929 . S
C285 C284 1.368 . S
C285 C286 1.386 . S
C285 H313 0.929 . S
C286 C285 1.386 . S
C286 C287 1.373 . S
C287 C286 1.373 . S
C287 C288 1.409 . S
C287 H314 0.931 . S
C288 C283 1.356 . S
C288 C287 1.409 . S
C288 H315 0.930 . S
C289 O302 1.270 . S
C289 O303 1.248 . S
C290 O304 1.267 . S
C290 O305 1.278 . S
C291 Pr281 2.880 . S
C291 C292 1.491 . S
C291 O306 1.254 . S
C291 O307 1.225 . S
C292 C291 1.491 . S
C292 C293 1.392 . S
C292 C297 1.356 . S
C293 C292 1.392 . S
C293 C294 1.368 . S
C293 H316 0.929 . S
C294 C293 1.368 . S
C294 C295 1.386 . S
C294 H317 0.929 . S
C295 C294 1.386 . S
C295 C296 1.373 . S
C296 C295 1.373 . S
C296 C297 1.409 . S
C296 H318 0.931 . S
C297 C292 1.356 . S
C297 C296 1.409 . S
C297 H319 0.930 . S
C298 O308 1.270 . S
C298 O309 1.248 . S
C299 O310 1.267 . S
C299 O311 1.278 . S
O300 Pr280 2.562 . S
O300 C282 1.254 . S
O301 Pr280 2.490 . S
O301 C282 1.225 . S
O302 Pr280 2.695 . S
O302 Pr281 2.436 . S
O302 C289 1.270 . S
O303 Pr280 2.512 . S
O303 C289 1.248 . S
O304 Pr281 2.438 . S
O304 C290 1.267 . S
O305 Pr280 2.437 . S
O305 C290 1.278 . S
O306 Pr281 2.562 . S
O306 C291 1.254 . S
O307 Pr281 2.490 . S
O307 C291 1.225 . S
O308 Pr280 2.436 . S
O308 Pr281 2.695 . S
O308 C298 1.270 . S
O309 Pr281 2.512 . S
O309 C298 1.248 . S
O310 Pr280 2.438 . S
O310 C299 1.267 . S
O311 Pr281 2.437 . S
O311 C299 1.278 . S
H312 C284 0.929 . S
H313 C285 0.929 . S
H314 C287 0.931 . S
H315 C288 0.930 . S
H316 C293 0.929 . S
H317 C294 0.929 . S
H318 C296 0.931 . S
H319 C297 0.930 . S
H320 C326 0.930 . S
H321 C330 0.930 . S
H322 C335 0.929 . S
H323 C333 0.929 . S
H324 C328 0.929 . S
H325 C334 0.929 . S
C326 H320 0.930 . S
C326 C327 1.367 . S
C326 C334 1.378 . S
C327 C326 1.367 . S
C327 C335 1.433 1_554 S
C328 H324 0.929 . S
C328 C330 1.378 . S
C328 C332 1.350 1_556 S
C329 C332 1.463 . S
C329 C334 1.350 . S
C329 N337 1.427 1_554 S
C330 H321 0.930 . S
C330 C328 1.378 . S
C330 C331 1.367 1_556 S
C331 C330 1.367 1_554 S
C331 C333 1.433 . S
C332 C328 1.350 1_554 S
C332 C329 1.463 . S
C332 N336 1.427 . S
C333 H323 0.929 . S
C333 C331 1.433 . S
C333 N336 1.384 . S
C334 H325 0.929 . S
C334 C326 1.378 . S
C334 C329 1.350 . S
C335 H322 0.929 . S
C335 C327 1.433 1_556 S
C335 N337 1.384 . S
N336 C332 1.427 . S
N336 C333 1.384 . S
N337 C329 1.427 1_556 S
N337 C335 1.384 . S
H338 C344 0.930 . S
H339 C348 0.930 1_556 S
H340 C353 0.929 1_556 S
H341 C351 0.929 . S
H342 C346 0.929 1_556 S
H343 C352 0.929 . S
C344 H338 0.930 . S
C344 C345 1.367 . S
C344 C352 1.378 . S
C345 C344 1.367 . S
C345 C353 1.433 . S
C346 H342 0.929 1_554 S
C346 C348 1.378 . S
C346 C350 1.350 . S
C347 C350 1.463 . S
C347 C352 1.350 . S
C347 N355 1.427 . S
C348 H339 0.930 1_554 S
C348 C346 1.378 . S
C348 C349 1.367 . S
C349 C348 1.367 . S
C349 C351 1.433 . S
C350 C346 1.350 . S
C350 C347 1.463 . S
C350 N354 1.427 . S
C351 H341 0.929 . S
C351 C349 1.433 . S
C351 N354 1.384 . S
C352 H343 0.929 . S
C352 C344 1.378 . S
C352 C347 1.350 . S
C353 H340 0.929 1_554 S
C353 C345 1.433 . S
C353 N355 1.384 . S
N354 C350 1.427 . S
N354 C351 1.384 . S
N355 C347 1.427 . S
N355 C353 1.384 . S
H356 C362 0.930 . S
H357 C366 0.930 . S
H358 C371 0.929 . S
H359 C369 0.929 . S
H360 C364 0.929 . S
H361 C370 0.929 . S
C362 H356 0.930 . S
C362 C363 1.367 . S
C362 C370 1.378 . S
C363 C362 1.367 . S
C363 C371 1.433 . S
C364 H360 0.929 . S
C364 C366 1.378 . S
C364 C368 1.350 . S
C365 C368 1.463 . S
C365 C370 1.350 . S
C365 N373 1.427 . S
C366 H357 0.930 . S
C366 C364 1.378 . S
C366 C367 1.367 . S
C367 C366 1.367 . S
C367 C369 1.433 . S
C368 C364 1.350 . S
C368 C365 1.463 . S
C368 N372 1.427 . S
C369 H359 0.929 . S
C369 C367 1.433 . S
C369 N372 1.384 . S
C370 H361 0.929 . S
C370 C362 1.378 . S
C370 C365 1.350 . S
C371 H358 0.929 . S
C371 C363 1.433 . S
C371 N373 1.384 . S
N372 C368 1.427 . S
N372 C369 1.384 . S
N373 C365 1.427 . S
N373 C371 1.384 . S
H374 C380 0.930 . S
H375 C384 0.930 . S
H376 C389 0.929 . S
H377 C387 0.929 . S
H378 C382 0.929 . S
H379 C388 0.929 . S
C380 H374 0.930 . S
C380 C381 1.367 . S
C380 C388 1.378 . S
C381 C380 1.367 . S
C381 C389 1.433 . S
C382 H378 0.929 . S
C382 C384 1.378 . S
C382 C386 1.350 . S
C383 C386 1.463 . S
C383 C388 1.350 . S
C383 N391 1.427 . S
C384 H375 0.930 . S
C384 C382 1.378 . S
C384 C385 1.367 . S
C385 C384 1.367 . S
C385 C387 1.433 . S
C386 C382 1.350 . S
C386 C383 1.463 . S
C386 N390 1.427 . S
C387 H377 0.929 . S
C387 C385 1.433 . S
C387 N390 1.384 . S
C388 H379 0.929 . S
C388 C380 1.378 . S
C388 C383 1.350 . S
C389 H376 0.929 . S
C389 C381 1.433 . S
C389 N391 1.384 . S
N390 C386 1.427 . S
N390 C387 1.384 . S
N391 C383 1.427 . S
N391 C389 1.384 . S
H392 C398 0.930 . S
H393 C402 0.930 . S
H394 C407 0.929 . S
H395 C405 0.929 . S
H396 C400 0.929 . S
H397 C406 0.929 1_455 S
C398 H392 0.930 . S
C398 C399 1.367 1_556 S
C398 C406 1.378 . S
C399 C398 1.367 1_554 S
C399 C407 1.433 . S
C400 H396 0.929 . S
C400 C402 1.378 . S
C400 C404 1.350 . S
C401 C404 1.463 . S
C401 C406 1.350 1_454 S
C401 N409 1.427 1_455 S
C402 H393 0.930 . S
C402 C400 1.378 . S
C402 C403 1.367 . S
C403 C402 1.367 . S
C403 C405 1.433 1_554 S
C404 C400 1.350 . S
C404 C401 1.463 . S
C404 N408 1.427 1_554 S
C405 H395 0.929 . S
C405 C403 1.433 1_556 S
C405 N408 1.384 . S
C406 H397 0.929 1_655 S
C406 C398 1.378 . S
C406 C401 1.350 1_656 S
C407 H394 0.929 . S
C407 C399 1.433 . S
C407 N409 1.384 . S
N408 C404 1.427 1_556 S
N408 C405 1.384 . S
N409 C401 1.427 1_655 S
N409 C407 1.384 . S
H410 C416 0.930 . S
H411 C420 0.930 . S
H412 C425 0.929 . S
H413 C423 0.929 . S
H414 C418 0.929 . S
H415 C424 0.929 1_655 S
C416 H410 0.930 . S
C416 C417 1.367 . S
C416 C424 1.378 . S
C417 C416 1.367 . S
C417 C425 1.433 . S
C418 H414 0.929 . S
C418 C420 1.378 . S
C418 C422 1.350 . S
C419 C422 1.463 . S
C419 C424 1.350 1_655 S
C419 N427 1.427 1_655 S
C420 H411 0.930 . S
C420 C418 1.378 . S
C420 C421 1.367 . S
C421 C420 1.367 . S
C421 C423 1.433 . S
C422 C418 1.350 . S
C422 C419 1.463 . S
C422 N426 1.427 . S
C423 H413 0.929 . S
C423 C421 1.433 . S
C423 N426 1.384 . S
C424 H415 0.929 1_455 S
C424 C416 1.378 . S
C424 C419 1.350 1_455 S
C425 H412 0.929 . S
C425 C417 1.433 . S
C425 N427 1.384 . S
N426 C422 1.427 . S
N426 C423 1.384 . S
N427 C419 1.427 1_455 S
N427 C425 1.384 . S
H428 C434 0.930 . S
H429 C438 0.930 . S
H430 C443 0.929 . S
H431 C441 0.929 . S
H432 C436 0.929 . S
H433 C442 0.929 . S
C434 H428 0.930 . S
C434 C435 1.367 . S
C434 C442 1.378 . S
C435 C434 1.367 . S
C435 C443 1.433 . S
C436 H432 0.929 . S
C436 C438 1.378 . S
C436 C440 1.350 1_655 S
C437 C440 1.463 . S
C437 C442 1.350 . S
C437 N445 1.427 . S
C438 H429 0.930 . S
C438 C436 1.378 . S
C438 C439 1.367 . S
C439 C438 1.367 . S
C439 C441 1.433 . S
C440 C436 1.350 1_455 S
C440 C437 1.463 . S
C440 N444 1.427 1_455 S
C441 H431 0.929 . S
C441 C439 1.433 . S
C441 N444 1.384 . S
C442 H433 0.929 . S
C442 C434 1.378 . S
C442 C437 1.350 . S
C443 H430 0.929 . S
C443 C435 1.433 . S
C443 N445 1.384 . S
N444 C440 1.427 1_655 S
N444 C441 1.384 . S
N445 C437 1.427 . S
N445 C443 1.384 . S
H446 C452 0.930 . S
H447 C456 0.930 . S
H448 C461 0.929 . S
H449 C459 0.929 . S
H450 C454 0.929 . S
H451 C460 0.929 . S
C452 H446 0.930 . S
C452 C453 1.367 . S
C452 C460 1.378 . S
C453 C452 1.367 . S
C453 C461 1.433 . S
C454 H450 0.929 . S
C454 C456 1.378 . S
C454 C458 1.350 1_455 S
C455 C458 1.463 . S
C455 C460 1.350 . S
C455 N463 1.427 . S
C456 H447 0.930 . S
C456 C454 1.378 . S
C456 C457 1.367 . S
C457 C456 1.367 . S
C457 C459 1.433 . S
C458 C454 1.350 1_655 S
C458 C455 1.463 . S
C458 N462 1.427 1_655 S
C459 H449 0.929 . S
C459 C457 1.433 . S
C459 N462 1.384 . S
C460 H451 0.929 . S
C460 C452 1.378 . S
C460 C455 1.350 . S
C461 H448 0.929 . S
C461 C453 1.433 . S
C461 N463 1.384 . S
N462 C458 1.427 1_455 S
N462 C459 1.384 . S
N463 C455 1.427 . S
N463 C461 1.384 . S
H464 C470 0.930 . S
H465 C474 0.930 . S
H466 C479 0.929 . S
H467 C477 0.929 . S
H468 C472 0.929 . S
H469 C478 0.929 . S
C470 H464 0.930 . S
C470 C471 1.367 1_556 S
C470 C478 1.378 1_455 S
C471 C470 1.367 1_554 S
C471 C479 1.433 . S
C472 H468 0.929 . S
C472 C474 1.378 1_455 S
C472 C476 1.350 1_455 S
C473 C476 1.463 1_455 S
C473 C478 1.350 1_454 S
C473 N481 1.427 . S
C474 H465 0.930 . S
C474 C472 1.378 1_655 S
C474 C475 1.367 . S
C475 C474 1.367 . S
C475 C477 1.433 1_554 S
C476 C472 1.350 1_655 S
C476 C473 1.463 1_655 S
C476 N480 1.427 1_554 S
C477 H467 0.929 . S
C477 C475 1.433 1_556 S
C477 N480 1.384 . S
C478 H469 0.929 . S
C478 C470 1.378 1_655 S
C478 C473 1.350 1_656 S
C479 H466 0.929 . S
C479 C471 1.433 . S
C479 N481 1.384 . S
N480 C476 1.427 1_556 S
N480 C477 1.384 . S
N481 C473 1.427 . S
N481 C479 1.384 . S
H482 C488 0.930 . S
H483 C492 0.930 . S
H484 C497 0.929 1_655 S
H485 C495 0.929 1_455 S
H486 C490 0.929 . S
H487 C496 0.929 . S
C488 H482 0.930 . S
C488 C489 1.367 . S
C488 C496 1.378 . S
C489 C488 1.367 . S
C489 C497 1.433 . S
C490 H486 0.929 . S
C490 C492 1.378 . S
C490 C494 1.350 . S
C491 C494 1.463 1_455 S
C491 C496 1.350 . S
C491 N499 1.427 1_455 S
C492 H483 0.930 . S
C492 C490 1.378 . S
C492 C493 1.367 . S
C493 C492 1.367 . S
C493 C495 1.433 . S
C494 C490 1.350 . S
C494 C491 1.463 1_655 S
C494 N498 1.427 1_655 S
C495 H485 0.929 1_655 S
C495 C493 1.433 . S
C495 N498 1.384 1_655 S
C496 H487 0.929 . S
C496 C488 1.378 . S
C496 C491 1.350 . S
C497 H484 0.929 1_455 S
C497 C489 1.433 . S
C497 N499 1.384 1_455 S
N498 C494 1.427 1_455 S
N498 C495 1.384 1_455 S
N499 C491 1.427 1_655 S
N499 C497 1.384 1_655 S
H500 C506 0.930 . S
H501 C510 0.930 . S
H502 C515 0.929 . S
H503 C513 0.926 1_556 S
H504 C508 0.859 1_565 S
H505 C514 0.859 1_545 S
C506 H500 0.930 . S
C506 C507 1.367 . S
C506 C514 1.378 . S
C507 C506 1.367 . S
C507 C515 1.433 . S
C508 H504 0.859 1_545 S
C508 C510 1.378 . S
C508 C512 1.350 . S
C509 C512 1.463 1_565 S
C509 C514 1.350 . S
C509 N517 1.427 . S
C510 H501 0.930 . S
C510 C508 1.378 . S
C510 C511 1.367 . S
C511 C510 1.367 . S
C511 C513 1.433 . S
C512 C508 1.350 . S
C512 C509 1.463 1_545 S
C512 N516 1.427 . S
C513 H503 0.926 1_554 S
C513 C511 1.433 . S
C513 N516 1.384 . S
C514 H505 0.859 1_565 S
C514 C506 1.378 . S
C514 C509 1.350 . S
C515 H502 0.929 . S
C515 C507 1.433 . S
C515 N517 1.384 . S
N516 C512 1.427 . S
N516 C513 1.384 . S
N517 C509 1.427 . S
N517 C515 1.384 . S
H518 C524 0.930 . S
H519 C528 0.930 . S
H520 C533 0.929 . S
H521 C531 0.929 . S
H522 C526 0.929 . S
H523 C532 0.929 . S
C524 H518 0.930 . S
C524 C525 1.367 . S
C524 C532 1.378 . S
C525 C524 1.367 . S
C525 C533 1.433 . S
C526 H522 0.929 . S
C526 C528 1.378 . S
C526 C530 1.350 . S
C527 C530 1.463 1_545 S
C527 C532 1.350 . S
C527 N535 1.427 . S
C528 H519 0.930 . S
C528 C526 1.378 . S
C528 C529 1.367 . S
C529 C528 1.367 . S
C529 C531 1.433 . S
C530 C526 1.350 . S
C530 C527 1.463 1_565 S
C530 N534 1.427 . S
C531 H521 0.929 . S
C531 C529 1.433 . S
C531 N534 1.384 . S
C532 H523 0.929 . S
C532 C524 1.378 . S
C532 C527 1.350 . S
C533 H520 0.929 . S
C533 C525 1.433 . S
C533 N535 1.384 . S
N534 C530 1.427 . S
N534 C531 1.384 . S
N535 C527 1.427 . S
N535 C533 1.384 . S
H536 C542 0.930 . S
H537 C546 0.930 . S
H538 C551 0.929 . S
H539 C549 0.929 1_556 S
H540 C544 0.929 . S
H541 C550 0.929 . S
C542 H536 0.930 . S
C542 C543 1.367 1_556 S
C542 C550 1.378 . S
C543 C542 1.367 1_554 S
C543 C551 1.433 . S
C544 H540 0.929 . S
C544 C546 1.378 . S
C544 C548 1.350 . S
C545 C548 1.463 . S
C545 C550 1.350 1_554 S
C545 N553 1.427 . S
C546 H537 0.930 . S
C546 C544 1.378 . S
C546 C547 1.367 . S
C547 C546 1.367 . S
C547 C549 1.433 . S
C548 C544 1.350 . S
C548 C545 1.463 . S
C548 N552 1.427 . S
C549 H539 0.929 1_554 S
C549 C547 1.433 . S
C549 N552 1.384 . S
C550 H541 0.929 . S
C550 C542 1.378 . S
C550 C545 1.350 1_556 S
C551 H538 0.929 . S
C551 C543 1.433 . S
C551 N553 1.384 . S
N552 C548 1.427 . S
N552 C549 1.384 . S
N553 C545 1.427 . S
N553 C551 1.384 . S
H554 C560 0.930 . S
H555 C564 0.930 . S
H556 C569 0.929 . S
H557 C567 0.929 1_556 S
H558 C562 0.929 . S
H559 C568 0.929 . S
C560 H554 0.930 . S
C560 C561 1.367 1_556 S
C560 C568 1.378 . S
C561 C560 1.367 1_554 S
C561 C569 1.433 . S
C562 H558 0.929 . S
C562 C564 1.378 . S
C562 C566 1.350 . S
C563 C566 1.463 . S
C563 C568 1.350 1_554 S
C563 N571 1.427 . S
C564 H555 0.930 . S
C564 C562 1.378 . S
C564 C565 1.367 . S
C565 C564 1.367 . S
C565 C567 1.433 . S
C566 C562 1.350 . S
C566 C563 1.463 . S
C566 N570 1.427 . S
C567 H557 0.929 1_554 S
C567 C565 1.433 . S
C567 N570 1.384 . S
C568 H559 0.929 . S
C568 C560 1.378 . S
C568 C563 1.350 1_556 S
C569 H556 0.929 . S
C569 C561 1.433 . S
C569 N571 1.384 . S
N570 C566 1.427 . S
N570 C567 1.384 . S
N571 C563 1.427 . S
N571 C569 1.384 . S
H572 C578 0.930 . S
H573 C582 0.930 . S
H574 C587 0.929 . S
H575 C585 0.929 . S
H576 C580 0.929 . S
H577 C586 0.929 . S
C578 H572 0.930 . S
C578 C579 1.367 . S
C578 C586 1.378 . S
C579 C578 1.367 . S
C579 C587 1.433 . S
C580 H576 0.929 . S
C580 C582 1.378 . S
C580 C584 1.350 . S
C581 C584 1.463 . S
C581 C586 1.350 . S
C581 N589 1.427 . S
C582 H573 0.930 . S
C582 C580 1.378 . S
C582 C583 1.367 . S
C583 C582 1.367 . S
C583 C585 1.433 . S
C584 C580 1.350 . S
C584 C581 1.463 . S
C584 N588 1.427 . S
C585 H575 0.929 . S
C585 C583 1.433 . S
C585 N588 1.384 . S
C586 H577 0.929 . S
C586 C578 1.378 . S
C586 C581 1.350 . S
C587 H574 0.929 . S
C587 C579 1.433 . S
C587 N589 1.384 . S
N588 C584 1.427 . S
N588 C585 1.384 . S
N589 C581 1.427 . S
N589 C587 1.384 . S
H590 C596 0.930 . S
H591 C600 0.930 . S
H592 C605 0.929 . S
H593 C603 0.929 . S
H594 C598 0.929 . S
H595 C604 0.929 . S
C596 H590 0.930 . S
C596 C597 1.367 . S
C596 C604 1.378 . S
C597 C596 1.367 . S
C597 C605 1.433 . S
C598 H594 0.929 . S
C598 C600 1.378 . S
C598 C602 1.350 . S
C599 C602 1.463 . S
C599 C604 1.350 . S
C599 N607 1.427 . S
C600 H591 0.930 . S
C600 C598 1.378 . S
C600 C601 1.367 . S
C601 C600 1.367 . S
C601 C603 1.433 . S
C602 C598 1.350 . S
C602 C599 1.463 . S
C602 N606 1.427 . S
C603 H593 0.929 . S
C603 C601 1.433 . S
C603 N606 1.384 . S
C604 H595 0.929 . S
C604 C596 1.378 . S
C604 C599 1.350 . S
C605 H592 0.929 . S
C605 C597 1.433 . S
C605 N607 1.384 . S
N606 C602 1.427 . S
N606 C603 1.384 . S
N607 C599 1.427 . S
N607 C605 1.384 . S
H608 C614 0.930 1_655 S
H609 C618 0.930 1_455 S
H610 C623 0.929 . S
H611 C621 0.929 . S
H612 C616 0.929 . S
H613 C622 0.929 . S
C614 H608 0.930 1_455 S
C614 C615 1.367 . S
C614 C622 1.378 1_455 S
C615 C614 1.367 . S
C615 C623 1.433 . S
C616 H612 0.929 . S
C616 C618 1.378 1_455 S
C616 C620 1.350 1_455 S
C617 C620 1.463 1_455 S
C617 C622 1.350 1_455 S
C617 N625 1.427 . S
C618 H609 0.930 1_655 S
C618 C616 1.378 1_655 S
C618 C619 1.367 . S
C619 C618 1.367 . S
C619 C621 1.433 . S
C620 C616 1.350 1_655 S
C620 C617 1.463 1_655 S
C620 N624 1.427 . S
C621 H611 0.929 . S
C621 C619 1.433 . S
C621 N624 1.384 . S
C622 H613 0.929 . S
C622 C614 1.378 1_655 S
C622 C617 1.350 1_655 S
C623 H610 0.929 . S
C623 C615 1.433 . S
C623 N625 1.384 . S
N624 C620 1.427 . S
N624 C621 1.384 . S
N625 C617 1.427 . S
N625 C623 1.384 . S
H626 C632 0.930 . S
H627 C636 0.930 1_655 S
H628 C641 0.929 . S
H629 C639 0.929 . S
H630 C634 0.929 . S
H631 C640 0.929 . S
C632 H626 0.930 . S
C632 C633 1.368 1_455 S
C632 C640 1.378 . S
C633 C632 1.368 1_655 S
C633 C641 1.433 . S
C634 H630 0.929 . S
C634 C636 1.378 1_655 S
C634 C638 1.350 1_655 S
C635 C638 1.463 1_655 S
C635 C640 1.350 1_655 S
C635 N643 1.427 . S
C636 H627 0.930 1_455 S
C636 C634 1.378 1_455 S
C636 C637 1.367 . S
C637 C636 1.367 . S
C637 C639 1.433 . S
C638 C634 1.350 1_455 S
C638 C635 1.463 1_455 S
C638 N642 1.427 . S
C639 H629 0.929 . S
C639 C637 1.433 . S
C639 N642 1.384 . S
C640 H631 0.929 . S
C640 C632 1.378 . S
C640 C635 1.350 1_455 S
C641 H628 0.929 . S
C641 C633 1.433 . S
C641 N643 1.384 . S
N642 C638 1.427 . S
N642 C639 1.384 . S
N643 C635 1.427 . S
N643 C641 1.384 . S
H644 C650 0.930 . S
H645 C654 0.930 . S
H646 C659 0.929 . S
H647 C657 0.929 . S
H648 C652 0.929 . S
H649 C658 0.929 . S
C650 H644 0.930 . S
C650 C651 1.367 1_455 S
C650 C658 1.378 . S
C651 C650 1.367 1_655 S
C651 C659 1.433 . S
C652 H648 0.929 . S
C652 C654 1.378 . S
C652 C656 1.350 1_655 S
C653 C656 1.463 1_655 S
C653 C658 1.350 1_655 S
C653 N661 1.427 . S
C654 H645 0.930 . S
C654 C652 1.378 . S
C654 C655 1.367 1_655 S
C655 C654 1.367 1_455 S
C655 C657 1.433 . S
C656 C652 1.350 1_455 S
C656 C653 1.463 1_455 S
C656 N660 1.427 . S
C657 H647 0.929 . S
C657 C655 1.433 . S
C657 N660 1.384 . S
C658 H649 0.929 . S
C658 C650 1.378 . S
C658 C653 1.350 1_455 S
C659 H646 0.929 . S
C659 C651 1.433 . S
C659 N661 1.384 . S
N660 C656 1.427 . S
N660 C657 1.384 . S
N661 C653 1.427 . S
N661 C659 1.384 . S
H662 C668 0.930 . S
H663 C672 0.930 . S
H664 C677 0.929 . S
H665 C675 0.929 . S
H666 C670 0.929 . S
H667 C676 0.929 . S
C668 H662 0.930 . S
C668 C669 1.367 . S
C668 C676 1.378 . S
C669 C668 1.367 . S
C669 C677 1.433 1_655 S
C670 H666 0.929 . S
C670 C672 1.378 . S
C670 C674 1.350 . S
C671 C674 1.463 1_655 S
C671 C676 1.350 . S
C671 N679 1.427 1_655 S
C672 H663 0.930 . S
C672 C670 1.378 . S
C672 C673 1.367 . S
C673 C672 1.367 . S
C673 C675 1.433 1_455 S
C674 C670 1.350 . S
C674 C671 1.463 1_455 S
C674 N678 1.427 1_455 S
C675 H665 0.929 . S
C675 C673 1.433 1_655 S
C675 N678 1.384 . S
C676 H667 0.929 . S
C676 C668 1.378 . S
C676 C671 1.350 . S
C677 H664 0.929 . S
C677 C669 1.433 1_455 S
C677 N679 1.384 . S
N678 C674 1.427 1_655 S
N678 C675 1.384 . S
N679 C671 1.427 1_455 S
N679 C677 1.384 . S
H680 C686 0.930 . S
H681 C690 0.930 . S
H682 C695 0.929 . S
H683 C693 0.929 . S
H684 C688 0.929 . S
H685 C694 0.929 . S
C686 H680 0.930 . S
C686 C687 1.367 . S
C686 C694 1.378 . S
C687 C686 1.367 . S
C687 C695 1.433 . S
C688 H684 0.929 . S
C688 C690 1.378 . S
C688 C692 1.350 . S
C689 C692 1.463 . S
C689 C694 1.350 . S
C689 N697 1.427 . S
C690 H681 0.930 . S
C690 C688 1.378 . S
C690 C691 1.367 . S
C691 C690 1.367 . S
C691 C693 1.433 . S
C692 C688 1.350 . S
C692 C689 1.463 . S
C692 N696 1.427 . S
C693 H683 0.929 . S
C693 C691 1.433 . S
C693 N696 1.384 . S
C694 H685 0.929 . S
C694 C686 1.378 . S
C694 C689 1.350 . S
C695 H682 0.929 . S
C695 C687 1.433 . S
C695 N697 1.384 . S
N696 C692 1.427 . S
N696 C693 1.384 . S
N697 C689 1.427 . S
N697 C695 1.384 . S
H698 C704 0.930 . S
H699 C708 0.930 . S
H700 C713 0.929 . S
H701 C711 0.929 . S
H702 C706 0.929 . S
H703 C712 0.929 . S
C704 H698 0.930 . S
C704 C705 1.367 . S
C704 C712 1.378 . S
C705 C704 1.367 . S
C705 C713 1.433 . S
C706 H702 0.929 . S
C706 C708 1.378 . S
C706 C710 1.350 . S
C707 C710 1.463 . S
C707 C712 1.350 . S
C707 N715 1.427 . S
C708 H699 0.930 . S
C708 C706 1.378 . S
C708 C709 1.367 . S
C709 C708 1.367 . S
C709 C711 1.433 . S
C710 C706 1.350 . S
C710 C707 1.463 . S
C710 N714 1.427 . S
C711 H701 0.929 . S
C711 C709 1.433 . S
C711 N714 1.384 . S
C712 H703 0.929 . S
C712 C704 1.378 . S
C712 C707 1.350 . S
C713 H700 0.929 . S
C713 C705 1.433 . S
C713 N715 1.384 . S
N714 C710 1.427 . S
N714 C711 1.384 . S
N715 C707 1.427 . S
N715 C713 1.384 . S
H716 C722 0.930 . S
H717 C726 0.930 . S
H718 C731 0.929 . S
H719 C729 0.929 . S
H720 C724 0.929 . S
H721 C730 0.929 . S
C722 H716 0.930 . S
C722 C723 1.367 . S
C722 C730 1.378 . S
C723 C722 1.367 . S
C723 C731 1.433 . S
C724 H720 0.929 . S
C724 C726 1.378 . S
C724 C728 1.350 . S
C725 C728 1.463 . S
C725 C730 1.350 . S
C725 N733 1.427 . S
C726 H717 0.930 . S
C726 C724 1.378 . S
C726 C727 1.367 . S
C727 C726 1.367 . S
C727 C729 1.433 . S
C728 C724 1.350 . S
C728 C725 1.463 . S
C728 N732 1.427 . S
C729 H719 0.929 . S
C729 C727 1.433 . S
C729 N732 1.384 . S
C730 H721 0.929 . S
C730 C722 1.378 . S
C730 C725 1.350 . S
C731 H718 0.929 . S
C731 C723 1.433 . S
C731 N733 1.384 . S
N732 C728 1.427 . S
N732 C729 1.384 . S
N733 C725 1.427 . S
N733 C731 1.384 . S
H734 C740 0.930 . S
H735 C744 0.930 . S
H736 C749 0.929 . S
H737 C747 0.929 . S
H738 C742 0.929 . S
H739 C748 0.929 . S
C740 H734 0.930 . S
C740 C741 1.367 . S
C740 C748 1.378 . S
C741 C740 1.367 . S
C741 C749 1.433 . S
C742 H738 0.929 . S
C742 C744 1.378 . S
C742 C746 1.350 . S
C743 C746 1.463 . S
C743 C748 1.350 . S
C743 N751 1.427 . S
C744 H735 0.930 . S
C744 C742 1.378 . S
C744 C745 1.367 . S
C745 C744 1.367 . S
C745 C747 1.433 . S
C746 C742 1.350 . S
C746 C743 1.463 . S
C746 N750 1.427 . S
C747 H737 0.929 . S
C747 C745 1.433 . S
C747 N750 1.384 . S
C748 H739 0.929 . S
C748 C740 1.378 . S
C748 C743 1.350 . S
C749 H736 0.929 . S
C749 C741 1.433 . S
C749 N751 1.384 . S
N750 C746 1.427 . S
N750 C747 1.384 . S
N751 C743 1.427 . S
N751 C749 1.384 . S
C327 C10 2.307 . S
C331 C19 2.307 . S
C345 C50 2.310 . S
C349 C59 2.310 . S
C363 C90 2.306 . S
C367 C99 2.306 . S
C381 C130 2.306 . S
C385 C139 2.306 . S
C399 C170 2.310 . S
C403 C179 2.310 . S
C417 C219 2.311 . S
C421 C210 2.311 . S
C435 C250 2.306 . S
C439 C259 2.306 . S
C453 C299 2.302 . S
C457 C290 2.302 . S
C471 C46 2.625 . S
C475 C15 2.625 . S
C489 C135 2.634 . S
C493 C86 2.634 . S
C507 C175 2.634 . S
C511 C206 2.634 . S
C525 C246 2.622 . S
C529 C295 2.622 . S
C543 C6 1.841 . S
C547 C215 1.841 . S
C561 C166 1.841 . S
C565 C55 1.841 . S
C579 C95 1.832 . S
C583 C286 1.832 . S
C597 C126 1.833 . S
C601 C255 1.833 . S
C615 C9 1.575 . S
C619 C129 1.587 . S
C633 C49 1.473 . S
C637 C89 1.485 . S
C651 C58 1.575 . S
C655 C98 1.584 . S
C669 C138 1.475 . S
C673 C18 1.486 . S
C687 C169 1.581 . S
C691 C289 1.592 . S
C705 C209 1.486 . S
C709 C249 1.475 . S
C723 C218 1.575 . S
C727 C258 1.586 . S
C741 C298 1.474 . S
C745 C178 1.486 . S
