# Generated by pormake.
# Topology lta, (4)-cn, num edge types: 1
# Building blocks:
#     Node 0, Type 0, BuildingBlock: GALJAG_clean_sbu_0, # of connection points: 4
#     Node 1, Type 0, BuildingBlock: GALJAG_clean_sbu_0, # of connection points: 4
#     Node 2, Type 0, BuildingBlock: GALJAG_clean_sbu_0, # of connection points: 4
#     Node 3, Type 0, BuildingBlock: GALJAG_clean_sbu_0, # of connection points: 4
#     Node 4, Type 0, BuildingBlock: GALJAG_clean_sbu_0, # of connection points: 4
#     Node 5, Type 0, BuildingBlock: GALJAG_clean_sbu_0, # of connection points: 4
#     Node 6, Type 0, BuildingBlock: GALJAG_clean_sbu_0, # of connection points: 4
#     Node 7, Type 0, BuildingBlock: GALJAG_clean_sbu_0, # of connection points: 4
#     Node 8, Type 0, BuildingBlock: GALJAG_clean_sbu_0, # of connection points: 4
#     Node 9, Type 0, BuildingBlock: GALJAG_clean_sbu_0, # of connection points: 4
#     Node 10, Type 0, BuildingBlock: GALJAG_clean_sbu_0, # of connection points: 4
#     Node 11, Type 0, BuildingBlock: GALJAG_clean_sbu_0, # of connection points: 4
#     Node 12, Type 0, BuildingBlock: GALJAG_clean_sbu_0, # of connection points: 4
#     Node 13, Type 0, BuildingBlock: GALJAG_clean_sbu_0, # of connection points: 4
#     Node 14, Type 0, BuildingBlock: GALJAG_clean_sbu_0, # of connection points: 4
#     Node 15, Type 0, BuildingBlock: GALJAG_clean_sbu_0, # of connection points: 4
#     Node 16, Type 0, BuildingBlock: GALJAG_clean_sbu_0, # of connection points: 4
#     Node 17, Type 0, BuildingBlock: GALJAG_clean_sbu_0, # of connection points: 4
#     Node 18, Type 0, BuildingBlock: GALJAG_clean_sbu_0, # of connection points: 4
#     Node 19, Type 0, BuildingBlock: GALJAG_clean_sbu_0, # of connection points: 4
#     Node 20, Type 0, BuildingBlock: GALJAG_clean_sbu_0, # of connection points: 4
#     Node 21, Type 0, BuildingBlock: GALJAG_clean_sbu_0, # of connection points: 4
#     Node 22, Type 0, BuildingBlock: GALJAG_clean_sbu_0, # of connection points: 4
#     Node 23, Type 0, BuildingBlock: GALJAG_clean_sbu_0, # of connection points: 4
#     Edge 24, Type (0, 0), BuildingBlock: KIFKEQ_clean_linker_1, # of connection points: 2
#     Edge 25, Type (0, 0), BuildingBlock: KIFKEQ_clean_linker_1, # of connection points: 2
#     Edge 26, Type (0, 0), BuildingBlock: KIFKEQ_clean_linker_1, # of connection points: 2
#     Edge 27, Type (0, 0), BuildingBlock: KIFKEQ_clean_linker_1, # of connection points: 2
#     Edge 28, Type (0, 0), BuildingBlock: KIFKEQ_clean_linker_1, # of connection points: 2
#     Edge 29, Type (0, 0), BuildingBlock: KIFKEQ_clean_linker_1, # of connection points: 2
#     Edge 30, Type (0, 0), BuildingBlock: KIFKEQ_clean_linker_1, # of connection points: 2
#     Edge 31, Type (0, 0), BuildingBlock: KIFKEQ_clean_linker_1, # of connection points: 2
#     Edge 32, Type (0, 0), BuildingBlock: KIFKEQ_clean_linker_1, # of connection points: 2
#     Edge 33, Type (0, 0), BuildingBlock: KIFKEQ_clean_linker_1, # of connection points: 2
#     Edge 34, Type (0, 0), BuildingBlock: KIFKEQ_clean_linker_1, # of connection points: 2
#     Edge 35, Type (0, 0), BuildingBlock: KIFKEQ_clean_linker_1, # of connection points: 2
#     Edge 36, Type (0, 0), BuildingBlock: KIFKEQ_clean_linker_1, # of connection points: 2
#     Edge 37, Type (0, 0), BuildingBlock: KIFKEQ_clean_linker_1, # of connection points: 2
#     Edge 38, Type (0, 0), BuildingBlock: KIFKEQ_clean_linker_1, # of connection points: 2
#     Edge 39, Type (0, 0), BuildingBlock: KIFKEQ_clean_linker_1, # of connection points: 2
#     Edge 40, Type (0, 0), BuildingBlock: KIFKEQ_clean_linker_1, # of connection points: 2
#     Edge 41, Type (0, 0), BuildingBlock: KIFKEQ_clean_linker_1, # of connection points: 2
#     Edge 42, Type (0, 0), BuildingBlock: KIFKEQ_clean_linker_1, # of connection points: 2
#     Edge 43, Type (0, 0), BuildingBlock: KIFKEQ_clean_linker_1, # of connection points: 2
#     Edge 44, Type (0, 0), BuildingBlock: KIFKEQ_clean_linker_1, # of connection points: 2
#     Edge 45, Type (0, 0), BuildingBlock: KIFKEQ_clean_linker_1, # of connection points: 2
#     Edge 46, Type (0, 0), BuildingBlock: KIFKEQ_clean_linker_1, # of connection points: 2
#     Edge 47, Type (0, 0), BuildingBlock: KIFKEQ_clean_linker_1, # of connection points: 2
#     Edge 48, Type (0, 0), BuildingBlock: KIFKEQ_clean_linker_1, # of connection points: 2
#     Edge 49, Type (0, 0), BuildingBlock: KIFKEQ_clean_linker_1, # of connection points: 2
#     Edge 50, Type (0, 0), BuildingBlock: KIFKEQ_clean_linker_1, # of connection points: 2
#     Edge 51, Type (0, 0), BuildingBlock: KIFKEQ_clean_linker_1, # of connection points: 2
#     Edge 52, Type (0, 0), BuildingBlock: KIFKEQ_clean_linker_1, # of connection points: 2
#     Edge 53, Type (0, 0), BuildingBlock: KIFKEQ_clean_linker_1, # of connection points: 2
#     Edge 54, Type (0, 0), BuildingBlock: KIFKEQ_clean_linker_1, # of connection points: 2
#     Edge 55, Type (0, 0), BuildingBlock: KIFKEQ_clean_linker_1, # of connection points: 2
#     Edge 56, Type (0, 0), BuildingBlock: KIFKEQ_clean_linker_1, # of connection points: 2
#     Edge 57, Type (0, 0), BuildingBlock: KIFKEQ_clean_linker_1, # of connection points: 2
#     Edge 58, Type (0, 0), BuildingBlock: KIFKEQ_clean_linker_1, # of connection points: 2
#     Edge 59, Type (0, 0), BuildingBlock: KIFKEQ_clean_linker_1, # of connection points: 2
#     Edge 60, Type (0, 0), BuildingBlock: KIFKEQ_clean_linker_1, # of connection points: 2
#     Edge 61, Type (0, 0), BuildingBlock: KIFKEQ_clean_linker_1, # of connection points: 2
#     Edge 62, Type (0, 0), BuildingBlock: KIFKEQ_clean_linker_1, # of connection points: 2
#     Edge 63, Type (0, 0), BuildingBlock: KIFKEQ_clean_linker_1, # of connection points: 2
#     Edge 64, Type (0, 0), BuildingBlock: KIFKEQ_clean_linker_1, # of connection points: 2
#     Edge 65, Type (0, 0), BuildingBlock: KIFKEQ_clean_linker_1, # of connection points: 2
#     Edge 66, Type (0, 0), BuildingBlock: KIFKEQ_clean_linker_1, # of connection points: 2
#     Edge 67, Type (0, 0), BuildingBlock: KIFKEQ_clean_linker_1, # of connection points: 2
#     Edge 68, Type (0, 0), BuildingBlock: KIFKEQ_clean_linker_1, # of connection points: 2
#     Edge 69, Type (0, 0), BuildingBlock: KIFKEQ_clean_linker_1, # of connection points: 2
#     Edge 70, Type (0, 0), BuildingBlock: KIFKEQ_clean_linker_1, # of connection points: 2
#     Edge 71, Type (0, 0), BuildingBlock: KIFKEQ_clean_linker_1, # of connection points: 2
# Relax obj value: 0.417
# Max RMSD: 0.230
# Mean RMSD: 0.230
data_MOF--net-lta--node1-GALJAG_clean_sbu_0--edge1-KIFKEQ_clean_linker_1
_symmetry_space_group_name_H-M    P1
_symmetry_Int_Tables_number       1
_symmetry_cell_setting            triclinic
loop_
_symmetry_equiv_pos_as_xyz
'x, y, z'
_cell_length_a     57.663294
_cell_length_b     57.582593
_cell_length_c     57.673946
_cell_angle_alpha  89.973544
_cell_angle_beta   89.983252
_cell_angle_gamma 90.030748
loop_
_atom_site_label
_atom_site_type_symbol
_atom_site_fract_x
_atom_site_fract_y
_atom_site_fract_z
_atom_type_partial_charge
In0 In 0.11297 0.30633 0.4901 0.0
O1 O 0.1257 0.33959 0.50687 0.0
O2 O 0.12925 0.30853 0.52633 0.0
C3 C 0.1187 0.33143 0.45117 0.0
C4 C 0.13422 0.26497 0.48567 0.0
C5 C 0.06697 0.3019 0.49692 0.0
O6 O 0.13512 0.32727 0.46504 0.0
O7 O 0.09951 0.32239 0.45664 0.0
O8 O 0.0781 0.2892 0.48302 0.0
O9 O 0.07905 0.31683 0.5074 0.0
C10 C 0.13245 0.33016 0.52537 0.0
O11 O 0.12107 0.26969 0.50245 0.0
O12 O 0.13665 0.2811 0.47111 0.0
In13 In 0.68573 0.11752 0.49857 0.0
O14 O 0.65311 0.13526 0.51173 0.0
O15 O 0.673 0.11609 0.53611 0.0
C16 C 0.65896 0.12233 0.46058 0.0
C17 C 0.72281 0.14603 0.5011 0.0
C18 C 0.69883 0.0726 0.49968 0.0
O19 O 0.66655 0.13948 0.47189 0.0
O20 O 0.66509 0.10276 0.46828 0.0
O21 O 0.70787 0.08704 0.4859 0.0
O22 O 0.68364 0.08096 0.51298 0.0
C23 C 0.65521 0.12828 0.53233 0.0
O24 O 0.71236 0.13874 0.51882 0.0
O25 O 0.715 0.13841 0.48221 0.0
In26 In 0.85689 0.66962 0.50683 0.0
O27 O 0.84552 0.70732 0.50491 0.0
O28 O 0.81943 0.68128 0.50315 0.0
C29 C 0.90082 0.68548 0.50566 0.0
C30 C 0.84575 0.65151 0.54839 0.0
C31 C 0.85776 0.63893 0.47148 0.0
O32 O 0.88592 0.69114 0.49069 0.0
O33 O 0.89355 0.67183 0.52114 0.0
O34 O 0.8671 0.63491 0.49082 0.0
O35 O 0.84792 0.65841 0.46997 0.0
C36 C 0.82425 0.70263 0.50305 0.0
O37 O 0.84074 0.64167 0.52949 0.0
O38 O 0.8562 0.67066 0.54632 0.0
In39 In 0.31784 0.85561 0.50186 0.0
O40 O 0.3426 0.83501 0.52457 0.0
O41 O 0.31841 0.85719 0.54135 0.0
C42 C 0.34824 0.85225 0.46647 0.0
C43 C 0.28063 0.82769 0.49922 0.0
C44 C 0.30946 0.90148 0.49912 0.0
O45 O 0.35393 0.8589 0.48647 0.0
O46 O 0.32712 0.84705 0.46424 0.0
O47 O 0.29951 0.88701 0.48606 0.0
O48 O 0.32336 0.89276 0.51354 0.0
C49 C 0.33516 0.84325 0.54342 0.0
O50 O 0.27901 0.84896 0.5041 0.0
O51 O 0.30101 0.82051 0.49584 0.0
In52 In 0.11418 0.68347 0.48731 0.0
O53 O 0.13994 0.66086 0.4676 0.0
O54 O 0.10992 0.67237 0.44965 0.0
C55 C 0.11076 0.64999 0.51975 0.0
C56 C 0.14621 0.71727 0.49143 0.0
C57 C 0.07091 0.70091 0.4898 0.0
O58 O 0.10444 0.6469 0.49904 0.0
O59 O 0.1184 0.67003 0.52411 0.0
O60 O 0.07958 0.69331 0.47123 0.0
O61 O 0.08438 0.70045 0.50702 0.0
C62 C 0.12842 0.6607 0.44903 0.0
O63 O 0.1285 0.71971 0.47885 0.0
O64 O 0.14747 0.69811 0.5018 0.0
In65 In 0.29543 0.1214 0.48769 0.0
O66 O 0.31727 0.14896 0.46947 0.0
O67 O 0.30897 0.11824 0.45084 0.0
C68 C 0.31898 0.12949 0.52717 0.0
C69 C 0.25335 0.14173 0.48756 0.0
C70 C 0.29603 0.07478 0.48579 0.0
O71 O 0.32139 0.14186 0.50927 0.0
O72 O 0.30425 0.11339 0.52533 0.0
O73 O 0.27734 0.08608 0.48742 0.0
O74 O 0.31414 0.08702 0.48492 0.0
C75 C 0.31939 0.13749 0.45096 0.0
O76 O 0.26218 0.1329 0.46966 0.0
O77 O 0.26564 0.14014 0.50552 0.0
In78 In 0.84944 0.32622 0.49848 0.0
O79 O 0.83321 0.35433 0.47596 0.0
O80 O 0.85398 0.32875 0.45938 0.0
C81 C 0.84532 0.36054 0.52985 0.0
C82 C 0.82191 0.28867 0.50364 0.0
C83 C 0.89395 0.31234 0.50068 0.0
O84 O 0.8616 0.35948 0.51531 0.0
O85 O 0.83071 0.34422 0.52856 0.0
O86 O 0.88298 0.31388 0.48183 0.0
O87 O 0.88235 0.31743 0.5185 0.0
C88 C 0.84187 0.34687 0.4573 0.0
O89 O 0.84048 0.29121 0.51479 0.0
O90 O 0.81693 0.30529 0.49039 0.0
In91 In 0.66891 0.85874 0.48459 0.0
O92 O 0.70479 0.84633 0.49545 0.0
O93 O 0.68279 0.82226 0.47842 0.0
C94 C 0.6878 0.90157 0.48519 0.0
C95 C 0.64476 0.8508 0.44552 0.0
C96 C 0.63845 0.85729 0.52 0.0
O97 O 0.68742 0.88844 0.50267 0.0
O98 O 0.67887 0.893 0.46714 0.0
O99 O 0.63954 0.87398 0.5059 0.0
O100 O 0.65282 0.84119 0.51633 0.0
C101 C 0.70215 0.82605 0.48774 0.0
O102 O 0.63588 0.84982 0.46548 0.0
O103 O 0.66601 0.85618 0.4451 0.0
In104 In 0.48908 0.13173 0.32021 0.0
O105 O 0.51 0.14315 0.28867 0.0
O106 O 0.47768 0.15971 0.29518 0.0
C107 C 0.48164 0.08733 0.30758 0.0
C108 C 0.52671 0.13201 0.34799 0.0
C109 C 0.45124 0.1472 0.3427 0.0
O110 O 0.49098 0.10185 0.29413 0.0
O111 O 0.4758 0.09535 0.32703 0.0
O112 O 0.4715 0.15049 0.35034 0.0
O113 O 0.45022 0.13652 0.32365 0.0
C114 C 0.49524 0.15799 0.28227 0.0
O115 O 0.5203 0.14986 0.33703 0.0
O116 O 0.51409 0.11442 0.34506 0.0
In117 In 0.87196 0.49617 0.30281 0.0
O118 O 0.8527 0.51721 0.27563 0.0
O119 O 0.85091 0.48041 0.27351 0.0
C120 C 0.91424 0.49967 0.28349 0.0
C121 C 0.86846 0.52683 0.33792 0.0
C122 C 0.86086 0.45795 0.3272 0.0
O123 O 0.90479 0.48035 0.28765 0.0
O124 O 0.9022 0.51715 0.28878 0.0
O125 O 0.84601 0.47298 0.32147 0.0
O126 O 0.88125 0.46209 0.32037 0.0
C127 C 0.84493 0.49969 0.2651 0.0
O128 O 0.88611 0.5143 0.33485 0.0
O129 O 0.85254 0.524 0.32318 0.0
In130 In 0.49227 0.86932 0.29973 0.0
O131 O 0.50434 0.85313 0.26595 0.0
O132 O 0.46807 0.85455 0.27239 0.0
C133 C 0.49308 0.91542 0.29245 0.0
C134 C 0.46053 0.86384 0.33367 0.0
C135 C 0.53178 0.85193 0.3176 0.0
O136 O 0.48 0.90215 0.28095 0.0
O137 O 0.5058 0.90533 0.30706 0.0
O138 O 0.51221 0.8429 0.32137 0.0
O139 O 0.53148 0.86917 0.30413 0.0
C140 C 0.48416 0.84843 0.25894 0.0
O141 O 0.465 0.84798 0.31927 0.0
O142 O 0.47193 0.88228 0.33083 0.0
In143 In 0.12721 0.49834 0.30685 0.0
O144 O 0.10916 0.47355 0.33166 0.0
O145 O 0.14478 0.46748 0.32457 0.0
C146 C 0.1403 0.53557 0.33174 0.0
C147 C 0.15587 0.49369 0.27038 0.0
C148 C 0.08402 0.50498 0.2903 0.0
O149 O 0.14339 0.51502 0.33877 0.0
O150 O 0.13115 0.53726 0.31193 0.0
O151 O 0.09823 0.4914 0.28078 0.0
O152 O 0.09162 0.5152 0.30804 0.0
C153 C 0.12675 0.46106 0.33517 0.0
O154 O 0.14068 0.47879 0.2754 0.0
O155 O 0.15686 0.51079 0.28396 0.0
In156 In 0.49331 0.8692 0.68559 0.0
O157 O 0.51698 0.8542 0.7135 0.0
O158 O 0.48143 0.84455 0.7138 0.0
C159 C 0.49776 0.91354 0.69991 0.0
C160 C 0.52188 0.8609 0.64958 0.0
C161 C 0.45222 0.85837 0.66633 0.0
O162 O 0.48198 0.90039 0.70744 0.0
O163 O 0.51124 0.90423 0.68549 0.0
O164 O 0.46798 0.84352 0.66957 0.0
O165 O 0.45711 0.87866 0.67305 0.0
C166 C 0.50115 0.84243 0.72294 0.0
O167 O 0.50409 0.87351 0.64796 0.0
O168 O 0.52523 0.85223 0.6694 0.0
In169 In 0.13286 0.48505 0.66544 0.0
O170 O 0.14765 0.48064 0.70161 0.0
O171 O 0.16359 0.50541 0.6794 0.0
C172 C 0.08861 0.47998 0.67884 0.0
C173 C 0.12652 0.51994 0.63496 0.0
C174 C 0.14958 0.44505 0.64785 0.0
O175 O 0.10382 0.48886 0.6918 0.0
O176 O 0.09578 0.47357 0.65919 0.0
O177 O 0.15851 0.46455 0.64339 0.0
O178 O 0.13274 0.44572 0.66176 0.0
C179 C 0.16306 0.49594 0.6991 0.0
O180 O 0.13283 0.4999 0.62883 0.0
O181 O 0.1236 0.52243 0.65648 0.0
In182 In 0.48426 0.12584 0.67098 0.0
O183 O 0.47821 0.13622 0.70854 0.0
O184 O 0.48444 0.16302 0.68396 0.0
C185 C 0.48867 0.08398 0.69112 0.0
C186 C 0.44536 0.1282 0.64529 0.0
C187 C 0.5211 0.13176 0.64267 0.0
O188 O 0.46922 0.09331 0.68746 0.0
O189 O 0.50593 0.0959 0.68483 0.0
O190 O 0.5016 0.12499 0.63552 0.0
O191 O 0.52208 0.13565 0.66415 0.0
C192 C 0.48032 0.15766 0.70474 0.0
O193 O 0.45357 0.14559 0.65574 0.0
O194 O 0.4568 0.1097 0.64778 0.0
In195 In 0.87291 0.50166 0.69468 0.0
O196 O 0.85761 0.47802 0.7222 0.0
O197 O 0.86058 0.5139 0.7301 0.0
C198 C 0.91821 0.49251 0.70135 0.0
C199 C 0.85858 0.47633 0.65828 0.0
C200 C 0.85997 0.54329 0.67805 0.0
O201 O 0.90931 0.51185 0.70632 0.0
O202 O 0.90426 0.47782 0.6932 0.0
O203 O 0.88088 0.53789 0.68157 0.0
O204 O 0.84541 0.52784 0.68354 0.0
C205 C 0.8545 0.49397 0.73678 0.0
O206 O 0.87404 0.49176 0.65664 0.0
O207 O 0.85021 0.47369 0.67833 0.0
In208 In 0.30797 0.47842 0.11402 0.0
O209 O 0.27729 0.4975 0.12982 0.0
O210 O 0.28014 0.46133 0.13622 0.0
C211 C 0.2995 0.47408 0.06837 0.0
C212 C 0.33248 0.51803 0.11859 0.0
C213 C 0.33458 0.44269 0.12806 0.0
O214 O 0.28461 0.48228 0.08216 0.0
O215 O 0.31814 0.46764 0.07776 0.0
O216 O 0.33902 0.4635 0.13331 0.0
O217 O 0.31655 0.43991 0.11599 0.0
C218 C 0.26904 0.47983 0.13971 0.0
O219 O 0.32605 0.50618 0.13586 0.0
O220 O 0.32666 0.50982 0.0992 0.0
In221 In 0.31707 0.50478 0.85251 0.0
O222 O 0.33868 0.4793 0.83151 0.0
O223 O 0.32034 0.46594 0.86042 0.0
C224 C 0.34744 0.53998 0.84837 0.0
C225 C 0.28335 0.51233 0.82129 0.0
C226 C 0.30721 0.50326 0.89794 0.0
O227 O 0.3534 0.51895 0.849 0.0
O228 O 0.3259 0.54351 0.85021 0.0
O229 O 0.29276 0.49697 0.88272 0.0
O230 O 0.32627 0.51069 0.89013 0.0
C231 C 0.33403 0.46191 0.8439 0.0
O232 O 0.28036 0.51607 0.84262 0.0
O233 O 0.30312 0.50483 0.81596 0.0
In234 In 0.49065 0.31217 0.86147 0.0
O235 O 0.47729 0.2767 0.84962 0.0
O236 O 0.49721 0.2969 0.82608 0.0
C237 C 0.49239 0.30643 0.90775 0.0
C238 C 0.53338 0.32938 0.85421 0.0
C239 C 0.45322 0.33856 0.85239 0.0
O240 O 0.49602 0.28991 0.89385 0.0
O241 O 0.48751 0.32553 0.89828 0.0
O242 O 0.47374 0.34537 0.84912 0.0
O243 O 0.45141 0.31825 0.86043 0.0
C244 C 0.48621 0.27839 0.82972 0.0
O245 O 0.51513 0.34025 0.84897 0.0
O246 O 0.53013 0.30968 0.86329 0.0
In247 In 0.68954 0.46915 0.87354 0.0
O248 O 0.65621 0.4849 0.85915 0.0
O249 O 0.68137 0.50773 0.87347 0.0
C250 C 0.6717 0.42794 0.8606 0.0
C251 C 0.73008 0.47311 0.85112 0.0
C252 C 0.69103 0.47392 0.91979 0.0
O253 O 0.67298 0.44507 0.84701 0.0
O254 O 0.68022 0.43138 0.88045 0.0
O255 O 0.70862 0.47715 0.90718 0.0
O256 O 0.67301 0.46768 0.90911 0.0
C257 C 0.66182 0.50552 0.86397 0.0
O258 O 0.72682 0.45764 0.86628 0.0
O259 O 0.71287 0.48592 0.84712 0.0
In260 In 0.51858 0.67307 0.8596 0.0
O261 O 0.53182 0.70961 0.85095 0.0
O262 O 0.51566 0.69003 0.82438 0.0
C263 C 0.51692 0.6863 0.90421 0.0
C264 C 0.47729 0.65371 0.84952 0.0
C265 C 0.55017 0.63881 0.8572 0.0
O266 O 0.50157 0.6919 0.88967 0.0
O267 O 0.53358 0.67468 0.89604 0.0
O268 O 0.52997 0.63592 0.86501 0.0
O269 O 0.55474 0.65927 0.85072 0.0
C270 C 0.52503 0.70886 0.83021 0.0
O271 O 0.49513 0.65052 0.83728 0.0
O272 O 0.48021 0.66691 0.8667 0.0
In273 In 0.67027 0.5137 0.13412 0.0
O274 O 0.70259 0.49524 0.14694 0.0
O275 O 0.69868 0.53081 0.15567 0.0
C276 C 0.67762 0.5143 0.08827 0.0
C277 C 0.64588 0.47451 0.14249 0.0
C278 C 0.6456 0.55221 0.14365 0.0
O279 O 0.69405 0.51323 0.1027 0.0
O280 O 0.65761 0.51577 0.09705 0.0
O281 O 0.65908 0.55071 0.1265 0.0
O282 O 0.64466 0.53429 0.15622 0.0
C283 C 0.71094 0.51276 0.15694 0.0
O284 O 0.64846 0.48998 0.15774 0.0
O285 O 0.65538 0.47896 0.12338 0.0
In286 In 0.47841 0.68239 0.1209 0.0
O287 O 0.4865 0.72037 0.12754 0.0
O288 O 0.45987 0.70503 0.14769 0.0
C289 C 0.48385 0.68389 0.07466 0.0
C290 C 0.51817 0.66598 0.13929 0.0
C291 C 0.44273 0.65242 0.12457 0.0
O292 O 0.47327 0.69952 0.08573 0.0
O293 O 0.49106 0.66719 0.08684 0.0
O294 O 0.46161 0.64991 0.13526 0.0
O295 O 0.4416 0.67036 0.11201 0.0
C296 C 0.47151 0.72297 0.14314 0.0
O297 O 0.49845 0.66047 0.14692 0.0
O298 O 0.5179 0.68033 0.12278 0.0
In299 In 0.50581 0.30935 0.1264 0.0
O300 O 0.47778 0.32562 0.14921 0.0
O301 O 0.47154 0.32326 0.11296 0.0
C302 C 0.53849 0.3393 0.14102 0.0
C303 C 0.50769 0.26966 0.15103 0.0
C304 C 0.51161 0.30319 0.08045 0.0
O305 O 0.51715 0.34246 0.14459 0.0
O306 O 0.5434 0.32082 0.13031 0.0
O307 O 0.50502 0.28699 0.09362 0.0
O308 O 0.51572 0.32214 0.09056 0.0
C309 C 0.46418 0.32962 0.13253 0.0
O310 O 0.48969 0.27627 0.1406 0.0
O311 O 0.52491 0.28293 0.14882 0.0
H312 H 0.16146 0.42985 0.34347 0.0
H313 H 0.09057 0.44608 0.36145 0.0
H314 H 0.1602 0.39606 0.36909 0.0
H315 H 0.08947 0.41284 0.38745 0.0
H316 H 0.08654 0.34153 0.41806 0.0
H317 H 0.08916 0.3711 0.38789 0.0
H318 H 0.15883 0.38763 0.4101 0.0
H319 H 0.15642 0.35759 0.43978 0.0
C320 C 0.14565 0.42621 0.35294 0.0
C321 C 0.12613 0.44059 0.35052 0.0
C322 C 0.14494 0.40693 0.36766 0.0
C323 C 0.12471 0.4017 0.38027 0.0
C324 C 0.10519 0.41608 0.37768 0.0
C325 C 0.10587 0.43527 0.36293 0.0
C326 C 0.10252 0.35127 0.41626 0.0
C327 C 0.12122 0.34738 0.43133 0.0
C328 C 0.10397 0.36831 0.3991 0.0
C329 C 0.1241 0.38192 0.39677 0.0
C330 C 0.14315 0.37734 0.41128 0.0
C331 C 0.14174 0.36019 0.42835 0.0
H332 H 0.64504 0.08898 0.43021 0.0
H333 H 0.63567 0.16135 0.44744 0.0
H334 H 0.61493 0.09207 0.40074 0.0
H335 H 0.60489 0.16429 0.41862 0.0
H336 H 0.55983 0.16566 0.35364 0.0
H337 H 0.59425 0.16387 0.37837 0.0
H338 H 0.57388 0.09534 0.40135 0.0
H339 H 0.54018 0.09686 0.37622 0.0
C340 C 0.6366 0.10558 0.42759 0.0
C341 C 0.64253 0.12487 0.4412 0.0
C342 C 0.61924 0.10733 0.41084 0.0
C343 C 0.60723 0.12835 0.40755 0.0
C344 C 0.61389 0.1479 0.42055 0.0
C345 C 0.63145 0.1462 0.43714 0.0
C346 C 0.56283 0.15023 0.36396 0.0
C347 C 0.54737 0.1314 0.36302 0.0
C348 C 0.58248 0.14921 0.37816 0.0
C349 C 0.58693 0.1294 0.39175 0.0
C350 C 0.57132 0.11066 0.39076 0.0
C351 C 0.55186 0.11161 0.3765 0.0
H352 H 0.87627 0.59542 0.47156 0.0
H353 H 0.84111 0.64493 0.42763 0.0
H354 H 0.87818 0.56809 0.43935 0.0
H355 H 0.8435 0.61783 0.39522 0.0
H356 H 0.83144 0.55406 0.34928 0.0
H357 H 0.82819 0.58086 0.38191 0.0
H358 H 0.89817 0.56386 0.4027 0.0
H359 H 0.90118 0.53672 0.37046 0.0
C360 C 0.86901 0.60047 0.45499 0.0
C361 C 0.85858 0.6223 0.45207 0.0
C362 C 0.87021 0.58488 0.43651 0.0
C363 C 0.86108 0.59082 0.4147 0.0
C364 C 0.85046 0.61261 0.41187 0.0
C365 C 0.8492 0.62819 0.43039 0.0
C366 C 0.8461 0.55608 0.36085 0.0
C367 C 0.86655 0.54331 0.35737 0.0
C368 C 0.84429 0.5715 0.37946 0.0
C369 C 0.86291 0.57446 0.39492 0.0
C370 C 0.88338 0.56171 0.39132 0.0
C371 C 0.88517 0.54628 0.37277 0.0
H372 H 0.39378 0.86431 0.46758 0.0
H373 H 0.34028 0.83887 0.42168 0.0
H374 H 0.42094 0.86569 0.43526 0.0
H375 H 0.36754 0.84047 0.38917 0.0
H376 H 0.43188 0.82691 0.34226 0.0
H377 H 0.40465 0.82245 0.37458 0.0
H378 H 0.42414 0.89024 0.40008 0.0
H379 H 0.45129 0.89462 0.36807 0.0
C380 C 0.38786 0.85891 0.45059 0.0
C381 C 0.36489 0.85162 0.44709 0.0
C382 C 0.40338 0.85981 0.43208 0.0
C383 C 0.39628 0.85338 0.40969 0.0
C384 C 0.3735 0.84541 0.40629 0.0
C385 C 0.3579 0.84459 0.42484 0.0
C386 C 0.43028 0.84082 0.35479 0.0
C387 C 0.44371 0.86108 0.35272 0.0
C388 C 0.41467 0.83831 0.37319 0.0
C389 C 0.41242 0.85593 0.38989 0.0
C390 C 0.42577 0.87622 0.38766 0.0
C391 C 0.44121 0.87878 0.36925 0.0
H392 H 0.11094 0.56368 0.64403 0.0
H393 H 0.13357 0.51902 0.58826 0.0
H394 H 0.10488 0.59519 0.61641 0.0
H395 H 0.12804 0.55067 0.56072 0.0
H396 H 0.12556 0.65241 0.56448 0.0
H397 H 0.12814 0.62086 0.5925 0.0
H398 H 0.09785 0.57385 0.54255 0.0
H399 H 0.09577 0.60537 0.5143 0.0
C400 C 0.11467 0.56064 0.62587 0.0
C401 C 0.12278 0.53895 0.61827 0.0
C402 C 0.11129 0.5787 0.61008 0.0
C403 C 0.11599 0.57542 0.58639 0.0
C404 C 0.12394 0.55364 0.5788 0.0
C405 C 0.12727 0.53557 0.59459 0.0
C406 C 0.11929 0.63538 0.55955 0.0
C407 C 0.11055 0.6313 0.5372 0.0
C408 C 0.12066 0.61733 0.57564 0.0
C409 C 0.11328 0.59484 0.56971 0.0
C410 C 0.104 0.59091 0.54751 0.0
C411 C 0.10266 0.60898 0.5314 0.0
H412 H 0.31976 0.10227 0.56581 0.0
H413 H 0.35214 0.16237 0.53469 0.0
H414 H 0.34805 0.10334 0.59726 0.0
H415 H 0.38057 0.16327 0.56599 0.0
H416 H 0.42012 0.16672 0.63412 0.0
H417 H 0.38653 0.16885 0.60832 0.0
H418 H 0.39007 0.09465 0.59779 0.0
H419 H 0.42338 0.0925 0.62365 0.0
C420 C 0.33271 0.11591 0.56588 0.0
C421 C 0.33391 0.13212 0.54773 0.0
C422 C 0.34896 0.11643 0.5838 0.0
C423 C 0.36664 0.13324 0.58393 0.0
C424 C 0.36705 0.15021 0.56643 0.0
C425 C 0.35084 0.14963 0.54846 0.0
C426 C 0.41356 0.15087 0.62643 0.0
C427 C 0.42439 0.12946 0.63077 0.0
C428 C 0.39441 0.1521 0.61164 0.0
C429 C 0.38568 0.13192 0.60109 0.0
C430 C 0.3962 0.11045 0.60593 0.0
C431 C 0.41539 0.10924 0.62058 0.0
H432 H 0.83586 0.4348 0.65943 0.0
H433 H 0.86668 0.48457 0.61262 0.0
H434 H 0.8298 0.40807 0.62719 0.0
H435 H 0.85971 0.45841 0.5802 0.0
H436 H 0.87725 0.39415 0.53764 0.0
H437 H 0.87716 0.42348 0.56773 0.0
H438 H 0.8104 0.3989 0.59157 0.0
H439 H 0.81096 0.36874 0.56167 0.0
C440 C 0.84086 0.4402 0.64214 0.0
C441 C 0.85204 0.46155 0.63851 0.0
C442 C 0.83728 0.42496 0.62363 0.0
C443 C 0.84456 0.43095 0.60113 0.0
C444 C 0.85444 0.45299 0.59739 0.0
C445 C 0.85832 0.46804 0.61592 0.0
C446 C 0.86247 0.39507 0.54918 0.0
C447 C 0.84416 0.37912 0.54738 0.0
C448 C 0.8623 0.41206 0.56635 0.0
C449 C 0.8437 0.41368 0.58203 0.0
C450 C 0.8251 0.39797 0.57993 0.0
C451 C 0.82536 0.3808 0.56277 0.0
H452 H 0.56463 0.84055 0.65051 0.0
H453 H 0.51572 0.87416 0.60478 0.0
H454 H 0.59277 0.83855 0.61892 0.0
H455 H 0.54348 0.87156 0.57307 0.0
H456 H 0.60788 0.89107 0.53204 0.0
H457 H 0.5794 0.89025 0.56312 0.0
H458 H 0.6014 0.82092 0.58163 0.0
H459 H 0.63044 0.82203 0.55075 0.0
C460 C 0.5598 0.8472 0.63361 0.0
C461 C 0.5381 0.85769 0.63011 0.0
C462 C 0.57586 0.84596 0.6155 0.0
C463 C 0.57044 0.8551 0.59354 0.0
C464 C 0.54838 0.86481 0.58991 0.0
C465 C 0.53241 0.86617 0.60802 0.0
C466 C 0.60665 0.87565 0.54274 0.0
C467 C 0.62135 0.85661 0.53899 0.0
C468 C 0.59021 0.8751 0.56045 0.0
C469 C 0.588 0.85544 0.57473 0.0
C470 C 0.6028 0.8364 0.57104 0.0
C471 C 0.61935 0.83699 0.55333 0.0
H472 H 0.32679 0.11516 0.41015 0.0
H473 H 0.34733 0.1758 0.44915 0.0
H474 H 0.35685 0.12319 0.38177 0.0
H475 H 0.37728 0.18422 0.42033 0.0
H476 H 0.44868 0.16256 0.38736 0.0
H477 H 0.41395 0.16543 0.41125 0.0
H478 H 0.37161 0.14838 0.3518 0.0
H479 H 0.40644 0.14487 0.3281 0.0
C480 C 0.3374 0.13053 0.41236 0.0
C481 C 0.33491 0.1447 0.43197 0.0
C482 C 0.35455 0.13525 0.39598 0.0
C483 C 0.36956 0.15429 0.39886 0.0
C484 C 0.36617 0.16925 0.41781 0.0
C485 C 0.34897 0.16451 0.43423 0.0
C486 C 0.43192 0.15988 0.37932 0.0
C487 C 0.43025 0.15312 0.356 0.0
C488 C 0.41198 0.16167 0.39296 0.0
C489 C 0.39003 0.15684 0.38347 0.0
C490 C 0.38831 0.15176 0.35971 0.0
C491 C 0.40824 0.14983 0.34612 0.0
H492 H 0.81936 0.38769 0.44947 0.0
H493 H 0.86025 0.33491 0.41541 0.0
H494 H 0.82113 0.4116 0.4147 0.0
H495 H 0.86162 0.35865 0.38037 0.0
H496 H 0.89025 0.42446 0.34281 0.0
H497 H 0.88213 0.39454 0.3715 0.0
H498 H 0.81046 0.41633 0.37407 0.0
H499 H 0.81874 0.44665 0.34561 0.0
C500 C 0.8283 0.38099 0.43437 0.0
C501 C 0.83991 0.35959 0.43521 0.0
C502 C 0.82919 0.39462 0.41438 0.0
C503 C 0.84169 0.38709 0.39484 0.0
C504 C 0.85217 0.36506 0.39528 0.0
C505 C 0.85129 0.35144 0.41529 0.0
C506 C 0.87269 0.42264 0.34925 0.0
C507 C 0.85519 0.43803 0.3422 0.0
C508 C 0.86798 0.40538 0.36557 0.0
C509 C 0.84567 0.40315 0.37515 0.0
C510 C 0.82789 0.41784 0.36722 0.0
C511 C 0.83261 0.43512 0.35088 0.0
H512 H 0.57341 0.87427 0.31862 0.0
H513 H 0.53692 0.81523 0.34704 0.0
H514 H 0.60383 0.86942 0.34743 0.0
H515 H 0.56777 0.80986 0.37546 0.0
H516 H 0.59952 0.83819 0.44338 0.0
H517 H 0.57569 0.83324 0.40912 0.0
H518 H 0.63501 0.84764 0.36556 0.0
H519 H 0.65894 0.85312 0.40021 0.0
C520 C 0.57227 0.85979 0.33056 0.0
C521 C 0.55259 0.84541 0.33092 0.0
C522 C 0.58978 0.85693 0.34702 0.0
C523 C 0.58797 0.83954 0.36404 0.0
C524 C 0.56936 0.82378 0.36291 0.0
C525 C 0.55177 0.82675 0.34656 0.0
C526 C 0.60757 0.84011 0.4265 0.0
C527 C 0.63102 0.84628 0.42445 0.0
C528 C 0.59395 0.837 0.40682 0.0
C529 C 0.60347 0.83993 0.38457 0.0
C530 C 0.62716 0.84541 0.38247 0.0
C531 C 0.64084 0.84852 0.40227 0.0
H532 H 0.10426 0.65477 0.40893 0.0
H533 H 0.1669 0.63359 0.44412 0.0
H534 H 0.11181 0.62656 0.37847 0.0
H535 H 0.17482 0.60566 0.41328 0.0
H536 H 0.15575 0.53602 0.37638 0.0
H537 H 0.15701 0.5691 0.4026 0.0
H538 H 0.13626 0.61448 0.34661 0.0
H539 H 0.13446 0.5812 0.32049 0.0
C540 C 0.11991 0.64442 0.40988 0.0
C541 C 0.13486 0.64617 0.42901 0.0
C542 C 0.12434 0.62834 0.39234 0.0
C543 C 0.14385 0.61374 0.39353 0.0
C544 C 0.15946 0.61642 0.41206 0.0
C545 C 0.15499 0.63247 0.42965 0.0
C546 C 0.15186 0.55312 0.36958 0.0
C547 C 0.14474 0.55601 0.34649 0.0
C548 C 0.15271 0.57212 0.38457 0.0
C549 C 0.14653 0.59441 0.37673 0.0
C550 C 0.14075 0.59747 0.35325 0.0
C551 C 0.13984 0.57844 0.33828 0.0
H552 H 0.32453 0.86179 0.58569 0.0
H553 H 0.37348 0.81682 0.5511 0.0
H554 H 0.34897 0.86175 0.62025 0.0
H555 H 0.39812 0.81725 0.58524 0.0
H556 H 0.43777 0.81602 0.65078 0.0
H557 H 0.4049 0.80794 0.62536 0.0
H558 H 0.38572 0.88048 0.6275 0.0
H559 H 0.4181 0.88834 0.65334 0.0
C560 C 0.34028 0.85153 0.58564 0.0
C561 C 0.34729 0.83956 0.56562 0.0
C562 C 0.35433 0.85163 0.60537 0.0
C563 C 0.37566 0.83979 0.6054 0.0
C564 C 0.38174 0.82642 0.58593 0.0
C565 C 0.36767 0.82628 0.56626 0.0
C566 C 0.42624 0.83012 0.64614 0.0
C567 C 0.43064 0.85287 0.65376 0.0
C568 C 0.40748 0.82552 0.63154 0.0
C569 C 0.39282 0.84359 0.6242 0.0
C570 C 0.39648 0.86608 0.63299 0.0
C571 C 0.41517 0.87065 0.64767 0.0
H572 H 0.18282 0.44012 0.61454 0.0
H573 H 0.12952 0.40238 0.65136 0.0
H574 H 0.18579 0.40847 0.58658 0.0
H575 H 0.13211 0.37105 0.62321 0.0
H576 H 0.1413 0.31577 0.56976 0.0
H577 H 0.15308 0.34008 0.60257 0.0
H578 H 0.1569 0.39953 0.55694 0.0
H579 H 0.14547 0.37537 0.52444 0.0
C580 C 0.17218 0.42481 0.617 0.0
C581 C 0.15559 0.42389 0.63481 0.0
C582 C 0.17381 0.40674 0.60095 0.0
C583 C 0.15884 0.38751 0.60242 0.0
C584 C 0.14393 0.38559 0.62161 0.0
C585 C 0.14234 0.40362 0.63768 0.0
C586 C 0.14509 0.33395 0.56677 0.0
C587 C 0.1422 0.34379 0.54467 0.0
C588 C 0.1518 0.34784 0.58551 0.0
C589 C 0.1559 0.37171 0.58235 0.0
C590 C 0.15423 0.38115 0.55994 0.0
C591 C 0.14741 0.36735 0.54133 0.0
H592 H 0.52189 0.12704 0.59579 0.0
H593 H 0.56586 0.14179 0.65462 0.0
H594 H 0.55541 0.12907 0.57019 0.0
H595 H 0.59952 0.14404 0.62886 0.0
H596 H 0.65422 0.1128 0.57712 0.0
H597 H 0.62225 0.11632 0.60472 0.0
H598 H 0.58384 0.15713 0.55497 0.0
H599 H 0.61559 0.15336 0.52732 0.0
C600 C 0.53871 0.13091 0.60321 0.0
C601 C 0.5413 0.13419 0.62718 0.0
C602 C 0.55789 0.13223 0.58854 0.0
C603 C 0.58008 0.13678 0.59752 0.0
C604 C 0.58264 0.14035 0.62149 0.0
C605 C 0.56339 0.13916 0.63619 0.0
C606 C 0.63907 0.12276 0.57223 0.0
C607 C 0.63727 0.13261 0.55002 0.0
C608 C 0.62082 0.12487 0.58805 0.0
C609 C 0.60047 0.13681 0.58189 0.0
C610 C 0.59916 0.14751 0.56004 0.0
C611 C 0.61738 0.14544 0.54427 0.0
H612 H 0.88812 0.57921 0.66604 0.0
H613 H 0.81733 0.55511 0.66115 0.0
H614 H 0.87974 0.60985 0.63828 0.0
H615 H 0.8088 0.58611 0.63347 0.0
H616 H 0.82298 0.61099 0.55683 0.0
H617 H 0.82199 0.58931 0.59301 0.0
H618 H 0.85839 0.64511 0.62744 0.0
H619 H 0.85965 0.66675 0.59099 0.0
C620 C 0.87059 0.58087 0.6595 0.0
C621 C 0.85348 0.56458 0.66544 0.0
C622 C 0.86573 0.59855 0.6437 0.0
C623 C 0.84366 0.60022 0.63349 0.0
C624 C 0.82604 0.58502 0.64084 0.0
C625 C 0.8309 0.56736 0.65675 0.0
C626 C 0.83036 0.61883 0.57222 0.0
C627 C 0.84171 0.64037 0.57104 0.0
C628 C 0.82962 0.6065 0.59303 0.0
C629 C 0.84026 0.61545 0.61305 0.0
C630 C 0.85027 0.63769 0.61221 0.0
C631 C 0.85095 0.65008 0.59138 0.0
H632 H 0.33005 0.39715 0.11602 0.0
H633 H 0.37481 0.44475 0.15277 0.0
H634 H 0.35876 0.36638 0.12081 0.0
H635 H 0.40362 0.41412 0.15727 0.0
H636 H 0.44763 0.35112 0.1714 0.0
H637 H 0.41319 0.37577 0.17433 0.0
H638 H 0.39707 0.36149 0.10258 0.0
H639 H 0.43117 0.33682 0.09974 0.0
C640 C 0.34587 0.40093 0.12541 0.0
C641 C 0.35035 0.42339 0.13378 0.0
C642 C 0.36231 0.38336 0.12808 0.0
C643 C 0.38351 0.38791 0.13922 0.0
C644 C 0.38737 0.41002 0.14878 0.0
C645 C 0.37094 0.42761 0.14607 0.0
C646 C 0.43648 0.35299 0.1564 0.0
C647 C 0.44214 0.34225 0.13528 0.0
C648 C 0.41686 0.36714 0.15806 0.0
C649 C 0.4025 0.3706 0.13867 0.0
C650 C 0.40763 0.35894 0.1179 0.0
C651 C 0.42727 0.34495 0.11622 0.0
H652 H 0.43775 0.65534 0.87542 0.0
H653 H 0.46764 0.62361 0.81446 0.0
H654 H 0.40405 0.62988 0.87212 0.0
H655 H 0.43381 0.59843 0.81098 0.0
H656 H 0.39323 0.53524 0.83918 0.0
H657 H 0.42229 0.56561 0.83612 0.0
H658 H 0.36969 0.61761 0.84831 0.0
H659 H 0.34035 0.58693 0.85155 0.0
C660 C 0.43688 0.64327 0.86104 0.0
C661 C 0.45543 0.64116 0.8454 0.0
C662 C 0.41753 0.6288 0.85908 0.0
C663 C 0.41649 0.612 0.84147 0.0
C664 C 0.43438 0.61098 0.82496 0.0
C665 C 0.45368 0.62544 0.8269 0.0
C666 C 0.38779 0.55315 0.84108 0.0
C667 C 0.36457 0.55875 0.84571 0.0
C668 C 0.40441 0.57056 0.8391 0.0
C669 C 0.39821 0.59398 0.84181 0.0
C670 C 0.37491 0.59967 0.8462 0.0
C671 C 0.35817 0.58217 0.84802 0.0
H672 H 0.45389 0.38166 0.83352 0.0
H673 H 0.4073 0.32957 0.86076 0.0
H674 H 0.42156 0.40802 0.82813 0.0
H675 H 0.37455 0.35603 0.85493 0.0
H676 H 0.33494 0.42539 0.87402 0.0
H677 H 0.36133 0.39231 0.8729 0.0
H678 H 0.38661 0.41489 0.80603 0.0
H679 H 0.36073 0.4483 0.8075 0.0
C680 C 0.43665 0.37573 0.83808 0.0
C681 C 0.43312 0.35363 0.8477 0.0
C682 C 0.41805 0.39077 0.83477 0.0
C683 C 0.39544 0.38407 0.84098 0.0
C684 C 0.39179 0.36171 0.8501 0.0
C685 C 0.41049 0.34657 0.85338 0.0
C686 C 0.34578 0.42297 0.85886 0.0
C687 C 0.34613 0.43958 0.84103 0.0
C688 C 0.36082 0.40396 0.85817 0.0
C689 C 0.37634 0.40124 0.83956 0.0
C690 C 0.37522 0.41684 0.82085 0.0
C691 C 0.36034 0.4359 0.82163 0.0
H692 H 0.65046 0.41738 0.81971 0.0
H693 H 0.66098 0.39201 0.88942 0.0
H694 H 0.62008 0.38849 0.81385 0.0
H695 H 0.63026 0.36359 0.88381 0.0
H696 H 0.57525 0.31127 0.86727 0.0
H697 H 0.61327 0.32998 0.86432 0.0
H698 H 0.58145 0.38896 0.83058 0.0
H699 H 0.54385 0.3702 0.83316 0.0
C700 C 0.64666 0.40527 0.83358 0.0
C701 C 0.65775 0.4072 0.85516 0.0
C702 C 0.62918 0.38882 0.83027 0.0
C703 C 0.62244 0.37411 0.84853 0.0
C704 C 0.63507 0.37461 0.86936 0.0
C705 C 0.65262 0.391 0.87263 0.0
C706 C 0.57653 0.32808 0.85893 0.0
C707 C 0.55661 0.33942 0.85066 0.0
C708 C 0.59824 0.33878 0.85726 0.0
C709 C 0.60038 0.36093 0.84721 0.0
C710 C 0.58052 0.37173 0.83807 0.0
C711 C 0.55889 0.36109 0.83978 0.0
H712 H 0.61852 0.50495 0.84499 0.0
H713 H 0.6703 0.55103 0.87357 0.0
H714 H 0.59197 0.53766 0.84062 0.0
H715 H 0.64363 0.58363 0.86959 0.0
H716 H 0.59531 0.64041 0.84259 0.0
H717 H 0.62299 0.60822 0.84128 0.0
H718 H 0.57038 0.5619 0.86799 0.0
H719 H 0.54279 0.59379 0.86895 0.0
C720 C 0.62426 0.52209 0.8502 0.0
C721 C 0.64638 0.52545 0.85977 0.0
C722 C 0.60904 0.54078 0.8478 0.0
C723 C 0.61568 0.56317 0.85491 0.0
C724 C 0.63811 0.56663 0.86375 0.0
C725 C 0.65331 0.54794 0.86618 0.0
C726 C 0.5897 0.6233 0.84806 0.0
C727 C 0.56696 0.61958 0.85593 0.0
C728 C 0.60553 0.60493 0.84738 0.0
C729 C 0.59881 0.58254 0.85446 0.0
C730 C 0.57597 0.57886 0.86207 0.0
C731 C 0.56022 0.59718 0.8628 0.0
H732 H 0.63825 0.58817 0.11411 0.0
H733 H 0.61957 0.56236 0.1819 0.0
H734 H 0.61009 0.61916 0.11796 0.0
H735 H 0.592 0.5942 0.18639 0.0
H736 H 0.52142 0.62712 0.16581 0.0
H737 H 0.55533 0.60275 0.17096 0.0
H738 H 0.59731 0.65373 0.13519 0.0
H739 H 0.5629 0.67756 0.12902 0.0
C740 C 0.62848 0.58948 0.13011 0.0
C741 C 0.63084 0.5727 0.14758 0.0
C742 C 0.61243 0.60743 0.13244 0.0
C743 C 0.59859 0.60919 0.15247 0.0
C744 C 0.60202 0.59312 0.17055 0.0
C745 C 0.61787 0.57494 0.16805 0.0
C746 C 0.53799 0.63333 0.15946 0.0
C747 C 0.5395 0.65401 0.14667 0.0
C748 C 0.55754 0.61941 0.16254 0.0
C749 C 0.57907 0.62605 0.15317 0.0
C750 C 0.58089 0.64777 0.1421 0.0
C751 C 0.56124 0.66153 0.1387 0.0
H752 H 0.34858 0.53841 0.15821 0.0
H753 H 0.34723 0.54619 0.08371 0.0
H754 H 0.37279 0.57313 0.1613 0.0
H755 H 0.37167 0.58055 0.08675 0.0
H756 H 0.40186 0.65164 0.10054 0.0
H757 H 0.37265 0.62082 0.1006 0.0
H758 H 0.41286 0.58279 0.15115 0.0
H759 H 0.4417 0.61363 0.15137 0.0
C760 C 0.35338 0.5476 0.14253 0.0
C761 C 0.34616 0.53955 0.12072 0.0
C762 C 0.36728 0.56741 0.14428 0.0
C763 C 0.37416 0.57954 0.12426 0.0
C764 C 0.36641 0.57178 0.10251 0.0
C765 C 0.35257 0.55198 0.10076 0.0
C766 C 0.40426 0.63681 0.11184 0.0
C767 C 0.42408 0.63495 0.12584 0.0
C768 C 0.38763 0.61914 0.1118 0.0
C769 C 0.39052 0.59935 0.12582 0.0
C770 C 0.40999 0.59793 0.14037 0.0
C771 C 0.4266 0.61553 0.14037 0.0
H772 H 0.6426 0.43787 0.11325 0.0
H773 H 0.6189 0.4627 0.17984 0.0
H774 H 0.61859 0.4035 0.11734 0.0
H775 H 0.59485 0.42784 0.18412 0.0
H776 H 0.53137 0.3818 0.16053 0.0
H777 H 0.55956 0.41307 0.16478 0.0
H778 H 0.61358 0.36771 0.13943 0.0
H779 H 0.58526 0.33657 0.13471 0.0
C780 C 0.63243 0.43583 0.12892 0.0
C781 C 0.63248 0.45302 0.14616 0.0
C782 C 0.61883 0.416 0.13136 0.0
C783 C 0.60489 0.41291 0.1511 0.0
C784 C 0.60534 0.42984 0.16867 0.0
C785 C 0.61911 0.44972 0.16626 0.0
C786 C 0.54935 0.3784 0.15623 0.0
C787 C 0.55609 0.35688 0.14696 0.0
C788 C 0.56552 0.39627 0.15882 0.0
C789 C 0.58873 0.39292 0.1522 0.0
C790 C 0.59572 0.37091 0.14431 0.0
C791 C 0.57954 0.35306 0.14168 0.0
H792 H 0.03751 0.27166 0.47562 0.0
H793 H 0.03935 0.32835 0.52465 0.0
H794 H -0.00472 0.27069 0.47831 0.0
H795 H -0.00285 0.32768 0.52701 0.0
H796 H 0.92177 0.31047 0.53888 0.0
H797 H 0.96372 0.30471 0.53982 0.0
H798 H 0.96417 0.29643 0.46535 0.0
H799 H 0.92229 0.30175 0.46447 0.0
C800 C 0.02888 0.28381 0.48707 0.0
C801 C 0.04165 0.30019 0.49981 0.0
C802 C 0.00473 0.28331 0.48854 0.0
C803 C 0.9929 0.29918 0.50278 0.0
C804 C 0.00577 0.31505 0.51609 0.0
C805 C 0.02992 0.31555 0.51462 0.0
C806 C 0.93083 0.30711 0.52277 0.0
C807 C 0.91883 0.30667 0.50159 0.0
C808 C 0.95483 0.30394 0.5233 0.0
C809 C 0.96724 0.30024 0.50265 0.0
C810 C 0.95507 0.29898 0.48158 0.0
C811 C 0.9311 0.30216 0.48106 0.0
H812 H 0.72271 0.04856 0.46648 0.0
H813 H 0.68546 0.04002 0.53092 0.0
H814 H 0.72574 0.00629 0.46277 0.0
H815 H 0.68835 -0.00193 0.52718 0.0
H816 H 0.70651 0.92347 0.52258 0.0
H817 H 0.71513 0.96473 0.52654 0.0
H818 H 0.69604 0.97565 0.45493 0.0
H819 H 0.68768 0.93428 0.45088 0.0
C820 C 0.71556 0.03766 0.48003 0.0
C821 C 0.70371 0.0475 0.49891 0.0
C822 C 0.71719 0.01352 0.47784 0.0
C823 C 0.70722 -0.0011 0.49464 0.0
C824 C 0.69644 0.00886 0.51409 0.0
C825 C 0.69465 0.0329 0.51616 0.0
C826 C 0.70454 0.93461 0.50757 0.0
C827 C 0.69613 0.92575 0.4865 0.0
C828 C 0.70942 0.95823 0.50986 0.0
C829 C 0.70603 0.97344 0.49112 0.0
C830 C 0.69899 0.96432 0.46964 0.0
C831 C 0.69406 0.94067 0.46735 0.0
H832 H 0.93557 0.67491 0.53571 0.0
H833 H 0.92084 0.71381 0.47336 0.0
H834 H 0.97643 0.68482 0.53226 0.0
H835 H 0.96182 0.72417 0.47012 0.0
H836 H 0.03842 0.70058 0.45558 0.0
H837 H -0.00347 0.7021 0.46036 0.0
H838 H 0.00532 0.71566 0.53353 0.0
H839 H 0.04734 0.71364 0.5288 0.0
C840 C 0.94104 0.68589 0.52146 0.0
C841 C 0.9251 0.69339 0.50467 0.0
C842 C 0.96443 0.69177 0.51959 0.0
C843 C 0.97237 0.70529 0.5009 0.0
C844 C 0.95625 0.71354 0.48459 0.0
C845 C 0.93281 0.70765 0.48646 0.0
C846 C 0.03142 0.70439 0.47259 0.0
C847 C 0.0461 0.70665 0.49188 0.0
C848 C 0.0074 0.70539 0.47532 0.0
C849 C -0.00239 0.70869 0.49739 0.0
C850 C 0.01237 0.71267 0.51638 0.0
C851 C 0.03641 0.71166 0.51365 0.0
H852 H 0.25971 0.04421 0.48713 0.0
H853 H 0.33455 0.04775 0.48506 0.0
H854 H 0.26187 0.00182 0.49002 0.0
H855 H 0.33665 0.00563 0.4878 0.0
H856 H 0.33173 0.93527 0.52321 0.0
H857 H 0.32742 0.97712 0.51912 0.0
H858 H 0.27502 0.96673 0.46661 0.0
H859 H 0.27925 0.92461 0.47079 0.0
C860 C 0.27657 0.03592 0.48711 0.0
C861 C 0.29696 0.04923 0.48602 0.0
C862 C 0.27779 0.01172 0.48868 0.0
C863 C 0.29943 0.00054 0.48934 0.0
C864 C 0.31976 0.01386 0.48769 0.0
C865 C 0.31854 0.03795 0.486 0.0
C866 C 0.31922 0.94188 0.51086 0.0
C867 C 0.3059 0.92673 0.49723 0.0
C868 C 0.31685 0.96583 0.50843 0.0
C869 C 0.30104 0.97511 0.49241 0.0
C870 C 0.28727 0.95998 0.47915 0.0
C871 C 0.28976 0.93594 0.48148 0.0
H872 H 0.51537 0.94624 0.31996 0.0
H873 H 0.4684 0.94205 0.26168 0.0
H874 H 0.51049 0.98819 0.32093 0.0
H875 H 0.46386 0.9845 0.26256 0.0
H876 H 0.49174 0.06556 0.26659 0.0
H877 H 0.49372 0.02347 0.25989 0.0
H878 H 0.47021 0.01123 0.32986 0.0
H879 H 0.46788 0.05293 0.33655 0.0
C880 C 0.50426 0.95431 0.30714 0.0
C881 C 0.4921 0.9409 0.29086 0.0
C882 C 0.50143 0.97827 0.30778 0.0
C883 C 0.48663 0.98932 0.29199 0.0
C884 C 0.47532 0.97619 0.2749 0.0
C885 C 0.47791 0.95203 0.27444 0.0
C886 C 0.4866 0.05383 0.28036 0.0
C887 C 0.47988 0.06243 0.30216 0.0
C888 C 0.48768 0.02987 0.27649 0.0
C889 C 0.48234 0.01437 0.29447 0.0
C890 C 0.47459 0.02298 0.31584 0.0
C891 C 0.47322 0.0468 0.31961 0.0
H892 H 0.94493 0.46463 0.27544 0.0
H893 H 0.93833 0.53937 0.27457 0.0
H894 H 0.98672 0.4683 0.27061 0.0
H895 H 0.98014 0.54304 0.26929 0.0
H896 H 0.05165 0.53493 0.30681 0.0
H897 H 0.01044 0.53538 0.29807 0.0
H898 H 0.02041 0.48098 0.24743 0.0
H899 H 0.06185 0.48034 0.25646 0.0
C900 C 0.95235 0.48182 0.27358 0.0
C901 C 0.9385 0.50173 0.27582 0.0
C902 C 0.97628 0.48393 0.27065 0.0
C903 C 0.98672 0.50598 0.26988 0.0
C904 C 0.97258 0.52584 0.27022 0.0
C905 C 0.94866 0.52373 0.27317 0.0
C906 C 0.04512 0.52334 0.29353 0.0
C907 C 0.05984 0.5074 0.28252 0.0
C908 C 0.02154 0.52374 0.28836 0.0
C909 C 0.01219 0.50816 0.2721 0.0
C910 C 0.02714 0.49303 0.26018 0.0
C911 C 0.05082 0.49271 0.2653 0.0
H912 H 0.52922 0.94468 0.68388 0.0
H913 H 0.46943 0.93851 0.72861 0.0
H914 H 0.52829 0.98655 0.68813 0.0
H915 H 0.46887 0.98068 0.73351 0.0
H916 H 0.45407 0.05293 0.69936 0.0
H917 H 0.45818 0.01177 0.70775 0.0
H918 H 0.53258 0.02014 0.71212 0.0
H919 H 0.52844 0.06128 0.7029 0.0
C920 C 0.51618 0.95228 0.69508 0.0
C921 C 0.49919 0.93841 0.70566 0.0
C922 C 0.51577 0.97631 0.6977 0.0
C923 C 0.49841 0.987 0.71107 0.0
C924 C 0.48225 0.97297 0.72282 0.0
C925 C 0.48262 0.94885 0.72011 0.0
C926 C 0.47126 0.04605 0.70252 0.0
C927 C 0.49097 0.06016 0.70008 0.0
C928 C 0.47363 0.02247 0.70753 0.0
C929 C 0.49575 0.0126 0.71035 0.0
C930 C 0.51534 0.02714 0.70959 0.0
C931 C 0.51297 0.0507 0.70439 0.0
H932 H 0.95197 0.52251 0.71531 0.0
H933 H 0.94084 0.45234 0.69116 0.0
H934 H -0.00622 0.51658 0.71322 0.0
H935 H 0.98266 0.44627 0.68949 0.0
H936 H 0.05328 0.46141 0.65379 0.0
H937 H 0.01216 0.46193 0.66318 0.0
H938 H 0.02738 0.49512 0.72863 0.0
H939 H 0.06866 0.49494 0.71903 0.0
C940 C 0.95848 0.50569 0.70998 0.0
C941 C 0.94323 0.48798 0.70312 0.0
C942 C 0.9824 0.50224 0.70893 0.0
C943 C 0.99144 0.48102 0.701 0.0
C944 C 0.97614 0.46291 0.69532 0.0
C945 C 0.95223 0.46637 0.69636 0.0
C946 C 0.04788 0.46858 0.67029 0.0
C947 C 0.06408 0.47831 0.6856 0.0
C948 C 0.02434 0.46871 0.67575 0.0
C949 C 0.01658 0.47859 0.69663 0.0
C950 C 0.03289 0.48761 0.71232 0.0
C951 C 0.05648 0.48743 0.70686 0.0
H952 H 0.33758 0.51194 0.93274 0.0
H953 H 0.26802 0.48724 0.91956 0.0
H954 H 0.333 0.50299 0.97369 0.0
H955 H 0.26345 0.47829 0.96092 0.0
H956 H 0.26381 0.49272 0.04313 0.0
H957 H 0.26334 0.4996 0.00116 0.0
H958 H 0.329 0.46418 -0.00525 0.0
H959 H 0.32956 0.45734 0.03637 0.0
C960 C 0.32122 0.50479 0.93863 0.0
C961 C 0.30321 0.50012 0.92296 0.0
C962 C 0.31867 0.49953 0.96204 0.0
C963 C 0.29802 0.48962 0.9703 0.0
C964 C 0.27956 0.48587 0.95488 0.0
C965 C 0.28219 0.49097 0.9313 0.0
C966 C 0.27788 0.48602 0.03264 0.0
C967 C 0.29686 0.47476 0.04299 0.0
C968 C 0.27759 0.48995 0.00869 0.0
C969 C 0.29635 0.48278 -0.00509 0.0
C970 C 0.31456 0.47027 0.00512 0.0
C971 C 0.3148 0.46626 0.0289 0.0
H972 H 0.50628 0.26824 0.93235 0.0
H973 H 0.4844 0.33956 0.9402 0.0
H974 H 0.51307 0.26576 0.97419 0.0
H975 H 0.49075 0.33698 0.98179 0.0
H976 H 0.52785 0.3349 0.04963 0.0
H977 H 0.52412 0.33407 0.00762 0.0
H978 H 0.49199 0.26638 0.01171 0.0
H979 H 0.49618 0.26701 0.05391 0.0
C980 C 0.50273 0.28328 0.94304 0.0
C981 C 0.49494 0.30413 0.93306 0.0
C982 C 0.50658 0.28186 0.96694 0.0
C983 C 0.50273 0.30127 0.98119 0.0
C984 C 0.49437 0.32189 0.97119 0.0
C985 C 0.49055 0.32331 0.94739 0.0
C986 C 0.52028 0.3197 0.04155 0.0
C987 C 0.51211 0.30111 0.05501 0.0
C988 C 0.51799 0.3193 0.01751 0.0
C989 C 0.50739 0.30034 0.00643 0.0
C990 C 0.50028 0.2812 0.01978 0.0
C991 C 0.50263 0.28158 0.04391 0.0
H992 H 0.72463 0.49545 0.94522 0.0
H993 H 0.65682 0.46396 0.95056 0.0
H994 H 0.72233 0.50728 0.98582 0.0
H995 H 0.65478 0.47508 0.99119 0.0
H996 H 0.64561 0.51954 0.05411 0.0
H997 H 0.65012 0.51028 0.01318 0.0
H998 H 0.72191 0.49227 0.0251 0.0
H999 H 0.71754 0.50226 0.06598 0.0
C1000 C 0.70941 0.49077 0.95519 0.0
C1001 C 0.69085 0.47891 0.94479 0.0
C1002 C 0.70809 0.49751 0.97841 0.0
C1003 C 0.68824 0.49238 0.99161 0.0
C1004 C 0.67006 0.4798 0.98132 0.0
C1005 C 0.67131 0.47323 0.95812 0.0
C1006 C 0.66243 0.51391 0.04791 0.0
C1007 C 0.68119 0.51148 0.06318 0.0
C1008 C 0.66497 0.5084 0.02452 0.0
C1009 C 0.68627 0.50015 0.016 0.0
C1010 C 0.70531 0.49867 0.03112 0.0
C1011 C 0.70281 0.50435 0.05452 0.0
H1012 H 0.47997 0.70593 0.92609 0.0
H1013 H 0.54719 0.67536 0.93879 0.0
H1014 H 0.47248 0.70684 0.96764 0.0
H1015 H 0.53996 0.67682 0.98043 0.0
H1016 H 0.50528 0.65195 0.04732 0.0
H1017 H 0.5146 0.65532 0.00628 0.0
H1018 H 0.48343 0.72356 0.0047 0.0
H1019 H 0.4736 0.71992 0.04572 0.0
C1020 C 0.49334 0.69988 0.93781 0.0
C1021 C 0.51407 0.69038 0.92925 0.0
C1022 C 0.48908 0.70045 0.96161 0.0
C1023 C 0.50551 0.69161 0.97729 0.0
C1024 C 0.52677 0.6833 0.96874 0.0
C1025 C 0.531 0.68265 0.94493 0.0
C1026 C 0.50034 0.66763 0.03818 0.0
C1027 C 0.48866 0.68564 0.04965 0.0
C1028 C 0.50589 0.66967 0.01474 0.0
C1029 C 0.49994 0.68981 0.0023 0.0
C1030 C 0.4881 0.70777 0.01378 0.0
C1031 C 0.48249 0.7057 0.03724 0.0
H1032 H 0.16448 0.25191 0.45196 0.0
H1033 H 0.13284 0.22848 0.51575 0.0
H1034 H 0.18934 0.21778 0.45177 0.0
H1035 H 0.15746 0.19399 0.51533 0.0
H1036 H 0.23213 0.16325 0.52373 0.0
H1037 H 0.19908 0.18942 0.52202 0.0
H1038 H 0.19173 0.17546 0.44876 0.0
H1039 H 0.2252 0.14955 0.4504 0.0
C1040 C 0.16255 0.23922 0.4657 0.0
C1041 C 0.14699 0.24295 0.48403 0.0
C1042 C 0.17665 0.21957 0.4655 0.0
C1043 C 0.17541 0.20328 0.48361 0.0
C1044 C 0.15896 0.20642 0.50131 0.0
C1045 C 0.14486 0.2261 0.50151 0.0
C1046 C 0.22322 0.16547 0.50735 0.0
C1047 C 0.23138 0.15467 0.48714 0.0
C1048 C 0.20417 0.18032 0.5064 0.0
C1049 C 0.19293 0.1846 0.48521 0.0
C1050 C 0.20028 0.17271 0.46525 0.0
C1051 C 0.21936 0.15784 0.46621 0.0
H1052 H 0.7413 0.16622 0.5397 0.0
H1053 H 0.74456 0.16693 0.46483 0.0
H1054 H 0.76668 0.2002 0.54106 0.0
H1055 H 0.77 0.20072 0.46624 0.0
H1056 H 0.78382 0.27813 0.47802 0.0
H1057 H 0.76208 0.24184 0.47788 0.0
H1058 H 0.80698 0.21444 0.53122 0.0
H1059 H 0.82877 0.25092 0.53147 0.0
C1060 C 0.74777 0.17339 0.52358 0.0
C1061 C 0.74082 0.16412 0.50215 0.0
C1062 C 0.76231 0.19277 0.52436 0.0
C1063 C 0.76998 0.20323 0.50374 0.0
C1064 C 0.76396 0.19321 0.48237 0.0
C1065 C 0.74955 0.1738 0.48159 0.0
C1066 C 0.78898 0.26442 0.48981 0.0
C1067 C 0.80796 0.26729 0.50474 0.0
C1068 C 0.77668 0.24359 0.48958 0.0
C1069 C 0.78306 0.22528 0.50435 0.0
C1070 C 0.80172 0.22832 0.51968 0.0
C1071 C 0.81415 0.24915 0.51981 0.0
H1072 H 0.83098 0.74898 0.49686 0.0
H1073 H 0.7774 0.69699 0.50405 0.0
H1074 H 0.80148 0.77894 0.49255 0.0
H1075 H 0.74785 0.72702 0.50052 0.0
H1076 H 0.70176 0.78277 0.46886 0.0
H1077 H 0.73157 0.75297 0.47215 0.0
H1078 H 0.77256 0.79892 0.515 0.0
H1079 H 0.74306 0.82895 0.51106 0.0
C1080 C 0.81288 0.74401 0.49767 0.0
C1081 C 0.80643 0.72072 0.50076 0.0
C1082 C 0.79599 0.76116 0.49533 0.0
C1083 C 0.77233 0.75535 0.49622 0.0
C1084 C 0.76593 0.73201 0.4994 0.0
C1085 C 0.78283 0.71484 0.50157 0.0
C1086 C 0.71718 0.78648 0.47893 0.0
C1087 C 0.72016 0.80812 0.48969 0.0
C1088 C 0.73418 0.76938 0.48094 0.0
C1089 C 0.7544 0.77357 0.49388 0.0
C1090 C 0.75733 0.79528 0.50463 0.0
C1091 C 0.7404 0.81242 0.50249 0.0
H1092 H 0.18579 0.71393 0.51648 0.0
H1093 H 0.14837 0.76 0.47064 0.0
H1094 H 0.21764 0.74154 0.51827 0.0
H1095 H 0.18059 0.78773 0.47234 0.0
H1096 H 0.23498 0.83962 0.50307 0.0
H1097 H 0.2014 0.81369 0.50126 0.0
H1098 H 0.24706 0.75537 0.48976 0.0
H1099 H 0.28052 0.78112 0.49173 0.0
C1100 C 0.18435 0.73002 0.50683 0.0
C1101 C 0.16469 0.7348 0.4933 0.0
C1102 C 0.20264 0.74575 0.50777 0.0
C1103 C 0.20164 0.76661 0.49526 0.0
C1104 C 0.18171 0.77176 0.48221 0.0
C1105 C 0.16336 0.75591 0.48118 0.0
C1106 C 0.23779 0.82126 0.50013 0.0
C1107 C 0.26032 0.81231 0.49767 0.0
C1108 C 0.2186 0.80649 0.49897 0.0
C1109 C 0.2217 0.78256 0.49551 0.0
C1110 C 0.24423 0.77372 0.49277 0.0
C1111 C 0.26335 0.78846 0.4938 0.0
H1112 H 0.53214 0.15898 0.25253 0.0
H1113 H 0.46431 0.18858 0.26442 0.0
H1114 H 0.53629 0.18276 0.21757 0.0
H1115 H 0.46855 0.21237 0.22987 0.0
H1116 H 0.47276 0.23868 0.15781 0.0
H1117 H 0.47073 0.20851 0.18739 0.0
H1118 H 0.54057 0.225 0.20898 0.0
H1119 H 0.54278 0.25492 0.17907 0.0
C1120 C 0.51815 0.17052 0.24764 0.0
C1121 C 0.49794 0.17203 0.26116 0.0
C1122 C 0.52053 0.18411 0.2277 0.0
C1123 C 0.50267 0.19925 0.22095 0.0
C1124 C 0.48242 0.20053 0.23441 0.0
C1125 C 0.48008 0.18707 0.25432 0.0
C1126 C 0.48782 0.23558 0.16861 0.0
C1127 C 0.50781 0.2493 0.16641 0.0
C1128 C 0.48662 0.2184 0.18558 0.0
C1129 C 0.50536 0.21469 0.20067 0.0
C1130 C 0.5259 0.22743 0.19751 0.0
C1131 C 0.52712 0.24462 0.18048 0.0
H1132 H 0.81924 0.4652 0.24584 0.0
H1133 H 0.83401 0.53857 0.24054 0.0
H1134 H 0.78892 0.46914 0.21687 0.0
H1135 H 0.80427 0.54243 0.21073 0.0
H1136 H 0.72793 0.54486 0.18704 0.0
H1137 H 0.76302 0.54199 0.21031 0.0
H1138 H 0.77937 0.47643 0.17754 0.0
H1139 H 0.74369 0.47891 0.15504 0.0
C1140 C 0.8163 0.48208 0.23809 0.0
C1141 C 0.82873 0.50163 0.24556 0.0
C1142 C 0.79903 0.48434 0.22136 0.0
C1143 C 0.79406 0.50615 0.21158 0.0
C1144 C 0.80737 0.52549 0.21826 0.0
C1145 C 0.82447 0.52326 0.23521 0.0
C1146 C 0.73915 0.52994 0.18473 0.0
C1147 C 0.73304 0.51197 0.16951 0.0
C1148 C 0.75935 0.52837 0.1979 0.0
C1149 C 0.77396 0.50892 0.19585 0.0
C1150 C 0.76826 0.49142 0.17985 0.0
C1151 C 0.74791 0.49287 0.16691 0.0
H1152 H 0.4931 0.76401 0.13434 0.0
H1153 H 0.44458 0.73112 0.18109 0.0
H1154 H 0.49311 0.79869 0.15857 0.0
H1155 H 0.44501 0.76556 0.20563 0.0
H1156 H 0.44251 0.83382 0.24195 0.0
H1157 H 0.43608 0.8069 0.20987 0.0
H1158 H 0.50986 0.80526 0.1967 0.0
H1159 H 0.5162 0.8324 0.22833 0.0
C1160 C 0.48224 0.76432 0.14966 0.0
C1161 C 0.46909 0.74482 0.15607 0.0
C1162 C 0.48229 0.78413 0.16353 0.0
C1163 C 0.46926 0.78474 0.1841 0.0
C1164 C 0.45506 0.7657 0.18976 0.0
C1165 C 0.45494 0.74591 0.17582 0.0
C1166 C 0.45727 0.82801 0.23188 0.0
C1167 C 0.47988 0.83494 0.23773 0.0
C1168 C 0.4536 0.81256 0.21361 0.0
C1169 C 0.47247 0.80385 0.20091 0.0
C1170 C 0.49493 0.81185 0.20599 0.0
C1171 C 0.49859 0.82727 0.22422 0.0
H1172 H 0.18996 0.52331 0.25663 0.0
H1173 H 0.15565 0.45922 0.23805 0.0
H1174 H 0.21514 0.51963 0.22291 0.0
H1175 H 0.18057 0.45577 0.204 0.0
H1176 H 0.25072 0.44481 0.16561 0.0
H1177 H 0.22159 0.44814 0.19606 0.0
H1178 H 0.21374 0.52115 0.18053 0.0
H1179 H 0.24323 0.51791 0.15039 0.0
C1180 C 0.18774 0.5085 0.24525 0.0
C1181 C 0.17097 0.49149 0.24996 0.0
C1182 C 0.202 0.5065 0.22584 0.0
C1183 C 0.19972 0.48747 0.21077 0.0
C1184 C 0.18282 0.47052 0.21543 0.0
C1185 C 0.16856 0.47252 0.23487 0.0
C1186 C 0.24253 0.46148 0.16851 0.0
C1187 C 0.24934 0.48115 0.15583 0.0
C1188 C 0.2258 0.46337 0.18587 0.0
C1189 C 0.21558 0.48496 0.1908 0.0
C1190 C 0.22164 0.50439 0.17736 0.0
C1191 C 0.23839 0.5025 0.16002 0.0
H1192 H 0.50908 0.71068 0.78613 0.0
H1193 H 0.54179 0.7525 0.8391 0.0
H1194 H 0.50463 0.74493 0.76187 0.0
H1195 H 0.53736 0.787 0.81447 0.0
H1196 H 0.54213 0.83419 0.74536 0.0
H1197 H 0.55034 0.80248 0.77256 0.0
H1198 H 0.47864 0.78113 0.76926 0.0
H1199 H 0.47035 0.81263 0.74235 0.0
C1200 C 0.5156 0.72715 0.79246 0.0
C1201 C 0.52556 0.72902 0.81458 0.0
C1202 C 0.51293 0.74673 0.77863 0.0
C1203 C 0.52031 0.76853 0.78656 0.0
C1204 C 0.53149 0.77031 0.8081 0.0
C1205 C 0.534 0.75064 0.82212 0.0
C1206 C 0.52809 0.82292 0.75078 0.0
C1207 C 0.50567 0.82565 0.74161 0.0
C1208 C 0.53279 0.80488 0.76631 0.0
C1209 C 0.51517 0.7893 0.7726 0.0
C1210 C 0.49256 0.79277 0.76432 0.0
C1211 C 0.48782 0.81084 0.74903 0.0
H1212 H 0.23719 0.51988 0.82876 0.0
H1213 H 0.28827 0.51109 0.77462 0.0
H1214 H 0.2064 0.52017 0.79951 0.0
H1215 H 0.25769 0.51124 0.74561 0.0
H1216 H 0.19898 0.52661 0.69696 0.0
H1217 H 0.22693 0.53554 0.7275 0.0
H1218 H 0.19136 0.48841 0.77374 0.0
H1219 H 0.16332 0.47966 0.74336 0.0
C1220 C 0.24182 0.51835 0.81062 0.0
C1221 C 0.265 0.51522 0.8039 0.0
C1222 C 0.22426 0.51844 0.79395 0.0
C1223 C 0.22972 0.51564 0.77037 0.0
C1224 C 0.25302 0.51367 0.76364 0.0
C1225 C 0.2705 0.5134 0.78026 0.0
C1226 C 0.19705 0.51833 0.71372 0.0
C1227 C 0.1792 0.50225 0.71777 0.0
C1228 C 0.213 0.52344 0.73115 0.0
C1229 C 0.21127 0.51264 0.75292 0.0
C1230 C 0.19291 0.4972 0.7572 0.0
C1231 C 0.17703 0.49201 0.73975 0.0
H1232 H 0.47863 0.15011 0.75134 0.0
H1233 H 0.47823 0.2045 0.69971 0.0
H1234 H 0.47866 0.17929 0.78201 0.0
H1235 H 0.47745 0.23364 0.73026 0.0
H1236 H 0.50794 0.27723 0.78814 0.0
H1237 H 0.5048 0.24778 0.75823 0.0
H1238 H 0.45598 0.20965 0.80058 0.0
H1239 H 0.45971 0.23901 0.83101 0.0
C1240 C 0.47825 0.16831 0.74659 0.0
C1241 C 0.47868 0.17512 0.72322 0.0
C1242 C 0.47811 0.185 0.76412 0.0
C1243 C 0.47825 0.20875 0.75853 0.0
C1244 C 0.47783 0.21546 0.7351 0.0
C1245 C 0.47817 0.19881 0.71761 0.0
C1246 C 0.49652 0.26257 0.79108 0.0
C1247 C 0.48405 0.26036 0.81185 0.0
C1248 C 0.49458 0.24579 0.77386 0.0
C1249 C 0.47998 0.22651 0.77696 0.0
C1250 C 0.46751 0.22424 0.79779 0.0
C1251 C 0.46957 0.24104 0.81515 0.0
H1252 H 0.74181 0.50908 0.82342 0.0
H1253 H 0.7681 0.44462 0.85139 0.0
H1254 H 0.77697 0.51387 0.80089 0.0
H1255 H 0.80377 0.44955 0.82871 0.0
H1256 H 0.83718 0.45315 0.7531 0.0
H1257 H 0.81112 0.44805 0.78595 0.0
H1258 H 0.81917 0.52054 0.80351 0.0
H1259 H 0.84492 0.52577 0.77035 0.0
C1260 C 0.75527 0.49605 0.82494 0.0
C1261 C 0.75219 0.47636 0.83892 0.0
C1262 C 0.77554 0.49894 0.81225 0.0
C1263 C 0.79315 0.48215 0.81319 0.0
C1264 C 0.7904 0.46272 0.8277 0.0
C1265 C 0.77007 0.4599 0.84061 0.0
C1266 C 0.83377 0.46787 0.76427 0.0
C1267 C 0.84259 0.48997 0.75894 0.0
C1268 C 0.81902 0.4649 0.78319 0.0
C1269 C 0.81291 0.48399 0.79703 0.0
C1270 C 0.82335 0.50564 0.79285 0.0
C1271 C 0.83806 0.50862 0.77391 0.0
loop_
_geom_bond_atom_site_label_1
_geom_bond_atom_site_label_2
_geom_bond_distance
_geom_bond_site_symmetry_2
_ccdc_geom_bond_type
In0 O1 2.294 . S
In0 O2 2.326 . S
In0 O6 2.266 . S
In0 O7 2.326 . S
In0 O8 2.266 . S
In0 O9 2.326 . S
In0 O11 2.294 . S
In0 O12 2.326 . S
O1 In0 2.294 . S
O1 C10 1.240 . S
O2 In0 2.326 . S
O2 C10 1.252 . S
C3 O6 1.252 . S
C3 O7 1.260 . S
C4 O11 1.240 . S
C4 O12 1.252 . S
C5 O8 1.252 . S
C5 O9 1.260 . S
O6 In0 2.266 . S
O6 C3 1.252 . S
O7 In0 2.326 . S
O7 C3 1.260 . S
O8 In0 2.266 . S
O8 C5 1.252 . S
O9 In0 2.326 . S
O9 C5 1.260 . S
C10 O1 1.240 . S
C10 O2 1.252 . S
O11 In0 2.294 . S
O11 C4 1.240 . S
O12 In0 2.326 . S
O12 C4 1.252 . S
In13 O14 2.294 . S
In13 O15 2.326 . S
In13 O19 2.266 . S
In13 O20 2.326 . S
In13 O21 2.266 . S
In13 O22 2.326 . S
In13 O24 2.294 . S
In13 O25 2.326 . S
O14 In13 2.294 . S
O14 C23 1.240 . S
O15 In13 2.326 . S
O15 C23 1.252 . S
C16 O19 1.252 . S
C16 O20 1.260 . S
C17 O24 1.240 . S
C17 O25 1.252 . S
C18 O21 1.252 . S
C18 O22 1.260 . S
O19 In13 2.266 . S
O19 C16 1.252 . S
O20 In13 2.326 . S
O20 C16 1.260 . S
O21 In13 2.266 . S
O21 C18 1.252 . S
O22 In13 2.326 . S
O22 C18 1.260 . S
C23 O14 1.240 . S
C23 O15 1.252 . S
O24 In13 2.294 . S
O24 C17 1.240 . S
O25 In13 2.326 . S
O25 C17 1.252 . S
In26 O27 2.294 . S
In26 O28 2.326 . S
In26 O32 2.266 . S
In26 O33 2.326 . S
In26 O34 2.266 . S
In26 O35 2.326 . S
In26 O37 2.294 . S
In26 O38 2.326 . S
O27 In26 2.294 . S
O27 C36 1.240 . S
O28 In26 2.326 . S
O28 C36 1.252 . S
C29 O32 1.252 . S
C29 O33 1.260 . S
C30 O37 1.240 . S
C30 O38 1.252 . S
C31 O34 1.252 . S
C31 O35 1.260 . S
O32 In26 2.266 . S
O32 C29 1.252 . S
O33 In26 2.326 . S
O33 C29 1.260 . S
O34 In26 2.266 . S
O34 C31 1.252 . S
O35 In26 2.326 . S
O35 C31 1.260 . S
C36 O27 1.240 . S
C36 O28 1.252 . S
O37 In26 2.294 . S
O37 C30 1.240 . S
O38 In26 2.326 . S
O38 C30 1.252 . S
In39 O40 2.294 . S
In39 O41 2.326 . S
In39 O45 2.266 . S
In39 O46 2.326 . S
In39 O47 2.266 . S
In39 O48 2.326 . S
In39 O50 2.294 . S
In39 O51 2.326 . S
O40 In39 2.294 . S
O40 C49 1.240 . S
O41 In39 2.326 . S
O41 C49 1.252 . S
C42 O45 1.252 . S
C42 O46 1.260 . S
C43 O50 1.240 . S
C43 O51 1.252 . S
C44 O47 1.252 . S
C44 O48 1.260 . S
O45 In39 2.266 . S
O45 C42 1.252 . S
O46 In39 2.326 . S
O46 C42 1.260 . S
O47 In39 2.266 . S
O47 C44 1.252 . S
O48 In39 2.326 . S
O48 C44 1.260 . S
C49 O40 1.240 . S
C49 O41 1.252 . S
O50 In39 2.294 . S
O50 C43 1.240 . S
O51 In39 2.326 . S
O51 C43 1.252 . S
In52 O53 2.294 . S
In52 O54 2.326 . S
In52 O58 2.266 . S
In52 O59 2.326 . S
In52 O60 2.266 . S
In52 O61 2.326 . S
In52 O63 2.294 . S
In52 O64 2.326 . S
O53 In52 2.294 . S
O53 C62 1.240 . S
O54 In52 2.326 . S
O54 C62 1.252 . S
C55 O58 1.252 . S
C55 O59 1.260 . S
C56 O63 1.240 . S
C56 O64 1.252 . S
C57 O60 1.252 . S
C57 O61 1.260 . S
O58 In52 2.266 . S
O58 C55 1.252 . S
O59 In52 2.326 . S
O59 C55 1.260 . S
O60 In52 2.266 . S
O60 C57 1.252 . S
O61 In52 2.326 . S
O61 C57 1.260 . S
C62 O53 1.240 . S
C62 O54 1.252 . S
O63 In52 2.294 . S
O63 C56 1.240 . S
O64 In52 2.326 . S
O64 C56 1.252 . S
In65 O66 2.294 . S
In65 O67 2.326 . S
In65 O71 2.266 . S
In65 O72 2.326 . S
In65 O73 2.266 . S
In65 O74 2.326 . S
In65 O76 2.294 . S
In65 O77 2.326 . S
O66 In65 2.294 . S
O66 C75 1.240 . S
O67 In65 2.326 . S
O67 C75 1.252 . S
C68 O71 1.252 . S
C68 O72 1.260 . S
C69 O76 1.240 . S
C69 O77 1.252 . S
C70 O73 1.252 . S
C70 O74 1.260 . S
O71 In65 2.266 . S
O71 C68 1.252 . S
O72 In65 2.326 . S
O72 C68 1.260 . S
O73 In65 2.266 . S
O73 C70 1.252 . S
O74 In65 2.326 . S
O74 C70 1.260 . S
C75 O66 1.240 . S
C75 O67 1.252 . S
O76 In65 2.294 . S
O76 C69 1.240 . S
O77 In65 2.326 . S
O77 C69 1.252 . S
In78 O79 2.294 . S
In78 O80 2.326 . S
In78 O84 2.266 . S
In78 O85 2.326 . S
In78 O86 2.266 . S
In78 O87 2.326 . S
In78 O89 2.294 . S
In78 O90 2.326 . S
O79 In78 2.294 . S
O79 C88 1.240 . S
O80 In78 2.326 . S
O80 C88 1.252 . S
C81 O84 1.252 . S
C81 O85 1.260 . S
C82 O89 1.240 . S
C82 O90 1.252 . S
C83 O86 1.252 . S
C83 O87 1.260 . S
O84 In78 2.266 . S
O84 C81 1.252 . S
O85 In78 2.326 . S
O85 C81 1.260 . S
O86 In78 2.266 . S
O86 C83 1.252 . S
O87 In78 2.326 . S
O87 C83 1.260 . S
C88 O79 1.240 . S
C88 O80 1.252 . S
O89 In78 2.294 . S
O89 C82 1.240 . S
O90 In78 2.326 . S
O90 C82 1.252 . S
In91 O92 2.294 . S
In91 O93 2.326 . S
In91 O97 2.266 . S
In91 O98 2.326 . S
In91 O99 2.266 . S
In91 O100 2.326 . S
In91 O102 2.294 . S
In91 O103 2.326 . S
O92 In91 2.294 . S
O92 C101 1.240 . S
O93 In91 2.326 . S
O93 C101 1.252 . S
C94 O97 1.252 . S
C94 O98 1.260 . S
C95 O102 1.240 . S
C95 O103 1.252 . S
C96 O99 1.252 . S
C96 O100 1.260 . S
O97 In91 2.266 . S
O97 C94 1.252 . S
O98 In91 2.326 . S
O98 C94 1.260 . S
O99 In91 2.266 . S
O99 C96 1.252 . S
O100 In91 2.326 . S
O100 C96 1.260 . S
C101 O92 1.240 . S
C101 O93 1.252 . S
O102 In91 2.294 . S
O102 C95 1.240 . S
O103 In91 2.326 . S
O103 C95 1.252 . S
In104 O105 2.294 . S
In104 O106 2.326 . S
In104 O110 2.266 . S
In104 O111 2.326 . S
In104 O112 2.266 . S
In104 O113 2.326 . S
In104 O115 2.294 . S
In104 O116 2.326 . S
O105 In104 2.294 . S
O105 C114 1.240 . S
O106 In104 2.326 . S
O106 C114 1.252 . S
C107 O110 1.252 . S
C107 O111 1.260 . S
C108 O115 1.240 . S
C108 O116 1.252 . S
C109 O112 1.252 . S
C109 O113 1.260 . S
O110 In104 2.266 . S
O110 C107 1.252 . S
O111 In104 2.326 . S
O111 C107 1.260 . S
O112 In104 2.266 . S
O112 C109 1.252 . S
O113 In104 2.326 . S
O113 C109 1.260 . S
C114 O105 1.240 . S
C114 O106 1.252 . S
O115 In104 2.294 . S
O115 C108 1.240 . S
O116 In104 2.326 . S
O116 C108 1.252 . S
In117 O118 2.294 . S
In117 O119 2.326 . S
In117 O123 2.266 . S
In117 O124 2.326 . S
In117 O125 2.266 . S
In117 O126 2.326 . S
In117 O128 2.294 . S
In117 O129 2.326 . S
O118 In117 2.294 . S
O118 C127 1.240 . S
O119 In117 2.326 . S
O119 C127 1.252 . S
C120 O123 1.252 . S
C120 O124 1.260 . S
C121 O128 1.240 . S
C121 O129 1.252 . S
C122 O125 1.252 . S
C122 O126 1.260 . S
O123 In117 2.266 . S
O123 C120 1.252 . S
O124 In117 2.326 . S
O124 C120 1.260 . S
O125 In117 2.266 . S
O125 C122 1.252 . S
O126 In117 2.326 . S
O126 C122 1.260 . S
C127 O118 1.240 . S
C127 O119 1.252 . S
O128 In117 2.294 . S
O128 C121 1.240 . S
O129 In117 2.326 . S
O129 C121 1.252 . S
In130 O131 2.294 . S
In130 O132 2.326 . S
In130 O136 2.266 . S
In130 O137 2.326 . S
In130 O138 2.266 . S
In130 O139 2.326 . S
In130 O141 2.294 . S
In130 O142 2.326 . S
O131 In130 2.294 . S
O131 C140 1.240 . S
O132 In130 2.326 . S
O132 C140 1.252 . S
C133 O136 1.252 . S
C133 O137 1.260 . S
C134 O141 1.240 . S
C134 O142 1.252 . S
C135 O138 1.252 . S
C135 O139 1.260 . S
O136 In130 2.266 . S
O136 C133 1.252 . S
O137 In130 2.326 . S
O137 C133 1.260 . S
O138 In130 2.266 . S
O138 C135 1.252 . S
O139 In130 2.326 . S
O139 C135 1.260 . S
C140 O131 1.240 . S
C140 O132 1.252 . S
O141 In130 2.294 . S
O141 C134 1.240 . S
O142 In130 2.326 . S
O142 C134 1.252 . S
In143 O144 2.294 . S
In143 O145 2.326 . S
In143 O149 2.266 . S
In143 O150 2.326 . S
In143 O151 2.266 . S
In143 O152 2.326 . S
In143 O154 2.294 . S
In143 O155 2.326 . S
O144 In143 2.294 . S
O144 C153 1.240 . S
O145 In143 2.326 . S
O145 C153 1.252 . S
C146 O149 1.252 . S
C146 O150 1.260 . S
C147 O154 1.240 . S
C147 O155 1.252 . S
C148 O151 1.252 . S
C148 O152 1.260 . S
O149 In143 2.266 . S
O149 C146 1.252 . S
O150 In143 2.326 . S
O150 C146 1.260 . S
O151 In143 2.266 . S
O151 C148 1.252 . S
O152 In143 2.326 . S
O152 C148 1.260 . S
C153 O144 1.240 . S
C153 O145 1.252 . S
O154 In143 2.294 . S
O154 C147 1.240 . S
O155 In143 2.326 . S
O155 C147 1.252 . S
In156 O157 2.294 . S
In156 O158 2.326 . S
In156 O162 2.266 . S
In156 O163 2.326 . S
In156 O164 2.266 . S
In156 O165 2.326 . S
In156 O167 2.294 . S
In156 O168 2.326 . S
O157 In156 2.294 . S
O157 C166 1.240 . S
O158 In156 2.326 . S
O158 C166 1.252 . S
C159 O162 1.252 . S
C159 O163 1.260 . S
C160 O167 1.240 . S
C160 O168 1.252 . S
C161 O164 1.252 . S
C161 O165 1.260 . S
O162 In156 2.266 . S
O162 C159 1.252 . S
O163 In156 2.326 . S
O163 C159 1.260 . S
O164 In156 2.266 . S
O164 C161 1.252 . S
O165 In156 2.326 . S
O165 C161 1.260 . S
C166 O157 1.240 . S
C166 O158 1.252 . S
O167 In156 2.294 . S
O167 C160 1.240 . S
O168 In156 2.326 . S
O168 C160 1.252 . S
In169 O170 2.294 . S
In169 O171 2.326 . S
In169 O175 2.266 . S
In169 O176 2.326 . S
In169 O177 2.266 . S
In169 O178 2.326 . S
In169 O180 2.294 . S
In169 O181 2.326 . S
O170 In169 2.294 . S
O170 C179 1.240 . S
O171 In169 2.326 . S
O171 C179 1.252 . S
C172 O175 1.252 . S
C172 O176 1.260 . S
C173 O180 1.240 . S
C173 O181 1.252 . S
C174 O177 1.252 . S
C174 O178 1.260 . S
O175 In169 2.266 . S
O175 C172 1.252 . S
O176 In169 2.326 . S
O176 C172 1.260 . S
O177 In169 2.266 . S
O177 C174 1.252 . S
O178 In169 2.326 . S
O178 C174 1.260 . S
C179 O170 1.240 . S
C179 O171 1.252 . S
O180 In169 2.294 . S
O180 C173 1.240 . S
O181 In169 2.326 . S
O181 C173 1.252 . S
In182 O183 2.294 . S
In182 O184 2.326 . S
In182 O188 2.266 . S
In182 O189 2.326 . S
In182 O190 2.266 . S
In182 O191 2.326 . S
In182 O193 2.294 . S
In182 O194 2.326 . S
O183 In182 2.294 . S
O183 C192 1.240 . S
O184 In182 2.326 . S
O184 C192 1.252 . S
C185 O188 1.252 . S
C185 O189 1.260 . S
C186 O193 1.240 . S
C186 O194 1.252 . S
C187 O190 1.252 . S
C187 O191 1.260 . S
O188 In182 2.266 . S
O188 C185 1.252 . S
O189 In182 2.326 . S
O189 C185 1.260 . S
O190 In182 2.266 . S
O190 C187 1.252 . S
O191 In182 2.326 . S
O191 C187 1.260 . S
C192 O183 1.240 . S
C192 O184 1.252 . S
O193 In182 2.294 . S
O193 C186 1.240 . S
O194 In182 2.326 . S
O194 C186 1.252 . S
In195 O196 2.294 . S
In195 O197 2.326 . S
In195 O201 2.266 . S
In195 O202 2.326 . S
In195 O203 2.266 . S
In195 O204 2.326 . S
In195 O206 2.294 . S
In195 O207 2.326 . S
O196 In195 2.294 . S
O196 C205 1.240 . S
O197 In195 2.326 . S
O197 C205 1.252 . S
C198 O201 1.252 . S
C198 O202 1.260 . S
C199 O206 1.240 . S
C199 O207 1.252 . S
C200 O203 1.252 . S
C200 O204 1.260 . S
O201 In195 2.266 . S
O201 C198 1.252 . S
O202 In195 2.326 . S
O202 C198 1.260 . S
O203 In195 2.266 . S
O203 C200 1.252 . S
O204 In195 2.326 . S
O204 C200 1.260 . S
C205 O196 1.240 . S
C205 O197 1.252 . S
O206 In195 2.294 . S
O206 C199 1.240 . S
O207 In195 2.326 . S
O207 C199 1.252 . S
In208 O209 2.294 . S
In208 O210 2.326 . S
In208 O214 2.266 . S
In208 O215 2.326 . S
In208 O216 2.266 . S
In208 O217 2.326 . S
In208 O219 2.294 . S
In208 O220 2.326 . S
O209 In208 2.294 . S
O209 C218 1.240 . S
O210 In208 2.326 . S
O210 C218 1.252 . S
C211 O214 1.252 . S
C211 O215 1.260 . S
C212 O219 1.240 . S
C212 O220 1.252 . S
C213 O216 1.252 . S
C213 O217 1.260 . S
O214 In208 2.266 . S
O214 C211 1.252 . S
O215 In208 2.326 . S
O215 C211 1.260 . S
O216 In208 2.266 . S
O216 C213 1.252 . S
O217 In208 2.326 . S
O217 C213 1.260 . S
C218 O209 1.240 . S
C218 O210 1.252 . S
O219 In208 2.294 . S
O219 C212 1.240 . S
O220 In208 2.326 . S
O220 C212 1.252 . S
In221 O222 2.294 . S
In221 O223 2.326 . S
In221 O227 2.266 . S
In221 O228 2.326 . S
In221 O229 2.266 . S
In221 O230 2.326 . S
In221 O232 2.294 . S
In221 O233 2.326 . S
O222 In221 2.294 . S
O222 C231 1.240 . S
O223 In221 2.326 . S
O223 C231 1.252 . S
C224 O227 1.252 . S
C224 O228 1.260 . S
C225 O232 1.240 . S
C225 O233 1.252 . S
C226 O229 1.252 . S
C226 O230 1.260 . S
O227 In221 2.266 . S
O227 C224 1.252 . S
O228 In221 2.326 . S
O228 C224 1.260 . S
O229 In221 2.266 . S
O229 C226 1.252 . S
O230 In221 2.326 . S
O230 C226 1.260 . S
C231 O222 1.240 . S
C231 O223 1.252 . S
O232 In221 2.294 . S
O232 C225 1.240 . S
O233 In221 2.326 . S
O233 C225 1.252 . S
In234 O235 2.294 . S
In234 O236 2.326 . S
In234 O240 2.266 . S
In234 O241 2.326 . S
In234 O242 2.266 . S
In234 O243 2.326 . S
In234 O245 2.294 . S
In234 O246 2.326 . S
O235 In234 2.294 . S
O235 C244 1.240 . S
O236 In234 2.326 . S
O236 C244 1.252 . S
C237 O240 1.252 . S
C237 O241 1.260 . S
C238 O245 1.240 . S
C238 O246 1.252 . S
C239 O242 1.252 . S
C239 O243 1.260 . S
O240 In234 2.266 . S
O240 C237 1.252 . S
O241 In234 2.326 . S
O241 C237 1.260 . S
O242 In234 2.266 . S
O242 C239 1.252 . S
O243 In234 2.326 . S
O243 C239 1.260 . S
C244 O235 1.240 . S
C244 O236 1.252 . S
O245 In234 2.294 . S
O245 C238 1.240 . S
O246 In234 2.326 . S
O246 C238 1.252 . S
In247 O248 2.294 . S
In247 O249 2.326 . S
In247 O253 2.266 . S
In247 O254 2.326 . S
In247 O255 2.266 . S
In247 O256 2.326 . S
In247 O258 2.294 . S
In247 O259 2.326 . S
O248 In247 2.294 . S
O248 C257 1.240 . S
O249 In247 2.326 . S
O249 C257 1.252 . S
C250 O253 1.252 . S
C250 O254 1.260 . S
C251 O258 1.240 . S
C251 O259 1.252 . S
C252 O255 1.252 . S
C252 O256 1.260 . S
O253 In247 2.266 . S
O253 C250 1.252 . S
O254 In247 2.326 . S
O254 C250 1.260 . S
O255 In247 2.266 . S
O255 C252 1.252 . S
O256 In247 2.326 . S
O256 C252 1.260 . S
C257 O248 1.240 . S
C257 O249 1.252 . S
O258 In247 2.294 . S
O258 C251 1.240 . S
O259 In247 2.326 . S
O259 C251 1.252 . S
In260 O261 2.294 . S
In260 O262 2.326 . S
In260 O266 2.266 . S
In260 O267 2.326 . S
In260 O268 2.266 . S
In260 O269 2.326 . S
In260 O271 2.294 . S
In260 O272 2.326 . S
O261 In260 2.294 . S
O261 C270 1.240 . S
O262 In260 2.326 . S
O262 C270 1.252 . S
C263 O266 1.252 . S
C263 O267 1.260 . S
C264 O271 1.240 . S
C264 O272 1.252 . S
C265 O268 1.252 . S
C265 O269 1.260 . S
O266 In260 2.266 . S
O266 C263 1.252 . S
O267 In260 2.326 . S
O267 C263 1.260 . S
O268 In260 2.266 . S
O268 C265 1.252 . S
O269 In260 2.326 . S
O269 C265 1.260 . S
C270 O261 1.240 . S
C270 O262 1.252 . S
O271 In260 2.294 . S
O271 C264 1.240 . S
O272 In260 2.326 . S
O272 C264 1.252 . S
In273 O274 2.294 . S
In273 O275 2.326 . S
In273 O279 2.266 . S
In273 O280 2.326 . S
In273 O281 2.266 . S
In273 O282 2.326 . S
In273 O284 2.294 . S
In273 O285 2.326 . S
O274 In273 2.294 . S
O274 C283 1.240 . S
O275 In273 2.326 . S
O275 C283 1.252 . S
C276 O279 1.252 . S
C276 O280 1.260 . S
C277 O284 1.240 . S
C277 O285 1.252 . S
C278 O281 1.252 . S
C278 O282 1.260 . S
O279 In273 2.266 . S
O279 C276 1.252 . S
O280 In273 2.326 . S
O280 C276 1.260 . S
O281 In273 2.266 . S
O281 C278 1.252 . S
O282 In273 2.326 . S
O282 C278 1.260 . S
C283 O274 1.240 . S
C283 O275 1.252 . S
O284 In273 2.294 . S
O284 C277 1.240 . S
O285 In273 2.326 . S
O285 C277 1.252 . S
In286 O287 2.294 . S
In286 O288 2.326 . S
In286 O292 2.266 . S
In286 O293 2.326 . S
In286 O294 2.266 . S
In286 O295 2.326 . S
In286 O297 2.294 . S
In286 O298 2.326 . S
O287 In286 2.294 . S
O287 C296 1.240 . S
O288 In286 2.326 . S
O288 C296 1.252 . S
C289 O292 1.252 . S
C289 O293 1.260 . S
C290 O297 1.240 . S
C290 O298 1.252 . S
C291 O294 1.252 . S
C291 O295 1.260 . S
O292 In286 2.266 . S
O292 C289 1.252 . S
O293 In286 2.326 . S
O293 C289 1.260 . S
O294 In286 2.266 . S
O294 C291 1.252 . S
O295 In286 2.326 . S
O295 C291 1.260 . S
C296 O287 1.240 . S
C296 O288 1.252 . S
O297 In286 2.294 . S
O297 C290 1.240 . S
O298 In286 2.326 . S
O298 C290 1.252 . S
In299 O300 2.294 . S
In299 O301 2.326 . S
In299 O305 2.266 . S
In299 O306 2.326 . S
In299 O307 2.266 . S
In299 O308 2.326 . S
In299 O310 2.294 . S
In299 O311 2.326 . S
O300 In299 2.294 . S
O300 C309 1.240 . S
O301 In299 2.326 . S
O301 C309 1.252 . S
C302 O305 1.252 . S
C302 O306 1.260 . S
C303 O310 1.240 . S
C303 O311 1.252 . S
C304 O307 1.252 . S
C304 O308 1.260 . S
O305 In299 2.266 . S
O305 C302 1.252 . S
O306 In299 2.326 . S
O306 C302 1.260 . S
O307 In299 2.266 . S
O307 C304 1.252 . S
O308 In299 2.326 . S
O308 C304 1.260 . S
C309 O300 1.240 . S
C309 O301 1.252 . S
O310 In299 2.294 . S
O310 C303 1.240 . S
O311 In299 2.326 . S
O311 C303 1.252 . S
H312 C320 0.950 . S
H313 C325 0.950 . S
H314 C322 0.950 . S
H315 C324 0.950 . S
H316 C326 0.950 . S
H317 C328 0.950 . S
H318 C330 0.950 . S
H319 C331 0.950 . S
C320 H312 0.950 . S
C320 C321 1.386 . S
C320 C322 1.391 . S
C321 C320 1.386 . S
C321 C325 1.393 . S
C322 H314 0.950 . S
C322 C320 1.391 . S
C322 C323 1.400 . S
C323 C322 1.400 . S
C323 C324 1.398 . S
C323 C329 1.491 . S
C324 H315 0.950 . S
C324 C323 1.398 . S
C324 C325 1.391 . S
C325 H313 0.950 . S
C325 C321 1.393 . S
C325 C324 1.391 . S
C326 H316 0.950 . S
C326 C327 1.386 . S
C326 C328 1.391 . S
C327 C326 1.386 . S
C327 C331 1.393 . S
C328 H317 0.950 . S
C328 C326 1.391 . S
C328 C329 1.400 . S
C329 C323 1.491 . S
C329 C328 1.400 . S
C329 C330 1.398 . S
C330 H318 0.950 . S
C330 C329 1.398 . S
C330 C331 1.391 . S
C331 H319 0.950 . S
C331 C327 1.393 . S
C331 C330 1.391 . S
H332 C340 0.950 . S
H333 C345 0.950 . S
H334 C342 0.950 . S
H335 C344 0.950 . S
H336 C346 0.950 . S
H337 C348 0.950 . S
H338 C350 0.950 . S
H339 C351 0.950 . S
C340 H332 0.950 . S
C340 C341 1.386 . S
C340 C342 1.391 . S
C341 C340 1.386 . S
C341 C345 1.393 . S
C342 H334 0.950 . S
C342 C340 1.391 . S
C342 C343 1.400 . S
C343 C342 1.400 . S
C343 C344 1.398 . S
C343 C349 1.491 . S
C344 H335 0.950 . S
C344 C343 1.398 . S
C344 C345 1.391 . S
C345 H333 0.950 . S
C345 C341 1.393 . S
C345 C344 1.391 . S
C346 H336 0.950 . S
C346 C347 1.386 . S
C346 C348 1.391 . S
C347 C346 1.386 . S
C347 C351 1.393 . S
C348 H337 0.950 . S
C348 C346 1.391 . S
C348 C349 1.400 . S
C349 C343 1.491 . S
C349 C348 1.400 . S
C349 C350 1.398 . S
C350 H338 0.950 . S
C350 C349 1.398 . S
C350 C351 1.391 . S
C351 H339 0.950 . S
C351 C347 1.393 . S
C351 C350 1.391 . S
H352 C360 0.950 . S
H353 C365 0.950 . S
H354 C362 0.950 . S
H355 C364 0.950 . S
H356 C366 0.950 . S
H357 C368 0.950 . S
H358 C370 0.950 . S
H359 C371 0.950 . S
C360 H352 0.950 . S
C360 C361 1.386 . S
C360 C362 1.391 . S
C361 C360 1.386 . S
C361 C365 1.393 . S
C362 H354 0.950 . S
C362 C360 1.391 . S
C362 C363 1.400 . S
C363 C362 1.400 . S
C363 C364 1.398 . S
C363 C369 1.491 . S
C364 H355 0.950 . S
C364 C363 1.398 . S
C364 C365 1.391 . S
C365 H353 0.950 . S
C365 C361 1.393 . S
C365 C364 1.391 . S
C366 H356 0.950 . S
C366 C367 1.386 . S
C366 C368 1.391 . S
C367 C366 1.386 . S
C367 C371 1.393 . S
C368 H357 0.950 . S
C368 C366 1.391 . S
C368 C369 1.400 . S
C369 C363 1.491 . S
C369 C368 1.400 . S
C369 C370 1.398 . S
C370 H358 0.950 . S
C370 C369 1.398 . S
C370 C371 1.391 . S
C371 H359 0.950 . S
C371 C367 1.393 . S
C371 C370 1.391 . S
H372 C380 0.950 . S
H373 C385 0.950 . S
H374 C382 0.950 . S
H375 C384 0.950 . S
H376 C386 0.950 . S
H377 C388 0.950 . S
H378 C390 0.950 . S
H379 C391 0.950 . S
C380 H372 0.950 . S
C380 C381 1.386 . S
C380 C382 1.391 . S
C381 C380 1.386 . S
C381 C385 1.393 . S
C382 H374 0.950 . S
C382 C380 1.391 . S
C382 C383 1.400 . S
C383 C382 1.400 . S
C383 C384 1.398 . S
C383 C389 1.491 . S
C384 H375 0.950 . S
C384 C383 1.398 . S
C384 C385 1.391 . S
C385 H373 0.950 . S
C385 C381 1.393 . S
C385 C384 1.391 . S
C386 H376 0.950 . S
C386 C387 1.386 . S
C386 C388 1.391 . S
C387 C386 1.386 . S
C387 C391 1.393 . S
C388 H377 0.950 . S
C388 C386 1.391 . S
C388 C389 1.400 . S
C389 C383 1.491 . S
C389 C388 1.400 . S
C389 C390 1.398 . S
C390 H378 0.950 . S
C390 C389 1.398 . S
C390 C391 1.391 . S
C391 H379 0.950 . S
C391 C387 1.393 . S
C391 C390 1.391 . S
H392 C400 0.950 . S
H393 C405 0.950 . S
H394 C402 0.950 . S
H395 C404 0.950 . S
H396 C406 0.950 . S
H397 C408 0.950 . S
H398 C410 0.950 . S
H399 C411 0.950 . S
C400 H392 0.950 . S
C400 C401 1.386 . S
C400 C402 1.391 . S
C401 C400 1.386 . S
C401 C405 1.393 . S
C402 H394 0.950 . S
C402 C400 1.391 . S
C402 C403 1.400 . S
C403 C402 1.400 . S
C403 C404 1.398 . S
C403 C409 1.491 . S
C404 H395 0.950 . S
C404 C403 1.398 . S
C404 C405 1.391 . S
C405 H393 0.950 . S
C405 C401 1.393 . S
C405 C404 1.391 . S
C406 H396 0.950 . S
C406 C407 1.386 . S
C406 C408 1.391 . S
C407 C406 1.386 . S
C407 C411 1.393 . S
C408 H397 0.950 . S
C408 C406 1.391 . S
C408 C409 1.400 . S
C409 C403 1.491 . S
C409 C408 1.400 . S
C409 C410 1.398 . S
C410 H398 0.950 . S
C410 C409 1.398 . S
C410 C411 1.391 . S
C411 H399 0.950 . S
C411 C407 1.393 . S
C411 C410 1.391 . S
H412 C420 0.950 . S
H413 C425 0.950 . S
H414 C422 0.950 . S
H415 C424 0.950 . S
H416 C426 0.950 . S
H417 C428 0.950 . S
H418 C430 0.950 . S
H419 C431 0.950 . S
C420 H412 0.950 . S
C420 C421 1.386 . S
C420 C422 1.391 . S
C421 C420 1.386 . S
C421 C425 1.393 . S
C422 H414 0.950 . S
C422 C420 1.391 . S
C422 C423 1.400 . S
C423 C422 1.400 . S
C423 C424 1.398 . S
C423 C429 1.491 . S
C424 H415 0.950 . S
C424 C423 1.398 . S
C424 C425 1.391 . S
C425 H413 0.950 . S
C425 C421 1.393 . S
C425 C424 1.391 . S
C426 H416 0.950 . S
C426 C427 1.386 . S
C426 C428 1.391 . S
C427 C426 1.386 . S
C427 C431 1.393 . S
C428 H417 0.950 . S
C428 C426 1.391 . S
C428 C429 1.400 . S
C429 C423 1.491 . S
C429 C428 1.400 . S
C429 C430 1.398 . S
C430 H418 0.950 . S
C430 C429 1.398 . S
C430 C431 1.391 . S
C431 H419 0.950 . S
C431 C427 1.393 . S
C431 C430 1.391 . S
H432 C440 0.950 . S
H433 C445 0.950 . S
H434 C442 0.950 . S
H435 C444 0.950 . S
H436 C446 0.950 . S
H437 C448 0.950 . S
H438 C450 0.950 . S
H439 C451 0.950 . S
C440 H432 0.950 . S
C440 C441 1.386 . S
C440 C442 1.391 . S
C441 C440 1.386 . S
C441 C445 1.393 . S
C442 H434 0.950 . S
C442 C440 1.391 . S
C442 C443 1.400 . S
C443 C442 1.400 . S
C443 C444 1.398 . S
C443 C449 1.491 . S
C444 H435 0.950 . S
C444 C443 1.398 . S
C444 C445 1.391 . S
C445 H433 0.950 . S
C445 C441 1.393 . S
C445 C444 1.391 . S
C446 H436 0.950 . S
C446 C447 1.386 . S
C446 C448 1.391 . S
C447 C446 1.386 . S
C447 C451 1.393 . S
C448 H437 0.950 . S
C448 C446 1.391 . S
C448 C449 1.400 . S
C449 C443 1.491 . S
C449 C448 1.400 . S
C449 C450 1.398 . S
C450 H438 0.950 . S
C450 C449 1.398 . S
C450 C451 1.391 . S
C451 H439 0.950 . S
C451 C447 1.393 . S
C451 C450 1.391 . S
H452 C460 0.950 . S
H453 C465 0.950 . S
H454 C462 0.950 . S
H455 C464 0.950 . S
H456 C466 0.950 . S
H457 C468 0.950 . S
H458 C470 0.950 . S
H459 C471 0.950 . S
C460 H452 0.950 . S
C460 C461 1.386 . S
C460 C462 1.391 . S
C461 C460 1.386 . S
C461 C465 1.393 . S
C462 H454 0.950 . S
C462 C460 1.391 . S
C462 C463 1.400 . S
C463 C462 1.400 . S
C463 C464 1.398 . S
C463 C469 1.491 . S
C464 H455 0.950 . S
C464 C463 1.398 . S
C464 C465 1.391 . S
C465 H453 0.950 . S
C465 C461 1.393 . S
C465 C464 1.391 . S
C466 H456 0.950 . S
C466 C467 1.386 . S
C466 C468 1.391 . S
C467 C466 1.386 . S
C467 C471 1.393 . S
C468 H457 0.950 . S
C468 C466 1.391 . S
C468 C469 1.400 . S
C469 C463 1.491 . S
C469 C468 1.400 . S
C469 C470 1.398 . S
C470 H458 0.950 . S
C470 C469 1.398 . S
C470 C471 1.391 . S
C471 H459 0.950 . S
C471 C467 1.393 . S
C471 C470 1.391 . S
H472 C480 0.950 . S
H473 C485 0.950 . S
H474 C482 0.950 . S
H475 C484 0.950 . S
H476 C486 0.950 . S
H477 C488 0.950 . S
H478 C490 0.950 . S
H479 C491 0.950 . S
C480 H472 0.950 . S
C480 C481 1.386 . S
C480 C482 1.391 . S
C481 C480 1.386 . S
C481 C485 1.393 . S
C482 H474 0.950 . S
C482 C480 1.391 . S
C482 C483 1.400 . S
C483 C482 1.400 . S
C483 C484 1.398 . S
C483 C489 1.491 . S
C484 H475 0.950 . S
C484 C483 1.398 . S
C484 C485 1.391 . S
C485 H473 0.950 . S
C485 C481 1.393 . S
C485 C484 1.391 . S
C486 H476 0.950 . S
C486 C487 1.386 . S
C486 C488 1.391 . S
C487 C486 1.386 . S
C487 C491 1.393 . S
C488 H477 0.950 . S
C488 C486 1.391 . S
C488 C489 1.400 . S
C489 C483 1.491 . S
C489 C488 1.400 . S
C489 C490 1.398 . S
C490 H478 0.950 . S
C490 C489 1.398 . S
C490 C491 1.391 . S
C491 H479 0.950 . S
C491 C487 1.393 . S
C491 C490 1.391 . S
H492 C500 0.950 . S
H493 C505 0.950 . S
H494 C502 0.950 . S
H495 C504 0.950 . S
H496 C506 0.950 . S
H497 C508 0.950 . S
H498 C510 0.950 . S
H499 C511 0.950 . S
C500 H492 0.950 . S
C500 C501 1.386 . S
C500 C502 1.391 . S
C501 C500 1.386 . S
C501 C505 1.393 . S
C502 H494 0.950 . S
C502 C500 1.391 . S
C502 C503 1.400 . S
C503 C502 1.400 . S
C503 C504 1.398 . S
C503 C509 1.491 . S
C504 H495 0.950 . S
C504 C503 1.398 . S
C504 C505 1.391 . S
C505 H493 0.950 . S
C505 C501 1.393 . S
C505 C504 1.391 . S
C506 H496 0.950 . S
C506 C507 1.386 . S
C506 C508 1.391 . S
C507 C506 1.386 . S
C507 C511 1.393 . S
C508 H497 0.950 . S
C508 C506 1.391 . S
C508 C509 1.400 . S
C509 C503 1.491 . S
C509 C508 1.400 . S
C509 C510 1.398 . S
C510 H498 0.950 . S
C510 C509 1.398 . S
C510 C511 1.391 . S
C511 H499 0.950 . S
C511 C507 1.393 . S
C511 C510 1.391 . S
H512 C520 0.950 . S
H513 C525 0.950 . S
H514 C522 0.950 . S
H515 C524 0.950 . S
H516 C526 0.950 . S
H517 C528 0.950 . S
H518 C530 0.950 . S
H519 C531 0.950 . S
C520 H512 0.950 . S
C520 C521 1.386 . S
C520 C522 1.391 . S
C521 C520 1.386 . S
C521 C525 1.393 . S
C522 H514 0.950 . S
C522 C520 1.391 . S
C522 C523 1.400 . S
C523 C522 1.400 . S
C523 C524 1.398 . S
C523 C529 1.491 . S
C524 H515 0.950 . S
C524 C523 1.398 . S
C524 C525 1.391 . S
C525 H513 0.950 . S
C525 C521 1.393 . S
C525 C524 1.391 . S
C526 H516 0.950 . S
C526 C527 1.386 . S
C526 C528 1.391 . S
C527 C526 1.386 . S
C527 C531 1.393 . S
C528 H517 0.950 . S
C528 C526 1.391 . S
C528 C529 1.400 . S
C529 C523 1.491 . S
C529 C528 1.400 . S
C529 C530 1.398 . S
C530 H518 0.950 . S
C530 C529 1.398 . S
C530 C531 1.391 . S
C531 H519 0.950 . S
C531 C527 1.393 . S
C531 C530 1.391 . S
H532 C540 0.950 . S
H533 C545 0.950 . S
H534 C542 0.950 . S
H535 C544 0.950 . S
H536 C546 0.950 . S
H537 C548 0.950 . S
H538 C550 0.950 . S
H539 C551 0.950 . S
C540 H532 0.950 . S
C540 C541 1.386 . S
C540 C542 1.391 . S
C541 C540 1.386 . S
C541 C545 1.393 . S
C542 H534 0.950 . S
C542 C540 1.391 . S
C542 C543 1.400 . S
C543 C542 1.400 . S
C543 C544 1.398 . S
C543 C549 1.491 . S
C544 H535 0.950 . S
C544 C543 1.398 . S
C544 C545 1.391 . S
C545 H533 0.950 . S
C545 C541 1.393 . S
C545 C544 1.391 . S
C546 H536 0.950 . S
C546 C547 1.386 . S
C546 C548 1.391 . S
C547 C546 1.386 . S
C547 C551 1.393 . S
C548 H537 0.950 . S
C548 C546 1.391 . S
C548 C549 1.400 . S
C549 C543 1.491 . S
C549 C548 1.400 . S
C549 C550 1.398 . S
C550 H538 0.950 . S
C550 C549 1.398 . S
C550 C551 1.391 . S
C551 H539 0.950 . S
C551 C547 1.393 . S
C551 C550 1.391 . S
H552 C560 0.950 . S
H553 C565 0.950 . S
H554 C562 0.950 . S
H555 C564 0.950 . S
H556 C566 0.950 . S
H557 C568 0.950 . S
H558 C570 0.950 . S
H559 C571 0.950 . S
C560 H552 0.950 . S
C560 C561 1.386 . S
C560 C562 1.391 . S
C561 C560 1.386 . S
C561 C565 1.393 . S
C562 H554 0.950 . S
C562 C560 1.391 . S
C562 C563 1.400 . S
C563 C562 1.400 . S
C563 C564 1.398 . S
C563 C569 1.491 . S
C564 H555 0.950 . S
C564 C563 1.398 . S
C564 C565 1.391 . S
C565 H553 0.950 . S
C565 C561 1.393 . S
C565 C564 1.391 . S
C566 H556 0.950 . S
C566 C567 1.386 . S
C566 C568 1.391 . S
C567 C566 1.386 . S
C567 C571 1.393 . S
C568 H557 0.950 . S
C568 C566 1.391 . S
C568 C569 1.400 . S
C569 C563 1.491 . S
C569 C568 1.400 . S
C569 C570 1.398 . S
C570 H558 0.950 . S
C570 C569 1.398 . S
C570 C571 1.391 . S
C571 H559 0.950 . S
C571 C567 1.393 . S
C571 C570 1.391 . S
H572 C580 0.950 . S
H573 C585 0.950 . S
H574 C582 0.950 . S
H575 C584 0.950 . S
H576 C586 0.950 . S
H577 C588 0.950 . S
H578 C590 0.950 . S
H579 C591 0.950 . S
C580 H572 0.950 . S
C580 C581 1.386 . S
C580 C582 1.391 . S
C581 C580 1.386 . S
C581 C585 1.393 . S
C582 H574 0.950 . S
C582 C580 1.391 . S
C582 C583 1.400 . S
C583 C582 1.400 . S
C583 C584 1.398 . S
C583 C589 1.491 . S
C584 H575 0.950 . S
C584 C583 1.398 . S
C584 C585 1.391 . S
C585 H573 0.950 . S
C585 C581 1.393 . S
C585 C584 1.391 . S
C586 H576 0.950 . S
C586 C587 1.386 . S
C586 C588 1.391 . S
C587 C586 1.386 . S
C587 C591 1.393 . S
C588 H577 0.950 . S
C588 C586 1.391 . S
C588 C589 1.400 . S
C589 C583 1.491 . S
C589 C588 1.400 . S
C589 C590 1.398 . S
C590 H578 0.950 . S
C590 C589 1.398 . S
C590 C591 1.391 . S
C591 H579 0.950 . S
C591 C587 1.393 . S
C591 C590 1.391 . S
H592 C600 0.950 . S
H593 C605 0.950 . S
H594 C602 0.950 . S
H595 C604 0.950 . S
H596 C606 0.950 . S
H597 C608 0.950 . S
H598 C610 0.950 . S
H599 C611 0.950 . S
C600 H592 0.950 . S
C600 C601 1.386 . S
C600 C602 1.391 . S
C601 C600 1.386 . S
C601 C605 1.393 . S
C602 H594 0.950 . S
C602 C600 1.391 . S
C602 C603 1.400 . S
C603 C602 1.400 . S
C603 C604 1.398 . S
C603 C609 1.491 . S
C604 H595 0.950 . S
C604 C603 1.398 . S
C604 C605 1.391 . S
C605 H593 0.950 . S
C605 C601 1.393 . S
C605 C604 1.391 . S
C606 H596 0.950 . S
C606 C607 1.386 . S
C606 C608 1.391 . S
C607 C606 1.386 . S
C607 C611 1.393 . S
C608 H597 0.950 . S
C608 C606 1.391 . S
C608 C609 1.400 . S
C609 C603 1.491 . S
C609 C608 1.400 . S
C609 C610 1.398 . S
C610 H598 0.950 . S
C610 C609 1.398 . S
C610 C611 1.391 . S
C611 H599 0.950 . S
C611 C607 1.393 . S
C611 C610 1.391 . S
H612 C620 0.950 . S
H613 C625 0.950 . S
H614 C622 0.950 . S
H615 C624 0.950 . S
H616 C626 0.950 . S
H617 C628 0.950 . S
H618 C630 0.950 . S
H619 C631 0.950 . S
C620 H612 0.950 . S
C620 C621 1.386 . S
C620 C622 1.391 . S
C621 C620 1.386 . S
C621 C625 1.393 . S
C622 H614 0.950 . S
C622 C620 1.391 . S
C622 C623 1.400 . S
C623 C622 1.400 . S
C623 C624 1.398 . S
C623 C629 1.491 . S
C624 H615 0.950 . S
C624 C623 1.398 . S
C624 C625 1.391 . S
C625 H613 0.950 . S
C625 C621 1.393 . S
C625 C624 1.391 . S
C626 H616 0.950 . S
C626 C627 1.386 . S
C626 C628 1.391 . S
C627 C626 1.386 . S
C627 C631 1.393 . S
C628 H617 0.950 . S
C628 C626 1.391 . S
C628 C629 1.400 . S
C629 C623 1.491 . S
C629 C628 1.400 . S
C629 C630 1.398 . S
C630 H618 0.950 . S
C630 C629 1.398 . S
C630 C631 1.391 . S
C631 H619 0.950 . S
C631 C627 1.393 . S
C631 C630 1.391 . S
H632 C640 0.950 . S
H633 C645 0.950 . S
H634 C642 0.950 . S
H635 C644 0.950 . S
H636 C646 0.950 . S
H637 C648 0.950 . S
H638 C650 0.950 . S
H639 C651 0.950 . S
C640 H632 0.950 . S
C640 C641 1.386 . S
C640 C642 1.391 . S
C641 C640 1.386 . S
C641 C645 1.393 . S
C642 H634 0.950 . S
C642 C640 1.391 . S
C642 C643 1.400 . S
C643 C642 1.400 . S
C643 C644 1.398 . S
C643 C649 1.491 . S
C644 H635 0.950 . S
C644 C643 1.398 . S
C644 C645 1.391 . S
C645 H633 0.950 . S
C645 C641 1.393 . S
C645 C644 1.391 . S
C646 H636 0.950 . S
C646 C647 1.386 . S
C646 C648 1.391 . S
C647 C646 1.386 . S
C647 C651 1.393 . S
C648 H637 0.950 . S
C648 C646 1.391 . S
C648 C649 1.400 . S
C649 C643 1.491 . S
C649 C648 1.400 . S
C649 C650 1.398 . S
C650 H638 0.950 . S
C650 C649 1.398 . S
C650 C651 1.391 . S
C651 H639 0.950 . S
C651 C647 1.393 . S
C651 C650 1.391 . S
H652 C660 0.950 . S
H653 C665 0.950 . S
H654 C662 0.950 . S
H655 C664 0.950 . S
H656 C666 0.950 . S
H657 C668 0.950 . S
H658 C670 0.950 . S
H659 C671 0.950 . S
C660 H652 0.950 . S
C660 C661 1.386 . S
C660 C662 1.391 . S
C661 C660 1.386 . S
C661 C665 1.393 . S
C662 H654 0.950 . S
C662 C660 1.391 . S
C662 C663 1.400 . S
C663 C662 1.400 . S
C663 C664 1.398 . S
C663 C669 1.491 . S
C664 H655 0.950 . S
C664 C663 1.398 . S
C664 C665 1.391 . S
C665 H653 0.950 . S
C665 C661 1.393 . S
C665 C664 1.391 . S
C666 H656 0.950 . S
C666 C667 1.386 . S
C666 C668 1.391 . S
C667 C666 1.386 . S
C667 C671 1.393 . S
C668 H657 0.950 . S
C668 C666 1.391 . S
C668 C669 1.400 . S
C669 C663 1.491 . S
C669 C668 1.400 . S
C669 C670 1.398 . S
C670 H658 0.950 . S
C670 C669 1.398 . S
C670 C671 1.391 . S
C671 H659 0.950 . S
C671 C667 1.393 . S
C671 C670 1.391 . S
H672 C680 0.950 . S
H673 C685 0.950 . S
H674 C682 0.950 . S
H675 C684 0.950 . S
H676 C686 0.950 . S
H677 C688 0.950 . S
H678 C690 0.950 . S
H679 C691 0.950 . S
C680 H672 0.950 . S
C680 C681 1.386 . S
C680 C682 1.391 . S
C681 C680 1.386 . S
C681 C685 1.393 . S
C682 H674 0.950 . S
C682 C680 1.391 . S
C682 C683 1.400 . S
C683 C682 1.400 . S
C683 C684 1.398 . S
C683 C689 1.491 . S
C684 H675 0.950 . S
C684 C683 1.398 . S
C684 C685 1.391 . S
C685 H673 0.950 . S
C685 C681 1.393 . S
C685 C684 1.391 . S
C686 H676 0.950 . S
C686 C687 1.386 . S
C686 C688 1.391 . S
C687 C686 1.386 . S
C687 C691 1.393 . S
C688 H677 0.950 . S
C688 C686 1.391 . S
C688 C689 1.400 . S
C689 C683 1.491 . S
C689 C688 1.400 . S
C689 C690 1.398 . S
C690 H678 0.950 . S
C690 C689 1.398 . S
C690 C691 1.391 . S
C691 H679 0.950 . S
C691 C687 1.393 . S
C691 C690 1.391 . S
H692 C700 0.950 . S
H693 C705 0.950 . S
H694 C702 0.950 . S
H695 C704 0.950 . S
H696 C706 0.950 . S
H697 C708 0.950 . S
H698 C710 0.950 . S
H699 C711 0.950 . S
C700 H692 0.950 . S
C700 C701 1.386 . S
C700 C702 1.391 . S
C701 C700 1.386 . S
C701 C705 1.393 . S
C702 H694 0.950 . S
C702 C700 1.391 . S
C702 C703 1.400 . S
C703 C702 1.400 . S
C703 C704 1.398 . S
C703 C709 1.491 . S
C704 H695 0.950 . S
C704 C703 1.398 . S
C704 C705 1.391 . S
C705 H693 0.950 . S
C705 C701 1.393 . S
C705 C704 1.391 . S
C706 H696 0.950 . S
C706 C707 1.386 . S
C706 C708 1.391 . S
C707 C706 1.386 . S
C707 C711 1.393 . S
C708 H697 0.950 . S
C708 C706 1.391 . S
C708 C709 1.400 . S
C709 C703 1.491 . S
C709 C708 1.400 . S
C709 C710 1.398 . S
C710 H698 0.950 . S
C710 C709 1.398 . S
C710 C711 1.391 . S
C711 H699 0.950 . S
C711 C707 1.393 . S
C711 C710 1.391 . S
H712 C720 0.950 . S
H713 C725 0.950 . S
H714 C722 0.950 . S
H715 C724 0.950 . S
H716 C726 0.950 . S
H717 C728 0.950 . S
H718 C730 0.950 . S
H719 C731 0.950 . S
C720 H712 0.950 . S
C720 C721 1.386 . S
C720 C722 1.391 . S
C721 C720 1.386 . S
C721 C725 1.393 . S
C722 H714 0.950 . S
C722 C720 1.391 . S
C722 C723 1.400 . S
C723 C722 1.400 . S
C723 C724 1.398 . S
C723 C729 1.491 . S
C724 H715 0.950 . S
C724 C723 1.398 . S
C724 C725 1.391 . S
C725 H713 0.950 . S
C725 C721 1.393 . S
C725 C724 1.391 . S
C726 H716 0.950 . S
C726 C727 1.386 . S
C726 C728 1.391 . S
C727 C726 1.386 . S
C727 C731 1.393 . S
C728 H717 0.950 . S
C728 C726 1.391 . S
C728 C729 1.400 . S
C729 C723 1.491 . S
C729 C728 1.400 . S
C729 C730 1.398 . S
C730 H718 0.950 . S
C730 C729 1.398 . S
C730 C731 1.391 . S
C731 H719 0.950 . S
C731 C727 1.393 . S
C731 C730 1.391 . S
H732 C740 0.950 . S
H733 C745 0.950 . S
H734 C742 0.950 . S
H735 C744 0.950 . S
H736 C746 0.950 . S
H737 C748 0.950 . S
H738 C750 0.950 . S
H739 C751 0.950 . S
C740 H732 0.950 . S
C740 C741 1.386 . S
C740 C742 1.391 . S
C741 C740 1.386 . S
C741 C745 1.393 . S
C742 H734 0.950 . S
C742 C740 1.391 . S
C742 C743 1.400 . S
C743 C742 1.400 . S
C743 C744 1.398 . S
C743 C749 1.491 . S
C744 H735 0.950 . S
C744 C743 1.398 . S
C744 C745 1.391 . S
C745 H733 0.950 . S
C745 C741 1.393 . S
C745 C744 1.391 . S
C746 H736 0.950 . S
C746 C747 1.386 . S
C746 C748 1.391 . S
C747 C746 1.386 . S
C747 C751 1.393 . S
C748 H737 0.950 . S
C748 C746 1.391 . S
C748 C749 1.400 . S
C749 C743 1.491 . S
C749 C748 1.400 . S
C749 C750 1.398 . S
C750 H738 0.950 . S
C750 C749 1.398 . S
C750 C751 1.391 . S
C751 H739 0.950 . S
C751 C747 1.393 . S
C751 C750 1.391 . S
H752 C760 0.950 . S
H753 C765 0.950 . S
H754 C762 0.950 . S
H755 C764 0.950 . S
H756 C766 0.950 . S
H757 C768 0.950 . S
H758 C770 0.950 . S
H759 C771 0.950 . S
C760 H752 0.950 . S
C760 C761 1.386 . S
C760 C762 1.391 . S
C761 C760 1.386 . S
C761 C765 1.393 . S
C762 H754 0.950 . S
C762 C760 1.391 . S
C762 C763 1.400 . S
C763 C762 1.400 . S
C763 C764 1.398 . S
C763 C769 1.491 . S
C764 H755 0.950 . S
C764 C763 1.398 . S
C764 C765 1.391 . S
C765 H753 0.950 . S
C765 C761 1.393 . S
C765 C764 1.391 . S
C766 H756 0.950 . S
C766 C767 1.386 . S
C766 C768 1.391 . S
C767 C766 1.386 . S
C767 C771 1.393 . S
C768 H757 0.950 . S
C768 C766 1.391 . S
C768 C769 1.400 . S
C769 C763 1.491 . S
C769 C768 1.400 . S
C769 C770 1.398 . S
C770 H758 0.950 . S
C770 C769 1.398 . S
C770 C771 1.391 . S
C771 H759 0.950 . S
C771 C767 1.393 . S
C771 C770 1.391 . S
H772 C780 0.950 . S
H773 C785 0.950 . S
H774 C782 0.950 . S
H775 C784 0.950 . S
H776 C786 0.950 . S
H777 C788 0.950 . S
H778 C790 0.950 . S
H779 C791 0.950 . S
C780 H772 0.950 . S
C780 C781 1.386 . S
C780 C782 1.391 . S
C781 C780 1.386 . S
C781 C785 1.393 . S
C782 H774 0.950 . S
C782 C780 1.391 . S
C782 C783 1.400 . S
C783 C782 1.400 . S
C783 C784 1.398 . S
C783 C789 1.491 . S
C784 H775 0.950 . S
C784 C783 1.398 . S
C784 C785 1.391 . S
C785 H773 0.950 . S
C785 C781 1.393 . S
C785 C784 1.391 . S
C786 H776 0.950 . S
C786 C787 1.386 . S
C786 C788 1.391 . S
C787 C786 1.386 . S
C787 C791 1.393 . S
C788 H777 0.950 . S
C788 C786 1.391 . S
C788 C789 1.400 . S
C789 C783 1.491 . S
C789 C788 1.400 . S
C789 C790 1.398 . S
C790 H778 0.950 . S
C790 C789 1.398 . S
C790 C791 1.391 . S
C791 H779 0.950 . S
C791 C787 1.393 . S
C791 C790 1.391 . S
H792 C800 0.950 . S
H793 C805 0.950 . S
H794 C802 0.950 . S
H795 C804 0.950 . S
H796 C806 0.950 . S
H797 C808 0.950 . S
H798 C810 0.950 . S
H799 C811 0.950 . S
C800 H792 0.950 . S
C800 C801 1.386 . S
C800 C802 1.391 . S
C801 C800 1.386 . S
C801 C805 1.393 . S
C802 H794 0.950 . S
C802 C800 1.391 . S
C802 C803 1.400 . S
C803 C802 1.400 . S
C803 C804 1.398 . S
C803 C809 1.491 1_455 S
C804 H795 0.950 . S
C804 C803 1.398 . S
C804 C805 1.391 . S
C805 H793 0.950 . S
C805 C801 1.393 . S
C805 C804 1.391 . S
C806 H796 0.950 . S
C806 C807 1.386 . S
C806 C808 1.391 . S
C807 C806 1.386 . S
C807 C811 1.393 . S
C808 H797 0.950 . S
C808 C806 1.391 . S
C808 C809 1.400 . S
C809 C803 1.491 1_655 S
C809 C808 1.400 . S
C809 C810 1.398 . S
C810 H798 0.950 . S
C810 C809 1.398 . S
C810 C811 1.391 . S
C811 H799 0.950 . S
C811 C807 1.393 . S
C811 C810 1.391 . S
H812 C820 0.950 . S
H813 C825 0.950 . S
H814 C822 0.950 . S
H815 C824 0.950 . S
H816 C826 0.950 . S
H817 C828 0.950 . S
H818 C830 0.950 . S
H819 C831 0.950 . S
C820 H812 0.950 . S
C820 C821 1.386 . S
C820 C822 1.391 . S
C821 C820 1.386 . S
C821 C825 1.393 . S
C822 H814 0.950 . S
C822 C820 1.391 . S
C822 C823 1.400 . S
C823 C822 1.400 . S
C823 C824 1.398 . S
C823 C829 1.491 1_545 S
C824 H815 0.950 . S
C824 C823 1.398 . S
C824 C825 1.391 . S
C825 H813 0.950 . S
C825 C821 1.393 . S
C825 C824 1.391 . S
C826 H816 0.950 . S
C826 C827 1.386 . S
C826 C828 1.391 . S
C827 C826 1.386 . S
C827 C831 1.393 . S
C828 H817 0.950 . S
C828 C826 1.391 . S
C828 C829 1.400 . S
C829 C823 1.491 1_565 S
C829 C828 1.400 . S
C829 C830 1.398 . S
C830 H818 0.950 . S
C830 C829 1.398 . S
C830 C831 1.391 . S
C831 H819 0.950 . S
C831 C827 1.393 . S
C831 C830 1.391 . S
H832 C840 0.950 . S
H833 C845 0.950 . S
H834 C842 0.950 . S
H835 C844 0.950 . S
H836 C846 0.950 . S
H837 C848 0.950 . S
H838 C850 0.950 . S
H839 C851 0.950 . S
C840 H832 0.950 . S
C840 C841 1.386 . S
C840 C842 1.391 . S
C841 C840 1.386 . S
C841 C845 1.393 . S
C842 H834 0.950 . S
C842 C840 1.391 . S
C842 C843 1.400 . S
C843 C842 1.400 . S
C843 C844 1.398 . S
C843 C849 1.491 1_655 S
C844 H835 0.950 . S
C844 C843 1.398 . S
C844 C845 1.391 . S
C845 H833 0.950 . S
C845 C841 1.393 . S
C845 C844 1.391 . S
C846 H836 0.950 . S
C846 C847 1.386 . S
C846 C848 1.391 . S
C847 C846 1.386 . S
C847 C851 1.393 . S
C848 H837 0.950 . S
C848 C846 1.391 . S
C848 C849 1.400 . S
C849 C843 1.491 1_455 S
C849 C848 1.400 . S
C849 C850 1.398 . S
C850 H838 0.950 . S
C850 C849 1.398 . S
C850 C851 1.391 . S
C851 H839 0.950 . S
C851 C847 1.393 . S
C851 C850 1.391 . S
H852 C860 0.950 . S
H853 C865 0.950 . S
H854 C862 0.950 . S
H855 C864 0.950 . S
H856 C866 0.950 . S
H857 C868 0.950 . S
H858 C870 0.950 . S
H859 C871 0.950 . S
C860 H852 0.950 . S
C860 C861 1.386 . S
C860 C862 1.391 . S
C861 C860 1.386 . S
C861 C865 1.393 . S
C862 H854 0.950 . S
C862 C860 1.391 . S
C862 C863 1.400 . S
C863 C862 1.400 . S
C863 C864 1.398 . S
C863 C869 1.491 1_545 S
C864 H855 0.950 . S
C864 C863 1.398 . S
C864 C865 1.391 . S
C865 H853 0.950 . S
C865 C861 1.393 . S
C865 C864 1.391 . S
C866 H856 0.950 . S
C866 C867 1.386 . S
C866 C868 1.391 . S
C867 C866 1.386 . S
C867 C871 1.393 . S
C868 H857 0.950 . S
C868 C866 1.391 . S
C868 C869 1.400 . S
C869 C863 1.491 1_565 S
C869 C868 1.400 . S
C869 C870 1.398 . S
C870 H858 0.950 . S
C870 C869 1.398 . S
C870 C871 1.391 . S
C871 H859 0.950 . S
C871 C867 1.393 . S
C871 C870 1.391 . S
H872 C880 0.950 . S
H873 C885 0.950 . S
H874 C882 0.950 . S
H875 C884 0.950 . S
H876 C886 0.950 . S
H877 C888 0.950 . S
H878 C890 0.950 . S
H879 C891 0.950 . S
C880 H872 0.950 . S
C880 C881 1.386 . S
C880 C882 1.391 . S
C881 C880 1.386 . S
C881 C885 1.393 . S
C882 H874 0.950 . S
C882 C880 1.391 . S
C882 C883 1.400 . S
C883 C882 1.400 . S
C883 C884 1.398 . S
C883 C889 1.491 1_565 S
C884 H875 0.950 . S
C884 C883 1.398 . S
C884 C885 1.391 . S
C885 H873 0.950 . S
C885 C881 1.393 . S
C885 C884 1.391 . S
C886 H876 0.950 . S
C886 C887 1.386 . S
C886 C888 1.391 . S
C887 C886 1.386 . S
C887 C891 1.393 . S
C888 H877 0.950 . S
C888 C886 1.391 . S
C888 C889 1.400 . S
C889 C883 1.491 1_545 S
C889 C888 1.400 . S
C889 C890 1.398 . S
C890 H878 0.950 . S
C890 C889 1.398 . S
C890 C891 1.391 . S
C891 H879 0.950 . S
C891 C887 1.393 . S
C891 C890 1.391 . S
H892 C900 0.950 . S
H893 C905 0.950 . S
H894 C902 0.950 . S
H895 C904 0.950 . S
H896 C906 0.950 . S
H897 C908 0.950 . S
H898 C910 0.950 . S
H899 C911 0.950 . S
C900 H892 0.950 . S
C900 C901 1.386 . S
C900 C902 1.391 . S
C901 C900 1.386 . S
C901 C905 1.393 . S
C902 H894 0.950 . S
C902 C900 1.391 . S
C902 C903 1.400 . S
C903 C902 1.400 . S
C903 C904 1.398 . S
C903 C909 1.491 1_655 S
C904 H895 0.950 . S
C904 C903 1.398 . S
C904 C905 1.391 . S
C905 H893 0.950 . S
C905 C901 1.393 . S
C905 C904 1.391 . S
C906 H896 0.950 . S
C906 C907 1.386 . S
C906 C908 1.391 . S
C907 C906 1.386 . S
C907 C911 1.393 . S
C908 H897 0.950 . S
C908 C906 1.391 . S
C908 C909 1.400 . S
C909 C903 1.491 1_455 S
C909 C908 1.400 . S
C909 C910 1.398 . S
C910 H898 0.950 . S
C910 C909 1.398 . S
C910 C911 1.391 . S
C911 H899 0.950 . S
C911 C907 1.393 . S
C911 C910 1.391 . S
H912 C920 0.950 . S
H913 C925 0.950 . S
H914 C922 0.950 . S
H915 C924 0.950 . S
H916 C926 0.950 . S
H917 C928 0.950 . S
H918 C930 0.950 . S
H919 C931 0.950 . S
C920 H912 0.950 . S
C920 C921 1.386 . S
C920 C922 1.391 . S
C921 C920 1.386 . S
C921 C925 1.393 . S
C922 H914 0.950 . S
C922 C920 1.391 . S
C922 C923 1.400 . S
C923 C922 1.400 . S
C923 C924 1.398 . S
C923 C929 1.491 1_565 S
C924 H915 0.950 . S
C924 C923 1.398 . S
C924 C925 1.391 . S
C925 H913 0.950 . S
C925 C921 1.393 . S
C925 C924 1.391 . S
C926 H916 0.950 . S
C926 C927 1.386 . S
C926 C928 1.391 . S
C927 C926 1.386 . S
C927 C931 1.393 . S
C928 H917 0.950 . S
C928 C926 1.391 . S
C928 C929 1.400 . S
C929 C923 1.491 1_545 S
C929 C928 1.400 . S
C929 C930 1.398 . S
C930 H918 0.950 . S
C930 C929 1.398 . S
C930 C931 1.391 . S
C931 H919 0.950 . S
C931 C927 1.393 . S
C931 C930 1.391 . S
H932 C940 0.950 . S
H933 C945 0.950 . S
H934 C942 0.950 . S
H935 C944 0.950 . S
H936 C946 0.950 . S
H937 C948 0.950 . S
H938 C950 0.950 . S
H939 C951 0.950 . S
C940 H932 0.950 . S
C940 C941 1.386 . S
C940 C942 1.391 . S
C941 C940 1.386 . S
C941 C945 1.393 . S
C942 H934 0.950 . S
C942 C940 1.391 . S
C942 C943 1.400 . S
C943 C942 1.400 . S
C943 C944 1.398 . S
C943 C949 1.491 1_655 S
C944 H935 0.950 . S
C944 C943 1.398 . S
C944 C945 1.391 . S
C945 H933 0.950 . S
C945 C941 1.393 . S
C945 C944 1.391 . S
C946 H936 0.950 . S
C946 C947 1.386 . S
C946 C948 1.391 . S
C947 C946 1.386 . S
C947 C951 1.393 . S
C948 H937 0.950 . S
C948 C946 1.391 . S
C948 C949 1.400 . S
C949 C943 1.491 1_455 S
C949 C948 1.400 . S
C949 C950 1.398 . S
C950 H938 0.950 . S
C950 C949 1.398 . S
C950 C951 1.391 . S
C951 H939 0.950 . S
C951 C947 1.393 . S
C951 C950 1.391 . S
H952 C960 0.950 . S
H953 C965 0.950 . S
H954 C962 0.950 . S
H955 C964 0.950 . S
H956 C966 0.950 . S
H957 C968 0.950 . S
H958 C970 0.950 . S
H959 C971 0.950 . S
C960 H952 0.950 . S
C960 C961 1.386 . S
C960 C962 1.391 . S
C961 C960 1.386 . S
C961 C965 1.393 . S
C962 H954 0.950 . S
C962 C960 1.391 . S
C962 C963 1.400 . S
C963 C962 1.400 . S
C963 C964 1.398 . S
C963 C969 1.491 1_556 S
C964 H955 0.950 . S
C964 C963 1.398 . S
C964 C965 1.391 . S
C965 H953 0.950 . S
C965 C961 1.393 . S
C965 C964 1.391 . S
C966 H956 0.950 . S
C966 C967 1.386 . S
C966 C968 1.391 . S
C967 C966 1.386 . S
C967 C971 1.393 . S
C968 H957 0.950 . S
C968 C966 1.391 . S
C968 C969 1.400 . S
C969 C963 1.491 1_554 S
C969 C968 1.400 . S
C969 C970 1.398 . S
C970 H958 0.950 . S
C970 C969 1.398 . S
C970 C971 1.391 . S
C971 H959 0.950 . S
C971 C967 1.393 . S
C971 C970 1.391 . S
H972 C980 0.950 . S
H973 C985 0.950 . S
H974 C982 0.950 . S
H975 C984 0.950 . S
H976 C986 0.950 . S
H977 C988 0.950 . S
H978 C990 0.950 . S
H979 C991 0.950 . S
C980 H972 0.950 . S
C980 C981 1.386 . S
C980 C982 1.391 . S
C981 C980 1.386 . S
C981 C985 1.393 . S
C982 H974 0.950 . S
C982 C980 1.391 . S
C982 C983 1.400 . S
C983 C982 1.400 . S
C983 C984 1.398 . S
C983 C989 1.491 1_556 S
C984 H975 0.950 . S
C984 C983 1.398 . S
C984 C985 1.391 . S
C985 H973 0.950 . S
C985 C981 1.393 . S
C985 C984 1.391 . S
C986 H976 0.950 . S
C986 C987 1.386 . S
C986 C988 1.391 . S
C987 C986 1.386 . S
C987 C991 1.393 . S
C988 H977 0.950 . S
C988 C986 1.391 . S
C988 C989 1.400 . S
C989 C983 1.491 1_554 S
C989 C988 1.400 . S
C989 C990 1.398 . S
C990 H978 0.950 . S
C990 C989 1.398 . S
C990 C991 1.391 . S
C991 H979 0.950 . S
C991 C987 1.393 . S
C991 C990 1.391 . S
H992 C1000 0.950 . S
H993 C1005 0.950 . S
H994 C1002 0.950 . S
H995 C1004 0.950 . S
H996 C1006 0.950 . S
H997 C1008 0.950 . S
H998 C1010 0.950 . S
H999 C1011 0.950 . S
C1000 H992 0.950 . S
C1000 C1001 1.386 . S
C1000 C1002 1.391 . S
C1001 C1000 1.386 . S
C1001 C1005 1.393 . S
C1002 H994 0.950 . S
C1002 C1000 1.391 . S
C1002 C1003 1.400 . S
C1003 C1002 1.400 . S
C1003 C1004 1.398 . S
C1003 C1009 1.491 1_556 S
C1004 H995 0.950 . S
C1004 C1003 1.398 . S
C1004 C1005 1.391 . S
C1005 H993 0.950 . S
C1005 C1001 1.393 . S
C1005 C1004 1.391 . S
C1006 H996 0.950 . S
C1006 C1007 1.386 . S
C1006 C1008 1.391 . S
C1007 C1006 1.386 . S
C1007 C1011 1.393 . S
C1008 H997 0.950 . S
C1008 C1006 1.391 . S
C1008 C1009 1.400 . S
C1009 C1003 1.491 1_554 S
C1009 C1008 1.400 . S
C1009 C1010 1.398 . S
C1010 H998 0.950 . S
C1010 C1009 1.398 . S
C1010 C1011 1.391 . S
C1011 H999 0.950 . S
C1011 C1007 1.393 . S
C1011 C1010 1.391 . S
H1012 C1020 0.950 . S
H1013 C1025 0.950 . S
H1014 C1022 0.950 . S
H1015 C1024 0.950 . S
H1016 C1026 0.950 . S
H1017 C1028 0.950 . S
H1018 C1030 0.950 . S
H1019 C1031 0.950 . S
C1020 H1012 0.950 . S
C1020 C1021 1.386 . S
C1020 C1022 1.391 . S
C1021 C1020 1.386 . S
C1021 C1025 1.393 . S
C1022 H1014 0.950 . S
C1022 C1020 1.391 . S
C1022 C1023 1.400 . S
C1023 C1022 1.400 . S
C1023 C1024 1.398 . S
C1023 C1029 1.491 1_556 S
C1024 H1015 0.950 . S
C1024 C1023 1.398 . S
C1024 C1025 1.391 . S
C1025 H1013 0.950 . S
C1025 C1021 1.393 . S
C1025 C1024 1.391 . S
C1026 H1016 0.950 . S
C1026 C1027 1.386 . S
C1026 C1028 1.391 . S
C1027 C1026 1.386 . S
C1027 C1031 1.393 . S
C1028 H1017 0.950 . S
C1028 C1026 1.391 . S
C1028 C1029 1.400 . S
C1029 C1023 1.491 1_554 S
C1029 C1028 1.400 . S
C1029 C1030 1.398 . S
C1030 H1018 0.950 . S
C1030 C1029 1.398 . S
C1030 C1031 1.391 . S
C1031 H1019 0.950 . S
C1031 C1027 1.393 . S
C1031 C1030 1.391 . S
H1032 C1040 0.950 . S
H1033 C1045 0.950 . S
H1034 C1042 0.950 . S
H1035 C1044 0.950 . S
H1036 C1046 0.950 . S
H1037 C1048 0.950 . S
H1038 C1050 0.950 . S
H1039 C1051 0.950 . S
C1040 H1032 0.950 . S
C1040 C1041 1.386 . S
C1040 C1042 1.391 . S
C1041 C1040 1.386 . S
C1041 C1045 1.393 . S
C1042 H1034 0.950 . S
C1042 C1040 1.391 . S
C1042 C1043 1.400 . S
C1043 C1042 1.400 . S
C1043 C1044 1.398 . S
C1043 C1049 1.491 . S
C1044 H1035 0.950 . S
C1044 C1043 1.398 . S
C1044 C1045 1.391 . S
C1045 H1033 0.950 . S
C1045 C1041 1.393 . S
C1045 C1044 1.391 . S
C1046 H1036 0.950 . S
C1046 C1047 1.386 . S
C1046 C1048 1.391 . S
C1047 C1046 1.386 . S
C1047 C1051 1.393 . S
C1048 H1037 0.950 . S
C1048 C1046 1.391 . S
C1048 C1049 1.400 . S
C1049 C1043 1.491 . S
C1049 C1048 1.400 . S
C1049 C1050 1.398 . S
C1050 H1038 0.950 . S
C1050 C1049 1.398 . S
C1050 C1051 1.391 . S
C1051 H1039 0.950 . S
C1051 C1047 1.393 . S
C1051 C1050 1.391 . S
H1052 C1060 0.950 . S
H1053 C1065 0.950 . S
H1054 C1062 0.950 . S
H1055 C1064 0.950 . S
H1056 C1066 0.950 . S
H1057 C1068 0.950 . S
H1058 C1070 0.950 . S
H1059 C1071 0.950 . S
C1060 H1052 0.950 . S
C1060 C1061 1.386 . S
C1060 C1062 1.391 . S
C1061 C1060 1.386 . S
C1061 C1065 1.393 . S
C1062 H1054 0.950 . S
C1062 C1060 1.391 . S
C1062 C1063 1.400 . S
C1063 C1062 1.400 . S
C1063 C1064 1.398 . S
C1063 C1069 1.491 . S
C1064 H1055 0.950 . S
C1064 C1063 1.398 . S
C1064 C1065 1.391 . S
C1065 H1053 0.950 . S
C1065 C1061 1.393 . S
C1065 C1064 1.391 . S
C1066 H1056 0.950 . S
C1066 C1067 1.386 . S
C1066 C1068 1.391 . S
C1067 C1066 1.386 . S
C1067 C1071 1.393 . S
C1068 H1057 0.950 . S
C1068 C1066 1.391 . S
C1068 C1069 1.400 . S
C1069 C1063 1.491 . S
C1069 C1068 1.400 . S
C1069 C1070 1.398 . S
C1070 H1058 0.950 . S
C1070 C1069 1.398 . S
C1070 C1071 1.391 . S
C1071 H1059 0.950 . S
C1071 C1067 1.393 . S
C1071 C1070 1.391 . S
H1072 C1080 0.950 . S
H1073 C1085 0.950 . S
H1074 C1082 0.950 . S
H1075 C1084 0.950 . S
H1076 C1086 0.950 . S
H1077 C1088 0.950 . S
H1078 C1090 0.950 . S
H1079 C1091 0.950 . S
C1080 H1072 0.950 . S
C1080 C1081 1.386 . S
C1080 C1082 1.391 . S
C1081 C1080 1.386 . S
C1081 C1085 1.393 . S
C1082 H1074 0.950 . S
C1082 C1080 1.391 . S
C1082 C1083 1.400 . S
C1083 C1082 1.400 . S
C1083 C1084 1.398 . S
C1083 C1089 1.491 . S
C1084 H1075 0.950 . S
C1084 C1083 1.398 . S
C1084 C1085 1.391 . S
C1085 H1073 0.950 . S
C1085 C1081 1.393 . S
C1085 C1084 1.391 . S
C1086 H1076 0.950 . S
C1086 C1087 1.386 . S
C1086 C1088 1.391 . S
C1087 C1086 1.386 . S
C1087 C1091 1.393 . S
C1088 H1077 0.950 . S
C1088 C1086 1.391 . S
C1088 C1089 1.400 . S
C1089 C1083 1.491 . S
C1089 C1088 1.400 . S
C1089 C1090 1.398 . S
C1090 H1078 0.950 . S
C1090 C1089 1.398 . S
C1090 C1091 1.391 . S
C1091 H1079 0.950 . S
C1091 C1087 1.393 . S
C1091 C1090 1.391 . S
H1092 C1100 0.950 . S
H1093 C1105 0.950 . S
H1094 C1102 0.950 . S
H1095 C1104 0.950 . S
H1096 C1106 0.950 . S
H1097 C1108 0.950 . S
H1098 C1110 0.950 . S
H1099 C1111 0.950 . S
C1100 H1092 0.950 . S
C1100 C1101 1.386 . S
C1100 C1102 1.391 . S
C1101 C1100 1.386 . S
C1101 C1105 1.393 . S
C1102 H1094 0.950 . S
C1102 C1100 1.391 . S
C1102 C1103 1.400 . S
C1103 C1102 1.400 . S
C1103 C1104 1.398 . S
C1103 C1109 1.491 . S
C1104 H1095 0.950 . S
C1104 C1103 1.398 . S
C1104 C1105 1.391 . S
C1105 H1093 0.950 . S
C1105 C1101 1.393 . S
C1105 C1104 1.391 . S
C1106 H1096 0.950 . S
C1106 C1107 1.386 . S
C1106 C1108 1.391 . S
C1107 C1106 1.386 . S
C1107 C1111 1.393 . S
C1108 H1097 0.950 . S
C1108 C1106 1.391 . S
C1108 C1109 1.400 . S
C1109 C1103 1.491 . S
C1109 C1108 1.400 . S
C1109 C1110 1.398 . S
C1110 H1098 0.950 . S
C1110 C1109 1.398 . S
C1110 C1111 1.391 . S
C1111 H1099 0.950 . S
C1111 C1107 1.393 . S
C1111 C1110 1.391 . S
H1112 C1120 0.950 . S
H1113 C1125 0.950 . S
H1114 C1122 0.950 . S
H1115 C1124 0.950 . S
H1116 C1126 0.950 . S
H1117 C1128 0.950 . S
H1118 C1130 0.950 . S
H1119 C1131 0.950 . S
C1120 H1112 0.950 . S
C1120 C1121 1.386 . S
C1120 C1122 1.391 . S
C1121 C1120 1.386 . S
C1121 C1125 1.393 . S
C1122 H1114 0.950 . S
C1122 C1120 1.391 . S
C1122 C1123 1.400 . S
C1123 C1122 1.400 . S
C1123 C1124 1.398 . S
C1123 C1129 1.491 . S
C1124 H1115 0.950 . S
C1124 C1123 1.398 . S
C1124 C1125 1.391 . S
C1125 H1113 0.950 . S
C1125 C1121 1.393 . S
C1125 C1124 1.391 . S
C1126 H1116 0.950 . S
C1126 C1127 1.386 . S
C1126 C1128 1.391 . S
C1127 C1126 1.386 . S
C1127 C1131 1.393 . S
C1128 H1117 0.950 . S
C1128 C1126 1.391 . S
C1128 C1129 1.400 . S
C1129 C1123 1.491 . S
C1129 C1128 1.400 . S
C1129 C1130 1.398 . S
C1130 H1118 0.950 . S
C1130 C1129 1.398 . S
C1130 C1131 1.391 . S
C1131 H1119 0.950 . S
C1131 C1127 1.393 . S
C1131 C1130 1.391 . S
H1132 C1140 0.950 . S
H1133 C1145 0.950 . S
H1134 C1142 0.950 . S
H1135 C1144 0.950 . S
H1136 C1146 0.950 . S
H1137 C1148 0.950 . S
H1138 C1150 0.950 . S
H1139 C1151 0.950 . S
C1140 H1132 0.950 . S
C1140 C1141 1.386 . S
C1140 C1142 1.391 . S
C1141 C1140 1.386 . S
C1141 C1145 1.393 . S
C1142 H1134 0.950 . S
C1142 C1140 1.391 . S
C1142 C1143 1.400 . S
C1143 C1142 1.400 . S
C1143 C1144 1.398 . S
C1143 C1149 1.491 . S
C1144 H1135 0.950 . S
C1144 C1143 1.398 . S
C1144 C1145 1.391 . S
C1145 H1133 0.950 . S
C1145 C1141 1.393 . S
C1145 C1144 1.391 . S
C1146 H1136 0.950 . S
C1146 C1147 1.386 . S
C1146 C1148 1.391 . S
C1147 C1146 1.386 . S
C1147 C1151 1.393 . S
C1148 H1137 0.950 . S
C1148 C1146 1.391 . S
C1148 C1149 1.400 . S
C1149 C1143 1.491 . S
C1149 C1148 1.400 . S
C1149 C1150 1.398 . S
C1150 H1138 0.950 . S
C1150 C1149 1.398 . S
C1150 C1151 1.391 . S
C1151 H1139 0.950 . S
C1151 C1147 1.393 . S
C1151 C1150 1.391 . S
H1152 C1160 0.950 . S
H1153 C1165 0.950 . S
H1154 C1162 0.950 . S
H1155 C1164 0.950 . S
H1156 C1166 0.950 . S
H1157 C1168 0.950 . S
H1158 C1170 0.950 . S
H1159 C1171 0.950 . S
C1160 H1152 0.950 . S
C1160 C1161 1.386 . S
C1160 C1162 1.391 . S
C1161 C1160 1.386 . S
C1161 C1165 1.393 . S
C1162 H1154 0.950 . S
C1162 C1160 1.391 . S
C1162 C1163 1.400 . S
C1163 C1162 1.400 . S
C1163 C1164 1.398 . S
C1163 C1169 1.491 . S
C1164 H1155 0.950 . S
C1164 C1163 1.398 . S
C1164 C1165 1.391 . S
C1165 H1153 0.950 . S
C1165 C1161 1.393 . S
C1165 C1164 1.391 . S
C1166 H1156 0.950 . S
C1166 C1167 1.386 . S
C1166 C1168 1.391 . S
C1167 C1166 1.386 . S
C1167 C1171 1.393 . S
C1168 H1157 0.950 . S
C1168 C1166 1.391 . S
C1168 C1169 1.400 . S
C1169 C1163 1.491 . S
C1169 C1168 1.400 . S
C1169 C1170 1.398 . S
C1170 H1158 0.950 . S
C1170 C1169 1.398 . S
C1170 C1171 1.391 . S
C1171 H1159 0.950 . S
C1171 C1167 1.393 . S
C1171 C1170 1.391 . S
H1172 C1180 0.950 . S
H1173 C1185 0.950 . S
H1174 C1182 0.950 . S
H1175 C1184 0.950 . S
H1176 C1186 0.950 . S
H1177 C1188 0.950 . S
H1178 C1190 0.950 . S
H1179 C1191 0.950 . S
C1180 H1172 0.950 . S
C1180 C1181 1.386 . S
C1180 C1182 1.391 . S
C1181 C1180 1.386 . S
C1181 C1185 1.393 . S
C1182 H1174 0.950 . S
C1182 C1180 1.391 . S
C1182 C1183 1.400 . S
C1183 C1182 1.400 . S
C1183 C1184 1.398 . S
C1183 C1189 1.491 . S
C1184 H1175 0.950 . S
C1184 C1183 1.398 . S
C1184 C1185 1.391 . S
C1185 H1173 0.950 . S
C1185 C1181 1.393 . S
C1185 C1184 1.391 . S
C1186 H1176 0.950 . S
C1186 C1187 1.386 . S
C1186 C1188 1.391 . S
C1187 C1186 1.386 . S
C1187 C1191 1.393 . S
C1188 H1177 0.950 . S
C1188 C1186 1.391 . S
C1188 C1189 1.400 . S
C1189 C1183 1.491 . S
C1189 C1188 1.400 . S
C1189 C1190 1.398 . S
C1190 H1178 0.950 . S
C1190 C1189 1.398 . S
C1190 C1191 1.391 . S
C1191 H1179 0.950 . S
C1191 C1187 1.393 . S
C1191 C1190 1.391 . S
H1192 C1200 0.950 . S
H1193 C1205 0.950 . S
H1194 C1202 0.950 . S
H1195 C1204 0.950 . S
H1196 C1206 0.950 . S
H1197 C1208 0.950 . S
H1198 C1210 0.950 . S
H1199 C1211 0.950 . S
C1200 H1192 0.950 . S
C1200 C1201 1.386 . S
C1200 C1202 1.391 . S
C1201 C1200 1.386 . S
C1201 C1205 1.393 . S
C1202 H1194 0.950 . S
C1202 C1200 1.391 . S
C1202 C1203 1.400 . S
C1203 C1202 1.400 . S
C1203 C1204 1.398 . S
C1203 C1209 1.491 . S
C1204 H1195 0.950 . S
C1204 C1203 1.398 . S
C1204 C1205 1.391 . S
C1205 H1193 0.950 . S
C1205 C1201 1.393 . S
C1205 C1204 1.391 . S
C1206 H1196 0.950 . S
C1206 C1207 1.386 . S
C1206 C1208 1.391 . S
C1207 C1206 1.386 . S
C1207 C1211 1.393 . S
C1208 H1197 0.950 . S
C1208 C1206 1.391 . S
C1208 C1209 1.400 . S
C1209 C1203 1.491 . S
C1209 C1208 1.400 . S
C1209 C1210 1.398 . S
C1210 H1198 0.950 . S
C1210 C1209 1.398 . S
C1210 C1211 1.391 . S
C1211 H1199 0.950 . S
C1211 C1207 1.393 . S
C1211 C1210 1.391 . S
H1212 C1220 0.950 . S
H1213 C1225 0.950 . S
H1214 C1222 0.950 . S
H1215 C1224 0.950 . S
H1216 C1226 0.950 . S
H1217 C1228 0.950 . S
H1218 C1230 0.950 . S
H1219 C1231 0.950 . S
C1220 H1212 0.950 . S
C1220 C1221 1.386 . S
C1220 C1222 1.391 . S
C1221 C1220 1.386 . S
C1221 C1225 1.393 . S
C1222 H1214 0.950 . S
C1222 C1220 1.391 . S
C1222 C1223 1.400 . S
C1223 C1222 1.400 . S
C1223 C1224 1.398 . S
C1223 C1229 1.491 . S
C1224 H1215 0.950 . S
C1224 C1223 1.398 . S
C1224 C1225 1.391 . S
C1225 H1213 0.950 . S
C1225 C1221 1.393 . S
C1225 C1224 1.391 . S
C1226 H1216 0.950 . S
C1226 C1227 1.386 . S
C1226 C1228 1.391 . S
C1227 C1226 1.386 . S
C1227 C1231 1.393 . S
C1228 H1217 0.950 . S
C1228 C1226 1.391 . S
C1228 C1229 1.400 . S
C1229 C1223 1.491 . S
C1229 C1228 1.400 . S
C1229 C1230 1.398 . S
C1230 H1218 0.950 . S
C1230 C1229 1.398 . S
C1230 C1231 1.391 . S
C1231 H1219 0.950 . S
C1231 C1227 1.393 . S
C1231 C1230 1.391 . S
H1232 C1240 0.950 . S
H1233 C1245 0.950 . S
H1234 C1242 0.950 . S
H1235 C1244 0.950 . S
H1236 C1246 0.950 . S
H1237 C1248 0.950 . S
H1238 C1250 0.950 . S
H1239 C1251 0.950 . S
C1240 H1232 0.950 . S
C1240 C1241 1.386 . S
C1240 C1242 1.391 . S
C1241 C1240 1.386 . S
C1241 C1245 1.393 . S
C1242 H1234 0.950 . S
C1242 C1240 1.391 . S
C1242 C1243 1.400 . S
C1243 C1242 1.400 . S
C1243 C1244 1.398 . S
C1243 C1249 1.491 . S
C1244 H1235 0.950 . S
C1244 C1243 1.398 . S
C1244 C1245 1.391 . S
C1245 H1233 0.950 . S
C1245 C1241 1.393 . S
C1245 C1244 1.391 . S
C1246 H1236 0.950 . S
C1246 C1247 1.386 . S
C1246 C1248 1.391 . S
C1247 C1246 1.386 . S
C1247 C1251 1.393 . S
C1248 H1237 0.950 . S
C1248 C1246 1.391 . S
C1248 C1249 1.400 . S
C1249 C1243 1.491 . S
C1249 C1248 1.400 . S
C1249 C1250 1.398 . S
C1250 H1238 0.950 . S
C1250 C1249 1.398 . S
C1250 C1251 1.391 . S
C1251 H1239 0.950 . S
C1251 C1247 1.393 . S
C1251 C1250 1.391 . S
H1252 C1260 0.950 . S
H1253 C1265 0.950 . S
H1254 C1262 0.950 . S
H1255 C1264 0.950 . S
H1256 C1266 0.950 . S
H1257 C1268 0.950 . S
H1258 C1270 0.950 . S
H1259 C1271 0.950 . S
C1260 H1252 0.950 . S
C1260 C1261 1.386 . S
C1260 C1262 1.391 . S
C1261 C1260 1.386 . S
C1261 C1265 1.393 . S
C1262 H1254 0.950 . S
C1262 C1260 1.391 . S
C1262 C1263 1.400 . S
C1263 C1262 1.400 . S
C1263 C1264 1.398 . S
C1263 C1269 1.491 . S
C1264 H1255 0.950 . S
C1264 C1263 1.398 . S
C1264 C1265 1.391 . S
C1265 H1253 0.950 . S
C1265 C1261 1.393 . S
C1265 C1264 1.391 . S
C1266 H1256 0.950 . S
C1266 C1267 1.386 . S
C1266 C1268 1.391 . S
C1267 C1266 1.386 . S
C1267 C1271 1.393 . S
C1268 H1257 0.950 . S
C1268 C1266 1.391 . S
C1268 C1269 1.400 . S
C1269 C1263 1.491 . S
C1269 C1268 1.400 . S
C1269 C1270 1.398 . S
C1270 H1258 0.950 . S
C1270 C1269 1.398 . S
C1270 C1271 1.391 . S
C1271 H1259 0.950 . S
C1271 C1267 1.393 . S
C1271 C1270 1.391 . S
C321 C153 1.496 . S
C327 C3 1.519 . S
C341 C16 1.508 . S
C347 C108 1.510 . S
C361 C31 1.505 . S
C367 C121 1.502 . S
C381 C42 1.503 . S
C387 C134 1.507 . S
C401 C173 1.506 . S
C407 C55 1.503 . S
C421 C68 1.503 . S
C427 C186 1.511 . S
C441 C199 1.506 . S
C447 C81 1.512 . S
C461 C160 1.495 . S
C467 C96 1.520 . S
C481 C75 1.505 . S
C487 C109 1.513 . S
C501 C88 1.491 . S
C507 C122 1.520 . S
C521 C135 1.503 . S
C527 C95 1.511 . S
C541 C62 1.510 . S
C547 C146 1.507 . S
C561 C49 1.510 . S
C567 C161 1.502 . S
C581 C174 1.520 . S
C587 C10 1.491 . S
C601 C187 1.511 . S
C607 C23 1.495 . S
C621 C200 1.503 . S
C627 C30 1.507 . S
C641 C213 1.516 . S
C647 C309 1.502 . S
C661 C264 1.504 . S
C667 C224 1.514 . S
C681 C239 1.513 . S
C687 C231 1.493 . S
C701 C250 1.518 . S
C707 C238 1.490 . S
C721 C257 1.494 . S
C727 C265 1.512 . S
C741 C278 1.502 . S
C747 C290 1.508 . S
C761 C212 1.502 . S
C767 C291 1.505 . S
C781 C277 1.507 . S
C787 C302 1.511 . S
C801 C5 1.624 . S
C807 C83 1.623 . S
C821 C18 1.631 . S
C827 C94 1.625 . S
C841 C29 1.630 . S
C847 C57 1.634 . S
C861 C70 1.627 . S
C867 C44 1.623 . S
C881 C133 1.635 . S
C887 C107 1.632 . S
C901 C120 1.629 . S
C907 C148 1.624 . S
C921 C159 1.632 . S
C927 C185 1.635 . S
C941 C198 1.628 . S
C947 C172 1.624 . S
C961 C226 1.631 . S
C967 C211 1.635 . S
C981 C237 1.626 . S
C987 C304 1.632 . S
C1001 C252 1.625 . S
C1007 C276 1.623 . S
C1021 C263 1.623 . S
C1027 C289 1.625 . S
C1041 C4 0.996 . S
C1047 C69 0.990 . S
C1061 C17 0.992 . S
C1067 C82 0.992 . S
C1081 C36 0.994 . S
C1087 C101 0.991 . S
C1101 C56 0.992 . S
C1107 C43 0.994 . S
C1121 C114 0.989 . S
C1127 C303 0.996 . S
C1141 C127 0.996 . S
C1147 C283 0.989 . S
C1161 C296 0.990 . S
C1167 C140 0.995 . S
C1181 C147 0.996 . S
C1187 C218 0.989 . S
C1201 C270 0.992 . S
C1207 C166 0.994 . S
C1221 C225 0.994 . S
C1227 C179 0.990 . S
C1241 C192 0.990 . S
C1247 C244 0.994 . S
C1261 C251 0.991 . S
C1267 C205 0.994 . S
