# Generated by pormake.
# Topology wjg, (4)-cn, num edge types: 1
# Building blocks:
#     Node 0, Type 0, BuildingBlock: ICAMEG_clean_sbu_1, # of connection points: 4
#     Node 1, Type 0, BuildingBlock: ICAMEG_clean_sbu_1, # of connection points: 4
#     Node 2, Type 0, BuildingBlock: ICAMEG_clean_sbu_1, # of connection points: 4
#     Node 3, Type 0, BuildingBlock: ICAMEG_clean_sbu_1, # of connection points: 4
#     Node 4, Type 0, BuildingBlock: ICAMEG_clean_sbu_1, # of connection points: 4
#     Node 5, Type 0, BuildingBlock: ICAMEG_clean_sbu_1, # of connection points: 4
#     Node 6, Type 0, BuildingBlock: ICAMEG_clean_sbu_1, # of connection points: 4
#     Node 7, Type 0, BuildingBlock: ICAMEG_clean_sbu_1, # of connection points: 4
#     Node 8, Type 0, BuildingBlock: ICAMEG_clean_sbu_1, # of connection points: 4
#     Node 9, Type 0, BuildingBlock: ICAMEG_clean_sbu_1, # of connection points: 4
#     Node 10, Type 0, BuildingBlock: ICAMEG_clean_sbu_1, # of connection points: 4
#     Node 11, Type 0, BuildingBlock: ICAMEG_clean_sbu_1, # of connection points: 4
#     Edge 12, Type (0, 0), BuildingBlock: XUDNAN_clean_linker_2, # of connection points: 2
#     Edge 13, Type (0, 0), BuildingBlock: XUDNAN_clean_linker_2, # of connection points: 2
#     Edge 14, Type (0, 0), BuildingBlock: XUDNAN_clean_linker_2, # of connection points: 2
#     Edge 15, Type (0, 0), BuildingBlock: XUDNAN_clean_linker_2, # of connection points: 2
#     Edge 16, Type (0, 0), BuildingBlock: XUDNAN_clean_linker_2, # of connection points: 2
#     Edge 17, Type (0, 0), BuildingBlock: XUDNAN_clean_linker_2, # of connection points: 2
#     Edge 18, Type (0, 0), BuildingBlock: XUDNAN_clean_linker_2, # of connection points: 2
#     Edge 19, Type (0, 0), BuildingBlock: XUDNAN_clean_linker_2, # of connection points: 2
#     Edge 20, Type (0, 0), BuildingBlock: XUDNAN_clean_linker_2, # of connection points: 2
#     Edge 21, Type (0, 0), BuildingBlock: XUDNAN_clean_linker_2, # of connection points: 2
#     Edge 22, Type (0, 0), BuildingBlock: XUDNAN_clean_linker_2, # of connection points: 2
#     Edge 23, Type (0, 0), BuildingBlock: XUDNAN_clean_linker_2, # of connection points: 2
#     Edge 24, Type (0, 0), BuildingBlock: XUDNAN_clean_linker_2, # of connection points: 2
#     Edge 25, Type (0, 0), BuildingBlock: XUDNAN_clean_linker_2, # of connection points: 2
#     Edge 26, Type (0, 0), BuildingBlock: XUDNAN_clean_linker_2, # of connection points: 2
#     Edge 27, Type (0, 0), BuildingBlock: XUDNAN_clean_linker_2, # of connection points: 2
#     Edge 28, Type (0, 0), BuildingBlock: XUDNAN_clean_linker_2, # of connection points: 2
#     Edge 29, Type (0, 0), BuildingBlock: XUDNAN_clean_linker_2, # of connection points: 2
#     Edge 30, Type (0, 0), BuildingBlock: XUDNAN_clean_linker_2, # of connection points: 2
#     Edge 31, Type (0, 0), BuildingBlock: XUDNAN_clean_linker_2, # of connection points: 2
#     Edge 32, Type (0, 0), BuildingBlock: XUDNAN_clean_linker_2, # of connection points: 2
#     Edge 33, Type (0, 0), BuildingBlock: XUDNAN_clean_linker_2, # of connection points: 2
#     Edge 34, Type (0, 0), BuildingBlock: XUDNAN_clean_linker_2, # of connection points: 2
#     Edge 35, Type (0, 0), BuildingBlock: XUDNAN_clean_linker_2, # of connection points: 2
# Relax obj value: 0.331
# Max RMSD: 0.124
# Mean RMSD: 0.120
data_MOF--net-wjg--node1-ICAMEG_clean_sbu_1--edge1-XUDNAN_clean_linker_2
_symmetry_space_group_name_H-M    P1
_symmetry_Int_Tables_number       1
_symmetry_cell_setting            triclinic
loop_
_symmetry_equiv_pos_as_xyz
'x, y, z'
_cell_length_a     33.204769
_cell_length_b     33.065833
_cell_length_c     42.771539
_cell_angle_alpha  90.032079
_cell_angle_beta   90.034396
_cell_angle_gamma 120.14964
loop_
_atom_site_label
_atom_site_type_symbol
_atom_site_fract_x
_atom_site_fract_y
_atom_site_fract_z
_atom_type_partial_charge
Co0 Co 0.20635 0.44689 0.32294 0.0
Co1 Co 0.09438 0.36667 0.34538 0.0
O2 O 0.13924 0.41994 0.32053 0.0
C3 C 0.19865 0.53097 0.33506 0.0
O4 O 0.16745 0.50751 0.35669 0.0
C5 C 0.06947 0.3381 0.27978 0.0
O6 O 0.1137 0.35187 0.27584 0.0
O7 O 0.12524 0.32978 0.33581 0.0
O8 O 0.19984 0.38416 0.32758 0.0
H9 H 0.04258 0.23842 0.42507 0.0
H10 H 0.1655 0.47188 0.26997 0.0
O11 O 0.21511 0.5108 0.31839 0.0
H12 H 0.24874 0.39917 0.22194 0.0
H13 H 0.37235 0.56039 0.2927 0.0
H14 H 0.27001 0.43012 0.36244 0.0
H15 H 0.24985 0.40958 0.2791 0.0
H16 H 0.28695 0.52405 0.28914 0.0
O17 O 0.05452 0.34043 0.30686 0.0
H18 H 0.0999 0.30569 0.39405 0.0
H19 H 0.99077 0.31369 0.34799 0.0
H20 H 0.3552 0.46509 0.36652 0.0
H21 H 0.16366 0.46235 0.21266 0.0
H22 H 0.40701 0.53088 0.33158 0.0
H23 H 0.20526 0.4255 0.18833 0.0
O24 O 0.20457 0.45192 0.36921 0.0
H25 H 0.02456 0.46695 0.31993 0.0
H26 H 0.06122 0.38875 0.40419 0.0
H27 H 0.02325 0.43439 0.4172 0.0
H28 H 0.00436 0.47355 0.37485 0.0
H29 H 0.06286 0.42128 0.30798 0.0
H30 H 0.9322 0.24616 0.37828 0.0
H31 H 0.95803 0.2082 0.41725 0.0
O32 O 0.13442 0.39232 0.38389 0.0
C33 C 0.16775 0.3419 0.33136 0.0
C34 C 0.03089 0.25476 0.40824 0.0
C35 C 0.96893 0.25906 0.38195 0.0
N36 N 0.04867 0.31383 0.36947 0.0
C37 C 0.06319 0.29297 0.3907 0.0
C38 C 0.00224 0.2972 0.36482 0.0
C39 C 0.98346 0.23779 0.40382 0.0
C40 C 0.18418 0.45637 0.2595 0.0
N41 N 0.20787 0.44145 0.27784 0.0
C42 C 0.18284 0.45088 0.22706 0.0
C43 C 0.20613 0.43012 0.21342 0.0
C44 C 0.23048 0.41529 0.23227 0.0
C45 C 0.23094 0.42122 0.26463 0.0
C46 C 0.35014 0.53174 0.30804 0.0
C47 C 0.2923 0.45844 0.34695 0.0
C48 C 0.30176 0.51106 0.30617 0.0
N49 N 0.27349 0.47472 0.32539 0.0
C50 C 0.34052 0.47822 0.34945 0.0
C51 C 0.36957 0.51514 0.32985 0.0
C52 C 0.1753 0.42625 0.39003 0.0
C53 C 0.03244 0.44985 0.33856 0.0
C54 C 0.05337 0.40595 0.38566 0.0
C55 C 0.03178 0.43165 0.39316 0.0
C56 C 0.02121 0.45365 0.36939 0.0
N57 N 0.06397 0.40211 0.35533 0.0
C58 C 0.05398 0.42382 0.33193 0.0
Co59 Co 0.77113 0.2002 0.6758 0.0
Co60 Co 0.74861 0.08748 0.66685 0.0
O61 O 0.73576 0.13783 0.65816 0.0
C62 C 0.69625 0.21428 0.70109 0.0
O63 O 0.71688 0.22174 0.72842 0.0
C64 C 0.75293 0.09717 0.59856 0.0
O65 O 0.78116 0.14174 0.60423 0.0
O66 O 0.81569 0.12818 0.65718 0.0
O67 O 0.83054 0.19878 0.67377 0.0
H68 H 0.83633 0.0142 0.71265 0.0
H69 H 0.71099 0.18507 0.62056 0.0
O70 O 0.71198 0.20244 0.67779 0.0
H71 H 0.8699 0.30128 0.58699 0.0
H72 H 0.81432 0.36886 0.68898 0.0
H73 H 0.84343 0.24413 0.72502 0.0
H74 H 0.85522 0.27011 0.6407 0.0
H75 H 0.77236 0.29028 0.66524 0.0
O76 O 0.73585 0.0685 0.62137 0.0
H77 H 0.82004 0.07813 0.70284 0.0
H78 H 0.7036 0.98807 0.64654 0.0
H79 H 0.88632 0.32225 0.74929 0.0
H80 H 0.72406 0.21582 0.56675 0.0
H81 H 0.8718 0.38525 0.73132 0.0
H82 H 0.80402 0.27419 0.54961 0.0
O83 O 0.76025 0.17328 0.71844 0.0
H84 H 0.57664 0.01567 0.64813 0.0
H85 H 0.69701 0.02404 0.7198 0.0
H86 H 0.61401 0.97382 0.73325 0.0
H87 H 0.55318 0.96931 0.69721 0.0
H88 H 0.66005 0.06573 0.63574 0.0
H89 H 0.71885 0.92323 0.65548 0.0
H90 H 0.78551 0.93607 0.68886 0.0
O91 O 0.76311 0.10716 0.71218 0.0
C92 C 0.84379 0.17064 0.66445 0.0
C93 C 0.80702 0.0081 0.6982 0.0
C94 C 0.74113 0.95706 0.66607 0.0
N95 N 0.76055 0.03664 0.67451 0.0
C96 C 0.79751 0.04411 0.69269 0.0
C97 C 0.7327 0.9939 0.66107 0.0
C98 C 0.77854 0.96429 0.68481 0.0
C99 C 0.7458 0.21094 0.61342 0.0
N100 N 0.78224 0.22594 0.63383 0.0
C101 C 0.75302 0.22803 0.58286 0.0
C102 C 0.79791 0.26071 0.57324 0.0
C103 C 0.83489 0.27588 0.59419 0.0
C104 C 0.82638 0.25798 0.62455 0.0
C105 C 0.82105 0.34174 0.69696 0.0
C106 C 0.83709 0.27141 0.71695 0.0
C107 C 0.79742 0.29718 0.68359 0.0
N108 N 0.80551 0.26264 0.69367 0.0
C109 C 0.86144 0.31557 0.73082 0.0
C110 C 0.85326 0.3509 0.72073 0.0
C111 C 0.7644 0.13964 0.7293 0.0
C112 C 0.60282 0.01725 0.66398 0.0
C113 C 0.67072 0.0224 0.70409 0.0
C114 C 0.62379 0.99382 0.71178 0.0
C115 C 0.58968 0.99128 0.69154 0.0
N116 N 0.6833 0.04757 0.67694 0.0
C117 C 0.65009 0.04542 0.65704 0.0
Co118 Co 0.62496 0.71029 0.00957 0.0
Co119 Co 0.54501 0.74865 0.01035 0.0
O120 O 0.56675 0.70671 0.99632 0.0
C121 C 0.63385 0.72766 0.94192 0.0
O122 O 0.61883 0.75666 0.94812 0.0
C123 C 0.46116 0.65066 0.01414 0.0
O124 O 0.48528 0.63078 0.00622 0.0
O125 O 0.55961 0.74237 0.05447 0.0
O126 O 0.61047 0.7159 0.05459 0.0
H127 H 0.55681 0.88497 0.07045 0.0
H128 H 0.56186 0.63229 0.96747 0.0
O129 O 0.6399 0.70563 0.96426 0.0
H130 H 0.57254 0.55696 0.06411 0.0
H131 H 0.74795 0.66409 0.00512 0.0
H132 H 0.69849 0.76576 0.05625 0.0
H133 H 0.6154 0.64289 0.0592 0.0
H134 H 0.67467 0.66064 0.9897 0.0
O135 O 0.48022 0.69497 0.01646 0.0
H136 H 0.58389 0.83224 0.05159 0.0
H137 H 0.45893 0.75409 0.99958 0.0
H138 H 0.77186 0.77011 0.07258 0.0
H139 H 0.51903 0.54621 0.97121 0.0
H140 H 0.79701 0.71903 0.04692 0.0
H141 H 0.52418 0.508 0.01982 0.0
O142 O 0.66101 0.78001 0.00645 0.0
H143 H 0.48286 0.69171 0.90188 0.0
H144 H 0.56332 0.82979 0.9704 0.0
H145 H 0.54848 0.84014 0.91537 0.0
H146 H 0.50784 0.77075 0.88069 0.0
H147 H 0.49886 0.68302 0.95684 0.0
H148 H 0.43021 0.80556 0.01829 0.0
H149 H 0.47938 0.87172 0.05385 0.0
O150 O 0.6083 0.80344 0.00536 0.0
C151 C 0.58559 0.72999 0.06855 0.0
C152 C 0.53509 0.85631 0.05491 0.0
C153 C 0.46403 0.81172 0.02566 0.0
N154 N 0.52313 0.79015 0.02444 0.0
C155 C 0.5503 0.82638 0.04409 0.0
C156 C 0.48042 0.78257 0.01525 0.0
C157 C 0.49163 0.84884 0.04561 0.0
C158 C 0.56463 0.61594 0.9886 0.0
N159 N 0.59111 0.64262 0.01309 0.0
C160 C 0.5401 0.56717 0.99063 0.0
C161 C 0.5429 0.54575 0.01795 0.0
C162 C 0.57 0.5732 0.04282 0.0
C163 C 0.594 0.62186 0.03996 0.0
C164 C 0.73732 0.68645 0.01652 0.0
C165 C 0.70906 0.74319 0.04515 0.0
C166 C 0.69591 0.68472 0.00784 0.0
N167 N 0.68219 0.71273 0.02223 0.0
C168 C 0.7507 0.74592 0.05441 0.0
C169 C 0.76482 0.71728 0.03998 0.0
C170 C 0.65012 0.81185 0.0052 0.0
C171 C 0.50024 0.72218 0.91683 0.0
C172 C 0.54547 0.79937 0.95554 0.0
C173 C 0.53717 0.80547 0.92437 0.0
C174 C 0.51437 0.76654 0.90493 0.0
N175 N 0.53122 0.7557 0.96716 0.0
C176 C 0.50909 0.71742 0.94814 0.0
Co177 Co 0.80967 0.57114 0.33503 0.0
Co178 Co 0.9242 0.65368 0.34447 0.0
O179 O 0.87528 0.59566 0.32602 0.0
C180 C 0.8063 0.48004 0.34791 0.0
O181 O 0.82972 0.49625 0.37407 0.0
C182 C 0.94316 0.66591 0.27693 0.0
O183 O 0.89909 0.65325 0.27358 0.0
O184 O 0.89341 0.68866 0.32981 0.0
O185 O 0.81891 0.63533 0.33952 0.0
H186 H 0.9892 0.80322 0.40597 0.0
H187 H 0.83601 0.53835 0.27815 0.0
O188 O 0.79826 0.50617 0.33025 0.0
H189 H 0.74607 0.61006 0.23999 0.0
H190 H 0.63808 0.45903 0.32043 0.0
H191 H 0.75645 0.59274 0.38138 0.0
H192 H 0.75917 0.6068 0.29646 0.0
H193 H 0.72158 0.49286 0.30874 0.0
O194 O 0.95983 0.66817 0.30417 0.0
H195 H 0.92697 0.72923 0.38372 0.0
H196 H 0.02779 0.70284 0.34239 0.0
H197 H 0.67331 0.56055 0.39349 0.0
H198 H 0.82329 0.54042 0.2215 0.0
H199 H 0.61343 0.49311 0.36294 0.0
H200 H 0.77821 0.57666 0.20208 0.0
O201 O 0.82197 0.5716 0.38063 0.0
H202 H 0.98587 0.5431 0.33398 0.0
H203 H 0.96286 0.64659 0.40571 0.0
H204 H -2e-05 0.60296 0.42525 0.0
H205 H 0.01198 0.55105 0.38923 0.0
H206 H 0.94858 0.58718 0.31547 0.0
H207 H 0.09118 0.77681 0.36395 0.0
H208 H 0.07203 0.82747 0.39611 0.0
O209 O 0.88859 0.64056 0.3848 0.0
C210 C 0.85112 0.6773 0.33447 0.0
C211 C 0.998 0.78135 0.39211 0.0
C212 C 0.05523 0.76656 0.36849 0.0
N213 N 0.97372 0.71149 0.36207 0.0
C214 C 0.96289 0.7393 0.37956 0.0
C215 C 0.01919 0.72476 0.35631 0.0
C216 C 0.04446 0.79496 0.38654 0.0
C217 C 0.81588 0.55368 0.26991 0.0
N218 N 0.79822 0.57228 0.29062 0.0
C219 C 0.80898 0.55495 0.23779 0.0
C220 C 0.78376 0.57537 0.22691 0.0
C221 C 0.76577 0.59417 0.24816 0.0
C222 C 0.77343 0.59235 0.28011 0.0
C223 C 0.66382 0.48854 0.33382 0.0
C224 C 0.73065 0.56381 0.36773 0.0
C225 C 0.7112 0.50782 0.32735 0.0
N226 N 0.74393 0.54523 0.34409 0.0
C227 C 0.68359 0.54554 0.3748 0.0
C228 C 0.65002 0.50767 0.35768 0.0
C229 C 0.85155 0.60669 0.39656 0.0
C230 C 0.981 0.56578 0.34987 0.0
C231 C 0.96772 0.62384 0.38994 0.0
C232 C 0.98886 0.59931 0.40111 0.0
C233 C 0.99556 0.57017 0.38088 0.0
N234 N 0.95386 0.61964 0.35944 0.0
C235 C 0.96003 0.59091 0.3395 0.0
Co236 Co 0.22545 0.80492 0.66454 0.0
Co237 Co 0.24911 0.9181 0.67316 0.0
O238 O 0.26366 0.87169 0.65704 0.0
C239 C 0.29612 0.78448 0.68973 0.0
O240 O 0.27122 0.77137 0.71547 0.0
C241 C 0.2596 0.9354 0.60509 0.0
O242 O 0.23026 0.89049 0.60158 0.0
O243 O 0.18446 0.8826 0.65671 0.0
O244 O 0.16688 0.80795 0.66209 0.0
H245 H 0.15293 0.97467 0.72834 0.0
H246 H 0.2959 0.83863 0.61388 0.0
O247 O 0.28388 0.80099 0.66705 0.0
H248 H 0.14524 0.7382 0.56176 0.0
H249 H 0.18167 0.63603 0.65218 0.0
H250 H 0.14314 0.74556 0.70408 0.0
H251 H 0.14921 0.74939 0.61892 0.0
H252 H 0.22791 0.72076 0.64167 0.0
O253 O 0.271 0.95289 0.63249 0.0
H254 H 0.17122 0.91547 0.70897 0.0
H255 H 0.29756 0.02201 0.66947 0.0
H256 H 0.0956 0.66109 0.71491 0.0
H257 H 0.29355 0.82808 0.55669 0.0
H258 H 0.11492 0.60571 0.68898 0.0
H259 H 0.21779 0.77772 0.53024 0.0
O260 O 0.22749 0.81635 0.71028 0.0
H261 H 0.42324 0.99181 0.66809 0.0
H262 H 0.2898 0.96096 0.73492 0.0
H263 H 0.36936 0.00386 0.75666 0.0
H264 H 0.43676 0.01967 0.72311 0.0
H265 H 0.34307 0.94868 0.64739 0.0
H266 H 0.28048 0.08241 0.68821 0.0
H267 H 0.20779 0.05885 0.71798 0.0
O268 O 0.22614 0.88351 0.71387 0.0
C269 C 0.15525 0.83885 0.65743 0.0
C270 C 0.18481 0.98539 0.71551 0.0
C271 C 0.25636 0.04585 0.69294 0.0
N272 N 0.23562 0.9653 0.68839 0.0
C273 C 0.19543 0.95203 0.70458 0.0
C274 C 0.2658 0.0115 0.68234 0.0
C275 C 0.21558 0.03261 0.70966 0.0
C276 C 0.26287 0.81619 0.6026 0.0
N277 N 0.22279 0.79443 0.61976 0.0
C278 C 0.26173 0.81054 0.57018 0.0
C279 C 0.21919 0.78234 0.55535 0.0
C280 C 0.17847 0.76019 0.57302 0.0
C281 C 0.18093 0.76674 0.60537 0.0
C282 C 0.17287 0.65981 0.66358 0.0
C283 C 0.15155 0.72166 0.69251 0.0
C284 C 0.19894 0.70781 0.65775 0.0
N285 N 0.18814 0.73808 0.67216 0.0
C286 C 0.12458 0.67387 0.6988 0.0
C287 C 0.13543 0.64282 0.68424 0.0
C288 C 0.22222 0.84625 0.72579 0.0
C289 C 0.39417 0.98525 0.68291 0.0
C290 C 0.31895 0.96753 0.72023 0.0
C291 C 0.36392 0.99194 0.73264 0.0
C292 C 0.40172 0.00082 0.7138 0.0
N293 N 0.31185 0.95256 0.68987 0.0
C294 C 0.34871 0.96097 0.67129 0.0
Co295 Co 0.34541 0.2606 0.99455 0.0
Co296 Co 0.43249 0.23285 0.9988 0.0
O297 O 0.40723 0.27116 0.9842 0.0
C298 C 0.34732 0.25529 0.92625 0.0
O299 O 0.3619 0.22569 0.93158 0.0
C300 C 0.52256 0.30331 0.0259 0.0
O301 O 0.50787 0.28068 0.05248 0.0
O302 O 0.41697 0.23983 0.04257 0.0
O303 O 0.3524 0.24596 0.03943 0.0
H304 H 0.43436 0.10759 0.06426 0.0
H305 H 0.41338 0.34823 0.96233 0.0
O306 O 0.33765 0.27351 0.94933 0.0
H307 H 0.37656 0.39845 0.06162 0.0
H308 H 0.2157 0.29705 0.98719 0.0
H309 H 0.26516 0.19177 0.03246 0.0
H310 H 0.33976 0.31464 0.04835 0.0
H311 H 0.29384 0.3089 0.97612 0.0
O312 O 0.49507 0.29089 1.00251 0.0
H313 H 0.40175 0.15504 0.04412 0.0
H314 H 0.51964 0.2302 0.98543 0.0
H315 H 0.1869 0.17887 0.04442 0.0
H316 H 0.45076 0.43245 0.97456 0.0
H317 H 0.16169 0.23174 0.02166 0.0
H318 H 0.43228 0.45798 0.02449 0.0
O319 O 0.31516 0.19264 0.98511 0.0
H320 H 0.4953 0.29044 0.89101 0.0
H321 H 0.4165 0.15178 0.95903 0.0
H322 H 0.43225 0.14214 0.90404 0.0
H323 H 0.47204 0.21184 0.86962 0.0
H324 H 0.47825 0.2984 0.94603 0.0
H325 H 0.55373 0.18389 0.00516 0.0
H326 H 0.51096 0.12201 0.04483 0.0
O327 O 0.37072 0.17458 0.995 0.0
C328 C 0.38217 0.24014 0.05497 0.0
C329 C 0.4533 0.13441 0.04694 0.0
C330 C 0.52029 0.17721 0.01376 0.0
N331 N 0.45868 0.1953 0.01358 0.0
C332 C 0.43497 0.16133 0.03541 0.0
C333 C 0.5008 0.20333 1.00268 0.0
C334 C 0.49628 0.14252 0.03604 0.0
C335 C 0.40502 0.35911 0.98404 0.0
N336 N 0.37422 0.32661 0.00452 0.0
C337 C 0.42639 0.40683 0.99087 0.0
C338 C 0.41608 0.42114 0.01891 0.0
C339 C 0.38481 0.38775 0.03976 0.0
C340 C 0.36418 0.34035 0.03217 0.0
C341 C 0.22633 0.27388 0.99733 0.0
C342 C 0.25463 0.2152 0.02277 0.0
C343 C 0.2705 0.28038 0.99111 0.0
N344 N 0.28422 0.25138 0.00395 0.0
C345 C 0.21019 0.20761 0.02949 0.0
C346 C 0.19605 0.23724 0.01668 0.0
C347 C 0.32876 0.16312 0.98871 0.0
C348 C 0.47809 0.25983 0.9058 0.0
C349 C 0.43356 0.18222 0.94418 0.0
C350 C 0.44257 0.17658 0.91308 0.0
C351 C 0.46495 0.2157 0.8938 0.0
N352 N 0.44656 0.22562 0.9558 0.0
C353 C 0.46855 0.26414 0.93703 0.0
Co354 Co 0.57491 0.79437 0.35898 0.0
Co355 Co 0.64534 0.90562 0.3299 0.0
O356 O 0.59427 0.86008 0.35554 0.0
C357 C 0.48978 0.79271 0.33645 0.0
O358 O 0.51412 0.81982 0.31318 0.0
C359 C 0.6707 0.93613 0.39504 0.0
O360 O 0.65925 0.89259 0.40025 0.0
O361 O 0.68694 0.88069 0.34166 0.0
O362 O 0.64058 0.80894 0.36135 0.0
H363 H 0.77359 0.96099 0.25033 0.0
H364 H 0.53601 0.8365 0.40209 0.0
O365 O 0.50851 0.77886 0.35654 0.0
H366 H 0.61309 0.77503 0.46991 0.0
H367 H 0.46963 0.62937 0.39603 0.0
H368 H 0.60834 0.73287 0.33333 0.0
H369 H 0.61165 0.76511 0.41267 0.0
H370 H 0.49712 0.71373 0.3922 0.0
O371 O 0.66864 0.94918 0.36722 0.0
H372 H 0.70897 0.90236 0.28253 0.0
H373 H 0.69062 0.00894 0.32363 0.0
H374 H 0.58244 0.64892 0.33686 0.0
H375 H 0.53648 0.84702 0.45923 0.0
H376 H 0.51247 0.59646 0.36829 0.0
H377 H 0.57535 0.81628 0.49352 0.0
O378 O 0.57747 0.78864 0.3127 0.0
H379 H 0.53302 0.96294 0.34918 0.0
H380 H 0.61913 0.92959 0.26902 0.0
H381 H 0.56696 0.95874 0.25283 0.0
H382 H 0.52352 0.9757 0.29309 0.0
H383 H 0.58526 0.93337 0.36431 0.0
H384 H 0.75532 0.06883 0.29206 0.0
H385 H 0.79715 0.04491 0.25501 0.0
O386 O 0.62249 0.8614 0.29317 0.0
C387 C 0.68041 0.84227 0.35314 0.0
C388 C 0.75554 0.97183 0.26632 0.0
C389 C 0.74533 0.03237 0.28978 0.0
N390 N 0.69589 0.95222 0.30475 0.0
C391 C 0.71884 0.93877 0.28454 0.0
C392 C 0.70882 0.99834 0.30764 0.0
C393 C 0.76877 0.01892 0.26899 0.0
C394 C 0.55252 0.82255 0.4169 0.0
N395 N 0.57351 0.79995 0.40408 0.0
C396 C 0.55286 0.82879 0.44922 0.0
C397 C 0.57475 0.81162 0.46845 0.0
C398 C 0.59595 0.78848 0.45521 0.0
C399 C 0.59503 0.78297 0.42279 0.0
C400 C 0.50014 0.65186 0.38223 0.0
C401 C 0.57802 0.71039 0.34718 0.0
C402 C 0.51577 0.69963 0.37988 0.0
N403 N 0.55429 0.72825 0.36252 0.0
C404 C 0.56346 0.66282 0.34905 0.0
C405 C 0.5242 0.63342 0.36668 0.0
C406 C 0.59772 0.81689 0.29001 0.0
C407 C 0.55186 0.95581 0.33144 0.0
C408 C 0.60027 0.9368 0.28666 0.0
C409 C 0.57085 0.95339 0.27736 0.0
C410 C 0.54651 0.96292 0.29995 0.0
N411 N 0.60544 0.93007 0.31759 0.0
C412 C 0.58163 0.93924 0.33987 0.0
Co413 Co 0.7453 0.56289 0.66813 0.0
Co414 Co 0.719 0.65089 0.66554 0.0
O415 O 0.70732 0.59 0.6805 0.0
C416 C 0.6704 0.4693 0.64706 0.0
O417 O 0.68441 0.48191 0.61818 0.0
C418 C 0.71519 0.65857 0.73463 0.0
O419 O 0.744 0.64242 0.73697 0.0
O420 O 0.78557 0.68135 0.67841 0.0
O421 O 0.80292 0.62555 0.66733 0.0
H422 H 0.8077 0.80436 0.60906 0.0
H423 H 0.68436 0.52547 0.72385 0.0
O424 O 0.68826 0.49897 0.66923 0.0
H425 H 0.84351 0.58043 0.76261 0.0
H426 H 0.79666 0.443 0.67165 0.0
H427 H 0.81965 0.58711 0.62114 0.0
H428 H 0.82945 0.58712 0.70676 0.0
H429 H 0.75068 0.47904 0.6882 0.0
O430 O 0.7018 0.66397 0.70779 0.0
H431 H 0.79203 0.72688 0.6269 0.0
H432 H 0.6704 0.70528 0.67427 0.0
H433 H 0.86654 0.55242 0.604 0.0
H434 H 0.69679 0.51756 0.77984 0.0
H435 H 0.85514 0.47978 0.62929 0.0
H436 H 0.77685 0.54529 0.79957 0.0
O437 O 0.73517 0.57085 0.62329 0.0
H438 H 0.54608 0.54869 0.67998 0.0
H439 H 0.67058 0.6523 0.60718 0.0
H440 H 0.58853 0.61569 0.59047 0.0
H441 H 0.52563 0.564 0.62714 0.0
H442 H 0.62869 0.58582 0.69568 0.0
H443 H 0.68498 0.78274 0.65716 0.0
H444 H 0.75398 0.83279 0.62423 0.0
O445 O 0.73663 0.6394 0.62296 0.0
C446 C 0.81485 0.66775 0.67379 0.0
C447 C 0.77744 0.78282 0.62332 0.0
C448 C 0.7086 0.77071 0.65035 0.0
N449 N 0.73015 0.71142 0.6514 0.0
C450 C 0.7683 0.73884 0.63341 0.0
C451 C 0.70058 0.72693 0.66002 0.0
C452 C 0.74731 0.79877 0.63187 0.0
C453 C 0.71925 0.53719 0.73219 0.0
N454 N 0.7561 0.55653 0.712 0.0
C455 C 0.72609 0.5328 0.76395 0.0
C456 C 0.77103 0.54843 0.77501 0.0
C457 C 0.80845 0.5682 0.7543 0.0
C458 C 0.8003 0.57206 0.7227 0.0
C459 C 0.80189 0.47462 0.66043 0.0
C460 C 0.8145 0.55555 0.63232 0.0
C461 C 0.77586 0.49512 0.66965 0.0
N462 N 0.78235 0.53511 0.65563 0.0
C463 C 0.84116 0.53605 0.62249 0.0
C464 C 0.83473 0.49529 0.63668 0.0
C465 C 0.73864 0.60627 0.60902 0.0
C466 C 0.5732 0.57139 0.66386 0.0
C467 C 0.64342 0.62944 0.62316 0.0
C468 C 0.59702 0.60892 0.6136 0.0
C469 C 0.56173 0.57986 0.63418 0.0
N470 N 0.65438 0.62144 0.65246 0.0
C471 C 0.62001 0.59257 0.67264 0.0
Co472 Co 0.08263 0.72293 1.00293 0.0
Co473 Co 0.1972 0.75333 0.99456 0.0
O474 O 0.13639 0.71684 0.01379 0.0
C475 C 0.09396 0.73795 0.07054 0.0
O476 O 0.13743 0.76838 0.06379 0.0
C477 C 0.19083 0.66001 0.98314 0.0
O478 O 0.16134 0.6494 0.95989 0.0
O479 O 0.16913 0.73395 0.9523 0.0
O480 O 0.1005 0.73153 0.95744 0.0
H481 H 0.3115 0.86429 0.91578 0.0
H482 H 0.06969 0.64172 0.04037 0.0
O483 O 0.06519 0.71577 0.04855 0.0
H484 H 0.97632 0.57437 0.9448 0.0
H485 H 0.91482 0.68037 0.01223 0.0
H486 H 0.06534 0.78443 0.96126 0.0
H487 H 0.0201 0.65982 0.95296 0.0
H488 H 0.98395 0.67361 0.02411 0.0
O489 O 0.20618 0.69832 0.99799 0.0
H490 H 0.23507 0.82013 0.94161 0.0
H491 H 0.28986 0.76147 0.00539 0.0
H492 H 0.99705 0.79214 0.94846 0.0
H493 H 0.0262 0.55607 0.03328 0.0
H494 H 0.9211 0.73984 0.97403 0.0
H495 H 0.97917 0.52189 0.98518 0.0
O496 O 0.11898 0.79212 0.00804 0.0
H497 H 0.22157 0.72813 0.1073 0.0
H498 H 0.26499 0.84498 0.02344 0.0
H499 H 0.29879 0.87058 0.07601 0.0
H500 H 0.27723 0.81191 0.11838 0.0
H501 H 0.18798 0.70418 0.05451 0.0
H502 H 0.36679 0.80477 0.9801 0.0
H503 H 0.37806 0.85677 0.93502 0.0
O504 O 0.19012 0.80958 0.99167 0.0
C505 C 0.13337 0.73334 0.94073 0.0
C506 C 0.3071 0.8419 0.93548 0.0
C507 C 0.3381 0.80844 0.97155 0.0
N508 N 0.25804 0.78851 0.97514 0.0
C509 C 0.26391 0.81689 0.95026 0.0
C510 C 0.29441 0.78393 0.98574 0.0
C511 C 0.3444 0.83762 0.94627 0.0
C512 C 0.049 0.62707 0.0195 0.0
N513 N 0.04717 0.65568 0.9972 0.0
C514 C 0.02457 0.57857 0.01556 0.0
C515 C 0.99823 0.55941 0.98855 0.0
C516 C 0.99664 0.58884 0.96588 0.0
C517 C 0.02156 0.63719 0.97059 0.0
C518 C 0.94768 0.70323 1.00084 0.0
C519 C 0.03231 0.76126 0.97224 0.0
C520 C 0.98693 0.6996 0.0075 0.0
N521 N 0.02845 0.72819 0.99306 0.0
C522 C 0.99381 0.76592 0.96501 0.0
C523 C 0.95122 0.73661 0.9794 0.0
C524 C 0.16036 0.82136 0.99941 0.0
C525 C 0.23132 0.75401 0.08902 0.0
C526 C 0.2551 0.81931 0.04178 0.0
C527 C 0.27454 0.83398 0.07149 0.0
C528 C 0.26248 0.80103 0.09524 0.0
N529 N 0.22452 0.77314 0.03586 0.0
C530 C 0.21257 0.74064 0.05903 0.0
Co531 Co 0.43485 0.19676 0.32591 0.0
Co532 Co 0.34538 0.08261 0.33147 0.0
O533 O 0.40809 0.13325 0.34149 0.0
C534 C 0.52441 0.21418 0.29991 0.0
O535 O 0.51014 0.22145 0.27296 0.0
C536 C 0.34812 0.09024 0.39966 0.0
O537 O 0.36446 0.13484 0.39422 0.0
O538 O 0.31737 0.12194 0.34126 0.0
O539 O 0.37376 0.19441 0.32864 0.0
H540 H 0.18609 0.00891 0.28284 0.0
H541 H 0.47958 0.1784 0.37989 0.0
O542 O 0.49686 0.20026 0.32325 0.0
H543 H 0.43484 0.29084 0.4186 0.0
H544 H 0.55887 0.36687 0.31801 0.0
H545 H 0.40638 0.24341 0.27884 0.0
H546 H 0.41927 0.26347 0.36394 0.0
H547 H 0.52291 0.28668 0.33894 0.0
O548 O 0.33752 0.06197 0.37666 0.0
H549 H 0.26543 0.07331 0.29448 0.0
H550 H 0.2916 0.98235 0.34978 0.0
H551 H 0.4409 0.32322 0.25745 0.0
H552 H 0.4964 0.20539 0.4346 0.0
H553 H 0.51777 0.38558 0.27699 0.0
H554 H 0.47378 0.26184 0.45432 0.0
O555 O 0.41942 0.17277 0.28243 0.0
H556 H 0.44708 0.01267 0.35068 0.0
H557 H 0.337 0.02181 0.27757 0.0
H558 H 0.3718 0.97344 0.2639 0.0
H559 H 0.4272 0.96858 0.30065 0.0
H560 H 0.41176 0.06092 0.36328 0.0
H561 H 0.21235 0.917 0.33902 0.0
H562 H 0.15909 0.93005 0.30521 0.0
O563 O 0.35218 0.10408 0.28655 0.0
C564 C 0.33186 0.16504 0.33619 0.0
C565 C 0.20906 0.00271 0.29746 0.0
C566 C 0.22378 0.95114 0.32903 0.0
N567 N 0.2833 0.03141 0.32239 0.0
C568 C 0.2541 0.03899 0.30399 0.0
C569 C 0.26857 0.98827 0.33506 0.0
C570 C 0.19391 0.95849 0.31005 0.0
C571 C 0.47021 0.20347 0.38816 0.0
N572 N 0.44873 0.21955 0.36865 0.0
C573 C 0.4796 0.21843 0.41922 0.0
C574 C 0.46681 0.25004 0.43029 0.0
C575 C 0.44491 0.26627 0.41027 0.0
C576 C 0.43605 0.25053 0.37935 0.0
C577 C 0.52532 0.34003 0.30935 0.0
C578 C 0.43971 0.2704 0.28759 0.0
C579 C 0.50477 0.29455 0.32112 0.0
N580 N 0.46251 0.26036 0.31017 0.0
C581 C 0.45913 0.31552 0.27535 0.0
C582 C 0.50225 0.35049 0.28632 0.0
C583 C 0.38303 0.13849 0.2705 0.0
C584 C 0.42291 0.01442 0.33452 0.0
C585 C 0.36122 0.01999 0.29361 0.0
C586 C 0.38072 0.99246 0.28578 0.0
C587 C 0.41177 0.98973 0.30642 0.0
N588 N 0.37218 0.04395 0.32126 0.0
C589 C 0.40269 0.04156 0.34157 0.0
Co590 Co 0.25132 0.45304 0.67811 0.0
Co591 Co 0.28247 0.37229 0.65583 0.0
O592 O 0.29173 0.42639 0.68007 0.0
C593 C 0.34197 0.53851 0.66385 0.0
O594 O 0.3482 0.51687 0.64023 0.0
C595 C 0.28055 0.34594 0.72173 0.0
O596 O 0.25015 0.35978 0.72561 0.0
O597 O 0.21503 0.33578 0.66626 0.0
O598 O 0.19487 0.39015 0.6747 0.0
H599 H 0.20338 0.24149 0.57797 0.0
H600 H 0.31944 0.47987 0.72988 0.0
O601 O 0.30666 0.51705 0.68161 0.0
H602 H 0.16563 0.40881 0.78082 0.0
H603 H 0.19939 0.56691 0.70884 0.0
H604 H 0.16911 0.4348 0.64004 0.0
H605 H 0.17241 0.41723 0.72348 0.0
H606 H 0.24916 0.53125 0.71153 0.0
O607 O 0.29715 0.34732 0.69454 0.0
H608 H 0.21453 0.30993 0.60821 0.0
H609 H 0.33263 0.31886 0.65344 0.0
H610 H 0.11826 0.46912 0.63684 0.0
H611 H 0.31426 0.47238 0.78733 0.0
H612 H 0.13341 0.5358 0.67133 0.0
H613 H 0.23691 0.43634 0.81314 0.0
O614 O 0.2561 0.45636 0.63171 0.0
H615 H 0.45354 0.47238 0.6788 0.0
H616 H 0.33572 0.39206 0.59638 0.0
H617 H 0.41894 0.43618 0.58221 0.0
H618 H 0.47849 0.47618 0.62363 0.0
H619 H 0.36989 0.4281 0.69192 0.0
H620 H 0.32249 0.25017 0.62393 0.0
H621 H 0.25759 0.21116 0.58578 0.0
O622 O 0.26695 0.39681 0.61726 0.0
C623 C 0.18471 0.34786 0.67116 0.0
C624 C 0.23189 0.25829 0.59444 0.0
C625 C 0.2987 0.26312 0.62028 0.0
N626 N 0.27446 0.3186 0.63231 0.0
C627 C 0.23849 0.29717 0.61153 0.0
C628 C 0.30421 0.30192 0.63696 0.0
C629 C 0.26229 0.24126 0.59886 0.0
C630 C 0.28571 0.46472 0.74098 0.0
N631 N 0.2463 0.44913 0.72334 0.0
C632 C 0.28298 0.46038 0.77351 0.0
C633 C 0.23955 0.44008 0.78797 0.0
C634 C 0.19954 0.42457 0.76984 0.0
C635 C 0.20359 0.42937 0.73737 0.0
C636 C 0.19251 0.5379 0.69368 0.0
C637 C 0.17573 0.46357 0.6553 0.0
C638 C 0.22059 0.5176 0.69506 0.0
N639 N 0.21183 0.48072 0.67613 0.0
C640 C 0.1469 0.48297 0.65331 0.0
C641 C 0.15543 0.52039 0.67265 0.0
C642 C 0.25932 0.43026 0.611 0.0
C643 C 0.42791 0.45483 0.66057 0.0
C644 C 0.36142 0.40976 0.6145 0.0
C645 C 0.40849 0.43458 0.60635 0.0
C646 C 0.44189 0.4571 0.6296 0.0
N647 N 0.348 0.40724 0.64498 0.0
C648 C 0.38051 0.42961 0.66787 0.0
Co649 Co 0.91833 0.24946 0.0077 0.0
Co650 Co 0.80595 0.2272 1.00035 0.0
O651 O 0.86833 0.26219 0.01764 0.0
C652 C 0.90992 0.24366 0.07598 0.0
O653 O 0.86555 0.21498 0.07047 0.0
C654 C 0.79382 0.30487 0.97696 0.0
O655 O 0.7926 0.28961 0.94844 0.0
O656 O 0.83222 0.23941 0.95753 0.0
O657 O 0.89789 0.23593 0.96247 0.0
H658 H 0.68349 0.11342 0.92653 0.0
H659 H 0.94041 0.33767 0.04009 0.0
O660 O 0.93813 0.26139 0.05305 0.0
H661 H 0.02997 0.38626 0.94181 0.0
H662 H 0.08217 0.27933 0.01664 0.0
H663 H 0.92708 0.17866 0.97012 0.0
H664 H 0.98053 0.30259 0.95463 0.0
H665 H 0.0177 0.29432 0.02705 0.0
O666 O 0.8029 0.28622 0.99995 0.0
H667 H 0.76169 0.15614 0.95026 0.0
H668 H 0.71628 0.22531 0.01245 0.0
H669 H 0.99061 0.16265 0.95885 0.0
H670 H 0.98969 0.42172 0.02832 0.0
H671 H 0.06884 0.21321 0.98221 0.0
H672 H 0.03485 0.44647 0.97885 0.0
O673 O 0.87795 0.18172 0.01675 0.0
H674 H 0.79111 0.27104 0.11055 0.0
H675 H 0.7365 0.14167 0.03465 0.0
H676 H 0.70544 0.12533 0.08835 0.0
H677 H 0.73262 0.19034 0.1267 0.0
H678 H 0.82185 0.28571 0.05675 0.0
H679 H 0.63766 0.18351 0.98933 0.0
H680 H 0.62081 0.12702 0.94605 0.0
O681 O 0.80757 0.16767 1.00102 0.0
C682 C 0.86536 0.23532 0.94594 0.0
C683 C 0.69037 0.1379 0.9454 0.0
C684 C 0.66465 0.17725 0.98063 0.0
N685 N 0.7436 0.1932 0.98273 0.0
C686 C 0.73459 0.16217 0.95894 0.0
C687 C 0.70928 0.20088 0.9936 0.0
C688 C 0.65523 0.14557 0.95635 0.0
C689 C 0.96022 0.34819 0.01862 0.0
N690 N 0.95783 0.31531 0.99815 0.0
C691 C 0.98794 0.39582 0.01204 0.0
C692 C 0.01324 0.40968 0.98426 0.0
C693 C 0.01049 0.37592 0.96345 0.0
C694 C 0.98236 0.32861 0.9708 0.0
C695 C 0.04829 0.25717 0.00624 0.0
C696 C 0.96113 0.20108 0.98011 0.0
C697 C 0.01166 0.26545 0.01207 0.0
N698 N 0.96886 0.23774 0.99888 0.0
C699 C 0.99692 0.19173 0.97376 0.0
C700 C 0.04079 0.22006 0.98691 0.0
C701 C 0.83549 0.15387 0.00962 0.0
C702 C 0.77888 0.24246 0.09402 0.0
C703 C 0.74878 0.17009 0.05124 0.0
C704 C 0.73091 0.16066 0.08159 0.0
C705 C 0.74612 0.19715 0.10308 0.0
N706 N 0.78084 0.21464 0.04249 0.0
C707 C 0.79599 0.25058 0.06347 0.0
H708 H 0.2515 0.5879 0.28814 0.0
H709 H 0.20731 0.58949 0.38318 0.0
H710 H 0.27127 0.67084 0.38917 0.0
H711 H 0.36099 0.63367 0.30319 0.0
H712 H 0.38488 0.66881 0.26857 0.0
H713 H 0.32756 0.61864 0.26749 0.0
H714 H 0.29351 0.67007 0.24908 0.0
H715 H 0.35124 0.7207 0.24965 0.0
H716 H 0.30491 0.72102 0.27141 0.0
H717 H 0.35156 0.73746 0.39098 0.0
H718 H 0.43694 0.78773 0.38625 0.0
H719 H 0.42949 0.74693 0.2894 0.0
C720 C 0.25385 0.60636 0.30961 0.0
C721 C 0.22458 0.58257 0.33517 0.0
C722 C 0.22898 0.60725 0.36315 0.0
C723 C 0.26539 0.65353 0.36676 0.0
C724 C 0.29629 0.67477 0.34195 0.0
C725 C 0.29006 0.65239 0.31351 0.0
C726 C 0.33203 0.67899 0.29248 0.0
C727 C 0.35254 0.6482 0.28239 0.0
C728 C 0.31967 0.69889 0.26397 0.0
C729 C 0.36444 0.71764 0.31442 0.0
C730 C 0.3429 0.71516 0.34268 0.0
C731 C 0.36822 0.74126 0.36857 0.0
C732 C 0.41664 0.76954 0.36577 0.0
C733 C 0.43904 0.77195 0.3372 0.0
C734 C 0.41253 0.74709 0.31098 0.0
H735 H 0.68476 0.27643 0.73633 0.0
H736 H 0.64017 0.1969 0.65011 0.0
H737 H 0.60718 0.24496 0.63222 0.0
H738 H 0.58738 0.3089 0.74021 0.0
H739 H 0.62916 0.36624 0.75454 0.0
H740 H 0.63441 0.31629 0.76514 0.0
H741 H 0.71891 0.35854 0.74402 0.0
H742 H 0.71394 0.40806 0.73295 0.0
H743 H 0.72952 0.37857 0.70407 0.0
H744 H 0.60115 0.3136 0.61732 0.0
H745 H 0.62124 0.39509 0.60756 0.0
H746 H 0.66661 0.43012 0.70382 0.0
C747 C 0.6657 0.26743 0.71448 0.0
C748 C 0.66473 0.23276 0.69472 0.0
C749 C 0.64101 0.2231 0.66575 0.0
C750 C 0.62198 0.25017 0.65543 0.0
C751 C 0.62646 0.28643 0.6745 0.0
C752 C 0.64702 0.29457 0.70376 0.0
C753 C 0.65553 0.34063 0.71717 0.0
C754 C 0.62476 0.33251 0.74597 0.0
C755 C 0.70752 0.37334 0.72496 0.0
C756 C 0.64009 0.35882 0.68993 0.0
C757 C 0.62229 0.32657 0.66583 0.0
C758 C 0.61342 0.33853 0.63637 0.0
C759 C 0.62504 0.385 0.63098 0.0
C760 C 0.64536 0.41893 0.65494 0.0
C761 C 0.65028 0.40482 0.68519 0.0
H762 H 0.4048 0.66298 0.05307 0.0
H763 H 0.40375 0.58243 0.97307 0.0
H764 H 0.32136 0.55863 0.9629 0.0
H765 H 0.27498 0.58611 0.07523 0.0
H766 H 0.27291 0.63797 0.08535 0.0
H767 H 0.32555 0.63592 0.09174 0.0
H768 H 0.37162 0.71156 0.05884 0.0
H769 H 0.31942 0.71353 0.0521 0.0
H770 H 0.35319 0.71279 0.01937 0.0
H771 H 0.24917 0.56366 0.95286 0.0
H772 H 0.19428 0.59313 0.9462 0.0
H773 H 0.24078 0.66645 0.03462 0.0
C774 C 0.38624 0.63817 0.03451 0.0
C775 C 0.41 0.62396 0.01409 0.0
C776 C 0.38558 0.59273 0.98938 0.0
C777 C 0.33884 0.57925 0.98339 0.0
C778 C 0.31707 0.5965 1.00281 0.0
C779 C 0.33981 0.62438 0.02845 0.0
C780 C 0.31235 0.64477 0.0428 0.0
C781 C 0.29543 0.62498 0.07573 0.0
C782 C 0.34082 0.69879 0.04326 0.0
C783 C 0.27221 0.62682 0.02005 0.0
C784 C 0.27481 0.5984 0.99737 0.0
C785 C 0.24576 0.58443 0.9711 0.0
C786 C 0.21463 0.60129 0.96747 0.0
C787 C 0.21326 0.63204 0.9899 0.0
C788 C 0.24069 0.64265 0.01718 0.0
H789 H 0.59515 0.27898 0.2642 0.0
H790 H 0.56703 0.20154 0.35086 0.0
H791 H 0.64819 0.25387 0.36767 0.0
H792 H 0.72497 0.31871 0.25727 0.0
H793 H 0.73682 0.37507 0.24331 0.0
H794 H 0.68227 0.32337 0.23391 0.0
H795 H 0.6377 0.36204 0.25742 0.0
H796 H 0.69175 0.41337 0.26702 0.0
H797 H 0.64932 0.38283 0.29723 0.0
H798 H 0.72423 0.32494 0.38056 0.0
H799 H 0.78587 0.40727 0.3882 0.0
H800 H 0.76464 0.43853 0.29323 0.0
C801 C 0.6067 0.27144 0.28596 0.0
C802 C 0.57492 0.23589 0.30605 0.0
C803 C 0.59096 0.22828 0.33493 0.0
C804 C 0.6371 0.25783 0.34464 0.0
C805 C 0.66685 0.2946 0.32513 0.0
C806 C 0.65233 0.3011 0.29616 0.0
C807 C 0.68736 0.34768 0.28212 0.0
C808 C 0.70916 0.34078 0.25239 0.0
C809 C 0.66521 0.37823 0.27561 0.0
C810 C 0.72251 0.36754 0.30841 0.0
C811 C 0.71085 0.33612 0.33275 0.0
C812 C 0.73454 0.34934 0.36129 0.0
C813 C 0.76962 0.39622 0.36545 0.0
C814 C 0.78008 0.42926 0.3413 0.0
C815 C 0.75778 0.41395 0.31202 0.0
H816 H 0.32299 0.7397 0.73074 0.0
H817 H 0.34451 0.7923 0.63582 0.0
H818 H 0.38393 0.74812 0.6231 0.0
H819 H 0.43101 0.72324 0.73552 0.0
H820 H 0.39695 0.67004 0.75735 0.0
H821 H 0.38681 0.71841 0.76221 0.0
H822 H 0.29964 0.66374 0.74885 0.0
H823 H 0.30932 0.61562 0.7437 0.0
H824 H 0.28422 0.63216 0.71233 0.0
H825 H 0.39867 0.68236 0.6164 0.0
H826 H 0.3839 0.60143 0.61624 0.0
H827 H 0.35349 0.59057 0.71528 0.0
C828 C 0.338 0.74372 0.7077 0.0
C829 C 0.33062 0.76937 0.68432 0.0
C830 C 0.34996 0.77308 0.65424 0.0
C831 C 0.37267 0.7482 0.64683 0.0
C832 C 0.37638 0.72034 0.66985 0.0
C833 C 0.36017 0.71864 0.69993 0.0
C834 C 0.3594 0.67941 0.71861 0.0
C835 C 0.39573 0.69896 0.74498 0.0
C836 C 0.31026 0.64577 0.73158 0.0
C837 C 0.37331 0.6565 0.69354 0.0
C838 C 0.38485 0.6816 0.66589 0.0
C839 C 0.3913 0.66322 0.63815 0.0
C840 C 0.38302 0.61718 0.63825 0.0
C841 C 0.36767 0.59 0.66581 0.0
C842 C 0.36587 0.61105 0.69405 0.0
H843 H 0.75817 0.31226 0.0325 0.0
H844 H 0.77441 0.35627 0.93565 0.0
H845 H 0.71736 0.38232 0.94363 0.0
H846 H 0.64452 0.2561 0.0307 0.0
H847 H 0.63425 0.26799 0.07013 0.0
H848 H 0.6874 0.26918 0.06081 0.0
H849 H 0.73531 0.35397 0.08186 0.0
H850 H 0.68199 0.35303 0.0916 0.0
H851 H 0.72453 0.39864 0.06689 0.0
H852 H 0.64583 0.38377 0.95746 0.0
H853 H 0.56569 0.35764 0.9747 0.0
H854 H 0.59302 0.3094 0.06211 0.0
C855 C 0.7516 0.32961 0.01337 0.0
C856 C 0.77101 0.33257 0.98349 0.0
C857 C 0.76028 0.35405 0.95881 0.0
C858 C 0.72797 0.36909 0.9632 0.0
C859 C 0.70677 0.36243 0.9924 0.0
C860 C 0.71849 0.34345 0.01719 0.0
C861 C 0.68425 0.33041 0.0439 0.0
C862 C 0.66127 0.27785 0.05179 0.0
C863 C 0.70795 0.36085 0.07277 0.0
C864 C 0.64976 0.34223 0.02958 0.0
C865 C 0.66409 0.36205 1.00027 0.0
C866 C 0.63488 0.36958 0.98072 0.0
C867 C 0.5893 0.35454 0.9907 0.0
C868 C 0.57316 0.33166 0.01983 0.0
C869 C 0.60464 0.32776 0.04006 0.0
H870 H 0.25505 0.35557 0.32252 0.0
H871 H 0.11265 0.24702 0.34183 0.0
H872 H 0.13875 0.18896 0.34565 0.0
H873 H 0.28741 0.28625 0.27582 0.0
H874 H 0.34579 0.31422 0.29133 0.0
H875 H 0.31498 0.34603 0.28917 0.0
H876 H 0.32831 0.36375 0.34854 0.0
H877 H 0.3588 0.33165 0.35095 0.0
H878 H 0.3093 0.31604 0.37581 0.0
H879 H 0.18197 0.14329 0.34825 0.0
H880 H 0.23755 0.11414 0.34805 0.0
H881 H 0.35037 0.25466 0.32798 0.0
C882 C 0.22901 0.31959 0.32731 0.0
C883 C 0.1817 0.30588 0.33176 0.0
C884 C 0.14907 0.25834 0.33816 0.0
C885 C 0.16358 0.22516 0.34046 0.0
C886 C 0.21072 0.24022 0.33635 0.0
C887 C 0.2428 0.28635 0.32981 0.0
C888 C 0.29152 0.29423 0.32687 0.0
C889 C 0.31105 0.31116 0.29383 0.0
C890 C 0.32387 0.32843 0.35204 0.0
C891 C 0.28201 0.24522 0.33272 0.0
C892 C 0.23532 0.21443 0.33818 0.0
C893 C 0.2186 0.16714 0.34401 0.0
C894 C 0.25046 0.15096 0.34394 0.0
C895 C 0.29841 0.18208 0.33808 0.0
C896 C 0.31407 0.22982 0.33263 0.0
H897 H 0.9144 0.25912 0.67751 0.0
H898 H 0.88791 0.12158 0.6493 0.0
H899 H 0.97258 0.15079 0.64987 0.0
H900 H 0.01717 0.32554 0.63192 0.0
H901 H 0.04537 0.37033 0.66126 0.0
H902 H 0.9828 0.33807 0.65859 0.0
H903 H 0.97774 0.31434 0.71685 0.0
H904 H 0.04034 0.3462 0.71964 0.0
H905 H 0.00819 0.28511 0.72993 0.0
H906 H 0.061 0.19599 0.65343 0.0
H907 H 0.14508 0.25393 0.65766 0.0
H908 H 0.11107 0.36021 0.68408 0.0
C909 C 0.92616 0.23498 0.67132 0.0
C910 C 0.8944 0.18804 0.66329 0.0
C911 C 0.91156 0.15778 0.65542 0.0
C912 C 0.95957 0.17397 0.65579 0.0
C913 C 0.98982 0.2204 0.66411 0.0
C914 C 0.97368 0.25043 0.6716 0.0
C915 C 0.0131 0.29879 0.67947 0.0
C916 C 0.0147 0.33532 0.65643 0.0
C917 C 0.00962 0.31185 0.71349 0.0
C918 C 0.05408 0.29145 0.67504 0.0
C919 C 0.04015 0.24606 0.66631 0.0
C920 C 0.0723 0.23161 0.66035 0.0
C921 C 0.11995 0.26472 0.66292 0.0
C922 C 0.1348 0.31165 0.67127 0.0
C923 C 0.10114 0.32468 0.67775 0.0
H924 H 0.74576 0.08439 1.00004 0.0
H925 H 0.88401 0.1077 0.02053 0.0
H926 H 0.85272 0.02215 0.01967 0.0
H927 H 0.68299 0.98282 0.04751 0.0
H928 H 0.63489 0.95511 0.02053 0.0
H929 H 0.66889 0.01792 0.02258 0.0
H930 H 0.68534 0.02132 0.96308 0.0
H931 H 0.65171 0.95846 0.96088 0.0
H932 H 0.71116 0.98896 0.94741 0.0
H933 H 0.80486 0.9328 0.01648 0.0
H934 H 0.74466 0.84886 0.01371 0.0
H935 H 0.6397 0.88753 0.99537 0.0
C936 C 0.76969 0.07181 0.00447 0.0
C937 C 0.81738 0.10288 0.01042 0.0
C938 C 0.84726 0.08458 0.01604 0.0
C939 C 0.82986 0.03607 0.01548 0.0
C940 C 0.78261 0.00653 0.00932 0.0
C941 C 0.75303 0.02388 0.00409 0.0
C942 C 0.7036 0.98525 0.99847 0.0
C943 C 0.67067 0.98528 0.02378 0.0
C944 C 0.687 0.98872 0.9655 0.0
C945 C 0.70978 0.94323 1.00143 0.0
C946 C 0.7555 0.95592 0.00754 0.0
C947 C 0.76898 0.92252 0.01163 0.0
C948 C 0.7346 0.87496 0.00991 0.0
C949 C 0.68741 0.86149 0.00428 0.0
C950 C 0.67534 0.89637 0.99965 0.0
H951 H 0.68153 0.76872 0.38084 0.0
H952 H 0.76767 0.89446 0.32697 0.0
H953 H 0.82648 0.87011 0.32052 0.0
H954 H 0.77785 0.75872 0.41822 0.0
H955 H 0.7452 0.6959 0.41487 0.0
H956 H 0.71514 0.72809 0.42028 0.0
H957 H 0.6665 0.68925 0.37046 0.0
H958 H 0.69685 0.65772 0.36438 0.0
H959 H 0.69589 0.69487 0.33391 0.0
H960 H 0.87098 0.82579 0.31426 0.0
H961 H 0.89618 0.76678 0.30986 0.0
H962 H 0.77774 0.67092 0.36618 0.0
C963 C 0.71332 0.79201 0.36846 0.0
C964 C 0.71993 0.83354 0.35447 0.0
C965 C 0.76194 0.86262 0.33816 0.0
C966 C 0.79554 0.84904 0.33432 0.0
C967 C 0.78673 0.8066 0.34718 0.0
C968 C 0.74679 0.7789 0.36429 0.0
C969 C 0.74267 0.73279 0.37307 0.0
C970 C 0.7454 0.72866 0.40872 0.0
C971 C 0.69785 0.69125 0.35963 0.0
C972 C 0.78554 0.73797 0.35721 0.0
C973 C 0.8112 0.78093 0.34285 0.0
C974 C 0.85135 0.79224 0.32573 0.0
C975 C 0.86532 0.75857 0.32324 0.0
C976 C 0.83855 0.71407 0.33729 0.0
C977 C 0.79864 0.70428 0.35474 0.0
H978 H 0.08272 0.74867 0.65558 0.0
H979 H 0.11351 0.89283 0.65722 0.0
H980 H 0.02948 0.86523 0.66221 0.0
H981 H 0.97454 0.70106 0.61138 0.0
H982 H 0.94755 0.64733 0.63338 0.0
H983 H 0.00973 0.67902 0.62788 0.0
H984 H 0.02128 0.68135 0.68795 0.0
H985 H 0.95916 0.65036 0.69366 0.0
H986 H 0.99493 0.70608 0.71244 0.0
H987 H 0.94148 0.82097 0.6702 0.0
H988 H 0.85738 0.76401 0.67618 0.0
H989 H 0.88674 0.6502 0.66958 0.0
C990 C 0.07197 0.77462 0.65649 0.0
C991 C 0.10489 0.82298 0.656 0.0
C992 C 0.08903 0.85557 0.6574 0.0
C993 C 0.04135 0.84025 0.66039 0.0
C994 C 0.01005 0.79228 0.66176 0.0
C995 C 0.02478 0.76002 0.65945 0.0
C996 C 0.98456 0.71049 0.66215 0.0
C997 C 0.97875 0.68286 0.63189 0.0
C998 C 0.99035 0.68564 0.69075 0.0
C999 C 0.94483 0.71984 0.66659 0.0
C1000 C 0.96001 0.76713 0.66637 0.0
C1001 C 0.9292 0.78384 0.67027 0.0
C1002 C 0.88154 0.75124 0.67384 0.0
C1003 C 0.86529 0.70256 0.6734 0.0
C1004 C 0.89773 0.68706 0.67008 0.0
H1005 H 0.34586 0.09087 0.98351 0.0
H1006 H 0.23317 0.12109 0.99087 0.0
H1007 H 0.17644 0.03627 0.9936 0.0
H1008 H 0.28343 0.98652 0.93515 0.0
H1009 H 0.31062 0.95771 0.95418 0.0
H1010 H 0.34126 0.02055 0.95117 0.0
H1011 H 0.35255 0.02699 0.01135 0.0
H1012 H 0.32147 0.96423 0.01459 0.0
H1013 H 0.30229 0.99809 0.03644 0.0
H1014 H 0.13282 0.94729 0.99957 0.0
H1015 H 0.10621 0.86281 0.00401 0.0
H1016 H 0.24865 0.89393 0.9906 0.0
C1017 C 0.30926 0.07988 0.98523 0.0
C1018 C 0.29402 0.11269 0.98697 0.0
C1019 C 0.24569 0.09658 0.98934 0.0
C1020 C 0.21322 0.04849 0.99101 0.0
C1021 C 0.22969 0.01715 0.98987 0.0
C1022 C 0.27657 0.03234 0.98657 0.0
C1023 C 0.2858 0.99207 0.98633 0.0
C1024 C 0.30648 0.98904 0.95483 0.0
C1025 C 0.31738 0.99557 0.01381 0.0
C1026 C 0.23684 0.95175 0.99052 0.0
C1027 C 0.20481 0.96663 0.99264 0.0
C1028 C 0.15759 0.93524 0.99765 0.0
C1029 C 0.14284 0.8874 1.00029 0.0
C1030 C 0.17529 0.87162 0.99773 0.0
C1031 C 0.22278 0.90452 0.99273 0.0
H1032 H 0.00029 0.28936 0.09851 0.0
H1033 H 0.85583 0.22478 0.12787 0.0
H1034 H 0.88092 0.24283 0.18275 0.0
H1035 H 0.03874 0.24746 0.16284 0.0
H1036 H 0.09463 0.30007 0.16638 0.0
H1037 H 0.06568 0.28362 0.12902 0.0
H1038 H 0.07065 0.36418 0.12491 0.0
H1039 H 0.09963 0.38083 0.16227 0.0
H1040 H 0.04714 0.38312 0.15592 0.0
H1041 H 0.92112 0.2675 0.23461 0.0
H1042 H 0.97421 0.2957 0.2801 0.0
H1043 H 0.09256 0.34259 0.21772 0.0
C1044 C 0.974 0.27925 0.11649 0.0
C1045 C 0.92606 0.25562 0.1088 0.0
C1046 C 0.89274 0.24273 0.13308 0.0
C1047 C 0.90663 0.25293 0.16439 0.0
C1048 C 0.95401 0.27592 0.17122 0.0
C1049 C 0.98726 0.28888 0.14803 0.0
C1050 C 0.03587 0.31229 0.16194 0.0
C1051 C 0.06015 0.28417 0.15461 0.0
C1052 C 0.06503 0.36312 0.15058 0.0
C1053 C 0.02461 0.31025 0.19648 0.0
C1054 C 0.9772 0.2894 0.20129 0.0
C1055 C 0.95835 0.28384 0.23117 0.0
C1056 C 0.98877 0.29998 0.25687 0.0
C1057 C 0.03751 0.32113 0.25255 0.0
C1058 C 0.05546 0.32626 0.22187 0.0
H1059 H 0.70917 0.0067 0.57591 0.0
H1060 H 0.77115 0.15157 0.54663 0.0
H1061 H 0.75487 0.12637 0.4916 0.0
H1062 H 0.75421 0.97002 0.5133 0.0
H1063 H 0.70282 0.91322 0.50925 0.0
H1064 H 0.71711 0.94237 0.54658 0.0
H1065 H 0.63577 0.93518 0.54877 0.0
H1066 H 0.6213 0.90605 0.5114 0.0
H1067 H 0.61725 0.9579 0.51701 0.0
H1068 H 0.7331 0.08553 0.43924 0.0
H1069 H 0.70907 0.03178 0.39382 0.0
H1070 H 0.66314 0.91417 0.45719 0.0
C1071 C 0.71895 0.03307 0.55794 0.0
C1072 C 0.74143 0.08112 0.56567 0.0
C1073 C 0.75402 0.11454 0.54138 0.0
C1074 C 0.74481 0.10059 0.50998 0.0
C1075 C 0.72304 0.05305 0.50311 0.0
C1076 C 0.71029 0.01977 0.52638 0.0
C1077 C 0.68867 0.97104 0.51257 0.0
C1078 C 0.71743 0.94782 0.52092 0.0
C1079 C 0.63772 0.94077 0.52306 0.0
C1080 C 0.69179 0.98225 0.47799 0.0
C1081 C 0.71131 0.02968 0.47297 0.0
C1082 C 0.71774 0.04827 0.44288 0.0
C1083 C 0.704 0.01753 0.41722 0.0
C1084 C 0.68449 0.96884 0.42187 0.0
C1085 C 0.67824 0.95123 0.45274 0.0
H1086 H 0.67948 0.68324 0.91829 0.0
H1087 H 0.60489 0.75418 0.8905 0.0
H1088 H 0.61667 0.74274 0.83525 0.0
H1089 H 0.76585 0.73168 0.85731 0.0
H1090 H 0.76826 0.67898 0.85121 0.0
H1091 H 0.75293 0.69113 0.88906 0.0
H1092 H 0.6762 0.61128 0.88805 0.0
H1093 H 0.6913 0.59889 0.85019 0.0
H1094 H 0.63663 0.59718 0.8556 0.0
H1095 H 0.63602 0.72454 0.78325 0.0
H1096 H 0.66389 0.70205 0.73683 0.0
H1097 H 0.72806 0.64402 0.79671 0.0
C1098 C 0.66551 0.69615 0.90054 0.0
C1099 C 0.64129 0.71968 0.90883 0.0
C1100 C 0.62376 0.73628 0.88488 0.0
C1101 C 0.63013 0.72985 0.85333 0.0
C1102 C 0.65431 0.70689 0.84591 0.0
C1103 C 0.67191 0.69036 0.86869 0.0
C1104 C 0.69754 0.66786 0.85397 0.0
C1105 C 0.74921 0.69398 0.86345 0.0
C1106 C 0.674 0.6157 0.86246 0.0
C1107 C 0.69157 0.67452 0.81946 0.0
C1108 C 0.66627 0.69691 0.8155 0.0
C1109 C 0.65592 0.707 0.786 0.0
C1110 C 0.67193 0.69402 0.75973 0.0
C1111 C 0.69832 0.67134 0.763 0.0
C1112 C 0.70815 0.66146 0.79338 0.0
H1113 H 0.00473 0.69325 0.0944 0.0
H1114 H 0.1504 0.76303 0.12169 0.0
H1115 H 0.12746 0.74997 0.17715 0.0
H1116 H 0.96792 0.7408 0.15593 0.0
H1117 H 0.9125 0.68832 0.16157 0.0
H1118 H 0.94006 0.70103 0.12377 0.0
H1119 H 0.936 0.62071 0.12374 0.0
H1120 H 0.90842 0.60777 0.16156 0.0
H1121 H 0.96105 0.60552 0.15587 0.0
H1122 H 0.08931 0.73013 0.22961 0.0
H1123 H 0.03816 0.70738 0.27588 0.0
H1124 H 0.91712 0.65256 0.21506 0.0
C1125 C 0.03174 0.70547 0.11206 0.0
C1126 C 0.07937 0.72909 0.10369 0.0
C1127 C 0.1137 0.74497 0.1275 0.0
C1128 C 0.10104 0.7376 0.15911 0.0
C1129 C 0.05389 0.71451 0.16661 0.0
C1130 C 0.01972 0.69882 0.14384 0.0
C1131 C 0.97162 0.67648 0.15839 0.0
C1132 C 0.94657 0.70327 0.14938 0.0
C1133 C 0.94257 0.62453 0.14935 0.0
C1134 C 0.98422 0.6823 0.19283 0.0
C1135 C 0.03184 0.70397 0.19701 0.0
C1136 C 0.05194 0.71314 0.22667 0.0
C1137 C 0.02258 0.70003 0.25281 0.0
C1138 C 0.97366 0.67834 0.24913 0.0
C1139 C 0.95439 0.66929 0.21867 0.0
H1140 H 0.29826 -0.00031 0.42247 0.0
H1141 H 0.38478 0.14447 0.45135 0.0
H1142 H 0.37349 0.12005 0.50642 0.0
H1143 H 0.2152 0.96706 0.48399 0.0
H1144 H 0.20709 0.90934 0.48923 0.0
H1145 H 0.22398 0.93739 0.45162 0.0
H1146 H 0.29604 0.92662 0.4514 0.0
H1147 H 0.2793 0.89843 0.48901 0.0
H1148 H 0.33644 0.94872 0.48366 0.0
H1149 H 0.35121 0.08133 0.55832 0.0
H1150 H 0.31875 0.03004 0.60428 0.0
H1151 H 0.24554 0.90981 0.54288 0.0
C1152 C 0.31521 0.02611 0.4404 0.0
C1153 C 0.34245 0.07402 0.43251 0.0
C1154 C 0.36364 0.10759 0.4567 0.0
C1155 C 0.35755 0.09409 0.48813 0.0
C1156 C 0.33008 0.04682 0.49518 0.0
C1157 C 0.30924 0.01323 0.4721 0.0
C1158 C 0.28012 0.96497 0.48638 0.0
C1159 C 0.22854 0.94344 0.47726 0.0
C1160 C 0.29912 0.93279 0.47706 0.0
C1161 C 0.28757 0.97693 0.52096 0.0
C1162 C 0.31675 0.02434 0.52542 0.0
C1163 C 0.32843 0.04408 0.55518 0.0
C1164 C 0.30975 0.01462 0.58116 0.0
C1165 C 0.2795 0.96587 0.57728 0.0
C1166 C 0.2685 0.94691 0.54669 0.0
H1167 H 0.30307 0.3014 0.90351 0.0
H1168 H 0.3826 0.23624 0.87455 0.0
H1169 H 0.37555 0.25374 0.81963 0.0
H1170 H 0.2225 0.25856 0.83947 0.0
H1171 H 0.21911 0.31104 0.83547 0.0
H1172 H 0.232 0.29545 0.87297 0.0
H1173 H 0.3076 0.37613 0.87643 0.0
H1174 H 0.29486 0.39193 0.83893 0.0
H1175 H 0.34974 0.39446 0.8453 0.0
H1176 H 0.35956 0.27725 0.76762 0.0
H1177 H 0.33384 0.30401 0.72184 0.0
H1178 H 0.2629 0.35216 0.78375 0.0
C1179 C 0.31925 0.29115 0.88561 0.0
C1180 C 0.34343 0.26746 0.89344 0.0
C1181 C 0.36379 0.25429 0.86926 0.0
C1182 C 0.36009 0.26417 0.8379 0.0
C1183 C 0.33575 0.28712 0.83091 0.0
C1184 C 0.31558 0.30043 0.854 0.0
C1185 C 0.29017 0.32347 0.83985 0.0
C1186 C 0.23784 0.29544 0.84739 0.0
C1187 C 0.3119 0.37453 0.85078 0.0
C1188 C 0.29909 0.32071 0.80532 0.0
C1189 C 0.32572 0.29991 0.80072 0.0
C1190 C 0.33864 0.29359 0.7709 0.0
C1191 C 0.32388 0.3089 0.74503 0.0
C1192 C 0.29618 0.32996 0.74913 0.0
C1193 C 0.28378 0.33591 0.77976 0.0
H1194 H 0.15886 0.36306 0.43677 0.0
H1195 H 0.22708 0.51169 0.41726 0.0
H1196 H 0.25572 0.52892 0.47181 0.0
H1197 H 0.12524 0.36672 0.5169 0.0
H1198 H 0.13796 0.32264 0.53026 0.0
H1199 H 0.12045 0.32216 0.49032 0.0
H1200 H 0.19532 0.32397 0.47114 0.0
H1201 H 0.21323 0.32482 0.51102 0.0
H1202 H 0.25135 0.37008 0.48429 0.0
H1203 H 0.27507 0.52988 0.52879 0.0
H1204 H 0.28853 0.51468 0.58333 0.0
H1205 H 0.21418 0.36556 0.5646 0.0
C1206 C 0.17929 0.39918 0.44418 0.0
C1207 C 0.19029 0.43614 0.42304 0.0
C1208 C 0.21812 0.48297 0.43323 0.0
C1209 C 0.23448 0.49305 0.46413 0.0
C1210 C 0.22347 0.45587 0.48436 0.0
C1211 C 0.19693 0.40986 0.47476 0.0
C1212 C 0.19223 0.37649 0.50071 0.0
C1213 C 0.14092 0.34516 0.5101 0.0
C1214 C 0.21436 0.34712 0.49121 0.0
C1215 C 0.21995 0.41091 0.52647 0.0
C1216 C 0.23718 0.4565 0.51664 0.0
C1217 C 0.26218 0.49436 0.53665 0.0
C1218 C 0.26963 0.48542 0.56755 0.0
C1219 C 0.25295 0.43905 0.57798 0.0
C1220 C 0.22811 0.4014 0.55704 0.0
H1221 H 0.81701 0.25112 0.90013 0.0
H1222 H 0.90231 0.18779 0.91609 0.0
H1223 H 0.88249 0.15282 0.86325 0.0
H1224 H 0.72643 0.15773 0.85941 0.0
H1225 H 0.71715 0.19349 0.83185 0.0
H1226 H 0.74015 0.216 0.87012 0.0
H1227 H 0.81217 0.28731 0.84551 0.0
H1228 H 0.78882 0.26564 0.80716 0.0
H1229 H 0.84657 0.27771 0.81706 0.0
H1230 H 0.84739 0.11909 0.80995 0.0
H1231 H 0.81117 0.10064 0.75751 0.0
H1232 H 0.75118 0.18839 0.77626 0.0
C1233 C 0.83232 0.23066 0.89236 0.0
C1234 C 0.8613 0.22229 0.91237 0.0
C1235 C 0.88044 0.19516 0.90118 0.0
C1236 C 0.86897 0.17473 0.87127 0.0
C1237 C 0.83884 0.18226 0.85266 0.0
C1238 C 0.82174 0.21055 0.86251 0.0
C1239 C 0.79035 0.21353 0.83802 0.0
C1240 C 0.74058 0.19402 0.85061 0.0
C1241 C 0.81071 0.26404 0.82624 0.0
C1242 C 0.79205 0.18212 0.81292 0.0
C1243 C 0.81974 0.16394 0.82189 0.0
C1244 C 0.82597 0.13348 0.80261 0.0
C1245 C 0.80483 0.1228 0.77294 0.0
C1246 C 0.77826 0.14301 0.76265 0.0
C1247 C 0.77119 0.17228 0.78333 0.0
H1248 H 0.59491 0.85224 0.23203 0.0
H1249 H 0.59378 0.73441 0.27744 0.0
H1250 H 0.59247 0.70011 0.22603 0.0
H1251 H 0.5141 0.78297 0.17041 0.0
H1252 H 0.5425 0.82755 0.14102 0.0
H1253 H 0.54502 0.84382 0.18149 0.0
H1254 H 0.63518 0.89036 0.17881 0.0
H1255 H 0.63285 0.87406 0.13837 0.0
H1256 H 0.66589 0.86126 0.16604 0.0
H1257 H 0.59582 0.68058 0.16932 0.0
H1258 H 0.59351 0.67274 0.11155 0.0
H1259 H 0.58495 0.7989 0.10319 0.0
C1260 C 0.59435 0.81924 0.23107 0.0
C1261 C 0.59463 0.79609 0.25877 0.0
C1262 C 0.59336 0.75268 0.25658 0.0
C1263 C 0.59287 0.73299 0.22745 0.0
C1264 C 0.59276 0.75664 0.20057 0.0
C1265 C 0.59261 0.79838 0.20208 0.0
C1266 C 0.59019 0.81544 0.16962 0.0
C1267 C 0.54528 0.81755 0.1654 0.0
C1268 C 0.63362 0.8631 0.16282 0.0
C1269 C 0.58945 0.77704 0.14976 0.0
C1270 C 0.59169 0.74381 0.16801 0.0
C1271 C 0.59344 0.70608 0.15478 0.0
C1272 C 0.59228 0.70193 0.12202 0.0
C1273 C 0.58838 0.73477 0.10299 0.0
C1274 C 0.58708 0.77277 0.11718 0.0
H1275 H 0.81173 0.54335 0.44504 0.0
H1276 H 0.85748 0.68628 0.41757 0.0
H1277 H 0.82847 0.69947 0.46729 0.0
H1278 H 0.70774 0.52102 0.48619 0.0
H1279 H 0.71459 0.48841 0.51745 0.0
H1280 H 0.73757 0.48895 0.47919 0.0
H1281 H 0.81961 0.519 0.50298 0.0
H1282 H 0.79675 0.51801 0.54133 0.0
H1283 H 0.84547 0.57119 0.52668 0.0
H1284 H 0.79316 0.69716 0.51881 0.0
H1285 H 0.76258 0.68298 0.57247 0.0
H1286 H 0.74365 0.54305 0.56916 0.0
C1287 C 0.81586 0.57742 0.44976 0.0
C1288 C 0.83735 0.61403 0.42773 0.0
C1289 C 0.84207 0.65814 0.43448 0.0
C1290 C 0.82522 0.66582 0.46248 0.0
C1291 C 0.80423 0.62919 0.48376 0.0
C1292 C 0.80019 0.58611 0.47811 0.0
C1293 C 0.77823 0.5537 0.50585 0.0
C1294 C 0.73177 0.51046 0.49661 0.0
C1295 C 0.81203 0.53966 0.52005 0.0
C1296 C 0.77061 0.58536 0.52779 0.0
C1297 C 0.78521 0.62844 0.51428 0.0
C1298 C 0.78179 0.66363 0.52976 0.0
C1299 C 0.76417 0.65511 0.56027 0.0
C1300 C 0.75074 0.61193 0.57527 0.0
C1301 C 0.75342 0.57639 0.55846 0.0
H1302 H 0.19304 0.73399 0.89561 0.0
H1303 H 0.07621 0.75676 0.90906 0.0
H1304 H 0.08741 0.78902 0.8559 0.0
H1305 H 0.26424 0.83591 0.85393 0.0
H1306 H 0.28652 0.81012 0.82685 0.0
H1307 H 0.26762 0.78518 0.86517 0.0
H1308 H 0.21018 0.70464 0.84072 0.0
H1309 H 0.22961 0.72903 0.80229 0.0
H1310 H 0.16858 0.70058 0.81195 0.0
H1311 H 0.11736 0.82811 0.80414 0.0
H1312 H 0.15484 0.85789 0.75287 0.0
H1313 H 0.24844 0.80482 0.7709 0.0
C1314 C 0.16904 0.74466 0.88716 0.0
C1315 C 0.13388 0.743 0.90678 0.0
C1316 C 0.10342 0.75757 0.89468 0.0
C1317 C 0.10964 0.77626 0.8645 0.0
C1318 C 0.14589 0.77933 0.84637 0.0
C1319 C 0.17426 0.76273 0.85685 0.0
C1320 C 0.21074 0.77032 0.83261 0.0
C1321 C 0.2602 0.80228 0.84541 0.0
C1322 C 0.20438 0.72334 0.82121 0.0
C1323 C 0.19888 0.79448 0.80711 0.0
C1324 C 0.16177 0.79991 0.81576 0.0
C1325 C 0.14598 0.82343 0.79689 0.0
C1326 C 0.16781 0.8407 0.76799 0.0
C1327 C 0.20448 0.83368 0.75803 0.0
C1328 C 0.22031 0.81045 0.77795 0.0
H1329 H 0.44623 0.18796 0.22432 0.0
H1330 H 0.298 0.10129 0.24163 0.0
H1331 H 0.28151 0.1215 0.18941 0.0
H1332 H 0.44273 0.27886 0.18428 0.0
H1333 H 0.48688 0.28821 0.15604 0.0
H1334 H 0.48743 0.26531 0.19414 0.0
H1335 H 0.48564 0.19307 0.16897 0.0
H1336 H 0.48626 0.21632 0.13079 0.0
H1337 H 0.44071 0.15828 0.14101 0.0
H1338 H 0.28143 0.15732 0.13687 0.0
H1339 H 0.29763 0.19364 0.08448 0.0
H1340 H 0.44581 0.25355 0.10067 0.0
C1341 C 0.41029 0.1725 0.21694 0.0
C1342 C 0.37341 0.14298 0.23717 0.0
C1343 C 0.32688 0.12356 0.22653 0.0
C1344 C 0.31715 0.13526 0.19699 0.0
C1345 C 0.35433 0.16585 0.17814 0.0
C1346 C 0.39999 0.18318 0.18737 0.0
C1347 C 0.43368 0.21468 0.16253 0.0
C1348 C 0.46449 0.26472 0.175 0.0
C1349 C 0.46331 0.19436 0.15009 0.0
C1350 C 0.39986 0.21276 0.13797 0.0
C1351 C 0.35426 0.18498 0.14757 0.0
C1352 C 0.31701 0.17877 0.12901 0.0
C1353 C 0.32658 0.19999 0.09938 0.0
C1354 C 0.37298 0.22648 0.08839 0.0
C1355 C 0.40997 0.23352 0.10833 0.0
loop_
_geom_bond_atom_site_label_1
_geom_bond_atom_site_label_2
_geom_bond_distance
_geom_bond_site_symmetry_2
_ccdc_geom_bond_type
Co0 O2 2.143 . S
Co0 O8 2.074 . S
Co0 O11 2.093 . S
Co0 O24 2.097 . S
Co0 N41 2.151 . S
Co0 N49 2.214 . S
Co1 O2 2.160 . S
Co1 O7 2.058 . S
Co1 O17 2.057 . S
Co1 O32 2.037 . S
Co1 N36 2.145 1_455 S
Co1 N57 2.257 . S
O2 Co0 2.143 . S
O2 Co1 2.160 . S
C3 O4 1.278 . S
C3 O11 1.224 . S
O4 C3 1.278 . S
C5 O6 1.245 . S
C5 O17 1.232 . S
O6 C5 1.245 . S
O7 Co1 2.058 . S
O7 C33 1.269 . S
O8 Co0 2.074 . S
O8 C33 1.257 . S
H9 C34 0.930 . S
H10 C40 0.930 . S
O11 Co0 2.093 . S
O11 C3 1.224 . S
H12 C44 0.929 . S
H13 C46 0.930 . S
H14 C47 0.930 . S
H15 C45 0.929 . S
H16 C48 0.928 . S
O17 Co1 2.057 . S
O17 C5 1.232 . S
H18 C37 0.929 1_455 S
H19 C38 0.929 . S
H20 C50 0.931 . S
H21 C42 0.929 . S
H22 C51 0.930 . S
H23 C43 0.931 . S
O24 Co0 2.097 . S
O24 C52 1.214 . S
H25 C53 0.929 . S
H26 C54 0.929 . S
H27 C55 0.920 1_655 S
H28 C56 0.929 1_655 S
H29 C58 0.930 . S
H30 C35 0.930 . S
H31 C39 0.930 . S
O32 Co1 2.037 . S
O32 C52 1.234 . S
C33 O7 1.269 . S
C33 O8 1.257 . S
C34 H9 0.930 . S
C34 C37 1.388 . S
C34 C39 1.418 . S
C35 H30 0.930 . S
C35 C38 1.404 . S
C35 C39 1.353 . S
N36 Co1 2.145 1_655 S
N36 C37 1.397 . S
N36 C38 1.334 . S
C37 H18 0.929 1_655 S
C37 C34 1.388 . S
C37 N36 1.397 . S
C38 H19 0.929 . S
C38 C35 1.404 . S
C38 N36 1.334 . S
C39 H31 0.930 . S
C39 C34 1.418 . S
C39 C35 1.353 . S
C40 H10 0.930 . S
C40 N41 1.330 . S
C40 C42 1.446 . S
N41 Co0 2.151 . S
N41 C40 1.330 . S
N41 C45 1.418 . S
C42 H21 0.929 . S
C42 C40 1.446 . S
C42 C43 1.332 . S
C43 H23 0.931 . S
C43 C42 1.332 . S
C43 C44 1.267 . S
C44 H12 0.929 . S
C44 C43 1.267 . S
C44 C45 1.251 . S
C45 H15 0.929 . S
C45 N41 1.418 . S
C45 C44 1.251 . S
C46 H13 0.930 . S
C46 C48 1.406 . S
C46 C51 1.261 . S
C47 H14 0.930 . S
C47 N49 1.325 . S
C47 C50 1.357 . S
C48 H16 0.928 . S
C48 C46 1.406 . S
C48 N49 1.261 . S
N49 Co0 2.214 . S
N49 C47 1.325 . S
N49 C48 1.261 . S
C50 H20 0.931 . S
C50 C47 1.357 . S
C50 C51 1.312 . S
C51 H22 0.930 . S
C51 C46 1.261 . S
C51 C50 1.312 . S
C52 O24 1.214 . S
C52 O32 1.234 . S
C53 H25 0.929 . S
C53 C56 1.391 . S
C53 C58 1.391 . S
C54 H26 0.929 . S
C54 C55 1.409 . S
C54 N57 1.391 . S
C55 H27 0.920 1_455 S
C55 C54 1.409 . S
C55 C56 1.383 . S
C56 H28 0.929 1_455 S
C56 C53 1.391 . S
C56 C55 1.383 . S
N57 Co1 2.257 . S
N57 C54 1.391 . S
N57 C58 1.388 . S
C58 H29 0.930 . S
C58 C53 1.391 . S
C58 N57 1.388 . S
Co59 O61 2.143 . S
Co59 O67 2.074 . S
Co59 O70 2.093 . S
Co59 O83 2.097 . S
Co59 N100 2.151 . S
Co59 N108 2.214 . S
Co60 O61 2.160 . S
Co60 O66 2.058 . S
Co60 O76 2.057 . S
Co60 O91 2.037 . S
Co60 N95 2.145 1_545 S
Co60 N116 2.257 . S
O61 Co59 2.143 . S
O61 Co60 2.160 . S
C62 O63 1.278 . S
C62 O70 1.224 . S
O63 C62 1.278 . S
C64 O65 1.245 . S
C64 O76 1.232 . S
O65 C64 1.245 . S
O66 Co60 2.058 . S
O66 C92 1.269 . S
O67 Co59 2.074 . S
O67 C92 1.257 . S
H68 C93 0.930 . S
H69 C99 0.930 . S
O70 Co59 2.093 . S
O70 C62 1.224 . S
H71 C103 0.929 . S
H72 C105 0.930 . S
H73 C106 0.930 . S
H74 C104 0.929 . S
H75 C107 0.928 . S
O76 Co60 2.057 . S
O76 C64 1.232 . S
H77 C96 0.929 1_545 S
H78 C97 0.929 . S
H79 C109 0.931 . S
H80 C101 0.929 . S
H81 C110 0.930 . S
H82 C102 0.931 . S
O83 Co59 2.097 . S
O83 C111 1.214 . S
H84 C112 0.929 . S
H85 C113 0.929 . S
H86 C114 0.937 . S
H87 C115 0.929 1_565 S
H88 C117 0.930 . S
H89 C94 0.930 . S
H90 C98 0.930 . S
O91 Co60 2.037 . S
O91 C111 1.234 . S
C92 O66 1.269 . S
C92 O67 1.257 . S
C93 H68 0.930 . S
C93 C96 1.388 . S
C93 C98 1.418 . S
C94 H89 0.930 . S
C94 C97 1.404 . S
C94 C98 1.353 . S
N95 Co60 2.145 1_565 S
N95 C96 1.397 . S
N95 C97 1.334 . S
C96 H77 0.929 1_565 S
C96 C93 1.388 . S
C96 N95 1.397 . S
C97 H78 0.929 . S
C97 C94 1.404 . S
C97 N95 1.334 . S
C98 H90 0.930 . S
C98 C93 1.418 . S
C98 C94 1.353 . S
C99 H69 0.930 . S
C99 N100 1.330 . S
C99 C101 1.446 . S
N100 Co59 2.151 . S
N100 C99 1.330 . S
N100 C104 1.418 . S
C101 H80 0.929 . S
C101 C99 1.446 . S
C101 C102 1.332 . S
C102 H82 0.931 . S
C102 C101 1.332 . S
C102 C103 1.267 . S
C103 H71 0.929 . S
C103 C102 1.267 . S
C103 C104 1.251 . S
C104 H74 0.929 . S
C104 N100 1.418 . S
C104 C103 1.251 . S
C105 H72 0.930 . S
C105 C107 1.406 . S
C105 C110 1.261 . S
C106 H73 0.930 . S
C106 N108 1.325 . S
C106 C109 1.357 . S
C107 H75 0.928 . S
C107 C105 1.406 . S
C107 N108 1.261 . S
N108 Co59 2.214 . S
N108 C106 1.325 . S
N108 C107 1.261 . S
C109 H79 0.931 . S
C109 C106 1.357 . S
C109 C110 1.312 . S
C110 H81 0.930 . S
C110 C105 1.261 . S
C110 C109 1.312 . S
C111 O83 1.214 . S
C111 O91 1.234 . S
C112 H84 0.929 . S
C112 C115 1.391 . S
C112 C117 1.391 . S
C113 H85 0.929 . S
C113 C114 1.395 1_545 S
C113 N116 1.391 . S
C114 H86 0.937 . S
C114 C113 1.395 1_565 S
C114 C115 1.380 1_565 S
C115 H87 0.929 1_545 S
C115 C112 1.391 . S
C115 C114 1.380 1_545 S
N116 Co60 2.257 . S
N116 C113 1.391 . S
N116 C117 1.388 . S
C117 H88 0.930 . S
C117 C112 1.391 . S
C117 N116 1.388 . S
Co118 O120 2.143 1_554 S
Co118 O126 2.074 . S
Co118 O129 2.093 1_554 S
Co118 O142 2.097 1_554 S
Co118 N159 2.151 . S
Co118 N167 2.214 . S
Co119 O120 2.160 1_554 S
Co119 O125 2.058 . S
Co119 O135 2.057 . S
Co119 O150 2.037 . S
Co119 N154 2.145 . S
Co119 N175 2.257 1_554 S
O120 Co118 2.143 1_556 S
O120 Co119 2.160 1_556 S
C121 O122 1.278 . S
C121 O129 1.224 . S
O122 C121 1.278 . S
C123 O124 1.245 . S
C123 O135 1.232 1_556 S
O124 C123 1.245 . S
O125 Co119 2.058 . S
O125 C151 1.269 . S
O126 Co118 2.074 . S
O126 C151 1.257 . S
H127 C152 0.930 . S
H128 C158 0.930 . S
O129 Co118 2.093 1_556 S
O129 C121 1.224 . S
H130 C162 0.929 . S
H131 C164 0.930 . S
H132 C165 0.930 . S
H133 C163 0.929 . S
H134 C166 0.928 1_556 S
O135 Co119 2.057 . S
O135 C123 1.232 1_554 S
H136 C155 0.929 . S
H137 C156 0.929 . S
H138 C168 0.931 . S
H139 C160 0.929 1_556 S
H140 C169 0.930 . S
H141 C161 0.931 . S
O142 Co118 2.097 1_556 S
O142 C170 1.216 . S
H143 C171 0.929 . S
H144 C172 0.929 . S
H145 C173 0.930 . S
H146 C174 0.929 . S
H147 C176 0.930 . S
H148 C153 0.930 . S
H149 C157 0.930 . S
O150 Co119 2.037 . S
O150 C170 1.232 1_554 S
C151 O125 1.269 . S
C151 O126 1.257 . S
C152 H127 0.930 . S
C152 C155 1.388 . S
C152 C157 1.418 . S
C153 H148 0.930 . S
C153 C156 1.404 . S
C153 C157 1.353 . S
N154 Co119 2.145 . S
N154 C155 1.397 . S
N154 C156 1.334 . S
C155 H136 0.929 . S
C155 C152 1.388 . S
C155 N154 1.397 . S
C156 H137 0.929 . S
C156 C153 1.404 . S
C156 N154 1.334 . S
C157 H149 0.930 . S
C157 C152 1.418 . S
C157 C153 1.353 . S
C158 H128 0.930 . S
C158 N159 1.330 1_556 S
C158 C160 1.446 1_556 S
N159 Co118 2.151 . S
N159 C158 1.330 1_554 S
N159 C163 1.418 . S
C160 H139 0.929 1_554 S
C160 C158 1.446 1_554 S
C160 C161 1.332 . S
C161 H141 0.931 . S
C161 C160 1.332 . S
C161 C162 1.267 . S
C162 H130 0.929 . S
C162 C161 1.267 . S
C162 C163 1.251 . S
C163 H133 0.929 . S
C163 N159 1.418 . S
C163 C162 1.251 . S
C164 H131 0.930 . S
C164 C166 1.406 . S
C164 C169 1.261 . S
C165 H132 0.930 . S
C165 N167 1.325 . S
C165 C168 1.357 . S
C166 H134 0.928 1_554 S
C166 C164 1.406 . S
C166 N167 1.261 . S
N167 Co118 2.214 . S
N167 C165 1.325 . S
N167 C166 1.261 . S
C168 H138 0.931 . S
C168 C165 1.357 . S
C168 C169 1.312 . S
C169 H140 0.930 . S
C169 C164 1.261 . S
C169 C168 1.312 . S
C170 O142 1.216 . S
C170 O150 1.232 1_556 S
C171 H143 0.929 . S
C171 C174 1.391 . S
C171 C176 1.391 . S
C172 H144 0.929 . S
C172 C173 1.390 . S
C172 N175 1.391 . S
C173 H145 0.930 . S
C173 C172 1.390 . S
C173 C174 1.392 . S
C174 H146 0.929 . S
C174 C171 1.391 . S
C174 C173 1.392 . S
N175 Co119 2.257 1_556 S
N175 C172 1.391 . S
N175 C176 1.388 . S
C176 H147 0.930 . S
C176 C171 1.391 . S
C176 N175 1.388 . S
Co177 O179 2.143 . S
Co177 O185 2.074 . S
Co177 O188 2.093 . S
Co177 O201 2.097 . S
Co177 N218 2.151 . S
Co177 N226 2.214 . S
Co178 O179 2.160 . S
Co178 O184 2.058 . S
Co178 O194 2.057 . S
Co178 O209 2.037 . S
Co178 N213 2.145 1_655 S
Co178 N234 2.257 . S
O179 Co177 2.143 . S
O179 Co178 2.160 . S
C180 O181 1.278 . S
C180 O188 1.224 . S
O181 C180 1.278 . S
C182 O183 1.245 . S
C182 O194 1.232 . S
O183 C182 1.245 . S
O184 Co178 2.058 . S
O184 C210 1.269 . S
O185 Co177 2.074 . S
O185 C210 1.257 . S
H186 C211 0.930 . S
H187 C217 0.930 . S
O188 Co177 2.093 . S
O188 C180 1.224 . S
H189 C221 0.929 . S
H190 C223 0.930 . S
H191 C224 0.930 . S
H192 C222 0.929 . S
H193 C225 0.928 . S
O194 Co178 2.057 . S
O194 C182 1.232 . S
H195 C214 0.929 1_655 S
H196 C215 0.929 . S
H197 C227 0.931 . S
H198 C219 0.929 . S
H199 C228 0.930 . S
H200 C220 0.931 . S
O201 Co177 2.097 . S
O201 C229 1.214 . S
H202 C230 0.929 . S
H203 C231 0.929 . S
H204 C232 0.920 1_455 S
H205 C233 0.929 1_455 S
H206 C235 0.930 . S
H207 C212 0.930 . S
H208 C216 0.930 . S
O209 Co178 2.037 . S
O209 C229 1.234 . S
C210 O184 1.269 . S
C210 O185 1.257 . S
C211 H186 0.930 . S
C211 C214 1.388 . S
C211 C216 1.418 . S
C212 H207 0.930 . S
C212 C215 1.404 . S
C212 C216 1.353 . S
N213 Co178 2.145 1_455 S
N213 C214 1.397 . S
N213 C215 1.334 . S
C214 H195 0.929 1_455 S
C214 C211 1.388 . S
C214 N213 1.397 . S
C215 H196 0.929 . S
C215 C212 1.404 . S
C215 N213 1.334 . S
C216 H208 0.930 . S
C216 C211 1.418 . S
C216 C212 1.353 . S
C217 H187 0.930 . S
C217 N218 1.330 . S
C217 C219 1.446 . S
N218 Co177 2.151 . S
N218 C217 1.330 . S
N218 C222 1.418 . S
C219 H198 0.929 . S
C219 C217 1.446 . S
C219 C220 1.332 . S
C220 H200 0.931 . S
C220 C219 1.332 . S
C220 C221 1.267 . S
C221 H189 0.929 . S
C221 C220 1.267 . S
C221 C222 1.251 . S
C222 H192 0.929 . S
C222 N218 1.418 . S
C222 C221 1.251 . S
C223 H190 0.930 . S
C223 C225 1.406 . S
C223 C228 1.261 . S
C224 H191 0.930 . S
C224 N226 1.325 . S
C224 C227 1.357 . S
C225 H193 0.928 . S
C225 C223 1.406 . S
C225 N226 1.261 . S
N226 Co177 2.214 . S
N226 C224 1.325 . S
N226 C225 1.261 . S
C227 H197 0.931 . S
C227 C224 1.357 . S
C227 C228 1.312 . S
C228 H199 0.930 . S
C228 C223 1.261 . S
C228 C227 1.312 . S
C229 O201 1.214 . S
C229 O209 1.234 . S
C230 H202 0.929 . S
C230 C233 1.391 . S
C230 C235 1.391 . S
C231 H203 0.929 . S
C231 C232 1.409 . S
C231 N234 1.391 . S
C232 H204 0.920 1_655 S
C232 C231 1.409 . S
C232 C233 1.383 . S
C233 H205 0.929 1_655 S
C233 C230 1.391 . S
C233 C232 1.383 . S
N234 Co178 2.257 . S
N234 C231 1.391 . S
N234 C235 1.388 . S
C235 H206 0.930 . S
C235 C230 1.391 . S
C235 N234 1.388 . S
Co236 O238 2.143 . S
Co236 O244 2.074 . S
Co236 O247 2.093 . S
Co236 O260 2.097 . S
Co236 N277 2.151 . S
Co236 N285 2.214 . S
Co237 O238 2.160 . S
Co237 O243 2.058 . S
Co237 O253 2.057 . S
Co237 O268 2.037 . S
Co237 N272 2.145 1_565 S
Co237 N293 2.257 . S
O238 Co236 2.143 . S
O238 Co237 2.160 . S
C239 O240 1.278 . S
C239 O247 1.224 . S
O240 C239 1.278 . S
C241 O242 1.245 . S
C241 O253 1.232 . S
O242 C241 1.245 . S
O243 Co237 2.058 . S
O243 C269 1.269 . S
O244 Co236 2.074 . S
O244 C269 1.257 . S
H245 C270 0.930 . S
H246 C276 0.930 . S
O247 Co236 2.093 . S
O247 C239 1.224 . S
H248 C280 0.929 . S
H249 C282 0.930 . S
H250 C283 0.930 . S
H251 C281 0.929 . S
H252 C284 0.928 . S
O253 Co237 2.057 . S
O253 C241 1.232 . S
H254 C273 0.929 1_565 S
H255 C274 0.929 . S
H256 C286 0.931 . S
H257 C278 0.929 . S
H258 C287 0.930 . S
H259 C279 0.931 . S
O260 Co236 2.097 . S
O260 C288 1.214 . S
H261 C289 0.929 . S
H262 C290 0.929 . S
H263 C291 0.937 . S
H264 C292 0.929 1_545 S
H265 C294 0.930 . S
H266 C271 0.930 . S
H267 C275 0.930 . S
O268 Co237 2.037 . S
O268 C288 1.234 . S
C269 O243 1.269 . S
C269 O244 1.257 . S
C270 H245 0.930 . S
C270 C273 1.388 . S
C270 C275 1.418 . S
C271 H266 0.930 . S
C271 C274 1.404 . S
C271 C275 1.353 . S
N272 Co237 2.145 1_545 S
N272 C273 1.397 . S
N272 C274 1.334 . S
C273 H254 0.929 1_545 S
C273 C270 1.388 . S
C273 N272 1.397 . S
C274 H255 0.929 . S
C274 C271 1.404 . S
C274 N272 1.334 . S
C275 H267 0.930 . S
C275 C270 1.418 . S
C275 C271 1.353 . S
C276 H246 0.930 . S
C276 N277 1.330 . S
C276 C278 1.446 . S
N277 Co236 2.151 . S
N277 C276 1.330 . S
N277 C281 1.418 . S
C278 H257 0.929 . S
C278 C276 1.446 . S
C278 C279 1.332 . S
C279 H259 0.931 . S
C279 C278 1.332 . S
C279 C280 1.267 . S
C280 H248 0.929 . S
C280 C279 1.267 . S
C280 C281 1.251 . S
C281 H251 0.929 . S
C281 N277 1.418 . S
C281 C280 1.251 . S
C282 H249 0.930 . S
C282 C284 1.406 . S
C282 C287 1.261 . S
C283 H250 0.930 . S
C283 N285 1.325 . S
C283 C286 1.357 . S
C284 H252 0.928 . S
C284 C282 1.406 . S
C284 N285 1.261 . S
N285 Co236 2.214 . S
N285 C283 1.325 . S
N285 C284 1.261 . S
C286 H256 0.931 . S
C286 C283 1.357 . S
C286 C287 1.312 . S
C287 H258 0.930 . S
C287 C282 1.261 . S
C287 C286 1.312 . S
C288 O260 1.214 . S
C288 O268 1.234 . S
C289 H261 0.929 . S
C289 C292 1.391 . S
C289 C294 1.391 . S
C290 H262 0.929 . S
C290 C291 1.395 1_565 S
C290 N293 1.391 . S
C291 H263 0.937 . S
C291 C290 1.395 1_545 S
C291 C292 1.380 1_545 S
C292 H264 0.929 1_565 S
C292 C289 1.391 . S
C292 C291 1.380 1_565 S
N293 Co237 2.257 . S
N293 C290 1.391 . S
N293 C294 1.388 . S
C294 H265 0.930 . S
C294 C289 1.391 . S
C294 N293 1.388 . S
Co295 O297 2.143 1_554 S
Co295 O303 2.074 . S
Co295 O306 2.093 1_554 S
Co295 O319 2.097 1_554 S
Co295 N336 2.151 . S
Co295 N344 2.214 . S
Co296 O297 2.160 1_554 S
Co296 O302 2.058 . S
Co296 O312 2.057 . S
Co296 O327 2.037 . S
Co296 N331 2.145 . S
Co296 N352 2.257 1_554 S
O297 Co295 2.143 1_556 S
O297 Co296 2.160 1_556 S
C298 O299 1.278 . S
C298 O306 1.224 . S
O299 C298 1.278 . S
C300 O301 1.245 . S
C300 O312 1.232 1_556 S
O301 C300 1.245 . S
O302 Co296 2.058 . S
O302 C328 1.269 . S
O303 Co295 2.074 . S
O303 C328 1.257 . S
H304 C329 0.930 . S
H305 C335 0.930 . S
O306 Co295 2.093 1_556 S
O306 C298 1.224 . S
H307 C339 0.929 . S
H308 C341 0.930 . S
H309 C342 0.930 . S
H310 C340 0.929 . S
H311 C343 0.928 1_556 S
O312 Co296 2.057 . S
O312 C300 1.232 1_554 S
H313 C332 0.929 . S
H314 C333 0.929 . S
H315 C345 0.931 . S
H316 C337 0.929 1_556 S
H317 C346 0.930 . S
H318 C338 0.931 . S
O319 Co295 2.097 1_556 S
O319 C347 1.216 . S
H320 C348 0.929 . S
H321 C349 0.929 . S
H322 C350 0.930 . S
H323 C351 0.929 . S
H324 C353 0.930 . S
H325 C330 0.930 . S
H326 C334 0.930 . S
O327 Co296 2.037 . S
O327 C347 1.232 1_554 S
C328 O302 1.269 . S
C328 O303 1.257 . S
C329 H304 0.930 . S
C329 C332 1.388 . S
C329 C334 1.418 . S
C330 H325 0.930 . S
C330 C333 1.404 . S
C330 C334 1.353 . S
N331 Co296 2.145 . S
N331 C332 1.397 . S
N331 C333 1.334 . S
C332 H313 0.929 . S
C332 C329 1.388 . S
C332 N331 1.397 . S
C333 H314 0.929 . S
C333 C330 1.404 . S
C333 N331 1.334 . S
C334 H326 0.930 . S
C334 C329 1.418 . S
C334 C330 1.353 . S
C335 H305 0.930 . S
C335 N336 1.330 1_556 S
C335 C337 1.446 1_556 S
N336 Co295 2.151 . S
N336 C335 1.330 1_554 S
N336 C340 1.418 . S
C337 H316 0.929 1_554 S
C337 C335 1.446 1_554 S
C337 C338 1.332 . S
C338 H318 0.931 . S
C338 C337 1.332 . S
C338 C339 1.267 . S
C339 H307 0.929 . S
C339 C338 1.267 . S
C339 C340 1.251 . S
C340 H310 0.929 . S
C340 N336 1.418 . S
C340 C339 1.251 . S
C341 H308 0.930 . S
C341 C343 1.406 . S
C341 C346 1.261 . S
C342 H309 0.930 . S
C342 N344 1.325 . S
C342 C345 1.357 . S
C343 H311 0.928 1_554 S
C343 C341 1.406 . S
C343 N344 1.261 . S
N344 Co295 2.214 . S
N344 C342 1.325 . S
N344 C343 1.261 . S
C345 H315 0.931 . S
C345 C342 1.357 . S
C345 C346 1.312 . S
C346 H317 0.930 . S
C346 C341 1.261 . S
C346 C345 1.312 . S
C347 O319 1.216 . S
C347 O327 1.232 1_556 S
C348 H320 0.929 . S
C348 C351 1.391 . S
C348 C353 1.391 . S
C349 H321 0.929 . S
C349 C350 1.390 . S
C349 N352 1.391 . S
C350 H322 0.930 . S
C350 C349 1.390 . S
C350 C351 1.392 . S
C351 H323 0.929 . S
C351 C348 1.391 . S
C351 C350 1.392 . S
N352 Co296 2.257 1_556 S
N352 C349 1.391 . S
N352 C353 1.388 . S
C353 H324 0.930 . S
C353 C348 1.391 . S
C353 N352 1.388 . S
Co354 O356 2.143 . S
Co354 O362 2.074 . S
Co354 O365 2.093 . S
Co354 O378 2.097 . S
Co354 N395 2.151 . S
Co354 N403 2.214 . S
Co355 O356 2.160 . S
Co355 O361 2.058 . S
Co355 O371 2.057 . S
Co355 O386 2.037 . S
Co355 N390 2.145 1_565 S
Co355 N411 2.257 . S
O356 Co354 2.143 . S
O356 Co355 2.160 . S
C357 O358 1.278 . S
C357 O365 1.224 . S
O358 C357 1.278 . S
C359 O360 1.245 . S
C359 O371 1.232 . S
O360 C359 1.245 . S
O361 Co355 2.058 . S
O361 C387 1.269 . S
O362 Co354 2.074 . S
O362 C387 1.257 . S
H363 C388 0.930 . S
H364 C394 0.930 . S
O365 Co354 2.093 . S
O365 C357 1.224 . S
H366 C398 0.929 . S
H367 C400 0.930 . S
H368 C401 0.930 . S
H369 C399 0.929 . S
H370 C402 0.928 . S
O371 Co355 2.057 . S
O371 C359 1.232 . S
H372 C391 0.929 1_565 S
H373 C392 0.929 . S
H374 C404 0.931 . S
H375 C396 0.929 . S
H376 C405 0.930 . S
H377 C397 0.931 . S
O378 Co354 2.097 . S
O378 C406 1.214 . S
H379 C407 0.929 . S
H380 C408 0.929 . S
H381 C409 0.940 . S
H382 C410 0.929 1_545 S
H383 C412 0.930 . S
H384 C389 0.930 . S
H385 C393 0.930 . S
O386 Co355 2.037 . S
O386 C406 1.234 . S
C387 O361 1.269 . S
C387 O362 1.257 . S
C388 H363 0.930 . S
C388 C391 1.388 . S
C388 C393 1.418 . S
C389 H384 0.930 . S
C389 C392 1.404 . S
C389 C393 1.353 . S
N390 Co355 2.145 1_545 S
N390 C391 1.397 . S
N390 C392 1.334 . S
C391 H372 0.929 1_545 S
C391 C388 1.388 . S
C391 N390 1.397 . S
C392 H373 0.929 . S
C392 C389 1.404 . S
C392 N390 1.334 . S
C393 H385 0.930 . S
C393 C388 1.418 . S
C393 C389 1.353 . S
C394 H364 0.930 . S
C394 N395 1.330 . S
C394 C396 1.446 . S
N395 Co354 2.151 . S
N395 C394 1.330 . S
N395 C399 1.418 . S
C396 H375 0.929 . S
C396 C394 1.446 . S
C396 C397 1.332 . S
C397 H377 0.931 . S
C397 C396 1.332 . S
C397 C398 1.267 . S
C398 H366 0.929 . S
C398 C397 1.267 . S
C398 C399 1.251 . S
C399 H369 0.929 . S
C399 N395 1.418 . S
C399 C398 1.251 . S
C400 H367 0.930 . S
C400 C402 1.406 . S
C400 C405 1.261 . S
C401 H368 0.930 . S
C401 N403 1.325 . S
C401 C404 1.357 . S
C402 H370 0.928 . S
C402 C400 1.406 . S
C402 N403 1.261 . S
N403 Co354 2.214 . S
N403 C401 1.325 . S
N403 C402 1.261 . S
C404 H374 0.931 . S
C404 C401 1.357 . S
C404 C405 1.312 . S
C405 H376 0.930 . S
C405 C400 1.261 . S
C405 C404 1.312 . S
C406 O378 1.214 . S
C406 O386 1.234 . S
C407 H379 0.929 . S
C407 C410 1.391 . S
C407 C412 1.391 . S
C408 H380 0.929 . S
C408 C409 1.372 1_565 S
C408 N411 1.391 . S
C409 H381 0.940 . S
C409 C408 1.372 1_545 S
C409 C410 1.400 1_545 S
C410 H382 0.929 1_565 S
C410 C407 1.391 . S
C410 C409 1.400 1_565 S
N411 Co355 2.257 . S
N411 C408 1.391 . S
N411 C412 1.388 . S
C412 H383 0.930 . S
C412 C407 1.391 . S
C412 N411 1.388 . S
Co413 O415 2.143 . S
Co413 O421 2.074 . S
Co413 O424 2.093 . S
Co413 O437 2.097 . S
Co413 N454 2.151 . S
Co413 N462 2.214 . S
Co414 O415 2.160 . S
Co414 O420 2.058 . S
Co414 O430 2.057 . S
Co414 O445 2.037 . S
Co414 N449 2.145 . S
Co414 N470 2.257 . S
O415 Co413 2.143 . S
O415 Co414 2.160 . S
C416 O417 1.278 . S
C416 O424 1.224 . S
O417 C416 1.278 . S
C418 O419 1.245 . S
C418 O430 1.232 . S
O419 C418 1.245 . S
O420 Co414 2.058 . S
O420 C446 1.269 . S
O421 Co413 2.074 . S
O421 C446 1.257 . S
H422 C447 0.930 . S
H423 C453 0.930 . S
O424 Co413 2.093 . S
O424 C416 1.224 . S
H425 C457 0.929 . S
H426 C459 0.930 . S
H427 C460 0.930 . S
H428 C458 0.929 . S
H429 C461 0.928 . S
O430 Co414 2.057 . S
O430 C418 1.232 . S
H431 C450 0.929 . S
H432 C451 0.929 . S
H433 C463 0.931 . S
H434 C455 0.929 . S
H435 C464 0.930 . S
H436 C456 0.931 . S
O437 Co413 2.097 . S
O437 C465 1.214 . S
H438 C466 0.929 . S
H439 C467 0.929 . S
H440 C468 0.930 . S
H441 C469 0.929 . S
H442 C471 0.930 . S
H443 C448 0.930 . S
H444 C452 0.930 . S
O445 Co414 2.037 . S
O445 C465 1.234 . S
C446 O420 1.269 . S
C446 O421 1.257 . S
C447 H422 0.930 . S
C447 C450 1.388 . S
C447 C452 1.418 . S
C448 H443 0.930 . S
C448 C451 1.404 . S
C448 C452 1.353 . S
N449 Co414 2.145 . S
N449 C450 1.397 . S
N449 C451 1.334 . S
C450 H431 0.929 . S
C450 C447 1.388 . S
C450 N449 1.397 . S
C451 H432 0.929 . S
C451 C448 1.404 . S
C451 N449 1.334 . S
C452 H444 0.930 . S
C452 C447 1.418 . S
C452 C448 1.353 . S
C453 H423 0.930 . S
C453 N454 1.330 . S
C453 C455 1.446 . S
N454 Co413 2.151 . S
N454 C453 1.330 . S
N454 C458 1.418 . S
C455 H434 0.929 . S
C455 C453 1.446 . S
C455 C456 1.332 . S
C456 H436 0.931 . S
C456 C455 1.332 . S
C456 C457 1.267 . S
C457 H425 0.929 . S
C457 C456 1.267 . S
C457 C458 1.251 . S
C458 H428 0.929 . S
C458 N454 1.418 . S
C458 C457 1.251 . S
C459 H426 0.930 . S
C459 C461 1.406 . S
C459 C464 1.261 . S
C460 H427 0.930 . S
C460 N462 1.325 . S
C460 C463 1.357 . S
C461 H429 0.928 . S
C461 C459 1.406 . S
C461 N462 1.261 . S
N462 Co413 2.214 . S
N462 C460 1.325 . S
N462 C461 1.261 . S
C463 H433 0.931 . S
C463 C460 1.357 . S
C463 C464 1.312 . S
C464 H435 0.930 . S
C464 C459 1.261 . S
C464 C463 1.312 . S
C465 O437 1.214 . S
C465 O445 1.234 . S
C466 H438 0.929 . S
C466 C469 1.391 . S
C466 C471 1.391 . S
C467 H439 0.929 . S
C467 C468 1.390 . S
C467 N470 1.391 . S
C468 H440 0.930 . S
C468 C467 1.390 . S
C468 C469 1.392 . S
C469 H441 0.929 . S
C469 C466 1.391 . S
C469 C468 1.392 . S
N470 Co414 2.257 . S
N470 C467 1.391 . S
N470 C471 1.388 . S
C471 H442 0.930 . S
C471 C466 1.391 . S
C471 N470 1.388 . S
Co472 O474 2.143 1_556 S
Co472 O480 2.074 . S
Co472 O483 2.093 1_556 S
Co472 O496 2.097 1_556 S
Co472 N513 2.151 . S
Co472 N521 2.214 . S
Co473 O474 2.160 1_556 S
Co473 O479 2.058 . S
Co473 O489 2.057 . S
Co473 O504 2.037 . S
Co473 N508 2.145 . S
Co473 N529 2.257 1_556 S
O474 Co472 2.143 1_554 S
O474 Co473 2.160 1_554 S
C475 O476 1.278 . S
C475 O483 1.224 . S
O476 C475 1.278 . S
C477 O478 1.245 . S
C477 O489 1.232 1_554 S
O478 C477 1.245 . S
O479 Co473 2.058 . S
O479 C505 1.269 . S
O480 Co472 2.074 . S
O480 C505 1.257 . S
H481 C506 0.930 . S
H482 C512 0.930 . S
O483 Co472 2.093 1_554 S
O483 C475 1.224 . S
H484 C516 0.929 . S
H485 C518 0.930 . S
H486 C519 0.930 . S
H487 C517 0.929 . S
H488 C520 0.928 1_554 S
O489 Co473 2.057 . S
O489 C477 1.232 1_556 S
H490 C509 0.929 . S
H491 C510 0.929 . S
H492 C522 0.931 . S
H493 C514 0.929 1_554 S
H494 C523 0.930 . S
H495 C515 0.931 . S
O496 Co472 2.097 1_554 S
O496 C524 1.216 . S
H497 C525 0.929 . S
H498 C526 0.929 . S
H499 C527 0.930 . S
H500 C528 0.929 . S
H501 C530 0.930 . S
H502 C507 0.930 . S
H503 C511 0.930 . S
O504 Co473 2.037 . S
O504 C524 1.232 1_556 S
C505 O479 1.269 . S
C505 O480 1.257 . S
C506 H481 0.930 . S
C506 C509 1.388 . S
C506 C511 1.418 . S
C507 H502 0.930 . S
C507 C510 1.404 . S
C507 C511 1.353 . S
N508 Co473 2.145 . S
N508 C509 1.397 . S
N508 C510 1.334 . S
C509 H490 0.929 . S
C509 C506 1.388 . S
C509 N508 1.397 . S
C510 H491 0.929 . S
C510 C507 1.404 . S
C510 N508 1.334 . S
C511 H503 0.930 . S
C511 C506 1.418 . S
C511 C507 1.353 . S
C512 H482 0.930 . S
C512 N513 1.330 1_554 S
C512 C514 1.446 1_454 S
N513 Co472 2.151 . S
N513 C512 1.330 1_556 S
N513 C517 1.418 1_455 S
C514 H493 0.929 1_556 S
C514 C512 1.446 1_656 S
C514 C515 1.332 . S
C515 H495 0.931 . S
C515 C514 1.332 . S
C515 C516 1.267 . S
C516 H484 0.929 . S
C516 C515 1.267 . S
C516 C517 1.251 . S
C517 H487 0.929 . S
C517 N513 1.418 1_655 S
C517 C516 1.251 . S
C518 H485 0.930 . S
C518 C520 1.406 . S
C518 C523 1.261 . S
C519 H486 0.930 . S
C519 N521 1.325 . S
C519 C522 1.357 1_455 S
C520 H488 0.928 1_556 S
C520 C518 1.406 . S
C520 N521 1.261 1_655 S
N521 Co472 2.214 . S
N521 C519 1.325 . S
N521 C520 1.261 1_455 S
C522 H492 0.931 . S
C522 C519 1.357 1_655 S
C522 C523 1.312 . S
C523 H494 0.930 . S
C523 C518 1.261 . S
C523 C522 1.312 . S
C524 O496 1.216 . S
C524 O504 1.232 1_554 S
C525 H497 0.929 . S
C525 C528 1.391 . S
C525 C530 1.391 . S
C526 H498 0.929 . S
C526 C527 1.390 . S
C526 N529 1.391 . S
C527 H499 0.930 . S
C527 C526 1.390 . S
C527 C528 1.392 . S
C528 H500 0.929 . S
C528 C525 1.391 . S
C528 C527 1.392 . S
N529 Co473 2.257 1_554 S
N529 C526 1.391 . S
N529 C530 1.388 . S
C530 H501 0.930 . S
C530 C525 1.391 . S
C530 N529 1.388 . S
Co531 O533 2.143 . S
Co531 O539 2.074 . S
Co531 O542 2.093 . S
Co531 O555 2.097 . S
Co531 N572 2.151 . S
Co531 N580 2.214 . S
Co532 O533 2.160 . S
Co532 O538 2.058 . S
Co532 O548 2.057 . S
Co532 O563 2.037 . S
Co532 N567 2.145 1_545 S
Co532 N588 2.257 . S
O533 Co531 2.143 . S
O533 Co532 2.160 . S
C534 O535 1.278 . S
C534 O542 1.224 . S
O535 C534 1.278 . S
C536 O537 1.245 . S
C536 O548 1.232 . S
O537 C536 1.245 . S
O538 Co532 2.058 . S
O538 C564 1.269 . S
O539 Co531 2.074 . S
O539 C564 1.257 . S
H540 C565 0.930 . S
H541 C571 0.930 . S
O542 Co531 2.093 . S
O542 C534 1.224 . S
H543 C575 0.929 . S
H544 C577 0.930 . S
H545 C578 0.930 . S
H546 C576 0.929 . S
H547 C579 0.928 . S
O548 Co532 2.057 . S
O548 C536 1.232 . S
H549 C568 0.929 1_545 S
H550 C569 0.929 . S
H551 C581 0.931 . S
H552 C573 0.929 . S
H553 C582 0.930 . S
H554 C574 0.931 . S
O555 Co531 2.097 . S
O555 C583 1.214 . S
H556 C584 0.929 . S
H557 C585 0.929 . S
H558 C586 0.940 . S
H559 C587 0.929 1_565 S
H560 C589 0.930 . S
H561 C566 0.930 . S
H562 C570 0.930 . S
O563 Co532 2.037 . S
O563 C583 1.234 . S
C564 O538 1.269 . S
C564 O539 1.257 . S
C565 H540 0.930 . S
C565 C568 1.388 . S
C565 C570 1.418 . S
C566 H561 0.930 . S
C566 C569 1.404 . S
C566 C570 1.353 . S
N567 Co532 2.145 1_565 S
N567 C568 1.397 . S
N567 C569 1.334 . S
C568 H549 0.929 1_565 S
C568 C565 1.388 . S
C568 N567 1.397 . S
C569 H550 0.929 . S
C569 C566 1.404 . S
C569 N567 1.334 . S
C570 H562 0.930 . S
C570 C565 1.418 . S
C570 C566 1.353 . S
C571 H541 0.930 . S
C571 N572 1.330 . S
C571 C573 1.446 . S
N572 Co531 2.151 . S
N572 C571 1.330 . S
N572 C576 1.418 . S
C573 H552 0.929 . S
C573 C571 1.446 . S
C573 C574 1.332 . S
C574 H554 0.931 . S
C574 C573 1.332 . S
C574 C575 1.267 . S
C575 H543 0.929 . S
C575 C574 1.267 . S
C575 C576 1.251 . S
C576 H546 0.929 . S
C576 N572 1.418 . S
C576 C575 1.251 . S
C577 H544 0.930 . S
C577 C579 1.406 . S
C577 C582 1.261 . S
C578 H545 0.930 . S
C578 N580 1.325 . S
C578 C581 1.357 . S
C579 H547 0.928 . S
C579 C577 1.406 . S
C579 N580 1.261 . S
N580 Co531 2.214 . S
N580 C578 1.325 . S
N580 C579 1.261 . S
C581 H551 0.931 . S
C581 C578 1.357 . S
C581 C582 1.312 . S
C582 H553 0.930 . S
C582 C577 1.261 . S
C582 C581 1.312 . S
C583 O555 1.214 . S
C583 O563 1.234 . S
C584 H556 0.929 . S
C584 C587 1.391 . S
C584 C589 1.391 . S
C585 H557 0.929 . S
C585 C586 1.372 1_545 S
C585 N588 1.391 . S
C586 H558 0.940 . S
C586 C585 1.372 1_565 S
C586 C587 1.400 1_565 S
C587 H559 0.929 1_545 S
C587 C584 1.391 . S
C587 C586 1.400 1_545 S
N588 Co532 2.257 . S
N588 C585 1.391 . S
N588 C589 1.388 . S
C589 H560 0.930 . S
C589 C584 1.391 . S
C589 N588 1.388 . S
Co590 O592 2.143 . S
Co590 O598 2.074 . S
Co590 O601 2.093 . S
Co590 O614 2.097 . S
Co590 N631 2.151 . S
Co590 N639 2.214 . S
Co591 O592 2.160 . S
Co591 O597 2.058 . S
Co591 O607 2.057 . S
Co591 O622 2.037 . S
Co591 N626 2.145 . S
Co591 N647 2.257 . S
O592 Co590 2.143 . S
O592 Co591 2.160 . S
C593 O594 1.278 . S
C593 O601 1.224 . S
O594 C593 1.278 . S
C595 O596 1.245 . S
C595 O607 1.232 . S
O596 C595 1.245 . S
O597 Co591 2.058 . S
O597 C623 1.269 . S
O598 Co590 2.074 . S
O598 C623 1.257 . S
H599 C624 0.930 . S
H600 C630 0.930 . S
O601 Co590 2.093 . S
O601 C593 1.224 . S
H602 C634 0.929 . S
H603 C636 0.930 . S
H604 C637 0.930 . S
H605 C635 0.929 . S
H606 C638 0.928 . S
O607 Co591 2.057 . S
O607 C595 1.232 . S
H608 C627 0.929 . S
H609 C628 0.929 . S
H610 C640 0.931 . S
H611 C632 0.929 . S
H612 C641 0.930 . S
H613 C633 0.931 . S
O614 Co590 2.097 . S
O614 C642 1.214 . S
H615 C643 0.929 . S
H616 C644 0.929 . S
H617 C645 0.930 . S
H618 C646 0.929 . S
H619 C648 0.930 . S
H620 C625 0.930 . S
H621 C629 0.930 . S
O622 Co591 2.037 . S
O622 C642 1.234 . S
C623 O597 1.269 . S
C623 O598 1.257 . S
C624 H599 0.930 . S
C624 C627 1.388 . S
C624 C629 1.418 . S
C625 H620 0.930 . S
C625 C628 1.404 . S
C625 C629 1.353 . S
N626 Co591 2.145 . S
N626 C627 1.397 . S
N626 C628 1.334 . S
C627 H608 0.929 . S
C627 C624 1.388 . S
C627 N626 1.397 . S
C628 H609 0.929 . S
C628 C625 1.404 . S
C628 N626 1.334 . S
C629 H621 0.930 . S
C629 C624 1.418 . S
C629 C625 1.353 . S
C630 H600 0.930 . S
C630 N631 1.330 . S
C630 C632 1.446 . S
N631 Co590 2.151 . S
N631 C630 1.330 . S
N631 C635 1.418 . S
C632 H611 0.929 . S
C632 C630 1.446 . S
C632 C633 1.332 . S
C633 H613 0.931 . S
C633 C632 1.332 . S
C633 C634 1.267 . S
C634 H602 0.929 . S
C634 C633 1.267 . S
C634 C635 1.251 . S
C635 H605 0.929 . S
C635 N631 1.418 . S
C635 C634 1.251 . S
C636 H603 0.930 . S
C636 C638 1.406 . S
C636 C641 1.261 . S
C637 H604 0.930 . S
C637 N639 1.325 . S
C637 C640 1.357 . S
C638 H606 0.928 . S
C638 C636 1.406 . S
C638 N639 1.261 . S
N639 Co590 2.214 . S
N639 C637 1.325 . S
N639 C638 1.261 . S
C640 H610 0.931 . S
C640 C637 1.357 . S
C640 C641 1.312 . S
C641 H612 0.930 . S
C641 C636 1.261 . S
C641 C640 1.312 . S
C642 O614 1.214 . S
C642 O622 1.234 . S
C643 H615 0.929 . S
C643 C646 1.391 . S
C643 C648 1.391 . S
C644 H616 0.929 . S
C644 C645 1.390 . S
C644 N647 1.391 . S
C645 H617 0.930 . S
C645 C644 1.390 . S
C645 C646 1.392 . S
C646 H618 0.929 . S
C646 C643 1.391 . S
C646 C645 1.392 . S
N647 Co591 2.257 . S
N647 C644 1.391 . S
N647 C648 1.388 . S
C648 H619 0.930 . S
C648 C643 1.391 . S
C648 N647 1.388 . S
Co649 O651 2.143 1_556 S
Co649 O657 2.074 . S
Co649 O660 2.093 1_556 S
Co649 O673 2.097 1_556 S
Co649 N690 2.151 . S
Co649 N698 2.214 . S
Co650 O651 2.160 1_556 S
Co650 O656 2.058 . S
Co650 O666 2.057 . S
Co650 O681 2.037 . S
Co650 N685 2.145 . S
Co650 N706 2.257 1_556 S
O651 Co649 2.143 1_554 S
O651 Co650 2.160 1_554 S
C652 O653 1.278 . S
C652 O660 1.224 . S
O653 C652 1.278 . S
C654 O655 1.245 . S
C654 O666 1.232 1_554 S
O655 C654 1.245 . S
O656 Co650 2.058 . S
O656 C682 1.269 . S
O657 Co649 2.074 . S
O657 C682 1.257 . S
H658 C683 0.930 . S
H659 C689 0.930 . S
O660 Co649 2.093 1_554 S
O660 C652 1.224 . S
H661 C693 0.929 . S
H662 C695 0.930 . S
H663 C696 0.930 . S
H664 C694 0.929 . S
H665 C697 0.928 1_554 S
O666 Co650 2.057 . S
O666 C654 1.232 1_556 S
H667 C686 0.929 . S
H668 C687 0.929 . S
H669 C699 0.931 . S
H670 C691 0.929 1_554 S
H671 C700 0.930 . S
H672 C692 0.931 . S
O673 Co649 2.097 1_554 S
O673 C701 1.216 . S
H674 C702 0.929 . S
H675 C703 0.929 . S
H676 C704 0.930 . S
H677 C705 0.929 . S
H678 C707 0.930 . S
H679 C684 0.930 . S
H680 C688 0.930 . S
O681 Co650 2.037 . S
O681 C701 1.232 1_556 S
C682 O656 1.269 . S
C682 O657 1.257 . S
C683 H658 0.930 . S
C683 C686 1.388 . S
C683 C688 1.418 . S
C684 H679 0.930 . S
C684 C687 1.404 . S
C684 C688 1.353 . S
N685 Co650 2.145 . S
N685 C686 1.397 . S
N685 C687 1.334 . S
C686 H667 0.929 . S
C686 C683 1.388 . S
C686 N685 1.397 . S
C687 H668 0.929 . S
C687 C684 1.404 . S
C687 N685 1.334 . S
C688 H680 0.930 . S
C688 C683 1.418 . S
C688 C684 1.353 . S
C689 H659 0.930 . S
C689 N690 1.330 1_554 S
C689 C691 1.446 1_654 S
N690 Co649 2.151 . S
N690 C689 1.330 1_556 S
N690 C694 1.418 1_655 S
C691 H670 0.929 1_556 S
C691 C689 1.446 1_456 S
C691 C692 1.332 . S
C692 H672 0.931 . S
C692 C691 1.332 . S
C692 C693 1.267 . S
C693 H661 0.929 . S
C693 C692 1.267 . S
C693 C694 1.251 . S
C694 H664 0.929 . S
C694 N690 1.418 1_455 S
C694 C693 1.251 . S
C695 H662 0.930 . S
C695 C697 1.406 . S
C695 C700 1.261 . S
C696 H663 0.930 . S
C696 N698 1.325 . S
C696 C699 1.357 1_655 S
C697 H665 0.928 1_556 S
C697 C695 1.406 . S
C697 N698 1.261 1_455 S
N698 Co649 2.214 . S
N698 C696 1.325 . S
N698 C697 1.261 1_655 S
C699 H669 0.931 . S
C699 C696 1.357 1_455 S
C699 C700 1.312 . S
C700 H671 0.930 . S
C700 C695 1.261 . S
C700 C699 1.312 . S
C701 O673 1.216 . S
C701 O681 1.232 1_554 S
C702 H674 0.929 . S
C702 C705 1.391 . S
C702 C707 1.391 . S
C703 H675 0.929 . S
C703 C704 1.390 . S
C703 N706 1.391 . S
C704 H676 0.930 . S
C704 C703 1.390 . S
C704 C705 1.392 . S
C705 H677 0.929 . S
C705 C702 1.391 . S
C705 C704 1.392 . S
N706 Co650 2.257 1_554 S
N706 C703 1.391 . S
N706 C707 1.388 . S
C707 H678 0.930 . S
C707 C702 1.391 . S
C707 N706 1.388 . S
H708 C720 0.930 . S
H709 C722 0.930 . S
H710 C723 0.930 . S
H711 C727 0.959 . S
H712 C727 0.959 . S
H713 C727 0.961 . S
H714 C728 0.960 . S
H715 C728 0.961 . S
H716 C728 0.959 . S
H717 C731 0.929 . S
H718 C732 0.931 . S
H719 C734 0.930 . S
C720 H708 0.930 . S
C720 C721 1.399 . S
C720 C725 1.399 . S
C721 C720 1.399 . S
C721 C722 1.376 . S
C722 H709 0.930 . S
C722 C721 1.376 . S
C722 C723 1.388 . S
C723 H710 0.930 . S
C723 C722 1.388 . S
C723 C724 1.390 . S
C724 C723 1.390 . S
C724 C725 1.394 . S
C724 C730 1.465 . S
C725 C720 1.399 . S
C725 C724 1.394 . S
C725 C726 1.516 . S
C726 C725 1.516 . S
C726 C727 1.502 . S
C726 C728 1.561 . S
C726 C729 1.526 . S
C727 H711 0.959 . S
C727 H712 0.959 . S
C727 H713 0.961 . S
C727 C726 1.502 . S
C728 H714 0.960 . S
C728 H715 0.961 . S
C728 H716 0.959 . S
C728 C726 1.561 . S
C729 C726 1.526 . S
C729 C730 1.396 . S
C729 C734 1.390 . S
C730 C724 1.465 . S
C730 C729 1.396 . S
C730 C731 1.399 . S
C731 H717 0.929 . S
C731 C730 1.399 . S
C731 C732 1.385 . S
C732 H718 0.931 . S
C732 C731 1.385 . S
C732 C733 1.389 . S
C733 C732 1.389 . S
C733 C734 1.387 . S
C734 H719 0.930 . S
C734 C729 1.390 . S
C734 C733 1.387 . S
H735 C747 0.930 . S
H736 C749 0.930 . S
H737 C750 0.930 . S
H738 C754 0.959 . S
H739 C754 0.959 . S
H740 C754 0.961 . S
H741 C755 0.960 . S
H742 C755 0.961 . S
H743 C755 0.959 . S
H744 C758 0.929 . S
H745 C759 0.931 . S
H746 C761 0.930 . S
C747 H735 0.930 . S
C747 C748 1.399 . S
C747 C752 1.399 . S
C748 C747 1.399 . S
C748 C749 1.376 . S
C749 H736 0.930 . S
C749 C748 1.376 . S
C749 C750 1.388 . S
C750 H737 0.930 . S
C750 C749 1.388 . S
C750 C751 1.390 . S
C751 C750 1.390 . S
C751 C752 1.394 . S
C751 C757 1.465 . S
C752 C747 1.399 . S
C752 C751 1.394 . S
C752 C753 1.516 . S
C753 C752 1.516 . S
C753 C754 1.502 . S
C753 C755 1.561 . S
C753 C756 1.526 . S
C754 H738 0.959 . S
C754 H739 0.959 . S
C754 H740 0.961 . S
C754 C753 1.502 . S
C755 H741 0.960 . S
C755 H742 0.961 . S
C755 H743 0.959 . S
C755 C753 1.561 . S
C756 C753 1.526 . S
C756 C757 1.396 . S
C756 C761 1.390 . S
C757 C751 1.465 . S
C757 C756 1.396 . S
C757 C758 1.399 . S
C758 H744 0.929 . S
C758 C757 1.399 . S
C758 C759 1.385 . S
C759 H745 0.931 . S
C759 C758 1.385 . S
C759 C760 1.389 . S
C760 C759 1.389 . S
C760 C761 1.387 . S
C761 H746 0.930 . S
C761 C756 1.390 . S
C761 C760 1.387 . S
H762 C774 0.932 . S
H763 C776 0.930 . S
H764 C777 0.930 . S
H765 C781 0.959 . S
H766 C781 0.959 . S
H767 C781 0.961 . S
H768 C782 0.960 . S
H769 C782 0.961 . S
H770 C782 0.959 . S
H771 C785 0.929 . S
H772 C786 0.931 . S
H773 C788 0.930 . S
C774 H762 0.932 . S
C774 C775 1.397 1_554 S
C774 C779 1.399 1_554 S
C775 C774 1.397 1_556 S
C775 C776 1.376 . S
C776 H763 0.930 . S
C776 C775 1.376 . S
C776 C777 1.388 . S
C777 H764 0.930 . S
C777 C776 1.388 . S
C777 C778 1.390 . S
C778 C777 1.390 . S
C778 C779 1.394 . S
C778 C784 1.465 . S
C779 C774 1.399 1_556 S
C779 C778 1.394 . S
C779 C780 1.516 1_556 S
C780 C779 1.516 1_554 S
C780 C781 1.502 . S
C780 C782 1.561 1_554 S
C780 C783 1.526 . S
C781 H765 0.959 . S
C781 H766 0.959 . S
C781 H767 0.961 . S
C781 C780 1.502 . S
C782 H768 0.960 . S
C782 H769 0.961 . S
C782 H770 0.959 . S
C782 C780 1.561 1_556 S
C783 C780 1.526 . S
C783 C784 1.396 1_554 S
C783 C788 1.390 . S
C784 C778 1.465 . S
C784 C783 1.396 1_556 S
C784 C785 1.399 . S
C785 H771 0.929 . S
C785 C784 1.399 . S
C785 C786 1.385 . S
C786 H772 0.931 . S
C786 C785 1.385 . S
C786 C787 1.389 1_556 S
C787 C786 1.389 1_554 S
C787 C788 1.387 . S
C788 H773 0.930 . S
C788 C783 1.390 . S
C788 C787 1.387 . S
H789 C801 0.930 . S
H790 C803 0.930 . S
H791 C804 0.930 . S
H792 C808 0.959 . S
H793 C808 0.959 . S
H794 C808 0.961 . S
H795 C809 0.960 . S
H796 C809 0.961 . S
H797 C809 0.959 . S
H798 C812 0.929 . S
H799 C813 0.931 . S
H800 C815 0.930 . S
C801 H789 0.930 . S
C801 C802 1.399 . S
C801 C806 1.399 . S
C802 C801 1.399 . S
C802 C803 1.376 . S
C803 H790 0.930 . S
C803 C802 1.376 . S
C803 C804 1.388 . S
C804 H791 0.930 . S
C804 C803 1.388 . S
C804 C805 1.390 . S
C805 C804 1.390 . S
C805 C806 1.394 . S
C805 C811 1.465 . S
C806 C801 1.399 . S
C806 C805 1.394 . S
C806 C807 1.516 . S
C807 C806 1.516 . S
C807 C808 1.502 . S
C807 C809 1.561 . S
C807 C810 1.526 . S
C808 H792 0.959 . S
C808 H793 0.959 . S
C808 H794 0.961 . S
C808 C807 1.502 . S
C809 H795 0.960 . S
C809 H796 0.961 . S
C809 H797 0.959 . S
C809 C807 1.561 . S
C810 C807 1.526 . S
C810 C811 1.396 . S
C810 C815 1.390 . S
C811 C805 1.465 . S
C811 C810 1.396 . S
C811 C812 1.399 . S
C812 H798 0.929 . S
C812 C811 1.399 . S
C812 C813 1.385 . S
C813 H799 0.931 . S
C813 C812 1.385 . S
C813 C814 1.389 . S
C814 C813 1.389 . S
C814 C815 1.387 . S
C815 H800 0.930 . S
C815 C810 1.390 . S
C815 C814 1.387 . S
H816 C828 0.930 . S
H817 C830 0.930 . S
H818 C831 0.930 . S
H819 C835 0.959 . S
H820 C835 0.959 . S
H821 C835 0.961 . S
H822 C836 0.960 . S
H823 C836 0.961 . S
H824 C836 0.959 . S
H825 C839 0.929 . S
H826 C840 0.931 . S
H827 C842 0.930 . S
C828 H816 0.930 . S
C828 C829 1.399 . S
C828 C833 1.399 . S
C829 C828 1.399 . S
C829 C830 1.376 . S
C830 H817 0.930 . S
C830 C829 1.376 . S
C830 C831 1.388 . S
C831 H818 0.930 . S
C831 C830 1.388 . S
C831 C832 1.390 . S
C832 C831 1.390 . S
C832 C833 1.394 . S
C832 C838 1.465 . S
C833 C828 1.399 . S
C833 C832 1.394 . S
C833 C834 1.516 . S
C834 C833 1.516 . S
C834 C835 1.502 . S
C834 C836 1.561 . S
C834 C837 1.526 . S
C835 H819 0.959 . S
C835 H820 0.959 . S
C835 H821 0.961 . S
C835 C834 1.502 . S
C836 H822 0.960 . S
C836 H823 0.961 . S
C836 H824 0.959 . S
C836 C834 1.561 . S
C837 C834 1.526 . S
C837 C838 1.396 . S
C837 C842 1.390 . S
C838 C832 1.465 . S
C838 C837 1.396 . S
C838 C839 1.399 . S
C839 H825 0.929 . S
C839 C838 1.399 . S
C839 C840 1.385 . S
C840 H826 0.931 . S
C840 C839 1.385 . S
C840 C841 1.389 . S
C841 C840 1.389 . S
C841 C842 1.387 . S
C842 H827 0.930 . S
C842 C837 1.390 . S
C842 C841 1.387 . S
H843 C855 0.930 . S
H844 C857 0.930 . S
H845 C858 0.930 . S
H846 C862 0.959 . S
H847 C862 0.959 . S
H848 C862 0.961 . S
H849 C863 0.960 . S
H850 C863 0.961 . S
H851 C863 0.959 1_556 S
H852 C866 0.929 . S
H853 C867 0.931 . S
H854 C869 0.930 . S
C855 H843 0.930 . S
C855 C856 1.401 . S
C855 C860 1.399 . S
C856 C855 1.401 . S
C856 C857 1.373 1_554 S
C857 H844 0.930 . S
C857 C856 1.373 1_556 S
C857 C858 1.388 . S
C858 H845 0.930 . S
C858 C857 1.388 . S
C858 C859 1.390 . S
C859 C858 1.390 . S
C859 C860 1.394 1_556 S
C859 C865 1.465 . S
C860 C855 1.399 . S
C860 C859 1.394 1_554 S
C860 C861 1.516 . S
C861 C860 1.516 . S
C861 C862 1.502 . S
C861 C863 1.561 . S
C861 C864 1.526 . S
C862 H846 0.959 . S
C862 H847 0.959 . S
C862 H848 0.961 . S
C862 C861 1.502 . S
C863 H849 0.960 . S
C863 H850 0.961 . S
C863 H851 0.959 1_554 S
C863 C861 1.561 . S
C864 C861 1.526 . S
C864 C865 1.396 1_554 S
C864 C869 1.390 . S
C865 C859 1.465 . S
C865 C864 1.396 1_556 S
C865 C866 1.399 . S
C866 H852 0.929 . S
C866 C865 1.399 . S
C866 C867 1.385 . S
C867 H853 0.931 . S
C867 C866 1.385 . S
C867 C868 1.389 . S
C868 C867 1.389 . S
C868 C869 1.387 1_556 S
C869 H854 0.930 . S
C869 C864 1.390 . S
C869 C868 1.387 1_554 S
H870 C882 0.930 . S
H871 C884 0.930 . S
H872 C885 0.930 . S
H873 C889 0.959 . S
H874 C889 0.959 . S
H875 C889 0.961 . S
H876 C890 0.960 . S
H877 C890 0.961 . S
H878 C890 0.959 . S
H879 C893 0.929 . S
H880 C894 0.931 . S
H881 C896 0.930 . S
C882 H870 0.930 . S
C882 C883 1.399 . S
C882 C887 1.399 . S
C883 C882 1.399 . S
C883 C884 1.376 . S
C884 H871 0.930 . S
C884 C883 1.376 . S
C884 C885 1.388 . S
C885 H872 0.930 . S
C885 C884 1.388 . S
C885 C886 1.390 . S
C886 C885 1.390 . S
C886 C887 1.394 . S
C886 C892 1.465 . S
C887 C882 1.399 . S
C887 C886 1.394 . S
C887 C888 1.516 . S
C888 C887 1.516 . S
C888 C889 1.502 . S
C888 C890 1.561 . S
C888 C891 1.526 . S
C889 H873 0.959 . S
C889 H874 0.959 . S
C889 H875 0.961 . S
C889 C888 1.502 . S
C890 H876 0.960 . S
C890 H877 0.961 . S
C890 H878 0.959 . S
C890 C888 1.561 . S
C891 C888 1.526 . S
C891 C892 1.396 . S
C891 C896 1.390 . S
C892 C886 1.465 . S
C892 C891 1.396 . S
C892 C893 1.399 . S
C893 H879 0.929 . S
C893 C892 1.399 . S
C893 C894 1.385 . S
C894 H880 0.931 . S
C894 C893 1.385 . S
C894 C895 1.389 . S
C895 C894 1.389 . S
C895 C896 1.387 . S
C896 H881 0.930 . S
C896 C891 1.390 . S
C896 C895 1.387 . S
H897 C909 0.930 . S
H898 C911 0.930 . S
H899 C912 0.930 . S
H900 C916 0.959 . S
H901 C916 0.959 . S
H902 C916 0.961 1_655 S
H903 C917 0.960 . S
H904 C917 0.961 1_455 S
H905 C917 0.959 . S
H906 C920 0.929 . S
H907 C921 0.931 . S
H908 C923 0.930 . S
C909 H897 0.930 . S
C909 C910 1.399 . S
C909 C914 1.399 . S
C910 C909 1.399 . S
C910 C911 1.376 . S
C911 H898 0.930 . S
C911 C910 1.376 . S
C911 C912 1.388 . S
C912 H899 0.930 . S
C912 C911 1.388 . S
C912 C913 1.390 . S
C913 C912 1.390 . S
C913 C914 1.394 . S
C913 C919 1.465 1_655 S
C914 C909 1.399 . S
C914 C913 1.394 . S
C914 C915 1.516 1_655 S
C915 C914 1.516 1_455 S
C915 C916 1.502 . S
C915 C917 1.561 1_455 S
C915 C918 1.526 . S
C916 H900 0.959 . S
C916 H901 0.959 . S
C916 H902 0.961 1_455 S
C916 C915 1.502 . S
C917 H903 0.960 . S
C917 H904 0.961 1_655 S
C917 H905 0.959 . S
C917 C915 1.561 1_655 S
C918 C915 1.526 . S
C918 C919 1.396 . S
C918 C923 1.390 . S
C919 C913 1.465 1_455 S
C919 C918 1.396 . S
C919 C920 1.399 . S
C920 H906 0.929 . S
C920 C919 1.399 . S
C920 C921 1.385 . S
C921 H907 0.931 . S
C921 C920 1.385 . S
C921 C922 1.389 . S
C922 C921 1.389 . S
C922 C923 1.387 . S
C923 H908 0.930 . S
C923 C918 1.390 . S
C923 C922 1.387 . S
H924 C936 0.930 . S
H925 C938 0.930 . S
H926 C939 0.930 . S
H927 C943 0.959 . S
H928 C943 0.959 . S
H929 C943 0.961 1_545 S
H930 C944 0.960 1_545 S
H931 C944 0.961 . S
H932 C944 0.959 . S
H933 C947 0.929 . S
H934 C948 0.931 . S
H935 C950 0.930 . S
C936 H924 0.930 . S
C936 C937 1.399 1_556 S
C936 C941 1.399 . S
C937 C936 1.399 1_554 S
C937 C938 1.376 . S
C938 H925 0.930 . S
C938 C937 1.376 . S
C938 C939 1.388 . S
C939 H926 0.930 . S
C939 C938 1.388 . S
C939 C940 1.390 . S
C940 C939 1.390 . S
C940 C941 1.394 1_554 S
C940 C946 1.465 1_545 S
C941 C936 1.399 . S
C941 C940 1.394 1_556 S
C941 C942 1.505 1_545 S
C942 C941 1.505 1_565 S
C942 C943 1.494 . S
C942 C944 1.568 . S
C942 C945 1.539 . S
C943 H927 0.959 . S
C943 H928 0.959 . S
C943 H929 0.961 1_565 S
C943 C942 1.494 . S
C944 H930 0.960 1_565 S
C944 H931 0.961 . S
C944 H932 0.959 . S
C944 C942 1.568 . S
C945 C942 1.539 . S
C945 C946 1.396 1_556 S
C945 C950 1.390 . S
C946 C940 1.465 1_565 S
C946 C945 1.396 1_554 S
C946 C947 1.399 . S
C947 H933 0.929 . S
C947 C946 1.399 . S
C947 C948 1.385 . S
C948 H934 0.931 . S
C948 C947 1.385 . S
C948 C949 1.389 . S
C949 C948 1.389 . S
C949 C950 1.387 1_554 S
C950 H935 0.930 . S
C950 C945 1.390 . S
C950 C949 1.387 1_556 S
H951 C963 0.930 . S
H952 C965 0.930 . S
H953 C966 0.930 . S
H954 C970 0.959 . S
H955 C970 0.959 . S
H956 C970 0.961 . S
H957 C971 0.960 . S
H958 C971 0.961 . S
H959 C971 0.959 . S
H960 C974 0.929 . S
H961 C975 0.931 . S
H962 C977 0.930 . S
C963 H951 0.930 . S
C963 C964 1.399 . S
C963 C968 1.399 . S
C964 C963 1.399 . S
C964 C965 1.376 . S
C965 H952 0.930 . S
C965 C964 1.376 . S
C965 C966 1.388 . S
C966 H953 0.930 . S
C966 C965 1.388 . S
C966 C967 1.390 . S
C967 C966 1.390 . S
C967 C968 1.394 . S
C967 C973 1.465 . S
C968 C963 1.399 . S
C968 C967 1.394 . S
C968 C969 1.516 . S
C969 C968 1.516 . S
C969 C970 1.502 . S
C969 C971 1.561 . S
C969 C972 1.526 . S
C970 H954 0.959 . S
C970 H955 0.959 . S
C970 H956 0.961 . S
C970 C969 1.502 . S
C971 H957 0.960 . S
C971 H958 0.961 . S
C971 H959 0.959 . S
C971 C969 1.561 . S
C972 C969 1.526 . S
C972 C973 1.396 . S
C972 C977 1.390 . S
C973 C967 1.465 . S
C973 C972 1.396 . S
C973 C974 1.399 . S
C974 H960 0.929 . S
C974 C973 1.399 . S
C974 C975 1.385 . S
C975 H961 0.931 . S
C975 C974 1.385 . S
C975 C976 1.389 . S
C976 C975 1.389 . S
C976 C977 1.387 . S
C977 H962 0.930 . S
C977 C972 1.390 . S
C977 C976 1.387 . S
H978 C990 0.930 . S
H979 C992 0.930 . S
H980 C993 0.930 . S
H981 C997 0.959 1_655 S
H982 C997 0.959 1_655 S
H983 C997 0.961 . S
H984 C998 0.960 . S
H985 C998 0.961 1_655 S
H986 C998 0.959 . S
H987 C1001 0.929 . S
H988 C1002 0.931 . S
H989 C1004 0.930 . S
C990 H978 0.930 . S
C990 C991 1.399 . S
C990 C995 1.399 . S
C991 C990 1.399 . S
C991 C992 1.376 . S
C992 H979 0.930 . S
C992 C991 1.376 . S
C992 C993 1.388 . S
C993 H980 0.930 . S
C993 C992 1.388 . S
C993 C994 1.390 . S
C994 C993 1.390 . S
C994 C995 1.394 . S
C994 C1000 1.465 1_455 S
C995 C990 1.399 . S
C995 C994 1.394 . S
C995 C996 1.516 . S
C996 C995 1.516 . S
C996 C997 1.502 . S
C996 C998 1.561 . S
C996 C999 1.526 1_455 S
C997 H981 0.959 1_455 S
C997 H982 0.959 1_455 S
C997 H983 0.961 . S
C997 C996 1.502 . S
C998 H984 0.960 . S
C998 H985 0.961 1_455 S
C998 H986 0.959 . S
C998 C996 1.561 . S
C999 C996 1.526 1_655 S
C999 C1000 1.396 . S
C999 C1004 1.390 . S
C1000 C994 1.465 1_655 S
C1000 C999 1.396 . S
C1000 C1001 1.399 . S
C1001 H987 0.929 . S
C1001 C1000 1.399 . S
C1001 C1002 1.385 . S
C1002 H988 0.931 . S
C1002 C1001 1.385 . S
C1002 C1003 1.389 . S
C1003 C1002 1.389 . S
C1003 C1004 1.387 . S
C1004 H989 0.930 . S
C1004 C999 1.390 . S
C1004 C1003 1.387 . S
H1005 C1017 0.930 . S
H1006 C1019 0.930 . S
H1007 C1020 0.930 . S
H1008 C1024 0.957 . S
H1009 C1024 0.965 . S
H1010 C1024 0.953 1_545 S
H1011 C1025 0.971 . S
H1012 C1025 0.953 1_565 S
H1013 C1025 0.951 1_565 S
H1014 C1028 0.929 . S
H1015 C1029 0.931 . S
H1016 C1031 0.930 . S
C1017 H1005 0.930 . S
C1017 C1018 1.399 1_556 S
C1017 C1022 1.399 . S
C1018 C1017 1.399 1_554 S
C1018 C1019 1.376 . S
C1019 H1006 0.930 . S
C1019 C1018 1.376 . S
C1019 C1020 1.388 . S
C1020 H1007 0.930 . S
C1020 C1019 1.388 . S
C1020 C1021 1.390 . S
C1021 C1020 1.390 . S
C1021 C1022 1.394 1_554 S
C1021 C1027 1.465 1_545 S
C1022 C1017 1.399 . S
C1022 C1021 1.394 1_556 S
C1022 C1023 1.520 . S
C1023 C1022 1.520 . S
C1023 C1024 1.510 1_545 S
C1023 C1025 1.564 . S
C1023 C1026 1.520 1_545 S
C1024 H1008 0.957 . S
C1024 H1009 0.965 . S
C1024 H1010 0.953 1_565 S
C1024 C1023 1.510 1_565 S
C1025 H1011 0.971 . S
C1025 H1012 0.953 1_545 S
C1025 H1013 0.951 1_545 S
C1025 C1023 1.564 . S
C1026 C1023 1.520 1_565 S
C1026 C1027 1.396 1_556 S
C1026 C1031 1.390 . S
C1027 C1021 1.465 1_565 S
C1027 C1026 1.396 1_554 S
C1027 C1028 1.399 . S
C1028 H1014 0.929 . S
C1028 C1027 1.399 . S
C1028 C1029 1.385 . S
C1029 H1015 0.931 . S
C1029 C1028 1.385 . S
C1029 C1030 1.389 . S
C1030 C1029 1.389 . S
C1030 C1031 1.387 1_554 S
C1031 H1016 0.930 . S
C1031 C1026 1.390 . S
C1031 C1030 1.387 1_556 S
H1032 C1044 0.930 1_455 S
H1033 C1046 0.930 . S
H1034 C1047 0.930 . S
H1035 C1051 0.959 . S
H1036 C1051 0.959 . S
H1037 C1051 0.961 . S
H1038 C1052 0.960 . S
H1039 C1052 0.961 . S
H1040 C1052 0.959 1_655 S
H1041 C1055 0.929 . S
H1042 C1056 0.931 . S
H1043 C1058 0.930 . S
C1044 H1032 0.930 1_655 S
C1044 C1045 1.399 . S
C1044 C1049 1.397 1_655 S
C1045 C1044 1.399 . S
C1045 C1046 1.376 . S
C1046 H1033 0.930 . S
C1046 C1045 1.376 . S
C1046 C1047 1.388 . S
C1047 H1034 0.930 . S
C1047 C1046 1.388 . S
C1047 C1048 1.390 . S
C1048 C1047 1.390 . S
C1048 C1049 1.387 1_655 S
C1048 C1054 1.465 . S
C1049 C1044 1.397 1_455 S
C1049 C1048 1.387 1_455 S
C1049 C1050 1.525 . S
C1050 C1049 1.525 . S
C1050 C1051 1.502 . S
C1050 C1052 1.561 . S
C1050 C1053 1.526 . S
C1051 H1035 0.959 . S
C1051 H1036 0.959 . S
C1051 H1037 0.961 . S
C1051 C1050 1.502 . S
C1052 H1038 0.960 . S
C1052 H1039 0.961 . S
C1052 H1040 0.959 1_455 S
C1052 C1050 1.561 . S
C1053 C1050 1.526 . S
C1053 C1054 1.396 1_455 S
C1053 C1058 1.390 . S
C1054 C1048 1.465 . S
C1054 C1053 1.396 1_655 S
C1054 C1055 1.399 . S
C1055 H1041 0.929 . S
C1055 C1054 1.399 . S
C1055 C1056 1.385 . S
C1056 H1042 0.931 . S
C1056 C1055 1.385 . S
C1056 C1057 1.389 1_655 S
C1057 C1056 1.389 1_455 S
C1057 C1058 1.387 . S
C1058 H1043 0.930 . S
C1058 C1053 1.390 . S
C1058 C1057 1.387 . S
H1059 C1071 0.930 . S
H1060 C1073 0.930 . S
H1061 C1074 0.930 . S
H1062 C1078 0.959 . S
H1063 C1078 0.959 . S
H1064 C1078 0.961 . S
H1065 C1079 0.960 . S
H1066 C1079 0.961 . S
H1067 C1079 0.959 . S
H1068 C1082 0.929 . S
H1069 C1083 0.931 . S
H1070 C1085 0.930 . S
C1071 H1059 0.930 . S
C1071 C1072 1.399 1_565 S
C1071 C1076 1.399 . S
C1072 C1071 1.399 1_545 S
C1072 C1073 1.376 . S
C1073 H1060 0.930 . S
C1073 C1072 1.376 . S
C1073 C1074 1.388 . S
C1074 H1061 0.930 . S
C1074 C1073 1.388 . S
C1074 C1075 1.390 . S
C1075 C1074 1.390 . S
C1075 C1076 1.394 1_545 S
C1075 C1081 1.465 . S
C1076 C1071 1.399 . S
C1076 C1075 1.394 1_565 S
C1076 C1077 1.516 . S
C1077 C1076 1.516 . S
C1077 C1078 1.502 . S
C1077 C1079 1.561 . S
C1077 C1080 1.526 . S
C1078 H1062 0.959 . S
C1078 H1063 0.959 . S
C1078 H1064 0.961 . S
C1078 C1077 1.502 . S
C1079 H1065 0.960 . S
C1079 H1066 0.961 . S
C1079 H1067 0.959 . S
C1079 C1077 1.561 . S
C1080 C1077 1.526 . S
C1080 C1081 1.396 1_565 S
C1080 C1085 1.390 . S
C1081 C1075 1.465 . S
C1081 C1080 1.396 1_545 S
C1081 C1082 1.399 . S
C1082 H1068 0.929 . S
C1082 C1081 1.399 . S
C1082 C1083 1.385 . S
C1083 H1069 0.931 . S
C1083 C1082 1.385 . S
C1083 C1084 1.389 1_545 S
C1084 C1083 1.389 1_565 S
C1084 C1085 1.387 . S
C1085 H1070 0.930 . S
C1085 C1080 1.390 . S
C1085 C1084 1.387 . S
H1086 C1098 0.930 . S
H1087 C1100 0.930 . S
H1088 C1101 0.930 . S
H1089 C1105 0.959 . S
H1090 C1105 0.959 . S
H1091 C1105 0.961 . S
H1092 C1106 0.960 . S
H1093 C1106 0.961 . S
H1094 C1106 0.959 . S
H1095 C1109 0.929 . S
H1096 C1110 0.931 . S
H1097 C1112 0.930 . S
C1098 H1086 0.930 . S
C1098 C1099 1.399 . S
C1098 C1103 1.399 . S
C1099 C1098 1.399 . S
C1099 C1100 1.376 . S
C1100 H1087 0.930 . S
C1100 C1099 1.376 . S
C1100 C1101 1.388 . S
C1101 H1088 0.930 . S
C1101 C1100 1.388 . S
C1101 C1102 1.390 . S
C1102 C1101 1.390 . S
C1102 C1103 1.394 . S
C1102 C1108 1.465 . S
C1103 C1098 1.399 . S
C1103 C1102 1.394 . S
C1103 C1104 1.516 . S
C1104 C1103 1.516 . S
C1104 C1105 1.502 . S
C1104 C1106 1.561 . S
C1104 C1107 1.526 . S
C1105 H1089 0.959 . S
C1105 H1090 0.959 . S
C1105 H1091 0.961 . S
C1105 C1104 1.502 . S
C1106 H1092 0.960 . S
C1106 H1093 0.961 . S
C1106 H1094 0.959 . S
C1106 C1104 1.561 . S
C1107 C1104 1.526 . S
C1107 C1108 1.396 . S
C1107 C1112 1.390 . S
C1108 C1102 1.465 . S
C1108 C1107 1.396 . S
C1108 C1109 1.399 . S
C1109 H1095 0.929 . S
C1109 C1108 1.399 . S
C1109 C1110 1.385 . S
C1110 H1096 0.931 . S
C1110 C1109 1.385 . S
C1110 C1111 1.389 . S
C1111 C1110 1.389 . S
C1111 C1112 1.387 . S
C1112 H1097 0.930 . S
C1112 C1107 1.390 . S
C1112 C1111 1.387 . S
H1113 C1125 0.924 1_655 S
H1114 C1127 0.930 . S
H1115 C1128 0.930 . S
H1116 C1132 0.959 . S
H1117 C1132 0.959 . S
H1118 C1132 0.961 . S
H1119 C1133 0.960 . S
H1120 C1133 0.961 . S
H1121 C1133 0.959 1_455 S
H1122 C1136 0.929 . S
H1123 C1137 0.931 . S
H1124 C1139 0.930 . S
C1125 H1113 0.924 1_455 S
C1125 C1126 1.407 . S
C1125 C1130 1.398 1_455 S
C1126 C1125 1.407 . S
C1126 C1127 1.376 . S
C1127 H1114 0.930 . S
C1127 C1126 1.376 . S
C1127 C1128 1.388 . S
C1128 H1115 0.930 . S
C1128 C1127 1.388 . S
C1128 C1129 1.390 . S
C1129 C1128 1.390 . S
C1129 C1130 1.394 1_455 S
C1129 C1135 1.465 . S
C1130 C1125 1.398 1_655 S
C1130 C1129 1.394 1_655 S
C1130 C1131 1.516 . S
C1131 C1130 1.516 . S
C1131 C1132 1.502 . S
C1131 C1133 1.561 . S
C1131 C1134 1.526 . S
C1132 H1116 0.959 . S
C1132 H1117 0.959 . S
C1132 H1118 0.961 . S
C1132 C1131 1.502 . S
C1133 H1119 0.960 . S
C1133 H1120 0.961 . S
C1133 H1121 0.959 1_655 S
C1133 C1131 1.561 . S
C1134 C1131 1.526 . S
C1134 C1135 1.396 1_655 S
C1134 C1139 1.390 . S
C1135 C1129 1.465 . S
C1135 C1134 1.396 1_455 S
C1135 C1136 1.399 . S
C1136 H1122 0.929 . S
C1136 C1135 1.399 . S
C1136 C1137 1.385 . S
C1137 H1123 0.931 . S
C1137 C1136 1.385 . S
C1137 C1138 1.389 1_455 S
C1138 C1137 1.389 1_655 S
C1138 C1139 1.387 . S
C1139 H1124 0.930 . S
C1139 C1134 1.390 . S
C1139 C1138 1.387 . S
H1140 C1152 0.930 . S
H1141 C1154 0.930 . S
H1142 C1155 0.930 . S
H1143 C1159 0.959 . S
H1144 C1159 0.959 . S
H1145 C1159 0.961 . S
H1146 C1160 0.960 . S
H1147 C1160 0.961 . S
H1148 C1160 0.959 . S
H1149 C1163 0.929 . S
H1150 C1164 0.931 . S
H1151 C1166 0.930 . S
C1152 H1140 0.930 . S
C1152 C1153 1.399 1_565 S
C1152 C1157 1.399 . S
C1153 C1152 1.399 1_545 S
C1153 C1154 1.376 . S
C1154 H1141 0.930 . S
C1154 C1153 1.376 . S
C1154 C1155 1.388 . S
C1155 H1142 0.930 . S
C1155 C1154 1.388 . S
C1155 C1156 1.390 . S
C1156 C1155 1.390 . S
C1156 C1157 1.394 1_545 S
C1156 C1162 1.465 . S
C1157 C1152 1.399 . S
C1157 C1156 1.394 1_565 S
C1157 C1158 1.516 . S
C1158 C1157 1.516 . S
C1158 C1159 1.502 . S
C1158 C1160 1.561 . S
C1158 C1161 1.526 . S
C1159 H1143 0.959 . S
C1159 H1144 0.959 . S
C1159 H1145 0.961 . S
C1159 C1158 1.502 . S
C1160 H1146 0.960 . S
C1160 H1147 0.961 . S
C1160 H1148 0.959 . S
C1160 C1158 1.561 . S
C1161 C1158 1.526 . S
C1161 C1162 1.396 1_565 S
C1161 C1166 1.390 . S
C1162 C1156 1.465 . S
C1162 C1161 1.396 1_545 S
C1162 C1163 1.399 . S
C1163 H1149 0.929 . S
C1163 C1162 1.399 . S
C1163 C1164 1.385 . S
C1164 H1150 0.931 . S
C1164 C1163 1.385 . S
C1164 C1165 1.389 1_545 S
C1165 C1164 1.389 1_565 S
C1165 C1166 1.387 . S
C1166 H1151 0.930 . S
C1166 C1161 1.390 . S
C1166 C1165 1.387 . S
H1167 C1179 0.930 . S
H1168 C1181 0.930 . S
H1169 C1182 0.930 . S
H1170 C1186 0.959 . S
H1171 C1186 0.959 . S
H1172 C1186 0.961 . S
H1173 C1187 0.960 . S
H1174 C1187 0.961 . S
H1175 C1187 0.959 . S
H1176 C1190 0.929 . S
H1177 C1191 0.931 . S
H1178 C1193 0.930 . S
C1179 H1167 0.930 . S
C1179 C1180 1.399 . S
C1179 C1184 1.399 . S
C1180 C1179 1.399 . S
C1180 C1181 1.376 . S
C1181 H1168 0.930 . S
C1181 C1180 1.376 . S
C1181 C1182 1.388 . S
C1182 H1169 0.930 . S
C1182 C1181 1.388 . S
C1182 C1183 1.390 . S
C1183 C1182 1.390 . S
C1183 C1184 1.394 . S
C1183 C1189 1.465 . S
C1184 C1179 1.399 . S
C1184 C1183 1.394 . S
C1184 C1185 1.516 . S
C1185 C1184 1.516 . S
C1185 C1186 1.502 . S
C1185 C1187 1.561 . S
C1185 C1188 1.526 . S
C1186 H1170 0.959 . S
C1186 H1171 0.959 . S
C1186 H1172 0.961 . S
C1186 C1185 1.502 . S
C1187 H1173 0.960 . S
C1187 H1174 0.961 . S
C1187 H1175 0.959 . S
C1187 C1185 1.561 . S
C1188 C1185 1.526 . S
C1188 C1189 1.396 . S
C1188 C1193 1.390 . S
C1189 C1183 1.465 . S
C1189 C1188 1.396 . S
C1189 C1190 1.399 . S
C1190 H1176 0.929 . S
C1190 C1189 1.399 . S
C1190 C1191 1.385 . S
C1191 H1177 0.931 . S
C1191 C1190 1.385 . S
C1191 C1192 1.389 . S
C1192 C1191 1.389 . S
C1192 C1193 1.387 . S
C1193 H1178 0.930 . S
C1193 C1188 1.390 . S
C1193 C1192 1.387 . S
H1194 C1206 0.930 . S
H1195 C1208 0.930 . S
H1196 C1209 0.930 . S
H1197 C1213 0.959 . S
H1198 C1213 0.959 . S
H1199 C1213 0.961 . S
H1200 C1214 0.960 . S
H1201 C1214 0.961 . S
H1202 C1214 0.959 . S
H1203 C1217 0.929 . S
H1204 C1218 0.931 . S
H1205 C1220 0.930 . S
C1206 H1194 0.930 . S
C1206 C1207 1.399 . S
C1206 C1211 1.399 . S
C1207 C1206 1.399 . S
C1207 C1208 1.376 . S
C1208 H1195 0.930 . S
C1208 C1207 1.376 . S
C1208 C1209 1.388 . S
C1209 H1196 0.930 . S
C1209 C1208 1.388 . S
C1209 C1210 1.390 . S
C1210 C1209 1.390 . S
C1210 C1211 1.394 . S
C1210 C1216 1.465 . S
C1211 C1206 1.399 . S
C1211 C1210 1.394 . S
C1211 C1212 1.516 . S
C1212 C1211 1.516 . S
C1212 C1213 1.502 . S
C1212 C1214 1.561 . S
C1212 C1215 1.526 . S
C1213 H1197 0.959 . S
C1213 H1198 0.959 . S
C1213 H1199 0.961 . S
C1213 C1212 1.502 . S
C1214 H1200 0.960 . S
C1214 H1201 0.961 . S
C1214 H1202 0.959 . S
C1214 C1212 1.561 . S
C1215 C1212 1.526 . S
C1215 C1216 1.396 . S
C1215 C1220 1.390 . S
C1216 C1210 1.465 . S
C1216 C1215 1.396 . S
C1216 C1217 1.399 . S
C1217 H1203 0.929 . S
C1217 C1216 1.399 . S
C1217 C1218 1.385 . S
C1218 H1204 0.931 . S
C1218 C1217 1.385 . S
C1218 C1219 1.389 . S
C1219 C1218 1.389 . S
C1219 C1220 1.387 . S
C1220 H1205 0.930 . S
C1220 C1215 1.390 . S
C1220 C1219 1.387 . S
H1221 C1233 0.930 . S
H1222 C1235 0.930 . S
H1223 C1236 0.930 . S
H1224 C1240 0.959 . S
H1225 C1240 0.959 . S
H1226 C1240 0.961 . S
H1227 C1241 0.960 . S
H1228 C1241 0.961 . S
H1229 C1241 0.959 . S
H1230 C1244 0.929 . S
H1231 C1245 0.931 . S
H1232 C1247 0.930 . S
C1233 H1221 0.930 . S
C1233 C1234 1.399 . S
C1233 C1238 1.399 . S
C1234 C1233 1.399 . S
C1234 C1235 1.376 . S
C1235 H1222 0.930 . S
C1235 C1234 1.376 . S
C1235 C1236 1.388 . S
C1236 H1223 0.930 . S
C1236 C1235 1.388 . S
C1236 C1237 1.390 . S
C1237 C1236 1.390 . S
C1237 C1238 1.394 . S
C1237 C1243 1.465 . S
C1238 C1233 1.399 . S
C1238 C1237 1.394 . S
C1238 C1239 1.516 . S
C1239 C1238 1.516 . S
C1239 C1240 1.502 . S
C1239 C1241 1.561 . S
C1239 C1242 1.526 . S
C1240 H1224 0.959 . S
C1240 H1225 0.959 . S
C1240 H1226 0.961 . S
C1240 C1239 1.502 . S
C1241 H1227 0.960 . S
C1241 H1228 0.961 . S
C1241 H1229 0.959 . S
C1241 C1239 1.561 . S
C1242 C1239 1.526 . S
C1242 C1243 1.396 . S
C1242 C1247 1.390 . S
C1243 C1237 1.465 . S
C1243 C1242 1.396 . S
C1243 C1244 1.399 . S
C1244 H1230 0.929 . S
C1244 C1243 1.399 . S
C1244 C1245 1.385 . S
C1245 H1231 0.931 . S
C1245 C1244 1.385 . S
C1245 C1246 1.389 . S
C1246 C1245 1.389 . S
C1246 C1247 1.387 . S
C1247 H1232 0.930 . S
C1247 C1242 1.390 . S
C1247 C1246 1.387 . S
H1248 C1260 0.930 . S
H1249 C1262 0.930 . S
H1250 C1263 0.930 . S
H1251 C1267 0.959 . S
H1252 C1267 0.959 . S
H1253 C1267 0.961 . S
H1254 C1268 0.960 . S
H1255 C1268 0.961 . S
H1256 C1268 0.959 . S
H1257 C1271 0.929 . S
H1258 C1272 0.931 . S
H1259 C1274 0.930 . S
C1260 H1248 0.930 . S
C1260 C1261 1.399 . S
C1260 C1265 1.399 . S
C1261 C1260 1.399 . S
C1261 C1262 1.376 . S
C1262 H1249 0.930 . S
C1262 C1261 1.376 . S
C1262 C1263 1.388 . S
C1263 H1250 0.930 . S
C1263 C1262 1.388 . S
C1263 C1264 1.390 . S
C1264 C1263 1.390 . S
C1264 C1265 1.394 . S
C1264 C1270 1.465 . S
C1265 C1260 1.399 . S
C1265 C1264 1.394 . S
C1265 C1266 1.516 . S
C1266 C1265 1.516 . S
C1266 C1267 1.502 . S
C1266 C1268 1.561 . S
C1266 C1269 1.526 . S
C1267 H1251 0.959 . S
C1267 H1252 0.959 . S
C1267 H1253 0.961 . S
C1267 C1266 1.502 . S
C1268 H1254 0.960 . S
C1268 H1255 0.961 . S
C1268 H1256 0.959 . S
C1268 C1266 1.561 . S
C1269 C1266 1.526 . S
C1269 C1270 1.396 . S
C1269 C1274 1.390 . S
C1270 C1264 1.465 . S
C1270 C1269 1.396 . S
C1270 C1271 1.399 . S
C1271 H1257 0.929 . S
C1271 C1270 1.399 . S
C1271 C1272 1.385 . S
C1272 H1258 0.931 . S
C1272 C1271 1.385 . S
C1272 C1273 1.389 . S
C1273 C1272 1.389 . S
C1273 C1274 1.387 . S
C1274 H1259 0.930 . S
C1274 C1269 1.390 . S
C1274 C1273 1.387 . S
H1275 C1287 0.930 . S
H1276 C1289 0.930 . S
H1277 C1290 0.930 . S
H1278 C1294 0.959 . S
H1279 C1294 0.959 . S
H1280 C1294 0.961 . S
H1281 C1295 0.960 . S
H1282 C1295 0.961 . S
H1283 C1295 0.959 . S
H1284 C1298 0.929 . S
H1285 C1299 0.931 . S
H1286 C1301 0.930 . S
C1287 H1275 0.930 . S
C1287 C1288 1.399 . S
C1287 C1292 1.399 . S
C1288 C1287 1.399 . S
C1288 C1289 1.376 . S
C1289 H1276 0.930 . S
C1289 C1288 1.376 . S
C1289 C1290 1.388 . S
C1290 H1277 0.930 . S
C1290 C1289 1.388 . S
C1290 C1291 1.390 . S
C1291 C1290 1.390 . S
C1291 C1292 1.394 . S
C1291 C1297 1.465 . S
C1292 C1287 1.399 . S
C1292 C1291 1.394 . S
C1292 C1293 1.516 . S
C1293 C1292 1.516 . S
C1293 C1294 1.502 . S
C1293 C1295 1.561 . S
C1293 C1296 1.526 . S
C1294 H1278 0.959 . S
C1294 H1279 0.959 . S
C1294 H1280 0.961 . S
C1294 C1293 1.502 . S
C1295 H1281 0.960 . S
C1295 H1282 0.961 . S
C1295 H1283 0.959 . S
C1295 C1293 1.561 . S
C1296 C1293 1.526 . S
C1296 C1297 1.396 . S
C1296 C1301 1.390 . S
C1297 C1291 1.465 . S
C1297 C1296 1.396 . S
C1297 C1298 1.399 . S
C1298 H1284 0.929 . S
C1298 C1297 1.399 . S
C1298 C1299 1.385 . S
C1299 H1285 0.931 . S
C1299 C1298 1.385 . S
C1299 C1300 1.389 . S
C1300 C1299 1.389 . S
C1300 C1301 1.387 . S
C1301 H1286 0.930 . S
C1301 C1296 1.390 . S
C1301 C1300 1.387 . S
H1302 C1314 0.930 . S
H1303 C1316 0.930 . S
H1304 C1317 0.930 . S
H1305 C1321 0.959 . S
H1306 C1321 0.959 . S
H1307 C1321 0.961 . S
H1308 C1322 0.960 . S
H1309 C1322 0.961 . S
H1310 C1322 0.959 . S
H1311 C1325 0.929 . S
H1312 C1326 0.931 . S
H1313 C1328 0.930 . S
C1314 H1302 0.930 . S
C1314 C1315 1.399 . S
C1314 C1319 1.399 . S
C1315 C1314 1.399 . S
C1315 C1316 1.376 . S
C1316 H1303 0.930 . S
C1316 C1315 1.376 . S
C1316 C1317 1.388 . S
C1317 H1304 0.930 . S
C1317 C1316 1.388 . S
C1317 C1318 1.390 . S
C1318 C1317 1.390 . S
C1318 C1319 1.394 . S
C1318 C1324 1.465 . S
C1319 C1314 1.399 . S
C1319 C1318 1.394 . S
C1319 C1320 1.516 . S
C1320 C1319 1.516 . S
C1320 C1321 1.502 . S
C1320 C1322 1.561 . S
C1320 C1323 1.526 . S
C1321 H1305 0.959 . S
C1321 H1306 0.959 . S
C1321 H1307 0.961 . S
C1321 C1320 1.502 . S
C1322 H1308 0.960 . S
C1322 H1309 0.961 . S
C1322 H1310 0.959 . S
C1322 C1320 1.561 . S
C1323 C1320 1.526 . S
C1323 C1324 1.396 . S
C1323 C1328 1.390 . S
C1324 C1318 1.465 . S
C1324 C1323 1.396 . S
C1324 C1325 1.399 . S
C1325 H1311 0.929 . S
C1325 C1324 1.399 . S
C1325 C1326 1.385 . S
C1326 H1312 0.931 . S
C1326 C1325 1.385 . S
C1326 C1327 1.389 . S
C1327 C1326 1.389 . S
C1327 C1328 1.387 . S
C1328 H1313 0.930 . S
C1328 C1323 1.390 . S
C1328 C1327 1.387 . S
H1329 C1341 0.930 . S
H1330 C1343 0.930 . S
H1331 C1344 0.930 . S
H1332 C1348 0.959 . S
H1333 C1348 0.959 . S
H1334 C1348 0.961 . S
H1335 C1349 0.960 . S
H1336 C1349 0.961 . S
H1337 C1349 0.959 . S
H1338 C1352 0.929 . S
H1339 C1353 0.931 . S
H1340 C1355 0.930 . S
C1341 H1329 0.930 . S
C1341 C1342 1.399 . S
C1341 C1346 1.399 . S
C1342 C1341 1.399 . S
C1342 C1343 1.376 . S
C1343 H1330 0.930 . S
C1343 C1342 1.376 . S
C1343 C1344 1.388 . S
C1344 H1331 0.930 . S
C1344 C1343 1.388 . S
C1344 C1345 1.390 . S
C1345 C1344 1.390 . S
C1345 C1346 1.394 . S
C1345 C1351 1.465 . S
C1346 C1341 1.399 . S
C1346 C1345 1.394 . S
C1346 C1347 1.516 . S
C1347 C1346 1.516 . S
C1347 C1348 1.502 . S
C1347 C1349 1.561 . S
C1347 C1350 1.526 . S
C1348 H1332 0.959 . S
C1348 H1333 0.959 . S
C1348 H1334 0.961 . S
C1348 C1347 1.502 . S
C1349 H1335 0.960 . S
C1349 H1336 0.961 . S
C1349 H1337 0.959 . S
C1349 C1347 1.561 . S
C1350 C1347 1.526 . S
C1350 C1351 1.396 . S
C1350 C1355 1.390 . S
C1351 C1345 1.465 . S
C1351 C1350 1.396 . S
C1351 C1352 1.399 . S
C1352 H1338 0.929 . S
C1352 C1351 1.399 . S
C1352 C1353 1.385 . S
C1353 H1339 0.931 . S
C1353 C1352 1.385 . S
C1353 C1354 1.389 . S
C1354 C1353 1.389 . S
C1354 C1355 1.387 . S
C1355 H1340 0.930 . S
C1355 C1350 1.390 . S
C1355 C1354 1.387 . S
C721 C3 1.732 . S
C733 C357 1.755 . S
C748 C62 1.703 . S
C760 C416 1.697 . S
C775 C123 1.678 . S
C787 C477 1.672 . S
C802 C534 1.719 . S
C814 C180 1.697 . S
C829 C239 1.709 . S
C841 C593 1.693 . S
C856 C654 1.627 . S
C868 C300 1.637 . S
C883 C33 1.536 . S
C895 C564 1.540 . S
C910 C92 1.497 . S
C922 C623 1.495 . S
C937 C701 1.446 . S
C949 C170 1.446 1_554 S
C964 C387 1.507 . S
C976 C210 1.503 . S
C991 C269 1.503 . S
C1003 C446 1.498 . S
C1018 C347 1.410 1_554 S
C1030 C524 1.411 . S
C1045 C652 1.500 . S
C1057 C5 1.543 . S
C1072 C64 1.732 . S
C1084 C359 1.772 . S
C1099 C121 1.509 . S
C1111 C418 1.552 . S
C1126 C475 1.501 . S
C1138 C182 1.544 . S
C1153 C536 1.716 . S
C1165 C241 1.765 . S
C1180 C298 1.499 . S
C1192 C595 1.541 . S
C1207 C52 1.068 . S
C1219 C642 1.143 . S
C1234 C682 1.275 . S
C1246 C111 1.362 . S
C1261 C406 1.280 . S
C1273 C151 1.314 . S
C1288 C229 1.176 . S
C1300 C465 1.097 . S
C1315 C505 1.276 . S
C1327 C288 1.362 . S
C1342 C583 1.361 . S
C1354 C328 1.269 . S
