# Generated by pormake.
# Topology uoa, (4)-cn, num edge types: 1
# Building blocks:
#     Node 0, Type 0, BuildingBlock: QUQFOY_clean_sbu_1, # of connection points: 4
#     Node 1, Type 0, BuildingBlock: QUQFOY_clean_sbu_1, # of connection points: 4
#     Node 2, Type 0, BuildingBlock: QUQFOY_clean_sbu_1, # of connection points: 4
#     Node 3, Type 0, BuildingBlock: QUQFOY_clean_sbu_1, # of connection points: 4
#     Node 4, Type 0, BuildingBlock: QUQFOY_clean_sbu_1, # of connection points: 4
#     Node 5, Type 0, BuildingBlock: QUQFOY_clean_sbu_1, # of connection points: 4
#     Node 6, Type 0, BuildingBlock: QUQFOY_clean_sbu_1, # of connection points: 4
#     Node 7, Type 0, BuildingBlock: QUQFOY_clean_sbu_1, # of connection points: 4
#     Node 8, Type 0, BuildingBlock: QUQFOY_clean_sbu_1, # of connection points: 4
#     Node 9, Type 0, BuildingBlock: QUQFOY_clean_sbu_1, # of connection points: 4
#     Node 10, Type 0, BuildingBlock: QUQFOY_clean_sbu_1, # of connection points: 4
#     Node 11, Type 0, BuildingBlock: QUQFOY_clean_sbu_1, # of connection points: 4
#     Node 12, Type 0, BuildingBlock: QUQFOY_clean_sbu_1, # of connection points: 4
#     Node 13, Type 0, BuildingBlock: QUQFOY_clean_sbu_1, # of connection points: 4
#     Node 14, Type 0, BuildingBlock: QUQFOY_clean_sbu_1, # of connection points: 4
#     Node 15, Type 0, BuildingBlock: QUQFOY_clean_sbu_1, # of connection points: 4
#     Node 16, Type 0, BuildingBlock: QUQFOY_clean_sbu_1, # of connection points: 4
#     Node 17, Type 0, BuildingBlock: QUQFOY_clean_sbu_1, # of connection points: 4
#     Node 18, Type 0, BuildingBlock: QUQFOY_clean_sbu_1, # of connection points: 4
#     Node 19, Type 0, BuildingBlock: QUQFOY_clean_sbu_1, # of connection points: 4
#     Node 20, Type 0, BuildingBlock: QUQFOY_clean_sbu_1, # of connection points: 4
#     Node 21, Type 0, BuildingBlock: QUQFOY_clean_sbu_1, # of connection points: 4
#     Node 22, Type 0, BuildingBlock: QUQFOY_clean_sbu_1, # of connection points: 4
#     Node 23, Type 0, BuildingBlock: QUQFOY_clean_sbu_1, # of connection points: 4
#     Node 24, Type 0, BuildingBlock: QUQFOY_clean_sbu_1, # of connection points: 4
#     Node 25, Type 0, BuildingBlock: QUQFOY_clean_sbu_1, # of connection points: 4
#     Node 26, Type 0, BuildingBlock: QUQFOY_clean_sbu_1, # of connection points: 4
#     Node 27, Type 0, BuildingBlock: QUQFOY_clean_sbu_1, # of connection points: 4
#     Node 28, Type 0, BuildingBlock: QUQFOY_clean_sbu_1, # of connection points: 4
#     Node 29, Type 0, BuildingBlock: QUQFOY_clean_sbu_1, # of connection points: 4
#     Node 30, Type 0, BuildingBlock: QUQFOY_clean_sbu_1, # of connection points: 4
#     Node 31, Type 0, BuildingBlock: QUQFOY_clean_sbu_1, # of connection points: 4
#     Edge 32, Type (0, 0), BuildingBlock: CIFDUS_clean_linker_0, # of connection points: 2
#     Edge 33, Type (0, 0), BuildingBlock: CIFDUS_clean_linker_0, # of connection points: 2
#     Edge 34, Type (0, 0), BuildingBlock: CIFDUS_clean_linker_0, # of connection points: 2
#     Edge 35, Type (0, 0), BuildingBlock: CIFDUS_clean_linker_0, # of connection points: 2
#     Edge 36, Type (0, 0), BuildingBlock: CIFDUS_clean_linker_0, # of connection points: 2
#     Edge 37, Type (0, 0), BuildingBlock: CIFDUS_clean_linker_0, # of connection points: 2
#     Edge 38, Type (0, 0), BuildingBlock: CIFDUS_clean_linker_0, # of connection points: 2
#     Edge 39, Type (0, 0), BuildingBlock: CIFDUS_clean_linker_0, # of connection points: 2
#     Edge 40, Type (0, 0), BuildingBlock: CIFDUS_clean_linker_0, # of connection points: 2
#     Edge 41, Type (0, 0), BuildingBlock: CIFDUS_clean_linker_0, # of connection points: 2
#     Edge 42, Type (0, 0), BuildingBlock: CIFDUS_clean_linker_0, # of connection points: 2
#     Edge 43, Type (0, 0), BuildingBlock: CIFDUS_clean_linker_0, # of connection points: 2
#     Edge 44, Type (0, 0), BuildingBlock: CIFDUS_clean_linker_0, # of connection points: 2
#     Edge 45, Type (0, 0), BuildingBlock: CIFDUS_clean_linker_0, # of connection points: 2
#     Edge 46, Type (0, 0), BuildingBlock: CIFDUS_clean_linker_0, # of connection points: 2
#     Edge 47, Type (0, 0), BuildingBlock: CIFDUS_clean_linker_0, # of connection points: 2
#     Edge 48, Type (0, 0), BuildingBlock: CIFDUS_clean_linker_0, # of connection points: 2
#     Edge 49, Type (0, 0), BuildingBlock: CIFDUS_clean_linker_0, # of connection points: 2
#     Edge 50, Type (0, 0), BuildingBlock: CIFDUS_clean_linker_0, # of connection points: 2
#     Edge 51, Type (0, 0), BuildingBlock: CIFDUS_clean_linker_0, # of connection points: 2
#     Edge 52, Type (0, 0), BuildingBlock: CIFDUS_clean_linker_0, # of connection points: 2
#     Edge 53, Type (0, 0), BuildingBlock: CIFDUS_clean_linker_0, # of connection points: 2
#     Edge 54, Type (0, 0), BuildingBlock: CIFDUS_clean_linker_0, # of connection points: 2
#     Edge 55, Type (0, 0), BuildingBlock: CIFDUS_clean_linker_0, # of connection points: 2
#     Edge 56, Type (0, 0), BuildingBlock: CIFDUS_clean_linker_0, # of connection points: 2
#     Edge 57, Type (0, 0), BuildingBlock: CIFDUS_clean_linker_0, # of connection points: 2
#     Edge 58, Type (0, 0), BuildingBlock: CIFDUS_clean_linker_0, # of connection points: 2
#     Edge 59, Type (0, 0), BuildingBlock: CIFDUS_clean_linker_0, # of connection points: 2
#     Edge 60, Type (0, 0), BuildingBlock: CIFDUS_clean_linker_0, # of connection points: 2
#     Edge 61, Type (0, 0), BuildingBlock: CIFDUS_clean_linker_0, # of connection points: 2
#     Edge 62, Type (0, 0), BuildingBlock: CIFDUS_clean_linker_0, # of connection points: 2
#     Edge 63, Type (0, 0), BuildingBlock: CIFDUS_clean_linker_0, # of connection points: 2
#     Edge 64, Type (0, 0), BuildingBlock: CIFDUS_clean_linker_0, # of connection points: 2
#     Edge 65, Type (0, 0), BuildingBlock: CIFDUS_clean_linker_0, # of connection points: 2
#     Edge 66, Type (0, 0), BuildingBlock: CIFDUS_clean_linker_0, # of connection points: 2
#     Edge 67, Type (0, 0), BuildingBlock: CIFDUS_clean_linker_0, # of connection points: 2
#     Edge 68, Type (0, 0), BuildingBlock: CIFDUS_clean_linker_0, # of connection points: 2
#     Edge 69, Type (0, 0), BuildingBlock: CIFDUS_clean_linker_0, # of connection points: 2
#     Edge 70, Type (0, 0), BuildingBlock: CIFDUS_clean_linker_0, # of connection points: 2
#     Edge 71, Type (0, 0), BuildingBlock: CIFDUS_clean_linker_0, # of connection points: 2
#     Edge 72, Type (0, 0), BuildingBlock: CIFDUS_clean_linker_0, # of connection points: 2
#     Edge 73, Type (0, 0), BuildingBlock: CIFDUS_clean_linker_0, # of connection points: 2
#     Edge 74, Type (0, 0), BuildingBlock: CIFDUS_clean_linker_0, # of connection points: 2
#     Edge 75, Type (0, 0), BuildingBlock: CIFDUS_clean_linker_0, # of connection points: 2
#     Edge 76, Type (0, 0), BuildingBlock: CIFDUS_clean_linker_0, # of connection points: 2
#     Edge 77, Type (0, 0), BuildingBlock: CIFDUS_clean_linker_0, # of connection points: 2
#     Edge 78, Type (0, 0), BuildingBlock: CIFDUS_clean_linker_0, # of connection points: 2
#     Edge 79, Type (0, 0), BuildingBlock: CIFDUS_clean_linker_0, # of connection points: 2
#     Edge 80, Type (0, 0), BuildingBlock: CIFDUS_clean_linker_0, # of connection points: 2
#     Edge 81, Type (0, 0), BuildingBlock: CIFDUS_clean_linker_0, # of connection points: 2
#     Edge 82, Type (0, 0), BuildingBlock: CIFDUS_clean_linker_0, # of connection points: 2
#     Edge 83, Type (0, 0), BuildingBlock: CIFDUS_clean_linker_0, # of connection points: 2
#     Edge 84, Type (0, 0), BuildingBlock: CIFDUS_clean_linker_0, # of connection points: 2
#     Edge 85, Type (0, 0), BuildingBlock: CIFDUS_clean_linker_0, # of connection points: 2
#     Edge 86, Type (0, 0), BuildingBlock: CIFDUS_clean_linker_0, # of connection points: 2
#     Edge 87, Type (0, 0), BuildingBlock: CIFDUS_clean_linker_0, # of connection points: 2
#     Edge 88, Type (0, 0), BuildingBlock: CIFDUS_clean_linker_0, # of connection points: 2
#     Edge 89, Type (0, 0), BuildingBlock: CIFDUS_clean_linker_0, # of connection points: 2
#     Edge 90, Type (0, 0), BuildingBlock: CIFDUS_clean_linker_0, # of connection points: 2
#     Edge 91, Type (0, 0), BuildingBlock: CIFDUS_clean_linker_0, # of connection points: 2
#     Edge 92, Type (0, 0), BuildingBlock: CIFDUS_clean_linker_0, # of connection points: 2
#     Edge 93, Type (0, 0), BuildingBlock: CIFDUS_clean_linker_0, # of connection points: 2
#     Edge 94, Type (0, 0), BuildingBlock: CIFDUS_clean_linker_0, # of connection points: 2
#     Edge 95, Type (0, 0), BuildingBlock: CIFDUS_clean_linker_0, # of connection points: 2
# Relax obj value: 0.073
# Max RMSD: 0.150
# Mean RMSD: 0.150
data_MOF--net-uoa--node1-QUQFOY_clean_sbu_1--edge1-CIFDUS_clean_linker_0
_symmetry_space_group_name_H-M    P1
_symmetry_Int_Tables_number       1
_symmetry_cell_setting            triclinic
loop_
_symmetry_equiv_pos_as_xyz
'x, y, z'
_cell_length_a     68.921546
_cell_length_b     68.99431
_cell_length_c     25.149106
_cell_angle_alpha  90.047088
_cell_angle_beta   90.094075
_cell_angle_gamma 90.061279
loop_
_atom_site_label
_atom_site_type_symbol
_atom_site_fract_x
_atom_site_fract_y
_atom_site_fract_z
_atom_type_partial_charge
O0 O 0.04168 0.0991 0.19095 0.0
Cd1 Cd 0.05594 0.09257 0.12093 0.0
Cd2 Cd 0.02162 0.10297 0.08135 0.0
O3 O 0.01724 0.11528 0.15547 0.0
O4 O 0.08445 0.09751 0.13374 0.0
O5 O 0.06568 0.11639 0.08469 0.0
C6 C 0.08226 0.11341 0.10725 0.0
C7 C 0.01783 0.11774 0.99867 0.0
C8 C 0.02691 0.11 0.19612 0.0
C9 C 0.03193 0.06136 0.07049 0.0
O10 O 0.01823 0.07353 0.0752 0.0
O11 O 0.04932 0.06648 0.08128 0.0
O12 O 1.00302 0.11347 0.02779 0.0
O13 O 0.03488 0.11533 0.01893 0.0
O14 O 0.17321 0.79036 0.42901 0.0
Cd15 Cd 0.18155 0.8041 0.35968 0.0
Cd16 Cd 0.1718 0.76871 0.32276 0.0
O17 O 0.1604 0.76356 0.39654 0.0
O18 O 0.17989 0.83206 0.38082 0.0
O19 O 0.16059 0.81865 0.32062 0.0
C20 C 0.16511 0.83348 0.34952 0.0
C21 C 0.15471 0.76287 0.24519 0.0
C22 C 0.16388 0.77465 0.43563 0.0
C23 C 0.21341 0.78022 0.31042 0.0
O24 O 0.20125 0.76639 0.31215 0.0
O25 O 0.20829 0.79727 0.32435 0.0
O26 O 0.16086 0.74885 0.2746 0.0
O27 O 0.15707 0.78042 0.26209 0.0
O28 O 0.48919 0.92657 0.70016 0.0
Cd29 Cd 0.47597 0.93101 0.6273 0.0
Cd30 Cd 0.51205 0.92255 0.59556 0.0
O31 O 0.51575 0.91223 0.67113 0.0
O32 O 0.44746 0.92972 0.64152 0.0
O33 O 0.46363 0.90685 0.59836 0.0
C34 C 0.44763 0.91284 0.61944 0.0
C35 C 0.52005 0.90589 0.51923 0.0
C36 C 0.50467 0.91707 0.7091 0.0
C37 C 0.49858 0.96223 0.57202 0.0
O38 O 0.5133 0.9518 0.58189 0.0
O39 O 0.48165 0.95593 0.58271 0.0
O40 O 0.5333 0.91235 0.55096 0.0
O41 O 0.50214 0.90714 0.53406 0.0
O42 O 0.35021 0.24036 0.94928 0.0
Cd43 Cd 0.34556 0.22812 0.87538 0.0
Cd44 Cd 0.35328 0.26453 0.84706 0.0
O45 O 0.36414 0.26743 0.92237 0.0
O46 O 0.35044 0.19972 0.88546 0.0
O47 O 0.37024 0.21925 0.84154 0.0
C48 C 0.36686 0.20237 0.86182 0.0
C49 C 0.36996 0.2722 0.77053 0.0
C50 C 0.35971 0.25575 0.95935 0.0
C51 C 0.3134 0.25062 0.82429 0.0
O52 O 0.32388 0.26528 0.83476 0.0
O53 O 0.31992 0.23361 0.83299 0.0
O54 O 0.36343 0.28562 0.80149 0.0
O55 O 0.36854 0.25439 0.78601 0.0
O56 O 0.04546 0.92431 0.32492 0.0
Cd57 Cd 0.05713 0.93124 0.39801 0.0
Cd58 Cd 0.02091 0.9216 0.42469 0.0
O59 O 0.01873 0.90916 0.34903 0.0
O60 O 0.08561 0.92979 0.38212 0.0
O61 O 0.07064 0.90948 0.43648 0.0
C62 C 0.08616 0.91438 0.41108 0.0
C63 C 0.01702 0.9075 0.50832 0.0
C64 C 0.03075 0.91407 0.313 0.0
C65 C 0.03171 0.9629 0.44035 0.0
O66 O 0.01792 0.95118 0.43061 0.0
O67 O 0.04927 0.9574 0.43468 0.0
O68 O 1.00225 0.91106 0.47813 0.0
O69 O 0.03413 0.90988 0.48833 0.0
O70 O 0.34534 0.79834 0.57083 0.0
Cd71 Cd 0.34402 0.80734 0.64852 0.0
Cd72 Cd 0.35134 0.77052 0.66409 0.0
O73 O 0.36217 0.77186 0.58702 0.0
O74 O 0.35096 0.83561 0.6474 0.0
O75 O 0.37037 0.81265 0.67813 0.0
C76 C 0.36785 0.83056 0.66494 0.0
C77 C 0.36713 0.76113 0.74144 0.0
C78 C 0.35578 0.78441 0.55429 0.0
C79 C 0.31219 0.78362 0.69417 0.0
O80 O 0.32182 0.76949 0.67543 0.0
O81 O 0.31941 0.80065 0.69335 0.0
O82 O 0.3618 0.74844 0.70649 0.0
O83 O 0.36538 0.77924 0.7294 0.0
O84 O 0.47611 0.09579 0.8214 0.0
Cd85 Cd 0.46657 0.09416 0.89878 0.0
Cd86 Cd 0.50279 0.1033 0.91608 0.0
O87 O 0.50209 0.11339 0.83832 0.0
O88 O 0.43766 0.09704 0.8954 0.0
O89 O 0.45744 0.11998 0.92515 0.0
C90 C 0.44015 0.11462 0.91167 0.0
C91 C 0.51023 0.12003 0.99351 0.0
C92 C 0.48997 0.10642 0.80517 0.0
C93 C 0.49177 0.06391 0.94752 0.0
O94 O 0.50558 0.07402 0.92886 0.0
O95 O 0.47446 0.07038 0.94546 0.0
O96 O 0.52361 0.1154 0.95985 0.0
O97 O 0.49236 0.1171 0.97996 0.0
O98 O 0.18344 0.22793 0.06607 0.0
Cd99 Cd 0.18733 0.21719 0.14182 0.0
Cd100 Cd 0.17369 0.25153 0.16499 0.0
O101 O 0.16231 0.25059 0.08794 0.0
O102 O 0.1864 0.18794 0.13673 0.0
O103 O 0.16235 0.20585 0.16795 0.0
C104 C 0.16871 0.1891 0.15334 0.0
C105 C 0.15871 0.2528 0.24817 0.0
C106 C 0.17067 0.24032 0.05254 0.0
C107 C 0.21476 0.24607 0.18902 0.0
O108 O 0.20253 0.2583 0.17175 0.0
O109 O 0.21055 0.22803 0.18812 0.0
O110 O 0.15979 0.26807 0.21847 0.0
O111 O 0.16425 0.23652 0.22801 0.0
O112 O 0.97374 0.92853 0.8267 0.0
Cd113 Cd 0.96284 0.9321 0.9023 0.0
Cd114 Cd 0.99872 0.92184 0.92624 0.0
O115 O 0.99918 0.91083 0.84854 0.0
O116 O 0.93371 0.92988 0.89611 0.0
O117 O 0.95235 0.90703 0.93069 0.0
C118 C 0.93542 0.91254 0.91482 0.0
C119 C 1.0016 0.90641 0.00849 0.0
C120 C 0.98772 0.91755 0.81318 0.0
C121 C 0.98904 0.96231 0.95012 0.0
O122 O 1.00268 0.95115 0.93554 0.0
O123 O 0.97144 0.9566 0.94633 0.0
O124 O 0.01666 0.90934 0.97887 0.0
O125 O 0.98476 0.91024 0.98849 0.0
O126 O 0.85606 0.23834 0.55774 0.0
Cd127 Cd 0.84614 0.22643 0.62818 0.0
Cd128 Cd 0.85756 0.26153 0.65881 0.0
O129 O 0.8721 0.26363 0.58838 0.0
O130 O 0.84602 0.19815 0.61013 0.0
O131 O 0.86591 0.21114 0.66963 0.0
C132 C 0.86061 0.19626 0.64191 0.0
C133 C 0.87146 0.26664 0.74112 0.0
C134 C 0.86763 0.25244 0.5503 0.0
C135 C 0.81537 0.25369 0.66651 0.0
O136 O 0.82825 0.26658 0.65932 0.0
O137 O 0.81974 0.2358 0.66145 0.0
O138 O 0.86822 0.28087 0.70904 0.0
O139 O 0.86827 0.24921 0.7243 0.0
O140 O 0.53967 0.10124 0.30767 0.0
Cd141 Cd 0.5541 0.09188 0.37509 0.0
Cd142 Cd 0.51931 0.10112 0.41617 0.0
O143 O 0.5134 0.11388 0.34355 0.0
O144 O 0.58183 0.09299 0.35235 0.0
O145 O 0.56953 0.11174 0.41546 0.0
C146 C 0.58404 0.10705 0.38563 0.0
C147 C 0.51593 0.11553 0.49914 0.0
C148 C 0.52399 0.11078 0.3031 0.0
C149 C 0.53092 0.0596 0.42346 0.0
O150 O 0.51692 0.07154 0.42273 0.0
O151 O 0.5478 0.06503 0.40907 0.0
O152 O 0.501 0.11075 0.47095 0.0
O153 O 0.53289 0.11393 0.47764 0.0
O154 O 0.67858 0.79575 0.06205 0.0
Cd155 Cd 0.68219 0.80569 0.13849 0.0
Cd156 Cd 0.67015 0.7701 0.1579 0.0
O157 O 0.65805 0.77225 0.08178 0.0
O158 O 0.67763 0.83466 0.13674 0.0
O159 O 0.65665 0.81337 0.16848 0.0
C160 C 0.66047 0.83098 0.15489 0.0
C161 C 0.6562 0.76564 0.24174 0.0
C162 C 0.66597 0.78334 0.04745 0.0
C163 C 0.71114 0.77778 0.18026 0.0
O164 O 0.69941 0.76537 0.16118 0.0
O165 O 0.70609 0.79557 0.18295 0.0
O166 O 0.65835 0.75115 0.2096 0.0
O167 O 0.66012 0.78272 0.22402 0.0
O168 O 0.97478 0.09903 0.6804 0.0
Cd169 Cd 0.96448 0.09354 0.6049 0.0
Cd170 Cd 1.00129 0.1025 0.58446 0.0
O171 O 1.00198 0.11412 0.66053 0.0
O172 O 0.93583 0.09641 0.61547 0.0
O173 O 0.95329 0.11648 0.56613 0.0
C174 C 0.9369 0.11217 0.58805 0.0
C175 C 1.01043 0.11774 0.50609 0.0
C176 C 0.98938 0.10903 0.69468 0.0
C177 C 0.98953 0.06168 0.56305 0.0
O178 O 1.0034 0.07292 0.57566 0.0
O179 O 0.97203 0.06756 0.567 0.0
O180 O 0.02315 0.11262 0.54112 0.0
O181 O 0.99229 0.11608 0.51834 0.0
O182 O 0.67705 0.22224 0.42547 0.0
Cd183 Cd 0.68453 0.21174 0.35177 0.0
Cd184 Cd 0.67482 0.24821 0.32755 0.0
O185 O 0.66246 0.24946 0.40333 0.0
O186 O 0.68332 0.18313 0.36451 0.0
O187 O 0.66326 0.19869 0.31047 0.0
C188 C 0.66817 0.18288 0.33435 0.0
C189 C 0.65975 0.25149 0.24502 0.0
C190 C 0.66691 0.23688 0.43829 0.0
C191 C 0.71626 0.23752 0.31158 0.0
O192 O 0.70447 0.25131 0.32041 0.0
O193 O 0.71078 0.21999 0.31753 0.0
O194 O 0.66341 0.26646 0.27433 0.0
O195 O 0.6628 0.23456 0.26525 0.0
O196 O 0.54434 0.92907 0.20382 0.0
Cd197 Cd 0.55685 0.93574 0.13127 0.0
Cd198 Cd 0.52151 0.92591 0.09889 0.0
O199 O 0.51886 0.91345 0.17219 0.0
O200 O 0.58562 0.93392 0.14189 0.0
O201 O 0.56837 0.91227 0.09682 0.0
C202 C 0.58478 0.91752 0.11727 0.0
C203 C 0.51459 0.91029 0.01991 0.0
C204 C 0.52962 0.91822 0.21101 0.0
C205 C 0.53222 0.96688 0.08292 0.0
O206 O 0.51827 0.95531 0.09165 0.0
O207 O 0.54961 0.96132 0.09098 0.0
O208 O 0.50096 0.91527 0.05224 0.0
O209 O 0.53238 0.91268 0.03495 0.0
O210 O 0.84781 0.78464 0.96057 0.0
Cd211 Cd 0.8415 0.7972 0.88777 0.0
Cd212 Cd 0.85384 0.76252 0.85645 0.0
O213 O 0.86641 0.76095 0.93066 0.0
O214 O 0.84533 0.82619 0.89643 0.0
O215 O 0.86571 0.80703 0.8537 0.0
C216 C 0.86186 0.82392 0.87298 0.0
C217 C 0.86861 0.75949 0.77401 0.0
C218 C 0.8599 0.77103 0.96907 0.0
C219 C 0.81218 0.77011 0.84028 0.0
O220 O 0.82467 0.75729 0.85187 0.0
O221 O 0.81658 0.78805 0.84486 0.0
O222 O 0.86553 0.74443 0.80337 0.0
O223 O 0.86498 0.77633 0.79386 0.0
O224 O 0.54393 0.59512 0.68852 0.0
Cd225 Cd 0.55693 0.58919 0.61609 0.0
Cd226 Cd 0.52102 0.59817 0.583 0.0
O227 O 0.51777 0.60965 0.65739 0.0
O228 O 0.58563 0.59101 0.62906 0.0
O229 O 0.56895 0.613 0.58403 0.0
C230 C 0.58514 0.60761 0.60548 0.0
C231 C 0.51312 0.61452 0.5059 0.0
C232 C 0.52869 0.60516 0.69608 0.0
C233 C 0.53309 0.5576 0.56474 0.0
O234 O 0.51877 0.56877 0.57272 0.0
O235 O 0.55027 0.56355 0.57462 0.0
O236 O 0.49986 0.60847 0.53802 0.0
O237 O 0.53106 0.61275 0.5202 0.0
O238 O 0.68056 0.29024 0.92544 0.0
Cd239 Cd 0.68361 0.30131 0.85018 0.0
Cd240 Cd 0.67126 0.26612 0.82667 0.0
O241 O 0.65983 0.26712 0.90375 0.0
O242 O 0.67921 0.33026 0.85594 0.0
O243 O 0.65783 0.30964 0.82267 0.0
C244 C 0.66186 0.32697 0.8384 0.0
C245 C 0.65641 0.26336 0.74329 0.0
C246 C 0.66801 0.27765 0.93902 0.0
C247 C 0.71212 0.27394 0.80284 0.0
O248 O 0.70044 0.2612 0.82032 0.0
O249 O 0.7072 0.2918 0.8036 0.0
O250 O 0.65839 0.24835 0.77364 0.0
O251 O 0.66101 0.28003 0.76276 0.0
O252 O 0.983 0.42938 0.19061 0.0
Cd253 Cd 0.96899 0.43415 0.11914 0.0
Cd254 Cd 1.00295 0.42306 0.08214 0.0
O255 O 1.0073 0.41229 0.15795 0.0
O256 O 0.94031 0.43179 0.13249 0.0
O257 O 0.9577 0.40956 0.09047 0.0
C258 C 0.94137 0.41482 0.11097 0.0
C259 C 1.00469 0.40653 1.00189 0.0
C260 C 0.99766 0.41846 0.19761 0.0
C261 C 0.99307 0.46387 0.06208 0.0
O262 O 1.00697 0.45217 0.07006 0.0
O263 O 0.97578 0.45882 0.07386 0.0
O264 O 0.02015 0.41045 0.02897 0.0
O265 O 0.98809 0.41017 0.02345 0.0
O266 O 0.84075 0.72956 0.44984 0.0
Cd267 Cd 0.83793 0.7218 0.3712 0.0
Cd268 Cd 0.85093 0.75688 0.36021 0.0
O269 O 0.86237 0.75251 0.43531 0.0
O270 O 0.83898 0.6927 0.36961 0.0
O271 O 0.86321 0.71167 0.34411 0.0
C272 C 0.85686 0.69451 0.35501 0.0
C273 C 0.86685 0.76317 0.28102 0.0
C274 C 0.85383 0.74098 0.46711 0.0
C275 C 0.81041 0.7514 0.33068 0.0
O276 O 0.82192 0.76309 0.35372 0.0
O277 O 0.81522 0.73362 0.32582 0.0
O278 O 0.86459 0.77667 0.31619 0.0
O279 O 0.86188 0.74571 0.29362 0.0
O280 O 0.54619 0.42598 0.80673 0.0
Cd281 Cd 0.55913 0.43184 0.87927 0.0
Cd282 Cd 0.52354 0.42235 0.91232 0.0
O283 O 0.52057 0.41059 0.83808 0.0
O284 O 0.58778 0.42989 0.86707 0.0
O285 O 0.57076 0.408 0.91162 0.0
C286 C 0.58703 0.41329 0.89058 0.0
C287 C 0.51533 0.40624 0.98958 0.0
C288 C 0.53126 0.41544 0.79928 0.0
C289 C 0.53533 0.46308 0.93025 0.0
O290 O 0.52112 0.45177 0.92195 0.0
O291 O 0.55256 0.45733 0.92078 0.0
O292 O 0.5022 0.41211 0.95674 0.0
O293 O 0.53332 0.40803 0.97596 0.0
O294 O 0.8521 0.28815 0.06208 0.0
Cd295 Cd 0.84701 0.30053 0.13557 0.0
Cd296 Cd 0.85642 0.26462 0.16589 0.0
O297 O 0.86658 0.26148 0.08993 0.0
O298 O 0.85179 0.32909 0.12695 0.0
O299 O 0.8714 0.30939 0.17098 0.0
C300 C 0.86804 0.32639 0.15151 0.0
C301 C 0.87404 0.25745 0.24165 0.0
C302 C 0.86172 0.27281 0.05249 0.0
C303 C 0.81571 0.27699 0.18687 0.0
O304 O 0.82712 0.26284 0.17908 0.0
O305 O 0.8213 0.29422 0.17654 0.0
O306 O 0.86754 0.24386 0.21114 0.0
O307 O 0.87193 0.27519 0.22632 0.0
O308 O 0.97718 0.59816 0.31568 0.0
Cd309 Cd 0.96681 0.59585 0.39207 0.0
Cd310 Cd 1.00318 0.60451 0.41243 0.0
O311 O 1.00339 0.61509 0.33516 0.0
O312 O 0.93826 0.60134 0.38665 0.0
O313 O 0.95954 0.62157 0.42254 0.0
C314 C 0.94205 0.61826 0.40623 0.0
C315 C 1.01178 0.62046 0.49037 0.0
C316 C 0.99139 0.60862 0.30094 0.0
C317 C 0.99092 0.56481 0.44034 0.0
O318 O 1.00497 0.57508 0.42376 0.0
O319 O 0.97363 0.5713 0.43718 0.0
O320 O 0.02476 0.61528 0.45618 0.0
O321 O 0.99375 0.6185 0.47726 0.0
O322 O 0.68194 0.72862 0.56354 0.0
Cd323 Cd 0.68417 0.71844 0.64013 0.0
Cd324 Cd 0.67174 0.7539 0.65956 0.0
O325 O 0.66078 0.75165 0.58208 0.0
O326 O 0.67911 0.68944 0.63733 0.0
O327 O 0.65786 0.71098 0.66591 0.0
C328 C 0.66164 0.69334 0.6527 0.0
C329 C 0.65625 0.75791 0.7415 0.0
C330 C 0.6693 0.74085 0.54813 0.0
C331 C 0.71229 0.74655 0.68743 0.0
O332 O 0.70089 0.75898 0.66719 0.0
O333 O 0.70728 0.72869 0.68832 0.0
O334 O 0.65867 0.77249 0.70986 0.0
O335 O 0.66085 0.74096 0.72412 0.0
O336 O 0.48757 0.42094 0.30817 0.0
Cd337 Cd 0.47467 0.42563 0.38134 0.0
Cd338 Cd 0.51065 0.41796 0.41251 0.0
O339 O 0.51393 0.40646 0.33808 0.0
O340 O 0.44632 0.41952 0.37201 0.0
O341 O 0.46678 0.40083 0.41645 0.0
C342 C 0.44967 0.4034 0.39648 0.0
C343 C 0.51974 0.40285 0.49051 0.0
C344 C 0.50292 0.41118 0.29975 0.0
C345 C 0.49713 0.45813 0.43107 0.0
O346 O 0.5117 0.44746 0.42156 0.0
O347 O 0.48004 0.45159 0.42283 0.0
O348 O 0.53255 0.40899 0.45718 0.0
O349 O 0.50168 0.40356 0.47673 0.0
O350 O 0.34976 0.73338 0.05979 0.0
Cd351 Cd 0.34502 0.71981 0.13161 0.0
Cd352 Cd 0.35399 0.75486 0.16698 0.0
O353 O 0.36591 0.75843 0.09203 0.0
O354 O 0.35127 0.69153 0.12087 0.0
O355 O 0.37001 0.71197 0.16535 0.0
C356 C 0.36754 0.695 0.14474 0.0
C357 C 0.3688 0.75948 0.24908 0.0
C358 C 0.36046 0.74819 0.05259 0.0
C359 C 0.31328 0.74268 0.18289 0.0
O360 O 0.32447 0.75699 0.1746 0.0
O361 O 0.31929 0.72549 0.17371 0.0
O362 O 0.36413 0.77405 0.21948 0.0
O363 O 0.36694 0.74231 0.22935 0.0
O364 O 0.041 0.60019 0.80428 0.0
Cd365 Cd 0.05602 0.59197 0.87173 0.0
Cd366 Cd 0.02214 0.60274 0.91353 0.0
O367 O 0.01644 0.61561 0.84096 0.0
O368 O 0.08332 0.5925 0.84517 0.0
O369 O 0.07216 0.61296 0.90576 0.0
C370 C 0.08596 0.60773 0.87411 0.0
C371 C 0.01919 0.61732 0.99641 0.0
C372 C 0.02614 0.61097 0.79996 0.0
C373 C 0.03219 0.56089 0.92281 0.0
O374 O 0.0186 0.57326 0.92019 0.0
O375 O 0.04939 0.56571 0.90946 0.0
O376 O 1.00415 0.61305 0.96807 0.0
O377 O 0.03611 0.6151 0.97511 0.0
O378 O 0.17702 0.29597 0.56309 0.0
Cd379 Cd 0.18335 0.3091 0.63448 0.0
Cd380 Cd 0.1744 0.27271 0.66477 0.0
O381 O 0.16208 0.26943 0.58931 0.0
O382 O 0.18387 0.33661 0.61004 0.0
O383 O 0.1617 0.32517 0.66541 0.0
C384 C 0.1679 0.33913 0.63571 0.0
C385 C 0.15992 0.26848 0.74762 0.0
C386 C 0.16688 0.2811 0.5524 0.0
C387 C 0.21514 0.28525 0.68227 0.0
O388 O 0.20411 0.2709 0.67259 0.0
O389 O 0.20903 0.30247 0.67453 0.0
O390 O 0.16436 0.25384 0.71799 0.0
O391 O 0.16167 0.28564 0.72739 0.0
O392 O 0.487 0.59879 0.18728 0.0
Cd393 Cd 0.47431 0.59318 0.11419 0.0
Cd394 Cd 0.51011 0.60213 0.08339 0.0
O395 O 0.51306 0.61389 0.1576 0.0
O396 O 0.44558 0.59477 0.12564 0.0
O397 O 0.46246 0.617 0.08194 0.0
C398 C 0.44616 0.61139 0.10215 0.0
C399 C 0.51787 0.61762 0.00503 0.0
C400 C 0.50208 0.60902 0.19578 0.0
C401 C 0.4982 0.56165 0.06474 0.0
O402 O 0.51247 0.57271 0.07455 0.0
O403 O 0.48096 0.56768 0.07268 0.0
O404 O 0.5312 0.61223 0.03794 0.0
O405 O 0.49995 0.61595 0.01948 0.0
O406 O 0.17042 0.73723 0.93203 0.0
Cd407 Cd 0.17965 0.72234 0.86538 0.0
Cd408 Cd 0.17047 0.75804 0.82558 0.0
O409 O 0.15765 0.76361 0.89726 0.0
O410 O 0.17992 0.69538 0.89429 0.0
O411 O 0.15972 0.70488 0.83097 0.0
C412 C 0.16519 0.69171 0.86426 0.0
C413 C 0.15546 0.76458 0.74523 0.0
C414 C 0.16083 0.75284 0.93709 0.0
C415 C 0.21206 0.74593 0.81852 0.0
O416 O 0.20012 0.75992 0.82004 0.0
O417 O 0.20654 0.72886 0.83088 0.0
O418 O 0.16129 0.77832 0.77618 0.0
O419 O 0.15687 0.74692 0.76199 0.0
O420 O 0.0448 0.42878 0.68837 0.0
Cd421 Cd 0.05673 0.43578 0.61602 0.0
Cd422 Cd 0.01987 0.42615 0.58968 0.0
O423 O 0.01851 0.41301 0.66358 0.0
O424 O 0.08453 0.43687 0.63794 0.0
O425 O 0.07286 0.41457 0.58314 0.0
C426 C 0.08703 0.42095 0.61198 0.0
C427 C 1.01173 0.41177 0.50922 0.0
C428 C 0.03052 0.41789 0.69954 0.0
C429 C 0.03144 0.46723 0.57293 0.0
O430 O 0.01753 0.45585 0.58409 0.0
O431 O 0.04893 0.46146 0.57778 0.0
O432 O 0.99862 0.41643 0.54353 0.0
O433 O 0.02973 0.41353 0.52304 0.0
O434 O 0.35155 0.28782 0.44946 0.0
Cd435 Cd 0.34551 0.29845 0.37434 0.0
Cd436 Cd 0.35783 0.26372 0.35045 0.0
O437 O 0.37091 0.26422 0.42335 0.0
O438 O 0.34665 0.32757 0.37965 0.0
O439 O 0.36961 0.30974 0.34231 0.0
C440 C 0.36376 0.32645 0.35893 0.0
C441 C 0.37271 0.25926 0.26947 0.0
C442 C 0.36416 0.27489 0.46001 0.0
C443 C 0.31645 0.27019 0.3316 0.0
O444 O 0.32879 0.25772 0.34678 0.0
O445 O 0.32095 0.28815 0.33237 0.0
O446 O 0.37029 0.24487 0.30167 0.0
O447 O 0.36833 0.27645 0.28588 0.0
H448 H 0.02228 0.1198 0.74884 0.0
H449 H 0.96083 0.10999 0.76858 0.0
H450 H 0.96386 0.11489 0.864 0.0
H451 H 0.98425 0.11827 0.94267 0.0
H452 H 0.04601 0.12623 0.92533 0.0
H453 H 0.0425 0.12622 0.82851 0.0
C454 C 1.00954 0.11902 0.77401 0.0
C455 C 0.99142 0.11425 0.75161 0.0
C456 C 1.01142 0.12149 0.82943 0.0
C457 C 0.97502 0.11332 0.78478 0.0
C458 C 0.97671 0.11618 0.83945 0.0
C459 C 0.99692 0.12041 0.91785 0.0
C460 C 0.01537 0.12209 0.94132 0.0
C461 C 0.99489 0.11973 0.86236 0.0
C462 C 0.03161 0.12486 0.90836 0.0
C463 C 0.02964 0.12471 0.85292 0.0
H464 H 0.15042 0.72908 0.01684 0.0
H465 H 0.15651 0.7895 0.97654 0.0
H466 H 0.15139 0.7985 0.06974 0.0
H467 H 0.15057 0.78858 0.16387 0.0
H468 H 0.14507 0.72789 0.20292 0.0
H469 H 0.144 0.71964 0.10881 0.0
C470 C 0.15031 0.74424 0.02842 0.0
C471 C 0.15425 0.7586 0.99046 0.0
C472 C 0.14749 0.74923 0.08178 0.0
C473 C 0.15365 0.7782 0.00539 0.0
C474 C 0.1508 0.78333 0.05863 0.0
C475 C 0.14855 0.77362 0.15179 0.0
C476 C 0.14832 0.75883 0.19026 0.0
C477 C 0.14846 0.7689 0.09745 0.0
C478 C 0.14557 0.73952 0.17404 0.0
C479 C 0.14508 0.73476 0.12021 0.0
H480 H 0.5546 0.9115 0.29181 0.0
H481 H 0.49388 0.90948 0.25045 0.0
H482 H 0.48558 0.90169 0.34251 0.0
H483 H 0.49538 0.89992 0.43633 0.0
H484 H 0.55623 0.90197 0.47712 0.0
H485 H 0.56471 0.90457 0.3834 0.0
C486 C 0.53957 0.90919 0.30297 0.0
C487 C 0.52482 0.91149 0.26497 0.0
C488 C 0.53494 0.90459 0.35572 0.0
C489 C 0.50545 0.90798 0.27935 0.0
C490 C 0.5007 0.90352 0.33191 0.0
C491 C 0.51052 0.90035 0.42466 0.0
C492 C 0.52512 0.90115 0.46371 0.0
C493 C 0.5153 0.90236 0.37072 0.0
C494 C 0.54468 0.90156 0.44788 0.0
C495 C 0.54956 0.90323 0.39429 0.0
H496 H 0.36631 0.30188 0.53753 0.0
H497 H 0.37627 0.24126 0.50594 0.0
H498 H 0.38256 0.23553 0.60039 0.0
H499 H 0.38061 0.24704 0.69265 0.0
H500 H 0.37063 0.30779 0.72364 0.0
H501 H 0.36964 0.31429 0.6285 0.0
C502 C 0.37006 0.28747 0.55137 0.0
C503 C 0.3704 0.27192 0.51537 0.0
C504 C 0.37373 0.28433 0.60547 0.0
C505 C 0.37575 0.2534 0.53324 0.0
C506 C 0.37932 0.25012 0.58716 0.0
C507 C 0.37874 0.26179 0.67864 0.0
C508 C 0.37527 0.27682 0.71516 0.0
C509 C 0.37773 0.26537 0.62382 0.0
C510 C 0.37311 0.29589 0.69637 0.0
C511 C 0.37237 0.29962 0.64192 0.0
H512 H 0.02071 0.9062 0.75962 0.0
H513 H 0.95975 0.91813 0.73757 0.0
H514 H 0.963 0.91338 0.6422 0.0
H515 H 0.98342 0.90893 0.56412 0.0
H516 H 0.04479 0.89896 0.5833 0.0
H517 H 0.04105 0.89945 0.68012 0.0
C518 C 1.00813 0.90751 0.73393 0.0
C519 C 0.99005 0.91273 0.75587 0.0
C520 C 1.01015 0.90513 0.67837 0.0
C521 C 0.9739 0.9144 0.72189 0.0
C522 C 0.97571 0.91163 0.6672 0.0
C523 C 0.99596 0.90647 0.58933 0.0
C524 C 0.01436 0.90394 0.56623 0.0
C525 C 0.99382 0.90743 0.64485 0.0
C526 C 0.03043 0.90091 0.59984 0.0
C527 C 0.02832 0.90133 0.65533 0.0
H528 H 0.37472 0.78448 0.82649 0.0
H529 H 0.36879 0.72438 0.78115 0.0
H530 H 0.36764 0.71497 0.87449 0.0
H531 H 0.36393 0.72418 0.96811 0.0
H532 H 0.36983 0.78411 0.01432 0.0
H533 H 0.37541 0.79322 0.92148 0.0
C534 C 0.37365 0.76928 0.83698 0.0
C535 C 0.37157 0.75519 0.79674 0.0
C536 C 0.37261 0.76397 0.89087 0.0
C537 C 0.3703 0.73555 0.81117 0.0
C538 C 0.36949 0.73015 0.86461 0.0
C539 C 0.3666 0.73922 0.9579 0.0
C540 C 0.3661 0.75351 0.99778 0.0
C541 C 0.36985 0.7443 0.90464 0.0
C542 C 0.37001 0.77287 0.98423 0.0
C543 C 0.37317 0.77808 0.93116 0.0
H544 H 0.48597 0.1239 0.07862 0.0
H545 H 0.54638 0.12653 0.0339 0.0
H546 H 0.55588 0.1258 0.12723 0.0
H547 H 0.54728 0.11953 0.22015 0.0
H548 H 0.48709 0.11674 0.266 0.0
H549 H 0.47725 0.12254 0.17371 0.0
C550 C 0.50119 0.12484 0.08929 0.0
C551 C 0.51544 0.12497 0.04914 0.0
C552 C 0.50661 0.12401 0.14323 0.0
C553 C 0.5351 0.12626 0.06382 0.0
C554 C 0.54057 0.1257 0.11727 0.0
C555 C 0.532 0.12045 0.21004 0.0
C556 C 0.51793 0.11735 0.24957 0.0
C557 C 0.52649 0.12375 0.15707 0.0
C558 C 0.4982 0.11897 0.23619 0.0
C559 C 0.49257 0.12221 0.18339 0.0
H560 H 0.16012 0.24698 0.49832 0.0
H561 H 0.15984 0.30917 0.48041 0.0
H562 H 0.15417 0.30588 0.38538 0.0
H563 H 0.15335 0.28565 0.30583 0.0
H564 H 0.15544 0.22342 0.32102 0.0
H565 H 0.15591 0.22639 0.41792 0.0
C566 C 0.15846 0.25975 0.47365 0.0
C567 C 0.16067 0.27828 0.49639 0.0
C568 C 0.15562 0.25778 0.41823 0.0
C569 C 0.15851 0.29472 0.46385 0.0
C570 C 0.15523 0.29288 0.40939 0.0
C571 C 0.15346 0.27269 0.33024 0.0
C572 C 0.1545 0.25437 0.30598 0.0
C573 C 0.15436 0.27451 0.38587 0.0
C574 C 0.15468 0.23776 0.3385 0.0
C575 C 0.15509 0.23944 0.39405 0.0
H576 H 0.99693 0.90549 0.25907 0.0
H577 H 0.05898 0.9099 0.23939 0.0
H578 H 0.05561 0.90501 0.14407 0.0
H579 H 0.03508 0.90333 0.06506 0.0
H580 H 0.97288 0.90052 0.0822 0.0
H581 H 0.9763 0.90052 0.17903 0.0
C582 C 1.0097 0.90503 0.23396 0.0
C583 C 0.02815 0.90832 0.25643 0.0
C584 C 1.00766 0.90259 0.1784 0.0
C585 C 0.04456 0.90771 0.2232 0.0
C586 C 0.04268 0.90488 0.16854 0.0
C587 C 0.02226 0.90228 0.08984 0.0
C588 C 1.00376 0.90205 0.06615 0.0
C589 C 0.02429 0.90287 0.14548 0.0
C590 C 0.98733 0.90074 0.09919 0.0
C591 C 0.98926 0.90087 0.15472 0.0
H592 H 0.86919 0.29816 0.97362 0.0
H593 H 0.86656 0.23702 0.00835 0.0
H594 H 0.87228 0.22944 0.91455 0.0
H595 H 0.87428 0.24043 0.82165 0.0
H596 H 0.87727 0.30175 0.78805 0.0
H597 H 0.87571 0.30899 0.8827 0.0
C598 C 0.87001 0.28318 0.96061 0.0
C599 C 0.86707 0.26816 0.99731 0.0
C600 C 0.87345 0.27897 0.90698 0.0
C601 C 0.86863 0.24881 0.9805 0.0
C602 C 0.87188 0.24448 0.92696 0.0
C603 C 0.87506 0.25535 0.83508 0.0
C604 C 0.87555 0.27052 0.79778 0.0
C605 C 0.87383 0.25947 0.88964 0.0
C606 C 0.8767 0.28978 0.81587 0.0
C607 C 0.87567 0.29397 0.87001 0.0
H608 H 0.52188 0.11856 0.74914 0.0
H609 H 0.46129 0.10385 0.73175 0.0
H610 H 0.46347 0.10835 0.63606 0.0
H611 H 0.48296 0.11338 0.55681 0.0
H612 H 0.5441 0.12584 0.57136 0.0
H613 H 0.54122 0.12579 0.66843 0.0
C614 C 0.50914 0.11655 0.72438 0.0
C615 C 0.49151 0.11064 0.74758 0.0
C616 C 0.51056 0.11879 0.6688 0.0
C617 C 0.47511 0.1081 0.71494 0.0
C618 C 0.47631 0.11075 0.66014 0.0
C619 C 0.49563 0.11647 0.58104 0.0
C620 C 0.51373 0.11954 0.55675 0.0
C621 C 0.49403 0.11566 0.63656 0.0
C622 C 0.52997 0.12344 0.58899 0.0
C623 C 0.52836 0.12326 0.64454 0.0
H624 H 0.65341 0.7711 0.4919 0.0
H625 H 0.67463 0.71261 0.47465 0.0
H626 H 0.66958 0.71414 0.37898 0.0
H627 H 0.66218 0.73294 0.29909 0.0
H628 H 0.64328 0.79223 0.31417 0.0
H629 H 0.64396 0.78943 0.41116 0.0
C630 C 0.6567 0.75865 0.4672 0.0
C631 C 0.66459 0.74185 0.49051 0.0
C632 C 0.65415 0.75974 0.41156 0.0
C633 C 0.66881 0.72583 0.45783 0.0
C634 C 0.66586 0.72665 0.40299 0.0
C635 C 0.65773 0.7451 0.32355 0.0
C636 C 0.65261 0.76273 0.29935 0.0
C637 C 0.65893 0.74364 0.37924 0.0
C638 C 0.64722 0.77846 0.33177 0.0
C639 C 0.64775 0.77691 0.3873 0.0
H640 H 0.98746 0.12346 0.41876 0.0
H641 H 0.04737 0.12103 0.46886 0.0
H642 H 0.0578 0.11986 0.37647 0.0
H643 H 0.04982 0.11518 0.28232 0.0
H644 H 0.99019 0.118 0.2309 0.0
H645 H 0.97976 0.12344 0.3228 0.0
C646 C 1.00282 0.12316 0.40947 0.0
C647 C 0.01658 0.12205 0.45086 0.0
C648 C 1.00877 0.1222 0.356 0.0
C649 C 0.03643 0.12175 0.43796 0.0
C650 C 0.04244 0.12094 0.38504 0.0
C651 C 0.03455 0.11719 0.2912 0.0
C652 C 0.02075 0.11585 0.25013 0.0
C653 C 0.02871 0.12041 0.34391 0.0
C654 C 1.00107 0.11887 0.26194 0.0
C655 C 0.9951 0.12193 0.31449 0.0
H656 H 0.66056 0.2846 0.18722 0.0
H657 H 0.64988 0.22321 0.17297 0.0
H658 H 0.64937 0.22607 0.07596 0.0
H659 H 0.65594 0.24554 0.99478 0.0
H660 H 0.66895 0.30642 0.01175 0.0
H661 H 0.66451 0.30424 0.10751 0.0
C662 C 0.65769 0.27188 0.16306 0.0
C663 C 0.65533 0.25372 0.1875 0.0
C664 C 0.65815 0.27351 0.1074 0.0
C665 C 0.65176 0.2374 0.15529 0.0
C666 C 0.6516 0.239 0.09971 0.0
C667 C 0.6575 0.25833 0.01948 0.0
C668 C 0.66298 0.27606 0.99617 0.0
C669 C 0.6554 0.25689 0.07521 0.0
C670 C 0.66501 0.29253 0.02871 0.0
C671 C 0.66243 0.29133 0.08356 0.0
H672 H 0.48008 0.91085 0.79075 0.0
H673 H 0.54086 0.9114 0.75026 0.0
H674 H 0.54946 0.90611 0.84357 0.0
H675 H 0.53963 0.90535 0.93749 0.0
H676 H 0.47869 0.90473 0.97713 0.0
H677 H 0.47024 0.90544 0.88309 0.0
C678 C 0.4952 0.90967 0.80238 0.0
C679 C 0.50984 0.91192 0.76415 0.0
C680 C 0.5 0.90652 0.85582 0.0
C681 C 0.52936 0.90989 0.77927 0.0
C682 C 0.53428 0.90687 0.83254 0.0
C683 C 0.52451 0.90487 0.92555 0.0
C684 C 0.50982 0.90534 0.96428 0.0
C685 C 0.51972 0.90569 0.87134 0.0
C686 C 0.49029 0.90457 0.94814 0.0
C687 C 0.48542 0.90512 0.89434 0.0
H688 H 0.8624 0.72787 0.7131 0.0
H689 H 0.88268 0.78697 0.70585 0.0
H690 H 0.88178 0.78585 0.6086 0.0
H691 H 0.87116 0.76937 0.52628 0.0
H692 H 0.84813 0.71128 0.53587 0.0
H693 H 0.85412 0.71073 0.63132 0.0
C694 C 0.86713 0.74035 0.69027 0.0
C695 C 0.87259 0.75747 0.71658 0.0
C696 C 0.86566 0.73991 0.63467 0.0
C697 C 0.87842 0.7736 0.68643 0.0
C698 C 0.87775 0.77302 0.63085 0.0
C699 C 0.86768 0.75654 0.54926 0.0
C700 C 0.85898 0.7405 0.52417 0.0
C701 C 0.87072 0.75648 0.6046 0.0
C702 C 0.85454 0.72395 0.55438 0.0
C703 C 0.85804 0.72357 0.60896 0.0
H704 H 0.47754 0.61419 0.27823 0.0
H705 H 0.5381 0.6166 0.23575 0.0
H706 H 0.54689 0.62194 0.32887 0.0
H707 H 0.53751 0.62151 0.42312 0.0
H708 H 0.47681 0.61908 0.46492 0.0
H709 H 0.46791 0.61876 0.37117 0.0
C710 C 0.49264 0.61607 0.28938 0.0
C711 C 0.50718 0.61459 0.25061 0.0
C712 C 0.49756 0.6192 0.34279 0.0
C713 C 0.52666 0.61751 0.26514 0.0
C714 C 0.53169 0.62054 0.31833 0.0
C715 C 0.52232 0.62143 0.41175 0.0
C716 C 0.50787 0.61993 0.45094 0.0
C717 C 0.51729 0.62082 0.35767 0.0
C718 C 0.48825 0.62001 0.43554 0.0
C719 C 0.48313 0.61968 0.3819 0.0
H720 H 0.65676 0.2698 0.49355 0.0
H721 H 0.66332 0.20789 0.51008 0.0
H722 H 0.6576 0.2103 0.60521 0.0
H723 H 0.6547 0.23015 0.68528 0.0
H724 H 0.64969 0.29223 0.67099 0.0
H725 H 0.6504 0.28954 0.57411 0.0
C726 C 0.65661 0.25684 0.5179 0.0
C727 C 0.66077 0.23875 0.49467 0.0
C728 C 0.65366 0.25833 0.57332 0.0
C729 C 0.6605 0.22207 0.5269 0.0
C730 C 0.65718 0.22339 0.58145 0.0
C731 C 0.65328 0.24307 0.66104 0.0
C732 C 0.65228 0.26135 0.68554 0.0
C733 C 0.65432 0.24149 0.60536 0.0
C734 C 0.65054 0.27794 0.65329 0.0
C735 C 0.65108 0.27644 0.59776 0.0
H736 H 0.99736 0.40807 0.75349 0.0
H737 H 0.05958 0.41219 0.76979 0.0
H738 H 0.05718 0.40514 0.86427 0.0
H739 H 0.03742 0.40241 0.94387 0.0
H740 H 0.97503 0.40062 0.93071 0.0
H741 H 0.97749 0.40154 0.83373 0.0
C742 C 1.01036 0.40708 0.77769 0.0
C743 C 0.02857 0.41099 0.75491 0.0
C744 C 1.00886 0.40348 0.8327 0.0
C745 C 0.04534 0.40962 0.78661 0.0
C746 C 0.04401 0.40552 0.84066 0.0
C747 C 0.02434 0.40175 0.91989 0.0
C748 C 1.00608 0.40171 0.94461 0.0
C749 C 0.02583 0.4031 0.86444 0.0
C750 C 0.9893 0.40075 0.91275 0.0
C751 C 0.99069 0.40146 0.85722 0.0
H752 H 0.87372 0.73826 0.19905 0.0
H753 H 0.86966 0.79917 0.23702 0.0
H754 H 0.86853 0.8071 0.14264 0.0
H755 H 0.86411 0.79644 0.05015 0.0
H756 H 0.8689 0.73576 0.01133 0.0
H757 H 0.87435 0.72802 0.1052 0.0
C758 C 0.87306 0.75331 0.18668 0.0
C759 C 0.87146 0.76806 0.22514 0.0
C760 C 0.87217 0.75778 0.13222 0.0
C761 C 0.87081 0.78749 0.20838 0.0
C762 C 0.86999 0.79205 0.15434 0.0
C763 C 0.86657 0.78155 0.06227 0.0
C764 C 0.86574 0.76663 0.02425 0.0
C765 C 0.86987 0.77726 0.11607 0.0
C766 C 0.86935 0.74745 0.04007 0.0
C767 C 0.87242 0.74303 0.0937 0.0
H768 H 0.53938 0.39953 0.07346 0.0
H769 H 0.47885 0.40168 0.02919 0.0
H770 H 0.46956 0.4019 0.12258 0.0
H771 H 0.47876 0.40625 0.21601 0.0
H772 H 0.53915 0.40412 0.26092 0.0
H773 H 0.54836 0.39911 0.16807 0.0
C774 C 0.52414 0.39954 0.08421 0.0
C775 C 0.50986 0.40095 0.04443 0.0
C776 C 0.51888 0.40008 0.13808 0.0
C777 C 0.49017 0.40081 0.05903 0.0
C778 C 0.48482 0.40108 0.11247 0.0
C779 C 0.49392 0.40451 0.20545 0.0
C780 C 0.50829 0.40595 0.24488 0.0
C781 C 0.49908 0.40157 0.15219 0.0
C782 C 0.52784 0.40323 0.23105 0.0
C783 C 0.53311 0.40039 0.17801 0.0
H784 H 0.88305 0.28297 0.3204 0.0
H785 H 0.87821 0.22177 0.28662 0.0
H786 H 0.87823 0.21462 0.38145 0.0
H787 H 0.87365 0.22616 0.47268 0.0
H788 H 0.87788 0.28726 0.50716 0.0
H789 H 0.8842 0.29405 0.41327 0.0
C790 C 0.88256 0.26803 0.33372 0.0
C791 C 0.88016 0.25297 0.29655 0.0
C792 C 0.88205 0.26404 0.3884 0.0
C793 C 0.87979 0.23367 0.31443 0.0
C794 C 0.87965 0.22956 0.36869 0.0
C795 C 0.87625 0.24093 0.45968 0.0
C796 C 0.87485 0.25625 0.49625 0.0
C797 C 0.87975 0.2447 0.40585 0.0
C798 C 0.87871 0.27527 0.47944 0.0
C799 C 0.88226 0.27915 0.4258 0.0
H800 H 0.0495 0.6179 0.71615 0.0
H801 H 0.98945 0.61873 0.76375 0.0
H802 H 0.9796 0.62482 0.67153 0.0
H803 H 0.98806 0.6256 0.57614 0.0
H804 H 0.04837 0.62474 0.52989 0.0
H805 H 0.05812 0.62348 0.62296 0.0
C806 C 0.03426 0.61964 0.7064 0.0
C807 C 0.02018 0.61751 0.74638 0.0
C808 C 0.02877 0.62315 0.65355 0.0
C809 C 1.00053 0.62021 0.73353 0.0
C810 C 0.99491 0.62362 0.68081 0.0
C811 C 1.00334 0.62565 0.58643 0.0
C812 C 0.01744 0.62497 0.54592 0.0
C813 C 1.00889 0.62454 0.64024 0.0
C814 C 0.03719 0.62512 0.5601 0.0
C815 C 0.0428 0.62425 0.61339 0.0
H816 H 0.65174 0.75229 0.991 0.0
H817 H 0.66888 0.81218 0.975 0.0
H818 H 0.66425 0.81042 0.87917 0.0
H819 H 0.65902 0.79109 0.79891 0.0
H820 H 0.64418 0.73058 0.81292 0.0
H821 H 0.6438 0.73346 0.90986 0.0
C822 C 0.65416 0.765 0.96654 0.0
C823 C 0.66087 0.78226 0.99016 0.0
C824 C 0.65191 0.76379 0.91083 0.0
C825 C 0.66399 0.79861 0.95785 0.0
C826 C 0.66129 0.79766 0.90293 0.0
C827 C 0.6552 0.77864 0.82307 0.0
C828 C 0.65165 0.76066 0.79862 0.0
C829 C 0.65577 0.78021 0.87881 0.0
C830 C 0.64697 0.74462 0.8307 0.0
C831 C 0.64688 0.74622 0.88622 0.0
H832 H 0.55578 0.41 0.71683 0.0
H833 H 0.49544 0.40609 0.76088 0.0
H834 H 0.48671 0.39834 0.66901 0.0
H835 H 0.4959 0.39672 0.57484 0.0
H836 H 0.55635 0.40075 0.53124 0.0
H837 H 0.56541 0.40376 0.62457 0.0
C838 C 0.54074 0.40733 0.7063 0.0
C839 C 0.52622 0.40903 0.74509 0.0
C840 C 0.53586 0.40277 0.65363 0.0
C841 C 0.50685 0.40505 0.73143 0.0
C842 C 0.50185 0.40062 0.67897 0.0
C843 C 0.5111 0.39772 0.5858 0.0
C844 C 0.52539 0.39886 0.54608 0.0
C845 C 0.51619 0.39994 0.6395 0.0
C846 C 0.54503 0.40003 0.561 0.0
C847 C 0.55023 0.40193 0.61437 0.0
H848 H 0.3642 0.79233 0.30637 0.0
H849 H 0.38109 0.73239 0.32131 0.0
H850 H 0.38007 0.73515 0.41827 0.0
H851 H 0.3706 0.75365 0.49847 0.0
H852 H 0.35172 0.81297 0.481 0.0
H853 H 0.35721 0.81132 0.38568 0.0
C854 C 0.3681 0.77996 0.33073 0.0
C855 C 0.37263 0.76217 0.30656 0.0
C856 C 0.36673 0.78143 0.38622 0.0
C857 C 0.37753 0.74627 0.33889 0.0
C858 C 0.3768 0.7478 0.39437 0.0
C859 C 0.36787 0.76624 0.47381 0.0
C860 C 0.36048 0.7833 0.49688 0.0
C861 C 0.37077 0.76513 0.41846 0.0
C862 C 0.3571 0.79954 0.46434 0.0
C863 C 0.36032 0.79866 0.40972 0.0
H864 H 0.9859 0.61734 0.05293 0.0
H865 H 0.04765 0.62571 0.06969 0.0
H866 H 0.04435 0.62557 0.16666 0.0
H867 H 0.02423 0.6192 0.24657 0.0
H868 H 0.96292 0.60847 0.22677 0.0
H869 H 0.96578 0.61333 0.13135 0.0
C870 C 0.99864 0.61951 0.07763 0.0
C871 C 0.01701 0.62143 0.05397 0.0
C872 C 0.99674 0.61864 0.13305 0.0
C873 C 0.03332 0.6242 0.0868 0.0
C874 C 0.03146 0.62397 0.14231 0.0
C875 C 1.0115 0.61816 0.22134 0.0
C876 C 0.99344 0.61324 0.24373 0.0
C877 C 1.01331 0.62057 0.16589 0.0
C878 C 0.97705 0.61193 0.21054 0.0
C879 C 0.97864 0.61479 0.15591 0.0
H880 H 0.16284 0.23513 0.80376 0.0
H881 H 0.14939 0.29581 0.82185 0.0
H882 H 0.1496 0.29217 0.91875 0.0
H883 H 0.15726 0.27234 0.99865 0.0
H884 H 0.17307 0.21232 0.97765 0.0
H885 H 0.16827 0.21512 0.88209 0.0
C886 C 0.15956 0.24752 0.82872 0.0
C887 C 0.15613 0.26573 0.80535 0.0
C888 C 0.16043 0.24549 0.88425 0.0
C889 C 0.15205 0.28161 0.83864 0.0
C890 C 0.1523 0.27956 0.89415 0.0
C891 C 0.15938 0.25985 0.97312 0.0
C892 C 0.1657 0.24219 0.9953 0.0
C893 C 0.15705 0.26168 0.9175 0.0
C894 C 0.16846 0.22614 0.96164 0.0
C895 C 0.16567 0.22771 0.9069 0.0
H896 H 0.55324 0.61208 0.77788 0.0
H897 H 0.4926 0.61259 0.73517 0.0
H898 H 0.48385 0.61996 0.82719 0.0
H899 H 0.49334 0.62221 0.92119 0.0
H900 H 0.5541 0.62176 0.96331 0.0
H901 H 0.5629 0.61908 0.86983 0.0
C902 C 0.53812 0.61394 0.78875 0.0
C903 C 0.52355 0.61138 0.7503 0.0
C904 C 0.53322 0.61832 0.84147 0.0
C905 C 0.50405 0.6143 0.76437 0.0
C906 C 0.49904 0.61852 0.81691 0.0
C907 C 0.50851 0.62206 0.90986 0.0
C908 C 0.52301 0.62183 0.94924 0.0
C909 C 0.51349 0.62005 0.85604 0.0
C910 C 0.54262 0.62176 0.93383 0.0
C911 C 0.54769 0.62006 0.88037 0.0
H912 H 0.15523 0.79882 0.51637 0.0
H913 H 0.15859 0.7382 0.47557 0.0
H914 H 0.15294 0.72938 0.56859 0.0
H915 H 0.15163 0.73922 0.66278 0.0
H916 H 0.14853 0.80006 0.70232 0.0
H917 H 0.14897 0.80844 0.60832 0.0
C918 C 0.1545 0.78367 0.5278 0.0
C919 C 0.15772 0.76917 0.48965 0.0
C920 C 0.15128 0.77876 0.58106 0.0
C921 C 0.1563 0.7496 0.50451 0.0
C922 C 0.15313 0.74457 0.55765 0.0
C923 C 0.15052 0.75427 0.65078 0.0
C924 C 0.15041 0.769 0.68949 0.0
C925 C 0.15121 0.75905 0.59652 0.0
C926 C 0.14887 0.78844 0.67332 0.0
C927 C 0.14924 0.79328 0.61956 0.0
H928 H 0.97419 0.41389 0.2825 0.0
H929 H 0.03422 0.41132 0.23518 0.0
H930 H 0.04399 0.40645 0.32799 0.0
H931 H 0.03551 0.40652 0.42343 0.0
H932 H 0.97517 0.40842 0.46919 0.0
H933 H 0.9655 0.40949 0.37612 0.0
C934 C 0.98941 0.4121 0.29251 0.0
C935 C 1.0035 0.41331 0.25237 0.0
C936 C 0.99486 0.40914 0.34566 0.0
C937 C 0.02312 0.41055 0.26556 0.0
C938 C 0.0287 0.40781 0.31859 0.0
C939 C 0.02023 0.40671 0.41303 0.0
C940 C 1.00612 0.40767 0.4534 0.0
C941 C 0.01472 0.40755 0.35916 0.0
C942 C 0.98638 0.40782 0.43909 0.0
C943 C 0.9808 0.40856 0.38579 0.0
H944 H 0.37557 0.28602 0.19071 0.0
H945 H 0.37831 0.22444 0.22046 0.0
H946 H 0.37571 0.21799 0.12543 0.0
H947 H 0.368 0.22966 0.03582 0.0
H948 H 0.3653 0.29111 0.00543 0.0
H949 H 0.37245 0.29782 0.09902 0.0
C950 C 0.37608 0.2712 0.17635 0.0
C951 C 0.37676 0.25573 0.21268 0.0
C952 C 0.37413 0.26756 0.12174 0.0
C953 C 0.37762 0.23662 0.19339 0.0
C954 C 0.37596 0.2329 0.13906 0.0
C955 C 0.36909 0.24451 0.04973 0.0
C956 C 0.3657 0.25988 0.01438 0.0
C957 C 0.37336 0.24822 0.10324 0.0
C958 C 0.36766 0.27906 0.03227 0.0
C959 C 0.37175 0.28289 0.08567 0.0
H960 H 0.99625 0.04661 0.04746 0.0
H961 H 0.05704 0.03157 0.04697 0.0
H962 H 0.04909 0.99977 0.00946 0.0
H963 H 0.0249 0.97647 0.97557 0.0
H964 H 0.96414 0.99167 0.97691 0.0
H965 H 0.97214 0.02326 0.01519 0.0
C966 C 1.00783 0.03641 0.03938 0.0
C967 C 0.02728 0.04159 0.0501 0.0
C968 C 1.00315 0.01819 0.01769 0.0
C969 C 0.04198 0.02804 0.03931 0.0
C970 C 0.03743 1.00985 0.01769 0.0
C971 C 1.01337 0.98668 0.98406 0.0
C972 C 0.9939 0.98164 0.973 0.0
C973 C 0.01807 1.00482 0.00643 0.0
C974 C 0.97922 0.99509 0.9848 0.0
C975 C 0.98379 0.01318 0.00676 0.0
H976 H 0.22811 0.74562 0.27682 0.0
H977 H 0.24341 0.80593 0.29629 0.0
H978 H 0.27538 0.79955 0.25811 0.0
H979 H 0.29878 0.77704 0.2183 0.0
H980 H 0.28365 0.71668 0.19927 0.0
H981 H 0.25172 0.72299 0.23805 0.0
C982 C 0.23843 0.75741 0.27298 0.0
C983 C 0.23325 0.77628 0.28956 0.0
C984 C 0.25677 0.75365 0.25077 0.0
C985 C 0.24691 0.79129 0.28408 0.0
C986 C 0.2652 0.78765 0.26208 0.0
C987 C 0.28852 0.76521 0.22237 0.0
C988 C 0.29366 0.74638 0.2055 0.0
C989 C 0.27024 0.76892 0.24504 0.0
C990 C 0.28013 0.7313 0.21168 0.0
C991 C 0.26186 0.7349 0.23394 0.0
H992 H 0.49727 0.04475 0.46299 0.0
H993 H 0.55736 0.03024 0.43526 0.0
H994 H 0.55259 0.99903 0.47923 0.0
H995 H 0.53168 0.97631 0.52767 0.0
H996 H 0.47159 0.99075 0.5552 0.0
H997 H 0.47615 0.02167 0.5094 0.0
C998 C 0.50934 0.03473 0.4661 0.0
C999 C 0.52769 0.03992 0.44574 0.0
C1000 C 0.50654 0.01688 0.49188 0.0
C1001 C 0.54309 0.02668 0.45038 0.0
C1002 C 0.54039 1.00884 0.47575 0.0
C1003 C 0.51956 0.98623 0.52393 0.0
C1004 C 0.50133 0.98123 0.54533 0.0
C1005 C 0.52225 1.0039 0.49715 0.0
C1006 C 0.48578 0.99422 0.5394 0.0
C1007 C 0.48837 1.01189 0.51309 0.0
H1008 H 0.29792 0.28471 0.79066 0.0
H1009 H 0.28554 0.22344 0.80004 0.0
H1010 H 0.25439 0.22872 0.75551 0.0
H1011 H 0.23068 0.25076 0.71416 0.0
H1012 H 0.24335 0.31199 0.705 0.0
H1013 H 0.2745 0.30658 0.74886 0.0
C1014 C 0.28842 0.27246 0.78327 0.0
C1015 C 0.29411 0.25368 0.79904 0.0
C1016 C 0.27062 0.27557 0.75732 0.0
C1017 C 0.28157 0.23804 0.7886 0.0
C1018 C 0.26376 0.24105 0.76299 0.0
C1019 C 0.24028 0.26294 0.72139 0.0
C1020 C 0.23461 0.28179 0.70606 0.0
C1021 C 0.25816 0.25975 0.74706 0.0
C1022 C 0.24728 0.29735 0.71616 0.0
C1023 C 0.2651 0.29427 0.74142 0.0
H1024 H 0.99597 0.97759 0.46345 0.0
H1025 H 0.05687 0.99237 0.46581 0.0
H1026 H 0.04912 0.0239 0.5048 0.0
H1027 H 0.02519 0.0471 0.53893 0.0
H1028 H 0.96427 0.0324 0.53639 0.0
H1029 H 0.97199 1.00091 0.49706 0.0
C1030 C 1.0076 0.98771 0.47217 0.0
C1031 C 0.02703 0.98253 0.46147 0.0
C1032 C 1.00305 1.00578 0.49494 0.0
C1033 C 0.04181 0.9959 0.47339 0.0
C1034 C 0.03739 0.01394 0.49587 0.0
C1035 C 0.01354 0.03701 0.53007 0.0
C1036 C 0.99413 0.04217 0.54096 0.0
C1037 C 0.01808 0.01898 0.50706 0.0
C1038 C 0.97932 0.02887 0.52869 0.0
C1039 C 0.98373 1.01085 0.50605 0.0
H1040 H 0.22847 0.78089 0.79627 0.0
H1041 H 0.24068 0.71952 0.79598 0.0
H1042 H 0.27261 0.72585 0.75733 0.0
H1043 H 0.29664 0.74871 0.72133 0.0
H1044 H 0.2845 0.81008 0.72284 0.0
H1045 H 0.25286 0.80378 0.76315 0.0
C1046 C 0.23811 0.76885 0.78806 0.0
C1047 C 0.23207 0.74971 0.79896 0.0
C1048 C 0.25641 0.77259 0.76567 0.0
C1049 C 0.24489 0.73437 0.78817 0.0
C1050 C 0.26314 0.73798 0.76583 0.0
C1051 C 0.28707 0.76074 0.73028 0.0
C1052 C 0.29292 0.77987 0.71857 0.0
C1053 C 0.26896 0.75702 0.75393 0.0
C1054 C 0.28038 0.79524 0.73119 0.0
C1055 C 0.26228 0.79164 0.7543 0.0
H1056 H 0.49678 0.98232 0.0609 0.0
H1057 H 0.55806 0.99507 0.05249 0.0
H1058 H 0.55089 0.02603 0.00946 0.0
H1059 H 0.52729 0.04915 0.97267 0.0
H1060 H 0.46604 0.03636 0.98173 0.0
H1061 H 0.47322 1.00565 0.02585 0.0
C1062 C 0.50863 0.99188 0.04997 0.0
C1063 C 0.52797 0.98629 0.06001 0.0
C1064 C 0.50441 1.0096 0.02498 0.0
C1065 C 0.54305 0.99895 0.04544 0.0
C1066 C 0.53896 0.01665 0.02063 0.0
C1067 C 0.51547 0.03964 0.98408 0.0
C1068 C 0.49612 0.04507 0.97351 0.0
C1069 C 0.5197 0.02205 0.00984 0.0
C1070 C 0.48105 0.03258 0.98916 0.0
C1071 C 0.48515 0.01501 0.01448 0.0
H1072 H 0.24222 0.22582 0.24516 0.0
H1073 H 0.22907 0.28293 0.18531 0.0
H1074 H 0.25865 0.29566 0.2254 0.0
H1075 H 0.28862 0.29074 0.27736 0.0
H1076 H 0.30168 0.23359 0.33721 0.0
H1077 H 0.27196 0.22097 0.29785 0.0
C1078 C 0.24587 0.24102 0.24064 0.0
C1079 C 0.23337 0.2533 0.21199 0.0
C1080 C 0.26294 0.24838 0.26423 0.0
C1081 C 0.23835 0.27304 0.20703 0.0
C1082 C 0.2553 0.28041 0.23008 0.0
C1083 C 0.28489 0.27557 0.28216 0.0
C1084 C 0.29747 0.26322 0.31035 0.0
C1085 C 0.26772 0.26825 0.25893 0.0
C1086 C 0.29237 0.24353 0.31574 0.0
C1087 C 0.27533 0.23622 0.29309 0.0
H1088 H 0.78729 0.23191 0.71506 0.0
H1089 H 0.79969 0.28986 0.66034 0.0
H1090 H 0.76923 0.30141 0.69785 0.0
H1091 H 0.73926 0.29539 0.74871 0.0
H1092 H 0.7272 0.23744 0.80438 0.0
H1093 H 0.75714 0.22579 0.76457 0.0
C1094 C 0.78322 0.24701 0.71076 0.0
C1095 C 0.79582 0.25993 0.68477 0.0
C1096 C 0.76573 0.2537 0.73326 0.0
C1097 C 0.79033 0.27953 0.68017 0.0
C1098 C 0.7729 0.28621 0.70179 0.0
C1099 C 0.74322 0.28024 0.75233 0.0
C1100 C 0.73092 0.26741 0.77981 0.0
C1101 C 0.76056 0.27349 0.72903 0.0
C1102 C 0.73631 0.24775 0.78363 0.0
C1103 C 0.75347 0.24099 0.7607 0.0
H1104 H 0.73682 0.79695 0.24533 0.0
H1105 H 0.7277 0.74248 0.16442 0.0
H1106 H 0.75704 0.72936 0.2044 0.0
H1107 H 0.78519 0.73292 0.26359 0.0
H1108 H 0.79454 0.7873 0.34467 0.0
H1109 H 0.76537 0.80066 0.30388 0.0
C1110 C 0.74136 0.78229 0.23607 0.0
C1111 C 0.72998 0.77079 0.20184 0.0
C1112 C 0.75828 0.77465 0.25971 0.0
C1113 C 0.73607 0.75172 0.19069 0.0
C1114 C 0.75288 0.74413 0.21365 0.0
C1115 C 0.7808 0.74765 0.2726 0.0
C1116 C 0.79207 0.75899 0.3074 0.0
C1117 C 0.76402 0.75538 0.24861 0.0
C1118 C 0.78618 0.77815 0.31813 0.0
C1119 C 0.76948 0.78587 0.29469 0.0
H1120 H 0.7309 0.27283 0.28311 0.0
H1121 H 0.74607 0.21222 0.29351 0.0
H1122 H 0.77791 0.21921 0.25575 0.0
H1123 H 0.8012 0.24225 0.21858 0.0
H1124 H 0.78632 0.30288 0.20738 0.0
H1125 H 0.75454 0.29608 0.24652 0.0
C1126 C 0.7412 0.26113 0.27747 0.0
C1127 C 0.73602 0.24199 0.29131 0.0
C1128 C 0.75948 0.26523 0.25527 0.0
C1129 C 0.74959 0.22707 0.28335 0.0
C1130 C 0.76781 0.23105 0.26162 0.0
C1131 C 0.79104 0.25404 0.2245 0.0
C1132 C 0.7962 0.27308 0.20975 0.0
C1133 C 0.77286 0.25004 0.24714 0.0
C1134 C 0.78278 0.2881 0.21814 0.0
C1135 C 0.7646 0.28422 0.24063 0.0
H1136 H 0.73804 0.7265 0.75036 0.0
H1137 H 0.72798 0.78276 0.6807 0.0
H1138 H 0.757 0.79541 0.72374 0.0
H1139 H 0.78576 0.79065 0.78085 0.0
H1140 H 0.79598 0.73432 0.84975 0.0
H1141 H 0.76658 0.72183 0.80815 0.0
C1142 C 0.74225 0.74148 0.74433 0.0
C1143 C 0.73075 0.75354 0.71204 0.0
C1144 C 0.75904 0.74882 0.7696 0.0
C1145 C 0.73646 0.77302 0.7052 0.0
C1146 C 0.7531 0.78036 0.72998 0.0
C1147 C 0.78142 0.77572 0.78726 0.0
C1148 C 0.79314 0.76353 0.81857 0.0
C1149 C 0.76452 0.76844 0.76244 0.0
C1150 C 0.78733 0.74411 0.82583 0.0
C1151 C 0.77049 0.73688 0.80188 0.0
H1152 H 0.49843 0.54195 0.53415 0.0
H1153 H 0.55972 0.52927 0.54198 0.0
H1154 H 0.5539 0.49775 0.50051 0.0
H1155 H 0.53158 0.47391 0.46177 0.0
H1156 H 0.47025 0.48635 0.4541 0.0
H1157 H 0.47601 0.51796 0.49555 0.0
C1158 C 0.51056 0.5323 0.52704 0.0
C1159 C 0.52954 0.53806 0.54141 0.0
C1160 C 0.50712 0.5142 0.50291 0.0
C1161 C 0.54499 0.52529 0.53156 0.0
C1162 C 0.54167 0.50725 0.5077 0.0
C1163 C 0.51941 0.48352 0.46886 0.0
C1164 C 0.50046 0.47769 0.4545 0.0
C1165 C 0.52282 0.50159 0.49305 0.0
C1166 C 0.48496 0.4904 0.46449 0.0
C1167 C 0.48826 0.50848 0.48833 0.0
H1168 H 0.02753 0.47676 0.02236 0.0
H1169 H 0.96786 0.49394 0.04456 0.0
H1170 H 0.97465 0.52505 1.00191 0.0
H1171 H 0.9975 0.54744 0.95928 0.0
H1172 H 0.0572 0.53034 0.93705 0.0
H1173 H 0.05031 0.49901 0.97843 0.0
C1174 C 0.01597 0.4873 0.01809 0.0
C1175 C 0.99719 0.48298 0.03703 0.0
C1176 C 0.01996 0.50513 0.99325 0.0
C1177 C 0.98244 0.49683 0.03061 0.0
C1178 C 0.98631 0.51463 0.00612 0.0
C1179 C 1.00904 0.53686 0.96312 0.0
C1180 C 0.02789 0.54133 0.94489 0.0
C1181 C 1.00501 0.51893 0.98732 0.0
C1182 C 0.04258 0.52736 0.95051 0.0
C1183 C 0.03865 0.50944 0.97435 0.0
H1184 H 0.50059 0.4781 0.96119 0.0
H1185 H 0.56167 0.4918 0.95275 0.0
H1186 H 0.55552 0.5232 0.99453 0.0
H1187 H 0.5329 0.54663 0.03374 0.0
H1188 H 0.47182 0.53299 0.042 0.0
H1189 H 0.47796 0.50157 1.00023 0.0
C1190 C 0.5126 0.48795 0.96821 0.0
C1191 C 0.53161 0.48253 0.95361 0.0
C1192 C 0.50898 0.50594 0.99254 0.0
C1193 C 0.54692 0.49554 0.96337 0.0
C1194 C 0.54341 0.5135 0.98741 0.0
C1195 C 0.52089 0.53678 0.0267 0.0
C1196 C 0.50189 0.54221 0.04128 0.0
C1197 C 0.52451 0.51881 0.00232 0.0
C1198 C 0.48657 0.52923 0.0314 0.0
C1199 C 0.49008 0.51127 0.00739 0.0
H1200 H 0.99584 0.48262 0.55127 0.0
H1201 H 0.05708 0.49564 0.54346 0.0
H1202 H 0.04984 0.52671 0.50138 0.0
H1203 H 0.02629 0.54985 0.46532 0.0
H1204 H 0.96503 0.53702 0.47319 0.0
H1205 H 0.97219 0.5061 0.51652 0.0
C1206 C 1.00764 0.49227 0.54073 0.0
C1207 C 0.02702 0.48671 0.55067 0.0
C1208 C 1.00339 0.51008 0.51615 0.0
C1209 C 0.04205 0.49948 0.53647 0.0
C1210 C 0.03792 0.51725 0.51221 0.0
C1211 C 0.01445 0.5403 0.47626 0.0
C1212 C 0.99511 0.54577 0.4656 0.0
C1213 C 0.01867 0.52262 0.50149 0.0
C1214 C 0.98003 0.5332 0.48065 0.0
C1215 C 0.98412 0.51552 0.50555 0.0
H1216 H 0.1204 0.11094 0.13903 0.0
H1217 H 0.07764 0.15105 0.0788 0.0
H1218 H 0.10023 0.17783 0.09072 0.0
H1219 H 0.13165 0.19026 0.12067 0.0
H1220 H 0.17589 0.15061 0.17336 0.0
H1221 H 0.15324 0.1233 0.16256 0.0
C1222 C 0.11613 0.12551 0.12796 0.0
C1223 C 0.09726 0.12891 0.10818 0.0
C1224 C 0.12937 0.14098 0.13433 0.0
C1225 C 0.09203 0.14791 0.09385 0.0
C1226 C 0.10491 0.16331 0.10102 0.0
C1227 C 0.13628 0.17564 0.13024 0.0
C1228 C 0.15523 0.17245 0.14894 0.0
C1229 C 0.12348 0.16007 0.12188 0.0
C1230 C 0.16126 0.1534 0.15957 0.0
C1231 C 0.14834 0.13782 0.15319 0.0
H1232 H 0.15233 0.85187 0.43736 0.0
H1233 H 0.14869 0.85291 0.26636 0.0
H1234 H 0.12554 0.87987 0.27075 0.0
H1235 H 0.1047 0.90164 0.32363 0.0
H1236 H 0.1047 0.89709 0.49444 0.0
H1237 H 0.13096 0.87312 0.49022 0.0
C1238 C 0.14666 0.85825 0.40111 0.0
C1239 C 0.15239 0.85071 0.35153 0.0
C1240 C 0.13265 0.87303 0.40415 0.0
C1241 C 0.14458 0.85864 0.30485 0.0
C1242 C 0.13133 0.87399 0.30743 0.0
C1243 C 0.11073 0.8956 0.35989 0.0
C1244 C 0.10312 0.90132 0.40938 0.0
C1245 C 0.12506 0.88113 0.35687 0.0
C1246 C 0.11053 0.89301 0.45605 0.0
C1247 C 0.12547 0.8793 0.45356 0.0
H1248 H 0.36735 0.86958 0.64569 0.0
H1249 H 0.40604 0.82189 0.67874 0.0
H1250 H 0.43399 0.8428 0.6636 0.0
H1251 H 0.44764 0.87442 0.63878 0.0
H1252 H 0.40943 0.92286 0.61252 0.0
H1253 H 0.38113 0.90188 0.62625 0.0
C1254 C 0.38189 0.86382 0.6502 0.0
C1255 C 0.38453 0.84415 0.66329 0.0
C1256 C 0.39801 0.876 0.64167 0.0
C1257 C 0.40352 0.83697 0.66902 0.0
C1258 C 0.41956 0.84889 0.65992 0.0
C1259 C 0.43309 0.88029 0.63541 0.0
C1260 C 0.43054 0.90001 0.62354 0.0
C1261 C 0.41699 0.86833 0.64552 0.0
C1262 C 0.41168 0.90763 0.62094 0.0
C1263 C 0.39553 0.89567 0.62909 0.0
H1264 H 0.44288 0.15199 0.88161 0.0
H1265 H 0.40157 0.10869 0.93085 0.0
H1266 H 0.37495 0.13183 0.91813 0.0
H1267 H 0.36355 0.16452 0.89275 0.0
H1268 H 0.40504 0.20674 0.83687 0.0
H1269 H 0.43138 0.18378 0.8513 0.0
C1270 C 0.42806 0.14773 0.89022 0.0
C1271 C 0.42418 0.12884 0.90827 0.0
C1272 C 0.41284 0.16082 0.88069 0.0
C1273 C 0.40489 0.12326 0.91763 0.0
C1274 C 0.38969 0.13645 0.91005 0.0
C1275 C 0.37833 0.16862 0.88318 0.0
C1276 C 0.38226 0.18737 0.86379 0.0
C1277 C 0.39349 0.15525 0.89131 0.0
C1278 C 0.40152 0.1924 0.85151 0.0
C1279 C 0.41666 0.17932 0.86018 0.0
H1280 H 0.85833 0.86239 0.90085 0.0
H1281 H 0.89994 0.81971 0.8485 0.0
H1282 H 0.92616 0.8429 0.86031 0.0
H1283 H 0.93771 0.87496 0.88747 0.0
H1284 H 0.89663 0.91905 0.93198 0.0
H1285 H 0.86987 0.89573 0.92194 0.0
C1286 C 0.87311 0.85826 0.89148 0.0
C1287 C 0.87707 0.83924 0.87392 0.0
C1288 C 0.88829 0.87186 0.89775 0.0
C1289 C 0.89634 0.8342 0.86183 0.0
C1290 C 0.91145 0.84744 0.86894 0.0
C1291 C 0.92291 0.8794 0.89552 0.0
C1292 C 0.91915 0.89853 0.91162 0.0
C1293 C 0.90764 0.86619 0.88749 0.0
C1294 C 0.89987 0.9043 0.92023 0.0
C1295 C 0.88459 0.89099 0.91425 0.0
H1296 H 0.91719 0.12521 0.67318 0.0
H1297 H 0.92117 0.1311 0.50305 0.0
H1298 H 0.89601 0.15626 0.50461 0.0
H1299 H 0.87444 0.17801 0.5553 0.0
H1300 H 0.87426 0.1755 0.72643 0.0
H1301 H 0.89626 0.14754 0.72405 0.0
C1302 C 0.91227 0.13183 0.63643 0.0
C1303 C 0.92067 0.12614 0.58789 0.0
C1304 C 0.89858 0.14693 0.6381 0.0
C1305 C 0.91471 0.13516 0.54068 0.0
C1306 C 0.90039 0.14955 0.54167 0.0
C1307 C 0.87901 0.17109 0.59196 0.0
C1308 C 0.87252 0.17848 0.64099 0.0
C1309 C 0.89241 0.15573 0.59022 0.0
C1310 C 0.87895 0.16987 0.68833 0.0
C1311 C 0.89155 0.15396 0.6869 0.0
H1312 H 0.65463 0.16385 0.41954 0.0
H1313 H 0.65154 0.16526 0.24851 0.0
H1314 H 0.62664 0.13979 0.24956 0.0
H1315 H 0.6039 0.11921 0.29979 0.0
H1316 H 0.60355 0.12173 0.47099 0.0
H1317 H 0.6317 0.14351 0.46974 0.0
C1318 C 0.64875 0.15824 0.38254 0.0
C1319 C 0.65507 0.16602 0.33392 0.0
C1320 C 0.63372 0.14447 0.38377 0.0
C1321 C 0.64698 0.15922 0.28623 0.0
C1322 C 0.63273 0.14477 0.28693 0.0
C1323 C 0.61024 0.12431 0.33677 0.0
C1324 C 0.60194 0.11875 0.38548 0.0
C1325 C 0.62573 0.13756 0.33551 0.0
C1326 C 0.60985 0.12579 0.43315 0.0
C1327 C 0.62588 0.13824 0.43237 0.0
H1328 H 0.58316 0.87919 0.13484 0.0
H1329 H 0.62347 0.92583 0.10733 0.0
H1330 H 0.65083 0.90333 0.11768 0.0
H1331 H 0.66314 0.8701 0.13506 0.0
H1332 H 0.62208 0.82461 0.17074 0.0
H1333 H 0.59528 0.84697 0.15779 0.0
C1334 C 0.59795 0.88435 0.1304 0.0
C1335 C 0.60136 0.90398 0.1191 0.0
C1336 C 0.61349 0.87157 0.13881 0.0
C1337 C 0.62056 0.91068 0.11524 0.0
C1338 C 0.63616 0.89785 0.12148 0.0
C1339 C 0.64834 0.86516 0.14057 0.0
C1340 C 0.64471 0.84564 0.15377 0.0
C1341 C 0.63281 0.87824 0.1336 0.0
C1342 C 0.6254 0.83952 0.16085 0.0
C1343 C 0.60998 0.85228 0.15305 0.0
H1344 H 0.58385 0.64612 0.62244 0.0
H1345 H 0.62384 0.59891 0.60015 0.0
H1346 H 0.65135 0.62105 0.61371 0.0
H1347 H 0.66394 0.65413 0.63271 0.0
H1348 H 0.62308 0.70025 0.6629 0.0
H1349 H 0.59615 0.67827 0.64649 0.0
C1350 C 0.59861 0.64075 0.61983 0.0
C1351 C 0.60186 0.62104 0.60912 0.0
C1352 C 0.61423 0.65335 0.63001 0.0
C1353 C 0.62102 0.61411 0.6076 0.0
C1354 C 0.63672 0.62675 0.61567 0.0
C1355 C 0.64914 0.65929 0.63623 0.0
C1356 C 0.64564 0.67889 0.64902 0.0
C1357 C 0.63351 0.64642 0.62727 0.0
C1358 C 0.62632 0.68528 0.65344 0.0
C1359 C 0.61083 0.67273 0.64366 0.0
H1360 H 0.585 0.37518 0.86953 0.0
H1361 H 0.62584 0.42123 0.89925 0.0
H1362 H 0.65296 0.39875 0.88475 0.0
H1363 H 0.66492 0.36575 0.86273 0.0
H1364 H 0.62327 0.32097 0.82489 0.0
H1365 H 0.59673 0.34323 0.84235 0.0
C1366 C 0.59986 0.3802 0.87358 0.0
C1367 C 0.60349 0.39965 0.88668 0.0
C1368 C 0.61525 0.36747 0.86276 0.0
C1369 C 0.62276 0.4062 0.89 0.0
C1370 C 0.63823 0.39339 0.88137 0.0
C1371 C 0.65004 0.36095 0.85776 0.0
C1372 C 0.64618 0.34166 0.84254 0.0
C1373 C 0.63465 0.37398 0.86734 0.0
C1374 C 0.62677 0.33572 0.83624 0.0
C1375 C 0.6115 0.34841 0.84664 0.0
H1376 H 0.86444 0.36507 0.12889 0.0
H1377 H 0.90637 0.32143 0.17265 0.0
H1378 H 0.93264 0.34467 0.16088 0.0
H1379 H 0.94398 0.37703 0.13532 0.0
H1380 H 0.90248 0.42178 0.0993 0.0
H1381 H 0.87578 0.3985 0.1102 0.0
C1382 C 0.87931 0.36073 0.13643 0.0
C1383 C 0.88339 0.34148 0.15148 0.0
C1384 C 0.89444 0.3743 0.13014 0.0
C1385 C 0.90275 0.33614 0.16134 0.0
C1386 C 0.91784 0.34939 0.1542 0.0
C1387 C 0.92908 0.38161 0.12941 0.0
C1388 C 0.92515 0.40091 0.11536 0.0
C1389 C 0.91388 0.3684 0.13788 0.0
C1390 C 0.9058 0.40689 0.10945 0.0
C1391 C 0.89057 0.39362 0.1159 0.0
H1392 H 0.90381 0.61611 0.37682 0.0
H1393 H 0.94796 0.65642 0.42855 0.0
H1394 H 0.92595 0.68344 0.41321 0.0
H1395 H 0.8945 0.69586 0.38345 0.0
H1396 H 0.84926 0.656 0.3378 0.0
H1397 H 0.87141 0.6286 0.3515 0.0
C1398 C 0.90853 0.63079 0.38532 0.0
C1399 C 0.92757 0.63416 0.4038 0.0
C1400 C 0.89572 0.64638 0.37656 0.0
C1401 C 0.93341 0.65331 0.41459 0.0
C1402 C 0.92087 0.66883 0.40542 0.0
C1403 C 0.88957 0.68118 0.37576 0.0
C1404 C 0.87042 0.67795 0.35849 0.0
C1405 C 0.9021 0.66556 0.38578 0.0
C1406 C 0.86403 0.65884 0.35037 0.0
C1407 C 0.87665 0.64319 0.35854 0.0
H1408 H 0.40183 0.32544 0.38257 0.0
H1409 H 0.35563 0.36491 0.34311 0.0
H1410 H 0.37798 0.39248 0.35234 0.0
H1411 H 0.41092 0.40523 0.37168 0.0
H1412 H 0.45602 0.36539 0.41889 0.0
H1413 H 0.4338 0.33819 0.40762 0.0
C1414 C 0.39673 0.34008 0.37537 0.0
C1415 C 0.37725 0.34315 0.36096 0.0
C1416 C 0.40942 0.35581 0.383 0.0
C1417 C 0.37064 0.3622 0.35349 0.0
C1418 C 0.3834 0.37794 0.35905 0.0
C1419 C 0.41582 0.39062 0.38002 0.0
C1420 C 0.43518 0.38742 0.39606 0.0
C1421 C 0.40283 0.37493 0.374 0.0
C1422 C 0.44122 0.36836 0.40685 0.0
C1423 C 0.42855 0.35273 0.4 0.0
H1424 H 0.36643 0.65643 0.11824 0.0
H1425 H 0.40553 0.70226 0.1655 0.0
H1426 H 0.43321 0.68091 0.15215 0.0
H1427 H 0.4466 0.64941 0.12577 0.0
H1428 H 0.40793 0.60241 0.08682 0.0
H1429 H 0.37987 0.62398 0.09732 0.0
C1430 C 0.381 0.66166 0.12611 0.0
C1431 C 0.38384 0.68096 0.14282 0.0
C1432 C 0.39697 0.64917 0.11899 0.0
C1433 C 0.40284 0.68747 0.15298 0.0
C1434 C 0.41874 0.67531 0.14495 0.0
C1435 C 0.43202 0.644 0.11892 0.0
C1436 C 0.42928 0.62453 0.10433 0.0
C1437 C 0.41601 0.65622 0.12743 0.0
C1438 C 0.41034 0.61746 0.09731 0.0
C1439 C 0.39432 0.62975 0.10362 0.0
H1440 H 0.10721 0.6279 0.94732 0.0
H1441 H 0.10216 0.61646 0.77939 0.0
H1442 H 0.1266 0.64119 0.7604 0.0
H1443 H 0.14771 0.66799 0.79139 0.0
H1444 H 0.15539 0.6769 0.95974 0.0
H1445 H 0.13191 0.65128 0.97882 0.0
C1446 C 0.11174 0.63064 0.90673 0.0
C1447 C 0.10287 0.62048 0.86483 0.0
C1448 C 0.12622 0.64454 0.89615 0.0
C1449 C 0.10891 0.62403 0.81236 0.0
C1450 C 0.12279 0.63827 0.80141 0.0
C1451 C 0.14442 0.66406 0.83215 0.0
C1452 C 0.15314 0.67434 0.87408 0.0
C1453 C 0.13129 0.64889 0.84291 0.0
C1454 C 0.14891 0.66908 0.92679 0.0
C1455 C 0.1354 0.65451 0.93777 0.0
H1456 H 0.10874 0.39977 0.54209 0.0
H1457 H 0.10297 0.4142 0.70805 0.0
H1458 H 0.12772 0.39032 0.7313 0.0
H1459 H 0.14949 0.3635 0.70479 0.0
H1460 H 0.15801 0.35172 0.53822 0.0
H1461 H 0.13398 0.37633 0.51472 0.0
C1462 C 0.11319 0.39787 0.58314 0.0
C1463 C 0.10407 0.40864 0.62329 0.0
C1464 C 0.12787 0.38448 0.59615 0.0
C1465 C 0.10996 0.40616 0.6764 0.0
C1466 C 0.12401 0.39241 0.6898 0.0
C1467 C 0.14625 0.3666 0.66344 0.0
C1468 C 0.15537 0.35585 0.62328 0.0
C1469 C 0.13284 0.38123 0.65012 0.0
C1470 C 0.1512 0.35998 0.56976 0.0
C1471 C 0.13739 0.37396 0.55629 0.0
loop_
_geom_bond_atom_site_label_1
_geom_bond_atom_site_label_2
_geom_bond_distance
_geom_bond_site_symmetry_2
_ccdc_geom_bond_type
O0 Cd1 2.223 . S
O0 C8 1.315 . S
Cd1 O0 2.223 . S
Cd1 O4 2.297 . S
Cd1 O5 2.439 . S
Cd1 O11 2.240 . S
Cd2 O3 2.252 . S
Cd2 O10 2.226 . S
Cd2 O12 2.284 1_454 S
Cd2 O13 2.428 1_554 S
O3 Cd2 2.252 . S
O3 C8 1.279 . S
O4 Cd1 2.297 . S
O4 C6 1.247 . S
O5 Cd1 2.439 . S
O5 C6 1.208 . S
C6 O4 1.247 . S
C6 O5 1.208 . S
C7 O12 1.247 1_455 S
C7 O13 1.208 . S
C8 O0 1.315 . S
C8 O3 1.279 . S
C9 O10 1.315 . S
C9 O11 1.279 . S
O10 Cd2 2.226 . S
O10 C9 1.315 . S
O11 Cd1 2.240 . S
O11 C9 1.279 . S
O12 Cd2 2.284 1_656 S
O12 C7 1.247 1_655 S
O13 Cd2 2.428 1_556 S
O13 C7 1.208 . S
O14 Cd15 2.223 . S
O14 C22 1.315 . S
Cd15 O14 2.223 . S
Cd15 O18 2.297 . S
Cd15 O19 2.439 . S
Cd15 O25 2.240 . S
Cd16 O17 2.240 . S
Cd16 O24 2.223 . S
Cd16 O26 2.297 . S
Cd16 O27 2.439 . S
O17 Cd16 2.240 . S
O17 C22 1.279 . S
O18 Cd15 2.297 . S
O18 C20 1.247 . S
O19 Cd15 2.439 . S
O19 C20 1.208 . S
C20 O18 1.247 . S
C20 O19 1.208 . S
C21 O26 1.247 . S
C21 O27 1.208 . S
C22 O14 1.315 . S
C22 O17 1.279 . S
C23 O24 1.315 . S
C23 O25 1.279 . S
O24 Cd16 2.223 . S
O24 C23 1.315 . S
O25 Cd15 2.240 . S
O25 C23 1.279 . S
O26 Cd16 2.297 . S
O26 C21 1.247 . S
O27 Cd16 2.439 . S
O27 C21 1.208 . S
O28 Cd29 2.223 . S
O28 C36 1.315 . S
Cd29 O28 2.223 . S
Cd29 O32 2.297 . S
Cd29 O33 2.439 . S
Cd29 O39 2.240 . S
Cd30 O31 2.240 . S
Cd30 O38 2.223 . S
Cd30 O40 2.297 . S
Cd30 O41 2.439 . S
O31 Cd30 2.240 . S
O31 C36 1.279 . S
O32 Cd29 2.297 . S
O32 C34 1.247 . S
O33 Cd29 2.439 . S
O33 C34 1.208 . S
C34 O32 1.247 . S
C34 O33 1.208 . S
C35 O40 1.247 . S
C35 O41 1.208 . S
C36 O28 1.315 . S
C36 O31 1.279 . S
C37 O38 1.315 . S
C37 O39 1.279 . S
O38 Cd30 2.223 . S
O38 C37 1.315 . S
O39 Cd29 2.240 . S
O39 C37 1.279 . S
O40 Cd30 2.297 . S
O40 C35 1.247 . S
O41 Cd30 2.439 . S
O41 C35 1.208 . S
O42 Cd43 2.223 . S
O42 C50 1.315 . S
Cd43 O42 2.223 . S
Cd43 O46 2.297 . S
Cd43 O47 2.439 . S
Cd43 O53 2.240 . S
Cd44 O45 2.240 . S
Cd44 O52 2.223 . S
Cd44 O54 2.297 . S
Cd44 O55 2.439 . S
O45 Cd44 2.240 . S
O45 C50 1.279 . S
O46 Cd43 2.297 . S
O46 C48 1.247 . S
O47 Cd43 2.439 . S
O47 C48 1.208 . S
C48 O46 1.247 . S
C48 O47 1.208 . S
C49 O54 1.247 . S
C49 O55 1.208 . S
C50 O42 1.315 . S
C50 O45 1.279 . S
C51 O52 1.315 . S
C51 O53 1.279 . S
O52 Cd44 2.223 . S
O52 C51 1.315 . S
O53 Cd43 2.240 . S
O53 C51 1.279 . S
O54 Cd44 2.297 . S
O54 C49 1.247 . S
O55 Cd44 2.439 . S
O55 C49 1.208 . S
O56 Cd57 2.223 . S
O56 C64 1.315 . S
Cd57 O56 2.223 . S
Cd57 O60 2.297 . S
Cd57 O61 2.439 . S
Cd57 O67 2.240 . S
Cd58 O59 2.240 . S
Cd58 O66 2.223 . S
Cd58 O68 2.297 1_455 S
Cd58 O69 2.439 . S
O59 Cd58 2.240 . S
O59 C64 1.279 . S
O60 Cd57 2.297 . S
O60 C62 1.247 . S
O61 Cd57 2.439 . S
O61 C62 1.208 . S
C62 O60 1.247 . S
C62 O61 1.208 . S
C63 O68 1.247 1_455 S
C63 O69 1.208 . S
C64 O56 1.315 . S
C64 O59 1.279 . S
C65 O66 1.315 . S
C65 O67 1.279 . S
O66 Cd58 2.223 . S
O66 C65 1.315 . S
O67 Cd57 2.240 . S
O67 C65 1.279 . S
O68 Cd58 2.297 1_655 S
O68 C63 1.247 1_655 S
O69 Cd58 2.439 . S
O69 C63 1.208 . S
O70 Cd71 2.223 . S
O70 C78 1.315 . S
Cd71 O70 2.223 . S
Cd71 O74 2.297 . S
Cd71 O75 2.439 . S
Cd71 O81 2.240 . S
Cd72 O73 2.240 . S
Cd72 O80 2.223 . S
Cd72 O82 2.297 . S
Cd72 O83 2.439 . S
O73 Cd72 2.240 . S
O73 C78 1.279 . S
O74 Cd71 2.297 . S
O74 C76 1.247 . S
O75 Cd71 2.439 . S
O75 C76 1.208 . S
C76 O74 1.247 . S
C76 O75 1.208 . S
C77 O82 1.247 . S
C77 O83 1.208 . S
C78 O70 1.315 . S
C78 O73 1.279 . S
C79 O80 1.315 . S
C79 O81 1.279 . S
O80 Cd72 2.223 . S
O80 C79 1.315 . S
O81 Cd71 2.240 . S
O81 C79 1.279 . S
O82 Cd72 2.297 . S
O82 C77 1.247 . S
O83 Cd72 2.439 . S
O83 C77 1.208 . S
O84 Cd85 2.223 . S
O84 C92 1.315 . S
Cd85 O84 2.223 . S
Cd85 O88 2.297 . S
Cd85 O89 2.439 . S
Cd85 O95 2.240 . S
Cd86 O87 2.251 . S
Cd86 O94 2.226 . S
Cd86 O96 2.285 1_556 S
Cd86 O97 2.429 1_556 S
O87 Cd86 2.251 . S
O87 C92 1.279 . S
O88 Cd85 2.297 . S
O88 C90 1.247 . S
O89 Cd85 2.439 . S
O89 C90 1.208 . S
C90 O88 1.247 . S
C90 O89 1.208 . S
C91 O96 1.247 . S
C91 O97 1.208 . S
C92 O84 1.315 . S
C92 O87 1.279 . S
C93 O94 1.315 . S
C93 O95 1.279 . S
O94 Cd86 2.226 . S
O94 C93 1.315 . S
O95 Cd85 2.240 . S
O95 C93 1.279 . S
O96 Cd86 2.285 1_554 S
O96 C91 1.247 . S
O97 Cd86 2.429 1_554 S
O97 C91 1.208 . S
O98 Cd99 2.223 . S
O98 C106 1.315 . S
Cd99 O98 2.223 . S
Cd99 O102 2.297 . S
Cd99 O103 2.439 . S
Cd99 O109 2.240 . S
Cd100 O101 2.240 . S
Cd100 O108 2.223 . S
Cd100 O110 2.297 . S
Cd100 O111 2.439 . S
O101 Cd100 2.240 . S
O101 C106 1.279 . S
O102 Cd99 2.297 . S
O102 C104 1.247 . S
O103 Cd99 2.439 . S
O103 C104 1.208 . S
C104 O102 1.247 . S
C104 O103 1.208 . S
C105 O110 1.247 . S
C105 O111 1.208 . S
C106 O98 1.315 . S
C106 O101 1.279 . S
C107 O108 1.315 . S
C107 O109 1.279 . S
O108 Cd100 2.223 . S
O108 C107 1.315 . S
O109 Cd99 2.240 . S
O109 C107 1.279 . S
O110 Cd100 2.297 . S
O110 C105 1.247 . S
O111 Cd100 2.439 . S
O111 C105 1.208 . S
O112 Cd113 2.223 . S
O112 C120 1.315 . S
Cd113 O112 2.223 . S
Cd113 O116 2.297 . S
Cd113 O117 2.439 . S
Cd113 O123 2.240 . S
Cd114 O115 2.252 . S
Cd114 O122 2.226 . S
Cd114 O124 2.284 1_656 S
Cd114 O125 2.428 1_556 S
O115 Cd114 2.252 . S
O115 C120 1.279 . S
O116 Cd113 2.297 . S
O116 C118 1.247 . S
O117 Cd113 2.439 . S
O117 C118 1.208 . S
C118 O116 1.247 . S
C118 O117 1.208 . S
C119 O124 1.247 1_655 S
C119 O125 1.208 . S
C120 O112 1.315 . S
C120 O115 1.279 . S
C121 O122 1.315 . S
C121 O123 1.279 . S
O122 Cd114 2.226 . S
O122 C121 1.315 . S
O123 Cd113 2.240 . S
O123 C121 1.279 . S
O124 Cd114 2.284 1_454 S
O124 C119 1.247 1_455 S
O125 Cd114 2.428 1_554 S
O125 C119 1.208 . S
O126 Cd127 2.223 . S
O126 C134 1.315 . S
Cd127 O126 2.223 . S
Cd127 O130 2.297 . S
Cd127 O131 2.439 . S
Cd127 O137 2.240 . S
Cd128 O129 2.240 . S
Cd128 O136 2.223 . S
Cd128 O138 2.297 . S
Cd128 O139 2.439 . S
O129 Cd128 2.240 . S
O129 C134 1.279 . S
O130 Cd127 2.297 . S
O130 C132 1.247 . S
O131 Cd127 2.439 . S
O131 C132 1.208 . S
C132 O130 1.247 . S
C132 O131 1.208 . S
C133 O138 1.247 . S
C133 O139 1.208 . S
C134 O126 1.315 . S
C134 O129 1.279 . S
C135 O136 1.315 . S
C135 O137 1.279 . S
O136 Cd128 2.223 . S
O136 C135 1.315 . S
O137 Cd127 2.240 . S
O137 C135 1.279 . S
O138 Cd128 2.297 . S
O138 C133 1.247 . S
O139 Cd128 2.439 . S
O139 C133 1.208 . S
O140 Cd141 2.223 . S
O140 C148 1.315 . S
Cd141 O140 2.223 . S
Cd141 O144 2.297 . S
Cd141 O145 2.439 . S
Cd141 O151 2.240 . S
Cd142 O143 2.240 . S
Cd142 O150 2.223 . S
Cd142 O152 2.297 . S
Cd142 O153 2.439 . S
O143 Cd142 2.240 . S
O143 C148 1.279 . S
O144 Cd141 2.297 . S
O144 C146 1.247 . S
O145 Cd141 2.439 . S
O145 C146 1.208 . S
C146 O144 1.247 . S
C146 O145 1.208 . S
C147 O152 1.247 . S
C147 O153 1.208 . S
C148 O140 1.315 . S
C148 O143 1.279 . S
C149 O150 1.315 . S
C149 O151 1.279 . S
O150 Cd142 2.223 . S
O150 C149 1.315 . S
O151 Cd141 2.240 . S
O151 C149 1.279 . S
O152 Cd142 2.297 . S
O152 C147 1.247 . S
O153 Cd142 2.439 . S
O153 C147 1.208 . S
O154 Cd155 2.223 . S
O154 C162 1.315 . S
Cd155 O154 2.223 . S
Cd155 O158 2.297 . S
Cd155 O159 2.439 . S
Cd155 O165 2.240 . S
Cd156 O157 2.240 . S
Cd156 O164 2.223 . S
Cd156 O166 2.297 . S
Cd156 O167 2.439 . S
O157 Cd156 2.240 . S
O157 C162 1.279 . S
O158 Cd155 2.297 . S
O158 C160 1.247 . S
O159 Cd155 2.439 . S
O159 C160 1.208 . S
C160 O158 1.247 . S
C160 O159 1.208 . S
C161 O166 1.247 . S
C161 O167 1.208 . S
C162 O154 1.315 . S
C162 O157 1.279 . S
C163 O164 1.315 . S
C163 O165 1.279 . S
O164 Cd156 2.223 . S
O164 C163 1.315 . S
O165 Cd155 2.240 . S
O165 C163 1.279 . S
O166 Cd156 2.297 . S
O166 C161 1.247 . S
O167 Cd156 2.439 . S
O167 C161 1.208 . S
O168 Cd169 2.223 . S
O168 C176 1.315 . S
Cd169 O168 2.223 . S
Cd169 O172 2.297 . S
Cd169 O173 2.439 . S
Cd169 O179 2.240 . S
Cd170 O171 2.240 . S
Cd170 O178 2.223 . S
Cd170 O180 2.297 1_655 S
Cd170 O181 2.439 . S
O171 Cd170 2.240 . S
O171 C176 1.279 . S
O172 Cd169 2.297 . S
O172 C174 1.247 . S
O173 Cd169 2.439 . S
O173 C174 1.208 . S
C174 O172 1.247 . S
C174 O173 1.208 . S
C175 O180 1.247 1_655 S
C175 O181 1.208 . S
C176 O168 1.315 . S
C176 O171 1.279 . S
C177 O178 1.315 . S
C177 O179 1.279 . S
O178 Cd170 2.223 . S
O178 C177 1.315 . S
O179 Cd169 2.240 . S
O179 C177 1.279 . S
O180 Cd170 2.297 1_455 S
O180 C175 1.247 1_455 S
O181 Cd170 2.439 . S
O181 C175 1.208 . S
O182 Cd183 2.223 . S
O182 C190 1.315 . S
Cd183 O182 2.223 . S
Cd183 O186 2.297 . S
Cd183 O187 2.439 . S
Cd183 O193 2.240 . S
Cd184 O185 2.240 . S
Cd184 O192 2.223 . S
Cd184 O194 2.297 . S
Cd184 O195 2.439 . S
O185 Cd184 2.240 . S
O185 C190 1.279 . S
O186 Cd183 2.297 . S
O186 C188 1.247 . S
O187 Cd183 2.439 . S
O187 C188 1.208 . S
C188 O186 1.247 . S
C188 O187 1.208 . S
C189 O194 1.247 . S
C189 O195 1.208 . S
C190 O182 1.315 . S
C190 O185 1.279 . S
C191 O192 1.315 . S
C191 O193 1.279 . S
O192 Cd184 2.223 . S
O192 C191 1.315 . S
O193 Cd183 2.240 . S
O193 C191 1.279 . S
O194 Cd184 2.297 . S
O194 C189 1.247 . S
O195 Cd184 2.439 . S
O195 C189 1.208 . S
O196 Cd197 2.223 . S
O196 C204 1.315 . S
Cd197 O196 2.223 . S
Cd197 O200 2.297 . S
Cd197 O201 2.439 . S
Cd197 O207 2.240 . S
Cd198 O199 2.251 . S
Cd198 O206 2.226 . S
Cd198 O208 2.285 1_554 S
Cd198 O209 2.429 1_554 S
O199 Cd198 2.251 . S
O199 C204 1.279 . S
O200 Cd197 2.297 . S
O200 C202 1.247 . S
O201 Cd197 2.439 . S
O201 C202 1.208 . S
C202 O200 1.247 . S
C202 O201 1.208 . S
C203 O208 1.247 . S
C203 O209 1.208 . S
C204 O196 1.315 . S
C204 O199 1.279 . S
C205 O206 1.315 . S
C205 O207 1.279 . S
O206 Cd198 2.226 . S
O206 C205 1.315 . S
O207 Cd197 2.240 . S
O207 C205 1.279 . S
O208 Cd198 2.285 1_556 S
O208 C203 1.247 . S
O209 Cd198 2.429 1_556 S
O209 C203 1.208 . S
O210 Cd211 2.223 . S
O210 C218 1.315 . S
Cd211 O210 2.223 . S
Cd211 O214 2.297 . S
Cd211 O215 2.439 . S
Cd211 O221 2.240 . S
Cd212 O213 2.240 . S
Cd212 O220 2.223 . S
Cd212 O222 2.297 . S
Cd212 O223 2.439 . S
O213 Cd212 2.240 . S
O213 C218 1.279 . S
O214 Cd211 2.297 . S
O214 C216 1.247 . S
O215 Cd211 2.439 . S
O215 C216 1.208 . S
C216 O214 1.247 . S
C216 O215 1.208 . S
C217 O222 1.247 . S
C217 O223 1.208 . S
C218 O210 1.315 . S
C218 O213 1.279 . S
C219 O220 1.315 . S
C219 O221 1.279 . S
O220 Cd212 2.223 . S
O220 C219 1.315 . S
O221 Cd211 2.240 . S
O221 C219 1.279 . S
O222 Cd212 2.297 . S
O222 C217 1.247 . S
O223 Cd212 2.439 . S
O223 C217 1.208 . S
O224 Cd225 2.223 . S
O224 C232 1.315 . S
Cd225 O224 2.223 . S
Cd225 O228 2.297 . S
Cd225 O229 2.439 . S
Cd225 O235 2.240 . S
Cd226 O227 2.240 . S
Cd226 O234 2.223 . S
Cd226 O236 2.297 . S
Cd226 O237 2.439 . S
O227 Cd226 2.240 . S
O227 C232 1.279 . S
O228 Cd225 2.297 . S
O228 C230 1.247 . S
O229 Cd225 2.439 . S
O229 C230 1.208 . S
C230 O228 1.247 . S
C230 O229 1.208 . S
C231 O236 1.247 . S
C231 O237 1.208 . S
C232 O224 1.315 . S
C232 O227 1.279 . S
C233 O234 1.315 . S
C233 O235 1.279 . S
O234 Cd226 2.223 . S
O234 C233 1.315 . S
O235 Cd225 2.240 . S
O235 C233 1.279 . S
O236 Cd226 2.297 . S
O236 C231 1.247 . S
O237 Cd226 2.439 . S
O237 C231 1.208 . S
O238 Cd239 2.223 . S
O238 C246 1.315 . S
Cd239 O238 2.223 . S
Cd239 O242 2.297 . S
Cd239 O243 2.439 . S
Cd239 O249 2.240 . S
Cd240 O241 2.240 . S
Cd240 O248 2.223 . S
Cd240 O250 2.297 . S
Cd240 O251 2.439 . S
O241 Cd240 2.240 . S
O241 C246 1.279 . S
O242 Cd239 2.297 . S
O242 C244 1.247 . S
O243 Cd239 2.439 . S
O243 C244 1.208 . S
C244 O242 1.247 . S
C244 O243 1.208 . S
C245 O250 1.247 . S
C245 O251 1.208 . S
C246 O238 1.315 . S
C246 O241 1.279 . S
C247 O248 1.315 . S
C247 O249 1.279 . S
O248 Cd240 2.223 . S
O248 C247 1.315 . S
O249 Cd239 2.240 . S
O249 C247 1.279 . S
O250 Cd240 2.297 . S
O250 C245 1.247 . S
O251 Cd240 2.439 . S
O251 C245 1.208 . S
O252 Cd253 2.223 . S
O252 C260 1.315 . S
Cd253 O252 2.223 . S
Cd253 O256 2.297 . S
Cd253 O257 2.439 . S
Cd253 O263 2.240 . S
Cd254 O255 2.252 . S
Cd254 O262 2.226 . S
Cd254 O264 2.284 1_654 S
Cd254 O265 2.428 1_554 S
O255 Cd254 2.252 . S
O255 C260 1.279 . S
O256 Cd253 2.297 . S
O256 C258 1.247 . S
O257 Cd253 2.439 . S
O257 C258 1.208 . S
C258 O256 1.247 . S
C258 O257 1.208 . S
C259 O264 1.247 1_655 S
C259 O265 1.208 . S
C260 O252 1.315 . S
C260 O255 1.279 . S
C261 O262 1.315 . S
C261 O263 1.279 . S
O262 Cd254 2.226 . S
O262 C261 1.315 . S
O263 Cd253 2.240 . S
O263 C261 1.279 . S
O264 Cd254 2.284 1_456 S
O264 C259 1.247 1_455 S
O265 Cd254 2.428 1_556 S
O265 C259 1.208 . S
O266 Cd267 2.223 . S
O266 C274 1.315 . S
Cd267 O266 2.223 . S
Cd267 O270 2.297 . S
Cd267 O271 2.439 . S
Cd267 O277 2.240 . S
Cd268 O269 2.240 . S
Cd268 O276 2.223 . S
Cd268 O278 2.297 . S
Cd268 O279 2.439 . S
O269 Cd268 2.240 . S
O269 C274 1.279 . S
O270 Cd267 2.297 . S
O270 C272 1.247 . S
O271 Cd267 2.439 . S
O271 C272 1.208 . S
C272 O270 1.247 . S
C272 O271 1.208 . S
C273 O278 1.247 . S
C273 O279 1.208 . S
C274 O266 1.315 . S
C274 O269 1.279 . S
C275 O276 1.315 . S
C275 O277 1.279 . S
O276 Cd268 2.223 . S
O276 C275 1.315 . S
O277 Cd267 2.240 . S
O277 C275 1.279 . S
O278 Cd268 2.297 . S
O278 C273 1.247 . S
O279 Cd268 2.439 . S
O279 C273 1.208 . S
O280 Cd281 2.223 . S
O280 C288 1.315 . S
Cd281 O280 2.223 . S
Cd281 O284 2.297 . S
Cd281 O285 2.439 . S
Cd281 O291 2.240 . S
Cd282 O283 2.251 . S
Cd282 O290 2.226 . S
Cd282 O292 2.285 1_556 S
Cd282 O293 2.429 1_556 S
O283 Cd282 2.251 . S
O283 C288 1.279 . S
O284 Cd281 2.297 . S
O284 C286 1.247 . S
O285 Cd281 2.439 . S
O285 C286 1.208 . S
C286 O284 1.247 . S
C286 O285 1.208 . S
C287 O292 1.247 . S
C287 O293 1.208 . S
C288 O280 1.315 . S
C288 O283 1.279 . S
C289 O290 1.315 . S
C289 O291 1.279 . S
O290 Cd282 2.226 . S
O290 C289 1.315 . S
O291 Cd281 2.240 . S
O291 C289 1.279 . S
O292 Cd282 2.285 1_554 S
O292 C287 1.247 . S
O293 Cd282 2.429 1_554 S
O293 C287 1.208 . S
O294 Cd295 2.223 . S
O294 C302 1.315 . S
Cd295 O294 2.223 . S
Cd295 O298 2.297 . S
Cd295 O299 2.439 . S
Cd295 O305 2.240 . S
Cd296 O297 2.240 . S
Cd296 O304 2.223 . S
Cd296 O306 2.297 . S
Cd296 O307 2.439 . S
O297 Cd296 2.240 . S
O297 C302 1.279 . S
O298 Cd295 2.297 . S
O298 C300 1.247 . S
O299 Cd295 2.439 . S
O299 C300 1.208 . S
C300 O298 1.247 . S
C300 O299 1.208 . S
C301 O306 1.247 . S
C301 O307 1.208 . S
C302 O294 1.315 . S
C302 O297 1.279 . S
C303 O304 1.315 . S
C303 O305 1.279 . S
O304 Cd296 2.223 . S
O304 C303 1.315 . S
O305 Cd295 2.240 . S
O305 C303 1.279 . S
O306 Cd296 2.297 . S
O306 C301 1.247 . S
O307 Cd296 2.439 . S
O307 C301 1.208 . S
O308 Cd309 2.223 . S
O308 C316 1.315 . S
Cd309 O308 2.223 . S
Cd309 O312 2.297 . S
Cd309 O313 2.439 . S
Cd309 O319 2.240 . S
Cd310 O311 2.240 . S
Cd310 O318 2.223 . S
Cd310 O320 2.297 1_655 S
Cd310 O321 2.439 . S
O311 Cd310 2.240 . S
O311 C316 1.279 . S
O312 Cd309 2.297 . S
O312 C314 1.247 . S
O313 Cd309 2.439 . S
O313 C314 1.208 . S
C314 O312 1.247 . S
C314 O313 1.208 . S
C315 O320 1.247 1_655 S
C315 O321 1.208 . S
C316 O308 1.315 . S
C316 O311 1.279 . S
C317 O318 1.315 . S
C317 O319 1.279 . S
O318 Cd310 2.223 . S
O318 C317 1.315 . S
O319 Cd309 2.240 . S
O319 C317 1.279 . S
O320 Cd310 2.297 1_455 S
O320 C315 1.247 1_455 S
O321 Cd310 2.439 . S
O321 C315 1.208 . S
O322 Cd323 2.223 . S
O322 C330 1.315 . S
Cd323 O322 2.223 . S
Cd323 O326 2.297 . S
Cd323 O327 2.439 . S
Cd323 O333 2.240 . S
Cd324 O325 2.240 . S
Cd324 O332 2.223 . S
Cd324 O334 2.297 . S
Cd324 O335 2.439 . S
O325 Cd324 2.240 . S
O325 C330 1.279 . S
O326 Cd323 2.297 . S
O326 C328 1.247 . S
O327 Cd323 2.439 . S
O327 C328 1.208 . S
C328 O326 1.247 . S
C328 O327 1.208 . S
C329 O334 1.247 . S
C329 O335 1.208 . S
C330 O322 1.315 . S
C330 O325 1.279 . S
C331 O332 1.315 . S
C331 O333 1.279 . S
O332 Cd324 2.223 . S
O332 C331 1.315 . S
O333 Cd323 2.240 . S
O333 C331 1.279 . S
O334 Cd324 2.297 . S
O334 C329 1.247 . S
O335 Cd324 2.439 . S
O335 C329 1.208 . S
O336 Cd337 2.223 . S
O336 C344 1.315 . S
Cd337 O336 2.223 . S
Cd337 O340 2.297 . S
Cd337 O341 2.439 . S
Cd337 O347 2.240 . S
Cd338 O339 2.240 . S
Cd338 O346 2.223 . S
Cd338 O348 2.297 . S
Cd338 O349 2.439 . S
O339 Cd338 2.240 . S
O339 C344 1.279 . S
O340 Cd337 2.297 . S
O340 C342 1.247 . S
O341 Cd337 2.439 . S
O341 C342 1.208 . S
C342 O340 1.247 . S
C342 O341 1.208 . S
C343 O348 1.247 . S
C343 O349 1.208 . S
C344 O336 1.315 . S
C344 O339 1.279 . S
C345 O346 1.315 . S
C345 O347 1.279 . S
O346 Cd338 2.223 . S
O346 C345 1.315 . S
O347 Cd337 2.240 . S
O347 C345 1.279 . S
O348 Cd338 2.297 . S
O348 C343 1.247 . S
O349 Cd338 2.439 . S
O349 C343 1.208 . S
O350 Cd351 2.223 . S
O350 C358 1.315 . S
Cd351 O350 2.223 . S
Cd351 O354 2.297 . S
Cd351 O355 2.439 . S
Cd351 O361 2.240 . S
Cd352 O353 2.240 . S
Cd352 O360 2.223 . S
Cd352 O362 2.297 . S
Cd352 O363 2.439 . S
O353 Cd352 2.240 . S
O353 C358 1.279 . S
O354 Cd351 2.297 . S
O354 C356 1.247 . S
O355 Cd351 2.439 . S
O355 C356 1.208 . S
C356 O354 1.247 . S
C356 O355 1.208 . S
C357 O362 1.247 . S
C357 O363 1.208 . S
C358 O350 1.315 . S
C358 O353 1.279 . S
C359 O360 1.315 . S
C359 O361 1.279 . S
O360 Cd352 2.223 . S
O360 C359 1.315 . S
O361 Cd351 2.240 . S
O361 C359 1.279 . S
O362 Cd352 2.297 . S
O362 C357 1.247 . S
O363 Cd352 2.439 . S
O363 C357 1.208 . S
O364 Cd365 2.223 . S
O364 C372 1.315 . S
Cd365 O364 2.223 . S
Cd365 O368 2.297 . S
Cd365 O369 2.439 . S
Cd365 O375 2.240 . S
Cd366 O367 2.252 . S
Cd366 O374 2.226 . S
Cd366 O376 2.284 1_456 S
Cd366 O377 2.428 1_556 S
O367 Cd366 2.252 . S
O367 C372 1.279 . S
O368 Cd365 2.297 . S
O368 C370 1.247 . S
O369 Cd365 2.439 . S
O369 C370 1.208 . S
C370 O368 1.247 . S
C370 O369 1.208 . S
C371 O376 1.247 1_455 S
C371 O377 1.208 . S
C372 O364 1.315 . S
C372 O367 1.279 . S
C373 O374 1.315 . S
C373 O375 1.279 . S
O374 Cd366 2.226 . S
O374 C373 1.315 . S
O375 Cd365 2.240 . S
O375 C373 1.279 . S
O376 Cd366 2.284 1_654 S
O376 C371 1.247 1_655 S
O377 Cd366 2.428 1_554 S
O377 C371 1.208 . S
O378 Cd379 2.223 . S
O378 C386 1.315 . S
Cd379 O378 2.223 . S
Cd379 O382 2.297 . S
Cd379 O383 2.439 . S
Cd379 O389 2.240 . S
Cd380 O381 2.240 . S
Cd380 O388 2.223 . S
Cd380 O390 2.297 . S
Cd380 O391 2.439 . S
O381 Cd380 2.240 . S
O381 C386 1.279 . S
O382 Cd379 2.297 . S
O382 C384 1.247 . S
O383 Cd379 2.439 . S
O383 C384 1.208 . S
C384 O382 1.247 . S
C384 O383 1.208 . S
C385 O390 1.247 . S
C385 O391 1.208 . S
C386 O378 1.315 . S
C386 O381 1.279 . S
C387 O388 1.315 . S
C387 O389 1.279 . S
O388 Cd380 2.223 . S
O388 C387 1.315 . S
O389 Cd379 2.240 . S
O389 C387 1.279 . S
O390 Cd380 2.297 . S
O390 C385 1.247 . S
O391 Cd380 2.439 . S
O391 C385 1.208 . S
O392 Cd393 2.223 . S
O392 C400 1.315 . S
Cd393 O392 2.223 . S
Cd393 O396 2.297 . S
Cd393 O397 2.439 . S
Cd393 O403 2.240 . S
Cd394 O395 2.251 . S
Cd394 O402 2.226 . S
Cd394 O404 2.285 1_554 S
Cd394 O405 2.429 1_554 S
O395 Cd394 2.251 . S
O395 C400 1.279 . S
O396 Cd393 2.297 . S
O396 C398 1.247 . S
O397 Cd393 2.439 . S
O397 C398 1.208 . S
C398 O396 1.247 . S
C398 O397 1.208 . S
C399 O404 1.247 . S
C399 O405 1.208 . S
C400 O392 1.315 . S
C400 O395 1.279 . S
C401 O402 1.315 . S
C401 O403 1.279 . S
O402 Cd394 2.226 . S
O402 C401 1.315 . S
O403 Cd393 2.240 . S
O403 C401 1.279 . S
O404 Cd394 2.285 1_556 S
O404 C399 1.247 . S
O405 Cd394 2.429 1_556 S
O405 C399 1.208 . S
O406 Cd407 2.223 . S
O406 C414 1.315 . S
Cd407 O406 2.223 . S
Cd407 O410 2.297 . S
Cd407 O411 2.439 . S
Cd407 O417 2.240 . S
Cd408 O409 2.240 . S
Cd408 O416 2.223 . S
Cd408 O418 2.297 . S
Cd408 O419 2.439 . S
O409 Cd408 2.240 . S
O409 C414 1.279 . S
O410 Cd407 2.297 . S
O410 C412 1.247 . S
O411 Cd407 2.439 . S
O411 C412 1.208 . S
C412 O410 1.247 . S
C412 O411 1.208 . S
C413 O418 1.247 . S
C413 O419 1.208 . S
C414 O406 1.315 . S
C414 O409 1.279 . S
C415 O416 1.315 . S
C415 O417 1.279 . S
O416 Cd408 2.223 . S
O416 C415 1.315 . S
O417 Cd407 2.240 . S
O417 C415 1.279 . S
O418 Cd408 2.297 . S
O418 C413 1.247 . S
O419 Cd408 2.439 . S
O419 C413 1.208 . S
O420 Cd421 2.223 . S
O420 C428 1.315 . S
Cd421 O420 2.223 . S
Cd421 O424 2.297 . S
Cd421 O425 2.439 . S
Cd421 O431 2.240 . S
Cd422 O423 2.240 . S
Cd422 O430 2.223 . S
Cd422 O432 2.297 1_455 S
Cd422 O433 2.439 . S
O423 Cd422 2.240 . S
O423 C428 1.279 . S
O424 Cd421 2.297 . S
O424 C426 1.247 . S
O425 Cd421 2.439 . S
O425 C426 1.208 . S
C426 O424 1.247 . S
C426 O425 1.208 . S
C427 O432 1.247 1_455 S
C427 O433 1.208 . S
C428 O420 1.315 . S
C428 O423 1.279 . S
C429 O430 1.315 . S
C429 O431 1.279 . S
O430 Cd422 2.223 . S
O430 C429 1.315 . S
O431 Cd421 2.240 . S
O431 C429 1.279 . S
O432 Cd422 2.297 1_655 S
O432 C427 1.247 1_655 S
O433 Cd422 2.439 . S
O433 C427 1.208 . S
O434 Cd435 2.223 . S
O434 C442 1.315 . S
Cd435 O434 2.223 . S
Cd435 O438 2.297 . S
Cd435 O439 2.439 . S
Cd435 O445 2.240 . S
Cd436 O437 2.240 . S
Cd436 O444 2.223 . S
Cd436 O446 2.297 . S
Cd436 O447 2.439 . S
O437 Cd436 2.240 . S
O437 C442 1.279 . S
O438 Cd435 2.297 . S
O438 C440 1.247 . S
O439 Cd435 2.439 . S
O439 C440 1.208 . S
C440 O438 1.247 . S
C440 O439 1.208 . S
C441 O446 1.247 . S
C441 O447 1.208 . S
C442 O434 1.315 . S
C442 O437 1.279 . S
C443 O444 1.315 . S
C443 O445 1.279 . S
O444 Cd436 2.223 . S
O444 C443 1.315 . S
O445 Cd435 2.240 . S
O445 C443 1.279 . S
O446 Cd436 2.297 . S
O446 C441 1.247 . S
O447 Cd436 2.439 . S
O447 C441 1.208 . S
H448 C454 0.930 . S
H449 C457 0.930 . S
H450 C458 0.930 . S
H451 C459 0.930 . S
H452 C462 0.930 . S
H453 C463 0.930 . S
C454 H448 0.930 . S
C454 C455 1.355 1_455 S
C454 C456 1.415 . S
C455 C454 1.355 1_655 S
C455 C457 1.419 . S
C456 C454 1.415 . S
C456 C461 1.425 1_455 S
C456 C463 1.409 . S
C457 H449 0.930 . S
C457 C455 1.419 . S
C457 C458 1.362 . S
C458 H450 0.930 . S
C458 C457 1.362 . S
C458 C461 1.409 . S
C459 H451 0.930 . S
C459 C460 1.355 1_655 S
C459 C461 1.415 . S
C460 C459 1.355 1_455 S
C460 C462 1.419 . S
C461 C456 1.425 1_655 S
C461 C458 1.409 . S
C461 C459 1.415 . S
C462 H452 0.930 . S
C462 C460 1.419 . S
C462 C463 1.362 . S
C463 H453 0.930 . S
C463 C456 1.409 . S
C463 C462 1.362 . S
H464 C470 0.930 . S
H465 C473 0.930 . S
H466 C474 0.930 . S
H467 C475 0.930 . S
H468 C478 0.930 . S
H469 C479 0.930 . S
C470 H464 0.930 . S
C470 C471 1.355 . S
C470 C472 1.415 . S
C471 C470 1.355 . S
C471 C473 1.419 . S
C472 C470 1.415 . S
C472 C477 1.425 1_556 S
C472 C479 1.409 1_556 S
C473 H465 0.930 . S
C473 C471 1.419 . S
C473 C474 1.362 . S
C474 H466 0.930 . S
C474 C473 1.362 . S
C474 C477 1.409 1_556 S
C475 H467 0.930 . S
C475 C476 1.355 . S
C475 C477 1.415 . S
C476 C475 1.355 . S
C476 C478 1.419 . S
C477 C472 1.425 1_554 S
C477 C474 1.409 1_554 S
C477 C475 1.415 . S
C478 H468 0.930 . S
C478 C476 1.419 . S
C478 C479 1.362 . S
C479 H469 0.930 . S
C479 C472 1.409 1_554 S
C479 C478 1.362 . S
H480 C486 0.930 . S
H481 C489 0.930 . S
H482 C490 0.930 . S
H483 C491 0.930 . S
H484 C494 0.930 . S
H485 C495 0.930 . S
C486 H480 0.930 . S
C486 C487 1.355 . S
C486 C488 1.415 . S
C487 C486 1.355 . S
C487 C489 1.419 . S
C488 C486 1.415 . S
C488 C493 1.425 . S
C488 C495 1.409 . S
C489 H481 0.930 . S
C489 C487 1.419 . S
C489 C490 1.362 . S
C490 H482 0.930 . S
C490 C489 1.362 . S
C490 C493 1.409 . S
C491 H483 0.930 . S
C491 C492 1.355 . S
C491 C493 1.415 . S
C492 C491 1.355 . S
C492 C494 1.419 . S
C493 C488 1.425 . S
C493 C490 1.409 . S
C493 C491 1.415 . S
C494 H484 0.930 . S
C494 C492 1.419 . S
C494 C495 1.362 . S
C495 H485 0.930 . S
C495 C488 1.409 . S
C495 C494 1.362 . S
H496 C502 0.930 . S
H497 C505 0.930 . S
H498 C506 0.930 . S
H499 C507 0.930 . S
H500 C510 0.930 . S
H501 C511 0.930 . S
C502 H496 0.930 . S
C502 C503 1.355 . S
C502 C504 1.415 . S
C503 C502 1.355 . S
C503 C505 1.419 . S
C504 C502 1.415 . S
C504 C509 1.425 . S
C504 C511 1.409 . S
C505 H497 0.930 . S
C505 C503 1.419 . S
C505 C506 1.362 . S
C506 H498 0.930 . S
C506 C505 1.362 . S
C506 C509 1.409 . S
C507 H499 0.930 . S
C507 C508 1.355 . S
C507 C509 1.415 . S
C508 C507 1.355 . S
C508 C510 1.419 . S
C509 C504 1.425 . S
C509 C506 1.409 . S
C509 C507 1.415 . S
C510 H500 0.930 . S
C510 C508 1.419 . S
C510 C511 1.362 . S
C511 H501 0.930 . S
C511 C504 1.409 . S
C511 C510 1.362 . S
H512 C518 0.930 . S
H513 C521 0.930 . S
H514 C522 0.930 . S
H515 C523 0.930 . S
H516 C526 0.930 . S
H517 C527 0.930 . S
C518 H512 0.930 . S
C518 C519 1.355 1_455 S
C518 C520 1.415 . S
C519 C518 1.355 1_655 S
C519 C521 1.419 . S
C520 C518 1.415 . S
C520 C525 1.425 1_455 S
C520 C527 1.409 . S
C521 H513 0.930 . S
C521 C519 1.419 . S
C521 C522 1.362 . S
C522 H514 0.930 . S
C522 C521 1.362 . S
C522 C525 1.409 . S
C523 H515 0.930 . S
C523 C524 1.355 1_655 S
C523 C525 1.415 . S
C524 C523 1.355 1_455 S
C524 C526 1.419 . S
C525 C520 1.425 1_655 S
C525 C522 1.409 . S
C525 C523 1.415 . S
C526 H516 0.930 . S
C526 C524 1.419 . S
C526 C527 1.362 . S
C527 H517 0.930 . S
C527 C520 1.409 . S
C527 C526 1.362 . S
H528 C534 0.930 . S
H529 C537 0.930 . S
H530 C538 0.930 . S
H531 C539 0.930 . S
H532 C542 0.930 . S
H533 C543 0.930 . S
C534 H528 0.930 . S
C534 C535 1.355 . S
C534 C536 1.415 . S
C535 C534 1.355 . S
C535 C537 1.419 . S
C536 C534 1.415 . S
C536 C541 1.425 . S
C536 C543 1.409 1_556 S
C537 H529 0.930 . S
C537 C535 1.419 . S
C537 C538 1.362 . S
C538 H530 0.930 . S
C538 C537 1.362 . S
C538 C541 1.409 . S
C539 H531 0.930 . S
C539 C540 1.355 . S
C539 C541 1.415 1_554 S
C540 C539 1.355 . S
C540 C542 1.419 . S
C541 C536 1.425 . S
C541 C538 1.409 . S
C541 C539 1.415 1_556 S
C542 H532 0.930 . S
C542 C540 1.419 . S
C542 C543 1.362 . S
C543 H533 0.930 . S
C543 C536 1.409 1_554 S
C543 C542 1.362 . S
H544 C550 0.930 . S
H545 C553 0.930 . S
H546 C554 0.930 . S
H547 C555 0.930 . S
H548 C558 0.930 . S
H549 C559 0.930 . S
C550 H544 0.930 . S
C550 C551 1.355 . S
C550 C552 1.415 . S
C551 C550 1.355 . S
C551 C553 1.419 . S
C552 C550 1.415 . S
C552 C557 1.425 . S
C552 C559 1.409 . S
C553 H545 0.930 . S
C553 C551 1.419 . S
C553 C554 1.362 . S
C554 H546 0.930 . S
C554 C553 1.362 . S
C554 C557 1.409 . S
C555 H547 0.930 . S
C555 C556 1.355 . S
C555 C557 1.415 . S
C556 C555 1.355 . S
C556 C558 1.419 . S
C557 C552 1.425 . S
C557 C554 1.409 . S
C557 C555 1.415 . S
C558 H548 0.930 . S
C558 C556 1.419 . S
C558 C559 1.362 . S
C559 H549 0.930 . S
C559 C552 1.409 . S
C559 C558 1.362 . S
H560 C566 0.930 . S
H561 C569 0.930 . S
H562 C570 0.930 . S
H563 C571 0.930 . S
H564 C574 0.930 . S
H565 C575 0.930 . S
C566 H560 0.930 . S
C566 C567 1.355 . S
C566 C568 1.415 . S
C567 C566 1.355 . S
C567 C569 1.419 . S
C568 C566 1.415 . S
C568 C573 1.425 . S
C568 C575 1.409 . S
C569 H561 0.930 . S
C569 C567 1.419 . S
C569 C570 1.362 . S
C570 H562 0.930 . S
C570 C569 1.362 . S
C570 C573 1.409 . S
C571 H563 0.930 . S
C571 C572 1.355 . S
C571 C573 1.415 . S
C572 C571 1.355 . S
C572 C574 1.419 . S
C573 C568 1.425 . S
C573 C570 1.409 . S
C573 C571 1.415 . S
C574 H564 0.930 . S
C574 C572 1.419 . S
C574 C575 1.362 . S
C575 H565 0.930 . S
C575 C568 1.409 . S
C575 C574 1.362 . S
H576 C582 0.930 . S
H577 C585 0.930 . S
H578 C586 0.930 . S
H579 C587 0.930 . S
H580 C590 0.930 . S
H581 C591 0.930 . S
C582 H576 0.930 . S
C582 C583 1.355 1_655 S
C582 C584 1.415 . S
C583 C582 1.355 1_455 S
C583 C585 1.419 . S
C584 C582 1.415 . S
C584 C589 1.425 1_655 S
C584 C591 1.409 . S
C585 H577 0.930 . S
C585 C583 1.419 . S
C585 C586 1.362 . S
C586 H578 0.930 . S
C586 C585 1.362 . S
C586 C589 1.409 . S
C587 H579 0.930 . S
C587 C588 1.355 1_455 S
C587 C589 1.415 . S
C588 C587 1.355 1_655 S
C588 C590 1.419 . S
C589 C584 1.425 1_455 S
C589 C586 1.409 . S
C589 C587 1.415 . S
C590 H580 0.930 . S
C590 C588 1.419 . S
C590 C591 1.362 . S
C591 H581 0.930 . S
C591 C584 1.409 . S
C591 C590 1.362 . S
H592 C598 0.930 . S
H593 C601 0.930 . S
H594 C602 0.930 . S
H595 C603 0.930 . S
H596 C606 0.930 . S
H597 C607 0.930 . S
C598 H592 0.930 . S
C598 C599 1.355 . S
C598 C600 1.401 1_554 S
C599 C598 1.355 . S
C599 C601 1.419 . S
C600 C598 1.401 1_556 S
C600 C605 1.427 . S
C600 C607 1.421 . S
C601 H593 0.930 . S
C601 C599 1.419 . S
C601 C602 1.362 . S
C602 H594 0.930 . S
C602 C601 1.362 . S
C602 C605 1.409 1_554 S
C603 H595 0.930 . S
C603 C604 1.355 . S
C603 C605 1.415 . S
C604 C603 1.355 . S
C604 C606 1.419 . S
C605 C600 1.427 . S
C605 C602 1.409 1_556 S
C605 C603 1.415 . S
C606 H596 0.930 . S
C606 C604 1.419 . S
C606 C607 1.362 . S
C607 H597 0.930 . S
C607 C600 1.421 . S
C607 C606 1.362 . S
H608 C614 0.930 . S
H609 C617 0.930 . S
H610 C618 0.930 . S
H611 C619 0.930 . S
H612 C622 0.930 . S
H613 C623 0.930 . S
C614 H608 0.930 . S
C614 C615 1.355 . S
C614 C616 1.415 . S
C615 C614 1.355 . S
C615 C617 1.419 . S
C616 C614 1.415 . S
C616 C621 1.425 . S
C616 C623 1.409 . S
C617 H609 0.930 . S
C617 C615 1.419 . S
C617 C618 1.362 . S
C618 H610 0.930 . S
C618 C617 1.362 . S
C618 C621 1.409 . S
C619 H611 0.930 . S
C619 C620 1.355 . S
C619 C621 1.415 . S
C620 C619 1.355 . S
C620 C622 1.419 . S
C621 C616 1.425 . S
C621 C618 1.409 . S
C621 C619 1.415 . S
C622 H612 0.930 . S
C622 C620 1.419 . S
C622 C623 1.362 . S
C623 H613 0.930 . S
C623 C616 1.409 . S
C623 C622 1.362 . S
H624 C630 0.930 . S
H625 C633 0.930 . S
H626 C634 0.930 . S
H627 C635 0.930 . S
H628 C638 0.930 . S
H629 C639 0.930 . S
C630 H624 0.930 . S
C630 C631 1.355 . S
C630 C632 1.415 . S
C631 C630 1.355 . S
C631 C633 1.419 . S
C632 C630 1.415 . S
C632 C637 1.425 . S
C632 C639 1.409 . S
C633 H625 0.930 . S
C633 C631 1.419 . S
C633 C634 1.362 . S
C634 H626 0.930 . S
C634 C633 1.362 . S
C634 C637 1.409 . S
C635 H627 0.930 . S
C635 C636 1.355 . S
C635 C637 1.415 . S
C636 C635 1.355 . S
C636 C638 1.419 . S
C637 C632 1.425 . S
C637 C634 1.409 . S
C637 C635 1.415 . S
C638 H628 0.930 . S
C638 C636 1.419 . S
C638 C639 1.362 . S
C639 H629 0.930 . S
C639 C632 1.409 . S
C639 C638 1.362 . S
H640 C646 0.930 . S
H641 C649 0.930 . S
H642 C650 0.930 . S
H643 C651 0.930 . S
H644 C654 0.930 . S
H645 C655 0.930 . S
C646 H640 0.930 . S
C646 C647 1.355 . S
C646 C648 1.415 . S
C647 C646 1.355 . S
C647 C649 1.419 1_655 S
C648 C646 1.415 . S
C648 C653 1.425 1_655 S
C648 C655 1.409 . S
C649 H641 0.930 . S
C649 C647 1.419 1_455 S
C649 C650 1.362 . S
C650 H642 0.930 . S
C650 C649 1.362 . S
C650 C653 1.409 . S
C651 H643 0.930 . S
C651 C652 1.355 . S
C651 C653 1.415 . S
C652 C651 1.355 . S
C652 C654 1.419 1_455 S
C653 C648 1.425 1_455 S
C653 C650 1.409 . S
C653 C651 1.415 . S
C654 H644 0.930 . S
C654 C652 1.419 1_655 S
C654 C655 1.362 . S
C655 H645 0.930 . S
C655 C648 1.409 . S
C655 C654 1.362 . S
H656 C662 0.930 . S
H657 C665 0.930 . S
H658 C666 0.930 . S
H659 C667 0.930 . S
H660 C670 0.930 . S
H661 C671 0.930 1_554 S
C662 H656 0.930 . S
C662 C663 1.355 . S
C662 C664 1.415 . S
C663 C662 1.355 . S
C663 C665 1.419 . S
C664 C662 1.415 . S
C664 C669 1.425 1_554 S
C664 C671 1.409 1_554 S
C665 H657 0.930 . S
C665 C663 1.419 . S
C665 C666 1.362 . S
C666 H658 0.930 . S
C666 C665 1.362 . S
C666 C669 1.409 1_554 S
C667 H659 0.930 . S
C667 C668 1.355 . S
C667 C669 1.415 . S
C668 C667 1.355 . S
C668 C670 1.419 . S
C669 C664 1.425 1_556 S
C669 C666 1.409 1_556 S
C669 C667 1.415 . S
C670 H660 0.930 . S
C670 C668 1.419 . S
C670 C671 1.362 . S
C671 H661 0.930 1_556 S
C671 C664 1.409 1_556 S
C671 C670 1.362 . S
H672 C678 0.930 . S
H673 C681 0.930 . S
H674 C682 0.930 . S
H675 C683 0.930 . S
H676 C686 0.930 . S
H677 C687 0.930 . S
C678 H672 0.930 . S
C678 C679 1.355 . S
C678 C680 1.415 . S
C679 C678 1.355 . S
C679 C681 1.419 . S
C680 C678 1.415 . S
C680 C685 1.425 . S
C680 C687 1.409 . S
C681 H673 0.930 . S
C681 C679 1.419 . S
C681 C682 1.362 . S
C682 H674 0.930 . S
C682 C681 1.362 . S
C682 C685 1.409 . S
C683 H675 0.930 . S
C683 C684 1.355 . S
C683 C685 1.415 . S
C684 C683 1.355 . S
C684 C686 1.419 . S
C685 C680 1.425 . S
C685 C682 1.409 . S
C685 C683 1.415 . S
C686 H676 0.930 . S
C686 C684 1.419 . S
C686 C687 1.362 . S
C687 H677 0.930 . S
C687 C680 1.409 . S
C687 C686 1.362 . S
H688 C694 0.930 . S
H689 C697 0.930 . S
H690 C698 0.930 . S
H691 C699 0.930 . S
H692 C702 0.930 . S
H693 C703 0.930 . S
C694 H688 0.930 . S
C694 C695 1.355 . S
C694 C696 1.415 . S
C695 C694 1.355 . S
C695 C697 1.419 . S
C696 C694 1.415 . S
C696 C701 1.425 . S
C696 C703 1.409 . S
C697 H689 0.930 . S
C697 C695 1.419 . S
C697 C698 1.362 . S
C698 H690 0.930 . S
C698 C697 1.362 . S
C698 C701 1.409 . S
C699 H691 0.930 . S
C699 C700 1.355 . S
C699 C701 1.415 . S
C700 C699 1.355 . S
C700 C702 1.419 . S
C701 C696 1.425 . S
C701 C698 1.409 . S
C701 C699 1.415 . S
C702 H692 0.930 . S
C702 C700 1.419 . S
C702 C703 1.362 . S
C703 H693 0.930 . S
C703 C696 1.409 . S
C703 C702 1.362 . S
H704 C710 0.930 . S
H705 C713 0.930 . S
H706 C714 0.930 . S
H707 C715 0.930 . S
H708 C718 0.930 . S
H709 C719 0.930 . S
C710 H704 0.930 . S
C710 C711 1.355 . S
C710 C712 1.415 . S
C711 C710 1.355 . S
C711 C713 1.419 . S
C712 C710 1.415 . S
C712 C717 1.425 . S
C712 C719 1.409 . S
C713 H705 0.930 . S
C713 C711 1.419 . S
C713 C714 1.362 . S
C714 H706 0.930 . S
C714 C713 1.362 . S
C714 C717 1.409 . S
C715 H707 0.930 . S
C715 C716 1.355 . S
C715 C717 1.415 . S
C716 C715 1.355 . S
C716 C718 1.419 . S
C717 C712 1.425 . S
C717 C714 1.409 . S
C717 C715 1.415 . S
C718 H708 0.930 . S
C718 C716 1.419 . S
C718 C719 1.362 . S
C719 H709 0.930 . S
C719 C712 1.409 . S
C719 C718 1.362 . S
H720 C726 0.930 . S
H721 C729 0.930 . S
H722 C730 0.930 . S
H723 C731 0.930 . S
H724 C734 0.930 . S
H725 C735 0.930 . S
C726 H720 0.930 . S
C726 C727 1.355 . S
C726 C728 1.415 . S
C727 C726 1.355 . S
C727 C729 1.419 . S
C728 C726 1.415 . S
C728 C733 1.425 . S
C728 C735 1.409 . S
C729 H721 0.930 . S
C729 C727 1.419 . S
C729 C730 1.362 . S
C730 H722 0.930 . S
C730 C729 1.362 . S
C730 C733 1.409 . S
C731 H723 0.930 . S
C731 C732 1.355 . S
C731 C733 1.415 . S
C732 C731 1.355 . S
C732 C734 1.419 . S
C733 C728 1.425 . S
C733 C730 1.409 . S
C733 C731 1.415 . S
C734 H724 0.930 . S
C734 C732 1.419 . S
C734 C735 1.362 . S
C735 H725 0.930 . S
C735 C728 1.409 . S
C735 C734 1.362 . S
H736 C742 0.930 . S
H737 C745 0.930 . S
H738 C746 0.927 1_655 S
H739 C747 0.930 . S
H740 C750 0.930 . S
H741 C751 0.927 1_455 S
C742 H736 0.930 . S
C742 C743 1.355 . S
C742 C744 1.415 . S
C743 C742 1.355 . S
C743 C745 1.419 . S
C744 C742 1.415 . S
C744 C749 1.425 1_455 S
C744 C751 1.409 1_455 S
C745 H737 0.930 . S
C745 C743 1.419 . S
C745 C746 1.362 . S
C746 H738 0.927 1_455 S
C746 C745 1.362 . S
C746 C749 1.409 1_455 S
C747 H739 0.930 . S
C747 C748 1.355 . S
C747 C749 1.415 . S
C748 C747 1.355 . S
C748 C750 1.419 . S
C749 C744 1.425 1_655 S
C749 C746 1.409 1_655 S
C749 C747 1.415 . S
C750 H740 0.930 . S
C750 C748 1.419 . S
C750 C751 1.362 . S
C751 H741 0.927 1_655 S
C751 C744 1.409 1_655 S
C751 C750 1.362 . S
H752 C758 0.930 . S
H753 C761 0.930 . S
H754 C762 0.930 . S
H755 C763 0.930 . S
H756 C766 0.930 . S
H757 C767 0.930 . S
C758 H752 0.930 . S
C758 C759 1.355 . S
C758 C760 1.415 . S
C759 C758 1.355 . S
C759 C761 1.419 . S
C760 C758 1.415 . S
C760 C765 1.425 . S
C760 C767 1.409 1_554 S
C761 H753 0.930 . S
C761 C759 1.419 . S
C761 C762 1.362 . S
C762 H754 0.930 . S
C762 C761 1.362 . S
C762 C765 1.409 . S
C763 H755 0.930 . S
C763 C764 1.355 . S
C763 C765 1.415 1_556 S
C764 C763 1.355 . S
C764 C766 1.419 . S
C765 C760 1.425 . S
C765 C762 1.409 . S
C765 C763 1.415 1_554 S
C766 H756 0.930 . S
C766 C764 1.419 . S
C766 C767 1.362 . S
C767 H757 0.930 . S
C767 C760 1.409 1_556 S
C767 C766 1.362 . S
H768 C774 0.930 . S
H769 C777 0.930 . S
H770 C778 0.930 . S
H771 C779 0.930 . S
H772 C782 0.930 . S
H773 C783 0.930 . S
C774 H768 0.930 . S
C774 C775 1.355 . S
C774 C776 1.415 . S
C775 C774 1.355 . S
C775 C777 1.419 . S
C776 C774 1.415 . S
C776 C781 1.425 . S
C776 C783 1.409 . S
C777 H769 0.930 . S
C777 C775 1.419 . S
C777 C778 1.362 . S
C778 H770 0.930 . S
C778 C777 1.362 . S
C778 C781 1.409 . S
C779 H771 0.930 . S
C779 C780 1.355 . S
C779 C781 1.415 . S
C780 C779 1.355 . S
C780 C782 1.419 . S
C781 C776 1.425 . S
C781 C778 1.409 . S
C781 C779 1.415 . S
C782 H772 0.930 . S
C782 C780 1.419 . S
C782 C783 1.362 . S
C783 H773 0.930 . S
C783 C776 1.409 . S
C783 C782 1.362 . S
H784 C790 0.930 . S
H785 C793 0.930 . S
H786 C794 0.930 . S
H787 C795 0.930 . S
H788 C798 0.930 . S
H789 C799 0.930 . S
C790 H784 0.930 . S
C790 C791 1.355 . S
C790 C792 1.415 . S
C791 C790 1.355 . S
C791 C793 1.419 . S
C792 C790 1.415 . S
C792 C797 1.425 . S
C792 C799 1.409 . S
C793 H785 0.930 . S
C793 C791 1.419 . S
C793 C794 1.362 . S
C794 H786 0.930 . S
C794 C793 1.362 . S
C794 C797 1.409 . S
C795 H787 0.930 . S
C795 C796 1.355 . S
C795 C797 1.415 . S
C796 C795 1.355 . S
C796 C798 1.419 . S
C797 C792 1.425 . S
C797 C794 1.409 . S
C797 C795 1.415 . S
C798 H788 0.930 . S
C798 C796 1.419 . S
C798 C799 1.362 . S
C799 H789 0.930 . S
C799 C792 1.409 . S
C799 C798 1.362 . S
H800 C806 0.930 . S
H801 C809 0.930 . S
H802 C810 0.930 . S
H803 C811 0.930 . S
H804 C814 0.930 . S
H805 C815 0.930 . S
C806 H800 0.930 . S
C806 C807 1.355 . S
C806 C808 1.415 . S
C807 C806 1.355 . S
C807 C809 1.419 1_455 S
C808 C806 1.415 . S
C808 C813 1.425 1_455 S
C808 C815 1.409 . S
C809 H801 0.930 . S
C809 C807 1.419 1_655 S
C809 C810 1.362 . S
C810 H802 0.930 . S
C810 C809 1.362 . S
C810 C813 1.409 . S
C811 H803 0.930 . S
C811 C812 1.355 . S
C811 C813 1.415 . S
C812 C811 1.355 . S
C812 C814 1.419 1_655 S
C813 C808 1.425 1_655 S
C813 C810 1.409 . S
C813 C811 1.415 . S
C814 H804 0.930 . S
C814 C812 1.419 1_455 S
C814 C815 1.362 . S
C815 H805 0.930 . S
C815 C808 1.409 . S
C815 C814 1.362 . S
H816 C822 0.930 . S
H817 C825 0.930 . S
H818 C826 0.930 1_556 S
H819 C827 0.930 . S
H820 C830 0.930 . S
H821 C831 0.930 1_554 S
C822 H816 0.930 . S
C822 C823 1.355 . S
C822 C824 1.415 . S
C823 C822 1.355 . S
C823 C825 1.419 . S
C824 C822 1.415 . S
C824 C829 1.425 1_554 S
C824 C831 1.409 1_554 S
C825 H817 0.930 . S
C825 C823 1.419 . S
C825 C826 1.362 . S
C826 H818 0.930 1_554 S
C826 C825 1.362 . S
C826 C829 1.409 1_554 S
C827 H819 0.930 . S
C827 C828 1.355 . S
C827 C829 1.415 . S
C828 C827 1.355 . S
C828 C830 1.419 . S
C829 C824 1.425 1_556 S
C829 C826 1.409 1_556 S
C829 C827 1.415 . S
C830 H820 0.930 . S
C830 C828 1.419 . S
C830 C831 1.362 . S
C831 H821 0.930 1_556 S
C831 C824 1.409 1_556 S
C831 C830 1.362 . S
H832 C838 0.930 . S
H833 C841 0.930 . S
H834 C842 0.930 . S
H835 C843 0.930 . S
H836 C846 0.930 . S
H837 C847 0.930 . S
C838 H832 0.930 . S
C838 C839 1.355 . S
C838 C840 1.415 . S
C839 C838 1.355 . S
C839 C841 1.419 . S
C840 C838 1.415 . S
C840 C845 1.425 . S
C840 C847 1.409 . S
C841 H833 0.930 . S
C841 C839 1.419 . S
C841 C842 1.362 . S
C842 H834 0.930 . S
C842 C841 1.362 . S
C842 C845 1.409 . S
C843 H835 0.930 . S
C843 C844 1.355 . S
C843 C845 1.415 . S
C844 C843 1.355 . S
C844 C846 1.419 . S
C845 C840 1.425 . S
C845 C842 1.409 . S
C845 C843 1.415 . S
C846 H836 0.930 . S
C846 C844 1.419 . S
C846 C847 1.362 . S
C847 H837 0.930 . S
C847 C840 1.409 . S
C847 C846 1.362 . S
H848 C854 0.930 . S
H849 C857 0.930 . S
H850 C858 0.930 . S
H851 C859 0.930 . S
H852 C862 0.930 . S
H853 C863 0.930 . S
C854 H848 0.930 . S
C854 C855 1.355 . S
C854 C856 1.415 . S
C855 C854 1.355 . S
C855 C857 1.419 . S
C856 C854 1.415 . S
C856 C861 1.425 . S
C856 C863 1.409 . S
C857 H849 0.930 . S
C857 C855 1.419 . S
C857 C858 1.362 . S
C858 H850 0.930 . S
C858 C857 1.362 . S
C858 C861 1.409 . S
C859 H851 0.930 . S
C859 C860 1.355 . S
C859 C861 1.415 . S
C860 C859 1.355 . S
C860 C862 1.419 . S
C861 C856 1.425 . S
C861 C858 1.409 . S
C861 C859 1.415 . S
C862 H852 0.930 . S
C862 C860 1.419 . S
C862 C863 1.362 . S
C863 H853 0.930 . S
C863 C856 1.409 . S
C863 C862 1.362 . S
H864 C870 0.924 1_655 S
H865 C873 0.930 . S
H866 C874 0.930 . S
H867 C875 0.923 1_455 S
H868 C878 0.930 . S
H869 C879 0.930 . S
C870 H864 0.924 1_455 S
C870 C871 1.355 . S
C870 C872 1.415 1_455 S
C871 C870 1.355 . S
C871 C873 1.419 . S
C872 C870 1.415 1_655 S
C872 C877 1.425 1_655 S
C872 C879 1.409 . S
C873 H865 0.930 . S
C873 C871 1.419 . S
C873 C874 1.362 . S
C874 H866 0.930 . S
C874 C873 1.362 . S
C874 C877 1.409 . S
C875 H867 0.923 1_655 S
C875 C876 1.355 . S
C875 C877 1.415 1_655 S
C876 C875 1.355 . S
C876 C878 1.419 . S
C877 C872 1.425 1_455 S
C877 C874 1.409 . S
C877 C875 1.415 1_455 S
C878 H868 0.930 . S
C878 C876 1.419 . S
C878 C879 1.362 . S
C879 H869 0.930 . S
C879 C872 1.409 . S
C879 C878 1.362 . S
H880 C886 0.930 . S
H881 C889 0.930 . S
H882 C890 0.934 . S
H883 C891 0.930 . S
H884 C894 0.930 . S
H885 C895 0.930 1_556 S
C886 H880 0.930 . S
C886 C887 1.355 . S
C886 C888 1.415 . S
C887 C886 1.355 . S
C887 C889 1.419 . S
C888 C886 1.415 . S
C888 C893 1.425 1_556 S
C888 C895 1.409 1_556 S
C889 H881 0.930 . S
C889 C887 1.419 . S
C889 C890 1.362 . S
C890 H882 0.934 . S
C890 C889 1.362 . S
C890 C893 1.409 1_556 S
C891 H883 0.930 . S
C891 C892 1.355 . S
C891 C893 1.415 . S
C892 C891 1.355 . S
C892 C894 1.419 . S
C893 C888 1.425 1_554 S
C893 C890 1.409 1_554 S
C893 C891 1.415 . S
C894 H884 0.930 . S
C894 C892 1.419 . S
C894 C895 1.362 . S
C895 H885 0.930 1_554 S
C895 C888 1.409 1_554 S
C895 C894 1.362 . S
H896 C902 0.930 . S
H897 C905 0.930 . S
H898 C906 0.930 . S
H899 C907 0.930 . S
H900 C910 0.930 . S
H901 C911 0.930 . S
C902 H896 0.930 . S
C902 C903 1.355 . S
C902 C904 1.415 . S
C903 C902 1.355 . S
C903 C905 1.419 . S
C904 C902 1.415 . S
C904 C909 1.425 . S
C904 C911 1.409 . S
C905 H897 0.930 . S
C905 C903 1.419 . S
C905 C906 1.362 . S
C906 H898 0.930 . S
C906 C905 1.362 . S
C906 C909 1.409 . S
C907 H899 0.930 . S
C907 C908 1.355 . S
C907 C909 1.415 . S
C908 C907 1.355 . S
C908 C910 1.419 . S
C909 C904 1.425 . S
C909 C906 1.409 . S
C909 C907 1.415 . S
C910 H900 0.930 . S
C910 C908 1.419 . S
C910 C911 1.362 . S
C911 H901 0.930 . S
C911 C904 1.409 . S
C911 C910 1.362 . S
H912 C918 0.930 . S
H913 C921 0.930 . S
H914 C922 0.930 . S
H915 C923 0.930 . S
H916 C926 0.930 . S
H917 C927 0.930 . S
C918 H912 0.930 . S
C918 C919 1.355 . S
C918 C920 1.415 . S
C919 C918 1.355 . S
C919 C921 1.419 . S
C920 C918 1.415 . S
C920 C925 1.425 . S
C920 C927 1.409 . S
C921 H913 0.930 . S
C921 C919 1.419 . S
C921 C922 1.362 . S
C922 H914 0.930 . S
C922 C921 1.362 . S
C922 C925 1.409 . S
C923 H915 0.930 . S
C923 C924 1.355 . S
C923 C925 1.415 . S
C924 C923 1.355 . S
C924 C926 1.419 . S
C925 C920 1.425 . S
C925 C922 1.409 . S
C925 C923 1.415 . S
C926 H916 0.930 . S
C926 C924 1.419 . S
C926 C927 1.362 . S
C927 H917 0.930 . S
C927 C920 1.409 . S
C927 C926 1.362 . S
H928 C934 0.930 . S
H929 C937 0.930 . S
H930 C938 0.930 . S
H931 C939 0.930 . S
H932 C942 0.930 . S
H933 C943 0.930 . S
C934 H928 0.930 . S
C934 C935 1.355 . S
C934 C936 1.415 . S
C935 C934 1.355 . S
C935 C937 1.419 . S
C936 C934 1.415 . S
C936 C941 1.425 1_655 S
C936 C943 1.409 . S
C937 H929 0.930 . S
C937 C935 1.419 . S
C937 C938 1.362 1_655 S
C938 H930 0.930 . S
C938 C937 1.362 1_455 S
C938 C941 1.409 . S
C939 H931 0.930 . S
C939 C940 1.355 . S
C939 C941 1.415 . S
C940 C939 1.355 . S
C940 C942 1.419 . S
C941 C936 1.425 1_455 S
C941 C938 1.409 . S
C941 C939 1.415 . S
C942 H932 0.930 . S
C942 C940 1.419 . S
C942 C943 1.362 1_455 S
C943 H933 0.930 . S
C943 C936 1.409 . S
C943 C942 1.362 1_655 S
H944 C950 0.930 . S
H945 C953 0.930 . S
H946 C954 0.930 . S
H947 C955 0.930 . S
H948 C958 0.930 . S
H949 C959 0.930 . S
C950 H944 0.930 . S
C950 C951 1.355 . S
C950 C952 1.415 . S
C951 C950 1.355 . S
C951 C953 1.419 . S
C952 C950 1.415 . S
C952 C957 1.425 . S
C952 C959 1.409 1_554 S
C953 H945 0.930 . S
C953 C951 1.419 . S
C953 C954 1.362 . S
C954 H946 0.930 . S
C954 C953 1.362 . S
C954 C957 1.409 . S
C955 H947 0.930 . S
C955 C956 1.355 . S
C955 C957 1.415 1_556 S
C956 C955 1.355 . S
C956 C958 1.419 . S
C957 C952 1.425 . S
C957 C954 1.409 . S
C957 C955 1.415 1_554 S
C958 H948 0.930 . S
C958 C956 1.419 . S
C958 C959 1.362 . S
C959 H949 0.930 . S
C959 C952 1.409 1_556 S
C959 C958 1.362 . S
H960 C966 0.930 1_655 S
H961 C969 0.930 . S
H962 C970 0.930 . S
H963 C971 0.930 1_455 S
H964 C974 0.930 . S
H965 C975 0.930 . S
C966 H960 0.930 1_455 S
C966 C967 1.355 1_556 S
C966 C968 1.415 1_455 S
C967 C966 1.355 1_554 S
C967 C969 1.419 . S
C968 C966 1.415 1_655 S
C968 C973 1.425 1_646 S
C968 C975 1.409 . S
C969 H961 0.930 . S
C969 C967 1.419 . S
C969 C970 1.362 1_545 S
C970 H962 0.930 . S
C970 C969 1.362 1_565 S
C970 C973 1.409 . S
C971 H963 0.930 1_655 S
C971 C972 1.355 1_554 S
C971 C973 1.415 1_655 S
C972 C971 1.355 1_556 S
C972 C974 1.419 . S
C973 C968 1.425 1_464 S
C973 C970 1.409 . S
C973 C971 1.415 1_455 S
C974 H964 0.930 . S
C974 C972 1.419 . S
C974 C975 1.362 1_565 S
C975 H965 0.930 . S
C975 C968 1.409 . S
C975 C974 1.362 1_545 S
H976 C982 0.930 . S
H977 C985 0.930 . S
H978 C986 0.930 . S
H979 C987 0.930 . S
H980 C990 0.930 . S
H981 C991 0.930 . S
C982 H976 0.930 . S
C982 C983 1.355 . S
C982 C984 1.415 . S
C983 C982 1.355 . S
C983 C985 1.419 . S
C984 C982 1.415 . S
C984 C989 1.425 . S
C984 C991 1.409 . S
C985 H977 0.930 . S
C985 C983 1.419 . S
C985 C986 1.362 . S
C986 H978 0.930 . S
C986 C985 1.362 . S
C986 C989 1.409 . S
C987 H979 0.930 . S
C987 C988 1.355 . S
C987 C989 1.415 . S
C988 C987 1.355 . S
C988 C990 1.419 . S
C989 C984 1.425 . S
C989 C986 1.409 . S
C989 C987 1.415 . S
C990 H980 0.930 . S
C990 C988 1.419 . S
C990 C991 1.362 . S
C991 H981 0.930 . S
C991 C984 1.409 . S
C991 C990 1.362 . S
H992 C998 0.930 . S
H993 C1001 0.930 . S
H994 C1002 0.930 . S
H995 C1003 0.930 . S
H996 C1006 0.930 . S
H997 C1007 0.930 . S
C998 H992 0.930 . S
C998 C999 1.355 . S
C998 C1000 1.415 . S
C999 C998 1.355 . S
C999 C1001 1.419 . S
C1000 C998 1.415 . S
C1000 C1005 1.425 1_545 S
C1000 C1007 1.409 . S
C1001 H993 0.930 . S
C1001 C999 1.419 . S
C1001 C1002 1.362 1_545 S
C1002 H994 0.930 . S
C1002 C1001 1.362 1_565 S
C1002 C1005 1.409 . S
C1003 H995 0.930 . S
C1003 C1004 1.355 . S
C1003 C1005 1.415 . S
C1004 C1003 1.355 . S
C1004 C1006 1.419 . S
C1005 C1000 1.425 1_565 S
C1005 C1002 1.409 . S
C1005 C1003 1.415 . S
C1006 H996 0.930 . S
C1006 C1004 1.419 . S
C1006 C1007 1.362 1_565 S
C1007 H997 0.930 . S
C1007 C1000 1.409 . S
C1007 C1006 1.362 1_545 S
H1008 C1014 0.930 . S
H1009 C1017 0.930 . S
H1010 C1018 0.930 . S
H1011 C1019 0.930 . S
H1012 C1022 0.930 . S
H1013 C1023 0.930 . S
C1014 H1008 0.930 . S
C1014 C1015 1.355 . S
C1014 C1016 1.415 . S
C1015 C1014 1.355 . S
C1015 C1017 1.419 . S
C1016 C1014 1.415 . S
C1016 C1021 1.425 . S
C1016 C1023 1.409 . S
C1017 H1009 0.930 . S
C1017 C1015 1.419 . S
C1017 C1018 1.362 . S
C1018 H1010 0.930 . S
C1018 C1017 1.362 . S
C1018 C1021 1.409 . S
C1019 H1011 0.930 . S
C1019 C1020 1.355 . S
C1019 C1021 1.415 . S
C1020 C1019 1.355 . S
C1020 C1022 1.419 . S
C1021 C1016 1.425 . S
C1021 C1018 1.409 . S
C1021 C1019 1.415 . S
C1022 H1012 0.930 . S
C1022 C1020 1.419 . S
C1022 C1023 1.362 . S
C1023 H1013 0.930 . S
C1023 C1016 1.409 . S
C1023 C1022 1.362 . S
H1024 C1030 0.930 . S
H1025 C1033 0.930 . S
H1026 C1034 0.930 . S
H1027 C1035 0.930 . S
H1028 C1038 0.930 . S
H1029 C1039 0.930 . S
C1030 H1024 0.930 . S
C1030 C1031 1.355 . S
C1030 C1032 1.415 . S
C1031 C1030 1.355 . S
C1031 C1033 1.419 . S
C1032 C1030 1.415 . S
C1032 C1037 1.425 1_465 S
C1032 C1039 1.409 1_565 S
C1033 H1025 0.930 . S
C1033 C1031 1.419 . S
C1033 C1034 1.362 1_455 S
C1034 H1026 0.930 . S
C1034 C1033 1.362 1_655 S
C1034 C1037 1.409 1_565 S
C1035 H1027 0.930 . S
C1035 C1036 1.355 . S
C1035 C1037 1.415 . S
C1036 C1035 1.355 . S
C1036 C1038 1.419 . S
C1037 C1032 1.425 1_645 S
C1037 C1034 1.409 1_545 S
C1037 C1035 1.415 . S
C1038 H1028 0.930 . S
C1038 C1036 1.419 . S
C1038 C1039 1.362 1_655 S
C1039 H1029 0.930 . S
C1039 C1032 1.409 1_545 S
C1039 C1038 1.362 1_455 S
H1040 C1046 0.930 . S
H1041 C1049 0.930 . S
H1042 C1050 0.930 . S
H1043 C1051 0.930 . S
H1044 C1054 0.930 . S
H1045 C1055 0.930 . S
C1046 H1040 0.930 . S
C1046 C1047 1.355 . S
C1046 C1048 1.415 . S
C1047 C1046 1.355 . S
C1047 C1049 1.419 . S
C1048 C1046 1.415 . S
C1048 C1053 1.425 . S
C1048 C1055 1.409 . S
C1049 H1041 0.930 . S
C1049 C1047 1.419 . S
C1049 C1050 1.362 . S
C1050 H1042 0.930 . S
C1050 C1049 1.362 . S
C1050 C1053 1.409 . S
C1051 H1043 0.930 . S
C1051 C1052 1.355 . S
C1051 C1053 1.415 . S
C1052 C1051 1.355 . S
C1052 C1054 1.419 . S
C1053 C1048 1.425 . S
C1053 C1050 1.409 . S
C1053 C1051 1.415 . S
C1054 H1044 0.930 . S
C1054 C1052 1.419 . S
C1054 C1055 1.362 . S
C1055 H1045 0.930 . S
C1055 C1048 1.409 . S
C1055 C1054 1.362 . S
H1056 C1062 0.930 1_556 S
H1057 C1065 0.930 . S
H1058 C1066 0.930 . S
H1059 C1067 0.930 1_554 S
H1060 C1070 0.930 . S
H1061 C1071 0.930 . S
C1062 H1056 0.930 1_554 S
C1062 C1063 1.355 . S
C1062 C1064 1.415 1_554 S
C1063 C1062 1.355 . S
C1063 C1065 1.419 . S
C1064 C1062 1.415 1_556 S
C1064 C1069 1.425 1_566 S
C1064 C1071 1.409 . S
C1065 H1057 0.930 . S
C1065 C1063 1.419 . S
C1065 C1066 1.362 1_565 S
C1066 H1058 0.930 . S
C1066 C1065 1.362 1_545 S
C1066 C1069 1.409 . S
C1067 H1059 0.930 1_556 S
C1067 C1068 1.355 . S
C1067 C1069 1.415 1_556 S
C1068 C1067 1.355 . S
C1068 C1070 1.419 . S
C1069 C1064 1.425 1_544 S
C1069 C1066 1.409 . S
C1069 C1067 1.415 1_554 S
C1070 H1060 0.930 . S
C1070 C1068 1.419 . S
C1070 C1071 1.362 1_545 S
C1071 H1061 0.930 . S
C1071 C1064 1.409 . S
C1071 C1070 1.362 1_565 S
H1072 C1078 0.930 . S
H1073 C1081 0.930 . S
H1074 C1082 0.930 . S
H1075 C1083 0.930 . S
H1076 C1086 0.930 . S
H1077 C1087 0.930 . S
C1078 H1072 0.930 . S
C1078 C1079 1.355 . S
C1078 C1080 1.415 . S
C1079 C1078 1.355 . S
C1079 C1081 1.419 . S
C1080 C1078 1.415 . S
C1080 C1085 1.425 . S
C1080 C1087 1.409 . S
C1081 H1073 0.930 . S
C1081 C1079 1.419 . S
C1081 C1082 1.362 . S
C1082 H1074 0.930 . S
C1082 C1081 1.362 . S
C1082 C1085 1.409 . S
C1083 H1075 0.930 . S
C1083 C1084 1.355 . S
C1083 C1085 1.415 . S
C1084 C1083 1.355 . S
C1084 C1086 1.419 . S
C1085 C1080 1.425 . S
C1085 C1082 1.409 . S
C1085 C1083 1.415 . S
C1086 H1076 0.930 . S
C1086 C1084 1.419 . S
C1086 C1087 1.362 . S
C1087 H1077 0.930 . S
C1087 C1080 1.409 . S
C1087 C1086 1.362 . S
H1088 C1094 0.930 . S
H1089 C1097 0.930 . S
H1090 C1098 0.930 . S
H1091 C1099 0.930 . S
H1092 C1102 0.930 . S
H1093 C1103 0.930 . S
C1094 H1088 0.930 . S
C1094 C1095 1.355 . S
C1094 C1096 1.415 . S
C1095 C1094 1.355 . S
C1095 C1097 1.419 . S
C1096 C1094 1.415 . S
C1096 C1101 1.425 . S
C1096 C1103 1.409 . S
C1097 H1089 0.930 . S
C1097 C1095 1.419 . S
C1097 C1098 1.362 . S
C1098 H1090 0.930 . S
C1098 C1097 1.362 . S
C1098 C1101 1.409 . S
C1099 H1091 0.930 . S
C1099 C1100 1.355 . S
C1099 C1101 1.415 . S
C1100 C1099 1.355 . S
C1100 C1102 1.419 . S
C1101 C1096 1.425 . S
C1101 C1098 1.409 . S
C1101 C1099 1.415 . S
C1102 H1092 0.930 . S
C1102 C1100 1.419 . S
C1102 C1103 1.362 . S
C1103 H1093 0.930 . S
C1103 C1096 1.409 . S
C1103 C1102 1.362 . S
H1104 C1110 0.930 . S
H1105 C1113 0.930 . S
H1106 C1114 0.930 . S
H1107 C1115 0.930 . S
H1108 C1118 0.930 . S
H1109 C1119 0.930 . S
C1110 H1104 0.930 . S
C1110 C1111 1.355 . S
C1110 C1112 1.415 . S
C1111 C1110 1.355 . S
C1111 C1113 1.419 . S
C1112 C1110 1.415 . S
C1112 C1117 1.425 . S
C1112 C1119 1.409 . S
C1113 H1105 0.930 . S
C1113 C1111 1.419 . S
C1113 C1114 1.362 . S
C1114 H1106 0.930 . S
C1114 C1113 1.362 . S
C1114 C1117 1.409 . S
C1115 H1107 0.930 . S
C1115 C1116 1.355 . S
C1115 C1117 1.415 . S
C1116 C1115 1.355 . S
C1116 C1118 1.419 . S
C1117 C1112 1.425 . S
C1117 C1114 1.409 . S
C1117 C1115 1.415 . S
C1118 H1108 0.930 . S
C1118 C1116 1.419 . S
C1118 C1119 1.362 . S
C1119 H1109 0.930 . S
C1119 C1112 1.409 . S
C1119 C1118 1.362 . S
H1120 C1126 0.930 . S
H1121 C1129 0.930 . S
H1122 C1130 0.930 . S
H1123 C1131 0.930 . S
H1124 C1134 0.930 . S
H1125 C1135 0.930 . S
C1126 H1120 0.930 . S
C1126 C1127 1.355 . S
C1126 C1128 1.415 . S
C1127 C1126 1.355 . S
C1127 C1129 1.419 . S
C1128 C1126 1.415 . S
C1128 C1133 1.425 . S
C1128 C1135 1.409 . S
C1129 H1121 0.930 . S
C1129 C1127 1.419 . S
C1129 C1130 1.362 . S
C1130 H1122 0.930 . S
C1130 C1129 1.362 . S
C1130 C1133 1.409 . S
C1131 H1123 0.930 . S
C1131 C1132 1.355 . S
C1131 C1133 1.415 . S
C1132 C1131 1.355 . S
C1132 C1134 1.419 . S
C1133 C1128 1.425 . S
C1133 C1130 1.409 . S
C1133 C1131 1.415 . S
C1134 H1124 0.930 . S
C1134 C1132 1.419 . S
C1134 C1135 1.362 . S
C1135 H1125 0.930 . S
C1135 C1128 1.409 . S
C1135 C1134 1.362 . S
H1136 C1142 0.930 . S
H1137 C1145 0.930 . S
H1138 C1146 0.930 . S
H1139 C1147 0.930 . S
H1140 C1150 0.930 . S
H1141 C1151 0.930 . S
C1142 H1136 0.930 . S
C1142 C1143 1.355 . S
C1142 C1144 1.415 . S
C1143 C1142 1.355 . S
C1143 C1145 1.419 . S
C1144 C1142 1.415 . S
C1144 C1149 1.425 . S
C1144 C1151 1.409 . S
C1145 H1137 0.930 . S
C1145 C1143 1.419 . S
C1145 C1146 1.362 . S
C1146 H1138 0.930 . S
C1146 C1145 1.362 . S
C1146 C1149 1.409 . S
C1147 H1139 0.930 . S
C1147 C1148 1.355 . S
C1147 C1149 1.415 . S
C1148 C1147 1.355 . S
C1148 C1150 1.419 . S
C1149 C1144 1.425 . S
C1149 C1146 1.409 . S
C1149 C1147 1.415 . S
C1150 H1140 0.930 . S
C1150 C1148 1.419 . S
C1150 C1151 1.362 . S
C1151 H1141 0.930 . S
C1151 C1144 1.409 . S
C1151 C1150 1.362 . S
H1152 C1158 0.930 . S
H1153 C1161 0.930 . S
H1154 C1162 0.930 . S
H1155 C1163 0.930 . S
H1156 C1166 0.930 . S
H1157 C1167 0.930 . S
C1158 H1152 0.930 . S
C1158 C1159 1.355 . S
C1158 C1160 1.415 . S
C1159 C1158 1.355 . S
C1159 C1161 1.419 . S
C1160 C1158 1.415 . S
C1160 C1165 1.425 . S
C1160 C1167 1.409 . S
C1161 H1153 0.930 . S
C1161 C1159 1.419 . S
C1161 C1162 1.362 . S
C1162 H1154 0.930 . S
C1162 C1161 1.362 . S
C1162 C1165 1.409 . S
C1163 H1155 0.930 . S
C1163 C1164 1.355 . S
C1163 C1165 1.415 . S
C1164 C1163 1.355 . S
C1164 C1166 1.419 . S
C1165 C1160 1.425 . S
C1165 C1162 1.409 . S
C1165 C1163 1.415 . S
C1166 H1156 0.930 . S
C1166 C1164 1.419 . S
C1166 C1167 1.362 . S
C1167 H1157 0.930 . S
C1167 C1160 1.409 . S
C1167 C1166 1.362 . S
H1168 C1174 0.930 1_455 S
H1169 C1177 0.930 . S
H1170 C1178 0.930 . S
H1171 C1179 0.930 1_655 S
H1172 C1182 0.930 . S
H1173 C1183 0.930 . S
C1174 H1168 0.930 1_655 S
C1174 C1175 1.355 . S
C1174 C1176 1.415 1_655 S
C1175 C1174 1.355 . S
C1175 C1177 1.419 1_554 S
C1176 C1174 1.415 1_455 S
C1176 C1181 1.425 1_454 S
C1176 C1183 1.409 . S
C1177 H1169 0.930 . S
C1177 C1175 1.419 1_556 S
C1177 C1178 1.362 . S
C1178 H1170 0.930 . S
C1178 C1177 1.362 . S
C1178 C1181 1.409 . S
C1179 H1171 0.930 1_455 S
C1179 C1180 1.355 . S
C1179 C1181 1.415 1_455 S
C1180 C1179 1.355 . S
C1180 C1182 1.419 1_556 S
C1181 C1176 1.425 1_656 S
C1181 C1178 1.409 . S
C1181 C1179 1.415 1_655 S
C1182 H1172 0.930 . S
C1182 C1180 1.419 1_554 S
C1182 C1183 1.362 . S
C1183 H1173 0.930 . S
C1183 C1176 1.409 . S
C1183 C1182 1.362 . S
H1184 C1190 0.930 . S
H1185 C1193 0.930 . S
H1186 C1194 0.930 . S
H1187 C1195 0.930 . S
H1188 C1198 0.930 . S
H1189 C1199 0.930 . S
C1190 H1184 0.930 . S
C1190 C1191 1.355 1_554 S
C1190 C1192 1.415 . S
C1191 C1190 1.355 1_556 S
C1191 C1193 1.419 . S
C1192 C1190 1.415 . S
C1192 C1197 1.425 1_554 S
C1192 C1199 1.409 . S
C1193 H1185 0.930 . S
C1193 C1191 1.419 . S
C1193 C1194 1.362 . S
C1194 H1186 0.930 . S
C1194 C1193 1.362 . S
C1194 C1197 1.409 . S
C1195 H1187 0.930 . S
C1195 C1196 1.355 1_556 S
C1195 C1197 1.415 . S
C1196 C1195 1.355 1_554 S
C1196 C1198 1.419 . S
C1197 C1192 1.425 1_556 S
C1197 C1194 1.409 . S
C1197 C1195 1.415 . S
C1198 H1188 0.930 . S
C1198 C1196 1.419 . S
C1198 C1199 1.362 . S
C1199 H1189 0.930 . S
C1199 C1192 1.409 . S
C1199 C1198 1.362 . S
H1200 C1206 0.930 . S
H1201 C1209 0.930 . S
H1202 C1210 0.930 . S
H1203 C1211 0.930 . S
H1204 C1214 0.930 . S
H1205 C1215 0.930 . S
C1206 H1200 0.930 . S
C1206 C1207 1.355 . S
C1206 C1208 1.415 . S
C1207 C1206 1.355 . S
C1207 C1209 1.419 . S
C1208 C1206 1.415 . S
C1208 C1213 1.425 1_455 S
C1208 C1215 1.409 . S
C1209 H1201 0.930 . S
C1209 C1207 1.419 . S
C1209 C1210 1.362 1_455 S
C1210 H1202 0.930 . S
C1210 C1209 1.362 1_655 S
C1210 C1213 1.409 . S
C1211 H1203 0.930 . S
C1211 C1212 1.355 . S
C1211 C1213 1.415 . S
C1212 C1211 1.355 . S
C1212 C1214 1.419 . S
C1213 C1208 1.425 1_655 S
C1213 C1210 1.409 . S
C1213 C1211 1.415 . S
C1214 H1204 0.930 . S
C1214 C1212 1.419 . S
C1214 C1215 1.362 1_655 S
C1215 H1205 0.930 . S
C1215 C1208 1.409 . S
C1215 C1214 1.362 1_455 S
H1216 C1222 0.930 . S
H1217 C1225 0.930 . S
H1218 C1226 0.930 . S
H1219 C1227 0.930 . S
H1220 C1230 0.930 . S
H1221 C1231 0.930 . S
C1222 H1216 0.930 . S
C1222 C1223 1.355 . S
C1222 C1224 1.415 . S
C1223 C1222 1.355 . S
C1223 C1225 1.419 . S
C1224 C1222 1.415 . S
C1224 C1229 1.425 . S
C1224 C1231 1.409 . S
C1225 H1217 0.930 . S
C1225 C1223 1.419 . S
C1225 C1226 1.362 . S
C1226 H1218 0.930 . S
C1226 C1225 1.362 . S
C1226 C1229 1.409 . S
C1227 H1219 0.930 . S
C1227 C1228 1.355 . S
C1227 C1229 1.415 . S
C1228 C1227 1.355 . S
C1228 C1230 1.419 . S
C1229 C1224 1.425 . S
C1229 C1226 1.409 . S
C1229 C1227 1.415 . S
C1230 H1220 0.930 . S
C1230 C1228 1.419 . S
C1230 C1231 1.362 . S
C1231 H1221 0.930 . S
C1231 C1224 1.409 . S
C1231 C1230 1.362 . S
H1232 C1238 0.930 . S
H1233 C1241 0.930 . S
H1234 C1242 0.930 . S
H1235 C1243 0.930 . S
H1236 C1246 0.930 . S
H1237 C1247 0.930 . S
C1238 H1232 0.930 . S
C1238 C1239 1.355 . S
C1238 C1240 1.415 . S
C1239 C1238 1.355 . S
C1239 C1241 1.419 . S
C1240 C1238 1.415 . S
C1240 C1245 1.425 . S
C1240 C1247 1.409 . S
C1241 H1233 0.930 . S
C1241 C1239 1.419 . S
C1241 C1242 1.362 . S
C1242 H1234 0.930 . S
C1242 C1241 1.362 . S
C1242 C1245 1.409 . S
C1243 H1235 0.930 . S
C1243 C1244 1.355 . S
C1243 C1245 1.415 . S
C1244 C1243 1.355 . S
C1244 C1246 1.419 . S
C1245 C1240 1.425 . S
C1245 C1242 1.409 . S
C1245 C1243 1.415 . S
C1246 H1236 0.930 . S
C1246 C1244 1.419 . S
C1246 C1247 1.362 . S
C1247 H1237 0.930 . S
C1247 C1240 1.409 . S
C1247 C1246 1.362 . S
H1248 C1254 0.930 . S
H1249 C1257 0.930 . S
H1250 C1258 0.930 . S
H1251 C1259 0.930 . S
H1252 C1262 0.930 . S
H1253 C1263 0.930 . S
C1254 H1248 0.930 . S
C1254 C1255 1.355 . S
C1254 C1256 1.415 . S
C1255 C1254 1.355 . S
C1255 C1257 1.419 . S
C1256 C1254 1.415 . S
C1256 C1261 1.425 . S
C1256 C1263 1.409 . S
C1257 H1249 0.930 . S
C1257 C1255 1.419 . S
C1257 C1258 1.362 . S
C1258 H1250 0.930 . S
C1258 C1257 1.362 . S
C1258 C1261 1.409 . S
C1259 H1251 0.930 . S
C1259 C1260 1.355 . S
C1259 C1261 1.415 . S
C1260 C1259 1.355 . S
C1260 C1262 1.419 . S
C1261 C1256 1.425 . S
C1261 C1258 1.409 . S
C1261 C1259 1.415 . S
C1262 H1252 0.930 . S
C1262 C1260 1.419 . S
C1262 C1263 1.362 . S
C1263 H1253 0.930 . S
C1263 C1256 1.409 . S
C1263 C1262 1.362 . S
H1264 C1270 0.930 . S
H1265 C1273 0.930 . S
H1266 C1274 0.930 . S
H1267 C1275 0.930 . S
H1268 C1278 0.930 . S
H1269 C1279 0.930 . S
C1270 H1264 0.930 . S
C1270 C1271 1.355 . S
C1270 C1272 1.415 . S
C1271 C1270 1.355 . S
C1271 C1273 1.419 . S
C1272 C1270 1.415 . S
C1272 C1277 1.425 . S
C1272 C1279 1.409 . S
C1273 H1265 0.930 . S
C1273 C1271 1.419 . S
C1273 C1274 1.362 . S
C1274 H1266 0.930 . S
C1274 C1273 1.362 . S
C1274 C1277 1.409 . S
C1275 H1267 0.930 . S
C1275 C1276 1.355 . S
C1275 C1277 1.415 . S
C1276 C1275 1.355 . S
C1276 C1278 1.419 . S
C1277 C1272 1.425 . S
C1277 C1274 1.409 . S
C1277 C1275 1.415 . S
C1278 H1268 0.930 . S
C1278 C1276 1.419 . S
C1278 C1279 1.362 . S
C1279 H1269 0.930 . S
C1279 C1272 1.409 . S
C1279 C1278 1.362 . S
H1280 C1286 0.930 . S
H1281 C1289 0.930 . S
H1282 C1290 0.930 . S
H1283 C1291 0.930 . S
H1284 C1294 0.930 . S
H1285 C1295 0.930 . S
C1286 H1280 0.930 . S
C1286 C1287 1.355 . S
C1286 C1288 1.415 . S
C1287 C1286 1.355 . S
C1287 C1289 1.419 . S
C1288 C1286 1.415 . S
C1288 C1293 1.425 . S
C1288 C1295 1.409 . S
C1289 H1281 0.930 . S
C1289 C1287 1.419 . S
C1289 C1290 1.362 . S
C1290 H1282 0.930 . S
C1290 C1289 1.362 . S
C1290 C1293 1.409 . S
C1291 H1283 0.930 . S
C1291 C1292 1.355 . S
C1291 C1293 1.415 . S
C1292 C1291 1.355 . S
C1292 C1294 1.419 . S
C1293 C1288 1.425 . S
C1293 C1290 1.409 . S
C1293 C1291 1.415 . S
C1294 H1284 0.930 . S
C1294 C1292 1.419 . S
C1294 C1295 1.362 . S
C1295 H1285 0.930 . S
C1295 C1288 1.409 . S
C1295 C1294 1.362 . S
H1296 C1302 0.930 . S
H1297 C1305 0.930 . S
H1298 C1306 0.930 . S
H1299 C1307 0.930 . S
H1300 C1310 0.930 . S
H1301 C1311 0.930 . S
C1302 H1296 0.930 . S
C1302 C1303 1.355 . S
C1302 C1304 1.415 . S
C1303 C1302 1.355 . S
C1303 C1305 1.419 . S
C1304 C1302 1.415 . S
C1304 C1309 1.425 . S
C1304 C1311 1.409 . S
C1305 H1297 0.930 . S
C1305 C1303 1.419 . S
C1305 C1306 1.362 . S
C1306 H1298 0.930 . S
C1306 C1305 1.362 . S
C1306 C1309 1.409 . S
C1307 H1299 0.930 . S
C1307 C1308 1.355 . S
C1307 C1309 1.415 . S
C1308 C1307 1.355 . S
C1308 C1310 1.419 . S
C1309 C1304 1.425 . S
C1309 C1306 1.409 . S
C1309 C1307 1.415 . S
C1310 H1300 0.930 . S
C1310 C1308 1.419 . S
C1310 C1311 1.362 . S
C1311 H1301 0.930 . S
C1311 C1304 1.409 . S
C1311 C1310 1.362 . S
H1312 C1318 0.930 . S
H1313 C1321 0.930 . S
H1314 C1322 0.930 . S
H1315 C1323 0.930 . S
H1316 C1326 0.930 . S
H1317 C1327 0.930 . S
C1318 H1312 0.930 . S
C1318 C1319 1.355 . S
C1318 C1320 1.415 . S
C1319 C1318 1.355 . S
C1319 C1321 1.419 . S
C1320 C1318 1.415 . S
C1320 C1325 1.425 . S
C1320 C1327 1.409 . S
C1321 H1313 0.930 . S
C1321 C1319 1.419 . S
C1321 C1322 1.362 . S
C1322 H1314 0.930 . S
C1322 C1321 1.362 . S
C1322 C1325 1.409 . S
C1323 H1315 0.930 . S
C1323 C1324 1.355 . S
C1323 C1325 1.415 . S
C1324 C1323 1.355 . S
C1324 C1326 1.419 . S
C1325 C1320 1.425 . S
C1325 C1322 1.409 . S
C1325 C1323 1.415 . S
C1326 H1316 0.930 . S
C1326 C1324 1.419 . S
C1326 C1327 1.362 . S
C1327 H1317 0.930 . S
C1327 C1320 1.409 . S
C1327 C1326 1.362 . S
H1328 C1334 0.930 . S
H1329 C1337 0.930 . S
H1330 C1338 0.930 . S
H1331 C1339 0.930 . S
H1332 C1342 0.930 . S
H1333 C1343 0.930 . S
C1334 H1328 0.930 . S
C1334 C1335 1.355 . S
C1334 C1336 1.415 . S
C1335 C1334 1.355 . S
C1335 C1337 1.419 . S
C1336 C1334 1.415 . S
C1336 C1341 1.425 . S
C1336 C1343 1.409 . S
C1337 H1329 0.930 . S
C1337 C1335 1.419 . S
C1337 C1338 1.362 . S
C1338 H1330 0.930 . S
C1338 C1337 1.362 . S
C1338 C1341 1.409 . S
C1339 H1331 0.930 . S
C1339 C1340 1.355 . S
C1339 C1341 1.415 . S
C1340 C1339 1.355 . S
C1340 C1342 1.419 . S
C1341 C1336 1.425 . S
C1341 C1338 1.409 . S
C1341 C1339 1.415 . S
C1342 H1332 0.930 . S
C1342 C1340 1.419 . S
C1342 C1343 1.362 . S
C1343 H1333 0.930 . S
C1343 C1336 1.409 . S
C1343 C1342 1.362 . S
H1344 C1350 0.930 . S
H1345 C1353 0.930 . S
H1346 C1354 0.930 . S
H1347 C1355 0.930 . S
H1348 C1358 0.930 . S
H1349 C1359 0.930 . S
C1350 H1344 0.930 . S
C1350 C1351 1.355 . S
C1350 C1352 1.415 . S
C1351 C1350 1.355 . S
C1351 C1353 1.419 . S
C1352 C1350 1.415 . S
C1352 C1357 1.425 . S
C1352 C1359 1.409 . S
C1353 H1345 0.930 . S
C1353 C1351 1.419 . S
C1353 C1354 1.362 . S
C1354 H1346 0.930 . S
C1354 C1353 1.362 . S
C1354 C1357 1.409 . S
C1355 H1347 0.930 . S
C1355 C1356 1.355 . S
C1355 C1357 1.415 . S
C1356 C1355 1.355 . S
C1356 C1358 1.419 . S
C1357 C1352 1.425 . S
C1357 C1354 1.409 . S
C1357 C1355 1.415 . S
C1358 H1348 0.930 . S
C1358 C1356 1.419 . S
C1358 C1359 1.362 . S
C1359 H1349 0.930 . S
C1359 C1352 1.409 . S
C1359 C1358 1.362 . S
H1360 C1366 0.930 . S
H1361 C1369 0.930 . S
H1362 C1370 0.930 . S
H1363 C1371 0.930 . S
H1364 C1374 0.930 . S
H1365 C1375 0.930 . S
C1366 H1360 0.930 . S
C1366 C1367 1.355 . S
C1366 C1368 1.415 . S
C1367 C1366 1.355 . S
C1367 C1369 1.419 . S
C1368 C1366 1.415 . S
C1368 C1373 1.425 . S
C1368 C1375 1.409 . S
C1369 H1361 0.930 . S
C1369 C1367 1.419 . S
C1369 C1370 1.362 . S
C1370 H1362 0.930 . S
C1370 C1369 1.362 . S
C1370 C1373 1.409 . S
C1371 H1363 0.930 . S
C1371 C1372 1.355 . S
C1371 C1373 1.415 . S
C1372 C1371 1.355 . S
C1372 C1374 1.419 . S
C1373 C1368 1.425 . S
C1373 C1370 1.409 . S
C1373 C1371 1.415 . S
C1374 H1364 0.930 . S
C1374 C1372 1.419 . S
C1374 C1375 1.362 . S
C1375 H1365 0.930 . S
C1375 C1368 1.409 . S
C1375 C1374 1.362 . S
H1376 C1382 0.930 . S
H1377 C1385 0.930 . S
H1378 C1386 0.930 . S
H1379 C1387 0.930 . S
H1380 C1390 0.930 . S
H1381 C1391 0.930 . S
C1382 H1376 0.930 . S
C1382 C1383 1.355 . S
C1382 C1384 1.415 . S
C1383 C1382 1.355 . S
C1383 C1385 1.419 . S
C1384 C1382 1.415 . S
C1384 C1389 1.425 . S
C1384 C1391 1.409 . S
C1385 H1377 0.930 . S
C1385 C1383 1.419 . S
C1385 C1386 1.362 . S
C1386 H1378 0.930 . S
C1386 C1385 1.362 . S
C1386 C1389 1.409 . S
C1387 H1379 0.930 . S
C1387 C1388 1.355 . S
C1387 C1389 1.415 . S
C1388 C1387 1.355 . S
C1388 C1390 1.419 . S
C1389 C1384 1.425 . S
C1389 C1386 1.409 . S
C1389 C1387 1.415 . S
C1390 H1380 0.930 . S
C1390 C1388 1.419 . S
C1390 C1391 1.362 . S
C1391 H1381 0.930 . S
C1391 C1384 1.409 . S
C1391 C1390 1.362 . S
H1392 C1398 0.930 . S
H1393 C1401 0.930 . S
H1394 C1402 0.930 . S
H1395 C1403 0.930 . S
H1396 C1406 0.930 . S
H1397 C1407 0.930 . S
C1398 H1392 0.930 . S
C1398 C1399 1.355 . S
C1398 C1400 1.415 . S
C1399 C1398 1.355 . S
C1399 C1401 1.419 . S
C1400 C1398 1.415 . S
C1400 C1405 1.425 . S
C1400 C1407 1.409 . S
C1401 H1393 0.930 . S
C1401 C1399 1.419 . S
C1401 C1402 1.362 . S
C1402 H1394 0.930 . S
C1402 C1401 1.362 . S
C1402 C1405 1.409 . S
C1403 H1395 0.930 . S
C1403 C1404 1.355 . S
C1403 C1405 1.415 . S
C1404 C1403 1.355 . S
C1404 C1406 1.419 . S
C1405 C1400 1.425 . S
C1405 C1402 1.409 . S
C1405 C1403 1.415 . S
C1406 H1396 0.930 . S
C1406 C1404 1.419 . S
C1406 C1407 1.362 . S
C1407 H1397 0.930 . S
C1407 C1400 1.409 . S
C1407 C1406 1.362 . S
H1408 C1414 0.930 . S
H1409 C1417 0.930 . S
H1410 C1418 0.930 . S
H1411 C1419 0.930 . S
H1412 C1422 0.930 . S
H1413 C1423 0.930 . S
C1414 H1408 0.930 . S
C1414 C1415 1.355 . S
C1414 C1416 1.415 . S
C1415 C1414 1.355 . S
C1415 C1417 1.419 . S
C1416 C1414 1.415 . S
C1416 C1421 1.425 . S
C1416 C1423 1.409 . S
C1417 H1409 0.930 . S
C1417 C1415 1.419 . S
C1417 C1418 1.362 . S
C1418 H1410 0.930 . S
C1418 C1417 1.362 . S
C1418 C1421 1.409 . S
C1419 H1411 0.930 . S
C1419 C1420 1.355 . S
C1419 C1421 1.415 . S
C1420 C1419 1.355 . S
C1420 C1422 1.419 . S
C1421 C1416 1.425 . S
C1421 C1418 1.409 . S
C1421 C1419 1.415 . S
C1422 H1412 0.930 . S
C1422 C1420 1.419 . S
C1422 C1423 1.362 . S
C1423 H1413 0.930 . S
C1423 C1416 1.409 . S
C1423 C1422 1.362 . S
H1424 C1430 0.930 . S
H1425 C1433 0.930 . S
H1426 C1434 0.930 . S
H1427 C1435 0.930 . S
H1428 C1438 0.930 . S
H1429 C1439 0.930 . S
C1430 H1424 0.930 . S
C1430 C1431 1.355 . S
C1430 C1432 1.415 . S
C1431 C1430 1.355 . S
C1431 C1433 1.419 . S
C1432 C1430 1.415 . S
C1432 C1437 1.425 . S
C1432 C1439 1.409 . S
C1433 H1425 0.930 . S
C1433 C1431 1.419 . S
C1433 C1434 1.362 . S
C1434 H1426 0.930 . S
C1434 C1433 1.362 . S
C1434 C1437 1.409 . S
C1435 H1427 0.930 . S
C1435 C1436 1.355 . S
C1435 C1437 1.415 . S
C1436 C1435 1.355 . S
C1436 C1438 1.419 . S
C1437 C1432 1.425 . S
C1437 C1434 1.409 . S
C1437 C1435 1.415 . S
C1438 H1428 0.930 . S
C1438 C1436 1.419 . S
C1438 C1439 1.362 . S
C1439 H1429 0.930 . S
C1439 C1432 1.409 . S
C1439 C1438 1.362 . S
H1440 C1446 0.930 . S
H1441 C1449 0.930 . S
H1442 C1450 0.930 . S
H1443 C1451 0.930 . S
H1444 C1454 0.930 . S
H1445 C1455 0.930 . S
C1446 H1440 0.930 . S
C1446 C1447 1.355 . S
C1446 C1448 1.415 . S
C1447 C1446 1.355 . S
C1447 C1449 1.419 . S
C1448 C1446 1.415 . S
C1448 C1453 1.425 . S
C1448 C1455 1.409 . S
C1449 H1441 0.930 . S
C1449 C1447 1.419 . S
C1449 C1450 1.362 . S
C1450 H1442 0.930 . S
C1450 C1449 1.362 . S
C1450 C1453 1.409 . S
C1451 H1443 0.930 . S
C1451 C1452 1.355 . S
C1451 C1453 1.415 . S
C1452 C1451 1.355 . S
C1452 C1454 1.419 . S
C1453 C1448 1.425 . S
C1453 C1450 1.409 . S
C1453 C1451 1.415 . S
C1454 H1444 0.930 . S
C1454 C1452 1.419 . S
C1454 C1455 1.362 . S
C1455 H1445 0.930 . S
C1455 C1448 1.409 . S
C1455 C1454 1.362 . S
H1456 C1462 0.930 . S
H1457 C1465 0.930 . S
H1458 C1466 0.930 . S
H1459 C1467 0.930 . S
H1460 C1470 0.930 . S
H1461 C1471 0.930 . S
C1462 H1456 0.930 . S
C1462 C1463 1.355 . S
C1462 C1464 1.415 . S
C1463 C1462 1.355 . S
C1463 C1465 1.419 . S
C1464 C1462 1.415 . S
C1464 C1469 1.425 . S
C1464 C1471 1.409 . S
C1465 H1457 0.930 . S
C1465 C1463 1.419 . S
C1465 C1466 1.362 . S
C1466 H1458 0.930 . S
C1466 C1465 1.362 . S
C1466 C1469 1.409 . S
C1467 H1459 0.930 . S
C1467 C1468 1.355 . S
C1467 C1469 1.415 . S
C1468 C1467 1.355 . S
C1468 C1470 1.419 . S
C1469 C1464 1.425 . S
C1469 C1466 1.409 . S
C1469 C1467 1.415 . S
C1470 H1460 0.930 . S
C1470 C1468 1.419 . S
C1470 C1471 1.362 . S
C1471 H1461 0.930 . S
C1471 C1464 1.409 . S
C1471 C1470 1.362 . S
C455 C176 1.166 . S
C460 C7 1.226 . S
C471 C414 1.237 . S
C476 C21 1.216 . S
C487 C204 1.247 . S
C492 C35 1.192 . S
C503 C442 1.241 . S
C508 C49 1.210 . S
C519 C120 1.164 . S
C524 C63 1.247 . S
C535 C77 1.184 . S
C540 C358 1.243 . S
C551 C91 1.225 . S
C556 C148 1.230 . S
C567 C386 1.183 . S
C572 C105 1.206 . S
C583 C64 1.183 . S
C588 C119 1.206 . S
C599 C302 1.241 . S
C604 C133 1.211 . S
C615 C92 1.190 . S
C620 C147 1.250 . S
C631 C330 1.182 . S
C636 C161 1.207 . S
C647 C175 1.203 . S
C652 C8 1.245 . S
C663 C189 1.238 . S
C668 C246 1.162 . S
C679 C36 1.245 . S
C684 C203 1.202 . S
C695 C217 1.246 . S
C700 C274 1.201 . S
C711 C400 1.236 . S
C716 C231 1.219 . S
C727 C190 1.163 . S
C732 C245 1.233 . S
C743 C428 1.192 . S
C748 C259 1.199 . S
C759 C273 1.185 . S
C764 C218 1.245 . S
C775 C287 1.237 . S
C780 C344 1.216 . S
C791 C301 1.182 . S
C796 C134 1.240 . S
C807 C372 1.244 . S
C812 C315 1.185 . S
C823 C162 1.197 . S
C828 C329 1.248 . S
C839 C288 1.215 . S
C844 C343 1.238 . S
C855 C357 1.250 . S
C860 C78 1.192 . S
C871 C371 1.214 . S
C876 C316 1.176 . S
C887 C385 1.240 . S
C892 C106 1.162 . S
C903 C232 1.237 . S
C908 C399 1.217 . S
C919 C22 1.221 . S
C924 C413 1.233 . S
C935 C260 1.223 . S
C940 C427 1.182 . S
C951 C441 1.182 . S
C956 C50 1.221 . S
C967 C9 1.378 . S
C972 C121 1.378 . S
C983 C23 1.311 . S
C988 C359 1.310 . S
C999 C149 1.384 . S
C1004 C37 1.384 . S
C1015 C51 1.359 . S
C1020 C387 1.359 . S
C1031 C65 1.328 . S
C1036 C177 1.328 . S
C1047 C415 1.378 . S
C1052 C79 1.378 . S
C1063 C205 1.376 . S
C1068 C93 1.376 . S
C1079 C107 1.287 . S
C1084 C443 1.287 . S
C1095 C135 1.287 . S
C1100 C247 1.287 . S
C1111 C163 1.334 . S
C1116 C275 1.334 . S
C1127 C191 1.296 . S
C1132 C303 1.296 . S
C1143 C331 1.286 . S
C1148 C219 1.286 . S
C1159 C233 1.334 . S
C1164 C345 1.334 . S
C1175 C261 1.369 . S
C1180 C373 1.369 . S
C1191 C289 1.353 . S
C1196 C401 1.353 . S
C1207 C429 1.361 . S
C1212 C317 1.361 . S
C1223 C6 1.388 . S
C1228 C104 1.376 . S
C1239 C20 1.427 . S
C1244 C62 1.442 . S
C1255 C76 1.395 . S
C1260 C34 1.376 . S
C1271 C90 1.424 . S
C1276 C48 1.442 . S
C1287 C216 1.426 . S
C1292 C118 1.397 . S
C1303 C174 1.406 . S
C1308 C132 1.433 . S
C1319 C188 1.437 . S
C1324 C146 1.441 . S
C1335 C202 1.379 . S
C1340 C160 1.403 . S
C1351 C230 1.379 . S
C1356 C328 1.403 . S
C1367 C286 1.384 . S
C1372 C244 1.411 . S
C1383 C300 1.402 . S
C1388 C258 1.379 . S
C1399 C314 1.378 . S
C1404 C272 1.380 . S
C1415 C440 1.380 . S
C1420 C342 1.404 . S
C1431 C356 1.400 . S
C1436 C398 1.378 . S
C1447 C370 1.381 . S
C1452 C412 1.378 . S
C1463 C426 1.385 . S
C1468 C384 1.376 . S
