# Generated by pormake.
# Topology smm, (6)-cn, num edge types: 1
# Building blocks:
#     Node 0, Type 0, BuildingBlock: VOLQOD_clean_sbu_1, # of connection points: 6
#     Node 1, Type 0, BuildingBlock: VOLQOD_clean_sbu_1, # of connection points: 6
#     Node 2, Type 0, BuildingBlock: VOLQOD_clean_sbu_1, # of connection points: 6
#     Node 3, Type 0, BuildingBlock: VOLQOD_clean_sbu_1, # of connection points: 6
#     Node 4, Type 0, BuildingBlock: VOLQOD_clean_sbu_1, # of connection points: 6
#     Node 5, Type 0, BuildingBlock: VOLQOD_clean_sbu_1, # of connection points: 6
#     Node 6, Type 0, BuildingBlock: VOLQOD_clean_sbu_1, # of connection points: 6
#     Node 7, Type 0, BuildingBlock: VOLQOD_clean_sbu_1, # of connection points: 6
#     Node 8, Type 0, BuildingBlock: VOLQOD_clean_sbu_1, # of connection points: 6
#     Edge 9, Type (0, 0), BuildingBlock: AJUNOK_clean_linker_0, # of connection points: 2
#     Edge 10, Type (0, 0), BuildingBlock: AJUNOK_clean_linker_0, # of connection points: 2
#     Edge 11, Type (0, 0), BuildingBlock: AJUNOK_clean_linker_0, # of connection points: 2
#     Edge 12, Type (0, 0), BuildingBlock: AJUNOK_clean_linker_0, # of connection points: 2
#     Edge 13, Type (0, 0), BuildingBlock: AJUNOK_clean_linker_0, # of connection points: 2
#     Edge 14, Type (0, 0), BuildingBlock: AJUNOK_clean_linker_0, # of connection points: 2
#     Edge 15, Type (0, 0), BuildingBlock: AJUNOK_clean_linker_0, # of connection points: 2
#     Edge 16, Type (0, 0), BuildingBlock: AJUNOK_clean_linker_0, # of connection points: 2
#     Edge 17, Type (0, 0), BuildingBlock: AJUNOK_clean_linker_0, # of connection points: 2
#     Edge 18, Type (0, 0), BuildingBlock: AJUNOK_clean_linker_0, # of connection points: 2
#     Edge 19, Type (0, 0), BuildingBlock: AJUNOK_clean_linker_0, # of connection points: 2
#     Edge 20, Type (0, 0), BuildingBlock: AJUNOK_clean_linker_0, # of connection points: 2
#     Edge 21, Type (0, 0), BuildingBlock: AJUNOK_clean_linker_0, # of connection points: 2
#     Edge 22, Type (0, 0), BuildingBlock: AJUNOK_clean_linker_0, # of connection points: 2
#     Edge 23, Type (0, 0), BuildingBlock: AJUNOK_clean_linker_0, # of connection points: 2
#     Edge 24, Type (0, 0), BuildingBlock: AJUNOK_clean_linker_0, # of connection points: 2
#     Edge 25, Type (0, 0), BuildingBlock: AJUNOK_clean_linker_0, # of connection points: 2
#     Edge 26, Type (0, 0), BuildingBlock: AJUNOK_clean_linker_0, # of connection points: 2
#     Edge 27, Type (0, 0), BuildingBlock: AJUNOK_clean_linker_0, # of connection points: 2
#     Edge 28, Type (0, 0), BuildingBlock: AJUNOK_clean_linker_0, # of connection points: 2
#     Edge 29, Type (0, 0), BuildingBlock: AJUNOK_clean_linker_0, # of connection points: 2
#     Edge 30, Type (0, 0), BuildingBlock: AJUNOK_clean_linker_0, # of connection points: 2
#     Edge 31, Type (0, 0), BuildingBlock: AJUNOK_clean_linker_0, # of connection points: 2
#     Edge 32, Type (0, 0), BuildingBlock: AJUNOK_clean_linker_0, # of connection points: 2
#     Edge 33, Type (0, 0), BuildingBlock: AJUNOK_clean_linker_0, # of connection points: 2
#     Edge 34, Type (0, 0), BuildingBlock: AJUNOK_clean_linker_0, # of connection points: 2
#     Edge 35, Type (0, 0), BuildingBlock: AJUNOK_clean_linker_0, # of connection points: 2
# Relax obj value: 0.260
# Max RMSD: 0.218
# Mean RMSD: 0.217
data_MOF--net-smm--node1-VOLQOD_clean_sbu_1--edge1-AJUNOK_clean_linker_0
_symmetry_space_group_name_H-M    P1
_symmetry_Int_Tables_number       1
_symmetry_cell_setting            triclinic
loop_
_symmetry_equiv_pos_as_xyz
'x, y, z'
_cell_length_a     41.677344
_cell_length_b     41.379105
_cell_length_c     13.007321
_cell_angle_alpha  89.830964
_cell_angle_beta   89.862241
_cell_angle_gamma 119.8692
loop_
_atom_site_label
_atom_site_type_symbol
_atom_site_fract_x
_atom_site_fract_y
_atom_site_fract_z
_atom_type_partial_charge
O0 O 0.97813 0.18532 0.8129 0.0
Zn1 Zn 0.96438 0.17419 0.96409 0.0
O2 O 0.00807 0.1837 0.0408 0.0
Zn3 Zn 0.02756 0.2292 0.1183 0.0
Zn4 Zn 0.0438 0.18771 0.94147 0.0
Zn5 Zn -0.00118 0.14365 0.13052 0.0
O6 O 0.0315 0.22067 0.27065 0.0
O7 O -0.00019 0.15861 0.27475 0.0
O8 O 0.94394 0.20648 0.01716 0.0
O9 O -0.00908 0.24641 0.11396 0.0
O10 O 0.07282 0.27053 0.04793 0.0
O11 O 0.07744 0.24088 0.91171 0.0
O12 O 0.0727 0.16363 0.9857 0.0
O13 O 0.92575 0.11962 0.97806 0.0
O14 O 0.0383 0.12965 0.11692 0.0
O15 O 0.94956 0.09996 0.1001 0.0
C16 C -0.00103 0.17671 0.76196 0.0
C17 C 0.0154 0.18987 0.3202 0.0
C18 C 0.08664 0.27082 0.95995 0.0
C19 C 0.9592 0.23507 0.07491 0.0
C20 C 0.06629 0.14048 0.05806 0.0
C21 C 0.92374 0.09419 0.03787 0.0
O22 O 0.02025 0.16747 0.80702 0.0
O23 O 0.7877 0.84933 0.21493 0.0
Zn24 Zn 0.78618 0.85788 0.06097 0.0
O25 O 0.81558 0.84087 0.98458 0.0
Zn26 Zn 0.78573 0.80086 0.89352 0.0
Zn27 Zn 0.83646 0.82213 0.08194 0.0
Zn28 Zn 0.85464 0.87963 0.90461 0.0
O29 O 0.80307 0.81031 0.74774 0.0
O30 O 0.8441 0.87078 0.75455 0.0
O31 O 0.73324 0.83287 0.00761 0.0
O32 O 0.73774 0.79823 0.88409 0.0
O33 O 0.7747 0.75107 0.95016 0.0
O34 O 0.80636 0.7671 0.0954 0.0
O35 O 0.88813 0.83725 0.05011 0.0
O36 O 0.80981 0.91359 0.0427 0.0
O37 O 0.90345 0.88222 0.93412 0.0
O38 O 0.8576 0.92803 0.93795 0.0
C39 C 0.81349 0.84799 0.26389 0.0
C40 C 0.82408 0.84133 0.70355 0.0
C41 C 0.7833 0.74227 0.03556 0.0
C42 C 0.71977 0.81093 0.93122 0.0
C43 C 0.91185 0.86269 -0.0078 0.0
C44 C 0.83801 0.93735 -0.00801 0.0
O45 O 0.83702 0.84199 0.21894 0.0
O46 O 0.19028 0.01888 0.84145 0.0
Zn47 Zn 0.1924 0.03013 -0.00606 0.0
O48 O 0.16612 0.98358 0.07359 0.0
Zn49 Zn 0.19964 0.97626 0.15691 0.0
Zn50 Zn 0.14257 0.94078 0.98499 0.0
Zn51 Zn 0.12995 0.98381 0.16336 0.0
O52 O 0.18315 0.96237 0.30334 0.0
O53 O 0.14269 0.98241 0.30978 0.0
O54 O 0.24603 0.05987 0.03993 0.0
O55 O 0.24608 0.02394 0.16749 0.0
O56 O 0.21308 0.94248 0.08271 0.0
O57 O 0.16177 0.90561 -0.00163 0.0
O58 O 0.08801 0.91512 -0.00497 0.0
O59 O 0.16837 0.06171 0.01751 0.0
O60 O 0.07895 0.94238 0.13024 0.0
O61 O 0.12846 0.03033 0.14287 0.0
C62 C 0.17402 -0.01225 0.79463 0.0
C63 C 0.16299 0.97179 0.3543 0.0
C64 C 0.19479 0.91516 0.02266 0.0
C65 C 0.26184 0.05391 0.11557 0.0
C66 C 0.06663 0.91863 0.05788 0.0
C67 C 0.14401 0.05829 0.08291 0.0
O68 O 0.15489 0.95715 0.8418 0.0
O69 O 0.64414 0.52365 0.47619 0.0
Zn70 Zn 0.65943 0.52659 0.32481 0.0
O71 O 0.61572 0.49819 0.23941 0.0
Zn72 Zn 0.60432 0.53135 0.16524 0.0
Zn73 Zn 0.57271 0.46717 0.32209 0.0
Zn74 Zn 0.6234 0.46798 0.14433 0.0
O75 O 0.5909 0.51629 0.01639 0.0
O76 O 0.61475 0.47881 0.00137 0.0
O77 O 0.68867 0.57978 0.27157 0.0
O78 O 0.65026 0.57972 0.15367 0.0
O79 O 0.56847 0.53834 0.25355 0.0
O80 O 0.53296 0.47989 0.30152 0.0
O81 O 0.5535 0.41298 0.30166 0.0
O82 O 0.69442 0.50617 0.30622 0.0
O83 O 0.58948 0.41405 0.17446 0.0
O84 O 0.67446 0.47623 0.15809 0.0
C85 C 0.61353 0.50077 0.51976 0.0
C86 C 0.60054 0.49692 0.96187 0.0
C87 C 0.54071 0.51371 0.30399 0.0
C88 C 0.68138 0.5957 0.19852 0.0
C89 C 0.56359 0.3962 0.23926 0.0
C90 C 0.69835 0.4892 0.22962 0.0
O91 O 0.58571 0.47748 0.46859 0.0
O92 O 0.48207 0.15211 0.51021 0.0
Zn93 Zn 0.47984 0.16325 0.36022 0.0
O94 O 0.50862 0.14712 0.27965 0.0
Zn95 Zn 0.4772 0.10319 0.20141 0.0
Zn96 Zn 0.5394 0.13706 0.36856 0.0
Zn97 Zn 0.53836 0.18457 0.1834 0.0
O98 O 0.4937 0.10685 0.05302 0.0
O99 O 0.52102 0.16859 0.04217 0.0
O100 O 0.42756 0.13863 0.30787 0.0
O101 O 0.42828 0.10042 0.18902 0.0
O102 O 0.47087 0.0579 0.27853 0.0
O103 O 0.52044 0.08268 0.37905 0.0
O104 O 0.59294 0.16494 0.32798 0.0
O105 O 0.49923 0.21841 0.34205 0.0
O106 O 0.59082 0.19709 0.19391 0.0
O107 O 0.5363 0.23041 0.20751 0.0
C108 C 0.50723 0.14963 0.55925 0.0
C109 C 0.50632 0.13678 0.00033 0.0
C110 C 0.491 0.05464 0.34697 0.0
C111 C 0.41225 0.11569 0.23459 0.0
C112 C 0.60887 0.18797 0.25474 0.0
C113 C 0.52057 0.24065 0.27299 0.0
O114 O 0.53371 0.14877 0.51292 0.0
O115 O 0.85363 0.3543 0.45922 0.0
Zn116 Zn 0.84104 0.33874 0.31035 0.0
O117 O 0.85083 0.38176 0.22749 0.0
Zn118 Zn 0.89499 0.39737 0.14738 0.0
Zn119 Zn 0.8574 0.42026 0.32134 0.0
Zn120 Zn 0.81101 0.37223 0.13969 0.0
O121 O 0.88867 0.40754 -0.00149 0.0
O122 O 0.82711 0.3772 -0.00593 0.0
O123 O 0.86931 0.31445 0.25717 0.0
O124 O 0.90538 0.35538 0.13899 0.0
O125 O 0.93801 0.43679 0.22604 0.0
O126 O 0.91105 0.45224 0.34879 0.0
O127 O 0.83146 0.44809 0.28033 0.0
O128 O 0.78738 0.29988 0.29877 0.0
O129 O 0.79321 0.40857 0.16439 0.0
O130 O 0.76947 0.32092 0.16586 0.0
C131 C 0.84653 0.37687 0.50713 0.0
C132 C 0.85835 0.39329 0.94858 0.0
C133 C 0.93972 0.45372 0.30944 0.0
C134 C 0.89358 0.32459 0.18632 0.0
C135 C 0.8043 0.43765 0.21923 0.0
C136 C 0.76314 0.29591 0.23286 0.0
O137 O 0.83823 0.39855 0.45954 0.0
O138 O 0.30183 0.84005 0.44935 0.0
Zn139 Zn 0.28847 0.82633 0.60212 0.0
O140 O 0.33223 0.83516 0.67624 0.0
Zn141 Zn 0.3542 0.88118 0.7521 0.0
Zn142 Zn 0.36488 0.83625 0.57308 0.0
Zn143 Zn 0.32248 0.79616 0.76906 0.0
O144 O 0.36218 0.874 0.90436 0.0
O145 O 0.32434 0.81269 0.91154 0.0
O146 O 0.26706 0.85428 0.67576 0.0
O147 O 0.31519 0.89458 0.76792 0.0
O148 O 0.39763 0.92191 0.67097 0.0
O149 O 0.40046 0.88854 0.54082 0.0
O150 O 0.39226 0.81067 0.61587 0.0
O151 O 0.24955 0.77178 0.61615 0.0
O152 O 0.36094 0.78096 0.75623 0.0
O153 O 0.27237 0.7537 0.7446 0.0
C154 C 0.32049 0.82889 0.39707 0.0
C155 C 0.34305 0.84391 0.95574 0.0
C156 C 0.41111 0.91957 0.58464 0.0
C157 C 0.28152 0.88048 0.74151 0.0
C158 C 0.38724 0.78958 0.69256 0.0
C159 C 0.24665 0.74741 0.68155 0.0
O160 O 0.33881 0.81593 0.44171 0.0
O161 O 0.09354 0.49965 0.92432 0.0
Zn162 Zn 0.10153 0.5147 0.77064 0.0
O163 O 0.13073 0.49644 0.70193 0.0
Zn164 Zn 0.09998 0.45004 0.63064 0.0
Zn165 Zn 0.15943 0.49024 0.80356 0.0
Zn166 Zn 0.16333 0.53174 0.60272 0.0
O167 O 0.10849 0.45511 0.47547 0.0
O168 O 0.14373 0.51653 0.46077 0.0
O169 O 0.05593 0.49515 0.68333 0.0
O170 O 0.0477 0.43948 0.64193 0.0
O171 O 0.10597 0.40795 0.69145 0.0
O172 O 0.15174 0.43951 0.80136 0.0
O173 O 0.21258 0.52429 0.78344 0.0
O174 O 0.12738 0.57095 0.75746 0.0
O175 O 0.21545 0.54029 0.61894 0.0
O176 O 0.16521 0.57969 0.62597 0.0
C177 C 0.11541 0.49409 0.98106 0.0
C178 C 0.12311 0.48477 0.42113 0.0
C179 C 0.12902 0.40926 0.75819 0.0
C180 C 0.03809 0.46426 0.63605 0.0
C181 C 0.23103 0.53885 0.70183 0.0
C182 C 0.15055 0.59187 0.68931 0.0
O183 O 0.14326 0.49356 0.94343 0.0
O184 O 0.51165 0.66217 0.49921 0.0
Zn185 Zn 0.5111 0.67833 0.64742 0.0
O186 O 0.48639 0.63577 0.73796 0.0
Zn187 Zn 0.52158 0.62794 0.81077 0.0
Zn188 Zn 0.45631 0.59193 0.65959 0.0
Zn189 Zn 0.45759 0.64415 0.8348 0.0
O190 O 0.50684 0.61261 0.95931 0.0
O191 O 0.46796 0.6345 0.97764 0.0
O192 O 0.56168 0.71357 0.70406 0.0
O193 O 0.56666 0.67753 0.823 0.0
O194 O 0.52936 0.59285 0.72047 0.0
O195 O 0.47007 0.55346 0.69429 0.0
O196 O 0.40263 0.57488 0.67704 0.0
O197 O 0.48336 0.70641 0.65561 0.0
O198 O 0.40419 0.61167 0.80325 0.0
O199 O 0.46607 0.69557 0.81949 0.0
C200 C 0.49041 0.63057 0.4581 0.0
C201 C 0.48672 0.62075 0.01545 0.0
C202 C 0.50386 0.56295 0.68022 0.0
C203 C 0.57863 0.70899 0.77909 0.0
C204 C 0.38642 0.58638 0.73725 0.0
C205 C 0.47053 0.71355 0.73618 0.0
O206 O 0.4675 0.60271 0.51113 0.0
C207 C 0.12269 0.34003 0.9571 0.0
C208 C 0.10627 0.30638 0.90278 0.0
C209 C 0.13241 0.37364 0.90731 0.0
C210 C 0.12538 0.3747 0.80173 0.0
H211 H 0.1261 0.34018 0.03969 0.0
H212 H 0.14313 0.39856 0.95377 0.0
S213 S 0.08875 0.29542 0.62107 0.0
N214 N 0.08811 0.2769 0.73419 0.0
N215 N 0.10557 0.34034 0.64194 0.0
C216 C 0.11168 0.34184 0.74485 0.0
C217 C 0.10247 0.30759 0.79503 0.0
C218 C 0.6734 0.79402 0.79477 0.0
C219 C 0.68118 0.79534 0.90046 0.0
C220 C 0.63897 0.76748 0.75583 0.0
C221 C 0.61181 0.74103 0.8215 0.0
H222 H 0.69509 0.81163 0.74099 0.0
H223 H 0.63469 0.76585 0.67345 0.0
S224 S 0.61657 0.73686 0.10582 0.0
N225 N 0.65757 0.77146 0.07115 0.0
N226 N 0.59276 0.72112 -0.00158 0.0
C227 C 0.6181 0.7443 0.92828 0.0
C228 C 0.65289 0.77174 0.96784 0.0
C229 C 0.25428 0.92354 0.95548 0.0
C230 C 0.21543 0.90242 0.95718 0.0
C231 C 0.27494 0.9176 0.88129 0.0
C232 C 0.25789 0.88974 0.80612 0.0
H233 H 0.26914 0.94585 0.00991 0.0
H234 H 0.30478 0.93486 0.88437 0.0
S235 S 0.15684 0.82524 0.77951 0.0
N236 N 0.16047 0.85181 0.87826 0.0
N237 N 0.19958 0.83987 0.73991 0.0
C238 C 0.21902 0.8679 0.80748 0.0
C239 C 0.1978 0.87425 0.88297 0.0
C240 C 0.34819 0.10241 0.27186 0.0
C241 C 0.37518 0.10669 0.19987 0.0
C242 C 0.31141 0.08836 0.24181 0.0
C243 C 0.30085 0.0793 0.13859 0.0
H244 H 0.355 0.10755 0.35271 0.0
H245 H 0.29068 0.08246 0.30053 0.0
S246 S 0.36219 0.09072 0.91868 0.0
N247 N 0.38979 0.10453 0.01955 0.0
N248 N 0.32059 0.0789 0.96317 0.0
C249 C 0.32811 0.08651 0.06469 0.0
C250 C 0.36538 0.09998 0.09543 0.0
C251 C 0.94644 0.31734 0.12924 0.0
C252 C 0.909 0.30065 0.15785 0.0
C253 C 0.96211 0.29569 0.10092 0.0
C254 C 0.94071 0.25662 0.09758 0.0
H255 H 0.96396 0.34738 0.13048 0.0
H256 H -0.00871 0.30968 0.08142 0.0
S257 S 0.84111 0.1994 0.16203 0.0
N258 N 0.85068 0.24282 0.18008 0.0
N259 N 0.88017 0.20199 0.12375 0.0
C260 C 0.90306 0.23952 0.12382 0.0
C261 C 0.88721 0.26159 0.15507 0.0
C262 C 0.73016 0.67792 0.01776 0.0
C263 C 0.76151 0.70334 0.07316 0.0
C264 C 0.70492 0.64328 0.05918 0.0
C265 C 0.70995 0.63227 0.15762 0.0
H266 H 0.72407 0.68526 0.9432 0.0
H267 H 0.68092 0.62519 0.01348 0.0
S268 S 0.78967 0.68665 0.33005 0.0
N269 N 0.79793 0.71387 0.22876 0.0
N270 N 0.75021 0.64827 0.3063 0.0
C271 C 0.74218 0.65643 0.21187 0.0
C272 C 0.76801 0.69203 0.16972 0.0
C273 C -0.00474 0.48283 0.55437 0.0
C274 C 0.01337 0.46186 0.55122 0.0
C275 C 0.97411 0.48314 0.47103 0.0
C276 C 0.97096 0.4632 0.3803 0.0
H277 H -0.0032 0.49849 0.62258 0.0
H278 H 0.95881 0.49782 0.47946 0.0
S279 S 0.01684 0.40746 0.32846 0.0
N280 N 0.02883 0.42264 0.44698 0.0
N281 N -0.00928 0.42462 0.28949 0.0
C282 C -0.00899 0.44414 0.37383 0.0
C283 C 0.01154 0.44288 0.45966 0.0
C284 C 0.54013 0.57464 0.51892 0.0
C285 C 0.51291 0.549 0.58659 0.0
C286 C 0.54675 0.56343 0.42372 0.0
C287 C 0.52686 0.52591 0.39263 0.0
H288 H 0.55612 0.60389 0.5387 0.0
H289 H 0.56867 0.58429 0.37603 0.0
S290 S 0.45082 0.44828 0.5398 0.0
N291 N 0.46432 0.48506 0.61417 0.0
N292 N 0.47725 0.4634 0.43604 0.0
C293 C 0.49871 0.50014 0.45856 0.0
C294 C 0.49169 0.5118 0.55524 0.0
C295 C 0.45042 0.98573 0.3592 0.0
C296 C 0.47606 0.01937 0.40542 0.0
C297 C 0.43082 0.95321 0.41779 0.0
C298 C 0.43552 0.95338 0.52512 0.0
H299 H 0.44456 0.98477 0.27779 0.0
H300 H 0.41048 0.92815 0.37924 0.0
S301 S 0.50091 0.03335 0.68276 0.0
N302 N 0.50687 0.05023 0.56468 0.0
N303 N 0.46893 -0.01102 0.67443 0.0
C304 C 0.46189 0.98634 0.57192 0.0
C305 C 0.48253 0.01935 0.51207 0.0
C306 C 0.13082 0.10374 -0.00712 0.0
C307 C 0.13019 0.08489 0.08356 0.0
C308 C 0.11137 0.12319 0.98658 0.0
C309 C 0.09063 0.12434 0.07069 0.0
H310 H 0.14465 0.10174 0.92457 0.0
H311 H 0.11113 0.13582 0.91371 0.0
S312 S 0.08618 0.08567 0.33144 0.0
N313 N 0.11163 0.07307 0.26359 0.0
N314 N 0.07497 0.10947 0.2515 0.0
C315 C 0.09214 0.108 0.16404 0.0
C316 C 0.11199 0.08834 0.17055 0.0
C317 C 0.86471 0.00085 0.91709 0.0
C318 C 0.85113 0.97727 0.00352 0.0
C319 C 0.88518 0.03959 0.92835 0.0
C320 C 0.89352 0.05567 0.02654 0.0
H321 H 0.86114 -0.01084 0.84073 0.0
H322 H 0.89716 0.05674 0.86044 0.0
S323 S 0.86122 0.00626 0.27613 0.0
N324 N 0.84418 0.97278 0.1894 0.0
N325 N 0.88395 0.0457 0.21085 0.0
C326 C 0.87801 0.03257 0.11302 0.0
C327 C 0.85641 -0.00677 0.10141 0.0
C328 C 0.96399 0.87183 0.10244 0.0
C329 C 0.95066 0.87264 0.00368 0.0
C330 C 0.00163 0.88542 0.11915 0.0
C331 C 0.02687 0.89913 0.03713 0.0
H332 H 0.94548 0.86235 0.16822 0.0
H333 H 0.01118 0.88606 0.19694 0.0
S334 S 0.00549 0.90464 0.763 0.0
N335 N 0.96509 0.88673 0.82243 0.0
N336 N 0.03603 0.9112 0.85299 0.0
C337 C 0.01367 0.89832 0.93717 0.0
C338 C 0.97545 0.88538 0.92063 0.0
C339 C 0.73358 0.46396 0.13732 0.0
C340 C 0.72969 0.48178 0.22474 0.0
C341 C 0.75931 0.45175 0.13428 0.0
C342 C 0.78257 0.45704 0.21811 0.0
H343 H 0.71568 0.45807 0.07144 0.0
H344 H 0.76007 0.43688 0.0667 0.0
S345 S 0.78684 0.50598 0.46094 0.0
N346 N 0.75377 0.50708 0.39405 0.0
N347 N 0.80245 0.48416 0.38801 0.0
C348 C 0.78087 0.47701 0.30347 0.0
C349 C 0.75436 0.48935 0.30689 0.0
C350 C 0.55189 0.33637 0.16414 0.0
C351 C 0.54751 0.35548 0.24703 0.0
C352 C 0.542 0.299 0.17307 0.0
C353 C 0.52734 0.27912 0.26537 0.0
H354 H 0.56396 0.35061 0.09222 0.0
H355 H 0.54659 0.28584 0.10716 0.0
S356 S 0.50813 0.31568 0.50369 0.0
N357 N 0.52573 0.35141 0.42322 0.0
N358 N 0.50699 0.28069 0.43984 0.0
C359 C 0.52114 0.29731 0.34763 0.0
C360 C 0.53125 0.33561 0.33849 0.0
C361 C 0.66578 0.22741 0.15377 0.0
C362 C 0.64954 0.20834 0.24586 0.0
C363 C 0.70322 0.25409 0.14896 0.0
C364 C 0.72592 0.2627 0.23599 0.0
H365 H 0.64907 0.22317 0.08602 0.0
H366 H 0.714 0.26925 0.07745 0.0
S367 S 0.69822 0.21632 0.49118 0.0
N368 N 0.65986 0.19643 0.42275 0.0
N369 N 0.73067 0.24679 0.41352 0.0
C370 C 0.7109 0.24145 0.32603 0.0
C371 C 0.67255 0.21415 0.33099 0.0
C372 C 0.44994 0.75059 0.63223 0.0
C373 C 0.45494 0.73866 0.72926 0.0
C374 C 0.42899 0.76827 0.62139 0.0
C375 C 0.41213 0.77437 0.70707 0.0
H376 H 0.46077 0.74475 0.56332 0.0
H377 H 0.42464 0.77569 0.5448 0.0
S378 S 0.42215 0.75473 0.97979 0.0
N379 N 0.44544 0.73895 0.91435 0.0
N380 N 0.4056 0.77171 0.89312 0.0
C381 C 0.41891 0.76492 0.80515 0.0
C382 C 0.44053 0.74726 0.81649 0.0
C383 C 0.17782 0.65214 0.78014 0.0
C384 C 0.16465 0.63212 0.68858 0.0
C385 C 0.20237 0.69056 0.77737 0.0
C386 C 0.21387 0.70999 0.68318 0.0
H387 H 0.17198 0.63768 0.85334 0.0
H388 H 0.21427 0.70472 0.84905 0.0
S389 S 0.18095 0.67085 0.42402 0.0
N390 N 0.16017 0.63474 0.50275 0.0
N391 N 0.2059 0.70732 0.49778 0.0
C392 C 0.1975 0.69091 0.59216 0.0
C393 C 0.17294 0.65172 0.59486 0.0
C394 C 0.32634 0.57381 0.81025 0.0
C395 C 0.34665 0.57279 0.7254 0.0
C396 C 0.2892 0.56363 0.80058 0.0
C397 C 0.27103 0.55251 0.70538 0.0
H398 H 0.33919 0.58243 0.88504 0.0
H399 H 0.27458 0.56447 0.86864 0.0
S400 S 0.31234 0.54654 0.45841 0.0
N401 N 0.34642 0.56074 0.54214 0.0
N402 N 0.27618 0.54165 0.52399 0.0
C403 C 0.29111 0.55192 0.61926 0.0
C404 C 0.329 0.56189 0.62937 0.0
C405 C 0.01118 0.15737 0.5929 0.0
C406 C 0.00139 0.18015 0.64908 0.0
C407 C 0.01663 0.16156 0.48672 0.0
C408 C 0.01334 0.18926 0.433 0.0
H409 H 0.01448 0.13592 0.63122 0.0
H410 H 0.02346 0.14291 0.44622 0.0
S411 S -0.01131 0.25647 0.54379 0.0
N412 N -0.01133 0.23152 0.64327 0.0
N413 N -0.00033 0.2398 0.44271 0.0
C414 C 0.00401 0.21259 0.48791 0.0
C415 C -0.00231 0.20783 0.59623 0.0
C416 C 0.78773 0.82295 0.54163 0.0
C417 C 0.82194 0.84413 0.59141 0.0
C418 C 0.78443 0.82624 0.43553 0.0
C419 C 0.81541 0.85029 0.37613 0.0
H420 H 0.76328 0.80385 0.58504 0.0
H421 H 0.75795 0.80873 0.39924 0.0
S422 S 0.91077 0.91241 0.4694 0.0
N423 N 0.88695 0.8909 0.57381 0.0
N424 N 0.88097 0.89619 0.37358 0.0
C425 C 0.84957 0.872 0.42499 0.0
C426 C 0.8528 0.86917 0.53301 0.0
C427 C 0.16706 0.00887 0.62193 0.0
C428 C 0.17556 0.98614 0.68249 0.0
C429 C 0.16242 0.00341 0.51579 0.0
C430 C 0.16683 0.97551 0.46674 0.0
H431 H 0.16254 0.02997 0.65723 0.0
H432 H 0.15551 0.02137 0.4718 0.0
S433 S 0.19164 0.91043 0.59209 0.0
N434 N 0.18956 0.93569 0.68721 0.0
N435 N 0.18193 0.92615 0.4866 0.0
C436 C 0.17665 0.95349 0.52637 0.0
C437 C 0.1807 0.95861 0.63467 0.0
C438 C 0.62357 0.53306 0.68928 0.0
C439 C 0.60937 0.49992 0.63246 0.0
C440 C 0.61817 0.53202 0.79623 0.0
C441 C 0.59906 0.49783 0.8492 0.0
H442 H 0.63874 0.55983 0.6509 0.0
H443 H 0.63042 0.55802 0.83824 0.0
S444 S 0.55631 0.40349 0.73576 0.0
N445 N 0.57459 0.43211 0.63684 0.0
N446 N 0.56567 0.43039 0.83767 0.0
C447 C 0.58447 0.46468 0.7931 0.0
C448 C 0.5893 0.46567 0.68465 0.0
C449 C 0.52351 0.12858 0.72072 0.0
C450 C 0.50479 0.14492 0.67202 0.0
C451 C 0.52194 0.12358 0.82739 0.0
C452 C 0.50235 0.1356 0.88872 0.0
H453 H 0.53979 0.11979 0.67626 0.0
H454 H 0.53742 0.11178 0.86231 0.0
S455 S 0.44877 0.17997 0.80141 0.0
N456 N 0.46537 0.17231 0.69452 0.0
N457 N 0.46378 0.16423 0.89581 0.0
C458 C 0.48331 0.15166 0.84178 0.0
C459 C 0.48417 0.15601 0.73309 0.0
C460 C 0.8243 0.38518 0.67629 0.0
C461 C 0.85025 0.38039 0.61934 0.0
C462 C 0.82801 0.39065 0.78244 0.0
C463 C 0.85827 0.39242 0.83523 0.0
H464 H 0.80069 0.38424 0.63862 0.0
H465 H 0.80678 0.39324 0.82366 0.0
S466 S 0.93556 0.38471 0.71886 0.0
N467 N 0.90823 0.37973 0.62115 0.0
N468 N 0.91561 0.39058 0.82152 0.0
C469 C 0.88516 0.38894 0.77849 0.0
C470 C 0.88098 0.38265 0.67028 0.0
C471 C 0.33206 0.80889 0.22809 0.0
C472 C 0.32436 0.83332 0.28393 0.0
C473 C 0.33974 0.81381 0.12288 0.0
C474 C 0.34067 0.84372 0.06893 0.0
H475 H 0.33207 0.78554 0.26603 0.0
H476 H 0.34467 0.79371 0.08303 0.0
S477 S 0.32271 0.91588 0.17812 0.0
N478 N 0.31833 0.88886 0.27725 0.0
N479 N 0.33292 0.89808 0.07806 0.0
C480 C 0.33339 0.86869 0.12329 0.0
C481 C 0.32503 0.8634 0.23103 0.0
C482 C 0.11832 0.46166 0.13891 0.0
C483 C 0.10937 0.48712 0.09296 0.0
C484 C 0.12067 0.45938 0.24589 0.0
C485 C 0.11494 0.48308 0.31043 0.0
H486 H 0.12501 0.44432 0.09142 0.0
H487 H 0.12901 0.44049 0.27781 0.0
S488 S 0.08559 0.55058 0.23079 0.0
N489 N 0.09055 0.53327 0.12141 0.0
N490 N 0.09573 0.52961 0.32296 0.0
C491 C 0.10363 0.50689 0.2663 0.0
C492 C 0.10054 0.50869 0.15731 0.0
C493 C 0.52252 0.64 0.28803 0.0
C494 C 0.48966 0.62609 0.34562 0.0
C495 C 0.52142 0.63565 0.18068 0.0
C496 C 0.48747 0.61806 0.1281 0.0
H497 H 0.54911 0.65435 0.32603 0.0
H498 H 0.54725 0.64769 0.13817 0.0
S499 S 0.39388 0.5765 0.24403 0.0
N500 N 0.42236 0.59303 0.34266 0.0
N501 N 0.4205 0.58614 0.14123 0.0
C502 C 0.45457 0.6036 0.18516 0.0
C503 C 0.45562 0.60728 0.29396 0.0
loop_
_geom_bond_atom_site_label_1
_geom_bond_atom_site_label_2
_geom_bond_distance
_geom_bond_site_symmetry_2
_ccdc_geom_bond_type
O0 Zn1 1.953 . S
O0 C16 1.225 . S
Zn1 O0 1.953 . S
Zn1 O2 1.949 1_656 S
Zn1 O8 1.919 . S
Zn1 O13 1.924 . S
O2 Zn1 1.949 1_454 S
O2 Zn3 1.923 . S
O2 Zn4 1.950 1_554 S
O2 Zn5 1.945 . S
Zn3 O2 1.923 . S
Zn3 O6 1.933 . S
Zn3 O9 1.941 1_455 S
Zn3 O10 1.965 . S
Zn4 O2 1.950 1_556 S
Zn4 O11 1.938 . S
Zn4 O12 1.906 . S
Zn4 O22 1.953 . S
Zn5 O2 1.945 . S
Zn5 O7 1.932 . S
Zn5 O14 1.977 . S
Zn5 O15 1.910 1_455 S
O6 Zn3 1.933 . S
O6 C17 1.226 . S
O7 Zn5 1.932 . S
O7 C17 1.307 . S
O8 Zn1 1.919 . S
O8 C19 1.253 1_556 S
O9 Zn3 1.941 1_655 S
O9 C19 1.283 . S
O10 Zn3 1.965 . S
O10 C18 1.303 1_554 S
O11 Zn4 1.938 . S
O11 C18 1.247 . S
O12 Zn4 1.906 . S
O12 C20 1.304 1_556 S
O13 Zn1 1.924 . S
O13 C21 1.311 1_556 S
O14 Zn5 1.977 . S
O14 C20 1.272 . S
O15 Zn5 1.910 1_655 S
O15 C21 1.231 . S
C16 O0 1.225 . S
C16 O22 1.298 1_655 S
C17 O6 1.226 . S
C17 O7 1.307 . S
C18 O10 1.303 1_556 S
C18 O11 1.247 . S
C19 O8 1.253 1_554 S
C19 O9 1.283 . S
C20 O12 1.304 1_554 S
C20 O14 1.272 . S
C21 O13 1.311 1_554 S
C21 O15 1.231 . S
O22 Zn4 1.953 . S
O22 C16 1.298 1_455 S
O23 Zn24 1.953 . S
O23 C39 1.225 . S
Zn24 O23 1.953 . S
Zn24 O25 1.949 . S
Zn24 O31 1.919 . S
Zn24 O36 1.924 . S
O25 Zn24 1.949 . S
O25 Zn26 1.923 1_554 S
O25 Zn27 1.950 . S
O25 Zn28 1.945 1_554 S
Zn26 O25 1.923 1_556 S
Zn26 O29 1.933 . S
Zn26 O32 1.941 . S
Zn26 O33 1.965 . S
Zn27 O25 1.950 . S
Zn27 O34 1.938 . S
Zn27 O35 1.906 . S
Zn27 O45 1.953 . S
Zn28 O25 1.945 1_556 S
Zn28 O30 1.932 . S
Zn28 O37 1.977 . S
Zn28 O38 1.910 . S
O29 Zn26 1.933 . S
O29 C40 1.226 . S
O30 Zn28 1.932 . S
O30 C40 1.307 . S
O31 Zn24 1.919 . S
O31 C42 1.253 1_554 S
O32 Zn26 1.941 . S
O32 C42 1.283 . S
O33 Zn26 1.965 . S
O33 C41 1.303 1_556 S
O34 Zn27 1.938 . S
O34 C41 1.247 . S
O35 Zn27 1.906 . S
O35 C43 1.304 1_554 S
O36 Zn24 1.924 . S
O36 C44 1.311 . S
O37 Zn28 1.977 . S
O37 C43 1.272 . S
O38 Zn28 1.910 . S
O38 C44 1.231 1_556 S
C39 O23 1.225 . S
C39 O45 1.298 . S
C40 O29 1.226 . S
C40 O30 1.307 . S
C41 O33 1.303 1_554 S
C41 O34 1.247 . S
C42 O31 1.253 1_556 S
C42 O32 1.283 . S
C43 O35 1.304 1_556 S
C43 O37 1.272 . S
C44 O36 1.311 . S
C44 O38 1.231 1_554 S
O45 Zn27 1.953 . S
O45 C39 1.298 . S
O46 Zn47 1.953 . S
O46 C62 1.225 . S
Zn47 O46 1.953 . S
Zn47 O48 1.949 1_556 S
Zn47 O54 1.919 . S
Zn47 O59 1.924 . S
O48 Zn47 1.949 1_554 S
O48 Zn49 1.920 1_545 S
O48 Zn50 1.950 1_544 S
O48 Zn51 1.945 . S
Zn49 O48 1.920 1_565 S
Zn49 O52 1.933 . S
Zn49 O55 1.940 1_565 S
Zn49 O56 1.969 . S
Zn50 O48 1.950 1_566 S
Zn50 O57 1.938 . S
Zn50 O58 1.906 . S
Zn50 O68 1.953 . S
Zn51 O48 1.945 . S
Zn51 O53 1.932 . S
Zn51 O60 1.977 1_545 S
Zn51 O61 1.910 . S
O52 Zn49 1.933 . S
O52 C63 1.224 . S
O53 Zn51 1.932 . S
O53 C63 1.309 1_545 S
O54 Zn47 1.919 . S
O54 C65 1.253 1_556 S
O55 Zn49 1.940 1_545 S
O55 C65 1.283 . S
O56 Zn49 1.969 . S
O56 C64 1.303 1_554 S
O57 Zn50 1.938 . S
O57 C64 1.247 . S
O58 Zn50 1.906 . S
O58 C66 1.304 1_556 S
O59 Zn47 1.924 . S
O59 C67 1.311 1_556 S
O60 Zn51 1.977 1_565 S
O60 C66 1.272 . S
O61 Zn51 1.910 . S
O61 C67 1.231 . S
C62 O46 1.225 . S
C62 O68 1.298 1_545 S
C63 O52 1.224 . S
C63 O53 1.309 1_565 S
C64 O56 1.303 1_556 S
C64 O57 1.247 . S
C65 O54 1.253 1_554 S
C65 O55 1.283 . S
C66 O58 1.304 1_554 S
C66 O60 1.272 . S
C67 O59 1.311 1_554 S
C67 O61 1.231 . S
O68 Zn50 1.953 . S
O68 C62 1.298 1_565 S
O69 Zn70 1.953 . S
O69 C85 1.225 . S
Zn70 O69 1.953 . S
Zn70 O71 1.949 . S
Zn70 O77 1.919 . S
Zn70 O82 1.924 . S
O71 Zn70 1.949 . S
O71 Zn72 1.923 . S
O71 Zn73 1.950 . S
O71 Zn74 1.945 . S
Zn72 O71 1.923 . S
Zn72 O75 1.933 . S
Zn72 O78 1.941 . S
Zn72 O79 1.965 . S
Zn73 O71 1.950 . S
Zn73 O80 1.938 . S
Zn73 O81 1.906 . S
Zn73 O91 1.953 . S
Zn74 O71 1.945 . S
Zn74 O76 1.932 . S
Zn74 O83 1.977 . S
Zn74 O84 1.910 . S
O75 Zn72 1.933 . S
O75 C86 1.226 . S
O76 Zn74 1.932 . S
O76 C86 1.307 . S
O77 Zn70 1.919 . S
O77 C88 1.253 . S
O78 Zn72 1.941 . S
O78 C88 1.283 . S
O79 Zn72 1.965 . S
O79 C87 1.303 . S
O80 Zn73 1.938 . S
O80 C87 1.247 . S
O81 Zn73 1.906 . S
O81 C89 1.304 . S
O82 Zn70 1.924 . S
O82 C90 1.311 . S
O83 Zn74 1.977 . S
O83 C89 1.272 . S
O84 Zn74 1.910 . S
O84 C90 1.231 . S
C85 O69 1.225 . S
C85 O91 1.298 . S
C86 O75 1.226 . S
C86 O76 1.307 . S
C87 O79 1.303 . S
C87 O80 1.247 . S
C88 O77 1.253 . S
C88 O78 1.283 . S
C89 O81 1.304 . S
C89 O83 1.272 . S
C90 O82 1.311 . S
C90 O84 1.231 . S
O91 Zn73 1.953 . S
O91 C85 1.298 . S
O92 Zn93 1.953 . S
O92 C108 1.225 . S
Zn93 O92 1.953 . S
Zn93 O94 1.949 . S
Zn93 O100 1.919 . S
Zn93 O105 1.924 . S
O94 Zn93 1.949 . S
O94 Zn95 1.923 . S
O94 Zn96 1.950 . S
O94 Zn97 1.945 . S
Zn95 O94 1.923 . S
Zn95 O98 1.933 . S
Zn95 O101 1.941 . S
Zn95 O102 1.965 . S
Zn96 O94 1.950 . S
Zn96 O103 1.938 . S
Zn96 O104 1.906 . S
Zn96 O114 1.953 . S
Zn97 O94 1.945 . S
Zn97 O99 1.932 . S
Zn97 O106 1.977 . S
Zn97 O107 1.910 . S
O98 Zn95 1.933 . S
O98 C109 1.226 . S
O99 Zn97 1.932 . S
O99 C109 1.307 . S
O100 Zn93 1.919 . S
O100 C111 1.253 . S
O101 Zn95 1.941 . S
O101 C111 1.283 . S
O102 Zn95 1.965 . S
O102 C110 1.303 . S
O103 Zn96 1.938 . S
O103 C110 1.247 . S
O104 Zn96 1.906 . S
O104 C112 1.304 . S
O105 Zn93 1.924 . S
O105 C113 1.311 . S
O106 Zn97 1.977 . S
O106 C112 1.272 . S
O107 Zn97 1.910 . S
O107 C113 1.231 . S
C108 O92 1.225 . S
C108 O114 1.298 . S
C109 O98 1.226 . S
C109 O99 1.307 . S
C110 O102 1.303 . S
C110 O103 1.247 . S
C111 O100 1.253 . S
C111 O101 1.283 . S
C112 O104 1.304 . S
C112 O106 1.272 . S
C113 O105 1.311 . S
C113 O107 1.231 . S
O114 Zn96 1.953 . S
O114 C108 1.298 . S
O115 Zn116 1.953 . S
O115 C131 1.225 . S
Zn116 O115 1.953 . S
Zn116 O117 1.949 . S
Zn116 O123 1.919 . S
Zn116 O128 1.924 . S
O117 Zn116 1.949 . S
O117 Zn118 1.923 . S
O117 Zn119 1.950 . S
O117 Zn120 1.945 . S
Zn118 O117 1.923 . S
Zn118 O121 1.933 . S
Zn118 O124 1.941 . S
Zn118 O125 1.965 . S
Zn119 O117 1.950 . S
Zn119 O126 1.938 . S
Zn119 O127 1.906 . S
Zn119 O137 1.953 . S
Zn120 O117 1.945 . S
Zn120 O122 1.932 . S
Zn120 O129 1.977 . S
Zn120 O130 1.910 . S
O121 Zn118 1.933 . S
O121 C132 1.226 . S
O122 Zn120 1.932 . S
O122 C132 1.307 . S
O123 Zn116 1.919 . S
O123 C134 1.253 . S
O124 Zn118 1.941 . S
O124 C134 1.283 . S
O125 Zn118 1.965 . S
O125 C133 1.303 . S
O126 Zn119 1.938 . S
O126 C133 1.247 . S
O127 Zn119 1.906 . S
O127 C135 1.304 . S
O128 Zn116 1.924 . S
O128 C136 1.311 . S
O129 Zn120 1.977 . S
O129 C135 1.272 . S
O130 Zn120 1.910 . S
O130 C136 1.231 . S
C131 O115 1.225 . S
C131 O137 1.298 . S
C132 O121 1.226 . S
C132 O122 1.307 . S
C133 O125 1.303 . S
C133 O126 1.247 . S
C134 O123 1.253 . S
C134 O124 1.283 . S
C135 O127 1.304 . S
C135 O129 1.272 . S
C136 O128 1.311 . S
C136 O130 1.231 . S
O137 Zn119 1.953 . S
O137 C131 1.298 . S
O138 Zn139 1.953 . S
O138 C154 1.225 . S
Zn139 O138 1.953 . S
Zn139 O140 1.949 . S
Zn139 O146 1.919 . S
Zn139 O151 1.924 . S
O140 Zn139 1.949 . S
O140 Zn141 1.923 . S
O140 Zn142 1.950 . S
O140 Zn143 1.945 . S
Zn141 O140 1.923 . S
Zn141 O144 1.933 . S
Zn141 O147 1.941 . S
Zn141 O148 1.965 . S
Zn142 O140 1.950 . S
Zn142 O149 1.938 . S
Zn142 O150 1.906 . S
Zn142 O160 1.953 . S
Zn143 O140 1.945 . S
Zn143 O145 1.932 . S
Zn143 O152 1.977 . S
Zn143 O153 1.910 . S
O144 Zn141 1.933 . S
O144 C155 1.226 . S
O145 Zn143 1.932 . S
O145 C155 1.307 . S
O146 Zn139 1.919 . S
O146 C157 1.253 . S
O147 Zn141 1.941 . S
O147 C157 1.283 . S
O148 Zn141 1.965 . S
O148 C156 1.303 . S
O149 Zn142 1.938 . S
O149 C156 1.247 . S
O150 Zn142 1.906 . S
O150 C158 1.304 . S
O151 Zn139 1.924 . S
O151 C159 1.311 . S
O152 Zn143 1.977 . S
O152 C158 1.272 . S
O153 Zn143 1.910 . S
O153 C159 1.231 . S
C154 O138 1.225 . S
C154 O160 1.298 . S
C155 O144 1.226 . S
C155 O145 1.307 . S
C156 O148 1.303 . S
C156 O149 1.247 . S
C157 O146 1.253 . S
C157 O147 1.283 . S
C158 O150 1.304 . S
C158 O152 1.272 . S
C159 O151 1.311 . S
C159 O153 1.231 . S
O160 Zn142 1.953 . S
O160 C154 1.298 . S
O161 Zn162 1.953 . S
O161 C177 1.225 . S
Zn162 O161 1.953 . S
Zn162 O163 1.949 . S
Zn162 O169 1.919 . S
Zn162 O174 1.924 . S
O163 Zn162 1.949 . S
O163 Zn164 1.923 . S
O163 Zn165 1.950 . S
O163 Zn166 1.945 . S
Zn164 O163 1.923 . S
Zn164 O167 1.933 . S
Zn164 O170 1.941 . S
Zn164 O171 1.965 . S
Zn165 O163 1.950 . S
Zn165 O172 1.938 . S
Zn165 O173 1.906 . S
Zn165 O183 1.953 . S
Zn166 O163 1.945 . S
Zn166 O168 1.932 . S
Zn166 O175 1.977 . S
Zn166 O176 1.910 . S
O167 Zn164 1.933 . S
O167 C178 1.226 . S
O168 Zn166 1.932 . S
O168 C178 1.307 . S
O169 Zn162 1.919 . S
O169 C180 1.253 . S
O170 Zn164 1.941 . S
O170 C180 1.283 . S
O171 Zn164 1.965 . S
O171 C179 1.303 . S
O172 Zn165 1.938 . S
O172 C179 1.247 . S
O173 Zn165 1.906 . S
O173 C181 1.304 . S
O174 Zn162 1.924 . S
O174 C182 1.311 . S
O175 Zn166 1.977 . S
O175 C181 1.272 . S
O176 Zn166 1.910 . S
O176 C182 1.231 . S
C177 O161 1.225 . S
C177 O183 1.298 . S
C178 O167 1.226 . S
C178 O168 1.307 . S
C179 O171 1.303 . S
C179 O172 1.247 . S
C180 O169 1.253 . S
C180 O170 1.283 . S
C181 O173 1.304 . S
C181 O175 1.272 . S
C182 O174 1.311 . S
C182 O176 1.231 . S
O183 Zn165 1.953 . S
O183 C177 1.298 . S
O184 Zn185 1.953 . S
O184 C200 1.225 . S
Zn185 O184 1.953 . S
Zn185 O186 1.949 . S
Zn185 O192 1.919 . S
Zn185 O197 1.924 . S
O186 Zn185 1.949 . S
O186 Zn187 1.923 . S
O186 Zn188 1.950 . S
O186 Zn189 1.945 . S
Zn187 O186 1.923 . S
Zn187 O190 1.933 . S
Zn187 O193 1.941 . S
Zn187 O194 1.965 . S
Zn188 O186 1.950 . S
Zn188 O195 1.938 . S
Zn188 O196 1.906 . S
Zn188 O206 1.953 . S
Zn189 O186 1.945 . S
Zn189 O191 1.932 . S
Zn189 O198 1.977 . S
Zn189 O199 1.910 . S
O190 Zn187 1.933 . S
O190 C201 1.226 . S
O191 Zn189 1.932 . S
O191 C201 1.307 . S
O192 Zn185 1.919 . S
O192 C203 1.253 . S
O193 Zn187 1.941 . S
O193 C203 1.283 . S
O194 Zn187 1.965 . S
O194 C202 1.303 . S
O195 Zn188 1.938 . S
O195 C202 1.247 . S
O196 Zn188 1.906 . S
O196 C204 1.304 . S
O197 Zn185 1.924 . S
O197 C205 1.311 . S
O198 Zn189 1.977 . S
O198 C204 1.272 . S
O199 Zn189 1.910 . S
O199 C205 1.231 . S
C200 O184 1.225 . S
C200 O206 1.298 . S
C201 O190 1.226 . S
C201 O191 1.307 . S
C202 O194 1.303 . S
C202 O195 1.247 . S
C203 O192 1.253 . S
C203 O193 1.283 . S
C204 O196 1.304 . S
C204 O198 1.272 . S
C205 O197 1.311 . S
C205 O199 1.231 . S
O206 Zn188 1.953 . S
O206 C200 1.298 . S
C207 C208 1.369 . S
C207 C209 1.419 . S
C207 H211 0.930 1_556 S
C208 C207 1.369 . S
C208 C217 1.429 . S
C209 C207 1.419 . S
C209 C210 1.363 . S
C209 H212 0.929 . S
C210 C209 1.363 . S
C210 C216 1.428 . S
H211 C207 0.930 1_554 S
H212 C209 0.929 . S
S213 N214 1.613 . S
S213 N215 1.610 . S
N214 S213 1.613 . S
N214 C217 1.350 . S
N215 S213 1.610 . S
N215 C216 1.351 . S
C216 C210 1.428 . S
C216 N215 1.351 . S
C216 C217 1.434 . S
C217 C208 1.429 . S
C217 N214 1.350 . S
C217 C216 1.434 . S
C218 C219 1.369 . S
C218 C220 1.419 . S
C218 H222 0.930 . S
C219 C218 1.369 . S
C219 C228 1.429 . S
C220 C218 1.419 . S
C220 C221 1.363 . S
C220 H223 0.929 . S
C221 C220 1.363 . S
C221 C227 1.428 . S
H222 C218 0.930 . S
H223 C220 0.929 . S
S224 N225 1.613 . S
S224 N226 1.610 . S
N225 S224 1.613 . S
N225 C228 1.350 . S
N226 S224 1.610 . S
N226 C227 1.351 . S
C227 C221 1.428 . S
C227 N226 1.351 . S
C227 C228 1.434 . S
C228 C219 1.429 . S
C228 N225 1.350 . S
C228 C227 1.434 . S
C229 C230 1.369 . S
C229 C231 1.419 . S
C229 H233 0.930 . S
C230 C229 1.369 . S
C230 C239 1.429 . S
C231 C229 1.419 . S
C231 C232 1.363 . S
C231 H234 0.929 . S
C232 C231 1.363 . S
C232 C238 1.428 . S
H233 C229 0.930 . S
H234 C231 0.929 . S
S235 N236 1.613 . S
S235 N237 1.610 . S
N236 S235 1.613 . S
N236 C239 1.350 . S
N237 S235 1.610 . S
N237 C238 1.351 . S
C238 C232 1.428 . S
C238 N237 1.351 . S
C238 C239 1.434 . S
C239 C230 1.429 . S
C239 N236 1.350 . S
C239 C238 1.434 . S
C240 C241 1.369 . S
C240 C242 1.419 . S
C240 H244 0.930 . S
C241 C240 1.369 . S
C241 C250 1.429 . S
C242 C240 1.419 . S
C242 C243 1.363 . S
C242 H245 0.929 . S
C243 C242 1.363 . S
C243 C249 1.428 . S
H244 C240 0.930 . S
H245 C242 0.929 . S
S246 N247 1.613 1_556 S
S246 N248 1.610 . S
N247 S246 1.613 1_554 S
N247 C250 1.350 . S
N248 S246 1.610 . S
N248 C249 1.351 1_556 S
C249 C243 1.428 . S
C249 N248 1.351 1_554 S
C249 C250 1.434 . S
C250 C241 1.429 . S
C250 N247 1.350 . S
C250 C249 1.434 . S
C251 C252 1.369 . S
C251 C253 1.419 . S
C251 H255 0.930 . S
C252 C251 1.369 . S
C252 C261 1.429 . S
C253 C251 1.419 . S
C253 C254 1.363 . S
C253 H256 0.929 . S
C254 C253 1.363 . S
C254 C260 1.428 . S
H255 C251 0.930 . S
H256 C253 0.929 . S
S257 N258 1.613 . S
S257 N259 1.610 . S
N258 S257 1.613 . S
N258 C261 1.350 . S
N259 S257 1.610 . S
N259 C260 1.351 . S
C260 C254 1.428 . S
C260 N259 1.351 . S
C260 C261 1.434 . S
C261 C252 1.429 . S
C261 N258 1.350 . S
C261 C260 1.434 . S
C262 C263 1.369 . S
C262 C264 1.419 . S
C262 H266 0.930 . S
C263 C262 1.369 . S
C263 C272 1.429 . S
C264 C262 1.419 . S
C264 C265 1.363 . S
C264 H267 0.929 . S
C265 C264 1.363 . S
C265 C271 1.428 . S
H266 C262 0.930 . S
H267 C264 0.929 . S
S268 N269 1.613 . S
S268 N270 1.610 . S
N269 S268 1.613 . S
N269 C272 1.350 . S
N270 S268 1.610 . S
N270 C271 1.351 . S
C271 C265 1.428 . S
C271 N270 1.351 . S
C271 C272 1.434 . S
C272 C263 1.429 . S
C272 N269 1.350 . S
C272 C271 1.434 . S
C273 C274 1.369 . S
C273 C275 1.419 1_455 S
C273 H277 0.930 . S
C274 C273 1.369 . S
C274 C283 1.429 . S
C275 C273 1.419 1_655 S
C275 C276 1.363 . S
C275 H278 0.929 . S
C276 C275 1.363 . S
C276 C282 1.428 . S
H277 C273 0.930 . S
H278 C275 0.929 . S
S279 N280 1.613 1_655 S
S279 N281 1.610 . S
N280 S279 1.613 1_455 S
N280 C283 1.350 . S
N281 S279 1.610 . S
N281 C282 1.351 . S
C282 C276 1.428 . S
C282 N281 1.351 . S
C282 C283 1.434 1_655 S
C283 C274 1.429 . S
C283 N280 1.350 . S
C283 C282 1.434 1_455 S
C284 C285 1.369 . S
C284 C286 1.419 . S
C284 H288 0.930 . S
C285 C284 1.369 . S
C285 C294 1.429 . S
C286 C284 1.419 . S
C286 C287 1.363 . S
C286 H289 0.929 . S
C287 C286 1.363 . S
C287 C293 1.428 . S
H288 C284 0.930 . S
H289 C286 0.929 . S
S290 N291 1.613 . S
S290 N292 1.610 . S
N291 S290 1.613 . S
N291 C294 1.350 . S
N292 S290 1.610 . S
N292 C293 1.351 . S
C293 C287 1.428 . S
C293 N292 1.351 . S
C293 C294 1.434 . S
C294 C285 1.429 . S
C294 N291 1.350 . S
C294 C293 1.434 . S
C295 C296 1.369 . S
C295 C297 1.419 1_545 S
C295 H299 0.930 . S
C296 C295 1.369 . S
C296 C305 1.429 . S
C297 C295 1.419 1_565 S
C297 C298 1.363 . S
C297 H300 0.929 . S
C298 C297 1.363 . S
C298 C304 1.428 . S
H299 C295 0.930 . S
H300 C297 0.929 . S
S301 N302 1.613 . S
S301 N303 1.610 1_545 S
N302 S301 1.613 . S
N302 C305 1.350 . S
N303 S301 1.610 1_565 S
N303 C304 1.351 . S
C304 C298 1.428 . S
C304 N303 1.351 . S
C304 C305 1.434 1_565 S
C305 C296 1.429 . S
C305 N302 1.350 . S
C305 C304 1.434 1_545 S
C306 C307 1.369 . S
C306 C308 1.419 . S
C306 H310 0.930 . S
C307 C306 1.369 . S
C307 C316 1.429 1_556 S
C308 C306 1.419 . S
C308 C309 1.363 1_556 S
C308 H311 0.929 . S
C309 C308 1.363 1_554 S
C309 C315 1.428 . S
H310 C306 0.930 . S
H311 C308 0.929 . S
S312 N313 1.613 . S
S312 N314 1.610 . S
N313 S312 1.613 . S
N313 C316 1.350 . S
N314 S312 1.610 . S
N314 C315 1.351 . S
C315 C309 1.428 . S
C315 N314 1.351 . S
C315 C316 1.434 . S
C316 C307 1.429 1_554 S
C316 N313 1.350 . S
C316 C315 1.434 . S
C317 C318 1.369 1_556 S
C317 C319 1.419 1_565 S
C317 H321 0.930 . S
C318 C317 1.369 1_554 S
C318 C327 1.429 . S
C319 C317 1.419 1_545 S
C319 C320 1.363 . S
C319 H322 0.929 . S
C320 C319 1.363 . S
C320 C326 1.428 1_556 S
H321 C317 0.930 . S
H322 C319 0.929 . S
S323 N324 1.613 1_545 S
S323 N325 1.610 . S
N324 S323 1.613 1_565 S
N324 C327 1.350 . S
N325 S323 1.610 . S
N325 C326 1.351 . S
C326 C320 1.428 1_554 S
C326 N325 1.351 . S
C326 C327 1.434 1_545 S
C327 C318 1.429 . S
C327 N324 1.350 . S
C327 C326 1.434 1_565 S
C328 C329 1.369 1_554 S
C328 C330 1.419 1_655 S
C328 H332 0.930 . S
C329 C328 1.369 1_556 S
C329 C338 1.429 . S
C330 C328 1.419 1_455 S
C330 C331 1.363 . S
C330 H333 0.929 . S
C331 C330 1.363 . S
C331 C337 1.428 1_554 S
H332 C328 0.930 . S
H333 C330 0.929 . S
S334 N335 1.613 1_455 S
S334 N336 1.610 . S
N335 S334 1.613 1_655 S
N335 C338 1.350 . S
N336 S334 1.610 . S
N336 C337 1.351 . S
C337 C331 1.428 1_556 S
C337 N336 1.351 . S
C337 C338 1.434 1_455 S
C338 C329 1.429 . S
C338 N335 1.350 . S
C338 C337 1.434 1_655 S
C339 C340 1.369 . S
C339 C341 1.419 . S
C339 H343 0.930 . S
C340 C339 1.369 . S
C340 C349 1.429 . S
C341 C339 1.419 . S
C341 C342 1.363 . S
C341 H344 0.929 . S
C342 C341 1.363 . S
C342 C348 1.428 . S
H343 C339 0.930 . S
H344 C341 0.929 . S
S345 N346 1.613 . S
S345 N347 1.610 . S
N346 S345 1.613 . S
N346 C349 1.350 . S
N347 S345 1.610 . S
N347 C348 1.351 . S
C348 C342 1.428 . S
C348 N347 1.351 . S
C348 C349 1.434 . S
C349 C340 1.429 . S
C349 N346 1.350 . S
C349 C348 1.434 . S
C350 C351 1.369 . S
C350 C352 1.419 . S
C350 H354 0.930 . S
C351 C350 1.369 . S
C351 C360 1.429 . S
C352 C350 1.419 . S
C352 C353 1.363 . S
C352 H355 0.929 . S
C353 C352 1.363 . S
C353 C359 1.428 . S
H354 C350 0.930 . S
H355 C352 0.929 . S
S356 N357 1.613 . S
S356 N358 1.610 . S
N357 S356 1.613 . S
N357 C360 1.350 . S
N358 S356 1.610 . S
N358 C359 1.351 . S
C359 C353 1.428 . S
C359 N358 1.351 . S
C359 C360 1.434 . S
C360 C351 1.429 . S
C360 N357 1.350 . S
C360 C359 1.434 . S
C361 C362 1.369 . S
C361 C363 1.419 . S
C361 H365 0.930 . S
C362 C361 1.369 . S
C362 C371 1.429 . S
C363 C361 1.419 . S
C363 C364 1.363 . S
C363 H366 0.929 . S
C364 C363 1.363 . S
C364 C370 1.428 . S
H365 C361 0.930 . S
H366 C363 0.929 . S
S367 N368 1.613 . S
S367 N369 1.610 . S
N368 S367 1.613 . S
N368 C371 1.350 . S
N369 S367 1.610 . S
N369 C370 1.351 . S
C370 C364 1.428 . S
C370 N369 1.351 . S
C370 C371 1.434 . S
C371 C362 1.429 . S
C371 N368 1.350 . S
C371 C370 1.434 . S
C372 C373 1.369 . S
C372 C374 1.419 . S
C372 H376 0.930 . S
C373 C372 1.369 . S
C373 C382 1.429 . S
C374 C372 1.419 . S
C374 C375 1.363 . S
C374 H377 0.929 . S
C375 C374 1.363 . S
C375 C381 1.428 . S
H376 C372 0.930 . S
H377 C374 0.929 . S
S378 N379 1.613 . S
S378 N380 1.610 . S
N379 S378 1.613 . S
N379 C382 1.350 . S
N380 S378 1.610 . S
N380 C381 1.351 . S
C381 C375 1.428 . S
C381 N380 1.351 . S
C381 C382 1.434 . S
C382 C373 1.429 . S
C382 N379 1.350 . S
C382 C381 1.434 . S
C383 C384 1.369 . S
C383 C385 1.419 . S
C383 H387 0.930 . S
C384 C383 1.369 . S
C384 C393 1.429 . S
C385 C383 1.419 . S
C385 C386 1.363 . S
C385 H388 0.929 . S
C386 C385 1.363 . S
C386 C392 1.428 . S
H387 C383 0.930 . S
H388 C385 0.929 . S
S389 N390 1.613 . S
S389 N391 1.610 . S
N390 S389 1.613 . S
N390 C393 1.350 . S
N391 S389 1.610 . S
N391 C392 1.351 . S
C392 C386 1.428 . S
C392 N391 1.351 . S
C392 C393 1.434 . S
C393 C384 1.429 . S
C393 N390 1.350 . S
C393 C392 1.434 . S
C394 C395 1.369 . S
C394 C396 1.419 . S
C394 H398 0.930 . S
C395 C394 1.369 . S
C395 C404 1.429 . S
C396 C394 1.419 . S
C396 C397 1.363 . S
C396 H399 0.929 . S
C397 C396 1.363 . S
C397 C403 1.428 . S
H398 C394 0.930 . S
H399 C396 0.929 . S
S400 N401 1.613 . S
S400 N402 1.610 . S
N401 S400 1.613 . S
N401 C404 1.350 . S
N402 S400 1.610 . S
N402 C403 1.351 . S
C403 C397 1.428 . S
C403 N402 1.351 . S
C403 C404 1.434 . S
C404 C395 1.429 . S
C404 N401 1.350 . S
C404 C403 1.434 . S
C405 C406 1.369 . S
C405 C407 1.419 1_655 S
C405 H409 0.930 . S
C406 C405 1.369 . S
C406 C415 1.429 1_655 S
C407 C405 1.419 1_455 S
C407 C408 1.363 . S
C407 H410 0.929 . S
C408 C407 1.363 . S
C408 C414 1.428 . S
H409 C405 0.930 . S
H410 C407 0.929 . S
S411 N412 1.613 . S
S411 N413 1.610 . S
N412 S411 1.613 . S
N412 C415 1.350 . S
N413 S411 1.610 . S
N413 C414 1.351 . S
C414 C408 1.428 . S
C414 N413 1.351 . S
C414 C415 1.434 . S
C415 C406 1.429 1_455 S
C415 N412 1.350 . S
C415 C414 1.434 . S
C416 C417 1.369 . S
C416 C418 1.419 . S
C416 H420 0.930 . S
C417 C416 1.369 . S
C417 C426 1.429 . S
C418 C416 1.419 . S
C418 C419 1.363 . S
C418 H421 0.929 . S
C419 C418 1.363 . S
C419 C425 1.428 . S
H420 C416 0.930 . S
H421 C418 0.929 . S
S422 N423 1.613 . S
S422 N424 1.610 . S
N423 S422 1.613 . S
N423 C426 1.350 . S
N424 S422 1.610 . S
N424 C425 1.351 . S
C425 C419 1.428 . S
C425 N424 1.351 . S
C425 C426 1.434 . S
C426 C417 1.429 . S
C426 N423 1.350 . S
C426 C425 1.434 . S
C427 C428 1.369 . S
C427 C429 1.419 . S
C427 H431 0.930 . S
C428 C427 1.369 . S
C428 C437 1.429 1_545 S
C429 C427 1.419 . S
C429 C430 1.363 . S
C429 H432 0.929 . S
C430 C429 1.363 . S
C430 C436 1.428 1_545 S
H431 C427 0.930 . S
H432 C429 0.929 . S
S433 N434 1.613 . S
S433 N435 1.610 . S
N434 S433 1.613 . S
N434 C437 1.350 . S
N435 S433 1.610 . S
N435 C436 1.351 . S
C436 C430 1.428 1_565 S
C436 N435 1.351 . S
C436 C437 1.434 . S
C437 C428 1.429 1_565 S
C437 N434 1.350 . S
C437 C436 1.434 . S
C438 C439 1.369 . S
C438 C440 1.419 . S
C438 H442 0.930 . S
C439 C438 1.369 . S
C439 C448 1.429 . S
C440 C438 1.419 . S
C440 C441 1.363 . S
C440 H443 0.929 . S
C441 C440 1.363 . S
C441 C447 1.428 . S
H442 C438 0.930 . S
H443 C440 0.929 . S
S444 N445 1.613 . S
S444 N446 1.610 . S
N445 S444 1.613 . S
N445 C448 1.350 . S
N446 S444 1.610 . S
N446 C447 1.351 . S
C447 C441 1.428 . S
C447 N446 1.351 . S
C447 C448 1.434 . S
C448 C439 1.429 . S
C448 N445 1.350 . S
C448 C447 1.434 . S
C449 C450 1.369 . S
C449 C451 1.419 . S
C449 H453 0.930 . S
C450 C449 1.369 . S
C450 C459 1.429 . S
C451 C449 1.419 . S
C451 C452 1.363 . S
C451 H454 0.929 . S
C452 C451 1.363 . S
C452 C458 1.428 . S
H453 C449 0.930 . S
H454 C451 0.929 . S
S455 N456 1.613 . S
S455 N457 1.610 . S
N456 S455 1.613 . S
N456 C459 1.350 . S
N457 S455 1.610 . S
N457 C458 1.351 . S
C458 C452 1.428 . S
C458 N457 1.351 . S
C458 C459 1.434 . S
C459 C450 1.429 . S
C459 N456 1.350 . S
C459 C458 1.434 . S
C460 C461 1.369 . S
C460 C462 1.419 . S
C460 H464 0.930 . S
C461 C460 1.369 . S
C461 C470 1.429 . S
C462 C460 1.419 . S
C462 C463 1.363 . S
C462 H465 0.929 . S
C463 C462 1.363 . S
C463 C469 1.428 . S
H464 C460 0.930 . S
H465 C462 0.929 . S
S466 N467 1.613 . S
S466 N468 1.610 . S
N467 S466 1.613 . S
N467 C470 1.350 . S
N468 S466 1.610 . S
N468 C469 1.351 . S
C469 C463 1.428 . S
C469 N468 1.351 . S
C469 C470 1.434 . S
C470 C461 1.429 . S
C470 N467 1.350 . S
C470 C469 1.434 . S
C471 C472 1.369 . S
C471 C473 1.419 . S
C471 H475 0.930 . S
C472 C471 1.369 . S
C472 C481 1.429 . S
C473 C471 1.419 . S
C473 C474 1.363 . S
C473 H476 0.929 . S
C474 C473 1.363 . S
C474 C480 1.428 . S
H475 C471 0.930 . S
H476 C473 0.929 . S
S477 N478 1.613 . S
S477 N479 1.610 . S
N478 S477 1.613 . S
N478 C481 1.350 . S
N479 S477 1.610 . S
N479 C480 1.351 . S
C480 C474 1.428 . S
C480 N479 1.351 . S
C480 C481 1.434 . S
C481 C472 1.429 . S
C481 N478 1.350 . S
C481 C480 1.434 . S
C482 C483 1.369 . S
C482 C484 1.419 . S
C482 H486 0.930 . S
C483 C482 1.369 . S
C483 C492 1.429 . S
C484 C482 1.419 . S
C484 C485 1.363 . S
C484 H487 0.929 . S
C485 C484 1.363 . S
C485 C491 1.428 . S
H486 C482 0.930 . S
H487 C484 0.929 . S
S488 N489 1.613 . S
S488 N490 1.610 . S
N489 S488 1.613 . S
N489 C492 1.350 . S
N490 S488 1.610 . S
N490 C491 1.351 . S
C491 C485 1.428 . S
C491 N490 1.351 . S
C491 C492 1.434 . S
C492 C483 1.429 . S
C492 N489 1.350 . S
C492 C491 1.434 . S
C493 C494 1.369 . S
C493 C495 1.419 . S
C493 H497 0.930 . S
C494 C493 1.369 . S
C494 C503 1.429 . S
C495 C493 1.419 . S
C495 C496 1.363 . S
C495 H498 0.929 . S
C496 C495 1.363 . S
C496 C502 1.428 . S
H497 C493 0.930 . S
H498 C495 0.929 . S
S499 N500 1.613 . S
S499 N501 1.610 . S
N500 S499 1.613 . S
N500 C503 1.350 . S
N501 S499 1.610 . S
N501 C502 1.351 . S
C502 C496 1.428 . S
C502 N501 1.351 . S
C502 C503 1.434 . S
C503 C494 1.429 . S
C503 N500 1.350 . S
C503 C502 1.434 . S
C208 C18 1.308 . S
C210 C179 1.309 . S
C219 C42 1.277 . S
C221 C203 1.277 . S
C230 C64 1.299 . S
C232 C157 1.290 . S
C241 C111 1.267 . S
C243 C65 1.265 . S
C252 C134 1.272 . S
C254 C19 1.275 . S
C263 C41 1.294 . S
C265 C88 1.285 . S
C274 C180 1.291 . S
C276 C133 1.306 . S
C285 C202 1.318 . S
C287 C87 1.316 . S
C296 C110 1.322 . S
C298 C156 1.322 . S
C307 C67 1.167 1_556 S
C309 C20 1.159 . S
C318 C44 1.179 . S
C320 C21 1.171 1_556 S
C329 C43 1.162 . S
C331 C66 1.153 . S
C340 C90 1.182 . S
C342 C135 1.156 . S
C351 C89 1.160 . S
C353 C113 1.186 . S
C362 C112 1.150 . S
C364 C136 1.175 . S
C373 C205 1.180 . S
C375 C158 1.171 . S
C384 C182 1.177 . S
C386 C159 1.185 . S
C395 C204 1.157 . S
C397 C181 1.162 . S
C406 C16 1.441 . S
C408 C17 1.445 . S
C417 C40 1.440 . S
C419 C39 1.440 . S
C428 C62 1.436 . S
C430 C63 1.444 1_545 S
C439 C85 1.441 . S
C441 C86 1.448 1_556 S
C450 C108 1.440 . S
C452 C109 1.444 1_556 S
C461 C131 1.441 . S
C463 C132 1.440 1_556 S
C472 C154 1.443 . S
C474 C155 1.447 1_554 S
C483 C177 1.446 1_554 S
C485 C178 1.445 . S
C494 C200 1.439 . S
C496 C201 1.444 1_554 S
