# Generated by pormake.
# Topology wfa, (4)-cn, num edge types: 1
# Building blocks:
#     Node 0, Type 0, BuildingBlock: NAWXER_clean_sbu_0, # of connection points: 4
#     Node 1, Type 0, BuildingBlock: NAWXER_clean_sbu_0, # of connection points: 4
#     Node 2, Type 0, BuildingBlock: NAWXER_clean_sbu_0, # of connection points: 4
#     Node 3, Type 0, BuildingBlock: NAWXER_clean_sbu_0, # of connection points: 4
#     Node 4, Type 0, BuildingBlock: NAWXER_clean_sbu_0, # of connection points: 4
#     Node 5, Type 0, BuildingBlock: NAWXER_clean_sbu_0, # of connection points: 4
#     Node 6, Type 0, BuildingBlock: NAWXER_clean_sbu_0, # of connection points: 4
#     Node 7, Type 0, BuildingBlock: NAWXER_clean_sbu_0, # of connection points: 4
#     Node 8, Type 0, BuildingBlock: NAWXER_clean_sbu_0, # of connection points: 4
#     Node 9, Type 0, BuildingBlock: NAWXER_clean_sbu_0, # of connection points: 4
#     Node 10, Type 0, BuildingBlock: NAWXER_clean_sbu_0, # of connection points: 4
#     Node 11, Type 0, BuildingBlock: NAWXER_clean_sbu_0, # of connection points: 4
#     Node 12, Type 0, BuildingBlock: NAWXER_clean_sbu_0, # of connection points: 4
#     Node 13, Type 0, BuildingBlock: NAWXER_clean_sbu_0, # of connection points: 4
#     Node 14, Type 0, BuildingBlock: NAWXER_clean_sbu_0, # of connection points: 4
#     Node 15, Type 0, BuildingBlock: NAWXER_clean_sbu_0, # of connection points: 4
#     Edge 16, Type (0, 0), BuildingBlock: CIFDUS_clean_linker_0, # of connection points: 2
#     Edge 17, Type (0, 0), BuildingBlock: CIFDUS_clean_linker_0, # of connection points: 2
#     Edge 18, Type (0, 0), BuildingBlock: CIFDUS_clean_linker_0, # of connection points: 2
#     Edge 19, Type (0, 0), BuildingBlock: CIFDUS_clean_linker_0, # of connection points: 2
#     Edge 20, Type (0, 0), BuildingBlock: CIFDUS_clean_linker_0, # of connection points: 2
#     Edge 21, Type (0, 0), BuildingBlock: CIFDUS_clean_linker_0, # of connection points: 2
#     Edge 22, Type (0, 0), BuildingBlock: CIFDUS_clean_linker_0, # of connection points: 2
#     Edge 23, Type (0, 0), BuildingBlock: CIFDUS_clean_linker_0, # of connection points: 2
#     Edge 24, Type (0, 0), BuildingBlock: CIFDUS_clean_linker_0, # of connection points: 2
#     Edge 25, Type (0, 0), BuildingBlock: CIFDUS_clean_linker_0, # of connection points: 2
#     Edge 26, Type (0, 0), BuildingBlock: CIFDUS_clean_linker_0, # of connection points: 2
#     Edge 27, Type (0, 0), BuildingBlock: CIFDUS_clean_linker_0, # of connection points: 2
#     Edge 28, Type (0, 0), BuildingBlock: CIFDUS_clean_linker_0, # of connection points: 2
#     Edge 29, Type (0, 0), BuildingBlock: CIFDUS_clean_linker_0, # of connection points: 2
#     Edge 30, Type (0, 0), BuildingBlock: CIFDUS_clean_linker_0, # of connection points: 2
#     Edge 31, Type (0, 0), BuildingBlock: CIFDUS_clean_linker_0, # of connection points: 2
#     Edge 32, Type (0, 0), BuildingBlock: CIFDUS_clean_linker_0, # of connection points: 2
#     Edge 33, Type (0, 0), BuildingBlock: CIFDUS_clean_linker_0, # of connection points: 2
#     Edge 34, Type (0, 0), BuildingBlock: CIFDUS_clean_linker_0, # of connection points: 2
#     Edge 35, Type (0, 0), BuildingBlock: CIFDUS_clean_linker_0, # of connection points: 2
#     Edge 36, Type (0, 0), BuildingBlock: CIFDUS_clean_linker_0, # of connection points: 2
#     Edge 37, Type (0, 0), BuildingBlock: CIFDUS_clean_linker_0, # of connection points: 2
#     Edge 38, Type (0, 0), BuildingBlock: CIFDUS_clean_linker_0, # of connection points: 2
#     Edge 39, Type (0, 0), BuildingBlock: CIFDUS_clean_linker_0, # of connection points: 2
#     Edge 40, Type (0, 0), BuildingBlock: CIFDUS_clean_linker_0, # of connection points: 2
#     Edge 41, Type (0, 0), BuildingBlock: CIFDUS_clean_linker_0, # of connection points: 2
#     Edge 42, Type (0, 0), BuildingBlock: CIFDUS_clean_linker_0, # of connection points: 2
#     Edge 43, Type (0, 0), BuildingBlock: CIFDUS_clean_linker_0, # of connection points: 2
#     Edge 44, Type (0, 0), BuildingBlock: CIFDUS_clean_linker_0, # of connection points: 2
#     Edge 45, Type (0, 0), BuildingBlock: CIFDUS_clean_linker_0, # of connection points: 2
#     Edge 46, Type (0, 0), BuildingBlock: CIFDUS_clean_linker_0, # of connection points: 2
#     Edge 47, Type (0, 0), BuildingBlock: CIFDUS_clean_linker_0, # of connection points: 2
# Relax obj value: 0.153
# Max RMSD: 0.233
# Mean RMSD: 0.220
data_MOF--net-wfa--node1-NAWXER_clean_sbu_0--edge1-CIFDUS_clean_linker_0
_symmetry_space_group_name_H-M    P1
_symmetry_Int_Tables_number       1
_symmetry_cell_setting            triclinic
loop_
_symmetry_equiv_pos_as_xyz
'x, y, z'
_cell_length_a     42.045064
_cell_length_b     42.077941
_cell_length_c     19.750777
_cell_angle_alpha  89.461007
_cell_angle_beta   89.482336
_cell_angle_gamma 89.283609
loop_
_atom_site_label
_atom_site_type_symbol
_atom_site_fract_x
_atom_site_fract_y
_atom_site_fract_z
_atom_type_partial_charge
C0 C 0.61572 0.03893 0.21146 0.0
C1 C 0.66428 0.99188 0.01535 0.0
O2 O 0.62593 0.05109 0.15666 0.0
Zn3 Zn 0.63741 0.01269 0.11543 0.0
O4 O 0.61633 1.00851 0.2198 0.0
Zn5 Zn 0.6338 0.96792 0.15774 0.0
O6 O 0.66564 0.95008 0.21866 0.0
O7 O 0.67671 0.99812 0.18069 0.0
O8 O 0.65897 0.96945 0.05876 0.0
O9 O 0.65447 0.01964 0.02827 0.0
O10 O 0.59157 0.99118 0.10159 0.0
O11 O 0.59507 0.94312 0.14532 0.0
C12 C 0.68393 0.9739 0.21796 0.0
C13 C 0.57854 0.9645 0.11599 0.0
C14 C 0.48563 0.74544 0.1433 0.0
C15 C 0.50308 0.64409 0.02857 0.0
O16 O 0.51013 0.72748 0.14505 0.0
Zn17 Zn 0.49633 0.69649 0.07956 0.0
O18 O 0.46249 0.73818 0.10467 0.0
Zn19 Zn 0.45102 0.70106 0.0353 0.0
O20 O 0.41325 0.68352 0.07697 0.0
O21 O 0.45777 0.67268 0.13196 0.0
O22 O 0.47651 0.65744 0.01288 0.0
O23 O 0.52311 0.65942 0.063 0.0
O24 O 0.49589 0.72285 0.98496 0.0
O25 O 0.44639 0.72244 0.94951 0.0
C26 C 0.42771 0.6693 0.12495 0.0
C27 C 0.47498 0.73098 0.94081 0.0
C28 C 0.80317 0.45847 0.01085 0.0
C29 C 0.9097 0.45725 0.90826 0.0
O30 O 0.81241 0.48615 0.99196 0.0
Zn31 Zn 0.85195 0.50683 0.93757 0.0
O32 O 0.81937 0.43416 0.99305 0.0
Zn33 Zn 0.85359 0.45644 0.94606 0.0
O34 O 0.87197 0.4832 0.02927 0.0
O35 O 0.86728 0.53492 1.00733 0.0
O36 O 0.8923 0.43325 0.91991 0.0
O37 O 0.89719 0.48521 0.91058 0.0
O38 O 0.83411 0.5254 0.85612 0.0
O39 O 0.83294 0.47316 0.85343 0.0
C40 C 0.8759 0.51218 0.04629 0.0
C41 C 0.82679 0.50019 0.82557 0.0
C42 C 0.04391 0.93433 0.11727 0.0
C43 C 0.06137 0.87929 0.90004 0.0
O44 O 0.07284 0.9322 0.09703 0.0
Zn45 Zn 0.101 0.91378 0.01543 0.0
O46 O 0.02181 0.92192 0.08273 0.0
Zn47 Zn 0.05026 0.90728 0.00938 0.0
O48 O 0.07501 0.87153 0.06593 0.0
O49 O 0.12616 0.88227 0.0667 0.0
O50 O 0.03488 0.88515 0.92919 0.0
O51 O 0.08701 0.88893 0.92734 0.0
O52 O 0.11902 0.95383 0.98234 0.0
O53 O 0.06665 0.9527 0.9755 0.0
C54 C 0.1032 0.86474 0.08586 0.0
C55 C 0.09274 0.96798 0.96978 0.0
C56 C 0.10926 0.97146 0.46229 0.0
C57 C 0.16719 0.9493 0.67362 0.0
O58 O 0.11443 0.94196 0.47502 0.0
Zn59 Zn 0.13667 0.91181 0.55008 0.0
O60 O 0.12062 0.99263 0.50075 0.0
Zn61 Zn 0.13901 0.96212 0.56562 0.0
O62 O 0.17637 0.94322 0.50401 0.0
O63 O 0.16968 0.89165 0.49393 0.0
O64 O 0.15898 0.97598 0.64814 0.0
O65 O 0.16036 0.92379 0.6421 0.0
O66 O 0.09826 0.88899 0.57862 0.0
O67 O 0.09571 0.94065 0.59699 0.0
C68 C 0.18528 0.91654 0.47905 0.0
C69 C 0.08232 0.91351 0.5965 0.0
C70 C 0.50892 0.25486 0.47148 0.0
C71 C 0.49943 0.14966 0.57355 0.0
O72 O 0.484 0.23869 0.48141 0.0
Zn73 Zn 0.50275 0.20478 0.53509 0.0
O74 O 0.53506 0.24552 0.49869 0.0
Zn75 Zn 0.5508 0.20576 0.56012 0.0
O76 O 0.58474 0.18997 0.50416 0.0
O77 O 0.53637 0.18289 0.46353 0.0
O78 O 0.52738 0.16096 0.5811 0.0
O79 O 0.47703 0.16799 0.55377 0.0
O80 O 0.51101 0.22531 0.63318 0.0
O81 O 0.56282 0.22211 0.64586 0.0
C82 C 0.56663 0.1787 0.45937 0.0
C83 C 0.53575 0.23008 0.66911 0.0
C84 C 0.4176 0.44848 0.4299 0.0
C85 C 0.31214 0.44771 0.33402 0.0
O86 O 0.40216 0.42574 0.40532 0.0
Zn87 Zn 0.3618 0.44714 0.39462 0.0
O88 O 0.40262 0.47423 0.44551 0.0
Zn89 Zn 0.35294 0.49032 0.43779 0.0
O90 O 0.3356 0.49261 0.52748 0.0
O91 O 0.3365 0.44347 0.49165 0.0
O92 O 0.31544 0.47249 0.37101 0.0
O93 O 0.33377 0.42643 0.33417 0.0
O94 O 0.37425 0.49038 0.33397 0.0
O95 O 0.35855 0.53082 0.3975 0.0
C96 C 0.32874 0.46379 0.53726 0.0
C97 C 0.37097 0.52057 0.343 0.0
C98 C 0.98448 0.44378 0.3211 0.0
C99 C 1.01114 0.3785 0.51679 0.0
O100 O 0.96637 0.43184 0.3662 0.0
Zn101 Zn 0.99934 0.41172 0.41602 0.0
O102 O 0.0146 0.43802 0.3226 0.0
Zn103 Zn 0.04728 0.41235 0.39146 0.0
O104 O 0.06613 0.38164 0.32961 0.0
O105 O 0.01466 0.37512 0.34426 0.0
O106 O 0.0367 0.38442 0.48288 0.0
O107 O 0.98514 0.3904 0.49645 0.0
O108 O 0.02328 0.45462 0.44628 0.0
O109 O 0.07375 0.44765 0.41971 0.0
C110 C 0.04095 0.36685 0.31515 0.0
C111 C 0.05161 0.4655 0.44254 0.0
C112 C 0.3534 0.9816 0.95476 0.0
C113 C 0.30448 0.95388 0.1725 0.0
O114 O 0.34352 1.00172 0.99824 0.0
Zn115 Zn 0.33073 0.9692 0.06366 0.0
O116 O 0.35232 0.95172 0.96733 0.0
Zn117 Zn 0.33722 0.91945 0.04586 0.0
O118 O 0.30552 0.89681 0.99328 0.0
O119 O 0.29372 0.94766 1.0056 0.0
O120 O 0.31294 0.9291 0.13928 0.0
O121 O 0.31084 0.98116 0.14833 0.0
O122 O 0.37706 0.95137 0.08805 0.0
O123 O 0.37855 0.89979 0.07044 0.0
C124 C 0.28725 0.9205 0.98053 0.0
C125 C 0.3927 0.92506 0.08727 0.0
C126 C 0.51134 0.34752 0.97664 0.0
C127 C 0.52332 0.45563 0.05678 0.0
O128 O 0.53906 0.35238 1.00094 0.0
Zn129 Zn 0.56369 0.3904 0.05063 0.0
O130 O 0.48961 0.36847 0.98453 0.0
Zn131 Zn 0.51572 0.3995 0.0287 0.0
O132 O 0.54995 0.40829 0.94756 0.0
O133 O 0.59775 0.39478 0.98538 0.0
O134 O 0.49803 0.44153 0.04051 0.0
O135 O 0.54918 0.43946 0.06382 0.0
O136 O 0.57471 0.37451 0.13877 0.0
O137 O 0.52286 0.37966 0.12888 0.0
C138 C 0.58001 0.40493 0.93783 0.0
C139 C 0.54714 0.37144 0.16423 0.0
C140 C 0.18346 0.48322 0.05217 0.0
C141 C 0.14895 0.53784 0.85057 0.0
O142 O 0.17736 0.46216 1.00736 0.0
Zn143 Zn 0.15653 0.46488 0.90544 0.0
O144 O 0.17784 0.51211 0.03869 0.0
Zn145 Zn 0.1639 0.50864 0.9487 0.0
O146 O 0.11509 0.49336 0.95366 0.0
O147 O 0.11449 0.44541 0.91073 0.0
O148 O 0.15884 0.54855 0.90627 0.0
O149 O 0.14638 0.50765 0.84237 0.0
O150 O 0.18827 0.44411 0.84843 0.0
O151 O 0.20342 0.49024 0.88801 0.0
C152 C 0.09945 0.46881 0.93628 0.0
C153 C 0.20905 0.46572 0.85123 0.0
C154 C 1.00951 0.24073 0.01944 0.0
C155 C 0.97316 0.1706 0.84225 0.0
O156 O 0.03374 0.23254 0.98295 0.0
Zn157 Zn 0.03939 0.20284 0.89183 0.0
O158 O 0.98248 0.23064 1.00314 0.0
Zn159 Zn 0.99319 0.20669 0.92451 0.0
O160 O 0.01946 0.16444 0.95993 0.0
O161 O 0.06795 0.16879 0.91824 0.0
O162 O 0.95763 0.18556 0.88741 0.0
O163 O 1.00329 0.17515 0.83531 0.0
O164 O 0.05677 0.23073 0.82459 0.0
O165 O 1.00628 0.24128 0.84493 0.0
C166 C 0.04761 0.15277 0.95127 0.0
C167 C 0.03212 0.24724 0.81193 0.0
C168 C 0.79947 0.9647 0.73452 0.0
C169 C 0.89638 0.95154 0.60437 0.0
O170 O 0.8027 0.98881 0.69434 0.0
Zn171 Zn 0.83752 1.00156 0.61419 0.0
O172 O 0.81933 0.94193 0.73084 0.0
Zn173 Zn 0.84546 0.95865 0.66077 0.0
O174 O 0.86732 1.00109 0.70858 0.0
O175 O 0.85324 0.04139 0.64246 0.0
O176 O 0.88186 0.93202 0.64234 0.0
O177 O 0.88261 0.97799 0.58848 0.0
O178 O 0.81451 1.00493 0.53174 0.0
O179 O 0.81569 0.9558 0.56983 0.0
C180 C 0.86837 0.03096 0.69337 0.0
C181 C 0.80639 0.97632 0.52527 0.0
C182 C 0.48548 0.85757 0.63771 0.0
C183 C 0.50652 0.96105 0.53728 0.0
O184 O 0.4634 0.86633 0.5967 0.0
Zn185 Zn 0.45508 0.90565 0.52624 0.0
O186 O 0.51058 0.87396 0.64124 0.0
Zn187 Zn 0.49842 0.90634 0.57653 0.0
O188 O 0.45719 0.92775 0.62874 0.0
O189 O 0.41575 0.9218 0.56184 0.0
O190 O 0.52606 0.94265 0.56737 0.0
O191 O 0.47993 0.95005 0.51737 0.0
O192 O 0.45332 0.8873 0.43779 0.0
O193 O 0.50078 0.88108 0.48181 0.0
C194 C 0.42747 0.93218 0.61638 0.0
C195 C 0.48126 0.87589 0.43369 0.0
C196 C 0.64897 0.41145 0.56197 0.0
C197 C 0.69143 0.42648 0.33226 0.0
O198 O 0.64994 0.44064 0.54284 0.0
Zn199 Zn 0.66399 0.46827 0.45497 0.0
O200 O 0.65779 0.38961 0.52141 0.0
Zn201 Zn 0.66801 0.4183 0.44699 0.0
O202 O 0.70782 0.44137 0.49312 0.0
O203 O 0.69756 0.49286 0.4958 0.0
O204 O 0.68508 0.40082 0.36355 0.0
O205 O 0.68458 0.45308 0.36048 0.0
O206 O 0.62403 0.48921 0.43302 0.0
O207 O 0.62102 0.43716 0.42562 0.0
C208 C 0.71581 0.46947 0.51034 0.0
C209 C 0.60743 0.46464 0.42353 0.0
C210 C 0.08781 0.7432 0.39789 0.0
C211 C 0.11173 0.682 0.60136 0.0
O212 O 0.06213 0.73487 0.42854 0.0
Zn213 Zn 0.05041 0.70901 0.51999 0.0
O214 O 0.11432 0.73526 0.42328 0.0
Zn215 Zn 0.09917 0.713 0.50327 0.0
O216 O 0.07853 0.66787 0.47012 0.0
O217 O 0.02704 0.67273 0.48988 0.0
O218 O 0.13128 0.6959 0.56189 0.0
O219 O 0.08164 0.68518 0.59249 0.0
O220 O 0.02767 0.73923 0.57633 0.0
O221 O 0.07887 0.749 0.57003 0.0
C222 C 0.05057 0.65577 0.47046 0.0
C223 C 0.05113 0.75581 0.59408 0.0
H224 H 0.54566 0.12012 0.4351 0.0
H225 H 0.61714 0.18744 0.37444 0.0
H226 H 0.63888 0.14939 0.29216 0.0
H227 H 0.63685 0.09745 0.23737 0.0
H228 H 0.56852 0.02815 0.30489 0.0
H229 H 0.54641 0.06634 0.38651 0.0
C230 C 0.56589 0.12639 0.40342 0.0
C231 C 0.57955 0.15654 0.40916 0.0
C232 C 0.57884 0.10403 0.35852 0.0
C233 C 0.60621 0.16439 0.36977 0.0
C234 C 0.6186 0.14267 0.32314 0.0
C235 C 0.61713 0.09072 0.27007 0.0
C236 C 0.60396 0.06031 0.26485 0.0
C237 C 0.60502 0.11251 0.31706 0.0
C238 C 0.57892 0.0515 0.30823 0.0
C239 C 0.56621 0.07335 0.35441 0.0
H240 H 0.3478 0.57966 0.3168 0.0
H241 H 0.42173 0.51328 0.25765 0.0
H242 H 0.44591 0.55399 0.18499 0.0
H243 H 0.44748 0.60923 0.14345 0.0
H244 H 0.37164 0.67463 0.19536 0.0
H245 H 0.34654 0.63352 0.26633 0.0
C246 C 0.36905 0.57409 0.28748 0.0
C247 C 0.38317 0.54367 0.29279 0.0
C248 C 0.38252 0.59746 0.24536 0.0
C249 C 0.41042 0.5365 0.25404 0.0
C250 C 0.42434 0.55981 0.21297 0.0
C251 C 0.42545 0.61439 0.1705 0.0
C252 C 0.41158 0.64488 0.16576 0.0
C253 C 0.41088 0.59048 0.20921 0.0
C254 C 0.38271 0.6513 0.19914 0.0
C255 C 0.36845 0.62785 0.2395 0.0
H256 H 0.93882 0.51238 0.05619 0.0
H257 H 0.8522 0.51898 0.17307 0.0
H258 H 0.88044 0.50095 0.27455 0.0
H259 H 0.92671 0.47292 0.3221 0.0
H260 H 0.01224 0.46192 0.20157 0.0
H261 H 0.98754 0.49174 0.10877 0.0
C262 C 0.92663 0.51135 0.10477 0.0
C263 C 0.89378 0.51731 0.10801 0.0
C264 C 0.94256 0.49891 0.16123 0.0
C265 C 0.87772 0.51519 0.17031 0.0
C266 C 0.89373 0.50421 0.22777 0.0
C267 C 0.94005 0.47732 0.27577 0.0
C268 C 0.97092 0.46454 0.2679 0.0
C269 C 0.92563 0.49421 0.22261 0.0
C270 C 0.98825 0.4711 0.20836 0.0
C271 C 0.97419 0.48822 0.15541 0.0
H272 H 0.0698 0.98773 0.16359 0.0
H273 H 1.00816 0.91095 0.22191 0.0
H274 H 0.01874 0.9211 0.34148 0.0
H275 H 0.05586 0.94263 0.42443 0.0
H276 H 0.12035 0.0169 0.3652 0.0
H277 H 0.0981 0.01743 0.25079 0.0
C278 C 0.05765 0.97415 0.2028 0.0
C279 C 0.03855 0.9484 0.18443 0.0
C280 C 0.06506 0.97923 0.27091 0.0
C281 C 0.02277 0.93097 0.23504 0.0
C282 C 0.02928 0.93646 0.3033 0.0
C283 C 0.06428 0.95964 0.38692 0.0
C284 C 0.09003 0.97933 0.40232 0.0
C285 C 0.05196 0.95911 0.32122 0.0
C286 C 0.1006 1.00155 0.35416 0.0
C287 C 0.08806 1.0016 0.28871 0.0
H288 H 0.3269 0.97141 0.83545 0.0
H289 H 0.41047 1.00862 0.92899 0.0
H290 H 0.44117 0.99974 0.82468 0.0
H291 H 0.44623 0.97089 0.71719 0.0
H292 H 0.36281 0.93079 0.62703 0.0
H293 H 0.32986 0.95137 0.71949 0.0
C294 C 0.35143 0.97906 0.83148 0.0
C295 C 0.36651 0.9909 0.88889 0.0
C296 C 0.36911 0.97227 0.77288 0.0
C297 C 0.39837 1.00012 0.88458 0.0
C298 C 0.41602 0.99439 0.82548 0.0
C299 C 0.42077 0.96703 0.71738 0.0
C300 C 0.40706 0.9486 0.66649 0.0
C301 C 0.40203 0.97872 0.77096 0.0
C302 C 0.37396 0.94449 0.66623 0.0
C303 C 0.35511 0.95627 0.71902 0.0
H304 H 0.6133 0.44921 0.64219 0.0
H305 H 0.66078 0.35776 0.6385 0.0
H306 H 0.64574 0.34861 0.75739 0.0
H307 H 0.61879 0.36704 0.86251 0.0
H308 H 0.56863 0.45702 0.86118 0.0
H309 H 0.5856 0.46676 0.74417 0.0
C310 C 0.62042 0.42724 0.6673 0.0
C311 C 0.63826 0.40425 0.63181 0.0
C312 C 0.61154 0.42216 0.73492 0.0
C313 C 0.64691 0.37574 0.66476 0.0
C314 C 0.6385 0.37063 0.73277 0.0
C315 C 0.61211 0.38894 0.83659 0.0
C316 C 0.59307 0.41163 0.87016 0.0
C317 C 0.62096 0.39378 0.76847 0.0
C318 C 0.58361 0.4395 0.83609 0.0
C319 C 0.59314 0.44496 0.7693 0.0
H320 H 0.0891 0.62356 0.62135 0.0
H321 H 0.16048 0.68811 0.69021 0.0
H322 H 0.17874 0.64844 0.77366 0.0
H323 H 0.17327 0.59597 0.82787 0.0
H324 H 0.10447 0.53004 0.75283 0.0
H325 H 0.08643 0.56964 0.66952 0.0
C326 C 0.10854 0.6289 0.65506 0.0
C327 C 0.12315 0.65869 0.65125 0.0
C328 C 0.11938 0.60576 0.70094 0.0
C329 C 0.14886 0.6653 0.69324 0.0
C330 C 0.15923 0.64269 0.74063 0.0
C331 C 0.15439 0.59029 0.79308 0.0
C332 C 0.13992 0.56038 0.79662 0.0
C333 C 0.14453 0.61293 0.74506 0.0
C334 C 0.11591 0.55296 0.75074 0.0
C335 C 0.1055 0.57561 0.70354 0.0
H336 H 0.93864 0.12245 0.89386 0.0
H337 H 0.97205 0.16256 0.70515 0.0
H338 H 0.94234 0.12263 0.64238 0.0
H339 H 0.90535 0.07747 0.64177 0.0
H340 H 0.87614 0.03414 0.83053 0.0
H341 H 0.90593 0.07399 0.89322 0.0
C342 C 0.9394 0.12232 0.83893 0.0
C343 C 0.95701 0.1456 0.80383 0.0
C344 C 0.92307 0.09876 0.80358 0.0
C345 C 0.95849 0.14493 0.73294 0.0
C346 C 0.94148 0.12217 0.69724 0.0
C347 C 0.90563 0.07674 0.69669 0.0
C348 C 0.88825 0.05322 0.73171 0.0
C349 C 0.92345 0.09917 0.73205 0.0
C350 C 0.88928 0.05206 0.80265 0.0
C351 C 0.9062 0.07489 0.83836 0.0
H352 H 0.7076 0.9444 0.98678 0.0
H353 H 0.66464 0.02963 0.90339 0.0
H354 H 0.7016 0.02835 0.80796 0.0
H355 H 0.74901 1.00563 0.75214 0.0
H356 H 0.79226 0.92041 0.83506 0.0
H357 H 0.75261 0.91917 0.92561 0.0
C358 C 0.70597 0.96229 0.94704 0.0
C359 C 0.6835 0.98715 0.95273 0.0
C360 C 0.72774 0.96175 0.89226 0.0
C361 C 0.68187 1.0103 0.9008 0.0
C362 C 0.70308 1.0097 0.84609 0.0
C363 C 0.74965 0.98669 0.78975 0.0
C364 C 0.77384 0.9634 0.78684 0.0
C365 C 0.72666 0.98601 0.84206 0.0
C366 C 0.77405 0.93884 0.83592 0.0
C367 C 0.75133 0.93804 0.88798 0.0
H368 H 0.5267 0.83271 0.73111 0.0
H369 H 0.4327 0.82069 0.64961 0.0
H370 H 0.42195 0.77921 0.73343 0.0
H371 H 0.43771 0.74886 0.8346 0.0
H372 H 0.53154 0.76079 0.91682 0.0
H373 H 0.54385 0.79951 0.82778 0.0
C374 C 0.50397 0.82082 0.7312 0.0
C375 C 0.48049 0.83008 0.68424 0.0
C376 C 0.4978 0.79702 0.77997 0.0
C377 C 0.45123 0.81422 0.6851 0.0
C378 C 0.44498 0.7905 0.73322 0.0
C379 C 0.46097 0.7597 0.83281 0.0
C380 C 0.48354 0.75203 0.88281 0.0
C381 C 0.46786 0.7821 0.78165 0.0
C382 C 0.51364 0.76622 0.8792 0.0
C383 C 0.52069 0.78848 0.82834 0.0
H384 H 0.82033 0.45322 0.73349 0.0
H385 H 0.79383 0.5508 0.7719 0.0
H386 H 0.75967 0.55134 0.67233 0.0
H387 H 0.73304 0.52219 0.58125 0.0
H388 H 0.76033 0.42462 0.54356 0.0
H389 H 0.7987 0.42626 0.63489 0.0
C390 C 0.80734 0.47472 0.7197 0.0
C391 C 0.80932 0.50177 0.76066 0.0
C392 C 0.78776 0.47488 0.66239 0.0
C393 C 0.79267 0.52958 0.74144 0.0
C394 C 0.77303 0.52989 0.68456 0.0
C395 C 0.74787 0.50151 0.59202 0.0
C396 C 0.74342 0.47321 0.5559 0.0
C397 C 0.76979 0.50242 0.64552 0.0
C398 C 0.76294 0.44667 0.57071 0.0
C399 C 0.78487 0.4475 0.62327 0.0
H400 H 0.01355 0.84806 0.83491 0.0
H401 H 0.11418 0.86692 0.82313 0.0
H402 H 0.1196 0.83191 0.72619 0.0
H403 H 0.09667 0.7935 0.64819 0.0
H404 H 0.9961 0.77458 0.65846 0.0
H405 H 0.9899 0.81197 0.75164 0.0
C406 C 0.03663 0.84468 0.81091 0.0
C407 C 0.06343 0.85999 0.83714 0.0
C408 C 0.03974 0.82416 0.75501 0.0
C409 C 0.0931 0.85535 0.80479 0.0
C410 C 0.0963 0.83522 0.7492 0.0
C411 C 0.07333 0.79767 0.67039 0.0
C412 C 0.04697 0.78095 0.64631 0.0
C413 C 0.06993 0.81907 0.72452 0.0
C414 C 0.0169 0.78693 0.67584 0.0
C415 C 0.01332 0.80827 0.72948 0.0
H416 H 0.19676 0.8975 0.73158 0.0
H417 H 0.17874 0.99771 0.76078 0.0
H418 H 0.21152 0.99658 0.86199 0.0
H419 H 0.2483 0.96841 0.9373 0.0
H420 H 0.26856 0.86872 0.90706 0.0
H421 H 0.23159 0.86834 0.81194 0.0
C422 C 0.19979 0.91905 0.76036 0.0
C423 C 0.18544 0.94774 0.73791 0.0
C424 C 0.21914 0.91836 0.8184 0.0
C425 C 0.18966 0.97537 0.77618 0.0
C426 C 0.20841 0.97475 0.83426 0.0
C427 C 0.2444 0.94639 0.91069 0.0
C428 C 0.2614 0.91861 0.92956 0.0
C429 C 0.2237 0.94654 0.85515 0.0
C430 C 0.25587 0.89044 0.894 0.0
C431 C 0.23483 0.89027 0.83924 0.0
H432 H 0.48455 0.26165 0.72481 0.0
H433 H 0.58193 0.23381 0.76395 0.0
H434 H 0.58103 0.26393 0.86845 0.0
H435 H 0.55497 0.30246 0.94214 0.0
H436 H 0.45862 0.33324 0.90184 0.0
H437 H 0.4565 0.29706 0.80576 0.0
C438 C 0.5054 0.26185 0.7567 0.0
C439 C 0.53339 0.24579 0.73594 0.0
C440 C 0.50495 0.27975 0.81668 0.0
C441 C 0.56018 0.24625 0.77805 0.0
C442 C 0.5597 0.26343 0.83804 0.0
C443 C 0.53321 0.3009 0.9133 0.0
C444 C 0.50711 0.32083 0.929 0.0
C445 C 0.53253 0.2809 0.85693 0.0
C446 C 0.47913 0.31825 0.89097 0.0
C447 C 0.47799 0.29773 0.83559 0.0
H448 H 0.32315 0.49652 0.65419 0.0
H449 H 0.29069 0.41175 0.5567 0.0
H450 H 0.25258 0.40281 0.64949 0.0
H451 H 0.22455 0.42262 0.75209 0.0
H452 H 0.25771 0.50786 0.84746 0.0
H453 H 0.29955 0.5128 0.76222 0.0
C454 C 0.30805 0.47581 0.65358 0.0
C455 C 0.30956 0.45503 0.59811 0.0
C456 C 0.28609 0.47102 0.70665 0.0
C457 C 0.29006 0.42812 0.59869 0.0
C458 C 0.26811 0.42313 0.6516 0.0
C459 C 0.24128 0.44195 0.75498 0.0
C460 C 0.23761 0.46503 0.80601 0.0
C461 C 0.26531 0.44491 0.70499 0.0
C462 C 0.25966 0.48985 0.80877 0.0
C463 C 0.28363 0.49279 0.75979 0.0
H464 H 0.0604 0.34257 0.56855 0.0
H465 H 0.96122 0.3658 0.6015 0.0
H466 H 0.95893 0.32837 0.6961 0.0
H467 H 0.98434 0.28718 0.76759 0.0
H468 H 0.08348 0.2638 0.73445 0.0
H469 H 0.08635 0.30283 0.64291 0.0
C470 C 0.03836 0.33963 0.59671 0.0
C471 C 1.01105 0.35702 0.57733 0.0
C472 C 0.03704 0.31775 0.65128 0.0
C473 C 0.98268 0.35275 0.61471 0.0
C474 C 0.98127 0.33125 0.66904 0.0
C475 C 1.0066 0.29072 0.7406 0.0
C476 C 0.03354 0.27232 0.7581 0.0
C477 C 1.00818 0.31331 0.68742 0.0
C478 C 0.06222 0.27742 0.72232 0.0
C479 C 0.06396 0.29982 0.66969 0.0
H480 H 0.22098 0.96639 0.43769 0.0
H481 H 0.20728 0.86645 0.40207 0.0
H482 H 0.24471 0.86873 0.30637 0.0
H483 H 0.27812 0.90025 0.22754 0.0
H484 H 0.28931 1.00066 0.26221 0.0
H485 H 0.256 0.99695 0.36353 0.0
C486 C 0.22637 0.94491 0.40967 0.0
C487 C 0.21115 0.91628 0.42715 0.0
C488 C 0.24728 0.94657 0.35399 0.0
C489 C 0.21863 0.88879 0.39001 0.0
C490 C 0.23992 0.89014 0.33498 0.0
C491 C 0.27353 0.92126 0.25762 0.0
C492 C 0.28614 0.95076 0.23686 0.0
C493 C 0.25389 0.91907 0.31565 0.0
C494 C 0.27984 0.97772 0.27653 0.0
C495 C 0.26078 0.97562 0.33462 0.0
H496 H 0.55888 0.29181 0.43402 0.0
H497 H 0.4589 0.27845 0.39748 0.0
H498 H 0.46103 0.31649 0.30339 0.0
H499 H 0.49278 0.34845 0.22283 0.0
H500 H 0.59315 0.35995 0.25798 0.0
H501 H 0.5892 0.32813 0.36135 0.0
C502 C 0.53739 0.29754 0.40624 0.0
C503 C 0.50888 0.28187 0.4224 0.0
C504 C 0.53891 0.31894 0.35126 0.0
C505 C 0.48126 0.2899 0.38599 0.0
C506 C 0.48247 0.3116 0.33189 0.0
C507 C 0.51368 0.34441 0.25365 0.0
C508 C 0.54332 0.35617 0.23189 0.0
C509 C 0.5114 0.32548 0.31267 0.0
C510 C 0.57012 0.35083 0.27281 0.0
C511 C 0.5679 0.33259 0.33205 0.0
H512 H 0.26095 0.4877 0.3214 0.0
H513 H 0.30325 0.40271 0.23713 0.0
H514 H 0.26429 0.4035 0.14636 0.0
H515 H 0.22221 0.43219 0.08269 0.0
H516 H 0.18092 0.51758 0.16726 0.0
H517 H 0.2149 0.5124 0.26593 0.0
C518 C 0.26137 0.46905 0.28384 0.0
C519 C 0.28533 0.44549 0.28579 0.0
C520 C 0.23905 0.46978 0.2312 0.0
C521 C 0.28525 0.42134 0.23684 0.0
C522 C 0.26298 0.42179 0.18459 0.0
C523 C 0.22013 0.44916 0.12353 0.0
C524 C 0.19932 0.47542 0.1171 0.0
C525 C 0.24032 0.44643 0.18004 0.0
C526 C 0.19702 0.49732 0.17046 0.0
C527 C 0.21652 0.49446 0.22697 0.0
H528 H 0.06214 0.2718 0.06908 0.0
H529 H 0.96176 0.25806 0.10545 0.0
H530 H 0.96293 0.29425 0.20021 0.0
H531 H 0.99138 0.33143 0.2714 0.0
H532 H 0.0916 0.34623 0.23742 0.0
H533 H 0.09146 0.30821 0.14445 0.0
C534 C 0.04059 0.2766 0.09796 0.0
C535 C 0.0119 0.2621 0.0793 0.0
C536 C 0.04127 0.2978 0.15328 0.0
C537 C 0.98425 0.26877 0.1178 0.0
C538 C 0.98481 0.28957 0.17239 0.0
C539 C 0.01331 0.32624 0.24412 0.0
C540 C 0.04142 0.34187 0.26177 0.0
C541 C 0.01305 0.30445 0.19034 0.0
C542 C 0.06954 0.33464 0.22535 0.0
C543 C 0.06948 0.31289 0.17185 0.0
H544 H 0.70138 0.93182 0.3191 0.0
H545 H 0.72878 0.01991 0.2222 0.0
H546 H 0.77013 0.02697 0.30591 0.0
H547 H 0.7959 1.0107 0.41104 0.0
H548 H 0.76945 0.92314 0.51048 0.0
H549 H 0.73068 0.91318 0.42113 0.0
C550 C 0.71669 0.95233 0.31572 0.0
C551 C 0.71165 0.97542 0.26435 0.0
C552 C 0.74049 0.95649 0.36483 0.0
C553 C 0.73182 1.00182 0.26108 0.0
C554 C 0.75552 1.00595 0.30914 0.0
C555 C 0.78185 0.98926 0.41314 0.0
C556 C 0.7854 0.96787 0.46796 0.0
C557 C 0.75961 0.98384 0.36198 0.0
C558 C 0.76723 0.94004 0.46905 0.0
C559 C 0.74495 0.93443 0.41803 0.0
H560 H 0.44637 0.86304 0.32234 0.0
H561 H 0.53535 0.83936 0.41886 0.0
H562 H 0.54576 0.79817 0.33465 0.0
H563 H 0.52724 0.76575 0.23939 0.0
H564 H 0.4375 0.78938 0.14558 0.0
H565 H 0.42984 0.83352 0.22299 0.0
C566 C 0.46823 0.84913 0.32469 0.0
C567 C 0.48987 0.85414 0.3774 0.0
C568 C 0.47382 0.82518 0.27684 0.0
C569 C 0.51821 0.83602 0.37904 0.0
C570 C 0.52411 0.81232 0.33103 0.0
C571 C 0.50616 0.78073 0.23545 0.0
C572 C 0.48283 0.77389 0.18709 0.0
C573 C 0.50172 0.80617 0.28063 0.0
C574 C 0.45575 0.79377 0.18258 0.0
C575 C 0.45132 0.81913 0.22683 0.0
H576 H 0.70204 0.47602 0.24541 0.0
H577 H 0.72037 0.37552 0.27087 0.0
H578 H 0.75424 0.3757 0.16966 0.0
H579 H 0.78259 0.40544 0.07963 0.0
H580 H 0.76383 0.50601 0.05519 0.0
H581 H 0.7261 0.50454 0.14932 0.0
C582 C 0.71316 0.45406 0.22851 0.0
C583 C 0.70886 0.42588 0.26633 0.0
C584 C 0.73273 0.45432 0.1703 0.0
C585 C 0.72327 0.39761 0.24305 0.0
C586 C 0.74277 0.39769 0.18516 0.0
C587 C 0.76984 0.42693 0.09407 0.0
C588 C 0.7764 0.45584 0.06042 0.0
C589 C 0.74823 0.42605 0.14913 0.0
C590 C 0.75954 0.48341 0.08012 0.0
C591 C 0.73795 0.48266 0.13429 0.0
H592 H 0.05727 0.82762 0.14051 0.0
H593 H 0.15813 0.84481 0.14984 0.0
H594 H 0.16256 0.8074 0.24532 0.0
H595 H 0.13694 0.77244 0.33085 0.0
H596 H 0.03554 0.75792 0.32258 0.0
H597 H 0.03227 0.7918 0.22206 0.0
C598 C 0.0804 0.82302 0.16267 0.0
C599 C 0.10736 0.83913 0.13772 0.0
C600 C 0.0826 0.80215 0.21835 0.0
C601 C 0.137 0.83274 0.16763 0.0
C602 C 0.1395 0.81145 0.22254 0.0
C603 C 0.11415 0.77649 0.30677 0.0
C604 C 0.08648 0.76265 0.33464 0.0
C605 C 0.11234 0.79644 0.2491 0.0
C606 C 0.05719 0.7683 0.3027 0.0
C607 C 0.05529 0.78768 0.24505 0.0
H608 H 0.43088 0.97484 0.0641 0.0
H609 H 0.43357 0.8769 0.12987 0.0
H610 H 0.49156 0.87991 0.14407 0.0
H611 H 0.54165 0.9113 0.13832 0.0
H612 H 0.53697 1.00852 0.06616 0.0
H613 H 0.47979 1.00466 0.05322 0.0
C614 C 0.44402 0.95412 0.0821 0.0
C615 C 0.42776 0.92583 0.09717 0.0
C616 C 0.47719 0.95586 0.08831 0.0
C617 C 0.44543 0.89905 0.1186 0.0
C618 C 0.4786 0.90079 0.1265 0.0
C619 C 0.52814 0.93154 0.11932 0.0
C620 C 0.54389 0.96024 0.10346 0.0
C621 C 0.49481 0.92917 0.11149 0.0
C622 C 0.52581 0.98614 0.07878 0.0
C623 C 0.49295 0.98403 0.07155 0.0
H624 H 0.48476 0.4972 0.99064 0.0
H625 H 0.5643 0.49285 0.12679 0.0
H626 H 0.56717 0.55099 0.12552 0.0
H627 H 0.54599 0.60318 0.08762 0.0
H628 H 0.46743 0.60658 0.9483 0.0
H629 H 0.46582 0.54876 0.9477 0.0
C630 C 0.50253 0.50898 0.02057 0.0
C631 C 0.52394 0.49078 0.05967 0.0
C632 C 0.50458 0.54227 0.0181 0.0
C633 C 0.54735 0.50637 0.0968 0.0
C634 C 0.5491 0.53959 0.09578 0.0
C635 C 0.52898 0.59129 0.05598 0.0
C636 C 0.50689 0.60935 0.01801 0.0
C637 C 0.52785 0.55782 0.05649 0.0
C638 C 0.48478 0.5934 0.97794 0.0
C639 C 0.48363 0.56027 0.97796 0.0
H640 H 0.9527 0.50183 0.93867 0.0
H641 H 0.94604 0.40478 0.8728 0.0
H642 H 1.00423 0.39916 0.87718 0.0
H643 H 0.0572 0.42219 0.90106 0.0
H644 H 0.06157 0.51824 0.9756 0.0
H645 H 1.00409 0.52343 0.96843 0.0
C646 C 0.96387 0.47944 0.92479 0.0
C647 C 0.94496 0.4539 0.90452 0.0
C648 C 0.99702 0.47603 0.93016 0.0
C649 C 0.96 0.42494 0.88786 0.0
C650 C 0.99327 0.42168 0.89081 0.0
C651 C 0.04555 0.44414 0.91631 0.0
C652 C 0.06398 0.46981 0.93866 0.0
C653 C 0.01208 0.44705 0.91237 0.0
C654 C 0.04828 0.49804 0.95827 0.0
C655 C 0.01529 0.50117 0.95378 0.0
H656 H 0.1007 0.11686 0.92049 0.0
H657 H 1.00901 0.1121 0.02046 0.0
H658 H 0.01515 0.05477 0.03315 0.0
H659 H 0.04463 1.00583 0.01061 0.0
H660 H 0.13697 1.00895 0.91413 0.0
H661 H 0.13238 0.06719 0.90478 0.0
C662 C 0.08229 0.10337 0.94609 0.0
C663 C 0.05433 0.11896 0.9693 0.0
C664 C 0.08581 0.07009 0.95266 0.0
C665 C 0.03075 0.10094 1.00212 0.0
C666 C 0.03412 0.06804 1.009 0.0
C667 C 0.06371 0.01915 0.98685 0.0
C668 C 0.0908 1.00302 0.96154 0.0
C669 C 0.06117 0.05236 0.98317 0.0
C670 C 0.11571 0.02078 0.9331 0.0
C671 C 0.11309 0.05405 0.92805 0.0
H672 H 0.04341 0.96038 0.55581 0.0
H673 H 0.04235 0.86578 0.64068 0.0
H674 H 0.9838 0.86812 0.64707 0.0
H675 H 0.93334 0.89893 0.63263 0.0
H676 H 0.93647 0.99238 0.54012 0.0
H677 H 0.99408 0.98822 0.53064 0.0
C678 C 0.03047 0.94027 0.5764 0.0
C679 C 0.04716 0.91334 0.60063 0.0
C680 C 0.99724 0.94151 0.57731 0.0
C681 C 0.02997 0.88705 0.62405 0.0
C682 C 0.99658 0.88839 0.62701 0.0
C683 C 0.94658 0.91819 0.60948 0.0
C684 C 0.93049 0.94612 0.58775 0.0
C685 C 0.97997 0.91573 0.60436 0.0
C686 C 0.94807 0.97069 0.55743 0.0
C687 C 0.98109 0.96845 0.55242 0.0
H688 H 0.4607 1.00663 0.53716 0.0
H689 H 0.56256 0.99345 0.54337 0.0
H690 H 0.56913 0.05065 0.5598 0.0
H691 H 0.54576 0.10399 0.57443 0.0
H692 H 0.44373 0.11676 0.56996 0.0
H693 H 0.43736 0.05975 0.55288 0.0
C694 C 0.4844 0.0163 0.54094 0.0
C695 C 0.51117 0.99587 0.538 0.0
C696 C 0.48789 0.04894 0.55252 0.0
C697 C 0.54164 1.00872 0.54477 0.0
C698 C 0.54535 0.04136 0.55474 0.0
C699 C 0.52205 0.0943 0.57091 0.0
C700 C 0.4952 0.11471 0.57415 0.0
C701 C 0.51861 0.0616 0.55962 0.0
C702 C 0.46476 0.10166 0.56824 0.0
C703 C 0.46113 0.06909 0.55784 0.0
H704 H 0.56486 0.41639 0.41609 0.0
H705 H 0.57035 0.51869 0.42332 0.0
H706 H 0.51239 0.52266 0.42973 0.0
H707 H 0.45993 0.49709 0.43557 0.0
H708 H 0.45472 0.39485 0.42662 0.0
H709 H 0.51263 0.39093 0.41945 0.0
C710 C 0.55344 0.43962 0.41842 0.0
C711 C 0.57214 0.4672 0.41915 0.0
C712 C 0.52004 0.44175 0.4229 0.0
C713 C 0.55672 0.49703 0.4224 0.0
C714 C 0.5235 0.49934 0.42654 0.0
C715 C 0.47149 0.47394 0.43307 0.0
C716 C 0.45291 0.4463 0.43259 0.0
C717 C 0.50491 0.47185 0.4277 0.0
C718 C 0.46835 0.41652 0.42773 0.0
C719 C 0.50151 0.41424 0.42327 0.0
H720 H 0.09608 0.60852 0.46856 0.0
H721 H 0.99501 0.62481 0.44868 0.0
H722 H 0.98648 0.56765 0.44301 0.0
H723 H 1.0073 0.513 0.44493 0.0
H724 H 0.10829 0.49591 0.46213 0.0
H725 H 0.11715 0.55326 0.46884 0.0
C726 C 0.07223 0.59961 0.46189 0.0
C727 C 0.04625 0.62116 0.45842 0.0
C728 C 0.06739 0.56647 0.45951 0.0
C729 C 0.01548 0.60897 0.45107 0.0
C730 C 1.01054 0.5762 0.44825 0.0
C731 C 0.03127 0.52171 0.45107 0.0
C732 C 0.05706 0.49999 0.45391 0.0
C733 C 0.03624 0.55472 0.45311 0.0
C734 C 0.08796 0.51195 0.46042 0.0
C735 C 0.09305 0.54481 0.4638 0.0
loop_
_geom_bond_atom_site_label_1
_geom_bond_atom_site_label_2
_geom_bond_distance
_geom_bond_site_symmetry_2
_ccdc_geom_bond_type
C0 O2 1.247 . S
C0 O4 1.258 1_545 S
C1 O8 1.247 . S
C1 O9 1.258 1_565 S
O2 C0 1.247 . S
O2 Zn3 2.028 . S
Zn3 O2 2.028 . S
Zn3 O7 2.035 . S
Zn3 O9 2.035 . S
Zn3 O10 2.028 . S
O4 C0 1.258 1_565 S
O4 Zn5 2.035 . S
Zn5 O4 2.035 . S
Zn5 O6 2.028 . S
Zn5 O8 2.028 . S
Zn5 O11 2.035 . S
O6 Zn5 2.028 . S
O6 C12 1.247 1_565 S
O7 Zn3 2.035 . S
O7 C12 1.258 . S
O8 C1 1.247 . S
O8 Zn5 2.028 . S
O9 C1 1.258 1_545 S
O9 Zn3 2.035 . S
O10 Zn3 2.028 . S
O10 C13 1.247 1_545 S
O11 Zn5 2.035 . S
O11 C13 1.258 . S
C12 O6 1.247 1_545 S
C12 O7 1.258 . S
C13 O10 1.247 1_565 S
C13 O11 1.258 . S
C14 O16 1.247 . S
C14 O18 1.258 . S
C15 O22 1.247 . S
C15 O23 1.258 . S
O16 C14 1.247 . S
O16 Zn17 2.028 . S
Zn17 O16 2.028 . S
Zn17 O21 2.035 . S
Zn17 O23 2.035 . S
Zn17 O24 2.028 . S
O18 C14 1.258 . S
O18 Zn19 2.035 . S
Zn19 O18 2.035 . S
Zn19 O20 2.028 . S
Zn19 O22 2.028 . S
Zn19 O25 2.035 . S
O20 Zn19 2.028 . S
O20 C26 1.247 . S
O21 Zn17 2.035 . S
O21 C26 1.258 . S
O22 C15 1.247 . S
O22 Zn19 2.028 . S
O23 C15 1.258 . S
O23 Zn17 2.035 . S
O24 Zn17 2.028 . S
O24 C27 1.247 . S
O25 Zn19 2.035 . S
O25 C27 1.258 . S
C26 O20 1.247 . S
C26 O21 1.258 . S
C27 O24 1.247 . S
C27 O25 1.258 . S
C28 O30 1.247 . S
C28 O32 1.258 . S
C29 O36 1.247 . S
C29 O37 1.258 . S
O30 C28 1.247 . S
O30 Zn31 2.028 . S
Zn31 O30 2.028 . S
Zn31 O35 2.035 . S
Zn31 O37 2.035 . S
Zn31 O38 2.028 . S
O32 C28 1.258 . S
O32 Zn33 2.035 . S
Zn33 O32 2.035 . S
Zn33 O34 2.028 . S
Zn33 O36 2.028 . S
Zn33 O39 2.035 . S
O34 Zn33 2.028 . S
O34 C40 1.247 . S
O35 Zn31 2.035 . S
O35 C40 1.258 . S
O36 C29 1.247 . S
O36 Zn33 2.028 . S
O37 C29 1.258 . S
O37 Zn31 2.035 . S
O38 Zn31 2.028 . S
O38 C41 1.247 . S
O39 Zn33 2.035 . S
O39 C41 1.258 . S
C40 O34 1.247 . S
C40 O35 1.258 . S
C41 O38 1.247 . S
C41 O39 1.258 . S
C42 O44 1.247 . S
C42 O46 1.258 1_455 S
C43 O50 1.247 . S
C43 O51 1.258 1_655 S
O44 C42 1.247 . S
O44 Zn45 2.028 . S
Zn45 O44 2.028 . S
Zn45 O49 2.035 . S
Zn45 O51 2.035 . S
Zn45 O52 2.028 . S
O46 C42 1.258 1_655 S
O46 Zn47 2.035 . S
Zn47 O46 2.035 . S
Zn47 O48 2.028 . S
Zn47 O50 2.028 . S
Zn47 O53 2.035 . S
O48 Zn47 2.028 . S
O48 C54 1.247 1_655 S
O49 Zn45 2.035 . S
O49 C54 1.258 . S
O50 C43 1.247 . S
O50 Zn47 2.028 . S
O51 C43 1.258 1_455 S
O51 Zn45 2.035 . S
O52 Zn45 2.028 . S
O52 C55 1.218 1_455 S
O53 Zn47 2.035 . S
O53 C55 1.288 . S
C54 O48 1.247 1_455 S
C54 O49 1.258 . S
C55 O52 1.218 1_655 S
C55 O53 1.288 . S
C56 O58 1.247 . S
C56 O60 1.258 1_565 S
C57 O64 1.247 . S
C57 O65 1.258 1_545 S
O58 C56 1.247 . S
O58 Zn59 2.028 . S
Zn59 O58 2.028 . S
Zn59 O63 2.035 . S
Zn59 O65 2.035 . S
Zn59 O66 2.028 . S
O60 C56 1.258 1_545 S
O60 Zn61 2.035 . S
Zn61 O60 2.035 . S
Zn61 O62 2.028 . S
Zn61 O64 2.028 . S
Zn61 O67 2.035 . S
O62 Zn61 2.028 . S
O62 C68 1.247 1_545 S
O63 Zn59 2.035 . S
O63 C68 1.258 . S
O64 C57 1.247 . S
O64 Zn61 2.028 . S
O65 C57 1.258 1_565 S
O65 Zn59 2.035 . S
O66 Zn59 2.028 . S
O66 C69 1.218 1_565 S
O67 Zn61 2.035 . S
O67 C69 1.288 . S
C68 O62 1.247 1_565 S
C68 O63 1.258 . S
C69 O66 1.218 1_545 S
C69 O67 1.288 . S
C70 O72 1.247 . S
C70 O74 1.258 . S
C71 O78 1.247 . S
C71 O79 1.258 . S
O72 C70 1.247 . S
O72 Zn73 2.028 . S
Zn73 O72 2.028 . S
Zn73 O77 2.035 . S
Zn73 O79 2.035 . S
Zn73 O80 2.028 . S
O74 C70 1.258 . S
O74 Zn75 2.035 . S
Zn75 O74 2.035 . S
Zn75 O76 2.028 . S
Zn75 O78 2.028 . S
Zn75 O81 2.035 . S
O76 Zn75 2.028 . S
O76 C82 1.247 . S
O77 Zn73 2.035 . S
O77 C82 1.258 . S
O78 C71 1.247 . S
O78 Zn75 2.028 . S
O79 C71 1.258 . S
O79 Zn73 2.035 . S
O80 Zn73 2.028 . S
O80 C83 1.247 . S
O81 Zn75 2.035 . S
O81 C83 1.258 . S
C82 O76 1.247 . S
C82 O77 1.258 . S
C83 O80 1.247 . S
C83 O81 1.258 . S
C84 O86 1.247 . S
C84 O88 1.258 . S
C85 O92 1.247 . S
C85 O93 1.258 . S
O86 C84 1.247 . S
O86 Zn87 2.028 . S
Zn87 O86 2.028 . S
Zn87 O91 2.035 . S
Zn87 O93 2.035 . S
Zn87 O94 2.028 . S
O88 C84 1.258 . S
O88 Zn89 2.035 . S
Zn89 O88 2.035 . S
Zn89 O90 2.028 . S
Zn89 O92 2.028 . S
Zn89 O95 2.035 . S
O90 Zn89 2.028 . S
O90 C96 1.247 . S
O91 Zn87 2.035 . S
O91 C96 1.258 . S
O92 C85 1.247 . S
O92 Zn89 2.028 . S
O93 C85 1.258 . S
O93 Zn87 2.035 . S
O94 Zn87 2.028 . S
O94 C97 1.247 . S
O95 Zn89 2.035 . S
O95 C97 1.258 . S
C96 O90 1.247 . S
C96 O91 1.258 . S
C97 O94 1.247 . S
C97 O95 1.258 . S
C98 O100 1.247 . S
C98 O102 1.258 1_655 S
C99 O106 1.247 . S
C99 O107 1.258 1_455 S
O100 C98 1.247 . S
O100 Zn101 2.028 . S
Zn101 O100 2.028 . S
Zn101 O105 2.035 . S
Zn101 O107 2.035 . S
Zn101 O108 2.028 . S
O102 C98 1.258 1_455 S
O102 Zn103 2.035 . S
Zn103 O102 2.035 . S
Zn103 O104 2.028 . S
Zn103 O106 2.028 . S
Zn103 O109 2.035 . S
O104 Zn103 2.028 . S
O104 C110 1.247 1_455 S
O105 Zn101 2.035 . S
O105 C110 1.258 . S
O106 C99 1.247 . S
O106 Zn103 2.028 . S
O107 C99 1.258 1_655 S
O107 Zn101 2.035 . S
O108 Zn101 2.028 . S
O108 C111 1.247 1_655 S
O109 Zn103 2.035 . S
O109 C111 1.258 . S
C110 O104 1.247 1_655 S
C110 O105 1.258 . S
C111 O108 1.247 1_455 S
C111 O109 1.258 . S
C112 O114 1.247 1_565 S
C112 O116 1.258 . S
C113 O120 1.247 1_545 S
C113 O121 1.258 . S
O114 C112 1.247 1_545 S
O114 Zn115 2.028 . S
Zn115 O114 2.028 . S
Zn115 O119 2.035 . S
Zn115 O121 2.035 . S
Zn115 O122 2.028 . S
O116 C112 1.258 . S
O116 Zn117 2.035 . S
Zn117 O116 2.035 . S
Zn117 O118 2.028 . S
Zn117 O120 2.028 . S
Zn117 O123 2.035 . S
O118 Zn117 2.028 . S
O118 C124 1.247 . S
O119 Zn115 2.035 . S
O119 C124 1.258 1_545 S
O120 C113 1.247 1_565 S
O120 Zn117 2.028 . S
O121 C113 1.258 . S
O121 Zn115 2.035 . S
O122 Zn115 2.028 . S
O122 C125 1.247 . S
O123 Zn117 2.035 . S
O123 C125 1.258 1_565 S
C124 O118 1.247 . S
C124 O119 1.258 1_565 S
C125 O122 1.247 . S
C125 O123 1.258 1_545 S
C126 O128 1.247 . S
C126 O130 1.258 . S
C127 O134 1.247 . S
C127 O135 1.258 . S
O128 C126 1.247 . S
O128 Zn129 2.028 . S
Zn129 O128 2.028 . S
Zn129 O133 2.035 . S
Zn129 O135 2.035 . S
Zn129 O136 2.028 . S
O130 C126 1.258 . S
O130 Zn131 2.035 . S
Zn131 O130 2.035 . S
Zn131 O132 2.028 . S
Zn131 O134 2.028 . S
Zn131 O137 2.035 . S
O132 Zn131 2.028 . S
O132 C138 1.247 . S
O133 Zn129 2.035 . S
O133 C138 1.258 . S
O134 C127 1.247 . S
O134 Zn131 2.028 . S
O135 C127 1.258 . S
O135 Zn129 2.035 . S
O136 Zn129 2.028 . S
O136 C139 1.247 . S
O137 Zn131 2.035 . S
O137 C139 1.258 . S
C138 O132 1.247 . S
C138 O133 1.258 . S
C139 O136 1.247 . S
C139 O137 1.258 . S
C140 O142 1.247 . S
C140 O144 1.258 . S
C141 O148 1.247 . S
C141 O149 1.258 . S
O142 C140 1.247 . S
O142 Zn143 2.028 . S
Zn143 O142 2.028 . S
Zn143 O147 2.035 . S
Zn143 O149 2.035 . S
Zn143 O150 2.028 . S
O144 C140 1.258 . S
O144 Zn145 2.035 . S
Zn145 O144 2.035 . S
Zn145 O146 2.028 . S
Zn145 O148 2.028 . S
Zn145 O151 2.035 . S
O146 Zn145 2.028 . S
O146 C152 1.247 . S
O147 Zn143 2.035 . S
O147 C152 1.258 . S
O148 C141 1.247 . S
O148 Zn145 2.028 . S
O149 C141 1.258 . S
O149 Zn143 2.035 . S
O150 Zn143 2.028 . S
O150 C153 1.247 . S
O151 Zn145 2.035 . S
O151 C153 1.258 . S
C152 O146 1.247 . S
C152 O147 1.258 . S
C153 O150 1.247 . S
C153 O151 1.258 . S
C154 O156 1.247 . S
C154 O158 1.258 1_455 S
C155 O162 1.247 . S
C155 O163 1.258 1_655 S
O156 C154 1.247 . S
O156 Zn157 2.028 . S
Zn157 O156 2.028 . S
Zn157 O161 2.035 . S
Zn157 O163 2.035 . S
Zn157 O164 2.028 . S
O158 C154 1.258 1_655 S
O158 Zn159 2.035 . S
Zn159 O158 2.035 . S
Zn159 O160 2.028 . S
Zn159 O162 2.028 . S
Zn159 O165 2.035 . S
O160 Zn159 2.028 . S
O160 C166 1.218 1_655 S
O161 Zn157 2.035 . S
O161 C166 1.288 . S
O162 C155 1.247 . S
O162 Zn159 2.028 . S
O163 C155 1.258 1_455 S
O163 Zn157 2.035 . S
O164 Zn157 2.028 . S
O164 C167 1.247 1_455 S
O165 Zn159 2.035 . S
O165 C167 1.258 . S
C166 O160 1.218 1_455 S
C166 O161 1.288 . S
C167 O164 1.247 1_655 S
C167 O165 1.258 . S
C168 O170 1.247 . S
C168 O172 1.258 1_545 S
C169 O176 1.247 . S
C169 O177 1.258 1_565 S
O170 C168 1.247 . S
O170 Zn171 2.028 . S
Zn171 O170 2.028 . S
Zn171 O175 2.035 . S
Zn171 O177 2.035 . S
Zn171 O178 2.028 . S
O172 C168 1.258 1_565 S
O172 Zn173 2.035 . S
Zn173 O172 2.035 . S
Zn173 O174 2.028 . S
Zn173 O176 2.028 . S
Zn173 O179 2.035 . S
O174 Zn173 2.028 . S
O174 C180 1.247 1_565 S
O175 Zn171 2.035 . S
O175 C180 1.258 . S
O176 C169 1.247 . S
O176 Zn173 2.028 . S
O177 C169 1.258 1_545 S
O177 Zn171 2.035 . S
O178 Zn171 2.028 . S
O178 C181 1.247 1_545 S
O179 Zn173 2.035 . S
O179 C181 1.258 . S
C180 O174 1.247 1_545 S
C180 O175 1.258 . S
C181 O178 1.247 1_565 S
C181 O179 1.258 . S
C182 O184 1.247 . S
C182 O186 1.258 . S
C183 O190 1.247 . S
C183 O191 1.258 . S
O184 C182 1.247 . S
O184 Zn185 2.028 . S
Zn185 O184 2.028 . S
Zn185 O189 2.035 . S
Zn185 O191 2.035 . S
Zn185 O192 2.028 . S
O186 C182 1.258 . S
O186 Zn187 2.035 . S
Zn187 O186 2.035 . S
Zn187 O188 2.028 . S
Zn187 O190 2.028 . S
Zn187 O193 2.035 . S
O188 Zn187 2.028 . S
O188 C194 1.247 . S
O189 Zn185 2.035 . S
O189 C194 1.258 . S
O190 C183 1.247 . S
O190 Zn187 2.028 . S
O191 C183 1.258 . S
O191 Zn185 2.035 . S
O192 Zn185 2.028 . S
O192 C195 1.247 . S
O193 Zn187 2.035 . S
O193 C195 1.258 . S
C194 O188 1.247 . S
C194 O189 1.258 . S
C195 O192 1.247 . S
C195 O193 1.258 . S
C196 O198 1.247 . S
C196 O200 1.258 . S
C197 O204 1.247 . S
C197 O205 1.258 . S
O198 C196 1.247 . S
O198 Zn199 2.028 . S
Zn199 O198 2.028 . S
Zn199 O203 2.035 . S
Zn199 O205 2.035 . S
Zn199 O206 2.028 . S
O200 C196 1.258 . S
O200 Zn201 2.035 . S
Zn201 O200 2.035 . S
Zn201 O202 2.028 . S
Zn201 O204 2.028 . S
Zn201 O207 2.035 . S
O202 Zn201 2.028 . S
O202 C208 1.247 . S
O203 Zn199 2.035 . S
O203 C208 1.258 . S
O204 C197 1.247 . S
O204 Zn201 2.028 . S
O205 C197 1.258 . S
O205 Zn199 2.035 . S
O206 Zn199 2.028 . S
O206 C209 1.247 . S
O207 Zn201 2.035 . S
O207 C209 1.258 . S
C208 O202 1.247 . S
C208 O203 1.258 . S
C209 O206 1.247 . S
C209 O207 1.258 . S
C210 O212 1.247 . S
C210 O214 1.258 1_655 S
C211 O218 1.247 . S
C211 O219 1.258 1_455 S
O212 C210 1.247 . S
O212 Zn213 2.028 . S
Zn213 O212 2.028 . S
Zn213 O217 2.035 . S
Zn213 O219 2.035 . S
Zn213 O220 2.028 . S
O214 C210 1.258 1_455 S
O214 Zn215 2.035 . S
Zn215 O214 2.035 . S
Zn215 O216 2.028 . S
Zn215 O218 2.028 . S
Zn215 O221 2.035 . S
O216 Zn215 2.028 . S
O216 C222 1.247 1_455 S
O217 Zn213 2.035 . S
O217 C222 1.258 . S
O218 C211 1.247 . S
O218 Zn215 2.028 . S
O219 C211 1.258 1_655 S
O219 Zn213 2.035 . S
O220 Zn213 2.028 . S
O220 C223 1.247 1_655 S
O221 Zn215 2.035 . S
O221 C223 1.258 . S
C222 O216 1.247 1_655 S
C222 O217 1.258 . S
C223 O220 1.247 1_455 S
C223 O221 1.258 . S
H224 C230 0.930 . S
H225 C233 0.930 . S
H226 C234 0.930 . S
H227 C235 0.930 . S
H228 C238 0.930 . S
H229 C239 0.930 . S
C230 H224 0.930 . S
C230 C231 1.355 . S
C230 C232 1.415 . S
C231 C230 1.355 . S
C231 C233 1.419 . S
C232 C230 1.415 . S
C232 C237 1.425 . S
C232 C239 1.409 . S
C233 H225 0.930 . S
C233 C231 1.419 . S
C233 C234 1.362 . S
C234 H226 0.930 . S
C234 C233 1.362 . S
C234 C237 1.409 . S
C235 H227 0.930 . S
C235 C236 1.355 . S
C235 C237 1.415 . S
C236 C235 1.355 . S
C236 C238 1.419 . S
C237 C232 1.425 . S
C237 C234 1.409 . S
C237 C235 1.415 . S
C238 H228 0.930 . S
C238 C236 1.419 . S
C238 C239 1.362 . S
C239 H229 0.930 . S
C239 C232 1.409 . S
C239 C238 1.362 . S
H240 C246 0.930 . S
H241 C249 0.930 . S
H242 C250 0.930 . S
H243 C251 0.930 . S
H244 C254 0.930 . S
H245 C255 0.930 . S
C246 H240 0.930 . S
C246 C247 1.355 . S
C246 C248 1.415 . S
C247 C246 1.355 . S
C247 C249 1.419 . S
C248 C246 1.415 . S
C248 C253 1.425 . S
C248 C255 1.409 . S
C249 H241 0.930 . S
C249 C247 1.419 . S
C249 C250 1.362 . S
C250 H242 0.930 . S
C250 C249 1.362 . S
C250 C253 1.409 . S
C251 H243 0.930 . S
C251 C252 1.355 . S
C251 C253 1.415 . S
C252 C251 1.355 . S
C252 C254 1.419 . S
C253 C248 1.425 . S
C253 C250 1.409 . S
C253 C251 1.415 . S
C254 H244 0.930 . S
C254 C252 1.419 . S
C254 C255 1.362 . S
C255 H245 0.930 . S
C255 C248 1.409 . S
C255 C254 1.362 . S
H256 C262 0.930 . S
H257 C265 0.930 . S
H258 C266 0.930 . S
H259 C267 0.930 . S
H260 C270 0.930 1_455 S
H261 C271 0.930 . S
C262 H256 0.930 . S
C262 C263 1.355 . S
C262 C264 1.415 . S
C263 C262 1.355 . S
C263 C265 1.419 . S
C264 C262 1.415 . S
C264 C269 1.425 . S
C264 C271 1.409 . S
C265 H257 0.930 . S
C265 C263 1.419 . S
C265 C266 1.362 . S
C266 H258 0.930 . S
C266 C265 1.362 . S
C266 C269 1.409 . S
C267 H259 0.930 . S
C267 C268 1.355 . S
C267 C269 1.415 . S
C268 C267 1.355 . S
C268 C270 1.419 . S
C269 C264 1.425 . S
C269 C266 1.409 . S
C269 C267 1.415 . S
C270 H260 0.930 1_655 S
C270 C268 1.419 . S
C270 C271 1.362 . S
C271 H261 0.930 . S
C271 C264 1.409 . S
C271 C270 1.362 . S
H272 C278 0.930 . S
H273 C281 0.930 1_655 S
H274 C282 0.930 . S
H275 C283 0.938 . S
H276 C286 0.930 . S
H277 C287 0.930 . S
C278 H272 0.930 . S
C278 C279 1.355 . S
C278 C280 1.415 . S
C279 C278 1.355 . S
C279 C281 1.419 . S
C280 C278 1.415 . S
C280 C285 1.425 . S
C280 C287 1.409 . S
C281 H273 0.930 1_455 S
C281 C279 1.419 . S
C281 C282 1.362 . S
C282 H274 0.930 . S
C282 C281 1.362 . S
C282 C285 1.409 . S
C283 H275 0.938 . S
C283 C284 1.355 . S
C283 C285 1.415 . S
C284 C283 1.355 . S
C284 C286 1.419 . S
C285 C280 1.425 . S
C285 C282 1.409 . S
C285 C283 1.415 . S
C286 H276 0.930 . S
C286 C284 1.419 . S
C286 C287 1.362 . S
C287 H277 0.930 . S
C287 C280 1.409 . S
C287 C286 1.362 . S
H288 C294 0.930 . S
H289 C297 0.930 1_545 S
H290 C298 0.930 . S
H291 C299 0.930 . S
H292 C302 0.930 . S
H293 C303 0.930 . S
C294 H288 0.930 . S
C294 C295 1.355 . S
C294 C296 1.415 . S
C295 C294 1.355 . S
C295 C297 1.419 . S
C296 C294 1.415 . S
C296 C301 1.425 . S
C296 C303 1.409 . S
C297 H289 0.930 1_565 S
C297 C295 1.419 . S
C297 C298 1.362 . S
C298 H290 0.930 . S
C298 C297 1.362 . S
C298 C301 1.409 . S
C299 H291 0.930 . S
C299 C300 1.355 . S
C299 C301 1.415 . S
C300 C299 1.355 . S
C300 C302 1.419 . S
C301 C296 1.425 . S
C301 C298 1.409 . S
C301 C299 1.415 . S
C302 H292 0.930 . S
C302 C300 1.419 . S
C302 C303 1.362 . S
C303 H293 0.930 . S
C303 C296 1.409 . S
C303 C302 1.362 . S
H304 C310 0.930 . S
H305 C313 0.930 . S
H306 C314 0.930 . S
H307 C315 0.930 . S
H308 C318 0.930 . S
H309 C319 0.930 . S
C310 H304 0.930 . S
C310 C311 1.355 . S
C310 C312 1.415 . S
C311 C310 1.355 . S
C311 C313 1.419 . S
C312 C310 1.415 . S
C312 C317 1.425 . S
C312 C319 1.409 . S
C313 H305 0.930 . S
C313 C311 1.419 . S
C313 C314 1.362 . S
C314 H306 0.930 . S
C314 C313 1.362 . S
C314 C317 1.409 . S
C315 H307 0.930 . S
C315 C316 1.355 . S
C315 C317 1.415 . S
C316 C315 1.355 . S
C316 C318 1.419 . S
C317 C312 1.425 . S
C317 C314 1.409 . S
C317 C315 1.415 . S
C318 H308 0.930 . S
C318 C316 1.419 . S
C318 C319 1.362 . S
C319 H309 0.930 . S
C319 C312 1.409 . S
C319 C318 1.362 . S
H320 C326 0.930 . S
H321 C329 0.930 . S
H322 C330 0.930 . S
H323 C331 0.930 . S
H324 C334 0.930 . S
H325 C335 0.930 . S
C326 H320 0.930 . S
C326 C327 1.355 . S
C326 C328 1.415 . S
C327 C326 1.355 . S
C327 C329 1.419 . S
C328 C326 1.415 . S
C328 C333 1.425 . S
C328 C335 1.409 . S
C329 H321 0.930 . S
C329 C327 1.419 . S
C329 C330 1.362 . S
C330 H322 0.930 . S
C330 C329 1.362 . S
C330 C333 1.409 . S
C331 H323 0.930 . S
C331 C332 1.355 . S
C331 C333 1.415 . S
C332 C331 1.355 . S
C332 C334 1.419 . S
C333 C328 1.425 . S
C333 C330 1.409 . S
C333 C331 1.415 . S
C334 H324 0.930 . S
C334 C332 1.419 . S
C334 C335 1.362 . S
C335 H325 0.930 . S
C335 C328 1.409 . S
C335 C334 1.362 . S
H336 C342 0.930 . S
H337 C345 0.930 . S
H338 C346 0.930 . S
H339 C347 0.930 . S
H340 C350 0.930 1_565 S
H341 C351 0.930 . S
C342 H336 0.930 . S
C342 C343 1.355 . S
C342 C344 1.415 . S
C343 C342 1.355 . S
C343 C345 1.419 . S
C344 C342 1.415 . S
C344 C349 1.425 . S
C344 C351 1.409 . S
C345 H337 0.930 . S
C345 C343 1.419 . S
C345 C346 1.362 . S
C346 H338 0.930 . S
C346 C345 1.362 . S
C346 C349 1.409 . S
C347 H339 0.930 . S
C347 C348 1.355 . S
C347 C349 1.415 . S
C348 C347 1.355 . S
C348 C350 1.419 . S
C349 C344 1.425 . S
C349 C346 1.409 . S
C349 C347 1.415 . S
C350 H340 0.930 1_545 S
C350 C348 1.419 . S
C350 C351 1.362 . S
C351 H341 0.930 . S
C351 C344 1.409 . S
C351 C350 1.362 . S
H352 C358 0.930 . S
H353 C361 0.930 . S
H354 C362 0.930 . S
H355 C363 0.930 . S
H356 C366 0.930 . S
H357 C367 0.930 . S
C358 H352 0.930 . S
C358 C359 1.355 . S
C358 C360 1.415 . S
C359 C358 1.355 . S
C359 C361 1.419 1_565 S
C360 C358 1.415 . S
C360 C365 1.425 1_565 S
C360 C367 1.409 . S
C361 H353 0.930 . S
C361 C359 1.419 1_545 S
C361 C362 1.362 . S
C362 H354 0.930 . S
C362 C361 1.362 . S
C362 C365 1.409 . S
C363 H355 0.930 . S
C363 C364 1.355 1_545 S
C363 C365 1.415 . S
C364 C363 1.355 1_565 S
C364 C366 1.419 . S
C365 C360 1.425 1_545 S
C365 C362 1.409 . S
C365 C363 1.415 . S
C366 H356 0.930 . S
C366 C364 1.419 . S
C366 C367 1.362 . S
C367 H357 0.930 . S
C367 C360 1.409 . S
C367 C366 1.362 . S
H368 C374 0.930 . S
H369 C377 0.930 . S
H370 C378 0.930 . S
H371 C379 0.930 . S
H372 C382 0.930 . S
H373 C383 0.930 . S
C374 H368 0.930 . S
C374 C375 1.355 . S
C374 C376 1.415 . S
C375 C374 1.355 . S
C375 C377 1.419 . S
C376 C374 1.415 . S
C376 C381 1.425 . S
C376 C383 1.409 . S
C377 H369 0.930 . S
C377 C375 1.419 . S
C377 C378 1.362 . S
C378 H370 0.930 . S
C378 C377 1.362 . S
C378 C381 1.409 . S
C379 H371 0.930 . S
C379 C380 1.355 . S
C379 C381 1.415 . S
C380 C379 1.355 . S
C380 C382 1.419 . S
C381 C376 1.425 . S
C381 C378 1.409 . S
C381 C379 1.415 . S
C382 H372 0.930 . S
C382 C380 1.419 . S
C382 C383 1.362 . S
C383 H373 0.930 . S
C383 C376 1.409 . S
C383 C382 1.362 . S
H384 C390 0.930 . S
H385 C393 0.930 . S
H386 C394 0.930 . S
H387 C395 0.930 . S
H388 C398 0.930 . S
H389 C399 0.930 . S
C390 H384 0.930 . S
C390 C391 1.355 . S
C390 C392 1.415 . S
C391 C390 1.355 . S
C391 C393 1.419 . S
C392 C390 1.415 . S
C392 C397 1.425 . S
C392 C399 1.409 . S
C393 H385 0.930 . S
C393 C391 1.419 . S
C393 C394 1.362 . S
C394 H386 0.930 . S
C394 C393 1.362 . S
C394 C397 1.409 . S
C395 H387 0.930 . S
C395 C396 1.355 . S
C395 C397 1.415 . S
C396 C395 1.355 . S
C396 C398 1.419 . S
C397 C392 1.425 . S
C397 C394 1.409 . S
C397 C395 1.415 . S
C398 H388 0.930 . S
C398 C396 1.419 . S
C398 C399 1.362 . S
C399 H389 0.930 . S
C399 C392 1.409 . S
C399 C398 1.362 . S
H400 C406 0.930 . S
H401 C409 0.930 . S
H402 C410 0.930 . S
H403 C411 0.930 . S
H404 C414 0.930 . S
H405 C415 0.930 . S
C406 H400 0.930 . S
C406 C407 1.355 . S
C406 C408 1.415 . S
C407 C406 1.355 . S
C407 C409 1.419 1_655 S
C408 C406 1.415 . S
C408 C413 1.425 1_655 S
C408 C415 1.409 . S
C409 H401 0.930 . S
C409 C407 1.419 1_455 S
C409 C410 1.362 . S
C410 H402 0.930 . S
C410 C409 1.362 . S
C410 C413 1.409 . S
C411 H403 0.930 . S
C411 C412 1.355 1_455 S
C411 C413 1.415 . S
C412 C411 1.355 1_655 S
C412 C414 1.419 . S
C413 C408 1.425 1_455 S
C413 C410 1.409 . S
C413 C411 1.415 . S
C414 H404 0.930 . S
C414 C412 1.419 . S
C414 C415 1.362 . S
C415 H405 0.930 . S
C415 C408 1.409 . S
C415 C414 1.362 . S
H416 C422 0.930 1_565 S
H417 C425 0.930 . S
H418 C426 0.930 . S
H419 C427 0.930 . S
H420 C430 0.930 . S
H421 C431 0.930 . S
C422 H416 0.930 1_545 S
C422 C423 1.355 . S
C422 C424 1.415 . S
C423 C422 1.355 . S
C423 C425 1.419 . S
C424 C422 1.415 . S
C424 C429 1.425 . S
C424 C431 1.409 1_545 S
C425 H417 0.930 . S
C425 C423 1.419 . S
C425 C426 1.362 . S
C426 H418 0.930 . S
C426 C425 1.362 . S
C426 C429 1.409 . S
C427 H419 0.930 . S
C427 C428 1.356 . S
C427 C429 1.415 . S
C428 C427 1.356 . S
C428 C430 1.418 1_545 S
C429 C424 1.425 . S
C429 C426 1.409 . S
C429 C427 1.415 . S
C430 H420 0.930 . S
C430 C428 1.418 1_565 S
C430 C431 1.362 . S
C431 H421 0.930 . S
C431 C424 1.409 1_565 S
C431 C430 1.362 . S
H432 C438 0.930 . S
H433 C441 0.930 . S
H434 C442 0.930 . S
H435 C443 0.930 . S
H436 C446 0.930 . S
H437 C447 0.930 . S
C438 H432 0.930 . S
C438 C439 1.355 . S
C438 C440 1.415 . S
C439 C438 1.355 . S
C439 C441 1.419 . S
C440 C438 1.415 . S
C440 C445 1.425 . S
C440 C447 1.409 . S
C441 H433 0.930 . S
C441 C439 1.419 . S
C441 C442 1.362 . S
C442 H434 0.930 . S
C442 C441 1.362 . S
C442 C445 1.409 . S
C443 H435 0.930 . S
C443 C444 1.355 . S
C443 C445 1.415 . S
C444 C443 1.355 . S
C444 C446 1.419 . S
C445 C440 1.425 . S
C445 C442 1.409 . S
C445 C443 1.415 . S
C446 H436 0.930 . S
C446 C444 1.419 . S
C446 C447 1.362 . S
C447 H437 0.930 . S
C447 C440 1.409 . S
C447 C446 1.362 . S
H448 C454 0.930 . S
H449 C457 0.930 . S
H450 C458 0.930 . S
H451 C459 0.930 . S
H452 C462 0.930 . S
H453 C463 0.930 . S
C454 H448 0.930 . S
C454 C455 1.355 . S
C454 C456 1.415 . S
C455 C454 1.355 . S
C455 C457 1.419 . S
C456 C454 1.415 . S
C456 C461 1.425 . S
C456 C463 1.409 . S
C457 H449 0.930 . S
C457 C455 1.419 . S
C457 C458 1.362 . S
C458 H450 0.930 . S
C458 C457 1.362 . S
C458 C461 1.409 . S
C459 H451 0.930 . S
C459 C460 1.355 . S
C459 C461 1.415 . S
C460 C459 1.355 . S
C460 C462 1.419 . S
C461 C456 1.425 . S
C461 C458 1.409 . S
C461 C459 1.415 . S
C462 H452 0.930 . S
C462 C460 1.419 . S
C462 C463 1.362 . S
C463 H453 0.930 . S
C463 C456 1.409 . S
C463 C462 1.362 . S
H464 C470 0.930 . S
H465 C473 0.930 . S
H466 C474 0.930 . S
H467 C475 0.930 . S
H468 C478 0.930 . S
H469 C479 0.930 . S
C470 H464 0.930 . S
C470 C471 1.355 . S
C470 C472 1.415 . S
C471 C470 1.355 . S
C471 C473 1.419 1_455 S
C472 C470 1.415 . S
C472 C477 1.425 1_455 S
C472 C479 1.409 . S
C473 H465 0.930 . S
C473 C471 1.419 1_655 S
C473 C474 1.362 . S
C474 H466 0.930 . S
C474 C473 1.362 . S
C474 C477 1.409 . S
C475 H467 0.930 . S
C475 C476 1.355 1_655 S
C475 C477 1.415 . S
C476 C475 1.355 1_455 S
C476 C478 1.419 . S
C477 C472 1.425 1_655 S
C477 C474 1.409 . S
C477 C475 1.415 . S
C478 H468 0.930 . S
C478 C476 1.419 . S
C478 C479 1.362 . S
C479 H469 0.930 . S
C479 C472 1.409 . S
C479 C478 1.362 . S
H480 C486 0.930 . S
H481 C489 0.930 . S
H482 C490 0.930 . S
H483 C491 0.930 . S
H484 C494 0.930 . S
H485 C495 0.930 . S
C486 H480 0.930 . S
C486 C487 1.344 1_545 S
C486 C488 1.415 . S
C487 C486 1.344 1_565 S
C487 C489 1.430 . S
C488 C486 1.415 . S
C488 C493 1.425 1_545 S
C488 C495 1.409 . S
C489 H481 0.930 . S
C489 C487 1.430 . S
C489 C490 1.362 . S
C490 H482 0.930 . S
C490 C489 1.362 . S
C490 C493 1.409 . S
C491 H483 0.930 . S
C491 C492 1.355 1_565 S
C491 C493 1.415 . S
C492 C491 1.355 1_545 S
C492 C494 1.419 . S
C493 C488 1.425 1_565 S
C493 C490 1.409 . S
C493 C491 1.415 . S
C494 H484 0.930 . S
C494 C492 1.419 . S
C494 C495 1.362 . S
C495 H485 0.930 . S
C495 C488 1.409 . S
C495 C494 1.362 . S
H496 C502 0.930 . S
H497 C505 0.930 . S
H498 C506 0.930 . S
H499 C507 0.930 . S
H500 C510 0.930 . S
H501 C511 0.930 . S
C502 H496 0.930 . S
C502 C503 1.355 . S
C502 C504 1.415 . S
C503 C502 1.355 . S
C503 C505 1.419 . S
C504 C502 1.415 . S
C504 C509 1.425 . S
C504 C511 1.409 . S
C505 H497 0.930 . S
C505 C503 1.419 . S
C505 C506 1.362 . S
C506 H498 0.930 . S
C506 C505 1.362 . S
C506 C509 1.409 . S
C507 H499 0.930 . S
C507 C508 1.355 . S
C507 C509 1.415 . S
C508 C507 1.355 . S
C508 C510 1.419 . S
C509 C504 1.425 . S
C509 C506 1.409 . S
C509 C507 1.415 . S
C510 H500 0.930 . S
C510 C508 1.419 . S
C510 C511 1.362 . S
C511 H501 0.930 . S
C511 C504 1.409 . S
C511 C510 1.362 . S
H512 C518 0.930 . S
H513 C521 0.930 . S
H514 C522 0.930 . S
H515 C523 0.930 . S
H516 C526 0.930 . S
H517 C527 0.930 . S
C518 H512 0.930 . S
C518 C519 1.355 . S
C518 C520 1.415 . S
C519 C518 1.355 . S
C519 C521 1.419 . S
C520 C518 1.415 . S
C520 C525 1.425 . S
C520 C527 1.409 . S
C521 H513 0.930 . S
C521 C519 1.419 . S
C521 C522 1.362 . S
C522 H514 0.930 . S
C522 C521 1.362 . S
C522 C525 1.409 . S
C523 H515 0.930 . S
C523 C524 1.355 . S
C523 C525 1.415 . S
C524 C523 1.355 . S
C524 C526 1.419 . S
C525 C520 1.425 . S
C525 C522 1.409 . S
C525 C523 1.415 . S
C526 H516 0.930 . S
C526 C524 1.419 . S
C526 C527 1.362 . S
C527 H517 0.930 . S
C527 C520 1.409 . S
C527 C526 1.362 . S
H528 C534 0.930 . S
H529 C537 0.930 . S
H530 C538 0.930 . S
H531 C539 0.930 . S
H532 C542 0.930 1_655 S
H533 C543 0.930 . S
C534 H528 0.930 . S
C534 C535 1.355 . S
C534 C536 1.415 . S
C535 C534 1.355 . S
C535 C537 1.419 . S
C536 C534 1.415 . S
C536 C541 1.425 . S
C536 C543 1.409 . S
C537 H529 0.930 . S
C537 C535 1.419 . S
C537 C538 1.362 . S
C538 H530 0.930 . S
C538 C537 1.362 . S
C538 C541 1.409 . S
C539 H531 0.930 . S
C539 C540 1.355 . S
C539 C541 1.415 . S
C540 C539 1.355 . S
C540 C542 1.419 . S
C541 C536 1.425 . S
C541 C538 1.409 . S
C541 C539 1.415 . S
C542 H532 0.930 1_455 S
C542 C540 1.419 . S
C542 C543 1.362 . S
C543 H533 0.930 . S
C543 C536 1.409 . S
C543 C542 1.362 . S
H544 C550 0.930 . S
H545 C553 0.930 1_545 S
H546 C554 0.930 . S
H547 C555 0.930 . S
H548 C558 0.930 . S
H549 C559 0.930 . S
C550 H544 0.930 . S
C550 C551 1.355 . S
C550 C552 1.415 . S
C551 C550 1.355 . S
C551 C553 1.419 . S
C552 C550 1.415 . S
C552 C557 1.425 . S
C552 C559 1.409 . S
C553 H545 0.930 1_565 S
C553 C551 1.419 . S
C553 C554 1.362 . S
C554 H546 0.930 . S
C554 C553 1.362 . S
C554 C557 1.409 . S
C555 H547 0.930 . S
C555 C556 1.355 . S
C555 C557 1.415 . S
C556 C555 1.355 . S
C556 C558 1.419 . S
C557 C552 1.425 . S
C557 C554 1.409 . S
C557 C555 1.415 . S
C558 H548 0.930 . S
C558 C556 1.419 . S
C558 C559 1.362 . S
C559 H549 0.930 . S
C559 C552 1.409 . S
C559 C558 1.362 . S
H560 C566 0.930 . S
H561 C569 0.930 . S
H562 C570 0.930 . S
H563 C571 0.930 . S
H564 C574 0.930 . S
H565 C575 0.930 . S
C566 H560 0.930 . S
C566 C567 1.355 . S
C566 C568 1.415 . S
C567 C566 1.355 . S
C567 C569 1.419 . S
C568 C566 1.415 . S
C568 C573 1.425 . S
C568 C575 1.409 . S
C569 H561 0.930 . S
C569 C567 1.419 . S
C569 C570 1.362 . S
C570 H562 0.930 . S
C570 C569 1.362 . S
C570 C573 1.409 . S
C571 H563 0.930 . S
C571 C572 1.355 . S
C571 C573 1.415 . S
C572 C571 1.355 . S
C572 C574 1.419 . S
C573 C568 1.425 . S
C573 C570 1.409 . S
C573 C571 1.415 . S
C574 H564 0.930 . S
C574 C572 1.419 . S
C574 C575 1.362 . S
C575 H565 0.930 . S
C575 C568 1.409 . S
C575 C574 1.362 . S
H576 C582 0.930 . S
H577 C585 0.930 . S
H578 C586 0.930 . S
H579 C587 0.930 . S
H580 C590 0.930 . S
H581 C591 0.930 . S
C582 H576 0.930 . S
C582 C583 1.355 . S
C582 C584 1.415 . S
C583 C582 1.355 . S
C583 C585 1.419 . S
C584 C582 1.415 . S
C584 C589 1.425 . S
C584 C591 1.409 . S
C585 H577 0.930 . S
C585 C583 1.419 . S
C585 C586 1.362 . S
C586 H578 0.930 . S
C586 C585 1.362 . S
C586 C589 1.409 . S
C587 H579 0.930 . S
C587 C588 1.355 . S
C587 C589 1.415 . S
C588 C587 1.355 . S
C588 C590 1.419 . S
C589 C584 1.425 . S
C589 C586 1.409 . S
C589 C587 1.415 . S
C590 H580 0.930 . S
C590 C588 1.419 . S
C590 C591 1.362 . S
C591 H581 0.930 . S
C591 C584 1.409 . S
C591 C590 1.362 . S
H592 C598 0.930 . S
H593 C601 0.930 . S
H594 C602 0.930 . S
H595 C603 0.930 . S
H596 C606 0.930 . S
H597 C607 0.930 . S
C598 H592 0.930 . S
C598 C599 1.355 . S
C598 C600 1.415 . S
C599 C598 1.355 . S
C599 C601 1.419 1_655 S
C600 C598 1.415 . S
C600 C605 1.425 . S
C600 C607 1.409 . S
C601 H593 0.930 . S
C601 C599 1.419 1_455 S
C601 C602 1.362 . S
C602 H594 0.930 . S
C602 C601 1.362 . S
C602 C605 1.409 1_455 S
C603 H595 0.930 . S
C603 C604 1.355 . S
C603 C605 1.415 . S
C604 C603 1.355 . S
C604 C606 1.419 . S
C605 C600 1.425 . S
C605 C602 1.409 1_655 S
C605 C603 1.415 . S
C606 H596 0.930 . S
C606 C604 1.419 . S
C606 C607 1.362 . S
C607 H597 0.930 . S
C607 C600 1.409 . S
C607 C606 1.362 . S
H608 C614 0.930 . S
H609 C617 0.930 . S
H610 C618 0.930 . S
H611 C619 0.930 . S
H612 C622 0.930 . S
H613 C623 0.930 . S
C614 H608 0.930 . S
C614 C615 1.355 1_546 S
C614 C616 1.415 . S
C615 C614 1.355 1_564 S
C615 C617 1.419 . S
C616 C614 1.415 . S
C616 C621 1.425 1_546 S
C616 C623 1.409 . S
C617 H609 0.930 . S
C617 C615 1.419 . S
C617 C618 1.362 . S
C618 H610 0.930 . S
C618 C617 1.362 . S
C618 C621 1.409 . S
C619 H611 0.930 . S
C619 C620 1.355 1_564 S
C619 C621 1.415 . S
C620 C619 1.355 1_546 S
C620 C622 1.419 . S
C621 C616 1.425 1_564 S
C621 C618 1.409 . S
C621 C619 1.415 . S
C622 H612 0.930 . S
C622 C620 1.419 . S
C622 C623 1.362 . S
C623 H613 0.930 . S
C623 C616 1.409 . S
C623 C622 1.362 . S
H624 C630 0.930 . S
H625 C633 0.930 . S
H626 C634 0.930 . S
H627 C635 0.930 . S
H628 C638 0.930 . S
H629 C639 0.930 . S
C630 H624 0.930 . S
C630 C631 1.359 . S
C630 C632 1.415 . S
C631 C630 1.359 . S
C631 C633 1.413 1_556 S
C632 C630 1.415 . S
C632 C637 1.425 1_556 S
C632 C639 1.409 . S
C633 H625 0.930 . S
C633 C631 1.413 1_554 S
C633 C634 1.362 . S
C634 H626 0.930 . S
C634 C633 1.362 . S
C634 C637 1.409 . S
C635 H627 0.930 . S
C635 C636 1.359 . S
C635 C637 1.415 . S
C636 C635 1.359 . S
C636 C638 1.413 1_554 S
C637 C632 1.425 1_554 S
C637 C634 1.409 . S
C637 C635 1.415 . S
C638 H628 0.930 . S
C638 C636 1.413 1_556 S
C638 C639 1.362 . S
C639 H629 0.930 . S
C639 C632 1.409 . S
C639 C638 1.362 . S
H640 C646 0.930 . S
H641 C649 0.930 . S
H642 C650 0.930 . S
H643 C651 0.930 . S
H644 C654 0.930 . S
H645 C655 0.930 . S
C646 H640 0.930 . S
C646 C647 1.352 1_554 S
C646 C648 1.412 1_655 S
C647 C646 1.352 1_556 S
C647 C649 1.422 . S
C648 C646 1.412 1_455 S
C648 C653 1.425 1_454 S
C648 C655 1.412 . S
C649 H641 0.930 . S
C649 C647 1.422 . S
C649 C650 1.362 . S
C650 H642 0.930 . S
C650 C649 1.362 . S
C650 C653 1.412 . S
C651 H643 0.930 . S
C651 C652 1.352 1_556 S
C651 C653 1.411 1_455 S
C652 C651 1.352 1_554 S
C652 C654 1.422 . S
C653 C648 1.425 1_656 S
C653 C650 1.412 . S
C653 C651 1.411 1_655 S
C654 H644 0.930 . S
C654 C652 1.422 . S
C654 C655 1.362 . S
C655 H645 0.930 . S
C655 C648 1.412 . S
C655 C654 1.362 . S
H656 C662 0.930 . S
H657 C665 0.930 . S
H658 C666 0.930 . S
H659 C667 0.930 . S
H660 C670 0.930 . S
H661 C671 0.930 . S
C662 H656 0.930 . S
C662 C663 1.355 1_454 S
C662 C664 1.415 . S
C663 C662 1.355 1_656 S
C663 C665 1.419 . S
C664 C662 1.415 . S
C664 C669 1.425 1_444 S
C664 C671 1.409 1_545 S
C665 H657 0.930 . S
C665 C663 1.419 . S
C665 C666 1.362 . S
C666 H658 0.930 . S
C666 C665 1.362 . S
C666 C669 1.409 1_545 S
C667 H659 0.930 . S
C667 C668 1.355 1_656 S
C667 C669 1.415 . S
C668 C667 1.355 1_454 S
C668 C670 1.419 . S
C669 C664 1.425 1_666 S
C669 C666 1.409 1_565 S
C669 C667 1.415 . S
C670 H660 0.930 . S
C670 C668 1.419 . S
C670 C671 1.362 . S
C671 H661 0.930 . S
C671 C664 1.409 1_565 S
C671 C670 1.362 . S
H672 C678 0.930 . S
H673 C681 0.930 . S
H674 C682 0.930 . S
H675 C683 0.930 . S
H676 C686 0.930 . S
H677 C687 0.930 . S
C678 H672 0.930 . S
C678 C679 1.355 1_545 S
C678 C680 1.415 . S
C679 C678 1.355 1_565 S
C679 C681 1.419 . S
C680 C678 1.415 . S
C680 C685 1.425 1_445 S
C680 C687 1.409 1_455 S
C681 H673 0.930 . S
C681 C679 1.419 . S
C681 C682 1.362 . S
C682 H674 0.930 . S
C682 C681 1.362 . S
C682 C685 1.409 1_455 S
C683 H675 0.930 . S
C683 C684 1.355 1_565 S
C683 C685 1.415 . S
C684 C683 1.355 1_545 S
C684 C686 1.419 . S
C685 C680 1.425 1_665 S
C685 C682 1.409 1_655 S
C685 C683 1.415 . S
C686 H676 0.930 . S
C686 C684 1.419 . S
C686 C687 1.362 . S
C687 H677 0.930 . S
C687 C680 1.409 1_655 S
C687 C686 1.362 . S
H688 C694 0.930 . S
H689 C697 0.930 . S
H690 C698 0.907 1_545 S
H691 C699 0.930 . S
H692 C702 0.930 . S
H693 C703 0.907 1_565 S
C694 H688 0.930 . S
C694 C695 1.355 . S
C694 C696 1.415 . S
C695 C694 1.355 . S
C695 C697 1.419 . S
C696 C694 1.415 . S
C696 C701 1.425 1_565 S
C696 C703 1.397 1_565 S
C697 H689 0.930 . S
C697 C695 1.419 . S
C697 C698 1.398 . S
C698 H690 0.907 1_565 S
C698 C697 1.398 . S
C698 C701 1.397 1_565 S
C699 H691 0.930 . S
C699 C700 1.355 . S
C699 C701 1.415 . S
C700 C699 1.355 . S
C700 C702 1.419 . S
C701 C696 1.425 1_545 S
C701 C698 1.397 1_545 S
C701 C699 1.415 . S
C702 H692 0.930 . S
C702 C700 1.419 . S
C702 C703 1.398 . S
C703 H693 0.907 1_545 S
C703 C696 1.397 1_545 S
C703 C702 1.398 . S
H704 C710 0.930 . S
H705 C713 0.930 . S
H706 C714 0.930 . S
H707 C715 0.930 . S
H708 C718 0.930 . S
H709 C719 0.930 . S
C710 H704 0.930 . S
C710 C711 1.355 . S
C710 C712 1.415 . S
C711 C710 1.355 . S
C711 C713 1.419 . S
C712 C710 1.415 . S
C712 C717 1.425 . S
C712 C719 1.409 . S
C713 H705 0.930 . S
C713 C711 1.419 . S
C713 C714 1.362 . S
C714 H706 0.930 . S
C714 C713 1.362 . S
C714 C717 1.409 . S
C715 H707 0.930 . S
C715 C716 1.355 . S
C715 C717 1.415 . S
C716 C715 1.355 . S
C716 C718 1.419 . S
C717 C712 1.425 . S
C717 C714 1.409 . S
C717 C715 1.415 . S
C718 H708 0.930 . S
C718 C716 1.419 . S
C718 C719 1.362 . S
C719 H709 0.930 . S
C719 C712 1.409 . S
C719 C718 1.362 . S
H720 C726 0.930 . S
H721 C729 0.930 . S
H722 C730 0.930 . S
H723 C731 0.930 . S
H724 C734 0.930 . S
H725 C735 0.930 . S
C726 H720 0.930 . S
C726 C727 1.355 1_455 S
C726 C728 1.415 . S
C727 C726 1.355 1_655 S
C727 C729 1.419 . S
C728 C726 1.415 . S
C728 C733 1.425 1_455 S
C728 C735 1.409 . S
C729 H721 0.930 . S
C729 C727 1.419 . S
C729 C730 1.362 . S
C730 H722 0.930 . S
C730 C729 1.362 . S
C730 C733 1.409 . S
C731 H723 0.930 . S
C731 C732 1.355 1_655 S
C731 C733 1.415 . S
C732 C731 1.355 1_455 S
C732 C734 1.419 . S
C733 C728 1.425 1_655 S
C733 C730 1.409 . S
C733 C731 1.415 . S
C734 H724 0.930 . S
C734 C732 1.419 . S
C734 C735 1.362 . S
C735 H725 0.930 . S
C735 C728 1.409 . S
C735 C734 1.362 . S
C231 C82 0.886 . S
C236 C0 0.907 . S
C247 C97 1.148 . S
C252 C26 1.187 . S
C263 C40 0.882 . S
C268 C98 0.953 . S
C279 C42 0.742 . S
C284 C56 0.658 . S
C295 C112 0.961 . S
C300 C194 0.886 . S
C311 C196 1.130 . S
C316 C138 1.176 . S
C327 C211 0.996 . S
C332 C141 0.980 . S
C343 C155 0.735 . S
C348 C180 0.741 . S
C359 C1 1.844 1_556 S
C364 C168 1.868 1_565 S
C375 C182 1.988 . S
C380 C27 1.980 1_556 S
C391 C41 2.045 1_556 S
C396 C208 2.083 . S
C407 C43 1.891 1_556 S
C412 C223 1.920 1_655 S
C423 C57 1.937 . S
C428 C124 1.949 1_545 S
C439 C83 2.032 . S
C444 C126 2.093 . S
C455 C96 1.974 . S
C460 C153 1.992 . S
C471 C99 1.842 . S
C476 C167 1.865 1_455 S
C487 C68 1.853 . S
C492 C113 1.864 1_554 S
C503 C70 1.971 . S
C508 C139 1.935 1_554 S
C519 C85 2.087 . S
C524 C140 2.035 1_554 S
C535 C154 1.915 1_554 S
C540 C110 1.915 1_455 S
C551 C12 1.950 1_565 S
C556 C181 1.929 . S
C567 C195 2.067 . S
C572 C14 2.086 . S
C583 C197 1.939 . S
C588 C28 1.964 . S
C599 C54 1.828 1_655 S
C604 C210 1.834 . S
C615 C125 1.530 1_564 S
C620 C13 1.529 1_546 S
C631 C127 1.611 . S
C636 C15 1.610 . S
C647 C29 1.865 1_556 S
C652 C152 1.865 1_554 S
C663 C166 1.708 1_655 S
C668 C55 1.707 1_455 S
C679 C69 1.722 1_565 S
C684 C169 1.724 1_545 S
C695 C183 1.873 . S
C700 C71 1.873 . S
C711 C209 1.628 . S
C716 C84 1.628 . S
C727 C222 1.516 . S
C732 C111 1.516 . S
