# Generated by pormake.
# Topology afw, (4)-cn, num edge types: 1
# Building blocks:
#     Node 0, Type 0, BuildingBlock: ESEHIV_clean_sbu_0, # of connection points: 4
#     Node 1, Type 0, BuildingBlock: ESEHIV_clean_sbu_0, # of connection points: 4
#     Node 2, Type 0, BuildingBlock: ESEHIV_clean_sbu_0, # of connection points: 4
#     Node 3, Type 0, BuildingBlock: ESEHIV_clean_sbu_0, # of connection points: 4
#     Node 4, Type 0, BuildingBlock: ESEHIV_clean_sbu_0, # of connection points: 4
#     Node 5, Type 0, BuildingBlock: ESEHIV_clean_sbu_0, # of connection points: 4
#     Node 6, Type 0, BuildingBlock: ESEHIV_clean_sbu_0, # of connection points: 4
#     Node 7, Type 0, BuildingBlock: ESEHIV_clean_sbu_0, # of connection points: 4
#     Node 8, Type 0, BuildingBlock: ESEHIV_clean_sbu_0, # of connection points: 4
#     Edge 9, Type (0, 0), BuildingBlock: EZIPEK_clean_linker_0, # of connection points: 2
#     Edge 10, Type (0, 0), BuildingBlock: EZIPEK_clean_linker_0, # of connection points: 2
#     Edge 11, Type (0, 0), BuildingBlock: EZIPEK_clean_linker_0, # of connection points: 2
#     Edge 12, Type (0, 0), BuildingBlock: EZIPEK_clean_linker_0, # of connection points: 2
#     Edge 13, Type (0, 0), BuildingBlock: EZIPEK_clean_linker_0, # of connection points: 2
#     Edge 14, Type (0, 0), BuildingBlock: EZIPEK_clean_linker_0, # of connection points: 2
#     Edge 15, Type (0, 0), BuildingBlock: EZIPEK_clean_linker_0, # of connection points: 2
#     Edge 16, Type (0, 0), BuildingBlock: EZIPEK_clean_linker_0, # of connection points: 2
#     Edge 17, Type (0, 0), BuildingBlock: EZIPEK_clean_linker_0, # of connection points: 2
#     Edge 18, Type (0, 0), BuildingBlock: EZIPEK_clean_linker_0, # of connection points: 2
#     Edge 19, Type (0, 0), BuildingBlock: EZIPEK_clean_linker_0, # of connection points: 2
#     Edge 20, Type (0, 0), BuildingBlock: EZIPEK_clean_linker_0, # of connection points: 2
#     Edge 21, Type (0, 0), BuildingBlock: EZIPEK_clean_linker_0, # of connection points: 2
#     Edge 22, Type (0, 0), BuildingBlock: EZIPEK_clean_linker_0, # of connection points: 2
#     Edge 23, Type (0, 0), BuildingBlock: EZIPEK_clean_linker_0, # of connection points: 2
#     Edge 24, Type (0, 0), BuildingBlock: EZIPEK_clean_linker_0, # of connection points: 2
#     Edge 25, Type (0, 0), BuildingBlock: EZIPEK_clean_linker_0, # of connection points: 2
#     Edge 26, Type (0, 0), BuildingBlock: EZIPEK_clean_linker_0, # of connection points: 2
# Relax obj value: 0.058
# Max RMSD: 0.177
# Mean RMSD: 0.160
data_MOF--net-afw--node1-ESEHIV_clean_sbu_0--edge1-EZIPEK_clean_linker_0
_symmetry_space_group_name_H-M    P1
_symmetry_Int_Tables_number       1
_symmetry_cell_setting            triclinic
loop_
_symmetry_equiv_pos_as_xyz
'x, y, z'
_cell_length_a     36.292392
_cell_length_b     40.914146
_cell_length_c     15.825339
_cell_angle_alpha  99.152224
_cell_angle_beta   90.974613
_cell_angle_gamma 118.2014
loop_
_atom_site_label
_atom_site_type_symbol
_atom_site_fract_x
_atom_site_fract_y
_atom_site_fract_z
_atom_type_partial_charge
Cu0 Cu 0.06724 0.20927 0.04705 0.0
N1 N 0.04426 0.16194 0.97248 0.0
N2 N 1.01461 0.09927 0.92869 0.0
C3 C 1.02829 0.12804 -0.00311 0.0
C4 C 1.02215 0.11546 0.85859 0.0
C5 C 0.04046 0.15418 0.88583 0.0
O6 O 0.09171 0.20654 0.15503 0.0
C7 C 1.03436 0.25474 0.1228 0.0
O8 O 0.07346 0.27544 0.15771 0.0
H9 H 1.02697 0.1245 0.0633 0.0
H10 H 0.05058 0.17523 0.84541 0.0
N11 N 0.11019 0.25068 0.00691 0.0
N12 N 0.14415 0.30581 0.96244 0.0
C13 C 0.10733 0.27337 0.9565 0.0
C14 C 0.14998 0.26994 0.04557 0.0
C15 C 0.17098 0.30345 0.01754 0.0
C16 C 0.10922 0.18999 0.18792 0.0
O17 O 0.12195 0.20153 0.2707 0.0
H18 H 0.07838 0.26767 0.92168 0.0
H19 H 0.16213 0.26146 0.0959 0.0
O20 O 1.02358 0.22322 0.07306 0.0
H21 H 1.01531 0.10035 0.79271 0.0
H22 H 0.20274 0.32561 0.04003 0.0
Cu23 Cu 0.90875 0.85721 0.06978 0.0
N24 N 0.92298 0.88826 0.9868 0.0
N25 N 0.94638 0.94205 0.93664 0.0
C26 C 0.93532 0.92555 0.00597 0.0
C27 C 0.94058 0.91422 0.87075 0.0
C28 C 0.92593 0.88093 0.90183 0.0
O29 O 0.95457 0.88528 0.16247 0.0
C30 C 0.82415 0.82559 0.03299 0.0
O31 O 0.83595 0.81565 0.95975 0.0
H32 H 0.93686 0.94049 0.06991 0.0
H33 H 0.9185 0.85356 0.86513 0.0
N34 N 0.90515 0.8096 0.03475 0.0
N35 N 0.88398 0.74879 0.03654 0.0
C36 C 0.88469 0.78073 0.07645 0.0
C37 C 0.91836 0.79541 0.9664 0.0
C38 C 0.90515 0.7577 0.96726 0.0
C39 C 0.99038 0.89174 0.13816 0.0
O40 O 0.99208 0.87712 0.05915 0.0
H41 H 0.86994 0.78293 0.13433 0.0
H42 H 0.93583 0.81106 0.91876 0.0
O43 O 0.85207 0.8462 0.09631 0.0
H44 H 0.94702 0.91787 0.80537 0.0
H45 H 0.90999 0.7382 0.92012 0.0
Cu46 Cu 0.2289 0.02738 0.12619 0.0
N47 N 0.2443 1.00503 0.03119 0.0
N48 N 0.2756 0.97598 0.95672 0.0
C49 C 0.26237 0.98296 0.03301 0.0
C50 C 0.26507 0.99375 0.90401 0.0
C51 C 0.24577 1.01181 0.9504 0.0
O52 O 0.27853 0.05488 0.2096 0.0
C53 C 0.16265 0.99305 0.23342 0.0
O54 O 0.18653 1.02088 0.29663 0.0
H55 H 0.26689 0.97298 0.08942 0.0
H56 H 0.23526 0.02996 0.928 0.0
N57 N 0.21844 0.06472 0.09673 0.0
N58 N 0.18937 0.10208 0.09593 0.0
C59 C 0.18262 0.06701 0.10063 0.0
C60 C 0.24845 0.0991 0.08757 0.0
C61 C 0.23063 0.12222 0.08713 0.0
C62 C 0.29932 0.04219 0.24572 0.0
O63 O 0.28358 1.00577 0.24293 0.0
H64 H 0.15301 0.04442 0.11292 0.0
H65 H 0.2815 0.10741 0.08715 0.0
O66 O 0.17706 0.98982 0.16163 0.0
H67 H 0.27239 0.99481 0.83815 0.0
H68 H 0.247 0.15202 0.08466 0.0
Cu69 Cu 0.75349 0.5413 0.3231 0.0
N70 N 0.70094 0.49774 0.30133 0.0
N71 N 0.64805 0.44252 0.31953 0.0
C72 C 0.68975 0.46656 0.33534 0.0
C73 C 0.63235 0.45905 0.27351 0.0
C74 C 0.66513 0.49312 0.26215 0.0
O75 O 0.79338 0.5246 0.35654 0.0
C76 C 0.72701 0.56911 0.47432 0.0
O77 O 0.71747 0.53661 0.49618 0.0
H78 H 0.71132 0.46245 0.37478 0.0
H79 H 0.66273 0.51396 0.23151 0.0
N80 N 0.76813 0.56277 0.22435 0.0
N81 N 0.79615 0.60602 0.1409 0.0
C82 C 0.79002 0.59996 0.22213 0.0
C83 C 0.76015 0.54485 0.14169 0.0
C84 C 0.77746 0.57153 0.08995 0.0
C85 C 0.82636 0.53044 0.31953 0.0
O86 O 0.83892 0.5539 0.26541 0.0
H87 H 0.80155 0.62212 0.27882 0.0
H88 H 0.74323 0.5145 0.12072 0.0
O89 O 0.74671 0.57776 0.40857 0.0
H90 H 0.5994 0.44785 0.25235 0.0
H91 H 0.77661 0.56613 0.02053 0.0
Cu92 Cu 0.54759 0.19988 0.44411 0.0
N93 N 0.54846 0.24682 0.46381 0.0
N94 N 0.56366 0.3051 0.44797 0.0
C95 C 0.57085 0.27575 0.42347 0.0
C96 C 0.53551 0.29446 0.50611 0.0
C97 C 0.52643 0.25852 0.51631 0.0
O98 O 0.6035 0.20859 0.41869 0.0
C99 C 0.46774 0.16477 0.34819 0.0
O100 O 0.46901 0.19749 0.37286 0.0
H101 H 0.59186 0.2755 0.37632 0.0
H102 H 0.50467 0.24178 0.55766 0.0
N103 N 0.53893 0.17826 0.54195 0.0
N104 N 0.52057 0.12597 0.59593 0.0
C105 C 0.50892 0.14247 0.54142 0.0
C106 C 0.56982 0.18513 0.6017 0.0
C107 C 0.55857 0.15292 0.6351 0.0
C108 C 0.62277 0.22193 0.35573 0.0
O109 O 0.60235 0.2249 0.29063 0.0
H110 H 0.48216 0.12695 0.49294 0.0
H111 H 0.60068 0.20972 0.61124 0.0
O112 O 0.50079 0.16193 0.36093 0.0
H113 H 0.52252 0.31143 0.53855 0.0
H114 H 0.57863 0.14834 0.67774 0.0
Cu115 Cu 0.91674 0.37344 0.34053 0.0
N116 N 0.96136 0.3972 0.42809 0.0
N117 N 1.02641 0.42242 0.49314 0.0
C118 C 1.0021 0.40839 0.41727 0.0
C119 C 1.00022 0.41991 0.55414 0.0
C120 C 0.95996 0.40428 0.51372 0.0
O121 O 0.93774 0.35104 0.24779 0.0
C122 C 0.91215 0.44243 0.35343 0.0
O123 O 0.94453 0.45677 0.41202 0.0
H124 H 1.01359 0.40556 0.35533 0.0
H125 H 0.93158 0.39792 0.54447 0.0
N126 N 0.87025 0.33531 0.37857 0.0
N127 N 0.8036 0.29442 0.38966 0.0
C128 C 0.82967 0.32242 0.35044 0.0
C129 C 0.8697 0.31479 0.43769 0.0
C130 C 0.8284 0.28952 0.44492 0.0
C131 C 0.92276 0.31545 0.22398 0.0
O132 O 0.88685 0.29234 0.24894 0.0
H133 H 0.8194 0.3336 0.30303 0.0
H134 H 0.89737 0.31808 0.47313 0.0
O135 O 0.89831 0.40882 0.31124 0.0
H136 H 1.00954 0.42825 0.62279 0.0
H137 H 0.81734 0.26953 0.48802 0.0
Cu138 Cu 0.41148 0.88394 0.72338 0.0
N139 N 0.36303 0.83734 0.68521 0.0
N140 N 0.31505 0.7776 0.68633 0.0
C141 C 0.35598 0.8037 0.70198 0.0
C142 C 0.29527 0.79508 0.65731 0.0
C143 C 0.32506 0.83197 0.65636 0.0
O144 O 0.45867 0.87581 0.75278 0.0
C145 C 0.37292 0.90067 0.86867 0.0
O146 O 0.3659 0.86844 0.88862 0.0
H147 H 0.37951 0.7988 0.73123 0.0
H148 H 0.31894 0.85416 0.6428 0.0
N149 N 0.42858 0.91286 0.63779 0.0
N150 N 0.45646 0.96833 0.59432 0.0
C151 C 0.42745 0.94548 0.64027 0.0
C152 C 0.45841 0.91469 0.58646 0.0
C153 C 0.47565 0.94887 0.55953 0.0
C154 C 0.45976 0.85479 0.80291 0.0
O155 O 0.43061 0.84218 0.85535 0.0
H156 H 0.40942 0.95422 0.68298 0.0
H157 H 0.47007 0.89458 0.57735 0.0
O158 O 0.39646 0.91336 0.81033 0.0
H159 H 0.26156 0.78284 0.64377 0.0
H160 H 0.50252 0.95991 0.52312 0.0
Cu161 Cu 0.25525 0.53684 0.75399 0.0
N162 N 0.25252 0.58048 0.79692 0.0
N163 N 0.2575 0.63669 0.79418 0.0
C164 C 0.27231 0.61272 0.76637 0.0
C165 C 0.22735 0.61907 0.84452 0.0
C166 C 0.22428 0.5842 0.84598 0.0
O167 O 0.31298 0.55408 0.72409 0.0
C168 C 0.20044 0.48286 0.60221 0.0
O169 O 0.2269 0.46959 0.58887 0.0
H170 H 0.29509 0.61751 0.72004 0.0
H171 H 0.20133 0.56219 0.87597 0.0
N172 N 0.24185 0.5056 0.83542 0.0
N173 N 0.21392 0.45319 0.89107 0.0
C174 C 0.21632 0.46794 0.81978 0.0
C175 C 0.25557 0.51504 0.91983 0.0
C176 C 0.23842 0.48261 0.95439 0.0
C177 C 0.33879 0.54551 0.7573 0.0
O178 O 0.32506 0.51869 0.80302 0.0
H179 H 0.20042 0.45152 0.7573 0.0
H180 H 0.27703 0.54339 0.95338 0.0
O181 O 0.20974 0.51125 0.66142 0.0
H182 H 0.20784 0.63 0.8747 0.0
H183 H 0.24386 0.48061 0.02038 0.0
Cu184 Cu 0.59781 0.70599 0.77583 0.0
N185 N 0.61756 0.68684 0.68207 0.0
N186 N 0.64866 0.65821 0.60432 0.0
C187 C 0.63975 0.66811 0.68375 0.0
C188 C 0.63145 0.67098 0.55067 0.0
C189 C 0.61243 0.68878 0.59886 0.0
O190 O 0.64174 0.72558 0.87173 0.0
C191 C 0.51942 0.63661 0.74469 0.0
O192 O 0.53686 0.62577 0.68217 0.0
H193 H 0.64853 0.66128 0.74155 0.0
H194 H 0.59552 0.7018 0.57486 0.0
N195 N 0.5925 0.74703 0.75254 0.0
N196 N 0.56883 0.78848 0.75458 0.0
C197 C 0.56232 0.75582 0.77668 0.0
C198 C 0.61886 0.77511 0.71386 0.0
C199 C 0.60417 0.80074 0.71469 0.0
C200 C 0.64908 0.75339 0.93152 0.0
O201 O 0.62154 0.76561 0.94091 0.0
H202 H 0.53626 0.73878 0.81012 0.0
H203 H 0.64701 0.77697 0.68781 0.0
O204 O 0.54132 0.66824 0.79573 0.0
H205 H 0.63203 0.66708 0.48152 0.0
H206 H 0.61817 0.82629 0.68819 0.0
C207 C 0.13915 0.11486 0.18182 0.0
C208 C 0.16051 0.1171 0.10713 0.0
C209 C 0.1372 0.16029 0.06674 0.0
C210 C 0.11602 0.15827 0.14226 0.0
N211 N 0.08224 0.12037 0.24778 0.0
N212 N 0.16889 0.13228 0.96604 0.0
C213 C 0.11176 0.13064 0.19092 0.0
C214 C 0.15597 0.13678 0.04554 0.0
N215 N 0.14799 0.10124 0.24814 0.0
N216 N 0.14056 0.18517 0.01634 0.0
H217 H 0.18123 0.11404 0.94835 0.0
H218 H 0.16317 0.14318 0.91521 0.0
H219 H 0.1225 0.19837 0.02369 0.0
H220 H 0.16077 0.19227 0.96841 0.0
H221 H 0.13599 0.10255 0.30723 0.0
H222 H 0.171 0.09289 0.24809 0.0
H223 H 0.07589 0.0984 0.28062 0.0
H224 H 0.06119 0.13109 0.254 0.0
C225 C 0.93611 0.99642 0.91963 0.0
C226 C 0.9635 0.98176 0.93493 0.0
C227 C 1.02456 0.04433 0.94106 0.0
C228 C 0.99724 0.05951 0.93051 0.0
N229 N 0.92759 0.05194 0.91795 0.0
N230 N 1.03291 0.99174 0.97217 0.0
C231 C 0.95306 0.036 0.92199 0.0
C232 C 1.00756 1.0058 0.94918 0.0
N233 N 0.89398 0.97215 0.9017 0.0
N234 N 0.06673 0.06667 0.94015 0.0
H235 H 1.0212 0.96344 0.97671 0.0
H236 H 0.06488 1.00841 -0.00755 0.0
H237 H 0.07952 0.09471 0.93277 0.0
H238 H 0.08849 0.05687 0.93986 0.0
H239 H 0.87216 0.97993 0.8824 0.0
H240 H 0.88102 0.94331 0.90176 0.0
H241 H 0.89515 0.03743 0.91913 0.0
H242 H 0.93949 0.08071 0.91839 0.0
C243 C 0.04519 0.95589 0.21835 0.0
C244 C 1.03079 0.91656 0.19355 0.0
C245 C 0.10275 0.92716 0.22154 0.0
C246 C 0.11755 0.96669 0.24061 0.0
N247 N 0.10142 1.01726 0.28689 0.0
N248 N 0.04279 0.86383 0.19656 0.0
C249 C 0.08827 0.98057 0.24944 0.0
C250 C 0.05872 0.90195 0.20388 0.0
N251 N 1.0186 0.97014 0.20645 0.0
N252 N 0.13103 0.91392 0.21803 0.0
H253 H 1.01055 0.84509 0.18497 0.0
H254 H 0.0607 0.85114 0.20958 0.0
H255 H 0.1631 0.93153 0.23683 0.0
H256 H 0.12308 0.88593 0.19427 0.0
H257 H 1.02872 0.99883 0.21036 0.0
H258 H 0.98653 0.95315 0.18817 0.0
H259 H 0.0809 0.02797 0.30201 0.0
H260 H 0.13235 0.03606 0.31181 0.0
C261 C 0.87668 0.47938 0.41819 0.0
C262 C 0.88907 0.464 0.34397 0.0
C263 C 0.85421 0.48711 0.25375 0.0
C264 C 0.8475 0.50723 0.3286 0.0
N265 N 0.8592 0.52738 0.48297 0.0
N266 N 0.89569 0.4591 0.19161 0.0
C267 C 0.86061 0.5047 0.41116 0.0
C268 C 0.87949 0.46946 0.2618 0.0
N269 N 0.87821 0.46843 0.49482 0.0
N270 N 0.83472 0.48308 0.17517 0.0
H271 H 0.91503 0.44684 0.19489 0.0
H272 H 0.89331 0.46609 0.13198 0.0
H273 H 0.81406 0.49361 0.16659 0.0
H274 H 0.83526 0.46561 0.12013 0.0
H275 H 0.8657 0.47591 0.5486 0.0
H276 H 0.88752 0.44842 0.50208 0.0
H277 H 0.87248 0.5295 0.54384 0.0
H278 H 0.84851 0.54686 0.48061 0.0
C279 C 0.60804 0.37482 0.47382 0.0
C280 C 0.58243 0.34022 0.41658 0.0
C281 C 0.60195 0.37309 0.29434 0.0
C282 C 0.62466 0.40806 0.35215 0.0
N283 N 0.64035 0.44302 0.49728 0.0
N284 N 0.54749 0.30767 0.2746 0.0
C285 C 0.62506 0.40916 0.44218 0.0
C286 C 0.57715 0.33975 0.32731 0.0
N287 N 0.61783 0.37475 0.55743 0.0
N288 N 0.60553 0.3715 0.20825 0.0
H289 H 0.52782 0.28332 0.29768 0.0
H290 H 0.53955 0.30647 0.21018 0.0
H291 H 0.62437 0.39528 0.1825 0.0
H292 H 0.593 0.34625 0.16368 0.0
H293 H 0.63971 0.39885 0.59991 0.0
H294 H 0.60724 0.35 0.58194 0.0
H295 H 0.6381 0.44544 0.56331 0.0
H296 H 0.65103 0.4684 0.47555 0.0
C297 C 0.69328 0.27228 0.43122 0.0
C298 C 0.66955 0.24046 0.36396 0.0
C299 C 0.73512 0.24364 0.31619 0.0
C300 C 0.75839 0.27617 0.38064 0.0
N301 N 0.76155 0.32488 0.49169 0.0
N302 N 0.66729 0.19741 0.23813 0.0
C303 C 0.73793 0.29134 0.43613 0.0
C304 C 0.69036 0.22667 0.30486 0.0
N305 N 0.67328 0.28425 0.49091 0.0
N306 N 0.75619 0.22866 0.26746 0.0
H307 H 0.6345 0.18297 0.23074 0.0
H308 H 0.68032 0.18835 0.18772 0.0
H309 H 0.78894 0.24118 0.27397 0.0
H310 H 0.74164 0.20303 0.22435 0.0
H311 H 0.68857 0.30377 0.54742 0.0
H312 H 0.64087 0.27342 0.48708 0.0
H313 H 0.74908 0.34028 0.52716 0.0
H314 H 0.79435 0.3389 0.49799 0.0
C315 C 0.486 0.81581 0.70932 0.0
C316 C 0.48903 0.83874 0.79004 0.0
C317 C 0.547 0.83 0.84522 0.0
C318 C 0.54212 0.80561 0.7667 0.0
N319 N 0.50465 0.77098 0.62851 0.0
N320 N 0.52021 0.8658 0.93694 0.0
C321 C 0.51107 0.7975 0.69989 0.0
C322 C 0.51886 0.84519 0.8588 0.0
N323 N 0.45925 0.81147 0.64132 0.0
N324 N 0.57937 0.83918 0.90566 0.0
H325 H 0.50205 0.87932 0.94762 0.0
H326 H 0.53787 0.86831 -0.00759 0.0
H327 H 0.59976 0.82784 0.89719 0.0
H328 H 0.58775 0.85949 0.96149 0.0
H329 H 0.45981 0.79957 0.57846 0.0
H330 H 0.4377 0.82148 0.64563 0.0
H331 H 0.47936 0.75998 0.5813 0.0
H332 H 0.52317 0.75775 0.61941 0.0
C333 C 0.27748 0.7077 0.6519 0.0
C334 C 0.29613 0.74166 0.71366 0.0
C335 C 0.28911 0.70611 0.82873 0.0
C336 C 0.26866 0.67202 0.76769 0.0
N337 N 0.23482 0.63941 0.625 0.0
N338 N 0.30974 0.77267 0.86183 0.0
C339 C 0.26025 0.67253 0.68017 0.0
C340 C 0.29891 0.74066 0.80256 0.0
N341 N 0.2777 0.70922 0.56638 0.0
N342 N 0.30076 0.70557 0.91076 0.0
H343 H 0.31504 0.7978 0.8438 0.0
H344 H 0.30895 0.77325 0.92776 0.0
H345 H 0.2946 0.68066 0.93138 0.0
H346 H 0.31962 0.72993 0.95595 0.0
H347 H 0.26846 0.68561 0.51783 0.0
H348 H 0.29009 0.73469 0.54428 0.0
H349 H 0.22447 0.63805 0.56214 0.0
H350 H 0.22083 0.61343 0.64488 0.0
C351 C 0.40147 0.57613 0.67424 0.0
C352 C 0.38503 0.56902 0.75399 0.0
C353 C 0.45712 0.60364 0.82735 0.0
C354 C 0.47314 0.61393 0.74896 0.0
N355 N 0.45847 0.61789 0.60235 0.0
N356 N 0.39716 0.58496 0.90949 0.0
C357 C 0.44473 0.60237 0.67355 0.0
C358 C 0.41283 0.58525 0.83152 0.0
N359 N 0.37624 0.55696 0.59874 0.0
N360 N 0.48396 0.61018 0.89724 0.0
H361 H 0.36514 0.5738 0.91596 0.0
H362 H 0.41612 0.59964 0.96736 0.0
H363 H 0.51649 0.6228 0.89646 0.0
H364 H 0.47366 0.59968 0.9531 0.0
H365 H 0.38771 0.55821 0.53876 0.0
H366 H 0.34466 0.5369 0.5963 0.0
H367 H 0.43824 0.61318 0.54886 0.0
H368 H 0.48923 0.63882 0.60035 0.0
C369 C 0.18359 0.35018 0.86901 0.0
C370 C 0.15353 0.33936 0.92897 0.0
C371 C 0.1567 0.40133 0.94706 0.0
C372 C 0.1914 0.41391 0.89789 0.0
N373 N 0.24049 0.40165 0.8168 0.0
N374 N 0.1128 0.35487 0.03013 0.0
C375 C 0.20518 0.38852 0.85885 0.0
C376 C 0.13987 0.36481 0.96847 0.0
N377 N 0.1916 0.32351 0.82288 0.0
N378 N 0.13978 0.42439 0.97238 0.0
H379 H 0.09973 0.32832 0.04687 0.0
H380 H 0.10526 0.3736 0.06834 0.0
H381 H 0.1516 0.45115 0.95677 0.0
H382 H 0.11211 0.41586 0.00183 0.0
H383 H 0.21058 0.32841 0.7727 0.0
H384 H 0.17596 0.29533 0.83018 0.0
H385 H 0.25466 0.38547 0.79414 0.0
H386 H 0.25769 0.4298 0.81042 0.0
C387 C 0.76189 0.83268 -0.00322 0.0
C388 C 0.77877 0.81343 0.03663 0.0
C389 C 0.70778 0.75992 0.03147 0.0
C390 C 0.69219 0.7763 0.97776 0.0
N391 N 0.70476 0.82798 0.90546 0.0
N392 N 0.76885 0.76032 0.09859 0.0
C393 C 0.71908 0.81303 0.96095 0.0
C394 C 0.75184 0.77771 0.05728 0.0
N395 N 0.78728 0.86972 -0.00775 0.0
N396 N 0.68029 0.72753 0.05792 0.0
H397 H 0.80048 0.77393 0.12268 0.0
H398 H 0.75227 0.73248 0.1072 0.0
H399 H 0.64794 0.71421 0.04019 0.0
H400 H 0.68877 0.71544 0.1024 0.0
H401 H 0.77639 0.88676 0.9711 0.0
H402 H 0.81879 0.88441 0.01789 0.0
H403 H 0.72416 0.85237 0.88253 0.0
H404 H 0.67392 0.81475 0.87685 0.0
C405 C 0.36836 0.95857 0.93394 0.0
C406 C 0.34762 0.91911 0.90063 0.0
C407 C 0.27924 0.9171 0.9148 0.0
C408 C 0.29996 0.95683 0.93871 0.0
N409 N 0.36346 1.01641 0.96302 0.0
N410 N 0.28262 0.86192 0.84409 0.0
C411 C 0.34437 0.97788 0.946 0.0
C412 C 0.30281 0.89847 0.88781 0.0
N413 N 0.41083 0.97732 0.95657 0.0
N414 N 0.23679 0.89723 0.91741 0.0
H415 H 0.29812 0.84722 0.8198 0.0
H416 H 0.25047 0.84711 0.82449 0.0
H417 H 0.21855 0.91038 0.93304 0.0
H418 H 0.22028 0.86793 0.91047 0.0
H419 H 0.4273 1.00531 0.9886 0.0
H420 H 0.42916 0.96383 0.95052 0.0
H421 H 0.39536 0.03367 0.95959 0.0
H422 H 0.34674 0.03121 0.97583 0.0
C423 C 0.39462 0.12445 0.384 0.0
C424 C 0.42607 0.13012 0.32689 0.0
C425 C 0.37681 0.0706 0.23191 0.0
C426 C 0.34363 0.06899 0.2807 0.0
N427 N 0.32024 0.09532 0.40151 0.0
N428 N 0.44654 0.10975 0.19303 0.0
C429 C 0.35237 0.09619 0.3564 0.0
C430 C 0.41725 0.1032 0.25044 0.0
N431 N 0.40546 0.14484 0.46621 0.0
N432 N 0.36978 0.04108 0.16777 0.0
H433 H 0.47633 0.13341 0.20391 0.0
H434 H 0.44019 0.09338 0.13164 0.0
H435 H 0.34049 1.01718 0.1505 0.0
H436 H 0.39388 0.0387 0.13744 0.0
H437 H 0.38459 0.13945 0.51305 0.0
H438 H 0.43642 0.16428 0.49071 0.0
H439 H 0.324 0.11713 0.45094 0.0
H440 H 0.28923 0.0737 0.38624 0.0
C441 C 0.99515 0.27251 0.23295 0.0
C442 C 1.00327 0.26778 0.14578 0.0
C443 C 0.95652 0.29261 0.10776 0.0
C444 C 0.95155 0.30039 0.19608 0.0
N445 N 0.97102 0.30326 0.34479 0.0
N446 N 0.99621 0.27742 0.00123 0.0
C447 C 0.97229 0.2919 0.25927 0.0
C448 C 0.985 0.27875 0.08319 0.0
N449 N 1.00803 0.25719 0.29009 0.0
N450 N 0.93343 0.29783 0.04738 0.0
H451 H 1.01633 0.2669 0.98062 0.0
H452 H 0.98795 0.28906 0.95526 0.0
H453 H 0.91335 0.30899 0.06367 0.0
H454 H 0.93197 0.28885 0.98147 0.0
H455 H 0.99924 0.25606 0.35228 0.0
H456 H 1.02427 0.24225 0.27284 0.0
H457 H 0.98921 0.30162 0.39382 0.0
H458 H 0.95443 0.31732 0.36708 0.0
C459 C 0.86301 0.662 0.12577 0.0
C460 C 0.81847 0.64194 0.11388 0.0
C461 C 0.81779 0.69072 0.04237 0.0
C462 C 0.86209 0.71215 0.06023 0.0
N463 N 0.92692 0.72116 0.12677 0.0
N464 N 0.75283 0.63875 0.07167 0.0
C465 C 0.88476 0.69853 0.10402 0.0
C466 C 0.79565 0.65673 0.07485 0.0
N467 N 0.88434 0.64545 0.15559 0.0
N468 N 0.79721 0.70259 -0.00762 0.0
H469 H 0.73602 0.6139 0.09531 0.0
H470 H 0.73423 0.6498 0.05189 0.0
H471 H 0.81281 0.72743 0.96808 0.0
H472 H 0.76543 0.68672 0.96987 0.0
H473 H 0.91684 0.65677 0.15846 0.0
H474 H 0.86902 0.61873 0.17171 0.0
H475 H 0.94494 0.71478 0.16613 0.0
H476 H 0.94343 0.74782 0.11072 0.0
C477 C 0.14371 0.48615 0.51828 0.0
C478 C 0.15753 0.46372 0.55472 0.0
C479 C 0.08508 0.41104 0.53032 0.0
C480 C 0.07088 0.43548 0.50709 0.0
N481 N 0.08512 0.4963 0.48109 0.0
N482 N 0.1408 0.40459 0.59877 0.0
C483 C 0.09986 0.47296 0.50068 0.0
C484 C 0.12822 0.42579 0.56015 0.0
N485 N 0.17276 0.51988 0.4996 0.0
N486 N 0.05699 0.3736 0.52344 0.0
H487 H 0.17199 0.41325 0.61881 0.0
H488 H 0.11999 0.37895 0.61524 0.0
H489 H 1.0251 0.36253 0.50389 0.0
H490 H 0.06563 0.35317 0.53019 0.0
H491 H 0.16512 0.53633 0.46671 0.0
H492 H 0.20507 0.52971 0.50992 0.0
H493 H 0.10405 0.52519 0.48441 0.0
H494 H 0.05316 0.48702 0.46672 0.0
C495 C 0.66252 0.57521 0.50714 0.0
C496 C 0.70718 0.59176 0.51396 0.0
C497 C 0.7131 0.6527 0.58238 0.0
C498 C 0.66874 0.63549 0.57944 0.0
N499 N 0.60145 0.5797 0.55437 0.0
N500 N 0.77511 0.6446 0.56922 0.0
C501 C 0.6436 0.59645 0.54675 0.0
C502 C 0.73257 0.63013 0.55481 0.0
N503 N 0.63808 0.54008 0.45821 0.0
N504 N 0.73636 0.69087 0.60941 0.0
H505 H 0.79019 0.62878 0.55008 0.0
H506 H 0.79512 0.67118 0.60573 0.0
H507 H 0.72272 0.70765 0.63158 0.0
H508 H 0.76849 0.70618 0.60506 0.0
H509 H 0.60578 0.5283 0.44305 0.0
H510 H 0.65035 0.52383 0.42578 0.0
H511 H 0.58177 0.55059 0.5405 0.0
H512 H 0.5868 0.59484 0.5818 0.0
C513 C 0.4827 0.03423 0.67436 0.0
C514 C 0.47028 1.00786 0.59533 0.0
C515 C 0.49568 0.06021 0.5171 0.0
C516 C 0.50253 0.08592 0.5951 0.0
N517 N 0.49439 0.09578 0.74597 0.0
N518 N 0.45635 0.99546 0.44117 0.0
C519 C 0.49336 0.07235 0.67318 0.0
C520 C 0.47401 1.02081 0.51654 0.0
N521 N 0.48718 0.02373 0.74991 0.0
N522 N 0.51233 0.07322 0.44498 0.0
H523 H 0.43916 0.96642 0.43913 0.0
H524 H 0.45503 1.00355 0.38246 0.0
H525 H 0.53202 0.10172 0.44465 0.0
H526 H 0.51097 0.05541 0.38864 0.0
H527 H 0.4995 0.04282 0.80815 0.0
H528 H 0.4835 0.99713 0.75294 0.0
H529 H 0.4843 0.08642 0.80308 0.0
H530 H 0.50133 0.12364 0.74642 0.0
loop_
_geom_bond_atom_site_label_1
_geom_bond_atom_site_label_2
_geom_bond_distance
_geom_bond_site_symmetry_2
_ccdc_geom_bond_type
Cu0 N1 1.999 1_455 S
Cu0 O6 1.974 . S
Cu0 N11 1.985 . S
Cu0 O20 1.959 1_455 S
N1 Cu0 1.999 1_655 S
N1 C3 1.263 . S
N1 C5 1.389 . S
N2 C3 1.358 . S
N2 C4 1.400 . S
C3 N1 1.263 . S
C3 N2 1.358 . S
C3 H9 0.930 1_655 S
C4 N2 1.400 . S
C4 C5 1.351 . S
C4 H21 0.930 . S
C5 N1 1.389 . S
C5 C4 1.351 . S
C5 H10 0.930 . S
O6 Cu0 1.974 . S
O6 C16 1.282 . S
C7 O8 1.261 1_655 S
C7 O20 1.251 . S
O8 C7 1.261 1_455 S
H9 C3 0.930 1_455 S
H10 C5 0.930 . S
N11 Cu0 1.985 . S
N11 C13 1.335 . S
N11 C14 1.390 . S
N12 C13 1.345 . S
N12 C15 1.336 . S
C13 N11 1.335 . S
C13 N12 1.345 . S
C13 H18 0.929 1_554 S
C14 N11 1.390 . S
C14 C15 1.346 . S
C14 H19 0.930 . S
C15 N12 1.336 . S
C15 C14 1.346 . S
C15 H22 0.929 . S
C16 O6 1.282 . S
C16 O17 1.216 . S
O17 C16 1.216 . S
H18 C13 0.929 1_556 S
H19 C14 0.930 . S
O20 Cu0 1.959 1_655 S
O20 C7 1.251 . S
H21 C4 0.930 . S
H22 C15 0.929 . S
Cu23 N24 1.999 . S
Cu23 O29 1.974 . S
Cu23 N34 1.985 . S
Cu23 O43 1.959 . S
N24 Cu23 1.999 . S
N24 C26 1.263 . S
N24 C28 1.389 . S
N25 C26 1.358 . S
N25 C27 1.400 . S
C26 N24 1.263 . S
C26 N25 1.358 . S
C26 H32 0.930 . S
C27 N25 1.400 . S
C27 C28 1.351 . S
C27 H44 0.930 . S
C28 N24 1.389 . S
C28 C27 1.351 . S
C28 H33 0.930 . S
O29 Cu23 1.974 . S
O29 C39 1.282 . S
C30 O31 1.261 1_554 S
C30 O43 1.251 . S
O31 C30 1.261 1_556 S
H32 C26 0.930 . S
H33 C28 0.930 . S
N34 Cu23 1.985 . S
N34 C36 1.335 . S
N34 C37 1.390 . S
N35 C36 1.345 . S
N35 C38 1.336 . S
C36 N34 1.335 . S
C36 N35 1.345 . S
C36 H41 0.930 . S
C37 N34 1.390 . S
C37 C38 1.346 . S
C37 H42 0.930 . S
C38 N35 1.336 . S
C38 C37 1.346 . S
C38 H45 0.929 . S
C39 O29 1.282 . S
C39 O40 1.216 . S
O40 C39 1.216 . S
H41 C36 0.930 . S
H42 C37 0.930 . S
O43 Cu23 1.959 . S
O43 C30 1.251 . S
H44 C27 0.930 . S
H45 C38 0.929 . S
Cu46 N47 1.999 1_545 S
Cu46 O52 1.974 . S
Cu46 N57 1.985 . S
Cu46 O66 1.959 1_545 S
N47 Cu46 1.999 1_565 S
N47 C49 1.263 . S
N47 C51 1.389 1_554 S
N48 C49 1.358 1_556 S
N48 C50 1.400 . S
C49 N47 1.263 . S
C49 N48 1.358 1_554 S
C49 H55 0.930 . S
C50 N48 1.400 . S
C50 C51 1.351 . S
C50 H67 0.930 . S
C51 N47 1.389 1_556 S
C51 C50 1.351 . S
C51 H56 0.930 . S
O52 Cu46 1.974 . S
O52 C62 1.282 . S
C53 O54 1.261 . S
C53 O66 1.251 . S
O54 C53 1.261 . S
H55 C49 0.930 . S
H56 C51 0.930 . S
N57 Cu46 1.985 . S
N57 C59 1.335 . S
N57 C60 1.390 . S
N58 C59 1.345 . S
N58 C61 1.336 . S
C59 N57 1.335 . S
C59 N58 1.345 . S
C59 H64 0.930 . S
C60 N57 1.390 . S
C60 C61 1.346 . S
C60 H65 0.930 . S
C61 N58 1.336 . S
C61 C60 1.346 . S
C61 H68 0.929 . S
C62 O52 1.282 . S
C62 O63 1.216 . S
O63 C62 1.216 . S
H64 C59 0.930 . S
H65 C60 0.930 . S
O66 Cu46 1.959 1_565 S
O66 C53 1.251 . S
H67 C50 0.930 . S
H68 C61 0.929 . S
Cu69 N70 1.999 . S
Cu69 O75 1.974 . S
Cu69 N80 1.985 . S
Cu69 O89 1.959 . S
N70 Cu69 1.999 . S
N70 C72 1.263 . S
N70 C74 1.389 . S
N71 C72 1.358 . S
N71 C73 1.400 . S
C72 N70 1.263 . S
C72 N71 1.358 . S
C72 H78 0.930 . S
C73 N71 1.400 . S
C73 C74 1.351 . S
C73 H90 0.930 . S
C74 N70 1.389 . S
C74 C73 1.351 . S
C74 H79 0.930 . S
O75 Cu69 1.974 . S
O75 C85 1.282 . S
C76 O77 1.261 . S
C76 O89 1.251 . S
O77 C76 1.261 . S
H78 C72 0.930 . S
H79 C74 0.930 . S
N80 Cu69 1.985 . S
N80 C82 1.335 . S
N80 C83 1.390 . S
N81 C82 1.345 . S
N81 C84 1.336 . S
C82 N80 1.335 . S
C82 N81 1.345 . S
C82 H87 0.930 . S
C83 N80 1.390 . S
C83 C84 1.346 . S
C83 H88 0.930 . S
C84 N81 1.336 . S
C84 C83 1.346 . S
C84 H91 0.929 . S
C85 O75 1.282 . S
C85 O86 1.216 . S
O86 C85 1.216 . S
H87 C82 0.930 . S
H88 C83 0.930 . S
O89 Cu69 1.959 . S
O89 C76 1.251 . S
H90 C73 0.930 . S
H91 C84 0.929 . S
Cu92 N93 1.999 . S
Cu92 O98 1.974 . S
Cu92 N103 1.985 . S
Cu92 O112 1.959 . S
N93 Cu92 1.999 . S
N93 C95 1.263 . S
N93 C97 1.389 . S
N94 C95 1.358 . S
N94 C96 1.400 . S
C95 N93 1.263 . S
C95 N94 1.358 . S
C95 H101 0.930 . S
C96 N94 1.400 . S
C96 C97 1.351 . S
C96 H113 0.930 . S
C97 N93 1.389 . S
C97 C96 1.351 . S
C97 H102 0.930 . S
O98 Cu92 1.974 . S
O98 C108 1.282 . S
C99 O100 1.261 . S
C99 O112 1.251 . S
O100 C99 1.261 . S
H101 C95 0.930 . S
H102 C97 0.930 . S
N103 Cu92 1.985 . S
N103 C105 1.335 . S
N103 C106 1.390 . S
N104 C105 1.345 . S
N104 C107 1.336 . S
C105 N103 1.335 . S
C105 N104 1.345 . S
C105 H110 0.930 . S
C106 N103 1.390 . S
C106 C107 1.346 . S
C106 H111 0.930 . S
C107 N104 1.336 . S
C107 C106 1.346 . S
C107 H114 0.929 . S
C108 O98 1.282 . S
C108 O109 1.216 . S
O109 C108 1.216 . S
H110 C105 0.930 . S
H111 C106 0.930 . S
O112 Cu92 1.959 . S
O112 C99 1.251 . S
H113 C96 0.930 . S
H114 C107 0.929 . S
Cu115 N116 1.999 . S
Cu115 O121 1.974 . S
Cu115 N126 1.985 . S
Cu115 O135 1.959 . S
N116 Cu115 1.999 . S
N116 C118 1.263 . S
N116 C120 1.389 . S
N117 C118 1.358 . S
N117 C119 1.400 . S
C118 N116 1.263 . S
C118 N117 1.358 . S
C118 H124 0.930 . S
C119 N117 1.400 . S
C119 C120 1.351 . S
C119 H136 0.930 . S
C120 N116 1.389 . S
C120 C119 1.351 . S
C120 H125 0.930 . S
O121 Cu115 1.974 . S
O121 C131 1.282 . S
C122 O123 1.261 . S
C122 O135 1.251 . S
O123 C122 1.261 . S
H124 C118 0.930 . S
H125 C120 0.930 . S
N126 Cu115 1.985 . S
N126 C128 1.335 . S
N126 C129 1.390 . S
N127 C128 1.345 . S
N127 C130 1.336 . S
C128 N126 1.335 . S
C128 N127 1.345 . S
C128 H133 0.930 . S
C129 N126 1.390 . S
C129 C130 1.346 . S
C129 H134 0.930 . S
C130 N127 1.336 . S
C130 C129 1.346 . S
C130 H137 0.929 . S
C131 O121 1.282 . S
C131 O132 1.216 . S
O132 C131 1.216 . S
H133 C128 0.930 . S
H134 C129 0.930 . S
O135 Cu115 1.959 . S
O135 C122 1.251 . S
H136 C119 0.930 . S
H137 C130 0.929 . S
Cu138 N139 1.999 . S
Cu138 O144 1.974 . S
Cu138 N149 1.985 . S
Cu138 O158 1.959 . S
N139 Cu138 1.999 . S
N139 C141 1.263 . S
N139 C143 1.389 . S
N140 C141 1.358 . S
N140 C142 1.400 . S
C141 N139 1.263 . S
C141 N140 1.358 . S
C141 H147 0.930 . S
C142 N140 1.400 . S
C142 C143 1.351 . S
C142 H159 0.930 . S
C143 N139 1.389 . S
C143 C142 1.351 . S
C143 H148 0.930 . S
O144 Cu138 1.974 . S
O144 C154 1.282 . S
C145 O146 1.261 . S
C145 O158 1.251 . S
O146 C145 1.261 . S
H147 C141 0.930 . S
H148 C143 0.930 . S
N149 Cu138 1.985 . S
N149 C151 1.335 . S
N149 C152 1.390 . S
N150 C151 1.345 . S
N150 C153 1.336 . S
C151 N149 1.335 . S
C151 N150 1.345 . S
C151 H156 0.930 . S
C152 N149 1.390 . S
C152 C153 1.346 . S
C152 H157 0.930 . S
C153 N150 1.336 . S
C153 C152 1.346 . S
C153 H160 0.929 . S
C154 O144 1.282 . S
C154 O155 1.216 . S
O155 C154 1.216 . S
H156 C151 0.930 . S
H157 C152 0.930 . S
O158 Cu138 1.959 . S
O158 C145 1.251 . S
H159 C142 0.930 . S
H160 C153 0.929 . S
Cu161 N162 1.999 . S
Cu161 O167 1.974 . S
Cu161 N172 1.985 . S
Cu161 O181 1.959 . S
N162 Cu161 1.999 . S
N162 C164 1.263 . S
N162 C166 1.389 . S
N163 C164 1.358 . S
N163 C165 1.400 . S
C164 N162 1.263 . S
C164 N163 1.358 . S
C164 H170 0.930 . S
C165 N163 1.400 . S
C165 C166 1.351 . S
C165 H182 0.930 . S
C166 N162 1.389 . S
C166 C165 1.351 . S
C166 H171 0.930 . S
O167 Cu161 1.974 . S
O167 C177 1.282 . S
C168 O169 1.261 . S
C168 O181 1.251 . S
O169 C168 1.261 . S
H170 C164 0.930 . S
H171 C166 0.930 . S
N172 Cu161 1.985 . S
N172 C174 1.335 . S
N172 C175 1.390 . S
N173 C174 1.345 . S
N173 C176 1.336 . S
C174 N172 1.335 . S
C174 N173 1.345 . S
C174 H179 0.930 . S
C175 N172 1.390 . S
C175 C176 1.346 . S
C175 H180 0.930 . S
C176 N173 1.336 . S
C176 C175 1.346 . S
C176 H183 0.929 . S
C177 O167 1.282 . S
C177 O178 1.216 . S
O178 C177 1.216 . S
H179 C174 0.930 . S
H180 C175 0.930 . S
O181 Cu161 1.959 . S
O181 C168 1.251 . S
H182 C165 0.930 . S
H183 C176 0.929 . S
Cu184 N185 1.999 . S
Cu184 O190 1.974 . S
Cu184 N195 1.985 . S
Cu184 O204 1.959 . S
N185 Cu184 1.999 . S
N185 C187 1.263 . S
N185 C189 1.389 . S
N186 C187 1.358 . S
N186 C188 1.400 . S
C187 N185 1.263 . S
C187 N186 1.358 . S
C187 H193 0.930 . S
C188 N186 1.400 . S
C188 C189 1.351 . S
C188 H205 0.930 . S
C189 N185 1.389 . S
C189 C188 1.351 . S
C189 H194 0.930 . S
O190 Cu184 1.974 . S
O190 C200 1.282 . S
C191 O192 1.261 . S
C191 O204 1.251 . S
O192 C191 1.261 . S
H193 C187 0.930 . S
H194 C189 0.930 . S
N195 Cu184 1.985 . S
N195 C197 1.335 . S
N195 C198 1.390 . S
N196 C197 1.345 . S
N196 C199 1.336 . S
C197 N195 1.335 . S
C197 N196 1.345 . S
C197 H202 0.930 . S
C198 N195 1.390 . S
C198 C199 1.346 . S
C198 H203 0.930 . S
C199 N196 1.336 . S
C199 C198 1.346 . S
C199 H206 0.929 . S
C200 O190 1.282 . S
C200 O201 1.216 . S
O201 C200 1.216 . S
H202 C197 0.930 . S
H203 C198 0.930 . S
O204 Cu184 1.959 . S
O204 C191 1.251 . S
H205 C188 0.930 . S
H206 C199 0.929 . S
C207 C208 1.363 . S
C207 C213 1.379 . S
C207 N215 1.356 . S
C208 C207 1.363 . S
C208 C214 1.363 . S
C209 C210 1.363 . S
C209 C214 1.379 . S
C209 N216 1.356 1_554 S
C210 C209 1.363 . S
C210 C213 1.363 . S
N211 C213 1.356 . S
N211 H223 0.984 . S
N211 H224 0.985 . S
N212 C214 1.356 . S
N212 H217 0.984 . S
N212 H218 0.985 1_554 S
C213 C207 1.379 . S
C213 C210 1.363 . S
C213 N211 1.356 . S
C214 C208 1.363 . S
C214 C209 1.379 . S
C214 N212 1.356 . S
N215 C207 1.356 . S
N215 H221 0.984 . S
N215 H222 0.984 . S
N216 C209 1.356 1_556 S
N216 H219 0.984 . S
N216 H220 0.985 . S
H217 N212 0.984 . S
H218 N212 0.985 1_556 S
H219 N216 0.984 . S
H220 N216 0.985 . S
H221 N215 0.984 . S
H222 N215 0.984 . S
H223 N211 0.984 . S
H224 N211 0.985 . S
C225 C226 1.363 . S
C225 C231 1.379 1_565 S
C225 N233 1.356 . S
C226 C225 1.363 . S
C226 C232 1.363 1_565 S
C227 C228 1.363 . S
C227 C232 1.379 . S
C227 N234 1.356 . S
C228 C227 1.363 . S
C228 C231 1.363 . S
N229 C231 1.356 . S
N229 H241 0.984 . S
N229 H242 0.985 . S
N230 C232 1.356 1_566 S
N230 H235 0.984 . S
N230 H236 0.985 . S
C231 C225 1.379 1_545 S
C231 C228 1.363 . S
C231 N229 1.356 . S
C232 C226 1.363 1_545 S
C232 C227 1.379 . S
C232 N230 1.356 1_544 S
N233 C225 1.356 . S
N233 H239 0.984 . S
N233 H240 0.984 . S
N234 C227 1.356 . S
N234 H237 0.984 . S
N234 H238 0.985 1_654 S
H235 N230 0.984 . S
H236 N230 0.985 . S
H237 N234 0.984 . S
H238 N234 0.985 1_456 S
H239 N233 0.984 . S
H240 N233 0.984 . S
H241 N229 0.984 . S
H242 N229 0.985 . S
C243 C244 1.363 1_455 S
C243 C249 1.379 . S
C243 N251 1.356 1_455 S
C244 C243 1.363 1_655 S
C244 C250 1.363 1_655 S
C245 C246 1.363 . S
C245 C250 1.379 . S
C245 N252 1.356 1_554 S
C246 C245 1.363 . S
C246 C249 1.363 . S
N247 C249 1.356 . S
N247 H259 0.984 . S
N247 H260 0.985 . S
N248 C250 1.356 1_656 S
N248 H253 0.984 1_556 S
N248 H254 0.985 . S
C249 C243 1.379 . S
C249 C246 1.363 . S
C249 N247 1.356 . S
C250 C244 1.363 1_455 S
C250 C245 1.379 . S
C250 N248 1.356 1_454 S
N251 C243 1.356 1_655 S
N251 H257 0.984 1_655 S
N251 H258 0.984 . S
N252 C245 1.356 1_556 S
N252 H255 0.984 . S
N252 H256 0.985 . S
H253 N248 0.984 1_554 S
H254 N248 0.985 . S
H255 N252 0.984 . S
H256 N252 0.985 . S
H257 N251 0.984 1_455 S
H258 N251 0.984 . S
H259 N247 0.984 . S
H260 N247 0.985 . S
C261 C262 1.363 . S
C261 C267 1.379 . S
C261 N269 1.356 . S
C262 C261 1.363 . S
C262 C268 1.363 . S
C263 C264 1.363 . S
C263 C268 1.379 . S
C263 N270 1.356 . S
C264 C263 1.363 . S
C264 C267 1.363 . S
N265 C267 1.356 . S
N265 H277 0.984 . S
N265 H278 0.985 . S
N266 C268 1.356 . S
N266 H271 0.984 . S
N266 H272 0.985 . S
C267 C261 1.379 . S
C267 C264 1.363 . S
C267 N265 1.356 . S
C268 C262 1.363 . S
C268 C263 1.379 . S
C268 N266 1.356 . S
N269 C261 1.356 . S
N269 H275 0.984 . S
N269 H276 0.984 . S
N270 C263 1.356 . S
N270 H273 0.984 . S
N270 H274 0.985 . S
H271 N266 0.984 . S
H272 N266 0.985 . S
H273 N270 0.984 . S
H274 N270 0.985 . S
H275 N269 0.984 . S
H276 N269 0.984 . S
H277 N265 0.984 . S
H278 N265 0.985 . S
C279 C280 1.363 . S
C279 C285 1.379 . S
C279 N287 1.356 . S
C280 C279 1.363 . S
C280 C286 1.363 . S
C281 C282 1.363 . S
C281 C286 1.379 . S
C281 N288 1.356 . S
C282 C281 1.363 . S
C282 C285 1.363 . S
N283 C285 1.356 . S
N283 H295 0.984 . S
N283 H296 0.985 . S
N284 C286 1.356 . S
N284 H289 0.984 . S
N284 H290 0.985 . S
C285 C279 1.379 . S
C285 C282 1.363 . S
C285 N283 1.356 . S
C286 C280 1.363 . S
C286 C281 1.379 . S
C286 N284 1.356 . S
N287 C279 1.356 . S
N287 H293 0.984 . S
N287 H294 0.984 . S
N288 C281 1.356 . S
N288 H291 0.984 . S
N288 H292 0.985 . S
H289 N284 0.984 . S
H290 N284 0.985 . S
H291 N288 0.984 . S
H292 N288 0.985 . S
H293 N287 0.984 . S
H294 N287 0.984 . S
H295 N283 0.984 . S
H296 N283 0.985 . S
C297 C298 1.363 . S
C297 C303 1.379 . S
C297 N305 1.356 . S
C298 C297 1.363 . S
C298 C304 1.363 . S
C299 C300 1.363 . S
C299 C304 1.379 . S
C299 N306 1.356 . S
C300 C299 1.363 . S
C300 C303 1.363 . S
N301 C303 1.356 . S
N301 H313 0.984 . S
N301 H314 0.985 . S
N302 C304 1.356 . S
N302 H307 0.984 . S
N302 H308 0.985 . S
C303 C297 1.379 . S
C303 C300 1.363 . S
C303 N301 1.356 . S
C304 C298 1.363 . S
C304 C299 1.379 . S
C304 N302 1.356 . S
N305 C297 1.356 . S
N305 H311 0.984 . S
N305 H312 0.984 . S
N306 C299 1.356 . S
N306 H309 0.984 . S
N306 H310 0.985 . S
H307 N302 0.984 . S
H308 N302 0.985 . S
H309 N306 0.984 . S
H310 N306 0.985 . S
H311 N305 0.984 . S
H312 N305 0.984 . S
H313 N301 0.984 . S
H314 N301 0.985 . S
C315 C316 1.363 . S
C315 C321 1.379 . S
C315 N323 1.356 . S
C316 C315 1.363 . S
C316 C322 1.363 . S
C317 C318 1.363 . S
C317 C322 1.379 . S
C317 N324 1.356 . S
C318 C317 1.363 . S
C318 C321 1.363 . S
N319 C321 1.356 . S
N319 H331 0.984 . S
N319 H332 0.985 . S
N320 C322 1.356 . S
N320 H325 0.984 . S
N320 H326 0.985 . S
C321 C315 1.379 . S
C321 C318 1.363 . S
C321 N319 1.356 . S
C322 C316 1.363 . S
C322 C317 1.379 . S
C322 N320 1.356 . S
N323 C315 1.356 . S
N323 H329 0.984 . S
N323 H330 0.984 . S
N324 C317 1.356 . S
N324 H327 0.984 . S
N324 H328 0.985 . S
H325 N320 0.984 . S
H326 N320 0.985 . S
H327 N324 0.984 . S
H328 N324 0.985 . S
H329 N323 0.984 . S
H330 N323 0.984 . S
H331 N319 0.984 . S
H332 N319 0.985 . S
C333 C334 1.363 . S
C333 C339 1.379 . S
C333 N341 1.356 . S
C334 C333 1.363 . S
C334 C340 1.363 . S
C335 C336 1.363 . S
C335 C340 1.379 . S
C335 N342 1.356 . S
C336 C335 1.363 . S
C336 C339 1.363 . S
N337 C339 1.356 . S
N337 H349 0.984 . S
N337 H350 0.985 . S
N338 C340 1.356 . S
N338 H343 0.984 . S
N338 H344 0.985 . S
C339 C333 1.379 . S
C339 C336 1.363 . S
C339 N337 1.356 . S
C340 C334 1.363 . S
C340 C335 1.379 . S
C340 N338 1.356 . S
N341 C333 1.356 . S
N341 H347 0.984 . S
N341 H348 0.984 . S
N342 C335 1.356 . S
N342 H345 0.984 . S
N342 H346 0.985 . S
H343 N338 0.984 . S
H344 N338 0.985 . S
H345 N342 0.984 . S
H346 N342 0.985 . S
H347 N341 0.984 . S
H348 N341 0.984 . S
H349 N337 0.984 . S
H350 N337 0.985 . S
C351 C352 1.363 . S
C351 C357 1.379 . S
C351 N359 1.356 . S
C352 C351 1.363 . S
C352 C358 1.363 . S
C353 C354 1.363 . S
C353 C358 1.379 . S
C353 N360 1.356 . S
C354 C353 1.363 . S
C354 C357 1.363 . S
N355 C357 1.356 . S
N355 H367 0.984 . S
N355 H368 0.985 . S
N356 C358 1.356 . S
N356 H361 0.984 . S
N356 H362 0.985 . S
C357 C351 1.379 . S
C357 C354 1.363 . S
C357 N355 1.356 . S
C358 C352 1.363 . S
C358 C353 1.379 . S
C358 N356 1.356 . S
N359 C351 1.356 . S
N359 H365 0.984 . S
N359 H366 0.984 . S
N360 C353 1.356 . S
N360 H363 0.984 . S
N360 H364 0.985 . S
H361 N356 0.984 . S
H362 N356 0.985 . S
H363 N360 0.984 . S
H364 N360 0.985 . S
H365 N359 0.984 . S
H366 N359 0.984 . S
H367 N355 0.984 . S
H368 N355 0.985 . S
C369 C370 1.363 . S
C369 C375 1.379 . S
C369 N377 1.356 . S
C370 C369 1.363 . S
C370 C376 1.363 . S
C371 C372 1.363 . S
C371 C376 1.379 . S
C371 N378 1.356 . S
C372 C371 1.363 . S
C372 C375 1.363 . S
N373 C375 1.356 . S
N373 H385 0.984 . S
N373 H386 0.985 . S
N374 C376 1.356 1_554 S
N374 H379 0.984 . S
N374 H380 0.985 . S
C375 C369 1.379 . S
C375 C372 1.363 . S
C375 N373 1.356 . S
C376 C370 1.363 . S
C376 C371 1.379 . S
C376 N374 1.356 1_556 S
N377 C369 1.356 . S
N377 H383 0.984 . S
N377 H384 0.984 . S
N378 C371 1.356 . S
N378 H381 0.984 . S
N378 H382 0.985 . S
H379 N374 0.984 . S
H380 N374 0.985 . S
H381 N378 0.984 . S
H382 N378 0.985 . S
H383 N377 0.984 . S
H384 N377 0.984 . S
H385 N373 0.984 . S
H386 N373 0.985 . S
C387 C388 1.363 . S
C387 C393 1.379 . S
C387 N395 1.356 . S
C388 C387 1.363 . S
C388 C394 1.363 . S
C389 C390 1.363 . S
C389 C394 1.379 . S
C389 N396 1.356 . S
C390 C389 1.363 . S
C390 C393 1.363 . S
N391 C393 1.356 . S
N391 H403 0.984 . S
N391 H404 0.985 . S
N392 C394 1.356 1_554 S
N392 H397 0.984 . S
N392 H398 0.985 . S
C393 C387 1.379 . S
C393 C390 1.363 . S
C393 N391 1.356 . S
C394 C388 1.363 . S
C394 C389 1.379 . S
C394 N392 1.356 1_556 S
N395 C387 1.356 . S
N395 H401 0.984 . S
N395 H402 0.984 . S
N396 C389 1.356 . S
N396 H399 0.984 . S
N396 H400 0.985 . S
H397 N392 0.984 . S
H398 N392 0.985 . S
H399 N396 0.984 . S
H400 N396 0.985 . S
H401 N395 0.984 . S
H402 N395 0.984 . S
H403 N391 0.984 . S
H404 N391 0.985 . S
C405 C406 1.363 . S
C405 C411 1.379 . S
C405 N413 1.356 . S
C406 C405 1.363 . S
C406 C412 1.363 . S
C407 C408 1.363 . S
C407 C412 1.379 . S
C407 N414 1.356 1_556 S
C408 C407 1.363 . S
C408 C411 1.363 . S
N409 C411 1.356 . S
N409 H421 0.984 1_565 S
N409 H422 0.985 . S
N410 C412 1.356 . S
N410 H415 0.984 . S
N410 H416 0.985 . S
C411 C405 1.379 . S
C411 C408 1.363 . S
C411 N409 1.356 . S
C412 C406 1.363 . S
C412 C407 1.379 . S
C412 N410 1.356 . S
N413 C405 1.356 . S
N413 H419 0.984 . S
N413 H420 0.984 . S
N414 C407 1.356 1_554 S
N414 H417 0.984 . S
N414 H418 0.985 . S
H415 N410 0.984 . S
H416 N410 0.985 . S
H417 N414 0.984 . S
H418 N414 0.985 . S
H419 N413 0.984 . S
H420 N413 0.984 . S
H421 N409 0.984 1_545 S
H422 N409 0.985 . S
C423 C424 1.363 . S
C423 C429 1.379 . S
C423 N431 1.356 . S
C424 C423 1.363 . S
C424 C430 1.363 . S
C425 C426 1.363 . S
C425 C430 1.379 . S
C425 N432 1.356 . S
C426 C425 1.363 . S
C426 C429 1.363 . S
N427 C429 1.356 . S
N427 H439 0.984 . S
N427 H440 0.985 . S
N428 C430 1.356 . S
N428 H433 0.984 . S
N428 H434 0.985 . S
C429 C423 1.379 . S
C429 C426 1.363 . S
C429 N427 1.356 . S
C430 C424 1.363 . S
C430 C425 1.379 . S
C430 N428 1.356 . S
N431 C423 1.356 . S
N431 H437 0.984 . S
N431 H438 0.984 . S
N432 C425 1.356 . S
N432 H435 0.984 . S
N432 H436 0.985 . S
H433 N428 0.984 . S
H434 N428 0.985 . S
H435 N432 0.984 . S
H436 N432 0.985 . S
H437 N431 0.984 . S
H438 N431 0.984 . S
H439 N427 0.984 . S
H440 N427 0.985 . S
C441 C442 1.363 . S
C441 C447 1.379 . S
C441 N449 1.356 . S
C442 C441 1.363 . S
C442 C448 1.363 . S
C443 C444 1.363 . S
C443 C448 1.379 . S
C443 N450 1.356 . S
C444 C443 1.363 . S
C444 C447 1.363 . S
N445 C447 1.356 . S
N445 H457 0.984 . S
N445 H458 0.985 . S
N446 C448 1.356 1_455 S
N446 H451 0.984 . S
N446 H452 0.985 . S
C447 C441 1.379 . S
C447 C444 1.363 . S
C447 N445 1.356 . S
C448 C442 1.363 . S
C448 C443 1.379 . S
C448 N446 1.356 1_655 S
N449 C441 1.356 . S
N449 H455 0.984 . S
N449 H456 0.984 . S
N450 C443 1.356 . S
N450 H453 0.984 . S
N450 H454 0.985 . S
H451 N446 0.984 . S
H452 N446 0.985 . S
H453 N450 0.984 . S
H454 N450 0.985 . S
H455 N449 0.984 . S
H456 N449 0.984 . S
H457 N445 0.984 . S
H458 N445 0.985 . S
C459 C460 1.363 . S
C459 C465 1.379 . S
C459 N467 1.356 . S
C460 C459 1.363 . S
C460 C466 1.363 . S
C461 C462 1.363 . S
C461 C466 1.379 . S
C461 N468 1.356 . S
C462 C461 1.363 . S
C462 C465 1.363 . S
N463 C465 1.356 . S
N463 H475 0.984 . S
N463 H476 0.985 . S
N464 C466 1.356 . S
N464 H469 0.984 . S
N464 H470 0.985 . S
C465 C459 1.379 . S
C465 C462 1.363 . S
C465 N463 1.356 . S
C466 C460 1.363 . S
C466 C461 1.379 . S
C466 N464 1.356 . S
N467 C459 1.356 . S
N467 H473 0.984 . S
N467 H474 0.984 . S
N468 C461 1.356 . S
N468 H471 0.984 . S
N468 H472 0.985 . S
H469 N464 0.984 . S
H470 N464 0.985 . S
H471 N468 0.984 . S
H472 N468 0.985 . S
H473 N467 0.984 . S
H474 N467 0.984 . S
H475 N463 0.984 . S
H476 N463 0.985 . S
C477 C478 1.363 . S
C477 C483 1.379 . S
C477 N485 1.356 . S
C478 C477 1.363 . S
C478 C484 1.363 . S
C479 C480 1.363 . S
C479 C484 1.379 . S
C479 N486 1.356 . S
C480 C479 1.363 . S
C480 C483 1.363 . S
N481 C483 1.356 . S
N481 H493 0.984 . S
N481 H494 0.985 . S
N482 C484 1.356 . S
N482 H487 0.984 . S
N482 H488 0.985 . S
C483 C477 1.379 . S
C483 C480 1.363 . S
C483 N481 1.356 . S
C484 C478 1.363 . S
C484 C479 1.379 . S
C484 N482 1.356 . S
N485 C477 1.356 . S
N485 H491 0.984 . S
N485 H492 0.984 . S
N486 C479 1.356 . S
N486 H489 0.984 1_455 S
N486 H490 0.985 . S
H487 N482 0.984 . S
H488 N482 0.985 . S
H489 N486 0.984 1_655 S
H490 N486 0.985 . S
H491 N485 0.984 . S
H492 N485 0.984 . S
H493 N481 0.984 . S
H494 N481 0.985 . S
C495 C496 1.363 . S
C495 C501 1.379 . S
C495 N503 1.356 . S
C496 C495 1.363 . S
C496 C502 1.363 . S
C497 C498 1.363 . S
C497 C502 1.379 . S
C497 N504 1.356 . S
C498 C497 1.363 . S
C498 C501 1.363 . S
N499 C501 1.356 . S
N499 H511 0.984 . S
N499 H512 0.985 . S
N500 C502 1.356 . S
N500 H505 0.984 . S
N500 H506 0.985 . S
C501 C495 1.379 . S
C501 C498 1.363 . S
C501 N499 1.356 . S
C502 C496 1.363 . S
C502 C497 1.379 . S
C502 N500 1.356 . S
N503 C495 1.356 . S
N503 H509 0.984 . S
N503 H510 0.984 . S
N504 C497 1.356 . S
N504 H507 0.984 . S
N504 H508 0.985 . S
H505 N500 0.984 . S
H506 N500 0.985 . S
H507 N504 0.984 . S
H508 N504 0.985 . S
H509 N503 0.984 . S
H510 N503 0.984 . S
H511 N499 0.984 . S
H512 N499 0.985 . S
C513 C514 1.363 1_545 S
C513 C519 1.379 . S
C513 N521 1.356 . S
C514 C513 1.363 1_565 S
C514 C520 1.363 . S
C515 C516 1.363 . S
C515 C520 1.379 1_545 S
C515 N522 1.356 . S
C516 C515 1.363 . S
C516 C519 1.363 . S
N517 C519 1.356 . S
N517 H529 0.984 . S
N517 H530 0.985 . S
N518 C520 1.356 . S
N518 H523 0.984 . S
N518 H524 0.985 . S
C519 C513 1.379 . S
C519 C516 1.363 . S
C519 N517 1.356 . S
C520 C514 1.363 . S
C520 C515 1.379 1_565 S
C520 N518 1.356 . S
N521 C513 1.356 . S
N521 H527 0.984 . S
N521 H528 0.984 1_545 S
N522 C515 1.356 . S
N522 H525 0.984 . S
N522 H526 0.985 1_545 S
H523 N518 0.984 . S
H524 N518 0.985 . S
H525 N522 0.984 . S
H526 N522 0.985 1_565 S
H527 N521 0.984 . S
H528 N521 0.984 1_565 S
H529 N517 0.984 . S
H530 N517 0.985 . S
C208 N58 1.427 . S
C210 C16 1.399 . S
C226 N25 1.311 . S
C228 N2 1.339 . S
C244 C39 1.570 . S
C246 C53 1.602 . S
C262 C122 1.661 . S
C264 C85 1.620 . S
C280 N94 1.267 . S
C282 N71 1.236 . S
C298 C108 1.442 . S
C300 N127 1.480 . S
C316 C154 1.452 . S
C318 N196 1.499 . S
C334 N140 1.183 . S
C336 N163 1.152 . S
C352 C177 1.639 . S
C354 C191 1.686 . S
C370 N12 1.529 1_556 S
C372 N173 1.574 . S
C388 C30 1.580 1_556 S
C390 C200 1.541 . S
C406 C145 1.538 . S
C408 N48 1.443 . S
C424 C99 1.491 . S
C426 C62 1.464 . S
C442 C7 1.547 . S
C444 C131 1.519 . S
C460 N81 1.574 . S
C462 N35 1.559 . S
C478 C168 1.596 . S
C480 N117 1.482 1_455 S
C496 C76 1.606 . S
C498 N186 1.497 . S
C514 N150 1.512 . S
C516 N104 1.496 . S
