# Generated by pormake.
# Topology sml, (6)-cn, num edge types: 1
# Building blocks:
#     Node 0, Type 0, BuildingBlock: MIFKUJ_clean_sbu_0, # of connection points: 6
#     Node 1, Type 0, BuildingBlock: MIFKUJ_clean_sbu_0, # of connection points: 6
#     Node 2, Type 0, BuildingBlock: MIFKUJ_clean_sbu_0, # of connection points: 6
#     Node 3, Type 0, BuildingBlock: MIFKUJ_clean_sbu_0, # of connection points: 6
#     Node 4, Type 0, BuildingBlock: MIFKUJ_clean_sbu_0, # of connection points: 6
#     Node 5, Type 0, BuildingBlock: MIFKUJ_clean_sbu_0, # of connection points: 6
#     Edge 6, Type (0, 0), BuildingBlock: FUNLAD_clean_linker_1, # of connection points: 2
#     Edge 7, Type (0, 0), BuildingBlock: FUNLAD_clean_linker_1, # of connection points: 2
#     Edge 8, Type (0, 0), BuildingBlock: FUNLAD_clean_linker_1, # of connection points: 2
#     Edge 9, Type (0, 0), BuildingBlock: FUNLAD_clean_linker_1, # of connection points: 2
#     Edge 10, Type (0, 0), BuildingBlock: FUNLAD_clean_linker_1, # of connection points: 2
#     Edge 11, Type (0, 0), BuildingBlock: FUNLAD_clean_linker_1, # of connection points: 2
#     Edge 12, Type (0, 0), BuildingBlock: FUNLAD_clean_linker_1, # of connection points: 2
#     Edge 13, Type (0, 0), BuildingBlock: FUNLAD_clean_linker_1, # of connection points: 2
#     Edge 14, Type (0, 0), BuildingBlock: FUNLAD_clean_linker_1, # of connection points: 2
#     Edge 15, Type (0, 0), BuildingBlock: FUNLAD_clean_linker_1, # of connection points: 2
#     Edge 16, Type (0, 0), BuildingBlock: FUNLAD_clean_linker_1, # of connection points: 2
#     Edge 17, Type (0, 0), BuildingBlock: FUNLAD_clean_linker_1, # of connection points: 2
#     Edge 18, Type (0, 0), BuildingBlock: FUNLAD_clean_linker_1, # of connection points: 2
#     Edge 19, Type (0, 0), BuildingBlock: FUNLAD_clean_linker_1, # of connection points: 2
#     Edge 20, Type (0, 0), BuildingBlock: FUNLAD_clean_linker_1, # of connection points: 2
#     Edge 21, Type (0, 0), BuildingBlock: FUNLAD_clean_linker_1, # of connection points: 2
#     Edge 22, Type (0, 0), BuildingBlock: FUNLAD_clean_linker_1, # of connection points: 2
#     Edge 23, Type (0, 0), BuildingBlock: FUNLAD_clean_linker_1, # of connection points: 2
# Relax obj value: 0.138
# Max RMSD: 0.177
# Mean RMSD: 0.177
data_MOF--net-sml--node1-MIFKUJ_clean_sbu_0--edge1-FUNLAD_clean_linker_1
_symmetry_space_group_name_H-M    P1
_symmetry_Int_Tables_number       1
_symmetry_cell_setting            triclinic
loop_
_symmetry_equiv_pos_as_xyz
'x, y, z'
_cell_length_a     40.040054
_cell_length_b     40.045747
_cell_length_c     18.782967
_cell_angle_alpha  90.126836
_cell_angle_beta   89.570645
_cell_angle_gamma 119.96074
loop_
_atom_site_label
_atom_site_type_symbol
_atom_site_fract_x
_atom_site_fract_y
_atom_site_fract_z
_atom_type_partial_charge
Zn0 Zn 0.21474 0.42977 0.08922 0.0
Zn1 Zn 0.2062 0.41497 0.91969 0.0
C2 C 0.21698 0.50075 0.11186 0.0
O3 O 0.24907 0.50751 0.14292 0.0
C4 C 0.21611 0.34922 0.901 0.0
O5 O 0.18724 0.33936 0.85717 0.0
O6 O 0.21993 0.42554 0.19575 0.0
O7 O 0.17119 0.37704 0.06018 0.0
O8 O 0.15415 0.39685 0.96559 0.0
C9 C 0.18939 0.4166 0.23139 0.0
O10 O 0.15829 0.41056 0.1976 0.0
O11 O 0.19654 0.46861 0.08088 0.0
C12 C 0.23231 0.42225 0.77759 0.0
O13 O 0.26326 0.42897 0.81275 0.0
O14 O 0.20197 0.41523 0.81211 0.0
O15 O 0.24701 0.4687 0.94416 0.0
O16 O 0.2675 0.45317 0.04033 0.0
O17 O 0.22742 0.37917 0.93923 0.0
C18 C 0.14495 0.3762 0.02133 0.0
C19 C 0.27433 0.47419 0.98527 0.0
Zn20 Zn 0.79462 0.22157 0.41324 0.0
Zn21 Zn 0.79989 0.20115 0.24727 0.0
C22 C 0.72446 0.21844 0.44365 0.0
O23 O 0.74943 0.24848 0.4803 0.0
C24 C 0.87448 0.20754 0.25303 0.0
O25 O 0.85358 0.17033 0.24157 0.0
O26 O 0.80509 0.23095 0.52019 0.0
O27 O 0.80853 0.18018 0.39274 0.0
O28 O 0.77123 0.15075 0.30133 0.0
C29 C 0.78156 0.20153 0.5566 0.0
O30 O 0.75544 0.17087 0.52316 0.0
O31 O 0.73658 0.20056 0.40478 0.0
C32 C 0.82106 0.22378 0.1049 0.0
O33 O 0.84719 0.25358 0.14027 0.0
O34 O 0.79543 0.19458 0.13919 0.0
O35 O 0.7805 0.2375 0.26651 0.0
O36 O 0.81956 0.27101 0.35373 0.0
O37 O 0.85768 0.22691 0.26444 0.0
C38 C 0.78511 0.14928 0.36112 0.0
C39 C 0.80102 0.26938 0.2977 0.0
Zn40 Zn 0.57078 0.78696 0.7612 0.0
Zn41 Zn 0.59895 0.79527 0.59841 0.0
C42 C 0.49329 0.72568 0.77118 0.0
O43 O 0.48819 0.75556 0.77523 0.0
C44 C 0.65997 0.87372 0.57967 0.0
O45 O 0.67726 0.85648 0.55049 0.0
O46 O 0.56793 0.80365 0.85943 0.0
O47 O 0.62208 0.78853 0.75812 0.0
O48 O 0.62497 0.77075 0.64814 0.0
C49 C 0.57764 0.78761 0.90656 0.0
O50 O 0.58771 0.76224 0.88765 0.0
O51 O 0.52711 0.73121 0.76042 0.0
C52 C 0.5888 0.79966 0.45314 0.0
O53 O 0.5704 0.8168 0.4778 0.0
O54 O 0.60417 0.78708 0.49604 0.0
O55 O 0.54239 0.77531 0.61437 0.0
O56 O 0.55882 0.81962 0.69602 0.0
O57 O 0.6272 0.8534 0.60904 0.0
C58 C 0.63595 0.77547 0.71217 0.0
C59 C 0.53798 0.80146 0.64346 0.0
Zn60 Zn 0.78932 0.56924 0.07541 0.0
Zn61 Zn 0.80511 0.58895 0.90881 0.0
C62 C 0.78841 0.4982 0.08838 0.0
O63 O 0.7521 0.48683 0.10277 0.0
C64 C 0.78946 0.64986 0.89518 0.0
O65 O 0.81698 0.65979 0.84741 0.0
O66 O 0.779 0.57023 0.18242 0.0
O67 O 0.83323 0.62332 0.05371 0.0
O68 O 0.85699 0.61316 0.9548 0.0
C69 C 0.80609 0.57211 0.22066 0.0
O70 O 0.83552 0.57236 0.18921 0.0
O71 O 0.81063 0.53285 0.06904 0.0
C72 C 0.77603 0.5769 0.76944 0.0
O73 O 0.74466 0.56452 0.80832 0.0
O74 O 0.8084 0.58964 0.80037 0.0
O75 O 0.77057 0.53353 0.93322 0.0
O76 O 0.73937 0.54506 0.01758 0.0
O77 O 0.77953 0.62017 0.93339 0.0
C78 C 0.86196 0.63034 0.01405 0.0
C79 C 0.73923 0.52515 0.96449 0.0
Zn80 Zn 0.2257 0.78081 0.42102 0.0
Zn81 Zn 0.20073 0.80698 0.2451 0.0
C82 C 0.2852 0.76078 0.43632 0.0
O83 O 0.25634 0.7254 0.43017 0.0
C84 C 0.12511 0.79613 0.26039 0.0
O85 O 0.14453 0.83382 0.26589 0.0
O86 O 0.20188 0.77386 0.51727 0.0
O87 O 0.23211 0.82883 0.38096 0.0
O88 O 0.2246 0.85938 0.29292 0.0
C89 C 0.22552 0.7948 0.56468 0.0
O90 O 0.26168 0.81846 0.54721 0.0
O91 O 0.27904 0.78886 0.43242 0.0
C92 C 0.19446 0.78174 0.10751 0.0
O93 O 0.18006 0.7495 0.14382 0.0
O94 O 0.20652 0.81355 0.14008 0.0
O95 O 0.22627 0.7746 0.26746 0.0
O96 O 0.19604 0.73547 0.35647 0.0
O97 O 0.14317 0.77753 0.25802 0.0
C98 C 0.23631 0.85978 0.35546 0.0
C99 C 0.20686 0.74047 0.29179 0.0
Zn100 Zn 0.43059 0.21812 0.75552 0.0
Zn101 Zn 0.40957 0.2035 0.57959 0.0
C102 C 0.50184 0.28772 0.77038 0.0
O103 O 0.5129 0.26261 0.7847 0.0
C104 C 0.33925 0.13086 0.58153 0.0
O105 O 0.32481 0.1535 0.57091 0.0
O106 O 0.42784 0.20696 0.86113 0.0
O107 O 0.37788 0.20879 0.72806 0.0
O108 O 0.38751 0.23483 0.62125 0.0
C109 C 0.39676 0.19447 0.89695 0.0
O110 O 0.36448 0.18551 0.86449 0.0
O111 O 0.46729 0.27553 0.75138 0.0
C112 C 0.42713 0.19249 0.44122 0.0
O113 O 0.44064 0.17415 0.47824 0.0
O114 O 0.41106 0.20882 0.47336 0.0
O115 O 0.4644 0.2202 0.60363 0.0
O116 O 0.45513 0.19016 0.7062 0.0
O117 O 0.37511 0.14585 0.59374 0.0
C118 C 0.37241 0.22909 0.68284 0.0
C119 C 0.47317 0.20177 0.64735 0.0
H120 H 0.33619 0.25503 0.65864 0.0
C121 C 0.34759 0.24545 0.70137 0.0
H122 H 0.35185 0.24095 0.81249 0.0
H123 H 0.29082 0.36781 0.78873 0.0
H124 H 0.35291 0.41054 0.73461 0.0
H125 H 0.39855 0.38778 0.70697 0.0
H126 H 0.38204 0.32191 0.73239 0.0
C127 C 0.34027 0.25017 0.76958 0.0
C128 C 0.31407 0.26514 0.78948 0.0
C129 C 0.3247 0.30411 0.77621 0.0
C130 C 0.29894 0.31765 0.79463 0.0
C131 C 0.30961 0.35623 0.77793 0.0
C132 C 0.34517 0.38108 0.74653 0.0
C133 C 0.37081 0.36824 0.7308 0.0
C134 C 0.36087 0.33026 0.74533 0.0
H135 H 0.26499 0.34099 0.93021 0.0
C136 C 0.24017 0.33084 0.89555 0.0
H137 H 0.21028 0.29527 0.80815 0.0
H138 H 0.28549 0.1893 0.82502 0.0
H139 H 0.22466 0.14742 0.88422 0.0
H140 H 0.18081 0.17135 0.91885 0.0
H141 H 0.1976 0.23748 0.89434 0.0
C142 C 0.23493 0.30568 0.84326 0.0
C143 C 0.26315 0.29253 0.82843 0.0
C144 C 0.2531 0.25396 0.84349 0.0
C145 C 0.27857 0.24027 0.8241 0.0
C146 C 0.2675 0.20142 0.83918 0.0
C147 C 0.23259 0.17699 0.87303 0.0
C148 C 0.20788 0.19046 0.89244 0.0
C149 C 0.21783 0.22844 0.87793 0.0
H150 H 0.0859 0.36682 0.02738 0.0
C151 C 0.10449 0.35626 0.04648 0.0
H152 H 0.10946 0.31637 0.11149 0.0
H153 H 0.97787 0.27837 0.33341 0.0
H154 H 0.03442 0.29995 0.40737 0.0
H155 H 0.09918 0.32705 0.35335 0.0
H156 H 0.10781 0.33228 0.22561 0.0
C157 C 0.09056 0.32666 0.0929 0.0
C158 C 0.05091 0.30946 0.12495 0.0
C159 C 0.04645 0.30698 0.20036 0.0
C160 C 0.00914 0.29183 0.23184 0.0
C161 C 0.00552 0.28955 0.30696 0.0
C162 C 0.03774 0.30194 0.35002 0.0
C163 C 0.07418 0.31717 0.31961 0.0
C164 C 0.07868 0.31988 0.24586 0.0
H165 H 0.92969 0.20886 0.23623 0.0
C166 C 0.91648 0.22684 0.23964 0.0
H167 H 0.92373 0.28189 0.21865 0.0
H168 H 0.04674 0.3009 0.97925 0.0
H169 H 0.99035 0.28123 0.90645 0.0
H170 H 0.92703 0.26161 0.96141 0.0
H171 H 0.91972 0.26064 0.08969 0.0
C172 C 0.93721 0.26414 0.22055 0.0
C173 C 0.9764 0.2799 0.18829 0.0
C174 C 0.98069 0.28224 0.11316 0.0
C175 C 0.01766 0.29565 0.08139 0.0
C176 C 0.02011 0.29384 0.0063 0.0
C177 C 0.98775 0.28196 0.96377 0.0
C178 C 0.95209 0.27077 0.99469 0.0
C179 C 0.94834 0.27047 0.06846 0.0
H180 H 0.79589 0.11158 0.43098 0.0
C181 C 0.77514 0.11218 0.39477 0.0
H182 H 0.71917 0.08131 0.35261 0.0
H183 H 0.69135 0.9139 0.39814 0.0
H184 H 0.68801 0.91742 0.27 0.0
H185 H 0.70476 0.97875 0.21069 0.0
H186 H 0.72457 0.03686 0.27931 0.0
C187 C 0.74026 0.08061 0.38774 0.0
C188 C 0.72998 0.04362 0.42467 0.0
C189 C 0.71947 0.0101 0.38356 0.0
C190 C 0.71081 0.97495 0.41765 0.0
C191 C 0.69919 0.94164 0.3752 0.0
C192 C 0.69698 0.94317 0.30145 0.0
C193 C 0.70635 0.97768 0.26809 0.0
C194 C 0.71758 0.01084 0.30829 0.0
H195 H 0.65543 0.92648 0.58039 0.0
C196 C 0.67396 0.91493 0.56547 0.0
H197 H 0.72371 0.92462 0.50913 0.0
H198 H 0.74048 0.09956 0.52089 0.0
H199 H 0.74392 0.09622 0.64918 0.0
H200 H 0.73534 0.03722 0.7074 0.0
H201 H 0.72214 0.98092 0.63746 0.0
C202 C 0.70595 0.93663 0.52654 0.0
C203 C 0.71343 0.97343 0.49279 0.0
C204 C 0.72311 0.00667 0.53419 0.0
C205 C 0.73029 0.04146 0.50028 0.0
C206 C 0.73699 0.07324 0.54339 0.0
C207 C 0.73867 0.07154 0.61725 0.0
C208 C 0.73363 0.03826 0.65001 0.0
C209 C 0.72592 0.0061 0.60925 0.0
H210 H 0.6763 0.75422 0.69166 0.0
C211 C 0.66394 0.76373 0.7333 0.0
H212 H 0.65919 0.7694 0.84447 0.0
H213 H 0.69441 0.63029 0.87363 0.0
H214 H 0.6265 0.59785 0.90261 0.0
H215 H 0.58982 0.63221 0.89646 0.0
H216 H 0.621 0.69918 0.85956 0.0
C217 C 0.67249 0.76176 0.80162 0.0
C218 C 0.69651 0.74435 0.82004 0.0
C219 C 0.67851 0.70604 0.84609 0.0
C220 C 0.70015 0.68684 0.85296 0.0
C221 C 0.68031 0.64725 0.8718 0.0
C222 C 0.64102 0.628 0.88769 0.0
C223 C 0.62034 0.64729 0.88398 0.0
C224 C 0.63862 0.68574 0.86281 0.0
H225 H 0.75212 0.66904 0.9472 0.0
C226 C 0.76736 0.67017 0.89834 0.0
H227 H 0.77843 0.68754 0.79096 0.0
H228 H 0.74008 0.81904 0.77554 0.0
H229 H 0.80885 0.85306 0.75073 0.0
H230 H 0.8473 0.82109 0.76754 0.0
H231 H 0.81728 0.75498 0.80881 0.0
C232 C 0.76341 0.68709 0.83975 0.0
C233 C 0.74042 0.70703 0.83804 0.0
C234 C 0.75868 0.74608 0.81535 0.0
C235 C 0.73664 0.76464 0.80595 0.0
C236 C 0.75547 0.80348 0.78264 0.0
C237 C 0.79494 0.8234 0.76861 0.0
C238 C 0.81657 0.8054 0.77807 0.0
C239 C 0.79888 0.76731 0.80146 0.0
H240 H 0.06842 0.79259 0.25447 0.0
C241 C 0.08365 0.77693 0.24438 0.0
H242 H 0.08083 0.72748 0.19778 0.0
H243 H 0.89887 0.62902 0.21088 0.0
H244 H 0.91473 0.59998 0.30829 0.0
H245 H 0.98178 0.62874 0.35024 0.0
H246 H 0.03297 0.68667 0.29506 0.0
C247 C 0.06587 0.74328 0.20922 0.0
C248 C 0.02553 0.7266 0.18412 0.0
C249 C 0.99602 0.69279 0.21682 0.0
C250 C 0.95748 0.67606 0.19225 0.0
C251 C 0.92857 0.64251 0.2266 0.0
C252 C 0.93735 0.62569 0.28286 0.0
C253 C 0.97505 0.64189 0.30649 0.0
C254 C 0.00415 0.67512 0.27424 0.0
H255 H 0.92542 0.66011 0.00555 0.0
C256 C 0.90156 0.65632 0.03922 0.0
H257 H 0.88516 0.66787 0.13934 0.0
H258 H 0.07572 0.79028 0.10624 0.0
H259 H 0.05918 0.82009 0.0111 0.0
H260 H 0.99173 0.79282 0.97268 0.0
H261 H 0.94051 0.73512 0.02848 0.0
C262 C 0.90884 0.67261 0.10422 0.0
C263 C 0.94863 0.69261 0.13374 0.0
C264 C 0.97799 0.72711 0.10234 0.0
C265 C 0.01663 0.74377 0.12667 0.0
C266 C 0.04568 0.77714 0.09182 0.0
C267 C 0.03662 0.79445 0.03678 0.0
C268 C 0.99867 0.77902 0.01497 0.0
C269 C 0.96959 0.74574 0.04712 0.0
H270 H 0.28495 0.0785 0.5539 0.0
C271 C 0.31534 0.08945 0.56449 0.0
H272 H 0.36115 0.07752 0.55798 0.0
H273 H 0.23553 0.89615 0.53129 0.0
H274 H 0.24927 0.89789 0.65694 0.0
H275 H 0.29059 0.9597 0.7177 0.0
H276 H 0.31769 0.02029 0.65299 0.0
C277 C 0.33067 0.067 0.54969 0.0
C278 C 0.3077 0.02944 0.51226 0.0
C279 C 0.29335 0.99424 0.54993 0.0
C280 C 0.27088 0.95848 0.51409 0.0
C281 C 0.25456 0.92398 0.55456 0.0
C282 C 0.26187 0.92459 0.6271 0.0
C283 C 0.28501 0.95939 0.66134 0.0
C284 C 0.30041 0.99393 0.62359 0.0
H285 H 0.27977 0.89972 0.43084 0.0
C286 C 0.25575 0.89534 0.39775 0.0
H287 H 0.21884 0.91583 0.36734 0.0
H288 H 0.33195 0.09171 0.42321 0.0
H289 H 0.31805 0.09009 0.29769 0.0
H290 H 0.28116 0.02832 0.23464 0.0
H291 H 0.25692 0.96778 0.29704 0.0
C292 C 0.2434 0.92091 0.39948 0.0
C293 C 0.26449 0.95797 0.43954 0.0
C294 C 0.27876 0.99329 0.40202 0.0
C295 C 0.30036 0.02899 0.43831 0.0
C296 C 0.31474 0.06373 0.39897 0.0
C297 C 0.30735 0.06328 0.32656 0.0
C298 C 0.28647 0.0285 0.29111 0.0
C299 C 0.27253 0.99387 0.32789 0.0
H300 H 0.2602 0.42734 0.67363 0.0
C301 C 0.23355 0.4222 0.6991 0.0
H302 H 0.17698 0.41184 0.6823 0.0
H303 H 0.23453 0.49102 0.37379 0.0
H304 H 0.24337 0.5469 0.44027 0.0
H305 H 0.23588 0.5442 0.57102 0.0
H306 H 0.21934 0.48555 0.63612 0.0
C307 C 0.2037 0.41631 0.65843 0.0
C308 C 0.20726 0.41748 0.57941 0.0
C309 C 0.2167 0.45186 0.54218 0.0
C310 C 0.22099 0.4534 0.46679 0.0
C311 C 0.23074 0.48822 0.431 0.0
C312 C 0.23596 0.52052 0.46851 0.0
C313 C 0.23174 0.519 0.54213 0.0
C314 C 0.22225 0.48517 0.57883 0.0
H315 H 0.16085 0.40632 0.33602 0.0
C316 C 0.18808 0.41404 0.30979 0.0
H317 H 0.24639 0.42962 0.32521 0.0
H318 H 0.18802 0.34684 0.63433 0.0
H319 H 0.17889 0.29086 0.56775 0.0
H320 H 0.18649 0.2936 0.43703 0.0
H321 H 0.20335 0.35239 0.37199 0.0
C322 C 0.21874 0.42171 0.34968 0.0
C323 C 0.21555 0.42045 0.42876 0.0
C324 C 0.20605 0.38604 0.46597 0.0
C325 C 0.20181 0.38452 0.54139 0.0
C326 C 0.19188 0.34965 0.57714 0.0
C327 C 0.18648 0.31729 0.53956 0.0
C328 C 0.19074 0.31883 0.46594 0.0
C329 C 0.2004 0.35272 0.42927 0.0
H330 H 0.85012 0.24655 0.00228 0.0
C331 C 0.82282 0.22565 0.02651 0.0
H332 H 0.76442 0.18481 0.00724 0.0
H333 H 0.81704 0.29131 0.71198 0.0
H334 H 0.81726 0.34076 0.78703 0.0
H335 H 0.80744 0.33132 0.91686 0.0
H336 H 0.79695 0.27219 0.97234 0.0
C337 C 0.79217 0.20565 0.98457 0.0
C338 C 0.79617 0.2109 0.90569 0.0
C339 C 0.80208 0.24561 0.87387 0.0
C340 C 0.8077 0.25105 0.79883 0.0
C341 C 0.81293 0.28574 0.7686 0.0
C342 C 0.81305 0.31436 0.81107 0.0
C343 C 0.80753 0.30906 0.88417 0.0
C344 C 0.80182 0.27506 0.91542 0.0
H345 H 0.75629 0.17664 0.66043 0.0
C346 C 0.78115 0.20072 0.63511 0.0
H347 H 0.8349 0.25076 0.6523 0.0
H348 H 0.78454 0.1408 0.94931 0.0
H349 H 0.78774 0.09267 0.8756 0.0
H350 H 0.80251 0.10407 0.74726 0.0
H351 H 0.81316 0.1631 0.69157 0.0
C352 C 0.80997 0.22619 0.67622 0.0
C353 C 0.8074 0.2218 0.75559 0.0
C354 C 0.80292 0.18769 0.78801 0.0
C355 C 0.79614 0.18182 0.86266 0.0
C356 C 0.79034 0.14696 0.89307 0.0
C357 C 0.79216 0.11911 0.85142 0.0
C358 C 0.80034 0.12547 0.77914 0.0
C359 C 0.80592 0.15936 0.74764 0.0
H360 H 0.6132 0.78727 0.35848 0.0
C361 C 0.59245 0.79548 0.37667 0.0
H362 H 0.55004 0.80927 0.34714 0.0
H363 H 0.62259 0.86456 0.04032 0.0
H364 H 0.6305 0.92358 0.09193 0.0
H365 H 0.61341 0.9257 0.21765 0.0
H366 H 0.5887 0.86897 0.29246 0.0
C367 C 0.57044 0.80054 0.3296 0.0
C368 C 0.57591 0.79755 0.25233 0.0
C369 C 0.58925 0.83079 0.20906 0.0
C370 C 0.59813 0.82931 0.13627 0.0
C371 C 0.61367 0.86354 0.09513 0.0
C372 C 0.61879 0.89778 0.12431 0.0
C373 C 0.60924 0.89899 0.19509 0.0
C374 C 0.59496 0.8661 0.2374 0.0
H375 H 0.55663 0.80626 0.99828 0.0
C376 C 0.57608 0.79609 0.98172 0.0
H377 H 0.61742 0.78111 0.01259 0.0
H378 H 0.54604 0.72719 0.31889 0.0
H379 H 0.53926 0.66853 0.26793 0.0
H380 H 0.55643 0.66643 0.14226 0.0
H381 H 0.58006 0.72277 0.06696 0.0
C382 C 0.59781 0.79103 0.02951 0.0
C383 C 0.59229 0.79418 0.10667 0.0
C384 C 0.57913 0.76097 0.15005 0.0
C385 C 0.57022 0.76244 0.22279 0.0
C386 C 0.55503 0.72828 0.26412 0.0
C387 C 0.55052 0.69421 0.23529 0.0
C388 C 0.56009 0.693 0.16455 0.0
C389 C 0.57382 0.72573 0.12196 0.0
H390 H 0.74338 0.56093 0.66954 0.0
C391 C 0.77237 0.57506 0.69119 0.0
H392 H 0.83191 0.60496 0.66597 0.0
H393 H 0.76365 0.50602 0.37027 0.0
H394 H 0.76242 0.45445 0.43989 0.0
H395 H 0.77649 0.4623 0.56806 0.0
H396 H 0.79223 0.52204 0.62801 0.0
C397 C 0.80257 0.58986 0.64616 0.0
C398 C 0.79624 0.58603 0.56773 0.0
C399 C 0.78766 0.55119 0.53312 0.0
C400 C 0.78039 0.54699 0.45861 0.0
C401 C 0.77067 0.51133 0.42616 0.0
C402 C 0.76948 0.48131 0.46554 0.0
C403 C 0.7774 0.48574 0.53785 0.0
C404 C 0.78631 0.52015 0.57158 0.0
H405 H 0.83018 0.57397 0.32591 0.0
C406 C 0.80604 0.57373 0.2992 0.0
H407 H 0.75523 0.57668 0.31402 0.0
H408 H 0.81157 0.65631 0.61784 0.0
H409 H 0.8145 0.70882 0.54842 0.0
H410 H 0.8031 0.70216 0.41892 0.0
H411 H 0.78846 0.64291 0.35798 0.0
C412 C 0.77887 0.57526 0.33902 0.0
C413 C 0.78268 0.57807 0.4183 0.0
C414 C 0.79093 0.6128 0.45322 0.0
C415 C 0.79779 0.61679 0.52792 0.0
C416 C 0.8062 0.65184 0.56127 0.0
C417 C 0.808 0.68219 0.52206 0.0
C418 C 0.80156 0.67843 0.44913 0.0
C419 C 0.79317 0.64425 0.41481 0.0
H420 H 0.18279 0.78446 0.64881 0.0
C421 C 0.2127 0.79276 0.63842 0.0
H422 H 0.26701 0.80824 0.68113 0.0
H423 H 0.25422 0.87553 0.97254 0.0
H424 H 0.30867 0.93014 0.91665 0.0
H425 H 0.32553 0.92732 0.79108 0.0
H426 H 0.28833 0.86975 0.7211 0.0
C427 C 0.23727 0.80039 0.69225 0.0
C428 C 0.22613 0.8018 0.76716 0.0
C429 C 0.2476 0.83629 0.80655 0.0
C430 C 0.23733 0.83827 0.8783 0.0
C431 C 0.2602 0.87252 0.91741 0.0
C432 C 0.29165 0.90418 0.88601 0.0
C433 C 0.30117 0.90258 0.81539 0.0
C434 C 0.27953 0.86918 0.77586 0.0
H435 H 0.20194 0.75717 0.00863 0.0
C436 C 0.1987 0.78058 0.03049 0.0
H437 H 0.19415 0.82977 0.00902 0.0
H438 H 0.18335 0.72858 0.71231 0.0
H439 H 0.12595 0.67564 0.76507 0.0
H440 H 0.10196 0.68289 0.8822 0.0
H441 H 0.13639 0.74271 0.9483 0.0
C442 C 0.19774 0.80659 0.98719 0.0
C443 C 0.2051 0.80607 0.90978 0.0
C444 C 0.18241 0.77232 0.86914 0.0
C445 C 0.1942 0.76937 0.79913 0.0
C446 C 0.17401 0.73352 0.7634 0.0
C447 C 0.14122 0.70267 0.79348 0.0
C448 C 0.12787 0.70667 0.85957 0.0
C449 C 0.14809 0.74103 0.8972 0.0
H450 H 0.45303 0.18808 0.34084 0.0
C451 C 0.43162 0.19424 0.36353 0.0
H452 H 0.38754 0.207 0.34258 0.0
H453 H 0.4447 0.27528 0.03532 0.0
H454 H 0.44967 0.33032 0.09931 0.0
H455 H 0.43886 0.32738 0.22919 0.0
H456 H 0.42308 0.26954 0.29588 0.0
C457 C 0.40903 0.20085 0.32037 0.0
C458 C 0.4141 0.20183 0.24166 0.0
C459 C 0.4236 0.23609 0.20373 0.0
C460 C 0.42994 0.23787 0.12893 0.0
C461 C 0.4394 0.27237 0.09218 0.0
C462 C 0.44245 0.30419 0.12825 0.0
C463 C 0.43638 0.30254 0.20137 0.0
C464 C 0.42723 0.26905 0.239 0.0
H465 H 0.36891 0.17977 0.0024 0.0
C466 C 0.39659 0.19195 0.97504 0.0
H467 H 0.45717 0.21951 0.98789 0.0
H468 H 0.39055 0.12944 0.29551 0.0
H469 H 0.38693 0.0753 0.23139 0.0
H470 H 0.40281 0.08039 0.10323 0.0
H471 H 0.42137 0.1396 0.03826 0.0
C472 C 0.42896 0.20594 0.01339 0.0
C473 C 0.42654 0.2054 0.09227 0.0
C474 C 0.41753 0.17134 0.13004 0.0
C475 C 0.41028 0.16912 0.20454 0.0
C476 C 0.39844 0.13363 0.23978 0.0
C477 C 0.39584 0.10208 0.20338 0.0
C478 C 0.4046 0.10489 0.1312 0.0
C479 C 0.41512 0.13898 0.09457 0.0
H480 H 0.17511 0.52096 0.09642 0.0
C481 C 0.20289 0.5284 0.11901 0.0
H482 H 0.25029 0.56891 0.17942 0.0
H483 H 0.2108 0.70199 0.11703 0.0
H484 H 0.25159 0.71266 0.01362 0.0
H485 H 0.27299 0.66638 0.98212 0.0
H486 H 0.25279 0.60862 0.05296 0.0
C487 C 0.22248 0.5611 0.15662 0.0
C488 C 0.20683 0.58719 0.17155 0.0
C489 C 0.21974 0.62126 0.131 0.0
C490 C 0.20886 0.64881 0.15112 0.0
C491 C 0.22008 0.6813 0.10669 0.0
C492 C 0.2431 0.6875 0.04663 0.0
C493 C 0.25505 0.6614 0.02878 0.0
C494 C 0.2434 0.62847 0.07003 0.0
H495 H 0.24056 0.71684 0.24235 0.0
C496 C 0.21158 0.71005 0.25749 0.0
H497 H 0.15261 0.66888 0.25857 0.0
H498 H 0.17346 0.52271 0.2556 0.0
H499 H 0.13125 0.51102 0.35708 0.0
H500 H 0.11426 0.55969 0.3951 0.0
H501 H 0.13926 0.62019 0.33212 0.0
C502 C 0.18142 0.67497 0.24392 0.0
C503 C 0.18689 0.64326 0.21434 0.0
C504 C 0.17169 0.6078 0.25191 0.0
C505 C 0.18162 0.57972 0.23029 0.0
C506 C 0.16675 0.54494 0.26953 0.0
C507 C 0.14251 0.53786 0.32798 0.0
C508 C 0.13295 0.56526 0.34936 0.0
C509 C 0.14748 0.59994 0.31239 0.0
H510 H 0.66509 0.19642 0.4033 0.0
C511 C 0.68307 0.20568 0.4504 0.0
H512 H 0.68766 0.21736 0.55996 0.0
H513 H 0.57131 0.27311 0.60989 0.0
H514 H 0.63247 0.3312 0.62978 0.0
H515 H 0.69374 0.33377 0.5992 0.0
H516 H 0.69423 0.27827 0.54948 0.0
C517 C 0.66882 0.20839 0.51391 0.0
C518 C 0.63119 0.20713 0.5233 0.0
C519 C 0.63141 0.24025 0.55126 0.0
C520 C 0.59613 0.23912 0.56746 0.0
C521 C 0.59726 0.27243 0.5962 0.0
C522 C 0.63219 0.30603 0.60785 0.0
C523 C 0.66666 0.30745 0.59079 0.0
C524 C 0.66647 0.27515 0.56268 0.0
H525 H 0.51745 0.18609 0.6741 0.0
C526 C 0.50647 0.19643 0.63191 0.0
H527 H 0.5135 0.2158 0.52516 0.0
H528 H 0.61979 0.13765 0.47382 0.0
H529 H 0.55833 0.08098 0.44775 0.0
H530 H 0.4973 0.08066 0.46916 0.0
H531 H 0.49739 0.13697 0.51801 0.0
C532 C 0.52402 0.20528 0.56774 0.0
C533 C 0.5606 0.20522 0.55428 0.0
C534 C 0.56017 0.17252 0.52422 0.0
C535 C 0.5955 0.17316 0.50981 0.0
C536 C 0.59403 0.13934 0.48332 0.0
C537 C 0.55888 0.10648 0.4686 0.0
C538 C 0.5245 0.10626 0.48078 0.0
C539 C 0.52495 0.13875 0.50867 0.0
H540 H 0.33749 0.50862 0.00254 0.0
C541 C 0.31414 0.5049 0.96824 0.0
H542 H 0.29851 0.52335 0.87555 0.0
H543 H 0.46772 0.67857 0.93451 0.0
H544 H 0.44326 0.68221 0.0511 0.0
H545 H 0.38014 0.63023 0.09382 0.0
H546 H 0.34166 0.57403 0.0213 0.0
C547 C 0.32173 0.528 0.91113 0.0
C548 C 0.36134 0.55846 0.88965 0.0
C549 C 0.38276 0.59176 0.93224 0.0
C550 C 0.41823 0.62272 0.90614 0.0
C551 C 0.43992 0.65494 0.95069 0.0
C552 C 0.42632 0.65731 0.01786 0.0
C553 C 0.39087 0.62798 0.042 0.0
C554 C 0.36915 0.59563 -0.00014 0.0
H555 H 0.43257 0.68513 0.79647 0.0
C556 C 0.46053 0.68727 0.78889 0.0
H557 H 0.49183 0.65768 0.7979 0.0
H558 H 0.33016 0.49723 0.79807 0.0
H559 H 0.35488 0.49407 0.68144 0.0
H560 H 0.41478 0.54915 0.63433 0.0
H561 H 0.45045 0.60765 0.70401 0.0
C562 C 0.46432 0.65657 0.80447 0.0
C563 C 0.43115 0.62136 0.83619 0.0
C564 C 0.41085 0.58742 0.79519 0.0
C565 C 0.37603 0.55589 0.82204 0.0
C566 C 0.35635 0.52227 0.77982 0.0
C567 C 0.37033 0.52003 0.71289 0.0
C568 C 0.40407 0.55102 0.68641 0.0
C569 C 0.42422 0.58442 0.72683 0.0
H570 H 0.77803 0.29707 0.2294 0.0
C571 C 0.80001 0.30298 0.26904 0.0
H572 H 0.8477 0.3473 0.32393 0.0
H573 H 0.83106 0.4341 0.0386 0.0
H574 H 0.87832 0.41858 0.99223 0.0
H575 H 0.89999 0.38163 0.06437 0.0
H576 H 0.87417 0.35972 0.18352 0.0
C577 C 0.8247 0.33971 0.28592 0.0
C578 C 0.81969 0.37028 0.25127 0.0
C579 C 0.83647 0.38468 0.18348 0.0
C580 C 0.82474 0.40695 0.14273 0.0
C581 C 0.83997 0.41846 0.07308 0.0
C582 C 0.86692 0.40944 0.04552 0.0
C583 C 0.87904 0.38854 0.08605 0.0
C584 C 0.86398 0.3761 0.15418 0.0
H585 H 0.83601 0.48815 0.11749 0.0
C586 C 0.80502 0.47419 0.10994 0.0
H587 H 0.75137 0.42359 0.12196 0.0
H588 H 0.78401 0.34896 0.38102 0.0
H589 H 0.73589 0.36336 0.42783 0.0
H590 H 0.71605 0.40277 0.35864 0.0
H591 H 0.74462 0.42868 0.2435 0.0
C592 C 0.7824 0.43709 0.12857 0.0
C593 C 0.79702 0.41571 0.17107 0.0
C594 C 0.78136 0.40242 0.24021 0.0
C595 C 0.79273 0.37972 0.2802 0.0
C596 C 0.77603 0.36606 0.34828 0.0
C597 C 0.74853 0.37422 0.37587 0.0
C598 C 0.7374 0.39643 0.33696 0.0
C599 C 0.75389 0.4109 0.27049 0.0
H600 H 0.3279 0.74244 0.45408 0.0
C601 C 0.32387 0.76735 0.45267 0.0
H602 H 0.34946 0.82729 0.47238 0.0
H603 H 0.45095 0.79501 0.69585 0.0
H604 H 0.41185 0.80916 0.77494 0.0
H605 H 0.36274 0.82306 0.72763 0.0
H606 H 0.3521 0.82196 0.60037 0.0
C607 C 0.35321 0.80224 0.47033 0.0
C608 C 0.38985 0.80591 0.496 0.0
C609 C 0.3973 0.80896 0.56992 0.0
C610 C 0.42699 0.80293 0.59678 0.0
C611 C 0.43083 0.80196 0.67162 0.0
C612 C 0.40806 0.8095 0.71798 0.0
C613 C 0.38032 0.81716 0.6914 0.0
C614 C 0.37452 0.81645 0.6183 0.0
H615 H 0.51203 0.83849 0.63331 0.0
C616 C 0.50966 0.81141 0.61645 0.0
H617 H 0.47815 0.76033 0.55754 0.0
H618 H 0.38731 0.80622 0.351 0.0
H619 H 0.43016 0.7983 0.2692 0.0
H620 H 0.48312 0.78982 0.31425 0.0
H621 H 0.49378 0.78938 0.44129 0.0
C622 C 0.48025 0.7872 0.57508 0.0
C623 C 0.45085 0.79649 0.54864 0.0
C624 C 0.44537 0.79698 0.47411 0.0
C625 C 0.41479 0.80167 0.44788 0.0
C626 C 0.4098 0.80208 0.37342 0.0
C627 C 0.43431 0.79782 0.326 0.0
C628 C 0.46419 0.79311 0.35143 0.0
C629 C 0.46986 0.79275 0.42451 0.0
H630 H 0.70766 0.47088 0.90631 0.0
C631 C 0.70393 0.49124 0.9391 0.0
H632 H 0.66322 0.50555 0.9802 0.0
H633 H 0.57407 0.3905 0.7085 0.0
H634 H 0.60059 0.45162 0.64615 0.0
H635 H 0.64271 0.51285 0.70797 0.0
H636 H 0.65866 0.51324 0.83284 0.0
C637 C 0.66828 0.48538 0.94977 0.0
C638 C 0.63528 0.45042 0.91846 0.0
C639 C 0.62494 0.4507 0.84655 0.0
C640 C 0.59998 0.41539 0.81138 0.0
C641 C 0.59199 0.41644 0.73839 0.0
C642 C 0.60721 0.45135 0.70185 0.0
C643 C 0.63099 0.48583 0.73661 0.0
C644 C 0.64 0.48567 0.80807 0.0
H645 H 0.51429 0.34746 0.78859 0.0
C646 C 0.52679 0.32881 0.78846 0.0
H647 H 0.57483 0.32318 0.8141 0.0
H648 H 0.64578 0.44086 0.05869 0.0
H649 H 0.61705 0.38025 0.1236 0.0
H650 H 0.57235 0.31906 0.06419 0.0
H651 H 0.55645 0.31799 0.93958 0.0
C652 C 0.56288 0.34228 0.81201 0.0
C653 C 0.58479 0.38002 0.84905 0.0
C654 C 0.59294 0.3802 0.92254 0.0
C655 C 0.61827 0.41544 0.95714 0.0
C656 C 0.62672 0.41476 0.02999 0.0
C657 C 0.61034 0.38024 0.06788 0.0
C658 C 0.58521 0.3458 0.03441 0.0
C659 C 0.57646 0.34559 0.96269 0.0
loop_
_geom_bond_atom_site_label_1
_geom_bond_atom_site_label_2
_geom_bond_distance
_geom_bond_site_symmetry_2
_ccdc_geom_bond_type
Zn0 O6 1.969 . S
Zn0 O7 1.965 . S
Zn0 O11 2.024 . S
Zn0 O16 1.969 . S
Zn1 O8 1.969 . S
Zn1 O14 1.969 . S
Zn1 O15 1.965 . S
Zn1 O17 2.024 . S
C2 O3 1.229 . S
C2 O11 1.058 . S
O3 C2 1.229 . S
C4 O5 1.229 . S
C4 O17 1.058 . S
O5 C4 1.229 . S
O6 Zn0 1.969 . S
O6 C9 1.267 . S
O7 Zn0 1.965 . S
O7 C18 1.260 . S
O8 Zn1 1.969 . S
O8 C18 1.258 1_556 S
C9 O6 1.267 . S
C9 O10 1.228 . S
O10 C9 1.228 . S
O11 Zn0 2.024 . S
O11 C2 1.058 . S
C12 O13 1.228 . S
C12 O14 1.267 . S
O13 C12 1.228 . S
O14 Zn1 1.969 . S
O14 C12 1.267 . S
O15 Zn1 1.965 . S
O15 C19 1.260 . S
O16 Zn0 1.969 . S
O16 C19 1.258 1_554 S
O17 Zn1 2.024 . S
O17 C4 1.058 . S
C18 O7 1.260 . S
C18 O8 1.258 1_554 S
C19 O15 1.260 . S
C19 O16 1.258 1_556 S
Zn20 O26 1.969 . S
Zn20 O27 1.965 . S
Zn20 O31 2.024 . S
Zn20 O36 1.969 . S
Zn21 O28 1.969 . S
Zn21 O34 1.969 . S
Zn21 O35 1.965 . S
Zn21 O37 2.024 . S
C22 O23 1.229 . S
C22 O31 1.058 . S
O23 C22 1.229 . S
C24 O25 1.229 . S
C24 O37 1.058 . S
O25 C24 1.229 . S
O26 Zn20 1.969 . S
O26 C29 1.267 . S
O27 Zn20 1.965 . S
O27 C38 1.260 . S
O28 Zn21 1.969 . S
O28 C38 1.258 . S
C29 O26 1.267 . S
C29 O30 1.228 . S
O30 C29 1.228 . S
O31 Zn20 2.024 . S
O31 C22 1.058 . S
C32 O33 1.228 . S
C32 O34 1.267 . S
O33 C32 1.228 . S
O34 Zn21 1.969 . S
O34 C32 1.267 . S
O35 Zn21 1.965 . S
O35 C39 1.260 . S
O36 Zn20 1.969 . S
O36 C39 1.258 . S
O37 Zn21 2.024 . S
O37 C24 1.058 . S
C38 O27 1.260 . S
C38 O28 1.258 . S
C39 O35 1.260 . S
C39 O36 1.258 . S
Zn40 O46 1.969 . S
Zn40 O47 1.965 . S
Zn40 O51 2.024 . S
Zn40 O56 1.969 . S
Zn41 O48 1.969 . S
Zn41 O54 1.969 . S
Zn41 O55 1.965 . S
Zn41 O57 2.024 . S
C42 O43 1.229 . S
C42 O51 1.058 . S
O43 C42 1.229 . S
C44 O45 1.229 . S
C44 O57 1.058 . S
O45 C44 1.229 . S
O46 Zn40 1.969 . S
O46 C49 1.267 . S
O47 Zn40 1.965 . S
O47 C58 1.260 . S
O48 Zn41 1.969 . S
O48 C58 1.258 . S
C49 O46 1.267 . S
C49 O50 1.228 . S
O50 C49 1.228 . S
O51 Zn40 2.024 . S
O51 C42 1.058 . S
C52 O53 1.228 . S
C52 O54 1.267 . S
O53 C52 1.228 . S
O54 Zn41 1.969 . S
O54 C52 1.267 . S
O55 Zn41 1.965 . S
O55 C59 1.260 . S
O56 Zn40 1.969 . S
O56 C59 1.258 . S
O57 Zn41 2.024 . S
O57 C44 1.058 . S
C58 O47 1.260 . S
C58 O48 1.258 . S
C59 O55 1.260 . S
C59 O56 1.258 . S
Zn60 O66 1.969 . S
Zn60 O67 1.965 . S
Zn60 O71 2.024 . S
Zn60 O76 1.969 . S
Zn61 O68 1.969 . S
Zn61 O74 1.969 . S
Zn61 O75 1.965 . S
Zn61 O77 2.024 . S
C62 O63 1.229 . S
C62 O71 1.058 . S
O63 C62 1.229 . S
C64 O65 1.229 . S
C64 O77 1.058 . S
O65 C64 1.229 . S
O66 Zn60 1.969 . S
O66 C69 1.267 . S
O67 Zn60 1.965 . S
O67 C78 1.260 . S
O68 Zn61 1.969 . S
O68 C78 1.258 1_556 S
C69 O66 1.267 . S
C69 O70 1.228 . S
O70 C69 1.228 . S
O71 Zn60 2.024 . S
O71 C62 1.058 . S
C72 O73 1.228 . S
C72 O74 1.267 . S
O73 C72 1.228 . S
O74 Zn61 1.969 . S
O74 C72 1.267 . S
O75 Zn61 1.965 . S
O75 C79 1.260 . S
O76 Zn60 1.969 . S
O76 C79 1.258 1_554 S
O77 Zn61 2.024 . S
O77 C64 1.058 . S
C78 O67 1.260 . S
C78 O68 1.258 1_554 S
C79 O75 1.260 . S
C79 O76 1.258 1_556 S
Zn80 O86 1.969 . S
Zn80 O87 1.965 . S
Zn80 O91 2.024 . S
Zn80 O96 1.969 . S
Zn81 O88 1.969 . S
Zn81 O94 1.969 . S
Zn81 O95 1.965 . S
Zn81 O97 2.024 . S
C82 O83 1.229 . S
C82 O91 1.058 . S
O83 C82 1.229 . S
C84 O85 1.229 . S
C84 O97 1.058 . S
O85 C84 1.229 . S
O86 Zn80 1.969 . S
O86 C89 1.267 . S
O87 Zn80 1.965 . S
O87 C98 1.260 . S
O88 Zn81 1.969 . S
O88 C98 1.258 . S
C89 O86 1.267 . S
C89 O90 1.228 . S
O90 C89 1.228 . S
O91 Zn80 2.024 . S
O91 C82 1.058 . S
C92 O93 1.228 . S
C92 O94 1.267 . S
O93 C92 1.228 . S
O94 Zn81 1.969 . S
O94 C92 1.267 . S
O95 Zn81 1.965 . S
O95 C99 1.260 . S
O96 Zn80 1.969 . S
O96 C99 1.258 . S
O97 Zn81 2.024 . S
O97 C84 1.058 . S
C98 O87 1.260 . S
C98 O88 1.258 . S
C99 O95 1.260 . S
C99 O96 1.258 . S
Zn100 O106 1.969 . S
Zn100 O107 1.965 . S
Zn100 O111 2.024 . S
Zn100 O116 1.969 . S
Zn101 O108 1.969 . S
Zn101 O114 1.969 . S
Zn101 O115 1.965 . S
Zn101 O117 2.024 . S
C102 O103 1.229 . S
C102 O111 1.058 . S
O103 C102 1.229 . S
C104 O105 1.229 . S
C104 O117 1.058 . S
O105 C104 1.229 . S
O106 Zn100 1.969 . S
O106 C109 1.267 . S
O107 Zn100 1.965 . S
O107 C118 1.260 . S
O108 Zn101 1.969 . S
O108 C118 1.258 . S
C109 O106 1.267 . S
C109 O110 1.228 . S
O110 C109 1.228 . S
O111 Zn100 2.024 . S
O111 C102 1.058 . S
C112 O113 1.228 . S
C112 O114 1.267 . S
O113 C112 1.228 . S
O114 Zn101 1.969 . S
O114 C112 1.267 . S
O115 Zn101 1.965 . S
O115 C119 1.260 . S
O116 Zn100 1.969 . S
O116 C119 1.258 . S
O117 Zn101 2.024 . S
O117 C104 1.058 . S
C118 O107 1.260 . S
C118 O108 1.258 . S
C119 O115 1.260 . S
C119 O116 1.258 . S
H120 C121 0.951 . S
C121 H120 0.951 . S
C121 C127 1.265 . S
H122 C127 0.950 . S
H123 C131 0.949 . S
H124 C132 0.950 . S
H125 C133 0.951 . S
H126 C134 0.951 . S
C127 C121 1.265 . S
C127 H122 0.950 . S
C127 C128 1.478 . S
C128 C127 1.478 . S
C128 C129 1.397 . S
C128 C145 1.394 . S
C129 C128 1.397 . S
C129 C130 1.438 . S
C129 C134 1.429 . S
C130 C129 1.438 . S
C130 C131 1.428 . S
C130 C143 1.394 . S
C131 H123 0.949 . S
C131 C130 1.428 . S
C131 C132 1.345 . S
C132 H124 0.950 . S
C132 C131 1.345 . S
C132 C133 1.424 . S
C133 H125 0.951 . S
C133 C132 1.424 . S
C133 C134 1.347 . S
C134 H126 0.951 . S
C134 C129 1.429 . S
C134 C133 1.347 . S
H135 C136 0.951 . S
C136 H135 0.951 . S
C136 C142 1.265 . S
H137 C142 0.950 . S
H138 C146 0.949 . S
H139 C147 0.950 . S
H140 C148 0.951 . S
H141 C149 0.951 . S
C142 C136 1.265 . S
C142 H137 0.950 . S
C142 C143 1.478 . S
C143 C130 1.394 . S
C143 C142 1.478 . S
C143 C144 1.397 . S
C144 C143 1.397 . S
C144 C145 1.438 . S
C144 C149 1.429 . S
C145 C128 1.394 . S
C145 C144 1.438 . S
C145 C146 1.428 . S
C146 H138 0.949 . S
C146 C145 1.428 . S
C146 C147 1.345 . S
C147 H139 0.950 . S
C147 C146 1.345 . S
C147 C148 1.424 . S
C148 H140 0.951 . S
C148 C147 1.424 . S
C148 C149 1.347 . S
C149 H141 0.951 . S
C149 C144 1.429 . S
C149 C148 1.347 . S
H150 C151 0.951 . S
C151 H150 0.951 . S
C151 C157 1.265 . S
H152 C157 0.950 . S
H153 C161 0.949 1_655 S
H154 C162 0.950 . S
H155 C163 0.951 . S
H156 C164 0.951 . S
C157 C151 1.265 . S
C157 H152 0.950 . S
C157 C158 1.478 . S
C158 C157 1.478 . S
C158 C159 1.397 . S
C158 C175 1.394 . S
C159 C158 1.397 . S
C159 C160 1.438 . S
C159 C164 1.429 . S
C160 C159 1.438 . S
C160 C161 1.428 . S
C160 C173 1.394 1_455 S
C161 H153 0.949 1_455 S
C161 C160 1.428 . S
C161 C162 1.345 . S
C162 H154 0.950 . S
C162 C161 1.345 . S
C162 C163 1.424 . S
C163 H155 0.951 . S
C163 C162 1.424 . S
C163 C164 1.347 . S
C164 H156 0.951 . S
C164 C159 1.429 . S
C164 C163 1.347 . S
H165 C166 0.951 . S
C166 H165 0.951 . S
C166 C172 1.265 . S
H167 C172 0.950 . S
H168 C176 0.949 . S
H169 C177 0.950 . S
H170 C178 0.951 . S
H171 C179 0.951 . S
C172 C166 1.265 . S
C172 H167 0.950 . S
C172 C173 1.478 . S
C173 C160 1.394 1_655 S
C173 C172 1.478 . S
C173 C174 1.397 . S
C174 C173 1.397 . S
C174 C175 1.438 1_655 S
C174 C179 1.429 . S
C175 C158 1.394 . S
C175 C174 1.438 1_455 S
C175 C176 1.428 1_554 S
C176 H168 0.949 . S
C176 C175 1.428 1_556 S
C176 C177 1.345 . S
C177 H169 0.950 . S
C177 C176 1.345 . S
C177 C178 1.424 1_455 S
C178 H170 0.951 . S
C178 C177 1.424 1_655 S
C178 C179 1.347 1_556 S
C179 H171 0.951 . S
C179 C174 1.429 . S
C179 C178 1.347 1_554 S
H180 C181 0.951 . S
C181 H180 0.951 . S
C181 C187 1.265 . S
H182 C187 0.950 . S
H183 C191 0.949 . S
H184 C192 0.950 . S
H185 C193 0.951 . S
H186 C194 0.951 . S
C187 C181 1.265 . S
C187 H182 0.950 . S
C187 C188 1.478 . S
C188 C187 1.478 . S
C188 C189 1.397 . S
C188 C205 1.394 . S
C189 C188 1.397 . S
C189 C190 1.438 1_545 S
C189 C194 1.429 . S
C190 C189 1.438 1_565 S
C190 C191 1.428 . S
C190 C203 1.394 . S
C191 H183 0.949 . S
C191 C190 1.428 . S
C191 C192 1.345 . S
C192 H184 0.950 . S
C192 C191 1.345 . S
C192 C193 1.424 . S
C193 H185 0.951 . S
C193 C192 1.424 . S
C193 C194 1.347 1_565 S
C194 H186 0.951 . S
C194 C189 1.429 . S
C194 C193 1.347 1_545 S
H195 C196 0.951 . S
C196 H195 0.951 . S
C196 C202 1.265 . S
H197 C202 0.950 . S
H198 C206 0.949 . S
H199 C207 0.950 . S
H200 C208 0.951 . S
H201 C209 0.950 1_565 S
C202 C196 1.265 . S
C202 H197 0.950 . S
C202 C203 1.478 . S
C203 C190 1.394 . S
C203 C202 1.478 . S
C203 C204 1.397 1_565 S
C204 C203 1.397 1_545 S
C204 C205 1.438 . S
C204 C209 1.429 . S
C205 C188 1.394 . S
C205 C204 1.438 . S
C205 C206 1.428 . S
C206 H198 0.949 . S
C206 C205 1.428 . S
C206 C207 1.345 . S
C207 H199 0.950 . S
C207 C206 1.345 . S
C207 C208 1.424 . S
C208 H200 0.951 . S
C208 C207 1.424 . S
C208 C209 1.347 . S
C209 H201 0.950 1_545 S
C209 C204 1.429 . S
C209 C208 1.347 . S
H210 C211 0.951 . S
C211 H210 0.951 . S
C211 C217 1.265 . S
H212 C217 0.950 . S
H213 C221 0.949 . S
H214 C222 0.950 . S
H215 C223 0.951 . S
H216 C224 0.951 . S
C217 C211 1.265 . S
C217 H212 0.950 . S
C217 C218 1.478 . S
C218 C217 1.478 . S
C218 C219 1.397 . S
C218 C235 1.394 . S
C219 C218 1.397 . S
C219 C220 1.438 . S
C219 C224 1.429 . S
C220 C219 1.438 . S
C220 C221 1.428 . S
C220 C233 1.394 . S
C221 H213 0.949 . S
C221 C220 1.428 . S
C221 C222 1.345 . S
C222 H214 0.950 . S
C222 C221 1.345 . S
C222 C223 1.424 . S
C223 H215 0.951 . S
C223 C222 1.424 . S
C223 C224 1.347 . S
C224 H216 0.951 . S
C224 C219 1.429 . S
C224 C223 1.347 . S
H225 C226 0.951 . S
C226 H225 0.951 . S
C226 C232 1.265 . S
H227 C232 0.950 . S
H228 C236 0.949 . S
H229 C237 0.950 . S
H230 C238 0.951 . S
H231 C239 0.951 . S
C232 C226 1.265 . S
C232 H227 0.950 . S
C232 C233 1.478 . S
C233 C220 1.394 . S
C233 C232 1.478 . S
C233 C234 1.397 . S
C234 C233 1.397 . S
C234 C235 1.438 . S
C234 C239 1.429 . S
C235 C218 1.394 . S
C235 C234 1.438 . S
C235 C236 1.428 . S
C236 H228 0.949 . S
C236 C235 1.428 . S
C236 C237 1.345 . S
C237 H229 0.950 . S
C237 C236 1.345 . S
C237 C238 1.424 . S
C238 H230 0.951 . S
C238 C237 1.424 . S
C238 C239 1.347 . S
C239 H231 0.951 . S
C239 C234 1.429 . S
C239 C238 1.347 . S
H240 C241 0.951 . S
C241 H240 0.951 . S
C241 C247 1.265 . S
H242 C247 0.950 . S
H243 C251 0.949 . S
H244 C252 0.950 . S
H245 C253 0.951 . S
H246 C254 0.951 1_455 S
C247 C241 1.265 . S
C247 H242 0.950 . S
C247 C248 1.478 . S
C248 C247 1.478 . S
C248 C249 1.397 1_455 S
C248 C265 1.394 . S
C249 C248 1.397 1_655 S
C249 C250 1.438 . S
C249 C254 1.429 . S
C250 C249 1.438 . S
C250 C251 1.428 . S
C250 C263 1.394 . S
C251 H243 0.949 . S
C251 C250 1.428 . S
C251 C252 1.345 . S
C252 H244 0.950 . S
C252 C251 1.345 . S
C252 C253 1.424 . S
C253 H245 0.951 . S
C253 C252 1.424 . S
C253 C254 1.347 . S
C254 H246 0.951 1_655 S
C254 C249 1.429 . S
C254 C253 1.347 . S
H255 C256 0.951 . S
C256 H255 0.951 . S
C256 C262 1.265 . S
H257 C262 0.950 . S
H258 C266 0.949 . S
H259 C267 0.950 . S
H260 C268 0.951 1_556 S
H261 C269 0.951 . S
C262 C256 1.265 . S
C262 H257 0.950 . S
C262 C263 1.478 . S
C263 C250 1.394 . S
C263 C262 1.478 . S
C263 C264 1.397 . S
C264 C263 1.397 . S
C264 C265 1.438 1_655 S
C264 C269 1.429 . S
C265 C248 1.394 . S
C265 C264 1.438 1_455 S
C265 C266 1.428 . S
C266 H258 0.949 . S
C266 C265 1.428 . S
C266 C267 1.345 . S
C267 H259 0.950 . S
C267 C266 1.345 . S
C267 C268 1.424 1_455 S
C268 H260 0.951 1_554 S
C268 C267 1.424 1_655 S
C268 C269 1.347 . S
C269 H261 0.951 . S
C269 C264 1.429 . S
C269 C268 1.347 . S
H270 C271 0.951 . S
C271 H270 0.951 . S
C271 C277 1.265 . S
H272 C277 0.950 . S
H273 C281 0.949 . S
H274 C282 0.950 . S
H275 C283 0.951 . S
H276 C284 0.951 1_545 S
C277 C271 1.265 . S
C277 H272 0.950 . S
C277 C278 1.478 . S
C278 C277 1.478 . S
C278 C279 1.397 1_545 S
C278 C295 1.394 . S
C279 C278 1.397 1_565 S
C279 C280 1.438 . S
C279 C284 1.429 . S
C280 C279 1.438 . S
C280 C281 1.428 . S
C280 C293 1.394 . S
C281 H273 0.949 . S
C281 C280 1.428 . S
C281 C282 1.345 . S
C282 H274 0.950 . S
C282 C281 1.345 . S
C282 C283 1.424 . S
C283 H275 0.951 . S
C283 C282 1.424 . S
C283 C284 1.347 . S
C284 H276 0.951 1_565 S
C284 C279 1.429 . S
C284 C283 1.347 . S
H285 C286 0.951 . S
C286 H285 0.951 . S
C286 C292 1.265 . S
H287 C292 0.950 . S
H288 C296 0.949 . S
H289 C297 0.950 . S
H290 C298 0.951 . S
H291 C299 0.951 . S
C292 C286 1.265 . S
C292 H287 0.950 . S
C292 C293 1.478 . S
C293 C280 1.394 . S
C293 C292 1.478 . S
C293 C294 1.397 . S
C294 C293 1.397 . S
C294 C295 1.438 1_565 S
C294 C299 1.429 . S
C295 C278 1.394 . S
C295 C294 1.438 1_545 S
C295 C296 1.428 . S
C296 H288 0.949 . S
C296 C295 1.428 . S
C296 C297 1.345 . S
C297 H289 0.950 . S
C297 C296 1.345 . S
C297 C298 1.424 . S
C298 H290 0.951 . S
C298 C297 1.424 . S
C298 C299 1.347 1_545 S
C299 H291 0.951 . S
C299 C294 1.429 . S
C299 C298 1.347 1_565 S
H300 C301 0.951 . S
C301 H300 0.951 . S
C301 C307 1.265 . S
H302 C307 0.950 . S
H303 C311 0.949 . S
H304 C312 0.950 . S
H305 C313 0.951 . S
H306 C314 0.951 . S
C307 C301 1.265 . S
C307 H302 0.950 . S
C307 C308 1.478 . S
C308 C307 1.478 . S
C308 C309 1.397 . S
C308 C325 1.394 . S
C309 C308 1.397 . S
C309 C310 1.438 . S
C309 C314 1.429 . S
C310 C309 1.438 . S
C310 C311 1.428 . S
C310 C323 1.394 . S
C311 H303 0.949 . S
C311 C310 1.428 . S
C311 C312 1.345 . S
C312 H304 0.950 . S
C312 C311 1.345 . S
C312 C313 1.424 . S
C313 H305 0.951 . S
C313 C312 1.424 . S
C313 C314 1.347 . S
C314 H306 0.951 . S
C314 C309 1.429 . S
C314 C313 1.347 . S
H315 C316 0.951 . S
C316 H315 0.951 . S
C316 C322 1.265 . S
H317 C322 0.950 . S
H318 C326 0.949 . S
H319 C327 0.950 . S
H320 C328 0.951 . S
H321 C329 0.951 . S
C322 C316 1.265 . S
C322 H317 0.950 . S
C322 C323 1.478 . S
C323 C310 1.394 . S
C323 C322 1.478 . S
C323 C324 1.397 . S
C324 C323 1.397 . S
C324 C325 1.438 . S
C324 C329 1.429 . S
C325 C308 1.394 . S
C325 C324 1.438 . S
C325 C326 1.428 . S
C326 H318 0.949 . S
C326 C325 1.428 . S
C326 C327 1.345 . S
C327 H319 0.950 . S
C327 C326 1.345 . S
C327 C328 1.424 . S
C328 H320 0.951 . S
C328 C327 1.424 . S
C328 C329 1.347 . S
C329 H321 0.951 . S
C329 C324 1.429 . S
C329 C328 1.347 . S
H330 C331 0.951 . S
C331 H330 0.951 . S
C331 C337 1.265 1_554 S
H332 C337 0.950 1_554 S
H333 C341 0.949 . S
H334 C342 0.950 . S
H335 C343 0.951 . S
H336 C344 0.951 . S
C337 C331 1.265 1_556 S
C337 H332 0.950 1_556 S
C337 C338 1.478 . S
C338 C337 1.478 . S
C338 C339 1.397 . S
C338 C355 1.394 . S
C339 C338 1.397 . S
C339 C340 1.438 . S
C339 C344 1.429 . S
C340 C339 1.438 . S
C340 C341 1.428 . S
C340 C353 1.394 . S
C341 H333 0.949 . S
C341 C340 1.428 . S
C341 C342 1.345 . S
C342 H334 0.950 . S
C342 C341 1.345 . S
C342 C343 1.424 . S
C343 H335 0.951 . S
C343 C342 1.424 . S
C343 C344 1.347 . S
C344 H336 0.951 . S
C344 C339 1.429 . S
C344 C343 1.347 . S
H345 C346 0.951 . S
C346 H345 0.951 . S
C346 C352 1.265 . S
H347 C352 0.950 . S
H348 C356 0.949 . S
H349 C357 0.950 . S
H350 C358 0.951 . S
H351 C359 0.951 . S
C352 C346 1.265 . S
C352 H347 0.950 . S
C352 C353 1.478 . S
C353 C340 1.394 . S
C353 C352 1.478 . S
C353 C354 1.397 . S
C354 C353 1.397 . S
C354 C355 1.438 . S
C354 C359 1.429 . S
C355 C338 1.394 . S
C355 C354 1.438 . S
C355 C356 1.428 . S
C356 H348 0.949 . S
C356 C355 1.428 . S
C356 C357 1.345 . S
C357 H349 0.950 . S
C357 C356 1.345 . S
C357 C358 1.424 . S
C358 H350 0.951 . S
C358 C357 1.424 . S
C358 C359 1.347 . S
C359 H351 0.951 . S
C359 C354 1.429 . S
C359 C358 1.347 . S
H360 C361 0.951 . S
C361 H360 0.951 . S
C361 C367 1.265 . S
H362 C367 0.950 . S
H363 C371 0.949 . S
H364 C372 0.950 . S
H365 C373 0.951 . S
H366 C374 0.951 . S
C367 C361 1.265 . S
C367 H362 0.950 . S
C367 C368 1.478 . S
C368 C367 1.478 . S
C368 C369 1.397 . S
C368 C385 1.394 . S
C369 C368 1.397 . S
C369 C370 1.438 . S
C369 C374 1.429 . S
C370 C369 1.438 . S
C370 C371 1.428 . S
C370 C383 1.394 . S
C371 H363 0.949 . S
C371 C370 1.428 . S
C371 C372 1.345 . S
C372 H364 0.950 . S
C372 C371 1.345 . S
C372 C373 1.424 . S
C373 H365 0.951 . S
C373 C372 1.424 . S
C373 C374 1.347 . S
C374 H366 0.951 . S
C374 C369 1.429 . S
C374 C373 1.347 . S
H375 C376 0.951 . S
C376 H375 0.951 . S
C376 C382 1.265 1_556 S
H377 C382 0.950 . S
H378 C386 0.949 . S
H379 C387 0.950 . S
H380 C388 0.951 . S
H381 C389 0.951 . S
C382 C376 1.265 1_554 S
C382 H377 0.950 . S
C382 C383 1.478 . S
C383 C370 1.394 . S
C383 C382 1.478 . S
C383 C384 1.397 . S
C384 C383 1.397 . S
C384 C385 1.438 . S
C384 C389 1.429 . S
C385 C368 1.394 . S
C385 C384 1.438 . S
C385 C386 1.428 . S
C386 H378 0.949 . S
C386 C385 1.428 . S
C386 C387 1.345 . S
C387 H379 0.950 . S
C387 C386 1.345 . S
C387 C388 1.424 . S
C388 H380 0.951 . S
C388 C387 1.424 . S
C388 C389 1.347 . S
C389 H381 0.951 . S
C389 C384 1.429 . S
C389 C388 1.347 . S
H390 C391 0.951 . S
C391 H390 0.951 . S
C391 C397 1.265 . S
H392 C397 0.950 . S
H393 C401 0.949 . S
H394 C402 0.950 . S
H395 C403 0.951 . S
H396 C404 0.951 . S
C397 C391 1.265 . S
C397 H392 0.950 . S
C397 C398 1.478 . S
C398 C397 1.478 . S
C398 C399 1.397 . S
C398 C415 1.394 . S
C399 C398 1.397 . S
C399 C400 1.438 . S
C399 C404 1.429 . S
C400 C399 1.438 . S
C400 C401 1.428 . S
C400 C413 1.394 . S
C401 H393 0.949 . S
C401 C400 1.428 . S
C401 C402 1.345 . S
C402 H394 0.950 . S
C402 C401 1.345 . S
C402 C403 1.424 . S
C403 H395 0.951 . S
C403 C402 1.424 . S
C403 C404 1.347 . S
C404 H396 0.951 . S
C404 C399 1.429 . S
C404 C403 1.347 . S
H405 C406 0.951 . S
C406 H405 0.951 . S
C406 C412 1.265 . S
H407 C412 0.950 . S
H408 C416 0.949 . S
H409 C417 0.950 . S
H410 C418 0.951 . S
H411 C419 0.951 . S
C412 C406 1.265 . S
C412 H407 0.950 . S
C412 C413 1.478 . S
C413 C400 1.394 . S
C413 C412 1.478 . S
C413 C414 1.397 . S
C414 C413 1.397 . S
C414 C415 1.438 . S
C414 C419 1.429 . S
C415 C398 1.394 . S
C415 C414 1.438 . S
C415 C416 1.428 . S
C416 H408 0.949 . S
C416 C415 1.428 . S
C416 C417 1.345 . S
C417 H409 0.950 . S
C417 C416 1.345 . S
C417 C418 1.424 . S
C418 H410 0.951 . S
C418 C417 1.424 . S
C418 C419 1.347 . S
C419 H411 0.951 . S
C419 C414 1.429 . S
C419 C418 1.347 . S
H420 C421 0.951 . S
C421 H420 0.951 . S
C421 C427 1.265 . S
H422 C427 0.950 . S
H423 C431 0.949 . S
H424 C432 0.950 . S
H425 C433 0.951 . S
H426 C434 0.951 . S
C427 C421 1.265 . S
C427 H422 0.950 . S
C427 C428 1.478 . S
C428 C427 1.478 . S
C428 C429 1.397 . S
C428 C445 1.394 . S
C429 C428 1.397 . S
C429 C430 1.438 . S
C429 C434 1.429 . S
C430 C429 1.438 . S
C430 C431 1.428 . S
C430 C443 1.394 . S
C431 H423 0.949 . S
C431 C430 1.428 . S
C431 C432 1.345 . S
C432 H424 0.950 . S
C432 C431 1.345 . S
C432 C433 1.424 . S
C433 H425 0.951 . S
C433 C432 1.424 . S
C433 C434 1.347 . S
C434 H426 0.951 . S
C434 C429 1.429 . S
C434 C433 1.347 . S
H435 C436 0.951 . S
C436 H435 0.951 . S
C436 C442 1.265 1_554 S
H437 C442 0.950 . S
H438 C446 0.949 . S
H439 C447 0.950 . S
H440 C448 0.951 . S
H441 C449 0.951 . S
C442 C436 1.265 1_556 S
C442 H437 0.950 . S
C442 C443 1.478 . S
C443 C430 1.394 . S
C443 C442 1.478 . S
C443 C444 1.397 . S
C444 C443 1.397 . S
C444 C445 1.438 . S
C444 C449 1.429 . S
C445 C428 1.394 . S
C445 C444 1.438 . S
C445 C446 1.428 . S
C446 H438 0.949 . S
C446 C445 1.428 . S
C446 C447 1.345 . S
C447 H439 0.950 . S
C447 C446 1.345 . S
C447 C448 1.424 . S
C448 H440 0.951 . S
C448 C447 1.424 . S
C448 C449 1.347 . S
C449 H441 0.951 . S
C449 C444 1.429 . S
C449 C448 1.347 . S
H450 C451 0.951 . S
C451 H450 0.951 . S
C451 C457 1.265 . S
H452 C457 0.950 . S
H453 C461 0.949 . S
H454 C462 0.950 . S
H455 C463 0.951 . S
H456 C464 0.951 . S
C457 C451 1.265 . S
C457 H452 0.950 . S
C457 C458 1.478 . S
C458 C457 1.478 . S
C458 C459 1.397 . S
C458 C475 1.394 . S
C459 C458 1.397 . S
C459 C460 1.438 . S
C459 C464 1.429 . S
C460 C459 1.438 . S
C460 C461 1.428 . S
C460 C473 1.394 . S
C461 H453 0.949 . S
C461 C460 1.428 . S
C461 C462 1.345 . S
C462 H454 0.950 . S
C462 C461 1.345 . S
C462 C463 1.424 . S
C463 H455 0.951 . S
C463 C462 1.424 . S
C463 C464 1.347 . S
C464 H456 0.951 . S
C464 C459 1.429 . S
C464 C463 1.347 . S
H465 C466 0.951 . S
C466 H465 0.951 . S
C466 C472 1.265 1_556 S
H467 C472 0.950 . S
H468 C476 0.949 . S
H469 C477 0.950 . S
H470 C478 0.951 . S
H471 C479 0.951 . S
C472 C466 1.265 1_554 S
C472 H467 0.950 . S
C472 C473 1.478 . S
C473 C460 1.394 . S
C473 C472 1.478 . S
C473 C474 1.397 . S
C474 C473 1.397 . S
C474 C475 1.438 . S
C474 C479 1.429 . S
C475 C458 1.394 . S
C475 C474 1.438 . S
C475 C476 1.428 . S
C476 H468 0.949 . S
C476 C475 1.428 . S
C476 C477 1.345 . S
C477 H469 0.950 . S
C477 C476 1.345 . S
C477 C478 1.424 . S
C478 H470 0.951 . S
C478 C477 1.424 . S
C478 C479 1.347 . S
C479 H471 0.951 . S
C479 C474 1.429 . S
C479 C478 1.347 . S
H480 C481 0.951 . S
C481 H480 0.951 . S
C481 C487 1.265 . S
H482 C487 0.950 . S
H483 C491 0.949 . S
H484 C492 0.950 . S
H485 C493 0.951 . S
H486 C494 0.951 . S
C487 C481 1.265 . S
C487 H482 0.950 . S
C487 C488 1.478 . S
C488 C487 1.478 . S
C488 C489 1.397 . S
C488 C505 1.394 . S
C489 C488 1.397 . S
C489 C490 1.438 . S
C489 C494 1.429 . S
C490 C489 1.438 . S
C490 C491 1.428 . S
C490 C503 1.394 . S
C491 H483 0.949 . S
C491 C490 1.428 . S
C491 C492 1.345 . S
C492 H484 0.950 . S
C492 C491 1.345 . S
C492 C493 1.424 . S
C493 H485 0.951 . S
C493 C492 1.424 . S
C493 C494 1.347 . S
C494 H486 0.951 . S
C494 C489 1.429 . S
C494 C493 1.347 . S
H495 C496 0.951 . S
C496 H495 0.951 . S
C496 C502 1.265 . S
H497 C502 0.950 . S
H498 C506 0.949 . S
H499 C507 0.950 . S
H500 C508 0.951 . S
H501 C509 0.951 . S
C502 C496 1.265 . S
C502 H497 0.950 . S
C502 C503 1.478 . S
C503 C490 1.394 . S
C503 C502 1.478 . S
C503 C504 1.397 . S
C504 C503 1.397 . S
C504 C505 1.438 . S
C504 C509 1.429 . S
C505 C488 1.394 . S
C505 C504 1.438 . S
C505 C506 1.428 . S
C506 H498 0.949 . S
C506 C505 1.428 . S
C506 C507 1.345 . S
C507 H499 0.950 . S
C507 C506 1.345 . S
C507 C508 1.424 . S
C508 H500 0.951 . S
C508 C507 1.424 . S
C508 C509 1.347 . S
C509 H501 0.951 . S
C509 C504 1.429 . S
C509 C508 1.347 . S
H510 C511 0.951 . S
C511 H510 0.951 . S
C511 C517 1.265 . S
H512 C517 0.950 . S
H513 C521 0.949 . S
H514 C522 0.950 . S
H515 C523 0.951 . S
H516 C524 0.951 . S
C517 C511 1.265 . S
C517 H512 0.950 . S
C517 C518 1.478 . S
C518 C517 1.478 . S
C518 C519 1.397 . S
C518 C535 1.394 . S
C519 C518 1.397 . S
C519 C520 1.438 . S
C519 C524 1.429 . S
C520 C519 1.438 . S
C520 C521 1.428 . S
C520 C533 1.394 . S
C521 H513 0.949 . S
C521 C520 1.428 . S
C521 C522 1.345 . S
C522 H514 0.950 . S
C522 C521 1.345 . S
C522 C523 1.424 . S
C523 H515 0.951 . S
C523 C522 1.424 . S
C523 C524 1.347 . S
C524 H516 0.951 . S
C524 C519 1.429 . S
C524 C523 1.347 . S
H525 C526 0.951 . S
C526 H525 0.951 . S
C526 C532 1.265 . S
H527 C532 0.950 . S
H528 C536 0.949 . S
H529 C537 0.950 . S
H530 C538 0.951 . S
H531 C539 0.951 . S
C532 C526 1.265 . S
C532 H527 0.950 . S
C532 C533 1.478 . S
C533 C520 1.394 . S
C533 C532 1.478 . S
C533 C534 1.397 . S
C534 C533 1.397 . S
C534 C535 1.438 . S
C534 C539 1.429 . S
C535 C518 1.394 . S
C535 C534 1.438 . S
C535 C536 1.428 . S
C536 H528 0.949 . S
C536 C535 1.428 . S
C536 C537 1.345 . S
C537 H529 0.950 . S
C537 C536 1.345 . S
C537 C538 1.424 . S
C538 H530 0.951 . S
C538 C537 1.424 . S
C538 C539 1.347 . S
C539 H531 0.951 . S
C539 C534 1.429 . S
C539 C538 1.347 . S
H540 C541 0.951 . S
C541 H540 0.951 . S
C541 C547 1.265 . S
H542 C547 0.950 . S
H543 C551 0.949 . S
H544 C552 0.950 . S
H545 C553 0.951 . S
H546 C554 0.951 . S
C547 C541 1.265 . S
C547 H542 0.950 . S
C547 C548 1.478 . S
C548 C547 1.478 . S
C548 C549 1.397 . S
C548 C565 1.394 . S
C549 C548 1.397 . S
C549 C550 1.438 . S
C549 C554 1.429 1_556 S
C550 C549 1.438 . S
C550 C551 1.428 . S
C550 C563 1.394 . S
C551 H543 0.949 . S
C551 C550 1.428 . S
C551 C552 1.345 1_556 S
C552 H544 0.950 . S
C552 C551 1.345 1_554 S
C552 C553 1.424 . S
C553 H545 0.951 . S
C553 C552 1.424 . S
C553 C554 1.347 . S
C554 H546 0.951 . S
C554 C549 1.429 1_554 S
C554 C553 1.347 . S
H555 C556 0.951 . S
C556 H555 0.951 . S
C556 C562 1.265 . S
H557 C562 0.950 . S
H558 C566 0.949 . S
H559 C567 0.950 . S
H560 C568 0.951 . S
H561 C569 0.951 . S
C562 C556 1.265 . S
C562 H557 0.950 . S
C562 C563 1.478 . S
C563 C550 1.394 . S
C563 C562 1.478 . S
C563 C564 1.397 . S
C564 C563 1.397 . S
C564 C565 1.438 . S
C564 C569 1.429 . S
C565 C548 1.394 . S
C565 C564 1.438 . S
C565 C566 1.428 . S
C566 H558 0.949 . S
C566 C565 1.428 . S
C566 C567 1.345 . S
C567 H559 0.950 . S
C567 C566 1.345 . S
C567 C568 1.424 . S
C568 H560 0.951 . S
C568 C567 1.424 . S
C568 C569 1.347 . S
C569 H561 0.951 . S
C569 C564 1.429 . S
C569 C568 1.347 . S
H570 C571 0.951 . S
C571 H570 0.951 . S
C571 C577 1.265 . S
H572 C577 0.950 . S
H573 C581 0.949 . S
H574 C582 0.950 . S
H575 C583 0.951 . S
H576 C584 0.951 . S
C577 C571 1.265 . S
C577 H572 0.950 . S
C577 C578 1.478 . S
C578 C577 1.478 . S
C578 C579 1.397 . S
C578 C595 1.394 . S
C579 C578 1.397 . S
C579 C580 1.438 . S
C579 C584 1.429 . S
C580 C579 1.438 . S
C580 C581 1.428 . S
C580 C593 1.394 . S
C581 H573 0.949 . S
C581 C580 1.428 . S
C581 C582 1.345 . S
C582 H574 0.950 . S
C582 C581 1.345 . S
C582 C583 1.424 . S
C583 H575 0.951 . S
C583 C582 1.424 . S
C583 C584 1.347 . S
C584 H576 0.951 . S
C584 C579 1.429 . S
C584 C583 1.347 . S
H585 C586 0.951 . S
C586 H585 0.951 . S
C586 C592 1.265 . S
H587 C592 0.950 . S
H588 C596 0.949 . S
H589 C597 0.950 . S
H590 C598 0.951 . S
H591 C599 0.951 . S
C592 C586 1.265 . S
C592 H587 0.950 . S
C592 C593 1.478 . S
C593 C580 1.394 . S
C593 C592 1.478 . S
C593 C594 1.397 . S
C594 C593 1.397 . S
C594 C595 1.438 . S
C594 C599 1.429 . S
C595 C578 1.394 . S
C595 C594 1.438 . S
C595 C596 1.428 . S
C596 H588 0.949 . S
C596 C595 1.428 . S
C596 C597 1.345 . S
C597 H589 0.950 . S
C597 C596 1.345 . S
C597 C598 1.424 . S
C598 H590 0.951 . S
C598 C597 1.424 . S
C598 C599 1.347 . S
C599 H591 0.951 . S
C599 C594 1.429 . S
C599 C598 1.347 . S
H600 C601 0.951 . S
C601 H600 0.951 . S
C601 C607 1.265 . S
H602 C607 0.950 . S
H603 C611 0.949 . S
H604 C612 0.950 . S
H605 C613 0.951 . S
H606 C614 0.951 . S
C607 C601 1.265 . S
C607 H602 0.950 . S
C607 C608 1.478 . S
C608 C607 1.478 . S
C608 C609 1.397 . S
C608 C625 1.394 . S
C609 C608 1.397 . S
C609 C610 1.438 . S
C609 C614 1.429 . S
C610 C609 1.438 . S
C610 C611 1.428 . S
C610 C623 1.394 . S
C611 H603 0.949 . S
C611 C610 1.428 . S
C611 C612 1.345 . S
C612 H604 0.950 . S
C612 C611 1.345 . S
C612 C613 1.424 . S
C613 H605 0.951 . S
C613 C612 1.424 . S
C613 C614 1.347 . S
C614 H606 0.951 . S
C614 C609 1.429 . S
C614 C613 1.347 . S
H615 C616 0.951 . S
C616 H615 0.951 . S
C616 C622 1.265 . S
H617 C622 0.950 . S
H618 C626 0.949 . S
H619 C627 0.950 . S
H620 C628 0.951 . S
H621 C629 0.951 . S
C622 C616 1.265 . S
C622 H617 0.950 . S
C622 C623 1.478 . S
C623 C610 1.394 . S
C623 C622 1.478 . S
C623 C624 1.397 . S
C624 C623 1.397 . S
C624 C625 1.438 . S
C624 C629 1.429 . S
C625 C608 1.394 . S
C625 C624 1.438 . S
C625 C626 1.428 . S
C626 H618 0.949 . S
C626 C625 1.428 . S
C626 C627 1.345 . S
C627 H619 0.950 . S
C627 C626 1.345 . S
C627 C628 1.424 . S
C628 H620 0.951 . S
C628 C627 1.424 . S
C628 C629 1.347 . S
C629 H621 0.951 . S
C629 C624 1.429 . S
C629 C628 1.347 . S
H630 C631 0.951 . S
C631 H630 0.951 . S
C631 C637 1.265 . S
H632 C637 0.950 . S
H633 C641 0.949 . S
H634 C642 0.950 . S
H635 C643 0.951 . S
H636 C644 0.951 . S
C637 C631 1.265 . S
C637 H632 0.950 . S
C637 C638 1.478 . S
C638 C637 1.478 . S
C638 C639 1.397 . S
C638 C655 1.394 . S
C639 C638 1.397 . S
C639 C640 1.438 . S
C639 C644 1.429 . S
C640 C639 1.438 . S
C640 C641 1.428 . S
C640 C653 1.394 . S
C641 H633 0.949 . S
C641 C640 1.428 . S
C641 C642 1.345 . S
C642 H634 0.950 . S
C642 C641 1.345 . S
C642 C643 1.424 . S
C643 H635 0.951 . S
C643 C642 1.424 . S
C643 C644 1.347 . S
C644 H636 0.951 . S
C644 C639 1.429 . S
C644 C643 1.347 . S
H645 C646 0.951 . S
C646 H645 0.951 . S
C646 C652 1.265 . S
H647 C652 0.950 . S
H648 C656 0.949 . S
H649 C657 0.950 . S
H650 C658 0.951 . S
H651 C659 0.951 . S
C652 C646 1.265 . S
C652 H647 0.950 . S
C652 C653 1.478 . S
C653 C640 1.394 . S
C653 C652 1.478 . S
C653 C654 1.397 . S
C654 C653 1.397 . S
C654 C655 1.438 . S
C654 C659 1.429 . S
C655 C638 1.394 . S
C655 C654 1.438 . S
C655 C656 1.428 1_556 S
C656 H648 0.949 . S
C656 C655 1.428 1_554 S
C656 C657 1.345 . S
C657 H649 0.950 . S
C657 C656 1.345 . S
C657 C658 1.424 . S
C658 H650 0.951 . S
C658 C657 1.424 . S
C658 C659 1.347 1_554 S
C659 H651 0.951 . S
C659 C654 1.429 . S
C659 C658 1.347 1_556 S
C121 C118 1.387 . S
C136 C4 1.349 . S
C151 C18 1.396 . S
C166 C24 1.344 . S
C181 C38 1.383 . S
C196 C44 1.283 . S
C211 C58 1.392 . S
C226 C64 1.376 . S
C241 C84 1.352 . S
C256 C78 1.396 . S
C271 C104 1.323 . S
C286 C98 1.395 . S
C301 C12 1.174 . S
C316 C9 1.174 . S
C331 C32 1.206 . S
C346 C29 1.206 . S
C361 C52 1.262 . S
C376 C49 1.262 . S
C391 C72 1.173 . S
C406 C69 1.173 . S
C421 C89 1.264 . S
C436 C92 1.264 . S
C451 C112 1.207 . S
C466 C109 1.207 . S
C481 C2 1.467 . S
C496 C99 1.453 . S
C511 C22 1.467 . S
C526 C119 1.487 . S
C541 C19 1.530 . S
C556 C42 1.372 . S
C571 C39 1.455 . S
C586 C62 1.440 . S
C601 C82 1.386 . S
C616 C59 1.528 . S
C631 C79 1.453 . S
C646 C102 1.454 . S
