# Generated by pormake.
# Topology crr, (4)-cn, num edge types: 1
# Building blocks:
#     Node 0, Type 0, BuildingBlock: MUDLON_clean_sbu_0, # of connection points: 4
#     Node 1, Type 0, BuildingBlock: MUDLON_clean_sbu_0, # of connection points: 4
#     Node 2, Type 0, BuildingBlock: MUDLON_clean_sbu_0, # of connection points: 4
#     Node 3, Type 0, BuildingBlock: MUDLON_clean_sbu_0, # of connection points: 4
#     Node 4, Type 0, BuildingBlock: MUDLON_clean_sbu_0, # of connection points: 4
#     Node 5, Type 0, BuildingBlock: MUDLON_clean_sbu_0, # of connection points: 4
#     Node 6, Type 0, BuildingBlock: MUDLON_clean_sbu_0, # of connection points: 4
#     Node 7, Type 0, BuildingBlock: MUDLON_clean_sbu_0, # of connection points: 4
#     Node 8, Type 0, BuildingBlock: MUDLON_clean_sbu_0, # of connection points: 4
#     Node 9, Type 0, BuildingBlock: MUDLON_clean_sbu_0, # of connection points: 4
#     Node 10, Type 0, BuildingBlock: MUDLON_clean_sbu_0, # of connection points: 4
#     Node 11, Type 0, BuildingBlock: MUDLON_clean_sbu_0, # of connection points: 4
#     Edge 12, Type (0, 0), BuildingBlock: XIVTED_clean_linker_0, # of connection points: 2
#     Edge 13, Type (0, 0), BuildingBlock: XIVTED_clean_linker_0, # of connection points: 2
#     Edge 14, Type (0, 0), BuildingBlock: XIVTED_clean_linker_0, # of connection points: 2
#     Edge 15, Type (0, 0), BuildingBlock: XIVTED_clean_linker_0, # of connection points: 2
#     Edge 16, Type (0, 0), BuildingBlock: XIVTED_clean_linker_0, # of connection points: 2
#     Edge 17, Type (0, 0), BuildingBlock: XIVTED_clean_linker_0, # of connection points: 2
#     Edge 18, Type (0, 0), BuildingBlock: XIVTED_clean_linker_0, # of connection points: 2
#     Edge 19, Type (0, 0), BuildingBlock: XIVTED_clean_linker_0, # of connection points: 2
#     Edge 20, Type (0, 0), BuildingBlock: XIVTED_clean_linker_0, # of connection points: 2
#     Edge 21, Type (0, 0), BuildingBlock: XIVTED_clean_linker_0, # of connection points: 2
#     Edge 22, Type (0, 0), BuildingBlock: XIVTED_clean_linker_0, # of connection points: 2
#     Edge 23, Type (0, 0), BuildingBlock: XIVTED_clean_linker_0, # of connection points: 2
#     Edge 24, Type (0, 0), BuildingBlock: XIVTED_clean_linker_0, # of connection points: 2
#     Edge 25, Type (0, 0), BuildingBlock: XIVTED_clean_linker_0, # of connection points: 2
#     Edge 26, Type (0, 0), BuildingBlock: XIVTED_clean_linker_0, # of connection points: 2
#     Edge 27, Type (0, 0), BuildingBlock: XIVTED_clean_linker_0, # of connection points: 2
#     Edge 28, Type (0, 0), BuildingBlock: XIVTED_clean_linker_0, # of connection points: 2
#     Edge 29, Type (0, 0), BuildingBlock: XIVTED_clean_linker_0, # of connection points: 2
#     Edge 30, Type (0, 0), BuildingBlock: XIVTED_clean_linker_0, # of connection points: 2
#     Edge 31, Type (0, 0), BuildingBlock: XIVTED_clean_linker_0, # of connection points: 2
#     Edge 32, Type (0, 0), BuildingBlock: XIVTED_clean_linker_0, # of connection points: 2
#     Edge 33, Type (0, 0), BuildingBlock: XIVTED_clean_linker_0, # of connection points: 2
#     Edge 34, Type (0, 0), BuildingBlock: XIVTED_clean_linker_0, # of connection points: 2
#     Edge 35, Type (0, 0), BuildingBlock: XIVTED_clean_linker_0, # of connection points: 2
# Relax obj value: 0.158
# Max RMSD: 0.159
# Mean RMSD: 0.145
data_MOF--net-crr--node1-MUDLON_clean_sbu_0--edge1-XIVTED_clean_linker_0
_symmetry_space_group_name_H-M    P1
_symmetry_Int_Tables_number       1
_symmetry_cell_setting            triclinic
loop_
_symmetry_equiv_pos_as_xyz
'x, y, z'
_cell_length_a     39.138677
_cell_length_b     39.516705
_cell_length_c     39.631478
_cell_angle_alpha  89.373189
_cell_angle_beta   89.658752
_cell_angle_gamma 89.346913
loop_
_atom_site_label
_atom_site_type_symbol
_atom_site_fract_x
_atom_site_fract_y
_atom_site_fract_z
_atom_type_partial_charge
Mg0 Mg 0.08493 0.312 0.33649 0.0
C1 C 0.09564 0.23746 0.33598 0.0
O2 O 0.0942 0.24301 0.36857 0.0
C3 C 0.07101 0.38141 0.31512 0.0
O4 O 0.09762 0.38271 0.33509 0.0
C5 C 0.14648 0.3163 0.29686 0.0
O6 O 0.12376 0.30282 0.27699 0.0
O7 O 0.13774 0.3246 0.32662 0.0
O8 O 0.08553 0.2609 0.316 0.0
O9 O 0.07217 0.31107 0.39001 0.0
C10 C 0.04491 0.29625 0.39916 0.0
O11 O 0.02559 0.28275 0.376 0.0
O12 O 0.05726 0.35278 0.31035 0.0
Mg13 Mg 0.27933 0.94732 0.68578 0.0
C14 C 0.24646 0.94744 0.75663 0.0
O15 O 0.21761 0.94769 0.73994 0.0
C16 C 0.2951 0.01371 0.65366 0.0
O17 O 0.32108 0.00951 0.67418 0.0
C18 C 0.21333 0.91243 0.66922 0.0
O19 O 0.20183 0.94353 0.67294 0.0
O20 O 0.24534 0.90663 0.67095 0.0
O21 O 0.27435 0.95129 0.74048 0.0
O22 O 0.3331 0.93541 0.67584 0.0
C23 C 0.35476 0.93943 0.69927 0.0
O24 O 0.34364 0.94688 0.72965 0.0
O25 O 0.27063 0.9928 0.65541 0.0
Mg26 Mg 0.95097 0.67068 0.27048 0.0
C27 C 0.95716 0.74434 0.28719 0.0
O28 O 0.95736 0.73165 0.31795 0.0
C29 C 0.96877 0.60288 0.24536 0.0
O30 O 0.93521 0.60314 0.24561 0.0
C31 C 0.90354 0.68376 0.21602 0.0
O32 O 0.93151 0.69962 0.20706 0.0
O33 O 0.90312 0.66702 0.24362 0.0
O34 O 0.96178 0.72435 0.26257 0.0
O35 O 0.94818 0.66131 0.3246 0.0
C36 C 0.97485 0.64785 0.33748 0.0
O37 O 1.00045 0.63959 0.31753 0.0
O38 O 0.98421 0.63037 0.25141 0.0
Mg39 Mg 0.66064 0.04176 0.64919 0.0
C40 C 0.68981 0.01226 0.58569 0.0
O41 O 0.70945 0.99688 0.60797 0.0
C42 C 0.6307 0.1071 0.6746 0.0
O43 O 0.60243 0.08995 0.67096 0.0
C44 C 0.59448 0.00295 0.64034 0.0
O45 O 0.60626 1.0006 0.60935 0.0
O46 O 0.61196 0.01841 0.6622 0.0
O47 O 0.66853 0.0346 0.59564 0.0
O48 O 0.69997 0.01546 0.67805 0.0
C49 C 0.72454 0.02829 0.69426 0.0
O50 O 0.74382 0.00831 0.71299 0.0
O51 O 0.65881 0.09399 0.66491 0.0
Mg52 Mg 0.04951 0.64089 0.65283 0.0
C53 C 0.98511 0.59859 0.65995 0.0
O54 O 0.98125 0.60837 0.62844 0.0
C55 C 0.06511 0.70882 0.68485 0.0
O56 O 0.07148 0.68993 0.71161 0.0
C57 C 0.02337 0.65449 0.58488 0.0
O58 O 0.00709 0.67662 0.60377 0.0
O59 O 0.045 0.63455 0.59873 0.0
O60 O 0.00923 0.61108 0.6771 0.0
O61 O 0.09808 0.62393 0.67367 0.0
C62 C 0.09795 0.60865 0.70209 0.0
O63 O 0.06854 0.59979 0.71544 0.0
O64 O 0.05178 0.69543 0.65912 0.0
Mg65 Mg 0.68905 0.90263 0.28506 0.0
C66 C 0.76627 0.90523 0.28726 0.0
O67 O 0.75896 0.91791 0.31698 0.0
C68 C 0.65665 0.97214 0.28705 0.0
O69 O 0.68026 0.97554 0.31016 0.0
C70 C 0.63548 0.85696 0.25518 0.0
O71 O 0.61817 0.8856 0.25363 0.0
O72 O 0.66497 0.85656 0.26849 0.0
O73 O 0.74191 0.89947 0.26703 0.0
O74 O 0.69024 0.90513 0.33959 0.0
C75 C 0.6634 0.91334 0.35587 0.0
O76 O 0.63434 0.91636 0.33963 0.0
O77 O 0.65703 0.94555 0.26923 0.0
Mg78 Mg 0.89954 0.28893 0.68693 0.0
C79 C 0.91984 0.36054 0.70103 0.0
O80 O 0.94397 0.34322 0.71665 0.0
C81 C 0.83218 0.25388 0.70125 0.0
O82 O 0.83763 0.2667 0.73115 0.0
C83 C 0.96074 0.2911 0.63805 0.0
O84 O 0.97091 0.31522 0.65801 0.0
O85 O 0.93377 0.27492 0.64558 0.0
O86 O 0.89622 0.34451 0.68626 0.0
O87 O 0.91461 0.27059 0.73703 0.0
C88 C 0.90626 0.28889 0.76206 0.0
O89 O 0.89119 0.31823 0.75641 0.0
O90 O 0.85222 0.26174 0.67704 0.0
Mg91 Mg 0.38216 0.13498 0.36724 0.0
C92 C 0.42833 0.19467 0.35291 0.0
O93 O 0.45183 0.17086 0.35595 0.0
C94 C 0.34103 0.1253 0.43153 0.0
O95 O 0.31604 0.13083 0.41013 0.0
C96 C 0.32349 0.1458 0.31783 0.0
O97 O 0.34444 0.16846 0.3052 0.0
O98 O 0.33396 0.12638 0.34149 0.0
O99 O 0.39711 0.18709 0.35742 0.0
O100 O 0.42484 0.10212 0.3526 0.0
C101 C 0.43399 0.09556 0.32247 0.0
O102 O 0.41546 0.1071 0.29723 0.0
O103 O 0.37177 0.12654 0.42089 0.0
Mg104 Mg 0.41944 0.42096 0.15839 0.0
C105 C 0.45977 0.36072 0.12811 0.0
O106 O 0.45323 0.34584 0.15717 0.0
C107 C 0.36575 0.37366 0.18276 0.0
O108 O 0.39327 0.35678 0.19198 0.0
C109 C 0.38448 0.48758 0.14194 0.0
O110 O 0.36066 0.47356 0.16075 0.0
O111 O 0.413 0.47218 0.13835 0.0
O112 O 0.44873 0.39068 0.12252 0.0
O113 O 0.43895 0.41571 0.20934 0.0
C114 C 0.46657 0.40005 0.2164 0.0
O115 O 0.48963 0.39585 0.19254 0.0
O116 O 0.36884 0.40086 0.16567 0.0
Mg117 Mg 0.33108 0.70012 0.90101 0.0
C118 C 0.27835 0.65266 0.87058 0.0
O119 O 0.27608 0.64105 0.90169 0.0
C120 C 0.39951 0.73043 0.88414 0.0
O121 O 0.38502 0.75684 0.89841 0.0
C122 C 0.28127 0.75942 0.90577 0.0
O123 O 0.25883 0.73531 0.9019 0.0
O124 O 0.31263 0.75139 0.9089 0.0
O125 O 0.29908 0.67633 0.8638 0.0
O126 O 0.33849 0.66961 0.9464 0.0
C127 C 0.31852 0.66497 0.97139 0.0
O128 O 0.28829 0.67974 0.9717 0.0
O129 O 0.38212 0.70381 0.88025 0.0
Mg130 Mg 0.64967 0.65265 0.02764 0.0
C131 C 0.62286 0.66781 0.95724 0.0
O132 O 0.6324 0.63627 0.95235 0.0
C133 C 0.70957 0.69051 0.05395 0.0
O134 O 0.68627 0.71448 0.05711 0.0
C135 C 0.67233 0.58688 0.00033 0.0
O136 O 0.6945 0.60774 0.98667 0.0
O137 O 0.64869 0.59878 0.01905 0.0
O138 O 0.62873 0.68132 0.98554 0.0
O139 O 0.62356 0.66684 0.07386 0.0
C140 C 0.606 0.69408 0.07466 0.0
O141 O 0.60005 0.71046 0.04624 0.0
O142 O 0.70202 0.66346 0.03886 0.0
Mg143 Mg 0.70019 0.27079 0.93536 0.0
C144 C 0.77445 0.25956 0.95256 0.0
O145 O 0.76968 0.2886 0.9678 0.0
C146 C 0.63233 0.27926 0.96183 0.0
O147 O 0.63389 0.29708 0.93367 0.0
C148 C 0.65928 0.23983 0.87945 0.0
O149 O 0.64274 0.22704 0.90546 0.0
O150 O 0.68419 0.25943 0.88447 0.0
O151 O 0.74852 0.2441 0.94165 0.0
O152 O 0.7076 0.32484 0.93918 0.0
C153 C 0.70297 0.33742 0.96826 0.0
O154 O 0.69699 0.31702 0.99397 0.0
O155 O 0.65826 0.26144 0.97026 0.0
H156 H 0.11795 0.18076 0.3695 0.0
H157 H 0.29148 0.18487 0.26957 0.0
H158 H 0.13006 0.23502 0.27523 0.0
H159 H 0.27074 0.11273 0.34945 0.0
H160 H 0.23033 0.19741 0.26584 0.0
H161 H 0.17011 0.1487 0.35724 0.0
C162 C 0.1311 0.18534 0.34578 0.0
C163 C 0.12 0.21123 0.32378 0.0
C164 C 0.23905 0.17831 0.28371 0.0
C165 C 0.18042 0.17522 0.30997 0.0
C166 C 0.27404 0.17114 0.28587 0.0
C167 C 0.28642 0.14815 0.31028 0.0
C168 C 0.21627 0.16271 0.30642 0.0
C169 C 0.26249 0.13095 0.33051 0.0
C170 C 0.16104 0.1671 0.33884 0.0
C171 C 0.13793 0.21577 0.29326 0.0
N172 N 0.22869 0.13906 0.32857 0.0
N173 N 0.16773 0.1986 0.28766 0.0
H174 H 0.22007 0.85199 0.63642 0.0
H175 H 0.07732 0.755 0.73438 0.0
H176 H 0.15192 0.90822 0.70145 0.0
H177 H 0.09118 0.73802 0.6278 0.0
H178 H 0.11119 0.80694 0.72882 0.0
H179 H 0.18011 0.80431 0.63854 0.0
C180 C 0.19666 0.8543 0.65098 0.0
C181 C 0.18906 0.88408 0.66854 0.0
C182 C 0.10636 0.79194 0.70667 0.0
C183 C 0.14411 0.82966 0.67186 0.0
C184 C 0.08707 0.76245 0.70979 0.0
C185 C 0.0812 0.7424 0.68147 0.0
C186 C 0.12081 0.80062 0.67529 0.0
C187 C 0.09474 0.75297 0.65021 0.0
C188 C 0.17393 0.82725 0.6521 0.0
C189 C 0.15847 0.8858 0.68722 0.0
N190 N 0.11445 0.78104 0.64806 0.0
N191 N 0.13732 0.85875 0.68883 0.0
H192 H 0.78944 0.87014 0.23181 0.0
H193 H 0.94864 0.79596 0.3319 0.0
H194 H 0.82248 0.90788 0.32791 0.0
H195 H 0.92516 0.7679 0.22979 0.0
H196 H 0.90804 0.84311 0.3272 0.0
H197 H 0.84336 0.83858 0.22682 0.0
C198 C 0.80825 0.87233 0.25158 0.0
C199 C 0.80109 0.89133 0.28059 0.0
C200 C 0.9122 0.82707 0.30555 0.0
C201 C 0.86282 0.85488 0.2752 0.0
C202 C 0.93555 0.80018 0.30819 0.0
C203 C 0.94007 0.77762 0.28139 0.0
C204 C 0.89272 0.83119 0.27607 0.0
C205 C 0.92245 0.78449 0.25121 0.0
C206 C 0.83907 0.85422 0.24873 0.0
C207 C 0.8266 0.89327 0.30528 0.0
N208 N 0.89905 0.81021 0.24961 0.0
N209 N 0.85601 0.87488 0.30226 0.0
H210 H 0.79028 0.22695 0.74981 0.0
H211 H 0.73081 0.06997 0.63886 0.0
H212 H 0.81831 0.21613 0.64493 0.0
H213 H 0.73587 0.06906 0.74743 0.0
H214 H 0.751 0.12886 0.63837 0.0
H215 H 0.75741 0.175 0.74657 0.0
C216 C 0.78916 0.21397 0.72592 0.0
C217 C 0.80756 0.22579 0.69771 0.0
C218 C 0.74725 0.11585 0.66228 0.0
C219 C 0.77002 0.16592 0.69398 0.0
C220 C 0.73553 0.08246 0.66256 0.0
C221 C 0.7316 0.06489 0.69325 0.0
C222 C 0.75461 0.13173 0.69295 0.0
C223 C 0.73853 0.08185 0.72327 0.0
C224 C 0.77049 0.18416 0.72417 0.0
C225 C 0.80481 0.20786 0.6674 0.0
N226 N 0.74964 0.1143 0.72238 0.0
N227 N 0.78669 0.17864 0.66641 0.0
H228 H 0.418 0.39493 0.26627 0.0
H229 H 0.49122 0.21674 0.33209 0.0
H230 H 0.51504 0.35255 0.23462 0.0
H231 H 0.38697 0.25084 0.34619 0.0
H232 H 0.50488 0.27164 0.30667 0.0
H233 H 0.4117 0.34832 0.30657 0.0
C234 C 0.43842 0.37629 0.2683 0.0
C235 C 0.46688 0.37744 0.24653 0.0
C236 C 0.47912 0.26722 0.31567 0.0
C237 C 0.45952 0.32367 0.29251 0.0
C238 C 0.47127 0.23589 0.33024 0.0
C239 C 0.43777 0.229 0.34095 0.0
C240 C 0.45333 0.29194 0.31191 0.0
C241 C 0.41306 0.25488 0.338 0.0
C242 C 0.43464 0.34951 0.29121 0.0
C243 C 0.49251 0.35258 0.25059 0.0
N244 N 0.42128 0.28509 0.32354 0.0
N245 N 0.48799 0.32645 0.27275 0.0
H246 H 0.22738 0.60586 0.8768 0.0
H247 H 0.16057 0.63643 0.68837 0.0
H248 H 0.27713 0.67072 0.80368 0.0
H249 H 0.10629 0.5782 0.76384 0.0
H250 H 0.20811 0.64194 0.72756 0.0
H251 H 0.18718 0.58883 0.83333 0.0
C252 C 0.23004 0.61633 0.85156 0.0
C253 C 0.25547 0.64003 0.844 0.0
C254 C 0.18596 0.62761 0.73541 0.0
C255 C 0.20951 0.62065 0.79409 0.0
C256 C 0.15886 0.62429 0.71295 0.0
C257 C 0.1292 0.60715 0.72295 0.0
C258 C 0.18339 0.61372 0.76811 0.0
C259 C 0.12849 0.59194 0.75514 0.0
C260 C 0.20706 0.60659 0.82673 0.0
C261 C 0.25777 0.6526 0.81077 0.0
N262 N 0.155 0.59587 0.77668 0.0
N263 N 0.23495 0.64294 0.78714 0.0
H264 H 0.62363 0.67196 0.13821 0.0
H265 H 0.66409 0.79342 0.25412 0.0
H266 H 0.57459 0.75527 0.08552 0.0
H267 H 0.58004 0.85238 0.21363 0.0
H268 H 0.65006 0.74773 0.21626 0.0
H269 H 0.62379 0.70556 0.18946 0.0
C270 C 0.61256 0.69721 0.13749 0.0
C271 C 0.59983 0.71112 0.10725 0.0
C272 C 0.63388 0.7701 0.21625 0.0
C273 C 0.60111 0.75027 0.1656 0.0
C274 C 0.64215 0.79645 0.23778 0.0
C275 C 0.62348 0.82697 0.23679 0.0
C276 C 0.60677 0.77432 0.1934 0.0
C277 C 0.5953 0.8294 0.21512 0.0
C278 C 0.61309 0.7166 0.16673 0.0
C279 C 0.58526 0.74372 0.10805 0.0
N280 N 0.5882 0.80368 0.19386 0.0
N281 N 0.58673 0.76234 0.13661 0.0
H282 H 0.83401 0.29475 0.95892 0.0
H283 H 0.89456 0.22359 0.78253 0.0
H284 H 0.79237 0.20664 0.9114 0.0
H285 H 0.91496 0.32322 0.82018 0.0
H286 H 0.87574 0.20625 0.83923 0.0
H287 H 0.88192 0.29304 0.91929 0.0
C288 C 0.8354 0.2744 0.94084 0.0
C289 C 0.8084 0.25159 0.93764 0.0
C290 C 0.88539 0.23157 0.8353 0.0
C291 C 0.86298 0.24982 0.89195 0.0
C292 C 0.89636 0.24139 0.80302 0.0
C293 C 0.90571 0.27504 0.79672 0.0
C294 C 0.884 0.2556 0.86122 0.0
C295 C 0.90737 0.29719 0.82401 0.0
C296 C 0.86275 0.27355 0.9181 0.0
C297 C 0.81208 0.22538 0.91416 0.0
N298 N 0.89605 0.28725 0.85496 0.0
N299 N 0.83838 0.22574 0.8916 0.0
H300 H 0.30145 0.94215 0.79901 0.0
H301 H 0.21786 0.78566 0.89083 0.0
H302 H 0.19439 0.91809 0.7926 0.0
H303 H 0.32302 0.81464 0.90324 0.0
H304 H 0.20561 0.84113 0.86569 0.0
H305 H 0.30657 0.90401 0.84757 0.0
C306 C 0.2788 0.92949 0.8083 0.0
C307 C 0.24764 0.93267 0.79112 0.0
C308 C 0.23122 0.83563 0.87452 0.0
C309 C 0.25348 0.88837 0.84637 0.0
C310 C 0.23823 0.80391 0.88895 0.0
C311 C 0.27172 0.79512 0.89838 0.0
C312 C 0.25796 0.85857 0.86917 0.0
C313 C 0.29695 0.82002 0.89573 0.0
C314 C 0.28176 0.90758 0.83603 0.0
C315 C 0.21908 0.91599 0.80465 0.0
N316 N 0.28971 0.85033 0.88075 0.0
N317 N 0.22287 0.89395 0.83097 0.0
H318 H 0.7404 0.74557 0.08148 0.0
H319 H 0.85397 0.63629 0.20769 0.0
H320 H 0.74876 0.6368 0.07455 0.0
H321 H 0.88588 0.73507 0.17338 0.0
H322 H 0.80732 0.63855 0.16643 0.0
H323 H 0.78771 0.74467 0.12194 0.0
C324 C 0.75243 0.72161 0.08815 0.0
C325 C 0.74078 0.69126 0.07456 0.0
C326 C 0.82457 0.6597 0.16811 0.0
C327 C 0.79375 0.69 0.12133 0.0
C328 C 0.85088 0.65854 0.19173 0.0
C329 C 0.87374 0.68544 0.19366 0.0
C330 C 0.82081 0.68828 0.14699 0.0
C331 C 0.86887 0.71368 0.17236 0.0
C332 C 0.77924 0.72112 0.11124 0.0
C333 C 0.7571 0.66084 0.0842 0.0
N334 N 0.84278 0.71447 0.14997 0.0
N335 N 0.78248 0.66094 0.10735 0.0
H336 H 0.68361 0.1502 0.68608 0.0
H337 H 0.6013 0.20893 0.85853 0.0
H338 H 0.57874 0.13164 0.71408 0.0
H339 H 0.6982 0.24594 0.82201 0.0
H340 H 0.59055 0.18521 0.8031 0.0
H341 H 0.68764 0.19049 0.73219 0.0
C342 C 0.66129 0.155 0.7016 0.0
C343 C 0.6311 0.1369 0.69677 0.0
C344 C 0.61398 0.1989 0.80701 0.0
C345 C 0.63546 0.18281 0.74961 0.0
C346 C 0.62018 0.21233 0.83872 0.0
C347 C 0.65087 0.22901 0.84499 0.0
C348 C 0.63891 0.20166 0.7815 0.0
C349 C 0.67427 0.23305 0.81829 0.0
C350 C 0.66356 0.17806 0.72788 0.0
C351 C 0.6027 0.14465 0.71714 0.0
N352 N 0.66805 0.21897 0.78782 0.0
N353 N 0.60577 0.16656 0.74306 0.0
H354 H 0.31148 0.41543 0.19601 0.0
H355 H 0.1846 0.27458 0.25783 0.0
H356 H 0.34502 0.31121 0.20373 0.0
H357 H 0.18534 0.37256 0.30465 0.0
H358 H 0.23887 0.28777 0.22967 0.0
H359 H 0.25901 0.40063 0.22658 0.0
C360 C 0.30753 0.38935 0.20367 0.0
C361 C 0.33246 0.36441 0.19732 0.0
C362 C 0.22727 0.30619 0.24636 0.0
C363 C 0.27289 0.34756 0.2321 0.0
C364 C 0.19648 0.29875 0.26238 0.0
C365 C 0.18085 0.32256 0.28357 0.0
C366 C 0.2418 0.33807 0.25081 0.0
C367 C 0.19696 0.35352 0.2887 0.0
C368 C 0.27787 0.38109 0.22141 0.0
C369 C 0.32635 0.33111 0.20817 0.0
N370 N 0.22645 0.36067 0.27192 0.0
N371 N 0.29698 0.32355 0.22488 0.0
H372 H 0.94172 0.24899 0.58707 0.0
H373 H 0.07619 0.32466 0.45373 0.0
H374 H 0.01695 0.32349 0.61243 0.0
H375 H 0.99196 0.26086 0.42701 0.0
H376 H 0.05902 0.31985 0.5131 0.0
H377 H 0.96462 0.24764 0.52965 0.0
C378 C 0.96332 0.26478 0.58072 0.0
C379 C 0.97722 0.28661 0.6046 0.0
C380 C 0.04437 0.30683 0.49423 0.0
C381 C 1.00341 0.28538 0.53868 0.0
C382 C 0.05415 0.30959 0.46033 0.0
C383 C 0.03536 0.29332 0.4353 0.0
C384 C 0.0157 0.28754 0.50319 0.0
C385 C 0.00709 0.27403 0.44537 0.0
C386 C 0.97629 0.26411 0.54784 0.0
C387 C 1.00526 0.30642 0.59483 0.0
N388 N 0.99811 0.27173 0.47848 0.0
N389 N 0.01727 0.3055 0.56258 0.0
H390 H 0.38552 0.11642 0.48433 0.0
H391 H 0.24818 0.02723 0.60373 0.0
H392 H 0.27866 0.11013 0.45904 0.0
H393 H 0.34918 0.05383 0.63681 0.0
H394 H 0.25784 0.05947 0.55152 0.0
H395 H 0.37224 0.095 0.54099 0.0
C396 C 0.35924 0.11077 0.49074 0.0
C397 C 0.33322 0.11489 0.46678 0.0
C398 C 0.27771 0.05861 0.57041 0.0
C399 C 0.31783 0.09011 0.53158 0.0
C400 C 0.27217 0.04026 0.60029 0.0
C401 C 0.298 0.03754 0.62463 0.0
C402 C 0.30945 0.07403 0.56466 0.0
C403 C 0.32857 0.05502 0.61874 0.0
C404 C 0.35164 0.09861 0.52314 0.0
C405 C 0.29959 0.10727 0.47662 0.0
N406 N 0.3336 0.07212 0.58922 0.0
N407 N 0.29293 0.09494 0.50811 0.0
H408 H 0.97327 0.68863 0.55058 0.0
H409 H 0.02428 0.61253 0.37139 0.0
H410 H 0.0535 0.61405 0.53692 0.0
H411 H 0.93533 0.67601 0.38759 0.0
H412 H 0.03475 0.61191 0.43197 0.0
H413 H 0.9589 0.68409 0.49107 0.0
C414 C 0.98793 0.67128 0.53506 0.0
C415 C 0.01478 0.65179 0.54875 0.0
C416 C 0.01279 0.62577 0.42236 0.0
C417 C 0.99832 0.64644 0.48044 0.0
C418 C 0.00676 0.62615 0.38774 0.0
C419 C 0.97898 0.64454 0.37439 0.0
C420 C 0.99106 0.64416 0.44386 0.0
C421 C 0.95705 0.66152 0.39681 0.0
C422 C 0.97957 0.66862 0.50106 0.0
C423 C 0.03269 0.62963 0.52742 0.0
N424 N 0.96374 0.66117 0.43045 0.0
N425 N 0.02423 0.62767 0.49427 0.0
H426 H 0.73403 0.96829 0.55452 0.0
H427 H 0.61528 0.94753 0.39289 0.0
H428 H 0.64179 0.02684 0.53758 0.0
H429 H 0.71826 0.90753 0.39824 0.0
H430 H 0.62261 0.97266 0.44836 0.0
H431 H 0.72752 0.94294 0.49893 0.0
C432 C 0.71259 0.97606 0.539 0.0
C433 C 0.68842 0.99971 0.55073 0.0
C434 C 0.64357 0.95829 0.43744 0.0
C435 C 0.68052 0.9704 0.48739 0.0
C436 C 0.6393 0.94366 0.4059 0.0
C437 C 0.6662 0.92537 0.39091 0.0
C438 C 0.67487 0.95441 0.45426 0.0
C439 C 0.69685 0.92146 0.40885 0.0
C440 C 0.70885 0.96151 0.50731 0.0
C441 C 0.66112 0.0088 0.52953 0.0
N442 N 0.70036 0.93588 0.43959 0.0
N443 N 0.65778 0.99394 0.49901 0.0
H444 H 0.48543 0.08263 0.36727 0.0
H445 H 0.60229 0.97363 0.24314 0.0
H446 H 0.45794 0.06813 0.26316 0.0
H447 H 0.63993 0.02038 0.33335 0.0
H448 H 0.54812 0.00478 0.2502 0.0
H449 H 0.54052 0.05533 0.35627 0.0
C450 C 0.49087 0.07353 0.3421 0.0
C451 C 0.46692 0.07766 0.31611 0.0
C452 C 0.56844 0.00845 0.26818 0.0
C453 C 0.53026 0.04631 0.30332 0.0
C454 C 0.5994 0.99078 0.26412 0.0
C455 C 0.62579 0.99434 0.28768 0.0
C456 C 0.56364 0.02938 0.29629 0.0
C457 C 0.62046 0.01682 0.31448 0.0
C458 C 0.52249 0.05815 0.33578 0.0
C459 C 0.47563 0.06552 0.28394 0.0
N460 N 0.58994 0.03312 0.31823 0.0
N461 N 0.50653 0.05021 0.27848 0.0
H462 H 0.99536 0.56304 0.71904 0.0
H463 H 0.88517 0.40514 0.65924 0.0
H464 H 0.93391 0.56412 0.62893 0.0
H465 H 0.95912 0.40122 0.73957 0.0
H466 H 0.89418 0.46637 0.65393 0.0
H467 H 0.97309 0.50717 0.73342 0.0
C468 C 0.97671 0.55185 0.70258 0.0
C469 C 0.96689 0.56816 0.67246 0.0
C470 C 0.90814 0.4521 0.67295 0.0
C471 C 0.94158 0.50389 0.68859 0.0
C472 C 0.90294 0.41719 0.67603 0.0
C473 C 0.92172 0.39796 0.6996 0.0
C474 C 0.93212 0.46786 0.69372 0.0
C475 C 0.9444 0.41492 0.72073 0.0
C476 C 0.96414 0.51982 0.71071 0.0
C477 C 0.94253 0.55236 0.65221 0.0
N478 N 0.94909 0.44877 0.71715 0.0
N479 N 0.93103 0.52096 0.66042 0.0
H480 H 0.54866 0.97267 0.59862 0.0
H481 H 0.40691 0.95004 0.74331 0.0
H482 H 0.56298 0.00123 0.70237 0.0
H483 H 0.38702 0.93475 0.63757 0.0
H484 H 0.46651 0.96147 0.7296 0.0
H485 H 0.49177 0.95205 0.61329 0.0
C486 C 0.53995 0.97446 0.62453 0.0
C487 C 0.56061 0.98892 0.64926 0.0
C488 C 0.44921 0.95536 0.7094 0.0
C489 C 0.49543 0.96525 0.66622 0.0
C490 C 0.41513 0.94868 0.71721 0.0
C491 C 0.39177 0.94166 0.69152 0.0
C492 C 0.46017 0.95505 0.67561 0.0
C493 C 0.40405 0.94014 0.65819 0.0
C494 C 0.50742 0.96269 0.63287 0.0
C495 C 0.54792 0.99046 0.68243 0.0
N496 N 0.43735 0.94704 0.65117 0.0
N497 N 0.51615 0.97888 0.68989 0.0
H498 H 0.94346 0.54069 0.23042 0.0
H499 H 0.10156 0.44292 0.31402 0.0
H500 H 0.03554 0.58953 0.26279 0.0
H501 H 0.01141 0.39226 0.27929 0.0
H502 H 0.07976 0.49587 0.29036 0.0
H503 H 0.97012 0.48566 0.24212 0.0
C504 C 0.96953 0.53986 0.23946 0.0
C505 C 0.98717 0.56987 0.24594 0.0
C506 C 0.06475 0.47321 0.28768 0.0
C507 C 0.01769 0.50677 0.25984 0.0
C508 C 0.07713 0.44287 0.30132 0.0
C509 C 0.05811 0.41305 0.29898 0.0
C510 C 0.03288 0.47407 0.27167 0.0
C511 C 0.02684 0.41463 0.28185 0.0
C512 C 0.98468 0.50837 0.24625 0.0
C513 C 0.02092 0.56714 0.25747 0.0
N514 N 0.01505 0.44472 0.26909 0.0
N515 N 0.0349 0.53618 0.26444 0.0
H516 H 0.32483 0.52463 0.141 0.0
H517 H 0.3812 0.63518 0.98033 0.0
H518 H 0.42525 0.51999 0.09552 0.0
H519 H 0.2811 0.6426 0.0262 0.0
H520 H 0.39862 0.59571 0.02475 0.0
H521 H 0.30951 0.57072 0.10213 0.0
C522 C 0.34382 0.53353 0.1231 0.0
C523 C 0.37634 0.51819 0.1214 0.0
C524 C 0.37288 0.60604 0.02526 0.0
C525 C 0.35879 0.57086 0.07658 0.0
C526 C 0.36284 0.6286 -0.00019 0.0
C527 C 0.32949 0.64212 0.99933 0.0
C528 C 0.34943 0.59664 0.05051 0.0
C529 C 0.30701 0.63275 0.02546 0.0
C530 C 0.33499 0.55982 0.10084 0.0
C531 C 0.39985 0.5309 0.0977 0.0
N532 N 0.31732 0.61042 0.04988 0.0
N533 N 0.39052 0.55627 0.07609 0.0
H534 H 0.43791 0.68064 0.8542 0.0
H535 H 0.59806 0.73285 0.95928 0.0
H536 H 0.44671 0.7764 0.90464 0.0
H537 H 0.59283 0.64117 0.90139 0.0
H538 H 0.54878 0.75526 0.92863 0.0
H539 H 0.4994 0.67195 0.85979 0.0
C540 C 0.45287 0.70018 0.86586 0.0
C541 C 0.43702 0.72884 0.87984 0.0
C542 C 0.55879 0.73051 0.92211 0.0
C543 C 0.50737 0.71882 0.88678 0.0
C544 C 0.58699 0.71769 0.93963 0.0
C545 C 0.59898 0.6847 0.93354 0.0
C546 C 0.54222 0.70999 0.8987 0.0
C547 C 0.58402 0.66646 0.9074 0.0
C548 C 0.48804 0.6952 0.86905 0.0
C549 C 0.45776 0.75358 0.89409 0.0
N550 N 0.55592 0.67905 0.89145 0.0
N551 N 0.49178 0.74765 0.89788 0.0
H552 H 0.72161 0.38758 0.92361 0.0
H553 H 0.64038 0.53565 0.03464 0.0
H554 H 0.67828 0.3714 0.02285 0.0
H555 H 0.71239 0.55447 0.95383 0.0
H556 H 0.64864 0.47481 0.02675 0.0
H557 H 0.71391 0.44873 0.9308 0.0
C558 C 0.71065 0.39689 0.94694 0.0
C559 C 0.70063 0.3744 0.97269 0.0
C560 C 0.66263 0.49229 0.01077 0.0
C561 C 0.69133 0.44403 0.98084 0.0
C562 C 0.65778 0.52699 0.01513 0.0
C563 C 0.6758 0.55012 0.99492 0.0
C564 C 0.68534 0.48067 0.98577 0.0
C565 C 0.6981 0.53749 0.97007 0.0
C566 C 0.70627 0.43173 0.95102 0.0
C567 C 0.68653 0.3878 0.00239 0.0
N568 N 0.70219 0.50358 0.96612 0.0
N569 N 0.68208 0.42173 0.00556 0.0
H570 H 0.50061 0.30448 0.13689 0.0
H571 H 0.57276 0.31236 0.94792 0.0
H572 H 0.46901 0.37823 0.06186 0.0
H573 H 0.62461 0.25773 0.02785 0.0
H574 H 0.52755 0.32779 0.9874 0.0
H575 H 0.5396 0.27914 0.09535 0.0
C576 C 0.50163 0.31515 0.11162 0.0
C577 C 0.48171 0.34368 0.10286 0.0
C578 C 0.54866 0.31221 0.99631 0.0
C579 C 0.526 0.31471 0.05537 0.0
C580 C 0.57449 0.30327 0.97375 0.0
C581 C 0.60276 0.28406 0.98471 0.0
C582 C 0.55098 0.30193 0.0302 0.0
C583 C 0.60334 0.27272 0.0184 0.0
C584 C 0.52394 0.30072 0.08801 0.0
C585 C 0.48409 0.35646 0.0698 0.0
N586 N 0.57794 0.2821 0.04011 0.0
N587 N 0.50586 0.34192 0.04731 0.0
loop_
_geom_bond_atom_site_label_1
_geom_bond_atom_site_label_2
_geom_bond_distance
_geom_bond_site_symmetry_2
_ccdc_geom_bond_type
Mg0 O7 2.141 . S
Mg0 O8 2.048 . S
Mg0 O9 2.048 . S
Mg0 O12 2.141 . S
C1 O2 1.313 . S
C1 O8 1.195 . S
O2 C1 1.313 . S
C3 O4 1.245 1_455 S
C3 O12 1.289 . S
O4 C3 1.245 1_655 S
C5 O6 1.245 . S
C5 O7 1.289 . S
O6 C5 1.245 . S
O7 Mg0 2.141 . S
O7 C5 1.289 . S
O8 Mg0 2.048 . S
O8 C1 1.195 . S
O9 Mg0 2.048 . S
O9 C10 1.195 . S
C10 O9 1.195 . S
C10 O11 1.313 1_455 S
O11 C10 1.313 1_655 S
O12 Mg0 2.141 . S
O12 C3 1.289 . S
Mg13 O20 2.141 . S
Mg13 O21 2.048 . S
Mg13 O22 2.048 . S
Mg13 O25 2.141 . S
C14 O15 1.313 . S
C14 O21 1.195 . S
O15 C14 1.313 . S
C16 O17 1.245 1_565 S
C16 O25 1.289 . S
O17 C16 1.245 1_545 S
C18 O19 1.245 . S
C18 O20 1.289 . S
O19 C18 1.245 . S
O20 Mg13 2.141 . S
O20 C18 1.289 . S
O21 Mg13 2.048 . S
O21 C14 1.195 . S
O22 Mg13 2.048 . S
O22 C23 1.195 . S
C23 O22 1.195 . S
C23 O24 1.313 1_565 S
O24 C23 1.313 1_545 S
O25 Mg13 2.141 . S
O25 C16 1.289 . S
Mg26 O33 2.141 . S
Mg26 O34 2.048 . S
Mg26 O35 2.048 . S
Mg26 O38 2.141 . S
C27 O28 1.313 . S
C27 O34 1.195 . S
O28 C27 1.313 . S
C29 O30 1.245 1_655 S
C29 O38 1.289 . S
O30 C29 1.245 1_455 S
C31 O32 1.245 . S
C31 O33 1.289 . S
O32 C31 1.245 . S
O33 Mg26 2.141 . S
O33 C31 1.289 . S
O34 Mg26 2.048 . S
O34 C27 1.195 . S
O35 Mg26 2.048 . S
O35 C36 1.195 . S
C36 O35 1.195 . S
C36 O37 1.313 . S
O37 C36 1.313 . S
O38 Mg26 2.141 . S
O38 C29 1.289 . S
Mg39 O46 2.141 . S
Mg39 O47 2.048 . S
Mg39 O48 2.048 . S
Mg39 O51 2.141 . S
C40 O41 1.313 . S
C40 O47 1.195 1_565 S
O41 C40 1.313 . S
C42 O43 1.245 . S
C42 O51 1.289 . S
O43 C42 1.245 . S
C44 O45 1.245 . S
C44 O46 1.289 1_565 S
O45 C44 1.245 . S
O46 Mg39 2.141 . S
O46 C44 1.289 1_545 S
O47 Mg39 2.048 . S
O47 C40 1.195 1_545 S
O48 Mg39 2.048 . S
O48 C49 1.195 . S
C49 O48 1.195 . S
C49 O50 1.313 . S
O50 C49 1.313 . S
O51 Mg39 2.141 . S
O51 C42 1.289 . S
Mg52 O59 2.141 . S
Mg52 O60 2.048 . S
Mg52 O61 2.048 . S
Mg52 O64 2.141 . S
C53 O54 1.294 1_455 S
C53 O60 1.222 . S
O54 C53 1.294 1_655 S
C55 O56 1.245 . S
C55 O64 1.289 . S
O56 C55 1.245 . S
C57 O58 1.245 . S
C57 O59 1.289 1_655 S
O58 C57 1.245 . S
O59 Mg52 2.141 . S
O59 C57 1.289 1_455 S
O60 Mg52 2.048 . S
O60 C53 1.222 . S
O61 Mg52 2.048 . S
O61 C62 1.195 . S
C62 O61 1.195 . S
C62 O63 1.313 . S
O63 C62 1.313 . S
O64 Mg52 2.141 . S
O64 C55 1.289 . S
Mg65 O72 2.141 . S
Mg65 O73 2.048 . S
Mg65 O74 2.048 . S
Mg65 O77 2.141 1_565 S
C66 O67 1.313 . S
C66 O73 1.195 . S
O67 C66 1.313 . S
C68 O69 1.245 . S
C68 O77 1.289 1_565 S
O69 C68 1.245 . S
C70 O71 1.245 . S
C70 O72 1.289 . S
O71 C70 1.245 . S
O72 Mg65 2.141 . S
O72 C70 1.289 . S
O73 Mg65 2.048 . S
O73 C66 1.195 . S
O74 Mg65 2.048 . S
O74 C75 1.195 . S
C75 O74 1.195 . S
C75 O76 1.313 . S
O76 C75 1.313 . S
O77 Mg65 2.141 1_545 S
O77 C68 1.289 1_545 S
Mg78 O85 2.141 . S
Mg78 O86 2.048 . S
Mg78 O87 2.048 . S
Mg78 O90 2.141 . S
C79 O80 1.313 1_655 S
C79 O86 1.195 . S
O80 C79 1.313 1_455 S
C81 O82 1.245 . S
C81 O90 1.289 . S
O82 C81 1.245 . S
C83 O84 1.245 1_655 S
C83 O85 1.289 . S
O84 C83 1.245 1_455 S
O85 Mg78 2.141 . S
O85 C83 1.289 . S
O86 Mg78 2.048 . S
O86 C79 1.195 . S
O87 Mg78 2.048 . S
O87 C88 1.195 . S
C88 O87 1.195 . S
C88 O89 1.313 . S
O89 C88 1.313 . S
O90 Mg78 2.141 . S
O90 C81 1.289 . S
Mg91 O98 2.141 . S
Mg91 O99 2.048 . S
Mg91 O100 2.048 . S
Mg91 O103 2.141 . S
C92 O93 1.313 . S
C92 O99 1.195 . S
O93 C92 1.313 . S
C94 O95 1.240 1_545 S
C94 O103 1.289 . S
O95 C94 1.240 1_565 S
C96 O97 1.245 . S
C96 O98 1.289 . S
O97 C96 1.245 . S
O98 Mg91 2.141 . S
O98 C96 1.289 . S
O99 Mg91 2.048 . S
O99 C92 1.195 . S
O100 Mg91 2.048 . S
O100 C101 1.195 . S
C101 O100 1.195 . S
C101 O102 1.313 . S
O102 C101 1.313 . S
O103 Mg91 2.141 . S
O103 C94 1.289 . S
Mg104 O111 2.141 . S
Mg104 O112 2.048 . S
Mg104 O113 2.048 . S
Mg104 O116 2.141 . S
C105 O106 1.313 1_554 S
C105 O112 1.195 . S
O106 C105 1.313 1_556 S
C107 O108 1.245 . S
C107 O116 1.289 . S
O108 C107 1.245 . S
C109 O110 1.245 1_554 S
C109 O111 1.289 . S
O110 C109 1.245 1_556 S
O111 Mg104 2.141 . S
O111 C109 1.289 . S
O112 Mg104 2.048 . S
O112 C105 1.195 . S
O113 Mg104 2.048 . S
O113 C114 1.195 . S
C114 O113 1.195 . S
C114 O115 1.313 . S
O115 C114 1.313 . S
O116 Mg104 2.141 . S
O116 C107 1.289 . S
Mg117 O124 2.141 . S
Mg117 O125 2.048 . S
Mg117 O126 2.048 . S
Mg117 O129 2.141 . S
C118 O119 1.313 . S
C118 O125 1.195 . S
O119 C118 1.313 . S
C120 O121 1.245 1_556 S
C120 O129 1.289 . S
O121 C120 1.245 1_554 S
C122 O123 1.245 . S
C122 O124 1.289 . S
O123 C122 1.245 . S
O124 Mg117 2.141 . S
O124 C122 1.289 . S
O125 Mg117 2.048 . S
O125 C118 1.195 . S
O126 Mg117 2.048 . S
O126 C127 1.195 . S
C127 O126 1.195 . S
C127 O128 1.313 1_556 S
O128 C127 1.313 1_554 S
O129 Mg117 2.141 . S
O129 C120 1.289 . S
Mg130 O137 2.141 . S
Mg130 O138 2.048 . S
Mg130 O139 2.048 . S
Mg130 O142 2.141 . S
C131 O132 1.313 1_554 S
C131 O138 1.195 . S
O132 C131 1.313 1_556 S
C133 O134 1.245 . S
C133 O142 1.289 . S
O134 C133 1.245 . S
C135 O136 1.245 1_554 S
C135 O137 1.289 . S
O136 C135 1.245 1_556 S
O137 Mg130 2.141 . S
O137 C135 1.289 . S
O138 Mg130 2.048 . S
O138 C131 1.195 . S
O139 Mg130 2.048 . S
O139 C140 1.195 . S
C140 O139 1.195 . S
C140 O141 1.313 . S
O141 C140 1.313 . S
O142 Mg130 2.141 . S
O142 C133 1.289 . S
Mg143 O150 2.141 . S
Mg143 O151 2.048 . S
Mg143 O152 2.048 . S
Mg143 O155 2.141 . S
C144 O145 1.313 . S
C144 O151 1.195 . S
O145 C144 1.313 . S
C146 O147 1.245 1_556 S
C146 O155 1.289 . S
O147 C146 1.245 1_554 S
C148 O149 1.245 . S
C148 O150 1.289 . S
O149 C148 1.245 . S
O150 Mg143 2.141 . S
O150 C148 1.289 . S
O151 Mg143 2.048 . S
O151 C144 1.195 . S
O152 Mg143 2.048 . S
O152 C153 1.195 . S
C153 O152 1.195 . S
C153 O154 1.313 1_556 S
O154 C153 1.313 1_554 S
O155 Mg143 2.141 . S
O155 C146 1.289 . S
H156 C162 0.930 . S
H157 C166 0.930 . S
H158 C171 0.929 . S
H159 C169 0.929 . S
H160 C164 0.929 . S
H161 C170 0.929 . S
C162 H156 0.930 . S
C162 C163 1.367 . S
C162 C170 1.378 . S
C163 C162 1.367 . S
C163 C171 1.433 . S
C164 H160 0.929 . S
C164 C166 1.378 . S
C164 C168 1.350 . S
C165 C168 1.463 . S
C165 C170 1.350 . S
C165 N173 1.427 . S
C166 H157 0.930 . S
C166 C164 1.378 . S
C166 C167 1.367 . S
C167 C166 1.367 . S
C167 C169 1.433 . S
C168 C164 1.350 . S
C168 C165 1.463 . S
C168 N172 1.427 . S
C169 H159 0.929 . S
C169 C167 1.433 . S
C169 N172 1.384 . S
C170 H161 0.929 . S
C170 C162 1.378 . S
C170 C165 1.350 . S
C171 H158 0.929 . S
C171 C163 1.433 . S
C171 N173 1.384 . S
N172 C168 1.427 . S
N172 C169 1.384 . S
N173 C165 1.427 . S
N173 C171 1.384 . S
H174 C180 0.930 . S
H175 C184 0.930 . S
H176 C189 0.929 . S
H177 C187 0.929 . S
H178 C182 0.929 . S
H179 C188 0.929 . S
C180 H174 0.930 . S
C180 C181 1.367 . S
C180 C188 1.378 . S
C181 C180 1.367 . S
C181 C189 1.433 . S
C182 H178 0.929 . S
C182 C184 1.378 . S
C182 C186 1.350 . S
C183 C186 1.463 . S
C183 C188 1.350 . S
C183 N191 1.427 . S
C184 H175 0.930 . S
C184 C182 1.378 . S
C184 C185 1.367 . S
C185 C184 1.367 . S
C185 C187 1.433 . S
C186 C182 1.350 . S
C186 C183 1.463 . S
C186 N190 1.427 . S
C187 H177 0.929 . S
C187 C185 1.433 . S
C187 N190 1.384 . S
C188 H179 0.929 . S
C188 C180 1.378 . S
C188 C183 1.350 . S
C189 H176 0.929 . S
C189 C181 1.433 . S
C189 N191 1.384 . S
N190 C186 1.427 . S
N190 C187 1.384 . S
N191 C183 1.427 . S
N191 C189 1.384 . S
H192 C198 0.930 . S
H193 C202 0.930 . S
H194 C207 0.929 . S
H195 C205 0.929 . S
H196 C200 0.929 . S
H197 C206 0.929 . S
C198 H192 0.930 . S
C198 C199 1.367 . S
C198 C206 1.378 . S
C199 C198 1.367 . S
C199 C207 1.433 . S
C200 H196 0.929 . S
C200 C202 1.378 . S
C200 C204 1.350 . S
C201 C204 1.463 . S
C201 C206 1.350 . S
C201 N209 1.427 . S
C202 H193 0.930 . S
C202 C200 1.378 . S
C202 C203 1.367 . S
C203 C202 1.367 . S
C203 C205 1.433 . S
C204 C200 1.350 . S
C204 C201 1.463 . S
C204 N208 1.427 . S
C205 H195 0.929 . S
C205 C203 1.433 . S
C205 N208 1.384 . S
C206 H197 0.929 . S
C206 C198 1.378 . S
C206 C201 1.350 . S
C207 H194 0.929 . S
C207 C199 1.433 . S
C207 N209 1.384 . S
N208 C204 1.427 . S
N208 C205 1.384 . S
N209 C201 1.427 . S
N209 C207 1.384 . S
H210 C216 0.930 . S
H211 C220 0.930 . S
H212 C225 0.929 . S
H213 C223 0.929 . S
H214 C218 0.929 . S
H215 C224 0.929 . S
C216 H210 0.930 . S
C216 C217 1.367 . S
C216 C224 1.378 . S
C217 C216 1.367 . S
C217 C225 1.433 . S
C218 H214 0.929 . S
C218 C220 1.378 . S
C218 C222 1.350 . S
C219 C222 1.463 . S
C219 C224 1.350 . S
C219 N227 1.427 . S
C220 H211 0.930 . S
C220 C218 1.378 . S
C220 C221 1.367 . S
C221 C220 1.367 . S
C221 C223 1.433 . S
C222 C218 1.350 . S
C222 C219 1.463 . S
C222 N226 1.427 . S
C223 H213 0.929 . S
C223 C221 1.433 . S
C223 N226 1.384 . S
C224 H215 0.929 . S
C224 C216 1.378 . S
C224 C219 1.350 . S
C225 H212 0.929 . S
C225 C217 1.433 . S
C225 N227 1.384 . S
N226 C222 1.427 . S
N226 C223 1.384 . S
N227 C219 1.427 . S
N227 C225 1.384 . S
H228 C234 0.930 . S
H229 C238 0.930 . S
H230 C243 0.929 . S
H231 C241 0.929 . S
H232 C236 0.929 . S
H233 C242 0.929 . S
C234 H228 0.930 . S
C234 C235 1.367 . S
C234 C242 1.378 . S
C235 C234 1.367 . S
C235 C243 1.433 . S
C236 H232 0.929 . S
C236 C238 1.378 . S
C236 C240 1.350 . S
C237 C240 1.463 . S
C237 C242 1.350 . S
C237 N245 1.427 . S
C238 H229 0.930 . S
C238 C236 1.378 . S
C238 C239 1.367 . S
C239 C238 1.367 . S
C239 C241 1.433 . S
C240 C236 1.350 . S
C240 C237 1.463 . S
C240 N244 1.427 . S
C241 H231 0.929 . S
C241 C239 1.433 . S
C241 N244 1.384 . S
C242 H233 0.929 . S
C242 C234 1.378 . S
C242 C237 1.350 . S
C243 H230 0.929 . S
C243 C235 1.433 . S
C243 N245 1.384 . S
N244 C240 1.427 . S
N244 C241 1.384 . S
N245 C237 1.427 . S
N245 C243 1.384 . S
H246 C252 0.930 . S
H247 C256 0.930 . S
H248 C261 0.929 . S
H249 C259 0.929 . S
H250 C254 0.929 . S
H251 C260 0.929 . S
C252 H246 0.930 . S
C252 C253 1.367 . S
C252 C260 1.378 . S
C253 C252 1.367 . S
C253 C261 1.433 . S
C254 H250 0.929 . S
C254 C256 1.378 . S
C254 C258 1.350 . S
C255 C258 1.463 . S
C255 C260 1.350 . S
C255 N263 1.427 . S
C256 H247 0.930 . S
C256 C254 1.378 . S
C256 C257 1.367 . S
C257 C256 1.367 . S
C257 C259 1.433 . S
C258 C254 1.350 . S
C258 C255 1.463 . S
C258 N262 1.427 . S
C259 H249 0.929 . S
C259 C257 1.433 . S
C259 N262 1.384 . S
C260 H251 0.929 . S
C260 C252 1.378 . S
C260 C255 1.350 . S
C261 H248 0.929 . S
C261 C253 1.433 . S
C261 N263 1.384 . S
N262 C258 1.427 . S
N262 C259 1.384 . S
N263 C255 1.427 . S
N263 C261 1.384 . S
H264 C270 0.930 . S
H265 C274 0.930 . S
H266 C279 0.929 . S
H267 C277 0.929 . S
H268 C272 0.929 . S
H269 C278 0.929 . S
C270 H264 0.930 . S
C270 C271 1.367 . S
C270 C278 1.378 . S
C271 C270 1.367 . S
C271 C279 1.433 . S
C272 H268 0.929 . S
C272 C274 1.378 . S
C272 C276 1.350 . S
C273 C276 1.463 . S
C273 C278 1.350 . S
C273 N281 1.427 . S
C274 H265 0.930 . S
C274 C272 1.378 . S
C274 C275 1.367 . S
C275 C274 1.367 . S
C275 C277 1.433 . S
C276 C272 1.350 . S
C276 C273 1.463 . S
C276 N280 1.427 . S
C277 H267 0.929 . S
C277 C275 1.433 . S
C277 N280 1.384 . S
C278 H269 0.929 . S
C278 C270 1.378 . S
C278 C273 1.350 . S
C279 H266 0.929 . S
C279 C271 1.433 . S
C279 N281 1.384 . S
N280 C276 1.427 . S
N280 C277 1.384 . S
N281 C273 1.427 . S
N281 C279 1.384 . S
H282 C288 0.930 . S
H283 C292 0.930 . S
H284 C297 0.929 . S
H285 C295 0.929 . S
H286 C290 0.929 . S
H287 C296 0.929 . S
C288 H282 0.930 . S
C288 C289 1.367 . S
C288 C296 1.378 . S
C289 C288 1.367 . S
C289 C297 1.433 . S
C290 H286 0.929 . S
C290 C292 1.378 . S
C290 C294 1.350 . S
C291 C294 1.463 . S
C291 C296 1.350 . S
C291 N299 1.427 . S
C292 H283 0.930 . S
C292 C290 1.378 . S
C292 C293 1.367 . S
C293 C292 1.367 . S
C293 C295 1.433 . S
C294 C290 1.350 . S
C294 C291 1.463 . S
C294 N298 1.427 . S
C295 H285 0.929 . S
C295 C293 1.433 . S
C295 N298 1.384 . S
C296 H287 0.929 . S
C296 C288 1.378 . S
C296 C291 1.350 . S
C297 H284 0.929 . S
C297 C289 1.433 . S
C297 N299 1.384 . S
N298 C294 1.427 . S
N298 C295 1.384 . S
N299 C291 1.427 . S
N299 C297 1.384 . S
H300 C306 0.930 . S
H301 C310 0.930 . S
H302 C315 0.929 . S
H303 C313 0.929 . S
H304 C308 0.929 . S
H305 C314 0.929 . S
C306 H300 0.930 . S
C306 C307 1.367 . S
C306 C314 1.378 . S
C307 C306 1.367 . S
C307 C315 1.433 . S
C308 H304 0.929 . S
C308 C310 1.378 . S
C308 C312 1.350 . S
C309 C312 1.463 . S
C309 C314 1.350 . S
C309 N317 1.427 . S
C310 H301 0.930 . S
C310 C308 1.378 . S
C310 C311 1.367 . S
C311 C310 1.367 . S
C311 C313 1.433 . S
C312 C308 1.350 . S
C312 C309 1.463 . S
C312 N316 1.427 . S
C313 H303 0.929 . S
C313 C311 1.433 . S
C313 N316 1.384 . S
C314 H305 0.929 . S
C314 C306 1.378 . S
C314 C309 1.350 . S
C315 H302 0.929 . S
C315 C307 1.433 . S
C315 N317 1.384 . S
N316 C312 1.427 . S
N316 C313 1.384 . S
N317 C309 1.427 . S
N317 C315 1.384 . S
H318 C324 0.930 . S
H319 C328 0.930 . S
H320 C333 0.929 . S
H321 C331 0.929 . S
H322 C326 0.929 . S
H323 C332 0.929 . S
C324 H318 0.930 . S
C324 C325 1.367 . S
C324 C332 1.378 . S
C325 C324 1.367 . S
C325 C333 1.433 . S
C326 H322 0.929 . S
C326 C328 1.378 . S
C326 C330 1.350 . S
C327 C330 1.463 . S
C327 C332 1.350 . S
C327 N335 1.427 . S
C328 H319 0.930 . S
C328 C326 1.378 . S
C328 C329 1.367 . S
C329 C328 1.367 . S
C329 C331 1.433 . S
C330 C326 1.350 . S
C330 C327 1.463 . S
C330 N334 1.427 . S
C331 H321 0.929 . S
C331 C329 1.433 . S
C331 N334 1.384 . S
C332 H323 0.929 . S
C332 C324 1.378 . S
C332 C327 1.350 . S
C333 H320 0.929 . S
C333 C325 1.433 . S
C333 N335 1.384 . S
N334 C330 1.427 . S
N334 C331 1.384 . S
N335 C327 1.427 . S
N335 C333 1.384 . S
H336 C342 0.930 . S
H337 C346 0.930 . S
H338 C351 0.929 . S
H339 C349 0.929 . S
H340 C344 0.929 . S
H341 C350 0.929 . S
C342 H336 0.930 . S
C342 C343 1.367 . S
C342 C350 1.378 . S
C343 C342 1.367 . S
C343 C351 1.433 . S
C344 H340 0.929 . S
C344 C346 1.378 . S
C344 C348 1.350 . S
C345 C348 1.463 . S
C345 C350 1.350 . S
C345 N353 1.427 . S
C346 H337 0.930 . S
C346 C344 1.378 . S
C346 C347 1.367 . S
C347 C346 1.367 . S
C347 C349 1.433 . S
C348 C344 1.350 . S
C348 C345 1.463 . S
C348 N352 1.427 . S
C349 H339 0.929 . S
C349 C347 1.433 . S
C349 N352 1.384 . S
C350 H341 0.929 . S
C350 C342 1.378 . S
C350 C345 1.350 . S
C351 H338 0.929 . S
C351 C343 1.433 . S
C351 N353 1.384 . S
N352 C348 1.427 . S
N352 C349 1.384 . S
N353 C345 1.427 . S
N353 C351 1.384 . S
H354 C360 0.930 . S
H355 C364 0.930 . S
H356 C369 0.929 . S
H357 C367 0.929 . S
H358 C362 0.929 . S
H359 C368 0.929 . S
C360 H354 0.930 . S
C360 C361 1.367 . S
C360 C368 1.378 . S
C361 C360 1.367 . S
C361 C369 1.433 . S
C362 H358 0.929 . S
C362 C364 1.378 . S
C362 C366 1.350 . S
C363 C366 1.463 . S
C363 C368 1.350 . S
C363 N371 1.427 . S
C364 H355 0.930 . S
C364 C362 1.378 . S
C364 C365 1.367 . S
C365 C364 1.367 . S
C365 C367 1.433 . S
C366 C362 1.350 . S
C366 C363 1.463 . S
C366 N370 1.427 . S
C367 H357 0.929 . S
C367 C365 1.433 . S
C367 N370 1.384 . S
C368 H359 0.929 . S
C368 C360 1.378 . S
C368 C363 1.350 . S
C369 H356 0.929 . S
C369 C361 1.433 . S
C369 N371 1.384 . S
N370 C366 1.427 . S
N370 C367 1.384 . S
N371 C363 1.427 . S
N371 C369 1.384 . S
H372 C378 0.930 . S
H373 C382 0.930 . S
H374 C387 0.929 . S
H375 C385 0.929 . S
H376 C380 0.929 . S
H377 C386 0.929 . S
C378 H372 0.930 . S
C378 C379 1.367 1_655 S
C378 C386 1.378 . S
C379 C378 1.367 1_455 S
C379 C387 1.433 . S
C380 H376 0.929 . S
C380 C382 1.378 . S
C380 C384 1.350 . S
C381 C384 1.463 . S
C381 C386 1.350 1_455 S
C381 N389 1.427 . S
C382 H373 0.930 . S
C382 C380 1.378 . S
C382 C383 1.367 . S
C383 C382 1.367 . S
C383 C385 1.433 1_455 S
C384 C380 1.350 . S
C384 C381 1.463 . S
C384 N388 1.427 1_455 S
C385 H375 0.929 . S
C385 C383 1.433 1_655 S
C385 N388 1.384 . S
C386 H377 0.929 . S
C386 C378 1.378 . S
C386 C381 1.350 1_655 S
C387 H374 0.929 . S
C387 C379 1.433 . S
C387 N389 1.384 . S
N388 C384 1.427 1_655 S
N388 C385 1.384 . S
N389 C381 1.427 . S
N389 C387 1.384 . S
H390 C396 0.930 . S
H391 C400 0.930 . S
H392 C405 0.929 . S
H393 C403 0.929 . S
H394 C398 0.929 . S
H395 C404 0.929 . S
C396 H390 0.930 . S
C396 C397 1.367 . S
C396 C404 1.378 . S
C397 C396 1.367 . S
C397 C405 1.433 1_545 S
C398 H394 0.929 . S
C398 C400 1.378 . S
C398 C402 1.350 1_565 S
C399 C402 1.463 . S
C399 C404 1.350 . S
C399 N407 1.427 1_545 S
C400 H391 0.930 . S
C400 C398 1.378 . S
C400 C401 1.367 . S
C401 C400 1.367 . S
C401 C403 1.433 1_565 S
C402 C398 1.350 1_545 S
C402 C399 1.463 . S
C402 N406 1.427 . S
C403 H393 0.929 . S
C403 C401 1.433 1_545 S
C403 N406 1.384 . S
C404 H395 0.929 . S
C404 C396 1.378 . S
C404 C399 1.350 . S
C405 H392 0.929 . S
C405 C397 1.433 1_565 S
C405 N407 1.384 . S
N406 C402 1.427 . S
N406 C403 1.384 . S
N407 C399 1.427 1_565 S
N407 C405 1.384 . S
H408 C414 0.930 . S
H409 C418 0.930 . S
H410 C423 0.929 . S
H411 C421 0.929 . S
H412 C416 0.929 . S
H413 C422 0.929 . S
C414 H408 0.930 . S
C414 C415 1.367 . S
C414 C422 1.378 . S
C415 C414 1.367 . S
C415 C423 1.433 1_655 S
C416 H412 0.929 . S
C416 C418 1.378 . S
C416 C420 1.350 1_455 S
C417 C420 1.463 . S
C417 C422 1.350 . S
C417 N425 1.427 1_655 S
C418 H409 0.930 . S
C418 C416 1.378 . S
C418 C419 1.367 1_455 S
C419 C418 1.367 1_655 S
C419 C421 1.433 . S
C420 C416 1.350 1_655 S
C420 C417 1.463 . S
C420 N424 1.427 . S
C421 H411 0.929 . S
C421 C419 1.433 . S
C421 N424 1.384 . S
C422 H413 0.929 . S
C422 C414 1.378 . S
C422 C417 1.350 . S
C423 H410 0.929 . S
C423 C415 1.433 1_455 S
C423 N425 1.384 . S
N424 C420 1.427 . S
N424 C421 1.384 . S
N425 C417 1.427 1_455 S
N425 C423 1.384 . S
H426 C432 0.930 . S
H427 C436 0.930 . S
H428 C441 0.929 . S
H429 C439 0.929 . S
H430 C434 0.929 . S
H431 C440 0.929 . S
C432 H426 0.930 . S
C432 C433 1.367 1_545 S
C432 C440 1.378 . S
C433 C432 1.367 1_565 S
C433 C441 1.433 . S
C434 H430 0.929 . S
C434 C436 1.378 . S
C434 C438 1.350 . S
C435 C438 1.463 . S
C435 C440 1.350 1_565 S
C435 N443 1.427 . S
C436 H427 0.930 . S
C436 C434 1.378 . S
C436 C437 1.367 . S
C437 C436 1.367 . S
C437 C439 1.433 1_565 S
C438 C434 1.350 . S
C438 C435 1.463 . S
C438 N442 1.427 1_565 S
C439 H429 0.929 . S
C439 C437 1.433 1_545 S
C439 N442 1.384 . S
C440 H431 0.929 . S
C440 C432 1.378 . S
C440 C435 1.350 1_545 S
C441 H428 0.929 . S
C441 C433 1.433 . S
C441 N443 1.384 . S
N442 C438 1.427 1_545 S
N442 C439 1.384 . S
N443 C435 1.427 . S
N443 C441 1.384 . S
H444 C450 0.930 . S
H445 C454 0.930 . S
H446 C459 0.929 . S
H447 C457 0.929 1_565 S
H448 C452 0.929 . S
H449 C458 0.929 . S
C450 H444 0.930 . S
C450 C451 1.367 . S
C450 C458 1.378 . S
C451 C450 1.367 . S
C451 C459 1.433 . S
C452 H448 0.929 . S
C452 C454 1.378 . S
C452 C456 1.350 . S
C453 C456 1.463 . S
C453 C458 1.350 . S
C453 N461 1.427 . S
C454 H445 0.930 . S
C454 C452 1.378 . S
C454 C455 1.367 . S
C455 C454 1.367 . S
C455 C457 1.433 . S
C456 C452 1.350 . S
C456 C453 1.463 . S
C456 N460 1.427 . S
C457 H447 0.929 1_545 S
C457 C455 1.433 . S
C457 N460 1.384 . S
C458 H449 0.929 . S
C458 C450 1.378 . S
C458 C453 1.350 . S
C459 H446 0.929 . S
C459 C451 1.433 . S
C459 N461 1.384 . S
N460 C456 1.427 . S
N460 C457 1.384 . S
N461 C453 1.427 . S
N461 C459 1.384 . S
H462 C468 0.930 . S
H463 C472 0.930 . S
H464 C477 0.929 . S
H465 C475 0.929 . S
H466 C470 0.929 . S
H467 C476 0.929 . S
C468 H462 0.930 . S
C468 C469 1.367 . S
C468 C476 1.378 . S
C469 C468 1.367 . S
C469 C477 1.433 1_655 S
C470 H466 0.929 . S
C470 C472 1.378 . S
C470 C474 1.350 1_455 S
C471 C474 1.463 . S
C471 C476 1.350 . S
C471 N479 1.427 1_655 S
C472 H463 0.930 . S
C472 C470 1.378 . S
C472 C473 1.367 1_455 S
C473 C472 1.367 1_655 S
C473 C475 1.433 . S
C474 C470 1.350 1_655 S
C474 C471 1.463 . S
C474 N478 1.427 . S
C475 H465 0.929 . S
C475 C473 1.433 . S
C475 N478 1.384 . S
C476 H467 0.929 . S
C476 C468 1.378 . S
C476 C471 1.350 . S
C477 H464 0.929 . S
C477 C469 1.433 1_455 S
C477 N479 1.384 . S
N478 C474 1.427 . S
N478 C475 1.384 . S
N479 C471 1.427 1_455 S
N479 C477 1.384 . S
H480 C486 0.930 . S
H481 C490 0.930 . S
H482 C495 0.929 . S
H483 C493 0.929 . S
H484 C488 0.929 . S
H485 C494 0.929 . S
C486 H480 0.930 . S
C486 C487 1.367 . S
C486 C494 1.378 . S
C487 C486 1.367 . S
C487 C495 1.433 1_565 S
C488 H484 0.929 . S
C488 C490 1.378 . S
C488 C492 1.350 1_545 S
C489 C492 1.463 . S
C489 C494 1.350 . S
C489 N497 1.427 1_565 S
C490 H481 0.930 . S
C490 C488 1.378 . S
C490 C491 1.367 1_545 S
C491 C490 1.367 1_565 S
C491 C493 1.433 . S
C492 C488 1.350 1_565 S
C492 C489 1.463 . S
C492 N496 1.427 . S
C493 H483 0.929 . S
C493 C491 1.433 . S
C493 N496 1.384 . S
C494 H485 0.929 . S
C494 C486 1.378 . S
C494 C489 1.350 . S
C495 H482 0.929 . S
C495 C487 1.433 1_545 S
C495 N497 1.384 . S
N496 C492 1.427 . S
N496 C493 1.384 . S
N497 C489 1.427 1_545 S
N497 C495 1.384 . S
H498 C504 0.930 . S
H499 C508 0.930 . S
H500 C513 0.929 . S
H501 C511 0.929 . S
H502 C506 0.929 . S
H503 C512 0.929 . S
C504 H498 0.930 . S
C504 C505 1.367 1_455 S
C504 C512 1.378 . S
C505 C504 1.367 1_655 S
C505 C513 1.433 . S
C506 H502 0.929 . S
C506 C508 1.378 . S
C506 C510 1.350 . S
C507 C510 1.463 . S
C507 C512 1.350 1_655 S
C507 N515 1.427 . S
C508 H499 0.930 . S
C508 C506 1.378 . S
C508 C509 1.367 1_655 S
C509 C508 1.367 1_455 S
C509 C511 1.433 . S
C510 C506 1.350 . S
C510 C507 1.463 . S
C510 N514 1.427 1_655 S
C511 H501 0.929 . S
C511 C509 1.433 . S
C511 N514 1.384 . S
C512 H503 0.929 . S
C512 C504 1.378 . S
C512 C507 1.350 1_455 S
C513 H500 0.929 . S
C513 C505 1.433 . S
C513 N515 1.384 . S
N514 C510 1.427 1_455 S
N514 C511 1.384 . S
N515 C507 1.427 . S
N515 C513 1.384 . S
H516 C522 0.930 . S
H517 C526 0.930 . S
H518 C531 0.929 . S
H519 C529 0.929 . S
H520 C524 0.929 . S
H521 C530 0.929 . S
C522 H516 0.930 . S
C522 C523 1.367 . S
C522 C530 1.378 . S
C523 C522 1.367 . S
C523 C531 1.433 1_556 S
C524 H520 0.929 . S
C524 C526 1.378 . S
C524 C528 1.350 1_554 S
C525 C528 1.463 . S
C525 C530 1.350 . S
C525 N533 1.427 1_556 S
C526 H517 0.930 . S
C526 C524 1.378 . S
C526 C527 1.367 1_554 S
C527 C526 1.367 1_556 S
C527 C529 1.433 . S
C528 C524 1.350 1_556 S
C528 C525 1.463 . S
C528 N532 1.427 . S
C529 H519 0.929 . S
C529 C527 1.433 . S
C529 N532 1.384 . S
C530 H521 0.929 . S
C530 C522 1.378 . S
C530 C525 1.350 . S
C531 H518 0.929 . S
C531 C523 1.433 1_554 S
C531 N533 1.384 . S
N532 C528 1.427 . S
N532 C529 1.384 . S
N533 C525 1.427 1_554 S
N533 C531 1.384 . S
H534 C540 0.930 . S
H535 C544 0.930 . S
H536 C549 0.929 . S
H537 C547 0.929 . S
H538 C542 0.929 . S
H539 C548 0.929 . S
C540 H534 0.930 . S
C540 C541 1.367 . S
C540 C548 1.378 . S
C541 C540 1.367 . S
C541 C549 1.433 1_556 S
C542 H538 0.929 . S
C542 C544 1.378 . S
C542 C546 1.350 1_554 S
C543 C546 1.463 . S
C543 C548 1.350 . S
C543 N551 1.427 1_556 S
C544 H535 0.930 . S
C544 C542 1.378 . S
C544 C545 1.367 1_554 S
C545 C544 1.367 1_556 S
C545 C547 1.433 . S
C546 C542 1.350 1_556 S
C546 C543 1.463 . S
C546 N550 1.427 . S
C547 H537 0.929 . S
C547 C545 1.433 . S
C547 N550 1.384 . S
C548 H539 0.929 . S
C548 C540 1.378 . S
C548 C543 1.350 . S
C549 H536 0.929 . S
C549 C541 1.433 1_554 S
C549 N551 1.384 . S
N550 C546 1.427 . S
N550 C547 1.384 . S
N551 C543 1.427 1_554 S
N551 C549 1.384 . S
H552 C558 0.930 . S
H553 C562 0.930 . S
H554 C567 0.929 . S
H555 C565 0.929 . S
H556 C560 0.929 . S
H557 C566 0.929 . S
C558 H552 0.930 . S
C558 C559 1.367 . S
C558 C566 1.378 . S
C559 C558 1.367 . S
C559 C567 1.433 1_556 S
C560 H556 0.929 . S
C560 C562 1.378 . S
C560 C564 1.350 1_554 S
C561 C564 1.463 . S
C561 C566 1.350 . S
C561 N569 1.427 1_556 S
C562 H553 0.930 . S
C562 C560 1.378 . S
C562 C563 1.367 1_554 S
C563 C562 1.367 1_556 S
C563 C565 1.433 . S
C564 C560 1.350 1_556 S
C564 C561 1.463 . S
C564 N568 1.427 . S
C565 H555 0.929 . S
C565 C563 1.433 . S
C565 N568 1.384 . S
C566 H557 0.929 . S
C566 C558 1.378 . S
C566 C561 1.350 . S
C567 H554 0.929 . S
C567 C559 1.433 1_554 S
C567 N569 1.384 . S
N568 C564 1.427 . S
N568 C565 1.384 . S
N569 C561 1.427 1_554 S
N569 C567 1.384 . S
H570 C576 0.930 . S
H571 C580 0.930 . S
H572 C585 0.929 . S
H573 C583 0.929 . S
H574 C578 0.929 . S
H575 C584 0.929 . S
C576 H570 0.930 . S
C576 C577 1.367 1_556 S
C576 C584 1.378 . S
C577 C576 1.367 1_554 S
C577 C585 1.433 . S
C578 H574 0.929 . S
C578 C580 1.378 . S
C578 C582 1.347 . S
C579 C582 1.462 1_556 S
C579 C584 1.360 . S
C579 N587 1.417 1_556 S
C580 H571 0.930 . S
C580 C578 1.378 . S
C580 C581 1.367 1_554 S
C581 C580 1.367 1_556 S
C581 C583 1.433 . S
C582 C578 1.347 . S
C582 C579 1.462 1_554 S
C582 N586 1.430 1_554 S
C583 H573 0.929 . S
C583 C581 1.433 . S
C583 N586 1.384 . S
C584 H575 0.929 . S
C584 C576 1.378 . S
C584 C579 1.360 . S
C585 H572 0.929 . S
C585 C577 1.433 . S
C585 N587 1.384 . S
N586 C582 1.430 1_556 S
N586 C583 1.384 . S
N587 C579 1.417 1_554 S
N587 C585 1.384 . S
C163 C1 1.007 . S
C167 C96 1.003 . S
C181 C18 1.374 . S
C185 C55 1.374 . S
C199 C66 1.034 . S
C203 C27 1.059 . S
C217 C81 1.415 . S
C221 C49 1.409 . S
C235 C114 1.021 . S
C239 C92 1.033 . S
C253 C118 1.257 . S
C257 C62 1.248 . S
C271 C140 1.388 . S
C275 C70 1.346 . S
C289 C144 1.198 . S
C293 C88 1.194 . S
C307 C14 1.030 . S
C311 C122 1.030 . S
C325 C133 1.202 . S
C329 C31 1.215 . S
C343 C42 1.388 . S
C347 C148 1.397 . S
C361 C107 1.225 . S
C365 C5 1.219 . S
C379 C83 1.699 1_455 S
C383 C10 1.695 . S
C397 C94 1.665 . S
C401 C16 1.665 . S
C415 C57 1.719 . S
C419 C36 1.722 . S
C433 C40 1.746 . S
C437 C75 1.672 . S
C451 C101 1.778 . S
C455 C68 1.702 1_545 S
C469 C53 1.646 1_655 S
C473 C79 1.652 . S
C487 C44 1.632 . S
C491 C23 1.626 . S
C505 C29 1.758 . S
C509 C3 1.760 . S
C523 C109 1.876 1_556 S
C527 C127 1.872 . S
C541 C120 1.706 . S
C545 C131 1.691 1_556 S
C559 C153 1.523 . S
C563 C135 1.528 1_556 S
C577 C105 1.697 . S
C581 C146 1.703 . S
