# Generated by pormake.
# Topology whw, (6)-cn, num edge types: 1
# Building blocks:
#     Node 0, Type 0, BuildingBlock: BETDEL_clean_sbu_0, # of connection points: 6
#     Node 1, Type 0, BuildingBlock: BETDEL_clean_sbu_0, # of connection points: 6
#     Node 2, Type 0, BuildingBlock: BETDEL_clean_sbu_0, # of connection points: 6
#     Node 3, Type 0, BuildingBlock: BETDEL_clean_sbu_0, # of connection points: 6
#     Node 4, Type 0, BuildingBlock: BETDEL_clean_sbu_0, # of connection points: 6
#     Node 5, Type 0, BuildingBlock: BETDEL_clean_sbu_0, # of connection points: 6
#     Node 6, Type 0, BuildingBlock: BETDEL_clean_sbu_0, # of connection points: 6
#     Node 7, Type 0, BuildingBlock: BETDEL_clean_sbu_0, # of connection points: 6
#     Node 8, Type 0, BuildingBlock: BETDEL_clean_sbu_0, # of connection points: 6
#     Node 9, Type 0, BuildingBlock: BETDEL_clean_sbu_0, # of connection points: 6
#     Node 10, Type 0, BuildingBlock: BETDEL_clean_sbu_0, # of connection points: 6
#     Node 11, Type 0, BuildingBlock: BETDEL_clean_sbu_0, # of connection points: 6
#     Node 12, Type 0, BuildingBlock: BETDEL_clean_sbu_0, # of connection points: 6
#     Node 13, Type 0, BuildingBlock: BETDEL_clean_sbu_0, # of connection points: 6
#     Node 14, Type 0, BuildingBlock: BETDEL_clean_sbu_0, # of connection points: 6
#     Node 15, Type 0, BuildingBlock: BETDEL_clean_sbu_0, # of connection points: 6
#     Edge 16, Type (0, 0), BuildingBlock: XIVTED_clean_linker_0, # of connection points: 2
#     Edge 17, Type (0, 0), BuildingBlock: XIVTED_clean_linker_0, # of connection points: 2
#     Edge 18, Type (0, 0), BuildingBlock: XIVTED_clean_linker_0, # of connection points: 2
#     Edge 19, Type (0, 0), BuildingBlock: XIVTED_clean_linker_0, # of connection points: 2
#     Edge 20, Type (0, 0), BuildingBlock: XIVTED_clean_linker_0, # of connection points: 2
#     Edge 21, Type (0, 0), BuildingBlock: XIVTED_clean_linker_0, # of connection points: 2
#     Edge 22, Type (0, 0), BuildingBlock: XIVTED_clean_linker_0, # of connection points: 2
#     Edge 23, Type (0, 0), BuildingBlock: XIVTED_clean_linker_0, # of connection points: 2
#     Edge 24, Type (0, 0), BuildingBlock: XIVTED_clean_linker_0, # of connection points: 2
#     Edge 25, Type (0, 0), BuildingBlock: XIVTED_clean_linker_0, # of connection points: 2
#     Edge 26, Type (0, 0), BuildingBlock: XIVTED_clean_linker_0, # of connection points: 2
#     Edge 27, Type (0, 0), BuildingBlock: XIVTED_clean_linker_0, # of connection points: 2
#     Edge 28, Type (0, 0), BuildingBlock: XIVTED_clean_linker_0, # of connection points: 2
#     Edge 29, Type (0, 0), BuildingBlock: XIVTED_clean_linker_0, # of connection points: 2
#     Edge 30, Type (0, 0), BuildingBlock: XIVTED_clean_linker_0, # of connection points: 2
#     Edge 31, Type (0, 0), BuildingBlock: XIVTED_clean_linker_0, # of connection points: 2
#     Edge 32, Type (0, 0), BuildingBlock: XIVTED_clean_linker_0, # of connection points: 2
#     Edge 33, Type (0, 0), BuildingBlock: XIVTED_clean_linker_0, # of connection points: 2
#     Edge 34, Type (0, 0), BuildingBlock: XIVTED_clean_linker_0, # of connection points: 2
#     Edge 35, Type (0, 0), BuildingBlock: XIVTED_clean_linker_0, # of connection points: 2
#     Edge 36, Type (0, 0), BuildingBlock: XIVTED_clean_linker_0, # of connection points: 2
#     Edge 37, Type (0, 0), BuildingBlock: XIVTED_clean_linker_0, # of connection points: 2
#     Edge 38, Type (0, 0), BuildingBlock: XIVTED_clean_linker_0, # of connection points: 2
#     Edge 39, Type (0, 0), BuildingBlock: XIVTED_clean_linker_0, # of connection points: 2
#     Edge 40, Type (0, 0), BuildingBlock: XIVTED_clean_linker_0, # of connection points: 2
#     Edge 41, Type (0, 0), BuildingBlock: XIVTED_clean_linker_0, # of connection points: 2
#     Edge 42, Type (0, 0), BuildingBlock: XIVTED_clean_linker_0, # of connection points: 2
#     Edge 43, Type (0, 0), BuildingBlock: XIVTED_clean_linker_0, # of connection points: 2
#     Edge 44, Type (0, 0), BuildingBlock: XIVTED_clean_linker_0, # of connection points: 2
#     Edge 45, Type (0, 0), BuildingBlock: XIVTED_clean_linker_0, # of connection points: 2
#     Edge 46, Type (0, 0), BuildingBlock: XIVTED_clean_linker_0, # of connection points: 2
#     Edge 47, Type (0, 0), BuildingBlock: XIVTED_clean_linker_0, # of connection points: 2
#     Edge 48, Type (0, 0), BuildingBlock: XIVTED_clean_linker_0, # of connection points: 2
#     Edge 49, Type (0, 0), BuildingBlock: XIVTED_clean_linker_0, # of connection points: 2
#     Edge 50, Type (0, 0), BuildingBlock: XIVTED_clean_linker_0, # of connection points: 2
#     Edge 51, Type (0, 0), BuildingBlock: XIVTED_clean_linker_0, # of connection points: 2
#     Edge 52, Type (0, 0), BuildingBlock: XIVTED_clean_linker_0, # of connection points: 2
#     Edge 53, Type (0, 0), BuildingBlock: XIVTED_clean_linker_0, # of connection points: 2
#     Edge 54, Type (0, 0), BuildingBlock: XIVTED_clean_linker_0, # of connection points: 2
#     Edge 55, Type (0, 0), BuildingBlock: XIVTED_clean_linker_0, # of connection points: 2
#     Edge 56, Type (0, 0), BuildingBlock: XIVTED_clean_linker_0, # of connection points: 2
#     Edge 57, Type (0, 0), BuildingBlock: XIVTED_clean_linker_0, # of connection points: 2
#     Edge 58, Type (0, 0), BuildingBlock: XIVTED_clean_linker_0, # of connection points: 2
#     Edge 59, Type (0, 0), BuildingBlock: XIVTED_clean_linker_0, # of connection points: 2
#     Edge 60, Type (0, 0), BuildingBlock: XIVTED_clean_linker_0, # of connection points: 2
#     Edge 61, Type (0, 0), BuildingBlock: XIVTED_clean_linker_0, # of connection points: 2
#     Edge 62, Type (0, 0), BuildingBlock: XIVTED_clean_linker_0, # of connection points: 2
#     Edge 63, Type (0, 0), BuildingBlock: XIVTED_clean_linker_0, # of connection points: 2
# Relax obj value: 0.402
# Max RMSD: 0.202
# Mean RMSD: 0.196
data_MOF--net-whw--node1-BETDEL_clean_sbu_0--edge1-XIVTED_clean_linker_0
_symmetry_space_group_name_H-M    P1
_symmetry_Int_Tables_number       1
_symmetry_cell_setting            triclinic
loop_
_symmetry_equiv_pos_as_xyz
'x, y, z'
_cell_length_a     47.008209
_cell_length_b     47.43729
_cell_length_c     27.00389
_cell_angle_alpha  88.083607
_cell_angle_beta   90.143728
_cell_angle_gamma 91.913716
loop_
_atom_site_label
_atom_site_type_symbol
_atom_site_fract_x
_atom_site_fract_y
_atom_site_fract_z
_atom_type_partial_charge
Dy0 Dy 0.02477 0.11384 0.14114 0.0
C1 C 0.93042 0.0849 1.01293 0.0
C2 C 0.06328 0.12638 0.21381 0.0
Dy3 Dy 0.96854 0.10321 0.08229 0.0
O4 O 0.05815 0.1426 0.17528 0.0
O5 O 0.04807 0.10316 0.21157 0.0
O6 O 0.0438 0.07714 0.10558 0.0
O7 O -0.00042 0.07668 0.11896 0.0
C8 C 0.01945 0.064 0.09892 0.0
C9 C 0.97302 0.15278 0.12409 0.0
O10 O 0.95338 0.08921 0.15872 0.0
O11 O 0.99056 0.11252 0.19925 0.0
O12 O 0.92499 0.1019 0.04813 0.0
O13 O 0.95659 0.0771 1.01677 0.0
O14 O 0.94849 0.14121 0.11293 0.0
O15 O -0.00715 0.13938 0.10584 0.0
O16 O 0.0389 0.13457 0.06863 0.0
O17 O -0.00051 0.11976 1.02233 0.0
C18 C 0.96507 0.09964 0.19953 0.0
C19 C 0.02531 0.13219 1.02551 0.0
Dy20 Dy 0.10028 0.70859 0.42426 0.0
C21 C 0.12407 0.60874 0.31958 0.0
C22 C 0.09476 0.75316 0.48459 0.0
Dy23 Dy 0.10208 0.65264 0.36743 0.0
O24 O 0.11766 0.7393 0.47853 0.0
O25 O 0.07486 0.74354 0.45543 0.0
O26 O 0.14818 0.71061 0.42494 0.0
O27 O 0.12661 0.69213 0.36643 0.0
C28 C 0.15075 0.69677 0.38488 0.0
C29 C 0.05107 0.66434 0.40131 0.0
O30 O 0.11282 0.63695 0.44621 0.0
O31 O 0.10062 0.67689 0.48778 0.0
O32 O 0.09714 0.61203 0.3278 0.0
O33 O 0.13893 0.6294 0.33818 0.0
O34 O 0.05457 0.64902 0.36265 0.0
O35 O 0.07482 0.66949 0.42141 0.0
O36 O 0.08105 0.72341 0.35095 0.0
O37 O 0.09047 0.68392 0.30465 0.0
C38 C 0.10887 0.65045 0.48813 0.0
C39 C 0.08086 0.71011 0.30799 0.0
Dy40 Dy 0.47626 0.8627 0.73215 0.0
C41 C 0.57369 0.88805 0.59956 0.0
C42 C 0.44076 0.84765 0.80951 0.0
Dy43 Dy 0.5315 0.87005 0.66393 0.0
O44 O 0.45553 0.87127 0.80514 0.0
O45 O 0.44446 0.83279 0.77046 0.0
O46 O 0.4561 0.89976 0.69379 0.0
O47 O 0.50067 0.89745 0.69591 0.0
C48 C 0.48013 0.91016 0.67643 0.0
C49 C 0.51727 0.81781 0.6961 0.0
O50 O 0.55229 0.87758 0.73828 0.0
O51 O 0.51216 0.86738 0.78791 0.0
O52 O 0.57514 0.86665 0.63073 0.0
O53 O 0.5498 0.90044 0.60585 0.0
O54 O 0.53225 0.82297 0.65618 0.0
O55 O 0.51393 0.84022 0.71771 0.0
O56 O 0.46201 0.84 0.66258 0.0
O57 O 0.49636 0.86043 0.60923 0.0
C58 C 0.53993 0.87345 0.78258 0.0
C59 C 0.4724 0.84516 0.61697 0.0
Dy60 Dy 0.36574 0.2364 0.92591 0.0
C61 C 0.3616 0.33671 0.8028 0.0
C62 C 0.3611 0.19476 0.99802 0.0
Dy63 Dy 0.37298 0.29386 0.86876 0.0
O64 O 0.34424 0.21563 0.99208 0.0
O65 O 0.38036 0.19605 0.96344 0.0
O66 O 0.32683 0.22673 0.88218 0.0
O67 O 0.33687 0.26896 0.89931 0.0
C68 C 0.32004 0.25289 0.8759 0.0
C69 C 0.41836 0.27786 0.9192 0.0
O70 O 0.36474 0.31021 0.94469 0.0
O71 O 0.37257 0.26759 0.98699 0.0
O72 O 0.38617 0.33287 0.82376 0.0
O73 O 0.34346 0.3172 0.81816 0.0
O74 O 0.41393 0.30436 0.90851 0.0
O75 O 0.40074 0.26231 0.89678 0.0
O76 O 0.38548 0.22044 0.85592 0.0
O77 O 0.38186 0.26232 0.80879 0.0
C78 C 0.36952 0.29538 0.9865 0.0
C79 C 0.38771 0.23493 0.8127 0.0
Dy80 Dy 0.00639 0.83232 0.88505 0.0
C81 C 0.90539 0.86224 0.9891 0.0
C82 C 0.04588 0.82342 0.81385 0.0
Dy83 Dy 0.94811 0.8416 0.93483 0.0
O84 O 0.03562 0.80402 0.84475 0.0
O85 O 0.03547 0.84754 0.82371 0.0
O86 O 0.02775 0.86333 0.934 0.0
O87 O 0.9848 0.86846 0.913 0.0
C88 C 0.00482 0.87743 0.94022 0.0
C89 C 0.95071 0.79631 0.88069 0.0
O90 O 0.93766 0.85934 0.85855 0.0
O91 O 0.97779 0.84306 0.82024 0.0
O92 O 0.90921 0.83556 0.98276 0.0
O93 O 0.92529 0.87744 0.96689 0.0
O94 O 0.92689 0.80909 0.88566 0.0
O95 O 0.96975 0.80666 0.90777 0.0
O96 O 0.01393 0.80633 0.95481 0.0
O97 O 0.97566 0.82333 0.99881 0.0
C98 C 0.95257 0.85477 0.81802 0.0
C99 C -0.00043 0.80855 0.99697 0.0
Dy100 Dy 0.3844 0.71568 0.23098 0.0
C101 C 0.38956 0.64305 0.06009 0.0
C102 C 0.39356 0.75289 0.30725 0.0
Dy103 Dy 0.37625 0.67383 0.14089 0.0
O104 O 0.40939 0.75082 0.26814 0.0
O105 O 0.37147 0.73562 0.30323 0.0
O106 O 0.42271 0.69032 0.25162 0.0
O107 O 0.4108 0.69528 0.17767 0.0
C108 C 0.42738 0.68305 0.20674 0.0
C109 C 0.32808 0.68595 0.18523 0.0
O110 O 0.37973 0.64467 0.20826 0.0
O111 O 0.36562 0.67633 0.26713 0.0
O112 O 0.40271 0.64227 0.10255 0.0
O113 O 0.36844 0.66007 0.06228 0.0
O114 O 0.33119 0.66349 0.15945 0.0
O115 O 0.34961 0.70275 0.18075 0.0
O116 O 0.38371 0.74708 0.16527 0.0
O117 O 0.38243 0.71516 0.10066 0.0
C118 C 0.37112 0.65038 0.2537 0.0
C119 C 0.38375 0.74118 0.11717 0.0
Dy120 Dy 0.46533 0.12469 0.39234 0.0
C121 C 0.56615 0.10605 0.50731 0.0
C122 C 0.42282 0.12629 0.32348 0.0
Dy123 Dy 0.52392 0.12344 0.44577 0.0
O124 O 0.44203 0.10737 0.32708 0.0
O125 O 0.42625 0.14418 0.35866 0.0
O126 O 0.44893 0.08968 0.44236 0.0
O127 O 0.49238 0.0918 0.42279 0.0
C128 C 0.47376 0.07925 0.44992 0.0
C129 C 0.51499 0.16991 0.39113 0.0
O130 O 0.5386 0.11274 0.36923 0.0
O131 O 0.49688 0.12514 0.32858 0.0
O132 O 0.56314 0.13189 0.49108 0.0
O133 O 0.54604 0.08975 0.48994 0.0
O134 O 0.54054 0.16138 0.40092 0.0
O135 O 0.49697 0.15535 0.41616 0.0
O136 O 0.45371 0.1482 0.46081 0.0
O137 O 0.49406 0.13686 0.50701 0.0
C138 C 0.52419 0.11863 0.3278 0.0
C139 C 0.46809 0.14754 0.50359 0.0
Dy140 Dy 0.11659 0.24998 0.60235 0.0
C141 C 0.10264 0.342 0.73644 0.0
C142 C 0.12066 0.21292 0.52765 0.0
Dy143 Dy 0.10245 0.30214 0.66588 0.0
O144 O 0.13583 0.2361 0.53151 0.0
O145 O 0.10371 0.2095 0.56549 0.0
O146 O 0.15646 0.24352 0.64468 0.0
O147 O 0.14078 0.28449 0.63615 0.0
C148 C 0.15903 0.26955 0.65797 0.0
C149 C 0.06026 0.28058 0.61151 0.0
O150 O 0.11179 0.32504 0.59346 0.0
O151 O 0.10764 0.28497 0.54585 0.0
O152 O 0.0806 0.3339 0.71086 0.0
O153 O 0.12486 0.32852 0.72308 0.0
O154 O 0.06127 0.30692 0.62364 0.0
O155 O 0.0794 0.2674 0.63365 0.0
O156 O 0.09908 0.22681 0.67122 0.0
O157 O 0.09915 0.2657 0.72216 0.0
C158 C 0.10863 0.31286 0.55001 0.0
C159 C 0.09635 0.23802 0.71566 0.0
Dy160 Dy 0.86615 0.23672 0.67601 0.0
C161 C 0.87408 0.15825 0.51342 0.0
C162 C 0.87752 0.2666 0.76058 0.0
Dy163 Dy 0.85921 0.18849 0.5942 0.0
O164 O 0.8957 0.25332 0.73463 0.0
O165 O 0.85234 0.26389 0.73994 0.0
O166 O 0.90278 0.2545 0.63127 0.0
O167 O 0.89303 0.21097 0.63179 0.0
C168 C 0.90828 0.23052 0.61232 0.0
C169 C 0.81407 0.19567 0.651 0.0
O170 O 0.87228 0.16211 0.6598 0.0
O171 O 0.86325 0.19539 0.71942 0.0
O172 O 0.84914 0.16877 0.52015 0.0
O173 O 0.89019 0.16366 0.5513 0.0
O174 O 0.81816 0.17204 0.62879 0.0
O175 O 0.83202 0.21452 0.63663 0.0
O176 O 0.84906 0.2634 0.61305 0.0
O177 O 0.85537 0.22992 0.55184 0.0
C178 C 0.86889 0.16936 0.7064 0.0
C179 C 0.8498 0.25589 0.56578 0.0
Dy180 Dy 0.63536 0.73384 0.1482 0.0
C181 C 0.62626 0.82991 0.27568 0.0
C182 C 0.63529 0.69112 0.08212 0.0
Dy183 Dy 0.62187 0.78562 0.21384 0.0
O184 O 0.6539 0.71187 0.08391 0.0
O185 O 0.61733 0.69281 0.11845 0.0
O186 O 0.6814 0.74852 0.14484 0.0
O187 O 0.65692 0.75741 0.20597 0.0
C188 C 0.68059 0.76221 0.18557 0.0
C189 C 0.57773 0.75414 0.18342 0.0
O190 O 0.62776 0.80785 0.13864 0.0
O191 O 0.62415 0.76778 0.09121 0.0
O192 O 0.60351 0.82265 0.251 0.0
O193 O 0.64687 0.8135 0.26515 0.0
O194 O 0.57724 0.76836 0.22389 0.0
O195 O 0.60007 0.76046 0.15972 0.0
O196 O 0.6238 0.71102 0.22201 0.0
O197 O 0.62067 0.75043 0.27169 0.0
C198 C 0.62518 0.79572 0.09494 0.0
C199 C 0.61942 0.72264 0.26587 0.0
Dy200 Dy 0.60904 0.24791 0.93003 0.0
C201 C 0.61062 0.14486 0.82477 0.0
C202 C 0.61742 0.28843 0.99833 0.0
Dy203 Dy 0.60131 0.18983 0.88176 0.0
O204 O 0.63346 0.2672 0.99195 0.0
O205 O 0.59685 0.28829 0.96585 0.0
O206 O 0.64572 0.25873 0.88099 0.0
O207 O 0.63778 0.21618 0.90407 0.0
C208 C 0.65285 0.23277 0.87646 0.0
C209 C 0.55683 0.20593 0.9327 0.0
O210 O 0.61021 0.17412 0.95991 0.0
O211 O 0.60356 0.21719 0.99616 0.0
O212 O 0.58573 0.15272 0.83867 0.0
O213 O 0.63035 0.16164 0.84195 0.0
O214 O 0.56142 0.17942 0.9257 0.0
O215 O 0.57373 0.2214 0.90698 0.0
O216 O 0.58755 0.26273 0.85841 0.0
O217 O 0.59295 0.22077 0.81701 0.0
C218 C 0.60631 0.18936 0.99972 0.0
C219 C 0.58614 0.24792 0.817 0.0
Dy220 Dy 0.91539 0.78073 0.40644 0.0
C221 C 0.87036 0.87547 0.29711 0.0
C222 C 0.93522 0.73836 0.46681 0.0
Dy223 Dy 0.90175 0.83604 0.34597 0.0
O224 O 0.91117 0.73729 0.44301 0.0
O225 O 0.94878 0.76186 0.4551 0.0
O226 O 0.86783 0.77234 0.41313 0.0
O227 O 0.88497 0.79333 0.35035 0.0
C228 C 0.86227 0.78542 0.37141 0.0
C229 C 0.95488 0.83448 0.37724 0.0
O230 O 0.89093 0.84789 0.4259 0.0
O231 O 0.90624 0.80794 0.46955 0.0
O232 O 0.89789 0.87668 0.30223 0.0
O233 O 0.86002 0.85278 0.31967 0.0
O234 O 0.94765 0.84887 0.33739 0.0
O235 O 0.93299 0.82406 0.39901 0.0
O236 O 0.93569 0.7708 0.33357 0.0
O237 O 0.91638 0.80701 0.28461 0.0
C238 C 0.89566 0.83339 0.46846 0.0
C239 C 0.93115 0.78326 0.28935 0.0
Dy240 Dy 0.54118 0.59642 0.6869 0.0
C241 C 0.44215 0.57747 0.56096 0.0
C242 C 0.57913 0.60646 0.76213 0.0
Dy243 Dy 0.4825 0.592 0.62924 0.0
O244 O 0.5631 0.58384 0.75808 0.0
O245 O 0.57561 0.62304 0.72338 0.0
O246 O 0.55539 0.55834 0.6478 0.0
O247 O 0.51196 0.56308 0.66358 0.0
C248 C 0.52947 0.54843 0.64173 0.0
C249 C 0.49251 0.63926 0.67568 0.0
O250 O 0.46746 0.57692 0.70478 0.0
O251 O 0.50709 0.59567 0.74582 0.0
O252 O 0.43904 0.59555 0.59547 0.0
O253 O 0.4672 0.56675 0.56453 0.0
O254 O 0.46676 0.63051 0.66496 0.0
O255 O 0.5106 0.62479 0.6549 0.0
O256 O 0.5563 0.61603 0.6135 0.0
O257 O 0.51368 0.60865 0.56981 0.0
C258 C 0.48054 0.58508 0.74595 0.0
C259 C 0.54103 0.61725 0.5717 0.0
Dy260 Dy 0.94911 0.37512 0.19091 0.0
C261 C 0.04395 0.3998 0.05863 0.0
C262 C 0.91011 0.36035 0.26332 0.0
Dy263 Dy 0.00551 0.38312 0.13043 0.0
O264 O 0.92643 0.38296 0.26241 0.0
O265 O 0.91453 0.34616 0.22388 0.0
O266 O 0.93239 0.41441 0.15453 0.0
O267 O 0.97648 0.41084 0.16599 0.0
C268 C 0.9576 0.42565 0.14601 0.0
C269 C -0.00178 0.33372 0.17767 0.0
O270 O 0.02211 0.39598 0.20444 0.0
O271 O 0.98432 0.37441 0.24858 0.0
O272 O 0.04758 0.37989 0.092 0.0
O273 O 0.01962 0.41126 0.06563 0.0
O274 O 0.02332 0.34412 0.16575 0.0
O275 O 0.97907 0.34799 0.15739 0.0
O276 O 0.93308 0.35733 0.11842 0.0
O277 O 0.97372 0.36929 0.07204 0.0
C278 C 0.01062 0.38573 0.24656 0.0
C279 C 0.94708 0.3589 0.07539 0.0
Dy280 Dy 0.51252 0.34959 0.37139 0.0
C281 C 0.4078 0.35884 0.47692 0.0
C282 C 0.56336 0.34683 0.3227 0.0
Dy283 Dy 0.45278 0.34506 0.42143 0.0
O284 O 0.54859 0.36912 0.32687 0.0
O285 O 0.55101 0.32595 0.34763 0.0
O286 O 0.50906 0.3966 0.36787 0.0
O287 O 0.48988 0.37325 0.42565 0.0
C288 C 0.49282 0.39758 0.40628 0.0
C289 C 0.46164 0.30461 0.35792 0.0
O290 O 0.44257 0.3646 0.34579 0.0
O291 O 0.48331 0.35139 0.30519 0.0
O292 O 0.41643 0.33323 0.47212 0.0
O293 O 0.42364 0.37682 0.45101 0.0
O294 O 0.43621 0.31112 0.37153 0.0
O295 O 0.48003 0.3167 0.38481 0.0
O296 O 0.5255 0.33307 0.44842 0.0
O297 O 0.48029 0.32881 0.4849 0.0
C298 C 0.4567 0.35994 0.30425 0.0
C299 C 0.50851 0.32623 0.48712 0.0
Dy300 Dy -0.00555 0.64935 0.88539 0.0
C301 C 0.08783 0.60998 1.0036 0.0
C302 C 0.95813 0.66435 0.81048 0.0
Dy303 Dy 0.04981 0.63451 0.94123 0.0
O304 O 0.96336 0.63863 0.82455 0.0
O305 O 0.97166 0.68163 0.83917 0.0
O306 O 0.96824 0.62338 0.9398 0.0
O307 O 0.01013 0.61189 0.92363 0.0
C308 C 0.98881 0.60664 0.95123 0.0
C309 C 0.05658 0.675 0.87179 0.0
O310 O 0.05836 0.61158 0.87149 0.0
O311 O 0.02038 0.62952 0.82669 0.0
O312 O 0.08868 0.63654 0.98979 0.0
O313 O 0.06591 0.59714 0.98427 0.0
O314 O 0.07764 0.65989 0.88701 0.0
O315 O 0.03511 0.67071 0.89953 0.0
O316 O 0.98938 0.67814 0.94966 0.0
O317 O 0.02539 0.65902 0.99855 0.0
C318 C 0.04425 0.61545 0.8293 0.0
C319 C 0.00334 0.67602 0.99262 0.0
H320 H 0.06999 0.1712 1.01751 0.0
H321 H 0.06843 0.18564 0.71971 0.0
H322 H 0.01011 0.12436 0.92801 0.0
H323 H 0.10585 0.24875 0.81341 0.0
H324 H 0.05252 0.15833 0.79437 0.0
H325 H 0.0889 0.1951 0.94211 0.0
C326 C 0.06094 0.16571 0.98206 0.0
C327 C 0.03828 0.14569 0.97949 0.0
C328 C 0.06434 0.1781 0.7985 0.0
C329 C 0.06009 0.17309 0.89238 0.0
C330 C 0.07359 0.19362 0.75586 0.0
C331 C 0.08843 0.21967 0.76005 0.0
C332 C 0.07038 0.18838 0.84586 0.0
C333 C 0.09429 0.22895 0.80812 0.0
C334 C 0.0717 0.1795 0.93892 0.0
C335 C 0.02746 0.13969 0.93211 0.0
N336 N 0.08536 0.21338 0.84886 0.0
N337 N 0.03846 0.15324 0.89062 0.0
H338 H 0.05784 0.76296 0.29899 0.0
H339 H 0.03496 0.76338 1.00355 0.0
H340 H 0.07715 0.692 0.21101 0.0
H341 H 0.9902 0.81908 0.09663 0.0
H342 H 0.05437 0.7398 0.0778 0.0
H343 H 0.037 0.78624 0.2254 0.0
C344 C 0.05768 0.75213 0.26435 0.0
C345 C 0.06912 0.7251 0.2621 0.0
C346 C 0.04039 0.75724 0.08215 0.0
C347 C 0.04581 0.75243 0.17614 0.0
C348 C 0.02925 0.77085 0.03954 0.0
C349 C 0.01082 0.79356 0.04317 0.0
C350 C 0.03371 0.76646 0.12961 0.0
C351 C 0.0042 0.80177 0.09145 0.0
C352 C 0.04578 0.76557 0.2221 0.0
C353 C 0.06861 0.71268 0.2153 0.0
N354 N 0.01576 0.7885 0.1324 0.0
N355 N 0.05743 0.72641 0.17456 0.0
H356 H 0.4384 0.79061 0.31658 0.0
H357 H 0.4241 0.80935 0.61155 0.0
H358 H 0.3695 0.75137 0.40141 0.0
H359 H 0.48763 0.85226 0.51896 0.0
H360 H 0.40304 0.78829 0.53699 0.0
H361 H 0.45569 0.81364 0.39108 0.0
C362 C 0.42668 0.78701 0.35082 0.0
C363 C 0.40229 0.76903 0.35225 0.0
C364 C 0.42152 0.80242 0.53306 0.0
C365 C 0.42245 0.79534 0.43917 0.0
C366 C 0.43359 0.81453 0.57577 0.0
C367 C 0.45786 0.83278 0.5722 0.0
C368 C 0.43375 0.80841 0.48606 0.0
C369 C 0.46904 0.83841 0.5243 0.0
C370 C 0.43666 0.80017 0.39365 0.0
C371 C 0.38825 0.76518 0.39821 0.0
N372 N 0.45707 0.82632 0.48371 0.0
N373 N 0.39857 0.77803 0.43968 0.0
H374 H 0.41753 0.18564 0.80727 0.0
H375 H 0.42422 0.18484 0.50925 0.0
H376 H 0.38327 0.25183 0.71405 0.0
H377 H 0.48252 0.13887 0.60229 0.0
H378 H 0.40444 0.20548 0.58348 0.0
H379 H 0.43671 0.16428 0.73312 0.0
C380 C 0.41379 0.19564 0.77131 0.0
C381 C 0.39861 0.22074 0.76745 0.0
C382 C 0.42154 0.19085 0.58772 0.0
C383 C 0.42055 0.19599 0.68152 0.0
C384 C 0.43283 0.17891 0.54519 0.0
C385 C 0.45526 0.15997 0.54896 0.0
C386 C 0.43221 0.18356 0.63507 0.0
C387 C 0.46541 0.1534 0.59707 0.0
C388 C 0.42494 0.18345 0.72885 0.0
C389 C 0.39482 0.2326 0.71935 0.0
N390 N 0.45378 0.16494 0.6379 0.0
N391 N 0.40547 0.22012 0.67864 0.0
H392 H 0.88699 0.92459 0.24938 0.0
H393 H 0.89739 0.91736 1.00947 0.0
H394 H 0.82198 0.85841 0.24912 0.0
H395 H 0.86502 0.83286 0.04382 0.0
H396 H 0.87038 0.93439 0.07908 0.0
H397 H 0.87952 0.93309 0.16151 0.0
C398 C 0.87007 0.9128 0.23114 0.0
C399 C 0.85602 0.88995 0.25568 0.0
C400 C 0.8689 0.91218 0.07112 0.0
C401 C 0.84779 0.8988 0.15471 0.0
C402 C 0.88421 0.90247 0.03128 0.0
C403 C 0.88429 0.87351 1.02251 0.0
C404 C 0.85426 0.89258 0.10276 0.0
C405 C 0.86624 0.85524 0.05056 0.0
C406 C 0.86574 0.91759 0.18056 0.0
C407 C 0.83396 0.87566 0.23088 0.0
N408 N 0.85244 0.86499 0.09024 0.0
N409 N 0.83135 0.87946 0.18104 0.0
H410 H 0.90055 0.12166 0.70875 0.0
H411 H 0.87591 0.10093 0.99937 0.0
H412 H 0.84224 0.16798 0.79553 0.0
H413 H 0.94659 0.06679 0.92245 0.0
H414 H 0.85393 0.11281 0.91973 0.0
H415 H 0.90883 0.09032 0.78135 0.0
C416 C 0.88913 0.12489 0.74277 0.0
C417 C 0.8712 0.14777 0.74663 0.0
C418 C 0.87395 0.10215 0.92017 0.0
C419 C 0.88028 0.11207 0.82916 0.0
C420 C 0.88639 0.09518 0.96565 0.0
C421 C 0.91332 0.08343 0.9673 0.0
C422 C 0.88878 0.09766 0.87616 0.0
C423 C 0.92591 0.07618 0.92263 0.0
C424 C 0.89386 0.10706 0.78411 0.0
C425 C 0.85678 0.15099 0.79136 0.0
N426 N 0.91384 0.08403 0.87868 0.0
N427 N 0.86183 0.13353 0.83095 0.0
H428 H 0.65652 0.1423 0.76405 0.0
H429 H 0.55958 0.06105 0.57197 0.0
H430 H 0.57434 0.10273 0.79556 0.0
H431 H 0.61442 0.13371 0.53745 0.0
H432 H 0.58137 0.05737 0.65438 0.0
H433 H 0.65661 0.11957 0.68387 0.0
C434 C 0.63901 0.12796 0.75488 0.0
C435 C 0.61499 0.12488 0.78546 0.0
C436 C 0.58933 0.07343 0.628 0.0
C437 C 0.61513 0.0989 0.69478 0.0
C438 C 0.57698 0.07554 0.58107 0.0
C439 C 0.5848 0.09821 0.54878 0.0
C440 C 0.60968 0.09398 0.64203 0.0
C441 C 0.60745 0.11633 0.56199 0.0
C442 C 0.63909 0.11506 0.70922 0.0
C443 C 0.59294 0.10604 0.77225 0.0
N444 N 0.61882 0.11415 0.60813 0.0
N445 N 0.59328 0.0941 0.72732 0.0
H446 H 0.56275 0.92096 0.51744 0.0
H447 H 0.66578 0.83377 0.34962 0.0
H448 H 0.62197 0.8608 0.576 0.0
H449 H 0.58645 0.86784 0.29929 0.0
H450 H 0.66001 0.8568 0.42878 0.0
H451 H 0.58207 0.91507 0.43446 0.0
C452 C 0.58044 0.90718 0.51309 0.0
C453 C 0.59055 0.89101 0.55349 0.0
C454 C 0.64421 0.85973 0.39997 0.0
C455 C 0.6125 0.88406 0.45874 0.0
C456 C 0.64754 0.84674 0.35473 0.0
C457 C 0.62636 0.84868 0.31819 0.0
C458 C 0.61969 0.87499 0.40837 0.0
C459 C 0.60313 0.86564 0.32674 0.0
C460 C 0.59129 0.90369 0.46566 0.0
C461 C 0.61344 0.87346 0.54573 0.0
N462 N 0.60026 0.87793 0.37115 0.0
N463 N 0.6234 0.87013 0.49909 0.0
H464 H 0.63133 0.6667 0.29275 0.0
H465 H 0.51408 0.64897 0.50094 0.0
H466 H 0.58509 0.73791 0.34056 0.0
H467 H 0.59673 0.61721 0.53685 0.0
H468 H 0.5343 0.67278 0.42647 0.0
H469 H 0.61397 0.63948 0.3674 0.0
C470 C 0.61761 0.67662 0.31869 0.0
C471 C 0.60993 0.70482 0.31028 0.0
C472 C 0.54797 0.66042 0.45046 0.0
C473 C 0.58942 0.67358 0.39472 0.0
C474 C 0.53646 0.64675 0.49301 0.0
C475 C 0.5537 0.63109 0.52564 0.0
C476 C 0.57687 0.65789 0.43906 0.0
C477 C 0.58266 0.62921 0.5131 0.0
C478 C 0.60783 0.66112 0.36133 0.0
C479 C 0.59197 0.71644 0.34543 0.0
N480 N 0.5933 0.64223 0.47062 0.0
N481 N 0.58209 0.70076 0.38533 0.0
H482 H 0.5505 0.29309 0.80199 0.0
H483 H 0.55966 0.29971 0.50394 0.0
H484 H 0.59767 0.23336 0.72118 0.0
H485 H 0.48668 0.32825 0.58187 0.0
H486 H 0.57896 0.28156 0.58331 0.0
H487 H 0.53213 0.31248 0.72271 0.0
C488 C 0.55726 0.28417 0.76772 0.0
C489 C 0.57575 0.26139 0.76885 0.0
C490 C 0.55875 0.29186 0.58306 0.0
C491 C 0.55492 0.28396 0.67708 0.0
C492 C 0.54772 0.30237 0.53761 0.0
C493 C 0.52131 0.31557 0.53556 0.0
C494 C 0.54377 0.29507 0.62759 0.0
C495 C 0.50697 0.31814 0.58103 0.0
C496 C 0.5466 0.2952 0.72233 0.0
C497 C 0.58342 0.25078 0.72266 0.0
N498 N 0.5184 0.30828 0.62478 0.0
N499 N 0.57324 0.26219 0.67909 0.0
H500 H 0.89191 0.33713 0.05898 0.0
H501 H 0.93077 0.28155 0.79067 0.0
H502 H 0.97254 0.35279 0.9854 0.0
H503 H 0.84329 0.28633 0.83599 0.0
H504 H 0.94583 0.3046 0.866 0.0
H505 H 0.87308 0.31602 0.98256 0.0
C506 C 0.90565 0.33629 1.02698 0.0
C507 C 0.934 0.34689 1.02923 0.0
C508 C 0.92328 0.30081 0.85972 0.0
C509 C 0.91256 0.32237 0.94156 0.0
C510 C 0.91461 0.28754 0.81647 0.0
C511 C 0.88565 0.28198 0.80651 0.0
C512 C 0.90301 0.3085 0.89455 0.0
C513 C 0.86583 0.29032 0.84182 0.0
C514 C 0.89483 0.32425 0.98328 0.0
C515 C 0.95062 0.34506 0.98616 0.0
N516 N 0.87486 0.30296 0.88439 0.0
N517 N 0.93978 0.333 0.94478 0.0
H518 H 0.92255 0.79619 0.18869 0.0
H519 H 0.01852 0.67065 0.09168 0.0
H520 H 0.96574 0.73739 0.28537 0.0
H521 H 0.96565 0.72007 0.994 0.0
H522 H 0.00143 0.69684 0.16189 0.0
H523 H 0.9401 0.77116 0.11683 0.0
C524 C 0.93576 0.77816 0.19508 0.0
C525 C 0.94243 0.76912 0.24393 0.0
C526 C -0.00646 0.70206 0.12513 0.0
C527 C 0.96285 0.74003 0.16079 0.0
C528 C 0.00341 0.68706 0.08469 0.0
C529 C -0.0064 0.69281 0.03613 0.0
C530 C 0.97385 0.72359 0.11771 0.0
C531 C 0.97388 0.71456 0.03036 0.0
C532 C 0.94574 0.76374 0.1538 0.0
C533 C 0.95979 0.74542 0.24897 0.0
N534 N 0.96484 0.72906 0.07025 0.0
N535 N 0.96929 0.73194 0.20842 0.0
H536 H 0.40524 0.40954 0.52094 0.0
H537 H 0.39667 0.37922 0.76585 0.0
H538 H 0.36645 0.32584 0.52183 0.0
H539 H 0.31731 0.33423 0.73805 0.0
H540 H 0.39692 0.3972 0.68015 0.0
H541 H 0.38302 0.41728 0.60124 0.0
C542 C 0.39126 0.39317 0.53728 0.0
C543 C 0.38815 0.36673 0.51578 0.0
C544 C 0.37876 0.38444 0.69324 0.0
C545 C 0.36316 0.37532 0.6069 0.0
C546 C 0.37876 0.37403 0.74213 0.0
C547 C 0.35734 0.35473 0.75835 0.0
C548 C 0.35755 0.37481 0.66049 0.0
C549 C 0.3345 0.34871 0.72648 0.0
C550 C 0.3788 0.39755 0.58312 0.0
C551 C 0.36978 0.34628 0.538 0.0
N552 N 0.33573 0.35789 0.67837 0.0
N553 N 0.35827 0.35085 0.58289 0.0
H554 H 0.3887 0.5971 0.55061 0.0
H555 H 0.40338 0.60328 0.25844 0.0
H556 H 0.45339 0.55457 0.4717 0.0
H557 H 0.34162 0.64803 0.34055 0.0
H558 H 0.41377 0.575 0.33345 0.0
H559 H 0.36323 0.60503 0.47279 0.0
C560 C 0.39718 0.58884 0.51696 0.0
C561 C 0.42339 0.57564 0.5173 0.0
C562 C 0.39745 0.59054 0.33475 0.0
C563 C 0.3948 0.58525 0.42784 0.0
C564 C 0.39136 0.60655 0.29182 0.0
C565 C 0.37197 0.62836 0.29358 0.0
C566 C 0.38404 0.59646 0.37955 0.0
C567 C 0.35712 0.63177 0.33784 0.0
C568 C 0.3827 0.59346 0.47245 0.0
C569 C 0.43334 0.56513 0.47283 0.0
N570 N 0.36379 0.61633 0.37922 0.0
N571 N 0.41935 0.57071 0.42961 0.0
H572 H 0.17313 0.61633 0.26664 0.0
H573 H 0.08172 0.55786 0.04839 0.0
H574 H 0.09762 0.56257 0.28072 0.0
H575 H 0.13591 0.63307 0.04451 0.0
H576 H 0.10523 0.5421 0.1249 0.0
H577 H 0.17759 0.60298 0.18051 0.0
C578 C 0.15828 0.60064 0.25234 0.0
C579 C 0.13426 0.59138 0.27977 0.0
C580 C 0.1126 0.5616 0.10638 0.0
C581 C 0.13904 0.57647 0.18182 0.0
C582 C 0.09913 0.57066 0.06293 0.0
C583 C 0.10631 0.59725 0.04145 0.0
C584 C 0.13317 0.57937 0.12826 0.0
C585 C 0.12926 0.6128 0.06099 0.0
C586 C 0.16076 0.59315 0.20308 0.0
C587 C 0.11591 0.57083 0.25993 0.0
N588 N 0.14153 0.60391 0.10402 0.0
N589 N 0.11818 0.56463 0.21148 0.0
H590 H 0.14063 0.34672 0.8129 0.0
H591 H 0.03056 0.42972 0.9742 0.0
H592 H 0.06073 0.37757 0.75862 0.0
H593 H 0.09406 0.3755 0.03704 0.0
H594 H 0.051 0.4239 0.89201 0.0
H595 H 0.13269 0.36984 0.89151 0.0
C596 C 0.12177 0.35893 0.81714 0.0
C597 C 0.1011 0.36002 0.77967 0.0
C598 C 0.06084 0.41378 0.92394 0.0
C599 C 0.09195 0.38642 0.86891 0.0
C600 C 0.04931 0.41724 0.97087 0.0
C601 C 0.0604 0.40268 1.01221 0.0
C602 C 0.08364 0.39573 0.91852 0.0
C603 C 0.0847 0.38681 1.0059 0.0
C604 C 0.1172 0.372 0.86197 0.0
C605 C 0.07701 0.37601 0.78692 0.0
N606 N 0.09529 0.3834 0.95976 0.0
N607 N 0.07297 0.38839 0.83086 0.0
H608 H 0.94728 0.3069 0.19679 0.0
H609 H 0.02267 0.17843 0.15043 0.0
H610 H 0.03736 0.3007 0.22305 0.0
H611 H 0.93271 0.1759 0.18109 0.0
H612 H 0.02908 0.21784 0.20458 0.0
H613 H 0.94037 0.2576 0.22209 0.0
C614 C 0.9655 0.29529 0.20935 0.0
C615 C -0.00695 0.30717 0.20546 0.0
C616 C 0.00795 0.20836 0.20076 0.0
C617 C 0.98563 0.25071 0.2323 0.0
C618 C 0.00437 0.18584 0.16965 0.0
C619 C 0.97713 0.1746 0.16045 0.0
C620 C 0.98382 0.22065 0.22038 0.0
C621 C 0.95398 0.18488 0.18592 0.0
C622 C 0.96161 0.26709 0.22399 0.0
C623 C 0.0159 0.29165 0.22323 0.0
N624 N 0.95771 0.20796 0.21379 0.0
N625 N 0.01183 0.26378 0.23449 0.0
H626 H 0.9868 0.81651 0.30266 0.0
H627 H 0.03317 0.69074 0.48225 0.0
H628 H 0.98328 0.82047 0.46166 0.0
H629 H 0.01956 0.68477 0.32488 0.0
H630 H 0.01567 0.73865 0.47777 0.0
H631 H 0.00818 0.77094 0.31116 0.0
C632 C 0.99225 0.80855 0.33944 0.0
C633 C 0.98195 0.82096 0.38166 0.0
C634 C 0.01616 0.7267 0.44435 0.0
C635 C 0.00663 0.76958 0.39171 0.0
C636 C 0.02546 0.69922 0.44713 0.0
C637 C 0.02865 0.68453 0.40357 0.0
C638 C 0.01119 0.7393 0.39757 0.0
C639 C 0.01808 0.69591 0.35909 0.0
C640 C 0.00404 0.78225 0.3443 0.0
C641 C 0.99011 0.81054 0.42836 0.0
N642 N 0.01073 0.72321 0.35682 0.0
N643 N 0.00162 0.78481 0.43238 0.0
H644 H 0.45684 0.6626 0.74119 0.0
H645 H 0.56272 0.78659 0.71874 0.0
H646 H 0.54445 0.66211 0.69476 0.0
H647 H 0.47229 0.79073 0.74024 0.0
H648 H 0.5616 0.7397 0.7592 0.0
H649 H 0.46797 0.70447 0.78905 0.0
C650 C 0.47855 0.671 0.74207 0.0
C651 C 0.49961 0.66008 0.71241 0.0
C652 C 0.54203 0.75107 0.75607 0.0
C653 C 0.51236 0.70731 0.76627 0.0
C654 C 0.54263 0.77742 0.7321 0.0
C655 C 0.51721 0.79118 0.72372 0.0
C656 C 0.51559 0.7381 0.76877 0.0
C657 C 0.49201 0.77982 0.7443 0.0
C658 C 0.48501 0.69451 0.76996 0.0
C659 C 0.52759 0.67049 0.7164 0.0
N660 N 0.4916 0.75336 0.76469 0.0
N661 N 0.5331 0.69399 0.74204 0.0
H662 H 0.55344 0.25981 0.96 0.0
H663 H 0.42341 0.22409 0.95139 0.0
H664 H 0.52552 0.17529 1.00306 0.0
H665 H 0.44854 0.30902 0.98706 0.0
H666 H 0.45302 0.20621 1.01729 0.0
H667 H 0.5216 0.27823 1.01978 0.0
C668 C 0.54089 0.24509 0.98282 0.0
C669 C 0.54067 0.21622 0.9743 0.0
C670 C 0.45193 0.22888 1.0119 0.0
C671 C 0.50126 0.23725 0.03777 0.0
C672 C 0.43482 0.239 0.97394 0.0
C673 C 0.43462 0.26786 0.96224 0.0
C674 C 0.47193 0.24751 0.03327 0.0
C675 C 0.44971 0.28639 0.99273 0.0
C676 C 0.52259 0.25553 1.0174 0.0
C677 C 0.52455 0.19796 1.00576 0.0
N678 N 0.4686 0.27586 1.02611 0.0
N679 N 0.5047 0.20883 0.03549 0.0
H680 H 0.96366 0.74456 0.90786 0.0
H681 H 0.0364 0.66941 0.77635 0.0
H682 H 0.95526 0.79934 0.77859 0.0
H683 H 0.07978 0.72839 0.87032 0.0
H684 H 0.01119 0.70789 0.73695 0.0
H685 H 0.00316 0.72267 0.86903 0.0
C686 C 0.96892 0.75069 0.86985 0.0
C687 C 0.95698 0.77419 0.84692 0.0
C688 C 0.0275 0.71271 0.76409 0.0
C689 C 0.00166 0.74899 0.80182 0.0
C690 C 0.04138 0.69054 0.78776 0.0
C691 C 0.05768 0.69564 0.83029 0.0
C692 C 0.02907 0.73909 0.7857 0.0
C693 C 0.06558 0.72351 0.83992 0.0
C694 C 0.99181 0.73864 0.8481 0.0
C695 C 0.96483 0.7817 0.79782 0.0
N696 N 0.05064 0.74454 0.81819 0.0
N697 N 0.98757 0.7696 0.77686 0.0
H698 H 0.56733 0.72529 0.09929 0.0
H699 H 0.46042 0.64873 0.26414 0.0
H700 H 0.55603 0.72054 0.25773 0.0
H701 H 0.44749 0.67762 0.11302 0.0
H702 H 0.50975 0.63946 0.24413 0.0
H703 H 0.54005 0.68035 0.09328 0.0
C704 C 0.55941 0.71453 0.13276 0.0
C705 C 0.56278 0.72689 0.17886 0.0
C706 C 0.49575 0.64655 0.21463 0.0
C707 C 0.53295 0.67558 0.1726 0.0
C708 C 0.46775 0.65225 0.22636 0.0
C709 C 0.451 0.66622 0.19112 0.0
C710 C 0.50695 0.65762 0.16949 0.0
C711 C 0.46062 0.66866 0.14211 0.0
C712 C 0.54454 0.6887 0.12944 0.0
C713 C 0.55308 0.71204 0.22134 0.0
N714 N 0.48855 0.66518 0.13277 0.0
N715 N 0.53842 0.68727 0.21714 0.0
H716 H 0.55033 0.19351 0.31857 0.0
H717 H 0.42428 0.27571 0.29813 0.0
H718 H 0.46237 0.18125 0.35992 0.0
H719 H 0.51185 0.30361 0.3071 0.0
H720 H 0.43793 0.24039 0.23946 0.0
H721 H 0.53568 0.22441 0.24884 0.0
C722 C 0.5279 0.19683 0.31229 0.0
C723 C 0.5074 0.18598 0.34601 0.0
C724 C 0.45417 0.255 0.25288 0.0
C725 C 0.4906 0.22017 0.26636 0.0
C726 C 0.44642 0.27453 0.2876 0.0
C727 C 0.46778 0.28978 0.31243 0.0
C728 C 0.48322 0.24888 0.2492 0.0
C729 C 0.49547 0.28954 0.29372 0.0
C730 C 0.51951 0.21372 0.27177 0.0
C731 C 0.47872 0.18962 0.3352 0.0
N732 N 0.50263 0.26913 0.26265 0.0
N733 N 0.47115 0.20649 0.29655 0.0
H734 H 0.05531 0.22588 0.5864 0.0
H735 H 0.9134 0.26867 0.5354 0.0
H736 H 0.02758 0.30879 0.54346 0.0
H737 H 0.94044 0.1867 0.58553 0.0
H738 H 0.95408 0.2729 0.47984 0.0
H739 H 0.02065 0.20526 0.53025 0.0
C740 C 0.04237 0.2398 0.56406 0.0
C741 C 0.04313 0.26887 0.57132 0.0
C742 C 0.95069 0.25345 0.50153 0.0
C743 C 0.00196 0.24538 0.51018 0.0
C744 C 0.9276 0.25122 0.53366 0.0
C745 C 0.9251 0.22822 0.56738 0.0
C746 C 0.97236 0.2339 0.50738 0.0
C747 C 0.94281 0.20552 0.56189 0.0
C748 C 0.02258 0.22805 0.53177 0.0
C749 C 0.02631 0.28604 0.54108 0.0
N750 N 0.96644 0.20924 0.53343 0.0
N751 N 0.00573 0.27397 0.51271 0.0
H752 H 0.06178 0.03121 0.06888 0.0
H753 H 0.96288 0.91625 0.94239 0.0
H754 H 0.97032 0.03349 0.08003 0.0
H755 H 0.04686 0.89889 0.99793 0.0
H756 H 0.96495 0.9613 0.9846 0.0
H757 H 0.05696 0.98474 0.03311 0.0
C758 C 0.04066 0.02191 0.06365 0.0
C759 C 0.01639 0.03613 0.07712 0.0
C760 C 0.98273 0.94741 0.98789 0.0
C761 C 0.01073 0.98319 0.03604 0.0
C762 C 0.9815 0.9217 0.96414 0.0
C763 C 0.00463 0.90381 0.96715 0.0
C764 C 0.00752 0.95535 1.0137 0.0
C765 C 0.0286 0.91215 0.99463 0.0
C766 C 0.03794 -0.00462 0.04348 0.0
C767 C 0.98953 0.02319 0.06971 0.0
N768 N 0.02953 0.93746 1.0165 0.0
N769 N 0.98735 -0.00259 0.04922 0.0
H770 H 0.20414 0.71461 0.41301 0.0
H771 H 0.27724 0.65991 0.17113 0.0
H772 H 0.15765 0.67747 0.29215 0.0
H773 H 0.31926 0.72205 0.26145 0.0
H774 H 0.23424 0.66346 0.21971 0.0
H775 H 0.24778 0.71467 0.36308 0.0
C776 C 0.20319 0.7063 0.37614 0.0
C777 C 0.17741 0.6957 0.35677 0.0
C778 C 0.25272 0.67653 0.22886 0.0
C779 C 0.22685 0.69583 0.29986 0.0
C780 C 0.27732 0.6745 0.20116 0.0
C781 C 0.30178 0.69071 0.21247 0.0
C782 C 0.25259 0.69462 0.26881 0.0
C783 C 0.30072 0.70929 0.25164 0.0
C784 C 0.22798 0.70653 0.34766 0.0
C785 C 0.17718 0.68541 0.30877 0.0
N786 N 0.27648 0.71057 0.27894 0.0
N787 N 0.20155 0.68562 0.28207 0.0
H788 H 0.4438 0.06828 0.53366 0.0
H789 H 0.50272 0.91666 0.584 0.0
H790 H 0.51477 0.03927 0.45073 0.0
H791 H 0.46112 0.96177 0.69723 0.0
H792 H 0.50649 0.96013 0.53256 0.0
H793 H 0.44854 0.02852 0.59243 0.0
C794 C 0.46053 0.05353 0.5281 0.0
C795 C 0.47883 0.05679 0.48732 0.0
C796 C 0.49712 0.96069 0.56911 0.0
C797 C 0.48411 0.01109 0.55388 0.0
C798 C 0.49543 0.93602 0.59871 0.0
C799 C 0.48285 0.93613 0.64558 0.0
C800 C 0.48526 0.98533 0.58612 0.0
C801 C 0.47137 0.9611 0.66144 0.0
C802 C 0.4633 0.03095 0.56173 0.0
C803 C 0.50029 0.03735 0.48186 0.0
N804 N 0.47274 0.98475 0.63164 0.0
N805 N 0.50211 0.01496 0.51448 0.0
H806 H 0.29764 0.30605 0.86408 0.0
H807 H 0.15717 0.24104 0.74524 0.0
H808 H 0.28066 0.21807 0.8357 0.0
H809 H 0.19762 0.31353 0.67102 0.0
H810 H 0.19318 0.24324 0.81012 0.0
H811 H 0.25348 0.31769 0.81902 0.0
C812 C 0.28484 0.2893 0.84809 0.0
C813 C 0.29323 0.26116 0.8521 0.0
C814 C 0.1937 0.2592 0.78043 0.0
C815 C 0.24241 0.27404 0.80444 0.0
C816 C 0.17316 0.25804 0.74358 0.0
C817 C 0.17485 0.27691 0.70271 0.0
C818 C 0.21633 0.27905 0.77585 0.0
C819 C 0.19588 0.29857 0.70212 0.0
C820 C 0.25962 0.29593 0.82313 0.0
C821 C 0.27525 0.24008 0.83292 0.0
N822 N 0.21647 0.29869 0.73778 0.0
N823 N 0.25069 0.24695 0.81014 0.0
H824 H 0.67907 0.18161 0.87165 0.0
H825 H 0.7994 0.24533 0.68875 0.0
H826 H 0.68158 0.26705 0.81133 0.0
H827 H 0.77772 0.15618 0.69511 0.0
H828 H 0.76084 0.25314 0.74641 0.0
H829 H 0.71924 0.17106 0.81757 0.0
C830 C 0.68782 0.19797 0.84668 0.0
C831 C 0.67677 0.22507 0.84524 0.0
C832 C 0.76448 0.23185 0.73522 0.0
C833 C 0.72293 0.2136 0.78535 0.0
C834 C 0.78651 0.22739 0.70247 0.0
C835 C 0.79143 0.20014 0.68694 0.0
C836 C 0.74739 0.20885 0.75289 0.0
C837 C 0.77429 0.17756 0.70598 0.0
C838 C 0.71078 0.19203 0.81624 0.0
C839 C 0.68941 0.24584 0.81353 0.0
N840 N 0.75289 0.1824 0.73813 0.0
N841 N 0.71184 0.23969 0.78502 0.0
H842 H 0.80964 0.77199 0.41096 0.0
H843 H 0.73324 0.77463 0.14764 0.0
H844 H 0.8517 0.79988 0.2753 0.0
H845 H 0.68633 0.76996 0.28491 0.0
H846 H 0.777 0.78416 0.19422 0.0
H847 H 0.76402 0.77081 0.36626 0.0
C848 C 0.80919 0.77803 0.37193 0.0
C849 C 0.83434 0.78598 0.3467 0.0
C850 C 0.7571 0.78138 0.21416 0.0
C851 C 0.78267 0.78454 0.29551 0.0
C852 C 0.73217 0.77596 0.18756 0.0
C853 C 0.70629 0.77144 0.21254 0.0
C854 C 0.75614 0.78181 0.26616 0.0
C855 C 0.70593 0.77339 0.26429 0.0
C856 C 0.78323 0.77747 0.3465 0.0
C857 C 0.83275 0.79365 0.29617 0.0
N858 N 0.73058 0.77808 0.28953 0.0
N859 N 0.8074 0.79254 0.27217 0.0
H860 H 0.48094 0.51581 0.64174 0.0
H861 H 0.51389 0.45025 0.38142 0.0
H862 H 0.5584 0.53409 0.55983 0.0
H863 H 0.46776 0.40287 0.49643 0.0
H864 H 0.51939 0.48981 0.4369 0.0
H865 H 0.46622 0.48172 0.5793 0.0
C866 C 0.49481 0.51252 0.61062 0.0
C867 C 0.52103 0.52729 0.60589 0.0
C868 C 0.50765 0.47088 0.44951 0.0
C869 C 0.50409 0.48942 0.53441 0.0
C870 C 0.50435 0.44843 0.41792 0.0
C871 C 0.49069 0.42322 0.43477 0.0
C872 C 0.49686 0.46811 0.49782 0.0
C873 C 0.47854 0.42196 0.4822 0.0
C874 C 0.48637 0.49329 0.57513 0.0
C875 C 0.53822 0.5227 0.56494 0.0
N876 N 0.48213 0.44409 0.51242 0.0
N877 N 0.52937 0.50418 0.53048 0.0
H878 H 0.94349 0.5921 1.01022 0.0
H879 H 0.00903 0.45229 0.1268 0.0
H880 H 0.02495 0.5629 0.9644 0.0
H881 H 0.91864 0.46176 0.10818 0.0
H882 H 0.01753 0.49734 0.08112 0.0
H883 H 0.93621 0.5486 0.06069 0.0
C884 C 0.95997 0.57667 1.01121 0.0
C885 C 0.98502 0.5812 0.98361 0.0
C886 C -0.00413 0.48948 0.08707 0.0
C887 C 0.97693 0.53172 0.04135 0.0
C888 C 0.99101 0.46381 0.1129 0.0
C889 C 0.96312 0.45315 0.12037 0.0
C890 C 0.97263 0.50481 0.06977 0.0
C891 C 0.94048 0.46918 0.10276 0.0
C892 C 0.95577 0.55189 0.03988 0.0
C893 C 0.00567 0.56053 0.98607 0.0
N894 N 0.94572 0.4943 0.07836 0.0
N895 N 0.00122 0.53666 1.01461 0.0
H896 H 0.06637 0.09789 0.30263 0.0
H897 H 0.14633 0.22503 0.43881 0.0
H898 H 0.09495 0.1751 0.22671 0.0
H899 H 0.09082 0.16334 0.51388 0.0
H900 H 0.1379 0.20095 0.36102 0.0
H901 H 0.08571 0.1158 0.38012 0.0
C902 C 0.07721 0.11841 0.30212 0.0
C903 C 0.07897 0.13515 0.25836 0.0
C904 C 0.12787 0.1925 0.39465 0.0
C905 C 0.10101 0.15574 0.34677 0.0
C906 C 0.13277 0.20611 0.43906 0.0
C907 C 0.1191 0.19618 0.48266 0.0
C908 C 0.10941 0.16865 0.39404 0.0
C909 C 0.10168 0.17168 0.48097 0.0
C910 C 0.08809 0.12865 0.34638 0.0
C911 C 0.09312 0.16159 0.25975 0.0
N912 N 0.09721 0.15879 0.43727 0.0
N913 N 0.10349 0.17117 0.30339 0.0
H914 H 0.04737 0.78212 0.50889 0.0
H915 H 0.08792 0.78704 0.79149 0.0
H916 H 0.13162 0.76232 0.56012 0.0
H917 H 0.03042 0.84651 0.72575 0.0
H918 H 0.10214 0.77394 0.70783 0.0
H919 H 0.03816 0.80318 0.58906 0.0
C920 C 0.06406 0.7827 0.53659 0.0
C921 C 0.09025 0.77051 0.52798 0.0
C922 C 0.08664 0.7901 0.71188 0.0
C923 C 0.07968 0.79361 0.61964 0.0
C924 C 0.07848 0.79739 0.75942 0.0
C925 C 0.05791 0.81765 0.76517 0.0
C926 C 0.07363 0.80282 0.6702 0.0
C927 C 0.04647 0.83083 0.72266 0.0
C928 C 0.05881 0.7946 0.58226 0.0
C929 C 0.11113 0.77155 0.56525 0.0
N930 N 0.05414 0.82288 0.67688 0.0
N931 N 0.10524 0.78244 0.60978 0.0
H932 H 0.41517 0.79183 0.11506 0.0
H933 H 0.40402 0.80225 0.82068 0.0
H934 H 0.3571 0.74118 1.02855 0.0
H935 H 0.44583 0.86796 0.9032 0.0
H936 H 0.38534 0.78106 0.89811 0.0
H937 H 0.42509 0.82219 0.04059 0.0
C938 C 0.40397 0.78756 0.08088 0.0
C939 C 0.38551 0.7638 0.07786 0.0
C940 C 0.3983 0.80033 0.89948 0.0
C941 C 0.39707 0.79787 0.99271 0.0
C942 C 0.40893 0.81242 0.85514 0.0
C943 C 0.42642 0.83689 0.85551 0.0
C944 C 0.40562 0.81242 0.94489 0.0
C945 C 0.43226 0.84913 0.90132 0.0
C946 C 0.40977 0.80472 0.03831 0.0
C947 C 0.37179 0.75905 0.03246 0.0
N948 N 0.42221 0.83656 0.94429 0.0
N949 N 0.37809 0.77561 0.9918 0.0
H950 H 0.3838 0.1669 0.30602 0.0
H951 H 0.32461 0.1944 0.07593 0.0
H952 H 0.42212 0.09584 0.24005 0.0
H953 H 0.4004 0.15573 1.02463 0.0
H954 H 0.33199 0.17271 0.15814 0.0
H955 H 0.36153 0.17871 0.22643 0.0
C956 C 0.38682 0.15335 0.2751 0.0
C957 C 0.40478 0.13044 0.27942 0.0
C958 C 0.34693 0.16888 0.12889 0.0
C959 C 0.37953 0.1437 0.18838 0.0
C960 C 0.34258 0.18096 0.08183 0.0
C961 C 0.3622 0.17712 0.04379 0.0
C962 C 0.37115 0.15297 0.13783 0.0
C963 C 0.38493 0.15934 0.05317 0.0
C964 C 0.37401 0.15998 0.22969 0.0
C965 C 0.40836 0.1137 0.23816 0.0
N966 N 0.38896 0.1481 0.09952 0.0
N967 N 0.39631 0.121 0.19403 0.0
H968 H 0.86109 0.81933 0.54704 0.0
H969 H 0.89582 0.85497 0.7907 0.0
H970 H 0.9318 0.87431 0.50304 0.0
H971 H 0.98034 0.8645 0.72965 0.0
H972 H 0.87633 0.85572 0.70606 0.0
H973 H 0.87096 0.82942 0.63399 0.0
C974 C 0.87787 0.83462 0.5556 0.0
C975 C 0.89494 0.84682 0.51744 0.0
C976 C 0.89914 0.85775 0.71116 0.0
C977 C 0.90745 0.85752 0.61762 0.0
C978 C 0.91028 0.85769 0.75961 0.0
C979 C 0.93984 0.85956 0.76759 0.0
C980 C 0.91766 0.86001 0.67012 0.0
C981 C 0.95746 0.86279 0.72553 0.0
C982 C 0.8837 0.84023 0.60543 0.0
C983 C 0.91743 0.86528 0.53103 0.0
N984 N 0.94615 0.86292 0.67892 0.0
N985 N 0.92335 0.8696 0.57984 0.0
H986 H 0.84599 0.15031 0.4244 0.0
H987 H 0.98639 0.09693 0.29292 0.0
H988 H 0.92576 0.13591 0.49854 0.0
H989 H 0.90727 0.10585 0.21388 0.0
H990 H 0.96246 0.10745 0.36965 0.0
H991 H 0.86581 0.13126 0.34839 0.0
C992 C 0.86752 0.14286 0.42487 0.0
C993 C 0.88424 0.14473 0.46796 0.0
C994 C 0.95007 0.10679 0.33583 0.0
C995 C 0.9071 0.12304 0.38117 0.0
C996 C 0.96376 0.1006 0.29187 0.0
C997 C 0.94883 0.10032 0.24679 0.0
C998 C 0.92111 0.1133 0.33517 0.0
C999 C 0.91954 0.10545 0.24786 0.0
C1000 C 0.87884 0.13203 0.38147 0.0
C1001 C 0.91205 0.13491 0.46632 0.0
N1002 N 0.9067 0.11208 0.29121 0.0
N1003 N 0.92255 0.12469 0.42384 0.0
H1004 H 0.57782 0.13843 1.01677 0.0
H1005 H 0.57893 0.13953 0.31301 0.0
H1006 H 0.61649 0.20788 0.09412 0.0
H1007 H 0.50468 0.11103 0.23264 0.0
H1008 H 0.60137 0.155 0.23394 0.0
H1009 H 0.55943 0.11855 0.09622 0.0
C1010 C 0.58313 0.14914 0.05053 0.0
C1011 C 0.59911 0.17477 0.04853 0.0
C1012 C 0.58035 0.14494 0.23363 0.0
C1013 C 0.57808 0.1519 0.14003 0.0
C1014 C 0.56762 0.13577 0.27874 0.0
C1015 C 0.53991 0.12356 0.27974 0.0
C1016 C 0.56571 0.14121 0.18872 0.0
C1017 C 0.52611 0.12006 0.23387 0.0
C1018 C 0.57232 0.13791 0.09584 0.0
C1019 C 0.60453 0.18799 0.09371 0.0
N1020 N 0.53917 0.1286 0.19043 0.0
N1021 N 0.59427 0.17636 0.13744 0.0
H1022 H 0.59399 0.85337 0.78994 0.0
H1023 H 0.59756 0.84603 0.08762 0.0
H1024 H 0.52615 0.88362 0.87896 0.0
H1025 H 0.63647 0.78437 0.9982 0.0
H1026 H 0.58021 0.86983 1.01153 0.0
H1027 H 0.6187 0.83821 0.86614 0.0
C1028 C 0.58468 0.85762 0.82546 0.0
C1029 C 0.55796 0.86996 0.82789 0.0
C1030 C 0.59292 0.85133 1.00864 0.0
C1031 C 0.58616 0.85248 0.91542 0.0
C1032 C 0.60304 0.83786 0.05203 0.0
C1033 C 0.61854 0.81311 0.04944 0.0
C1034 C 0.59881 0.84038 0.96211 0.0
C1035 C 0.62457 0.80332 1.0021 0.0
C1036 C 0.59866 0.84865 0.86895 0.0
C1037 C 0.54671 0.87429 0.8752 0.0
N1038 N 0.61476 0.81694 0.96048 0.0
N1039 N 0.5608 0.86557 0.91694 0.0
H1040 H 0.61579 0.65157 0.77676 0.0
H1041 H 0.59554 0.64823 0.06813 0.0
H1042 H 0.57299 0.58141 0.85407 0.0
H1043 H 0.66536 0.69425 0.99601 0.0
H1044 H 0.58546 0.6242 0.9904 0.0
H1045 H 0.63299 0.66876 0.85656 0.0
C1046 C 0.61042 0.63955 0.81046 0.0
C1047 C 0.59311 0.61496 0.8088 0.0
C1048 C 0.60325 0.63926 0.99188 0.0
C1049 C 0.612 0.63486 0.90025 0.0
C1050 C 0.60904 0.65289 0.03624 0.0
C1051 C 0.63135 0.67319 0.03855 0.0
C1052 C 0.61953 0.64643 0.94936 0.0
C1053 C 0.64799 0.67867 0.99593 0.0
C1054 C 0.62018 0.64937 0.85599 0.0
C1055 C 0.5865 0.60036 0.85366 0.0
N1056 N 0.64151 0.6657 0.95299 0.0
N1057 N 0.5956 0.61072 0.89758 0.0
H1058 H 0.59371 0.30052 0.30109 0.0
H1059 H 0.58519 0.33324 1.02193 0.0
H1060 H 0.57671 0.3853 0.24907 0.0
H1061 H 0.65104 0.27971 0.07866 0.0
H1062 H 0.58094 0.35293 0.1045 0.0
H1063 H 0.61522 0.29172 0.22061 0.0
C1064 C 0.59529 0.3175 0.2733 0.0
C1065 C 0.58326 0.34355 0.28145 0.0
C1066 C 0.59678 0.33735 0.0984 0.0
C1067 C 0.60672 0.3334 0.18937 0.0
C1068 C 0.59917 0.32616 0.05142 0.0
C1069 C 0.61833 0.30477 0.04372 0.0
C1070 C 0.61312 0.32644 0.13783 0.0
C1071 C 0.63589 0.29613 0.08318 0.0
C1072 C 0.60744 0.31248 0.22741 0.0
C1073 C 0.58563 0.36484 0.24411 0.0
N1074 N 0.63241 0.30651 0.1289 0.0
N1075 N 0.5964 0.35906 0.19911 0.0
H1076 H 0.8739 0.31425 0.26932 0.0
H1077 H 0.86842 0.31154 0.56428 0.0
H1078 H 0.90833 0.38217 0.35579 0.0
H1079 H 0.82844 0.24842 0.4736 0.0
H1080 H 0.87695 0.34156 0.48948 0.0
H1081 H 0.85136 0.29335 0.34389 0.0
C1082 C 0.87635 0.32497 0.30395 0.0
C1083 C 0.8931 0.34985 0.3065 0.0
C1084 C 0.86572 0.32141 0.48613 0.0
C1085 C 0.86778 0.32583 0.39245 0.0
C1086 C 0.86057 0.30443 0.52892 0.0
C1087 C 0.8479 0.27739 0.52504 0.0
C1088 C 0.85812 0.31117 0.43939 0.0
C1089 C 0.83856 0.26901 0.47819 0.0
C1090 C 0.8635 0.31304 0.34662 0.0
C1091 C 0.89559 0.3629 0.35232 0.0
N1092 N 0.84419 0.28562 0.43727 0.0
N1093 N 0.88341 0.35053 0.39367 0.0
H1094 H 0.94119 0.63011 0.73521 0.0
H1095 H 0.97548 0.74995 0.53577 0.0
H1096 H 0.95193 0.71748 0.77249 0.0
H1097 H 0.90728 0.69022 0.50317 0.0
H1098 H 0.97757 0.73001 0.62014 0.0
H1099 H 0.9355 0.64501 0.64755 0.0
C1100 C 0.94176 0.65242 0.72513 0.0
C1101 C 0.9475 0.67267 0.76092 0.0
C1102 C 0.96243 0.72105 0.59423 0.0
C1103 C 0.94222 0.68947 0.66148 0.0
C1104 C 0.96146 0.73211 0.54593 0.0
C1105 C 0.94107 0.72176 0.51257 0.0
C1106 C 0.94323 0.69917 0.60907 0.0
C1107 C 0.92327 0.69877 0.52794 0.0
C1108 C 0.93875 0.66081 0.67524 0.0
C1109 C 0.94814 0.70123 0.74595 0.0
N1110 N 0.92467 0.68819 0.5754 0.0
N1111 N 0.94619 0.70878 0.69721 0.0
H1112 H 0.47671 0.37113 0.20994 0.0
H1113 H 0.39486 0.34805 0.99592 0.0
H1114 H 0.40146 0.34147 0.28906 0.0
H1115 H 0.36306 0.27607 0.08311 0.0
H1116 H 0.41468 0.3684 0.07166 0.0
H1117 H 0.45305 0.35963 0.13159 0.0
C1118 C 0.45495 0.36285 0.21078 0.0
C1119 C 0.44088 0.3579 0.25628 0.0
C1120 C 0.40311 0.34829 0.07425 0.0
C1121 C 0.41388 0.34376 0.16646 0.0
C1122 C 0.39142 0.33682 0.03108 0.0
C1123 C 0.37706 0.31032 0.03297 0.0
C1124 C 0.40006 0.33345 0.12004 0.0
C1125 C 0.37386 0.29656 0.07975 0.0
C1126 C 0.44145 0.35626 0.16598 0.0
C1127 C 0.41291 0.34635 0.25494 0.0
N1128 N 0.38512 0.30829 0.12129 0.0
N1129 N 0.40057 0.3392 0.211 0.0
H1130 H 0.365 0.64301 0.96739 0.0
H1131 H 0.5019 0.58171 0.83973 0.0
H1132 H 0.43758 0.61309 0.0489 0.0
H1133 H 0.42324 0.593 0.76021 0.0
H1134 H 0.47786 0.59207 0.91668 0.0
H1135 H 0.38483 0.62427 0.89143 0.0
C1136 C 0.38494 0.63222 0.96941 0.0
C1137 C 0.39965 0.62962 1.0146 0.0
C1138 C 0.46565 0.59191 0.88264 0.0
C1139 C 0.42266 0.6084 0.92772 0.0
C1140 C 0.47938 0.5859 0.83858 0.0
C1141 C 0.46456 0.58629 0.79334 0.0
C1142 C 0.43685 0.59899 0.88178 0.0
C1143 C 0.43543 0.59209 0.79426 0.0
C1144 C 0.39625 0.62153 0.92604 0.0
C1145 C 0.42547 0.61555 1.01497 0.0
N1146 N 0.42262 0.59858 0.83762 0.0
N1147 N 0.43621 0.60574 0.97228 0.0
H1148 H 0.07516 0.60419 0.51342 0.0
H1149 H 0.10093 0.61874 0.8056 0.0
H1150 H 0.13598 0.66357 0.57403 0.0
H1151 H 0.0183 0.60033 0.74265 0.0
H1152 H 0.12135 0.62055 0.72179 0.0
H1153 H 0.06193 0.58816 0.59827 0.0
C1154 C 0.08658 0.61298 0.54451 0.0
C1155 C 0.10704 0.63491 0.53671 0.0
C1156 C 0.09888 0.61542 0.72653 0.0
C1157 C 0.09183 0.61694 0.63368 0.0
C1158 C 0.08725 0.61404 0.7744 0.0
C1159 C 0.05785 0.60919 0.7813 0.0
C1160 C 0.08113 0.61135 0.68523 0.0
C1161 C 0.04108 0.604 0.73914 0.0
C1162 C 0.07875 0.60412 0.59287 0.0
C1163 C 0.12042 0.64632 0.57845 0.0
N1164 N 0.0529 0.60529 0.69301 0.0
N1165 N 0.11259 0.63726 0.62504 0.0
H1166 H 0.06746 0.37475 0.25101 0.0
H1167 H 0.07624 0.3598 0.54675 0.0
H1168 H -0.00505 0.38718 0.34423 0.0
H1169 H 0.12004 0.30411 0.45219 0.0
H1170 H 0.05458 0.38212 0.47299 0.0
H1171 H 0.095 0.36093 0.32499 0.0
C1172 C 0.05756 0.37533 0.28712 0.0
C1173 C 0.02887 0.38232 0.29142 0.0
C1174 C 0.06937 0.36538 0.46844 0.0
C1175 C 0.06034 0.36663 0.37617 0.0
C1176 C 0.08201 0.35284 0.51043 0.0
C1177 C 0.10022 0.33019 0.50567 0.0
C1178 C 0.07547 0.35568 0.42115 0.0
C1179 C 0.10628 0.3216 0.45759 0.0
C1180 C 0.07321 0.36717 0.32922 0.0
C1181 C 0.017 0.38205 0.33919 0.0
N1182 N 0.09402 0.33437 0.41726 0.0
N1183 N 0.03277 0.37443 0.37964 0.0
loop_
_geom_bond_atom_site_label_1
_geom_bond_atom_site_label_2
_geom_bond_distance
_geom_bond_site_symmetry_2
_ccdc_geom_bond_type
Dy0 O4 2.398 . S
Dy0 O5 2.491 . S
Dy0 O6 2.403 . S
Dy0 O7 2.637 1_455 S
Dy0 O11 2.326 1_455 S
Dy0 O15 2.310 . S
Dy0 O16 2.351 . S
C1 O12 1.185 . S
C1 O13 1.355 . S
C2 O4 1.185 . S
C2 O5 1.355 . S
Dy3 O7 2.336 . S
Dy3 O10 2.351 . S
Dy3 O12 2.398 1_554 S
Dy3 O13 2.491 1_554 S
Dy3 O14 2.403 . S
Dy3 O15 2.664 1_655 S
Dy3 O17 2.326 1_655 S
O4 Dy0 2.398 . S
O4 C2 1.185 . S
O5 Dy0 2.491 . S
O5 C2 1.355 . S
O6 Dy0 2.403 . S
O6 C8 1.254 . S
O7 Dy0 2.637 1_655 S
O7 Dy3 2.336 . S
O7 C8 1.252 1_655 S
C8 O6 1.254 . S
C8 O7 1.252 1_455 S
C9 O14 1.254 . S
C9 O15 1.268 1_655 S
O10 Dy3 2.351 . S
O10 C18 1.249 . S
O11 Dy0 2.326 1_655 S
O11 C18 1.267 . S
O12 C1 1.185 . S
O12 Dy3 2.398 1_556 S
O13 C1 1.355 . S
O13 Dy3 2.491 1_556 S
O14 Dy3 2.403 . S
O14 C9 1.254 . S
O15 Dy0 2.310 . S
O15 Dy3 2.664 1_455 S
O15 C9 1.268 1_455 S
O16 Dy0 2.351 . S
O16 C19 1.249 . S
O17 Dy3 2.326 1_455 S
O17 C19 1.267 . S
C18 O10 1.249 . S
C18 O11 1.267 . S
C19 O16 1.249 . S
C19 O17 1.267 . S
Dy20 O24 2.398 . S
Dy20 O25 2.491 . S
Dy20 O26 2.403 . S
Dy20 O27 2.664 . S
Dy20 O31 2.326 . S
Dy20 O35 2.310 . S
Dy20 O36 2.351 . S
C21 O32 1.185 . S
C21 O33 1.355 . S
C22 O24 1.185 . S
C22 O25 1.355 . S
Dy23 O27 2.310 . S
Dy23 O30 2.351 . S
Dy23 O32 2.398 . S
Dy23 O33 2.491 . S
Dy23 O34 2.403 . S
Dy23 O35 2.664 . S
Dy23 O37 2.326 . S
O24 Dy20 2.398 . S
O24 C22 1.185 . S
O25 Dy20 2.491 . S
O25 C22 1.355 . S
O26 Dy20 2.403 . S
O26 C28 1.254 . S
O27 Dy20 2.664 . S
O27 Dy23 2.310 . S
O27 C28 1.268 . S
C28 O26 1.254 . S
C28 O27 1.268 . S
C29 O34 1.254 . S
C29 O35 1.268 . S
O30 Dy23 2.351 . S
O30 C38 1.249 . S
O31 Dy20 2.326 . S
O31 C38 1.267 . S
O32 C21 1.185 . S
O32 Dy23 2.398 . S
O33 C21 1.355 . S
O33 Dy23 2.491 . S
O34 Dy23 2.403 . S
O34 C29 1.254 . S
O35 Dy20 2.310 . S
O35 Dy23 2.664 . S
O35 C29 1.268 . S
O36 Dy20 2.351 . S
O36 C39 1.249 . S
O37 Dy23 2.326 . S
O37 C39 1.267 . S
C38 O30 1.249 . S
C38 O31 1.267 . S
C39 O36 1.249 . S
C39 O37 1.267 . S
Dy40 O44 2.398 . S
Dy40 O45 2.491 . S
Dy40 O46 2.403 . S
Dy40 O47 2.664 . S
Dy40 O51 2.326 . S
Dy40 O55 2.310 . S
Dy40 O56 2.351 . S
C41 O52 1.185 . S
C41 O53 1.355 . S
C42 O44 1.185 . S
C42 O45 1.355 . S
Dy43 O47 2.310 . S
Dy43 O50 2.351 . S
Dy43 O52 2.398 . S
Dy43 O53 2.491 . S
Dy43 O54 2.403 . S
Dy43 O55 2.664 . S
Dy43 O57 2.326 . S
O44 Dy40 2.398 . S
O44 C42 1.185 . S
O45 Dy40 2.491 . S
O45 C42 1.355 . S
O46 Dy40 2.403 . S
O46 C48 1.254 . S
O47 Dy40 2.664 . S
O47 Dy43 2.310 . S
O47 C48 1.268 . S
C48 O46 1.254 . S
C48 O47 1.268 . S
C49 O54 1.254 . S
C49 O55 1.268 . S
O50 Dy43 2.351 . S
O50 C58 1.249 . S
O51 Dy40 2.326 . S
O51 C58 1.267 . S
O52 C41 1.185 . S
O52 Dy43 2.398 . S
O53 C41 1.355 . S
O53 Dy43 2.491 . S
O54 Dy43 2.403 . S
O54 C49 1.254 . S
O55 Dy40 2.310 . S
O55 Dy43 2.664 . S
O55 C49 1.268 . S
O56 Dy40 2.351 . S
O56 C59 1.249 . S
O57 Dy43 2.326 . S
O57 C59 1.267 . S
C58 O50 1.249 . S
C58 O51 1.267 . S
C59 O56 1.249 . S
C59 O57 1.267 . S
Dy60 O64 2.398 . S
Dy60 O65 2.491 . S
Dy60 O66 2.403 . S
Dy60 O67 2.664 . S
Dy60 O71 2.326 . S
Dy60 O75 2.310 . S
Dy60 O76 2.351 . S
C61 O72 1.185 . S
C61 O73 1.355 . S
C62 O64 1.170 1_554 S
C62 O65 1.346 1_554 S
Dy63 O67 2.310 . S
Dy63 O70 2.351 . S
Dy63 O72 2.398 . S
Dy63 O73 2.491 . S
Dy63 O74 2.403 . S
Dy63 O75 2.664 . S
Dy63 O77 2.326 . S
O64 Dy60 2.398 . S
O64 C62 1.170 1_556 S
O65 Dy60 2.491 . S
O65 C62 1.346 1_556 S
O66 Dy60 2.403 . S
O66 C68 1.254 . S
O67 Dy60 2.664 . S
O67 Dy63 2.310 . S
O67 C68 1.268 . S
C68 O66 1.254 . S
C68 O67 1.268 . S
C69 O74 1.254 . S
C69 O75 1.268 . S
O70 Dy63 2.351 . S
O70 C78 1.249 . S
O71 Dy60 2.326 . S
O71 C78 1.267 . S
O72 C61 1.185 . S
O72 Dy63 2.398 . S
O73 C61 1.355 . S
O73 Dy63 2.491 . S
O74 Dy63 2.403 . S
O74 C69 1.254 . S
O75 Dy60 2.310 . S
O75 Dy63 2.664 . S
O75 C69 1.268 . S
O76 Dy60 2.351 . S
O76 C79 1.249 . S
O77 Dy63 2.326 . S
O77 C79 1.267 . S
C78 O70 1.249 . S
C78 O71 1.267 . S
C79 O76 1.249 . S
C79 O77 1.267 . S
Dy80 O84 2.398 . S
Dy80 O85 2.491 . S
Dy80 O86 2.403 . S
Dy80 O87 2.688 . S
Dy80 O91 2.336 . S
Dy80 O95 2.310 . S
Dy80 O96 2.351 . S
C81 O92 1.185 1_554 S
C81 O93 1.355 1_554 S
C82 O84 1.185 . S
C82 O85 1.355 . S
Dy83 O87 2.289 1_655 S
Dy83 O90 2.351 . S
Dy83 O92 2.398 . S
Dy83 O93 2.491 . S
Dy83 O94 2.403 . S
Dy83 O95 2.664 1_655 S
Dy83 O97 2.326 1_655 S
O84 Dy80 2.398 . S
O84 C82 1.185 . S
O85 Dy80 2.491 . S
O85 C82 1.355 . S
O86 Dy80 2.403 . S
O86 C88 1.254 . S
O87 Dy80 2.688 . S
O87 Dy83 2.289 1_455 S
O87 C88 1.280 . S
C88 O86 1.254 . S
C88 O87 1.280 . S
C89 O94 1.254 . S
C89 O95 1.268 1_655 S
O90 Dy83 2.351 . S
O90 C98 1.249 . S
O91 Dy80 2.336 . S
O91 C98 1.256 1_455 S
O92 C81 1.185 1_556 S
O92 Dy83 2.398 . S
O93 C81 1.355 1_556 S
O93 Dy83 2.491 . S
O94 Dy83 2.403 . S
O94 C89 1.254 . S
O95 Dy80 2.310 . S
O95 Dy83 2.664 1_455 S
O95 C89 1.268 1_455 S
O96 Dy80 2.351 . S
O96 C99 1.249 . S
O97 Dy83 2.326 1_455 S
O97 C99 1.267 . S
C98 O90 1.249 . S
C98 O91 1.256 1_655 S
C99 O96 1.249 . S
C99 O97 1.267 . S
Dy100 O104 2.398 . S
Dy100 O105 2.491 . S
Dy100 O106 2.403 . S
Dy100 O107 2.664 . S
Dy100 O111 2.326 . S
Dy100 O115 2.310 . S
Dy100 O116 2.351 . S
C101 O112 1.185 . S
C101 O113 1.355 . S
C102 O104 1.185 . S
C102 O105 1.355 . S
Dy103 O107 2.310 . S
Dy103 O110 2.351 . S
Dy103 O112 2.398 . S
Dy103 O113 2.491 . S
Dy103 O114 2.403 . S
Dy103 O115 2.664 . S
Dy103 O117 2.326 . S
O104 Dy100 2.398 . S
O104 C102 1.185 . S
O105 Dy100 2.491 . S
O105 C102 1.355 . S
O106 Dy100 2.403 . S
O106 C108 1.254 . S
O107 Dy100 2.664 . S
O107 Dy103 2.310 . S
O107 C108 1.268 . S
C108 O106 1.254 . S
C108 O107 1.268 . S
C109 O114 1.254 . S
C109 O115 1.268 . S
O110 Dy103 2.351 . S
O110 C118 1.249 . S
O111 Dy100 2.326 . S
O111 C118 1.267 . S
O112 C101 1.185 . S
O112 Dy103 2.398 . S
O113 C101 1.355 . S
O113 Dy103 2.491 . S
O114 Dy103 2.403 . S
O114 C109 1.254 . S
O115 Dy100 2.310 . S
O115 Dy103 2.664 . S
O115 C109 1.268 . S
O116 Dy100 2.351 . S
O116 C119 1.249 . S
O117 Dy103 2.326 . S
O117 C119 1.267 . S
C118 O110 1.249 . S
C118 O111 1.267 . S
C119 O116 1.249 . S
C119 O117 1.267 . S
Dy120 O124 2.398 . S
Dy120 O125 2.491 . S
Dy120 O126 2.403 . S
Dy120 O127 2.664 . S
Dy120 O131 2.326 . S
Dy120 O135 2.310 . S
Dy120 O136 2.351 . S
C121 O132 1.185 . S
C121 O133 1.355 . S
C122 O124 1.185 . S
C122 O125 1.355 . S
Dy123 O127 2.310 . S
Dy123 O130 2.351 . S
Dy123 O132 2.398 . S
Dy123 O133 2.491 . S
Dy123 O134 2.403 . S
Dy123 O135 2.664 . S
Dy123 O137 2.326 . S
O124 Dy120 2.398 . S
O124 C122 1.185 . S
O125 Dy120 2.491 . S
O125 C122 1.355 . S
O126 Dy120 2.403 . S
O126 C128 1.254 . S
O127 Dy120 2.664 . S
O127 Dy123 2.310 . S
O127 C128 1.268 . S
C128 O126 1.254 . S
C128 O127 1.268 . S
C129 O134 1.254 . S
C129 O135 1.268 . S
O130 Dy123 2.351 . S
O130 C138 1.249 . S
O131 Dy120 2.326 . S
O131 C138 1.267 . S
O132 C121 1.185 . S
O132 Dy123 2.398 . S
O133 C121 1.355 . S
O133 Dy123 2.491 . S
O134 Dy123 2.403 . S
O134 C129 1.254 . S
O135 Dy120 2.310 . S
O135 Dy123 2.664 . S
O135 C129 1.268 . S
O136 Dy120 2.351 . S
O136 C139 1.249 . S
O137 Dy123 2.326 . S
O137 C139 1.267 . S
C138 O130 1.249 . S
C138 O131 1.267 . S
C139 O136 1.249 . S
C139 O137 1.267 . S
Dy140 O144 2.398 . S
Dy140 O145 2.491 . S
Dy140 O146 2.403 . S
Dy140 O147 2.664 . S
Dy140 O151 2.326 . S
Dy140 O155 2.310 . S
Dy140 O156 2.351 . S
C141 O152 1.185 . S
C141 O153 1.355 . S
C142 O144 1.185 . S
C142 O145 1.355 . S
Dy143 O147 2.310 . S
Dy143 O150 2.351 . S
Dy143 O152 2.398 . S
Dy143 O153 2.491 . S
Dy143 O154 2.403 . S
Dy143 O155 2.664 . S
Dy143 O157 2.326 . S
O144 Dy140 2.398 . S
O144 C142 1.185 . S
O145 Dy140 2.491 . S
O145 C142 1.355 . S
O146 Dy140 2.403 . S
O146 C148 1.254 . S
O147 Dy140 2.664 . S
O147 Dy143 2.310 . S
O147 C148 1.268 . S
C148 O146 1.254 . S
C148 O147 1.268 . S
C149 O154 1.254 . S
C149 O155 1.268 . S
O150 Dy143 2.351 . S
O150 C158 1.249 . S
O151 Dy140 2.326 . S
O151 C158 1.267 . S
O152 C141 1.185 . S
O152 Dy143 2.398 . S
O153 C141 1.355 . S
O153 Dy143 2.491 . S
O154 Dy143 2.403 . S
O154 C149 1.254 . S
O155 Dy140 2.310 . S
O155 Dy143 2.664 . S
O155 C149 1.268 . S
O156 Dy140 2.351 . S
O156 C159 1.249 . S
O157 Dy143 2.326 . S
O157 C159 1.267 . S
C158 O150 1.249 . S
C158 O151 1.267 . S
C159 O156 1.249 . S
C159 O157 1.267 . S
Dy160 O164 2.398 . S
Dy160 O165 2.491 . S
Dy160 O166 2.403 . S
Dy160 O167 2.664 . S
Dy160 O171 2.326 . S
Dy160 O175 2.310 . S
Dy160 O176 2.351 . S
C161 O172 1.185 . S
C161 O173 1.355 . S
C162 O164 1.185 . S
C162 O165 1.355 . S
Dy163 O167 2.310 . S
Dy163 O170 2.351 . S
Dy163 O172 2.398 . S
Dy163 O173 2.491 . S
Dy163 O174 2.403 . S
Dy163 O175 2.664 . S
Dy163 O177 2.326 . S
O164 Dy160 2.398 . S
O164 C162 1.185 . S
O165 Dy160 2.491 . S
O165 C162 1.355 . S
O166 Dy160 2.403 . S
O166 C168 1.254 . S
O167 Dy160 2.664 . S
O167 Dy163 2.310 . S
O167 C168 1.268 . S
C168 O166 1.254 . S
C168 O167 1.268 . S
C169 O174 1.254 . S
C169 O175 1.268 . S
O170 Dy163 2.351 . S
O170 C178 1.249 . S
O171 Dy160 2.326 . S
O171 C178 1.267 . S
O172 C161 1.185 . S
O172 Dy163 2.398 . S
O173 C161 1.355 . S
O173 Dy163 2.491 . S
O174 Dy163 2.403 . S
O174 C169 1.254 . S
O175 Dy160 2.310 . S
O175 Dy163 2.664 . S
O175 C169 1.268 . S
O176 Dy160 2.351 . S
O176 C179 1.249 . S
O177 Dy163 2.326 . S
O177 C179 1.267 . S
C178 O170 1.249 . S
C178 O171 1.267 . S
C179 O176 1.249 . S
C179 O177 1.267 . S
Dy180 O184 2.398 . S
Dy180 O185 2.491 . S
Dy180 O186 2.403 . S
Dy180 O187 2.664 . S
Dy180 O191 2.326 . S
Dy180 O195 2.310 . S
Dy180 O196 2.351 . S
C181 O192 1.185 . S
C181 O193 1.355 . S
C182 O184 1.185 . S
C182 O185 1.355 . S
Dy183 O187 2.310 . S
Dy183 O190 2.351 . S
Dy183 O192 2.398 . S
Dy183 O193 2.491 . S
Dy183 O194 2.403 . S
Dy183 O195 2.664 . S
Dy183 O197 2.326 . S
O184 Dy180 2.398 . S
O184 C182 1.185 . S
O185 Dy180 2.491 . S
O185 C182 1.355 . S
O186 Dy180 2.403 . S
O186 C188 1.254 . S
O187 Dy180 2.664 . S
O187 Dy183 2.310 . S
O187 C188 1.268 . S
C188 O186 1.254 . S
C188 O187 1.268 . S
C189 O194 1.254 . S
C189 O195 1.268 . S
O190 Dy183 2.351 . S
O190 C198 1.249 . S
O191 Dy180 2.326 . S
O191 C198 1.267 . S
O192 C181 1.185 . S
O192 Dy183 2.398 . S
O193 C181 1.355 . S
O193 Dy183 2.491 . S
O194 Dy183 2.403 . S
O194 C189 1.254 . S
O195 Dy180 2.310 . S
O195 Dy183 2.664 . S
O195 C189 1.268 . S
O196 Dy180 2.351 . S
O196 C199 1.249 . S
O197 Dy183 2.326 . S
O197 C199 1.267 . S
C198 O190 1.249 . S
C198 O191 1.267 . S
C199 O196 1.249 . S
C199 O197 1.267 . S
Dy200 O204 2.398 . S
Dy200 O205 2.491 . S
Dy200 O206 2.403 . S
Dy200 O207 2.664 . S
Dy200 O211 2.326 . S
Dy200 O215 2.310 . S
Dy200 O216 2.351 . S
C201 O212 1.185 . S
C201 O213 1.355 . S
C202 O204 1.185 . S
C202 O205 1.355 . S
Dy203 O207 2.310 . S
Dy203 O210 2.351 . S
Dy203 O212 2.398 . S
Dy203 O213 2.491 . S
Dy203 O214 2.403 . S
Dy203 O215 2.664 . S
Dy203 O217 2.326 . S
O204 Dy200 2.398 . S
O204 C202 1.185 . S
O205 Dy200 2.491 . S
O205 C202 1.355 . S
O206 Dy200 2.403 . S
O206 C208 1.254 . S
O207 Dy200 2.664 . S
O207 Dy203 2.310 . S
O207 C208 1.268 . S
C208 O206 1.254 . S
C208 O207 1.268 . S
C209 O214 1.254 . S
C209 O215 1.268 . S
O210 Dy203 2.351 . S
O210 C218 1.249 . S
O211 Dy200 2.326 . S
O211 C218 1.267 . S
O212 C201 1.185 . S
O212 Dy203 2.398 . S
O213 C201 1.355 . S
O213 Dy203 2.491 . S
O214 Dy203 2.403 . S
O214 C209 1.254 . S
O215 Dy200 2.310 . S
O215 Dy203 2.664 . S
O215 C209 1.268 . S
O216 Dy200 2.351 . S
O216 C219 1.249 . S
O217 Dy203 2.326 . S
O217 C219 1.267 . S
C218 O210 1.249 . S
C218 O211 1.267 . S
C219 O216 1.249 . S
C219 O217 1.267 . S
Dy220 O224 2.398 . S
Dy220 O225 2.491 . S
Dy220 O226 2.403 . S
Dy220 O227 2.664 . S
Dy220 O231 2.326 . S
Dy220 O235 2.310 . S
Dy220 O236 2.351 . S
C221 O232 1.185 . S
C221 O233 1.355 . S
C222 O224 1.185 . S
C222 O225 1.355 . S
Dy223 O227 2.310 . S
Dy223 O230 2.351 . S
Dy223 O232 2.398 . S
Dy223 O233 2.491 . S
Dy223 O234 2.403 . S
Dy223 O235 2.664 . S
Dy223 O237 2.326 . S
O224 Dy220 2.398 . S
O224 C222 1.185 . S
O225 Dy220 2.491 . S
O225 C222 1.355 . S
O226 Dy220 2.403 . S
O226 C228 1.254 . S
O227 Dy220 2.664 . S
O227 Dy223 2.310 . S
O227 C228 1.268 . S
C228 O226 1.254 . S
C228 O227 1.268 . S
C229 O234 1.254 . S
C229 O235 1.268 . S
O230 Dy223 2.351 . S
O230 C238 1.249 . S
O231 Dy220 2.326 . S
O231 C238 1.267 . S
O232 C221 1.185 . S
O232 Dy223 2.398 . S
O233 C221 1.355 . S
O233 Dy223 2.491 . S
O234 Dy223 2.403 . S
O234 C229 1.254 . S
O235 Dy220 2.310 . S
O235 Dy223 2.664 . S
O235 C229 1.268 . S
O236 Dy220 2.351 . S
O236 C239 1.249 . S
O237 Dy223 2.326 . S
O237 C239 1.267 . S
C238 O230 1.249 . S
C238 O231 1.267 . S
C239 O236 1.249 . S
C239 O237 1.267 . S
Dy240 O244 2.398 . S
Dy240 O245 2.491 . S
Dy240 O246 2.403 . S
Dy240 O247 2.664 . S
Dy240 O251 2.326 . S
Dy240 O255 2.310 . S
Dy240 O256 2.351 . S
C241 O252 1.185 . S
C241 O253 1.355 . S
C242 O244 1.185 . S
C242 O245 1.355 . S
Dy243 O247 2.310 . S
Dy243 O250 2.351 . S
Dy243 O252 2.398 . S
Dy243 O253 2.491 . S
Dy243 O254 2.403 . S
Dy243 O255 2.664 . S
Dy243 O257 2.326 . S
O244 Dy240 2.398 . S
O244 C242 1.185 . S
O245 Dy240 2.491 . S
O245 C242 1.355 . S
O246 Dy240 2.403 . S
O246 C248 1.254 . S
O247 Dy240 2.664 . S
O247 Dy243 2.310 . S
O247 C248 1.268 . S
C248 O246 1.254 . S
C248 O247 1.268 . S
C249 O254 1.254 . S
C249 O255 1.268 . S
O250 Dy243 2.351 . S
O250 C258 1.249 . S
O251 Dy240 2.326 . S
O251 C258 1.267 . S
O252 C241 1.185 . S
O252 Dy243 2.398 . S
O253 C241 1.355 . S
O253 Dy243 2.491 . S
O254 Dy243 2.403 . S
O254 C249 1.254 . S
O255 Dy240 2.310 . S
O255 Dy243 2.664 . S
O255 C249 1.268 . S
O256 Dy240 2.351 . S
O256 C259 1.249 . S
O257 Dy243 2.326 . S
O257 C259 1.267 . S
C258 O250 1.249 . S
C258 O251 1.267 . S
C259 O256 1.249 . S
C259 O257 1.267 . S
Dy260 O264 2.398 . S
Dy260 O265 2.491 . S
Dy260 O266 2.403 . S
Dy260 O267 2.664 1_655 S
Dy260 O271 2.326 1_655 S
Dy260 O275 2.321 . S
Dy260 O276 2.351 . S
C261 O272 1.185 . S
C261 O273 1.355 . S
C262 O264 1.185 . S
C262 O265 1.355 . S
Dy263 O267 2.310 . S
Dy263 O270 2.351 . S
Dy263 O272 2.398 . S
Dy263 O273 2.491 . S
Dy263 O274 2.403 . S
Dy263 O275 2.653 1_455 S
Dy263 O277 2.298 1_455 S
O264 Dy260 2.398 . S
O264 C262 1.185 . S
O265 Dy260 2.491 . S
O265 C262 1.355 . S
O266 Dy260 2.403 . S
O266 C268 1.254 . S
O267 Dy260 2.664 1_455 S
O267 Dy263 2.310 . S
O267 C268 1.268 1_455 S
C268 O266 1.254 . S
C268 O267 1.268 1_655 S
C269 O274 1.254 . S
C269 O275 1.261 1_455 S
O270 Dy263 2.351 . S
O270 C278 1.249 . S
O271 Dy260 2.326 1_455 S
O271 C278 1.267 . S
O272 C261 1.185 . S
O272 Dy263 2.398 . S
O273 C261 1.355 . S
O273 Dy263 2.491 . S
O274 Dy263 2.403 . S
O274 C269 1.254 . S
O275 Dy260 2.321 . S
O275 Dy263 2.653 1_655 S
O275 C269 1.261 1_655 S
O276 Dy260 2.351 . S
O276 C279 1.249 . S
O277 Dy263 2.298 1_655 S
O277 C279 1.301 . S
C278 O270 1.249 . S
C278 O271 1.267 . S
C279 O276 1.249 . S
C279 O277 1.301 . S
Dy280 O284 2.398 . S
Dy280 O285 2.491 . S
Dy280 O286 2.403 . S
Dy280 O287 2.664 . S
Dy280 O291 2.326 . S
Dy280 O295 2.310 . S
Dy280 O296 2.351 . S
C281 O292 1.185 . S
C281 O293 1.355 . S
C282 O284 1.185 . S
C282 O285 1.355 . S
Dy283 O287 2.310 . S
Dy283 O290 2.351 . S
Dy283 O292 2.398 . S
Dy283 O293 2.491 . S
Dy283 O294 2.403 . S
Dy283 O295 2.664 . S
Dy283 O297 2.326 . S
O284 Dy280 2.398 . S
O284 C282 1.185 . S
O285 Dy280 2.491 . S
O285 C282 1.355 . S
O286 Dy280 2.403 . S
O286 C288 1.254 . S
O287 Dy280 2.664 . S
O287 Dy283 2.310 . S
O287 C288 1.268 . S
C288 O286 1.254 . S
C288 O287 1.268 . S
C289 O294 1.254 . S
C289 O295 1.268 . S
O290 Dy283 2.351 . S
O290 C298 1.249 . S
O291 Dy280 2.326 . S
O291 C298 1.267 . S
O292 C281 1.185 . S
O292 Dy283 2.398 . S
O293 C281 1.355 . S
O293 Dy283 2.491 . S
O294 Dy283 2.403 . S
O294 C289 1.254 . S
O295 Dy280 2.310 . S
O295 Dy283 2.664 . S
O295 C289 1.268 . S
O296 Dy280 2.351 . S
O296 C299 1.249 . S
O297 Dy283 2.326 . S
O297 C299 1.267 . S
C298 O290 1.249 . S
C298 O291 1.267 . S
C299 O296 1.249 . S
C299 O297 1.267 . S
Dy300 O304 2.398 . S
Dy300 O305 2.491 . S
Dy300 O306 2.403 . S
Dy300 O307 2.664 1_655 S
Dy300 O311 2.326 1_655 S
Dy300 O315 2.319 . S
Dy300 O316 2.351 . S
C301 O312 1.185 1_554 S
C301 O313 1.355 . S
C302 O304 1.185 . S
C302 O305 1.355 . S
Dy303 O307 2.310 . S
Dy303 O310 2.351 . S
Dy303 O312 2.398 . S
Dy303 O313 2.491 1_556 S
Dy303 O314 2.403 . S
Dy303 O315 2.653 1_455 S
Dy303 O317 2.295 1_455 S
O304 Dy300 2.398 . S
O304 C302 1.185 . S
O305 Dy300 2.491 . S
O305 C302 1.355 . S
O306 Dy300 2.403 . S
O306 C308 1.254 . S
O307 Dy300 2.664 1_455 S
O307 Dy303 2.310 . S
O307 C308 1.268 1_455 S
C308 O306 1.254 . S
C308 O307 1.268 1_655 S
C309 O314 1.254 . S
C309 O315 1.262 1_455 S
O310 Dy303 2.351 . S
O310 C318 1.249 . S
O311 Dy300 2.326 1_455 S
O311 C318 1.267 . S
O312 C301 1.185 1_556 S
O312 Dy303 2.398 . S
O313 C301 1.355 . S
O313 Dy303 2.491 1_554 S
O314 Dy303 2.403 . S
O314 C309 1.254 . S
O315 Dy300 2.319 . S
O315 Dy303 2.653 1_655 S
O315 C309 1.262 1_655 S
O316 Dy300 2.351 . S
O316 C319 1.249 . S
O317 Dy303 2.295 1_655 S
O317 C319 1.302 . S
C318 O310 1.249 . S
C318 O311 1.267 . S
C319 O316 1.249 . S
C319 O317 1.302 . S
H320 C326 0.930 . S
H321 C330 0.930 . S
H322 C335 0.929 . S
H323 C333 0.929 . S
H324 C328 0.929 . S
H325 C334 0.929 . S
C326 H320 0.930 . S
C326 C327 1.367 . S
C326 C334 1.378 . S
C327 C326 1.367 . S
C327 C335 1.433 . S
C328 H324 0.929 . S
C328 C330 1.378 . S
C328 C332 1.350 . S
C329 C332 1.463 . S
C329 C334 1.350 . S
C329 N337 1.427 . S
C330 H321 0.930 . S
C330 C328 1.378 . S
C330 C331 1.367 . S
C331 C330 1.367 . S
C331 C333 1.433 . S
C332 C328 1.350 . S
C332 C329 1.463 . S
C332 N336 1.427 . S
C333 H323 0.929 . S
C333 C331 1.433 . S
C333 N336 1.384 . S
C334 H325 0.929 . S
C334 C326 1.378 . S
C334 C329 1.350 . S
C335 H322 0.929 . S
C335 C327 1.433 . S
C335 N337 1.384 . S
N336 C332 1.427 . S
N336 C333 1.384 . S
N337 C329 1.427 . S
N337 C335 1.384 . S
H338 C344 0.930 . S
H339 C348 0.915 1_556 S
H340 C353 0.929 . S
H341 C351 0.929 . S
H342 C346 0.929 . S
H343 C352 0.929 . S
C344 H338 0.930 . S
C344 C345 1.367 . S
C344 C352 1.378 . S
C345 C344 1.367 . S
C345 C353 1.433 . S
C346 H342 0.929 . S
C346 C348 1.378 . S
C346 C350 1.350 . S
C347 C350 1.463 . S
C347 C352 1.350 . S
C347 N355 1.427 . S
C348 H339 0.915 1_554 S
C348 C346 1.378 . S
C348 C349 1.367 . S
C349 C348 1.367 . S
C349 C351 1.433 . S
C350 C346 1.350 . S
C350 C347 1.463 . S
C350 N354 1.427 . S
C351 H341 0.929 . S
C351 C349 1.433 . S
C351 N354 1.384 . S
C352 H343 0.929 . S
C352 C344 1.378 . S
C352 C347 1.350 . S
C353 H340 0.929 . S
C353 C345 1.433 . S
C353 N355 1.384 . S
N354 C350 1.427 . S
N354 C351 1.384 . S
N355 C347 1.427 . S
N355 C353 1.384 . S
H356 C362 0.930 . S
H357 C366 0.930 . S
H358 C371 0.929 . S
H359 C369 0.929 . S
H360 C364 0.929 . S
H361 C370 0.929 . S
C362 H356 0.930 . S
C362 C363 1.367 . S
C362 C370 1.378 . S
C363 C362 1.367 . S
C363 C371 1.433 . S
C364 H360 0.929 . S
C364 C366 1.378 . S
C364 C368 1.350 . S
C365 C368 1.463 . S
C365 C370 1.350 . S
C365 N373 1.427 . S
C366 H357 0.930 . S
C366 C364 1.378 . S
C366 C367 1.367 . S
C367 C366 1.367 . S
C367 C369 1.433 . S
C368 C364 1.350 . S
C368 C365 1.463 . S
C368 N372 1.427 . S
C369 H359 0.929 . S
C369 C367 1.433 . S
C369 N372 1.384 . S
C370 H361 0.929 . S
C370 C362 1.378 . S
C370 C365 1.350 . S
C371 H358 0.929 . S
C371 C363 1.433 . S
C371 N373 1.384 . S
N372 C368 1.427 . S
N372 C369 1.384 . S
N373 C365 1.427 . S
N373 C371 1.384 . S
H374 C380 0.930 . S
H375 C384 0.930 . S
H376 C389 0.929 . S
H377 C387 0.929 . S
H378 C382 0.929 . S
H379 C388 0.929 . S
C380 H374 0.930 . S
C380 C381 1.367 . S
C380 C388 1.378 . S
C381 C380 1.367 . S
C381 C389 1.433 . S
C382 H378 0.929 . S
C382 C384 1.378 . S
C382 C386 1.350 . S
C383 C386 1.463 . S
C383 C388 1.350 . S
C383 N391 1.427 . S
C384 H375 0.930 . S
C384 C382 1.378 . S
C384 C385 1.367 . S
C385 C384 1.367 . S
C385 C387 1.433 . S
C386 C382 1.350 . S
C386 C383 1.463 . S
C386 N390 1.427 . S
C387 H377 0.929 . S
C387 C385 1.433 . S
C387 N390 1.384 . S
C388 H379 0.929 . S
C388 C380 1.378 . S
C388 C383 1.350 . S
C389 H376 0.929 . S
C389 C381 1.433 . S
C389 N391 1.384 . S
N390 C386 1.427 . S
N390 C387 1.384 . S
N391 C383 1.427 . S
N391 C389 1.384 . S
H392 C398 0.930 . S
H393 C402 0.930 . S
H394 C407 0.929 . S
H395 C405 0.929 . S
H396 C400 0.929 . S
H397 C406 0.929 . S
C398 H392 0.930 . S
C398 C399 1.367 . S
C398 C406 1.378 . S
C399 C398 1.367 . S
C399 C407 1.433 . S
C400 H396 0.929 . S
C400 C402 1.378 . S
C400 C404 1.350 . S
C401 C404 1.463 . S
C401 C406 1.350 . S
C401 N409 1.427 . S
C402 H393 0.930 . S
C402 C400 1.378 . S
C402 C403 1.367 . S
C403 C402 1.367 . S
C403 C405 1.433 . S
C404 C400 1.350 . S
C404 C401 1.463 . S
C404 N408 1.427 . S
C405 H395 0.929 . S
C405 C403 1.433 . S
C405 N408 1.384 . S
C406 H397 0.929 . S
C406 C398 1.378 . S
C406 C401 1.350 . S
C407 H394 0.929 . S
C407 C399 1.433 . S
C407 N409 1.384 . S
N408 C404 1.427 . S
N408 C405 1.384 . S
N409 C401 1.427 . S
N409 C407 1.384 . S
H410 C416 0.930 . S
H411 C420 0.930 . S
H412 C425 0.929 . S
H413 C423 0.929 . S
H414 C418 0.929 . S
H415 C424 0.929 . S
C416 H410 0.930 . S
C416 C417 1.367 . S
C416 C424 1.378 . S
C417 C416 1.367 . S
C417 C425 1.433 . S
C418 H414 0.929 . S
C418 C420 1.378 . S
C418 C422 1.350 . S
C419 C422 1.463 . S
C419 C424 1.350 . S
C419 N427 1.427 . S
C420 H411 0.930 . S
C420 C418 1.378 . S
C420 C421 1.367 . S
C421 C420 1.367 . S
C421 C423 1.433 . S
C422 C418 1.350 . S
C422 C419 1.463 . S
C422 N426 1.427 . S
C423 H413 0.929 . S
C423 C421 1.433 . S
C423 N426 1.384 . S
C424 H415 0.929 . S
C424 C416 1.378 . S
C424 C419 1.350 . S
C425 H412 0.929 . S
C425 C417 1.433 . S
C425 N427 1.384 . S
N426 C422 1.427 . S
N426 C423 1.384 . S
N427 C419 1.427 . S
N427 C425 1.384 . S
H428 C434 0.930 . S
H429 C438 0.930 . S
H430 C443 0.929 . S
H431 C441 0.929 . S
H432 C436 0.929 . S
H433 C442 0.929 . S
C434 H428 0.930 . S
C434 C435 1.367 . S
C434 C442 1.378 . S
C435 C434 1.367 . S
C435 C443 1.433 . S
C436 H432 0.929 . S
C436 C438 1.378 . S
C436 C440 1.350 . S
C437 C440 1.463 . S
C437 C442 1.350 . S
C437 N445 1.427 . S
C438 H429 0.930 . S
C438 C436 1.378 . S
C438 C439 1.367 . S
C439 C438 1.367 . S
C439 C441 1.433 . S
C440 C436 1.350 . S
C440 C437 1.463 . S
C440 N444 1.427 . S
C441 H431 0.929 . S
C441 C439 1.433 . S
C441 N444 1.384 . S
C442 H433 0.929 . S
C442 C434 1.378 . S
C442 C437 1.350 . S
C443 H430 0.929 . S
C443 C435 1.433 . S
C443 N445 1.384 . S
N444 C440 1.427 . S
N444 C441 1.384 . S
N445 C437 1.427 . S
N445 C443 1.384 . S
H446 C452 0.930 . S
H447 C456 0.930 . S
H448 C461 0.929 . S
H449 C459 0.929 . S
H450 C454 0.929 . S
H451 C460 0.929 . S
C452 H446 0.930 . S
C452 C453 1.367 . S
C452 C460 1.378 . S
C453 C452 1.367 . S
C453 C461 1.433 . S
C454 H450 0.929 . S
C454 C456 1.378 . S
C454 C458 1.350 . S
C455 C458 1.463 . S
C455 C460 1.350 . S
C455 N463 1.427 . S
C456 H447 0.930 . S
C456 C454 1.378 . S
C456 C457 1.367 . S
C457 C456 1.367 . S
C457 C459 1.433 . S
C458 C454 1.350 . S
C458 C455 1.463 . S
C458 N462 1.427 . S
C459 H449 0.929 . S
C459 C457 1.433 . S
C459 N462 1.384 . S
C460 H451 0.929 . S
C460 C452 1.378 . S
C460 C455 1.350 . S
C461 H448 0.929 . S
C461 C453 1.433 . S
C461 N463 1.384 . S
N462 C458 1.427 . S
N462 C459 1.384 . S
N463 C455 1.427 . S
N463 C461 1.384 . S
H464 C470 0.930 . S
H465 C474 0.930 . S
H466 C479 0.929 . S
H467 C477 0.929 . S
H468 C472 0.929 . S
H469 C478 0.929 . S
C470 H464 0.930 . S
C470 C471 1.367 . S
C470 C478 1.378 . S
C471 C470 1.367 . S
C471 C479 1.433 . S
C472 H468 0.929 . S
C472 C474 1.378 . S
C472 C476 1.350 . S
C473 C476 1.463 . S
C473 C478 1.350 . S
C473 N481 1.427 . S
C474 H465 0.930 . S
C474 C472 1.378 . S
C474 C475 1.367 . S
C475 C474 1.367 . S
C475 C477 1.433 . S
C476 C472 1.350 . S
C476 C473 1.463 . S
C476 N480 1.427 . S
C477 H467 0.929 . S
C477 C475 1.433 . S
C477 N480 1.384 . S
C478 H469 0.929 . S
C478 C470 1.378 . S
C478 C473 1.350 . S
C479 H466 0.929 . S
C479 C471 1.433 . S
C479 N481 1.384 . S
N480 C476 1.427 . S
N480 C477 1.384 . S
N481 C473 1.427 . S
N481 C479 1.384 . S
H482 C488 0.930 . S
H483 C492 0.930 . S
H484 C497 0.929 . S
H485 C495 0.929 . S
H486 C490 0.929 . S
H487 C496 0.929 . S
C488 H482 0.930 . S
C488 C489 1.367 . S
C488 C496 1.378 . S
C489 C488 1.367 . S
C489 C497 1.433 . S
C490 H486 0.929 . S
C490 C492 1.378 . S
C490 C494 1.350 . S
C491 C494 1.463 . S
C491 C496 1.350 . S
C491 N499 1.427 . S
C492 H483 0.930 . S
C492 C490 1.378 . S
C492 C493 1.367 . S
C493 C492 1.367 . S
C493 C495 1.433 . S
C494 C490 1.350 . S
C494 C491 1.463 . S
C494 N498 1.427 . S
C495 H485 0.929 . S
C495 C493 1.433 . S
C495 N498 1.384 . S
C496 H487 0.929 . S
C496 C488 1.378 . S
C496 C491 1.350 . S
C497 H484 0.929 . S
C497 C489 1.433 . S
C497 N499 1.384 . S
N498 C494 1.427 . S
N498 C495 1.384 . S
N499 C491 1.427 . S
N499 C497 1.384 . S
H500 C506 0.930 . S
H501 C510 0.930 . S
H502 C515 0.929 . S
H503 C513 0.929 . S
H504 C508 0.929 . S
H505 C514 0.929 . S
C506 H500 0.930 . S
C506 C507 1.367 . S
C506 C514 1.378 1_554 S
C507 C506 1.367 . S
C507 C515 1.433 1_554 S
C508 H504 0.929 . S
C508 C510 1.378 . S
C508 C512 1.350 . S
C509 C512 1.463 . S
C509 C514 1.350 . S
C509 N517 1.427 . S
C510 H501 0.930 . S
C510 C508 1.378 . S
C510 C511 1.367 . S
C511 C510 1.367 . S
C511 C513 1.433 . S
C512 C508 1.350 . S
C512 C509 1.463 . S
C512 N516 1.427 . S
C513 H503 0.929 . S
C513 C511 1.433 . S
C513 N516 1.384 . S
C514 H505 0.929 . S
C514 C506 1.378 1_556 S
C514 C509 1.350 . S
C515 H502 0.929 . S
C515 C507 1.433 1_556 S
C515 N517 1.384 . S
N516 C512 1.427 . S
N516 C513 1.384 . S
N517 C509 1.427 . S
N517 C515 1.384 . S
H518 C524 0.930 . S
H519 C528 0.930 . S
H520 C533 0.929 . S
H521 C531 0.929 . S
H522 C526 0.929 . S
H523 C532 0.929 . S
C524 H518 0.930 . S
C524 C525 1.367 . S
C524 C532 1.378 . S
C525 C524 1.367 . S
C525 C533 1.433 . S
C526 H522 0.929 . S
C526 C528 1.378 . S
C526 C530 1.350 . S
C527 C530 1.463 . S
C527 C532 1.350 . S
C527 N535 1.427 . S
C528 H519 0.930 . S
C528 C526 1.378 . S
C528 C529 1.367 . S
C529 C528 1.367 . S
C529 C531 1.433 . S
C530 C526 1.350 . S
C530 C527 1.463 . S
C530 N534 1.427 . S
C531 H521 0.929 . S
C531 C529 1.433 . S
C531 N534 1.384 . S
C532 H523 0.929 . S
C532 C524 1.378 . S
C532 C527 1.350 . S
C533 H520 0.929 . S
C533 C525 1.433 . S
C533 N535 1.384 . S
N534 C530 1.427 . S
N534 C531 1.384 . S
N535 C527 1.427 . S
N535 C533 1.384 . S
H536 C542 0.930 . S
H537 C546 0.930 . S
H538 C551 0.929 . S
H539 C549 0.929 . S
H540 C544 0.929 . S
H541 C550 0.929 . S
C542 H536 0.930 . S
C542 C543 1.367 . S
C542 C550 1.378 . S
C543 C542 1.367 . S
C543 C551 1.433 . S
C544 H540 0.929 . S
C544 C546 1.378 . S
C544 C548 1.350 . S
C545 C548 1.463 . S
C545 C550 1.350 . S
C545 N553 1.427 . S
C546 H537 0.930 . S
C546 C544 1.378 . S
C546 C547 1.367 . S
C547 C546 1.367 . S
C547 C549 1.433 . S
C548 C544 1.350 . S
C548 C545 1.463 . S
C548 N552 1.427 . S
C549 H539 0.929 . S
C549 C547 1.433 . S
C549 N552 1.384 . S
C550 H541 0.929 . S
C550 C542 1.378 . S
C550 C545 1.350 . S
C551 H538 0.929 . S
C551 C543 1.433 . S
C551 N553 1.384 . S
N552 C548 1.427 . S
N552 C549 1.384 . S
N553 C545 1.427 . S
N553 C551 1.384 . S
H554 C560 0.930 . S
H555 C564 0.930 . S
H556 C569 0.929 . S
H557 C567 0.929 . S
H558 C562 0.929 . S
H559 C568 0.929 . S
C560 H554 0.930 . S
C560 C561 1.367 . S
C560 C568 1.378 . S
C561 C560 1.367 . S
C561 C569 1.433 . S
C562 H558 0.929 . S
C562 C564 1.378 . S
C562 C566 1.350 . S
C563 C566 1.463 . S
C563 C568 1.350 . S
C563 N571 1.427 . S
C564 H555 0.930 . S
C564 C562 1.378 . S
C564 C565 1.367 . S
C565 C564 1.367 . S
C565 C567 1.433 . S
C566 C562 1.350 . S
C566 C563 1.463 . S
C566 N570 1.427 . S
C567 H557 0.929 . S
C567 C565 1.433 . S
C567 N570 1.384 . S
C568 H559 0.929 . S
C568 C560 1.378 . S
C568 C563 1.350 . S
C569 H556 0.929 . S
C569 C561 1.433 . S
C569 N571 1.384 . S
N570 C566 1.427 . S
N570 C567 1.384 . S
N571 C563 1.427 . S
N571 C569 1.384 . S
H572 C578 0.930 . S
H573 C582 0.930 . S
H574 C587 0.929 . S
H575 C585 0.929 . S
H576 C580 0.929 . S
H577 C586 0.929 . S
C578 H572 0.930 . S
C578 C579 1.367 . S
C578 C586 1.378 . S
C579 C578 1.367 . S
C579 C587 1.433 . S
C580 H576 0.929 . S
C580 C582 1.378 . S
C580 C584 1.350 . S
C581 C584 1.463 . S
C581 C586 1.350 . S
C581 N589 1.427 . S
C582 H573 0.930 . S
C582 C580 1.378 . S
C582 C583 1.367 . S
C583 C582 1.367 . S
C583 C585 1.433 . S
C584 C580 1.350 . S
C584 C581 1.463 . S
C584 N588 1.427 . S
C585 H575 0.929 . S
C585 C583 1.433 . S
C585 N588 1.384 . S
C586 H577 0.929 . S
C586 C578 1.378 . S
C586 C581 1.350 . S
C587 H574 0.929 . S
C587 C579 1.433 . S
C587 N589 1.384 . S
N588 C584 1.427 . S
N588 C585 1.384 . S
N589 C581 1.427 . S
N589 C587 1.384 . S
H590 C596 0.930 . S
H591 C600 0.930 . S
H592 C605 0.929 . S
H593 C603 0.929 . S
H594 C598 0.929 . S
H595 C604 0.929 . S
C596 H590 0.930 . S
C596 C597 1.367 . S
C596 C604 1.378 . S
C597 C596 1.367 . S
C597 C605 1.433 . S
C598 H594 0.929 . S
C598 C600 1.378 . S
C598 C602 1.350 . S
C599 C602 1.463 . S
C599 C604 1.350 . S
C599 N607 1.427 . S
C600 H591 0.930 . S
C600 C598 1.378 . S
C600 C601 1.367 . S
C601 C600 1.367 . S
C601 C603 1.433 . S
C602 C598 1.350 . S
C602 C599 1.463 . S
C602 N606 1.427 . S
C603 H593 0.929 . S
C603 C601 1.433 . S
C603 N606 1.384 . S
C604 H595 0.929 . S
C604 C596 1.378 . S
C604 C599 1.350 . S
C605 H592 0.929 . S
C605 C597 1.433 . S
C605 N607 1.384 . S
N606 C602 1.427 . S
N606 C603 1.384 . S
N607 C599 1.427 . S
N607 C605 1.384 . S
H608 C614 0.930 . S
H609 C618 0.930 . S
H610 C623 0.929 . S
H611 C621 0.929 . S
H612 C616 0.929 . S
H613 C622 0.929 . S
C614 H608 0.930 . S
C614 C615 1.367 1_655 S
C614 C622 1.378 . S
C615 C614 1.367 1_455 S
C615 C623 1.433 . S
C616 H612 0.929 . S
C616 C618 1.378 . S
C616 C620 1.350 . S
C617 C620 1.463 . S
C617 C622 1.350 1_455 S
C617 N625 1.427 . S
C618 H609 0.930 . S
C618 C616 1.378 . S
C618 C619 1.367 . S
C619 C618 1.367 . S
C619 C621 1.433 1_455 S
C620 C616 1.350 . S
C620 C617 1.463 . S
C620 N624 1.427 1_455 S
C621 H611 0.929 . S
C621 C619 1.433 1_655 S
C621 N624 1.384 . S
C622 H613 0.929 . S
C622 C614 1.378 . S
C622 C617 1.350 1_655 S
C623 H610 0.929 . S
C623 C615 1.433 . S
C623 N625 1.384 . S
N624 C620 1.427 1_655 S
N624 C621 1.384 . S
N625 C617 1.427 . S
N625 C623 1.384 . S
H626 C632 0.930 . S
H627 C636 0.930 . S
H628 C641 0.929 . S
H629 C639 0.929 . S
H630 C634 0.929 . S
H631 C640 0.929 . S
C632 H626 0.930 . S
C632 C633 1.367 . S
C632 C640 1.378 . S
C633 C632 1.367 . S
C633 C641 1.433 . S
C634 H630 0.929 . S
C634 C636 1.378 . S
C634 C638 1.350 . S
C635 C638 1.463 1_655 S
C635 C640 1.350 . S
C635 N643 1.427 . S
C636 H627 0.930 . S
C636 C634 1.378 . S
C636 C637 1.367 . S
C637 C636 1.367 . S
C637 C639 1.433 . S
C638 C634 1.350 . S
C638 C635 1.463 1_455 S
C638 N642 1.427 . S
C639 H629 0.929 . S
C639 C637 1.433 . S
C639 N642 1.384 . S
C640 H631 0.929 . S
C640 C632 1.378 . S
C640 C635 1.350 . S
C641 H628 0.929 . S
C641 C633 1.433 . S
C641 N643 1.384 . S
N642 C638 1.427 . S
N642 C639 1.384 . S
N643 C635 1.427 . S
N643 C641 1.384 . S
H644 C650 0.930 . S
H645 C654 0.930 . S
H646 C659 0.929 . S
H647 C657 0.929 . S
H648 C652 0.929 . S
H649 C658 0.929 . S
C650 H644 0.930 . S
C650 C651 1.367 . S
C650 C658 1.378 . S
C651 C650 1.367 . S
C651 C659 1.433 . S
C652 H648 0.929 . S
C652 C654 1.378 . S
C652 C656 1.350 . S
C653 C656 1.463 . S
C653 C658 1.350 . S
C653 N661 1.427 . S
C654 H645 0.930 . S
C654 C652 1.378 . S
C654 C655 1.367 . S
C655 C654 1.367 . S
C655 C657 1.433 . S
C656 C652 1.350 . S
C656 C653 1.463 . S
C656 N660 1.427 . S
C657 H647 0.929 . S
C657 C655 1.433 . S
C657 N660 1.384 . S
C658 H649 0.929 . S
C658 C650 1.378 . S
C658 C653 1.350 . S
C659 H646 0.929 . S
C659 C651 1.433 . S
C659 N661 1.384 . S
N660 C656 1.427 . S
N660 C657 1.384 . S
N661 C653 1.427 . S
N661 C659 1.384 . S
H662 C668 0.930 . S
H663 C672 0.930 . S
H664 C677 0.929 . S
H665 C675 0.929 . S
H666 C670 0.929 . S
H667 C676 0.929 . S
C668 H662 0.930 . S
C668 C669 1.367 . S
C668 C676 1.378 . S
C669 C668 1.367 . S
C669 C677 1.433 . S
C670 H666 0.929 . S
C670 C672 1.378 . S
C670 C674 1.350 . S
C671 C674 1.463 . S
C671 C676 1.350 . S
C671 N679 1.427 . S
C672 H663 0.930 . S
C672 C670 1.378 . S
C672 C673 1.367 . S
C673 C672 1.367 . S
C673 C675 1.433 . S
C674 C670 1.350 . S
C674 C671 1.463 . S
C674 N678 1.427 . S
C675 H665 0.929 . S
C675 C673 1.433 . S
C675 N678 1.384 . S
C676 H667 0.929 . S
C676 C668 1.378 . S
C676 C671 1.350 . S
C677 H664 0.929 . S
C677 C669 1.433 . S
C677 N679 1.384 . S
N678 C674 1.427 . S
N678 C675 1.384 . S
N679 C671 1.427 . S
N679 C677 1.384 . S
H680 C686 0.930 . S
H681 C690 0.930 . S
H682 C695 0.929 . S
H683 C693 0.929 . S
H684 C688 0.929 . S
H685 C694 0.929 . S
C686 H680 0.930 . S
C686 C687 1.367 . S
C686 C694 1.378 . S
C687 C686 1.367 . S
C687 C695 1.433 1_455 S
C688 H684 0.929 . S
C688 C690 1.378 . S
C688 C692 1.350 1_655 S
C689 C692 1.463 . S
C689 C694 1.350 . S
C689 N697 1.427 1_455 S
C690 H681 0.930 . S
C690 C688 1.378 . S
C690 C691 1.367 1_655 S
C691 C690 1.367 1_455 S
C691 C693 1.433 . S
C692 C688 1.350 1_455 S
C692 C689 1.463 . S
C692 N696 1.427 . S
C693 H683 0.929 . S
C693 C691 1.433 . S
C693 N696 1.384 . S
C694 H685 0.929 . S
C694 C686 1.378 . S
C694 C689 1.350 . S
C695 H682 0.929 . S
C695 C687 1.433 1_655 S
C695 N697 1.384 . S
N696 C692 1.427 . S
N696 C693 1.384 . S
N697 C689 1.427 1_655 S
N697 C695 1.384 . S
H698 C704 0.930 . S
H699 C708 0.930 . S
H700 C713 0.929 . S
H701 C711 0.929 . S
H702 C706 0.929 . S
H703 C712 0.929 . S
C704 H698 0.930 . S
C704 C705 1.367 . S
C704 C712 1.378 . S
C705 C704 1.367 . S
C705 C713 1.433 . S
C706 H702 0.929 . S
C706 C708 1.378 . S
C706 C710 1.350 . S
C707 C710 1.463 . S
C707 C712 1.350 . S
C707 N715 1.427 . S
C708 H699 0.930 . S
C708 C706 1.378 . S
C708 C709 1.367 . S
C709 C708 1.367 . S
C709 C711 1.433 . S
C710 C706 1.350 . S
C710 C707 1.463 . S
C710 N714 1.427 . S
C711 H701 0.929 . S
C711 C709 1.433 . S
C711 N714 1.384 . S
C712 H703 0.929 . S
C712 C704 1.378 . S
C712 C707 1.350 . S
C713 H700 0.929 . S
C713 C705 1.433 . S
C713 N715 1.384 . S
N714 C710 1.427 . S
N714 C711 1.384 . S
N715 C707 1.427 . S
N715 C713 1.384 . S
H716 C722 0.930 . S
H717 C726 0.930 . S
H718 C731 0.929 . S
H719 C729 0.929 . S
H720 C724 0.929 . S
H721 C730 0.929 . S
C722 H716 0.930 . S
C722 C723 1.367 . S
C722 C730 1.378 . S
C723 C722 1.367 . S
C723 C731 1.433 . S
C724 H720 0.929 . S
C724 C726 1.378 . S
C724 C728 1.350 . S
C725 C728 1.463 . S
C725 C730 1.350 . S
C725 N733 1.427 . S
C726 H717 0.930 . S
C726 C724 1.378 . S
C726 C727 1.367 . S
C727 C726 1.367 . S
C727 C729 1.433 . S
C728 C724 1.350 . S
C728 C725 1.463 . S
C728 N732 1.427 . S
C729 H719 0.929 . S
C729 C727 1.433 . S
C729 N732 1.384 . S
C730 H721 0.929 . S
C730 C722 1.378 . S
C730 C725 1.350 . S
C731 H718 0.929 . S
C731 C723 1.433 . S
C731 N733 1.384 . S
N732 C728 1.427 . S
N732 C729 1.384 . S
N733 C725 1.427 . S
N733 C731 1.384 . S
H734 C740 0.930 . S
H735 C744 0.930 . S
H736 C749 0.929 . S
H737 C747 0.929 . S
H738 C742 0.929 . S
H739 C748 0.929 . S
C740 H734 0.930 . S
C740 C741 1.367 . S
C740 C748 1.378 . S
C741 C740 1.367 . S
C741 C749 1.433 . S
C742 H738 0.929 . S
C742 C744 1.378 . S
C742 C746 1.350 . S
C743 C746 1.463 1_455 S
C743 C748 1.350 . S
C743 N751 1.427 . S
C744 H735 0.930 . S
C744 C742 1.378 . S
C744 C745 1.367 . S
C745 C744 1.367 . S
C745 C747 1.433 . S
C746 C742 1.350 . S
C746 C743 1.463 1_655 S
C746 N750 1.427 . S
C747 H737 0.929 . S
C747 C745 1.433 . S
C747 N750 1.384 . S
C748 H739 0.929 . S
C748 C740 1.378 . S
C748 C743 1.350 . S
C749 H736 0.929 . S
C749 C741 1.433 . S
C749 N751 1.384 . S
N750 C746 1.427 . S
N750 C747 1.384 . S
N751 C743 1.427 . S
N751 C749 1.384 . S
H752 C758 0.930 . S
H753 C762 0.930 . S
H754 C767 0.929 . S
H755 C765 0.929 . S
H756 C760 0.929 . S
H757 C766 0.929 1_556 S
C758 H752 0.930 . S
C758 C759 1.367 . S
C758 C766 1.378 . S
C759 C758 1.367 . S
C759 C767 1.433 1_455 S
C760 H756 0.929 . S
C760 C762 1.378 . S
C760 C764 1.350 1_655 S
C761 C764 1.463 1_544 S
C761 C766 1.350 . S
C761 N769 1.427 1_455 S
C762 H753 0.930 . S
C762 C760 1.378 . S
C762 C763 1.367 1_655 S
C763 C762 1.367 1_455 S
C763 C765 1.433 . S
C764 C760 1.350 1_455 S
C764 C761 1.463 1_566 S
C764 N768 1.427 . S
C765 H755 0.929 . S
C765 C763 1.433 . S
C765 N768 1.384 . S
C766 H757 0.929 1_554 S
C766 C758 1.378 . S
C766 C761 1.350 . S
C767 H754 0.929 . S
C767 C759 1.433 1_655 S
C767 N769 1.384 . S
N768 C764 1.427 . S
N768 C765 1.384 . S
N769 C761 1.427 1_655 S
N769 C767 1.384 . S
H770 C776 0.930 . S
H771 C780 0.930 . S
H772 C785 0.929 . S
H773 C783 0.929 . S
H774 C778 0.929 . S
H775 C784 0.929 . S
C776 H770 0.930 . S
C776 C777 1.367 . S
C776 C784 1.378 . S
C777 C776 1.367 . S
C777 C785 1.433 . S
C778 H774 0.929 . S
C778 C780 1.378 . S
C778 C782 1.350 . S
C779 C782 1.463 . S
C779 C784 1.350 . S
C779 N787 1.427 . S
C780 H771 0.930 . S
C780 C778 1.378 . S
C780 C781 1.367 . S
C781 C780 1.367 . S
C781 C783 1.433 . S
C782 C778 1.350 . S
C782 C779 1.463 . S
C782 N786 1.427 . S
C783 H773 0.929 . S
C783 C781 1.433 . S
C783 N786 1.384 . S
C784 H775 0.929 . S
C784 C776 1.378 . S
C784 C779 1.350 . S
C785 H772 0.929 . S
C785 C777 1.433 . S
C785 N787 1.384 . S
N786 C782 1.427 . S
N786 C783 1.384 . S
N787 C779 1.427 . S
N787 C785 1.384 . S
H788 C794 0.930 . S
H789 C798 0.930 . S
H790 C803 0.929 . S
H791 C801 0.929 . S
H792 C796 0.929 . S
H793 C802 0.929 . S
C794 H788 0.930 . S
C794 C795 1.367 . S
C794 C802 1.378 . S
C795 C794 1.367 . S
C795 C803 1.433 . S
C796 H792 0.929 . S
C796 C798 1.378 . S
C796 C800 1.350 . S
C797 C800 1.463 1_545 S
C797 C802 1.350 . S
C797 N805 1.427 . S
C798 H789 0.930 . S
C798 C796 1.378 . S
C798 C799 1.367 . S
C799 C798 1.367 . S
C799 C801 1.433 . S
C800 C796 1.350 . S
C800 C797 1.463 1_565 S
C800 N804 1.427 . S
C801 H791 0.929 . S
C801 C799 1.433 . S
C801 N804 1.384 . S
C802 H793 0.929 . S
C802 C794 1.378 . S
C802 C797 1.350 . S
C803 H790 0.929 . S
C803 C795 1.433 . S
C803 N805 1.384 . S
N804 C800 1.427 . S
N804 C801 1.384 . S
N805 C797 1.427 . S
N805 C803 1.384 . S
H806 C812 0.930 . S
H807 C816 0.930 . S
H808 C821 0.929 . S
H809 C819 0.929 . S
H810 C814 0.929 . S
H811 C820 0.929 . S
C812 H806 0.930 . S
C812 C813 1.367 . S
C812 C820 1.378 . S
C813 C812 1.367 . S
C813 C821 1.433 . S
C814 H810 0.929 . S
C814 C816 1.378 . S
C814 C818 1.350 . S
C815 C818 1.463 . S
C815 C820 1.350 . S
C815 N823 1.427 . S
C816 H807 0.930 . S
C816 C814 1.378 . S
C816 C817 1.367 . S
C817 C816 1.367 . S
C817 C819 1.433 . S
C818 C814 1.350 . S
C818 C815 1.463 . S
C818 N822 1.427 . S
C819 H809 0.929 . S
C819 C817 1.433 . S
C819 N822 1.384 . S
C820 H811 0.929 . S
C820 C812 1.378 . S
C820 C815 1.350 . S
C821 H808 0.929 . S
C821 C813 1.433 . S
C821 N823 1.384 . S
N822 C818 1.427 . S
N822 C819 1.384 . S
N823 C815 1.427 . S
N823 C821 1.384 . S
H824 C830 0.930 . S
H825 C834 0.930 . S
H826 C839 0.929 . S
H827 C837 0.929 . S
H828 C832 0.929 . S
H829 C838 0.929 . S
C830 H824 0.930 . S
C830 C831 1.367 . S
C830 C838 1.378 . S
C831 C830 1.367 . S
C831 C839 1.433 . S
C832 H828 0.929 . S
C832 C834 1.378 . S
C832 C836 1.350 . S
C833 C836 1.463 . S
C833 C838 1.350 . S
C833 N841 1.427 . S
C834 H825 0.930 . S
C834 C832 1.378 . S
C834 C835 1.367 . S
C835 C834 1.367 . S
C835 C837 1.433 . S
C836 C832 1.350 . S
C836 C833 1.463 . S
C836 N840 1.427 . S
C837 H827 0.929 . S
C837 C835 1.433 . S
C837 N840 1.384 . S
C838 H829 0.929 . S
C838 C830 1.378 . S
C838 C833 1.350 . S
C839 H826 0.929 . S
C839 C831 1.433 . S
C839 N841 1.384 . S
N840 C836 1.427 . S
N840 C837 1.384 . S
N841 C833 1.427 . S
N841 C839 1.384 . S
H842 C848 0.930 . S
H843 C852 0.930 . S
H844 C857 0.929 . S
H845 C855 0.929 . S
H846 C850 0.929 . S
H847 C856 0.929 . S
C848 H842 0.930 . S
C848 C849 1.367 . S
C848 C856 1.378 . S
C849 C848 1.367 . S
C849 C857 1.433 . S
C850 H846 0.929 . S
C850 C852 1.378 . S
C850 C854 1.350 . S
C851 C854 1.463 . S
C851 C856 1.350 . S
C851 N859 1.427 . S
C852 H843 0.930 . S
C852 C850 1.378 . S
C852 C853 1.367 . S
C853 C852 1.367 . S
C853 C855 1.433 . S
C854 C850 1.350 . S
C854 C851 1.463 . S
C854 N858 1.427 . S
C855 H845 0.929 . S
C855 C853 1.433 . S
C855 N858 1.384 . S
C856 H847 0.929 . S
C856 C848 1.378 . S
C856 C851 1.350 . S
C857 H844 0.929 . S
C857 C849 1.433 . S
C857 N859 1.384 . S
N858 C854 1.427 . S
N858 C855 1.384 . S
N859 C851 1.427 . S
N859 C857 1.384 . S
H860 C866 0.930 . S
H861 C870 0.930 . S
H862 C875 0.929 . S
H863 C873 0.929 . S
H864 C868 0.929 . S
H865 C874 0.929 . S
C866 H860 0.930 . S
C866 C867 1.367 . S
C866 C874 1.378 . S
C867 C866 1.367 . S
C867 C875 1.433 . S
C868 H864 0.929 . S
C868 C870 1.378 . S
C868 C872 1.350 . S
C869 C872 1.463 . S
C869 C874 1.350 . S
C869 N877 1.427 . S
C870 H861 0.930 . S
C870 C868 1.378 . S
C870 C871 1.367 . S
C871 C870 1.367 . S
C871 C873 1.433 . S
C872 C868 1.350 . S
C872 C869 1.463 . S
C872 N876 1.427 . S
C873 H863 0.929 . S
C873 C871 1.433 . S
C873 N876 1.384 . S
C874 H865 0.929 . S
C874 C866 1.378 . S
C874 C869 1.350 . S
C875 H862 0.929 . S
C875 C867 1.433 . S
C875 N877 1.384 . S
N876 C872 1.427 . S
N876 C873 1.384 . S
N877 C869 1.427 . S
N877 C875 1.384 . S
H878 C884 0.930 . S
H879 C888 0.930 . S
H880 C893 0.929 . S
H881 C891 0.929 . S
H882 C886 0.929 . S
H883 C892 0.929 . S
C884 H878 0.930 . S
C884 C885 1.367 1_655 S
C884 C892 1.378 . S
C885 C884 1.367 1_455 S
C885 C893 1.433 . S
C886 H882 0.929 . S
C886 C888 1.378 . S
C886 C890 1.350 . S
C887 C890 1.463 1_556 S
C887 C892 1.350 1_455 S
C887 N895 1.428 . S
C888 H879 0.930 . S
C888 C886 1.378 . S
C888 C889 1.367 . S
C889 C888 1.367 . S
C889 C891 1.433 1_455 S
C890 C886 1.350 . S
C890 C887 1.463 1_554 S
C890 N894 1.427 1_455 S
C891 H881 0.929 . S
C891 C889 1.433 1_655 S
C891 N894 1.384 . S
C892 H883 0.929 . S
C892 C884 1.378 . S
C892 C887 1.350 1_655 S
C893 H880 0.929 . S
C893 C885 1.433 . S
C893 N895 1.386 . S
N894 C890 1.427 1_655 S
N894 C891 1.384 . S
N895 C887 1.428 . S
N895 C893 1.386 . S
H896 C902 0.930 . S
H897 C906 0.930 . S
H898 C911 0.929 . S
H899 C909 0.929 . S
H900 C904 0.929 . S
H901 C910 0.929 . S
C902 H896 0.930 . S
C902 C903 1.367 . S
C902 C910 1.378 . S
C903 C902 1.367 . S
C903 C911 1.433 . S
C904 H900 0.929 . S
C904 C906 1.378 . S
C904 C908 1.350 . S
C905 C908 1.463 . S
C905 C910 1.350 . S
C905 N913 1.427 . S
C906 H897 0.930 . S
C906 C904 1.378 . S
C906 C907 1.367 . S
C907 C906 1.367 . S
C907 C909 1.433 . S
C908 C904 1.350 . S
C908 C905 1.463 . S
C908 N912 1.427 . S
C909 H899 0.929 . S
C909 C907 1.433 . S
C909 N912 1.384 . S
C910 H901 0.929 . S
C910 C902 1.378 . S
C910 C905 1.350 . S
C911 H898 0.929 . S
C911 C903 1.433 . S
C911 N913 1.384 . S
N912 C908 1.427 . S
N912 C909 1.384 . S
N913 C905 1.427 . S
N913 C911 1.384 . S
H914 C920 0.930 . S
H915 C924 0.930 . S
H916 C929 0.929 . S
H917 C927 0.929 . S
H918 C922 0.929 . S
H919 C928 0.929 . S
C920 H914 0.930 . S
C920 C921 1.367 . S
C920 C928 1.378 . S
C921 C920 1.367 . S
C921 C929 1.433 . S
C922 H918 0.929 . S
C922 C924 1.378 . S
C922 C926 1.350 . S
C923 C926 1.463 . S
C923 C928 1.350 . S
C923 N931 1.427 . S
C924 H915 0.930 . S
C924 C922 1.378 . S
C924 C925 1.367 . S
C925 C924 1.367 . S
C925 C927 1.433 . S
C926 C922 1.350 . S
C926 C923 1.463 . S
C926 N930 1.427 . S
C927 H917 0.929 . S
C927 C925 1.433 . S
C927 N930 1.384 . S
C928 H919 0.929 . S
C928 C920 1.378 . S
C928 C923 1.350 . S
C929 H916 0.929 . S
C929 C921 1.433 . S
C929 N931 1.384 . S
N930 C926 1.427 . S
N930 C927 1.384 . S
N931 C923 1.427 . S
N931 C929 1.384 . S
H932 C938 0.930 . S
H933 C942 0.930 . S
H934 C947 0.929 . S
H935 C945 0.929 . S
H936 C940 0.929 . S
H937 C946 0.929 . S
C938 H932 0.930 . S
C938 C939 1.367 . S
C938 C946 1.378 1_554 S
C939 C938 1.367 . S
C939 C947 1.433 1_554 S
C940 H936 0.929 . S
C940 C942 1.378 . S
C940 C944 1.350 . S
C941 C944 1.463 . S
C941 C946 1.350 . S
C941 N949 1.427 . S
C942 H933 0.930 . S
C942 C940 1.378 . S
C942 C943 1.367 . S
C943 C942 1.367 . S
C943 C945 1.433 . S
C944 C940 1.350 . S
C944 C941 1.463 . S
C944 N948 1.427 . S
C945 H935 0.929 . S
C945 C943 1.433 . S
C945 N948 1.384 . S
C946 H937 0.929 . S
C946 C938 1.378 1_556 S
C946 C941 1.350 . S
C947 H934 0.929 . S
C947 C939 1.433 1_556 S
C947 N949 1.384 . S
N948 C944 1.427 . S
N948 C945 1.384 . S
N949 C941 1.427 . S
N949 C947 1.384 . S
H950 C956 0.930 . S
H951 C960 0.930 . S
H952 C965 0.929 . S
H953 C963 0.929 . S
H954 C958 0.929 . S
H955 C964 0.929 . S
C956 H950 0.930 . S
C956 C957 1.367 . S
C956 C964 1.378 . S
C957 C956 1.367 . S
C957 C965 1.433 . S
C958 H954 0.929 . S
C958 C960 1.378 . S
C958 C962 1.350 . S
C959 C962 1.463 . S
C959 C964 1.350 . S
C959 N967 1.427 . S
C960 H951 0.930 . S
C960 C958 1.378 . S
C960 C961 1.367 . S
C961 C960 1.367 . S
C961 C963 1.433 . S
C962 C958 1.350 . S
C962 C959 1.463 . S
C962 N966 1.427 . S
C963 H953 0.929 . S
C963 C961 1.433 . S
C963 N966 1.384 . S
C964 H955 0.929 . S
C964 C956 1.378 . S
C964 C959 1.350 . S
C965 H952 0.929 . S
C965 C957 1.433 . S
C965 N967 1.384 . S
N966 C962 1.427 . S
N966 C963 1.384 . S
N967 C959 1.427 . S
N967 C965 1.384 . S
H968 C974 0.930 . S
H969 C978 0.930 . S
H970 C983 0.929 . S
H971 C981 0.929 . S
H972 C976 0.929 . S
H973 C982 0.929 . S
C974 H968 0.930 . S
C974 C975 1.367 . S
C974 C982 1.378 . S
C975 C974 1.367 . S
C975 C983 1.433 . S
C976 H972 0.929 . S
C976 C978 1.378 . S
C976 C980 1.350 . S
C977 C980 1.463 . S
C977 C982 1.350 . S
C977 N985 1.427 . S
C978 H969 0.930 . S
C978 C976 1.378 . S
C978 C979 1.367 . S
C979 C978 1.367 . S
C979 C981 1.433 . S
C980 C976 1.350 . S
C980 C977 1.463 . S
C980 N984 1.427 . S
C981 H971 0.929 . S
C981 C979 1.433 . S
C981 N984 1.384 . S
C982 H973 0.929 . S
C982 C974 1.378 . S
C982 C977 1.350 . S
C983 H970 0.929 . S
C983 C975 1.433 . S
C983 N985 1.384 . S
N984 C980 1.427 . S
N984 C981 1.384 . S
N985 C977 1.427 . S
N985 C983 1.384 . S
H986 C992 0.930 . S
H987 C996 0.930 . S
H988 C1001 0.929 . S
H989 C999 0.929 . S
H990 C994 0.929 . S
H991 C1000 0.929 . S
C992 H986 0.930 . S
C992 C993 1.367 . S
C992 C1000 1.378 . S
C993 C992 1.367 . S
C993 C1001 1.433 . S
C994 H990 0.929 . S
C994 C996 1.378 . S
C994 C998 1.350 . S
C995 C998 1.463 . S
C995 C1000 1.350 . S
C995 N1003 1.427 . S
C996 H987 0.930 . S
C996 C994 1.378 . S
C996 C997 1.367 . S
C997 C996 1.367 . S
C997 C999 1.433 . S
C998 C994 1.350 . S
C998 C995 1.463 . S
C998 N1002 1.427 . S
C999 H989 0.929 . S
C999 C997 1.433 . S
C999 N1002 1.384 . S
C1000 H991 0.929 . S
C1000 C992 1.378 . S
C1000 C995 1.350 . S
C1001 H988 0.929 . S
C1001 C993 1.433 . S
C1001 N1003 1.384 . S
N1002 C998 1.427 . S
N1002 C999 1.384 . S
N1003 C995 1.427 . S
N1003 C1001 1.384 . S
H1004 C1010 0.930 . S
H1005 C1014 0.930 . S
H1006 C1019 0.929 . S
H1007 C1017 0.929 . S
H1008 C1012 0.929 . S
H1009 C1018 0.929 . S
C1010 H1004 0.930 . S
C1010 C1011 1.367 . S
C1010 C1018 1.378 . S
C1011 C1010 1.367 . S
C1011 C1019 1.433 . S
C1012 H1008 0.929 . S
C1012 C1014 1.378 . S
C1012 C1016 1.350 . S
C1013 C1016 1.463 . S
C1013 C1018 1.350 . S
C1013 N1021 1.427 . S
C1014 H1005 0.930 . S
C1014 C1012 1.378 . S
C1014 C1015 1.367 . S
C1015 C1014 1.367 . S
C1015 C1017 1.433 . S
C1016 C1012 1.350 . S
C1016 C1013 1.463 . S
C1016 N1020 1.427 . S
C1017 H1007 0.929 . S
C1017 C1015 1.433 . S
C1017 N1020 1.384 . S
C1018 H1009 0.929 . S
C1018 C1010 1.378 . S
C1018 C1013 1.350 . S
C1019 H1006 0.929 . S
C1019 C1011 1.433 . S
C1019 N1021 1.384 . S
N1020 C1016 1.427 . S
N1020 C1017 1.384 . S
N1021 C1013 1.427 . S
N1021 C1019 1.384 . S
H1022 C1028 0.930 . S
H1023 C1032 0.930 1_554 S
H1024 C1037 0.929 . S
H1025 C1035 0.929 . S
H1026 C1030 0.929 . S
H1027 C1036 0.929 . S
C1028 H1022 0.930 . S
C1028 C1029 1.367 . S
C1028 C1036 1.378 . S
C1029 C1028 1.367 . S
C1029 C1037 1.433 . S
C1030 H1026 0.929 . S
C1030 C1032 1.378 . S
C1030 C1034 1.350 . S
C1031 C1034 1.463 . S
C1031 C1036 1.350 . S
C1031 N1039 1.427 . S
C1032 H1023 0.930 1_556 S
C1032 C1030 1.378 . S
C1032 C1033 1.367 . S
C1033 C1032 1.367 . S
C1033 C1035 1.433 . S
C1034 C1030 1.350 . S
C1034 C1031 1.463 . S
C1034 N1038 1.427 . S
C1035 H1025 0.929 . S
C1035 C1033 1.433 . S
C1035 N1038 1.384 . S
C1036 H1027 0.929 . S
C1036 C1028 1.378 . S
C1036 C1031 1.350 . S
C1037 H1024 0.929 . S
C1037 C1029 1.433 . S
C1037 N1039 1.384 . S
N1038 C1034 1.427 . S
N1038 C1035 1.384 . S
N1039 C1031 1.427 . S
N1039 C1037 1.384 . S
H1040 C1046 0.930 . S
H1041 C1050 0.930 . S
H1042 C1055 0.929 . S
H1043 C1053 0.929 . S
H1044 C1048 0.929 . S
H1045 C1054 0.929 . S
C1046 H1040 0.930 . S
C1046 C1047 1.367 . S
C1046 C1054 1.378 . S
C1047 C1046 1.367 . S
C1047 C1055 1.433 . S
C1048 H1044 0.929 . S
C1048 C1050 1.378 . S
C1048 C1052 1.350 . S
C1049 C1052 1.463 . S
C1049 C1054 1.350 . S
C1049 N1057 1.427 . S
C1050 H1041 0.930 . S
C1050 C1048 1.378 . S
C1050 C1051 1.367 . S
C1051 C1050 1.367 . S
C1051 C1053 1.433 . S
C1052 C1048 1.350 . S
C1052 C1049 1.463 . S
C1052 N1056 1.427 . S
C1053 H1043 0.929 . S
C1053 C1051 1.433 . S
C1053 N1056 1.384 . S
C1054 H1045 0.929 . S
C1054 C1046 1.378 . S
C1054 C1049 1.350 . S
C1055 H1042 0.929 . S
C1055 C1047 1.433 . S
C1055 N1057 1.384 . S
N1056 C1052 1.427 . S
N1056 C1053 1.384 . S
N1057 C1049 1.427 . S
N1057 C1055 1.384 . S
H1058 C1064 0.930 . S
H1059 C1068 0.930 . S
H1060 C1073 0.929 . S
H1061 C1071 0.929 . S
H1062 C1066 0.929 . S
H1063 C1072 0.929 . S
C1064 H1058 0.930 . S
C1064 C1065 1.367 . S
C1064 C1072 1.378 . S
C1065 C1064 1.367 . S
C1065 C1073 1.433 . S
C1066 H1062 0.929 . S
C1066 C1068 1.378 . S
C1066 C1070 1.350 . S
C1067 C1070 1.463 . S
C1067 C1072 1.350 . S
C1067 N1075 1.427 . S
C1068 H1059 0.930 . S
C1068 C1066 1.378 . S
C1068 C1069 1.367 . S
C1069 C1068 1.367 . S
C1069 C1071 1.433 . S
C1070 C1066 1.350 . S
C1070 C1067 1.463 . S
C1070 N1074 1.427 . S
C1071 H1061 0.929 . S
C1071 C1069 1.433 . S
C1071 N1074 1.384 . S
C1072 H1063 0.929 . S
C1072 C1064 1.378 . S
C1072 C1067 1.350 . S
C1073 H1060 0.929 . S
C1073 C1065 1.433 . S
C1073 N1075 1.384 . S
N1074 C1070 1.427 . S
N1074 C1071 1.384 . S
N1075 C1067 1.427 . S
N1075 C1073 1.384 . S
H1076 C1082 0.930 . S
H1077 C1086 0.930 . S
H1078 C1091 0.929 . S
H1079 C1089 0.929 . S
H1080 C1084 0.929 . S
H1081 C1090 0.929 . S
C1082 H1076 0.930 . S
C1082 C1083 1.367 . S
C1082 C1090 1.378 . S
C1083 C1082 1.367 . S
C1083 C1091 1.433 . S
C1084 H1080 0.929 . S
C1084 C1086 1.378 . S
C1084 C1088 1.350 . S
C1085 C1088 1.463 . S
C1085 C1090 1.350 . S
C1085 N1093 1.427 . S
C1086 H1077 0.930 . S
C1086 C1084 1.378 . S
C1086 C1087 1.367 . S
C1087 C1086 1.367 . S
C1087 C1089 1.433 . S
C1088 C1084 1.350 . S
C1088 C1085 1.463 . S
C1088 N1092 1.427 . S
C1089 H1079 0.929 . S
C1089 C1087 1.433 . S
C1089 N1092 1.384 . S
C1090 H1081 0.929 . S
C1090 C1082 1.378 . S
C1090 C1085 1.350 . S
C1091 H1078 0.929 . S
C1091 C1083 1.433 . S
C1091 N1093 1.384 . S
N1092 C1088 1.427 . S
N1092 C1089 1.384 . S
N1093 C1085 1.427 . S
N1093 C1091 1.384 . S
H1094 C1100 0.930 . S
H1095 C1104 0.930 . S
H1096 C1109 0.929 . S
H1097 C1107 0.929 . S
H1098 C1102 0.929 . S
H1099 C1108 0.929 . S
C1100 H1094 0.930 . S
C1100 C1101 1.367 . S
C1100 C1108 1.378 . S
C1101 C1100 1.367 . S
C1101 C1109 1.433 . S
C1102 H1098 0.929 . S
C1102 C1104 1.378 . S
C1102 C1106 1.350 . S
C1103 C1106 1.463 . S
C1103 C1108 1.350 . S
C1103 N1111 1.427 . S
C1104 H1095 0.930 . S
C1104 C1102 1.378 . S
C1104 C1105 1.367 . S
C1105 C1104 1.367 . S
C1105 C1107 1.433 . S
C1106 C1102 1.350 . S
C1106 C1103 1.463 . S
C1106 N1110 1.427 . S
C1107 H1097 0.929 . S
C1107 C1105 1.433 . S
C1107 N1110 1.384 . S
C1108 H1099 0.929 . S
C1108 C1100 1.378 . S
C1108 C1103 1.350 . S
C1109 H1096 0.929 . S
C1109 C1101 1.433 . S
C1109 N1111 1.384 . S
N1110 C1106 1.427 . S
N1110 C1107 1.384 . S
N1111 C1103 1.427 . S
N1111 C1109 1.384 . S
H1112 C1118 0.930 . S
H1113 C1122 0.930 . S
H1114 C1127 0.929 . S
H1115 C1125 0.929 . S
H1116 C1120 0.929 . S
H1117 C1126 0.929 . S
C1118 H1112 0.930 . S
C1118 C1119 1.367 . S
C1118 C1126 1.378 . S
C1119 C1118 1.367 . S
C1119 C1127 1.433 . S
C1120 H1116 0.929 . S
C1120 C1122 1.378 . S
C1120 C1124 1.350 . S
C1121 C1124 1.463 . S
C1121 C1126 1.350 . S
C1121 N1129 1.427 . S
C1122 H1113 0.930 . S
C1122 C1120 1.378 . S
C1122 C1123 1.367 . S
C1123 C1122 1.367 . S
C1123 C1125 1.433 . S
C1124 C1120 1.350 . S
C1124 C1121 1.463 . S
C1124 N1128 1.427 . S
C1125 H1115 0.929 . S
C1125 C1123 1.433 . S
C1125 N1128 1.384 . S
C1126 H1117 0.929 . S
C1126 C1118 1.378 . S
C1126 C1121 1.350 . S
C1127 H1114 0.929 . S
C1127 C1119 1.433 . S
C1127 N1129 1.384 . S
N1128 C1124 1.427 . S
N1128 C1125 1.384 . S
N1129 C1121 1.427 . S
N1129 C1127 1.384 . S
H1130 C1136 0.930 . S
H1131 C1140 0.930 . S
H1132 C1145 0.929 . S
H1133 C1143 0.929 . S
H1134 C1138 0.929 . S
H1135 C1144 0.929 . S
C1136 H1130 0.930 . S
C1136 C1137 1.367 . S
C1136 C1144 1.378 . S
C1137 C1136 1.367 . S
C1137 C1145 1.433 . S
C1138 H1134 0.929 . S
C1138 C1140 1.378 . S
C1138 C1142 1.350 . S
C1139 C1142 1.463 . S
C1139 C1144 1.350 . S
C1139 N1147 1.427 . S
C1140 H1131 0.930 . S
C1140 C1138 1.378 . S
C1140 C1141 1.367 . S
C1141 C1140 1.367 . S
C1141 C1143 1.433 . S
C1142 C1138 1.350 . S
C1142 C1139 1.463 . S
C1142 N1146 1.427 . S
C1143 H1133 0.929 . S
C1143 C1141 1.433 . S
C1143 N1146 1.384 . S
C1144 H1135 0.929 . S
C1144 C1136 1.378 . S
C1144 C1139 1.350 . S
C1145 H1132 0.929 . S
C1145 C1137 1.433 . S
C1145 N1147 1.384 . S
N1146 C1142 1.427 . S
N1146 C1143 1.384 . S
N1147 C1139 1.427 . S
N1147 C1145 1.384 . S
H1148 C1154 0.930 . S
H1149 C1158 0.930 . S
H1150 C1163 0.929 . S
H1151 C1161 0.929 . S
H1152 C1156 0.929 . S
H1153 C1162 0.929 . S
C1154 H1148 0.930 . S
C1154 C1155 1.367 . S
C1154 C1162 1.378 . S
C1155 C1154 1.367 . S
C1155 C1163 1.433 . S
C1156 H1152 0.929 . S
C1156 C1158 1.378 . S
C1156 C1160 1.350 . S
C1157 C1160 1.463 . S
C1157 C1162 1.350 . S
C1157 N1165 1.427 . S
C1158 H1149 0.930 . S
C1158 C1156 1.378 . S
C1158 C1159 1.367 . S
C1159 C1158 1.367 . S
C1159 C1161 1.433 . S
C1160 C1156 1.350 . S
C1160 C1157 1.463 . S
C1160 N1164 1.427 . S
C1161 H1151 0.929 . S
C1161 C1159 1.433 . S
C1161 N1164 1.384 . S
C1162 H1153 0.929 . S
C1162 C1154 1.378 . S
C1162 C1157 1.350 . S
C1163 H1150 0.929 . S
C1163 C1155 1.433 . S
C1163 N1165 1.384 . S
N1164 C1160 1.427 . S
N1164 C1161 1.384 . S
N1165 C1157 1.427 . S
N1165 C1163 1.384 . S
H1166 C1172 0.930 . S
H1167 C1176 0.930 . S
H1168 C1181 0.929 . S
H1169 C1179 0.929 . S
H1170 C1174 0.929 . S
H1171 C1180 0.929 . S
C1172 H1166 0.930 . S
C1172 C1173 1.367 . S
C1172 C1180 1.378 . S
C1173 C1172 1.367 . S
C1173 C1181 1.433 . S
C1174 H1170 0.929 . S
C1174 C1176 1.378 . S
C1174 C1178 1.350 . S
C1175 C1178 1.463 . S
C1175 C1180 1.350 . S
C1175 N1183 1.427 . S
C1176 H1167 0.930 . S
C1176 C1174 1.378 . S
C1176 C1177 1.367 . S
C1177 C1176 1.367 . S
C1177 C1179 1.433 . S
C1178 C1174 1.350 . S
C1178 C1175 1.463 . S
C1178 N1182 1.427 . S
C1179 H1169 0.929 . S
C1179 C1177 1.433 . S
C1179 N1182 1.384 . S
C1180 H1171 0.929 . S
C1180 C1172 1.378 . S
C1180 C1175 1.350 . S
C1181 H1168 0.929 . S
C1181 C1173 1.433 . S
C1181 N1183 1.384 . S
N1182 C1178 1.427 . S
N1182 C1179 1.384 . S
N1183 C1175 1.427 . S
N1183 C1181 1.384 . S
C327 C19 1.651 1_556 S
C331 C159 1.636 . S
C345 C39 1.984 . S
C349 C99 1.990 1_554 S
C363 C102 1.464 . S
C367 C59 1.462 . S
C381 C79 1.988 . S
C385 C139 1.981 . S
C399 C221 0.424 . S
C403 C81 0.440 . S
C417 C178 0.791 . S
C421 C1 0.789 . S
C435 C201 0.446 . S
C439 C121 0.433 . S
C453 C41 0.679 . S
C457 C181 0.668 . S
C471 C199 1.647 . S
C475 C259 1.647 . S
C489 C219 1.988 . S
C493 C299 1.984 . S
C507 C279 1.457 . S
C511 C162 1.465 . S
C525 C239 1.985 . S
C529 C319 1.992 1_554 S
C543 C281 0.437 . S
C547 C61 0.421 . S
C561 C241 0.793 . S
C565 C118 0.808 . S
C579 C21 0.445 . S
C583 C301 0.432 . S
C597 C141 0.678 . S
C601 C261 0.670 1_556 S
C615 C269 0.736 . S
C619 C9 0.528 1_455 S
C633 C229 0.609 . S
C637 C29 0.634 . S
C651 C249 0.519 . S
C655 C49 0.713 . S
C669 C209 0.628 . S
C673 C69 0.636 . S
C687 C89 0.640 1_455 S
C691 C309 0.625 . S
C705 C189 0.611 . S
C709 C108 0.689 . S
C723 C129 0.622 . S
C727 C289 0.605 . S
C741 C149 0.611 . S
C745 C168 0.684 . S
C759 C8 1.313 . S
C763 C88 1.324 . S
C777 C28 1.374 . S
C781 C109 1.378 . S
C795 C128 1.421 . S
C799 C48 1.419 . S
C813 C68 1.375 . S
C817 C148 1.355 . S
C831 C208 1.372 . S
C835 C169 1.376 . S
C849 C228 1.376 . S
C853 C188 1.355 . S
C867 C248 1.329 . S
C871 C288 1.317 . S
C885 C308 1.428 1_455 S
C889 C268 1.431 1_455 S
C903 C2 1.251 . S
C907 C142 1.258 . S
C921 C22 0.981 . S
C925 C82 0.983 . S
C939 C119 1.465 . S
C943 C42 1.425 . S
C957 C122 0.981 . S
C961 C62 1.010 . S
C975 C238 2.520 . S
C979 C98 2.524 . S
C993 C161 1.990 . S
C997 C18 2.024 . S
C1011 C218 2.515 1_554 S
C1015 C138 2.512 . S
C1029 C58 2.221 . S
C1033 C198 2.218 1_556 S
C1047 C242 1.244 . S
C1051 C182 1.244 1_556 S
C1065 C282 0.983 . S
C1069 C202 0.988 1_554 S
C1083 C262 1.425 . S
C1087 C179 1.465 . S
C1101 C302 0.990 . S
C1105 C222 0.984 . S
C1119 C298 2.521 . S
C1123 C78 2.524 1_554 S
C1137 C101 1.991 1_556 S
C1141 C258 2.029 . S
C1155 C38 2.513 . S
C1159 C318 2.514 . S
C1173 C278 2.222 . S
C1177 C158 2.215 . S
