# Generated by pormake.
# Topology wgc, (5)-cn, num edge types: 1
# Building blocks:
#     Node 0, Type 0, BuildingBlock: XOMCOT_clean_sbu_0, # of connection points: 5
#     Node 1, Type 0, BuildingBlock: XOMCOT_clean_sbu_0, # of connection points: 5
#     Node 2, Type 0, BuildingBlock: XOMCOT_clean_sbu_0, # of connection points: 5
#     Node 3, Type 0, BuildingBlock: XOMCOT_clean_sbu_0, # of connection points: 5
#     Node 4, Type 0, BuildingBlock: XOMCOT_clean_sbu_0, # of connection points: 5
#     Node 5, Type 0, BuildingBlock: XOMCOT_clean_sbu_0, # of connection points: 5
#     Node 6, Type 0, BuildingBlock: XOMCOT_clean_sbu_0, # of connection points: 5
#     Node 7, Type 0, BuildingBlock: XOMCOT_clean_sbu_0, # of connection points: 5
#     Node 8, Type 0, BuildingBlock: XOMCOT_clean_sbu_0, # of connection points: 5
#     Node 9, Type 0, BuildingBlock: XOMCOT_clean_sbu_0, # of connection points: 5
#     Node 10, Type 0, BuildingBlock: XOMCOT_clean_sbu_0, # of connection points: 5
#     Node 11, Type 0, BuildingBlock: XOMCOT_clean_sbu_0, # of connection points: 5
#     Node 12, Type 0, BuildingBlock: XOMCOT_clean_sbu_0, # of connection points: 5
#     Node 13, Type 0, BuildingBlock: XOMCOT_clean_sbu_0, # of connection points: 5
#     Node 14, Type 0, BuildingBlock: XOMCOT_clean_sbu_0, # of connection points: 5
#     Node 15, Type 0, BuildingBlock: XOMCOT_clean_sbu_0, # of connection points: 5
#     Edge 16, Type (0, 0), None
#     Edge 17, Type (0, 0), None
#     Edge 18, Type (0, 0), None
#     Edge 19, Type (0, 0), None
#     Edge 20, Type (0, 0), None
#     Edge 21, Type (0, 0), None
#     Edge 22, Type (0, 0), None
#     Edge 23, Type (0, 0), None
#     Edge 24, Type (0, 0), None
#     Edge 25, Type (0, 0), None
#     Edge 26, Type (0, 0), None
#     Edge 27, Type (0, 0), None
#     Edge 28, Type (0, 0), None
#     Edge 29, Type (0, 0), None
#     Edge 30, Type (0, 0), None
#     Edge 31, Type (0, 0), None
#     Edge 32, Type (0, 0), None
#     Edge 33, Type (0, 0), None
#     Edge 34, Type (0, 0), None
#     Edge 35, Type (0, 0), None
#     Edge 36, Type (0, 0), None
#     Edge 37, Type (0, 0), None
#     Edge 38, Type (0, 0), None
#     Edge 39, Type (0, 0), None
#     Edge 40, Type (0, 0), None
#     Edge 41, Type (0, 0), None
#     Edge 42, Type (0, 0), None
#     Edge 43, Type (0, 0), None
#     Edge 44, Type (0, 0), None
#     Edge 45, Type (0, 0), None
#     Edge 46, Type (0, 0), None
#     Edge 47, Type (0, 0), None
#     Edge 48, Type (0, 0), None
#     Edge 49, Type (0, 0), None
#     Edge 50, Type (0, 0), None
#     Edge 51, Type (0, 0), None
#     Edge 52, Type (0, 0), None
#     Edge 53, Type (0, 0), None
#     Edge 54, Type (0, 0), None
#     Edge 55, Type (0, 0), None
# Relax obj value: 0.135
# Max RMSD: 0.159
# Mean RMSD: 0.157
data_MOF--net-wgc--node1-XOMCOT_clean_sbu_0--edge1-none
_symmetry_space_group_name_H-M    P1
_symmetry_Int_Tables_number       1
_symmetry_cell_setting            triclinic
loop_
_symmetry_equiv_pos_as_xyz
'x, y, z'
_cell_length_a     19.263448
_cell_length_b     19.263809
_cell_length_c     30.180291
_cell_angle_alpha  89.998711
_cell_angle_beta   90.000164
_cell_angle_gamma 90.000986
loop_
_atom_site_label
_atom_site_type_symbol
_atom_site_fract_x
_atom_site_fract_y
_atom_site_fract_z
_atom_type_partial_charge
Co0 Co 0.28208 0.10913 0.99709 0.0
C1 C 0.16038 0.19535 1.00907 0.0
C2 C 0.13264 0.09927 0.9777 0.0
C3 C 0.07704 0.1441 0.97471 0.0
N4 N 0.18487 0.1319 0.99907 0.0
N5 N 0.09504 0.20401 0.99478 0.0
H6 H 0.19104 0.23602 0.02423 0.0
H7 H 0.13611 0.04821 0.96295 0.0
C8 C 0.25863 0.96526 0.01565 0.0
O9 O 0.29929 0.94926 0.98218 0.0
N10 N 0.38154 0.08846 0.99401 0.0
C11 C 0.42914 0.12658 0.97179 0.0
C12 C 0.49312 0.09509 0.97496 0.0
C13 C 0.41802 0.03419 0.01071 0.0
N14 N 0.48588 0.03744 0.99956 0.0
C15 C 0.3454 0.21416 0.05379 0.0
C16 C 0.2676 0.17923 0.12775 0.0
C17 C 0.31792 0.23125 0.13194 0.0
C18 C 0.3571 0.2488 0.09409 0.0
C19 C 0.25818 0.14574 0.0874 0.0
N20 N 0.297 0.16268 0.05105 0.0
H21 H 0.37508 0.22871 0.0249 0.0
H22 H 0.21775 0.10706 0.08525 0.0
H23 H 0.4181 0.17319 0.95316 0.0
H24 H 0.39607 0.99224 0.02981 0.0
O25 O 0.28836 0.17794 0.94837 0.0
O26 O 0.26774 0.06547 0.94188 0.0
O27 O 0.26198 0.02527 0.03306 0.0
C28 C 0.27094 0.1253 0.92322 0.0
H29 H 0.02711 0.13313 0.95976 0.0
H30 H 0.54016 0.11048 0.95797 0.0
H31 H 0.23386 0.1655 0.15508 0.0
H32 H 0.39644 0.28886 0.09544 0.0
Co33 Co 0.10915 0.73673 0.02272 0.0
C34 C 0.19535 0.85845 0.01069 0.0
C35 C 0.09929 0.88618 0.0421 0.0
C36 C 0.14412 0.94179 0.04506 0.0
N37 N 0.13191 0.83395 0.02072 0.0
N38 N 0.204 0.92381 0.02496 0.0
H39 H 0.23603 0.82779 0.99554 0.0
H40 H 0.04825 0.8827 0.05687 0.0
C41 C 0.96527 0.76014 1.00415 0.0
O42 O 0.94928 0.71949 0.03763 0.0
N43 N 0.08849 0.63728 0.02582 0.0
C44 C 0.1266 0.58969 0.04805 0.0
C45 C 0.09512 0.5257 0.04488 0.0
C46 C 0.03423 0.60078 1.00911 0.0
N47 N 0.03748 0.53293 0.02027 0.0
C48 C 0.21417 0.6734 0.96602 0.0
C49 C 0.17923 0.75119 0.89205 0.0
C50 C 0.23124 0.70087 0.88786 0.0
C51 C 0.2488 0.66169 0.92572 0.0
C52 C 0.14575 0.76062 0.9324 0.0
N53 N 0.1627 0.72181 0.96876 0.0
H54 H 0.22872 0.64373 0.99491 0.0
H55 H 0.10707 0.80104 0.93455 0.0
H56 H 0.1732 0.60074 0.06668 0.0
H57 H 0.99229 0.62272 0.98999 0.0
O58 O 0.17797 0.73049 0.07144 0.0
O59 O 0.06549 0.75108 0.07793 0.0
O60 O 0.02529 0.75681 0.98675 0.0
C61 C 0.12532 0.7479 0.09659 0.0
H62 H 0.13316 0.99171 0.06003 0.0
H63 H 0.1105 0.47867 0.06188 0.0
H64 H 0.1655 0.78492 0.86472 0.0
H65 H 0.28886 0.62235 0.92436 0.0
Co66 Co 0.73674 0.90964 0.99709 0.0
C67 C 0.85845 0.8234 1.0091 0.0
C68 C 0.88618 0.91947 0.9777 0.0
C69 C 0.94179 0.87465 0.97474 0.0
N70 N 0.83395 0.88684 0.99907 0.0
N71 N 0.92381 0.81476 0.99484 0.0
H72 H 0.82778 0.78272 0.02425 0.0
H73 H 0.88271 0.97051 0.96294 0.0
C74 C 0.76021 0.05351 0.01565 0.0
O75 O 0.71956 0.06951 0.98217 0.0
N76 N 0.6373 0.93037 0.99401 0.0
C77 C 0.58966 0.89233 0.97175 0.0
C78 C 0.52571 0.92392 0.97487 0.0
C79 C 0.60087 0.98466 0.01072 0.0
N80 N 0.53306 0.98157 0.99946 0.0
C81 C 0.67336 0.80466 0.0538 0.0
C82 C 0.75121 0.83954 0.12775 0.0
C83 C 0.70086 0.78756 0.13195 0.0
C84 C 0.66166 0.77002 0.0941 0.0
C85 C 0.76064 0.87302 0.0874 0.0
N86 N 0.72181 0.8561 0.05105 0.0
H87 H 0.64367 0.79014 0.02491 0.0
H88 H 0.80109 0.91168 0.08524 0.0
H89 H 0.60066 0.84572 0.95311 0.0
H90 H 0.62284 0.02654 0.02989 0.0
O91 O 0.73044 0.84084 0.94836 0.0
O92 O 0.7511 0.95331 0.94188 0.0
O93 O 0.75688 0.99349 0.03305 0.0
C94 C 0.74788 0.89347 0.92321 0.0
H95 H 0.99172 0.88561 0.95977 0.0
H96 H 0.47866 0.90861 0.95788 0.0
H97 H 0.78496 0.85325 0.15508 0.0
H98 H 0.6223 0.72999 0.09546 0.0
Co99 Co 0.90967 0.28206 0.02272 0.0
C100 C 0.82345 0.16035 0.01071 0.0
C101 C 0.91952 0.13263 0.04211 0.0
C102 C 0.87471 0.07701 0.04507 0.0
N103 N 0.88688 0.18485 0.02074 0.0
N104 N 0.81482 0.09499 0.02497 0.0
H105 H 0.78277 0.191 0.99556 0.0
H106 H 0.97057 0.13611 0.05687 0.0
C107 C 0.05355 0.25859 1.00414 0.0
O108 O 0.06955 0.29919 0.03765 0.0
N109 N 0.9304 0.3815 0.02579 0.0
C110 C 0.89234 0.42914 0.04803 0.0
C111 C 0.92394 0.49309 0.04491 0.0
C112 C 0.98472 0.41793 1.00911 0.0
N113 N 0.98161 0.48574 0.02036 0.0
C114 C 0.80468 0.34542 0.96601 0.0
C115 C 0.83957 0.26759 0.89206 0.0
C116 C 0.78758 0.31793 0.88786 0.0
C117 C 0.77004 0.35712 0.92571 0.0
C118 C 0.87305 0.25816 0.93241 0.0
N119 N 0.85613 0.29699 0.96876 0.0
H120 H 0.79015 0.37511 0.9949 0.0
H121 H 0.91172 0.21772 0.93456 0.0
H122 H 0.84571 0.41815 0.06665 0.0
H123 H 0.02662 0.39596 0.98996 0.0
O124 O 0.84086 0.28837 0.07144 0.0
O125 O 0.95334 0.26771 0.07793 0.0
O126 O 0.99353 0.26193 0.98675 0.0
C127 C 0.8935 0.27093 0.09659 0.0
H128 H 0.88568 0.02708 0.06003 0.0
H129 H 0.9086 0.54015 0.06189 0.0
H130 H 0.85328 0.23384 0.86473 0.0
H131 H 0.73 0.39648 0.92435 0.0
Co132 Co 0.27937 0.4054 0.30194 0.0
C133 C 0.15398 0.3384 0.26147 0.0
C134 C 0.13027 0.38073 0.32518 0.0
C135 C 0.0738 0.34312 0.31095 0.0
N136 N 0.18197 0.37634 0.29478 0.0
N137 N 0.08918 0.31612 0.2711 0.0
H138 H 0.18004 0.32691 0.23063 0.0
H139 H 0.13261 0.40836 0.35626 0.0
C140 C 0.24082 0.54667 0.27513 0.0
O141 O 0.2557 0.56641 0.31568 0.0
N142 N 0.37788 0.43127 0.30913 0.0
C143 C 0.42815 0.38344 0.31596 0.0
C144 C 0.49235 0.41521 0.31677 0.0
C145 C 0.41294 0.49253 0.30597 0.0
N146 N 0.48293 0.48363 0.31051 0.0
C147 C 0.30301 0.27769 0.25403 0.0
C148 C 0.33646 0.34179 0.1746 0.0
C149 C 0.32412 0.27012 0.17462 0.0
C150 C 0.31084 0.23758 0.21562 0.0
C151 C 0.32891 0.37963 0.21369 0.0
N152 N 0.3073 0.34823 0.25189 0.0
H153 H 0.28856 0.25278 0.28478 0.0
H154 H 0.33795 0.43486 0.21255 0.0
H155 H 0.41877 0.32838 0.31955 0.0
H156 H 0.38841 0.54201 0.29977 0.0
O157 O 0.28641 0.34012 0.35253 0.0
O158 O 0.25603 0.45069 0.35537 0.0
O159 O 0.25769 0.4859 0.26176 0.0
C160 C 0.26415 0.39267 0.37591 0.0
H161 H 0.02497 0.33687 0.32832 0.0
H162 H 0.5419 0.39001 0.32195 0.0
H163 H 0.34798 0.36948 0.14427 0.0
H164 H 0.30356 0.18196 0.21778 0.0
Co165 Co 0.4054 0.73943 0.71786 0.0
C166 C 0.33839 0.86481 0.75834 0.0
C167 C 0.38072 0.88852 0.69462 0.0
C168 C 0.34311 0.945 0.70885 0.0
N169 N 0.37632 0.83683 0.72502 0.0
N170 N 0.31611 0.92961 0.7487 0.0
H171 H 0.3269 0.83875 0.78918 0.0
H172 H 0.40835 0.88619 0.66354 0.0
C173 C 0.54667 0.77798 0.74468 0.0
O174 O 0.56641 0.76309 0.70414 0.0
N175 N 0.43127 0.64092 0.71067 0.0
C176 C 0.38345 0.59065 0.70383 0.0
C177 C 0.41521 0.52645 0.70302 0.0
C178 C 0.49253 0.60587 0.71384 0.0
N179 N 0.48363 0.53588 0.7093 0.0
C180 C 0.27768 0.71578 0.76577 0.0
C181 C 0.34178 0.68231 0.8452 0.0
C182 C 0.27011 0.69466 0.84518 0.0
C183 C 0.23757 0.70795 0.80418 0.0
C184 C 0.37962 0.68987 0.8061 0.0
N185 N 0.34822 0.71149 0.76791 0.0
H186 H 0.25277 0.73024 0.73502 0.0
H187 H 0.43485 0.68082 0.80724 0.0
H188 H 0.32838 0.60003 0.70023 0.0
H189 H 0.54201 0.6304 0.72005 0.0
O190 O 0.34012 0.73239 0.66727 0.0
O191 O 0.4507 0.76278 0.66444 0.0
O192 O 0.48588 0.76111 0.75805 0.0
C193 C 0.39268 0.75466 0.64389 0.0
H194 H 0.33686 0.99382 0.69148 0.0
H195 H 0.39002 0.4769 0.69784 0.0
H196 H 0.36947 0.67079 0.87552 0.0
H197 H 0.18195 0.71523 0.80202 0.0
Co198 Co 0.73943 0.6134 0.30194 0.0
C199 C 0.86482 0.6804 0.26147 0.0
C200 C 0.88853 0.63808 0.32518 0.0
C201 C 0.94501 0.67569 0.31095 0.0
N202 N 0.83683 0.64247 0.29478 0.0
N203 N 0.92962 0.70269 0.2711 0.0
H204 H 0.83876 0.6919 0.23063 0.0
H205 H 0.88619 0.61044 0.35626 0.0
C206 C 0.77798 0.47213 0.27513 0.0
O207 O 0.76309 0.45239 0.31567 0.0
N208 N 0.64092 0.58753 0.30914 0.0
C209 C 0.59065 0.63534 0.31598 0.0
C210 C 0.52645 0.60358 0.31679 0.0
C211 C 0.60587 0.52627 0.30597 0.0
N212 N 0.53588 0.53516 0.31053 0.0
C213 C 0.71579 0.74112 0.25404 0.0
C214 C 0.6823 0.67702 0.17461 0.0
C215 C 0.69465 0.74869 0.17463 0.0
C216 C 0.70795 0.78122 0.21563 0.0
C217 C 0.68986 0.63918 0.2137 0.0
N218 N 0.71149 0.67057 0.25189 0.0
H219 H 0.73025 0.76602 0.28478 0.0
H220 H 0.68082 0.58395 0.21256 0.0
H221 H 0.60002 0.69041 0.31956 0.0
H222 H 0.6304 0.47679 0.29976 0.0
O223 O 0.73239 0.67867 0.35253 0.0
O224 O 0.76278 0.5681 0.35537 0.0
O225 O 0.76111 0.53291 0.26175 0.0
C226 C 0.75466 0.62611 0.37591 0.0
H227 H 0.99383 0.68193 0.32832 0.0
H228 H 0.4769 0.62878 0.32196 0.0
H229 H 0.67077 0.64933 0.14428 0.0
H230 H 0.71524 0.83684 0.21778 0.0
Co231 Co 0.61341 0.27938 0.71786 0.0
C232 C 0.6804 0.15399 0.75834 0.0
C233 C 0.63811 0.1303 0.69461 0.0
C234 C 0.6757 0.07382 0.70885 0.0
N235 N 0.64248 0.18199 0.72502 0.0
N236 N 0.70269 0.0892 0.7487 0.0
H237 H 0.69189 0.18005 0.78918 0.0
H238 H 0.61048 0.13264 0.66353 0.0
C239 C 0.47214 0.24083 0.74468 0.0
O240 O 0.4524 0.25572 0.70413 0.0
N241 N 0.58754 0.3779 0.71068 0.0
C242 C 0.63536 0.42817 0.70385 0.0
C243 C 0.60359 0.49237 0.70304 0.0
C244 C 0.52627 0.41294 0.71383 0.0
N245 N 0.53516 0.48293 0.70929 0.0
C246 C 0.74113 0.30302 0.76577 0.0
C247 C 0.67704 0.33649 0.8452 0.0
C248 C 0.74871 0.32413 0.84518 0.0
C249 C 0.78124 0.31084 0.80418 0.0
C250 C 0.6392 0.32893 0.80611 0.0
N251 N 0.67059 0.30732 0.76792 0.0
H252 H 0.76603 0.28856 0.73502 0.0
H253 H 0.58396 0.33798 0.80725 0.0
H254 H 0.69043 0.4188 0.70027 0.0
H255 H 0.47679 0.38841 0.72003 0.0
O256 O 0.67869 0.28644 0.66727 0.0
O257 O 0.56811 0.25605 0.66444 0.0
O258 O 0.53292 0.2577 0.75805 0.0
C259 C 0.62613 0.26418 0.64389 0.0
H260 H 0.68196 0.025 0.69148 0.0
H261 H 0.62879 0.54192 0.69788 0.0
H262 H 0.64935 0.34801 0.87553 0.0
H263 H 0.83686 0.30356 0.80202 0.0
Co264 Co 0.78208 0.60914 0.49709 0.0
C265 C 0.66038 0.69535 0.50907 0.0
C266 C 0.63264 0.59928 0.47769 0.0
C267 C 0.57704 0.64411 0.47471 0.0
N268 N 0.68487 0.6319 0.49907 0.0
N269 N 0.59504 0.70401 0.49478 0.0
H270 H 0.69104 0.73603 0.52423 0.0
H271 H 0.63611 0.54822 0.46295 0.0
C272 C 0.75863 0.46526 0.51565 0.0
O273 O 0.79929 0.44927 0.48218 0.0
N274 N 0.88154 0.58846 0.49401 0.0
C275 C 0.92914 0.62658 0.47179 0.0
C276 C 0.99312 0.59509 0.47496 0.0
C277 C 0.91802 0.53419 0.51071 0.0
N278 N 0.98588 0.53744 0.49956 0.0
C279 C 0.8454 0.71416 0.55379 0.0
C280 C 0.76759 0.67923 0.62775 0.0
C281 C 0.81791 0.73124 0.63194 0.0
C282 C 0.8571 0.7488 0.59409 0.0
C283 C 0.75817 0.64575 0.5874 0.0
N284 N 0.79699 0.66268 0.55105 0.0
H285 H 0.87508 0.72871 0.5249 0.0
H286 H 0.71775 0.60706 0.58525 0.0
H287 H 0.9181 0.67319 0.45316 0.0
H288 H 0.89607 0.49224 0.52981 0.0
O289 O 0.78836 0.67795 0.44836 0.0
O290 O 0.76775 0.56547 0.44187 0.0
O291 O 0.76198 0.52528 0.53306 0.0
C292 C 0.77095 0.62531 0.42321 0.0
H293 H 0.52711 0.63313 0.45976 0.0
H294 H 0.04017 0.61048 0.45797 0.0
H295 H 0.73385 0.66551 0.65508 0.0
H296 H 0.89644 0.78885 0.59545 0.0
Co297 Co 0.60916 0.23673 0.52272 0.0
C298 C 0.69535 0.35845 0.51069 0.0
C299 C 0.5993 0.38618 0.5421 0.0
C300 C 0.64412 0.44179 0.54506 0.0
N301 N 0.63192 0.33395 0.52072 0.0
N302 N 0.704 0.42381 0.52496 0.0
H303 H 0.73603 0.32779 0.49554 0.0
H304 H 0.54825 0.3827 0.55687 0.0
C305 C 0.46527 0.26014 0.50415 0.0
O306 O 0.44928 0.21949 0.53763 0.0
N307 N 0.58849 0.13728 0.52582 0.0
C308 C 0.6266 0.08969 0.54804 0.0
C309 C 0.59512 0.0257 0.54488 0.0
C310 C 0.53423 0.10078 0.50911 0.0
N311 N 0.53748 0.03293 0.52027 0.0
C312 C 0.71417 0.1734 0.46602 0.0
C313 C 0.67923 0.2512 0.39205 0.0
C314 C 0.73124 0.20087 0.38786 0.0
C315 C 0.7488 0.16169 0.42571 0.0
C316 C 0.64576 0.26062 0.43241 0.0
N317 N 0.6627 0.22181 0.46876 0.0
H318 H 0.72872 0.14373 0.49491 0.0
H319 H 0.60707 0.30105 0.43455 0.0
H320 H 0.6732 0.10074 0.56668 0.0
H321 H 0.49229 0.12272 0.48999 0.0
O322 O 0.67797 0.23048 0.57144 0.0
O323 O 0.56549 0.25108 0.57793 0.0
O324 O 0.52529 0.25681 0.48675 0.0
C325 C 0.62533 0.24789 0.59659 0.0
H326 H 0.63316 0.49171 0.56003 0.0
H327 H 0.6105 0.97867 0.56188 0.0
H328 H 0.6655 0.28493 0.36472 0.0
H329 H 0.78885 0.12235 0.42436 0.0
Co330 Co 0.23674 0.40964 0.49709 0.0
C331 C 0.35845 0.3234 0.50909 0.0
C332 C 0.38618 0.41946 0.4777 0.0
C333 C 0.44179 0.37464 0.47474 0.0
N334 N 0.33395 0.38684 0.49907 0.0
N335 N 0.42381 0.31476 0.49484 0.0
H336 H 0.32778 0.28272 0.52425 0.0
H337 H 0.38271 0.47051 0.46293 0.0
C338 C 0.26021 0.55351 0.51565 0.0
O339 O 0.21956 0.5695 0.48217 0.0
N340 N 0.1373 0.43036 0.49401 0.0
C341 C 0.08966 0.39233 0.47175 0.0
C342 C 0.02571 0.42392 0.47488 0.0
C343 C 0.10087 0.48466 0.51072 0.0
N344 N 0.03306 0.48157 0.49946 0.0
C345 C 0.17336 0.30466 0.5538 0.0
C346 C 0.25122 0.33954 0.62775 0.0
C347 C 0.20087 0.28756 0.63195 0.0
C348 C 0.16166 0.27002 0.5941 0.0
C349 C 0.26065 0.37302 0.58739 0.0
N350 N 0.22181 0.3561 0.55105 0.0
H351 H 0.14366 0.29014 0.52491 0.0
H352 H 0.30109 0.41168 0.58524 0.0
H353 H 0.10066 0.34572 0.45312 0.0
H354 H 0.12284 0.52654 0.52989 0.0
O355 O 0.23044 0.34083 0.44836 0.0
O356 O 0.25109 0.4533 0.44187 0.0
O357 O 0.25688 0.49349 0.53305 0.0
C358 C 0.24787 0.39347 0.42321 0.0
H359 H 0.49172 0.38561 0.45977 0.0
H360 H 0.97865 0.4086 0.45788 0.0
H361 H 0.28497 0.35325 0.65507 0.0
H362 H 0.1223 0.22999 0.59546 0.0
Co363 Co 0.40967 0.78206 0.52272 0.0
C364 C 0.32345 0.66035 0.51072 0.0
C365 C 0.41952 0.63263 0.54211 0.0
C366 C 0.37471 0.57701 0.54507 0.0
N367 N 0.38688 0.68486 0.52074 0.0
N368 N 0.31482 0.59498 0.52497 0.0
H369 H 0.28276 0.691 0.49556 0.0
H370 H 0.47057 0.63611 0.55687 0.0
C371 C 0.55355 0.75859 0.50414 0.0
O372 O 0.56955 0.79919 0.53765 0.0
N373 N 0.4304 0.88151 0.52579 0.0
C374 C 0.39234 0.92914 0.54803 0.0
C375 C 0.42394 0.99309 0.54491 0.0
C376 C 0.48472 0.91793 0.50911 0.0
N377 N 0.48161 0.98574 0.52036 0.0
C378 C 0.30468 0.84542 0.46601 0.0
C379 C 0.33957 0.76758 0.39206 0.0
C380 C 0.28758 0.81792 0.38786 0.0
C381 C 0.27004 0.85712 0.42571 0.0
C382 C 0.37305 0.75815 0.43241 0.0
N383 N 0.35613 0.79699 0.46876 0.0
H384 H 0.29015 0.87511 0.4949 0.0
H385 H 0.41172 0.71771 0.43456 0.0
H386 H 0.3457 0.91815 0.56664 0.0
H387 H 0.52662 0.89596 0.48996 0.0
O388 O 0.34086 0.78837 0.57144 0.0
O389 O 0.45333 0.76772 0.57793 0.0
O390 O 0.49352 0.76192 0.48675 0.0
C391 C 0.39349 0.77094 0.59659 0.0
H392 H 0.38568 0.52708 0.56003 0.0
H393 H 0.4086 0.04016 0.56189 0.0
H394 H 0.35328 0.73383 0.36473 0.0
H395 H 0.23001 0.89648 0.42435 0.0
Co396 Co 0.77937 0.9054 0.80194 0.0
C397 C 0.65397 0.83843 0.76146 0.0
C398 C 0.63028 0.88072 0.82519 0.0
C399 C 0.57379 0.84313 0.81095 0.0
N400 N 0.68197 0.87634 0.79478 0.0
N401 N 0.58917 0.81616 0.77109 0.0
H402 H 0.68003 0.82694 0.73062 0.0
H403 H 0.63262 0.90833 0.85628 0.0
C404 C 0.74083 0.04668 0.77513 0.0
O405 O 0.7557 0.06641 0.81567 0.0
N406 N 0.87789 0.93126 0.80913 0.0
C407 C 0.92815 0.88344 0.81596 0.0
C408 C 0.99235 0.9152 0.81677 0.0
C409 C 0.91294 0.99252 0.80597 0.0
N410 N 0.98293 0.98363 0.81051 0.0
C411 C 0.80299 0.77769 0.75403 0.0
C412 C 0.83647 0.84178 0.6746 0.0
C413 C 0.82411 0.77012 0.67462 0.0
C414 C 0.81082 0.73758 0.71562 0.0
C415 C 0.82891 0.87962 0.7137 0.0
N416 N 0.8073 0.84823 0.75189 0.0
H417 H 0.78854 0.75278 0.78478 0.0
H418 H 0.83797 0.93486 0.71255 0.0
H419 H 0.91877 0.82838 0.81955 0.0
H420 H 0.88841 0.04201 0.79978 0.0
O421 O 0.78641 0.84012 0.85253 0.0
O422 O 0.75603 0.95069 0.85537 0.0
O423 O 0.7577 0.9859 0.76176 0.0
C424 C 0.76416 0.89267 0.87591 0.0
H425 H 0.52498 0.83686 0.82833 0.0
H426 H 0.0419 0.89 0.82194 0.0
H427 H 0.84799 0.86947 0.64428 0.0
H428 H 0.80354 0.68196 0.71778 0.0
Co429 Co 0.9054 0.23943 0.21786 0.0
C430 C 0.83842 0.36482 0.25834 0.0
C431 C 0.88071 0.38852 0.19461 0.0
C432 C 0.84312 0.445 0.20885 0.0
N433 N 0.87633 0.33683 0.22502 0.0
N434 N 0.81615 0.42963 0.24871 0.0
H435 H 0.82693 0.33876 0.28918 0.0
H436 H 0.90832 0.38618 0.16352 0.0
C437 C 0.04667 0.27797 0.24468 0.0
O438 O 0.06641 0.26308 0.20414 0.0
N439 N 0.93127 0.14092 0.21067 0.0
C440 C 0.88345 0.09065 0.20383 0.0
C441 C 0.91521 0.02645 0.20302 0.0
C442 C 0.99253 0.10587 0.21384 0.0
N443 N 0.98363 0.03588 0.2093 0.0
C444 C 0.77768 0.2158 0.26577 0.0
C445 C 0.84177 0.18231 0.3452 0.0
C446 C 0.77011 0.19467 0.34518 0.0
C447 C 0.73757 0.20797 0.30418 0.0
C448 C 0.87961 0.18986 0.3061 0.0
N449 N 0.84822 0.21149 0.26791 0.0
H450 H 0.75277 0.23027 0.23502 0.0
H451 H 0.93485 0.18081 0.30724 0.0
H452 H 0.82838 0.10003 0.20023 0.0
H453 H 0.04201 0.1304 0.22005 0.0
O454 O 0.84013 0.23239 0.16727 0.0
O455 O 0.9507 0.26278 0.16444 0.0
O456 O 0.98588 0.2611 0.25805 0.0
C457 C 0.89269 0.25465 0.14389 0.0
H458 H 0.83685 0.49382 0.19148 0.0
H459 H 0.89002 0.9769 0.19784 0.0
H460 H 0.86947 0.17078 0.37552 0.0
H461 H 0.68195 0.21526 0.30202 0.0
Co462 Co 0.23943 0.11339 0.80194 0.0
C463 C 0.36483 0.18038 0.76146 0.0
C464 C 0.38852 0.13809 0.82519 0.0
C465 C 0.44501 0.17568 0.81095 0.0
N466 N 0.33683 0.14246 0.79478 0.0
N467 N 0.42963 0.20265 0.77109 0.0
H468 H 0.33877 0.19187 0.73062 0.0
H469 H 0.38618 0.11048 0.85628 0.0
C470 C 0.27796 0.97213 0.77513 0.0
O471 O 0.26308 0.95238 0.81567 0.0
N472 N 0.14092 0.08753 0.80914 0.0
C473 C 0.09065 0.13534 0.81597 0.0
C474 C 0.02645 0.10358 0.81678 0.0
C475 C 0.10587 0.02627 0.80598 0.0
N476 N 0.03588 0.03516 0.81053 0.0
C477 C 0.21581 0.24112 0.75404 0.0
C478 C 0.1823 0.17702 0.67461 0.0
C479 C 0.19466 0.24869 0.67463 0.0
C480 C 0.20797 0.28122 0.71563 0.0
C481 C 0.18986 0.13919 0.71371 0.0
N482 N 0.21149 0.17058 0.75189 0.0
H483 H 0.23028 0.26602 0.78478 0.0
H484 H 0.1808 0.08395 0.71257 0.0
H485 H 0.10002 0.19041 0.81956 0.0
H486 H 0.1304 0.97679 0.79977 0.0
O487 O 0.23239 0.17867 0.85254 0.0
O488 O 0.26278 0.06809 0.85537 0.0
O489 O 0.2611 0.03291 0.76175 0.0
C490 C 0.25465 0.12611 0.87591 0.0
H491 H 0.49382 0.18195 0.82833 0.0
H492 H 0.9769 0.12878 0.82195 0.0
H493 H 0.17076 0.14934 0.64429 0.0
H494 H 0.21527 0.33684 0.71778 0.0
Co495 Co 0.11341 0.77938 0.21786 0.0
C496 C 0.18038 0.65398 0.25835 0.0
C497 C 0.13811 0.6303 0.19461 0.0
C498 C 0.1757 0.57382 0.20885 0.0
N499 N 0.14248 0.68199 0.22502 0.0
N500 N 0.20265 0.58918 0.24871 0.0
H501 H 0.19186 0.68004 0.28919 0.0
H502 H 0.11051 0.63265 0.16351 0.0
C503 C 0.97213 0.74084 0.24468 0.0
O504 O 0.95239 0.75572 0.20414 0.0
N505 N 0.08754 0.8779 0.21068 0.0
C506 C 0.13536 0.92817 0.20385 0.0
C507 C 0.10359 0.99237 0.20304 0.0
C508 C 0.02627 0.91294 0.21383 0.0
N509 N 0.03516 0.98293 0.20929 0.0
C510 C 0.24113 0.803 0.26577 0.0
C511 C 0.17704 0.83649 0.3452 0.0
C512 C 0.24871 0.82413 0.34518 0.0
C513 C 0.28124 0.81083 0.30418 0.0
C514 C 0.1392 0.82894 0.3061 0.0
N515 N 0.17059 0.80731 0.26792 0.0
H516 H 0.26603 0.78853 0.23502 0.0
H517 H 0.08396 0.83799 0.30724 0.0
H518 H 0.19043 0.9188 0.20028 0.0
H519 H 0.97679 0.88841 0.22002 0.0
O520 O 0.17868 0.78644 0.16727 0.0
O521 O 0.06811 0.75605 0.16444 0.0
O522 O 0.03292 0.7577 0.25805 0.0
C523 C 0.12613 0.76419 0.14389 0.0
H524 H 0.18197 0.52501 0.19147 0.0
H525 H 0.12879 0.04192 0.19788 0.0
H526 H 0.14935 0.84802 0.37552 0.0
H527 H 0.33686 0.80353 0.30202 0.0
loop_
_geom_bond_atom_site_label_1
_geom_bond_atom_site_label_2
_geom_bond_distance
_geom_bond_site_symmetry_2
_ccdc_geom_bond_type
Co0 N4 2.148 . S
Co0 N10 2.128 . S
Co0 N20 2.194 1_556 S
Co0 O25 2.351 . S
Co0 O26 2.155 . S
Co0 O27 2.096 . S
C1 N4 1.301 . S
C1 N5 1.328 . S
C1 H6 0.930 . S
C2 C3 1.333 . S
C2 N4 1.317 . S
C2 H7 0.930 . S
C3 C2 1.333 . S
C3 N5 1.350 . S
C3 H29 0.931 . S
N4 Co0 2.148 . S
N4 C1 1.301 . S
N4 C2 1.317 . S
N5 C1 1.328 . S
N5 C3 1.350 . S
H6 C1 0.930 . S
H7 C2 0.930 . S
C8 O9 1.224 1_565 S
C8 O27 1.247 1_564 S
O9 C8 1.224 1_545 S
N10 Co0 2.128 . S
N10 C11 1.355 . S
N10 C13 1.311 . S
C11 N10 1.355 . S
C11 C12 1.363 . S
C11 H23 0.929 . S
C12 C11 1.363 . S
C12 N14 1.375 . S
C12 H30 0.931 1_556 S
C13 N10 1.311 . S
C13 N14 1.347 . S
C13 H24 0.929 1_545 S
N14 C12 1.375 . S
N14 C13 1.347 . S
C15 C18 1.365 . S
C15 N20 1.328 . S
C15 H21 0.929 . S
C16 C17 1.362 . S
C16 C19 1.378 . S
C16 H31 0.929 . S
C17 C16 1.362 . S
C17 C18 1.366 . S
C18 C15 1.365 . S
C18 C17 1.366 . S
C18 H32 0.930 . S
C19 C16 1.378 . S
C19 N20 1.315 . S
C19 H22 0.930 . S
N20 Co0 2.194 1_554 S
N20 C15 1.328 . S
N20 C19 1.315 . S
H21 C15 0.929 . S
H22 C19 0.930 . S
H23 C11 0.929 . S
H24 C13 0.929 1_565 S
O25 Co0 2.351 . S
O25 C28 1.244 . S
O26 Co0 2.155 . S
O26 C28 1.240 . S
O27 Co0 2.096 . S
O27 C8 1.247 1_546 S
C28 O25 1.244 . S
C28 O26 1.240 . S
H29 C3 0.931 . S
H30 C12 0.931 1_554 S
H31 C16 0.929 . S
H32 C18 0.930 . S
Co33 N37 2.148 . S
Co33 N43 2.128 . S
Co33 N53 2.194 1_554 S
Co33 O58 2.351 . S
Co33 O59 2.155 . S
Co33 O60 2.096 . S
C34 N37 1.301 . S
C34 N38 1.328 . S
C34 H39 0.930 . S
C35 C36 1.333 . S
C35 N37 1.317 . S
C35 H40 0.930 . S
C36 C35 1.333 . S
C36 N38 1.350 . S
C36 H62 0.931 . S
N37 Co33 2.148 . S
N37 C34 1.301 . S
N37 C35 1.317 . S
N38 C34 1.328 . S
N38 C36 1.350 . S
H39 C34 0.930 . S
H40 C35 0.930 . S
C41 O42 1.224 1_655 S
C41 O60 1.247 1_656 S
O42 C41 1.224 1_455 S
N43 Co33 2.128 . S
N43 C44 1.355 . S
N43 C46 1.311 . S
C44 N43 1.355 . S
C44 C45 1.363 . S
C44 H56 0.929 . S
C45 C44 1.363 . S
C45 N47 1.375 . S
C45 H63 0.931 1_554 S
C46 N43 1.311 . S
C46 N47 1.347 . S
C46 H57 0.929 1_455 S
N47 C45 1.375 . S
N47 C46 1.347 . S
C48 C51 1.365 . S
C48 N53 1.328 . S
C48 H54 0.929 . S
C49 C50 1.362 . S
C49 C52 1.378 . S
C49 H64 0.929 . S
C50 C49 1.362 . S
C50 C51 1.366 . S
C51 C48 1.365 . S
C51 C50 1.366 . S
C51 H65 0.930 . S
C52 C49 1.378 . S
C52 N53 1.315 . S
C52 H55 0.930 . S
N53 Co33 2.194 1_556 S
N53 C48 1.328 . S
N53 C52 1.315 . S
H54 C48 0.929 . S
H55 C52 0.930 . S
H56 C44 0.929 . S
H57 C46 0.929 1_655 S
O58 Co33 2.351 . S
O58 C61 1.244 . S
O59 Co33 2.155 . S
O59 C61 1.240 . S
O60 Co33 2.096 . S
O60 C41 1.247 1_454 S
C61 O58 1.244 . S
C61 O59 1.240 . S
H62 C36 0.931 . S
H63 C45 0.931 1_556 S
H64 C49 0.929 . S
H65 C51 0.930 . S
Co66 N70 2.148 . S
Co66 N76 2.128 . S
Co66 N86 2.194 1_556 S
Co66 O91 2.351 . S
Co66 O92 2.155 . S
Co66 O93 2.096 . S
C67 N70 1.301 . S
C67 N71 1.328 . S
C67 H72 0.930 . S
C68 C69 1.333 . S
C68 N70 1.317 . S
C68 H73 0.930 . S
C69 C68 1.333 . S
C69 N71 1.350 . S
C69 H95 0.931 . S
N70 Co66 2.148 . S
N70 C67 1.301 . S
N70 C68 1.317 . S
N71 C67 1.328 . S
N71 C69 1.350 . S
H72 C67 0.930 . S
H73 C68 0.930 . S
C74 O75 1.224 1_545 S
C74 O93 1.247 1_544 S
O75 C74 1.224 1_565 S
N76 Co66 2.128 . S
N76 C77 1.355 . S
N76 C79 1.311 . S
C77 N76 1.355 . S
C77 C78 1.363 . S
C77 H89 0.929 . S
C78 C77 1.363 . S
C78 N80 1.375 . S
C78 H96 0.931 1_556 S
C79 N76 1.311 . S
C79 N80 1.347 . S
C79 H90 0.929 1_565 S
N80 C78 1.375 . S
N80 C79 1.347 . S
C81 C84 1.365 . S
C81 N86 1.328 . S
C81 H87 0.929 . S
C82 C83 1.362 . S
C82 C85 1.378 . S
C82 H97 0.929 . S
C83 C82 1.362 . S
C83 C84 1.366 . S
C84 C81 1.365 . S
C84 C83 1.366 . S
C84 H98 0.930 . S
C85 C82 1.378 . S
C85 N86 1.315 . S
C85 H88 0.930 . S
N86 Co66 2.194 1_554 S
N86 C81 1.328 . S
N86 C85 1.315 . S
H87 C81 0.929 . S
H88 C85 0.930 . S
H89 C77 0.929 . S
H90 C79 0.929 1_545 S
O91 Co66 2.351 . S
O91 C94 1.244 . S
O92 Co66 2.155 . S
O92 C94 1.240 . S
O93 Co66 2.096 . S
O93 C74 1.247 1_566 S
C94 O91 1.244 . S
C94 O92 1.240 . S
H95 C69 0.931 . S
H96 C78 0.931 1_554 S
H97 C82 0.929 . S
H98 C84 0.930 . S
Co99 N103 2.148 . S
Co99 N109 2.128 . S
Co99 N119 2.194 1_554 S
Co99 O124 2.351 . S
Co99 O125 2.155 . S
Co99 O126 2.096 . S
C100 N103 1.301 . S
C100 N104 1.328 . S
C100 H105 0.930 . S
C101 C102 1.333 . S
C101 N103 1.317 . S
C101 H106 0.930 . S
C102 C101 1.333 . S
C102 N104 1.350 . S
C102 H128 0.931 . S
N103 Co99 2.148 . S
N103 C100 1.301 . S
N103 C101 1.317 . S
N104 C100 1.328 . S
N104 C102 1.350 . S
H105 C100 0.930 . S
H106 C101 0.930 . S
C107 O108 1.224 1_455 S
C107 O126 1.247 1_456 S
O108 C107 1.224 1_655 S
N109 Co99 2.128 . S
N109 C110 1.355 . S
N109 C112 1.311 . S
C110 N109 1.355 . S
C110 C111 1.363 . S
C110 H122 0.929 . S
C111 C110 1.363 . S
C111 N113 1.375 . S
C111 H129 0.931 1_554 S
C112 N109 1.311 . S
C112 N113 1.347 . S
C112 H123 0.929 1_655 S
N113 C111 1.375 . S
N113 C112 1.347 . S
C114 C117 1.365 . S
C114 N119 1.328 . S
C114 H120 0.929 . S
C115 C116 1.362 . S
C115 C118 1.378 . S
C115 H130 0.929 . S
C116 C115 1.362 . S
C116 C117 1.366 . S
C117 C114 1.365 . S
C117 C116 1.366 . S
C117 H131 0.930 . S
C118 C115 1.378 . S
C118 N119 1.315 . S
C118 H121 0.930 . S
N119 Co99 2.194 1_556 S
N119 C114 1.328 . S
N119 C118 1.315 . S
H120 C114 0.929 . S
H121 C118 0.930 . S
H122 C110 0.929 . S
H123 C112 0.929 1_455 S
O124 Co99 2.351 . S
O124 C127 1.244 . S
O125 Co99 2.155 . S
O125 C127 1.240 . S
O126 Co99 2.096 . S
O126 C107 1.247 1_654 S
C127 O124 1.244 . S
C127 O125 1.240 . S
H128 C102 0.931 . S
H129 C111 0.931 1_556 S
H130 C115 0.929 . S
H131 C117 0.930 . S
Co132 N136 2.148 . S
Co132 N142 2.128 . S
Co132 N152 2.194 . S
Co132 O157 2.351 . S
Co132 O158 2.155 . S
Co132 O159 2.096 . S
C133 N136 1.301 . S
C133 N137 1.328 . S
C133 H138 0.930 . S
C134 C135 1.333 . S
C134 N136 1.317 . S
C134 H139 0.930 . S
C135 C134 1.333 . S
C135 N137 1.350 . S
C135 H161 0.931 . S
N136 Co132 2.148 . S
N136 C133 1.301 . S
N136 C134 1.317 . S
N137 C133 1.328 . S
N137 C135 1.350 . S
H138 C133 0.930 . S
H139 C134 0.930 . S
C140 O141 1.224 . S
C140 O159 1.247 . S
O141 C140 1.224 . S
N142 Co132 2.128 . S
N142 C143 1.355 . S
N142 C145 1.311 . S
C143 N142 1.355 . S
C143 C144 1.363 . S
C143 H155 0.929 . S
C144 C143 1.363 . S
C144 N146 1.375 . S
C144 H162 0.931 . S
C145 N142 1.311 . S
C145 N146 1.347 . S
C145 H156 0.929 . S
N146 C144 1.375 . S
N146 C145 1.347 . S
C147 C150 1.365 . S
C147 N152 1.328 . S
C147 H153 0.929 . S
C148 C149 1.362 . S
C148 C151 1.378 . S
C148 H163 0.929 . S
C149 C148 1.362 . S
C149 C150 1.366 . S
C150 C147 1.365 . S
C150 C149 1.366 . S
C150 H164 0.930 . S
C151 C148 1.378 . S
C151 N152 1.315 . S
C151 H154 0.930 . S
N152 Co132 2.194 . S
N152 C147 1.328 . S
N152 C151 1.315 . S
H153 C147 0.929 . S
H154 C151 0.930 . S
H155 C143 0.929 . S
H156 C145 0.929 . S
O157 Co132 2.351 . S
O157 C160 1.244 . S
O158 Co132 2.155 . S
O158 C160 1.240 . S
O159 Co132 2.096 . S
O159 C140 1.247 . S
C160 O157 1.244 . S
C160 O158 1.240 . S
H161 C135 0.931 . S
H162 C144 0.931 . S
H163 C148 0.929 . S
H164 C150 0.930 . S
Co165 N169 2.148 . S
Co165 N175 2.128 . S
Co165 N185 2.194 . S
Co165 O190 2.351 . S
Co165 O191 2.155 . S
Co165 O192 2.096 . S
C166 N169 1.301 . S
C166 N170 1.328 . S
C166 H171 0.930 . S
C167 C168 1.333 . S
C167 N169 1.317 . S
C167 H172 0.930 . S
C168 C167 1.333 . S
C168 N170 1.350 . S
C168 H194 0.931 . S
N169 Co165 2.148 . S
N169 C166 1.301 . S
N169 C167 1.317 . S
N170 C166 1.328 . S
N170 C168 1.350 . S
H171 C166 0.930 . S
H172 C167 0.930 . S
C173 O174 1.224 . S
C173 O192 1.247 . S
O174 C173 1.224 . S
N175 Co165 2.128 . S
N175 C176 1.355 . S
N175 C178 1.311 . S
C176 N175 1.355 . S
C176 C177 1.363 . S
C176 H188 0.929 . S
C177 C176 1.363 . S
C177 N179 1.375 . S
C177 H195 0.931 . S
C178 N175 1.311 . S
C178 N179 1.347 . S
C178 H189 0.929 . S
N179 C177 1.375 . S
N179 C178 1.347 . S
C180 C183 1.365 . S
C180 N185 1.328 . S
C180 H186 0.929 . S
C181 C182 1.362 . S
C181 C184 1.378 . S
C181 H196 0.929 . S
C182 C181 1.362 . S
C182 C183 1.366 . S
C183 C180 1.365 . S
C183 C182 1.366 . S
C183 H197 0.930 . S
C184 C181 1.378 . S
C184 N185 1.315 . S
C184 H187 0.930 . S
N185 Co165 2.194 . S
N185 C180 1.328 . S
N185 C184 1.315 . S
H186 C180 0.929 . S
H187 C184 0.930 . S
H188 C176 0.929 . S
H189 C178 0.929 . S
O190 Co165 2.351 . S
O190 C193 1.244 . S
O191 Co165 2.155 . S
O191 C193 1.240 . S
O192 Co165 2.096 . S
O192 C173 1.247 . S
C193 O190 1.244 . S
C193 O191 1.240 . S
H194 C168 0.931 . S
H195 C177 0.931 . S
H196 C181 0.929 . S
H197 C183 0.930 . S
Co198 N202 2.148 . S
Co198 N208 2.128 . S
Co198 N218 2.194 . S
Co198 O223 2.351 . S
Co198 O224 2.155 . S
Co198 O225 2.096 . S
C199 N202 1.301 . S
C199 N203 1.328 . S
C199 H204 0.930 . S
C200 C201 1.333 . S
C200 N202 1.317 . S
C200 H205 0.930 . S
C201 C200 1.333 . S
C201 N203 1.350 . S
C201 H227 0.931 . S
N202 Co198 2.148 . S
N202 C199 1.301 . S
N202 C200 1.317 . S
N203 C199 1.328 . S
N203 C201 1.350 . S
H204 C199 0.930 . S
H205 C200 0.930 . S
C206 O207 1.224 . S
C206 O225 1.247 . S
O207 C206 1.224 . S
N208 Co198 2.128 . S
N208 C209 1.355 . S
N208 C211 1.311 . S
C209 N208 1.355 . S
C209 C210 1.363 . S
C209 H221 0.929 . S
C210 C209 1.363 . S
C210 N212 1.375 . S
C210 H228 0.931 . S
C211 N208 1.311 . S
C211 N212 1.347 . S
C211 H222 0.929 . S
N212 C210 1.375 . S
N212 C211 1.347 . S
C213 C216 1.365 . S
C213 N218 1.328 . S
C213 H219 0.929 . S
C214 C215 1.362 . S
C214 C217 1.378 . S
C214 H229 0.929 . S
C215 C214 1.362 . S
C215 C216 1.366 . S
C216 C213 1.365 . S
C216 C215 1.366 . S
C216 H230 0.930 . S
C217 C214 1.378 . S
C217 N218 1.315 . S
C217 H220 0.930 . S
N218 Co198 2.194 . S
N218 C213 1.328 . S
N218 C217 1.315 . S
H219 C213 0.929 . S
H220 C217 0.930 . S
H221 C209 0.929 . S
H222 C211 0.929 . S
O223 Co198 2.351 . S
O223 C226 1.244 . S
O224 Co198 2.155 . S
O224 C226 1.240 . S
O225 Co198 2.096 . S
O225 C206 1.247 . S
C226 O223 1.244 . S
C226 O224 1.240 . S
H227 C201 0.931 . S
H228 C210 0.931 . S
H229 C214 0.929 . S
H230 C216 0.930 . S
Co231 N235 2.148 . S
Co231 N241 2.128 . S
Co231 N251 2.194 . S
Co231 O256 2.351 . S
Co231 O257 2.155 . S
Co231 O258 2.096 . S
C232 N235 1.301 . S
C232 N236 1.328 . S
C232 H237 0.930 . S
C233 C234 1.333 . S
C233 N235 1.317 . S
C233 H238 0.930 . S
C234 C233 1.333 . S
C234 N236 1.350 . S
C234 H260 0.931 . S
N235 Co231 2.148 . S
N235 C232 1.301 . S
N235 C233 1.317 . S
N236 C232 1.328 . S
N236 C234 1.350 . S
H237 C232 0.930 . S
H238 C233 0.930 . S
C239 O240 1.224 . S
C239 O258 1.247 . S
O240 C239 1.224 . S
N241 Co231 2.128 . S
N241 C242 1.355 . S
N241 C244 1.311 . S
C242 N241 1.355 . S
C242 C243 1.363 . S
C242 H254 0.929 . S
C243 C242 1.363 . S
C243 N245 1.375 . S
C243 H261 0.931 . S
C244 N241 1.311 . S
C244 N245 1.347 . S
C244 H255 0.929 . S
N245 C243 1.375 . S
N245 C244 1.347 . S
C246 C249 1.365 . S
C246 N251 1.328 . S
C246 H252 0.929 . S
C247 C248 1.362 . S
C247 C250 1.378 . S
C247 H262 0.929 . S
C248 C247 1.362 . S
C248 C249 1.366 . S
C249 C246 1.365 . S
C249 C248 1.366 . S
C249 H263 0.930 . S
C250 C247 1.378 . S
C250 N251 1.315 . S
C250 H253 0.930 . S
N251 Co231 2.194 . S
N251 C246 1.328 . S
N251 C250 1.315 . S
H252 C246 0.929 . S
H253 C250 0.930 . S
H254 C242 0.929 . S
H255 C244 0.929 . S
O256 Co231 2.351 . S
O256 C259 1.244 . S
O257 Co231 2.155 . S
O257 C259 1.240 . S
O258 Co231 2.096 . S
O258 C239 1.247 . S
C259 O256 1.244 . S
C259 O257 1.240 . S
H260 C234 0.931 . S
H261 C243 0.931 . S
H262 C247 0.929 . S
H263 C249 0.930 . S
Co264 N268 2.148 . S
Co264 N274 2.128 . S
Co264 N284 2.194 . S
Co264 O289 2.351 . S
Co264 O290 2.155 . S
Co264 O291 2.096 . S
C265 N268 1.301 . S
C265 N269 1.328 . S
C265 H270 0.930 . S
C266 C267 1.333 . S
C266 N268 1.317 . S
C266 H271 0.930 . S
C267 C266 1.333 . S
C267 N269 1.350 . S
C267 H293 0.931 . S
N268 Co264 2.148 . S
N268 C265 1.301 . S
N268 C266 1.317 . S
N269 C265 1.328 . S
N269 C267 1.350 . S
H270 C265 0.930 . S
H271 C266 0.930 . S
C272 O273 1.224 . S
C272 O291 1.247 . S
O273 C272 1.224 . S
N274 Co264 2.128 . S
N274 C275 1.355 . S
N274 C277 1.311 . S
C275 N274 1.355 . S
C275 C276 1.363 . S
C275 H287 0.929 . S
C276 C275 1.363 . S
C276 N278 1.375 . S
C276 H294 0.931 1_655 S
C277 N274 1.311 . S
C277 N278 1.347 . S
C277 H288 0.929 . S
N278 C276 1.375 . S
N278 C277 1.347 . S
C279 C282 1.365 . S
C279 N284 1.328 . S
C279 H285 0.929 . S
C280 C281 1.362 . S
C280 C283 1.378 . S
C280 H295 0.929 . S
C281 C280 1.362 . S
C281 C282 1.366 . S
C282 C279 1.365 . S
C282 C281 1.366 . S
C282 H296 0.930 . S
C283 C280 1.378 . S
C283 N284 1.315 . S
C283 H286 0.930 . S
N284 Co264 2.194 . S
N284 C279 1.328 . S
N284 C283 1.315 . S
H285 C279 0.929 . S
H286 C283 0.930 . S
H287 C275 0.929 . S
H288 C277 0.929 . S
O289 Co264 2.351 . S
O289 C292 1.244 . S
O290 Co264 2.155 . S
O290 C292 1.240 . S
O291 Co264 2.096 . S
O291 C272 1.247 . S
C292 O289 1.244 . S
C292 O290 1.240 . S
H293 C267 0.931 . S
H294 C276 0.931 1_455 S
H295 C280 0.929 . S
H296 C282 0.930 . S
Co297 N301 2.148 . S
Co297 N307 2.128 . S
Co297 N317 2.194 . S
Co297 O322 2.351 . S
Co297 O323 2.155 . S
Co297 O324 2.096 . S
C298 N301 1.301 . S
C298 N302 1.328 . S
C298 H303 0.930 . S
C299 C300 1.333 . S
C299 N301 1.317 . S
C299 H304 0.930 . S
C300 C299 1.333 . S
C300 N302 1.350 . S
C300 H326 0.931 . S
N301 Co297 2.148 . S
N301 C298 1.301 . S
N301 C299 1.317 . S
N302 C298 1.328 . S
N302 C300 1.350 . S
H303 C298 0.930 . S
H304 C299 0.930 . S
C305 O306 1.224 . S
C305 O324 1.247 . S
O306 C305 1.224 . S
N307 Co297 2.128 . S
N307 C308 1.355 . S
N307 C310 1.311 . S
C308 N307 1.355 . S
C308 C309 1.363 . S
C308 H320 0.929 . S
C309 C308 1.363 . S
C309 N311 1.375 . S
C309 H327 0.931 1_545 S
C310 N307 1.311 . S
C310 N311 1.347 . S
C310 H321 0.929 . S
N311 C309 1.375 . S
N311 C310 1.347 . S
C312 C315 1.365 . S
C312 N317 1.328 . S
C312 H318 0.929 . S
C313 C314 1.362 . S
C313 C316 1.378 . S
C313 H328 0.929 . S
C314 C313 1.362 . S
C314 C315 1.366 . S
C315 C312 1.365 . S
C315 C314 1.366 . S
C315 H329 0.930 . S
C316 C313 1.378 . S
C316 N317 1.315 . S
C316 H319 0.930 . S
N317 Co297 2.194 . S
N317 C312 1.328 . S
N317 C316 1.315 . S
H318 C312 0.929 . S
H319 C316 0.930 . S
H320 C308 0.929 . S
H321 C310 0.929 . S
O322 Co297 2.351 . S
O322 C325 1.244 . S
O323 Co297 2.155 . S
O323 C325 1.240 . S
O324 Co297 2.096 . S
O324 C305 1.247 . S
C325 O322 1.244 . S
C325 O323 1.240 . S
H326 C300 0.931 . S
H327 C309 0.931 1_565 S
H328 C313 0.929 . S
H329 C315 0.930 . S
Co330 N334 2.148 . S
Co330 N340 2.128 . S
Co330 N350 2.194 . S
Co330 O355 2.351 . S
Co330 O356 2.155 . S
Co330 O357 2.096 . S
C331 N334 1.301 . S
C331 N335 1.328 . S
C331 H336 0.930 . S
C332 C333 1.333 . S
C332 N334 1.317 . S
C332 H337 0.930 . S
C333 C332 1.333 . S
C333 N335 1.350 . S
C333 H359 0.931 . S
N334 Co330 2.148 . S
N334 C331 1.301 . S
N334 C332 1.317 . S
N335 C331 1.328 . S
N335 C333 1.350 . S
H336 C331 0.930 . S
H337 C332 0.930 . S
C338 O339 1.224 . S
C338 O357 1.247 . S
O339 C338 1.224 . S
N340 Co330 2.128 . S
N340 C341 1.355 . S
N340 C343 1.311 . S
C341 N340 1.355 . S
C341 C342 1.363 . S
C341 H353 0.929 . S
C342 C341 1.363 . S
C342 N344 1.375 . S
C342 H360 0.931 1_455 S
C343 N340 1.311 . S
C343 N344 1.347 . S
C343 H354 0.929 . S
N344 C342 1.375 . S
N344 C343 1.347 . S
C345 C348 1.365 . S
C345 N350 1.328 . S
C345 H351 0.929 . S
C346 C347 1.362 . S
C346 C349 1.378 . S
C346 H361 0.929 . S
C347 C346 1.362 . S
C347 C348 1.366 . S
C348 C345 1.365 . S
C348 C347 1.366 . S
C348 H362 0.930 . S
C349 C346 1.378 . S
C349 N350 1.315 . S
C349 H352 0.930 . S
N350 Co330 2.194 . S
N350 C345 1.328 . S
N350 C349 1.315 . S
H351 C345 0.929 . S
H352 C349 0.930 . S
H353 C341 0.929 . S
H354 C343 0.929 . S
O355 Co330 2.351 . S
O355 C358 1.244 . S
O356 Co330 2.155 . S
O356 C358 1.240 . S
O357 Co330 2.096 . S
O357 C338 1.247 . S
C358 O355 1.244 . S
C358 O356 1.240 . S
H359 C333 0.931 . S
H360 C342 0.931 1_655 S
H361 C346 0.929 . S
H362 C348 0.930 . S
Co363 N367 2.148 . S
Co363 N373 2.128 . S
Co363 N383 2.194 . S
Co363 O388 2.351 . S
Co363 O389 2.155 . S
Co363 O390 2.096 . S
C364 N367 1.301 . S
C364 N368 1.328 . S
C364 H369 0.930 . S
C365 C366 1.333 . S
C365 N367 1.317 . S
C365 H370 0.930 . S
C366 C365 1.333 . S
C366 N368 1.350 . S
C366 H392 0.931 . S
N367 Co363 2.148 . S
N367 C364 1.301 . S
N367 C365 1.317 . S
N368 C364 1.328 . S
N368 C366 1.350 . S
H369 C364 0.930 . S
H370 C365 0.930 . S
C371 O372 1.224 . S
C371 O390 1.247 . S
O372 C371 1.224 . S
N373 Co363 2.128 . S
N373 C374 1.355 . S
N373 C376 1.311 . S
C374 N373 1.355 . S
C374 C375 1.363 . S
C374 H386 0.929 . S
C375 C374 1.363 . S
C375 N377 1.375 . S
C375 H393 0.931 1_565 S
C376 N373 1.311 . S
C376 N377 1.347 . S
C376 H387 0.929 . S
N377 C375 1.375 . S
N377 C376 1.347 . S
C378 C381 1.365 . S
C378 N383 1.328 . S
C378 H384 0.929 . S
C379 C380 1.362 . S
C379 C382 1.378 . S
C379 H394 0.929 . S
C380 C379 1.362 . S
C380 C381 1.366 . S
C381 C378 1.365 . S
C381 C380 1.366 . S
C381 H395 0.930 . S
C382 C379 1.378 . S
C382 N383 1.315 . S
C382 H385 0.930 . S
N383 Co363 2.194 . S
N383 C378 1.328 . S
N383 C382 1.315 . S
H384 C378 0.929 . S
H385 C382 0.930 . S
H386 C374 0.929 . S
H387 C376 0.929 . S
O388 Co363 2.351 . S
O388 C391 1.244 . S
O389 Co363 2.155 . S
O389 C391 1.240 . S
O390 Co363 2.096 . S
O390 C371 1.247 . S
C391 O388 1.244 . S
C391 O389 1.240 . S
H392 C366 0.931 . S
H393 C375 0.931 1_545 S
H394 C379 0.929 . S
H395 C381 0.930 . S
Co396 N400 2.148 . S
Co396 N406 2.128 . S
Co396 N416 2.194 . S
Co396 O421 2.351 . S
Co396 O422 2.155 . S
Co396 O423 2.096 . S
C397 N400 1.301 . S
C397 N401 1.328 . S
C397 H402 0.930 . S
C398 C399 1.333 . S
C398 N400 1.317 . S
C398 H403 0.930 . S
C399 C398 1.333 . S
C399 N401 1.350 . S
C399 H425 0.931 . S
N400 Co396 2.148 . S
N400 C397 1.301 . S
N400 C398 1.317 . S
N401 C397 1.328 . S
N401 C399 1.350 . S
H402 C397 0.930 . S
H403 C398 0.930 . S
C404 O405 1.224 1_545 S
C404 O423 1.247 1_545 S
O405 C404 1.224 1_565 S
N406 Co396 2.128 . S
N406 C407 1.355 . S
N406 C409 1.311 . S
C407 N406 1.355 . S
C407 C408 1.363 . S
C407 H419 0.929 . S
C408 C407 1.363 . S
C408 N410 1.375 . S
C408 H426 0.931 1_655 S
C409 N406 1.311 . S
C409 N410 1.347 . S
C409 H420 0.929 1_565 S
N410 C408 1.375 . S
N410 C409 1.347 . S
C411 C414 1.365 . S
C411 N416 1.328 . S
C411 H417 0.929 . S
C412 C413 1.362 . S
C412 C415 1.378 . S
C412 H427 0.929 . S
C413 C412 1.362 . S
C413 C414 1.366 . S
C414 C411 1.365 . S
C414 C413 1.366 . S
C414 H428 0.930 . S
C415 C412 1.378 . S
C415 N416 1.315 . S
C415 H418 0.930 . S
N416 Co396 2.194 . S
N416 C411 1.328 . S
N416 C415 1.315 . S
H417 C411 0.929 . S
H418 C415 0.930 . S
H419 C407 0.929 . S
H420 C409 0.929 1_545 S
O421 Co396 2.351 . S
O421 C424 1.244 . S
O422 Co396 2.155 . S
O422 C424 1.240 . S
O423 Co396 2.096 . S
O423 C404 1.247 1_565 S
C424 O421 1.244 . S
C424 O422 1.240 . S
H425 C399 0.931 . S
H426 C408 0.931 1_455 S
H427 C412 0.929 . S
H428 C414 0.930 . S
Co429 N433 2.148 . S
Co429 N439 2.128 . S
Co429 N449 2.194 . S
Co429 O454 2.351 . S
Co429 O455 2.155 . S
Co429 O456 2.096 . S
C430 N433 1.301 . S
C430 N434 1.328 . S
C430 H435 0.930 . S
C431 C432 1.333 . S
C431 N433 1.317 . S
C431 H436 0.930 . S
C432 C431 1.333 . S
C432 N434 1.350 . S
C432 H458 0.931 . S
N433 Co429 2.148 . S
N433 C430 1.301 . S
N433 C431 1.317 . S
N434 C430 1.328 . S
N434 C432 1.350 . S
H435 C430 0.930 . S
H436 C431 0.930 . S
C437 O438 1.224 1_455 S
C437 O456 1.247 1_455 S
O438 C437 1.224 1_655 S
N439 Co429 2.128 . S
N439 C440 1.355 . S
N439 C442 1.311 . S
C440 N439 1.355 . S
C440 C441 1.363 . S
C440 H452 0.929 . S
C441 C440 1.363 . S
C441 N443 1.375 . S
C441 H459 0.931 1_545 S
C442 N439 1.311 . S
C442 N443 1.347 . S
C442 H453 0.929 1_655 S
N443 C441 1.375 . S
N443 C442 1.347 . S
C444 C447 1.365 . S
C444 N449 1.328 . S
C444 H450 0.929 . S
C445 C446 1.362 . S
C445 C448 1.378 . S
C445 H460 0.929 . S
C446 C445 1.362 . S
C446 C447 1.366 . S
C447 C444 1.365 . S
C447 C446 1.366 . S
C447 H461 0.930 . S
C448 C445 1.378 . S
C448 N449 1.315 . S
C448 H451 0.930 . S
N449 Co429 2.194 . S
N449 C444 1.328 . S
N449 C448 1.315 . S
H450 C444 0.929 . S
H451 C448 0.930 . S
H452 C440 0.929 . S
H453 C442 0.929 1_455 S
O454 Co429 2.351 . S
O454 C457 1.244 . S
O455 Co429 2.155 . S
O455 C457 1.240 . S
O456 Co429 2.096 . S
O456 C437 1.247 1_655 S
C457 O454 1.244 . S
C457 O455 1.240 . S
H458 C432 0.931 . S
H459 C441 0.931 1_565 S
H460 C445 0.929 . S
H461 C447 0.930 . S
Co462 N466 2.148 . S
Co462 N472 2.128 . S
Co462 N482 2.194 . S
Co462 O487 2.351 . S
Co462 O488 2.155 . S
Co462 O489 2.096 . S
C463 N466 1.301 . S
C463 N467 1.328 . S
C463 H468 0.930 . S
C464 C465 1.333 . S
C464 N466 1.317 . S
C464 H469 0.930 . S
C465 C464 1.333 . S
C465 N467 1.350 . S
C465 H491 0.931 . S
N466 Co462 2.148 . S
N466 C463 1.301 . S
N466 C464 1.317 . S
N467 C463 1.328 . S
N467 C465 1.350 . S
H468 C463 0.930 . S
H469 C464 0.930 . S
C470 O471 1.224 1_565 S
C470 O489 1.247 1_565 S
O471 C470 1.224 1_545 S
N472 Co462 2.128 . S
N472 C473 1.355 . S
N472 C475 1.311 . S
C473 N472 1.355 . S
C473 C474 1.363 . S
C473 H485 0.929 . S
C474 C473 1.363 . S
C474 N476 1.375 . S
C474 H492 0.931 1_455 S
C475 N472 1.311 . S
C475 N476 1.347 . S
C475 H486 0.929 1_545 S
N476 C474 1.375 . S
N476 C475 1.347 . S
C477 C480 1.365 . S
C477 N482 1.328 . S
C477 H483 0.929 . S
C478 C479 1.362 . S
C478 C481 1.378 . S
C478 H493 0.929 . S
C479 C478 1.362 . S
C479 C480 1.366 . S
C480 C477 1.365 . S
C480 C479 1.366 . S
C480 H494 0.930 . S
C481 C478 1.378 . S
C481 N482 1.315 . S
C481 H484 0.930 . S
N482 Co462 2.194 . S
N482 C477 1.328 . S
N482 C481 1.315 . S
H483 C477 0.929 . S
H484 C481 0.930 . S
H485 C473 0.929 . S
H486 C475 0.929 1_565 S
O487 Co462 2.351 . S
O487 C490 1.244 . S
O488 Co462 2.155 . S
O488 C490 1.240 . S
O489 Co462 2.096 . S
O489 C470 1.247 1_545 S
C490 O487 1.244 . S
C490 O488 1.240 . S
H491 C465 0.931 . S
H492 C474 0.931 1_655 S
H493 C478 0.929 . S
H494 C480 0.930 . S
Co495 N499 2.148 . S
Co495 N505 2.128 . S
Co495 N515 2.194 . S
Co495 O520 2.351 . S
Co495 O521 2.155 . S
Co495 O522 2.096 . S
C496 N499 1.301 . S
C496 N500 1.328 . S
C496 H501 0.930 . S
C497 C498 1.333 . S
C497 N499 1.317 . S
C497 H502 0.930 . S
C498 C497 1.333 . S
C498 N500 1.350 . S
C498 H524 0.931 . S
N499 Co495 2.148 . S
N499 C496 1.301 . S
N499 C497 1.317 . S
N500 C496 1.328 . S
N500 C498 1.350 . S
H501 C496 0.930 . S
H502 C497 0.930 . S
C503 O504 1.224 1_655 S
C503 O522 1.247 1_655 S
O504 C503 1.224 1_455 S
N505 Co495 2.128 . S
N505 C506 1.355 . S
N505 C508 1.311 . S
C506 N505 1.355 . S
C506 C507 1.363 . S
C506 H518 0.929 . S
C507 C506 1.363 . S
C507 N509 1.375 . S
C507 H525 0.931 1_565 S
C508 N505 1.311 . S
C508 N509 1.347 . S
C508 H519 0.929 1_455 S
N509 C507 1.375 . S
N509 C508 1.347 . S
C510 C513 1.365 . S
C510 N515 1.328 . S
C510 H516 0.929 . S
C511 C512 1.362 . S
C511 C514 1.378 . S
C511 H526 0.929 . S
C512 C511 1.362 . S
C512 C513 1.366 . S
C513 C510 1.365 . S
C513 C512 1.366 . S
C513 H527 0.930 . S
C514 C511 1.378 . S
C514 N515 1.315 . S
C514 H517 0.930 . S
N515 Co495 2.194 . S
N515 C510 1.328 . S
N515 C514 1.315 . S
H516 C510 0.929 . S
H517 C514 0.930 . S
H518 C506 0.929 . S
H519 C508 0.929 1_655 S
O520 Co495 2.351 . S
O520 C523 1.244 . S
O521 Co495 2.155 . S
O521 C523 1.240 . S
O522 Co495 2.096 . S
O522 C503 1.247 1_455 S
C523 O520 1.244 . S
C523 O521 1.240 . S
H524 C498 0.931 . S
H525 C507 0.931 1_545 S
H526 C511 0.929 . S
H527 C513 0.930 . S
C28 C490 2.071 . S
C61 C523 2.071 . S
C94 C424 2.071 . S
C127 C457 2.071 . S
C160 C358 1.883 . S
C193 C391 1.883 . S
C292 C226 1.883 . S
C325 C259 1.883 . S
C8 N38 1.562 . S
C41 N71 1.562 . S
C74 N104 1.562 . S
N5 C107 1.562 . S
N500 C140 1.675 . S
N401 C173 1.675 . S
N434 C206 1.675 . S
N467 C239 1.675 . S
C272 N302 1.649 . S
C305 N335 1.649 . S
N368 C338 1.649 . S
C371 N269 1.649 . S
C404 N236 1.696 . S
N137 C437 1.696 . S
N170 C470 1.696 . S
C503 N203 1.696 . S
N14 N80 1.731 1_545 S
N47 N113 1.731 1_455 S
N212 N146 1.841 . S
N245 N179 1.841 . S
N278 N344 1.784 1_655 S
N311 N377 1.784 1_545 S
N410 N476 1.854 1_665 S
N443 N509 1.854 1_645 S
C149 C17 1.463 . S
C182 C50 1.463 . S
C83 C215 1.463 . S
C248 C116 1.463 . S
C281 C413 1.676 . S
C446 C314 1.676 . S
C479 C347 1.676 . S
C380 C512 1.676 . S
