# Generated by pormake.
# Topology rob, (6)-cn, num edge types: 1
# Building blocks:
#     Node 0, Type 0, BuildingBlock: KUMBUR_clean_sbu_0, # of connection points: 6
#     Node 1, Type 0, BuildingBlock: KUMBUR_clean_sbu_0, # of connection points: 6
#     Node 2, Type 0, BuildingBlock: KUMBUR_clean_sbu_0, # of connection points: 6
#     Node 3, Type 0, BuildingBlock: KUMBUR_clean_sbu_0, # of connection points: 6
#     Edge 4, Type (0, 0), BuildingBlock: XIVTED_clean_linker_0, # of connection points: 2
#     Edge 5, Type (0, 0), BuildingBlock: XIVTED_clean_linker_0, # of connection points: 2
#     Edge 6, Type (0, 0), BuildingBlock: XIVTED_clean_linker_0, # of connection points: 2
#     Edge 7, Type (0, 0), BuildingBlock: XIVTED_clean_linker_0, # of connection points: 2
#     Edge 8, Type (0, 0), BuildingBlock: XIVTED_clean_linker_0, # of connection points: 2
#     Edge 9, Type (0, 0), BuildingBlock: XIVTED_clean_linker_0, # of connection points: 2
#     Edge 10, Type (0, 0), BuildingBlock: XIVTED_clean_linker_0, # of connection points: 2
#     Edge 11, Type (0, 0), BuildingBlock: XIVTED_clean_linker_0, # of connection points: 2
#     Edge 12, Type (0, 0), BuildingBlock: XIVTED_clean_linker_0, # of connection points: 2
#     Edge 13, Type (0, 0), BuildingBlock: XIVTED_clean_linker_0, # of connection points: 2
#     Edge 14, Type (0, 0), BuildingBlock: XIVTED_clean_linker_0, # of connection points: 2
#     Edge 15, Type (0, 0), BuildingBlock: XIVTED_clean_linker_0, # of connection points: 2
# Relax obj value: 0.035
# Max RMSD: 0.159
# Mean RMSD: 0.159
data_MOF--net-rob--node1-KUMBUR_clean_sbu_0--edge1-XIVTED_clean_linker_0
_symmetry_space_group_name_H-M    P1
_symmetry_Int_Tables_number       1
_symmetry_cell_setting            triclinic
loop_
_symmetry_equiv_pos_as_xyz
'x, y, z'
_cell_length_a     15.971034
_cell_length_b     26.220184
_cell_length_c     33.987527
_cell_angle_alpha  119.60684
_cell_angle_beta   90.072084
_cell_angle_gamma 90.129983
loop_
_atom_site_label
_atom_site_type_symbol
_atom_site_fract_x
_atom_site_fract_y
_atom_site_fract_z
_atom_type_partial_charge
Tb0 Tb 0.19717 0.30149 0.06605 0.0
C1 C 0.40531 0.07766 0.96229 0.0
C2 C 0.52707 0.09771 1.01001 0.0
C3 C 0.47805 0.99734 0.96379 0.0
C4 C 0.46022 0.11726 0.99376 0.0
C5 C 0.41464 0.01702 0.94589 0.0
C6 C 0.5345 0.03763 0.99569 0.0
C7 C 0.30265 1.00006 0.89295 0.0
N8 N 0.345 0.09866 0.94609 0.0
C9 C 0.29568 0.06071 0.91058 0.0
C10 C 0.36149 0.97811 0.91118 0.0
Tb11 Tb 0.33569 0.19875 0.97832 0.0
N12 N 0.45119 0.17463 1.00613 0.0
C13 C 0.51161 0.21428 0.03189 0.0
C14 C 0.58583 0.13884 0.03889 0.0
C15 C 0.57888 0.19721 0.04919 0.0
H16 H 0.24957 0.07709 0.89639 0.0
H17 H 0.62512 0.2292 0.07061 0.0
H18 H 0.58487 0.02174 1.00813 0.0
H19 H 0.2625 0.97028 0.8654 0.0
H20 H 0.50724 0.25964 0.04047 0.0
H21 H 0.90286 0.26632 0.97667 0.0
H22 H 0.638 0.12572 0.05227 0.0
H23 H 0.28693 0.42444 0.14369 0.0
H24 H 0.02391 0.23784 1.00594 0.0
H25 H 0.27273 0.53089 0.17259 0.0
H26 H 0.48513 0.95107 0.95247 0.0
H27 H 0.88668 0.36914 0.99391 0.0
H28 H 0.93909 0.47339 0.03554 0.0
H29 H 0.36673 0.93116 0.89752 0.0
H30 H 0.04121 0.54547 0.08813 0.0
N31 N 0.07854 0.32342 0.03903 0.0
C32 C 0.01825 0.28298 1.01417 0.0
C33 C 0.94025 0.35692 1.00701 0.0
C34 C 0.99936 0.39881 0.03468 0.0
C35 C 0.9491 0.29891 0.99731 0.0
C36 C 0.06808 0.38045 0.05062 0.0
H37 H 0.16336 0.56774 0.14133 0.0
N38 N 0.18722 0.40111 0.09613 0.0
C39 C 0.23089 0.50037 0.14641 0.0
C40 C 0.12434 0.42088 0.08045 0.0
C41 C 0.23854 0.44001 0.13007 0.0
C42 C 0.16923 0.52101 0.12862 0.0
C43 C 0.1143 0.48114 0.09556 0.0
O44 O 0.19985 0.32754 0.13537 0.0
O45 O 0.2987 0.24021 0.04805 0.0
O46 O 0.257 0.1464 0.99728 0.0
O47 O 0.14558 0.21118 0.03224 0.0
O48 O 0.30941 0.31555 0.10775 0.0
O49 O 0.09248 0.28248 0.09423 0.0
O50 O 0.33715 0.1771 0.90983 0.0
O51 O 0.23311 0.2594 0.99602 0.0
O52 O 0.27317 0.3523 0.04462 0.0
O53 O 0.38707 0.28919 1.01347 0.0
O54 O 0.22451 0.1838 0.93608 0.0
O55 O 0.44337 0.21895 0.95299 0.0
C56 C 0.34443 0.26567 0.08267 0.0
C57 C 0.07047 0.34495 0.17294 0.0
C58 C 0.0102 0.36693 0.24597 0.0
C59 C 0.06402 0.33369 0.20916 0.0
C60 C 0.96468 0.41301 0.24614 0.0
C61 C 0.02487 0.39111 0.17391 0.0
C62 C 0.97248 0.42507 0.21051 0.0
C63 C 0.1799 0.15811 1.01376 0.0
C64 C 0.12514 0.30741 0.13471 0.0
C65 C 0.04873 0.49954 0.07795 0.0
C66 C 0.99096 0.45845 0.04776 0.0
C67 C 0.18766 0.23287 0.96131 0.0
C68 C 0.46897 0.15795 0.87465 0.0
C69 C 0.47629 0.16711 0.83739 0.0
C70 C 0.52761 0.13077 0.80018 0.0
C71 C 0.57203 0.08527 0.80161 0.0
C72 C 0.51424 0.11274 0.87535 0.0
C73 C 0.56594 0.0769 0.83907 0.0
C74 C 0.35115 0.34145 0.02963 0.0
C75 C 0.4132 0.19608 0.9121 0.0
H76 H 0.10116 0.29866 0.20837 0.0
H77 H 0.9212 0.4388 0.27311 0.0
H78 H 0.02929 0.40055 0.14637 0.0
H79 H 0.93661 0.46026 0.21088 0.0
H80 H 0.44276 0.2034 0.83808 0.0
H81 H 0.61068 0.05531 0.77358 0.0
H82 H 0.50962 0.10515 0.90381 0.0
H83 H 0.60058 0.04184 0.83965 0.0
Tb84 Tb 0.69663 0.80859 0.072 0.0
C85 C 0.88419 0.578 0.95898 0.0
C86 C 0.01609 0.59449 0.99851 0.0
C87 C 0.95904 0.49572 0.95628 0.0
C88 C 0.94568 0.61594 0.98622 0.0
C89 C 0.89098 0.51722 0.94265 0.0
C90 C 0.0216 0.53432 0.98416 0.0
C91 C 0.76659 0.50335 0.8979 0.0
N92 N 0.81953 0.6006 0.94669 0.0
C93 C 0.7626 0.56403 0.91509 0.0
C94 C 0.83044 0.47987 0.91219 0.0
Tb95 Tb 0.81766 0.70055 0.97717 0.0
N96 N 0.93844 0.67351 0.99874 0.0
C97 C 1.00296 0.71142 0.02099 0.0
C98 C 0.07978 0.63389 0.02375 0.0
C99 C 0.07369 0.69246 0.03446 0.0
H100 H 0.71297 0.58167 0.90383 0.0
H101 H 0.12343 0.7231 0.05315 0.0
H102 H 0.07486 0.51701 0.99352 0.0
H103 H 0.72044 0.47474 0.87363 0.0
H104 H 0.99953 0.75685 0.02966 0.0
H105 H 0.38998 0.78679 0.99711 0.0
H106 H 0.13474 0.61928 0.03408 0.0
H107 H 0.80281 0.92737 0.14483 0.0
H108 H 0.51442 0.75264 1.01982 0.0
H109 H 0.79492 0.03433 0.17561 0.0
H110 H 0.96473 0.44927 0.94474 0.0
H111 H 0.3783 0.89083 1.01687 0.0
H112 H 0.43781 0.99312 0.05798 0.0
H113 H 0.83358 0.43286 0.89871 0.0
H114 H 0.54761 0.06077 0.10711 0.0
N115 N 0.57559 0.83596 0.05091 0.0
C116 C 0.51089 0.79816 0.02877 0.0
C117 C 0.43354 0.87604 0.02683 0.0
C118 C 0.49735 0.91535 0.05204 0.0
C119 C 0.43983 0.81735 1.01573 0.0
C120 C 0.56818 0.89366 0.06382 0.0
H121 H 0.68034 0.07664 0.15183 0.0
N122 N 0.69523 0.90865 0.10263 0.0
C123 C 0.74843 0.00584 0.15153 0.0
C124 C 0.62994 0.93148 0.09094 0.0
C125 C 0.75271 0.94509 0.13395 0.0
C126 C 0.68374 0.02957 0.13798 0.0
C127 C 0.62278 0.99238 0.10777 0.0
O128 O 0.71332 0.82566 0.13881 0.0
O129 O 0.7948 0.74386 0.0489 0.0
O130 O 0.74455 0.65229 1.00196 0.0
O131 O 0.63857 0.72012 0.041 0.0
O132 O 0.81637 0.82025 0.10692 0.0
O133 O 0.59221 0.802 0.10762 0.0
O134 O 0.8025 0.68039 0.90953 0.0
O135 O 0.71936 0.76492 1.00031 0.0
O136 O 0.76997 0.85705 0.04729 0.0
O137 O 0.87544 0.78895 1.00776 0.0
O138 O 0.69863 0.68958 0.94147 0.0
O139 O 0.92169 0.70954 0.94263 0.0
C140 C 0.84701 0.76906 0.0807 0.0
C141 C 0.59865 0.86071 0.18807 0.0
C142 C 0.55348 0.88667 0.2648 0.0
C143 C 0.57911 0.84431 0.22076 0.0
C144 C 0.54949 0.94572 0.27539 0.0
C145 C 0.59048 0.9195 0.19917 0.0
C146 C 0.56681 0.96175 0.2427 0.0
C147 C 0.67044 0.66628 0.02188 0.0
C148 C 0.63522 0.81717 0.14438 0.0
C149 C 0.55393 0.01418 0.09492 0.0
C150 C 0.49141 0.97566 0.06695 0.0
C151 C 0.66751 0.74036 0.96827 0.0
C152 C 0.92065 0.64824 0.86249 0.0
C153 C 0.93601 0.66317 0.82864 0.0
C154 C 0.9676 0.62131 0.78589 0.0
C155 C 0.98303 0.56409 0.77792 0.0
C156 C 0.93858 0.5914 0.85394 0.0
C157 C 0.96929 0.54957 0.81181 0.0
C158 C 0.84383 0.84286 0.02701 0.0
C159 C 0.88013 0.69132 0.90499 0.0
H160 H 0.58414 0.79862 0.21174 0.0
H161 H 0.53414 0.97977 0.30924 0.0
H162 H 0.60417 0.9331 0.17467 0.0
H163 H 0.56326 0.0073 0.25129 0.0
H164 H 0.92341 0.70756 0.8359 0.0
H165 H 1.00482 0.5302 0.7453 0.0
H166 H 0.92778 0.57901 0.87944 0.0
H167 H 0.98155 0.50549 0.80523 0.0
Tb168 Tb 0.19372 0.69998 0.4777 0.0
C169 C 0.37762 0.9334 0.59294 0.0
C170 C 0.50979 0.92033 0.55445 0.0
C171 C 0.45092 0.01805 0.59829 0.0
C172 C 0.43999 0.89691 0.56558 0.0
C173 C 0.38309 0.99456 0.61048 0.0
C174 C 0.5141 0.98095 0.57021 0.0
C175 C 0.25749 0.00495 0.65331 0.0
N176 N 0.31313 0.90898 0.60389 0.0
C177 C 0.2548 0.94402 0.63504 0.0
C178 C 0.32138 0.03031 0.64062 0.0
Tb179 Tb 0.31513 0.80877 0.57234 0.0
N180 N 0.43426 0.83883 0.55181 0.0
C181 C 0.49966 0.80235 0.52944 0.0
C182 C 0.57428 0.88239 0.52899 0.0
C183 C 0.5697 0.82329 0.51701 0.0
H184 H 0.20533 0.92511 0.64534 0.0
H185 H 0.62012 0.79378 0.4982 0.0
H186 H 0.56691 0.99972 0.56176 0.0
H187 H 0.21039 0.03232 0.67729 0.0
H188 H 0.49747 0.75657 0.51992 0.0
H189 H 0.88722 0.72597 0.55332 0.0
H190 H 0.62877 0.89853 0.51952 0.0
H191 H 0.29463 0.57972 0.40525 0.0
H192 H 0.0119 0.75782 0.52903 0.0
H193 H 0.28472 0.47303 0.37631 0.0
H194 H 0.45591 0.06486 0.61103 0.0
H195 H 0.87398 0.62311 0.53654 0.0
H196 H 0.93217 0.52054 0.49793 0.0
H197 H 0.3235 0.07752 0.65499 0.0
H198 H 0.04026 0.45131 0.44924 0.0
N199 N 0.07162 0.67426 0.49951 0.0
C200 C 0.00767 0.71271 0.5211 0.0
C201 C 0.92925 0.63684 0.52572 0.0
C202 C 0.9922 0.59678 0.50105 0.0
C203 C 0.93643 0.69485 0.53512 0.0
C204 C 0.06299 0.61712 0.48805 0.0
H205 H 0.17074 0.43292 0.40248 0.0
N206 N 0.188 0.60012 0.44796 0.0
C207 C 0.23907 0.50225 0.40034 0.0
C208 C 0.12329 0.57847 0.461 0.0
C209 C 0.24429 0.56274 0.4167 0.0
C210 C 0.17482 0.47977 0.41527 0.0
C211 C 0.11524 0.51794 0.4456 0.0
O212 O 0.20289 0.66983 0.40773 0.0
O213 O 0.29245 0.76451 0.5004 0.0
O214 O 0.24185 0.85704 0.54757 0.0
O215 O 0.13643 0.78853 0.50775 0.0
O216 O 0.31156 0.68939 0.44137 0.0
O217 O 0.09616 0.71978 0.44598 0.0
O218 O 0.29954 0.82208 0.63812 0.0
O219 O 0.21799 0.74301 0.54906 0.0
O220 O 0.2694 0.65262 0.50256 0.0
O221 O 0.37541 0.72129 0.54102 0.0
O222 O 0.19581 0.81839 0.60743 0.0
O223 O 0.42177 0.80627 0.60853 0.0
C224 C 0.34343 0.74002 0.46807 0.0
C225 C 0.0752 0.65398 0.36806 0.0
C226 C 0.01232 0.6325 0.29556 0.0
C227 C 0.06981 0.66397 0.33116 0.0
C228 C 0.96218 0.58934 0.29734 0.0
C229 C 0.02529 0.61051 0.36882 0.0
C230 C 0.9694 0.57818 0.33343 0.0
C231 C 0.1681 0.8426 0.52702 0.0
C232 C 0.13063 0.69153 0.40614 0.0
C233 C 0.04699 0.49753 0.46006 0.0
C234 C 0.98554 0.53696 0.48784 0.0
C235 C 0.16575 0.76699 0.58075 0.0
C236 C 0.41123 0.86154 0.6891 0.0
C237 C 0.43033 0.84438 0.72134 0.0
C238 C 0.4506 0.88654 0.76639 0.0
C239 C 0.44991 0.94619 0.77855 0.0
C240 C 0.41453 0.9211 0.70175 0.0
C241 C 0.4329 0.96316 0.74634 0.0
C242 C 0.3441 0.66717 0.52218 0.0
C243 C 0.37859 0.81753 0.6444 0.0
H244 H 0.11026 0.69688 0.3307 0.0
H245 H 0.91552 0.5652 0.27162 0.0
H246 H 0.02857 0.60224 0.39697 0.0
H247 H 0.93007 0.54522 0.33449 0.0
H248 H 0.4288 0.79819 0.71123 0.0
H249 H 0.46121 0.97983 0.81319 0.0
H250 H 0.40091 0.93535 0.67762 0.0
H251 H 0.43241 0.00917 0.75611 0.0
Tb252 Tb 0.68134 0.20297 0.48021 0.0
C253 C 0.89851 0.42459 0.58533 0.0
C254 C 0.02255 0.40405 0.53935 0.0
C255 C 0.9772 0.50488 0.5866 0.0
C256 C 0.95342 0.38471 0.55433 0.0
C257 C 0.91064 0.48529 0.60278 0.0
C258 C 0.03313 0.46429 0.5549 0.0
C259 C 0.79407 0.50247 0.65298 0.0
N260 N 0.83507 0.40377 0.59988 0.0
C261 C 0.7845 0.44178 0.63444 0.0
C262 C 0.8568 0.52435 0.6367 0.0
Tb263 Tb 0.82363 0.30378 0.56743 0.0
N264 N 0.94136 0.32711 0.54068 0.0
C265 C 1.00034 0.28683 0.51451 0.0
C266 C 0.08011 0.36244 0.51024 0.0
C267 C 0.06957 0.30368 0.49832 0.0
H268 H 0.73551 0.42534 0.64709 0.0
H269 H 0.11471 0.27125 0.47661 0.0
H270 H 0.08538 0.48001 0.54348 0.0
H271 H 0.753 0.5323 0.67977 0.0
H272 H 0.99348 0.24118 0.50473 0.0
H273 H 0.39449 0.23506 0.57436 0.0
H274 H 0.13389 0.37539 0.49778 0.0
H275 H 0.7633 0.08106 0.3973 0.0
H276 H 0.51237 0.26496 0.54389 0.0
H277 H 0.74687 0.9742 0.36533 0.0
H278 H 0.98687 0.55126 0.599 0.0
H279 H 0.37887 0.13141 0.55526 0.0
H280 H 0.42855 0.02702 0.51 0.0
H281 H 0.8642 0.57133 0.65115 0.0
H282 H 0.52505 0.95569 0.45305 0.0
N283 N 0.56591 0.17944 0.50854 0.0
C284 C 0.50687 0.21951 0.53493 0.0
C285 C 0.43109 0.14429 0.54173 0.0
C286 C 0.48833 0.10278 0.51223 0.0
C287 C 0.43958 0.20276 0.55245 0.0
C288 C 0.55536 0.12201 0.49581 0.0
H289 H 0.64194 0.93536 0.39739 0.0
N290 N 0.66937 0.10289 0.44755 0.0
C291 C 0.70805 0.00411 0.39333 0.0
C292 C 0.60882 0.08212 0.46384 0.0
C293 C 0.71702 0.06478 0.4115 0.0
C294 C 0.64886 0.98233 0.41155 0.0
C295 C 0.5975 0.02146 0.4469 0.0
O296 O 0.67758 0.18163 0.41178 0.0
O297 O 0.78487 0.26352 0.49771 0.0
O298 O 0.74688 0.35656 0.54796 0.0
O299 O 0.63207 0.29372 0.51658 0.0
O300 O 0.79098 0.18815 0.43731 0.0
O301 O 0.57362 0.22469 0.45595 0.0
O302 O 0.82618 0.32878 0.63664 0.0
O303 O 0.721 0.24311 0.54948 0.0
O304 O 0.76034 0.14926 0.49765 0.0
O305 O 0.87365 0.21307 0.53189 0.0
O306 O 0.71368 0.3168 0.61031 0.0
O307 O 0.92835 0.28046 0.5926 0.0
C308 C 0.82884 0.23701 0.46255 0.0
C309 C 0.54419 0.16342 0.37799 0.0
C310 C 0.48281 0.13515 0.30373 0.0
C311 C 0.53603 0.17153 0.34025 0.0
C312 C 0.43752 0.09067 0.30638 0.0
C313 C 0.4978 0.11933 0.3799 0.0
C314 C 0.44434 0.08347 0.34435 0.0
C315 C 0.66845 0.34608 0.53323 0.0
C316 C 0.60194 0.20134 0.41474 0.0
C317 C 0.53381 1.00201 0.46487 0.0
C318 C 0.4791 0.04265 0.49744 0.0
C319 C 0.677 0.2676 0.58466 0.0
C320 C 0.95926 0.34127 0.67055 0.0
C321 C 0.96332 0.33241 0.70806 0.0
C322 C 0.02273 0.36249 0.74285 0.0
C323 C 0.07678 0.40279 0.73958 0.0
C324 C 0.01323 0.38187 0.66823 0.0
C325 C 0.07158 0.4125 0.7027 0.0
C326 C 0.83808 0.1602 0.51354 0.0
C327 C 0.89973 0.30609 0.63388 0.0
H328 H 0.57043 0.20703 0.34002 0.0
H329 H 0.3975 0.06061 0.27893 0.0
H330 H 0.50283 0.11263 0.40877 0.0
H331 H 0.40884 0.04929 0.3459 0.0
H332 H 0.92016 0.30164 0.70978 0.0
H333 H 0.12443 0.42602 0.76496 0.0
H334 H 0.01092 0.38937 0.63966 0.0
H335 H 0.11372 0.44345 0.70059 0.0
H336 H 0.50575 0.66823 0.04574 0.0
H337 H 0.51815 0.34333 1.0117 0.0
H338 H 0.72466 0.55749 1.00245 0.0
H339 H 0.29468 0.44933 0.0474 0.0
H340 H 0.59572 0.42268 1.01022 0.0
H341 H 0.428 0.58976 0.04875 0.0
C342 C 0.53744 0.62745 0.03675 0.0
C343 C 0.62168 0.61931 0.0234 0.0
C344 C 0.52975 0.42866 1.01857 0.0
C345 C 0.53324 0.52947 0.02697 0.0
C346 C 0.48539 0.38333 1.01945 0.0
C347 C 0.39982 0.38974 0.03005 0.0
C348 C 0.48829 0.48079 0.02827 0.0
C349 C 0.36076 0.44263 0.03968 0.0
C350 C 0.493 0.58264 0.03846 0.0
C351 C 0.65953 0.56554 1.01226 0.0
N352 N 0.40528 0.48606 0.03854 0.0
N353 N 0.61508 0.52276 1.01432 0.0
H354 H 0.50874 0.67157 0.5476 0.0
H355 H 0.50202 0.34642 0.51359 0.0
H356 H 0.29262 0.55726 0.50221 0.0
H357 H 0.72307 0.45606 0.55373 0.0
H358 H 0.4239 0.42471 0.51138 0.0
H359 H 0.58788 0.59461 0.55192 0.0
C360 C 0.47793 0.63031 0.53839 0.0
C361 C 0.39398 0.62081 0.52411 0.0
C362 C 0.48942 0.43179 0.52085 0.0
C363 C 0.48417 0.53262 0.52924 0.0
C364 C 0.5342 0.38703 0.52218 0.0
C365 C 0.61939 0.39455 0.53404 0.0
C366 C 0.52989 0.48468 0.53137 0.0
C367 C 0.6574 0.44833 0.54479 0.0
C368 C 0.5232 0.58637 0.54088 0.0
C369 C 0.35742 0.56644 0.51276 0.0
N370 N 0.61245 0.49126 0.54312 0.0
N371 N 0.40265 0.52456 0.5156 0.0
H372 H 0.23225 0.0473 0.99101 0.0
H373 H 0.79203 0.953 0.04823 0.0
H374 H 0.01479 0.1594 0.03629 0.0
H375 H 0.0072 0.8389 1.0006 0.0
H376 H 0.87306 0.02899 0.04412 0.0
H377 H 0.15081 0.97008 0.99338 0.0
C378 C 0.16719 0.05559 1.00101 0.0
C379 C 0.1303 0.10997 1.01317 0.0
C380 C 0.9027 0.98741 0.03465 0.0
C381 C 0.03689 0.02177 1.01663 0.0
C382 C 0.85655 0.94399 0.03727 0.0
C383 C 0.89302 0.88953 0.02519 0.0
C384 C 0.98606 0.97642 1.01971 0.0
C385 C 0.97648 0.88021 1.01036 0.0
C386 C 0.12081 0.01148 1.0026 0.0
C387 C 0.04601 0.11828 0.02657 0.0
N388 N 0.02019 0.92324 1.0081 0.0
N389 N 1.00228 0.07471 0.02799 0.0
H390 H 0.78345 0.0494 0.49049 0.0
H391 H 0.22111 0.95275 0.54836 0.0
H392 H 1.00355 0.15991 0.53547 0.0
H393 H 1.0048 0.83887 0.49957 0.0
H394 H 0.14173 0.02886 0.5439 0.0
H395 H 0.8631 0.97149 0.49267 0.0
C396 C 0.84872 0.05722 0.50036 0.0
C397 C 0.88681 0.11143 0.51253 0.0
C398 C 0.11141 0.98731 0.53424 0.0
C399 C 0.97824 0.0223 0.51577 0.0
C400 C 0.15665 0.94378 0.53706 0.0
C401 C 0.11948 0.88929 0.5248 0.0
C402 C 0.02812 0.97656 0.51892 0.0
C403 C 0.0361 0.88015 0.50951 0.0
C404 C 0.89409 0.01268 0.50184 0.0
C405 C 0.97134 0.119 0.52576 0.0
N406 N 0.99323 0.92335 0.50708 0.0
N407 N 0.01402 0.07505 0.52709 0.0
H408 H 0.34399 0.11314 0.24881 0.0
H409 H 0.468 0.30819 0.14603 0.0
H410 H 0.59782 0.17905 0.26659 0.0
H411 H 0.30946 0.15682 0.07197 0.0
H412 H 0.51502 0.26722 0.19357 0.0
H413 H 0.32618 0.13324 0.18678 0.0
C414 C 0.39672 0.13095 0.23957 0.0
C415 C 0.47264 0.14458 0.26385 0.0
C416 C 0.47137 0.24244 0.1662 0.0
C417 C 0.45057 0.16989 0.19323 0.0
C418 C 0.44458 0.26575 0.13915 0.0
C419 C 0.38523 0.2357 0.10481 0.0
C420 C 0.43603 0.18985 0.15988 0.0
C421 C 0.35591 0.1812 0.09759 0.0
C422 C 0.38603 0.14269 0.20406 0.0
C423 C 0.53722 0.16923 0.25021 0.0
N424 N 0.38033 0.16057 0.12547 0.0
N425 N 0.52423 0.18201 0.2164 0.0
H426 H 0.43183 0.93461 0.33054 0.0
H427 H 0.47203 0.69552 0.40897 0.0
H428 H 0.62267 0.80081 0.27954 0.0
H429 H 0.32055 0.85068 0.47892 0.0
H430 H 0.53297 0.73544 0.36371 0.0
H431 H 0.39385 0.90644 0.38657 0.0
C432 C 0.46653 0.89964 0.33123 0.0
C433 C 0.53066 0.87 0.29974 0.0
C434 C 0.48746 0.7613 0.38949 0.0
C435 C 0.48587 0.83674 0.364 0.0
C436 C 0.45294 0.73861 0.41544 0.0
C437 C 0.39156 0.76993 0.44797 0.0
C438 C 0.45904 0.81527 0.39534 0.0
C439 C 0.36827 0.82526 0.45466 0.0
C440 C 0.44434 0.8834 0.36329 0.0
C441 C 0.5718 0.82431 0.30227 0.0
N442 N 0.40127 0.84584 0.4282 0.0
N443 N 0.5484 0.80893 0.33356 0.0
H444 H 0.6887 0.8524 0.98167 0.0
H445 H 0.38247 0.79751 0.77735 0.0
H446 H 0.54133 0.69522 0.907 0.0
H447 H 0.56822 0.93544 0.83444 0.0
H448 H 0.42363 0.76745 0.83221 0.0
H449 H 0.62632 0.89248 0.93715 0.0
C450 C 0.64173 0.82685 0.95672 0.0
C451 C 0.61973 0.77047 0.94829 0.0
C452 C 0.45512 0.80443 0.83279 0.0
C453 C 0.54949 0.8155 0.89614 0.0
C454 C 0.43209 0.8214 0.80121 0.0
C455 C 0.47238 0.86881 0.80073 0.0
C456 C 0.51889 0.83503 0.86433 0.0
C457 C 0.5348 0.8989 0.83348 0.0
C458 C 0.60664 0.84955 0.9309 0.0
C459 C 0.55971 0.73896 0.91466 0.0
N460 N 0.55636 0.88132 0.86367 0.0
N461 N 0.52701 0.76171 0.88966 0.0
H462 H 0.70708 0.15607 0.56962 0.0
H463 H 0.41158 0.17636 0.76497 0.0
H464 H 0.55694 0.30945 0.64972 0.0
H465 H 0.66452 0.10944 0.74449 0.0
H466 H 0.43422 0.20217 0.70572 0.0
H467 H 0.65769 0.11383 0.61536 0.0
C468 C 0.66194 0.18022 0.5959 0.0
C469 C 0.63575 0.23636 0.60571 0.0
C470 C 0.48406 0.18123 0.71415 0.0
C471 C 0.57985 0.18838 0.65848 0.0
C472 C 0.4718 0.16694 0.74832 0.0
C473 C 0.53671 0.14147 0.7609 0.0
C474 C 0.56085 0.16861 0.69143 0.0
C475 C 0.61196 0.12838 0.73624 0.0
C476 C 0.63438 0.15622 0.62226 0.0
C477 C 0.57846 0.26603 0.64108 0.0
N478 N 0.62188 0.14214 0.70285 0.0
N479 N 0.55245 0.24177 0.66634 0.0
H480 H 0.96743 0.81712 0.14466 0.0
H481 H 0.9658 0.55897 0.20604 0.0
H482 H 0.82853 0.65647 0.06742 0.0
H483 H 0.03302 0.73929 0.29913 0.0
H484 H 0.93705 0.58642 0.14831 0.0
H485 H 0.02093 0.77943 0.19276 0.0
C486 C 0.94974 0.7733 0.13718 0.0
C487 C 0.89343 0.74 0.10198 0.0
C488 C 0.95992 0.61949 0.18112 0.0
C489 C 0.95295 0.6969 0.15751 0.0
C490 C 0.97522 0.60416 0.21453 0.0
C491 C 1.00164 0.64678 0.25819 0.0
C492 C 0.97337 0.67745 0.19077 0.0
C493 C 0.01452 0.70425 0.26614 0.0
C494 C 0.97976 0.75197 0.16484 0.0
C495 C 0.87215 0.68357 0.0939 0.0
N496 N 1.00039 0.7177 0.23289 0.0
N497 N 0.90134 0.66396 0.12174 0.0
H498 H 0.82503 0.35196 0.47961 0.0
H499 H 0.01333 0.25756 0.2383 0.0
H500 H 0.93793 0.18359 0.39375 0.0
H501 H 0.97862 0.44031 0.33746 0.0
H502 H 0.98831 0.23175 0.29659 0.0
H503 H 0.88454 0.38822 0.43146 0.0
C504 C 0.86407 0.32308 0.45139 0.0
C505 C 0.8769 0.26464 0.44073 0.0
C506 C 0.98691 0.27762 0.30584 0.0
C507 C 0.94216 0.30506 0.38453 0.0
C508 C 1.00183 0.29261 0.27242 0.0
C509 C 0.99841 0.35142 0.28254 0.0
C510 C 0.96662 0.32138 0.34992 0.0
C511 C 0.98048 0.39425 0.32756 0.0
C512 C 0.89753 0.34368 0.42368 0.0
C513 C 0.92653 0.22889 0.40311 0.0
N514 N 0.96436 0.37833 0.35943 0.0
N515 N 0.95636 0.24936 0.37613 0.0
H516 H 0.06693 0.43773 0.83229 0.0
H517 H 0.07166 0.18112 0.89545 0.0
H518 H 0.99902 0.25718 0.74084 0.0
H519 H 0.19994 0.34586 0.97489 0.0
H520 H 0.01599 0.21741 0.84689 0.0
H521 H 0.09245 0.41226 0.89155 0.0
C522 C 0.05691 0.39286 0.82453 0.0
C523 C 0.0313 0.34953 0.78095 0.0
C524 C 0.05524 0.24608 0.87537 0.0
C525 C 0.05762 0.32077 0.84953 0.0
C526 C 0.08654 0.2255 0.90326 0.0
C527 C 0.14025 0.2605 0.93932 0.0
C528 C 0.07859 0.30201 0.88316 0.0
C529 C 0.15813 0.31756 0.94779 0.0
C530 C 0.07073 0.37857 0.85865 0.0
C531 C 0.01747 0.29253 0.77373 0.0
N532 N 0.12801 0.33638 0.91962 0.0
N533 N 0.03101 0.27993 0.80748 0.0
H534 H 0.1913 0.65556 0.56762 0.0
H535 H 0.88259 0.69866 0.76706 0.0
H536 H 0.03917 0.80959 0.64184 0.0
H537 H 0.09289 0.57989 0.72173 0.0
H538 H 0.9186 0.72782 0.71105 0.0
H539 H 0.13207 0.61419 0.61194 0.0
C540 C 0.14399 0.68016 0.59242 0.0
C541 C 0.1198 0.73609 0.6008 0.0
C542 C 0.95643 0.69514 0.71331 0.0
C543 C 0.05313 0.68949 0.65269 0.0
C544 C 0.93641 0.67872 0.74559 0.0
C545 C 0.98527 0.63716 0.74994 0.0
C546 C 0.02535 0.66952 0.68466 0.0
C547 C 0.05263 0.61169 0.71978 0.0
C548 C 0.11074 0.65671 0.61813 0.0
C549 C 0.0593 0.76627 0.63425 0.0
N550 N 0.07076 0.62842 0.68869 0.0
N551 N 0.02832 0.74278 0.65913 0.0
loop_
_geom_bond_atom_site_label_1
_geom_bond_atom_site_label_2
_geom_bond_distance
_geom_bond_site_symmetry_2
_ccdc_geom_bond_type
Tb0 N31 2.660 . S
Tb0 N38 2.600 . S
Tb0 O44 2.546 . S
Tb0 O45 2.610 . S
Tb0 O47 2.320 . S
Tb0 O48 2.552 . S
Tb0 O49 2.413 . S
Tb0 O51 2.362 1_554 S
Tb0 O52 2.421 . S
Tb0 C64 2.833 . S
C1 C4 1.432 . S
C1 C5 1.414 . S
C1 N8 1.359 . S
C2 C4 1.417 1_554 S
C2 C6 1.432 . S
C2 C14 1.410 . S
C3 C5 1.444 . S
C3 C6 1.317 1_556 S
C3 H26 0.929 . S
C4 C1 1.432 . S
C4 C2 1.417 1_556 S
C4 N12 1.360 . S
C5 C1 1.414 . S
C5 C3 1.444 . S
C5 C10 1.385 1_545 S
C6 C2 1.432 . S
C6 C3 1.317 1_554 S
C6 H18 0.930 . S
C7 C9 1.392 1_565 S
C7 C10 1.370 . S
C7 H19 0.931 . S
N8 C1 1.359 . S
N8 C9 1.327 . S
N8 Tb11 2.600 . S
C9 C7 1.392 1_545 S
C9 N8 1.327 . S
C9 H16 0.930 . S
C10 C5 1.385 1_565 S
C10 C7 1.370 . S
C10 H29 0.930 . S
Tb11 N8 2.600 . S
Tb11 N12 2.660 . S
Tb11 O45 2.362 1_556 S
Tb11 O46 2.421 . S
Tb11 O50 2.546 . S
Tb11 O51 2.610 . S
Tb11 O53 2.320 . S
Tb11 O54 2.552 . S
Tb11 O55 2.413 . S
Tb11 C75 2.833 . S
N12 C4 1.360 . S
N12 Tb11 2.660 . S
N12 C13 1.305 1_556 S
C13 N12 1.305 1_554 S
C13 C15 1.407 . S
C13 H20 0.930 . S
C14 C2 1.410 . S
C14 C15 1.345 . S
C14 H22 0.930 . S
C15 C13 1.407 . S
C15 C14 1.345 . S
C15 H17 0.930 . S
H16 C9 0.930 . S
H17 C15 0.930 . S
H18 C6 0.930 . S
H19 C7 0.931 . S
H20 C13 0.930 . S
H21 C35 0.930 . S
H22 C14 0.930 . S
H23 C41 0.930 . S
H24 C32 0.930 1_455 S
H25 C39 0.931 . S
H26 C3 0.929 . S
H27 C33 0.930 . S
H28 C66 0.930 1_556 S
H29 C10 0.930 . S
H30 C65 0.929 . S
N31 Tb0 2.660 . S
N31 C32 1.305 1_454 S
N31 C36 1.360 1_455 S
C32 H24 0.930 1_655 S
C32 N31 1.305 1_656 S
C32 C35 1.407 . S
C33 H27 0.930 . S
C33 C34 1.410 . S
C33 C35 1.345 . S
C34 C33 1.410 . S
C34 C36 1.417 1_556 S
C34 C66 1.432 1_556 S
C35 H21 0.930 . S
C35 C32 1.407 . S
C35 C33 1.345 . S
C36 N31 1.360 1_655 S
C36 C34 1.417 1_554 S
C36 C40 1.432 1_655 S
H37 C42 0.930 1_655 S
N38 Tb0 2.600 . S
N38 C40 1.359 . S
N38 C41 1.327 . S
C39 H25 0.931 . S
C39 C41 1.392 . S
C39 C42 1.370 . S
C40 C36 1.432 1_455 S
C40 N38 1.359 . S
C40 C43 1.414 1_455 S
C41 H23 0.930 . S
C41 N38 1.327 . S
C41 C39 1.392 . S
C42 H37 0.930 1_455 S
C42 C39 1.370 . S
C42 C43 1.385 1_455 S
C43 C40 1.414 1_655 S
C43 C42 1.385 1_655 S
C43 C65 1.444 . S
O44 Tb0 2.546 . S
O44 C64 1.251 . S
O45 Tb0 2.610 . S
O45 Tb11 2.362 1_554 S
O45 C56 1.283 . S
O46 Tb11 2.421 . S
O46 C63 1.262 . S
O47 Tb0 2.320 . S
O47 C63 1.260 1_554 S
O48 Tb0 2.552 . S
O48 C56 1.243 . S
O49 Tb0 2.413 . S
O49 C64 1.256 . S
O50 Tb11 2.546 . S
O50 C75 1.251 . S
O51 Tb0 2.362 1_556 S
O51 Tb11 2.610 . S
O51 C67 1.283 . S
O52 Tb0 2.421 . S
O52 C74 1.262 . S
O53 Tb11 2.320 . S
O53 C74 1.260 1_556 S
O54 Tb11 2.552 . S
O54 C67 1.243 . S
O55 Tb11 2.413 . S
O55 C75 1.256 . S
C56 O45 1.283 . S
C56 O48 1.243 . S
C57 C59 1.382 . S
C57 C61 1.393 . S
C57 C64 1.500 . S
C58 C59 1.400 1_655 S
C58 C60 1.384 . S
C59 C57 1.382 . S
C59 C58 1.400 1_455 S
C59 H76 0.930 . S
C60 C58 1.384 . S
C60 C62 1.392 . S
C60 H77 0.931 . S
C61 C57 1.393 . S
C61 C62 1.401 1_455 S
C61 H78 0.930 . S
C62 C60 1.392 . S
C62 C61 1.401 1_655 S
C62 H79 0.930 . S
C63 O46 1.262 . S
C63 O47 1.260 1_556 S
C64 Tb0 2.833 . S
C64 O44 1.251 . S
C64 O49 1.256 . S
C64 C57 1.500 . S
C65 H30 0.929 . S
C65 C43 1.444 . S
C65 C66 1.317 . S
C66 H28 0.930 1_554 S
C66 C34 1.432 1_554 S
C66 C65 1.317 . S
C67 O51 1.283 . S
C67 O54 1.243 . S
C68 C69 1.382 . S
C68 C72 1.393 . S
C68 C75 1.500 . S
C69 C68 1.382 . S
C69 C70 1.400 . S
C69 H80 0.930 . S
C70 C69 1.400 . S
C70 C71 1.384 . S
C71 C70 1.384 . S
C71 C73 1.392 . S
C71 H81 0.931 . S
C72 C68 1.393 . S
C72 C73 1.401 . S
C72 H82 0.930 . S
C73 C71 1.392 . S
C73 C72 1.401 . S
C73 H83 0.930 . S
C74 O52 1.262 . S
C74 O53 1.260 1_554 S
C75 Tb11 2.833 . S
C75 O50 1.251 . S
C75 O55 1.256 . S
C75 C68 1.500 . S
H76 C59 0.930 . S
H77 C60 0.931 . S
H78 C61 0.930 . S
H79 C62 0.930 . S
H80 C69 0.930 . S
H81 C71 0.931 . S
H82 C72 0.930 . S
H83 C73 0.930 . S
Tb84 N115 2.660 . S
Tb84 N122 2.600 . S
Tb84 O128 2.546 . S
Tb84 O129 2.610 . S
Tb84 O131 2.320 . S
Tb84 O132 2.552 . S
Tb84 O133 2.413 . S
Tb84 O135 2.362 1_554 S
Tb84 O136 2.421 . S
Tb84 C148 2.833 . S
C85 C88 1.432 1_655 S
C85 C89 1.414 1_655 S
C85 N92 1.359 . S
C86 C88 1.417 1_554 S
C86 C90 1.432 . S
C86 C98 1.410 . S
C87 C89 1.444 . S
C87 C90 1.317 1_556 S
C87 H110 0.929 . S
C88 C85 1.432 1_455 S
C88 C86 1.417 1_556 S
C88 N96 1.360 1_455 S
C89 C85 1.414 1_455 S
C89 C87 1.444 . S
C89 C94 1.385 1_455 S
C90 C86 1.432 . S
C90 C87 1.317 1_554 S
C90 H102 0.930 . S
C91 C93 1.392 . S
C91 C94 1.370 . S
C91 H103 0.931 . S
N92 C85 1.359 . S
N92 C93 1.327 . S
N92 Tb95 2.600 . S
C93 C91 1.392 . S
C93 N92 1.327 . S
C93 H100 0.930 . S
C94 C89 1.385 1_655 S
C94 C91 1.370 . S
C94 H113 0.930 1_655 S
Tb95 N92 2.600 . S
Tb95 N96 2.660 . S
Tb95 O129 2.362 1_556 S
Tb95 O130 2.421 . S
Tb95 O134 2.546 . S
Tb95 O135 2.610 . S
Tb95 O137 2.320 . S
Tb95 O138 2.552 . S
Tb95 O139 2.413 . S
Tb95 C159 2.833 . S
N96 C88 1.360 1_655 S
N96 Tb95 2.660 . S
N96 C97 1.305 1_656 S
C97 N96 1.305 1_454 S
C97 C99 1.407 . S
C97 H104 0.930 1_455 S
C98 C86 1.410 . S
C98 C99 1.345 . S
C98 H106 0.930 . S
C99 C97 1.407 . S
C99 C98 1.345 . S
C99 H101 0.930 . S
H100 C93 0.930 . S
H101 C99 0.930 . S
H102 C90 0.930 . S
H103 C91 0.931 . S
H104 C97 0.930 1_655 S
H105 C119 0.930 . S
H106 C98 0.930 . S
H107 C125 0.930 . S
H108 C116 0.930 . S
H109 C123 0.931 . S
H110 C87 0.929 . S
H111 C117 0.930 . S
H112 C150 0.930 1_556 S
H113 C94 0.930 1_455 S
H114 C149 0.929 . S
N115 Tb84 2.660 . S
N115 C116 1.305 1_554 S
N115 C120 1.360 . S
C116 H108 0.930 . S
C116 N115 1.305 1_556 S
C116 C119 1.407 . S
C117 H111 0.930 . S
C117 C118 1.410 . S
C117 C119 1.345 . S
C118 C117 1.410 . S
C118 C120 1.417 1_556 S
C118 C150 1.432 1_556 S
C119 H105 0.930 . S
C119 C116 1.407 . S
C119 C117 1.345 . S
C120 N115 1.360 . S
C120 C118 1.417 1_554 S
C120 C124 1.432 . S
H121 C126 0.949 . S
N122 Tb84 2.600 . S
N122 C124 1.359 . S
N122 C125 1.327 . S
C123 H109 0.931 . S
C123 C125 1.392 1_545 S
C123 C126 1.366 . S
C124 C120 1.432 . S
C124 N122 1.359 . S
C124 C127 1.414 . S
C125 H107 0.930 . S
C125 N122 1.327 . S
C125 C123 1.392 1_565 S
C126 H121 0.949 . S
C126 C123 1.366 . S
C126 C127 1.369 1_545 S
C127 C124 1.414 . S
C127 C126 1.369 1_565 S
C127 C149 1.444 . S
O128 Tb84 2.546 . S
O128 C148 1.251 . S
O129 Tb84 2.610 . S
O129 Tb95 2.362 1_554 S
O129 C140 1.283 . S
O130 Tb95 2.421 . S
O130 C147 1.262 . S
O131 Tb84 2.320 . S
O131 C147 1.260 1_554 S
O132 Tb84 2.552 . S
O132 C140 1.243 . S
O133 Tb84 2.413 . S
O133 C148 1.256 . S
O134 Tb95 2.546 . S
O134 C159 1.251 . S
O135 Tb84 2.362 1_556 S
O135 Tb95 2.610 . S
O135 C151 1.283 . S
O136 Tb84 2.421 . S
O136 C158 1.262 . S
O137 Tb95 2.320 . S
O137 C158 1.260 1_556 S
O138 Tb95 2.552 . S
O138 C151 1.243 . S
O139 Tb95 2.413 . S
O139 C159 1.256 . S
C140 O129 1.283 . S
C140 O132 1.243 . S
C141 C143 1.382 . S
C141 C145 1.393 . S
C141 C148 1.500 . S
C142 C143 1.400 . S
C142 C144 1.384 . S
C143 C141 1.382 . S
C143 C142 1.400 . S
C143 H160 0.930 . S
C144 C142 1.384 . S
C144 C146 1.392 . S
C144 H161 0.931 . S
C145 C141 1.393 . S
C145 C146 1.401 . S
C145 H162 0.930 . S
C146 C144 1.392 . S
C146 C145 1.401 . S
C146 H163 0.930 . S
C147 O130 1.262 . S
C147 O131 1.260 1_556 S
C148 Tb84 2.833 . S
C148 O128 1.251 . S
C148 O133 1.256 . S
C148 C141 1.500 . S
C149 H114 0.929 . S
C149 C127 1.444 . S
C149 C150 1.317 . S
C150 H112 0.930 1_554 S
C150 C118 1.432 1_554 S
C150 C149 1.317 . S
C151 O135 1.283 . S
C151 O138 1.243 . S
C152 C153 1.382 . S
C152 C156 1.393 . S
C152 C159 1.500 . S
C153 C152 1.382 . S
C153 C154 1.400 1_655 S
C153 H164 0.930 . S
C154 C153 1.400 1_455 S
C154 C155 1.384 . S
C155 C154 1.384 . S
C155 C157 1.392 . S
C155 H165 0.931 . S
C156 C152 1.393 . S
C156 C157 1.401 1_655 S
C156 H166 0.930 . S
C157 C155 1.392 . S
C157 C156 1.401 1_455 S
C157 H167 0.930 . S
C158 O136 1.262 . S
C158 O137 1.260 1_554 S
C159 Tb95 2.833 . S
C159 O134 1.251 . S
C159 O139 1.256 . S
C159 C152 1.500 . S
H160 C143 0.930 . S
H161 C144 0.931 . S
H162 C145 0.930 . S
H163 C146 0.930 . S
H164 C153 0.930 . S
H165 C155 0.931 . S
H166 C156 0.930 . S
H167 C157 0.930 . S
Tb168 N199 2.660 . S
Tb168 N206 2.600 . S
Tb168 O212 2.546 . S
Tb168 O213 2.610 . S
Tb168 O215 2.320 . S
Tb168 O216 2.552 . S
Tb168 O217 2.413 . S
Tb168 O219 2.362 . S
Tb168 O220 2.421 . S
Tb168 C232 2.833 . S
C169 C172 1.432 . S
C169 C173 1.414 . S
C169 N176 1.359 . S
C170 C172 1.417 . S
C170 C174 1.432 . S
C170 C182 1.410 . S
C171 C173 1.444 . S
C171 C174 1.317 . S
C171 H194 0.929 . S
C172 C169 1.432 . S
C172 C170 1.417 . S
C172 N180 1.360 . S
C173 C169 1.414 . S
C173 C171 1.444 . S
C173 C178 1.385 1_565 S
C174 C170 1.432 . S
C174 C171 1.317 . S
C174 H186 0.930 . S
C175 C177 1.392 1_545 S
C175 C178 1.370 . S
C175 H187 0.931 . S
N176 C169 1.359 . S
N176 C177 1.327 . S
N176 Tb179 2.600 . S
C177 C175 1.392 1_565 S
C177 N176 1.327 . S
C177 H184 0.930 . S
C178 C173 1.385 1_545 S
C178 C175 1.370 . S
C178 H197 0.930 . S
Tb179 N176 2.600 . S
Tb179 N180 2.660 . S
Tb179 O213 2.362 . S
Tb179 O214 2.421 . S
Tb179 O218 2.546 . S
Tb179 O219 2.610 . S
Tb179 O221 2.320 . S
Tb179 O222 2.552 . S
Tb179 O223 2.413 . S
Tb179 C243 2.833 . S
N180 C172 1.360 . S
N180 Tb179 2.660 . S
N180 C181 1.305 . S
C181 N180 1.305 . S
C181 C183 1.407 . S
C181 H188 0.930 . S
C182 C170 1.410 . S
C182 C183 1.345 . S
C182 H190 0.930 . S
C183 C181 1.407 . S
C183 C182 1.345 . S
C183 H185 0.930 . S
H184 C177 0.930 . S
H185 C183 0.930 . S
H186 C174 0.930 . S
H187 C175 0.931 . S
H188 C181 0.930 . S
H189 C203 0.930 . S
H190 C182 0.930 . S
H191 C209 0.930 . S
H192 C200 0.930 1_455 S
H193 C207 0.931 . S
H194 C171 0.929 . S
H195 C201 0.930 . S
H196 C234 0.930 . S
H197 C178 0.930 . S
H198 C233 0.929 . S
N199 Tb168 2.660 . S
N199 C200 1.305 1_455 S
N199 C204 1.360 1_455 S
C200 H192 0.930 1_655 S
C200 N199 1.305 1_655 S
C200 C203 1.407 . S
C201 H195 0.930 . S
C201 C202 1.410 . S
C201 C203 1.345 . S
C202 C201 1.410 . S
C202 C204 1.417 . S
C202 C234 1.432 . S
C203 H189 0.930 . S
C203 C200 1.407 . S
C203 C201 1.345 . S
C204 N199 1.360 1_655 S
C204 C202 1.417 . S
C204 C208 1.432 1_655 S
H205 C210 0.930 1_655 S
N206 Tb168 2.600 . S
N206 C208 1.359 . S
N206 C209 1.327 . S
C207 H193 0.931 . S
C207 C209 1.392 . S
C207 C210 1.370 . S
C208 C204 1.432 1_455 S
C208 N206 1.359 . S
C208 C211 1.414 1_455 S
C209 H191 0.930 . S
C209 N206 1.327 . S
C209 C207 1.392 . S
C210 H205 0.930 1_455 S
C210 C207 1.370 . S
C210 C211 1.385 1_455 S
C211 C208 1.414 1_655 S
C211 C210 1.385 1_655 S
C211 C233 1.444 . S
O212 Tb168 2.546 . S
O212 C232 1.251 . S
O213 Tb168 2.610 . S
O213 Tb179 2.362 . S
O213 C224 1.283 . S
O214 Tb179 2.421 . S
O214 C231 1.262 . S
O215 Tb168 2.320 . S
O215 C231 1.260 . S
O216 Tb168 2.552 . S
O216 C224 1.243 . S
O217 Tb168 2.413 . S
O217 C232 1.256 . S
O218 Tb179 2.546 . S
O218 C243 1.251 . S
O219 Tb168 2.362 . S
O219 Tb179 2.610 . S
O219 C235 1.283 . S
O220 Tb168 2.421 . S
O220 C242 1.262 . S
O221 Tb179 2.320 . S
O221 C242 1.260 . S
O222 Tb179 2.552 . S
O222 C235 1.243 . S
O223 Tb179 2.413 . S
O223 C243 1.256 . S
C224 O213 1.283 . S
C224 O216 1.243 . S
C225 C227 1.382 . S
C225 C229 1.393 . S
C225 C232 1.500 . S
C226 C227 1.400 1_655 S
C226 C228 1.384 . S
C227 C225 1.382 . S
C227 C226 1.400 1_455 S
C227 H244 0.930 . S
C228 C226 1.384 . S
C228 C230 1.392 . S
C228 H245 0.931 . S
C229 C225 1.393 . S
C229 C230 1.401 1_455 S
C229 H246 0.930 . S
C230 C228 1.392 . S
C230 C229 1.401 1_655 S
C230 H247 0.930 . S
C231 O214 1.262 . S
C231 O215 1.260 . S
C232 Tb168 2.833 . S
C232 O212 1.251 . S
C232 O217 1.256 . S
C232 C225 1.500 . S
C233 H198 0.929 . S
C233 C211 1.444 . S
C233 C234 1.317 . S
C234 H196 0.930 . S
C234 C202 1.432 . S
C234 C233 1.317 . S
C235 O219 1.283 . S
C235 O222 1.243 . S
C236 C237 1.382 . S
C236 C240 1.393 . S
C236 C243 1.500 . S
C237 C236 1.382 . S
C237 C238 1.400 . S
C237 H248 0.930 . S
C238 C237 1.400 . S
C238 C239 1.384 . S
C239 C238 1.384 . S
C239 C241 1.392 . S
C239 H249 0.931 . S
C240 C236 1.393 . S
C240 C241 1.401 . S
C240 H250 0.930 . S
C241 C239 1.392 . S
C241 C240 1.401 . S
C241 H251 0.930 . S
C242 O220 1.262 . S
C242 O221 1.260 . S
C243 Tb179 2.833 . S
C243 O218 1.251 . S
C243 O223 1.256 . S
C243 C236 1.500 . S
H244 C227 0.930 . S
H245 C228 0.931 . S
H246 C229 0.930 . S
H247 C230 0.930 . S
H248 C237 0.930 . S
H249 C239 0.931 . S
H250 C240 0.930 . S
H251 C241 0.930 . S
Tb252 N283 2.660 . S
Tb252 N290 2.600 . S
Tb252 O296 2.546 . S
Tb252 O297 2.610 . S
Tb252 O299 2.320 . S
Tb252 O300 2.552 . S
Tb252 O301 2.413 . S
Tb252 O303 2.362 . S
Tb252 O304 2.421 . S
Tb252 C316 2.833 . S
C253 C256 1.432 1_655 S
C253 C257 1.414 1_655 S
C253 N260 1.359 . S
C254 C256 1.417 . S
C254 C258 1.432 . S
C254 C266 1.410 . S
C255 C257 1.444 . S
C255 C258 1.317 . S
C255 H278 0.929 . S
C256 C253 1.432 1_455 S
C256 C254 1.417 . S
C256 N264 1.360 1_455 S
C257 C253 1.414 1_455 S
C257 C255 1.444 . S
C257 C262 1.385 1_455 S
C258 C254 1.432 . S
C258 C255 1.317 . S
C258 H270 0.930 . S
C259 C261 1.392 . S
C259 C262 1.370 . S
C259 H271 0.931 . S
N260 C253 1.359 . S
N260 C261 1.327 . S
N260 Tb263 2.600 . S
C261 C259 1.392 . S
C261 N260 1.327 . S
C261 H268 0.930 . S
C262 C257 1.385 1_655 S
C262 C259 1.370 . S
C262 H281 0.930 1_655 S
Tb263 N260 2.600 . S
Tb263 N264 2.660 . S
Tb263 O297 2.362 . S
Tb263 O298 2.421 . S
Tb263 O302 2.546 . S
Tb263 O303 2.610 . S
Tb263 O305 2.320 . S
Tb263 O306 2.552 . S
Tb263 O307 2.413 . S
Tb263 C327 2.833 . S
N264 C256 1.360 1_655 S
N264 Tb263 2.660 . S
N264 C265 1.305 1_655 S
C265 N264 1.305 1_455 S
C265 C267 1.407 . S
C265 H272 0.930 1_455 S
C266 C254 1.410 . S
C266 C267 1.345 . S
C266 H274 0.930 . S
C267 C265 1.407 . S
C267 C266 1.345 . S
C267 H269 0.930 . S
H268 C261 0.930 . S
H269 C267 0.930 . S
H270 C258 0.930 . S
H271 C259 0.931 . S
H272 C265 0.930 1_655 S
H273 C287 0.930 . S
H274 C266 0.930 . S
H275 C293 0.930 . S
H276 C284 0.930 . S
H277 C291 0.931 . S
H278 C255 0.929 . S
H279 C285 0.930 . S
H280 C318 0.930 . S
H281 C262 0.930 1_455 S
H282 C317 0.929 . S
N283 Tb252 2.660 . S
N283 C284 1.305 . S
N283 C288 1.360 . S
C284 H276 0.930 . S
C284 N283 1.305 . S
C284 C287 1.407 . S
C285 H279 0.930 . S
C285 C286 1.410 . S
C285 C287 1.345 . S
C286 C285 1.410 . S
C286 C288 1.417 . S
C286 C318 1.432 . S
C287 H273 0.930 . S
C287 C284 1.407 . S
C287 C285 1.345 . S
C288 N283 1.360 . S
C288 C286 1.417 . S
C288 C292 1.432 . S
H289 C294 0.949 . S
N290 Tb252 2.600 . S
N290 C292 1.359 . S
N290 C293 1.327 . S
C291 H277 0.931 . S
C291 C293 1.392 1_565 S
C291 C294 1.366 . S
C292 C288 1.432 . S
C292 N290 1.359 . S
C292 C295 1.414 . S
C293 H275 0.930 . S
C293 N290 1.327 . S
C293 C291 1.392 1_545 S
C294 H289 0.949 . S
C294 C291 1.366 . S
C294 C295 1.369 1_565 S
C295 C292 1.414 . S
C295 C294 1.369 1_545 S
C295 C317 1.444 . S
O296 Tb252 2.546 . S
O296 C316 1.251 . S
O297 Tb252 2.610 . S
O297 Tb263 2.362 . S
O297 C308 1.283 . S
O298 Tb263 2.421 . S
O298 C315 1.262 . S
O299 Tb252 2.320 . S
O299 C315 1.260 . S
O300 Tb252 2.552 . S
O300 C308 1.243 . S
O301 Tb252 2.413 . S
O301 C316 1.256 . S
O302 Tb263 2.546 . S
O302 C327 1.251 . S
O303 Tb252 2.362 . S
O303 Tb263 2.610 . S
O303 C319 1.283 . S
O304 Tb252 2.421 . S
O304 C326 1.262 . S
O305 Tb263 2.320 . S
O305 C326 1.260 . S
O306 Tb263 2.552 . S
O306 C319 1.243 . S
O307 Tb263 2.413 . S
O307 C327 1.256 . S
C308 O297 1.283 . S
C308 O300 1.243 . S
C309 C311 1.382 . S
C309 C313 1.393 . S
C309 C316 1.500 . S
C310 C311 1.400 . S
C310 C312 1.384 . S
C311 C309 1.382 . S
C311 C310 1.400 . S
C311 H328 0.930 . S
C312 C310 1.384 . S
C312 C314 1.392 . S
C312 H329 0.931 . S
C313 C309 1.393 . S
C313 C314 1.401 . S
C313 H330 0.930 . S
C314 C312 1.392 . S
C314 C313 1.401 . S
C314 H331 0.930 . S
C315 O298 1.262 . S
C315 O299 1.260 . S
C316 Tb252 2.833 . S
C316 O296 1.251 . S
C316 O301 1.256 . S
C316 C309 1.500 . S
C317 H282 0.929 . S
C317 C295 1.444 . S
C317 C318 1.317 . S
C318 H280 0.930 . S
C318 C286 1.432 . S
C318 C317 1.317 . S
C319 O303 1.283 . S
C319 O306 1.243 . S
C320 C321 1.382 . S
C320 C324 1.393 . S
C320 C327 1.500 . S
C321 C320 1.382 . S
C321 C322 1.400 1_655 S
C321 H332 0.930 . S
C322 C321 1.400 1_455 S
C322 C323 1.384 . S
C323 C322 1.384 . S
C323 C325 1.392 . S
C323 H333 0.931 . S
C324 C320 1.393 . S
C324 C325 1.401 1_655 S
C324 H334 0.930 . S
C325 C323 1.392 . S
C325 C324 1.401 1_455 S
C325 H335 0.930 . S
C326 O304 1.262 . S
C326 O305 1.260 . S
C327 Tb263 2.833 . S
C327 O302 1.251 . S
C327 O307 1.256 . S
C327 C320 1.500 . S
H328 C311 0.930 . S
H329 C312 0.931 . S
H330 C313 0.930 . S
H331 C314 0.930 . S
H332 C321 0.930 . S
H333 C323 0.931 . S
H334 C324 0.930 . S
H335 C325 0.930 . S
H336 C342 0.930 . S
H337 C346 0.930 . S
H338 C351 0.929 . S
H339 C349 0.929 . S
H340 C344 0.929 . S
H341 C350 0.929 . S
C342 H336 0.930 . S
C342 C343 1.367 . S
C342 C350 1.378 . S
C343 C342 1.367 . S
C343 C351 1.433 1_554 S
C344 H340 0.929 . S
C344 C346 1.378 . S
C344 C348 1.350 1_556 S
C345 C348 1.463 . S
C345 C350 1.350 . S
C345 N353 1.427 1_554 S
C346 H337 0.930 . S
C346 C344 1.378 . S
C346 C347 1.367 1_556 S
C347 C346 1.367 1_554 S
C347 C349 1.433 . S
C348 C344 1.350 1_554 S
C348 C345 1.463 . S
C348 N352 1.427 . S
C349 H339 0.929 . S
C349 C347 1.433 . S
C349 N352 1.384 . S
C350 H341 0.929 . S
C350 C342 1.378 . S
C350 C345 1.350 . S
C351 H338 0.929 . S
C351 C343 1.433 1_556 S
C351 N353 1.384 . S
N352 C348 1.427 . S
N352 C349 1.384 . S
N353 C345 1.427 1_556 S
N353 C351 1.384 . S
H354 C360 0.930 . S
H355 C364 0.930 . S
H356 C369 0.929 . S
H357 C367 0.929 . S
H358 C362 0.929 . S
H359 C368 0.929 . S
C360 H354 0.930 . S
C360 C361 1.367 . S
C360 C368 1.378 . S
C361 C360 1.367 . S
C361 C369 1.433 . S
C362 H358 0.929 . S
C362 C364 1.378 . S
C362 C366 1.350 . S
C363 C366 1.463 . S
C363 C368 1.350 . S
C363 N371 1.427 . S
C364 H355 0.930 . S
C364 C362 1.378 . S
C364 C365 1.367 . S
C365 C364 1.367 . S
C365 C367 1.433 . S
C366 C362 1.350 . S
C366 C363 1.463 . S
C366 N370 1.427 . S
C367 H357 0.929 . S
C367 C365 1.433 . S
C367 N370 1.384 . S
C368 H359 0.929 . S
C368 C360 1.378 . S
C368 C363 1.350 . S
C369 H356 0.929 . S
C369 C361 1.433 . S
C369 N371 1.384 . S
N370 C366 1.427 . S
N370 C367 1.384 . S
N371 C363 1.427 . S
N371 C369 1.384 . S
H372 C378 0.930 . S
H373 C382 0.930 . S
H374 C387 0.929 . S
H375 C385 0.929 . S
H376 C380 0.929 1_545 S
H377 C386 0.929 1_565 S
C378 H372 0.930 . S
C378 C379 1.360 1_556 S
C378 C386 1.378 . S
C379 C378 1.360 1_554 S
C379 C387 1.446 . S
C380 H376 0.929 1_565 S
C380 C382 1.378 . S
C380 C384 1.350 . S
C381 C384 1.463 1_445 S
C381 C386 1.350 1_554 S
C381 N389 1.427 . S
C382 H373 0.930 . S
C382 C380 1.378 . S
C382 C383 1.367 . S
C383 C382 1.367 . S
C383 C385 1.433 1_554 S
C384 C380 1.350 . S
C384 C381 1.463 1_665 S
C384 N388 1.427 1_554 S
C385 H375 0.929 . S
C385 C383 1.433 1_556 S
C385 N388 1.384 . S
C386 H377 0.929 1_545 S
C386 C378 1.378 . S
C386 C381 1.350 1_556 S
C387 H374 0.929 . S
C387 C379 1.446 . S
C387 N389 1.384 . S
N388 C384 1.427 1_556 S
N388 C385 1.384 . S
N389 C381 1.427 . S
N389 C387 1.384 . S
H390 C396 0.930 . S
H391 C400 0.930 . S
H392 C405 0.929 . S
H393 C403 0.929 . S
H394 C398 0.929 . S
H395 C404 0.929 . S
C396 H390 0.930 . S
C396 C397 1.367 . S
C396 C404 1.378 . S
C397 C396 1.367 . S
C397 C405 1.433 . S
C398 H394 0.929 . S
C398 C400 1.378 . S
C398 C402 1.350 . S
C399 C402 1.463 1_645 S
C399 C404 1.350 . S
C399 N407 1.427 . S
C400 H391 0.930 . S
C400 C398 1.378 . S
C400 C401 1.367 . S
C401 C400 1.367 . S
C401 C403 1.433 . S
C402 C398 1.350 . S
C402 C399 1.463 1_465 S
C402 N406 1.427 . S
C403 H393 0.929 . S
C403 C401 1.433 . S
C403 N406 1.384 . S
C404 H395 0.929 . S
C404 C396 1.378 . S
C404 C399 1.350 . S
C405 H392 0.929 . S
C405 C397 1.433 . S
C405 N407 1.384 . S
N406 C402 1.427 . S
N406 C403 1.384 . S
N407 C399 1.427 . S
N407 C405 1.384 . S
H408 C414 0.930 . S
H409 C418 0.930 . S
H410 C423 0.929 . S
H411 C421 0.929 . S
H412 C416 0.929 . S
H413 C422 0.929 . S
C414 H408 0.930 . S
C414 C415 1.367 . S
C414 C422 1.378 . S
C415 C414 1.367 . S
C415 C423 1.433 . S
C416 H412 0.929 . S
C416 C418 1.378 . S
C416 C420 1.350 . S
C417 C420 1.463 . S
C417 C422 1.350 . S
C417 N425 1.427 . S
C418 H409 0.930 . S
C418 C416 1.378 . S
C418 C419 1.367 . S
C419 C418 1.367 . S
C419 C421 1.433 . S
C420 C416 1.350 . S
C420 C417 1.463 . S
C420 N424 1.427 . S
C421 H411 0.929 . S
C421 C419 1.433 . S
C421 N424 1.384 . S
C422 H413 0.929 . S
C422 C414 1.378 . S
C422 C417 1.350 . S
C423 H410 0.929 . S
C423 C415 1.433 . S
C423 N425 1.384 . S
N424 C420 1.427 . S
N424 C421 1.384 . S
N425 C417 1.427 . S
N425 C423 1.384 . S
H426 C432 0.930 . S
H427 C436 0.930 . S
H428 C441 0.929 . S
H429 C439 0.929 . S
H430 C434 0.929 . S
H431 C440 0.929 . S
C432 H426 0.930 . S
C432 C433 1.367 . S
C432 C440 1.378 . S
C433 C432 1.367 . S
C433 C441 1.433 . S
C434 H430 0.929 . S
C434 C436 1.378 . S
C434 C438 1.350 . S
C435 C438 1.463 . S
C435 C440 1.350 . S
C435 N443 1.427 . S
C436 H427 0.930 . S
C436 C434 1.378 . S
C436 C437 1.367 . S
C437 C436 1.367 . S
C437 C439 1.433 . S
C438 C434 1.350 . S
C438 C435 1.463 . S
C438 N442 1.427 . S
C439 H429 0.929 . S
C439 C437 1.433 . S
C439 N442 1.384 . S
C440 H431 0.929 . S
C440 C432 1.378 . S
C440 C435 1.350 . S
C441 H428 0.929 . S
C441 C433 1.433 . S
C441 N443 1.384 . S
N442 C438 1.427 . S
N442 C439 1.384 . S
N443 C435 1.427 . S
N443 C441 1.384 . S
H444 C450 0.930 . S
H445 C454 0.930 . S
H446 C459 0.929 . S
H447 C457 0.929 . S
H448 C452 0.929 . S
H449 C458 0.929 . S
C450 H444 0.930 . S
C450 C451 1.367 . S
C450 C458 1.378 . S
C451 C450 1.367 . S
C451 C459 1.433 . S
C452 H448 0.929 . S
C452 C454 1.378 . S
C452 C456 1.350 . S
C453 C456 1.463 . S
C453 C458 1.350 . S
C453 N461 1.427 . S
C454 H445 0.930 . S
C454 C452 1.378 . S
C454 C455 1.367 . S
C455 C454 1.367 . S
C455 C457 1.433 . S
C456 C452 1.350 . S
C456 C453 1.463 . S
C456 N460 1.427 . S
C457 H447 0.929 . S
C457 C455 1.433 . S
C457 N460 1.384 . S
C458 H449 0.929 . S
C458 C450 1.378 . S
C458 C453 1.350 . S
C459 H446 0.929 . S
C459 C451 1.433 . S
C459 N461 1.384 . S
N460 C456 1.427 . S
N460 C457 1.384 . S
N461 C453 1.427 . S
N461 C459 1.384 . S
H462 C468 0.930 . S
H463 C472 0.930 . S
H464 C477 0.929 . S
H465 C475 0.929 . S
H466 C470 0.929 . S
H467 C476 0.929 . S
C468 H462 0.930 . S
C468 C469 1.367 . S
C468 C476 1.378 . S
C469 C468 1.367 . S
C469 C477 1.433 . S
C470 H466 0.929 . S
C470 C472 1.378 . S
C470 C474 1.350 . S
C471 C474 1.463 . S
C471 C476 1.350 . S
C471 N479 1.427 . S
C472 H463 0.930 . S
C472 C470 1.378 . S
C472 C473 1.367 . S
C473 C472 1.367 . S
C473 C475 1.433 . S
C474 C470 1.350 . S
C474 C471 1.463 . S
C474 N478 1.427 . S
C475 H465 0.929 . S
C475 C473 1.433 . S
C475 N478 1.384 . S
C476 H467 0.929 . S
C476 C468 1.378 . S
C476 C471 1.350 . S
C477 H464 0.929 . S
C477 C469 1.433 . S
C477 N479 1.384 . S
N478 C474 1.427 . S
N478 C475 1.384 . S
N479 C471 1.427 . S
N479 C477 1.384 . S
H480 C486 0.930 . S
H481 C490 0.930 . S
H482 C495 0.929 . S
H483 C493 0.929 . S
H484 C488 0.929 . S
H485 C494 0.929 . S
C486 H480 0.930 . S
C486 C487 1.367 . S
C486 C494 1.378 . S
C487 C486 1.367 . S
C487 C495 1.433 . S
C488 H484 0.929 . S
C488 C490 1.378 1_655 S
C488 C492 1.350 . S
C489 C492 1.463 . S
C489 C494 1.350 . S
C489 N497 1.427 . S
C490 H481 0.930 . S
C490 C488 1.378 1_455 S
C490 C491 1.367 1_455 S
C491 C490 1.367 1_655 S
C491 C493 1.433 . S
C492 C488 1.350 . S
C492 C489 1.463 . S
C492 N496 1.427 . S
C493 H483 0.929 . S
C493 C491 1.433 . S
C493 N496 1.384 . S
C494 H485 0.929 . S
C494 C486 1.378 . S
C494 C489 1.350 . S
C495 H482 0.929 . S
C495 C487 1.433 . S
C495 N497 1.384 . S
N496 C492 1.427 . S
N496 C493 1.384 . S
N497 C489 1.427 . S
N497 C495 1.384 . S
H498 C504 0.930 . S
H499 C508 0.930 . S
H500 C513 0.929 . S
H501 C511 0.929 . S
H502 C506 0.929 . S
H503 C512 0.929 . S
C504 H498 0.930 . S
C504 C505 1.367 . S
C504 C512 1.378 . S
C505 C504 1.367 . S
C505 C513 1.433 . S
C506 H502 0.929 . S
C506 C508 1.378 . S
C506 C510 1.350 . S
C507 C510 1.463 . S
C507 C512 1.350 . S
C507 N515 1.427 . S
C508 H499 0.930 . S
C508 C506 1.378 . S
C508 C509 1.367 . S
C509 C508 1.367 . S
C509 C511 1.433 . S
C510 C506 1.350 . S
C510 C507 1.463 . S
C510 N514 1.427 . S
C511 H501 0.929 . S
C511 C509 1.433 . S
C511 N514 1.384 . S
C512 H503 0.929 . S
C512 C504 1.378 . S
C512 C507 1.350 . S
C513 H500 0.929 . S
C513 C505 1.433 . S
C513 N515 1.384 . S
N514 C510 1.427 . S
N514 C511 1.384 . S
N515 C507 1.427 . S
N515 C513 1.384 . S
H516 C522 0.930 1_655 S
H517 C526 0.930 . S
H518 C531 0.929 . S
H519 C529 0.929 . S
H520 C524 0.929 . S
H521 C530 0.929 . S
C522 H516 0.930 1_455 S
C522 C523 1.367 . S
C522 C530 1.378 . S
C523 C522 1.367 . S
C523 C531 1.433 . S
C524 H520 0.929 . S
C524 C526 1.378 . S
C524 C528 1.350 . S
C525 C528 1.463 . S
C525 C530 1.350 . S
C525 N533 1.427 . S
C526 H517 0.930 . S
C526 C524 1.378 . S
C526 C527 1.367 . S
C527 C526 1.367 . S
C527 C529 1.433 . S
C528 C524 1.350 . S
C528 C525 1.463 . S
C528 N532 1.427 . S
C529 H519 0.929 . S
C529 C527 1.433 . S
C529 N532 1.384 . S
C530 H521 0.929 . S
C530 C522 1.378 . S
C530 C525 1.350 . S
C531 H518 0.929 . S
C531 C523 1.433 . S
C531 N533 1.384 . S
N532 C528 1.427 . S
N532 C529 1.384 . S
N533 C525 1.427 . S
N533 C531 1.384 . S
H534 C540 0.930 . S
H535 C544 0.930 . S
H536 C549 0.929 . S
H537 C547 0.929 . S
H538 C542 0.929 . S
H539 C548 0.929 . S
C540 H534 0.930 . S
C540 C541 1.367 . S
C540 C548 1.378 . S
C541 C540 1.367 . S
C541 C549 1.433 . S
C542 H538 0.929 . S
C542 C544 1.378 1_455 S
C542 C546 1.350 . S
C543 C546 1.463 . S
C543 C548 1.350 . S
C543 N551 1.427 . S
C544 H535 0.930 . S
C544 C542 1.378 1_655 S
C544 C545 1.367 1_655 S
C545 C544 1.367 1_455 S
C545 C547 1.433 . S
C546 C542 1.350 . S
C546 C543 1.463 . S
C546 N550 1.427 . S
C547 H537 0.929 . S
C547 C545 1.433 . S
C547 N550 1.384 . S
C548 H539 0.929 . S
C548 C540 1.378 . S
C548 C543 1.350 . S
C549 H536 0.929 . S
C549 C541 1.433 . S
C549 N551 1.384 . S
N550 C546 1.427 . S
N550 C547 1.384 . S
N551 C543 1.427 . S
N551 C549 1.384 . S
C343 C147 1.505 1_554 S
C347 C74 1.505 . S
C361 C242 1.503 . S
C365 C315 1.503 . S
C379 C63 1.493 1_554 S
C383 C158 1.501 . S
C397 C326 1.511 . S
C401 C231 1.511 . S
C415 C310 1.220 . S
C419 C56 1.216 . S
C433 C142 1.208 . S
C437 C224 1.202 . S
C451 C151 1.207 . S
C455 C238 1.228 . S
C469 C319 1.209 . S
C473 C70 1.229 . S
C487 C140 1.194 . S
C491 C226 1.210 . S
C505 C308 1.211 . S
C509 C58 1.229 . S
C523 C322 1.209 . S
C527 C67 1.195 . S
C541 C235 1.208 . S
C545 C154 1.228 . S
