# Generated by pormake.
# Topology wkf, (6)-cn, num edge types: 1
# Building blocks:
#     Node 0, Type 0, BuildingBlock: KUMJIN_clean_sbu_1, # of connection points: 6
#     Node 1, Type 0, BuildingBlock: KUMJIN_clean_sbu_1, # of connection points: 6
#     Node 2, Type 0, BuildingBlock: KUMJIN_clean_sbu_1, # of connection points: 6
#     Node 3, Type 0, BuildingBlock: KUMJIN_clean_sbu_1, # of connection points: 6
#     Node 4, Type 0, BuildingBlock: KUMJIN_clean_sbu_1, # of connection points: 6
#     Node 5, Type 0, BuildingBlock: KUMJIN_clean_sbu_1, # of connection points: 6
#     Node 6, Type 0, BuildingBlock: KUMJIN_clean_sbu_1, # of connection points: 6
#     Node 7, Type 0, BuildingBlock: KUMJIN_clean_sbu_1, # of connection points: 6
#     Node 8, Type 0, BuildingBlock: KUMJIN_clean_sbu_1, # of connection points: 6
#     Node 9, Type 0, BuildingBlock: KUMJIN_clean_sbu_1, # of connection points: 6
#     Node 10, Type 0, BuildingBlock: KUMJIN_clean_sbu_1, # of connection points: 6
#     Node 11, Type 0, BuildingBlock: KUMJIN_clean_sbu_1, # of connection points: 6
#     Edge 12, Type (0, 0), BuildingBlock: UVAHIK_clean_linker_0, # of connection points: 2
#     Edge 13, Type (0, 0), BuildingBlock: UVAHIK_clean_linker_0, # of connection points: 2
#     Edge 14, Type (0, 0), BuildingBlock: UVAHIK_clean_linker_0, # of connection points: 2
#     Edge 15, Type (0, 0), BuildingBlock: UVAHIK_clean_linker_0, # of connection points: 2
#     Edge 16, Type (0, 0), BuildingBlock: UVAHIK_clean_linker_0, # of connection points: 2
#     Edge 17, Type (0, 0), BuildingBlock: UVAHIK_clean_linker_0, # of connection points: 2
#     Edge 18, Type (0, 0), BuildingBlock: UVAHIK_clean_linker_0, # of connection points: 2
#     Edge 19, Type (0, 0), BuildingBlock: UVAHIK_clean_linker_0, # of connection points: 2
#     Edge 20, Type (0, 0), BuildingBlock: UVAHIK_clean_linker_0, # of connection points: 2
#     Edge 21, Type (0, 0), BuildingBlock: UVAHIK_clean_linker_0, # of connection points: 2
#     Edge 22, Type (0, 0), BuildingBlock: UVAHIK_clean_linker_0, # of connection points: 2
#     Edge 23, Type (0, 0), BuildingBlock: UVAHIK_clean_linker_0, # of connection points: 2
#     Edge 24, Type (0, 0), BuildingBlock: UVAHIK_clean_linker_0, # of connection points: 2
#     Edge 25, Type (0, 0), BuildingBlock: UVAHIK_clean_linker_0, # of connection points: 2
#     Edge 26, Type (0, 0), BuildingBlock: UVAHIK_clean_linker_0, # of connection points: 2
#     Edge 27, Type (0, 0), BuildingBlock: UVAHIK_clean_linker_0, # of connection points: 2
#     Edge 28, Type (0, 0), BuildingBlock: UVAHIK_clean_linker_0, # of connection points: 2
#     Edge 29, Type (0, 0), BuildingBlock: UVAHIK_clean_linker_0, # of connection points: 2
#     Edge 30, Type (0, 0), BuildingBlock: UVAHIK_clean_linker_0, # of connection points: 2
#     Edge 31, Type (0, 0), BuildingBlock: UVAHIK_clean_linker_0, # of connection points: 2
#     Edge 32, Type (0, 0), BuildingBlock: UVAHIK_clean_linker_0, # of connection points: 2
#     Edge 33, Type (0, 0), BuildingBlock: UVAHIK_clean_linker_0, # of connection points: 2
#     Edge 34, Type (0, 0), BuildingBlock: UVAHIK_clean_linker_0, # of connection points: 2
#     Edge 35, Type (0, 0), BuildingBlock: UVAHIK_clean_linker_0, # of connection points: 2
#     Edge 36, Type (0, 0), BuildingBlock: UVAHIK_clean_linker_0, # of connection points: 2
#     Edge 37, Type (0, 0), BuildingBlock: UVAHIK_clean_linker_0, # of connection points: 2
#     Edge 38, Type (0, 0), BuildingBlock: UVAHIK_clean_linker_0, # of connection points: 2
#     Edge 39, Type (0, 0), BuildingBlock: UVAHIK_clean_linker_0, # of connection points: 2
#     Edge 40, Type (0, 0), BuildingBlock: UVAHIK_clean_linker_0, # of connection points: 2
#     Edge 41, Type (0, 0), BuildingBlock: UVAHIK_clean_linker_0, # of connection points: 2
#     Edge 42, Type (0, 0), BuildingBlock: UVAHIK_clean_linker_0, # of connection points: 2
#     Edge 43, Type (0, 0), BuildingBlock: UVAHIK_clean_linker_0, # of connection points: 2
#     Edge 44, Type (0, 0), BuildingBlock: UVAHIK_clean_linker_0, # of connection points: 2
#     Edge 45, Type (0, 0), BuildingBlock: UVAHIK_clean_linker_0, # of connection points: 2
#     Edge 46, Type (0, 0), BuildingBlock: UVAHIK_clean_linker_0, # of connection points: 2
#     Edge 47, Type (0, 0), BuildingBlock: UVAHIK_clean_linker_0, # of connection points: 2
# Relax obj value: 0.194
# Max RMSD: 0.281
# Mean RMSD: 0.277
data_MOF--net-wkf--node1-KUMJIN_clean_sbu_1--edge1-UVAHIK_clean_linker_0
_symmetry_space_group_name_H-M    P1
_symmetry_Int_Tables_number       1
_symmetry_cell_setting            triclinic
loop_
_symmetry_equiv_pos_as_xyz
'x, y, z'
_cell_length_a     36.731891
_cell_length_b     36.674352
_cell_length_c     108.87635
_cell_angle_alpha  90.057066
_cell_angle_beta   89.924442
_cell_angle_gamma 119.52564
loop_
_atom_site_label
_atom_site_type_symbol
_atom_site_fract_x
_atom_site_fract_y
_atom_site_fract_z
_atom_type_partial_charge
Eu0 Eu 0.43884 0.99257 0.34492 0.0
C1 C 0.58295 0.97369 0.3545 0.0
N2 N 0.55879 0.96676 0.36456 0.0
C3 C 0.56344 0.90546 0.36941 0.0
C4 C 0.5973 0.94574 0.35121 0.0
C5 C 0.54967 0.93393 0.37222 0.0
C6 C 0.58688 0.91105 0.35875 0.0
C7 C 0.62224 1.01951 0.33777 0.0
C8 C 0.59472 1.0098 0.34784 0.0
C9 C 0.63453 0.99058 0.33393 0.0
C10 C 0.6221 0.95373 0.34065 0.0
Eu11 Eu 0.53187 1.01236 0.36823 0.0
N12 N 0.58283 0.03735 0.352 0.0
C13 C 0.6386 0.05903 0.33235 0.0
C14 C 0.60361 0.07781 0.34783 0.0
C15 C 0.63029 0.08877 0.33766 0.0
H16 H 0.53059 0.92909 0.38028 0.0
H17 H 0.64529 0.12048 0.33414 0.0
H18 H 0.49183 1.00706 0.31864 0.0
H19 H 0.33315 0.05186 0.35747 0.0
H20 H 0.60089 0.10241 0.3524 0.0
H21 H 0.65985 0.06779 0.32461 0.0
H22 H 0.36076 1.00251 0.3581 0.0
H23 H 0.55546 0.87894 0.37536 0.0
H24 H 0.65508 0.99723 0.3261 0.0
H25 H 0.63284 0.93227 0.33783 0.0
H26 H 0.51503 0.05559 0.30087 0.0
H27 H 0.59717 0.88876 0.35652 0.0
H28 H 0.36168 0.11015 0.34249 0.0
N29 N 0.46108 0.03614 0.32743 0.0
C30 C 0.44833 0.06508 0.32666 0.0
C31 C 0.49652 0.05877 0.3081 0.0
C32 C 0.46095 0.09351 0.31676 0.0
C33 C 0.4833 1.03132 0.31811 0.0
C34 C 0.48585 0.09042 0.30752 0.0
N35 N 0.4065 1.0346 0.34426 0.0
C36 C 0.37399 1.02845 0.35171 0.0
C37 C 0.40524 0.09296 0.33456 0.0
C38 C 0.4207 0.06467 0.33544 0.0
C39 C 0.37433 0.089 0.34285 0.0
C40 C 0.35809 0.0561 0.35131 0.0
H41 H 0.49618 0.11168 0.29976 0.0
H42 H 0.45746 0.14589 0.30884 0.0
H43 H 0.40872 0.14548 0.32444 0.0
O44 O 0.4046 0.92614 0.34003 0.0
O45 O 0.4326 1.01828 0.36387 0.0
O46 O 0.49831 0.0479 0.37322 0.0
O47 O 0.38557 0.96779 0.33214 0.0
O48 O 0.41384 0.95745 0.36315 0.0
O49 O 0.46874 0.96176 0.37525 0.0
O50 O 0.58883 0.04765 0.37914 0.0
O51 O 0.49135 0.94878 0.35936 0.0
O52 O 0.48435 0.96848 0.34025 0.0
O53 O 0.53277 1.00105 0.38785 0.0
O54 O 0.53269 0.07144 0.36084 0.0
O55 O 0.50519 0.04633 0.34212 0.0
C56 C 0.45989 0.0419 0.37243 0.0
C57 C 0.38097 0.91317 0.31942 0.0
C58 C 0.34437 0.87719 0.30055 0.0
C59 C 0.38127 0.87852 0.29641 0.0
C60 C 0.4174 0.9143 0.31493 0.0
C61 C 0.41748 0.89714 0.30352 0.0
C62 C 0.34446 0.89502 0.31209 0.0
C63 C 0.42854 0.94704 0.3729 0.0
C64 C 0.38137 0.93049 0.33177 0.0
C65 C 0.44752 0.12331 0.31626 0.0
C66 C 0.41981 0.12311 0.32516 0.0
C67 C 0.48835 0.94203 0.34751 0.0
C68 C 0.57255 0.06306 0.39896 0.0
C69 C 0.60016 0.13531 0.40587 0.0
C70 C 0.57305 0.12086 0.41603 0.0
C71 C 0.5462 0.04919 0.40931 0.0
C72 C 0.5994 0.10619 0.39733 0.0
C73 C 0.5463 0.078 0.41773 0.0
C74 C 0.52186 0.07781 0.34986 0.0
C75 C 0.56978 1.03273 0.38953 0.0
H76 H 0.38218 0.86538 0.28757 0.0
H77 H 0.44589 0.92823 0.32027 0.0
H78 H 0.44573 0.8981 0.30019 0.0
H79 H 0.31616 0.89398 0.31544 0.0
H80 H 0.5732 0.14257 0.42281 0.0
H81 H 0.52503 1.01609 0.41079 0.0
H82 H 0.61943 0.11729 0.38931 0.0
H83 H 0.5257 0.06704 0.42562 0.0
Eu84 Eu 0.47356 0.41455 0.51286 0.0
C85 C 0.63386 0.57073 0.5223 0.0
N86 N 0.61689 0.54485 0.53203 0.0
C87 C 0.68338 0.55075 0.53674 0.0
C88 C 0.67617 0.58645 0.51905 0.0
C89 C 0.64121 0.53593 0.53956 0.0
C90 C 0.70077 0.57551 0.5263 0.0
C91 C 0.62675 0.61305 0.50653 0.0
C92 C 0.60934 0.58337 0.51609 0.0
C93 C 0.66802 0.62674 0.50267 0.0
C94 C 0.69271 0.61339 0.50891 0.0
Eu95 Eu 0.54393 0.5151 0.53529 0.0
N96 N 0.56991 0.57 0.52027 0.0
C97 C 0.603 0.62982 0.50163 0.0
C98 C 0.54893 0.5902 0.51652 0.0
C99 C 0.5644 0.61924 0.50691 0.0
H100 H 0.62739 0.51571 0.54742 0.0
H101 H 0.54685 0.63396 0.50372 0.0
H102 H 0.44415 0.44943 0.48799 0.0
H103 H 0.36954 0.27965 0.54111 0.0
H104 H 0.52031 0.58456 0.52095 0.0
H105 H 0.6152 0.65274 0.4943 0.0
H106 H 0.43615 0.32951 0.53097 0.0
H107 H 0.70226 0.5426 0.54251 0.0
H108 H 0.68167 0.64896 0.4952 0.0
H109 H 0.72493 0.62524 0.50612 0.0
H110 H 0.38135 0.45048 0.4804 0.0
H111 H 0.73335 0.58675 0.52408 0.0
H112 H 0.30579 0.28492 0.53746 0.0
N113 N 0.41419 0.41466 0.50411 0.0
C114 C 0.37716 0.39153 0.51002 0.0
C115 C 0.37982 0.43412 0.48882 0.0
C116 C 0.34041 0.39092 0.50596 0.0
C117 C 0.41535 0.43354 0.49318 0.0
C118 C 0.34245 0.41371 0.49544 0.0
N119 N 0.41028 0.36307 0.52203 0.0
C120 C 0.40827 0.33163 0.52927 0.0
C121 C 0.33645 0.33691 0.52479 0.0
C122 C 0.37505 0.36466 0.51926 0.0
C123 C 0.33487 0.30681 0.53301 0.0
C124 C 0.37074 0.30359 0.53506 0.0
H125 H 0.31496 0.41413 0.49203 0.0
H126 H 0.27402 0.36546 0.50925 0.0
H127 H 0.27059 0.31816 0.52579 0.0
O128 O 0.47355 0.35642 0.50768 0.0
O129 O 0.44754 0.41421 0.53241 0.0
O130 O 0.47408 0.48358 0.53762 0.0
O131 O 0.46991 0.39498 0.49366 0.0
O132 O 0.50977 0.40118 0.52765 0.0
O133 O 0.527 0.45101 0.54326 0.0
O134 O 0.55264 0.56747 0.54713 0.0
O135 O 0.57369 0.48014 0.52639 0.0
O136 O 0.54279 0.45974 0.50754 0.0
O137 O 0.55855 0.51681 0.55471 0.0
O138 O 0.48722 0.51245 0.52555 0.0
O139 O 0.48484 0.47992 0.50745 0.0
C140 C 0.44748 0.44379 0.53935 0.0
C141 C 0.43366 0.32229 0.4899 0.0
C142 C 0.40816 0.26623 0.47435 0.0
C143 C 0.36689 0.25534 0.47764 0.0
C144 C 0.39214 0.30985 0.49299 0.0
C145 C 0.35909 0.27674 0.48692 0.0
C146 C 0.44168 0.30031 0.48055 0.0
C147 C 0.51919 0.41372 0.53922 0.0
C148 C 0.46802 0.35947 0.49603 0.0
C149 C 0.30242 0.36575 0.51209 0.0
C150 C 0.30044 0.33876 0.5215 0.0
C151 C 0.57581 0.47246 0.51475 0.0
C152 C 0.52089 0.54074 0.56651 0.0
C153 C 0.47771 0.56387 0.57739 0.0
C154 C 0.4548 0.52402 0.58274 0.0
C155 C 0.49769 0.50105 0.57208 0.0
C156 C 0.51091 0.57212 0.56934 0.0
C157 C 0.46505 0.49294 0.58016 0.0
C158 C 0.4728 0.50181 0.51427 0.0
C159 C 0.55314 0.54837 0.55713 0.0
H160 H 0.34026 0.23062 0.4729 0.0
H161 H 0.38512 0.32615 0.49997 0.0
H162 H 0.32719 0.26795 0.48932 0.0
H163 H 0.47376 0.3097 0.47818 0.0
H164 H 0.42921 0.51704 0.58899 0.0
H165 H 0.50414 0.47588 0.57006 0.0
H166 H 0.52821 0.60259 0.56501 0.0
H167 H 0.44728 0.46227 0.5843 0.0
Eu168 Eu 0.09079 0.46238 0.67995 0.0
C169 C 0.09711 0.6247 0.6879 0.0
N170 N 0.10558 0.60822 0.69788 0.0
C171 C 0.1655 0.67481 0.70243 0.0
C172 C 0.12372 0.6667 0.68442 0.0
C173 C 0.13821 0.63289 0.70545 0.0
C174 C 0.1587 0.69159 0.69172 0.0
C175 C 1.04853 0.61716 0.67187 0.0
C176 C 0.06031 0.6001 0.68169 0.0
C177 C 0.07622 0.658 0.66776 0.0
C178 C 0.11383 0.68276 0.67403 0.0
Eu179 Eu 0.06206 0.53566 0.70166 0.0
N180 N 1.03405 0.56117 0.68613 0.0
C181 C 1.00835 0.59365 0.66696 0.0
C182 C 0.99319 0.54069 0.68237 0.0
C183 C 0.98015 0.55579 0.67249 0.0
H184 H 0.14415 0.61951 0.71354 0.0
H185 H 0.94812 0.53858 0.6693 0.0
H186 H 1.02568 0.4291 0.65537 0.0
H187 H 0.12825 0.3639 0.70901 0.0
H188 H 0.97004 0.51284 0.68699 0.0
H189 H 0.99801 0.6056 0.65943 0.0
H190 H 0.14137 0.42906 0.69849 0.0
H191 H 0.19207 0.69394 0.70824 0.0
H192 H 0.06801 0.67134 0.66009 0.0
H193 H 0.13422 0.71472 0.67107 0.0
H194 H 0.96393 0.36434 0.64816 0.0
H195 H 0.18002 0.72397 0.68934 0.0
H196 H 0.06146 0.29827 0.70566 0.0
N197 N 1.0327 0.40124 0.6717 0.0
C198 C 1.0208 0.36481 0.67783 0.0
C199 C 0.97929 0.36413 0.65661 0.0
C200 C 0.98581 0.32701 0.674 0.0
C201 C 1.01419 0.4008 0.66077 0.0
C202 C 0.96422 0.32736 0.66347 0.0
N203 N 0.08208 0.40067 0.68965 0.0
C204 C 0.11222 0.40048 0.69697 0.0
C205 C 1.03768 0.32654 0.69281 0.0
C206 C 1.04646 0.36442 0.68705 0.0
C207 C 0.06702 0.32675 0.70106 0.0
C208 C 0.10484 0.3637 0.70294 0.0
H209 H 0.93722 0.299 0.66022 0.0
H210 H 0.94792 0.2605 0.67765 0.0
H211 H 0.99336 0.26012 0.69418 0.0
O212 O 0.14993 0.46481 0.6748 0.0
O213 O 0.06422 0.43683 0.69947 0.0
O214 O 1.02328 0.46613 0.70457 0.0
O215 O 0.10537 0.4554 0.66086 0.0
O216 O 0.13981 0.4988 0.69468 0.0
O217 O 0.10756 0.51714 0.71014 0.0
O218 O 1.02059 0.5489 0.7131 0.0
O219 O 0.12635 0.56352 0.69297 0.0
O220 O 0.11467 0.53158 0.67427 0.0
O221 O 0.07493 0.55106 0.72103 0.0
O222 O 1.00768 0.4786 0.69225 0.0
O223 O 1.0363 0.47278 0.6742 0.0
C224 C 1.03557 0.43857 0.70646 0.0
C225 C 0.14623 0.42288 0.65767 0.0
C226 C 0.18026 0.3988 0.64276 0.0
C227 C 0.15324 0.35736 0.64663 0.0
C228 C 0.12026 0.38126 0.66131 0.0
C229 C 0.12376 0.34882 0.65584 0.0
C230 C 0.17631 0.43165 0.64836 0.0
C231 C 0.13641 0.50813 0.70624 0.0
C232 C 0.14049 0.45658 0.66326 0.0
C233 C 0.97508 0.28969 0.68033 0.0
C234 C 1.001 0.28945 0.68973 0.0
C235 C 0.13613 0.56466 0.68137 0.0
C236 C 1.01462 0.52058 0.73322 0.0
C237 C 0.9473 0.469 0.74189 0.0
C238 C 0.96836 0.46173 0.75152 0.0
C239 C 1.03497 0.51303 0.74302 0.0
C240 C 0.97071 0.49851 0.73276 0.0
C241 C 1.01193 0.48363 0.75205 0.0
C242 C 1.00312 0.46235 0.68114 0.0
C243 C 1.03961 0.54958 0.72324 0.0
H244 H 0.1542 0.33115 0.64237 0.0
H245 H 0.09682 0.37366 0.66826 0.0
H246 H 0.10316 0.31677 0.65867 0.0
H247 H 0.19652 0.46381 0.64554 0.0
H248 H 0.95115 0.43922 0.75867 0.0
H249 H 0.0688 0.52951 0.74364 0.0
H250 H 0.95471 0.50469 0.72539 0.0
H251 H 1.02792 0.47783 0.75949 0.0
Eu252 Eu 0.66808 0.0787 0.84719 0.0
C253 C 0.5134 0.08747 0.85827 0.0
N254 N 0.5402 0.09476 0.86767 0.0
C255 C 0.53603 0.15564 0.87353 0.0
C256 C 0.49811 0.11519 0.85576 0.0
C257 C 0.55046 0.12728 0.87561 0.0
C258 C 0.51031 0.14999 0.86343 0.0
C259 C 0.4697 0.04094 0.84224 0.0
C260 C 0.49985 0.05111 0.85157 0.0
C261 C 0.45622 0.06959 0.83916 0.0
C262 C 0.47045 0.10672 0.84591 0.0
Eu263 Eu 0.56843 0.04943 0.86976 0.0
N264 N 0.51316 1.02395 0.85495 0.0
C265 C 0.45245 1.00143 0.83674 0.0
C266 C 0.49277 0.98375 0.85057 0.0
C267 C 0.4632 0.97232 0.84117 0.0
H268 H 0.57129 0.1322 0.88322 0.0
H269 H 0.44819 0.9408 0.83749 0.0
H270 H 0.63506 1.01144 0.82301 0.0
H271 H 0.8041 0.11701 0.87598 0.0
H272 H 0.49844 0.95986 0.85436 0.0
H273 H 0.42916 0.99233 0.82956 0.0
H274 H 0.7519 0.13002 0.86545 0.0
H275 H 0.54517 0.1821 0.87962 0.0
H276 H 0.4336 0.0626 0.83189 0.0
H277 H 0.45885 0.12796 0.84369 0.0
H278 H 0.63722 0.94829 0.81625 0.0
H279 H 0.4994 0.17214 0.86178 0.0
H280 H 0.80345 0.04985 0.8728 0.0
N281 N 0.67093 1.01968 0.83918 0.0
C282 C 0.69589 1.00809 0.84526 0.0
C283 C 0.65348 0.96452 0.82451 0.0
C284 C 0.69851 0.97251 0.84163 0.0
C285 C 0.65216 1.00019 0.82843 0.0
C286 C 0.6758 0.9499 0.83134 0.0
N287 N 0.72147 0.07031 0.85677 0.0
C288 C 0.75162 0.10074 0.86399 0.0
C289 C 0.7515 1.02571 0.86005 0.0
C290 C 0.7223 1.03442 0.85428 0.0
C291 C 0.7805 0.05538 0.86818 0.0
C292 C 0.78107 0.09341 0.86997 0.0
H293 H 0.67691 0.92237 0.82826 0.0
H294 H 0.7274 0.93447 0.84539 0.0
H295 H 0.77373 0.98105 0.86158 0.0
O296 O 0.72364 0.13778 0.84174 0.0
O297 O 0.6685 0.05275 0.86667 0.0
O298 O 0.59917 1.00976 0.87121 0.0
O299 O 0.68854 0.09234 0.82803 0.0
O300 O 0.6801 0.12858 0.86174 0.0
O301 O 0.63254 0.09528 0.87776 0.0
O302 O 0.51469 1.00815 0.88129 0.0
O303 O 0.602 0.11334 0.86068 0.0
O304 O 0.62129 0.10127 0.84183 0.0
O305 O 0.56918 0.05886 0.88951 0.0
O306 O 0.56996 0.99539 0.85945 0.0
O307 O 0.60334 1.0252 0.8414 0.0
C308 C 0.63872 1.02286 0.87335 0.0
C309 C 0.76105 0.13291 0.82456 0.0
C310 C 0.81818 0.1664 0.80949 0.0
C311 C 0.8319 0.13817 0.81302 0.0
C312 C 0.77606 0.10583 0.82787 0.0
C313 C 0.81118 0.10848 0.82216 0.0
C314 C 0.78227 0.16335 0.81537 0.0
C315 C 0.66897 0.12488 0.87346 0.0
C316 C 0.72206 0.12764 0.83024 0.0
C317 C 0.72547 0.96205 0.84793 0.0
C318 C 0.75193 0.98862 0.85713 0.0
C319 C 0.60903 0.12233 0.84899 0.0
C320 C 0.53826 0.99514 0.90032 0.0
C321 C 0.51575 0.924 0.90746 0.0
C322 C 0.54861 0.94008 0.91603 0.0
C323 C 0.57079 1.01056 0.90903 0.0
C324 C 0.51071 0.95178 0.89967 0.0
C325 C 0.57593 0.98313 0.91678 0.0
C326 C 0.58057 0.99153 0.84811 0.0
C327 C 0.53485 1.02404 0.89148 0.0
H328 H 0.85828 0.13829 0.80854 0.0
H329 H 0.76023 0.08207 0.83473 0.0
H330 H 0.82208 0.08697 0.82472 0.0
H331 H 0.77079 0.18443 0.81284 0.0
H332 H 0.55341 0.91933 0.92205 0.0
H333 H 0.5927 0.0438 0.90976 0.0
H334 H 0.48511 0.9396 0.89315 0.0
H335 H 0.60135 0.99527 0.92334 0.0
Eu336 Eu 0.621 0.6555 0.01562 0.0
C337 C 0.45935 0.50131 0.02332 0.0
N338 N 0.47608 0.52448 0.03357 0.0
C339 C 0.40932 0.51634 0.03918 0.0
C340 C 0.41704 0.48629 0.02024 0.0
C341 C 0.4516 0.53095 0.04175 0.0
C342 C 0.39214 0.49458 0.02825 0.0
C343 C 0.46687 0.4639 0.00612 0.0
C344 C 0.48411 0.49068 0.01636 0.0
C345 C 0.42567 0.45129 0.00245 0.0
C346 C 0.40076 0.46248 0.00951 0.0
Eu347 Eu 0.54862 0.55259 0.03687 0.0
N348 N 0.52346 0.50273 0.02038 0.0
C349 C 0.49063 0.44855 0.00036 0.0
C350 C 0.54414 0.48323 0.01576 0.0
C351 C 0.5289 0.45723 0.00545 0.0
H352 H 0.46527 0.54884 0.05002 0.0
H353 H 0.54627 0.44318 0.0016 0.0
H354 H 0.65353 0.62419 0.99066 0.0
H355 H 0.71989 0.79197 0.04396 0.0
H356 H 0.57213 0.48675 0.02006 0.0
H357 H 0.47856 0.42786 0.99249 0.0
H358 H 0.65431 0.73911 0.03405 0.0
H359 H 0.39021 0.52242 0.04551 0.0
H360 H 0.41219 0.43133 0.99449 0.0
H361 H 0.36855 0.45128 0.00685 0.0
H362 H 0.71829 0.62752 0.98288 0.0
H363 H 0.35949 0.48362 0.02621 0.0
H364 H 0.78584 0.79093 0.04018 0.0
N365 N 0.68199 0.65848 0.00697 0.0
C366 C 0.71861 0.68278 0.01294 0.0
C367 C 0.71874 0.64277 0.99144 0.0
C368 C 0.75642 0.68579 0.00879 0.0
C369 C 0.68208 0.64081 0.99592 0.0
C370 C 0.7558 0.66421 0.99812 0.0
N371 N 0.68281 0.70803 0.0251 0.0
C372 C 0.683 0.73855 0.03237 0.0
C373 C 0.75724 0.73811 0.02771 0.0
C374 C 0.71914 0.70867 0.02227 0.0
C375 C 0.75717 0.76767 0.03585 0.0
C376 C 0.72004 0.76848 0.03797 0.0
H377 H 0.78415 0.66576 0.99462 0.0
H378 H 0.82319 0.71461 0.01197 0.0
H379 H 0.82391 0.76052 0.02857 0.0
O380 O 0.61728 0.71186 0.0108 0.0
O381 O 0.64691 0.65419 0.03502 0.0
O382 O 0.61809 0.58418 0.04 0.0
O383 O 0.62697 0.67738 0.9966 0.0
O384 O 0.58492 0.66743 0.03074 0.0
O385 O 0.56483 0.61526 0.04577 0.0
O386 O 0.53346 0.4953 0.0471 0.0
O387 O 0.51996 0.58933 0.02869 0.0
O388 O 0.55203 0.61077 0.01004 0.0
O389 O 0.53525 0.54765 0.05647 0.0
O390 O 0.60623 0.55598 0.02759 0.0
O391 O 0.61123 0.59107 0.00977 0.0
C392 C 0.64523 0.62379 0.04197 0.0
C393 C 0.65866 0.75038 0.99371 0.0
C394 C 0.68216 0.8079 0.97877 0.0
C395 C 0.72353 0.82268 0.9828 0.0
C396 C 0.7002 0.76633 0.99749 0.0
C397 C 0.73231 0.80216 0.99211 0.0
C398 C 0.64965 0.77126 0.9843 0.0
C399 C 0.57422 0.65343 0.04214 0.0
C400 C 0.62537 0.71104 0.99921 0.0
C401 C 0.79398 0.71242 0.0149 0.0
C402 C 0.7944 0.73862 0.02435 0.0
C403 C 0.51908 0.59932 0.0172 0.0
C404 C 0.56077 0.51031 0.0675 0.0
C405 C 0.61414 0.49394 0.07473 0.0
C406 C 0.61431 0.51208 0.08615 0.0
C407 C 0.56127 0.5278 0.07902 0.0
C408 C 0.58747 0.49364 0.06539 0.0
C409 C 0.58813 0.52894 0.08823 0.0
C410 C 0.62272 0.5688 0.01659 0.0
C411 C 0.53375 0.51182 0.0577 0.0
H412 H 0.7495 0.84977 0.9786 0.0
H413 H 0.70804 0.75082 0.0045 0.0
H414 H 0.7643 0.81382 0.99506 0.0
H415 H 0.61756 0.75907 0.98135 0.0
H416 H 0.63376 0.51223 0.09363 0.0
H417 H 0.54114 0.54101 0.08085 0.0
H418 H 0.58784 0.48084 0.05645 0.0
H419 H 0.58834 0.54258 0.09707 0.0
Eu420 Eu 1.01878 0.61215 0.17864 0.0
C421 C 1.0277 0.46998 0.19069 0.0
N422 N 1.02152 0.48526 0.20134 0.0
C423 C 0.97158 0.41565 0.20783 0.0
C424 C 1.00479 0.42676 0.18798 0.0
C425 C 0.99462 0.45878 0.21004 0.0
C426 C 0.97619 0.39962 0.19667 0.0
C427 C 0.06777 0.48201 0.17206 0.0
C428 C 0.0582 0.49751 0.18276 0.0
C429 C 1.04328 0.43955 0.16888 0.0
C430 C 1.01176 0.41195 0.17683 0.0
Eu431 Eu 0.05585 0.55907 0.20381 0.0
N432 N 0.08148 0.53839 0.1862 0.0
C433 C 0.10334 0.50893 0.16531 0.0
C434 C 0.11942 0.56243 0.1806 0.0
C435 C 0.13012 0.54883 0.16988 0.0
H436 H 0.98943 0.4711 0.21846 0.0
H437 H 0.15958 0.56881 0.16533 0.0
H438 H 1.0495 0.55086 0.16295 0.0
H439 H 0.07094 0.77866 0.17309 0.0
H440 H 0.14304 0.59125 0.18451 0.0
H441 H 0.11192 0.49828 0.15709 0.0
H442 H 1.03651 0.71009 0.18367 0.0
H443 H 0.94966 0.39493 0.21464 0.0
H444 H 1.04972 0.42739 0.16058 0.0
H445 H 0.99398 0.379 0.17448 0.0
H446 H 0.08725 0.55493 0.14397 0.0
H447 H 0.95796 0.36626 0.19491 0.0
H448 H 0.10645 0.78623 0.15318 0.0
N449 N 0.0596 0.61316 0.16161 0.0
C450 C 0.07636 0.64907 0.15479 0.0
C451 C 0.08455 0.58167 0.14695 0.0
C452 C 0.09852 0.65262 0.14386 0.0
C453 C 0.06317 0.57957 0.15779 0.0
C454 C 0.10223 0.61826 0.13995 0.0
N455 N 0.05312 0.67966 0.16993 0.0
C456 C 0.05268 0.71339 0.17509 0.0
C457 C 0.09287 0.72168 0.15273 0.0
C458 C 0.07321 0.68324 0.15912 0.0
C459 C 0.09163 0.75616 0.1578 0.0
C460 C 0.07177 0.75208 0.16907 0.0
H461 H 0.11892 0.61974 0.13158 0.0
H462 H 0.1337 0.69358 0.12881 0.0
H463 H 0.12907 0.75406 0.13663 0.0
O464 O 0.98094 0.63745 0.17051 0.0
O465 O 1.03936 0.65292 0.19608 0.0
O466 O 0.07255 0.62568 0.20851 0.0
O467 O 0.96264 0.57272 0.16785 0.0
O468 O 0.98056 0.59871 0.19644 0.0
O469 O 1.00181 0.56641 0.21116 0.0
O470 O 0.10619 0.55714 0.21426 0.0
O471 O 0.9884 0.52143 0.19738 0.0
O472 O 0.99957 0.54277 0.17767 0.0
O473 O 1.04858 0.54189 0.22312 0.0
O474 O 0.11068 0.61986 0.19637 0.0
O475 O 0.08996 0.6414 0.17893 0.0
C476 C 0.0629 0.6548 0.20558 0.0
C477 C 0.95237 0.60783 0.15111 0.0
C478 C 0.9212 0.62432 0.13359 0.0
C479 C 0.94799 0.61838 0.12567 0.0
C480 C 0.97752 0.60046 0.14286 0.0
C481 C 0.97579 0.60632 0.13029 0.0
C482 C 0.92358 0.61929 0.14638 0.0
C483 C 0.97762 0.58158 0.2074 0.0
C484 C 0.95654 0.6034 0.16451 0.0
C485 C 0.11675 0.69042 0.13726 0.0
C486 C 0.11404 0.72485 0.1417 0.0
C487 C 0.97593 0.51536 0.18595 0.0
C488 C 0.10949 0.58139 0.23477 0.0
C489 C 0.17434 0.62898 0.24541 0.0
C490 C 0.15147 0.63881 0.25382 0.0
C491 C 0.08721 0.59176 0.24334 0.0
C492 C 0.1532 0.60033 0.23587 0.0
C493 C 0.10815 0.62031 0.25275 0.0
C494 C 0.11884 0.64478 0.18675 0.0
C495 C 0.08707 0.55131 0.22472 0.0
H496 H 0.94656 0.622 0.11583 0.0
H497 H 0.99831 0.5897 0.1461 0.0
H498 H 0.99569 0.60091 0.12408 0.0
H499 H 0.90314 0.62403 0.15257 0.0
H500 H 0.16714 0.66078 0.26123 0.0
H501 H 0.05352 0.57787 0.24281 0.0
H502 H 0.17068 0.59216 0.22947 0.0
H503 H 0.09067 0.62797 0.25927 0.0
Eu504 Eu 0.09014 0.65037 0.48865 0.0
C505 C 0.09643 0.49523 0.47653 0.0
N506 N 0.10654 0.52374 0.46745 0.0
C507 C 0.16807 0.51918 0.46282 0.0
C508 C 0.12279 0.47874 0.47953 0.0
C509 C 0.14089 0.53467 0.46023 0.0
C510 C 0.15941 0.4917 0.47267 0.0
C511 C 1.04488 0.44839 0.49106 0.0
C512 C 0.05832 0.48068 0.48225 0.0
C513 C 0.07211 0.43378 0.49474 0.0
C514 C 0.11109 0.449 0.48898 0.0
Eu515 Eu 0.06307 0.55403 0.46466 0.0
N516 N 1.0327 0.49504 0.47825 0.0
C517 C 1.00376 0.4302 0.4954 0.0
C518 C 0.99124 0.47394 0.48141 0.0
C519 C 0.9765 0.44225 0.49028 0.0
H520 H 0.14825 0.55695 0.45285 0.0
H521 H 0.94394 0.42672 0.49303 0.0
H522 H 1.02332 0.61193 0.51283 0.0
H523 H 0.12507 0.79057 0.46223 0.0
H524 H 0.96903 0.48105 0.47709 0.0
H525 H 0.99215 0.40528 0.50215 0.0
H526 H 0.13975 0.73767 0.47162 0.0
H527 H 0.19594 0.52891 0.45733 0.0
H528 H 0.06261 0.40951 0.50164 0.0
H529 H 0.13122 0.43646 0.49158 0.0
H530 H 0.95947 0.61123 0.52028 0.0
H531 H 0.1806 0.47992 0.47471 0.0
H532 H 0.05701 0.78725 0.46597 0.0
N533 N 1.03063 0.65043 0.49735 0.0
C534 C 1.01806 0.67558 0.49184 0.0
C535 C 0.97539 0.62914 0.51219 0.0
C536 C 0.98202 0.67654 0.49587 0.0
C537 C 1.01147 0.62947 0.50789 0.0
C538 C 0.95993 0.65187 0.50595 0.0
N539 N 0.08005 0.70428 0.48016 0.0
C540 C 0.11009 0.73627 0.47331 0.0
C541 C 1.03407 0.73315 0.47791 0.0
C542 C 1.04374 0.70366 0.48301 0.0
C543 C 0.06327 0.76401 0.47008 0.0
C544 C 0.10181 0.76609 0.46798 0.0
H545 H 0.93204 0.65165 0.50932 0.0
H546 H 0.9426 0.70442 0.49301 0.0
H547 H 0.98823 0.75402 0.47725 0.0
O548 O 0.15014 0.7041 0.49438 0.0
O549 O 0.065 0.65391 0.46934 0.0
O550 O 1.02375 0.58524 0.46352 0.0
O551 O 0.10317 0.67031 0.50786 0.0
O552 O 0.14046 0.66552 0.47402 0.0
O553 O 0.10867 0.61978 0.45753 0.0
O554 O 1.02038 0.50555 0.45173 0.0
O555 O 0.12601 0.58718 0.47428 0.0
O556 O 0.1118 0.60243 0.49341 0.0
O557 O 0.07869 0.55573 0.44531 0.0
O558 O 1.00864 0.55452 0.47501 0.0
O559 O 1.03734 0.58415 0.49349 0.0
C560 C 1.03614 0.62512 0.46217 0.0
C561 C 0.14606 0.74264 0.51136 0.0
C562 C 0.18329 0.80168 0.5256 0.0
C563 C 0.15511 0.8158 0.52246 0.0
C564 C 0.11873 0.75776 0.50849 0.0
C565 C 0.12334 0.7941 0.51395 0.0
C566 C 0.17842 0.76469 0.51995 0.0
C567 C 0.13759 0.65597 0.46219 0.0
C568 C 0.13935 0.70292 0.5058 0.0
C569 C 0.97055 0.70374 0.49017 0.0
C570 C 0.99656 0.73203 0.4812 0.0
C571 C 0.13369 0.59173 0.48608 0.0
C572 C 1.02013 0.53752 0.43279 0.0
C573 C 0.9591 0.51865 0.41991 0.0
C574 C 0.97628 0.56057 0.41621 0.0
C575 C 1.03687 0.57942 0.4289 0.0
C576 C 0.98129 0.50721 0.42814 0.0
C577 C 1.01521 0.59069 0.42062 0.0
C578 C 1.00405 0.56274 0.48654 0.0
C579 C 1.04194 0.52611 0.44217 0.0
H580 H 0.15688 0.84321 0.52679 0.0
H581 H 0.09329 0.7411 0.50219 0.0
H582 H 0.10173 0.80517 0.51171 0.0
H583 H 0.19956 0.75304 0.52222 0.0
H584 H 0.95973 0.56994 0.40985 0.0
H585 H 0.06645 0.60374 0.43237 0.0
H586 H 0.96784 0.47497 0.43117 0.0
H587 H 1.02845 0.62299 0.41774 0.0
Eu588 Eu 0.47314 0.07931 0.65354 0.0
C589 C 0.64428 0.08455 0.64014 0.0
N590 N 0.61932 0.09857 0.63533 0.0
C591 C 0.67896 0.16567 0.6313 0.0
C592 C 0.68792 0.11125 0.64098 0.0
C593 C 0.63585 0.13809 0.63069 0.0
C594 C 0.70511 0.15225 0.63649 0.0
C595 C 0.65108 1.02848 0.64974 0.0
C596 C 0.62605 0.04352 0.64441 0.0
C597 C 0.6945 0.05516 0.65071 0.0
C598 C 0.71287 0.09637 0.64632 0.0
Eu599 Eu 0.54794 0.04882 0.63379 0.0
N600 N 0.58396 1.0183 0.64331 0.0
C601 C 0.63175 0.98696 0.65388 0.0
C602 C 0.56502 0.97758 0.6471 0.0
C603 C 0.58857 0.96139 0.65251 0.0
H604 H 0.61584 0.14846 0.62655 0.0
H605 H 0.57346 0.9291 0.65554 0.0
H606 H 0.42636 1.00335 0.67501 0.0
H607 H 0.39586 0.1365 0.62241 0.0
H608 H 0.53189 0.95718 0.64579 0.0
H609 H 0.6499 0.97425 0.65803 0.0
H610 H 0.45409 0.14095 0.63493 0.0
H611 H 0.69198 0.19724 0.62777 0.0
H612 H 0.7142 0.04414 0.6548 0.0
H613 H 0.74641 0.11651 0.64711 0.0
H614 H 0.35775 0.94048 0.67855 0.0
H615 H 0.73846 0.17376 0.63701 0.0
H616 H 0.32663 0.07213 0.62296 0.0
N617 N 0.40806 1.01917 0.65818 0.0
C618 C 0.37499 1.01324 0.65114 0.0
C619 C 0.36237 0.96017 0.67065 0.0
C620 C 0.33493 0.97823 0.65298 0.0
C621 C 0.4014 0.99546 0.66848 0.0
C622 C 0.32931 0.95072 0.66261 0.0
N623 N 0.41835 0.07948 0.64216 0.0
C624 C 0.42398 0.11281 0.63518 0.0
C625 C 0.346 0.04068 0.63608 0.0
C626 C 0.38011 0.04455 0.64302 0.0
C627 C 0.35207 0.07393 0.62844 0.0
C628 C 0.39109 0.11035 0.62812 0.0
H629 H 0.29903 0.92353 0.66435 0.0
H630 H 0.27045 0.94618 0.64682 0.0
H631 H 0.28035 1.00056 0.63186 0.0
O632 O 0.4585 0.12633 0.66077 0.0
O633 O 0.45358 0.05658 0.63357 0.0
O634 O 0.47843 1.01093 0.63109 0.0
O635 O 0.47282 0.09029 0.67339 0.0
O636 O 0.51812 0.13224 0.64109 0.0
O637 O 0.53715 0.10019 0.62592 0.0
O638 O 0.55582 1.00646 0.62131 0.0
O639 O 0.57204 0.0818 0.6523 0.0
O640 O 0.54405 0.1249 0.65489 0.0
O641 O 0.5631 0.06516 0.61454 0.0
O642 O 0.49229 0.99365 0.64299 0.0
O643 O 0.48383 1.02489 0.66021 0.0
C644 C 0.45408 1.02554 0.62762 0.0
C645 C 0.42691 0.11444 0.68034 0.0
C646 C 0.40167 0.14205 0.69688 0.0
C647 C 0.3613 0.10751 0.69524 0.0
C648 C 0.3861 0.08116 0.67877 0.0
C649 C 0.35368 0.07753 0.68624 0.0
C650 C 0.43463 0.14497 0.68942 0.0
C651 C 0.53056 0.13046 0.62984 0.0
C652 C 0.46106 0.11833 0.67225 0.0
C653 C 0.30128 0.97321 0.64566 0.0
C654 C 0.30685 1.00431 0.6372 0.0
C655 C 0.57617 0.11824 0.65552 0.0
C656 C 0.52748 1.00627 0.60162 0.0
C657 C 0.4768 0.94093 0.59173 0.0
C658 C 0.46653 0.96374 0.58344 0.0
C659 C 0.51676 1.02858 0.59321 0.0
C660 C 0.50746 0.96243 0.60073 0.0
C661 C 0.48638 1.00736 0.58423 0.0
C662 C 0.47572 0.99055 0.65396 0.0
C663 C 0.55785 1.0284 0.61162 0.0
H664 H 0.33544 0.10343 0.70097 0.0
H665 H 0.37906 0.0581 0.67171 0.0
H666 H 0.32238 0.05142 0.685 0.0
H667 H 0.46594 0.17133 0.69045 0.0
H668 H 0.44285 0.94782 0.57647 0.0
H669 H 0.53153 0.06241 0.59362 0.0
H670 H 0.5159 0.94492 0.60702 0.0
H671 H 0.47809 1.02478 0.57788 0.0
Eu672 Eu 0.43375 0.4624 0.82127 0.0
C673 C 0.58919 0.6217 0.80932 0.0
N674 N 0.56112 0.60368 0.80014 0.0
C675 C 0.56628 0.66987 0.79528 0.0
C676 C 0.60574 0.66444 0.81224 0.0
C677 C 0.55068 0.62729 0.79278 0.0
C678 C 0.59331 0.68837 0.80521 0.0
C679 C 0.63514 0.61622 0.82412 0.0
C680 C 0.60326 0.5978 0.81521 0.0
C681 C 0.64979 0.65799 0.82771 0.0
C682 C 0.63505 0.68209 0.82178 0.0
Eu683 Eu 0.53067 0.53027 0.79746 0.0
N684 N 0.58891 0.55788 0.81128 0.0
C685 C 0.65292 0.59287 0.82864 0.0
C686 C 0.60969 0.53706 0.81463 0.0
C687 C 0.64093 0.55355 0.82361 0.0
H688 H 0.52874 0.61265 0.78533 0.0
H689 H 0.65621 0.5362 0.8265 0.0
H690 H 0.47138 0.43302 0.8455 0.0
H691 H 0.29337 0.35933 0.79499 0.0
H692 H 0.6027 0.50773 0.81037 0.0
H693 H 0.67752 0.60583 0.83548 0.0
H694 H 0.34654 0.42615 0.80432 0.0
H695 H 0.55696 0.68822 0.78967 0.0
H696 H 0.67375 0.67244 0.83469 0.0
H697 H 0.64765 0.71468 0.82432 0.0
H698 H 0.47167 0.36962 0.85297 0.0
H699 H 0.60516 0.72127 0.80719 0.0
H700 H 0.29662 0.29437 0.7986 0.0
N701 N 0.4335 0.40261 0.8299 0.0
C702 C 0.40848 0.36527 0.82434 0.0
C703 C 0.45412 0.36803 0.84481 0.0
C704 C 0.40734 0.32817 0.82837 0.0
C705 C 0.45401 0.40391 0.84051 0.0
C706 C 0.43165 0.33023 0.8385 0.0
N707 N 0.37991 0.39919 0.81274 0.0
C708 C 0.34791 0.39781 0.80596 0.0
C709 C 0.35092 0.32466 0.81043 0.0
C710 C 0.38051 0.3634 0.81553 0.0
C711 C 0.31997 0.32354 0.80269 0.0
C712 C 0.31791 0.36012 0.80067 0.0
H713 H 0.4317 0.30246 0.84188 0.0
H714 H 0.37935 0.26119 0.82547 0.0
H715 H 0.32992 0.25814 0.80972 0.0
O716 O 0.37939 0.4683 0.82705 0.0
O717 O 0.43041 0.4339 0.8019 0.0
O718 O 0.49902 0.4601 0.79612 0.0
O719 O 0.41461 0.45687 0.84055 0.0
O720 O 0.41883 0.49776 0.8066 0.0
O721 O 0.46554 0.51227 0.79029 0.0
O722 O 0.57978 0.53596 0.7847 0.0
O723 O 0.49772 0.56108 0.80696 0.0
O724 O 0.48122 0.53151 0.82605 0.0
O725 O 0.52899 0.54332 0.77804 0.0
O726 O 0.52957 0.47498 0.8077 0.0
O727 O 0.4997 0.47444 0.82615 0.0
C728 C 0.45918 0.43326 0.79474 0.0
C729 C 0.3424 0.42708 0.84434 0.0
C730 C 0.28498 0.40533 0.85924 0.0
C731 C 0.27097 0.36334 0.85591 0.0
C732 C 0.32728 0.38493 0.84128 0.0
C733 C 0.29184 0.35338 0.84698 0.0
C734 C 0.32116 0.43729 0.85337 0.0
C735 C 0.42926 0.50552 0.79484 0.0
C736 C 0.38138 0.45978 0.83853 0.0
C737 C 0.38017 0.2899 0.82264 0.0
C738 C 0.35196 0.28815 0.81368 0.0
C739 C 0.49228 0.56404 0.81873 0.0
C740 C 0.54861 0.50303 0.76578 0.0
C741 C 0.56842 0.45924 0.75378 0.0
C742 C 0.52709 0.43567 0.74956 0.0
C743 C 0.50732 0.47901 0.76137 0.0
C744 C 0.57904 0.49309 0.76184 0.0
C745 C 0.49683 0.44576 0.75329 0.0
C746 C 0.52102 0.46211 0.81919 0.0
C747 C 0.55915 0.53637 0.77506 0.0
H748 H 0.24427 0.33781 0.8604 0.0
H749 H 0.34328 0.37622 0.83464 0.0
H750 H 0.28082 0.32093 0.8446 0.0
H751 H 0.33278 0.46984 0.85578 0.0
H752 H 0.51824 0.40956 0.74334 0.0
H753 H 0.48281 0.48531 0.7643 0.0
H754 H 0.61071 0.51092 0.76533 0.0
H755 H 0.46497 0.42736 0.75005 0.0
Eu756 Eu 0.99784 0.4136 0.98722 0.0
C757 C 0.98739 0.57144 0.97132 0.0
N758 N 0.97712 0.53266 0.96705 0.0
C759 C 0.90795 0.51906 0.96221 0.0
C760 C 0.95763 0.58517 0.97141 0.0
C761 C 0.93847 0.50682 0.96228 0.0
C762 C 0.91751 0.55834 0.96682 0.0
C763 C 1.03837 0.63681 0.98088 0.0
C764 C 1.02747 0.59711 0.97598 0.0
C765 C 1.00874 0.65047 0.98097 0.0
C766 C 0.96855 0.62477 0.97624 0.0
Eu767 Eu 1.03205 0.51709 0.96686 0.0
N768 N 0.05555 0.5831 0.97589 0.0
C769 C 0.07877 0.6616 0.98558 0.0
C770 C 0.09508 0.6072 0.98032 0.0
C771 C 0.10723 0.64675 0.98528 0.0
H772 H 0.9311 0.47688 0.95845 0.0
H773 H 0.13861 0.66586 0.9888 0.0
H774 H 0.09556 0.43194 0.99338 0.0
H775 H 0.8638 0.27094 0.9697 0.0
H776 H 0.11754 0.59635 0.97989 0.0
H777 H 0.08833 0.69228 0.98942 0.0
H778 H 0.89991 0.34074 0.97947 0.0
H779 H 0.87712 0.49827 0.95856 0.0
H780 H 1.01658 0.68086 0.98471 0.0
H781 H 0.94601 0.63571 0.97643 0.0
H782 H 0.13925 0.39956 0.98961 0.0
H783 H 0.8937 0.56763 0.96681 0.0
H784 H 0.90334 0.23456 0.96446 0.0
N785 N 1.0416 0.38339 0.98479 0.0
C786 C 1.02377 0.34447 0.97972 0.0
C787 C 0.10693 0.38389 0.98665 0.0
C788 C 1.04747 0.3244 0.97748 0.0
C789 C 0.08219 0.40257 0.98863 0.0
C790 C 0.08964 0.34482 0.98092 0.0
N791 N 0.95969 0.34481 0.97916 0.0
C792 C 0.91766 0.32553 0.97698 0.0
C793 C 0.9622 0.28462 0.97132 0.0
C794 C 0.9817 0.32484 0.97669 0.0
C795 C 0.91943 0.26538 0.96863 0.0
C796 C 0.89701 0.28582 0.97157 0.0
H797 H 0.1089 0.33044 0.97938 0.0
H798 H 1.04612 0.26882 0.97012 0.0
H799 H 0.97144 0.23399 0.9647 0.0
O800 O 0.95636 0.36407 0.99985 0.0
O801 O 1.03135 0.4162 0.96904 0.0
O802 O 0.07192 0.48662 0.96455 0.0
O803 O 1.00568 0.42204 0.00717 0.0
O804 O 0.94956 0.41521 0.97455 0.0
O805 O 0.98843 0.45398 0.95825 0.0
O806 O 0.07957 0.56578 0.95507 0.0
O807 O 1.00102 0.5118 0.98565 0.0
O808 O 0.95455 0.44198 0.98731 0.0
O809 O 1.0183 0.52285 0.94777 0.0
O810 O 0.08675 0.52004 0.97745 0.0
O811 O 0.0592 0.47245 0.99361 0.0
C812 C 0.06133 0.44729 0.96275 0.0
C813 C 0.98319 0.35996 0.01911 0.0
C814 C 0.95796 0.31042 0.03638 0.0
C815 C 0.99633 0.3105 0.03626 0.0
C816 C 1.02098 0.35923 0.0192 0.0
C817 C 1.02748 0.33474 0.02776 0.0
C818 C 0.95178 0.33565 0.02776 0.0
C819 C 0.95564 0.42096 0.96267 0.0
C820 C 0.97539 0.38437 0.00972 0.0
C821 C 1.02835 0.28462 0.97196 0.0
C822 C 0.98583 0.2648 0.96887 0.0
C823 C 0.96407 0.48125 0.98903 0.0
C824 C 0.07637 0.53773 0.93524 0.0
C825 C 0.13577 0.55511 0.92172 0.0
C826 C 0.11617 0.51345 0.91756 0.0
C827 C 0.05724 0.49609 0.93094 0.0
C828 C 0.11554 0.56705 0.93053 0.0
C829 C 0.077 0.48422 0.92212 0.0
C830 C 0.0912 0.50377 0.9878 0.0
C831 C 0.05706 0.54993 0.94519 0.0
H832 H 1.00247 0.29204 0.04283 0.0
H833 H 1.0454 0.37747 0.01263 0.0
H834 H 0.05679 0.33441 0.02779 0.0
H835 H 0.92229 0.33568 0.02757 0.0
H836 H 0.13105 0.50355 0.91076 0.0
H837 H 1.02728 0.47243 0.93449 0.0
H838 H 0.1308 0.5989 0.93401 0.0
H839 H 0.06211 0.45212 0.91892 0.0
Eu840 Eu 0.64831 0.99717 0.15668 0.0
C841 C 0.47479 0.97581 0.14353 0.0
N842 N 0.50354 0.97225 0.13648 0.0
C843 C 0.4496 0.90755 0.1281 0.0
C844 C 0.43218 0.94471 0.14323 0.0
C845 C 0.49139 0.93935 0.12856 0.0
C846 C 0.41991 0.91009 0.13551 0.0
C847 C 0.45889 1.01475 0.15869 0.0
C848 C 0.48797 1.01041 0.15124 0.0
C849 C 0.41647 0.98392 0.15833 0.0
C850 C 0.40318 0.94899 0.15064 0.0
Eu851 Eu 0.57279 1.02871 0.13807 0.0
N852 N 0.52938 0.03918 0.15174 0.0
C853 C 0.47343 0.04978 0.16639 0.0
C854 C 0.54369 0.0739 0.15897 0.0
C855 C 0.51599 0.07955 0.1665 0.0
H856 H 0.51336 0.9377 0.12235 0.0
H857 H 0.52741 0.10693 0.17233 0.0
H858 H 0.7254 0.08935 0.16654 0.0
H859 H 0.66354 0.87056 0.13492 0.0
H860 H 0.57645 0.09725 0.15892 0.0
H861 H 0.45207 0.0542 0.17226 0.0
H862 H 0.62977 0.90109 0.14771 0.0
H863 H 0.44022 0.88133 0.1219 0.0
H864 H 0.39371 0.98664 0.16402 0.0
H865 H 0.37037 0.92538 0.15052 0.0
H866 H 0.8006 0.13707 0.1625 0.0
H867 H 0.38753 0.88542 0.13509 0.0
H868 H 0.7357 0.91558 0.12728 0.0
N869 N 0.72109 0.04237 0.15433 0.0
C870 C 0.74211 1.02864 0.14715 0.0
C871 C 0.78446 0.10683 0.15802 0.0
C872 C 0.78506 0.05441 0.14466 0.0
C873 C 0.74185 0.08001 0.16022 0.0
C874 C 0.80604 0.09426 0.15004 0.0
N875 N 0.68016 0.96347 0.14609 0.0
C876 C 0.66041 0.92135 0.14391 0.0
C877 C 0.74202 0.97176 0.13584 0.0
C878 C 0.72079 0.98802 0.14277 0.0
C879 C 0.72055 0.92931 0.13261 0.0
C880 C 0.67982 0.90381 0.13689 0.0
H881 H 0.83906 0.11503 0.14836 0.0
H882 H 0.83873 0.05862 0.13505 0.0
H883 H 0.80103 0.98611 0.12735 0.0
O884 O 0.66544 0.96065 0.16887 0.0
O885 O 0.67938 0.04846 0.14196 0.0
O886 O 0.62653 1.02845 0.12791 0.0
O887 O 0.64402 1.00086 0.17667 0.0
O888 O 0.59927 0.94585 0.14416 0.0
O889 O 0.58441 0.97993 0.12868 0.0
O890 O 0.58849 0.08986 0.13049 0.0
O891 O 0.55945 1.00337 0.15771 0.0
O892 O 0.57792 0.95314 0.15732 0.0
O893 O 0.53936 1.03344 0.12217 0.0
O894 O 0.62932 0.08391 0.14656 0.0
O895 O 0.64451 0.05515 0.16332 0.0
C896 C 0.66627 0.05006 0.13082 0.0
C897 C 0.68697 0.984 0.18919 0.0
C898 C 0.70898 0.95884 0.20704 0.0
C899 C 0.74176 1.00004 0.20897 0.0
C900 C 0.71983 1.02469 0.19132 0.0
C901 C 0.74708 1.03256 0.20116 0.0
C902 C 0.68173 0.95123 0.19704 0.0
C903 C 0.58802 0.94798 0.13278 0.0
C904 C 0.6576 0.97469 0.1789 0.0
C905 C 0.80582 0.03917 0.13719 0.0
C906 C 0.78433 0.9979 0.13279 0.0
C907 C 0.55025 0.96462 0.16 0.0
C908 C 0.58443 0.08833 0.10887 0.0
C909 C 0.6268 0.14682 0.0951 0.0
C910 C 0.6244 0.11806 0.08614 0.0
C911 C 0.58243 0.06015 0.09977 0.0
C912 C 0.60715 0.13145 0.10653 0.0
C913 C 0.60253 0.07507 0.08851 0.0
C914 C 0.64981 0.08801 0.15684 0.0
C915 C 0.56431 0.07359 0.12096 0.0
H916 H 0.76295 1.00737 0.21665 0.0
H917 H 0.72431 0.05033 0.18544 0.0
H918 H 0.77232 0.06409 0.20279 0.0
H919 H 0.65656 0.91972 0.19525 0.0
H920 H 0.6385 0.12856 0.07718 0.0
H921 H 0.56571 1.02665 0.10137 0.0
H922 H 0.60951 0.153 0.11371 0.0
H923 H 0.60084 0.05319 0.08156 0.0
Eu924 Eu 0.66423 0.60604 0.3215 0.0
C925 C 0.52008 0.44144 0.31254 0.0
N926 N 0.54467 0.45849 0.30254 0.0
C927 C 0.54102 0.39284 0.29789 0.0
C928 C 0.50643 0.39955 0.31595 0.0
C929 C 0.55419 0.43466 0.29496 0.0
C930 C 0.51759 0.37538 0.30854 0.0
C931 C 0.47928 0.44768 0.32901 0.0
C932 C 0.50706 0.46543 0.319 0.0
C933 C 0.46793 0.407 0.33299 0.0
C934 C 0.48143 0.38293 0.32645 0.0
Eu935 Eu 0.56889 0.53014 0.2985 0.0
N936 N 0.51792 0.50433 0.31471 0.0
C937 C 0.46169 0.47027 0.33422 0.0
C938 C 0.49598 0.52336 0.31868 0.0
C939 C 0.46904 0.50766 0.32877 0.0
H940 H 0.57326 0.44851 0.2869 0.0
H941 H 0.45312 0.52388 0.33213 0.0
H942 H 0.62035 0.62905 0.34548 0.0
H943 H 0.80609 0.71696 0.29721 0.0
H944 H 0.49803 0.55019 0.314 0.0
H945 H 0.44021 0.45777 0.3419 0.0
H946 H 0.75314 0.64775 0.30529 0.0
H947 H 0.54946 0.3743 0.29203 0.0
H948 H 0.44722 0.39321 0.34078 0.0
H949 H 0.47131 0.3511 0.32936 0.0
H950 H 0.61616 0.68987 0.35358 0.0
H951 H 0.50779 0.34311 0.31086 0.0
H952 H 0.79907 0.7796 0.30135 0.0
N953 N 0.65985 0.66288 0.3305 0.0
C954 C 0.68399 0.70117 0.32535 0.0
C955 C 0.63504 0.69341 0.34555 0.0
C956 C 0.68277 0.73679 0.32971 0.0
C957 C 0.63741 0.65903 0.34092 0.0
C958 C 0.65684 0.73219 0.3397 0.0
N959 N 0.7165 0.6712 0.31366 0.0
C960 C 0.75007 0.67506 0.30716 0.0
C961 C 0.74279 0.74556 0.31224 0.0
C962 C 0.71357 0.70559 0.31671 0.0
C963 C 0.77584 0.74939 0.3049 0.0
C964 C 0.78002 0.71413 0.30259 0.0
H965 H 0.65499 0.75876 0.34332 0.0
H966 H 0.70841 0.80381 0.3276 0.0
H967 H 0.76113 0.81151 0.31231 0.0
O968 O 0.72022 0.6036 0.32751 0.0
O969 O 0.66595 0.63481 0.30239 0.0
O970 O 0.5999 0.59858 0.29329 0.0
O971 O 0.68212 0.61165 0.34088 0.0
O972 O 0.68364 0.57525 0.3065 0.0
O973 O 0.63398 0.55176 0.29067 0.0
O974 O 0.51164 0.5101 0.2878 0.0
O975 O 0.60822 0.5059 0.30774 0.0
O976 O 0.62047 0.53656 0.32658 0.0
O977 O 0.56536 0.51222 0.27925 0.0
O978 O 0.56663 0.587 0.30627 0.0
O979 O 0.59705 0.59194 0.32486 0.0
C980 C 0.63814 0.63089 0.29397 0.0
C981 C 0.75448 0.64527 0.34499 0.0
C982 C 0.8125 0.66952 0.35972 0.0
C983 C 0.8237 0.71114 0.35676 0.0
C984 C 0.76663 0.68712 0.34237 0.0
C985 C 0.80102 0.71973 0.34814 0.0
C986 C 0.77749 0.63646 0.35374 0.0
C987 C 0.67223 0.56467 0.29491 0.0
C988 C 0.71681 0.61127 0.33899 0.0
C989 C 0.70937 0.77621 0.3245 0.0
C990 C 0.73943 0.78061 0.3158 0.0
C991 C 0.61454 0.50483 0.31954 0.0
C992 C 0.52415 0.52885 0.26669 0.0
C993 C 0.51043 0.58128 0.25721 0.0
C994 C 0.51727 0.56875 0.24559 0.0
C995 C 0.53072 0.51692 0.25502 0.0
C996 C 0.51484 0.56158 0.26776 0.0
C997 C 0.52764 0.53704 0.24455 0.0
C998 C 0.57778 0.60452 0.31718 0.0
C999 C 0.52839 0.50743 0.27755 0.0
H1000 H 0.84949 0.73733 0.36134 0.0
H1001 H 0.74913 0.69474 0.33602 0.0
H1002 H 0.80975 0.75188 0.34606 0.0
H1003 H 0.76813 0.60417 0.35587 0.0
H1004 H 0.51324 0.58234 0.23724 0.0
H1005 H 0.53834 0.49203 0.25403 0.0
H1006 H 0.51072 0.57143 0.2768 0.0
H1007 H 0.53255 0.52751 0.23557 0.0
C1008 C 0.06143 0.68392 0.22595 0.0
C1009 C 0.07936 0.69034 0.21421 0.0
C1010 C 0.08425 0.70951 0.23582 0.0
C1011 C 0.18342 0.80628 0.24471 0.0
H1012 H 0.17574 0.74017 0.27339 0.0
C1013 C 0.28626 0.87837 0.28851 0.0
C1014 C 0.30639 0.85653 0.29265 0.0
C1015 C 0.25435 0.86051 0.27965 0.0
C1016 C 0.17822 0.75919 0.26548 0.0
H1017 H 0.13473 0.72904 0.20347 0.0
H1018 H 0.17462 0.77426 0.22061 0.0
H1019 H 0.12759 0.70757 0.25636 0.0
H1020 H 0.30787 0.79841 0.29112 0.0
H1021 H 0.25192 0.76699 0.27595 0.0
H1022 H 0.23487 0.85782 0.25386 0.0
C1023 C 0.1426 0.75006 0.22222 0.0
C1024 C 0.15032 0.74054 0.25572 0.0
C1025 C 0.11965 0.7244 0.21234 0.0
C1026 C 0.29285 0.81593 0.28813 0.0
C1027 C 0.26069 0.7979 0.27945 0.0
C1028 C 0.2111 0.82515 0.25458 0.0
C1029 C 0.12583 0.74185 0.2342 0.0
C1030 C 0.15294 0.76352 0.24508 0.0
C1031 C 0.24147 0.82018 0.27493 0.0
C1032 C 0.20936 0.80159 0.26499 0.0
H1033 H 1.03091 0.65711 0.2277 0.0
H1034 H 0.07 0.70255 0.24484 0.0
H1035 H 0.18622 0.82509 0.23673 0.0
H1036 H 0.29635 0.90986 0.29175 0.0
H1037 H 0.23999 0.87838 0.27642 0.0
C1038 C 0.44784 0.26207 0.45574 0.0
C1039 C 0.41497 0.24222 0.46426 0.0
C1040 C 0.45116 0.23991 0.44565 0.0
C1041 C 0.4081 0.13031 0.43289 0.0
H1042 H 0.45573 0.19057 0.40259 0.0
C1043 C 0.40812 0.05238 0.38542 0.0
C1044 C 0.44939 0.06539 0.38166 0.0
C1045 C 0.40037 0.07327 0.39509 0.0
C1046 C 0.44198 0.17331 0.41097 0.0
H1047 H 0.36137 0.18225 0.46908 0.0
H1048 H 0.36545 0.14493 0.45135 0.0
H1049 H 0.45082 0.22818 0.42043 0.0
H1050 H 0.5147 0.11114 0.38513 0.0
H1051 H 0.50085 0.14786 0.40133 0.0
H1052 H 0.39856 0.07527 0.42313 0.0
C1053 C 0.38935 0.17737 0.45244 0.0
C1054 C 0.43971 0.19495 0.42131 0.0
C1055 C 0.38654 0.19922 0.4626 0.0
C1056 C 0.48237 0.10025 0.38759 0.0
C1057 C 0.47459 0.12151 0.39693 0.0
C1058 C 0.40955 0.10857 0.42246 0.0
C1059 C 0.42142 0.19733 0.44368 0.0
C1060 C 0.42325 0.17398 0.43252 0.0
C1061 C 0.43367 0.10808 0.4009 0.0
C1062 C 0.42693 0.12993 0.41144 0.0
H1063 H 0.47037 0.29507 0.45663 0.0
H1064 H 0.47706 0.25645 0.43937 0.0
H1065 H 0.39599 0.11281 0.44131 0.0
H1066 H 0.38211 1.02536 0.38121 0.0
H1067 H 0.36847 0.06221 0.39806 0.0
C1068 C 0.23046 0.38153 0.63179 0.0
C1069 C 0.21122 0.40651 0.6327 0.0
C1070 C 0.25555 0.38484 0.6217 0.0
C1071 C 0.27841 0.42517 0.58944 0.0
H1072 H 0.3696 0.40098 0.59247 0.0
C1073 C 0.40436 0.46463 0.55218 0.0
C1074 C 0.41504 0.43388 0.54894 0.0
C1075 C 0.37715 0.45838 0.5619 0.0
C1076 C 0.34386 0.40725 0.59146 0.0
H1077 H 0.20549 0.45628 0.6238 0.0
H1078 H 0.25096 0.46365 0.60652 0.0
H1079 H 0.33037 0.39984 0.6107 0.0
H1080 H 0.40597 0.37266 0.55367 0.0
H1081 H 0.35882 0.36206 0.57108 0.0
H1082 H 0.29338 0.43428 0.57024 0.0
C1083 C 0.24534 0.44022 0.61342 0.0
C1084 C 0.32122 0.40662 0.60193 0.0
C1085 C 0.21971 0.43652 0.62348 0.0
C1086 C 0.39764 0.39649 0.55575 0.0
C1087 C 0.37105 0.39066 0.56577 0.0
C1088 C 0.30147 0.42642 0.57903 0.0
C1089 C 0.263 0.41382 0.61224 0.0
C1090 C 0.28804 0.41553 0.6011 0.0
C1091 C 0.36068 0.42171 0.56896 0.0
C1092 C 0.33442 0.41743 0.57991 0.0
H1093 H 0.22559 0.35867 0.63881 0.0
H1094 H 0.26804 0.36362 0.6212 0.0
H1095 H 0.25267 0.43131 0.58828 0.0
H1096 H 0.41777 0.49425 0.54734 0.0
H1097 H 0.37039 0.48317 0.56423 0.0
C1098 C 1.03111 0.38613 0.72243 0.0
C1099 C 1.01339 0.40749 0.71641 0.0
C1100 C 1.0108 0.36019 0.73259 0.0
C1101 C 0.92437 0.33743 0.7554 0.0
H1102 H 0.93704 0.24143 0.76342 0.0
C1103 C 0.81974 0.20875 0.79085 0.0
C1104 C 0.84111 0.19763 0.79949 0.0
C1105 C 0.84119 0.23523 0.78094 0.0
C1106 C 0.93336 0.26829 0.7613 0.0
H1107 H 0.96003 0.41792 0.71644 0.0
H1108 H 0.92383 0.3712 0.73311 0.0
H1109 H 0.97326 0.28422 0.74555 0.0
H1110 H 0.90274 0.20827 0.80469 0.0
H1111 H 0.93932 0.25272 0.78722 0.0
H1112 H 0.88322 0.3203 0.77095 0.0
C1113 C 0.95403 0.3752 0.73051 0.0
C1114 C 0.9544 0.29312 0.75108 0.0
C1115 C 0.97466 0.40165 0.72066 0.0
C1116 C 0.88473 0.21484 0.79808 0.0
C1117 C 0.90591 0.24056 0.78808 0.0
C1118 C 0.90277 0.31216 0.76545 0.0
C1119 C 0.97197 0.35459 0.73686 0.0
C1120 C 0.95024 0.32816 0.74793 0.0
C1121 C 0.88438 0.25076 0.77933 0.0
C1122 C 0.90704 0.27734 0.76854 0.0
H1123 H 0.06137 0.39077 0.71963 0.0
H1124 H 1.02624 0.34557 0.73727 0.0
H1125 H 0.92083 0.3645 0.75361 0.0
H1126 H 0.78622 0.19599 0.79149 0.0
H1127 H 0.82375 0.24256 0.77432 0.0
C1128 C 0.61733 0.96061 0.88682 0.0
C1129 C 0.64824 1.00118 0.8833 0.0
C1130 C 0.62338 0.94048 0.89682 0.0
C1131 C 0.67286 0.95951 0.92649 0.0
H1132 H 0.65223 0.8454 0.92392 0.0
C1133 C 0.69828 0.87448 0.96765 0.0
C1134 C 0.67422 0.83054 0.96858 0.0
C1135 C 0.69502 0.8957 0.95741 0.0
C1136 C 0.65738 0.87696 0.92491 0.0
H1137 H 0.70941 0.0528 0.88784 0.0
H1138 H 0.71955 1.01776 0.90576 0.0
H1139 H 0.64955 0.88202 0.90558 0.0
H1140 H 0.62602 0.77488 0.95959 0.0
H1141 H 0.61866 0.812 0.94204 0.0
H1142 H 0.67889 0.9542 0.94585 0.0
C1143 C 0.69105 1.00138 0.90044 0.0
C1144 C 0.65633 0.89812 0.91433 0.0
C1145 C 0.68547 1.02125 0.89014 0.0
C1146 C 0.64505 0.80868 0.95924 0.0
C1147 C 0.64138 0.83003 0.94904 0.0
C1148 C 0.67325 0.93814 0.93713 0.0
C1149 C 0.65992 0.96077 0.90387 0.0
C1150 C 0.6641 0.93961 0.915 0.0
C1151 C 0.66699 0.87382 0.94783 0.0
C1152 C 0.66554 0.89647 0.93651 0.0
H1153 H 0.5878 0.94441 0.88199 0.0
H1154 H 0.5986 0.9095 0.89932 0.0
H1155 H 0.67815 0.9912 0.92731 0.0
H1156 H 0.72045 0.89268 0.97476 0.0
H1157 H 0.7156 0.92924 0.95689 0.0
C1158 C 0.84905 0.60016 0.12584 0.0
C1159 C 0.88961 0.63319 0.128 0.0
C1160 C 0.82193 0.60557 0.11797 0.0
C1161 C 0.82502 0.67448 0.09218 0.0
H1162 H 0.70461 0.6043 0.09429 0.0
C1163 C 0.70283 0.67284 0.05657 0.0
C1164 C 0.67612 0.63235 0.05199 0.0
C1165 C 0.72963 0.67887 0.06654 0.0
C1166 C 0.73821 0.62437 0.09363 0.0
H1167 H 0.93337 0.69812 0.12403 0.0
H1168 H 0.88544 0.70862 0.11085 0.0
H1169 H 0.74833 0.60483 0.11117 0.0
H1170 H 0.65769 0.56655 0.05434 0.0
H1171 H 0.70286 0.57712 0.07166 0.0
H1172 H 0.81422 0.69402 0.07458 0.0
C1173 C 0.87462 0.67805 0.11491 0.0
C1174 C 0.76343 0.62441 0.10326 0.0
C1175 C 0.90194 0.67236 0.12264 0.0
C1176 C 0.67721 0.59827 0.0576 0.0
C1177 C 0.70314 0.60417 0.0676 0.0
C1178 C 0.79962 0.67499 0.08263 0.0
C1179 C 0.83459 0.64436 0.11212 0.0
C1180 C 0.80737 0.64852 0.10256 0.0
C1181 C 0.72938 0.64434 0.07228 0.0
C1182 C 0.75604 0.6491 0.08312 0.0
H1183 H 0.83924 0.56937 0.12962 0.0
H1184 H 0.79189 0.57851 0.11597 0.0
H1185 H 0.8586 0.69309 0.09111 0.0
H1186 H 0.7023 0.6996 0.05267 0.0
H1187 H 0.74965 0.71028 0.06998 0.0
C1188 C 0.40632 1.02269 0.61047 0.0
C1189 C 0.42456 1.00351 0.61738 0.0
C1190 C 0.38067 1.00186 0.60035 0.0
C1191 C 0.31308 0.897 0.58754 0.0
H1192 H 0.33855 0.95075 0.55564 0.0
C1193 C 0.22651 0.80416 0.54402 0.0
C1194 C 0.21622 0.82522 0.53507 0.0
C1195 C 0.25377 0.82632 0.55369 0.0
C1196 C 0.33043 0.93533 0.56449 0.0
H1197 H 0.43021 0.9474 0.61892 0.0
H1198 H 0.38408 0.91077 0.60189 0.0
H1199 H 0.3793 0.98939 0.57356 0.0
H1200 H 0.22911 0.88679 0.52896 0.0
H1201 H 0.27452 0.92479 0.54595 0.0
H1202 H 0.26372 0.84335 0.57872 0.0
C1203 C 0.38967 0.94185 0.60422 0.0
C1204 C 0.3539 0.95762 0.57476 0.0
C1205 C 0.4161 0.96297 0.61403 0.0
C1206 C 0.23541 0.86921 0.5358 0.0
C1207 C 0.26216 0.89125 0.54552 0.0
C1208 C 0.28919 0.87493 0.57734 0.0
C1209 C 0.37205 0.96113 0.59716 0.0
C1210 C 0.34557 0.93862 0.58638 0.0
C1211 C 0.27127 0.87015 0.55475 0.0
C1212 C 0.29755 0.89362 0.56562 0.0
H1213 H 0.41274 0.05409 0.61268 0.0
H1214 H 0.36741 1.01745 0.59505 0.0
H1215 H 0.30586 0.8816 0.59641 0.0
H1216 H 0.21238 0.77036 0.54382 0.0
H1217 H 0.26067 0.80888 0.56043 0.0
C1218 C 0.44446 0.19245 0.7138 0.0
C1219 C 0.40849 0.17442 0.70637 0.0
C1220 C 0.44884 0.22028 0.7233 0.0
C1221 C 0.40536 0.28698 0.7353 0.0
H1222 H 0.45622 0.27993 0.76571 0.0
C1223 C 0.40895 0.37779 0.77995 0.0
C1224 C 0.4485 0.39945 0.78553 0.0
C1225 C 0.40151 0.34873 0.77049 0.0
C1226 C 0.44199 0.28235 0.75727 0.0
H1227 H 0.34996 0.17359 0.70279 0.0
H1228 H 0.35691 0.22059 0.71945 0.0
H1229 H 0.45021 0.23458 0.74857 0.0
H1230 H 0.51127 0.40748 0.7854 0.0
H1231 H 0.49791 0.35663 0.76944 0.0
H1232 H 0.39701 0.33473 0.74415 0.0
C1233 C 0.38201 0.21366 0.71795 0.0
C1234 C 0.43884 0.25654 0.74737 0.0
C1235 C 0.37775 0.1861 0.70845 0.0
C1236 C 0.48007 0.39094 0.78155 0.0
C1237 C 0.47247 0.3616 0.77235 0.0
C1238 C 0.40826 0.31262 0.74525 0.0
C1239 C 0.41737 0.23082 0.72563 0.0
C1240 C 0.42077 0.25863 0.73619 0.0
C1241 C 0.43332 0.34038 0.76659 0.0
C1242 C 0.42692 0.31084 0.75632 0.0
H1243 H 0.46874 0.1842 0.71253 0.0
H1244 H 0.47693 0.2334 0.72884 0.0
H1245 H 0.39177 0.29004 0.72681 0.0
H1246 H 0.38433 0.38432 0.78259 0.0
H1247 H 0.37095 0.33286 0.76621 0.0
C1248 C 0.12624 0.47098 0.95028 0.0
C1249 C 0.08567 0.43906 0.95334 0.0
C1250 C 0.14799 0.46641 0.94042 0.0
C1251 C 0.13181 0.41672 0.91058 0.0
H1252 H 0.24765 0.4436 0.91326 0.0
C1253 C 0.21832 0.38974 0.87018 0.0
C1254 C 0.26209 0.4145 0.8691 0.0
C1255 C 0.19699 0.39403 0.88024 0.0
C1256 C 0.21559 0.43675 0.91223 0.0
H1257 H 1.03634 0.37692 0.94846 0.0
H1258 H 0.07425 0.36925 0.93088 0.0
H1259 H 0.21025 0.44601 0.93147 0.0
H1260 H 0.31724 0.46513 0.87758 0.0
H1261 H 0.27986 0.47427 0.89478 0.0
H1262 H 0.13723 0.40911 0.89132 0.0
C1263 C 0.08921 0.39767 0.93631 0.0
C1264 C 0.19401 0.4377 0.92274 0.0
C1265 C 0.06767 0.40188 0.94641 0.0
C1266 C 0.28359 0.44548 0.87805 0.0
C1267 C 0.26209 0.4502 0.88807 0.0
C1268 C 0.15356 0.41648 0.90002 0.0
C1269 C 0.12948 0.43013 0.93315 0.0
C1270 C 0.15181 0.42742 0.92206 0.0
C1271 C 0.21853 0.42385 0.88947 0.0
C1272 C 0.19578 0.42619 0.90067 0.0
H1273 H 0.14097 0.50017 0.95533 0.0
H1274 H 0.17871 0.49212 0.93816 0.0
H1275 H 0.09956 0.40952 0.90973 0.0
H1276 H 0.20036 0.36617 0.86336 0.0
H1277 H 0.16366 0.37279 0.88092 0.0
C1278 C 0.68367 0.07174 0.10878 0.0
C1279 C 0.69637 0.07678 0.12115 0.0
C1280 C 0.71075 0.09764 0.09961 0.0
C1281 C 0.80685 0.19982 0.09431 0.0
H1282 H 0.80871 0.14952 0.06314 0.0
C1283 C 0.90228 0.29903 0.05207 0.0
C1284 C 0.92482 0.28362 0.04546 0.0
C1285 C 0.87323 0.27444 0.06114 0.0
C1286 C 0.80878 0.16415 0.07179 0.0
H1287 H 0.74783 0.11349 0.13351 0.0
H1288 H 0.7956 0.15834 0.11743 0.0
H1289 H 0.7621 0.10589 0.07942 0.0
H1290 H 0.93309 0.22949 0.04296 0.0
H1291 H 0.88291 0.18695 0.05868 0.0
H1292 H 0.85412 0.25804 0.08668 0.0
C1293 C 0.76434 0.13449 0.11487 0.0
C1294 C 0.78167 0.13913 0.08112 0.0
C1295 C 0.73712 0.10843 0.12408 0.0
C1296 C 0.91672 0.24263 0.04795 0.0
C1297 C 0.88756 0.21802 0.05691 0.0
C1298 C 0.83386 0.22496 0.08493 0.0
C1299 C 0.75151 0.12939 0.10249 0.0
C1300 C 0.78043 0.1565 0.09254 0.0
C1301 C 0.86561 0.23362 0.06373 0.0
C1302 C 0.83545 0.2074 0.07356 0.0
H1303 H 0.65262 0.04762 0.10615 0.0
H1304 H 0.69946 0.09303 0.09024 0.0
H1305 H 0.80645 0.21442 0.10292 0.0
H1306 H 0.90785 0.3305 0.05044 0.0
H1307 H 0.85662 0.28737 0.0661 0.0
C1308 C 0.6154 0.66735 0.27891 0.0
C1309 C 0.64816 0.66541 0.28505 0.0
C1310 C 0.62362 0.69881 0.27036 0.0
C1311 C 0.70568 0.80401 0.25989 0.0
H1312 H 0.63401 0.77612 0.23128 0.0
C1313 C 0.73779 0.92265 0.22041 0.0
C1314 C 0.70309 0.92423 0.21553 0.0
C1315 C 0.73234 0.89094 0.22862 0.0
C1316 C 0.6541 0.78459 0.23926 0.0
H1317 H 0.71536 0.69442 0.28644 0.0
H1318 H 0.73012 0.7499 0.27154 0.0
H1319 H 0.62303 0.72156 0.24594 0.0
H1320 H 0.63529 0.89336 0.21565 0.0
H1321 H 0.62582 0.838 0.22985 0.0
H1322 H 0.73677 0.86712 0.25314 0.0
C1323 C 0.69784 0.72743 0.27362 0.0
C1324 C 0.6478 0.75324 0.24771 0.0
C1325 C 0.68949 0.69576 0.28224 0.0
C1326 C 0.66277 0.89288 0.21902 0.0
C1327 C 0.65732 0.8611 0.2272 0.0
C1328 C 0.71208 0.83538 0.2514 0.0
C1329 C 0.66494 0.72928 0.26752 0.0
C1330 C 0.67321 0.76254 0.25822 0.0
C1331 C 0.69203 0.85977 0.23216 0.0
C1332 C 0.68613 0.82616 0.24102 0.0
H1333 H 0.58301 0.64471 0.28081 0.0
H1334 H 0.59734 0.69944 0.26607 0.0
H1335 H 0.72555 0.81256 0.26793 0.0
H1336 H 0.76932 0.94573 0.21779 0.0
H1337 H 0.75978 0.89058 0.23209 0.0
C1338 C 0.97308 0.60489 0.44928 0.0
C1339 C 1.01353 0.63583 0.45283 0.0
C1340 C 0.95225 0.61176 0.43966 0.0
C1341 C 0.97013 0.66555 0.41067 0.0
H1342 H 0.85365 0.63654 0.41343 0.0
C1343 C 0.88033 0.6885 0.3704 0.0
C1344 C 0.83681 0.6618 0.36939 0.0
C1345 C 0.90262 0.68565 0.38041 0.0
C1346 C 0.88593 0.64409 0.41239 0.0
H1347 H 0.06409 0.69818 0.44881 0.0
H1348 H 1.0277 0.70999 0.43155 0.0
H1349 H 0.89136 0.6346 0.43158 0.0
H1350 H 0.78321 0.60935 0.37788 0.0
H1351 H 0.82236 0.6029 0.39502 0.0
H1352 H 0.96451 0.67333 0.39142 0.0
C1353 C 1.012 0.6807 0.43656 0.0
C1354 C 0.90769 0.64346 0.42286 0.0
C1355 C 1.03264 0.67416 0.44648 0.0
C1356 C 0.81664 0.63044 0.37831 0.0
C1357 C 0.8391 0.62725 0.38829 0.0
C1358 C 0.94821 0.66558 0.40014 0.0
C1359 C 0.97162 0.64937 0.43304 0.0
C1360 C 0.94997 0.65407 0.42212 0.0
C1361 C 0.88227 0.65553 0.38965 0.0
C1362 C 0.90568 0.65473 0.40083 0.0
H1363 H 0.9576 0.57458 0.45375 0.0
H1364 H 0.92157 0.58675 0.43705 0.0
H1365 H 1.00249 0.67314 0.40978 0.0
H1366 H 0.89721 0.71251 0.36358 0.0
H1367 H 0.93563 0.70821 0.38107 0.0
C1368 C 0.54745 0.63829 0.33141 0.0
C1369 C 0.56768 0.63847 0.32041 0.0
C1370 C 0.53801 0.67052 0.33404 0.0
C1371 C 0.52686 0.75749 0.31897 0.0
H1372 H 0.53419 0.79713 0.35233 0.0
C1373 C 0.51067 0.90564 0.33152 0.0
C1374 C 0.49192 0.90524 0.34285 0.0
C1375 C 0.51903 0.873 0.32835 0.0
C1376 C 0.53136 0.78624 0.34295 0.0
H1377 H 0.59305 0.67263 0.30353 0.0
H1378 H 0.57739 0.72846 0.30804 0.0
H1379 H 0.54992 0.74115 0.34799 0.0
H1380 H 0.46516 0.86858 0.35933 0.0
H1381 H 0.47859 0.81209 0.35377 0.0
H1382 H 0.50843 0.80277 0.31394 0.0
C1383 C 0.56821 0.70346 0.31467 0.0
C1384 C 0.54046 0.75383 0.34045 0.0
C1385 C 0.57746 0.67132 0.31207 0.0
C1386 C 0.48003 0.87037 0.35058 0.0
C1387 C 0.48818 0.83793 0.34742 0.0
C1388 C 0.51777 0.78996 0.32147 0.0
C1389 C 0.54824 0.70381 0.3257 0.0
C1390 C 0.53827 0.73863 0.32841 0.0
C1391 C 0.5087 0.83891 0.33638 0.0
C1392 C 0.51957 0.80484 0.33353 0.0
H1393 H 0.53885 0.61318 0.33798 0.0
H1394 H 0.52214 0.66895 0.34257 0.0
H1395 H 0.52413 0.74666 0.30958 0.0
H1396 H 0.52066 0.93208 0.32537 0.0
H1397 H 0.53498 0.87534 0.31977 0.0
C1398 C 0.63883 0.46377 0.51834 0.0
C1399 C 0.61656 0.47615 0.51041 0.0
C1400 C 0.67974 0.47224 0.51562 0.0
C1401 C 0.77478 0.54304 0.49695 0.0
H1402 H 0.81181 0.46463 0.50632 0.0
C1403 C 0.93988 0.56951 0.48285 0.0
C1404 C 0.96117 0.55481 0.49032 0.0
C1405 C 0.89878 0.56059 0.4855 0.0
C1406 C 0.80254 0.4874 0.50378 0.0
H1407 H 0.6209 0.50757 0.49324 0.0
H1408 H 0.69241 0.5223 0.48836 0.0
H1409 H 0.73942 0.44706 0.50985 0.0
H1410 H 0.95518 0.51916 0.50672 0.0
H1411 H 0.88351 0.50378 0.51157 0.0
H1412 H 0.83793 0.58362 0.49101 0.0
C1413 C 0.67799 0.50579 0.49678 0.0
C1414 C 0.76051 0.47715 0.50578 0.0
C1415 C 0.63655 0.49676 0.49946 0.0
C1416 C 0.93996 0.53114 0.50075 0.0
C1417 C 0.89848 0.52199 0.50343 0.0
C1418 C 0.81687 0.55339 0.49499 0.0
C1419 C 0.70057 0.49395 0.50487 0.0
C1420 C 0.74564 0.50469 0.50239 0.0
C1421 C 0.87685 0.53634 0.4958 0.0
C1422 C 0.83175 0.52574 0.49832 0.0
H1423 H 0.62486 0.4483 0.52694 0.0
H1424 H 0.6956 0.46298 0.52224 0.0
H1425 H 0.76533 0.56569 0.4944 0.0
H1426 H 0.95526 0.58847 0.4749 0.0
H1427 H 0.88397 0.57215 0.47923 0.0
C1428 C 0.43744 0.92896 0.66901 0.0
C1429 C 0.44063 0.94756 0.65745 0.0
C1430 C 0.40498 0.88753 0.67149 0.0
C1431 C 0.32361 0.78848 0.65525 0.0
H1432 H 0.27731 0.75461 0.68789 0.0
C1433 C 0.17477 0.62375 0.66566 0.0
C1434 C 0.17357 0.60469 0.677 0.0
C1435 C 0.20738 0.6649 0.66295 0.0
C1436 C 0.29003 0.76315 0.6787 0.0
H1437 H 0.41063 0.93704 0.63974 0.0
H1438 H 0.35478 0.86657 0.64396 0.0
H1439 H 0.33294 0.82631 0.68429 0.0
H1440 H 0.20723 0.61399 0.69408 0.0
H1441 H 0.26347 0.68409 0.68935 0.0
H1442 H 0.28036 0.7253 0.64967 0.0
C1443 C 0.3777 0.88277 0.65108 0.0
C1444 C 0.32233 0.80471 0.67663 0.0
C1445 C 0.41003 0.9237 0.64862 0.0
C1446 C 0.20678 0.62742 0.68526 0.0
C1447 C 0.23907 0.66817 0.68258 0.0
C1448 C 0.29118 0.74698 0.65732 0.0
C1449 C 0.37458 0.86335 0.66251 0.0
C1450 C 0.33996 0.81839 0.66485 0.0
C1451 C 0.23976 0.68827 0.6715 0.0
C1452 C 0.27381 0.7333 0.66911 0.0
H1453 H 0.46038 0.94614 0.67605 0.0
H1454 H 0.40435 0.87422 0.6804 0.0
H1455 H 0.33634 0.79677 0.64607 0.0
H1456 H 0.14953 0.60774 0.65914 0.0
H1457 H 0.20631 0.67895 0.65432 0.0
C1458 C 0.55028 0.42811 0.83384 0.0
C1459 C 0.52907 0.42712 0.82297 0.0
C1460 C 0.55921 0.39555 0.83663 0.0
C1461 C 0.56764 0.30665 0.82165 0.0
H1462 H 0.56467 0.26924 0.85504 0.0
C1463 C 0.58613 0.15929 0.83335 0.0
C1464 C 0.60521 0.15926 0.84456 0.0
C1465 C 0.57724 0.19183 0.83049 0.0
C1466 C 0.56634 0.27947 0.84563 0.0
H1467 H 0.49963 0.38999 0.80682 0.0
H1468 H 0.51483 0.33411 0.81152 0.0
H1469 H 0.54915 0.3255 0.85093 0.0
H1470 H 0.63116 0.19471 0.86127 0.0
H1471 H 0.61719 0.25115 0.85622 0.0
H1472 H 0.585 0.2608 0.81634 0.0
C1473 C 0.52562 0.36018 0.81785 0.0
C1474 C 0.55729 0.31206 0.84327 0.0
C1475 C 0.51678 0.39249 0.81511 0.0
C1476 C 0.61634 0.1934 0.85256 0.0
C1477 C 0.60777 0.2258 0.8497 0.0
C1478 C 0.57682 0.27416 0.82401 0.0
C1479 C 0.54742 0.36108 0.82859 0.0
C1480 C 0.55772 0.32638 0.83122 0.0
C1481 C 0.58732 0.22549 0.83872 0.0
C1482 C 0.57654 0.2599 0.83606 0.0
H1483 H 0.56049 0.45432 0.8401 0.0
H1484 H 0.57622 0.39793 0.84497 0.0
H1485 H 0.56907 0.31679 0.81224 0.0
H1486 H 0.57636 0.13326 0.82705 0.0
H1487 H 0.56119 0.18978 0.82197 0.0
C1488 C 0.16813 0.53552 0.98279 0.0
C1489 C 0.13576 0.51749 0.99161 0.0
C1490 C 0.20921 0.54471 0.98548 0.0
C1491 C 0.2875 0.57485 0.00951 0.0
H1492 H 0.34024 0.52762 0.98902 0.0
C1493 C 0.45353 0.60227 0.02165 0.0
C1494 C 0.47889 0.59692 0.01293 0.0
C1495 C 0.41279 0.59372 0.01885 0.0
C1496 C 0.32679 0.54201 0.99476 0.0
H1497 H 0.12289 0.49666 0.01052 0.0
H1498 H 0.19557 0.51509 0.01545 0.0
H1499 H 0.26825 0.51068 0.98498 0.0
H1500 H 0.48101 0.58006 0.99403 0.0
H1501 H 0.4108 0.56751 0.98879 0.0
H1502 H 0.34592 0.60836 0.01884 0.0
C1503 C 0.18835 0.52097 0.00627 0.0
C1504 C 0.28494 0.53175 0.99249 0.0
C1505 C 0.14664 0.51053 0.00346 0.0
C1506 C 0.46269 0.58479 0.001 0.0
C1507 C 0.42173 0.57678 0.99809 0.0
C1508 C 0.32965 0.58607 0.01159 0.0
C1509 C 0.22011 0.53755 0.99723 0.0
C1510 C 0.2645 0.5477 0.99989 0.0
C1511 C 0.39546 0.58034 0.00705 0.0
C1512 C 0.35035 0.56959 0.00436 0.0
H1513 H 0.16165 0.54174 0.97357 0.0
H1514 H 0.23271 0.55783 0.97832 0.0
H1515 H 0.27317 0.58839 0.01528 0.0
H1516 H 0.46469 0.61177 0.03095 0.0
H1517 H 0.39458 0.59628 0.02626 0.0
C1518 C 0.93468 0.45743 0.17041 0.0
C1519 C 0.94057 0.4729 0.1825 0.0
C1520 C 0.90308 0.41619 0.16765 0.0
C1521 C 0.80579 0.32379 0.18112 0.0
H1522 H 0.82241 0.26283 0.15466 0.0
C1523 C 0.69466 0.14362 0.17264 0.0
C1524 C 0.68254 0.1316 0.16037 0.0
C1525 C 0.72597 0.18488 0.17553 0.0
C1526 C 0.8171 0.27941 0.16207 0.0
H1527 H 0.91654 0.45694 0.20107 0.0
H1528 H 0.86342 0.38566 0.19646 0.0
H1529 H 0.87626 0.33465 0.15906 0.0
H1530 H 0.69494 0.1538 0.14155 0.0
H1531 H 0.74933 0.22474 0.14654 0.0
H1532 H 0.74698 0.26783 0.18426 0.0
C1533 C 0.88223 0.40509 0.18894 0.0
C1534 C 0.84806 0.32101 0.16457 0.0
C1535 C 0.91333 0.44625 0.19165 0.0
C1536 C 0.70297 0.16184 0.15112 0.0
C1537 C 0.73461 0.20261 0.15397 0.0
C1538 C 0.77517 0.28198 0.17874 0.0
C1539 C 0.87641 0.38899 0.17689 0.0
C1540 C 0.84302 0.34422 0.17412 0.0
C1541 C 0.7466 0.21498 0.16621 0.0
C1542 C 0.78017 0.25915 0.16912 0.0
H1543 H 0.95493 0.47691 0.1631 0.0
H1544 H 0.89958 0.40583 0.1582 0.0
H1545 H 0.79968 0.34021 0.18839 0.0
H1546 H 0.67984 0.1212 0.17999 0.0
H1547 H 0.73449 0.19307 0.18506 0.0
C1548 C 0.16895 0.56534 0.50123 0.0
C1549 C 0.17028 0.58732 0.49048 0.0
C1550 C 0.20139 0.55621 0.50395 0.0
C1551 C 0.31302 0.58631 0.49534 0.0
H1552 H 0.28565 0.4795 0.50986 0.0
C1553 C 0.43891 0.53196 0.49997 0.0
C1554 C 0.4374 0.50917 0.51054 0.0
C1555 C 0.40631 0.54089 0.49733 0.0
C1556 C 0.29426 0.50978 0.50592 0.0
H1557 H 0.2077 0.61754 0.47438 0.0
H1558 H 0.26351 0.60234 0.47908 0.0
H1559 H 0.23053 0.49717 0.50641 0.0
H1560 H 0.39946 0.47698 0.52631 0.0
H1561 H 0.34373 0.49269 0.52197 0.0
H1562 H 0.3767 0.59899 0.49484 0.0
C1563 C 0.23792 0.59218 0.48555 0.0
C1564 C 0.2623 0.52001 0.50395 0.0
C1565 C 0.20556 0.60089 0.4828 0.0
C1566 C 0.40216 0.49515 0.51822 0.0
C1567 C 0.36963 0.50375 0.51558 0.0
C1568 C 0.34495 0.5761 0.49731 0.0
C1569 C 0.23645 0.56921 0.49609 0.0
C1570 C 0.27095 0.55851 0.4986 0.0
C1571 C 0.37104 0.52715 0.50514 0.0
C1572 C 0.33636 0.53763 0.50266 0.0
H1573 H 0.14207 0.5537 0.50726 0.0
H1574 H 0.19883 0.53876 0.51222 0.0
H1575 H 0.32165 0.61657 0.49138 0.0
H1576 H 0.46558 0.54345 0.49386 0.0
H1577 H 0.40878 0.55849 0.4891 0.0
C1578 C 0.65053 0.14586 0.66343 0.0
C1579 C 0.61891 0.1537 0.6591 0.0
C1580 C 0.69168 0.1788 0.66551 0.0
C1581 C 0.7646 0.29493 0.65891 0.0
H1582 H 0.83491 0.28071 0.68264 0.0
C1583 C 0.94232 0.42336 0.66591 0.0
C1584 C 0.95998 0.42747 0.67767 0.0
C1585 C 0.90142 0.39028 0.66323 0.0
C1586 C 0.81593 0.28593 0.67605 0.0
H1587 H 0.60641 0.20356 0.65405 0.0
H1588 H 0.67705 0.26073 0.65808 0.0
H1589 H 0.76371 0.22512 0.6796 0.0
H1590 H 0.94727 0.39975 0.69575 0.0
H1591 H 0.87708 0.34419 0.69142 0.0
H1592 H 0.81661 0.35662 0.65576 0.0
C1593 C 0.67076 0.22897 0.65953 0.0
C1594 C 0.77463 0.25318 0.67412 0.0
C1595 C 0.62963 0.19594 0.65738 0.0
C1596 C 0.93514 0.39793 0.68662 0.0
C1597 C 0.89456 0.36525 0.68401 0.0
C1598 C 0.80591 0.32793 0.66093 0.0
C1599 C 0.703 0.22122 0.6635 0.0
C1600 C 0.7478 0.25681 0.66552 0.0
C1601 C 0.87663 0.3603 0.67224 0.0
C1602 C 0.83252 0.32434 0.66962 0.0
H1603 H 0.64372 0.11395 0.66498 0.0
H1604 H 0.71486 0.17053 0.66838 0.0
H1605 H 0.74599 0.29946 0.65202 0.0
H1606 H 0.96014 0.44563 0.65878 0.0
H1607 H 0.88959 0.38799 0.654 0.0
C1608 C 0.55318 0.92905 0.8333 0.0
C1609 C 0.57298 0.94869 0.84436 0.0
C1610 C 0.5444 0.88766 0.83056 0.0
C1611 C 0.53452 0.79009 0.84584 0.0
H1612 H 0.5382 0.75516 0.81253 0.0
C1613 C 0.5162 0.62425 0.83425 0.0
C1614 C 0.49666 0.6051 0.82311 0.0
C1615 C 0.52524 0.66566 0.83709 0.0
C1616 C 0.53639 0.76391 0.82191 0.0
H1617 H 0.60048 0.94021 0.86087 0.0
H1618 H 0.58571 0.86941 0.85625 0.0
H1619 H 0.55399 0.8269 0.81654 0.0
H1620 H 0.46998 0.61457 0.80651 0.0
H1621 H 0.48448 0.68507 0.81149 0.0
H1622 H 0.51691 0.72709 0.85121 0.0
C1623 C 0.57568 0.88495 0.84974 0.0
C1624 C 0.54556 0.80552 0.82423 0.0
C1625 C 0.58427 0.92596 0.85244 0.0
C1626 C 0.48523 0.6281 0.81516 0.0
C1627 C 0.49406 0.6691 0.81798 0.0
C1628 C 0.52533 0.74847 0.84353 0.0
C1629 C 0.55507 0.86454 0.83882 0.0
C1630 C 0.54481 0.81958 0.83624 0.0
C1631 C 0.51493 0.68922 0.82889 0.0
C1632 C 0.52587 0.73436 0.8315 0.0
H1633 H 0.54381 0.94538 0.82686 0.0
H1634 H 0.52834 0.87348 0.82207 0.0
H1635 H 0.53276 0.79885 0.85523 0.0
H1636 H 0.52611 0.60797 0.84053 0.0
H1637 H 0.54156 0.67966 0.84557 0.0
C1638 C 0.66213 0.54842 0.00107 0.0
C1639 C 0.65782 0.5609 0.01297 0.0
C1640 C 0.69548 0.54096 0.99817 0.0
C1641 C 0.79983 0.55849 0.01055 0.0
H1642 H 0.78592 0.47625 0.986 0.0
C1643 C 0.93866 0.53053 0.9968 0.0
C1644 C 0.92982 0.49066 0.9926 0.0
C1645 C 0.9063 0.53993 0.99905 0.0
C1646 C 0.79052 0.49902 0.99302 0.0
H1647 H 0.6847 0.5735 0.03121 0.0
H1648 H 0.74113 0.5596 0.02639 0.0
H1649 H 0.72874 0.48992 0.99024 0.0
H1650 H 0.87901 0.42886 0.98805 0.0
H1651 H 0.82313 0.44438 0.9924 0.0
H1652 H 0.86085 0.56637 0.01373 0.0
C1653 C 0.7201 0.55692 0.01906 0.0
C1654 C 0.75756 0.50747 0.99533 0.0
C1655 C 0.6871 0.5645 0.0219 0.0
C1656 C 0.88741 0.46003 0.99122 0.0
C1657 C 0.85508 0.46926 0.99355 0.0
C1658 C 0.8326 0.54977 0.00833 0.0
C1659 C 0.72534 0.54525 0.00711 0.0
C1660 C 0.76133 0.53718 0.00421 0.0
C1661 C 0.86373 0.50958 0.99736 0.0
C1662 C 0.82866 0.51964 0.99957 0.0
H1663 H 0.63984 0.54464 0.994 0.0
H1664 H 0.69806 0.53239 0.98883 0.0
H1665 H 0.805 0.58228 0.01728 0.0
H1666 H 0.97078 0.55493 0.9981 0.0
H1667 H 0.91501 0.57153 0.00181 0.0
C1668 C 0.48968 0.89061 0.15937 0.0
C1669 C 0.50678 0.9321 0.16363 0.0
C1670 C 0.44839 0.86015 0.16228 0.0
C1671 C 0.34574 0.84738 0.17255 0.0
H1672 H 0.31922 0.73331 0.17963 0.0
C1673 C 0.17373 0.70897 0.17535 0.0
C1674 C 0.16356 0.67821 0.18449 0.0
C1675 C 0.21539 0.74019 0.17321 0.0
C1676 C 0.32595 0.76502 0.17774 0.0
H1677 H 0.49405 0.97334 0.1748 0.0
H1678 H 0.42192 0.92041 0.17984 0.0
H1679 H 0.39151 0.78662 0.17538 0.0
H1680 H 0.19054 0.65733 0.19867 0.0
H1681 H 0.26294 0.71131 0.19488 0.0
H1682 H 0.28012 0.82571 0.17489 0.0
C1683 C 0.44023 0.91149 0.17404 0.0
C1684 C 0.36755 0.79566 0.17518 0.0
C1685 C 0.48167 0.94195 0.17116 0.0
C1686 C 0.19673 0.68005 0.19148 0.0
C1687 C 0.23851 0.71106 0.18926 0.0
C1688 C 0.30404 0.8166 0.17497 0.0
C1689 C 0.42278 0.87007 0.1696 0.0
C1690 C 0.37822 0.8374 0.17252 0.0
C1691 C 0.2486 0.74171 0.18008 0.0
C1692 C 0.29338 0.77485 0.17762 0.0
H1693 H 0.50797 0.88183 0.1535 0.0
H1694 H 0.43624 0.82891 0.15855 0.0
H1695 H 0.35239 0.87894 0.17049 0.0
H1696 H 0.14952 0.70924 0.16983 0.0
H1697 H 0.22161 0.76283 0.166 0.0
C1698 C 0.59232 0.44674 0.33566 0.0
C1699 C 0.61171 0.46503 0.32442 0.0
C1700 C 0.5837 0.40573 0.33882 0.0
C1701 C 0.60826 0.31985 0.32941 0.0
H1702 H 0.50779 0.2478 0.34779 0.0
C1703 C 0.54619 0.13903 0.33484 0.0
C1704 C 0.53084 0.12132 0.34647 0.0
C1705 C 0.55572 0.18056 0.33213 0.0
C1706 C 0.53619 0.26744 0.34271 0.0
H1707 H 0.63865 0.45463 0.308 0.0
H1708 H 0.6238 0.3845 0.31332 0.0
H1709 H 0.5262 0.32038 0.34375 0.0
H1710 H 0.51352 0.13402 0.36427 0.0
H1711 H 0.52958 0.20544 0.35965 0.0
H1712 H 0.61772 0.26658 0.32817 0.0
C1713 C 0.61538 0.40125 0.31989 0.0
C1714 C 0.54698 0.30953 0.34043 0.0
C1715 C 0.62382 0.44186 0.31677 0.0
C1716 C 0.52518 0.14635 0.35523 0.0
C1717 C 0.53415 0.18748 0.35252 0.0
C1718 C 0.59721 0.2777 0.33157 0.0
C1719 C 0.59448 0.38181 0.33088 0.0
C1720 C 0.58332 0.33676 0.33372 0.0
C1721 C 0.54991 0.20564 0.34094 0.0
C1722 C 0.56101 0.25062 0.33829 0.0
H1723 H 0.58202 0.46325 0.34174 0.0
H1724 H 0.56814 0.39268 0.34746 0.0
H1725 H 0.63695 0.33931 0.32444 0.0
H1726 H 0.55156 0.12104 0.3279 0.0
H1727 H 0.56747 0.19294 0.32307 0.0
C1728 C 0.20712 0.72019 0.45755 0.0
C1729 C 0.16843 0.68733 0.4535 0.0
C1730 C 0.23564 0.7495 0.44917 0.0
C1731 C 0.2417 0.79564 0.41857 0.0
H1732 H 0.35785 0.82283 0.41892 0.0
C1733 C 0.35599 0.89167 0.37929 0.0
C1734 C 0.39827 0.91839 0.38222 0.0
C1735 C 0.32804 0.86435 0.38813 0.0
C1736 C 0.32573 0.8163 0.41877 0.0
H1737 H 0.12924 0.66049 0.43747 0.0
H1738 H 0.17839 0.7114 0.42298 0.0
H1739 H 0.30973 0.77531 0.43433 0.0
H1740 H 0.44391 0.93817 0.39694 0.0
H1741 H 0.39533 0.89199 0.41234 0.0
H1742 H 0.25751 0.83705 0.40319 0.0
C1743 C 0.1869 0.71445 0.4326 0.0
C1744 C 0.29809 0.78885 0.42763 0.0
C1745 C 0.15881 0.68494 0.44092 0.0
C1746 C 0.41171 0.91761 0.39426 0.0
C1747 C 0.38374 0.89079 0.40313 0.0
C1748 C 0.26942 0.82351 0.40981 0.0
C1749 C 0.22573 0.74704 0.43659 0.0
C1750 C 0.25566 0.77791 0.42757 0.0
C1751 C 0.34149 0.86343 0.40021 0.0
C1752 C 0.31186 0.83409 0.4097 0.0
H1753 H 0.21553 0.72309 0.46718 0.0
H1754 H 0.26522 0.77442 0.45255 0.0
H1755 H 0.20928 0.78823 0.41836 0.0
H1756 H 0.34459 0.89131 0.37009 0.0
H1757 H 0.29601 0.84343 0.38541 0.0
C1758 C 0.52716 0.39538 0.5609 0.0
C1759 C 0.52247 0.38513 0.54832 0.0
C1760 C 0.52933 0.36853 0.56961 0.0
C1761 C 0.55332 0.2825 0.57339 0.0
H1762 H 0.49168 0.26261 0.60389 0.0
C1763 C 0.53612 0.15528 0.60808 0.0
C1764 C 0.53468 0.16255 0.62072 0.0
C1765 C 0.53636 0.18333 0.59934 0.0
C1766 C 0.50968 0.26827 0.59552 0.0
H1767 H 0.51655 0.3382 0.53511 0.0
H1768 H 0.5206 0.29135 0.55036 0.0
H1769 H 0.48812 0.30876 0.58844 0.0
H1770 H 0.53371 0.20604 0.63403 0.0
H1771 H 0.5351 0.25554 0.6188 0.0
H1772 H 0.57527 0.2424 0.5805 0.0
C1773 C 0.52277 0.32045 0.55344 0.0
C1774 C 0.50748 0.29467 0.58662 0.0
C1775 C 0.52027 0.34725 0.5447 0.0
C1776 C 0.5346 0.19929 0.62439 0.0
C1777 C 0.53507 0.22754 0.61562 0.0
C1778 C 0.55576 0.25629 0.58233 0.0
C1779 C 0.52712 0.33067 0.56603 0.0
C1780 C 0.52922 0.30211 0.57543 0.0
C1781 C 0.53546 0.21973 0.60295 0.0
C1782 C 0.53388 0.24868 0.59353 0.0
H1783 H 0.52892 0.42416 0.5641 0.0
H1784 H 0.5332 0.3777 0.57919 0.0
H1785 H 0.57094 0.28799 0.56496 0.0
H1786 H 0.53578 0.12717 0.60487 0.0
H1787 H 0.536 0.17572 0.58971 0.0
C1788 C 0.40754 0.5116 0.77341 0.0
C1789 C 0.39922 0.50783 0.78611 0.0
C1790 C 0.37923 0.51267 0.76505 0.0
C1791 C 0.26805 0.48634 0.76176 0.0
H1792 H 0.31019 0.55613 0.73272 0.0
C1793 C 0.16001 0.51118 0.72805 0.0
C1794 C 0.16726 0.50983 0.7154 0.0
C1795 C 0.18817 0.51153 0.73677 0.0
C1796 C 0.29789 0.53617 0.74072 0.0
H1797 H 0.35425 0.50259 0.79991 0.0
H1798 H 0.30518 0.50533 0.78533 0.0
H1799 H 0.35916 0.55657 0.74787 0.0
H1800 H 0.21019 0.50795 0.70206 0.0
H1801 H 0.25944 0.5088 0.71727 0.0
H1802 H 0.20669 0.46636 0.75461 0.0
C1803 C 0.33342 0.50671 0.78182 0.0
C1804 C 0.326 0.53634 0.74943 0.0
C1805 C 0.36175 0.50542 0.79021 0.0
C1806 C 0.2036 0.5091 0.7117 0.0
C1807 C 0.23197 0.50979 0.72043 0.0
C1808 C 0.23992 0.4864 0.75308 0.0
C1809 C 0.34175 0.5103 0.7691 0.0
C1810 C 0.31154 0.5112 0.76004 0.0
C1811 C 0.22453 0.51085 0.73309 0.0
C1812 C 0.25447 0.51114 0.74241 0.0
H1813 H 0.43584 0.51329 0.76984 0.0
H1814 H 0.38653 0.51462 0.75535 0.0
H1815 H 0.25562 0.46606 0.76968 0.0
H1816 H 0.13227 0.51152 0.73128 0.0
H1817 H 0.18164 0.51277 0.74642 0.0
C1818 C 0.6988 0.14361 0.89463 0.0
C1819 C 0.69835 0.15582 0.88243 0.0
C1820 C 0.72638 0.17223 0.90323 0.0
C1821 C 0.82213 0.27851 0.90583 0.0
H1822 H 0.79013 0.26391 0.94016 0.0
C1823 C 0.94016 0.38017 0.94321 0.0
C1824 C 0.92544 0.39002 0.95391 0.0
C1825 C 0.91224 0.3514 0.93471 0.0
C1826 C 0.79956 0.26906 0.93061 0.0
H1827 H 0.72626 0.20774 0.86969 0.0
H1828 H 0.7729 0.25845 0.88478 0.0
H1829 H 0.74182 0.21651 0.92499 0.0
H1830 H 0.87005 0.37798 0.96409 0.0
H1831 H 0.82091 0.32924 0.949 0.0
H1832 H 0.87875 0.33262 0.91135 0.0
C1833 C 0.75307 0.22639 0.8877 0.0
C1834 C 0.77194 0.24112 0.92185 0.0
C1835 C 0.72607 0.19739 0.87901 0.0
C1836 C 0.88216 0.37062 0.95594 0.0
C1837 C 0.85406 0.34244 0.94729 0.0
C1838 C 0.84938 0.30695 0.91455 0.0
C1839 C 0.75377 0.21429 0.89997 0.0
C1840 C 0.78288 0.24506 0.90931 0.0
C1841 C 0.86863 0.33238 0.9365 0.0
C1842 C 0.8388 0.3025 0.92713 0.0
H1843 H 0.67826 0.11155 0.89749 0.0
H1844 H 0.72646 0.16098 0.91241 0.0
H1845 H 0.83234 0.28265 0.89636 0.0
H1846 H 0.97347 0.39432 0.9415 0.0
H1847 H 0.92511 0.3439 0.92678 0.0
C1848 C 0.58833 0.92504 0.11121 0.0
C1849 C 0.58205 0.91508 0.12378 0.0
C1850 C 0.58528 0.89546 0.10259 0.0
C1851 C 0.54405 0.78169 0.09761 0.0
H1852 H 0.62567 0.82105 0.07123 0.0
C1853 C 0.56362 0.66972 0.06387 0.0
C1854 C 0.57129 0.68167 0.05143 0.0
C1855 C 0.56305 0.69707 0.07275 0.0
C1856 C 0.60231 0.80958 0.07844 0.0
H1857 H 0.56515 0.86533 0.13705 0.0
H1858 H 0.561 0.81374 0.122 0.0
H1859 H 0.62835 0.87019 0.08671 0.0
H1860 H 0.58321 0.73164 0.03861 0.0
H1861 H 0.58224 0.7792 0.05409 0.0
H1862 H 0.51831 0.72088 0.08933 0.0
C1863 C 0.56831 0.84458 0.11882 0.0
C1864 C 0.60383 0.8378 0.08734 0.0
C1865 C 0.57122 0.87428 0.12748 0.0
C1866 C 0.5776 0.72142 0.04809 0.0
C1867 C 0.57721 0.74882 0.05698 0.0
C1868 C 0.54262 0.75337 0.08871 0.0
C1869 C 0.57586 0.85501 0.10627 0.0
C1870 C 0.57457 0.82435 0.09701 0.0
C1871 C 0.57029 0.73714 0.06944 0.0
C1872 C 0.57161 0.76703 0.07897 0.0
H1873 H 0.59648 0.95612 0.10801 0.0
H1874 H 0.59034 0.90441 0.093 0.0
H1875 H 0.52073 0.77027 0.10483 0.0
H1876 H 0.55875 0.63945 0.06683 0.0
H1877 H 0.55803 0.68718 0.08226 0.0
C1878 C 0.69672 0.5653 0.27335 0.0
C1879 C 0.70367 0.56576 0.28607 0.0
C1880 C 0.72644 0.56737 0.26491 0.0
C1881 C 0.83869 0.59538 0.26227 0.0
H1882 H 0.80145 0.53517 0.23143 0.0
C1883 C 0.94963 0.57373 0.22887 0.0
C1884 C 0.94627 0.58043 0.21628 0.0
C1885 C 0.92044 0.57274 0.23732 0.0
C1886 C 0.81235 0.55247 0.23995 0.0
H1887 H 0.74751 0.56858 0.29985 0.0
H1888 H 0.79878 0.57083 0.28516 0.0
H1889 H 0.74997 0.53071 0.24638 0.0
H1890 H 0.90923 0.59114 0.20278 0.0
H1891 H 0.85782 0.58873 0.21756 0.0
H1892 H 0.90115 0.61618 0.25588 0.0
C1893 C 0.77073 0.56984 0.28167 0.0
C1894 C 0.78283 0.55005 0.24854 0.0
C1895 C 0.74114 0.56824 0.29013 0.0
C1896 C 0.91282 0.58597 0.21238 0.0
C1897 C 0.88324 0.58437 0.22084 0.0
C1898 C 0.86819 0.59737 0.25373 0.0
C1899 C 0.76388 0.56952 0.26892 0.0
C1900 C 0.79551 0.5716 0.25983 0.0
C1901 C 0.88678 0.57785 0.23342 0.0
C1902 C 0.85539 0.57603 0.24245 0.0
H1903 H 0.66853 0.56405 0.26986 0.0
H1904 H 0.72023 0.568 0.25522 0.0
H1905 H 0.84989 0.61308 0.27071 0.0
H1906 H 0.97507 0.56958 0.23224 0.0
H1907 H 0.92389 0.56732 0.24692 0.0
C1908 C 0.88328 0.49323 0.41589 0.0
C1909 C 0.91789 0.48674 0.41525 0.0
C1910 C 0.84377 0.46175 0.41215 0.0
C1911 C 0.79031 0.36421 0.39412 0.0
H1912 H 0.70491 0.3257 0.41942 0.0
C1913 C 0.67168 0.19291 0.40064 0.0
C1914 C 0.63058 0.18046 0.40436 0.0
C1915 C 0.70109 0.23515 0.3995 0.0
C1916 C 0.7279 0.33659 0.41211 0.0
H1917 H 0.93911 0.44356 0.40975 0.0
H1918 H 0.87028 0.38865 0.40318 0.0
H1919 H 0.7685 0.3933 0.42171 0.0
H1920 H 0.58779 0.2026 0.40957 0.0
H1921 H 0.63993 0.27711 0.40781 0.0
H1922 H 0.75072 0.30669 0.38479 0.0
C1923 C 0.87354 0.41793 0.40654 0.0
C1924 C 0.76431 0.37526 0.41343 0.0
C1925 C 0.91278 0.44906 0.41042 0.0
C1926 C 0.6194 0.21132 0.40682 0.0
C1927 C 0.64907 0.25384 0.40574 0.0
C1928 C 0.7539 0.32572 0.39277 0.0
C1929 C 0.83858 0.42372 0.40753 0.0
C1930 C 0.79659 0.38841 0.40472 0.0
C1931 C 0.69026 0.26609 0.40212 0.0
C1932 C 0.72329 0.31065 0.40204 0.0
H1933 H 0.88657 0.5221 0.41963 0.0
H1934 H 0.81724 0.46685 0.41302 0.0
H1935 H 0.81451 0.37407 0.38718 0.0
H1936 H 0.68157 0.16999 0.39893 0.0
H1937 H 0.73284 0.24357 0.39701 0.0
C1938 C 0.45501 0.87568 0.57951 0.0
C1939 C 0.457 0.89482 0.59085 0.0
C1940 C 0.44351 0.8333 0.579 0.0
C1941 C 0.45274 0.75805 0.59847 0.0
H1942 H 0.39979 0.68268 0.57104 0.0
C1943 C 0.4254 0.58853 0.57958 0.0
C1944 C 0.46705 0.59692 0.58017 0.0
C1945 C 0.41574 0.6203 0.58194 0.0
C1946 C 0.4141 0.70311 0.57886 0.0
H1947 H 0.44426 0.88402 0.61035 0.0
H1948 H 0.42401 0.80987 0.60946 0.0
H1949 H 0.39323 0.74568 0.57312 0.0
H1950 H 0.53104 0.64445 0.58393 0.0
H1951 H 0.51425 0.69985 0.58807 0.0
H1952 H 0.47476 0.71638 0.60399 0.0
C1953 C 0.43227 0.82777 0.60102 0.0
C1954 C 0.41059 0.73924 0.58 0.0
C1955 C 0.44389 0.87014 0.60152 0.0
C1956 C 0.49874 0.6373 0.58333 0.0
C1957 C 0.48906 0.66882 0.58582 0.0
C1958 C 0.45642 0.72218 0.59729 0.0
C1959 C 0.43366 0.80936 0.58983 0.0
C1960 C 0.43082 0.76763 0.58965 0.0
C1961 C 0.44753 0.6607 0.5851 0.0
C1962 C 0.43819 0.69504 0.58729 0.0
H1963 H 0.46503 0.89405 0.57115 0.0
H1964 H 0.4452 0.82014 0.57025 0.0
H1965 H 0.46911 0.77946 0.60594 0.0
H1966 H 0.40045 0.55764 0.57708 0.0
H1967 H 0.38349 0.61329 0.58134 0.0
C1968 C 0.59201 0.40647 0.75043 0.0
C1969 C 0.60042 0.44822 0.74996 0.0
C1970 C 0.62317 0.39659 0.74745 0.0
C1971 C 0.70547 0.39512 0.75022 0.0
H1972 H 0.78432 0.45301 0.7239 0.0
C1973 C 0.87888 0.44492 0.75254 0.0
C1974 C 0.901 0.44793 0.74171 0.0
C1975 C 0.83613 0.43125 0.75213 0.0
C1976 C 0.76218 0.43577 0.73113 0.0
H1977 H 0.64717 0.51204 0.74558 0.0
H1978 H 0.70161 0.49494 0.74045 0.0
H1979 H 0.71975 0.45619 0.72508 0.0
H1980 H 0.89501 0.43519 0.72214 0.0
H1981 H 0.82015 0.41173 0.72141 0.0
H1982 H 0.74874 0.37605 0.75654 0.0
C1983 C 0.67098 0.46979 0.74305 0.0
C1984 C 0.72543 0.43801 0.73188 0.0
C1985 C 0.64003 0.47968 0.74612 0.0
C1986 C 0.87891 0.43414 0.73059 0.0
C1987 C 0.8361 0.42056 0.73017 0.0
C1988 C 0.74235 0.39298 0.7495 0.0
C1989 C 0.66305 0.42825 0.74382 0.0
C1990 C 0.69752 0.41905 0.74169 0.0
C1991 C 0.81459 0.42035 0.74088 0.0
C1992 C 0.77179 0.4146 0.7402 0.0
H1993 H 0.56172 0.38165 0.75342 0.0
H1994 H 0.61625 0.36433 0.7481 0.0
H1995 H 0.68453 0.38025 0.7579 0.0
H1996 H 0.89503 0.45558 0.76123 0.0
H1997 H 0.82062 0.43195 0.76052 0.0
C1998 C 0.47137 0.85817 0.89556 0.0
C1999 C 0.48559 0.87851 0.90692 0.0
C2000 C 0.43903 0.81664 0.89507 0.0
C2001 C 0.37454 0.72199 0.91411 0.0
H2002 H 0.28522 0.70773 0.89223 0.0
C2003 C 0.18604 0.62653 0.91388 0.0
C2004 C 0.17767 0.58609 0.9171 0.0
C2005 C 0.22618 0.65681 0.91033 0.0
C2006 C 0.30998 0.71111 0.89833 0.0
H2007 H 0.47865 0.87075 0.92667 0.0
H2008 H 0.42213 0.79851 0.92584 0.0
H2009 H 0.35345 0.77051 0.89069 0.0
H2010 H 0.20434 0.54511 0.91881 0.0
H2011 H 0.27485 0.59833 0.91258 0.0
H2012 H 0.33013 0.66367 0.92224 0.0
C2013 C 0.43622 0.81433 0.9173 0.0
C2014 C 0.34924 0.74685 0.89736 0.0
C2015 C 0.46855 0.85581 0.91779 0.0
C2016 C 0.20994 0.57607 0.91634 0.0
C2017 C 0.25028 0.60652 0.91285 0.0
C2018 C 0.33523 0.68617 0.91508 0.0
C2019 C 0.42032 0.79467 0.90594 0.0
C2020 C 0.38153 0.75336 0.90552 0.0
C2021 C 0.25888 0.64735 0.90996 0.0
C2022 C 0.30218 0.68112 0.90747 0.0
H2023 H 0.48459 0.87472 0.88704 0.0
H2024 H 0.42789 0.8021 0.88618 0.0
H2025 H 0.399 0.72588 0.92041 0.0
H2026 H 0.16162 0.63494 0.91425 0.0
H2027 H 0.23191 0.68813 0.90832 0.0
C2028 C 0.68275 0.21208 0.08463 0.0
C2029 C 0.64747 0.19248 0.09238 0.0
C2030 C 0.69986 0.25447 0.08152 0.0
C2031 C 0.70405 0.35227 0.09113 0.0
H2032 H 0.68688 0.36999 0.05702 0.0
C2033 C 0.62268 0.43485 0.0664 0.0
C2034 C 0.63945 0.47279 0.07294 0.0
C2035 C 0.64296 0.41122 0.06636 0.0
C2036 C 0.69273 0.36592 0.06653 0.0
H2037 H 0.60288 0.20267 0.10291 0.0
H2038 H 0.63378 0.2762 0.09797 0.0
H2039 H 0.68775 0.30611 0.06297 0.0
H2040 H 0.69294 0.5174 0.08361 0.0
H2041 H 0.72793 0.47562 0.08368 0.0
H2042 H 0.70527 0.40989 0.09496 0.0
C2043 C 0.6483 0.25889 0.09435 0.0
C2044 C 0.69357 0.32957 0.06991 0.0
C2045 C 0.63068 0.21662 0.09722 0.0
C2046 C 0.67863 0.48796 0.07867 0.0
C2047 C 0.69888 0.46418 0.07866 0.0
C2048 C 0.70344 0.38862 0.08777 0.0
C2049 C 0.68264 0.27808 0.08637 0.0
C2050 C 0.69664 0.32139 0.08234 0.0
C2051 C 0.68041 0.42479 0.07291 0.0
C2052 C 0.69511 0.39452 0.07555 0.0
H2053 H 0.69693 0.19468 0.08087 0.0
H2054 H 0.72623 0.26871 0.07527 0.0
H2055 H 0.70666 0.3466 0.10077 0.0
H2056 H 0.59238 0.42178 0.06201 0.0
H2057 H 0.62746 0.3807 0.062 0.0
C2058 C 0.5064 0.64398 0.24948 0.0
C2059 C 0.49461 0.61156 0.25814 0.0
C2060 C 0.4847 0.6663 0.24873 0.0
C2061 C 0.40639 0.68689 0.26378 0.0
H2062 H 0.35031 0.65736 0.23224 0.0
C2063 C 0.23574 0.64374 0.25849 0.0
C2064 C 0.21991 0.64662 0.24704 0.0
C2065 C 0.27801 0.65611 0.25983 0.0
C2066 C 0.36621 0.66725 0.24099 0.0
H2067 H 0.4533 0.58031 0.27359 0.0
H2068 H 0.41685 0.62011 0.27252 0.0
H2069 H 0.41307 0.65242 0.23523 0.0
H2070 H 0.23602 0.66739 0.22822 0.0
H2071 H 0.31041 0.69045 0.2306 0.0
H2072 H 0.35896 0.70071 0.26967 0.0
C2073 C 0.44259 0.62798 0.26624 0.0
C2074 C 0.40232 0.66432 0.24269 0.0
C2075 C 0.46364 0.60513 0.26685 0.0
C2076 C 0.24749 0.66429 0.2371 0.0
C2077 C 0.29002 0.67738 0.23848 0.0
C2078 C 0.37067 0.6906 0.26202 0.0
C2079 C 0.45157 0.65732 0.25683 0.0
C2080 C 0.42151 0.67214 0.25427 0.0
C2081 C 0.30562 0.67225 0.24978 0.0
C2082 C 0.34883 0.67863 0.25079 0.0
H2083 H 0.531 0.65075 0.24288 0.0
H2084 H 0.4924 0.68909 0.24145 0.0
H2085 H 0.42092 0.69343 0.27277 0.0
H2086 H 0.21501 0.62993 0.26628 0.0
H2087 H 0.28837 0.65079 0.26861 0.0
loop_
_geom_bond_atom_site_label_1
_geom_bond_atom_site_label_2
_geom_bond_distance
_geom_bond_site_symmetry_2
_ccdc_geom_bond_type
Eu0 N29 2.600 1_565 S
Eu0 N35 2.562 . S
Eu0 O44 2.462 . S
Eu0 O45 2.373 1_565 S
Eu0 O47 2.432 . S
Eu0 O48 2.291 . S
Eu0 O52 2.335 . S
Eu0 O55 2.372 1_565 S
Eu0 C64 2.787 . S
C1 N2 1.365 . S
C1 C4 1.405 . S
C1 C8 1.448 . S
N2 C1 1.365 . S
N2 C5 1.319 . S
N2 Eu11 2.600 1_565 S
C3 C5 1.397 . S
C3 C6 1.367 . S
C3 H23 0.931 . S
C4 C1 1.405 . S
C4 C6 1.403 . S
C4 C10 1.439 . S
C5 N2 1.319 . S
C5 C3 1.397 . S
C5 H16 0.930 . S
C6 C3 1.367 . S
C6 C4 1.403 . S
C6 H27 0.929 . S
C7 C8 1.430 . S
C7 C9 1.387 . S
C7 C13 1.404 1_565 S
C8 C1 1.448 . S
C8 C7 1.430 . S
C8 N12 1.351 1_565 S
C9 C7 1.387 . S
C9 C10 1.374 . S
C9 H24 0.931 . S
C10 C4 1.439 . S
C10 C9 1.374 . S
C10 H25 0.931 . S
Eu11 N2 2.600 1_545 S
Eu11 N12 2.562 . S
Eu11 O46 2.335 . S
Eu11 O49 2.372 1_545 S
Eu11 O50 2.462 . S
Eu11 O51 2.373 1_545 S
Eu11 O53 2.432 . S
Eu11 O54 2.291 . S
Eu11 C75 2.787 . S
N12 C8 1.351 1_545 S
N12 Eu11 2.562 . S
N12 C14 1.325 . S
C13 C7 1.404 1_545 S
C13 C15 1.366 . S
C13 H21 0.930 . S
C14 N12 1.325 . S
C14 C15 1.416 . S
C14 H20 0.929 . S
C15 C13 1.366 . S
C15 C14 1.416 . S
C15 H17 0.930 . S
H16 C5 0.930 . S
H17 C15 0.930 . S
H18 C33 0.930 . S
H19 C40 0.930 . S
H20 C14 0.929 . S
H21 C13 0.930 . S
H22 C36 0.929 . S
H23 C3 0.931 . S
H24 C9 0.931 . S
H25 C10 0.931 . S
H26 C31 0.931 . S
H27 C6 0.929 . S
H28 C39 0.930 . S
N29 Eu0 2.600 1_545 S
N29 C30 1.365 . S
N29 C33 1.319 . S
C30 N29 1.365 . S
C30 C32 1.405 . S
C30 C38 1.448 . S
C31 H26 0.931 . S
C31 C33 1.397 . S
C31 C34 1.367 . S
C32 C30 1.405 . S
C32 C34 1.403 . S
C32 C65 1.439 . S
C33 H18 0.930 . S
C33 N29 1.319 . S
C33 C31 1.397 . S
C34 C31 1.367 . S
C34 C32 1.403 . S
C34 H41 0.929 . S
N35 Eu0 2.562 . S
N35 C36 1.325 . S
N35 C38 1.351 1_565 S
C36 H22 0.929 . S
C36 N35 1.325 . S
C36 C40 1.416 . S
C37 C38 1.430 . S
C37 C39 1.404 1_545 S
C37 C66 1.387 . S
C38 C30 1.448 . S
C38 N35 1.351 1_545 S
C38 C37 1.430 . S
C39 H28 0.930 . S
C39 C37 1.404 1_565 S
C39 C40 1.366 . S
C40 H19 0.930 . S
C40 C36 1.416 . S
C40 C39 1.366 . S
H41 C34 0.929 . S
H42 C65 0.931 . S
H43 C66 0.931 . S
O44 Eu0 2.462 . S
O44 C64 1.252 . S
O45 Eu0 2.373 1_545 S
O45 C56 1.249 . S
O46 Eu11 2.335 . S
O46 C56 1.264 . S
O47 Eu0 2.432 . S
O47 C64 1.268 . S
O48 Eu0 2.291 . S
O48 C63 1.255 . S
O49 Eu11 2.372 1_565 S
O49 C63 1.257 . S
O50 Eu11 2.462 . S
O50 C75 1.252 . S
O51 Eu11 2.373 1_565 S
O51 C67 1.249 . S
O52 Eu0 2.335 . S
O52 C67 1.264 . S
O53 Eu11 2.432 . S
O53 C75 1.268 . S
O54 Eu11 2.291 . S
O54 C74 1.255 . S
O55 Eu0 2.372 1_545 S
O55 C74 1.257 . S
C56 O45 1.249 . S
C56 O46 1.264 . S
C57 C60 1.382 . S
C57 C62 1.390 . S
C57 C64 1.506 . S
C58 C59 1.398 . S
C58 C62 1.392 . S
C59 C58 1.398 . S
C59 C61 1.372 . S
C59 H76 0.931 . S
C60 C57 1.382 . S
C60 C61 1.390 . S
C60 H77 0.931 . S
C61 C59 1.372 . S
C61 C60 1.390 . S
C61 H78 0.929 . S
C62 C57 1.390 . S
C62 C58 1.392 . S
C62 H79 0.930 . S
C63 O48 1.255 . S
C63 O49 1.257 . S
C64 Eu0 2.787 . S
C64 O44 1.252 . S
C64 O47 1.268 . S
C64 C57 1.506 . S
C65 C32 1.439 . S
C65 H42 0.931 . S
C65 C66 1.374 . S
C66 C37 1.387 . S
C66 H43 0.931 . S
C66 C65 1.374 . S
C67 O51 1.249 . S
C67 O52 1.264 . S
C68 C71 1.382 . S
C68 C72 1.390 . S
C68 C75 1.506 . S
C69 C70 1.398 . S
C69 C72 1.392 . S
C70 C69 1.398 . S
C70 C73 1.372 . S
C70 H80 0.931 . S
C71 C68 1.382 . S
C71 C73 1.390 . S
C71 H81 0.931 . S
C72 C68 1.390 . S
C72 C69 1.392 . S
C72 H82 0.930 . S
C73 C70 1.372 . S
C73 C71 1.390 . S
C73 H83 0.929 . S
C74 O54 1.255 . S
C74 O55 1.257 . S
C75 Eu11 2.787 . S
C75 O50 1.252 . S
C75 O53 1.268 . S
C75 C68 1.506 . S
H76 C59 0.931 . S
H77 C60 0.931 . S
H78 C61 0.929 . S
H79 C62 0.930 . S
H80 C70 0.931 . S
H81 C71 0.931 . S
H82 C72 0.930 . S
H83 C73 0.929 . S
Eu84 N113 2.600 . S
Eu84 N119 2.562 . S
Eu84 O128 2.462 . S
Eu84 O129 2.373 . S
Eu84 O131 2.432 . S
Eu84 O132 2.291 . S
Eu84 O136 2.335 . S
Eu84 O139 2.372 . S
Eu84 C148 2.787 . S
C85 N86 1.365 . S
C85 C88 1.405 . S
C85 C92 1.448 . S
N86 C85 1.365 . S
N86 C89 1.319 . S
N86 Eu95 2.600 . S
C87 C89 1.397 . S
C87 C90 1.367 . S
C87 H107 0.931 . S
C88 C85 1.405 . S
C88 C90 1.403 . S
C88 C94 1.439 . S
C89 N86 1.319 . S
C89 C87 1.397 . S
C89 H100 0.930 . S
C90 C87 1.367 . S
C90 C88 1.403 . S
C90 H111 0.929 . S
C91 C92 1.430 . S
C91 C93 1.387 . S
C91 C97 1.404 . S
C92 C85 1.448 . S
C92 C91 1.430 . S
C92 N96 1.351 . S
C93 C91 1.387 . S
C93 C94 1.374 . S
C93 H108 0.931 . S
C94 C88 1.439 . S
C94 C93 1.374 . S
C94 H109 0.931 . S
Eu95 N86 2.600 . S
Eu95 N96 2.562 . S
Eu95 O130 2.335 . S
Eu95 O133 2.372 . S
Eu95 O134 2.462 . S
Eu95 O135 2.373 . S
Eu95 O137 2.432 . S
Eu95 O138 2.291 . S
Eu95 C159 2.787 . S
N96 C92 1.351 . S
N96 Eu95 2.562 . S
N96 C98 1.325 . S
C97 C91 1.404 . S
C97 C99 1.366 . S
C97 H105 0.930 . S
C98 N96 1.325 . S
C98 C99 1.416 . S
C98 H104 0.929 . S
C99 C97 1.366 . S
C99 C98 1.416 . S
C99 H101 0.930 . S
H100 C89 0.930 . S
H101 C99 0.930 . S
H102 C117 0.930 . S
H103 C124 0.930 . S
H104 C98 0.929 . S
H105 C97 0.930 . S
H106 C120 0.929 . S
H107 C87 0.931 . S
H108 C93 0.931 . S
H109 C94 0.931 . S
H110 C115 0.931 . S
H111 C90 0.929 . S
H112 C123 0.930 . S
N113 Eu84 2.600 . S
N113 C114 1.365 . S
N113 C117 1.319 . S
C114 N113 1.365 . S
C114 C116 1.405 . S
C114 C122 1.448 . S
C115 H110 0.931 . S
C115 C117 1.397 . S
C115 C118 1.367 . S
C116 C114 1.405 . S
C116 C118 1.403 . S
C116 C149 1.439 . S
C117 H102 0.930 . S
C117 N113 1.319 . S
C117 C115 1.397 . S
C118 C115 1.367 . S
C118 C116 1.403 . S
C118 H125 0.929 . S
N119 Eu84 2.562 . S
N119 C120 1.325 . S
N119 C122 1.351 . S
C120 H106 0.929 . S
C120 N119 1.325 . S
C120 C124 1.416 . S
C121 C122 1.430 . S
C121 C123 1.404 . S
C121 C150 1.387 . S
C122 C114 1.448 . S
C122 N119 1.351 . S
C122 C121 1.430 . S
C123 H112 0.930 . S
C123 C121 1.404 . S
C123 C124 1.366 . S
C124 H103 0.930 . S
C124 C120 1.416 . S
C124 C123 1.366 . S
H125 C118 0.929 . S
H126 C149 0.931 . S
H127 C150 0.931 . S
O128 Eu84 2.462 . S
O128 C148 1.252 . S
O129 Eu84 2.373 . S
O129 C140 1.249 . S
O130 Eu95 2.335 . S
O130 C140 1.264 . S
O131 Eu84 2.432 . S
O131 C148 1.268 . S
O132 Eu84 2.291 . S
O132 C147 1.255 . S
O133 Eu95 2.372 . S
O133 C147 1.257 . S
O134 Eu95 2.462 . S
O134 C159 1.252 . S
O135 Eu95 2.373 . S
O135 C151 1.249 . S
O136 Eu84 2.335 . S
O136 C151 1.264 . S
O137 Eu95 2.432 . S
O137 C159 1.268 . S
O138 Eu95 2.291 . S
O138 C158 1.255 . S
O139 Eu84 2.372 . S
O139 C158 1.257 . S
C140 O129 1.249 . S
C140 O130 1.264 . S
C141 C144 1.382 . S
C141 C146 1.390 . S
C141 C148 1.506 . S
C142 C143 1.398 . S
C142 C146 1.392 . S
C143 C142 1.398 . S
C143 C145 1.372 . S
C143 H160 0.931 . S
C144 C141 1.382 . S
C144 C145 1.390 . S
C144 H161 0.931 . S
C145 C143 1.372 . S
C145 C144 1.390 . S
C145 H162 0.929 . S
C146 C141 1.390 . S
C146 C142 1.392 . S
C146 H163 0.930 . S
C147 O132 1.255 . S
C147 O133 1.257 . S
C148 Eu84 2.787 . S
C148 O128 1.252 . S
C148 O131 1.268 . S
C148 C141 1.506 . S
C149 C116 1.439 . S
C149 H126 0.931 . S
C149 C150 1.374 . S
C150 C121 1.387 . S
C150 H127 0.931 . S
C150 C149 1.374 . S
C151 O135 1.249 . S
C151 O136 1.264 . S
C152 C155 1.382 . S
C152 C156 1.390 . S
C152 C159 1.506 . S
C153 C154 1.398 . S
C153 C156 1.392 . S
C154 C153 1.398 . S
C154 C157 1.372 . S
C154 H164 0.931 . S
C155 C152 1.382 . S
C155 C157 1.390 . S
C155 H165 0.931 . S
C156 C152 1.390 . S
C156 C153 1.392 . S
C156 H166 0.930 . S
C157 C154 1.372 . S
C157 C155 1.390 . S
C157 H167 0.929 . S
C158 O138 1.255 . S
C158 O139 1.257 . S
C159 Eu95 2.787 . S
C159 O134 1.252 . S
C159 O137 1.268 . S
C159 C152 1.506 . S
H160 C143 0.931 . S
H161 C144 0.931 . S
H162 C145 0.929 . S
H163 C146 0.930 . S
H164 C154 0.931 . S
H165 C155 0.931 . S
H166 C156 0.930 . S
H167 C157 0.929 . S
Eu168 N197 2.600 1_455 S
Eu168 N203 2.562 . S
Eu168 O212 2.462 . S
Eu168 O213 2.373 1_455 S
Eu168 O215 2.432 . S
Eu168 O216 2.291 . S
Eu168 O220 2.335 . S
Eu168 O223 2.372 1_455 S
Eu168 C232 2.787 . S
C169 N170 1.365 . S
C169 C172 1.405 . S
C169 C176 1.448 . S
N170 C169 1.365 . S
N170 C173 1.319 . S
N170 Eu179 2.600 1_455 S
C171 C173 1.397 . S
C171 C174 1.367 . S
C171 H191 0.931 . S
C172 C169 1.405 . S
C172 C174 1.403 . S
C172 C178 1.439 . S
C173 N170 1.319 . S
C173 C171 1.397 . S
C173 H184 0.930 . S
C174 C171 1.367 . S
C174 C172 1.403 . S
C174 H195 0.929 . S
C175 C176 1.430 . S
C175 C177 1.387 . S
C175 C181 1.404 1_455 S
C176 C169 1.448 . S
C176 C175 1.430 . S
C176 N180 1.351 1_455 S
C177 C175 1.387 . S
C177 C178 1.374 . S
C177 H192 0.931 . S
C178 C172 1.439 . S
C178 C177 1.374 . S
C178 H193 0.931 . S
Eu179 N170 2.600 1_655 S
Eu179 N180 2.562 . S
Eu179 O214 2.335 . S
Eu179 O217 2.372 1_655 S
Eu179 O218 2.462 . S
Eu179 O219 2.373 1_655 S
Eu179 O221 2.432 . S
Eu179 O222 2.291 . S
Eu179 C243 2.787 . S
N180 C176 1.351 1_655 S
N180 Eu179 2.562 . S
N180 C182 1.325 . S
C181 C175 1.404 1_655 S
C181 C183 1.366 . S
C181 H189 0.930 . S
C182 N180 1.325 . S
C182 C183 1.416 . S
C182 H188 0.929 . S
C183 C181 1.366 . S
C183 C182 1.416 . S
C183 H185 0.930 . S
H184 C173 0.930 . S
H185 C183 0.930 . S
H186 C201 0.930 . S
H187 C208 0.930 . S
H188 C182 0.929 . S
H189 C181 0.930 . S
H190 C204 0.929 . S
H191 C171 0.931 . S
H192 C177 0.931 . S
H193 C178 0.931 . S
H194 C199 0.931 . S
H195 C174 0.929 . S
H196 C207 0.930 . S
N197 Eu168 2.600 1_655 S
N197 C198 1.365 . S
N197 C201 1.319 . S
C198 N197 1.365 . S
C198 C200 1.405 . S
C198 C206 1.448 . S
C199 H194 0.931 . S
C199 C201 1.397 . S
C199 C202 1.367 . S
C200 C198 1.405 . S
C200 C202 1.403 . S
C200 C233 1.439 . S
C201 H186 0.930 . S
C201 N197 1.319 . S
C201 C199 1.397 . S
C202 C199 1.367 . S
C202 C200 1.403 . S
C202 H209 0.929 . S
N203 Eu168 2.562 . S
N203 C204 1.325 . S
N203 C206 1.351 1_455 S
C204 H190 0.929 . S
C204 N203 1.325 . S
C204 C208 1.416 . S
C205 C206 1.430 . S
C205 C207 1.404 1_655 S
C205 C234 1.387 . S
C206 C198 1.448 . S
C206 N203 1.351 1_655 S
C206 C205 1.430 . S
C207 H196 0.930 . S
C207 C205 1.404 1_455 S
C207 C208 1.366 . S
C208 H187 0.930 . S
C208 C204 1.416 . S
C208 C207 1.366 . S
H209 C202 0.929 . S
H210 C233 0.931 . S
H211 C234 0.931 . S
O212 Eu168 2.462 . S
O212 C232 1.252 . S
O213 Eu168 2.373 1_655 S
O213 C224 1.249 . S
O214 Eu179 2.335 . S
O214 C224 1.264 . S
O215 Eu168 2.432 . S
O215 C232 1.268 . S
O216 Eu168 2.291 . S
O216 C231 1.255 . S
O217 Eu179 2.372 1_455 S
O217 C231 1.257 . S
O218 Eu179 2.462 . S
O218 C243 1.252 . S
O219 Eu179 2.373 1_455 S
O219 C235 1.249 . S
O220 Eu168 2.335 . S
O220 C235 1.264 . S
O221 Eu179 2.432 . S
O221 C243 1.268 . S
O222 Eu179 2.291 . S
O222 C242 1.255 . S
O223 Eu168 2.372 1_655 S
O223 C242 1.257 . S
C224 O213 1.249 . S
C224 O214 1.264 . S
C225 C228 1.382 . S
C225 C230 1.390 . S
C225 C232 1.506 . S
C226 C227 1.398 . S
C226 C230 1.392 . S
C227 C226 1.398 . S
C227 C229 1.372 . S
C227 H244 0.931 . S
C228 C225 1.382 . S
C228 C229 1.390 . S
C228 H245 0.931 . S
C229 C227 1.372 . S
C229 C228 1.390 . S
C229 H246 0.929 . S
C230 C225 1.390 . S
C230 C226 1.392 . S
C230 H247 0.930 . S
C231 O216 1.255 . S
C231 O217 1.257 . S
C232 Eu168 2.787 . S
C232 O212 1.252 . S
C232 O215 1.268 . S
C232 C225 1.506 . S
C233 C200 1.439 . S
C233 H210 0.931 . S
C233 C234 1.374 . S
C234 C205 1.387 . S
C234 H211 0.931 . S
C234 C233 1.374 . S
C235 O219 1.249 . S
C235 O220 1.264 . S
C236 C239 1.382 . S
C236 C240 1.390 . S
C236 C243 1.506 . S
C237 C238 1.398 . S
C237 C240 1.392 . S
C238 C237 1.398 . S
C238 C241 1.372 . S
C238 H248 0.931 . S
C239 C236 1.382 . S
C239 C241 1.390 . S
C239 H249 0.931 . S
C240 C236 1.390 . S
C240 C237 1.392 . S
C240 H250 0.930 . S
C241 C238 1.372 . S
C241 C239 1.390 . S
C241 H251 0.929 . S
C242 O222 1.255 . S
C242 O223 1.257 . S
C243 Eu179 2.787 . S
C243 O218 1.252 . S
C243 O221 1.268 . S
C243 C236 1.506 . S
H244 C227 0.931 . S
H245 C228 0.931 . S
H246 C229 0.929 . S
H247 C230 0.930 . S
H248 C238 0.931 . S
H249 C239 0.931 . S
H250 C240 0.930 . S
H251 C241 0.929 . S
Eu252 N281 2.600 1_545 S
Eu252 N287 2.562 . S
Eu252 O296 2.462 . S
Eu252 O297 2.373 1_545 S
Eu252 O299 2.432 . S
Eu252 O300 2.291 . S
Eu252 O304 2.335 . S
Eu252 O307 2.372 1_545 S
Eu252 C316 2.787 . S
C253 N254 1.365 . S
C253 C256 1.405 . S
C253 C260 1.448 . S
N254 C253 1.365 . S
N254 C257 1.319 . S
N254 Eu263 2.600 1_545 S
C255 C257 1.397 . S
C255 C258 1.367 . S
C255 H275 0.931 . S
C256 C253 1.405 . S
C256 C258 1.403 . S
C256 C262 1.439 . S
C257 N254 1.319 . S
C257 C255 1.397 . S
C257 H268 0.930 . S
C258 C255 1.367 . S
C258 C256 1.403 . S
C258 H279 0.929 . S
C259 C260 1.430 . S
C259 C261 1.387 . S
C259 C265 1.404 1_545 S
C260 C253 1.448 . S
C260 C259 1.430 . S
C260 N264 1.351 1_545 S
C261 C259 1.387 . S
C261 C262 1.374 . S
C261 H276 0.931 . S
C262 C256 1.439 . S
C262 C261 1.374 . S
C262 H277 0.931 . S
Eu263 N254 2.600 1_565 S
Eu263 N264 2.562 . S
Eu263 O298 2.335 . S
Eu263 O301 2.372 1_565 S
Eu263 O302 2.462 . S
Eu263 O303 2.373 1_565 S
Eu263 O305 2.432 . S
Eu263 O306 2.291 . S
Eu263 C327 2.787 . S
N264 C260 1.351 1_565 S
N264 Eu263 2.562 . S
N264 C266 1.325 . S
C265 C259 1.404 1_565 S
C265 C267 1.366 . S
C265 H273 0.930 . S
C266 N264 1.325 . S
C266 C267 1.416 . S
C266 H272 0.929 . S
C267 C265 1.366 . S
C267 C266 1.416 . S
C267 H269 0.930 . S
H268 C257 0.930 . S
H269 C267 0.930 . S
H270 C285 0.930 . S
H271 C292 0.930 . S
H272 C266 0.929 . S
H273 C265 0.930 . S
H274 C288 0.929 . S
H275 C255 0.931 . S
H276 C261 0.931 . S
H277 C262 0.931 . S
H278 C283 0.931 . S
H279 C258 0.929 . S
H280 C291 0.930 . S
N281 Eu252 2.600 1_565 S
N281 C282 1.365 . S
N281 C285 1.319 . S
C282 N281 1.365 . S
C282 C284 1.405 . S
C282 C290 1.448 . S
C283 H278 0.931 . S
C283 C285 1.397 . S
C283 C286 1.367 . S
C284 C282 1.405 . S
C284 C286 1.403 . S
C284 C317 1.439 . S
C285 H270 0.930 . S
C285 N281 1.319 . S
C285 C283 1.397 . S
C286 C283 1.367 . S
C286 C284 1.403 . S
C286 H293 0.929 . S
N287 Eu252 2.562 . S
N287 C288 1.325 . S
N287 C290 1.351 1_545 S
C288 H274 0.929 . S
C288 N287 1.325 . S
C288 C292 1.416 . S
C289 C290 1.430 . S
C289 C291 1.404 1_565 S
C289 C318 1.387 . S
C290 C282 1.448 . S
C290 N287 1.351 1_565 S
C290 C289 1.430 . S
C291 H280 0.930 . S
C291 C289 1.404 1_545 S
C291 C292 1.366 . S
C292 H271 0.930 . S
C292 C288 1.416 . S
C292 C291 1.366 . S
H293 C286 0.929 . S
H294 C317 0.931 . S
H295 C318 0.931 . S
O296 Eu252 2.462 . S
O296 C316 1.252 . S
O297 Eu252 2.373 1_565 S
O297 C308 1.249 . S
O298 Eu263 2.335 . S
O298 C308 1.264 . S
O299 Eu252 2.432 . S
O299 C316 1.268 . S
O300 Eu252 2.291 . S
O300 C315 1.255 . S
O301 Eu263 2.372 1_545 S
O301 C315 1.257 . S
O302 Eu263 2.462 . S
O302 C327 1.252 . S
O303 Eu263 2.373 1_545 S
O303 C319 1.249 . S
O304 Eu252 2.335 . S
O304 C319 1.264 . S
O305 Eu263 2.432 . S
O305 C327 1.268 . S
O306 Eu263 2.291 . S
O306 C326 1.255 . S
O307 Eu252 2.372 1_565 S
O307 C326 1.257 . S
C308 O297 1.249 . S
C308 O298 1.264 . S
C309 C312 1.382 . S
C309 C314 1.390 . S
C309 C316 1.506 . S
C310 C311 1.398 . S
C310 C314 1.392 . S
C311 C310 1.398 . S
C311 C313 1.372 . S
C311 H328 0.931 . S
C312 C309 1.382 . S
C312 C313 1.390 . S
C312 H329 0.931 . S
C313 C311 1.372 . S
C313 C312 1.390 . S
C313 H330 0.929 . S
C314 C309 1.390 . S
C314 C310 1.392 . S
C314 H331 0.930 . S
C315 O300 1.255 . S
C315 O301 1.257 . S
C316 Eu252 2.787 . S
C316 O296 1.252 . S
C316 O299 1.268 . S
C316 C309 1.506 . S
C317 C284 1.439 . S
C317 H294 0.931 . S
C317 C318 1.374 . S
C318 C289 1.387 . S
C318 H295 0.931 . S
C318 C317 1.374 . S
C319 O303 1.249 . S
C319 O304 1.264 . S
C320 C323 1.382 . S
C320 C324 1.390 . S
C320 C327 1.506 . S
C321 C322 1.398 . S
C321 C324 1.392 . S
C322 C321 1.398 . S
C322 C325 1.372 . S
C322 H332 0.931 . S
C323 C320 1.382 . S
C323 C325 1.390 . S
C323 H333 0.931 . S
C324 C320 1.390 . S
C324 C321 1.392 . S
C324 H334 0.930 . S
C325 C322 1.372 . S
C325 C323 1.390 . S
C325 H335 0.929 . S
C326 O306 1.255 . S
C326 O307 1.257 . S
C327 Eu263 2.787 . S
C327 O302 1.252 . S
C327 O305 1.268 . S
C327 C320 1.506 . S
H328 C311 0.931 . S
H329 C312 0.931 . S
H330 C313 0.929 . S
H331 C314 0.930 . S
H332 C322 0.931 . S
H333 C323 0.931 . S
H334 C324 0.930 . S
H335 C325 0.929 . S
Eu336 N365 2.600 . S
Eu336 N371 2.562 . S
Eu336 O380 2.462 . S
Eu336 O381 2.373 . S
Eu336 O383 2.432 . S
Eu336 O384 2.291 . S
Eu336 O388 2.335 . S
Eu336 O391 2.372 . S
Eu336 C400 2.787 . S
C337 N338 1.365 . S
C337 C340 1.405 . S
C337 C344 1.448 . S
N338 C337 1.365 . S
N338 C341 1.319 . S
N338 Eu347 2.600 . S
C339 C341 1.397 . S
C339 C342 1.367 . S
C339 H359 0.931 . S
C340 C337 1.405 . S
C340 C342 1.403 . S
C340 C346 1.439 . S
C341 N338 1.319 . S
C341 C339 1.397 . S
C341 H352 0.930 . S
C342 C339 1.367 . S
C342 C340 1.403 . S
C342 H363 0.929 . S
C343 C344 1.430 . S
C343 C345 1.387 . S
C343 C349 1.404 . S
C344 C337 1.448 . S
C344 C343 1.430 . S
C344 N348 1.351 . S
C345 C343 1.387 . S
C345 C346 1.374 . S
C345 H360 0.931 . S
C346 C340 1.439 . S
C346 C345 1.374 . S
C346 H361 0.931 . S
Eu347 N338 2.600 . S
Eu347 N348 2.562 . S
Eu347 O382 2.335 . S
Eu347 O385 2.372 . S
Eu347 O386 2.462 . S
Eu347 O387 2.373 . S
Eu347 O389 2.432 . S
Eu347 O390 2.291 . S
Eu347 C411 2.787 . S
N348 C344 1.351 . S
N348 Eu347 2.562 . S
N348 C350 1.325 . S
C349 C343 1.404 . S
C349 C351 1.366 . S
C349 H357 0.930 . S
C350 N348 1.325 . S
C350 C351 1.416 . S
C350 H356 0.929 . S
C351 C349 1.366 . S
C351 C350 1.416 . S
C351 H353 0.930 . S
H352 C341 0.930 . S
H353 C351 0.930 . S
H354 C369 0.930 . S
H355 C376 0.930 . S
H356 C350 0.929 . S
H357 C349 0.930 . S
H358 C372 0.929 . S
H359 C339 0.931 . S
H360 C345 0.931 . S
H361 C346 0.931 . S
H362 C367 0.924 . S
H363 C342 0.929 . S
H364 C375 0.930 . S
N365 Eu336 2.600 . S
N365 C366 1.365 . S
N365 C369 1.319 . S
C366 N365 1.365 . S
C366 C368 1.405 . S
C366 C374 1.448 . S
C367 H362 0.924 . S
C367 C369 1.397 . S
C367 C370 1.367 . S
C368 C366 1.405 . S
C368 C370 1.403 . S
C368 C401 1.439 . S
C369 H354 0.930 . S
C369 N365 1.319 . S
C369 C367 1.397 . S
C370 C367 1.367 . S
C370 C368 1.403 . S
C370 H377 0.929 . S
N371 Eu336 2.562 . S
N371 C372 1.325 . S
N371 C374 1.351 . S
C372 H358 0.929 . S
C372 N371 1.325 . S
C372 C376 1.416 . S
C373 C374 1.430 . S
C373 C375 1.404 . S
C373 C402 1.387 . S
C374 C366 1.448 . S
C374 N371 1.351 . S
C374 C373 1.430 . S
C375 H364 0.930 . S
C375 C373 1.404 . S
C375 C376 1.366 . S
C376 H355 0.930 . S
C376 C372 1.416 . S
C376 C375 1.366 . S
H377 C370 0.929 . S
H378 C401 0.931 . S
H379 C402 0.931 . S
O380 Eu336 2.462 . S
O380 C400 1.252 . S
O381 Eu336 2.373 . S
O381 C392 1.249 . S
O382 Eu347 2.335 . S
O382 C392 1.264 . S
O383 Eu336 2.432 . S
O383 C400 1.268 . S
O384 Eu336 2.291 . S
O384 C399 1.255 . S
O385 Eu347 2.372 . S
O385 C399 1.257 . S
O386 Eu347 2.462 . S
O386 C411 1.252 . S
O387 Eu347 2.373 . S
O387 C403 1.249 . S
O388 Eu336 2.335 . S
O388 C403 1.264 . S
O389 Eu347 2.432 . S
O389 C411 1.268 . S
O390 Eu347 2.291 . S
O390 C410 1.255 . S
O391 Eu336 2.372 . S
O391 C410 1.257 . S
C392 O381 1.249 . S
C392 O382 1.264 . S
C393 C396 1.382 . S
C393 C398 1.390 1_556 S
C393 C400 1.506 1_556 S
C394 C395 1.398 . S
C394 C398 1.392 1_556 S
C395 C394 1.398 . S
C395 C397 1.372 . S
C395 H412 0.931 . S
C396 C393 1.382 . S
C396 C397 1.390 . S
C396 H413 0.931 . S
C397 C395 1.372 . S
C397 C396 1.390 . S
C397 H414 0.929 . S
C398 C393 1.390 1_554 S
C398 C394 1.392 1_554 S
C398 H415 0.930 . S
C399 O384 1.255 . S
C399 O385 1.257 . S
C400 Eu336 2.787 . S
C400 O380 1.252 . S
C400 O383 1.268 . S
C400 C393 1.506 1_554 S
C401 C368 1.439 . S
C401 H378 0.931 . S
C401 C402 1.374 . S
C402 C373 1.387 . S
C402 H379 0.931 . S
C402 C401 1.374 . S
C403 O387 1.249 . S
C403 O388 1.264 . S
C404 C407 1.382 . S
C404 C408 1.390 . S
C404 C411 1.506 . S
C405 C406 1.398 . S
C405 C408 1.392 . S
C406 C405 1.398 . S
C406 C409 1.372 . S
C406 H416 0.931 . S
C407 C404 1.382 . S
C407 C409 1.390 . S
C407 H417 0.931 . S
C408 C404 1.390 . S
C408 C405 1.392 . S
C408 H418 0.930 . S
C409 C406 1.372 . S
C409 C407 1.390 . S
C409 H419 0.929 . S
C410 O390 1.255 . S
C410 O391 1.257 . S
C411 Eu347 2.787 . S
C411 O386 1.252 . S
C411 O389 1.268 . S
C411 C404 1.506 . S
H412 C395 0.931 . S
H413 C396 0.931 . S
H414 C397 0.929 . S
H415 C398 0.930 . S
H416 C406 0.931 . S
H417 C407 0.931 . S
H418 C408 0.930 . S
H419 C409 0.929 . S
Eu420 N449 2.600 1_655 S
Eu420 N455 2.562 . S
Eu420 O464 2.462 . S
Eu420 O465 2.373 1_655 S
Eu420 O467 2.432 . S
Eu420 O468 2.291 . S
Eu420 O472 2.335 . S
Eu420 O475 2.372 1_655 S
Eu420 C484 2.787 . S
C421 N422 1.365 . S
C421 C424 1.405 . S
C421 C428 1.448 . S
N422 C421 1.365 . S
N422 C425 1.319 . S
N422 Eu431 2.600 1_655 S
C423 C425 1.397 . S
C423 C426 1.367 . S
C423 H443 0.931 . S
C424 C421 1.405 . S
C424 C426 1.403 . S
C424 C430 1.439 . S
C425 N422 1.319 . S
C425 C423 1.397 . S
C425 H436 0.930 . S
C426 C423 1.367 . S
C426 C424 1.403 . S
C426 H447 0.929 . S
C427 C428 1.430 . S
C427 C429 1.387 . S
C427 C433 1.404 1_655 S
C428 C421 1.448 . S
C428 C427 1.430 . S
C428 N432 1.351 1_655 S
C429 C427 1.387 . S
C429 C430 1.374 . S
C429 H444 0.931 . S
C430 C424 1.439 . S
C430 C429 1.374 . S
C430 H445 0.931 . S
Eu431 N422 2.600 1_455 S
Eu431 N432 2.562 . S
Eu431 O466 2.335 . S
Eu431 O469 2.372 1_455 S
Eu431 O470 2.462 . S
Eu431 O471 2.373 1_455 S
Eu431 O473 2.432 . S
Eu431 O474 2.291 . S
Eu431 C495 2.787 . S
N432 C428 1.351 1_455 S
N432 Eu431 2.562 . S
N432 C434 1.325 . S
C433 C427 1.404 1_455 S
C433 C435 1.366 . S
C433 H441 0.930 . S
C434 N432 1.325 . S
C434 C435 1.416 . S
C434 H440 0.929 . S
C435 C433 1.366 . S
C435 C434 1.416 . S
C435 H437 0.930 . S
H436 C425 0.930 . S
H437 C435 0.930 . S
H438 C453 0.930 . S
H439 C460 0.930 . S
H440 C434 0.929 . S
H441 C433 0.930 . S
H442 C456 0.929 . S
H443 C423 0.931 . S
H444 C429 0.931 . S
H445 C430 0.931 . S
H446 C451 0.931 . S
H447 C426 0.929 . S
H448 C459 0.930 . S
N449 Eu420 2.600 1_455 S
N449 C450 1.365 . S
N449 C453 1.319 . S
C450 N449 1.365 . S
C450 C452 1.405 . S
C450 C458 1.448 . S
C451 H446 0.931 . S
C451 C453 1.397 . S
C451 C454 1.367 . S
C452 C450 1.405 . S
C452 C454 1.403 . S
C452 C485 1.439 . S
C453 H438 0.930 . S
C453 N449 1.319 . S
C453 C451 1.397 . S
C454 C451 1.367 . S
C454 C452 1.403 . S
C454 H461 0.929 . S
N455 Eu420 2.562 . S
N455 C456 1.325 . S
N455 C458 1.351 1_655 S
C456 H442 0.929 . S
C456 N455 1.325 . S
C456 C460 1.416 . S
C457 C458 1.430 . S
C457 C459 1.404 1_455 S
C457 C486 1.387 . S
C458 C450 1.448 . S
C458 N455 1.351 1_455 S
C458 C457 1.430 . S
C459 H448 0.930 . S
C459 C457 1.404 1_655 S
C459 C460 1.366 . S
C460 H439 0.930 . S
C460 C456 1.416 . S
C460 C459 1.366 . S
H461 C454 0.929 . S
H462 C485 0.931 . S
H463 C486 0.931 . S
O464 Eu420 2.462 . S
O464 C484 1.252 . S
O465 Eu420 2.373 1_455 S
O465 C476 1.249 . S
O466 Eu431 2.335 . S
O466 C476 1.264 . S
O467 Eu420 2.432 . S
O467 C484 1.268 . S
O468 Eu420 2.291 . S
O468 C483 1.255 . S
O469 Eu431 2.372 1_655 S
O469 C483 1.257 . S
O470 Eu431 2.462 . S
O470 C495 1.252 . S
O471 Eu431 2.373 1_655 S
O471 C487 1.249 . S
O472 Eu420 2.335 . S
O472 C487 1.264 . S
O473 Eu431 2.432 . S
O473 C495 1.268 . S
O474 Eu431 2.291 . S
O474 C494 1.255 . S
O475 Eu420 2.372 1_455 S
O475 C494 1.257 . S
C476 O465 1.249 . S
C476 O466 1.264 . S
C477 C480 1.382 . S
C477 C482 1.390 . S
C477 C484 1.506 . S
C478 C479 1.398 . S
C478 C482 1.392 . S
C479 C478 1.398 . S
C479 C481 1.372 . S
C479 H496 0.931 . S
C480 C477 1.382 . S
C480 C481 1.390 . S
C480 H497 0.931 . S
C481 C479 1.372 . S
C481 C480 1.390 . S
C481 H498 0.929 . S
C482 C477 1.390 . S
C482 C478 1.392 . S
C482 H499 0.930 . S
C483 O468 1.255 . S
C483 O469 1.257 . S
C484 Eu420 2.787 . S
C484 O464 1.252 . S
C484 O467 1.268 . S
C484 C477 1.506 . S
C485 C452 1.439 . S
C485 H462 0.931 . S
C485 C486 1.374 . S
C486 C457 1.387 . S
C486 H463 0.931 . S
C486 C485 1.374 . S
C487 O471 1.249 . S
C487 O472 1.264 . S
C488 C491 1.382 . S
C488 C492 1.390 . S
C488 C495 1.506 . S
C489 C490 1.398 . S
C489 C492 1.392 . S
C490 C489 1.398 . S
C490 C493 1.372 . S
C490 H500 0.931 . S
C491 C488 1.382 . S
C491 C493 1.390 . S
C491 H501 0.931 . S
C492 C488 1.390 . S
C492 C489 1.392 . S
C492 H502 0.930 . S
C493 C490 1.372 . S
C493 C491 1.390 . S
C493 H503 0.929 . S
C494 O474 1.255 . S
C494 O475 1.257 . S
C495 Eu431 2.787 . S
C495 O470 1.252 . S
C495 O473 1.268 . S
C495 C488 1.506 . S
H496 C479 0.931 . S
H497 C480 0.931 . S
H498 C481 0.929 . S
H499 C482 0.930 . S
H500 C490 0.931 . S
H501 C491 0.931 . S
H502 C492 0.930 . S
H503 C493 0.929 . S
Eu504 N533 2.600 1_455 S
Eu504 N539 2.562 . S
Eu504 O548 2.462 . S
Eu504 O549 2.373 1_455 S
Eu504 O551 2.432 . S
Eu504 O552 2.291 . S
Eu504 O556 2.335 . S
Eu504 O559 2.372 1_455 S
Eu504 C568 2.787 . S
C505 N506 1.365 . S
C505 C508 1.405 . S
C505 C512 1.448 . S
N506 C505 1.365 . S
N506 C509 1.319 . S
N506 Eu515 2.600 1_455 S
C507 C509 1.397 . S
C507 C510 1.367 . S
C507 H527 0.931 . S
C508 C505 1.405 . S
C508 C510 1.403 . S
C508 C514 1.439 . S
C509 N506 1.319 . S
C509 C507 1.397 . S
C509 H520 0.930 . S
C510 C507 1.367 . S
C510 C508 1.403 . S
C510 H531 0.929 . S
C511 C512 1.430 . S
C511 C513 1.387 . S
C511 C517 1.404 1_455 S
C512 C505 1.448 . S
C512 C511 1.430 . S
C512 N516 1.351 1_455 S
C513 C511 1.387 . S
C513 C514 1.374 . S
C513 H528 0.931 . S
C514 C508 1.439 . S
C514 C513 1.374 . S
C514 H529 0.931 . S
Eu515 N506 2.600 1_655 S
Eu515 N516 2.562 . S
Eu515 O550 2.335 . S
Eu515 O553 2.372 1_655 S
Eu515 O554 2.462 . S
Eu515 O555 2.373 1_655 S
Eu515 O557 2.432 . S
Eu515 O558 2.291 . S
Eu515 C579 2.787 . S
N516 C512 1.351 1_655 S
N516 Eu515 2.562 . S
N516 C518 1.325 . S
C517 C511 1.404 1_655 S
C517 C519 1.366 . S
C517 H525 0.930 . S
C518 N516 1.325 . S
C518 C519 1.416 . S
C518 H524 0.929 . S
C519 C517 1.366 . S
C519 C518 1.416 . S
C519 H521 0.930 . S
H520 C509 0.930 . S
H521 C519 0.930 . S
H522 C537 0.930 . S
H523 C544 0.930 . S
H524 C518 0.929 . S
H525 C517 0.930 . S
H526 C540 0.929 . S
H527 C507 0.931 . S
H528 C513 0.931 . S
H529 C514 0.931 . S
H530 C535 0.931 . S
H531 C510 0.929 . S
H532 C543 0.930 . S
N533 Eu504 2.600 1_655 S
N533 C534 1.365 . S
N533 C537 1.319 . S
C534 N533 1.365 . S
C534 C536 1.405 . S
C534 C542 1.448 . S
C535 H530 0.931 . S
C535 C537 1.397 . S
C535 C538 1.367 . S
C536 C534 1.405 . S
C536 C538 1.403 . S
C536 C569 1.439 . S
C537 H522 0.930 . S
C537 N533 1.319 . S
C537 C535 1.397 . S
C538 C535 1.367 . S
C538 C536 1.403 . S
C538 H545 0.929 . S
N539 Eu504 2.562 . S
N539 C540 1.325 . S
N539 C542 1.351 1_455 S
C540 H526 0.929 . S
C540 N539 1.325 . S
C540 C544 1.416 . S
C541 C542 1.430 . S
C541 C543 1.404 1_655 S
C541 C570 1.387 . S
C542 C534 1.448 . S
C542 N539 1.351 1_655 S
C542 C541 1.430 . S
C543 H532 0.930 . S
C543 C541 1.404 1_455 S
C543 C544 1.366 . S
C544 H523 0.930 . S
C544 C540 1.416 . S
C544 C543 1.366 . S
H545 C538 0.929 . S
H546 C569 0.931 . S
H547 C570 0.931 . S
O548 Eu504 2.462 . S
O548 C568 1.252 . S
O549 Eu504 2.373 1_655 S
O549 C560 1.249 . S
O550 Eu515 2.335 . S
O550 C560 1.264 . S
O551 Eu504 2.432 . S
O551 C568 1.268 . S
O552 Eu504 2.291 . S
O552 C567 1.255 . S
O553 Eu515 2.372 1_455 S
O553 C567 1.257 . S
O554 Eu515 2.462 . S
O554 C579 1.252 . S
O555 Eu515 2.373 1_455 S
O555 C571 1.249 . S
O556 Eu504 2.335 . S
O556 C571 1.264 . S
O557 Eu515 2.432 . S
O557 C579 1.268 . S
O558 Eu515 2.291 . S
O558 C578 1.255 . S
O559 Eu504 2.372 1_655 S
O559 C578 1.257 . S
C560 O549 1.249 . S
C560 O550 1.264 . S
C561 C564 1.382 . S
C561 C566 1.390 . S
C561 C568 1.506 . S
C562 C563 1.398 . S
C562 C566 1.392 . S
C563 C562 1.398 . S
C563 C565 1.372 . S
C563 H580 0.931 . S
C564 C561 1.382 . S
C564 C565 1.390 . S
C564 H581 0.931 . S
C565 C563 1.372 . S
C565 C564 1.390 . S
C565 H582 0.929 . S
C566 C561 1.390 . S
C566 C562 1.392 . S
C566 H583 0.930 . S
C567 O552 1.255 . S
C567 O553 1.257 . S
C568 Eu504 2.787 . S
C568 O548 1.252 . S
C568 O551 1.268 . S
C568 C561 1.506 . S
C569 C536 1.439 . S
C569 H546 0.931 . S
C569 C570 1.374 . S
C570 C541 1.387 . S
C570 H547 0.931 . S
C570 C569 1.374 . S
C571 O555 1.249 . S
C571 O556 1.264 . S
C572 C575 1.382 . S
C572 C576 1.390 . S
C572 C579 1.506 . S
C573 C574 1.398 . S
C573 C576 1.392 . S
C574 C573 1.398 . S
C574 C577 1.372 . S
C574 H584 0.931 . S
C575 C572 1.382 . S
C575 C577 1.390 . S
C575 H585 0.931 . S
C576 C572 1.390 . S
C576 C573 1.392 . S
C576 H586 0.930 . S
C577 C574 1.372 . S
C577 C575 1.390 . S
C577 H587 0.929 . S
C578 O558 1.255 . S
C578 O559 1.257 . S
C579 Eu515 2.787 . S
C579 O554 1.252 . S
C579 O557 1.268 . S
C579 C572 1.506 . S
H580 C563 0.931 . S
H581 C564 0.931 . S
H582 C565 0.929 . S
H583 C566 0.930 . S
H584 C574 0.931 . S
H585 C575 0.931 . S
H586 C576 0.930 . S
H587 C577 0.929 . S
Eu588 N617 2.600 1_545 S
Eu588 N623 2.562 . S
Eu588 O632 2.462 . S
Eu588 O633 2.373 1_545 S
Eu588 O635 2.432 . S
Eu588 O636 2.291 . S
Eu588 O640 2.335 . S
Eu588 O643 2.372 1_545 S
Eu588 C652 2.787 . S
C589 N590 1.365 . S
C589 C592 1.405 . S
C589 C596 1.448 . S
N590 C589 1.365 . S
N590 C593 1.319 . S
N590 Eu599 2.600 1_545 S
C591 C593 1.397 . S
C591 C594 1.367 . S
C591 H611 0.931 . S
C592 C589 1.405 . S
C592 C594 1.403 . S
C592 C598 1.439 . S
C593 N590 1.319 . S
C593 C591 1.397 . S
C593 H604 0.930 . S
C594 C591 1.367 . S
C594 C592 1.403 . S
C594 H615 0.929 . S
C595 C596 1.430 . S
C595 C597 1.387 . S
C595 C601 1.404 1_545 S
C596 C589 1.448 . S
C596 C595 1.430 . S
C596 N600 1.351 1_545 S
C597 C595 1.387 . S
C597 C598 1.374 . S
C597 H612 0.931 . S
C598 C592 1.439 . S
C598 C597 1.374 . S
C598 H613 0.931 . S
Eu599 N590 2.600 1_565 S
Eu599 N600 2.562 . S
Eu599 O634 2.335 . S
Eu599 O637 2.372 1_565 S
Eu599 O638 2.462 . S
Eu599 O639 2.373 1_565 S
Eu599 O641 2.432 . S
Eu599 O642 2.291 . S
Eu599 C663 2.787 . S
N600 C596 1.351 1_565 S
N600 Eu599 2.562 . S
N600 C602 1.325 . S
C601 C595 1.404 1_565 S
C601 C603 1.366 . S
C601 H609 0.930 . S
C602 N600 1.325 . S
C602 C603 1.416 . S
C602 H608 0.929 . S
C603 C601 1.366 . S
C603 C602 1.416 . S
C603 H605 0.930 . S
H604 C593 0.930 . S
H605 C603 0.930 . S
H606 C621 0.930 . S
H607 C628 0.930 . S
H608 C602 0.929 . S
H609 C601 0.930 . S
H610 C624 0.929 . S
H611 C591 0.931 . S
H612 C597 0.931 . S
H613 C598 0.931 . S
H614 C619 0.931 . S
H615 C594 0.929 . S
H616 C627 0.930 . S
N617 Eu588 2.600 1_565 S
N617 C618 1.365 . S
N617 C621 1.319 . S
C618 N617 1.365 . S
C618 C620 1.405 . S
C618 C626 1.448 . S
C619 H614 0.931 . S
C619 C621 1.397 . S
C619 C622 1.367 . S
C620 C618 1.405 . S
C620 C622 1.403 . S
C620 C653 1.439 . S
C621 H606 0.930 . S
C621 N617 1.319 . S
C621 C619 1.397 . S
C622 C619 1.367 . S
C622 C620 1.403 . S
C622 H629 0.929 . S
N623 Eu588 2.562 . S
N623 C624 1.325 . S
N623 C626 1.351 1_545 S
C624 H610 0.929 . S
C624 N623 1.325 . S
C624 C628 1.416 . S
C625 C626 1.430 . S
C625 C627 1.404 1_565 S
C625 C654 1.387 . S
C626 C618 1.448 . S
C626 N623 1.351 1_565 S
C626 C625 1.430 . S
C627 H616 0.930 . S
C627 C625 1.404 1_545 S
C627 C628 1.366 . S
C628 H607 0.930 . S
C628 C624 1.416 . S
C628 C627 1.366 . S
H629 C622 0.929 . S
H630 C653 0.931 . S
H631 C654 0.931 . S
O632 Eu588 2.462 . S
O632 C652 1.252 . S
O633 Eu588 2.373 1_565 S
O633 C644 1.249 . S
O634 Eu599 2.335 . S
O634 C644 1.264 . S
O635 Eu588 2.432 . S
O635 C652 1.268 . S
O636 Eu588 2.291 . S
O636 C651 1.255 . S
O637 Eu599 2.372 1_545 S
O637 C651 1.257 . S
O638 Eu599 2.462 . S
O638 C663 1.252 . S
O639 Eu599 2.373 1_545 S
O639 C655 1.249 . S
O640 Eu588 2.335 . S
O640 C655 1.264 . S
O641 Eu599 2.432 . S
O641 C663 1.268 . S
O642 Eu599 2.291 . S
O642 C662 1.255 . S
O643 Eu588 2.372 1_565 S
O643 C662 1.257 . S
C644 O633 1.249 . S
C644 O634 1.264 . S
C645 C648 1.382 . S
C645 C650 1.390 . S
C645 C652 1.506 . S
C646 C647 1.398 . S
C646 C650 1.392 . S
C647 C646 1.398 . S
C647 C649 1.372 . S
C647 H664 0.931 . S
C648 C645 1.382 . S
C648 C649 1.390 . S
C648 H665 0.931 . S
C649 C647 1.372 . S
C649 C648 1.390 . S
C649 H666 0.929 . S
C650 C645 1.390 . S
C650 C646 1.392 . S
C650 H667 0.930 . S
C651 O636 1.255 . S
C651 O637 1.257 . S
C652 Eu588 2.787 . S
C652 O632 1.252 . S
C652 O635 1.268 . S
C652 C645 1.506 . S
C653 C620 1.439 . S
C653 H630 0.931 . S
C653 C654 1.374 . S
C654 C625 1.387 . S
C654 H631 0.931 . S
C654 C653 1.374 . S
C655 O639 1.249 . S
C655 O640 1.264 . S
C656 C659 1.382 . S
C656 C660 1.390 . S
C656 C663 1.506 . S
C657 C658 1.398 . S
C657 C660 1.392 . S
C658 C657 1.398 . S
C658 C661 1.372 . S
C658 H668 0.931 . S
C659 C656 1.382 . S
C659 C661 1.390 . S
C659 H669 0.931 . S
C660 C656 1.390 . S
C660 C657 1.392 . S
C660 H670 0.930 . S
C661 C658 1.372 . S
C661 C659 1.390 . S
C661 H671 0.929 . S
C662 O642 1.255 . S
C662 O643 1.257 . S
C663 Eu599 2.787 . S
C663 O638 1.252 . S
C663 O641 1.268 . S
C663 C656 1.506 . S
H664 C647 0.931 . S
H665 C648 0.931 . S
H666 C649 0.929 . S
H667 C650 0.930 . S
H668 C658 0.931 . S
H669 C659 0.931 . S
H670 C660 0.930 . S
H671 C661 0.929 . S
Eu672 N701 2.600 . S
Eu672 N707 2.562 . S
Eu672 O716 2.462 . S
Eu672 O717 2.373 . S
Eu672 O719 2.432 . S
Eu672 O720 2.291 . S
Eu672 O724 2.335 . S
Eu672 O727 2.372 . S
Eu672 C736 2.787 . S
C673 N674 1.365 . S
C673 C676 1.405 . S
C673 C680 1.448 . S
N674 C673 1.365 . S
N674 C677 1.319 . S
N674 Eu683 2.600 . S
C675 C677 1.397 . S
C675 C678 1.367 . S
C675 H695 0.931 . S
C676 C673 1.405 . S
C676 C678 1.403 . S
C676 C682 1.439 . S
C677 N674 1.319 . S
C677 C675 1.397 . S
C677 H688 0.930 . S
C678 C675 1.367 . S
C678 C676 1.403 . S
C678 H699 0.929 . S
C679 C680 1.430 . S
C679 C681 1.387 . S
C679 C685 1.404 . S
C680 C673 1.448 . S
C680 C679 1.430 . S
C680 N684 1.351 . S
C681 C679 1.387 . S
C681 C682 1.374 . S
C681 H696 0.931 . S
C682 C676 1.439 . S
C682 C681 1.374 . S
C682 H697 0.931 . S
Eu683 N674 2.600 . S
Eu683 N684 2.562 . S
Eu683 O718 2.335 . S
Eu683 O721 2.372 . S
Eu683 O722 2.462 . S
Eu683 O723 2.373 . S
Eu683 O725 2.432 . S
Eu683 O726 2.291 . S
Eu683 C747 2.787 . S
N684 C680 1.351 . S
N684 Eu683 2.562 . S
N684 C686 1.325 . S
C685 C679 1.404 . S
C685 C687 1.366 . S
C685 H693 0.930 . S
C686 N684 1.325 . S
C686 C687 1.416 . S
C686 H692 0.929 . S
C687 C685 1.366 . S
C687 C686 1.416 . S
C687 H689 0.930 . S
H688 C677 0.930 . S
H689 C687 0.930 . S
H690 C705 0.930 . S
H691 C712 0.930 . S
H692 C686 0.929 . S
H693 C685 0.930 . S
H694 C708 0.929 . S
H695 C675 0.931 . S
H696 C681 0.931 . S
H697 C682 0.931 . S
H698 C703 0.931 . S
H699 C678 0.929 . S
H700 C711 0.930 . S
N701 Eu672 2.600 . S
N701 C702 1.365 . S
N701 C705 1.319 . S
C702 N701 1.365 . S
C702 C704 1.405 . S
C702 C710 1.448 . S
C703 H698 0.931 . S
C703 C705 1.397 . S
C703 C706 1.367 . S
C704 C702 1.405 . S
C704 C706 1.403 . S
C704 C737 1.439 . S
C705 H690 0.930 . S
C705 N701 1.319 . S
C705 C703 1.397 . S
C706 C703 1.367 . S
C706 C704 1.403 . S
C706 H713 0.929 . S
N707 Eu672 2.562 . S
N707 C708 1.325 . S
N707 C710 1.351 . S
C708 H694 0.929 . S
C708 N707 1.325 . S
C708 C712 1.416 . S
C709 C710 1.430 . S
C709 C711 1.404 . S
C709 C738 1.387 . S
C710 C702 1.448 . S
C710 N707 1.351 . S
C710 C709 1.430 . S
C711 H700 0.930 . S
C711 C709 1.404 . S
C711 C712 1.366 . S
C712 H691 0.930 . S
C712 C708 1.416 . S
C712 C711 1.366 . S
H713 C706 0.929 . S
H714 C737 0.931 . S
H715 C738 0.931 . S
O716 Eu672 2.462 . S
O716 C736 1.252 . S
O717 Eu672 2.373 . S
O717 C728 1.249 . S
O718 Eu683 2.335 . S
O718 C728 1.264 . S
O719 Eu672 2.432 . S
O719 C736 1.268 . S
O720 Eu672 2.291 . S
O720 C735 1.255 . S
O721 Eu683 2.372 . S
O721 C735 1.257 . S
O722 Eu683 2.462 . S
O722 C747 1.252 . S
O723 Eu683 2.373 . S
O723 C739 1.249 . S
O724 Eu672 2.335 . S
O724 C739 1.264 . S
O725 Eu683 2.432 . S
O725 C747 1.268 . S
O726 Eu683 2.291 . S
O726 C746 1.255 . S
O727 Eu672 2.372 . S
O727 C746 1.257 . S
C728 O717 1.249 . S
C728 O718 1.264 . S
C729 C732 1.382 . S
C729 C734 1.390 . S
C729 C736 1.506 . S
C730 C731 1.398 . S
C730 C734 1.392 . S
C731 C730 1.398 . S
C731 C733 1.372 . S
C731 H748 0.931 . S
C732 C729 1.382 . S
C732 C733 1.390 . S
C732 H749 0.931 . S
C733 C731 1.372 . S
C733 C732 1.390 . S
C733 H750 0.929 . S
C734 C729 1.390 . S
C734 C730 1.392 . S
C734 H751 0.930 . S
C735 O720 1.255 . S
C735 O721 1.257 . S
C736 Eu672 2.787 . S
C736 O716 1.252 . S
C736 O719 1.268 . S
C736 C729 1.506 . S
C737 C704 1.439 . S
C737 H714 0.931 . S
C737 C738 1.374 . S
C738 C709 1.387 . S
C738 H715 0.931 . S
C738 C737 1.374 . S
C739 O723 1.249 . S
C739 O724 1.264 . S
C740 C743 1.382 . S
C740 C744 1.390 . S
C740 C747 1.506 . S
C741 C742 1.398 . S
C741 C744 1.392 . S
C742 C741 1.398 . S
C742 C745 1.372 . S
C742 H752 0.931 . S
C743 C740 1.382 . S
C743 C745 1.390 . S
C743 H753 0.931 . S
C744 C740 1.390 . S
C744 C741 1.392 . S
C744 H754 0.930 . S
C745 C742 1.372 . S
C745 C743 1.390 . S
C745 H755 0.929 . S
C746 O726 1.255 . S
C746 O727 1.257 . S
C747 Eu683 2.787 . S
C747 O722 1.252 . S
C747 O725 1.268 . S
C747 C740 1.506 . S
H748 C731 0.931 . S
H749 C732 0.931 . S
H750 C733 0.929 . S
H751 C734 0.930 . S
H752 C742 0.931 . S
H753 C743 0.931 . S
H754 C744 0.930 . S
H755 C745 0.929 . S
Eu756 N785 2.600 1_655 S
Eu756 N791 2.562 . S
Eu756 O800 2.462 . S
Eu756 O801 2.373 1_655 S
Eu756 O803 2.432 . S
Eu756 O804 2.291 . S
Eu756 O808 2.335 . S
Eu756 O811 2.372 1_655 S
Eu756 C820 2.787 . S
C757 N758 1.365 . S
C757 C760 1.405 . S
C757 C764 1.448 . S
N758 C757 1.365 . S
N758 C761 1.319 . S
N758 Eu767 2.600 1_655 S
C759 C761 1.397 . S
C759 C762 1.367 . S
C759 H779 0.931 . S
C760 C757 1.405 . S
C760 C762 1.403 . S
C760 C766 1.439 . S
C761 N758 1.319 . S
C761 C759 1.397 . S
C761 H772 0.930 . S
C762 C759 1.367 . S
C762 C760 1.403 . S
C762 H783 0.929 . S
C763 C764 1.430 . S
C763 C765 1.387 . S
C763 C769 1.404 1_655 S
C764 C757 1.448 . S
C764 C763 1.430 . S
C764 N768 1.351 1_655 S
C765 C763 1.387 . S
C765 C766 1.374 . S
C765 H780 0.931 . S
C766 C760 1.439 . S
C766 C765 1.374 . S
C766 H781 0.931 . S
Eu767 N758 2.600 1_455 S
Eu767 N768 2.562 . S
Eu767 O802 2.335 . S
Eu767 O805 2.372 1_455 S
Eu767 O806 2.462 . S
Eu767 O807 2.373 1_455 S
Eu767 O809 2.432 . S
Eu767 O810 2.291 . S
Eu767 C831 2.787 . S
N768 C764 1.351 1_455 S
N768 Eu767 2.562 . S
N768 C770 1.325 . S
C769 C763 1.404 1_455 S
C769 C771 1.366 . S
C769 H777 0.930 . S
C770 N768 1.325 . S
C770 C771 1.416 . S
C770 H776 0.929 . S
C771 C769 1.366 . S
C771 C770 1.416 . S
C771 H773 0.930 . S
H772 C761 0.930 . S
H773 C771 0.930 . S
H774 C789 0.930 . S
H775 C796 0.930 . S
H776 C770 0.929 . S
H777 C769 0.930 . S
H778 C792 0.929 . S
H779 C759 0.931 . S
H780 C765 0.931 . S
H781 C766 0.931 . S
H782 C787 0.931 1_554 S
H783 C762 0.929 . S
H784 C795 0.930 . S
N785 Eu756 2.600 1_455 S
N785 C786 1.365 . S
N785 C789 1.319 . S
C786 N785 1.365 . S
C786 C788 1.405 . S
C786 C794 1.448 . S
C787 H782 0.931 1_556 S
C787 C789 1.397 . S
C787 C790 1.367 . S
C788 C786 1.405 . S
C788 C790 1.403 . S
C788 C821 1.439 . S
C789 H774 0.930 . S
C789 N785 1.319 . S
C789 C787 1.397 . S
C790 C787 1.367 . S
C790 C788 1.403 . S
C790 H797 0.929 . S
N791 Eu756 2.562 . S
N791 C792 1.325 . S
N791 C794 1.351 1_655 S
C792 H778 0.929 . S
C792 N791 1.325 . S
C792 C796 1.416 . S
C793 C794 1.430 . S
C793 C795 1.404 1_455 S
C793 C822 1.387 . S
C794 C786 1.448 . S
C794 N791 1.351 1_455 S
C794 C793 1.430 . S
C795 H784 0.930 . S
C795 C793 1.404 1_655 S
C795 C796 1.366 . S
C796 H775 0.930 . S
C796 C792 1.416 . S
C796 C795 1.366 . S
H797 C790 0.929 . S
H798 C821 0.931 . S
H799 C822 0.931 . S
O800 Eu756 2.462 . S
O800 C820 1.252 . S
O801 Eu756 2.373 1_455 S
O801 C812 1.249 . S
O802 Eu767 2.335 . S
O802 C812 1.264 . S
O803 Eu756 2.432 . S
O803 C820 1.268 . S
O804 Eu756 2.291 . S
O804 C819 1.255 . S
O805 Eu767 2.372 1_655 S
O805 C819 1.257 . S
O806 Eu767 2.462 . S
O806 C831 1.252 . S
O807 Eu767 2.373 1_655 S
O807 C823 1.249 . S
O808 Eu756 2.335 . S
O808 C823 1.264 . S
O809 Eu767 2.432 . S
O809 C831 1.268 . S
O810 Eu767 2.291 . S
O810 C830 1.255 . S
O811 Eu756 2.372 1_455 S
O811 C830 1.257 . S
C812 O801 1.249 . S
C812 O802 1.264 . S
C813 C816 1.382 . S
C813 C818 1.390 . S
C813 C820 1.506 1_554 S
C814 C815 1.398 . S
C814 C818 1.392 . S
C815 C814 1.398 . S
C815 C817 1.372 . S
C815 H832 0.931 . S
C816 C813 1.382 . S
C816 C817 1.390 . S
C816 H833 0.931 . S
C817 C815 1.372 . S
C817 C816 1.390 . S
C817 H834 0.929 . S
C818 C813 1.390 . S
C818 C814 1.392 . S
C818 H835 0.930 1_554 S
C819 O804 1.255 . S
C819 O805 1.257 . S
C820 Eu756 2.787 . S
C820 O800 1.252 . S
C820 O803 1.268 . S
C820 C813 1.506 1_556 S
C821 C788 1.439 . S
C821 H798 0.931 . S
C821 C822 1.374 . S
C822 C793 1.387 . S
C822 H799 0.931 . S
C822 C821 1.374 . S
C823 O807 1.249 . S
C823 O808 1.264 . S
C824 C827 1.382 . S
C824 C828 1.390 . S
C824 C831 1.506 . S
C825 C826 1.398 . S
C825 C828 1.392 . S
C826 C825 1.398 . S
C826 C829 1.372 . S
C826 H836 0.931 . S
C827 C824 1.382 . S
C827 C829 1.390 . S
C827 H837 0.931 . S
C828 C824 1.390 . S
C828 C825 1.392 . S
C828 H838 0.930 . S
C829 C826 1.372 . S
C829 C827 1.390 . S
C829 H839 0.929 . S
C830 O810 1.255 . S
C830 O811 1.257 . S
C831 Eu767 2.787 . S
C831 O806 1.252 . S
C831 O809 1.268 . S
C831 C824 1.506 . S
H832 C815 0.931 . S
H833 C816 0.931 . S
H834 C817 0.929 . S
H835 C818 0.930 1_556 S
H836 C826 0.931 . S
H837 C827 0.931 . S
H838 C828 0.930 . S
H839 C829 0.929 . S
Eu840 N869 2.600 1_565 S
Eu840 N875 2.562 . S
Eu840 O884 2.462 . S
Eu840 O885 2.373 1_565 S
Eu840 O887 2.432 . S
Eu840 O888 2.291 . S
Eu840 O892 2.335 . S
Eu840 O895 2.372 1_565 S
Eu840 C904 2.787 . S
C841 N842 1.365 . S
C841 C844 1.405 . S
C841 C848 1.448 . S
N842 C841 1.365 . S
N842 C845 1.319 . S
N842 Eu851 2.600 1_565 S
C843 C845 1.397 . S
C843 C846 1.367 . S
C843 H863 0.931 . S
C844 C841 1.405 . S
C844 C846 1.403 . S
C844 C850 1.439 . S
C845 N842 1.319 . S
C845 C843 1.397 . S
C845 H856 0.930 . S
C846 C843 1.367 . S
C846 C844 1.403 . S
C846 H867 0.929 . S
C847 C848 1.430 . S
C847 C849 1.387 . S
C847 C853 1.404 1_565 S
C848 C841 1.448 . S
C848 C847 1.430 . S
C848 N852 1.351 1_565 S
C849 C847 1.387 . S
C849 C850 1.374 . S
C849 H864 0.931 . S
C850 C844 1.439 . S
C850 C849 1.374 . S
C850 H865 0.931 . S
Eu851 N842 2.600 1_545 S
Eu851 N852 2.562 . S
Eu851 O886 2.335 . S
Eu851 O889 2.372 1_545 S
Eu851 O890 2.462 . S
Eu851 O891 2.373 1_545 S
Eu851 O893 2.432 . S
Eu851 O894 2.291 . S
Eu851 C915 2.787 . S
N852 C848 1.351 1_545 S
N852 Eu851 2.562 . S
N852 C854 1.325 . S
C853 C847 1.404 1_545 S
C853 C855 1.366 . S
C853 H861 0.930 . S
C854 N852 1.325 . S
C854 C855 1.416 . S
C854 H860 0.929 . S
C855 C853 1.366 . S
C855 C854 1.416 . S
C855 H857 0.930 . S
H856 C845 0.930 . S
H857 C855 0.930 . S
H858 C873 0.930 . S
H859 C880 0.930 . S
H860 C854 0.929 . S
H861 C853 0.930 . S
H862 C876 0.929 . S
H863 C843 0.931 . S
H864 C849 0.931 . S
H865 C850 0.931 . S
H866 C871 0.931 . S
H867 C846 0.929 . S
H868 C879 0.930 . S
N869 Eu840 2.600 1_545 S
N869 C870 1.365 . S
N869 C873 1.319 . S
C870 N869 1.365 . S
C870 C872 1.405 . S
C870 C878 1.448 . S
C871 H866 0.931 . S
C871 C873 1.397 . S
C871 C874 1.367 . S
C872 C870 1.405 . S
C872 C874 1.403 . S
C872 C905 1.439 . S
C873 H858 0.930 . S
C873 N869 1.319 . S
C873 C871 1.397 . S
C874 C871 1.367 . S
C874 C872 1.403 . S
C874 H881 0.929 . S
N875 Eu840 2.562 . S
N875 C876 1.325 . S
N875 C878 1.351 1_565 S
C876 H862 0.929 . S
C876 N875 1.325 . S
C876 C880 1.416 . S
C877 C878 1.430 . S
C877 C879 1.404 1_545 S
C877 C906 1.387 . S
C878 C870 1.448 . S
C878 N875 1.351 1_545 S
C878 C877 1.430 . S
C879 H868 0.930 . S
C879 C877 1.404 1_565 S
C879 C880 1.366 . S
C880 H859 0.930 . S
C880 C876 1.416 . S
C880 C879 1.366 . S
H881 C874 0.929 . S
H882 C905 0.931 . S
H883 C906 0.931 . S
O884 Eu840 2.462 . S
O884 C904 1.252 . S
O885 Eu840 2.373 1_545 S
O885 C896 1.249 . S
O886 Eu851 2.335 . S
O886 C896 1.264 . S
O887 Eu840 2.432 . S
O887 C904 1.268 . S
O888 Eu840 2.291 . S
O888 C903 1.255 . S
O889 Eu851 2.372 1_565 S
O889 C903 1.257 . S
O890 Eu851 2.462 . S
O890 C915 1.252 . S
O891 Eu851 2.373 1_565 S
O891 C907 1.249 . S
O892 Eu840 2.335 . S
O892 C907 1.264 . S
O893 Eu851 2.432 . S
O893 C915 1.268 . S
O894 Eu851 2.291 . S
O894 C914 1.255 . S
O895 Eu840 2.372 1_545 S
O895 C914 1.257 . S
C896 O885 1.249 . S
C896 O886 1.264 . S
C897 C900 1.382 . S
C897 C902 1.390 . S
C897 C904 1.506 . S
C898 C899 1.398 . S
C898 C902 1.392 . S
C899 C898 1.398 . S
C899 C901 1.372 . S
C899 H916 0.931 . S
C900 C897 1.382 . S
C900 C901 1.390 . S
C900 H917 0.931 . S
C901 C899 1.372 . S
C901 C900 1.390 . S
C901 H918 0.929 . S
C902 C897 1.390 . S
C902 C898 1.392 . S
C902 H919 0.930 . S
C903 O888 1.255 . S
C903 O889 1.257 . S
C904 Eu840 2.787 . S
C904 O884 1.252 . S
C904 O887 1.268 . S
C904 C897 1.506 . S
C905 C872 1.439 . S
C905 H882 0.931 . S
C905 C906 1.374 . S
C906 C877 1.387 . S
C906 H883 0.931 . S
C906 C905 1.374 . S
C907 O891 1.249 . S
C907 O892 1.264 . S
C908 C911 1.382 . S
C908 C912 1.390 . S
C908 C915 1.506 . S
C909 C910 1.398 . S
C909 C912 1.392 . S
C910 C909 1.398 . S
C910 C913 1.372 . S
C910 H920 0.931 . S
C911 C908 1.382 . S
C911 C913 1.390 . S
C911 H921 0.931 . S
C912 C908 1.390 . S
C912 C909 1.392 . S
C912 H922 0.930 . S
C913 C910 1.372 . S
C913 C911 1.390 . S
C913 H923 0.929 . S
C914 O894 1.255 . S
C914 O895 1.257 . S
C915 Eu851 2.787 . S
C915 O890 1.252 . S
C915 O893 1.268 . S
C915 C908 1.506 . S
H916 C899 0.931 . S
H917 C900 0.931 . S
H918 C901 0.929 . S
H919 C902 0.930 . S
H920 C910 0.931 . S
H921 C911 0.931 . S
H922 C912 0.930 . S
H923 C913 0.929 . S
Eu924 N953 2.600 . S
Eu924 N959 2.562 . S
Eu924 O968 2.462 . S
Eu924 O969 2.373 . S
Eu924 O971 2.432 . S
Eu924 O972 2.291 . S
Eu924 O976 2.335 . S
Eu924 O979 2.372 . S
Eu924 C988 2.787 . S
C925 N926 1.365 . S
C925 C928 1.405 . S
C925 C932 1.448 . S
N926 C925 1.365 . S
N926 C929 1.319 . S
N926 Eu935 2.600 . S
C927 C929 1.397 . S
C927 C930 1.367 . S
C927 H947 0.931 . S
C928 C925 1.405 . S
C928 C930 1.403 . S
C928 C934 1.439 . S
C929 N926 1.319 . S
C929 C927 1.397 . S
C929 H940 0.930 . S
C930 C927 1.367 . S
C930 C928 1.403 . S
C930 H951 0.929 . S
C931 C932 1.430 . S
C931 C933 1.387 . S
C931 C937 1.404 . S
C932 C925 1.448 . S
C932 C931 1.430 . S
C932 N936 1.351 . S
C933 C931 1.387 . S
C933 C934 1.374 . S
C933 H948 0.931 . S
C934 C928 1.439 . S
C934 C933 1.374 . S
C934 H949 0.931 . S
Eu935 N926 2.600 . S
Eu935 N936 2.562 . S
Eu935 O970 2.335 . S
Eu935 O973 2.372 . S
Eu935 O974 2.462 . S
Eu935 O975 2.373 . S
Eu935 O977 2.432 . S
Eu935 O978 2.291 . S
Eu935 C999 2.787 . S
N936 C932 1.351 . S
N936 Eu935 2.562 . S
N936 C938 1.325 . S
C937 C931 1.404 . S
C937 C939 1.366 . S
C937 H945 0.930 . S
C938 N936 1.325 . S
C938 C939 1.416 . S
C938 H944 0.929 . S
C939 C937 1.366 . S
C939 C938 1.416 . S
C939 H941 0.930 . S
H940 C929 0.930 . S
H941 C939 0.930 . S
H942 C957 0.930 . S
H943 C964 0.930 . S
H944 C938 0.929 . S
H945 C937 0.930 . S
H946 C960 0.929 . S
H947 C927 0.931 . S
H948 C933 0.931 . S
H949 C934 0.931 . S
H950 C955 0.931 . S
H951 C930 0.929 . S
H952 C963 0.930 . S
N953 Eu924 2.600 . S
N953 C954 1.365 . S
N953 C957 1.319 . S
C954 N953 1.365 . S
C954 C956 1.405 . S
C954 C962 1.448 . S
C955 H950 0.931 . S
C955 C957 1.397 . S
C955 C958 1.367 . S
C956 C954 1.405 . S
C956 C958 1.403 . S
C956 C989 1.439 . S
C957 H942 0.930 . S
C957 N953 1.319 . S
C957 C955 1.397 . S
C958 C955 1.367 . S
C958 C956 1.403 . S
C958 H965 0.929 . S
N959 Eu924 2.562 . S
N959 C960 1.325 . S
N959 C962 1.351 . S
C960 H946 0.929 . S
C960 N959 1.325 . S
C960 C964 1.416 . S
C961 C962 1.430 . S
C961 C963 1.404 . S
C961 C990 1.387 . S
C962 C954 1.448 . S
C962 N959 1.351 . S
C962 C961 1.430 . S
C963 H952 0.930 . S
C963 C961 1.404 . S
C963 C964 1.366 . S
C964 H943 0.930 . S
C964 C960 1.416 . S
C964 C963 1.366 . S
H965 C958 0.929 . S
H966 C989 0.931 . S
H967 C990 0.931 . S
O968 Eu924 2.462 . S
O968 C988 1.252 . S
O969 Eu924 2.373 . S
O969 C980 1.249 . S
O970 Eu935 2.335 . S
O970 C980 1.264 . S
O971 Eu924 2.432 . S
O971 C988 1.268 . S
O972 Eu924 2.291 . S
O972 C987 1.255 . S
O973 Eu935 2.372 . S
O973 C987 1.257 . S
O974 Eu935 2.462 . S
O974 C999 1.252 . S
O975 Eu935 2.373 . S
O975 C991 1.249 . S
O976 Eu924 2.335 . S
O976 C991 1.264 . S
O977 Eu935 2.432 . S
O977 C999 1.268 . S
O978 Eu935 2.291 . S
O978 C998 1.255 . S
O979 Eu924 2.372 . S
O979 C998 1.257 . S
C980 O969 1.249 . S
C980 O970 1.264 . S
C981 C984 1.382 . S
C981 C986 1.390 . S
C981 C988 1.506 . S
C982 C983 1.398 . S
C982 C986 1.392 . S
C983 C982 1.398 . S
C983 C985 1.372 . S
C983 H1000 0.931 . S
C984 C981 1.382 . S
C984 C985 1.390 . S
C984 H1001 0.931 . S
C985 C983 1.372 . S
C985 C984 1.390 . S
C985 H1002 0.929 . S
C986 C981 1.390 . S
C986 C982 1.392 . S
C986 H1003 0.930 . S
C987 O972 1.255 . S
C987 O973 1.257 . S
C988 Eu924 2.787 . S
C988 O968 1.252 . S
C988 O971 1.268 . S
C988 C981 1.506 . S
C989 C956 1.439 . S
C989 H966 0.931 . S
C989 C990 1.374 . S
C990 C961 1.387 . S
C990 H967 0.931 . S
C990 C989 1.374 . S
C991 O975 1.249 . S
C991 O976 1.264 . S
C992 C995 1.382 . S
C992 C996 1.390 . S
C992 C999 1.506 . S
C993 C994 1.398 . S
C993 C996 1.392 . S
C994 C993 1.398 . S
C994 C997 1.372 . S
C994 H1004 0.931 . S
C995 C992 1.382 . S
C995 C997 1.390 . S
C995 H1005 0.931 . S
C996 C992 1.390 . S
C996 C993 1.392 . S
C996 H1006 0.930 . S
C997 C994 1.372 . S
C997 C995 1.390 . S
C997 H1007 0.929 . S
C998 O978 1.255 . S
C998 O979 1.257 . S
C999 Eu935 2.787 . S
C999 O974 1.252 . S
C999 O977 1.268 . S
C999 C992 1.506 . S
H1000 C983 0.931 . S
H1001 C984 0.931 . S
H1002 C985 0.929 . S
H1003 C986 0.930 . S
H1004 C994 0.931 . S
H1005 C995 0.931 . S
H1006 C996 0.930 . S
H1007 C997 0.929 . S
C1008 C1009 1.349 . S
C1008 C1010 1.327 . S
C1008 H1033 0.950 . S
C1009 C1008 1.349 . S
C1009 C1025 1.349 . S
C1010 C1008 1.327 . S
C1010 C1029 1.429 . S
C1010 H1034 0.950 . S
C1011 C1028 1.574 . S
C1011 C1030 1.368 . S
C1011 H1035 0.949 . S
H1012 C1016 0.949 . S
C1013 C1014 1.349 . S
C1013 C1015 1.327 . S
C1013 H1036 0.950 . S
C1014 C1013 1.349 . S
C1014 C1026 1.349 . S
C1015 C1013 1.327 . S
C1015 C1031 1.429 . S
C1015 H1037 0.950 . S
C1016 H1012 0.949 . S
C1016 C1024 1.574 . S
C1016 C1032 1.368 . S
H1017 C1025 0.950 . S
H1018 C1023 0.950 . S
H1019 C1024 0.949 . S
H1020 C1026 0.950 . S
H1021 C1027 0.950 . S
H1022 C1028 0.949 . S
C1023 H1018 0.950 . S
C1023 C1025 1.327 . S
C1023 C1029 1.429 . S
C1024 C1016 1.574 . S
C1024 H1019 0.949 . S
C1024 C1030 1.368 . S
C1025 C1009 1.349 . S
C1025 H1017 0.950 . S
C1025 C1023 1.327 . S
C1026 C1014 1.349 . S
C1026 H1020 0.950 . S
C1026 C1027 1.327 . S
C1027 H1021 0.950 . S
C1027 C1026 1.327 . S
C1027 C1031 1.429 . S
C1028 C1011 1.574 . S
C1028 H1022 0.949 . S
C1028 C1032 1.368 . S
C1029 C1010 1.429 . S
C1029 C1023 1.429 . S
C1029 C1030 1.523 . S
C1030 C1011 1.368 . S
C1030 C1024 1.368 . S
C1030 C1029 1.523 . S
C1031 C1015 1.429 . S
C1031 C1027 1.429 . S
C1031 C1032 1.523 . S
C1032 C1016 1.368 . S
C1032 C1028 1.368 . S
C1032 C1031 1.523 . S
H1033 C1008 0.950 . S
H1034 C1010 0.950 . S
H1035 C1011 0.949 . S
H1036 C1013 0.950 . S
H1037 C1015 0.950 . S
C1038 C1039 1.349 . S
C1038 C1040 1.327 . S
C1038 H1063 0.950 . S
C1039 C1038 1.349 . S
C1039 C1055 1.349 . S
C1040 C1038 1.327 . S
C1040 C1059 1.429 . S
C1040 H1064 0.950 . S
C1041 C1058 1.574 . S
C1041 C1060 1.368 . S
C1041 H1065 0.949 . S
H1042 C1046 0.949 . S
C1043 C1044 1.349 . S
C1043 C1045 1.327 . S
C1043 H1066 0.950 . S
C1044 C1043 1.349 . S
C1044 C1056 1.349 . S
C1045 C1043 1.327 . S
C1045 C1061 1.429 . S
C1045 H1067 0.950 . S
C1046 H1042 0.949 . S
C1046 C1054 1.574 . S
C1046 C1062 1.368 . S
H1047 C1055 0.950 . S
H1048 C1053 0.950 . S
H1049 C1054 0.949 . S
H1050 C1056 0.950 . S
H1051 C1057 0.950 . S
H1052 C1058 0.949 . S
C1053 H1048 0.950 . S
C1053 C1055 1.327 . S
C1053 C1059 1.429 . S
C1054 C1046 1.574 . S
C1054 H1049 0.949 . S
C1054 C1060 1.368 . S
C1055 C1039 1.349 . S
C1055 H1047 0.950 . S
C1055 C1053 1.327 . S
C1056 C1044 1.349 . S
C1056 H1050 0.950 . S
C1056 C1057 1.327 . S
C1057 H1051 0.950 . S
C1057 C1056 1.327 . S
C1057 C1061 1.429 . S
C1058 C1041 1.574 . S
C1058 H1052 0.949 . S
C1058 C1062 1.368 . S
C1059 C1040 1.429 . S
C1059 C1053 1.429 . S
C1059 C1060 1.523 . S
C1060 C1041 1.368 . S
C1060 C1054 1.368 . S
C1060 C1059 1.523 . S
C1061 C1045 1.429 . S
C1061 C1057 1.429 . S
C1061 C1062 1.523 . S
C1062 C1046 1.368 . S
C1062 C1058 1.368 . S
C1062 C1061 1.523 . S
H1063 C1038 0.950 . S
H1064 C1040 0.950 . S
H1065 C1041 0.949 . S
H1066 C1043 0.950 . S
H1067 C1045 0.950 . S
C1068 C1069 1.349 . S
C1068 C1070 1.327 . S
C1068 H1093 0.950 . S
C1069 C1068 1.349 . S
C1069 C1085 1.349 . S
C1070 C1068 1.327 . S
C1070 C1089 1.429 . S
C1070 H1094 0.950 . S
C1071 C1088 1.574 . S
C1071 C1090 1.368 . S
C1071 H1095 0.949 . S
H1072 C1076 0.949 . S
C1073 C1074 1.349 . S
C1073 C1075 1.327 . S
C1073 H1096 0.950 . S
C1074 C1073 1.349 . S
C1074 C1086 1.349 . S
C1075 C1073 1.327 . S
C1075 C1091 1.429 . S
C1075 H1097 0.950 . S
C1076 H1072 0.949 . S
C1076 C1084 1.574 . S
C1076 C1092 1.368 . S
H1077 C1085 0.950 . S
H1078 C1083 0.950 . S
H1079 C1084 0.949 . S
H1080 C1086 0.950 . S
H1081 C1087 0.950 . S
H1082 C1088 0.949 . S
C1083 H1078 0.950 . S
C1083 C1085 1.327 . S
C1083 C1089 1.429 . S
C1084 C1076 1.574 . S
C1084 H1079 0.949 . S
C1084 C1090 1.368 . S
C1085 C1069 1.349 . S
C1085 H1077 0.950 . S
C1085 C1083 1.327 . S
C1086 C1074 1.349 . S
C1086 H1080 0.950 . S
C1086 C1087 1.327 . S
C1087 H1081 0.950 . S
C1087 C1086 1.327 . S
C1087 C1091 1.429 . S
C1088 C1071 1.574 . S
C1088 H1082 0.949 . S
C1088 C1092 1.368 . S
C1089 C1070 1.429 . S
C1089 C1083 1.429 . S
C1089 C1090 1.523 . S
C1090 C1071 1.368 . S
C1090 C1084 1.368 . S
C1090 C1089 1.523 . S
C1091 C1075 1.429 . S
C1091 C1087 1.429 . S
C1091 C1092 1.523 . S
C1092 C1076 1.368 . S
C1092 C1088 1.368 . S
C1092 C1091 1.523 . S
H1093 C1068 0.950 . S
H1094 C1070 0.950 . S
H1095 C1071 0.949 . S
H1096 C1073 0.950 . S
H1097 C1075 0.950 . S
C1098 C1099 1.349 . S
C1098 C1100 1.327 . S
C1098 H1123 0.950 . S
C1099 C1098 1.349 . S
C1099 C1115 1.349 . S
C1100 C1098 1.327 . S
C1100 C1119 1.429 . S
C1100 H1124 0.950 . S
C1101 C1118 1.574 . S
C1101 C1120 1.368 . S
C1101 H1125 0.949 . S
H1102 C1106 0.949 . S
C1103 C1104 1.349 . S
C1103 C1105 1.327 . S
C1103 H1126 0.950 . S
C1104 C1103 1.349 . S
C1104 C1116 1.349 . S
C1105 C1103 1.327 . S
C1105 C1121 1.429 . S
C1105 H1127 0.950 . S
C1106 H1102 0.949 . S
C1106 C1114 1.574 . S
C1106 C1122 1.368 . S
H1107 C1115 0.950 . S
H1108 C1113 0.950 . S
H1109 C1114 0.949 . S
H1110 C1116 0.950 . S
H1111 C1117 0.950 . S
H1112 C1118 0.949 . S
C1113 H1108 0.950 . S
C1113 C1115 1.327 . S
C1113 C1119 1.429 . S
C1114 C1106 1.574 . S
C1114 H1109 0.949 . S
C1114 C1120 1.368 . S
C1115 C1099 1.349 . S
C1115 H1107 0.950 . S
C1115 C1113 1.327 . S
C1116 C1104 1.349 . S
C1116 H1110 0.950 . S
C1116 C1117 1.327 . S
C1117 H1111 0.950 . S
C1117 C1116 1.327 . S
C1117 C1121 1.429 . S
C1118 C1101 1.574 . S
C1118 H1112 0.949 . S
C1118 C1122 1.368 . S
C1119 C1100 1.429 . S
C1119 C1113 1.429 . S
C1119 C1120 1.523 . S
C1120 C1101 1.368 . S
C1120 C1114 1.368 . S
C1120 C1119 1.523 . S
C1121 C1105 1.429 . S
C1121 C1117 1.429 . S
C1121 C1122 1.523 . S
C1122 C1106 1.368 . S
C1122 C1118 1.368 . S
C1122 C1121 1.523 . S
H1123 C1098 0.950 . S
H1124 C1100 0.950 . S
H1125 C1101 0.949 . S
H1126 C1103 0.950 . S
H1127 C1105 0.950 . S
C1128 C1129 1.349 . S
C1128 C1130 1.327 . S
C1128 H1153 0.950 . S
C1129 C1128 1.349 . S
C1129 C1145 1.349 . S
C1130 C1128 1.327 . S
C1130 C1149 1.429 . S
C1130 H1154 0.950 . S
C1131 C1148 1.574 . S
C1131 C1150 1.368 . S
C1131 H1155 0.949 . S
H1132 C1136 0.949 . S
C1133 C1134 1.349 . S
C1133 C1135 1.327 . S
C1133 H1156 0.950 . S
C1134 C1133 1.349 . S
C1134 C1146 1.349 . S
C1135 C1133 1.327 . S
C1135 C1151 1.429 . S
C1135 H1157 0.950 . S
C1136 H1132 0.949 . S
C1136 C1144 1.574 . S
C1136 C1152 1.368 . S
H1137 C1145 0.950 . S
H1138 C1143 0.950 . S
H1139 C1144 0.949 . S
H1140 C1146 0.950 . S
H1141 C1147 0.950 . S
H1142 C1148 0.949 . S
C1143 H1138 0.950 . S
C1143 C1145 1.327 . S
C1143 C1149 1.429 . S
C1144 C1136 1.574 . S
C1144 H1139 0.949 . S
C1144 C1150 1.368 . S
C1145 C1129 1.349 . S
C1145 H1137 0.950 . S
C1145 C1143 1.327 . S
C1146 C1134 1.349 . S
C1146 H1140 0.950 . S
C1146 C1147 1.327 . S
C1147 H1141 0.950 . S
C1147 C1146 1.327 . S
C1147 C1151 1.429 . S
C1148 C1131 1.574 . S
C1148 H1142 0.949 . S
C1148 C1152 1.368 . S
C1149 C1130 1.429 . S
C1149 C1143 1.429 . S
C1149 C1150 1.523 . S
C1150 C1131 1.368 . S
C1150 C1144 1.368 . S
C1150 C1149 1.523 . S
C1151 C1135 1.429 . S
C1151 C1147 1.429 . S
C1151 C1152 1.523 . S
C1152 C1136 1.368 . S
C1152 C1148 1.368 . S
C1152 C1151 1.523 . S
H1153 C1128 0.950 . S
H1154 C1130 0.950 . S
H1155 C1131 0.949 . S
H1156 C1133 0.950 . S
H1157 C1135 0.950 . S
C1158 C1159 1.349 . S
C1158 C1160 1.327 . S
C1158 H1183 0.950 . S
C1159 C1158 1.349 . S
C1159 C1175 1.349 . S
C1160 C1158 1.327 . S
C1160 C1179 1.429 . S
C1160 H1184 0.950 . S
C1161 C1178 1.574 . S
C1161 C1180 1.368 . S
C1161 H1185 0.949 . S
H1162 C1166 0.949 . S
C1163 C1164 1.349 . S
C1163 C1165 1.327 . S
C1163 H1186 0.950 . S
C1164 C1163 1.349 . S
C1164 C1176 1.349 . S
C1165 C1163 1.327 . S
C1165 C1181 1.429 . S
C1165 H1187 0.950 . S
C1166 H1162 0.949 . S
C1166 C1174 1.574 . S
C1166 C1182 1.368 . S
H1167 C1175 0.950 . S
H1168 C1173 0.950 . S
H1169 C1174 0.949 . S
H1170 C1176 0.950 . S
H1171 C1177 0.950 . S
H1172 C1178 0.949 . S
C1173 H1168 0.950 . S
C1173 C1175 1.327 . S
C1173 C1179 1.429 . S
C1174 C1166 1.574 . S
C1174 H1169 0.949 . S
C1174 C1180 1.368 . S
C1175 C1159 1.349 . S
C1175 H1167 0.950 . S
C1175 C1173 1.327 . S
C1176 C1164 1.349 . S
C1176 H1170 0.950 . S
C1176 C1177 1.327 . S
C1177 H1171 0.950 . S
C1177 C1176 1.327 . S
C1177 C1181 1.429 . S
C1178 C1161 1.574 . S
C1178 H1172 0.949 . S
C1178 C1182 1.368 . S
C1179 C1160 1.429 . S
C1179 C1173 1.429 . S
C1179 C1180 1.523 . S
C1180 C1161 1.368 . S
C1180 C1174 1.368 . S
C1180 C1179 1.523 . S
C1181 C1165 1.429 . S
C1181 C1177 1.429 . S
C1181 C1182 1.523 . S
C1182 C1166 1.368 . S
C1182 C1178 1.368 . S
C1182 C1181 1.523 . S
H1183 C1158 0.950 . S
H1184 C1160 0.950 . S
H1185 C1161 0.949 . S
H1186 C1163 0.950 . S
H1187 C1165 0.950 . S
C1188 C1189 1.349 . S
C1188 C1190 1.327 . S
C1188 H1213 0.950 . S
C1189 C1188 1.349 . S
C1189 C1205 1.349 . S
C1190 C1188 1.327 . S
C1190 C1209 1.429 . S
C1190 H1214 0.950 . S
C1191 C1208 1.574 . S
C1191 C1210 1.368 . S
C1191 H1215 0.949 . S
H1192 C1196 0.949 . S
C1193 C1194 1.349 . S
C1193 C1195 1.327 . S
C1193 H1216 0.950 . S
C1194 C1193 1.349 . S
C1194 C1206 1.349 . S
C1195 C1193 1.327 . S
C1195 C1211 1.429 . S
C1195 H1217 0.950 . S
C1196 H1192 0.949 . S
C1196 C1204 1.574 . S
C1196 C1212 1.368 . S
H1197 C1205 0.950 . S
H1198 C1203 0.950 . S
H1199 C1204 0.949 . S
H1200 C1206 0.950 . S
H1201 C1207 0.950 . S
H1202 C1208 0.949 . S
C1203 H1198 0.950 . S
C1203 C1205 1.327 . S
C1203 C1209 1.429 . S
C1204 C1196 1.574 . S
C1204 H1199 0.949 . S
C1204 C1210 1.368 . S
C1205 C1189 1.349 . S
C1205 H1197 0.950 . S
C1205 C1203 1.327 . S
C1206 C1194 1.349 . S
C1206 H1200 0.950 . S
C1206 C1207 1.327 . S
C1207 H1201 0.950 . S
C1207 C1206 1.327 . S
C1207 C1211 1.429 . S
C1208 C1191 1.574 . S
C1208 H1202 0.949 . S
C1208 C1212 1.368 . S
C1209 C1190 1.429 . S
C1209 C1203 1.429 . S
C1209 C1210 1.523 . S
C1210 C1191 1.368 . S
C1210 C1204 1.368 . S
C1210 C1209 1.523 . S
C1211 C1195 1.429 . S
C1211 C1207 1.429 . S
C1211 C1212 1.523 . S
C1212 C1196 1.368 . S
C1212 C1208 1.368 . S
C1212 C1211 1.523 . S
H1213 C1188 0.950 . S
H1214 C1190 0.950 . S
H1215 C1191 0.949 . S
H1216 C1193 0.950 . S
H1217 C1195 0.950 . S
C1218 C1219 1.349 . S
C1218 C1220 1.327 . S
C1218 H1243 0.950 . S
C1219 C1218 1.349 . S
C1219 C1235 1.349 . S
C1220 C1218 1.327 . S
C1220 C1239 1.429 . S
C1220 H1244 0.950 . S
C1221 C1238 1.574 . S
C1221 C1240 1.368 . S
C1221 H1245 0.949 . S
H1222 C1226 0.949 . S
C1223 C1224 1.349 . S
C1223 C1225 1.327 . S
C1223 H1246 0.950 . S
C1224 C1223 1.349 . S
C1224 C1236 1.349 . S
C1225 C1223 1.327 . S
C1225 C1241 1.429 . S
C1225 H1247 0.950 . S
C1226 H1222 0.949 . S
C1226 C1234 1.574 . S
C1226 C1242 1.368 . S
H1227 C1235 0.950 . S
H1228 C1233 0.950 . S
H1229 C1234 0.949 . S
H1230 C1236 0.950 . S
H1231 C1237 0.950 . S
H1232 C1238 0.949 . S
C1233 H1228 0.950 . S
C1233 C1235 1.327 . S
C1233 C1239 1.429 . S
C1234 C1226 1.574 . S
C1234 H1229 0.949 . S
C1234 C1240 1.368 . S
C1235 C1219 1.349 . S
C1235 H1227 0.950 . S
C1235 C1233 1.327 . S
C1236 C1224 1.349 . S
C1236 H1230 0.950 . S
C1236 C1237 1.327 . S
C1237 H1231 0.950 . S
C1237 C1236 1.327 . S
C1237 C1241 1.429 . S
C1238 C1221 1.574 . S
C1238 H1232 0.949 . S
C1238 C1242 1.368 . S
C1239 C1220 1.429 . S
C1239 C1233 1.429 . S
C1239 C1240 1.523 . S
C1240 C1221 1.368 . S
C1240 C1234 1.368 . S
C1240 C1239 1.523 . S
C1241 C1225 1.429 . S
C1241 C1237 1.429 . S
C1241 C1242 1.523 . S
C1242 C1226 1.368 . S
C1242 C1238 1.368 . S
C1242 C1241 1.523 . S
H1243 C1218 0.950 . S
H1244 C1220 0.950 . S
H1245 C1221 0.949 . S
H1246 C1223 0.950 . S
H1247 C1225 0.950 . S
C1248 C1249 1.349 . S
C1248 C1250 1.327 . S
C1248 H1273 0.950 . S
C1249 C1248 1.349 . S
C1249 C1265 1.349 . S
C1250 C1248 1.327 . S
C1250 C1269 1.429 . S
C1250 H1274 0.950 . S
C1251 C1268 1.574 . S
C1251 C1270 1.368 . S
C1251 H1275 0.949 . S
H1252 C1256 0.949 . S
C1253 C1254 1.349 . S
C1253 C1255 1.327 . S
C1253 H1276 0.950 . S
C1254 C1253 1.349 . S
C1254 C1266 1.349 . S
C1255 C1253 1.327 . S
C1255 C1271 1.429 . S
C1255 H1277 0.950 . S
C1256 H1252 0.949 . S
C1256 C1264 1.574 . S
C1256 C1272 1.368 . S
H1257 C1265 0.950 . S
H1258 C1263 0.950 . S
H1259 C1264 0.949 . S
H1260 C1266 0.950 . S
H1261 C1267 0.950 . S
H1262 C1268 0.949 . S
C1263 H1258 0.950 . S
C1263 C1265 1.327 . S
C1263 C1269 1.429 . S
C1264 C1256 1.574 . S
C1264 H1259 0.949 . S
C1264 C1270 1.368 . S
C1265 C1249 1.349 . S
C1265 H1257 0.950 . S
C1265 C1263 1.327 . S
C1266 C1254 1.349 . S
C1266 H1260 0.950 . S
C1266 C1267 1.327 . S
C1267 H1261 0.950 . S
C1267 C1266 1.327 . S
C1267 C1271 1.429 . S
C1268 C1251 1.574 . S
C1268 H1262 0.949 . S
C1268 C1272 1.368 . S
C1269 C1250 1.429 . S
C1269 C1263 1.429 . S
C1269 C1270 1.523 . S
C1270 C1251 1.368 . S
C1270 C1264 1.368 . S
C1270 C1269 1.523 . S
C1271 C1255 1.429 . S
C1271 C1267 1.429 . S
C1271 C1272 1.523 . S
C1272 C1256 1.368 . S
C1272 C1268 1.368 . S
C1272 C1271 1.523 . S
H1273 C1248 0.950 . S
H1274 C1250 0.950 . S
H1275 C1251 0.949 . S
H1276 C1253 0.950 . S
H1277 C1255 0.950 . S
C1278 C1279 1.349 . S
C1278 C1280 1.327 . S
C1278 H1303 0.950 . S
C1279 C1278 1.349 . S
C1279 C1295 1.349 . S
C1280 C1278 1.327 . S
C1280 C1299 1.429 . S
C1280 H1304 0.950 . S
C1281 C1298 1.574 . S
C1281 C1300 1.368 . S
C1281 H1305 0.949 . S
H1282 C1286 0.949 . S
C1283 C1284 1.349 . S
C1283 C1285 1.327 . S
C1283 H1306 0.950 . S
C1284 C1283 1.349 . S
C1284 C1296 1.349 . S
C1285 C1283 1.327 . S
C1285 C1301 1.429 . S
C1285 H1307 0.950 . S
C1286 H1282 0.949 . S
C1286 C1294 1.574 . S
C1286 C1302 1.368 . S
H1287 C1295 0.950 . S
H1288 C1293 0.950 . S
H1289 C1294 0.949 . S
H1290 C1296 0.950 . S
H1291 C1297 0.950 . S
H1292 C1298 0.949 . S
C1293 H1288 0.950 . S
C1293 C1295 1.327 . S
C1293 C1299 1.429 . S
C1294 C1286 1.574 . S
C1294 H1289 0.949 . S
C1294 C1300 1.368 . S
C1295 C1279 1.349 . S
C1295 H1287 0.950 . S
C1295 C1293 1.327 . S
C1296 C1284 1.349 . S
C1296 H1290 0.950 . S
C1296 C1297 1.327 . S
C1297 H1291 0.950 . S
C1297 C1296 1.327 . S
C1297 C1301 1.429 . S
C1298 C1281 1.574 . S
C1298 H1292 0.949 . S
C1298 C1302 1.368 . S
C1299 C1280 1.429 . S
C1299 C1293 1.429 . S
C1299 C1300 1.523 . S
C1300 C1281 1.368 . S
C1300 C1294 1.368 . S
C1300 C1299 1.523 . S
C1301 C1285 1.429 . S
C1301 C1297 1.429 . S
C1301 C1302 1.523 . S
C1302 C1286 1.368 . S
C1302 C1298 1.368 . S
C1302 C1301 1.523 . S
H1303 C1278 0.950 . S
H1304 C1280 0.950 . S
H1305 C1281 0.949 . S
H1306 C1283 0.950 . S
H1307 C1285 0.950 . S
C1308 C1309 1.349 . S
C1308 C1310 1.327 . S
C1308 H1333 0.950 . S
C1309 C1308 1.349 . S
C1309 C1325 1.349 . S
C1310 C1308 1.327 . S
C1310 C1329 1.429 . S
C1310 H1334 0.950 . S
C1311 C1328 1.574 . S
C1311 C1330 1.368 . S
C1311 H1335 0.949 . S
H1312 C1316 0.949 . S
C1313 C1314 1.349 . S
C1313 C1315 1.327 . S
C1313 H1336 0.950 . S
C1314 C1313 1.349 . S
C1314 C1326 1.349 . S
C1315 C1313 1.327 . S
C1315 C1331 1.429 . S
C1315 H1337 0.950 . S
C1316 H1312 0.949 . S
C1316 C1324 1.574 . S
C1316 C1332 1.368 . S
H1317 C1325 0.950 . S
H1318 C1323 0.950 . S
H1319 C1324 0.949 . S
H1320 C1326 0.950 . S
H1321 C1327 0.950 . S
H1322 C1328 0.949 . S
C1323 H1318 0.950 . S
C1323 C1325 1.327 . S
C1323 C1329 1.429 . S
C1324 C1316 1.574 . S
C1324 H1319 0.949 . S
C1324 C1330 1.368 . S
C1325 C1309 1.349 . S
C1325 H1317 0.950 . S
C1325 C1323 1.327 . S
C1326 C1314 1.349 . S
C1326 H1320 0.950 . S
C1326 C1327 1.327 . S
C1327 H1321 0.950 . S
C1327 C1326 1.327 . S
C1327 C1331 1.429 . S
C1328 C1311 1.574 . S
C1328 H1322 0.949 . S
C1328 C1332 1.368 . S
C1329 C1310 1.429 . S
C1329 C1323 1.429 . S
C1329 C1330 1.523 . S
C1330 C1311 1.368 . S
C1330 C1324 1.368 . S
C1330 C1329 1.523 . S
C1331 C1315 1.429 . S
C1331 C1327 1.429 . S
C1331 C1332 1.523 . S
C1332 C1316 1.368 . S
C1332 C1328 1.368 . S
C1332 C1331 1.523 . S
H1333 C1308 0.950 . S
H1334 C1310 0.950 . S
H1335 C1311 0.949 . S
H1336 C1313 0.950 . S
H1337 C1315 0.950 . S
C1338 C1339 1.349 . S
C1338 C1340 1.327 . S
C1338 H1363 0.950 . S
C1339 C1338 1.349 . S
C1339 C1355 1.349 . S
C1340 C1338 1.327 . S
C1340 C1359 1.429 . S
C1340 H1364 0.950 . S
C1341 C1358 1.574 . S
C1341 C1360 1.368 . S
C1341 H1365 0.949 . S
H1342 C1346 0.949 . S
C1343 C1344 1.349 . S
C1343 C1345 1.327 . S
C1343 H1366 0.950 . S
C1344 C1343 1.349 . S
C1344 C1356 1.349 . S
C1345 C1343 1.327 . S
C1345 C1361 1.429 . S
C1345 H1367 0.950 . S
C1346 H1342 0.949 . S
C1346 C1354 1.574 . S
C1346 C1362 1.368 . S
H1347 C1355 0.950 . S
H1348 C1353 0.950 . S
H1349 C1354 0.949 . S
H1350 C1356 0.950 . S
H1351 C1357 0.950 . S
H1352 C1358 0.949 . S
C1353 H1348 0.950 . S
C1353 C1355 1.327 . S
C1353 C1359 1.429 . S
C1354 C1346 1.574 . S
C1354 H1349 0.949 . S
C1354 C1360 1.368 . S
C1355 C1339 1.349 . S
C1355 H1347 0.950 . S
C1355 C1353 1.327 . S
C1356 C1344 1.349 . S
C1356 H1350 0.950 . S
C1356 C1357 1.327 . S
C1357 H1351 0.950 . S
C1357 C1356 1.327 . S
C1357 C1361 1.429 . S
C1358 C1341 1.574 . S
C1358 H1352 0.949 . S
C1358 C1362 1.368 . S
C1359 C1340 1.429 . S
C1359 C1353 1.429 . S
C1359 C1360 1.523 . S
C1360 C1341 1.368 . S
C1360 C1354 1.368 . S
C1360 C1359 1.523 . S
C1361 C1345 1.429 . S
C1361 C1357 1.429 . S
C1361 C1362 1.523 . S
C1362 C1346 1.368 . S
C1362 C1358 1.368 . S
C1362 C1361 1.523 . S
H1363 C1338 0.950 . S
H1364 C1340 0.950 . S
H1365 C1341 0.949 . S
H1366 C1343 0.950 . S
H1367 C1345 0.950 . S
C1368 C1369 1.349 . S
C1368 C1370 1.327 . S
C1368 H1393 0.950 . S
C1369 C1368 1.349 . S
C1369 C1385 1.349 . S
C1370 C1368 1.327 . S
C1370 C1389 1.429 . S
C1370 H1394 0.950 . S
C1371 C1388 1.574 . S
C1371 C1390 1.368 . S
C1371 H1395 0.949 . S
H1372 C1376 0.949 . S
C1373 C1374 1.349 . S
C1373 C1375 1.327 . S
C1373 H1396 0.950 . S
C1374 C1373 1.349 . S
C1374 C1386 1.349 . S
C1375 C1373 1.327 . S
C1375 C1391 1.429 . S
C1375 H1397 0.950 . S
C1376 H1372 0.949 . S
C1376 C1384 1.574 . S
C1376 C1392 1.368 . S
H1377 C1385 0.950 . S
H1378 C1383 0.950 . S
H1379 C1384 0.949 . S
H1380 C1386 0.950 . S
H1381 C1387 0.950 . S
H1382 C1388 0.949 . S
C1383 H1378 0.950 . S
C1383 C1385 1.327 . S
C1383 C1389 1.429 . S
C1384 C1376 1.574 . S
C1384 H1379 0.949 . S
C1384 C1390 1.368 . S
C1385 C1369 1.349 . S
C1385 H1377 0.950 . S
C1385 C1383 1.327 . S
C1386 C1374 1.349 . S
C1386 H1380 0.950 . S
C1386 C1387 1.327 . S
C1387 H1381 0.950 . S
C1387 C1386 1.327 . S
C1387 C1391 1.429 . S
C1388 C1371 1.574 . S
C1388 H1382 0.949 . S
C1388 C1392 1.368 . S
C1389 C1370 1.429 . S
C1389 C1383 1.429 . S
C1389 C1390 1.523 . S
C1390 C1371 1.368 . S
C1390 C1384 1.368 . S
C1390 C1389 1.523 . S
C1391 C1375 1.429 . S
C1391 C1387 1.429 . S
C1391 C1392 1.523 . S
C1392 C1376 1.368 . S
C1392 C1388 1.368 . S
C1392 C1391 1.523 . S
H1393 C1368 0.950 . S
H1394 C1370 0.950 . S
H1395 C1371 0.949 . S
H1396 C1373 0.950 . S
H1397 C1375 0.950 . S
C1398 C1399 1.349 . S
C1398 C1400 1.327 . S
C1398 H1423 0.950 . S
C1399 C1398 1.349 . S
C1399 C1415 1.349 . S
C1400 C1398 1.327 . S
C1400 C1419 1.429 . S
C1400 H1424 0.950 . S
C1401 C1418 1.574 . S
C1401 C1420 1.368 . S
C1401 H1425 0.949 . S
H1402 C1406 0.949 . S
C1403 C1404 1.349 . S
C1403 C1405 1.327 . S
C1403 H1426 0.950 . S
C1404 C1403 1.349 . S
C1404 C1416 1.349 . S
C1405 C1403 1.327 . S
C1405 C1421 1.429 . S
C1405 H1427 0.950 . S
C1406 H1402 0.949 . S
C1406 C1414 1.574 . S
C1406 C1422 1.368 . S
H1407 C1415 0.950 . S
H1408 C1413 0.950 . S
H1409 C1414 0.949 . S
H1410 C1416 0.950 . S
H1411 C1417 0.950 . S
H1412 C1418 0.949 . S
C1413 H1408 0.950 . S
C1413 C1415 1.327 . S
C1413 C1419 1.429 . S
C1414 C1406 1.574 . S
C1414 H1409 0.949 . S
C1414 C1420 1.368 . S
C1415 C1399 1.349 . S
C1415 H1407 0.950 . S
C1415 C1413 1.327 . S
C1416 C1404 1.349 . S
C1416 H1410 0.950 . S
C1416 C1417 1.327 . S
C1417 H1411 0.950 . S
C1417 C1416 1.327 . S
C1417 C1421 1.429 . S
C1418 C1401 1.574 . S
C1418 H1412 0.949 . S
C1418 C1422 1.368 . S
C1419 C1400 1.429 . S
C1419 C1413 1.429 . S
C1419 C1420 1.523 . S
C1420 C1401 1.368 . S
C1420 C1414 1.368 . S
C1420 C1419 1.523 . S
C1421 C1405 1.429 . S
C1421 C1417 1.429 . S
C1421 C1422 1.523 . S
C1422 C1406 1.368 . S
C1422 C1418 1.368 . S
C1422 C1421 1.523 . S
H1423 C1398 0.950 . S
H1424 C1400 0.950 . S
H1425 C1401 0.949 . S
H1426 C1403 0.950 . S
H1427 C1405 0.950 . S
C1428 C1429 1.349 . S
C1428 C1430 1.327 . S
C1428 H1453 0.950 . S
C1429 C1428 1.349 . S
C1429 C1445 1.349 . S
C1430 C1428 1.327 . S
C1430 C1449 1.429 . S
C1430 H1454 0.950 . S
C1431 C1448 1.574 . S
C1431 C1450 1.368 . S
C1431 H1455 0.949 . S
H1432 C1436 0.949 . S
C1433 C1434 1.349 . S
C1433 C1435 1.327 . S
C1433 H1456 0.950 . S
C1434 C1433 1.349 . S
C1434 C1446 1.349 . S
C1435 C1433 1.327 . S
C1435 C1451 1.429 . S
C1435 H1457 0.950 . S
C1436 H1432 0.949 . S
C1436 C1444 1.574 . S
C1436 C1452 1.368 . S
H1437 C1445 0.950 . S
H1438 C1443 0.950 . S
H1439 C1444 0.949 . S
H1440 C1446 0.950 . S
H1441 C1447 0.950 . S
H1442 C1448 0.949 . S
C1443 H1438 0.950 . S
C1443 C1445 1.327 . S
C1443 C1449 1.429 . S
C1444 C1436 1.574 . S
C1444 H1439 0.949 . S
C1444 C1450 1.368 . S
C1445 C1429 1.349 . S
C1445 H1437 0.950 . S
C1445 C1443 1.327 . S
C1446 C1434 1.349 . S
C1446 H1440 0.950 . S
C1446 C1447 1.327 . S
C1447 H1441 0.950 . S
C1447 C1446 1.327 . S
C1447 C1451 1.429 . S
C1448 C1431 1.574 . S
C1448 H1442 0.949 . S
C1448 C1452 1.368 . S
C1449 C1430 1.429 . S
C1449 C1443 1.429 . S
C1449 C1450 1.523 . S
C1450 C1431 1.368 . S
C1450 C1444 1.368 . S
C1450 C1449 1.523 . S
C1451 C1435 1.429 . S
C1451 C1447 1.429 . S
C1451 C1452 1.523 . S
C1452 C1436 1.368 . S
C1452 C1448 1.368 . S
C1452 C1451 1.523 . S
H1453 C1428 0.950 . S
H1454 C1430 0.950 . S
H1455 C1431 0.949 . S
H1456 C1433 0.950 . S
H1457 C1435 0.950 . S
C1458 C1459 1.349 . S
C1458 C1460 1.327 . S
C1458 H1483 0.950 . S
C1459 C1458 1.349 . S
C1459 C1475 1.349 . S
C1460 C1458 1.327 . S
C1460 C1479 1.429 . S
C1460 H1484 0.950 . S
C1461 C1478 1.574 . S
C1461 C1480 1.368 . S
C1461 H1485 0.949 . S
H1462 C1466 0.949 . S
C1463 C1464 1.349 . S
C1463 C1465 1.327 . S
C1463 H1486 0.950 . S
C1464 C1463 1.349 . S
C1464 C1476 1.349 . S
C1465 C1463 1.327 . S
C1465 C1481 1.429 . S
C1465 H1487 0.950 . S
C1466 H1462 0.949 . S
C1466 C1474 1.574 . S
C1466 C1482 1.368 . S
H1467 C1475 0.950 . S
H1468 C1473 0.950 . S
H1469 C1474 0.949 . S
H1470 C1476 0.950 . S
H1471 C1477 0.950 . S
H1472 C1478 0.949 . S
C1473 H1468 0.950 . S
C1473 C1475 1.327 . S
C1473 C1479 1.429 . S
C1474 C1466 1.574 . S
C1474 H1469 0.949 . S
C1474 C1480 1.368 . S
C1475 C1459 1.349 . S
C1475 H1467 0.950 . S
C1475 C1473 1.327 . S
C1476 C1464 1.349 . S
C1476 H1470 0.950 . S
C1476 C1477 1.327 . S
C1477 H1471 0.950 . S
C1477 C1476 1.327 . S
C1477 C1481 1.429 . S
C1478 C1461 1.574 . S
C1478 H1472 0.949 . S
C1478 C1482 1.368 . S
C1479 C1460 1.429 . S
C1479 C1473 1.429 . S
C1479 C1480 1.523 . S
C1480 C1461 1.368 . S
C1480 C1474 1.368 . S
C1480 C1479 1.523 . S
C1481 C1465 1.429 . S
C1481 C1477 1.429 . S
C1481 C1482 1.523 . S
C1482 C1466 1.368 . S
C1482 C1478 1.368 . S
C1482 C1481 1.523 . S
H1483 C1458 0.950 . S
H1484 C1460 0.950 . S
H1485 C1461 0.949 . S
H1486 C1463 0.950 . S
H1487 C1465 0.950 . S
C1488 C1489 1.349 . S
C1488 C1490 1.327 . S
C1488 H1513 0.950 . S
C1489 C1488 1.349 . S
C1489 C1505 1.349 . S
C1490 C1488 1.327 . S
C1490 C1509 1.429 . S
C1490 H1514 0.950 . S
C1491 C1508 1.593 . S
C1491 C1510 1.368 . S
C1491 H1515 0.949 . S
H1492 C1496 0.949 . S
C1493 C1494 1.349 . S
C1493 C1495 1.327 . S
C1493 H1516 0.950 . S
C1494 C1493 1.349 . S
C1494 C1506 1.349 . S
C1495 C1493 1.327 . S
C1495 C1511 1.429 . S
C1495 H1517 0.950 . S
C1496 H1492 0.949 . S
C1496 C1504 1.556 1_554 S
C1496 C1512 1.368 . S
H1497 C1505 0.950 . S
H1498 C1503 0.950 . S
H1499 C1504 0.949 . S
H1500 C1506 0.950 . S
H1501 C1507 0.950 . S
H1502 C1508 0.949 . S
C1503 H1498 0.950 . S
C1503 C1505 1.327 . S
C1503 C1509 1.429 . S
C1504 C1496 1.556 1_556 S
C1504 H1499 0.949 . S
C1504 C1510 1.389 . S
C1505 C1489 1.349 . S
C1505 H1497 0.950 . S
C1505 C1503 1.327 . S
C1506 C1494 1.349 . S
C1506 H1500 0.950 . S
C1506 C1507 1.327 . S
C1507 H1501 0.950 . S
C1507 C1506 1.327 . S
C1507 C1511 1.429 . S
C1508 C1491 1.593 . S
C1508 H1502 0.949 . S
C1508 C1512 1.353 1_556 S
C1509 C1490 1.429 . S
C1509 C1503 1.429 . S
C1509 C1510 1.523 . S
C1510 C1491 1.368 . S
C1510 C1504 1.389 . S
C1510 C1509 1.523 . S
C1511 C1495 1.429 . S
C1511 C1507 1.429 . S
C1511 C1512 1.523 . S
C1512 C1496 1.368 . S
C1512 C1508 1.353 1_554 S
C1512 C1511 1.523 . S
H1513 C1488 0.950 . S
H1514 C1490 0.950 . S
H1515 C1491 0.949 . S
H1516 C1493 0.950 . S
H1517 C1495 0.950 . S
C1518 C1519 1.349 . S
C1518 C1520 1.327 . S
C1518 H1543 0.950 . S
C1519 C1518 1.349 . S
C1519 C1535 1.349 . S
C1520 C1518 1.327 . S
C1520 C1539 1.429 . S
C1520 H1544 0.950 . S
C1521 C1538 1.574 . S
C1521 C1540 1.368 . S
C1521 H1545 0.949 . S
H1522 C1526 0.949 . S
C1523 C1524 1.349 . S
C1523 C1525 1.327 . S
C1523 H1546 0.950 . S
C1524 C1523 1.349 . S
C1524 C1536 1.349 . S
C1525 C1523 1.327 . S
C1525 C1541 1.429 . S
C1525 H1547 0.950 . S
C1526 H1522 0.949 . S
C1526 C1534 1.574 . S
C1526 C1542 1.368 . S
H1527 C1535 0.950 . S
H1528 C1533 0.950 . S
H1529 C1534 0.949 . S
H1530 C1536 0.950 . S
H1531 C1537 0.950 . S
H1532 C1538 0.949 . S
C1533 H1528 0.950 . S
C1533 C1535 1.327 . S
C1533 C1539 1.429 . S
C1534 C1526 1.574 . S
C1534 H1529 0.949 . S
C1534 C1540 1.368 . S
C1535 C1519 1.349 . S
C1535 H1527 0.950 . S
C1535 C1533 1.327 . S
C1536 C1524 1.349 . S
C1536 H1530 0.950 . S
C1536 C1537 1.327 . S
C1537 H1531 0.950 . S
C1537 C1536 1.327 . S
C1537 C1541 1.429 . S
C1538 C1521 1.574 . S
C1538 H1532 0.949 . S
C1538 C1542 1.368 . S
C1539 C1520 1.429 . S
C1539 C1533 1.429 . S
C1539 C1540 1.523 . S
C1540 C1521 1.368 . S
C1540 C1534 1.368 . S
C1540 C1539 1.523 . S
C1541 C1525 1.429 . S
C1541 C1537 1.429 . S
C1541 C1542 1.523 . S
C1542 C1526 1.368 . S
C1542 C1538 1.368 . S
C1542 C1541 1.523 . S
H1543 C1518 0.950 . S
H1544 C1520 0.950 . S
H1545 C1521 0.949 . S
H1546 C1523 0.950 . S
H1547 C1525 0.950 . S
C1548 C1549 1.349 . S
C1548 C1550 1.327 . S
C1548 H1573 0.950 . S
C1549 C1548 1.349 . S
C1549 C1565 1.349 . S
C1550 C1548 1.327 . S
C1550 C1569 1.429 . S
C1550 H1574 0.950 . S
C1551 C1568 1.574 . S
C1551 C1570 1.368 . S
C1551 H1575 0.949 . S
H1552 C1556 0.949 . S
C1553 C1554 1.349 . S
C1553 C1555 1.327 . S
C1553 H1576 0.950 . S
C1554 C1553 1.349 . S
C1554 C1566 1.349 . S
C1555 C1553 1.327 . S
C1555 C1571 1.429 . S
C1555 H1577 0.950 . S
C1556 H1552 0.949 . S
C1556 C1564 1.574 . S
C1556 C1572 1.368 . S
H1557 C1565 0.950 . S
H1558 C1563 0.950 . S
H1559 C1564 0.949 . S
H1560 C1566 0.950 . S
H1561 C1567 0.950 . S
H1562 C1568 0.949 . S
C1563 H1558 0.950 . S
C1563 C1565 1.327 . S
C1563 C1569 1.429 . S
C1564 C1556 1.574 . S
C1564 H1559 0.949 . S
C1564 C1570 1.368 . S
C1565 C1549 1.349 . S
C1565 H1557 0.950 . S
C1565 C1563 1.327 . S
C1566 C1554 1.349 . S
C1566 H1560 0.950 . S
C1566 C1567 1.327 . S
C1567 H1561 0.950 . S
C1567 C1566 1.327 . S
C1567 C1571 1.429 . S
C1568 C1551 1.574 . S
C1568 H1562 0.949 . S
C1568 C1572 1.368 . S
C1569 C1550 1.429 . S
C1569 C1563 1.429 . S
C1569 C1570 1.523 . S
C1570 C1551 1.368 . S
C1570 C1564 1.368 . S
C1570 C1569 1.523 . S
C1571 C1555 1.429 . S
C1571 C1567 1.429 . S
C1571 C1572 1.523 . S
C1572 C1556 1.368 . S
C1572 C1568 1.368 . S
C1572 C1571 1.523 . S
H1573 C1548 0.950 . S
H1574 C1550 0.950 . S
H1575 C1551 0.949 . S
H1576 C1553 0.950 . S
H1577 C1555 0.950 . S
C1578 C1579 1.349 . S
C1578 C1580 1.327 . S
C1578 H1603 0.950 . S
C1579 C1578 1.349 . S
C1579 C1595 1.349 . S
C1580 C1578 1.327 . S
C1580 C1599 1.429 . S
C1580 H1604 0.950 . S
C1581 C1598 1.574 . S
C1581 C1600 1.368 . S
C1581 H1605 0.949 . S
H1582 C1586 0.949 . S
C1583 C1584 1.349 . S
C1583 C1585 1.327 . S
C1583 H1606 0.950 . S
C1584 C1583 1.349 . S
C1584 C1596 1.349 . S
C1585 C1583 1.327 . S
C1585 C1601 1.429 . S
C1585 H1607 0.950 . S
C1586 H1582 0.949 . S
C1586 C1594 1.574 . S
C1586 C1602 1.368 . S
H1587 C1595 0.950 . S
H1588 C1593 0.950 . S
H1589 C1594 0.949 . S
H1590 C1596 0.950 . S
H1591 C1597 0.950 . S
H1592 C1598 0.949 . S
C1593 H1588 0.950 . S
C1593 C1595 1.327 . S
C1593 C1599 1.429 . S
C1594 C1586 1.574 . S
C1594 H1589 0.949 . S
C1594 C1600 1.368 . S
C1595 C1579 1.349 . S
C1595 H1587 0.950 . S
C1595 C1593 1.327 . S
C1596 C1584 1.349 . S
C1596 H1590 0.950 . S
C1596 C1597 1.327 . S
C1597 H1591 0.950 . S
C1597 C1596 1.327 . S
C1597 C1601 1.429 . S
C1598 C1581 1.574 . S
C1598 H1592 0.949 . S
C1598 C1602 1.368 . S
C1599 C1580 1.429 . S
C1599 C1593 1.429 . S
C1599 C1600 1.523 . S
C1600 C1581 1.368 . S
C1600 C1594 1.368 . S
C1600 C1599 1.523 . S
C1601 C1585 1.429 . S
C1601 C1597 1.429 . S
C1601 C1602 1.523 . S
C1602 C1586 1.368 . S
C1602 C1598 1.368 . S
C1602 C1601 1.523 . S
H1603 C1578 0.950 . S
H1604 C1580 0.950 . S
H1605 C1581 0.949 . S
H1606 C1583 0.950 . S
H1607 C1585 0.950 . S
C1608 C1609 1.349 . S
C1608 C1610 1.327 . S
C1608 H1633 0.950 . S
C1609 C1608 1.349 . S
C1609 C1625 1.349 . S
C1610 C1608 1.327 . S
C1610 C1629 1.429 . S
C1610 H1634 0.950 . S
C1611 C1628 1.574 . S
C1611 C1630 1.368 . S
C1611 H1635 0.949 . S
H1612 C1616 0.949 . S
C1613 C1614 1.349 . S
C1613 C1615 1.327 . S
C1613 H1636 0.950 . S
C1614 C1613 1.349 . S
C1614 C1626 1.349 . S
C1615 C1613 1.327 . S
C1615 C1631 1.429 . S
C1615 H1637 0.950 . S
C1616 H1612 0.949 . S
C1616 C1624 1.574 . S
C1616 C1632 1.368 . S
H1617 C1625 0.950 . S
H1618 C1623 0.950 . S
H1619 C1624 0.949 . S
H1620 C1626 0.950 . S
H1621 C1627 0.950 . S
H1622 C1628 0.949 . S
C1623 H1618 0.950 . S
C1623 C1625 1.327 . S
C1623 C1629 1.429 . S
C1624 C1616 1.574 . S
C1624 H1619 0.949 . S
C1624 C1630 1.368 . S
C1625 C1609 1.349 . S
C1625 H1617 0.950 . S
C1625 C1623 1.327 . S
C1626 C1614 1.349 . S
C1626 H1620 0.950 . S
C1626 C1627 1.327 . S
C1627 H1621 0.950 . S
C1627 C1626 1.327 . S
C1627 C1631 1.429 . S
C1628 C1611 1.574 . S
C1628 H1622 0.949 . S
C1628 C1632 1.368 . S
C1629 C1610 1.429 . S
C1629 C1623 1.429 . S
C1629 C1630 1.523 . S
C1630 C1611 1.368 . S
C1630 C1624 1.368 . S
C1630 C1629 1.523 . S
C1631 C1615 1.429 . S
C1631 C1627 1.429 . S
C1631 C1632 1.523 . S
C1632 C1616 1.368 . S
C1632 C1628 1.368 . S
C1632 C1631 1.523 . S
H1633 C1608 0.950 . S
H1634 C1610 0.950 . S
H1635 C1611 0.949 . S
H1636 C1613 0.950 . S
H1637 C1615 0.950 . S
C1638 C1639 1.349 . S
C1638 C1640 1.327 . S
C1638 H1663 0.950 . S
C1639 C1638 1.349 . S
C1639 C1655 1.349 . S
C1640 C1638 1.327 . S
C1640 C1659 1.429 . S
C1640 H1664 0.950 . S
C1641 C1658 1.574 . S
C1641 C1660 1.368 . S
C1641 H1665 0.949 . S
H1642 C1646 0.936 1_556 S
C1643 C1644 1.349 . S
C1643 C1645 1.327 . S
C1643 H1666 0.950 . S
C1644 C1643 1.349 . S
C1644 C1656 1.349 . S
C1645 C1643 1.327 . S
C1645 C1661 1.429 . S
C1645 H1667 0.968 . S
C1646 H1642 0.936 1_554 S
C1646 C1654 1.591 . S
C1646 C1662 1.368 . S
H1647 C1655 0.950 . S
H1648 C1653 0.950 . S
H1649 C1654 0.949 . S
H1650 C1656 0.950 . S
H1651 C1657 0.950 . S
H1652 C1658 0.949 . S
C1653 H1648 0.950 . S
C1653 C1655 1.327 . S
C1653 C1659 1.429 . S
C1654 C1646 1.591 . S
C1654 H1649 0.949 . S
C1654 C1660 1.368 . S
C1655 C1639 1.349 . S
C1655 H1647 0.950 . S
C1655 C1653 1.327 . S
C1656 C1644 1.349 . S
C1656 H1650 0.950 . S
C1656 C1657 1.327 . S
C1657 H1651 0.950 . S
C1657 C1656 1.327 . S
C1657 C1661 1.429 . S
C1658 C1641 1.574 . S
C1658 H1652 0.949 . S
C1658 C1662 1.391 . S
C1659 C1640 1.429 . S
C1659 C1653 1.429 . S
C1659 C1660 1.523 . S
C1660 C1641 1.368 . S
C1660 C1654 1.368 . S
C1660 C1659 1.523 . S
C1661 C1645 1.429 . S
C1661 C1657 1.429 . S
C1661 C1662 1.503 1_556 S
C1662 C1646 1.368 . S
C1662 C1658 1.391 . S
C1662 C1661 1.503 1_554 S
H1663 C1638 0.950 . S
H1664 C1640 0.950 . S
H1665 C1641 0.949 . S
H1666 C1643 0.950 . S
H1667 C1645 0.968 . S
C1668 C1669 1.349 . S
C1668 C1670 1.327 . S
C1668 H1693 0.950 . S
C1669 C1668 1.349 . S
C1669 C1685 1.349 . S
C1670 C1668 1.327 . S
C1670 C1689 1.429 . S
C1670 H1694 0.950 . S
C1671 C1688 1.574 . S
C1671 C1690 1.368 . S
C1671 H1695 0.949 . S
H1672 C1676 0.949 . S
C1673 C1674 1.349 . S
C1673 C1675 1.327 . S
C1673 H1696 0.950 . S
C1674 C1673 1.349 . S
C1674 C1686 1.349 . S
C1675 C1673 1.327 . S
C1675 C1691 1.429 . S
C1675 H1697 0.950 . S
C1676 H1672 0.949 . S
C1676 C1684 1.574 . S
C1676 C1692 1.368 . S
H1677 C1685 0.950 . S
H1678 C1683 0.950 . S
H1679 C1684 0.949 . S
H1680 C1686 0.950 . S
H1681 C1687 0.950 . S
H1682 C1688 0.949 . S
C1683 H1678 0.950 . S
C1683 C1685 1.327 . S
C1683 C1689 1.429 . S
C1684 C1676 1.574 . S
C1684 H1679 0.949 . S
C1684 C1690 1.368 . S
C1685 C1669 1.349 . S
C1685 H1677 0.950 . S
C1685 C1683 1.327 . S
C1686 C1674 1.349 . S
C1686 H1680 0.950 . S
C1686 C1687 1.327 . S
C1687 H1681 0.950 . S
C1687 C1686 1.327 . S
C1687 C1691 1.429 . S
C1688 C1671 1.574 . S
C1688 H1682 0.949 . S
C1688 C1692 1.368 . S
C1689 C1670 1.429 . S
C1689 C1683 1.429 . S
C1689 C1690 1.523 . S
C1690 C1671 1.368 . S
C1690 C1684 1.368 . S
C1690 C1689 1.523 . S
C1691 C1675 1.429 . S
C1691 C1687 1.429 . S
C1691 C1692 1.523 . S
C1692 C1676 1.368 . S
C1692 C1688 1.368 . S
C1692 C1691 1.523 . S
H1693 C1668 0.950 . S
H1694 C1670 0.950 . S
H1695 C1671 0.949 . S
H1696 C1673 0.950 . S
H1697 C1675 0.950 . S
C1698 C1699 1.349 . S
C1698 C1700 1.327 . S
C1698 H1723 0.950 . S
C1699 C1698 1.349 . S
C1699 C1715 1.349 . S
C1700 C1698 1.327 . S
C1700 C1719 1.429 . S
C1700 H1724 0.950 . S
C1701 C1718 1.574 . S
C1701 C1720 1.368 . S
C1701 H1725 0.949 . S
H1702 C1706 0.949 . S
C1703 C1704 1.349 . S
C1703 C1705 1.327 . S
C1703 H1726 0.950 . S
C1704 C1703 1.349 . S
C1704 C1716 1.349 . S
C1705 C1703 1.327 . S
C1705 C1721 1.429 . S
C1705 H1727 0.950 . S
C1706 H1702 0.949 . S
C1706 C1714 1.574 . S
C1706 C1722 1.368 . S
H1707 C1715 0.950 . S
H1708 C1713 0.950 . S
H1709 C1714 0.949 . S
H1710 C1716 0.950 . S
H1711 C1717 0.950 . S
H1712 C1718 0.949 . S
C1713 H1708 0.950 . S
C1713 C1715 1.327 . S
C1713 C1719 1.429 . S
C1714 C1706 1.574 . S
C1714 H1709 0.949 . S
C1714 C1720 1.368 . S
C1715 C1699 1.349 . S
C1715 H1707 0.950 . S
C1715 C1713 1.327 . S
C1716 C1704 1.349 . S
C1716 H1710 0.950 . S
C1716 C1717 1.327 . S
C1717 H1711 0.950 . S
C1717 C1716 1.327 . S
C1717 C1721 1.429 . S
C1718 C1701 1.574 . S
C1718 H1712 0.949 . S
C1718 C1722 1.368 . S
C1719 C1700 1.429 . S
C1719 C1713 1.429 . S
C1719 C1720 1.523 . S
C1720 C1701 1.368 . S
C1720 C1714 1.368 . S
C1720 C1719 1.523 . S
C1721 C1705 1.429 . S
C1721 C1717 1.429 . S
C1721 C1722 1.523 . S
C1722 C1706 1.368 . S
C1722 C1718 1.368 . S
C1722 C1721 1.523 . S
H1723 C1698 0.950 . S
H1724 C1700 0.950 . S
H1725 C1701 0.949 . S
H1726 C1703 0.950 . S
H1727 C1705 0.950 . S
C1728 C1729 1.349 . S
C1728 C1730 1.327 . S
C1728 H1753 0.950 . S
C1729 C1728 1.349 . S
C1729 C1745 1.349 . S
C1730 C1728 1.327 . S
C1730 C1749 1.429 . S
C1730 H1754 0.950 . S
C1731 C1748 1.574 . S
C1731 C1750 1.368 . S
C1731 H1755 0.949 . S
H1732 C1736 0.949 . S
C1733 C1734 1.349 . S
C1733 C1735 1.327 . S
C1733 H1756 0.950 . S
C1734 C1733 1.349 . S
C1734 C1746 1.349 . S
C1735 C1733 1.327 . S
C1735 C1751 1.429 . S
C1735 H1757 0.950 . S
C1736 H1732 0.949 . S
C1736 C1744 1.574 . S
C1736 C1752 1.368 . S
H1737 C1745 0.950 . S
H1738 C1743 0.950 . S
H1739 C1744 0.949 . S
H1740 C1746 0.950 . S
H1741 C1747 0.950 . S
H1742 C1748 0.949 . S
C1743 H1738 0.950 . S
C1743 C1745 1.327 . S
C1743 C1749 1.429 . S
C1744 C1736 1.574 . S
C1744 H1739 0.949 . S
C1744 C1750 1.368 . S
C1745 C1729 1.349 . S
C1745 H1737 0.950 . S
C1745 C1743 1.327 . S
C1746 C1734 1.349 . S
C1746 H1740 0.950 . S
C1746 C1747 1.327 . S
C1747 H1741 0.950 . S
C1747 C1746 1.327 . S
C1747 C1751 1.429 . S
C1748 C1731 1.574 . S
C1748 H1742 0.949 . S
C1748 C1752 1.368 . S
C1749 C1730 1.429 . S
C1749 C1743 1.429 . S
C1749 C1750 1.523 . S
C1750 C1731 1.368 . S
C1750 C1744 1.368 . S
C1750 C1749 1.523 . S
C1751 C1735 1.429 . S
C1751 C1747 1.429 . S
C1751 C1752 1.523 . S
C1752 C1736 1.368 . S
C1752 C1748 1.368 . S
C1752 C1751 1.523 . S
H1753 C1728 0.950 . S
H1754 C1730 0.950 . S
H1755 C1731 0.949 . S
H1756 C1733 0.950 . S
H1757 C1735 0.950 . S
C1758 C1759 1.349 . S
C1758 C1760 1.327 . S
C1758 H1783 0.950 . S
C1759 C1758 1.349 . S
C1759 C1775 1.349 . S
C1760 C1758 1.327 . S
C1760 C1779 1.429 . S
C1760 H1784 0.950 . S
C1761 C1778 1.574 . S
C1761 C1780 1.368 . S
C1761 H1785 0.949 . S
H1762 C1766 0.949 . S
C1763 C1764 1.349 . S
C1763 C1765 1.327 . S
C1763 H1786 0.950 . S
C1764 C1763 1.349 . S
C1764 C1776 1.349 . S
C1765 C1763 1.327 . S
C1765 C1781 1.429 . S
C1765 H1787 0.950 . S
C1766 H1762 0.949 . S
C1766 C1774 1.574 . S
C1766 C1782 1.368 . S
H1767 C1775 0.950 . S
H1768 C1773 0.950 . S
H1769 C1774 0.949 . S
H1770 C1776 0.950 . S
H1771 C1777 0.950 . S
H1772 C1778 0.949 . S
C1773 H1768 0.950 . S
C1773 C1775 1.327 . S
C1773 C1779 1.429 . S
C1774 C1766 1.574 . S
C1774 H1769 0.949 . S
C1774 C1780 1.368 . S
C1775 C1759 1.349 . S
C1775 H1767 0.950 . S
C1775 C1773 1.327 . S
C1776 C1764 1.349 . S
C1776 H1770 0.950 . S
C1776 C1777 1.327 . S
C1777 H1771 0.950 . S
C1777 C1776 1.327 . S
C1777 C1781 1.429 . S
C1778 C1761 1.574 . S
C1778 H1772 0.949 . S
C1778 C1782 1.368 . S
C1779 C1760 1.429 . S
C1779 C1773 1.429 . S
C1779 C1780 1.523 . S
C1780 C1761 1.368 . S
C1780 C1774 1.368 . S
C1780 C1779 1.523 . S
C1781 C1765 1.429 . S
C1781 C1777 1.429 . S
C1781 C1782 1.523 . S
C1782 C1766 1.368 . S
C1782 C1778 1.368 . S
C1782 C1781 1.523 . S
H1783 C1758 0.950 . S
H1784 C1760 0.950 . S
H1785 C1761 0.949 . S
H1786 C1763 0.950 . S
H1787 C1765 0.950 . S
C1788 C1789 1.349 . S
C1788 C1790 1.327 . S
C1788 H1813 0.950 . S
C1789 C1788 1.349 . S
C1789 C1805 1.349 . S
C1790 C1788 1.327 . S
C1790 C1809 1.429 . S
C1790 H1814 0.950 . S
C1791 C1808 1.574 . S
C1791 C1810 1.368 . S
C1791 H1815 0.949 . S
H1792 C1796 0.949 . S
C1793 C1794 1.349 . S
C1793 C1795 1.327 . S
C1793 H1816 0.950 . S
C1794 C1793 1.349 . S
C1794 C1806 1.349 . S
C1795 C1793 1.327 . S
C1795 C1811 1.429 . S
C1795 H1817 0.950 . S
C1796 H1792 0.949 . S
C1796 C1804 1.574 . S
C1796 C1812 1.368 . S
H1797 C1805 0.950 . S
H1798 C1803 0.950 . S
H1799 C1804 0.949 . S
H1800 C1806 0.950 . S
H1801 C1807 0.950 . S
H1802 C1808 0.949 . S
C1803 H1798 0.950 . S
C1803 C1805 1.327 . S
C1803 C1809 1.429 . S
C1804 C1796 1.574 . S
C1804 H1799 0.949 . S
C1804 C1810 1.368 . S
C1805 C1789 1.349 . S
C1805 H1797 0.950 . S
C1805 C1803 1.327 . S
C1806 C1794 1.349 . S
C1806 H1800 0.950 . S
C1806 C1807 1.327 . S
C1807 H1801 0.950 . S
C1807 C1806 1.327 . S
C1807 C1811 1.429 . S
C1808 C1791 1.574 . S
C1808 H1802 0.949 . S
C1808 C1812 1.368 . S
C1809 C1790 1.429 . S
C1809 C1803 1.429 . S
C1809 C1810 1.523 . S
C1810 C1791 1.368 . S
C1810 C1804 1.368 . S
C1810 C1809 1.523 . S
C1811 C1795 1.429 . S
C1811 C1807 1.429 . S
C1811 C1812 1.523 . S
C1812 C1796 1.368 . S
C1812 C1808 1.368 . S
C1812 C1811 1.523 . S
H1813 C1788 0.950 . S
H1814 C1790 0.950 . S
H1815 C1791 0.949 . S
H1816 C1793 0.950 . S
H1817 C1795 0.950 . S
C1818 C1819 1.349 . S
C1818 C1820 1.327 . S
C1818 H1843 0.950 . S
C1819 C1818 1.349 . S
C1819 C1835 1.349 . S
C1820 C1818 1.327 . S
C1820 C1839 1.429 . S
C1820 H1844 0.950 . S
C1821 C1838 1.574 . S
C1821 C1840 1.368 . S
C1821 H1845 0.949 . S
H1822 C1826 0.949 . S
C1823 C1824 1.349 . S
C1823 C1825 1.327 . S
C1823 H1846 0.950 . S
C1824 C1823 1.349 . S
C1824 C1836 1.349 . S
C1825 C1823 1.327 . S
C1825 C1841 1.429 . S
C1825 H1847 0.950 . S
C1826 H1822 0.949 . S
C1826 C1834 1.574 . S
C1826 C1842 1.368 . S
H1827 C1835 0.950 . S
H1828 C1833 0.950 . S
H1829 C1834 0.949 . S
H1830 C1836 0.950 . S
H1831 C1837 0.950 . S
H1832 C1838 0.949 . S
C1833 H1828 0.950 . S
C1833 C1835 1.327 . S
C1833 C1839 1.429 . S
C1834 C1826 1.574 . S
C1834 H1829 0.949 . S
C1834 C1840 1.368 . S
C1835 C1819 1.349 . S
C1835 H1827 0.950 . S
C1835 C1833 1.327 . S
C1836 C1824 1.349 . S
C1836 H1830 0.950 . S
C1836 C1837 1.327 . S
C1837 H1831 0.950 . S
C1837 C1836 1.327 . S
C1837 C1841 1.429 . S
C1838 C1821 1.574 . S
C1838 H1832 0.949 . S
C1838 C1842 1.368 . S
C1839 C1820 1.429 . S
C1839 C1833 1.429 . S
C1839 C1840 1.523 . S
C1840 C1821 1.368 . S
C1840 C1834 1.368 . S
C1840 C1839 1.523 . S
C1841 C1825 1.429 . S
C1841 C1837 1.429 . S
C1841 C1842 1.523 . S
C1842 C1826 1.368 . S
C1842 C1838 1.368 . S
C1842 C1841 1.523 . S
H1843 C1818 0.950 . S
H1844 C1820 0.950 . S
H1845 C1821 0.949 . S
H1846 C1823 0.950 . S
H1847 C1825 0.950 . S
C1848 C1849 1.349 . S
C1848 C1850 1.327 . S
C1848 H1873 0.950 . S
C1849 C1848 1.349 . S
C1849 C1865 1.349 . S
C1850 C1848 1.327 . S
C1850 C1869 1.429 . S
C1850 H1874 0.950 . S
C1851 C1868 1.574 . S
C1851 C1870 1.368 . S
C1851 H1875 0.949 . S
H1852 C1856 0.949 . S
C1853 C1854 1.349 . S
C1853 C1855 1.327 . S
C1853 H1876 0.950 . S
C1854 C1853 1.349 . S
C1854 C1866 1.349 . S
C1855 C1853 1.327 . S
C1855 C1871 1.429 . S
C1855 H1877 0.950 . S
C1856 H1852 0.949 . S
C1856 C1864 1.574 . S
C1856 C1872 1.368 . S
H1857 C1865 0.950 . S
H1858 C1863 0.950 . S
H1859 C1864 0.949 . S
H1860 C1866 0.950 . S
H1861 C1867 0.950 . S
H1862 C1868 0.949 . S
C1863 H1858 0.950 . S
C1863 C1865 1.327 . S
C1863 C1869 1.429 . S
C1864 C1856 1.574 . S
C1864 H1859 0.949 . S
C1864 C1870 1.368 . S
C1865 C1849 1.349 . S
C1865 H1857 0.950 . S
C1865 C1863 1.327 . S
C1866 C1854 1.349 . S
C1866 H1860 0.950 . S
C1866 C1867 1.327 . S
C1867 H1861 0.950 . S
C1867 C1866 1.327 . S
C1867 C1871 1.429 . S
C1868 C1851 1.574 . S
C1868 H1862 0.949 . S
C1868 C1872 1.368 . S
C1869 C1850 1.429 . S
C1869 C1863 1.429 . S
C1869 C1870 1.523 . S
C1870 C1851 1.368 . S
C1870 C1864 1.368 . S
C1870 C1869 1.523 . S
C1871 C1855 1.429 . S
C1871 C1867 1.429 . S
C1871 C1872 1.523 . S
C1872 C1856 1.368 . S
C1872 C1868 1.368 . S
C1872 C1871 1.523 . S
H1873 C1848 0.950 . S
H1874 C1850 0.950 . S
H1875 C1851 0.949 . S
H1876 C1853 0.950 . S
H1877 C1855 0.950 . S
C1878 C1879 1.349 . S
C1878 C1880 1.327 . S
C1878 H1903 0.950 . S
C1879 C1878 1.349 . S
C1879 C1895 1.349 . S
C1880 C1878 1.327 . S
C1880 C1899 1.429 . S
C1880 H1904 0.950 . S
C1881 C1898 1.574 . S
C1881 C1900 1.368 . S
C1881 H1905 0.949 . S
H1882 C1886 0.949 . S
C1883 C1884 1.349 . S
C1883 C1885 1.327 . S
C1883 H1906 0.950 . S
C1884 C1883 1.349 . S
C1884 C1896 1.349 . S
C1885 C1883 1.327 . S
C1885 C1901 1.429 . S
C1885 H1907 0.950 . S
C1886 H1882 0.949 . S
C1886 C1894 1.574 . S
C1886 C1902 1.368 . S
H1887 C1895 0.950 . S
H1888 C1893 0.950 . S
H1889 C1894 0.949 . S
H1890 C1896 0.950 . S
H1891 C1897 0.950 . S
H1892 C1898 0.949 . S
C1893 H1888 0.950 . S
C1893 C1895 1.327 . S
C1893 C1899 1.429 . S
C1894 C1886 1.574 . S
C1894 H1889 0.949 . S
C1894 C1900 1.368 . S
C1895 C1879 1.349 . S
C1895 H1887 0.950 . S
C1895 C1893 1.327 . S
C1896 C1884 1.349 . S
C1896 H1890 0.950 . S
C1896 C1897 1.327 . S
C1897 H1891 0.950 . S
C1897 C1896 1.327 . S
C1897 C1901 1.429 . S
C1898 C1881 1.574 . S
C1898 H1892 0.949 . S
C1898 C1902 1.368 . S
C1899 C1880 1.429 . S
C1899 C1893 1.429 . S
C1899 C1900 1.523 . S
C1900 C1881 1.368 . S
C1900 C1894 1.368 . S
C1900 C1899 1.523 . S
C1901 C1885 1.429 . S
C1901 C1897 1.429 . S
C1901 C1902 1.523 . S
C1902 C1886 1.368 . S
C1902 C1898 1.368 . S
C1902 C1901 1.523 . S
H1903 C1878 0.950 . S
H1904 C1880 0.950 . S
H1905 C1881 0.949 . S
H1906 C1883 0.950 . S
H1907 C1885 0.950 . S
C1908 C1909 1.349 . S
C1908 C1910 1.327 . S
C1908 H1933 0.950 . S
C1909 C1908 1.349 . S
C1909 C1925 1.349 . S
C1910 C1908 1.327 . S
C1910 C1929 1.429 . S
C1910 H1934 0.950 . S
C1911 C1928 1.574 . S
C1911 C1930 1.368 . S
C1911 H1935 0.949 . S
H1912 C1916 0.949 . S
C1913 C1914 1.349 . S
C1913 C1915 1.327 . S
C1913 H1936 0.950 . S
C1914 C1913 1.349 . S
C1914 C1926 1.349 . S
C1915 C1913 1.327 . S
C1915 C1931 1.429 . S
C1915 H1937 0.950 . S
C1916 H1912 0.949 . S
C1916 C1924 1.574 . S
C1916 C1932 1.368 . S
H1917 C1925 0.950 . S
H1918 C1923 0.950 . S
H1919 C1924 0.949 . S
H1920 C1926 0.950 . S
H1921 C1927 0.950 . S
H1922 C1928 0.949 . S
C1923 H1918 0.950 . S
C1923 C1925 1.327 . S
C1923 C1929 1.429 . S
C1924 C1916 1.574 . S
C1924 H1919 0.949 . S
C1924 C1930 1.368 . S
C1925 C1909 1.349 . S
C1925 H1917 0.950 . S
C1925 C1923 1.327 . S
C1926 C1914 1.349 . S
C1926 H1920 0.950 . S
C1926 C1927 1.327 . S
C1927 H1921 0.950 . S
C1927 C1926 1.327 . S
C1927 C1931 1.429 . S
C1928 C1911 1.574 . S
C1928 H1922 0.949 . S
C1928 C1932 1.368 . S
C1929 C1910 1.429 . S
C1929 C1923 1.429 . S
C1929 C1930 1.523 . S
C1930 C1911 1.368 . S
C1930 C1924 1.368 . S
C1930 C1929 1.523 . S
C1931 C1915 1.429 . S
C1931 C1927 1.429 . S
C1931 C1932 1.523 . S
C1932 C1916 1.368 . S
C1932 C1928 1.368 . S
C1932 C1931 1.523 . S
H1933 C1908 0.950 . S
H1934 C1910 0.950 . S
H1935 C1911 0.949 . S
H1936 C1913 0.950 . S
H1937 C1915 0.950 . S
C1938 C1939 1.349 . S
C1938 C1940 1.327 . S
C1938 H1963 0.950 . S
C1939 C1938 1.349 . S
C1939 C1955 1.349 . S
C1940 C1938 1.327 . S
C1940 C1959 1.429 . S
C1940 H1964 0.950 . S
C1941 C1958 1.574 . S
C1941 C1960 1.368 . S
C1941 H1965 0.949 . S
H1942 C1946 0.949 . S
C1943 C1944 1.349 . S
C1943 C1945 1.327 . S
C1943 H1966 0.950 . S
C1944 C1943 1.349 . S
C1944 C1956 1.349 . S
C1945 C1943 1.327 . S
C1945 C1961 1.429 . S
C1945 H1967 0.950 . S
C1946 H1942 0.949 . S
C1946 C1954 1.574 . S
C1946 C1962 1.368 . S
H1947 C1955 0.950 . S
H1948 C1953 0.950 . S
H1949 C1954 0.949 . S
H1950 C1956 0.950 . S
H1951 C1957 0.950 . S
H1952 C1958 0.949 . S
C1953 H1948 0.950 . S
C1953 C1955 1.327 . S
C1953 C1959 1.429 . S
C1954 C1946 1.574 . S
C1954 H1949 0.949 . S
C1954 C1960 1.368 . S
C1955 C1939 1.349 . S
C1955 H1947 0.950 . S
C1955 C1953 1.327 . S
C1956 C1944 1.349 . S
C1956 H1950 0.950 . S
C1956 C1957 1.327 . S
C1957 H1951 0.950 . S
C1957 C1956 1.327 . S
C1957 C1961 1.429 . S
C1958 C1941 1.574 . S
C1958 H1952 0.949 . S
C1958 C1962 1.368 . S
C1959 C1940 1.429 . S
C1959 C1953 1.429 . S
C1959 C1960 1.523 . S
C1960 C1941 1.368 . S
C1960 C1954 1.368 . S
C1960 C1959 1.523 . S
C1961 C1945 1.429 . S
C1961 C1957 1.429 . S
C1961 C1962 1.523 . S
C1962 C1946 1.368 . S
C1962 C1958 1.368 . S
C1962 C1961 1.523 . S
H1963 C1938 0.950 . S
H1964 C1940 0.950 . S
H1965 C1941 0.949 . S
H1966 C1943 0.950 . S
H1967 C1945 0.950 . S
C1968 C1969 1.349 . S
C1968 C1970 1.327 . S
C1968 H1993 0.950 . S
C1969 C1968 1.349 . S
C1969 C1985 1.349 . S
C1970 C1968 1.327 . S
C1970 C1989 1.429 . S
C1970 H1994 0.950 . S
C1971 C1988 1.574 . S
C1971 C1990 1.368 . S
C1971 H1995 0.949 . S
H1972 C1976 0.949 . S
C1973 C1974 1.349 . S
C1973 C1975 1.327 . S
C1973 H1996 0.950 . S
C1974 C1973 1.349 . S
C1974 C1986 1.349 . S
C1975 C1973 1.327 . S
C1975 C1991 1.429 . S
C1975 H1997 0.950 . S
C1976 H1972 0.949 . S
C1976 C1984 1.574 . S
C1976 C1992 1.368 . S
H1977 C1985 0.950 . S
H1978 C1983 0.950 . S
H1979 C1984 0.949 . S
H1980 C1986 0.950 . S
H1981 C1987 0.950 . S
H1982 C1988 0.949 . S
C1983 H1978 0.950 . S
C1983 C1985 1.327 . S
C1983 C1989 1.429 . S
C1984 C1976 1.574 . S
C1984 H1979 0.949 . S
C1984 C1990 1.368 . S
C1985 C1969 1.349 . S
C1985 H1977 0.950 . S
C1985 C1983 1.327 . S
C1986 C1974 1.349 . S
C1986 H1980 0.950 . S
C1986 C1987 1.327 . S
C1987 H1981 0.950 . S
C1987 C1986 1.327 . S
C1987 C1991 1.429 . S
C1988 C1971 1.574 . S
C1988 H1982 0.949 . S
C1988 C1992 1.368 . S
C1989 C1970 1.429 . S
C1989 C1983 1.429 . S
C1989 C1990 1.523 . S
C1990 C1971 1.368 . S
C1990 C1984 1.368 . S
C1990 C1989 1.523 . S
C1991 C1975 1.429 . S
C1991 C1987 1.429 . S
C1991 C1992 1.523 . S
C1992 C1976 1.368 . S
C1992 C1988 1.368 . S
C1992 C1991 1.523 . S
H1993 C1968 0.950 . S
H1994 C1970 0.950 . S
H1995 C1971 0.949 . S
H1996 C1973 0.950 . S
H1997 C1975 0.950 . S
C1998 C1999 1.349 . S
C1998 C2000 1.327 . S
C1998 H2023 0.950 . S
C1999 C1998 1.349 . S
C1999 C2015 1.349 . S
C2000 C1998 1.327 . S
C2000 C2019 1.429 . S
C2000 H2024 0.950 . S
C2001 C2018 1.574 . S
C2001 C2020 1.368 . S
C2001 H2025 0.949 . S
H2002 C2006 0.949 . S
C2003 C2004 1.349 . S
C2003 C2005 1.327 . S
C2003 H2026 0.950 . S
C2004 C2003 1.349 . S
C2004 C2016 1.349 . S
C2005 C2003 1.327 . S
C2005 C2021 1.429 . S
C2005 H2027 0.950 . S
C2006 H2002 0.949 . S
C2006 C2014 1.574 . S
C2006 C2022 1.368 . S
H2007 C2015 0.950 . S
H2008 C2013 0.950 . S
H2009 C2014 0.949 . S
H2010 C2016 0.950 . S
H2011 C2017 0.950 . S
H2012 C2018 0.949 . S
C2013 H2008 0.950 . S
C2013 C2015 1.327 . S
C2013 C2019 1.429 . S
C2014 C2006 1.574 . S
C2014 H2009 0.949 . S
C2014 C2020 1.368 . S
C2015 C1999 1.349 . S
C2015 H2007 0.950 . S
C2015 C2013 1.327 . S
C2016 C2004 1.349 . S
C2016 H2010 0.950 . S
C2016 C2017 1.327 . S
C2017 H2011 0.950 . S
C2017 C2016 1.327 . S
C2017 C2021 1.429 . S
C2018 C2001 1.574 . S
C2018 H2012 0.949 . S
C2018 C2022 1.368 . S
C2019 C2000 1.429 . S
C2019 C2013 1.429 . S
C2019 C2020 1.523 . S
C2020 C2001 1.368 . S
C2020 C2014 1.368 . S
C2020 C2019 1.523 . S
C2021 C2005 1.429 . S
C2021 C2017 1.429 . S
C2021 C2022 1.523 . S
C2022 C2006 1.368 . S
C2022 C2018 1.368 . S
C2022 C2021 1.523 . S
H2023 C1998 0.950 . S
H2024 C2000 0.950 . S
H2025 C2001 0.949 . S
H2026 C2003 0.950 . S
H2027 C2005 0.950 . S
C2028 C2029 1.349 . S
C2028 C2030 1.327 . S
C2028 H2053 0.950 . S
C2029 C2028 1.349 . S
C2029 C2045 1.349 . S
C2030 C2028 1.327 . S
C2030 C2049 1.429 . S
C2030 H2054 0.950 . S
C2031 C2048 1.574 . S
C2031 C2050 1.368 . S
C2031 H2055 0.949 . S
H2032 C2036 0.949 . S
C2033 C2034 1.349 . S
C2033 C2035 1.327 . S
C2033 H2056 0.950 . S
C2034 C2033 1.349 . S
C2034 C2046 1.349 . S
C2035 C2033 1.327 . S
C2035 C2051 1.429 . S
C2035 H2057 0.950 . S
C2036 H2032 0.949 . S
C2036 C2044 1.574 . S
C2036 C2052 1.368 . S
H2037 C2045 0.950 . S
H2038 C2043 0.950 . S
H2039 C2044 0.949 . S
H2040 C2046 0.950 . S
H2041 C2047 0.950 . S
H2042 C2048 0.949 . S
C2043 H2038 0.950 . S
C2043 C2045 1.327 . S
C2043 C2049 1.429 . S
C2044 C2036 1.574 . S
C2044 H2039 0.949 . S
C2044 C2050 1.368 . S
C2045 C2029 1.349 . S
C2045 H2037 0.950 . S
C2045 C2043 1.327 . S
C2046 C2034 1.349 . S
C2046 H2040 0.950 . S
C2046 C2047 1.327 . S
C2047 H2041 0.950 . S
C2047 C2046 1.327 . S
C2047 C2051 1.429 . S
C2048 C2031 1.574 . S
C2048 H2042 0.949 . S
C2048 C2052 1.368 . S
C2049 C2030 1.429 . S
C2049 C2043 1.429 . S
C2049 C2050 1.523 . S
C2050 C2031 1.368 . S
C2050 C2044 1.368 . S
C2050 C2049 1.523 . S
C2051 C2035 1.429 . S
C2051 C2047 1.429 . S
C2051 C2052 1.523 . S
C2052 C2036 1.368 . S
C2052 C2048 1.368 . S
C2052 C2051 1.523 . S
H2053 C2028 0.950 . S
H2054 C2030 0.950 . S
H2055 C2031 0.949 . S
H2056 C2033 0.950 . S
H2057 C2035 0.950 . S
C2058 C2059 1.349 . S
C2058 C2060 1.327 . S
C2058 H2083 0.950 . S
C2059 C2058 1.349 . S
C2059 C2075 1.349 . S
C2060 C2058 1.327 . S
C2060 C2079 1.429 . S
C2060 H2084 0.950 . S
C2061 C2078 1.574 . S
C2061 C2080 1.368 . S
C2061 H2085 0.949 . S
H2062 C2066 0.949 . S
C2063 C2064 1.349 . S
C2063 C2065 1.327 . S
C2063 H2086 0.950 . S
C2064 C2063 1.349 . S
C2064 C2076 1.349 . S
C2065 C2063 1.327 . S
C2065 C2081 1.429 . S
C2065 H2087 0.950 . S
C2066 H2062 0.949 . S
C2066 C2074 1.574 . S
C2066 C2082 1.368 . S
H2067 C2075 0.950 . S
H2068 C2073 0.950 . S
H2069 C2074 0.949 . S
H2070 C2076 0.950 . S
H2071 C2077 0.950 . S
H2072 C2078 0.949 . S
C2073 H2068 0.950 . S
C2073 C2075 1.327 . S
C2073 C2079 1.429 . S
C2074 C2066 1.574 . S
C2074 H2069 0.949 . S
C2074 C2080 1.368 . S
C2075 C2059 1.349 . S
C2075 H2067 0.950 . S
C2075 C2073 1.327 . S
C2076 C2064 1.349 . S
C2076 H2070 0.950 . S
C2076 C2077 1.327 . S
C2077 H2071 0.950 . S
C2077 C2076 1.327 . S
C2077 C2081 1.429 . S
C2078 C2061 1.574 . S
C2078 H2072 0.949 . S
C2078 C2082 1.368 . S
C2079 C2060 1.429 . S
C2079 C2073 1.429 . S
C2079 C2080 1.523 . S
C2080 C2061 1.368 . S
C2080 C2074 1.368 . S
C2080 C2079 1.523 . S
C2081 C2065 1.429 . S
C2081 C2077 1.429 . S
C2081 C2082 1.523 . S
C2082 C2066 1.368 . S
C2082 C2078 1.368 . S
C2082 C2081 1.523 . S
H2083 C2058 0.950 . S
H2084 C2060 0.950 . S
H2085 C2061 0.949 . S
H2086 C2063 0.950 . S
H2087 C2065 0.950 . S
C1009 C476 1.530 . S
C1014 C58 1.229 . S
C1039 C142 1.223 . S
C1044 C56 1.558 . S
C1069 C226 1.286 . S
C1074 C140 1.604 . S
C1099 C224 1.531 . S
C1104 C310 1.230 . S
C1129 C308 1.560 . S
C1134 C394 1.220 . S
C1159 C478 1.287 . S
C1164 C392 1.605 . S
C1189 C644 1.531 . S
C1194 C562 1.230 . S
C1219 C646 1.286 . S
C1224 C728 1.604 . S
C1249 C812 1.560 . S
C1254 C730 1.219 . S
C1279 C896 1.532 . S
C1284 C814 1.230 . S
C1309 C980 1.602 . S
C1314 C898 1.290 . S
C1339 C560 1.561 . S
C1344 C982 1.220 . S
C1369 C998 3.301 . S
C1374 C67 3.265 . S
C1399 C151 2.949 . S
C1404 C578 2.982 . S
C1429 C662 3.154 . S
C1434 C235 3.110 . S
C1459 C746 3.301 . S
C1464 C319 3.265 . S
C1489 C830 2.986 . S
C1494 C403 2.946 . S
C1519 C487 3.112 . S
C1524 C914 3.152 . S
C1549 C571 3.261 . S
C1554 C158 3.305 . S
C1579 C655 3.112 . S
C1584 C242 3.152 . S
C1609 C326 2.986 . S
C1614 C739 2.946 . S
C1639 C410 3.301 . S
C1644 C823 3.265 . S
C1669 C907 3.112 . S
C1674 C494 3.152 . S
C1699 C991 2.949 . S
C1704 C74 2.982 . S
C1729 C567 1.569 . S
C1734 C63 1.573 . S
C1759 C147 1.045 . S
C1764 C651 1.053 . S
C1789 C735 1.045 . S
C1794 C231 1.052 . S
C1819 C315 1.568 . S
C1824 C819 1.572 . S
C1849 C903 1.049 . S
C1854 C399 1.048 . S
C1879 C987 1.044 . S
C1884 C483 1.052 . S
C1909 C573 0.524 . S
C1914 C69 0.527 . S
C1939 C657 0.377 . S
C1944 C153 0.364 . S
C1969 C741 0.363 . S
C1974 C237 0.378 . S
C1999 C321 0.524 . S
C2004 C825 0.527 . S
C2029 C909 0.377 . S
C2034 C405 0.364 . S
C2059 C993 0.363 . S
C2064 C489 0.377 . S
