# Generated by pormake.
# Topology wlr, (5)-cn, num edge types: 1
# Building blocks:
#     Node 0, Type 0, BuildingBlock: XOMCOT_clean_sbu_0, # of connection points: 5
#     Node 1, Type 0, BuildingBlock: XOMCOT_clean_sbu_0, # of connection points: 5
#     Node 2, Type 0, BuildingBlock: XOMCOT_clean_sbu_0, # of connection points: 5
#     Node 3, Type 0, BuildingBlock: XOMCOT_clean_sbu_0, # of connection points: 5
#     Node 4, Type 0, BuildingBlock: XOMCOT_clean_sbu_0, # of connection points: 5
#     Node 5, Type 0, BuildingBlock: XOMCOT_clean_sbu_0, # of connection points: 5
#     Node 6, Type 0, BuildingBlock: XOMCOT_clean_sbu_0, # of connection points: 5
#     Node 7, Type 0, BuildingBlock: XOMCOT_clean_sbu_0, # of connection points: 5
#     Node 8, Type 0, BuildingBlock: XOMCOT_clean_sbu_0, # of connection points: 5
#     Node 9, Type 0, BuildingBlock: XOMCOT_clean_sbu_0, # of connection points: 5
#     Node 10, Type 0, BuildingBlock: XOMCOT_clean_sbu_0, # of connection points: 5
#     Node 11, Type 0, BuildingBlock: XOMCOT_clean_sbu_0, # of connection points: 5
#     Node 12, Type 0, BuildingBlock: XOMCOT_clean_sbu_0, # of connection points: 5
#     Node 13, Type 0, BuildingBlock: XOMCOT_clean_sbu_0, # of connection points: 5
#     Node 14, Type 0, BuildingBlock: XOMCOT_clean_sbu_0, # of connection points: 5
#     Node 15, Type 0, BuildingBlock: XOMCOT_clean_sbu_0, # of connection points: 5
#     Node 16, Type 0, BuildingBlock: XOMCOT_clean_sbu_0, # of connection points: 5
#     Node 17, Type 0, BuildingBlock: XOMCOT_clean_sbu_0, # of connection points: 5
#     Node 18, Type 0, BuildingBlock: XOMCOT_clean_sbu_0, # of connection points: 5
#     Node 19, Type 0, BuildingBlock: XOMCOT_clean_sbu_0, # of connection points: 5
#     Node 20, Type 0, BuildingBlock: XOMCOT_clean_sbu_0, # of connection points: 5
#     Node 21, Type 0, BuildingBlock: XOMCOT_clean_sbu_0, # of connection points: 5
#     Node 22, Type 0, BuildingBlock: XOMCOT_clean_sbu_0, # of connection points: 5
#     Node 23, Type 0, BuildingBlock: XOMCOT_clean_sbu_0, # of connection points: 5
#     Node 24, Type 0, BuildingBlock: XOMCOT_clean_sbu_0, # of connection points: 5
#     Node 25, Type 0, BuildingBlock: XOMCOT_clean_sbu_0, # of connection points: 5
#     Node 26, Type 0, BuildingBlock: XOMCOT_clean_sbu_0, # of connection points: 5
#     Node 27, Type 0, BuildingBlock: XOMCOT_clean_sbu_0, # of connection points: 5
#     Node 28, Type 0, BuildingBlock: XOMCOT_clean_sbu_0, # of connection points: 5
#     Node 29, Type 0, BuildingBlock: XOMCOT_clean_sbu_0, # of connection points: 5
#     Node 30, Type 0, BuildingBlock: XOMCOT_clean_sbu_0, # of connection points: 5
#     Node 31, Type 0, BuildingBlock: XOMCOT_clean_sbu_0, # of connection points: 5
#     Node 32, Type 0, BuildingBlock: XOMCOT_clean_sbu_0, # of connection points: 5
#     Node 33, Type 0, BuildingBlock: XOMCOT_clean_sbu_0, # of connection points: 5
#     Node 34, Type 0, BuildingBlock: XOMCOT_clean_sbu_0, # of connection points: 5
#     Node 35, Type 0, BuildingBlock: XOMCOT_clean_sbu_0, # of connection points: 5
#     Edge 36, Type (0, 0), BuildingBlock: XIVTED_clean_linker_0, # of connection points: 2
#     Edge 37, Type (0, 0), BuildingBlock: XIVTED_clean_linker_0, # of connection points: 2
#     Edge 38, Type (0, 0), BuildingBlock: XIVTED_clean_linker_0, # of connection points: 2
#     Edge 39, Type (0, 0), BuildingBlock: XIVTED_clean_linker_0, # of connection points: 2
#     Edge 40, Type (0, 0), BuildingBlock: XIVTED_clean_linker_0, # of connection points: 2
#     Edge 41, Type (0, 0), BuildingBlock: XIVTED_clean_linker_0, # of connection points: 2
#     Edge 42, Type (0, 0), BuildingBlock: XIVTED_clean_linker_0, # of connection points: 2
#     Edge 43, Type (0, 0), BuildingBlock: XIVTED_clean_linker_0, # of connection points: 2
#     Edge 44, Type (0, 0), BuildingBlock: XIVTED_clean_linker_0, # of connection points: 2
#     Edge 45, Type (0, 0), BuildingBlock: XIVTED_clean_linker_0, # of connection points: 2
#     Edge 46, Type (0, 0), BuildingBlock: XIVTED_clean_linker_0, # of connection points: 2
#     Edge 47, Type (0, 0), BuildingBlock: XIVTED_clean_linker_0, # of connection points: 2
#     Edge 48, Type (0, 0), BuildingBlock: XIVTED_clean_linker_0, # of connection points: 2
#     Edge 49, Type (0, 0), BuildingBlock: XIVTED_clean_linker_0, # of connection points: 2
#     Edge 50, Type (0, 0), BuildingBlock: XIVTED_clean_linker_0, # of connection points: 2
#     Edge 51, Type (0, 0), BuildingBlock: XIVTED_clean_linker_0, # of connection points: 2
#     Edge 52, Type (0, 0), BuildingBlock: XIVTED_clean_linker_0, # of connection points: 2
#     Edge 53, Type (0, 0), BuildingBlock: XIVTED_clean_linker_0, # of connection points: 2
#     Edge 54, Type (0, 0), BuildingBlock: XIVTED_clean_linker_0, # of connection points: 2
#     Edge 55, Type (0, 0), BuildingBlock: XIVTED_clean_linker_0, # of connection points: 2
#     Edge 56, Type (0, 0), BuildingBlock: XIVTED_clean_linker_0, # of connection points: 2
#     Edge 57, Type (0, 0), BuildingBlock: XIVTED_clean_linker_0, # of connection points: 2
#     Edge 58, Type (0, 0), BuildingBlock: XIVTED_clean_linker_0, # of connection points: 2
#     Edge 59, Type (0, 0), BuildingBlock: XIVTED_clean_linker_0, # of connection points: 2
#     Edge 60, Type (0, 0), BuildingBlock: XIVTED_clean_linker_0, # of connection points: 2
#     Edge 61, Type (0, 0), BuildingBlock: XIVTED_clean_linker_0, # of connection points: 2
#     Edge 62, Type (0, 0), BuildingBlock: XIVTED_clean_linker_0, # of connection points: 2
#     Edge 63, Type (0, 0), BuildingBlock: XIVTED_clean_linker_0, # of connection points: 2
#     Edge 64, Type (0, 0), BuildingBlock: XIVTED_clean_linker_0, # of connection points: 2
#     Edge 65, Type (0, 0), BuildingBlock: XIVTED_clean_linker_0, # of connection points: 2
#     Edge 66, Type (0, 0), BuildingBlock: XIVTED_clean_linker_0, # of connection points: 2
#     Edge 67, Type (0, 0), BuildingBlock: XIVTED_clean_linker_0, # of connection points: 2
#     Edge 68, Type (0, 0), BuildingBlock: XIVTED_clean_linker_0, # of connection points: 2
#     Edge 69, Type (0, 0), BuildingBlock: XIVTED_clean_linker_0, # of connection points: 2
#     Edge 70, Type (0, 0), BuildingBlock: XIVTED_clean_linker_0, # of connection points: 2
#     Edge 71, Type (0, 0), BuildingBlock: XIVTED_clean_linker_0, # of connection points: 2
#     Edge 72, Type (0, 0), BuildingBlock: XIVTED_clean_linker_0, # of connection points: 2
#     Edge 73, Type (0, 0), BuildingBlock: XIVTED_clean_linker_0, # of connection points: 2
#     Edge 74, Type (0, 0), BuildingBlock: XIVTED_clean_linker_0, # of connection points: 2
#     Edge 75, Type (0, 0), BuildingBlock: XIVTED_clean_linker_0, # of connection points: 2
#     Edge 76, Type (0, 0), BuildingBlock: XIVTED_clean_linker_0, # of connection points: 2
#     Edge 77, Type (0, 0), BuildingBlock: XIVTED_clean_linker_0, # of connection points: 2
#     Edge 78, Type (0, 0), BuildingBlock: XIVTED_clean_linker_0, # of connection points: 2
#     Edge 79, Type (0, 0), BuildingBlock: XIVTED_clean_linker_0, # of connection points: 2
#     Edge 80, Type (0, 0), BuildingBlock: XIVTED_clean_linker_0, # of connection points: 2
#     Edge 81, Type (0, 0), BuildingBlock: XIVTED_clean_linker_0, # of connection points: 2
#     Edge 82, Type (0, 0), BuildingBlock: XIVTED_clean_linker_0, # of connection points: 2
#     Edge 83, Type (0, 0), BuildingBlock: XIVTED_clean_linker_0, # of connection points: 2
#     Edge 84, Type (0, 0), BuildingBlock: XIVTED_clean_linker_0, # of connection points: 2
#     Edge 85, Type (0, 0), BuildingBlock: XIVTED_clean_linker_0, # of connection points: 2
#     Edge 86, Type (0, 0), BuildingBlock: XIVTED_clean_linker_0, # of connection points: 2
#     Edge 87, Type (0, 0), BuildingBlock: XIVTED_clean_linker_0, # of connection points: 2
#     Edge 88, Type (0, 0), BuildingBlock: XIVTED_clean_linker_0, # of connection points: 2
#     Edge 89, Type (0, 0), BuildingBlock: XIVTED_clean_linker_0, # of connection points: 2
#     Edge 90, Type (0, 0), BuildingBlock: XIVTED_clean_linker_0, # of connection points: 2
#     Edge 91, Type (0, 0), BuildingBlock: XIVTED_clean_linker_0, # of connection points: 2
#     Edge 92, Type (0, 0), BuildingBlock: XIVTED_clean_linker_0, # of connection points: 2
#     Edge 93, Type (0, 0), BuildingBlock: XIVTED_clean_linker_0, # of connection points: 2
#     Edge 94, Type (0, 0), BuildingBlock: XIVTED_clean_linker_0, # of connection points: 2
#     Edge 95, Type (0, 0), BuildingBlock: XIVTED_clean_linker_0, # of connection points: 2
#     Edge 96, Type (0, 0), BuildingBlock: XIVTED_clean_linker_0, # of connection points: 2
#     Edge 97, Type (0, 0), BuildingBlock: XIVTED_clean_linker_0, # of connection points: 2
#     Edge 98, Type (0, 0), BuildingBlock: XIVTED_clean_linker_0, # of connection points: 2
#     Edge 99, Type (0, 0), BuildingBlock: XIVTED_clean_linker_0, # of connection points: 2
#     Edge 100, Type (0, 0), BuildingBlock: XIVTED_clean_linker_0, # of connection points: 2
#     Edge 101, Type (0, 0), BuildingBlock: XIVTED_clean_linker_0, # of connection points: 2
#     Edge 102, Type (0, 0), BuildingBlock: XIVTED_clean_linker_0, # of connection points: 2
#     Edge 103, Type (0, 0), BuildingBlock: XIVTED_clean_linker_0, # of connection points: 2
#     Edge 104, Type (0, 0), BuildingBlock: XIVTED_clean_linker_0, # of connection points: 2
#     Edge 105, Type (0, 0), BuildingBlock: XIVTED_clean_linker_0, # of connection points: 2
#     Edge 106, Type (0, 0), BuildingBlock: XIVTED_clean_linker_0, # of connection points: 2
#     Edge 107, Type (0, 0), BuildingBlock: XIVTED_clean_linker_0, # of connection points: 2
#     Edge 108, Type (0, 0), BuildingBlock: XIVTED_clean_linker_0, # of connection points: 2
#     Edge 109, Type (0, 0), BuildingBlock: XIVTED_clean_linker_0, # of connection points: 2
#     Edge 110, Type (0, 0), BuildingBlock: XIVTED_clean_linker_0, # of connection points: 2
#     Edge 111, Type (0, 0), BuildingBlock: XIVTED_clean_linker_0, # of connection points: 2
#     Edge 112, Type (0, 0), BuildingBlock: XIVTED_clean_linker_0, # of connection points: 2
#     Edge 113, Type (0, 0), BuildingBlock: XIVTED_clean_linker_0, # of connection points: 2
#     Edge 114, Type (0, 0), BuildingBlock: XIVTED_clean_linker_0, # of connection points: 2
#     Edge 115, Type (0, 0), BuildingBlock: XIVTED_clean_linker_0, # of connection points: 2
#     Edge 116, Type (0, 0), BuildingBlock: XIVTED_clean_linker_0, # of connection points: 2
#     Edge 117, Type (0, 0), BuildingBlock: XIVTED_clean_linker_0, # of connection points: 2
#     Edge 118, Type (0, 0), BuildingBlock: XIVTED_clean_linker_0, # of connection points: 2
#     Edge 119, Type (0, 0), BuildingBlock: XIVTED_clean_linker_0, # of connection points: 2
#     Edge 120, Type (0, 0), BuildingBlock: XIVTED_clean_linker_0, # of connection points: 2
#     Edge 121, Type (0, 0), BuildingBlock: XIVTED_clean_linker_0, # of connection points: 2
#     Edge 122, Type (0, 0), BuildingBlock: XIVTED_clean_linker_0, # of connection points: 2
#     Edge 123, Type (0, 0), BuildingBlock: XIVTED_clean_linker_0, # of connection points: 2
#     Edge 124, Type (0, 0), BuildingBlock: XIVTED_clean_linker_0, # of connection points: 2
#     Edge 125, Type (0, 0), BuildingBlock: XIVTED_clean_linker_0, # of connection points: 2
# Relax obj value: 0.201
# Max RMSD: 0.170
# Mean RMSD: 0.170
data_MOF--net-wlr--node1-XOMCOT_clean_sbu_0--edge1-XIVTED_clean_linker_0
_symmetry_space_group_name_H-M    P1
_symmetry_Int_Tables_number       1
_symmetry_cell_setting            triclinic
loop_
_symmetry_equiv_pos_as_xyz
'x, y, z'
_cell_length_a     80.191706
_cell_length_b     80.145536
_cell_length_c     32.949914
_cell_angle_alpha  89.985479
_cell_angle_beta   89.999083
_cell_angle_gamma 120.02026
loop_
_atom_site_label
_atom_site_type_symbol
_atom_site_fract_x
_atom_site_fract_y
_atom_site_fract_z
_atom_type_partial_charge
Co0 Co 0.24624 0.19062 0.0673 0.0
C1 C 0.21524 0.1959 0.03263 0.0
C2 C 0.24319 0.21947 0.01822 0.0
C3 C 0.22967 0.22447 0.00764 0.0
N4 N 0.23417 0.20141 0.03342 0.0
N5 N 0.2121 0.20968 0.0171 0.0
H6 H 0.20418 0.18317 0.04751 0.0
H7 H 0.25861 0.22907 0.01822 0.0
C8 C 0.27091 0.20369 0.99285 0.0
O9 O 0.25483 0.19514 0.97185 0.0
N10 N 0.25763 0.17981 0.10246 0.0
C11 C 0.24736 0.16413 0.12586 0.0
C12 C 0.25965 0.15912 0.14364 0.0
C13 C 0.27612 0.1842 0.10624 0.0
N14 N 0.2777 0.17163 0.13115 0.0
C15 C 0.2161 0.1532 0.04068 0.0
C16 C 0.2413 0.14149 0.01394 0.0
C17 C 0.22211 0.12758 0.02074 0.0
C18 C 0.20917 0.13361 0.03249 0.0
C19 C 0.24761 0.16072 0.02252 0.0
N20 N 0.23525 0.16649 0.03673 0.0
H21 H 0.20638 0.15714 0.05438 0.0
H22 H 0.26294 0.17037 0.02234 0.0
H23 H 0.23185 0.15641 0.12877 0.0
H24 H 0.28799 0.19574 0.0899 0.0
O25 O 0.22619 0.18374 0.10737 0.0
O26 O 0.25352 0.21165 0.10511 0.0
O27 O 0.27023 0.20312 0.03174 0.0
C28 C 0.23724 0.20061 0.12339 0.0
H29 H 0.23266 0.23839 0.9964 0.0
H30 H 0.25556 0.14705 0.16391 0.0
H31 H 0.25177 0.13732 1.00542 0.0
H32 H 0.19426 0.12315 0.03885 0.0
Co33 Co 0.8124 0.05682 0.06722 0.0
C34 C 0.8077 0.0216 0.02742 0.0
C35 C 0.78313 0.02503 0.01842 0.0
C36 C 0.779 0.00738 1.00322 0.0
N37 N 0.80129 0.03414 0.03291 0.0
N38 N 0.79443 0.00518 0.00919 0.0
H39 H 0.82124 0.02379 0.0387 0.0
H40 H 0.77314 0.03032 0.02102 0.0
C41 C 0.79923 0.06871 0.993 0.0
O42 O 0.80701 0.06058 0.97141 0.0
N43 N 0.82358 0.07894 0.10248 0.0
C44 C 0.83925 0.08418 0.12576 0.0
C45 C 0.84425 0.10139 0.14412 0.0
C46 C 0.81918 0.09301 0.10692 0.0
N47 N 0.83171 0.10698 0.13214 0.0
C48 C 0.8497 0.06336 0.04363 0.0
C49 C 0.86178 0.09876 0.00775 0.0
C50 C 0.87535 0.09312 0.01579 0.0
C51 C 0.86911 0.07504 0.03327 0.0
C52 C 0.8427 0.08695 0.01962 0.0
N53 N 0.83665 0.06933 0.03709 0.0
H54 H 0.84574 0.05043 0.0606 0.0
H55 H 0.83346 0.09309 0.01827 0.0
H56 H 0.84685 0.07627 0.12843 0.0
H57 H 0.80755 0.09336 0.09105 0.0
O58 O 0.81856 0.04303 0.10716 0.0
O59 O 0.79115 0.04335 0.10481 0.0
O60 O 0.80047 0.06896 0.03182 0.0
C61 C 0.80177 0.03758 0.12304 0.0
H62 H 0.76521 0.99647 0.9914 0.0
H63 H 0.85626 0.10923 0.16456 0.0
H64 H 0.86621 0.11297 0.99578 0.0
H65 H 0.87933 0.07044 0.04091 0.0
Co66 Co 0.94563 0.75934 0.06952 0.0
C67 C 0.98024 0.78909 0.02879 0.0
C68 C 0.97436 0.76077 0.01205 0.0
C69 C 0.99168 0.77414 0.99513 0.0
N70 N 0.96728 0.77022 0.0331 0.0
N71 N 0.99544 0.79196 0.00597 0.0
H72 H 0.97885 0.8004 0.0435 0.0
H73 H 0.96795 0.74527 0.01089 0.0
C74 C 0.91549 0.72596 0.01885 0.0
O75 O 0.90276 0.73127 0.02683 0.0
N76 N 0.92413 0.74868 0.10753 0.0
C77 C 0.92087 0.75853 0.13679 0.0
C78 C 0.9048 0.74609 0.15839 0.0
C79 C 0.91048 0.73009 0.11356 0.0
N80 N 0.89816 0.72824 0.14353 0.0
C81 C 0.93194 0.78592 0.05956 0.0
C82 C 0.91696 0.77454 0.98262 0.0
C83 C 0.9114 0.78568 1.00574 0.0
C84 C 0.92012 0.79242 0.04361 0.0
C85 C 0.9292 0.76866 0.99975 0.0
N86 N 0.93455 0.77251 0.03955 0.0
H87 H 0.93833 0.79115 0.08886 0.0
H88 H 0.93327 0.75996 0.98188 0.0
H89 H 0.92985 0.77364 0.14348 0.0
H90 H 0.90953 0.71811 0.09666 0.0
O91 O 0.9607 0.77929 0.10846 0.0
O92 O 0.9592 0.75098 0.1056 0.0
O93 O 0.93253 0.73537 0.03373 0.0
C94 C 0.96587 0.76759 0.12359 0.0
H95 H 1.00129 0.77087 0.97831 0.0
H96 H 0.89872 0.74987 0.18367 0.0
H97 H 0.91131 0.76979 0.95235 0.0
H98 H 0.91687 0.80159 0.06213 0.0
Co99 Co 0.18688 0.24246 0.44171 0.0
C100 C 0.19095 0.21125 0.47706 0.0
C101 C 0.21029 0.23806 0.50606 0.0
C102 C 0.2135 0.22388 0.52153 0.0
N103 N 0.19616 0.23004 0.47812 0.0
N104 N 0.20144 0.20714 0.50281 0.0
H105 H 0.18012 0.20083 0.45683 0.0
H106 H 0.2183 0.25323 0.51346 0.0
C107 C 0.1908 0.27593 0.49231 0.0
O108 O 0.17308 0.27123 0.48255 0.0
N109 N 0.17748 0.2545 0.40374 0.0
C110 C 0.16424 0.24544 0.37426 0.0
C111 C 0.16211 0.25875 0.35229 0.0
C112 C 0.18395 0.27343 0.39757 0.0
N113 N 0.17439 0.27634 0.36715 0.0
C114 C 0.14625 0.21693 0.44969 0.0
C115 C 0.14245 0.22799 0.52682 0.0
C116 C 0.12587 0.21736 0.50309 0.0
C117 C 0.1279 0.21078 0.46508 0.0
C118 C 0.16059 0.23354 0.51023 0.0
N119 N 0.16227 0.2299 0.47037 0.0
H120 H 0.14745 0.21172 0.42041 0.0
H121 H 0.17326 0.24179 0.52865 0.0
H122 H 0.15693 0.23023 0.36773 0.0
H123 H 0.19565 0.28493 0.41426 0.0
O124 O 0.18146 0.22285 0.4016 0.0
O125 O 0.2091 0.25027 0.40674 0.0
O126 O 0.19818 0.26608 0.47863 0.0
C127 C 0.19869 0.23405 0.38762 0.0
H128 H 0.22459 0.22594 0.543 0.0
H129 H 0.15203 0.25564 0.32767 0.0
H130 H 0.14147 0.23257 0.55721 0.0
H131 H 0.11553 0.20196 0.44612 0.0
Co132 Co 0.75819 0.94696 0.44424 0.0
C133 C 0.78853 0.98257 0.4838 0.0
C134 C 0.76029 0.97837 0.49371 0.0
C135 C 0.77355 0.99608 0.50905 0.0
N136 N 0.76963 0.96966 0.47864 0.0
N137 N 0.79134 0.99877 0.50255 0.0
H138 H 0.80006 0.9808 0.47195 0.0
H139 H 0.74494 0.97276 0.49144 0.0
C140 C 0.73308 0.93473 0.51834 0.0
O141 O 0.749 0.94278 0.53992 0.0
N142 N 0.74729 0.92487 0.40886 0.0
C143 C 0.75767 0.91961 0.38547 0.0
C144 C 0.74534 0.90277 0.36595 0.0
C145 C 0.72876 0.91114 0.40349 0.0
N146 N 0.72719 0.89743 0.3773 0.0
C147 C 0.78909 0.94082 0.46875 0.0
C148 C 0.76582 0.90498 0.50293 0.0
C149 C 0.78516 0.91096 0.49556 0.0
C150 C 0.79697 0.92927 0.47902 0.0
C151 C 0.7584 0.91669 0.49121 0.0
N152 N 0.76995 0.93451 0.47449 0.0
H153 H 0.79808 0.95396 0.45243 0.0
H154 H 0.74299 0.91039 0.49202 0.0
H155 H 0.77321 0.92724 0.38355 0.0
H156 H 0.71675 0.91109 0.41857 0.0
O157 O 0.77824 0.96078 0.40456 0.0
O158 O 0.75049 0.96045 0.40647 0.0
O159 O 0.73407 0.93469 0.47949 0.0
C160 C 0.76695 0.96624 0.38847 0.0
H161 H 0.77037 0.00669 0.52137 0.0
H162 H 0.74949 0.8947 0.3461 0.0
H163 H 0.75608 0.8906 0.51417 0.0
H164 H 0.81191 0.93416 0.47192 0.0
Co165 Co 0.05767 0.81157 0.4433 0.0
C166 C 0.02236 0.80616 0.48406 0.0
C167 C 0.02593 0.78153 0.49064 0.0
C168 C 0.00831 0.7771 0.50644 0.0
N169 N 0.03492 0.7999 0.4773 0.0
N170 N 0.00603 0.79257 0.50201 0.0
H171 H 0.0245 0.81988 0.47404 0.0
H172 H 0.03132 0.77167 0.48697 0.0
C173 C 0.06932 0.79842 0.51759 0.0
O174 O 0.06086 0.80604 0.53859 0.0
N175 N 0.07987 0.82327 0.40827 0.0
C176 C 0.08466 0.83876 0.38466 0.0
C177 C 0.10196 0.84419 0.36635 0.0
C178 C 0.09433 0.81945 0.40415 0.0
N179 N 0.10809 0.83213 0.37873 0.0
C180 C 0.06365 0.84863 0.46745 0.0
C181 C 0.09901 0.86096 0.50366 0.0
C182 C 0.09325 0.87442 0.49549 0.0
C183 C 0.07519 0.86807 0.47787 0.0
C184 C 0.08738 0.84187 0.49163 0.0
N185 N 0.06978 0.83569 0.47397 0.0
H186 H 0.05072 0.84457 0.45041 0.0
H187 H 0.09367 0.83276 0.49296 0.0
H188 H 0.07636 0.84596 0.38169 0.0
H189 H 0.09509 0.80811 0.42038 0.0
O190 O 0.04374 0.81766 0.40363 0.0
O191 O 0.04454 0.79047 0.40508 0.0
O192 O 0.06997 0.79978 0.47874 0.0
C193 C 0.03857 0.80102 0.38724 0.0
H194 H 0.99748 0.76313 0.51767 0.0
H195 H 0.10947 0.85617 0.34564 0.0
H196 H 0.11323 0.8655 0.5157 0.0
H197 H 0.07053 0.87823 0.47007 0.0
Co198 Co 0.75702 0.81209 0.9438 0.0
C199 C 0.78822 0.80703 0.97819 0.0
C200 C 0.76036 0.78344 0.99303 0.0
C201 C 0.77395 0.7785 1.00336 0.0
N202 N 0.76928 0.80148 0.97772 0.0
N203 N 0.79147 0.7933 0.99362 0.0
H204 H 0.79922 0.81975 0.96314 0.0
H205 H 0.74495 0.77379 0.99321 0.0
C206 C 0.73229 0.79881 0.01808 0.0
O207 O 0.74835 0.80749 0.03914 0.0
N208 N 0.74545 0.82268 0.9085 0.0
C209 C 0.7556 0.83821 0.88462 0.0
C210 C 0.74312 0.84256 0.86538 0.0
C211 C 0.72685 0.81781 0.90378 0.0
N212 N 0.72509 0.82979 0.87742 0.0
C213 C 0.78683 0.84955 0.9709 0.0
C214 C 0.76124 0.86087 0.99701 0.0
C215 C 0.78041 0.87492 0.99049 0.0
C216 C 0.79354 0.86909 0.9791 0.0
C217 C 0.75515 0.84172 0.98834 0.0
N218 N 0.76771 0.83614 0.97445 0.0
H219 H 0.79671 0.84573 0.95753 0.0
H220 H 0.73983 0.83195 0.98818 0.0
H221 H 0.77113 0.84628 0.88235 0.0
H222 H 0.71497 0.80605 0.91966 0.0
O223 O 0.77717 0.81926 0.90388 0.0
O224 O 0.75 0.79117 0.90599 0.0
O225 O 0.733 0.79935 0.97919 0.0
C226 C 0.76623 0.8024 0.88772 0.0
H227 H 0.77103 0.7646 0.01461 0.0
H228 H 0.7471 0.85472 0.84544 0.0
H229 H 0.75063 0.86488 1.00533 0.0
H230 H 0.80845 0.87967 0.97304 0.0
Co231 Co 0.19171 0.94637 0.94403 0.0
C232 C 0.19419 0.9805 0.985 0.0
C233 C 0.2181 0.97674 0.99969 0.0
C234 C 0.2215 0.99405 0.01543 0.0
N235 N 0.20074 0.96795 0.98135 0.0
N236 N 0.20651 0.99649 0.00591 0.0
H237 H 0.18146 0.97876 0.97012 0.0
H238 H 0.2283 0.97165 0.99904 0.0
C239 C 0.20345 0.93299 0.01786 0.0
O240 O 0.19371 0.93915 0.03907 0.0
N241 N 0.18273 0.92544 0.9055 0.0
C242 C 0.16863 0.92112 0.87816 0.0
C243 C 0.16452 0.9044 0.85867 0.0
C244 C 0.18693 0.91115 0.90253 0.0
N245 N 0.17593 0.89808 0.87407 0.0
C246 C 0.1533 0.93703 0.96774 0.0
C247 C 0.14213 0.89977 0.99113 0.0
C248 C 0.12802 0.90491 0.9857 0.0
C249 C 0.13379 0.924 0.97541 0.0
C250 C 0.16132 0.91312 0.98333 0.0
N251 N 0.16687 0.93153 0.97128 0.0
H252 H 0.15704 0.95084 0.95512 0.0
H253 H 0.17127 0.9078 0.98304 0.0
H254 H 0.16113 0.92905 0.87394 0.0
H255 H 0.1973 0.90998 0.92153 0.0
O256 O 0.18522 0.96039 0.90536 0.0
O257 O 0.21356 0.96197 0.90931 0.0
O258 O 0.20397 0.93443 0.97905 0.0
C259 C 0.20252 0.96719 0.89089 0.0
H260 H 0.23471 0.00469 0.02986 0.0
H261 H 0.1532 0.89689 0.83653 0.0
H262 H 0.1382 0.88508 0.99861 0.0
H263 H 0.1232 0.92836 0.97001 0.0
Co264 Co 0.05685 0.24303 0.94433 0.0
C265 C 0.02129 0.21189 0.97892 0.0
C266 C 0.02884 0.23869 0.00812 0.0
C267 C 0.01144 0.22452 0.02356 0.0
N268 N 0.03492 0.23067 0.9801 0.0
N269 N 0.00671 0.20778 1.00474 0.0
H270 H 0.02175 0.20148 0.95875 0.0
H271 H 0.03609 0.25384 0.01576 0.0
C272 C 0.08654 0.2765 0.99463 0.0
O273 O 0.0995 0.27176 0.98465 0.0
N274 N 0.07856 0.25499 0.90708 0.0
C275 C 0.08329 0.24583 0.87888 0.0
C276 C 0.09858 0.25915 0.85657 0.0
C277 C 0.09055 0.27393 0.89988 0.0
N278 N 0.10322 0.27681 0.86994 0.0
C279 C 0.07079 0.21654 0.95307 0.0
C280 C 0.0866 0.22822 0.0293 0.0
C281 C 0.09196 0.21706 1.00577 0.0
C282 C 0.08283 0.21015 0.96831 0.0
C283 C 0.07418 0.23402 0.01286 0.0
N284 N 0.06845 0.23007 0.97328 0.0
H285 H 0.06398 0.21109 0.92419 0.0
H286 H 0.07018 0.24264 0.03118 0.0
H287 H 0.07584 0.23054 0.87332 0.0
H288 H 0.08982 0.2854 0.91552 0.0
O289 O 0.04274 0.22369 0.90356 0.0
O290 O 0.04293 0.2513 0.90912 0.0
O291 O 0.06921 0.26655 0.98152 0.0
C292 C 0.03706 0.23518 0.88959 0.0
H293 H 0.00248 0.22656 0.04525 0.0
H294 H 0.10585 0.25601 0.83264 0.0
H295 H 0.0925 0.23303 0.05939 0.0
H296 H 0.08589 0.2009 0.94957 0.0
Co297 Co 0.81234 0.75839 0.56827 0.0
C298 C 0.8117 0.79125 0.52959 0.0
C299 C 0.78901 0.76448 0.50675 0.0
C300 C 0.78658 0.77916 0.49166 0.0
N301 N 0.80512 0.77207 0.52974 0.0
N302 N 0.80078 0.79593 0.50648 0.0
H303 H 0.82316 0.8015 0.54878 0.0
H304 H 0.77874 0.74928 0.50386 0.0
C305 C 0.80105 0.73295 0.49498 0.0
O306 O 0.81208 0.74852 0.47367 0.0
N307 N 0.81962 0.74548 0.608 0.0
C308 C 0.83414 0.75472 0.63471 0.0
C309 C 0.83631 0.74137 0.65644 0.0
C310 C 0.81317 0.72654 0.6136 0.0
N311 N 0.82319 0.72369 0.64315 0.0
C312 C 0.8512 0.78606 0.54342 0.0
C313 C 0.86118 0.75849 0.52554 0.0
C314 C 0.87572 0.77775 0.52836 0.0
C315 C 0.87055 0.79178 0.53591 0.0
C316 C 0.8422 0.75343 0.53321 0.0
N317 N 0.83727 0.76704 0.54253 0.0
H318 H 0.84782 0.79681 0.55335 0.0
H319 H 0.83181 0.73827 0.53522 0.0
H320 H 0.84312 0.77019 0.63713 0.0
H321 H 0.80179 0.71518 0.5959 0.0
O322 O 0.81953 0.77904 0.60688 0.0
O323 O 0.79039 0.75337 0.6013 0.0
O324 O 0.79951 0.73424 0.53341 0.0
C325 C 0.80191 0.76933 0.62019 0.0
H326 H 0.77436 0.77751 0.47438 0.0
H327 H 0.84738 0.7445 0.67881 0.0
H328 H 0.86461 0.74722 0.51994 0.0
H329 H 0.88148 0.8068 0.53906 0.0
Co330 Co 0.24472 0.05562 0.56761 0.0
C331 C 0.21337 0.02009 0.5315 0.0
C332 C 0.24088 0.02451 0.5131 0.0
C333 C 0.22683 0.0068 0.49891 0.0
N334 N 0.23238 0.03312 0.53265 0.0
N335 N 0.20961 0.00407 0.51094 0.0
H336 H 0.2025 0.02148 0.54796 0.0
H337 H 0.25623 0.03005 0.51162 0.0
C338 C 0.27 0.06834 0.49341 0.0
O339 O 0.25425 0.06138 0.47139 0.0
N340 N 0.25622 0.0775 0.60357 0.0
C341 C 0.24606 0.08262 0.62805 0.0
C342 C 0.25842 0.09984 0.6461 0.0
C343 C 0.2747 0.09171 0.60694 0.0
N344 N 0.27637 0.10562 0.63266 0.0
C345 C 0.21444 0.06279 0.54328 0.0
C346 C 0.23852 0.09897 0.51136 0.0
C347 C 0.21917 0.09318 0.5179 0.0
C348 C 0.20695 0.07473 0.53338 0.0
C349 C 0.24552 0.08687 0.5227 0.0
N350 N 0.23357 0.06888 0.53826 0.0
H351 H 0.20511 0.04946 0.55857 0.0
H352 H 0.2609 0.09289 0.52239 0.0
H353 H 0.23058 0.07471 0.63151 0.0
H354 H 0.28647 0.0923 0.58975 0.0
O355 O 0.2247 0.04211 0.60755 0.0
O356 O 0.25194 0.04145 0.60449 0.0
O357 O 0.26877 0.06747 0.53223 0.0
C358 C 0.2357 0.03615 0.62303 0.0
H359 H 0.22917 0.99613 0.48388 0.0
H360 H 0.25443 0.10763 0.66711 0.0
H361 H 0.24854 0.11342 0.50089 0.0
H362 H 0.19197 0.06997 0.53973 0.0
Co363 Co 0.94621 0.19231 0.56899 0.0
C364 C 0.98225 0.19775 0.53281 0.0
C365 C 0.97807 0.22163 0.52053 0.0
C366 C 0.99654 0.22662 0.50943 0.0
N367 N 0.96895 0.20339 0.53474 0.0
N368 N 0.99918 0.21163 0.51756 0.0
H369 H 0.98051 0.1848 0.54675 0.0
H370 H 0.97236 0.23131 0.52159 0.0
C371 C 0.9345 0.20618 0.49594 0.0
O372 O 0.94198 0.19781 0.47415 0.0
N373 N 0.92414 0.18118 0.60452 0.0
C374 C 0.91895 0.16539 0.62745 0.0
C375 C 0.90166 0.1601 0.6456 0.0
C376 C 0.9099 0.18533 0.60892 0.0
N377 N 0.8959 0.17252 0.63378 0.0
C378 C 0.93868 0.15507 0.54047 0.0
C379 C 0.90186 0.14384 0.51394 0.0
C380 C 0.90702 0.12977 0.51978 0.0
C381 C 0.92596 0.1356 0.5314 0.0
C382 C 0.91482 0.16294 0.52347 0.0
N383 N 0.93294 0.16848 0.53748 0.0
H384 H 0.95232 0.15879 0.55403 0.0
H385 H 0.90919 0.17263 0.52407 0.0
H386 H 0.92687 0.15778 0.62975 0.0
H387 H 0.90936 0.19685 0.593 0.0
O388 O 0.95952 0.18504 0.60792 0.0
O389 O 0.96013 0.21297 0.60755 0.0
O390 O 0.93465 0.20522 0.53479 0.0
C391 C 0.96542 0.20175 0.62481 0.0
H392 H 0.00753 0.24064 0.4988 0.0
H393 H 0.89384 0.14789 0.66559 0.0
H394 H 0.88729 0.13988 0.50534 0.0
H395 H 0.93035 0.12503 0.53696 0.0
Co396 Co 0.91186 0.52244 0.40544 0.0
C397 C 0.88266 0.52864 0.36532 0.0
C398 C 0.91075 0.54725 0.3405 0.0
C399 C 0.89781 0.55141 0.32221 0.0
N400 N 0.9012 0.53299 0.36755 0.0
N401 N 0.88013 0.53981 0.33811 0.0
H402 H 0.87144 0.51808 0.38462 0.0
H403 H 0.9261 0.55458 0.33517 0.0
C404 C 0.94512 0.52503 0.35527 0.0
O405 O 0.93944 0.50687 0.36295 0.0
N406 N 0.92229 0.51184 0.44477 0.0
C407 C 0.91242 0.49955 0.47532 0.0
C408 C 0.92461 0.49568 0.49723 0.0
C409 C 0.9407 0.51609 0.45032 0.0
N410 N 0.94236 0.50596 0.48128 0.0
C411 C 0.88598 0.48189 0.39668 0.0
C412 C 0.89639 0.47852 0.31861 0.0
C413 C 0.8857 0.46176 0.34187 0.0
C414 C 0.87949 0.46361 0.38047 0.0
C415 C 0.90231 0.49659 0.33605 0.0
N416 N 0.89887 0.49801 0.37616 0.0
H417 H 0.88111 0.48296 0.42644 0.0
H418 H 0.91076 0.5094 0.31811 0.0
H419 H 0.89745 0.49407 0.48252 0.0
H420 H 0.95273 0.52644 0.43245 0.0
O421 O 0.89174 0.51786 0.44367 0.0
O422 O 0.92007 0.54466 0.44056 0.0
O423 O 0.93603 0.53295 0.3704 0.0
C424 C 0.9034 0.53486 0.45838 0.0
H425 H 0.90138 0.56247 0.2996 0.0
H426 H 0.92075 0.4863 0.5234 0.0
H427 H 0.90075 0.47771 0.28791 0.0
H428 H 0.87071 0.45113 0.39919 0.0
Co429 Co 0.47818 0.38894 0.39788 0.0
C430 C 0.47631 0.35465 0.36004 0.0
C431 C 0.45403 0.35936 0.33724 0.0
C432 C 0.45116 0.34208 0.32218 0.0
N433 N 0.47018 0.36759 0.36011 0.0
N434 N 0.46512 0.33913 0.33695 0.0
H435 H 0.4877 0.35561 0.37911 0.0
H436 H 0.44407 0.36467 0.33422 0.0
C437 C 0.46747 0.40312 0.3237 0.0
O438 O 0.47815 0.39791 0.30305 0.0
N439 N 0.48621 0.40954 0.43686 0.0
C440 C 0.50056 0.41445 0.46385 0.0
C441 C 0.50353 0.43051 0.48454 0.0
C442 C 0.48069 0.42282 0.44124 0.0
N443 N 0.49112 0.43582 0.47029 0.0
C444 C 0.51662 0.39864 0.37298 0.0
C445 C 0.52797 0.4364 0.35357 0.0
C446 C 0.54199 0.43098 0.35675 0.0
C447 C 0.53611 0.41167 0.36507 0.0
C448 C 0.5088 0.42303 0.36157 0.0
N449 N 0.5032 0.40439 0.37166 0.0
H450 H 0.51278 0.38448 0.38359 0.0
H451 H 0.49882 0.42832 0.36313 0.0
H452 H 0.50892 0.40733 0.4671 0.0
H453 H 0.46973 0.42329 0.42295 0.0
O454 O 0.4849 0.37527 0.43693 0.0
O455 O 0.45615 0.37264 0.43172 0.0
O456 O 0.46588 0.40066 0.36228 0.0
C457 C 0.46741 0.36785 0.45062 0.0
H458 H 0.43887 0.33171 0.30477 0.0
H459 H 0.51472 0.43831 0.50679 0.0
H460 H 0.53195 0.45122 0.34744 0.0
H461 H 0.54661 0.40704 0.3686 0.0
Co462 Co 0.61386 0.09081 0.40034 0.0
C463 C 0.64913 0.12308 0.36529 0.0
C464 C 0.64536 0.09598 0.34546 0.0
C465 C 0.66296 0.11043 0.33168 0.0
N466 N 0.63641 0.10394 0.36565 0.0
N467 N 0.66529 0.1274 0.3446 0.0
H468 H 0.64741 0.1336 0.38232 0.0
H469 H 0.64014 0.08069 0.34321 0.0
C470 C 0.60173 0.06628 0.325 0.0
O471 O 0.60854 0.08225 0.30373 0.0
N472 N 0.59191 0.07852 0.43608 0.0
C473 C 0.58653 0.08822 0.46129 0.0
C474 C 0.56929 0.07549 0.47878 0.0
C475 C 0.57782 0.05993 0.43846 0.0
N476 N 0.56374 0.05775 0.46426 0.0
C477 C 0.60587 0.12078 0.37766 0.0
C478 C 0.57007 0.09644 0.34444 0.0
C479 C 0.57543 0.11564 0.35168 0.0
C480 C 0.59367 0.12799 0.36793 0.0
C481 C 0.58239 0.08969 0.35572 0.0
N482 N 0.60021 0.10178 0.37181 0.0
H483 H 0.61905 0.13017 0.39337 0.0
H484 H 0.57665 0.07435 0.35484 0.0
H485 H 0.59426 0.10366 0.46561 0.0
H486 H 0.57741 0.04843 0.4205 0.0
O487 O 0.62698 0.1105 0.44111 0.0
O488 O 0.62833 0.08366 0.43654 0.0
O489 O 0.60251 0.0671 0.36386 0.0
C490 C 0.6333 0.09965 0.45582 0.0
H491 H 0.67381 0.10853 0.31624 0.0
H492 H 0.56134 0.0791 0.50017 0.0
H493 H 0.55577 0.0863 0.33342 0.0
H494 H 0.59805 0.14283 0.37496 0.0
Co495 Co 0.85663 0.58076 0.7773 0.0
C496 C 0.86337 0.55156 0.81762 0.0
C497 C 0.88792 0.57995 0.82147 0.0
C498 C 0.89295 0.56706 0.83651 0.0
N499 N 0.86924 0.57029 0.81031 0.0
N500 N 0.87752 0.54918 0.83377 0.0
H501 H 0.84946 0.53978 0.80921 0.0
H502 H 0.89753 0.59521 0.81678 0.0
C503 C 0.87064 0.60616 0.85093 0.0
O504 O 0.86498 0.59043 0.87247 0.0
N505 N 0.84402 0.59062 0.74315 0.0
C506 C 0.82845 0.5796 0.72003 0.0
C507 C 0.82276 0.59121 0.70133 0.0
C508 C 0.84759 0.60881 0.7385 0.0
N509 N 0.83476 0.60954 0.71297 0.0
C510 C 0.82023 0.54903 0.80223 0.0
C511 C 0.80736 0.57119 0.84039 0.0
C512 C 0.79412 0.55197 0.83139 0.0
C513 C 0.8008 0.54069 0.81301 0.0
C514 C 0.82648 0.5791 0.82815 0.0
N515 N 0.83288 0.56814 0.80916 0.0
H516 H 0.82446 0.54048 0.78452 0.0
H517 H 0.83535 0.5945 0.83027 0.0
H518 H 0.82138 0.56408 0.71767 0.0
H519 H 0.85917 0.62118 0.75355 0.0
O520 O 0.85072 0.56078 0.73767 0.0
O521 O 0.87738 0.58922 0.73792 0.0
O522 O 0.868 0.60499 0.81239 0.0
C523 C 0.86705 0.57253 0.72052 0.0
H524 H 0.90724 0.57049 0.84601 0.0
H525 H 0.81034 0.58644 0.68182 0.0
H526 H 0.8026 0.58056 0.8532 0.0
H527 H 0.79088 0.52586 0.80478 0.0
Co528 Co 0.42365 0.27832 0.7731 0.0
C529 C 0.45345 0.31366 0.81423 0.0
C530 C 0.42522 0.31006 0.8201 0.0
C531 C 0.4383 0.32759 0.83644 0.0
N532 N 0.43466 0.30114 0.80688 0.0
N533 N 0.45607 0.32988 0.83248 0.0
H534 H 0.46508 0.31154 0.80461 0.0
H535 H 0.40997 0.30464 0.81616 0.0
C536 C 0.39878 0.26667 0.84732 0.0
O537 O 0.4148 0.27512 0.86853 0.0
N538 N 0.4132 0.25604 0.73838 0.0
C539 C 0.42388 0.25105 0.71528 0.0
C540 C 0.41194 0.23376 0.69696 0.0
C541 C 0.39486 0.24173 0.7339 0.0
N542 N 0.39373 0.22786 0.70879 0.0
C543 C 0.45483 0.27254 0.79733 0.0
C544 C 0.43191 0.23727 0.8341 0.0
C545 C 0.45111 0.24305 0.82585 0.0
C546 C 0.46277 0.26106 0.80791 0.0
C547 C 0.42441 0.24882 0.82188 0.0
N548 N 0.43578 0.26639 0.80395 0.0
H549 H 0.46365 0.28544 0.78009 0.0
H550 H 0.40901 0.24248 0.82325 0.0
H551 H 0.4394 0.25924 0.71262 0.0
H552 H 0.38274 0.24117 0.74963 0.0
O553 O 0.44359 0.29224 0.73316 0.0
O554 O 0.4155 0.2912 0.73483 0.0
O555 O 0.39959 0.26602 0.80851 0.0
C556 C 0.43196 0.29719 0.71675 0.0
H557 H 0.43509 0.33834 0.84785 0.0
H558 H 0.41636 0.2261 0.67658 0.0
H559 H 0.42227 0.22307 0.84636 0.0
H560 H 0.47758 0.26572 0.80002 0.0
Co561 Co 0.72322 0.1468 0.77745 0.0
C562 C 0.68773 0.14219 0.81477 0.0
C563 C 0.69245 0.11913 0.83195 0.0
C564 C 0.6748 0.11526 0.84685 0.0
N565 N 0.70083 0.13632 0.81274 0.0
N566 N 0.67188 0.12975 0.83561 0.0
H567 H 0.68895 0.1545 0.79884 0.0
H568 H 0.69813 0.10941 0.83282 0.0
C569 C 0.73626 0.13478 0.85172 0.0
O570 O 0.72913 0.14355 0.87329 0.0
N571 N 0.74499 0.15748 0.74118 0.0
C572 C 0.74978 0.17271 0.71673 0.0
C573 C 0.76699 0.17786 0.69837 0.0
C574 C 0.75939 0.15352 0.73746 0.0
N575 N 0.7731 0.1659 0.71156 0.0
C576 C 0.72988 0.18416 0.80135 0.0
C577 C 0.76617 0.19684 0.83313 0.0
C578 C 0.76012 0.21019 0.82637 0.0
C579 C 0.74162 0.20366 0.81097 0.0
C580 C 0.75427 0.17765 0.82204 0.0
N581 N 0.73622 0.17132 0.80656 0.0
H582 H 0.71652 0.17995 0.78604 0.0
H583 H 0.7605 0.16847 0.82242 0.0
H584 H 0.74163 0.18005 0.71348 0.0
H585 H 0.76025 0.14244 0.75452 0.0
O586 O 0.70931 0.1529 0.73775 0.0
O587 O 0.70919 0.12526 0.74075 0.0
O588 O 0.73548 0.13499 0.81286 0.0
C589 C 0.70353 0.13595 0.72237 0.0
H590 H 0.66431 0.10216 0.8619 0.0
H591 H 0.77454 0.18967 0.67727 0.0
H592 H 0.78068 0.2015 0.84349 0.0
H593 H 0.73668 0.21372 0.80435 0.0
Co594 Co 0.42436 0.14564 0.2774 0.0
C595 C 0.45537 0.1411 0.31414 0.0
C596 C 0.42768 0.118 0.33172 0.0
C597 C 0.44156 0.11415 0.34613 0.0
N598 N 0.43638 0.13522 0.31255 0.0
N599 N 0.4589 0.12866 0.33463 0.0
H600 H 0.46637 0.15341 0.29802 0.0
H601 H 0.4123 0.10823 0.33275 0.0
C602 C 0.3988 0.13294 0.3511 0.0
O603 O 0.4145 0.14161 0.37328 0.0
N604 N 0.41317 0.15627 0.24126 0.0
C605 C 0.42356 0.17174 0.21737 0.0
C606 C 0.41135 0.1766 0.19861 0.0
C607 C 0.39471 0.15188 0.23682 0.0
N608 N 0.39325 0.16422 0.21099 0.0
C609 C 0.45468 0.18296 0.30273 0.0
C610 C 0.4306 0.19505 0.33457 0.0
C611 C 0.45002 0.20857 0.32872 0.0
C612 C 0.46223 0.20235 0.31321 0.0
C613 C 0.42354 0.17601 0.3226 0.0
N614 N 0.43549 0.16997 0.30715 0.0
H615 H 0.46403 0.17897 0.28752 0.0
H616 H 0.40814 0.16673 0.32238 0.0
H617 H 0.43908 0.17939 0.21469 0.0
H618 H 0.38276 0.14048 0.25325 0.0
O619 O 0.44455 0.15217 0.23789 0.0
O620 O 0.4172 0.12433 0.24029 0.0
O621 O 0.40012 0.13341 0.31228 0.0
C622 C 0.43357 0.13524 0.22217 0.0
H623 H 0.43904 0.10103 0.36093 0.0
H624 H 0.41554 0.18847 0.17774 0.0
H625 H 0.42059 0.19949 0.34497 0.0
H626 H 0.47725 0.21256 0.30725 0.0
Co627 Co 0.85563 0.2794 0.27349 0.0
C628 C 0.86304 0.31696 0.30562 0.0
C629 C 0.88686 0.31243 0.31575 0.0
C630 C 0.89249 0.33122 0.32545 0.0
N631 N 0.86827 0.30335 0.30384 0.0
N632 N 0.87752 0.33408 0.31874 0.0
H633 H 0.84974 0.31512 0.29354 0.0
H634 H 0.89617 0.3063 0.31446 0.0
C635 C 0.8706 0.26957 0.34785 0.0
O636 O 0.86371 0.27865 0.36909 0.0
N637 N 0.84301 0.25607 0.24202 0.0
C638 C 0.82644 0.25006 0.22148 0.0
C639 C 0.82101 0.23248 0.20447 0.0
C640 C 0.84753 0.24211 0.23728 0.0
N641 N 0.8342 0.22744 0.21452 0.0
C642 C 0.81953 0.27465 0.30119 0.0
C643 C 0.80753 0.23968 0.33909 0.0
C644 C 0.79396 0.24527 0.33072 0.0
C645 C 0.80019 0.26321 0.31251 0.0
C646 C 0.82649 0.25116 0.32614 0.0
N647 N 0.83244 0.26845 0.30711 0.0
H648 H 0.82344 0.28741 0.28366 0.0
H649 H 0.83559 0.24487 0.32751 0.0
H650 H 0.81865 0.25781 0.21951 0.0
H651 H 0.85995 0.24244 0.25099 0.0
O652 O 0.84846 0.29194 0.23242 0.0
O653 O 0.87564 0.29109 0.23265 0.0
O654 O 0.8683 0.26815 0.30924 0.0
C655 C 0.86468 0.29652 0.21466 0.0
H656 H 0.90681 0.34218 0.33457 0.0
H657 H 0.80834 0.2241 0.18601 0.0
H658 H 0.80312 0.22559 0.35177 0.0
H659 H 0.78997 0.2678 0.30475 0.0
Co660 Co 0.72436 0.57916 0.27832 0.0
C661 C 0.68976 0.54813 0.31969 0.0
C662 C 0.69319 0.5761 0.32961 0.0
C663 C 0.67589 0.56258 0.34595 0.0
N664 N 0.70217 0.56713 0.31398 0.0
N665 N 0.67367 0.54498 0.33947 0.0
H666 H 0.69177 0.53679 0.30742 0.0
H667 H 0.69826 0.59135 0.32693 0.0
C668 C 0.73635 0.60475 0.3515 0.0
O669 O 0.72944 0.58901 0.37361 0.0
N670 N 0.74601 0.59075 0.24165 0.0
C671 C 0.75105 0.58084 0.21622 0.0
C672 C 0.76831 0.59339 0.19844 0.0
C673 C 0.76031 0.60923 0.23911 0.0
N674 N 0.7742 0.6112 0.21304 0.0
C675 C 0.73324 0.54998 0.30328 0.0
C676 C 0.76963 0.57592 0.33143 0.0
C677 C 0.76515 0.55699 0.32367 0.0
C678 C 0.7464 0.54367 0.31119 0.0
C679 C 0.75632 0.58166 0.32258 0.0
N680 N 0.73837 0.56892 0.30805 0.0
H681 H 0.71974 0.54 0.28924 0.0
H682 H 0.76157 0.59691 0.32317 0.0
H683 H 0.74309 0.5654 0.21197 0.0
H684 H 0.76101 0.62078 0.25733 0.0
O685 O 0.71081 0.55856 0.23955 0.0
O686 O 0.7097 0.58562 0.24135 0.0
O687 O 0.73586 0.60351 0.31268 0.0
C688 C 0.70455 0.56924 0.22358 0.0
H689 H 0.66513 0.56542 0.3588 0.0
H690 H 0.77604 0.58958 0.17691 0.0
H691 H 0.78395 0.5867 0.34111 0.0
H692 H 0.74245 0.52894 0.30421 0.0
Co693 Co 0.47932 0.09087 0.90075 0.0
C694 C 0.47543 0.1223 0.86414 0.0
C695 C 0.452 0.09478 0.84662 0.0
C696 C 0.44848 0.10889 0.83219 0.0
N697 N 0.4692 0.10323 0.86577 0.0
N698 N 0.46319 0.12612 0.84366 0.0
H699 H 0.48785 0.13317 0.88015 0.0
H700 H 0.44207 0.07943 0.84551 0.0
C701 C 0.46703 0.06605 0.82602 0.0
O702 O 0.47578 0.08201 0.8046 0.0
N703 N 0.4897 0.07938 0.93677 0.0
C704 C 0.50486 0.08964 0.9615 0.0
C705 C 0.50989 0.07742 0.97954 0.0
C706 C 0.48569 0.06097 0.93997 0.0
N707 N 0.49796 0.05945 0.96585 0.0
C708 C 0.51695 0.12131 0.87733 0.0
C709 C 0.52883 0.09742 0.84357 0.0
C710 C 0.54242 0.11673 0.85036 0.0
C711 C 0.53634 0.12885 0.86696 0.0
C712 C 0.50981 0.09035 0.85554 0.0
N713 N 0.50384 0.10222 0.87175 0.0
H714 H 0.51302 0.13053 0.89333 0.0
H715 H 0.50048 0.07495 0.85504 0.0
H716 H 0.51224 0.10512 0.96517 0.0
H717 H 0.47467 0.04915 0.92257 0.0
O718 O 0.48554 0.11075 0.94093 0.0
O719 O 0.45774 0.0834 0.93724 0.0
O720 O 0.46732 0.06695 0.86489 0.0
C721 C 0.4685 0.09962 0.95602 0.0
H722 H 0.43547 0.10662 0.81734 0.0
H723 H 0.52161 0.08152 1.00078 0.0
H724 H 0.53321 0.08747 0.8324 0.0
H725 H 0.54664 0.14376 0.87378 0.0
Co726 Co 0.9126 0.38952 0.89798 0.0
C727 C 0.87996 0.35645 0.85799 0.0
C728 C 0.9068 0.36018 0.83656 0.0
C729 C 0.89213 0.34312 0.82122 0.0
N730 N 0.89916 0.36885 0.85888 0.0
N731 N 0.87532 0.34077 0.83519 0.0
H732 H 0.86964 0.35781 0.87663 0.0
H733 H 0.92198 0.36495 0.83443 0.0
C734 C 0.93836 0.40387 0.82493 0.0
O735 O 0.92285 0.39922 0.80335 0.0
N736 N 0.92522 0.40952 0.93823 0.0
C737 C 0.9157 0.41405 0.96584 0.0
C738 C 0.92857 0.43052 0.98561 0.0
C739 C 0.94387 0.42338 0.94156 0.0
N740 N 0.94622 0.43649 0.97011 0.0
C741 C 0.88495 0.401 0.87475 0.0
C742 C 0.91246 0.43838 0.85534 0.0
C743 C 0.89331 0.43386 0.85931 0.0
C744 C 0.8793 0.41474 0.86768 0.0
C745 C 0.91746 0.42437 0.86263 0.0
N746 N 0.90389 0.40589 0.87265 0.0
H747 H 0.87425 0.38696 0.88531 0.0
H748 H 0.9326 0.42908 0.86374 0.0
H749 H 0.90026 0.40648 0.97001 0.0
H750 H 0.95523 0.42456 0.92194 0.0
O751 O 0.89181 0.37557 0.93621 0.0
O752 O 0.91762 0.37241 0.93061 0.0
O753 O 0.93693 0.40112 0.86341 0.0
C754 C 0.90154 0.36765 0.9493 0.0
H755 H 0.89379 0.33241 0.80451 0.0
H756 H 0.9251 0.43786 0.0088 0.0
H757 H 0.92375 0.45301 0.84904 0.0
H758 H 0.86436 0.41077 0.87173 0.0
Co759 Co 0.61397 0.52402 0.90421 0.0
C760 C 0.64775 0.52493 0.86621 0.0
C761 C 0.64356 0.5475 0.84305 0.0
C762 C 0.66072 0.55002 0.82814 0.0
N763 N 0.63507 0.53139 0.8661 0.0
N764 N 0.66336 0.5359 0.84315 0.0
H765 H 0.64656 0.5135 0.88549 0.0
H766 H 0.63852 0.55767 0.83991 0.0
C767 C 0.59994 0.53458 0.82966 0.0
O768 O 0.60491 0.52361 0.80935 0.0
N769 N 0.59357 0.51662 0.94364 0.0
C770 C 0.58916 0.50305 0.97237 0.0
C771 C 0.573 0.50007 0.99263 0.0
C772 C 0.57984 0.52162 0.94654 0.0
N773 N 0.56708 0.51163 0.97633 0.0
C774 C 0.6034 0.48514 0.88079 0.0
C775 C 0.56588 0.47454 0.86105 0.0
C776 C 0.57087 0.46023 0.8646 0.0
C777 C 0.59004 0.4657 0.87316 0.0
C778 C 0.57953 0.49362 0.86878 0.0
N779 N 0.59807 0.49888 0.87894 0.0
H780 H 0.61747 0.48873 0.89147 0.0
H781 H 0.57455 0.50385 0.86993 0.0
H782 H 0.59661 0.4951 0.97711 0.0
H783 H 0.57879 0.53175 0.92653 0.0
O784 O 0.6276 0.51734 0.9434 0.0
O785 O 0.63061 0.54625 0.93705 0.0
O786 O 0.60247 0.53637 0.8682 0.0
C787 C 0.63525 0.53498 0.95641 0.0
H788 H 0.67125 0.56224 0.81075 0.0
H789 H 0.5655 0.48933 0.0159 0.0
H790 H 0.55117 0.47087 0.85471 0.0
H791 H 0.59432 0.45493 0.87693 0.0
Co792 Co 0.5789 0.85707 0.73389 0.0
C793 C 0.54643 0.85858 0.69558 0.0
C794 C 0.57335 0.8809 0.67251 0.0
C795 C 0.55885 0.8836 0.65732 0.0
N796 N 0.56553 0.86484 0.69569 0.0
N797 N 0.54199 0.86963 0.67227 0.0
H798 H 0.53606 0.84721 0.71479 0.0
H799 H 0.5886 0.89092 0.66938 0.0
C800 C 0.6042 0.86791 0.6602 0.0
O801 O 0.58849 0.85709 0.63915 0.0
N802 N 0.59146 0.84922 0.7733 0.0
C803 C 0.58196 0.83484 0.80025 0.0
C804 C 0.595 0.83189 0.82115 0.0
C805 C 0.61024 0.85478 0.77794 0.0
N806 N 0.61275 0.84434 0.80708 0.0
C807 C 0.55041 0.8185 0.70896 0.0
C808 C 0.57706 0.80741 0.69021 0.0
C809 C 0.55764 0.79328 0.69295 0.0
C810 C 0.5441 0.79904 0.701 0.0
C811 C 0.58272 0.82655 0.6982 0.0
N812 N 0.56956 0.83203 0.70793 0.0
H813 H 0.53999 0.82223 0.71932 0.0
H814 H 0.59797 0.83662 0.70001 0.0
H815 H 0.56647 0.82642 0.80329 0.0
H816 H 0.6217 0.86575 0.7597 0.0
O817 O 0.55842 0.85032 0.77274 0.0
O818 O 0.58449 0.87915 0.76733 0.0
O819 O 0.60305 0.8695 0.69869 0.0
C820 C 0.56845 0.86787 0.78625 0.0
H821 H 0.56071 0.89582 0.63967 0.0
H822 H 0.59155 0.82067 0.84337 0.0
H823 H 0.58799 0.80353 0.6843 0.0
H824 H 0.52897 0.78845 0.7042 0.0
Co825 Co 0.14456 0.72178 0.74044 0.0
C826 C 0.14389 0.68831 0.7009 0.0
C827 C 0.12165 0.69296 0.6776 0.0
C828 C 0.11933 0.6761 0.66135 0.0
N829 N 0.13745 0.70101 0.70153 0.0
N830 N 0.13325 0.67317 0.67638 0.0
H831 H 0.15512 0.68916 0.72037 0.0
H832 H 0.11155 0.69808 0.67454 0.0
C833 C 0.13461 0.73659 0.6662 0.0
O834 O 0.14591 0.73202 0.64607 0.0
N835 N 0.15162 0.74183 0.78055 0.0
C836 C 0.16519 0.74625 0.80927 0.0
C837 C 0.16805 0.76236 0.82965 0.0
C838 C 0.14647 0.75543 0.78367 0.0
N839 N 0.1564 0.7682 0.81348 0.0
C840 C 0.18355 0.73256 0.71697 0.0
C841 C 0.19427 0.77027 0.69855 0.0
C842 C 0.20854 0.76517 0.70099 0.0
C843 C 0.20297 0.7459 0.70903 0.0
C844 C 0.1752 0.75664 0.70658 0.0
N845 N 0.16987 0.73798 0.7159 0.0
H846 H 0.1799 0.71837 0.727 0.0
H847 H 0.165 0.76165 0.70825 0.0
H848 H 0.17324 0.7389 0.8138 0.0
H849 H 0.13629 0.75642 0.7637 0.0
O850 O 0.15105 0.70783 0.77929 0.0
O851 O 0.12216 0.70473 0.77263 0.0
O852 O 0.13238 0.73356 0.70459 0.0
C853 C 0.13334 0.69996 0.79191 0.0
H854 H 0.10739 0.66596 0.6428 0.0
H855 H 0.1788 0.76989 0.85286 0.0
H856 H 0.19795 0.78502 0.69253 0.0
H857 H 0.21366 0.74148 0.71196 0.0
Co858 Co 0.27747 0.42205 0.72987 0.0
C859 C 0.31337 0.4518 0.69049 0.0
C860 C 0.3103 0.4237 0.6872 0.0
C861 C 0.32816 0.43688 0.67236 0.0
N862 N 0.30086 0.43299 0.69786 0.0
N863 N 0.33012 0.45458 0.67473 0.0
H864 H 0.31082 0.46337 0.69843 0.0
H865 H 0.30496 0.40849 0.69195 0.0
C866 C 0.26714 0.39689 0.65583 0.0
O867 O 0.27743 0.41262 0.63445 0.0
N868 N 0.25467 0.41174 0.76297 0.0
C869 C 0.24954 0.42244 0.78562 0.0
C870 C 0.23216 0.41048 0.80367 0.0
C871 C 0.24033 0.39339 0.76727 0.0
N872 N 0.22638 0.39226 0.79209 0.0
C873 C 0.27239 0.45361 0.70567 0.0
C874 C 0.23815 0.43145 0.66474 0.0
C875 C 0.24355 0.45041 0.67484 0.0
C876 C 0.26112 0.46172 0.69466 0.0
C877 C 0.24948 0.42373 0.67735 0.0
N878 N 0.26644 0.43469 0.69774 0.0
H879 H 0.28486 0.46213 0.72429 0.0
H880 H 0.24326 0.4084 0.6743 0.0
H881 H 0.25768 0.43797 0.78818 0.0
H882 H 0.24007 0.38119 0.75258 0.0
O883 O 0.29101 0.44176 0.77045 0.0
O884 O 0.28948 0.41343 0.76944 0.0
O885 O 0.26517 0.39803 0.69418 0.0
C886 C 0.29552 0.42992 0.78748 0.0
H887 H 0.33931 0.43382 0.66313 0.0
H888 H 0.22411 0.41493 0.82278 0.0
H889 H 0.22431 0.42205 0.65077 0.0
H890 H 0.26553 0.47634 0.70378 0.0
Co891 Co 0.5237 0.91224 0.10888 0.0
C892 C 0.52888 0.88138 0.14445 0.0
C893 C 0.55188 0.90915 0.16191 0.0
C894 C 0.5559 0.89535 0.17609 0.0
N895 N 0.53461 0.90034 0.14301 0.0
N896 N 0.54145 0.87796 0.16467 0.0
H897 H 0.51655 0.87031 0.12857 0.0
H898 H 0.5615 0.92456 0.16311 0.0
C899 C 0.53624 0.93723 0.18338 0.0
O900 O 0.52783 0.92131 0.20497 0.0
N901 N 0.51255 0.92328 0.07372 0.0
C902 C 0.49701 0.91275 0.05013 0.0
C903 C 0.49178 0.92479 0.03195 0.0
C904 C 0.5166 0.94167 0.0697 0.0
N905 N 0.50399 0.94293 0.04439 0.0
C906 C 0.48671 0.88124 0.13377 0.0
C907 C 0.47403 0.90452 0.16734 0.0
C908 C 0.46076 0.88509 0.16056 0.0
C909 C 0.4673 0.87328 0.14427 0.0
C910 C 0.49312 0.912 0.15537 0.0
N911 N 0.49946 0.90045 0.13899 0.0
H912 H 0.49089 0.87223 0.11776 0.0
H913 H 0.50219 0.92744 0.15582 0.0
H914 H 0.4896 0.89724 0.04721 0.0
H915 H 0.52799 0.95369 0.08599 0.0
O916 O 0.51743 0.8924 0.06863 0.0
O917 O 0.54494 0.92007 0.07128 0.0
O918 O 0.53564 0.93625 0.14451 0.0
C919 C 0.53422 0.90376 0.05276 0.0
H920 H 0.56905 0.89794 0.19083 0.0
H921 H 0.4798 0.92047 0.01135 0.0
H922 H 0.46934 0.91424 0.17837 0.0
H923 H 0.45729 0.85827 0.1376 0.0
Co924 Co 0.09071 0.61003 0.11446 0.0
C925 C 0.11973 0.64626 0.15424 0.0
C926 C 0.09136 0.64256 0.15627 0.0
C927 C 0.10413 0.66049 0.17143 0.0
N928 N 0.10107 0.63346 0.14622 0.0
N929 N 0.12199 0.66284 0.16987 0.0
H930 H 0.13154 0.644 0.14693 0.0
H931 H 0.07616 0.63692 0.15097 0.0
C932 C 0.06525 0.59944 0.18798 0.0
O933 O 0.08092 0.60988 0.20943 0.0
N934 N 0.08095 0.5872 0.08162 0.0
C935 C 0.09197 0.58198 0.06045 0.0
C936 C 0.08026 0.56466 0.0419 0.0
C937 C 0.06265 0.57306 0.07573 0.0
N938 N 0.06185 0.55903 0.05159 0.0
C939 C 0.12245 0.60554 0.14 0.0
C940 C 0.10027 0.57097 0.1799 0.0
C941 C 0.11925 0.57651 0.16989 0.0
C942 C 0.13059 0.59425 0.15069 0.0
C943 C 0.0925 0.58228 0.16748 0.0
N944 N 0.10344 0.59936 0.14742 0.0
H945 H 0.13098 0.61816 0.12174 0.0
H946 H 0.07715 0.57589 0.17015 0.0
H947 H 0.10752 0.59014 0.05885 0.0
H948 H 0.0503 0.57286 0.08943 0.0
O949 O 0.11058 0.62373 0.07428 0.0
O950 O 0.08205 0.62171 0.07415 0.0
O951 O 0.06651 0.59748 0.14965 0.0
C952 C 0.09868 0.62795 0.0566 0.0
H953 H 0.10068 0.67141 0.18037 0.0
H954 H 0.08498 0.55692 0.02253 0.0
H955 H 0.09087 0.55701 0.19341 0.0
H956 H 0.14523 0.59876 0.14164 0.0
Co957 Co 0.38952 0.47788 0.10328 0.0
C958 C 0.3557 0.47646 0.14233 0.0
C959 C 0.36021 0.45395 0.16451 0.0
C960 C 0.34303 0.45118 0.17987 0.0
N961 N 0.36851 0.47016 0.1418 0.0
N962 N 0.34019 0.46528 0.16547 0.0
H963 H 0.35671 0.48793 0.12344 0.0
H964 H 0.36538 0.44386 0.16711 0.0
C965 C 0.40393 0.46726 0.17721 0.0
O966 O 0.39889 0.47806 0.19788 0.0
N967 N 0.40983 0.48563 0.06348 0.0
C968 C 0.41392 0.49916 0.03481 0.0
C969 C 0.43025 0.50262 0.0146 0.0
C970 C 0.42391 0.48113 0.06055 0.0
N971 N 0.43659 0.49139 0.03085 0.0
C972 C 0.39976 0.51662 0.12762 0.0
C973 C 0.4374 0.52755 0.14704 0.0
C974 C 0.43217 0.54172 0.14428 0.0
C975 C 0.41294 0.53606 0.13582 0.0
C976 C 0.42391 0.50845 0.13882 0.0
N977 N 0.4053 0.50302 0.12886 0.0
H978 H 0.38564 0.51292 0.11708 0.0
H979 H 0.42905 0.49835 0.13727 0.0
H980 H 0.40616 0.50682 0.03017 0.0
H981 H 0.42528 0.47118 0.08055 0.0
O982 O 0.37553 0.48443 0.06467 0.0
O983 O 0.37289 0.45567 0.07023 0.0
O984 O 0.40137 0.46561 0.13866 0.0
C985 C 0.36794 0.46683 0.05144 0.0
H986 H 0.33262 0.43884 0.19713 0.0
H987 H 0.43757 0.51347 0.99144 0.0
H988 H 0.45216 0.53136 0.15323 0.0
H989 H 0.40847 0.54671 0.1326 0.0
Co990 Co 0.09156 0.47942 0.60614 0.0
C991 C 0.12321 0.47569 0.64242 0.0
C992 C 0.09573 0.45238 0.66054 0.0
C993 C 0.10983 0.44889 0.67498 0.0
N994 N 0.10415 0.46951 0.64104 0.0
N995 N 0.12704 0.46351 0.66317 0.0
H996 H 0.13405 0.48805 0.62615 0.0
H997 H 0.0804 0.44245 0.66187 0.0
C998 C 0.06667 0.4669 0.68099 0.0
O999 O 0.0825 0.47574 0.70274 0.0
N1000 N 0.07964 0.48947 0.57028 0.0
C1001 C 0.08933 0.50394 0.54364 0.0
C1002 C 0.07686 0.50904 0.52701 0.0
C1003 C 0.06136 0.48598 0.56966 0.0
N1004 N 0.05932 0.49788 0.54358 0.0
C1005 C 0.12186 0.51709 0.6297 0.0
C1006 C 0.09802 0.52891 0.66393 0.0
C1007 C 0.11739 0.54252 0.65755 0.0
C1008 C 0.12946 0.53642 0.64068 0.0
C1009 C 0.09092 0.50991 0.65151 0.0
N1010 N 0.10277 0.50398 0.63507 0.0
H1011 H 0.1311 0.51318 0.61369 0.0
H1012 H 0.07553 0.50053 0.65214 0.0
H1013 H 0.10463 0.51091 0.53779 0.0
H1014 H 0.05005 0.4757 0.58922 0.0
O1015 O 0.11142 0.48583 0.56587 0.0
O1016 O 0.08429 0.45785 0.56966 0.0
O1017 O 0.06772 0.46723 0.64215 0.0
C1018 C 0.10047 0.46873 0.55088 0.0
H1019 H 0.10755 0.43592 0.69012 0.0
H1020 H 0.08056 0.52037 0.50494 0.0
H1021 H 0.08809 0.53324 0.67539 0.0
H1022 H 0.14443 0.54669 0.6343 0.0
Co1023 Co 0.52433 0.61183 0.61 0.0
C1024 C 0.52724 0.64575 0.65305 0.0
C1025 C 0.55106 0.64156 0.66604 0.0
C1026 C 0.55469 0.65871 0.68302 0.0
N1027 N 0.53361 0.63313 0.64805 0.0
N1028 N 0.53977 0.66142 0.67459 0.0
H1029 H 0.51449 0.64431 0.63882 0.0
H1030 H 0.56114 0.63635 0.6644 0.0
C1031 C 0.53574 0.59791 0.68322 0.0
O1032 O 0.52596 0.60404 0.70438 0.0
N1033 N 0.51517 0.59119 0.57078 0.0
C1034 C 0.50093 0.58705 0.54393 0.0
C1035 C 0.4967 0.57045 0.5238 0.0
C1036 C 0.51936 0.57694 0.56687 0.0
N1037 N 0.5082 0.56404 0.5383 0.0
C1038 C 0.48591 0.6025 0.63403 0.0
C1039 C 0.47468 0.56506 0.65608 0.0
C1040 C 0.46057 0.5702 0.65085 0.0
C1041 C 0.46635 0.58937 0.64126 0.0
C1042 C 0.49386 0.57844 0.64851 0.0
N1043 N 0.49945 0.59694 0.63714 0.0
H1044 H 0.48973 0.61646 0.62209 0.0
H1045 H 0.50376 0.57307 0.64776 0.0
H1046 H 0.49343 0.59503 0.54049 0.0
H1047 H 0.52984 0.57568 0.58528 0.0
O1048 O 0.51806 0.62631 0.57207 0.0
O1049 O 0.54624 0.62754 0.57554 0.0
O1050 O 0.53638 0.59948 0.64442 0.0
C1051 C 0.53536 0.63308 0.5576 0.0
H1052 H 0.568 0.66909 0.69753 0.0
H1053 H 0.48527 0.56307 0.50183 0.0
H1054 H 0.47076 0.55032 0.66305 0.0
H1055 H 0.45575 0.59375 0.6361 0.0
Co1056 Co 0.39133 0.91172 0.61082 0.0
C1057 C 0.3555 0.88219 0.65145 0.0
C1058 C 0.35991 0.91072 0.65805 0.0
C1059 C 0.34226 0.89789 0.67426 0.0
N1060 N 0.36845 0.90094 0.64452 0.0
N1061 N 0.33945 0.87994 0.66988 0.0
H1062 H 0.35721 0.87034 0.64141 0.0
H1063 H 0.36568 0.92605 0.65441 0.0
C1064 C 0.40331 0.93704 0.6845 0.0
O1065 O 0.39486 0.92115 0.70619 0.0
N1066 N 0.41364 0.92198 0.57618 0.0
C1067 C 0.41881 0.91119 0.55397 0.0
C1068 C 0.4359 0.92312 0.53488 0.0
C1069 C 0.42763 0.94038 0.57037 0.0
N1070 N 0.44149 0.94145 0.5453 0.0
C1071 C 0.39665 0.88041 0.63641 0.0
C1072 C 0.43222 0.90333 0.67192 0.0
C1073 C 0.42618 0.88399 0.66436 0.0
C1074 C 0.40801 0.87234 0.64712 0.0
C1075 C 0.42077 0.91094 0.65961 0.0
N1076 N 0.40309 0.89958 0.6422 0.0
H1077 H 0.38361 0.87155 0.61966 0.0
H1078 H 0.42725 0.92638 0.66043 0.0
H1079 H 0.41083 0.89563 0.55228 0.0
H1080 H 0.42792 0.95261 0.585 0.0
O1081 O 0.37741 0.89165 0.57114 0.0
O1082 O 0.3786 0.91984 0.57212 0.0
O1083 O 0.40377 0.93597 0.64572 0.0
C1084 C 0.37256 0.90329 0.55434 0.0
H1085 H 0.3318 0.90144 0.68593 0.0
H1086 H 0.44359 0.9186 0.51483 0.0
H1087 H 0.44652 0.91296 0.68368 0.0
H1088 H 0.4031 0.85741 0.63983 0.0
Co1089 Co 0.1463 0.42309 0.2307 0.0
C1090 C 0.14226 0.45451 0.19445 0.0
C1091 C 0.11805 0.42697 0.17996 0.0
C1092 C 0.11438 0.44109 0.16629 0.0
N1093 N 0.1358 0.43541 0.1967 0.0
N1094 N 0.12959 0.45835 0.17587 0.0
H1095 H 0.15522 0.46544 0.20883 0.0
H1096 H 0.10793 0.41165 0.18008 0.0
C1097 C 0.13305 0.39841 0.15562 0.0
O1098 O 0.14026 0.41434 0.13413 0.0
N1099 N 0.15696 0.41159 0.26581 0.0
C1100 C 0.17215 0.42166 0.29057 0.0
C1101 C 0.17668 0.40916 0.30914 0.0
C1102 C 0.15248 0.39306 0.26935 0.0
N1103 N 0.16437 0.39122 0.29577 0.0
C1104 C 0.18389 0.4538 0.20847 0.0
C1105 C 0.19584 0.43058 0.1717 0.0
C1106 C 0.2095 0.44968 0.18054 0.0
C1107 C 0.20332 0.46148 0.19841 0.0
C1108 C 0.1767 0.42334 0.18321 0.0
N1109 N 0.17074 0.43486 0.20125 0.0
H1110 H 0.17997 0.46272 0.22567 0.0
H1111 H 0.16733 0.40799 0.18105 0.0
H1112 H 0.17982 0.43715 0.29396 0.0
H1113 H 0.14101 0.38126 0.25275 0.0
O1114 O 0.15245 0.44274 0.27135 0.0
O1115 O 0.12481 0.41525 0.26779 0.0
O1116 O 0.13451 0.39928 0.19441 0.0
C1117 C 0.1355 0.43147 0.28664 0.0
H1118 H 0.101 0.43885 0.15339 0.0
H1119 H 0.18862 0.41308 0.32965 0.0
H1120 H 0.2002 0.42081 0.15933 0.0
H1121 H 0.21359 0.47622 0.20659 0.0
Co1122 Co 0.57945 0.72417 0.23723 0.0
C1123 C 0.54894 0.6889 0.19651 0.0
C1124 C 0.57712 0.69266 0.1881 0.0
C1125 C 0.56387 0.6752 0.17179 0.0
N1126 N 0.56784 0.7015 0.20279 0.0
N1127 N 0.54613 0.6728 0.17729 0.0
H1128 H 0.5374 0.69084 0.20765 0.0
H1129 H 0.5924 0.69803 0.19108 0.0
C1130 C 0.60437 0.73596 0.16315 0.0
O1131 O 0.58836 0.72822 0.14187 0.0
N1132 N 0.59059 0.74625 0.27263 0.0
C1133 C 0.58038 0.75173 0.29596 0.0
C1134 C 0.59288 0.7684 0.31579 0.0
C1135 C 0.60921 0.75968 0.27834 0.0
N1136 N 0.61098 0.77341 0.3047 0.0
C1137 C 0.54903 0.73102 0.21215 0.0
C1138 C 0.57298 0.76672 0.17798 0.0
C1139 C 0.5537 0.76108 0.18476 0.0
C1140 C 0.54154 0.74288 0.20147 0.0
C1141 C 0.58001 0.75477 0.19028 0.0
N1142 N 0.56813 0.73699 0.20681 0.0
H1143 H 0.53979 0.71791 0.22835 0.0
H1144 H 0.5954 0.76086 0.18996 0.0
H1145 H 0.56483 0.74435 0.29768 0.0
H1146 H 0.62113 0.75949 0.26341 0.0
O1147 O 0.55926 0.71058 0.27677 0.0
O1148 O 0.5868 0.71045 0.27505 0.0
O1149 O 0.60356 0.73606 0.20202 0.0
C1150 C 0.57038 0.70492 0.29298 0.0
H1151 H 0.56698 0.66456 0.15934 0.0
H1152 H 0.58891 0.77659 0.33569 0.0
H1153 H 0.58297 0.78102 0.16671 0.0
H1154 H 0.52664 0.73832 0.20824 0.0
Co1155 Co 0.28093 0.85697 0.23552 0.0
C1156 C 0.31461 0.85822 0.19648 0.0
C1157 C 0.31083 0.88143 0.17591 0.0
C1158 C 0.32798 0.88406 0.16067 0.0
N1159 N 0.30212 0.86489 0.19754 0.0
N1160 N 0.33035 0.86952 0.17407 0.0
H1161 H 0.31322 0.84637 0.21458 0.0
H1162 H 0.30592 0.89175 0.17401 0.0
C1163 C 0.26726 0.86847 0.16168 0.0
O1164 O 0.27251 0.85793 0.14065 0.0
N1165 N 0.26038 0.8489 0.27472 0.0
C1166 C 0.25587 0.83478 0.30217 0.0
C1167 C 0.23909 0.8307 0.32117 0.0
C1168 C 0.24618 0.85323 0.27734 0.0
N1169 N 0.23289 0.84212 0.30533 0.0
C1170 C 0.27037 0.81814 0.21173 0.0
C1171 C 0.23315 0.80783 0.19001 0.0
C1172 C 0.23789 0.79336 0.19452 0.0
C1173 C 0.25695 0.79871 0.20403 0.0
C1174 C 0.24684 0.82688 0.19803 0.0
N1175 N 0.26524 0.83201 0.20916 0.0
H1176 H 0.28429 0.82161 0.22322 0.0
H1177 H 0.24188 0.83712 0.19883 0.0
H1178 H 0.2637 0.8272 0.30679 0.0
H1179 H 0.24494 0.86335 0.25763 0.0
O1180 O 0.29467 0.85013 0.27422 0.0
O1181 O 0.29736 0.87893 0.26936 0.0
O1182 O 0.2694 0.86961 0.20035 0.0
C1183 C 0.30215 0.86762 0.28802 0.0
H1184 H 0.33868 0.89657 0.14427 0.0
H1185 H 0.23174 0.81975 0.34412 0.0
H1186 H 0.21856 0.80431 0.18283 0.0
H1187 H 0.26107 0.78787 0.20854 0.0
H1188 H 0.35644 0.13447 0.20853 0.0
H1189 H 0.3145 0.2014 0.1337 0.0
H1190 H 0.39132 0.19579 0.18919 0.0
H1191 H 0.27978 0.13991 0.15092 0.0
H1192 H 0.34301 0.19963 0.15322 0.0
H1193 H 0.32798 0.13618 0.18824 0.0
C1194 C 0.35809 0.14828 0.2002 0.0
C1195 C 0.37628 0.16497 0.20024 0.0
C1196 C 0.32913 0.18653 0.15273 0.0
C1197 C 0.34393 0.16706 0.17671 0.0
C1198 C 0.3129 0.18754 0.14137 0.0
C1199 C 0.29473 0.17083 0.14107 0.0
C1200 C 0.32714 0.16867 0.16375 0.0
C1201 C 0.29343 0.15323 0.15158 0.0
C1202 C 0.34189 0.14926 0.18839 0.0
C1203 C 0.37764 0.1825 0.18884 0.0
N1204 N 0.30941 0.15262 0.16255 0.0
N1205 N 0.36169 0.18308 0.17753 0.0
H1206 H 0.86321 0.14084 0.15245 0.0
H1207 H 0.80259 0.19308 0.19724 0.0
H1208 H 0.80165 0.11349 0.13654 0.0
H1209 H 0.8645 0.22139 0.20703 0.0
H1210 H 0.80193 0.16368 0.17603 0.0
H1211 H 0.86391 0.1703 0.1735 0.0
C1212 C 0.84981 0.141 0.1536 0.0
C1213 C 0.8323 0.12462 0.14305 0.0
C1214 C 0.81567 0.17632 0.18277 0.0
C1215 C 0.83304 0.15842 0.16676 0.0
C1216 C 0.81608 0.19317 0.19471 0.0
C1217 C 0.83366 0.20981 0.2036 0.0
C1218 C 0.83297 0.17604 0.17975 0.0
C1219 C 0.85063 0.20888 0.20074 0.0
C1220 C 0.85024 0.15788 0.16541 0.0
C1221 C 0.81546 0.12581 0.14418 0.0
N1222 N 0.84986 0.19228 0.18895 0.0
N1223 N 0.81623 0.14242 0.15601 0.0
H1224 H 0.78237 0.64833 0.21913 0.0
H1225 H 0.89013 0.69111 0.13736 0.0
H1226 H 0.80747 0.61329 0.18822 0.0
H1227 H 0.86629 0.72623 0.17657 0.0
H1228 H 0.85986 0.66231 0.15555 0.0
H1229 H 0.81314 0.67714 0.20408 0.0
C1230 C 0.79434 0.64668 0.20937 0.0
C1231 C 0.79226 0.62834 0.20467 0.0
C1232 C 0.86131 0.67634 0.16034 0.0
C1233 C 0.82747 0.6612 0.18705 0.0
C1234 C 0.87856 0.69277 0.14977 0.0
C1235 C 0.88078 0.71111 0.15552 0.0
C1236 C 0.84615 0.67828 0.17654 0.0
C1237 C 0.86535 0.71241 0.17219 0.0
C1238 C 0.81189 0.66313 0.20061 0.0
C1239 C 0.80825 0.62708 0.19151 0.0
N1240 N 0.84868 0.69622 0.18197 0.0
N1241 N 0.82516 0.64328 0.1831 0.0
H1242 H 0.15424 0.36004 0.24784 0.0
H1243 H 0.18483 0.30772 0.41446 0.0
H1244 H 0.17645 0.38363 0.36629 0.0
H1245 H 0.16571 0.28536 0.29378 0.0
H1246 H 0.18264 0.3361 0.39665 0.0
H1247 H 0.15792 0.33227 0.26418 0.0
C1248 C 0.1597 0.35927 0.2774 0.0
C1249 C 0.16511 0.37416 0.30572 0.0
C1250 C 0.17902 0.32503 0.37397 0.0
C1251 C 0.16964 0.34269 0.32441 0.0
C1252 C 0.18045 0.30891 0.38402 0.0
C1253 C 0.17532 0.29409 0.35564 0.0
C1254 C 0.17238 0.32632 0.33529 0.0
C1255 C 0.16947 0.29628 0.31681 0.0
C1256 C 0.16198 0.34353 0.28659 0.0
C1257 C 0.17237 0.37259 0.34339 0.0
N1258 N 0.16805 0.31205 0.30783 0.0
N1259 N 0.17443 0.35715 0.35163 0.0
H1260 H 0.61728 0.79294 0.37527 0.0
H1261 H 0.72109 0.87762 0.30716 0.0
H1262 H 0.644 0.79339 0.26131 0.0
H1263 H 0.69431 0.87721 0.42102 0.0
H1264 H 0.693 0.84676 0.28985 0.0
H1265 H 0.64554 0.82361 0.39292 0.0
C1266 C 0.62911 0.79951 0.35394 0.0
C1267 C 0.62823 0.79066 0.31663 0.0
C1268 C 0.69323 0.85342 0.3186 0.0
C1269 C 0.66069 0.82576 0.3367 0.0
C1270 C 0.70929 0.87102 0.32856 0.0
C1271 C 0.71009 0.87995 0.36571 0.0
C1272 C 0.67782 0.84463 0.34601 0.0
C1273 C 0.69423 0.87092 0.39194 0.0
C1274 C 0.64526 0.817 0.36409 0.0
C1275 C 0.64413 0.79962 0.2905 0.0
N1276 N 0.67876 0.8537 0.38165 0.0
N1277 N 0.65969 0.81675 0.30095 0.0
H1278 H 0.11612 0.80301 0.37771 0.0
H1279 H 0.22444 0.87089 0.30069 0.0
H1280 H 0.14115 0.864 0.35551 0.0
H1281 H 0.19988 0.81052 0.32892 0.0
H1282 H 0.19359 0.86852 0.31787 0.0
H1283 H 0.14664 0.80539 0.35846 0.0
C1284 C 0.12804 0.8169 0.36898 0.0
C1285 C 0.12603 0.83329 0.36806 0.0
C1286 C 0.19499 0.85581 0.32033 0.0
C1287 C 0.16093 0.83613 0.34559 0.0
C1288 C 0.21255 0.85716 0.31034 0.0
C1289 C 0.21478 0.84096 0.31389 0.0
C1290 C 0.17961 0.83811 0.33371 0.0
C1291 C 0.19894 0.82348 0.32666 0.0
C1292 C 0.14543 0.81825 0.35775 0.0
C1293 C 0.14191 0.85091 0.356 0.0
N1294 N 0.18206 0.82254 0.33616 0.0
N1295 N 0.15869 0.85186 0.34524 0.0
H1296 H 0.69348 0.81925 0.92411 0.0
H1297 H 0.64371 0.85366 0.75894 0.0
H1298 H 0.71806 0.84215 0.80666 0.0
H1299 H 0.62114 0.83438 0.87941 0.0
H1300 H 0.67123 0.84972 0.77582 0.0
H1301 H 0.66616 0.82359 0.90738 0.0
C1302 C 0.69299 0.82496 0.89464 0.0
C1303 C 0.70806 0.83045 0.8668 0.0
C1304 C 0.66028 0.84643 0.79863 0.0
C1305 C 0.67712 0.83576 0.84767 0.0
C1306 C 0.64468 0.84887 0.78911 0.0
C1307 C 0.63007 0.84422 0.81775 0.0
C1308 C 0.66124 0.8393 0.83703 0.0
C1309 C 0.63193 0.83781 0.85623 0.0
C1310 C 0.67752 0.82762 0.88523 0.0
C1311 C 0.70686 0.83801 0.82921 0.0
N1312 N 0.64717 0.83545 0.86468 0.0
N1313 N 0.69169 0.84049 0.82076 0.0
H1314 H 0.14972 0.79069 0.76196 0.0
H1315 H 0.1827 0.87553 0.92515 0.0
H1316 H 0.16502 0.78668 0.88565 0.0
H1317 H 0.1654 0.87883 0.80279 0.0
H1318 H 0.17699 0.84316 0.91081 0.0
H1319 H 0.15477 0.82281 0.77656 0.0
C1320 C 0.15385 0.79644 0.79233 0.0
C1321 C 0.15706 0.78606 0.82259 0.0
C1322 C 0.17448 0.85099 0.88705 0.0
C1323 C 0.16326 0.8229 0.83932 0.0
C1324 C 0.17794 0.86954 0.89513 0.0
C1325 C 0.17445 0.87984 0.86515 0.0
C1326 C 0.16754 0.84272 0.8487 0.0
C1327 C 0.16801 0.87126 0.82692 0.0
C1328 C 0.15693 0.81486 0.80057 0.0
C1329 C 0.16268 0.79434 0.86129 0.0
N1330 N 0.16472 0.85319 0.81982 0.0
N1331 N 0.16569 0.8123 0.8685 0.0
H1332 H 0.12328 0.30929 0.91474 0.0
H1333 H 0.20582 0.35997 0.74696 0.0
H1334 H 0.12064 0.28508 0.79632 0.0
H1335 H 0.20602 0.3863 0.86129 0.0
H1336 H 0.17463 0.3322 0.76466 0.0
H1337 H 0.15319 0.33808 0.89506 0.0
C1338 C 0.12883 0.31015 0.8844 0.0
C1339 C 0.11954 0.2947 0.85724 0.0
C1340 C 0.18149 0.34408 0.78585 0.0
C1341 C 0.15393 0.3274 0.83477 0.0
C1342 C 0.19937 0.35983 0.7759 0.0
C1343 C 0.20848 0.37544 0.80268 0.0
C1344 C 0.17276 0.34393 0.82293 0.0
C1345 C 0.19936 0.37466 0.83955 0.0
C1346 C 0.146 0.32652 0.87328 0.0
C1347 C 0.12752 0.2965 0.81847 0.0
N1348 N 0.18201 0.35916 0.84862 0.0
N1349 N 0.14433 0.31249 0.80848 0.0
H1350 H 0.82044 0.61504 0.64309 0.0
H1351 H 0.83187 0.71521 0.71671 0.0
H1352 H 0.84499 0.64148 0.75832 0.0
H1353 H 0.81267 0.69193 0.59675 0.0
H1354 H 0.83441 0.68701 0.73422 0.0
H1355 H 0.81569 0.64209 0.62684 0.0
C1356 C 0.82481 0.62655 0.665 0.0
C1357 C 0.83307 0.626 0.70217 0.0
C1358 C 0.82955 0.688 0.70411 0.0
C1359 C 0.8277 0.657 0.68378 0.0
C1360 C 0.8281 0.70409 0.69411 0.0
C1361 C 0.82224 0.70599 0.6551 0.0
C1362 C 0.8251 0.67366 0.67488 0.0
C1363 C 0.81715 0.69098 0.62722 0.0
C1364 C 0.82214 0.642 0.65566 0.0
C1365 C 0.83875 0.64143 0.72918 0.0
N1366 N 0.81884 0.67548 0.63757 0.0
N1367 N 0.83589 0.65628 0.71949 0.0
H1368 H 0.27827 0.13921 0.65336 0.0
H1369 H 0.39207 0.19444 0.68698 0.0
H1370 H 0.31332 0.11306 0.63329 0.0
H1371 H 0.35684 0.2205 0.70579 0.0
H1372 H 0.36351 0.16462 0.66674 0.0
H1373 H 0.30697 0.16915 0.67219 0.0
C1374 C 0.29201 0.13973 0.65316 0.0
C1375 C 0.29339 0.12354 0.64217 0.0
C1376 C 0.36201 0.17686 0.67524 0.0
C1377 C 0.3264 0.15791 0.66326 0.0
C1378 C 0.37834 0.19395 0.68661 0.0
C1379 C 0.37686 0.21005 0.69785 0.0
C1380 C 0.34404 0.17583 0.67513 0.0
C1381 C 0.35861 0.20841 0.69767 0.0
C1382 C 0.30843 0.15688 0.66369 0.0
C1383 C 0.31165 0.12522 0.64141 0.0
N1384 N 0.3429 0.19159 0.68639 0.0
N1385 N 0.32746 0.14211 0.652 0.0
H1386 H 0.80636 0.19793 0.69052 0.0
H1387 H 0.86235 0.1404 0.6531 0.0
H1388 H 0.78101 0.13673 0.70985 0.0
H1389 H 0.88832 0.20191 0.63762 0.0
H1390 H 0.83239 0.13875 0.6733 0.0
H1391 H 0.83639 0.19963 0.67058 0.0
C1392 C 0.80707 0.1848 0.69034 0.0
C1393 C 0.79109 0.1671 0.70146 0.0
C1394 C 0.84463 0.15262 0.66555 0.0
C1395 C 0.82555 0.16899 0.67907 0.0
C1396 C 0.8618 0.15361 0.65421 0.0
C1397 C 0.87795 0.17138 0.64407 0.0
C1398 C 0.84353 0.16953 0.66672 0.0
C1399 C 0.8762 0.18792 0.645 0.0
C1400 C 0.82428 0.18581 0.67917 0.0
C1401 C 0.79301 0.15066 0.70167 0.0
N1402 N 0.85929 0.18661 0.65628 0.0
N1403 N 0.80993 0.15199 0.69045 0.0
H1404 H 0.94336 0.47604 0.51709 0.0
H1405 H 0.05823 0.52964 0.51901 0.0
H1406 H 0.97984 0.53385 0.47238 0.0
H1407 H 0.02189 0.47007 0.55331 0.0
H1408 H 0.02967 0.532 0.50562 0.0
H1409 H 0.97193 0.47433 0.53505 0.0
C1410 C 0.95738 0.48847 0.51144 0.0
C1411 C 0.9592 0.50515 0.49325 0.0
C1412 C 0.02792 0.5184 0.51606 0.0
C1413 C 0.992 0.50315 0.51323 0.0
C1414 C 0.04424 0.51699 0.52347 0.0
C1415 C 0.04248 0.49953 0.53685 0.0
C1416 C 0.00962 0.50227 0.52215 0.0
C1417 C 0.02394 0.48381 0.54319 0.0
C1418 C 0.9737 0.48741 0.52143 0.0
C1419 C 0.97775 0.52065 0.48592 0.0
N1420 N 0.00821 0.48553 0.53563 0.0
N1421 N 0.99345 0.51927 0.49593 0.0
H1422 H 0.48235 0.45769 0.42156 0.0
H1423 H 0.51571 0.54142 0.58755 0.0
H1424 H 0.50053 0.45397 0.54281 0.0
H1425 H 0.49701 0.54507 0.46674 0.0
H1426 H 0.51037 0.50934 0.5716 0.0
H1427 H 0.4865 0.48929 0.43817 0.0
C1428 C 0.48694 0.46339 0.45184 0.0
C1429 C 0.49124 0.45328 0.48078 0.0
C1430 C 0.50747 0.51717 0.54854 0.0
C1431 C 0.49638 0.48951 0.49978 0.0
C1432 C 0.51071 0.53557 0.55752 0.0
C1433 C 0.50675 0.54589 0.52845 0.0
C1434 C 0.50026 0.50909 0.51019 0.0
C1435 C 0.49999 0.53748 0.49021 0.0
C1436 C 0.4895 0.48151 0.46121 0.0
C1437 C 0.49737 0.46145 0.51942 0.0
N1438 N 0.49692 0.51956 0.4822 0.0
N1439 N 0.49986 0.47912 0.52773 0.0
H1440 H 0.44799 0.97804 0.54008 0.0
H1441 H 0.5567 0.02091 0.46345 0.0
H1442 H 0.47501 0.9436 0.52244 0.0
H1443 H 0.5299 0.05527 0.48489 0.0
H1444 H 0.52642 0.99204 0.482 0.0
H1445 H 0.47778 0.00647 0.51834 0.0
C1446 C 0.4602 0.97647 0.53182 0.0
C1447 C 0.45896 0.9584 0.53297 0.0
C1448 C 0.52719 0.00592 0.48261 0.0
C1449 C 0.49303 0.9908 0.50767 0.0
C1450 C 0.54442 0.02235 0.47181 0.0
C1451 C 0.54588 0.04051 0.4731 0.0
C1452 C 0.51133 0.00772 0.49459 0.0
C1453 C 0.52957 0.04161 0.48436 0.0
C1454 C 0.47716 0.99267 0.51916 0.0
C1455 C 0.47518 0.95716 0.5214 0.0
N1456 N 0.51301 0.02546 0.49476 0.0
N1457 N 0.49154 0.97314 0.50926 0.0
H1458 H 0.47207 0.94436 0.02332 0.0
H1459 H 0.52987 0.05804 0.9869 0.0
H1460 H 0.53335 0.97998 0.04169 0.0
H1461 H 0.46875 0.02233 0.9668 0.0
H1462 H 0.53142 0.02961 0.00685 0.0
H1463 H 0.47058 0.97272 1.00261 0.0
C1464 C 0.48526 0.95814 0.02276 0.0
C1465 C 0.50292 0.95978 0.03387 0.0
C1466 C 0.51765 0.02796 0.99809 0.0
C1467 C 0.50125 0.9924 0.0106 0.0
C1468 C 0.51673 0.04421 0.9869 0.0
C1469 C 0.49908 0.04256 0.97561 0.0
C1470 C 0.50081 0.00988 0.99803 0.0
C1471 C 0.48263 0.02421 0.97514 0.0
C1472 C 0.48437 0.97436 0.01112 0.0
C1473 C 0.51944 0.97809 0.03357 0.0
N1474 N 0.48387 0.00856 0.9864 0.0
N1475 N 0.51821 0.99371 0.02197 0.0
H1476 H 0.98315 0.44404 0.96688 0.0
H1477 H 0.02528 0.55239 0.04523 0.0
H1478 H 0.94832 0.46978 0.99377 0.0
H1479 H 0.05996 0.52552 0.02934 0.0
H1480 H 0.99705 0.52253 0.02342 0.0
H1481 H 0.01195 0.47444 0.98544 0.0
C1482 C 0.9816 0.45611 0.97652 0.0
C1483 C 0.96335 0.45434 0.97935 0.0
C1484 C 0.01086 0.52318 0.02466 0.0
C1485 C 0.996 0.48898 1.00066 0.0
C1486 C 0.02695 0.5402 0.03736 0.0
C1487 C 0.04503 0.5415 0.03908 0.0
C1488 C 0.01284 0.50733 0.01362 0.0
C1489 C 0.04639 0.5253 0.0279 0.0
C1490 C 0.99798 0.47339 0.98729 0.0
C1491 C 0.96207 0.47037 0.99208 0.0
N1492 N 0.0305 0.50888 0.01567 0.0
N1493 N 0.97816 0.48699 1.00232 0.0
H1494 H 0.45482 0.49993 0.95845 0.0
H1495 H 0.54921 0.50395 0.04903 0.0
H1496 H 0.46003 0.48644 0.08287 0.0
H1497 H 0.5439 0.51698 0.92433 0.0
H1498 H 0.51684 0.49822 0.0624 0.0
H1499 H 0.48739 0.50617 0.94526 0.0
C1500 C 0.46282 0.49819 0.98294 0.0
C1501 C 0.45476 0.49275 0.02185 0.0
C1502 C 0.52276 0.50243 0.03215 0.0
C1503 C 0.49207 0.49992 0.00707 0.0
C1504 C 0.54124 0.50572 0.02452 0.0
C1505 C 0.54918 0.51083 0.98547 0.0
C1506 C 0.51209 0.50422 1.00043 0.0
C1507 C 0.53837 0.51321 0.95493 0.0
C1508 C 0.4814 0.50177 0.97541 0.0
C1509 C 0.46562 0.49043 0.05237 0.0
N1510 N 0.5203 0.50975 0.963 0.0
N1511 N 0.48378 0.49415 0.04437 0.0
H1512 H 0.23831 0.1121 0.06809 0.0
H1513 H 0.18704 0.00951 0.95961 0.0
H1514 H 0.19419 0.09667 0.97755 0.0
H1515 H 0.22393 0.02351 0.06448 0.0
H1516 H 0.18812 0.04041 0.96654 0.0
H1517 H 0.23215 0.0791 0.06796 0.0
C1518 C 0.22723 0.10164 0.04824 0.0
C1519 C 0.21687 0.10708 0.02245 0.0
C1520 C 0.19582 0.03661 0.98823 0.0
C1521 C 0.20974 0.06918 0.02191 0.0
C1522 C 0.19515 0.01889 0.98446 0.0
C1523 C 0.20556 0.01389 0.01136 0.0
C1524 C 0.20705 0.04946 0.01899 0.0
C1525 C 0.21599 0.02686 0.04258 0.0
C1526 C 0.22366 0.08278 0.04824 0.0
C1527 C 0.2025 0.09298 0.99774 0.0
N1528 N 0.21657 0.04404 0.04533 0.0
N1529 N 0.19949 0.07465 0.9977 0.0
H1530 H 0.89444 0.11391 0.94859 0.0
H1531 H 0.9849 0.19143 0.07164 0.0
H1532 H 0.90288 0.10539 0.07444 0.0
H1533 H 0.9874 0.18368 0.94278 0.0
H1534 H 0.95361 0.16141 0.07397 0.0
H1535 H 0.92766 0.14093 0.9457 0.0
C1536 C 0.90344 0.11757 0.97536 0.0
C1537 C 0.89607 0.10738 0.01167 0.0
C1538 C 0.96113 0.16623 0.04529 0.0
C1539 C 0.9337 0.13848 0.00904 0.0
C1540 C 0.97886 0.18336 0.04395 0.0
C1541 C 0.98871 0.18993 0.00704 0.0
C1542 C 0.95306 0.15591 0.00928 0.0
C1543 C 0.98036 0.17896 0.97193 0.0
C1544 C 0.92233 0.13296 0.97377 0.0
C1545 C 0.90818 0.11276 0.04573 0.0
N1546 N 0.96292 0.16259 0.97382 0.0
N1547 N 0.92634 0.12814 0.04377 0.0
H1548 H 0.87706 0.75895 0.97274 0.0
H1549 H 0.82765 0.82388 1.00022 0.0
H1550 H 0.90816 0.81821 0.01229 0.0
H1551 H 0.79618 0.7623 0.98253 0.0
H1552 H 0.85789 0.82329 0.99591 0.0
H1553 H 0.84808 0.76145 0.96533 0.0
C1554 C 0.87793 0.77264 0.97894 0.0
C1555 C 0.89506 0.78836 0.9934 0.0
C1556 C 0.84435 0.80992 0.99296 0.0
C1557 C 0.86176 0.79117 0.98592 0.0
C1558 C 0.82711 0.81026 0.99539 0.0
C1559 C 0.80935 0.7931 0.99215 0.0
C1560 C 0.84383 0.79231 0.98685 0.0
C1561 C 0.80948 0.77583 0.98601 0.0
C1562 C 0.86129 0.77398 0.9752 0.0
C1563 C 0.8952 0.80564 1.00157 0.0
N1564 N 0.82642 0.77589 0.98353 0.0
N1565 N 0.87877 0.80655 0.99802 0.0
H1566 H 0.00439 0.18094 0.508 0.0
H1567 H 0.11874 0.24428 0.5368 0.0
H1568 H 0.03506 0.24228 0.52916 0.0
H1569 H 0.08987 0.18531 0.49529 0.0
H1570 H 0.08751 0.24231 0.54428 0.0
H1571 H 0.035 0.18109 0.51131 0.0
C1572 C 0.01756 0.19443 0.51335 0.0
C1573 C 0.01717 0.21164 0.51795 0.0
C1574 C 0.08798 0.22973 0.53393 0.0
C1575 C 0.0522 0.21192 0.52208 0.0
C1576 C 0.10581 0.23076 0.53015 0.0
C1577 C 0.10695 0.21497 0.51516 0.0
C1578 C 0.07112 0.21276 0.52272 0.0
C1579 C 0.08967 0.19792 0.50643 0.0
C1580 C 0.03501 0.19451 0.51522 0.0
C1581 C 0.03468 0.22873 0.52468 0.0
N1582 N 0.07249 0.19731 0.51004 0.0
N1583 N 0.05145 0.22842 0.52658 0.0
H1584 H 0.80131 0.89991 0.43651 0.0
H1585 H 0.80764 0.82013 0.56952 0.0
H1586 H 0.78329 0.8894 0.56168 0.0
H1587 H 0.79517 0.81305 0.44144 0.0
H1588 H 0.80685 0.85035 0.56802 0.0
H1589 H 0.80757 0.87292 0.43914 0.0
C1590 C 0.79912 0.89219 0.46481 0.0
C1591 C 0.79187 0.89687 0.49902 0.0
C1592 C 0.80446 0.84225 0.54022 0.0
C1593 C 0.79889 0.86609 0.50212 0.0
C1594 C 0.80504 0.82513 0.54098 0.0
C1595 C 0.80151 0.81421 0.50546 0.0
C1596 C 0.8007 0.84863 0.50354 0.0
C1597 C 0.79788 0.8211 0.46938 0.0
C1598 C 0.8025 0.87672 0.46614 0.0
C1599 C 0.78891 0.88621 0.53473 0.0
N1600 N 0.79765 0.83795 0.46926 0.0
N1601 N 0.79245 0.87129 0.5354 0.0
H1602 H 0.1063 0.90128 0.43552 0.0
H1603 H 0.18371 0.98754 0.57155 0.0
H1604 H 0.11321 0.8942 0.56298 0.0
H1605 H 0.19437 0.9804 0.44636 0.0
H1606 H 0.15323 0.9568 0.56852 0.0
H1607 H 0.13391 0.93421 0.43894 0.0
C1608 C 0.11335 0.90688 0.46443 0.0
C1609 C 0.10749 0.89517 0.49912 0.0
C1610 C 0.16219 0.96206 0.54168 0.0
C1611 C 0.13895 0.93253 0.50313 0.0
C1612 C 0.17947 0.97957 0.5433 0.0
C1613 C 0.19145 0.98641 0.50907 0.0
C1614 C 0.15671 0.95155 0.50534 0.0
C1615 C 0.1855 0.97548 0.47335 0.0
C1616 C 0.12918 0.92551 0.46623 0.0
C1617 C 0.11731 0.90288 0.53567 0.0
N1618 N 0.16845 0.95859 0.47229 0.0
N1619 N 0.13258 0.92113 0.53678 0.0
H1620 H 0.76368 0.89008 0.94377 0.0
H1621 H 0.81597 0.99316 0.05084 0.0
H1622 H 0.80839 0.90599 0.03312 0.0
H1623 H 0.77484 0.97731 0.95332 0.0
H1624 H 0.81525 0.96251 0.04251 0.0
H1625 H 0.76933 0.92289 0.94449 0.0
C1626 C 0.77478 0.90061 0.96349 0.0
C1627 C 0.78543 0.89535 0.98884 0.0
C1628 C 0.80652 0.96583 0.02272 0.0
C1629 C 0.79198 0.93303 0.99005 0.0
C1630 C 0.80699 0.9834 0.02727 0.0
C1631 C 0.79533 0.98783 1.00285 0.0
C1632 C 0.79429 0.95256 0.99361 0.0
C1633 C 0.7838 0.97441 0.97327 0.0
C1634 C 0.77804 0.91936 0.96384 0.0
C1635 C 0.79984 0.90954 0.01331 0.0
N1636 N 0.7835 0.95739 0.96966 0.0
N1637 N 0.80257 0.92775 0.01369 0.0
H1638 H 0.11204 0.87184 0.94223 0.0
H1639 H 0.0099 0.82498 0.05086 0.0
H1640 H 0.09748 0.90341 0.02731 0.0
H1641 H 0.02187 0.80013 0.94641 0.0
H1642 H 0.04125 0.85399 0.04258 0.0
H1643 H 0.07876 0.84555 0.94357 0.0
C1644 C 0.10175 0.87318 0.96125 0.0
C1645 C 0.1075 0.88965 0.98515 0.0
C1646 C 0.03692 0.84224 0.02127 0.0
C1647 C 0.06929 0.85958 0.98686 0.0
C1648 C 0.01893 0.82564 0.02582 0.0
C1649 C 0.01318 0.80988 0.99947 0.0
C1650 C 0.04935 0.84307 0.99037 0.0
C1651 C 0.02575 0.81167 0.96796 0.0
C1652 C 0.08273 0.85822 0.96184 0.0
C1653 C 0.09357 0.89087 0.00863 0.0
N1654 N 0.04326 0.82786 0.96452 0.0
N1655 N 0.07509 0.87589 0.00929 0.0
H1656 H 0.17596 0.17912 0.00981 0.0
H1657 H 0.12644 0.24386 0.03811 0.0
H1658 H 0.20737 0.24066 0.02811 0.0
H1659 H 0.09536 0.18464 0.99834 0.0
H1660 H 0.15546 0.24145 0.04501 0.0
H1661 H 0.14571 0.17968 0.01391 0.0
C1662 C 0.17648 0.19273 0.01472 0.0
C1663 C 0.19423 0.20988 0.01823 0.0
C1664 C 0.14225 0.22891 0.03516 0.0
C1665 C 0.15973 0.21064 0.02328 0.0
C1666 C 0.12559 0.2302 0.03171 0.0
C1667 C 0.10843 0.21446 0.01738 0.0
C1668 C 0.1418 0.21175 0.02429 0.0
C1669 C 0.10833 0.19722 0.00895 0.0
C1670 C 0.15924 0.19305 0.01702 0.0
C1671 C 0.19408 0.22714 0.02444 0.0
N1672 N 0.12479 0.19636 0.01223 0.0
N1673 N 0.17713 0.22707 0.02681 0.0
H1674 H 0.89134 0.7606 0.57288 0.0
H1675 H 0.99362 0.81432 0.4627 0.0
H1676 H 0.90631 0.80568 0.4847 0.0
H1677 H 0.97859 0.77229 0.55814 0.0
H1678 H 0.96287 0.81319 0.4727 0.0
H1679 H 0.92411 0.76633 0.57013 0.0
C1680 C 0.90161 0.77174 0.55286 0.0
C1681 C 0.89608 0.78248 0.52844 0.0
C1682 C 0.96639 0.80435 0.49167 0.0
C1683 C 0.93377 0.7892 0.52516 0.0
C1684 C 0.98401 0.80506 0.48616 0.0
C1685 C 0.98868 0.79327 0.50949 0.0
C1686 C 0.95332 0.79174 0.52064 0.0
C1687 C 0.97548 0.78136 0.53901 0.0
C1688 C 0.92036 0.77507 0.55143 0.0
C1689 C 0.91003 0.79704 0.5038 0.0
N1690 N 0.9584 0.78083 0.54356 0.0
N1691 N 0.92825 0.79985 0.50242 0.0
H1692 H 0.20247 0.10416 0.576 0.0
H1693 H 0.19759 0.18385 0.43995 0.0
H1694 H 0.22217 0.11521 0.45194 0.0
H1695 H 0.20634 0.19018 0.56937 0.0
H1696 H 0.19933 0.15423 0.44273 0.0
H1697 H 0.19629 0.13121 0.57259 0.0
C1698 C 0.20508 0.11204 0.54779 0.0
C1699 C 0.21273 0.10747 0.51409 0.0
C1700 C 0.20075 0.16205 0.47053 0.0
C1701 C 0.20583 0.1383 0.51011 0.0
C1702 C 0.19964 0.17884 0.46903 0.0
C1703 C 0.20179 0.18939 0.50456 0.0
C1704 C 0.20371 0.15557 0.50792 0.0
C1705 C 0.20473 0.18247 0.54136 0.0
C1706 C 0.20176 0.12754 0.54602 0.0
C1707 C 0.21622 0.11831 0.47849 0.0
N1708 N 0.20552 0.16589 0.54217 0.0
N1709 N 0.21271 0.13323 0.47737 0.0
H1710 H 0.90556 0.09899 0.4788 0.0
H1711 H 0.79894 0.02587 0.55979 0.0
H1712 H 0.87376 0.11396 0.56237 0.0
H1713 H 0.825 0.01202 0.46051 0.0
H1714 H 0.82843 0.05682 0.56722 0.0
H1715 H 0.87831 0.06559 0.47763 0.0
C1716 C 0.89292 0.09518 0.49705 0.0
C1717 C 0.89171 0.10923 0.52016 0.0
C1718 C 0.82777 0.04699 0.54389 0.0
C1719 C 0.86077 0.07135 0.51932 0.0
C1720 C 0.81088 0.02932 0.53957 0.0
C1721 C 0.80935 0.01635 0.50924 0.0
C1722 C 0.84336 0.05188 0.51764 0.0
C1723 C 0.82551 0.02147 0.48447 0.0
C1724 C 0.87739 0.07621 0.49632 0.0
C1725 C 0.8751 0.10362 0.5435 0.0
N1726 N 0.8418 0.0389 0.48901 0.0
N1727 N 0.86031 0.08519 0.54237 0.0
H1728 H 0.84736 0.33985 0.33155 0.0
H1729 H 0.91186 0.45433 0.3053 0.0
H1730 H 0.90822 0.36976 0.30529 0.0
H1731 H 0.85339 0.42591 0.34964 0.0
H1732 H 0.90919 0.4229 0.29529 0.0
H1733 H 0.84802 0.37074 0.33029 0.0
C1734 C 0.86084 0.3529 0.32542 0.0
C1735 C 0.87778 0.35221 0.31885 0.0
C1736 C 0.89687 0.42351 0.30682 0.0
C1737 C 0.87865 0.38759 0.31718 0.0
C1738 C 0.8983 0.44147 0.31207 0.0
C1739 C 0.88286 0.44279 0.32858 0.0
C1740 C 0.87986 0.4067 0.31809 0.0
C1741 C 0.86574 0.42559 0.33737 0.0
C1742 C 0.86122 0.37052 0.32477 0.0
C1743 C 0.89489 0.3696 0.31127 0.0
N1744 N 0.86475 0.40827 0.33231 0.0
N1745 N 0.89487 0.38654 0.31063 0.0
H1746 H 0.57207 0.43205 0.31385 0.0
H1747 H 0.64777 0.5368 0.39947 0.0
H1748 H 0.55874 0.46403 0.40045 0.0
H1749 H 0.65982 0.51175 0.29568 0.0
H1750 H 0.61663 0.50753 0.40686 0.0
H1751 H 0.60578 0.45859 0.31291 0.0
C1752 C 0.57629 0.44459 0.33278 0.0
C1753 C 0.56261 0.44605 0.35673 0.0
C1754 C 0.6261 0.50834 0.38257 0.0
C1755 C 0.60088 0.47616 0.3562 0.0
C1756 C 0.64388 0.52509 0.37833 0.0
C1757 C 0.65633 0.52685 0.34665 0.0
C1758 C 0.6206 0.49316 0.35486 0.0
C1759 C 0.65071 0.51101 0.32063 0.0
C1760 C 0.59545 0.4597 0.33219 0.0
C1761 C 0.56876 0.46251 0.3809 0.0
N1762 N 0.63315 0.49487 0.32506 0.0
N1763 N 0.58737 0.47689 0.37993 0.0
H1764 H 0.56207 0.12927 0.41137 0.0
H1765 H 0.4849 0.13786 0.27435 0.0
H1766 H 0.55506 0.11459 0.28428 0.0
H1767 H 0.47379 0.12002 0.39949 0.0
H1768 H 0.51522 0.13733 0.27783 0.0
H1769 H 0.53428 0.13428 0.4076 0.0
C1770 C 0.55493 0.12756 0.38249 0.0
C1771 C 0.56083 0.12164 0.34798 0.0
C1772 C 0.50619 0.13366 0.30456 0.0
C1773 C 0.52922 0.12725 0.34354 0.0
C1774 C 0.48901 0.13406 0.30268 0.0
C1775 C 0.47696 0.12899 0.33677 0.0
C1776 C 0.51151 0.12856 0.34102 0.0
C1777 C 0.48273 0.12391 0.37261 0.0
C1778 C 0.53902 0.13021 0.38047 0.0
C1779 C 0.55092 0.11923 0.31144 0.0
N1780 N 0.49969 0.12393 0.37393 0.0
N1781 N 0.53559 0.12209 0.3101 0.0
H1782 H 0.76706 0.53634 0.77196 0.0
H1783 H 0.68065 0.52875 0.90591 0.0
H1784 H 0.77415 0.55283 0.89807 0.0
H1785 H 0.68617 0.54183 0.77809 0.0
H1786 H 0.71164 0.52954 0.90417 0.0
H1787 H 0.73378 0.5299 0.77479 0.0
C1788 C 0.76143 0.53814 0.8005 0.0
C1789 C 0.77326 0.54503 0.83492 0.0
C1790 C 0.70596 0.53206 0.87647 0.0
C1791 C 0.73542 0.53784 0.83824 0.0
C1792 C 0.68828 0.53149 0.87737 0.0
C1793 C 0.68091 0.53519 0.842 0.0
C1794 C 0.71614 0.536 0.8398 0.0
C1795 C 0.69147 0.53899 0.80593 0.0
C1796 C 0.74256 0.53467 0.80195 0.0
C1797 C 0.76543 0.5475 0.87094 0.0
N1798 N 0.70855 0.53923 0.80567 0.0
N1799 N 0.74696 0.5439 0.8717 0.0
H1800 H 0.46445 0.22953 0.76594 0.0
H1801 H 0.47329 0.15251 0.90348 0.0
H1802 H 0.45135 0.22357 0.8938 0.0
H1803 H 0.45464 0.14114 0.77887 0.0
H1804 H 0.47345 0.18318 0.89976 0.0
H1805 H 0.46954 0.20179 0.76984 0.0
C1806 C 0.46316 0.22267 0.79502 0.0
C1807 C 0.45762 0.22883 0.82969 0.0
C1808 C 0.46946 0.17402 0.87319 0.0
C1809 C 0.46326 0.19722 0.83427 0.0
C1810 C 0.46946 0.15663 0.8752 0.0
C1811 C 0.46396 0.1444 0.84134 0.0
C1812 C 0.46431 0.17935 0.83682 0.0
C1813 C 0.45886 0.15021 0.80558 0.0
C1814 C 0.46584 0.20677 0.79711 0.0
C1815 C 0.45571 0.21925 0.8665 0.0
N1816 N 0.45925 0.16736 0.80413 0.0
N1817 N 0.45855 0.20389 0.86788 0.0
H1818 H 0.85111 0.32371 0.8983 0.0
H1819 H 0.77106 0.23716 0.76683 0.0
H1820 H 0.8582 0.31779 0.77045 0.0
H1821 H 0.78189 0.23007 0.89201 0.0
H1822 H 0.79813 0.27041 0.76878 0.0
H1823 H 0.82087 0.29274 0.89719 0.0
C1824 C 0.84609 0.31599 0.86988 0.0
C1825 C 0.85703 0.32324 0.83431 0.0
C1826 C 0.79438 0.26163 0.79593 0.0
C1827 C 0.82258 0.28803 0.83284 0.0
C1828 C 0.77887 0.24279 0.79498 0.0
C1829 C 0.77426 0.231 0.82941 0.0
C1830 C 0.8051 0.26876 0.83176 0.0
C1831 C 0.78502 0.2388 0.86492 0.0
C1832 C 0.82897 0.29832 0.86934 0.0
C1833 C 0.85013 0.31257 0.79841 0.0
N1834 N 0.79997 0.25724 0.86523 0.0
N1835 N 0.83326 0.2955 0.7985 0.0
H1836 H 0.45893 0.31659 0.27135 0.0
H1837 H 0.44777 0.22757 0.39551 0.0
H1838 H 0.47198 0.32132 0.3991 0.0
H1839 H 0.46584 0.23616 0.27037 0.0
H1840 H 0.45397 0.26085 0.39799 0.0
H1841 H 0.45835 0.28561 0.26992 0.0
C1842 C 0.46176 0.3111 0.29895 0.0
C1843 C 0.46561 0.32146 0.33528 0.0
C1844 C 0.45687 0.25553 0.37021 0.0
C1845 C 0.46468 0.28616 0.33417 0.0
C1846 C 0.45338 0.23663 0.36884 0.0
C1847 C 0.4565 0.2293 0.33282 0.0
C1848 C 0.46297 0.26691 0.33496 0.0
C1849 C 0.46352 0.24143 0.29885 0.0
C1850 C 0.46154 0.29356 0.29814 0.0
C1851 C 0.4692 0.31384 0.3704 0.0
N1852 N 0.46625 0.25958 0.30053 0.0
N1853 N 0.46841 0.2965 0.36911 0.0
H1854 H 0.76705 0.23216 0.27087 0.0
H1855 H 0.68136 0.15309 0.40581 0.0
H1856 H 0.77426 0.22494 0.39811 0.0
H1857 H 0.6889 0.14345 0.2802 0.0
H1858 H 0.71178 0.18393 0.40337 0.0
H1859 H 0.73434 0.20422 0.27402 0.0
C1860 C 0.76153 0.22498 0.2997 0.0
C1861 C 0.77324 0.23087 0.33438 0.0
C1862 C 0.70668 0.17511 0.37631 0.0
C1863 C 0.73607 0.19899 0.33808 0.0
C1864 C 0.68934 0.15762 0.3776 0.0
C1865 C 0.6827 0.14581 0.34307 0.0
C1866 C 0.71722 0.18098 0.34001 0.0
C1867 C 0.69366 0.15216 0.30741 0.0
C1868 C 0.743 0.20896 0.30135 0.0
C1869 C 0.76559 0.22085 0.3708 0.0
N1870 N 0.71036 0.1694 0.30669 0.0
N1871 N 0.74745 0.20538 0.37176 0.0
H1872 H 0.87723 0.56898 0.30265 0.0
H1873 H 0.7655 0.52505 0.35459 0.0
H1874 H 0.84307 0.51303 0.35831 0.0
H1875 H 0.80055 0.5782 0.28981 0.0
H1876 H 0.79292 0.51926 0.35471 0.0
H1877 H 0.84853 0.57148 0.29578 0.0
C1878 C 0.86373 0.55708 0.31312 0.0
C1879 C 0.86281 0.5408 0.33139 0.0
C1880 C 0.79453 0.53215 0.34044 0.0
C1881 C 0.82955 0.5438 0.32417 0.0
C1882 C 0.7789 0.53543 0.34033 0.0
C1883 C 0.7809 0.55233 0.32299 0.0
C1884 C 0.81213 0.54583 0.32283 0.0
C1885 C 0.79852 0.56525 0.30461 0.0
C1886 C 0.84724 0.55859 0.30937 0.0
C1887 C 0.84468 0.52603 0.3447 0.0
N1888 N 0.8134 0.56178 0.30523 0.0
N1889 N 0.8288 0.52793 0.34107 0.0
H1890 H 0.56164 0.11682 0.78189 0.0
H1891 H 0.64852 0.12044 0.90088 0.0
H1892 H 0.56948 0.1297 0.90978 0.0
H1893 H 0.65496 0.13962 0.77674 0.0
H1894 H 0.61782 0.12033 0.90453 0.0
H1895 H 0.59463 0.12231 0.77825 0.0
C1896 C 0.57049 0.12117 0.80896 0.0
C1897 C 0.56306 0.12305 0.84606 0.0
C1898 C 0.62607 0.12473 0.87665 0.0
C1899 C 0.60027 0.12862 0.84253 0.0
C1900 C 0.64344 0.12467 0.87454 0.0
C1901 C 0.65421 0.13013 0.83859 0.0
C1902 C 0.61926 0.12981 0.8422 0.0
C1903 C 0.64713 0.13554 0.80514 0.0
C1904 C 0.58922 0.12425 0.80694 0.0
C1905 C 0.57489 0.1284 0.88052 0.0
N1906 N 0.62997 0.13502 0.80757 0.0
N1907 N 0.59285 0.13072 0.87809 0.0
H1908 H 0.85488 0.51439 0.79722 0.0
H1909 H 0.91173 0.46748 0.90114 0.0
H1910 H 0.89966 0.54295 0.88677 0.0
H1911 H 0.86445 0.43609 0.81839 0.0
H1912 H 0.90607 0.49458 0.89836 0.0
H1913 H 0.85654 0.48502 0.80686 0.0
C1914 C 0.86488 0.51446 0.81932 0.0
C1915 C 0.87725 0.53128 0.84109 0.0
C1916 C 0.89684 0.4818 0.88084 0.0
C1917 C 0.87938 0.49769 0.85181 0.0
C1918 C 0.90013 0.46633 0.88227 0.0
C1919 C 0.88874 0.44965 0.8594 0.0
C1920 C 0.88207 0.48072 0.85616 0.0
C1921 C 0.87361 0.44876 0.83629 0.0
C1922 C 0.86589 0.49767 0.82461 0.0
C1923 C 0.89009 0.53048 0.86885 0.0
N1924 N 0.87082 0.46419 0.83491 0.0
N1925 N 0.89088 0.51404 0.87324 0.0
H1926 H 0.49059 0.34268 0.79447 0.0
H1927 H 0.53792 0.444 0.90849 0.0
H1928 H 0.46275 0.35672 0.88976 0.0
H1929 H 0.56886 0.43006 0.82048 0.0
H1930 H 0.51109 0.41111 0.90461 0.0
H1931 H 0.52012 0.37336 0.80616 0.0
C1932 C 0.49073 0.35205 0.81824 0.0
C1933 C 0.47407 0.34715 0.84101 0.0
C1934 C 0.52373 0.4151 0.88621 0.0
C1935 C 0.50779 0.38241 0.85413 0.0
C1936 C 0.53902 0.43392 0.88832 0.0
C1937 C 0.55546 0.43977 0.86426 0.0
C1938 C 0.52472 0.40197 0.85958 0.0
C1939 C 0.55636 0.42607 0.83932 0.0
C1940 C 0.5076 0.36964 0.82473 0.0
C1941 C 0.47511 0.36004 0.87102 0.0
N1942 N 0.54106 0.40779 0.83724 0.0
N1943 N 0.49161 0.37708 0.87651 0.0
H1944 H 0.55689 0.68699 0.73557 0.0
H1945 H 0.52893 0.76335 0.6492 0.0
H1946 H 0.52143 0.67597 0.62928 0.0
H1947 H 0.57384 0.77642 0.73664 0.0
H1948 H 0.52186 0.72967 0.64768 0.0
H1949 H 0.55895 0.71822 0.74293 0.0
C1950 C 0.54948 0.69111 0.71384 0.0
C1951 C 0.53919 0.6789 0.68151 0.0
C1952 C 0.53321 0.73995 0.66726 0.0
C1953 C 0.5414 0.71472 0.6898 0.0
C1954 C 0.53719 0.75908 0.66819 0.0
C1955 C 0.55218 0.77268 0.69258 0.0
C1956 C 0.54413 0.73444 0.69138 0.0
C1957 C 0.56242 0.76646 0.71679 0.0
C1958 C 0.55061 0.70894 0.7181 0.0
C1959 C 0.52948 0.68484 0.65478 0.0
N1960 N 0.55823 0.74786 0.71551 0.0
N1961 N 0.53096 0.70242 0.65931 0.0
H1962 H 0.31325 0.87392 0.72811 0.0
H1963 H 0.23827 0.76607 0.65704 0.0
H1964 H 0.32546 0.84531 0.63145 0.0
H1965 H 0.22551 0.79905 0.74209 0.0
H1966 H 0.27161 0.79311 0.65247 0.0
H1967 H 0.28233 0.84477 0.73891 0.0
C1968 C 0.30943 0.86149 0.70918 0.0
C1969 C 0.32191 0.86218 0.67858 0.0
C1970 C 0.26149 0.79434 0.67223 0.0
C1971 C 0.28642 0.82856 0.69082 0.0
C1972 C 0.24254 0.77892 0.67493 0.0
C1973 C 0.22908 0.78048 0.69945 0.0
C1974 C 0.26696 0.81127 0.6946 0.0
C1975 C 0.23532 0.7974 0.72214 0.0
C1976 C 0.29178 0.84479 0.71543 0.0
C1977 C 0.31636 0.84543 0.65552 0.0
N1978 N 0.25373 0.81211 0.71904 0.0
N1979 N 0.29894 0.82935 0.6619 0.0
H1980 H 0.22448 0.45115 0.60658 0.0
H1981 H 0.14158 0.45447 0.72797 0.0
H1982 H 0.22948 0.46311 0.73492 0.0
H1983 H 0.15372 0.47374 0.60381 0.0
H1984 H 0.17222 0.45445 0.73077 0.0
H1985 H 0.19709 0.45685 0.6037 0.0
C1986 C 0.22 0.45533 0.63393 0.0
C1987 C 0.22929 0.45687 0.67094 0.0
C1988 C 0.16824 0.45886 0.70306 0.0
C1989 C 0.19777 0.46272 0.66821 0.0
C1990 C 0.15078 0.45876 0.70144 0.0
C1991 C 0.14527 0.4642 0.66574 0.0
C1992 C 0.17997 0.46395 0.66836 0.0
C1993 C 0.15762 0.46968 0.63205 0.0
C1994 C 0.20442 0.45854 0.63232 0.0
C1995 C 0.22284 0.46207 0.70571 0.0
N1996 N 0.17431 0.46919 0.63399 0.0
N1997 N 0.20727 0.46451 0.70365 0.0
H1998 H 0.34746 0.8618 0.23621 0.0
H1999 H 0.43347 0.86905 0.10173 0.0
H2000 H 0.35314 0.8758 0.10885 0.0
H2001 H 0.4412 0.8866 0.2272 0.0
H2002 H 0.40022 0.86272 0.10491 0.0
H2003 H 0.37839 0.86247 0.23402 0.0
C2004 C 0.35512 0.86471 0.20766 0.0
C2005 C 0.34783 0.86871 0.17256 0.0
C2006 C 0.40913 0.86769 0.13185 0.0
C2007 C 0.38294 0.86936 0.16983 0.0
C2008 C 0.42797 0.8711 0.1302 0.0
C2009 C 0.43996 0.87825 0.16435 0.0
C2010 C 0.40219 0.87115 0.16809 0.0
C2011 C 0.43233 0.88105 0.20031 0.0
C2012 C 0.37275 0.86521 0.20651 0.0
C2013 C 0.3584 0.87272 0.13647 0.0
N2014 N 0.41387 0.87747 0.20129 0.0
N2015 N 0.37543 0.87287 0.13594 0.0
H2016 H 0.11916 0.4728 0.11307 0.0
H2017 H 0.12095 0.55752 0.2374 0.0
H2018 H 0.14178 0.48542 0.23477 0.0
H2019 H 0.13051 0.56199 0.10816 0.0
H2020 H 0.12589 0.52962 0.23866 0.0
H2021 H 0.11989 0.50386 0.11141 0.0
C2022 C 0.12433 0.48219 0.13929 0.0
C2023 C 0.13051 0.47671 0.17395 0.0
C2024 C 0.12725 0.53694 0.21018 0.0
C2025 C 0.13114 0.51187 0.17266 0.0
C2026 C 0.1245 0.55284 0.20951 0.0
C2027 C 0.12559 0.56212 0.17273 0.0
C2028 C 0.13048 0.52999 0.17363 0.0
C2029 C 0.12988 0.55536 0.1372 0.0
C2030 C 0.12486 0.49988 0.1383 0.0
C2031 C 0.13712 0.48929 0.2073 0.0
N2032 N 0.13186 0.53949 0.1384 0.0
N2033 N 0.13704 0.50621 0.20605 0.0
H2034 H 0.46504 0.55871 0.10014 0.0
H2035 H 0.51202 0.65919 0.21766 0.0
H2036 H 0.43391 0.57136 0.19012 0.0
H2037 H 0.53899 0.64668 0.11811 0.0
H2038 H 0.48261 0.62825 0.20631 0.0
H2039 H 0.49153 0.59175 0.10463 0.0
C2040 C 0.46382 0.56854 0.12088 0.0
C2041 C 0.44741 0.56227 0.14524 0.0
C2042 C 0.49492 0.63238 0.18675 0.0
C2043 C 0.4778 0.60028 0.15067 0.0
C2044 C 0.5117 0.6501 0.19306 0.0
C2045 C 0.52811 0.65549 0.169 0.0
C2046 C 0.49456 0.61998 0.15621 0.0
C2047 C 0.52686 0.64298 0.13788 0.0
C2048 C 0.47892 0.58744 0.12334 0.0
C2049 C 0.44638 0.57567 0.17099 0.0
N2050 N 0.51047 0.62582 0.13259 0.0
N2051 N 0.46151 0.59405 0.17342 0.0
H2052 H 0.12809 0.65206 0.60889 0.0
H2053 H 0.11504 0.56059 0.72587 0.0
H2054 H 0.1398 0.65436 0.737 0.0
H2055 H 0.13372 0.57106 0.60114 0.0
H2056 H 0.12173 0.59397 0.73107 0.0
H2057 H 0.12745 0.62111 0.60493 0.0
C2058 C 0.13066 0.64606 0.63604 0.0
C2059 C 0.13409 0.65571 0.67322 0.0
C2060 C 0.12465 0.58903 0.70278 0.0
C2061 C 0.13307 0.62039 0.66922 0.0
C2062 C 0.12085 0.57006 0.69985 0.0
C2063 C 0.12399 0.56321 0.66314 0.0
C2064 C 0.13109 0.60101 0.66842 0.0
C2065 C 0.13135 0.57592 0.6301 0.0
C2066 C 0.13039 0.62852 0.63379 0.0
C2067 C 0.13734 0.64743 0.70768 0.0
N2068 N 0.13438 0.59414 0.63331 0.0
N2069 N 0.13649 0.63009 0.70498 0.0
H2070 H 0.44507 0.53772 0.60562 0.0
H2071 H 0.34169 0.48913 0.71172 0.0
H2072 H 0.42965 0.56773 0.69301 0.0
H2073 H 0.35837 0.46147 0.62098 0.0
H2074 H 0.37244 0.5189 0.70197 0.0
H2075 H 0.41224 0.5107 0.60743 0.0
C2076 C 0.43466 0.53859 0.62519 0.0
C2077 C 0.44009 0.55481 0.6497 0.0
C2078 C 0.36929 0.50636 0.68397 0.0
C2079 C 0.40234 0.52382 0.65207 0.0
C2080 C 0.35167 0.48936 0.68933 0.0
C2081 C 0.34747 0.47268 0.66727 0.0
C2082 C 0.38279 0.50669 0.65636 0.0
C2083 C 0.36111 0.47383 0.63911 0.0
C2084 C 0.41589 0.52317 0.62615 0.0
C2085 C 0.426 0.5554 0.67385 0.0
N2086 N 0.37814 0.49047 0.63464 0.0
N2087 N 0.40775 0.53998 0.67482 0.0
H2088 H 0.44659 0.88487 0.73159 0.0
H2089 H 0.52569 0.87601 0.60676 0.0
H2090 H 0.43844 0.86904 0.60512 0.0
H2091 H 0.51703 0.86216 0.73417 0.0
H2092 H 0.49514 0.87623 0.60525 0.0
H2093 H 0.47372 0.87879 0.73382 0.0
C2094 C 0.45032 0.87974 0.70457 0.0
C2095 C 0.44023 0.87725 0.66825 0.0
C2096 C 0.49985 0.87294 0.63341 0.0
C2097 C 0.47147 0.87094 0.67013 0.0
C2098 C 0.51727 0.87293 0.63428 0.0
C2099 C 0.52375 0.86897 0.67052 0.0
C2100 C 0.48914 0.86944 0.66932 0.0
C2101 C 0.51238 0.86504 0.70551 0.0
C2102 C 0.46577 0.87633 0.70578 0.0
C2103 C 0.44572 0.87085 0.63383 0.0
N2104 N 0.49573 0.86561 0.70417 0.0
N2105 N 0.46118 0.8682 0.63542 0.0
H2106 H 0.23677 0.46478 0.23973 0.0
H2107 H 0.32249 0.47237 0.10347 0.0
H2108 H 0.22899 0.4482 0.11365 0.0
H2109 H 0.31758 0.45895 0.23108 0.0
H2110 H 0.29141 0.47135 0.10619 0.0
H2111 H 0.26991 0.47083 0.23618 0.0
C2112 C 0.24221 0.46284 0.21108 0.0
C2113 C 0.23024 0.45608 0.17684 0.0
C2114 C 0.29723 0.46879 0.13363 0.0
C2115 C 0.26792 0.46286 0.17268 0.0
C2116 C 0.31497 0.4695 0.13217 0.0
C2117 C 0.32254 0.46579 0.1672 0.0
C2118 C 0.2872 0.46471 0.17052 0.0
C2119 C 0.31211 0.46181 0.20349 0.0
C2120 C 0.261 0.4661 0.20921 0.0
C2121 C 0.23783 0.45343 0.14064 0.0
N2122 N 0.29498 0.46146 0.20431 0.0
N2123 N 0.25623 0.45686 0.13945 0.0
H2124 H 0.53198 0.85165 0.10494 0.0
H2125 H 0.54008 0.7747 0.2439 0.0
H2126 H 0.5502 0.86328 0.22976 0.0
H2127 H 0.55438 0.78087 0.11663 0.0
H2128 H 0.53525 0.8026 0.23934 0.0
H2129 H 0.53214 0.82115 0.10912 0.0
C2130 C 0.53581 0.84763 0.13333 0.0
C2131 C 0.54108 0.85988 0.16713 0.0
C2132 C 0.53917 0.79764 0.21234 0.0
C2133 C 0.54106 0.8251 0.17221 0.0
C2134 C 0.5417 0.78166 0.2148 0.0
C2135 C 0.54748 0.77549 0.18048 0.0
C2136 C 0.54212 0.80726 0.17516 0.0
C2137 C 0.54982 0.78519 0.14364 0.0
C2138 C 0.53599 0.83034 0.13562 0.0
C2139 C 0.54617 0.8542 0.20309 0.0
N2140 N 0.54709 0.80061 0.14189 0.0
N2141 N 0.54592 0.83712 0.20482 0.0
H2142 H 0.12769 0.69063 0.22383 0.0
H2143 H 0.23664 0.76249 0.15457 0.0
H2144 H 0.157 0.67528 0.13442 0.0
H2145 H 0.20377 0.77775 0.23446 0.0
H2146 H 0.20923 0.72928 0.15199 0.0
H2147 H 0.15705 0.72152 0.23334 0.0
C2148 C 0.14033 0.69375 0.20625 0.0
C2149 C 0.13979 0.68039 0.17806 0.0
C2150 C 0.2081 0.73992 0.17018 0.0
C2151 C 0.17362 0.71583 0.18879 0.0
C2152 C 0.22373 0.7588 0.17172 0.0
C2153 C 0.2223 0.77291 0.19415 0.0
C2154 C 0.19111 0.73519 0.19159 0.0
C2155 C 0.20531 0.76742 0.21603 0.0
C2156 C 0.15714 0.71138 0.21176 0.0
C2157 C 0.15676 0.68507 0.15667 0.0
N2158 N 0.1904 0.74907 0.21404 0.0
N2159 N 0.17295 0.70248 0.16223 0.0
H2160 H 0.25785 0.23435 0.16599 0.0
H2161 H 0.18015 0.20041 0.34549 0.0
H2162 H 0.20466 0.17989 0.16845 0.0
H2163 H 0.23209 0.25596 0.34431 0.0
H2164 H 0.1897 0.19257 0.2814 0.0
H2165 H 0.24924 0.24267 0.23132 0.0
C2166 C 0.24432 0.22419 0.18016 0.0
C2167 C 0.23194 0.2064 0.16172 0.0
C2168 C 0.19909 0.20647 0.29509 0.0
C2169 C 0.22209 0.21575 0.23652 0.0
C2170 C 0.19365 0.21095 0.33183 0.0
C2171 C 0.20533 0.2289 0.35027 0.0
C2172 C 0.21635 0.22003 0.27637 0.0
C2173 C 0.22268 0.24195 0.33114 0.0
C2174 C 0.23945 0.22892 0.21749 0.0
C2175 C 0.21464 0.19376 0.18149 0.0
N2176 N 0.22765 0.23729 0.29511 0.0
N2177 N 0.21027 0.19867 0.21776 0.0
H2178 H 0.7682 0.02527 0.16583 0.0
H2179 H 0.80029 0.97977 0.34543 0.0
H2180 H 0.82165 0.02456 0.16756 0.0
H2181 H 0.74567 0.97812 0.34429 0.0
H2182 H 0.80837 0.99677 0.2807 0.0
H2183 H 0.75949 0.00819 0.23101 0.0
C2184 C 0.77805 0.02143 0.1798 0.0
C2185 C 0.79568 0.02635 0.16122 0.0
C2186 C 0.79462 0.99275 0.29455 0.0
C2187 C 0.78589 0.00695 0.23586 0.0
C2188 C 0.79001 0.98307 0.33164 0.0
C2189 C 0.77226 0.97751 0.35033 0.0
C2190 C 0.78141 0.99694 0.27578 0.0
C2191 C 0.75953 0.98217 0.33096 0.0
C2192 C 0.77309 0.01173 0.21705 0.0
C2193 C 0.80791 0.02107 0.18073 0.0
N2194 N 0.76433 0.99159 0.29468 0.0
N2195 N 0.8028 0.01172 0.21694 0.0
H2196 H 0.02617 0.76755 0.34367 0.0
H2197 H 0.98124 0.80125 0.16589 0.0
H2198 H 0.02568 0.82115 0.34337 0.0
H2199 H 0.97703 0.74542 0.16698 0.0
H2200 H 0.99876 0.80896 0.22982 0.0
H2201 H 0.00895 0.75914 0.27856 0.0
C2202 C 0.02237 0.7775 0.33003 0.0
C2203 C 0.02736 0.79507 0.34901 0.0
C2204 C 0.99407 0.79502 0.21616 0.0
C2205 C 0.00784 0.78563 0.27451 0.0
C2206 C 0.9841 0.79062 0.17948 0.0
C2207 C 0.97763 0.77264 0.16103 0.0
C2208 C 0.99767 0.78137 0.23479 0.0
C2209 C 0.98177 0.75947 0.18015 0.0
C2210 C 0.01259 0.77271 0.29285 0.0
C2211 C 0.02213 0.80744 0.32992 0.0
N2212 N 0.9915 0.76407 0.21607 0.0
N2213 N 0.01272 0.8025 0.29379 0.0
H2214 H 0.74512 0.76934 0.8437 0.0
H2215 H 0.82273 0.80226 0.66428 0.0
H2216 H 0.79898 0.82318 0.84303 0.0
H2217 H 0.76777 0.74963 0.6614 0.0
H2218 H 0.81404 0.81029 0.72944 0.0
H2219 H 0.75319 0.76163 0.77729 0.0
C2220 C 0.7587 0.77949 0.8297 0.0
C2221 C 0.77141 0.79692 0.84892 0.0
C2222 C 0.80382 0.79703 0.7145 0.0
C2223 C 0.78067 0.78828 0.77282 0.0
C2224 C 0.80875 0.79246 0.6772 0.0
C2225 C 0.79596 0.77523 0.65742 0.0
C2226 C 0.78599 0.78423 0.73232 0.0
C2227 C 0.77805 0.76308 0.67559 0.0
C2228 C 0.76326 0.77512 0.7917 0.0
C2229 C 0.78877 0.80956 0.82932 0.0
N2230 N 0.77363 0.76777 0.71213 0.0
N2231 N 0.79287 0.805 0.79236 0.0
H2232 H 0.20253 0.02296 0.66655 0.0
H2233 H 0.23651 0.98079 0.84919 0.0
H2234 H 0.25716 0.02465 0.66754 0.0
H2235 H 0.18205 0.97942 0.84604 0.0
H2236 H 0.24479 0.99734 0.78349 0.0
H2237 H 0.19493 0.0069 0.73237 0.0
C2238 C 0.2129 0.01984 0.68052 0.0
C2239 C 0.23051 0.02516 0.6615 0.0
C2240 C 0.23106 0.99349 0.79728 0.0
C2241 C 0.22196 0.00687 0.73727 0.0
C2242 C 0.22637 0.98412 0.83487 0.0
C2243 C 0.20856 0.97871 0.85313 0.0
C2244 C 0.21783 0.99746 0.77781 0.0
C2245 C 0.19594 0.98332 0.83312 0.0
C2246 C 0.20857 0.01072 0.71823 0.0
C2247 C 0.24339 0.02077 0.6811 0.0
N2248 N 0.2008 0.99236 0.79654 0.0
N2249 N 0.23888 0.01192 0.71798 0.0
H2250 H 0.02523 0.25729 0.84834 0.0
H2251 H 0.97786 0.18078 0.66719 0.0
H2252 H 0.023 0.20239 0.84449 0.0
H2253 H 0.97823 0.2348 0.66975 0.0
H2254 H 0.99478 0.18891 0.73203 0.0
H2255 H 0.00796 0.24959 0.78339 0.0
C2256 C 0.021 0.24358 0.83399 0.0
C2257 C 0.02557 0.23047 0.85185 0.0
C2258 C 0.99122 0.19904 0.71846 0.0
C2259 C 0.00598 0.22164 0.77752 0.0
C2260 C 0.98159 0.19441 0.68132 0.0
C2261 C 0.97662 0.20713 0.663 0.0
C2262 C 0.99595 0.21652 0.73763 0.0
C2263 C 0.98181 0.22458 0.68279 0.0
C2264 C 0.01121 0.23922 0.79687 0.0
C2265 C 0.01981 0.21295 0.83186 0.0
N2266 N 0.99117 0.22876 0.71908 0.0
N2267 N 0.01038 0.20909 0.79582 0.0
H2268 H 0.92528 0.56879 0.50004 0.0
H2269 H 0.84729 0.53906 0.67809 0.0
H2270 H 0.86997 0.51657 0.50146 0.0
H2271 H 0.90002 0.59393 0.67543 0.0
H2272 H 0.85613 0.53063 0.61383 0.0
H2273 H 0.9169 0.57854 0.56404 0.0
C2274 C 0.91134 0.55945 0.51362 0.0
C2275 C 0.89831 0.54183 0.49537 0.0
C2276 C 0.86583 0.54453 0.62717 0.0
C2277 C 0.88872 0.55279 0.56863 0.0
C2278 C 0.8608 0.54935 0.66403 0.0
C2279 C 0.87293 0.56724 0.68222 0.0
C2280 C 0.88318 0.55767 0.60811 0.0
C2281 C 0.89024 0.57997 0.66248 0.0
C2282 C 0.90659 0.565 0.55019 0.0
C2283 C 0.88048 0.53027 0.51438 0.0
N2284 N 0.89486 0.57494 0.62644 0.0
N2285 N 0.87627 0.53591 0.54992 0.0
H2286 H 0.48787 0.35516 0.49399 0.0
H2287 H 0.40997 0.30817 0.67267 0.0
H2288 H 0.43339 0.35378 0.49267 0.0
H2289 H 0.46494 0.31057 0.67228 0.0
H2290 H 0.41788 0.32455 0.60674 0.0
H2291 H 0.47909 0.338 0.55857 0.0
C2292 C 0.47397 0.35112 0.50715 0.0
C2293 C 0.46135 0.35594 0.4879 0.0
C2294 C 0.42821 0.32152 0.62113 0.0
C2295 C 0.45124 0.33638 0.56231 0.0
C2296 C 0.42374 0.31223 0.65884 0.0
C2297 C 0.43683 0.30802 0.67805 0.0
C2298 C 0.4459 0.32661 0.6025 0.0
C2299 C 0.45442 0.31355 0.65865 0.0
C2300 C 0.46898 0.34136 0.54417 0.0
C2301 C 0.44354 0.35032 0.50644 0.0
N2302 N 0.45841 0.32251 0.622 0.0
N2303 N 0.43904 0.34091 0.54271 0.0
H2304 H 0.68953 0.15541 0.67964 0.0
H2305 H 0.6464 0.07882 0.4978 0.0
H2306 H 0.69206 0.10289 0.67801 0.0
H2307 H 0.64536 0.13211 0.50133 0.0
H2308 H 0.66311 0.08705 0.56341 0.0
H2309 H 0.67283 0.14655 0.61462 0.0
C2310 C 0.68647 0.14193 0.6657 0.0
C2311 C 0.69222 0.12988 0.68431 0.0
C2312 C 0.65926 0.09695 0.54973 0.0
C2313 C 0.67315 0.11966 0.60939 0.0
C2314 C 0.64979 0.0923 0.51223 0.0
C2315 C 0.64448 0.1048 0.49406 0.0
C2316 C 0.66342 0.11423 0.56918 0.0
C2317 C 0.64917 0.12203 0.51418 0.0
C2318 C 0.67697 0.1369 0.62843 0.0
C2319 C 0.68786 0.11259 0.66475 0.0
N2320 N 0.65831 0.12619 0.5506 0.0
N2321 N 0.67862 0.10802 0.62827 0.0
H2322 H 0.46697 0.15526 0.17937 0.0
H2323 H 0.43475 0.07839 0.99829 0.0
H2324 H 0.41248 0.10209 0.17789 0.0
H2325 H 0.48845 0.13236 1.00102 0.0
H2326 H 0.42608 0.08652 0.06374 0.0
H2327 H 0.47508 0.1466 0.11437 0.0
C2328 C 0.45673 0.14169 0.16546 0.0
C2329 C 0.43901 0.12938 0.1841 0.0
C2330 C 0.43973 0.0966 0.04993 0.0
C2331 C 0.44817 0.1194 0.10926 0.0
C2332 C 0.44466 0.09199 0.01251 0.0
C2333 C 0.46235 0.10471 0.99416 0.0
C2334 C 0.45261 0.11404 0.06913 0.0
C2335 C 0.47466 0.12211 0.01402 0.0
C2336 C 0.46136 0.13677 0.12822 0.0
C2337 C 0.42632 0.11199 0.16461 0.0
N2338 N 0.46957 0.12622 0.05039 0.0
N2339 N 0.43113 0.10753 0.12818 0.0
H2340 H 0.84442 0.30945 0.17109 0.0
H2341 H 0.92056 0.35185 0.98839 0.0
H2342 H 0.89681 0.30673 0.16825 0.0
H2343 H 0.8688 0.35565 0.99409 0.0
H2344 H 0.91152 0.33402 0.05253 0.0
H2345 H 0.85275 0.32551 0.10519 0.0
C2346 C 0.85771 0.31227 0.15664 0.0
C2347 C 0.86996 0.30677 0.17526 0.0
C2348 C 0.90209 0.33866 0.03964 0.0
C2349 C 0.87957 0.32512 0.0995 0.0
C2350 C 0.90721 0.34877 1.00292 0.0
C2351 C 0.89544 0.35528 0.98589 0.0
C2352 C 0.88508 0.33504 0.05949 0.0
C2353 C 0.87833 0.35094 0.00613 0.0
C2354 C 0.86245 0.32142 0.11891 0.0
C2355 C 0.88697 0.31077 0.15503 0.0
N2356 N 0.87372 0.34116 0.04188 0.0
N2357 N 0.89127 0.3197 0.11824 0.0
H2358 H 0.64963 0.56939 0.99679 0.0
H2359 H 0.69196 0.53601 0.18025 0.0
H2360 H 0.64726 0.51444 1.00166 0.0
H2361 H 0.69245 0.5901 0.17899 0.0
H2362 H 0.67594 0.52814 0.1143 0.0
H2363 H 0.66634 0.57785 0.06226 0.0
C2364 C 0.65279 0.55919 0.01143 0.0
C2365 C 0.64703 0.54118 0.99377 0.0
C2366 C 0.67949 0.54171 0.12845 0.0
C2367 C 0.66594 0.55066 0.06883 0.0
C2368 C 0.68858 0.54619 0.16622 0.0
C2369 C 0.69353 0.56373 0.18519 0.0
C2370 C 0.67534 0.5549 0.10934 0.0
C2371 C 0.68884 0.57638 0.1655 0.0
C2372 C 0.66224 0.56398 0.0489 0.0
C2373 C 0.65142 0.52848 0.01417 0.0
N2374 N 0.68006 0.57174 0.12859 0.0
N2375 N 0.66055 0.53344 0.05062 0.0
H2376 H 0.56723 0.92556 0.00856 0.0
H2377 H 0.53544 0.84742 0.83012 0.0
H2378 H 0.5144 0.87076 0.00855 0.0
H2379 H 0.58849 0.902 0.82781 0.0
H2380 H 0.52732 0.85629 0.8949 0.0
H2381 H 0.57544 0.91752 0.94248 0.0
C2382 C 0.55742 0.9118 0.99479 0.0
C2383 C 0.54011 0.8988 0.01412 0.0
C2384 C 0.54071 0.8664 0.88022 0.0
C2385 C 0.54931 0.88959 0.93843 0.0
C2386 C 0.54532 0.86136 0.8431 0.0
C2387 C 0.56268 0.87398 0.82352 0.0
C2388 C 0.55356 0.88419 0.89814 0.0
C2389 C 0.57493 0.89185 0.84183 0.0
C2390 C 0.56207 0.90725 0.957 0.0
C2391 C 0.5279 0.88122 0.9948 0.0
N2392 N 0.57018 0.89639 0.87821 0.0
N2393 N 0.53272 0.87716 0.95809 0.0
H2394 H 0.13223 0.64212 0.014 0.0
H2395 H 0.09841 0.68432 0.83092 0.0
H2396 H 0.07639 0.63772 0.00999 0.0
H2397 H 0.15385 0.68788 0.83708 0.0
H2398 H 0.08947 0.66644 0.89515 0.0
H2399 H 0.14 0.65853 0.94857 0.0
C2400 C 0.1216 0.64466 0.9994 0.0
C2401 C 0.10363 0.63856 0.01757 0.0
C2402 C 0.10355 0.67105 0.88231 0.0
C2403 C 0.11242 0.65733 0.94221 0.0
C2404 C 0.10863 0.68118 0.84556 0.0
C2405 C 0.12691 0.68763 0.82861 0.0
C2406 C 0.11686 0.66736 0.90227 0.0
C2407 C 0.1396 0.68323 0.84901 0.0
C2408 C 0.12603 0.65401 0.96191 0.0
C2409 C 0.09043 0.64222 0.99712 0.0
N2410 N 0.13437 0.67345 0.88474 0.0
N2411 N 0.09508 0.65137 0.96052 0.0
H2412 H 0.30617 0.40783 0.83231 0.0
H2413 H 0.35491 0.48705 0.00819 0.0
H2414 H 0.30897 0.46302 0.83154 0.0
H2415 H 0.3533 0.43243 0.01059 0.0
H2416 H 0.33705 0.47777 0.94447 0.0
H2417 H 0.32283 0.41603 0.89795 0.0
C2418 C 0.31034 0.42169 0.84586 0.0
C2419 C 0.30619 0.43477 0.82637 0.0
C2420 C 0.3405 0.46774 0.95893 0.0
C2421 C 0.32513 0.4442 0.90153 0.0
C2422 C 0.35067 0.47302 0.99545 0.0
C2423 C 0.35564 0.46051 0.01474 0.0
C2424 C 0.33527 0.44981 0.94132 0.0
C2425 C 0.34975 0.44251 0.99677 0.0
C2426 C 0.3198 0.42634 0.88338 0.0
C2427 C 0.31188 0.45249 0.84539 0.0
N2428 N 0.33994 0.43773 0.96096 0.0
N2429 N 0.32102 0.45666 0.88183 0.0
H2430 H 0.13362 0.48861 0.50729 0.0
H2431 H 0.10189 0.41012 0.32952 0.0
H2432 H 0.07948 0.43508 0.50794 0.0
H2433 H 0.15525 0.46443 0.3309 0.0
H2434 H 0.09314 0.41861 0.39455 0.0
H2435 H 0.14173 0.47944 0.44295 0.0
C2436 C 0.12345 0.47486 0.49397 0.0
C2437 C 0.10583 0.4626 0.51304 0.0
C2438 C 0.10673 0.42867 0.38053 0.0
C2439 C 0.115 0.45199 0.43891 0.0
C2440 C 0.11171 0.42385 0.34337 0.0
C2441 C 0.12933 0.43658 0.32475 0.0
C2442 C 0.11949 0.44632 0.39916 0.0
C2443 C 0.14152 0.45416 0.34411 0.0
C2444 C 0.12808 0.46963 0.4571 0.0
C2445 C 0.09324 0.44495 0.4943 0.0
N2446 N 0.13639 0.45847 0.38019 0.0
N2447 N 0.09804 0.44019 0.4582 0.0
H2448 H 0.53707 0.69174 0.33614 0.0
H2449 H 0.56957 0.64709 0.51663 0.0
H2450 H 0.59154 0.69309 0.33751 0.0
H2451 H 0.5152 0.64592 0.51336 0.0
H2452 H 0.57834 0.66453 0.45199 0.0
H2453 H 0.52902 0.67505 0.4013 0.0
C2454 C 0.54732 0.68844 0.35007 0.0
C2455 C 0.56501 0.69381 0.33132 0.0
C2456 C 0.56453 0.66053 0.46551 0.0
C2457 C 0.55592 0.67476 0.40629 0.0
C2458 C 0.55955 0.65064 0.5025 0.0
C2459 C 0.54162 0.64503 0.52042 0.0
C2460 C 0.55147 0.66482 0.44627 0.0
C2461 C 0.52917 0.64995 0.50067 0.0
C2462 C 0.54273 0.67894 0.38739 0.0
C2463 C 0.57772 0.68917 0.35086 0.0
N2464 N 0.5343 0.65949 0.46466 0.0
N2465 N 0.57295 0.67994 0.38732 0.0
H2466 H 0.31453 0.84696 0.33179 0.0
H2467 H 0.36181 0.92529 0.50965 0.0
H2468 H 0.31654 0.90177 0.32962 0.0
H2469 H 0.35912 0.87016 0.51029 0.0
H2470 H 0.34554 0.91728 0.44365 0.0
H2471 H 0.33167 0.85577 0.39642 0.0
C2472 C 0.31871 0.86093 0.34476 0.0
C2473 C 0.31407 0.87364 0.32527 0.0
C2474 C 0.34848 0.90693 0.45828 0.0
C2475 C 0.33359 0.88378 0.3997 0.0
C2476 C 0.35771 0.91146 0.49603 0.0
C2477 C 0.36181 0.89836 0.51555 0.0
C2478 C 0.34333 0.88916 0.43991 0.0
C2479 C 0.35623 0.88069 0.49641 0.0
C2480 C 0.32846 0.86593 0.3818 0.0
C2481 C 0.31985 0.89154 0.34357 0.0
N2482 N 0.34732 0.87664 0.4597 0.0
N2483 N 0.32924 0.89605 0.37985 0.0
H2484 H 0.27723 0.20679 0.91077 0.0
H2485 H 0.39235 0.26466 0.92925 0.0
H2486 H 0.30752 0.22198 0.02516 0.0
H2487 H 0.36219 0.24736 0.81484 0.0
H2488 H 0.36148 0.24949 0.96463 0.0
H2489 H 0.30809 0.22193 0.87524 0.0
C2490 C 0.29036 0.21332 0.92851 0.0
C2491 C 0.2897 0.21308 0.97115 0.0
C2492 C 0.36158 0.24899 0.9318 0.0
C2493 C 0.32526 0.23053 0.93035 0.0
C2494 C 0.37924 0.25766 0.91147 0.0
C2495 C 0.37994 0.25732 0.86886 0.0
C2496 C 0.34435 0.23986 0.90952 0.0
C2497 C 0.3624 0.24801 0.84766 0.0
C2498 C 0.30801 0.22197 0.9081 0.0
C2499 C 0.30727 0.22181 0.99231 0.0
N2500 N 0.34535 0.23968 0.86818 0.0
N2501 N 0.32429 0.23016 0.97172 0.0
H2502 H 0.79466 0.07118 0.91119 0.0
H2503 H 0.74041 0.13189 0.93355 0.0
H2504 H 0.78257 0.08839 0.02654 0.0
H2505 H 0.75345 0.11562 0.81812 0.0
H2506 H 0.75562 0.11596 0.96795 0.0
H2507 H 0.77952 0.08718 0.87676 0.0
C2508 C 0.78883 0.07832 0.92937 0.0
C2509 C 0.78993 0.07839 0.97196 0.0
C2510 C 0.75517 0.11586 0.9351 0.0
C2511 C 0.77248 0.09684 0.93243 0.0
C2512 C 0.74647 0.12497 0.91534 0.0
C2513 C 0.7456 0.12513 0.87274 0.0
C2514 C 0.76312 0.10674 0.91225 0.0
C2515 C 0.75374 0.11588 0.85096 0.0
C2516 C 0.78017 0.08747 0.9096 0.0
C2517 C 0.78207 0.08791 0.99371 0.0
N2518 N 0.76213 0.10708 0.87093 0.0
N2519 N 0.77369 0.09673 0.97373 0.0
H2520 H 0.8688 0.63837 0.82898 0.0
H2521 H 0.93184 0.70301 0.01529 0.0
H2522 H 0.89071 0.61656 0.92196 0.0
H2523 H 0.88685 0.71034 0.96168 0.0
H2524 H 0.922 0.67456 0.97231 0.0
H2525 H 0.88049 0.6683 0.86836 0.0
C2526 C 0.87626 0.63997 0.85739 0.0
C2527 C 0.87875 0.62494 0.8723 0.0
C2528 C 0.91434 0.68245 0.96993 0.0
C2529 C 0.89229 0.65911 0.9171 0.0
C2530 C 0.91997 0.69871 0.99434 0.0
C2531 C 0.91007 0.709 0.99231 0.0
C2532 C 0.89897 0.67667 0.94256 0.0
C2533 C 0.89477 0.70273 0.96455 0.0
C2534 C 0.8828 0.65697 0.87992 0.0
C2535 C 0.88838 0.62773 0.90947 0.0
N2536 N 0.88976 0.68705 0.94062 0.0
N2537 N 0.89488 0.64448 0.93044 0.0
H2538 H 0.17737 0.29188 0.54759 0.0
H2539 H 0.27755 0.38639 0.58581 0.0
H2540 H 0.23013 0.29849 0.49805 0.0
H2541 H 0.23282 0.36477 0.67659 0.0
H2542 H 0.25942 0.35613 0.54819 0.0
H2543 H 0.1963 0.32037 0.59017 0.0
C2544 C 0.19294 0.29932 0.54567 0.0
C2545 C 0.20218 0.2928 0.51913 0.0
C2546 C 0.25364 0.35795 0.57648 0.0
C2547 C 0.22389 0.32557 0.5674 0.0
C2548 C 0.26393 0.37524 0.5979 0.0
C2549 C 0.25669 0.3781 0.63442 0.0
C2550 C 0.23571 0.34356 0.59106 0.0
C2551 C 0.23898 0.36311 0.6487 0.0
C2552 C 0.20372 0.3155 0.57014 0.0
C2553 C 0.22241 0.30296 0.51813 0.0
N2554 N 0.22896 0.34658 0.62672 0.0
N2555 N 0.23258 0.31897 0.54151 0.0
H2556 H 0.61128 0.86882 0.57866 0.0
H2557 H 0.72605 0.9333 0.60001 0.0
H2558 H 0.64042 0.88979 0.6933 0.0
H2559 H 0.69676 0.91406 0.48503 0.0
H2560 H 0.69494 0.9173 0.63456 0.0
H2561 H 0.64237 0.88504 0.54409 0.0
C2562 C 0.62421 0.87683 0.59665 0.0
C2563 C 0.62315 0.87791 0.63908 0.0
C2564 C 0.69528 0.91657 0.60178 0.0
C2565 C 0.659 0.8966 0.59938 0.0
C2566 C 0.71309 0.92571 0.58193 0.0
C2567 C 0.71411 0.92507 0.53941 0.0
C2568 C 0.67824 0.90661 0.5791 0.0
C2569 C 0.69673 0.915 0.5178 0.0
C2570 C 0.642 0.88612 0.57679 0.0
C2571 C 0.64047 0.88857 0.66059 0.0
N2572 N 0.67956 0.90617 0.53785 0.0
N2573 N 0.65765 0.89746 0.64053 0.0
H2574 H 0.06951 0.79246 0.59934 0.0
H2575 H 0.13497 0.74308 0.58453 0.0
H2576 H 0.09072 0.78315 0.48617 0.0
H2577 H 0.11195 0.7505 0.69714 0.0
H2578 H 0.11913 0.75787 0.54825 0.0
H2579 H 0.08512 0.77741 0.63547 0.0
C2580 C 0.07746 0.78726 0.58198 0.0
C2581 C 0.07878 0.78912 0.5395 0.0
C2582 C 0.11751 0.75627 0.58087 0.0
C2583 C 0.09678 0.77176 0.58105 0.0
C2584 C 0.12658 0.74781 0.60173 0.0
C2585 C 0.12482 0.74549 0.6441 0.0
C2586 C 0.10656 0.76256 0.60239 0.0
C2587 C 0.1137 0.75193 0.66452 0.0
C2588 C 0.08637 0.77862 0.60275 0.0
C2589 C 0.08928 0.78203 0.51886 0.0
N2590 N 0.10503 0.76017 0.64351 0.0
N2591 N 0.09788 0.7737 0.53982 0.0
H2592 H 0.72592 0.79537 0.10012 0.0
H2593 H 0.61083 0.73839 0.08121 0.0
H2594 H 0.69573 0.78068 0.98563 0.0
H2595 H 0.64093 0.75449 0.19579 0.0
H2596 H 0.64172 0.75345 0.04592 0.0
H2597 H 0.69504 0.78016 0.13555 0.0
C2598 C 0.7128 0.78893 0.08234 0.0
C2599 C 0.71349 0.78933 0.0397 0.0
C2600 C 0.6416 0.75371 0.07877 0.0
C2601 C 0.67791 0.77181 0.08037 0.0
C2602 C 0.62393 0.74509 0.09904 0.0
C2603 C 0.62321 0.74514 0.14166 0.0
C2604 C 0.65882 0.76248 0.10113 0.0
C2605 C 0.64074 0.75407 0.16295 0.0
C2606 C 0.69514 0.78024 0.10268 0.0
C2607 C 0.69595 0.78071 0.01848 0.0
N2608 N 0.65779 0.76237 0.14248 0.0
N2609 N 0.67891 0.77233 0.03901 0.0
H2610 H 0.26277 0.87066 0.07983 0.0
H2611 H 0.20697 0.92988 0.09979 0.0
H2612 H 0.25119 0.88886 0.19452 0.0
H2613 H 0.22216 0.91519 0.98494 0.0
H2614 H 0.22267 0.91462 0.13485 0.0
H2615 H 0.24765 0.8865 0.04479 0.0
C2616 C 0.25707 0.878 0.09774 0.0
C2617 C 0.25829 0.87838 0.14032 0.0
C2618 C 0.22261 0.91474 0.10199 0.0
C2619 C 0.24082 0.89662 0.10007 0.0
C2620 C 0.21361 0.92345 0.08185 0.0
C2621 C 0.2132 0.92385 0.03922 0.0
C2622 C 0.23128 0.90624 0.07949 0.0
C2623 C 0.22212 0.91528 0.01779 0.0
C2624 C 0.24843 0.88707 0.0776 0.0
C2625 C 0.25063 0.88818 0.1617 0.0
N2626 N 0.23074 0.90681 0.03813 0.0
N2627 N 0.2422 0.89686 0.14138 0.0
H2628 H 0.11534 0.29184 0.05119 0.0
H2629 H 0.11405 0.38886 0.08319 0.0
H2630 H 0.07073 0.29995 0.99821 0.0
H2631 H 0.13273 0.3653 0.17894 0.0
H2632 H 0.10133 0.35835 0.0461 0.0
H2633 H 0.12532 0.32066 0.09302 0.0
C2634 C 0.10764 0.29968 0.04837 0.0
C2635 C 0.09218 0.29349 0.02113 0.0
C2636 C 0.10809 0.35983 0.07535 0.0
C2637 C 0.10375 0.32664 0.06841 0.0
C2638 C 0.11542 0.37724 0.09646 0.0
C2639 C 0.12442 0.37961 0.13425 0.0
C2640 C 0.11025 0.34482 0.09155 0.0
C2641 C 0.12577 0.36404 0.15004 0.0
C2642 C 0.11328 0.31605 0.0724 0.0
C2643 C 0.08266 0.30416 0.01892 0.0
N2644 N 0.119 0.34739 0.12837 0.0
N2645 N 0.08876 0.32036 0.04183 0.0
H2646 H 0.75523 0.64076 0.31656 0.0
H2647 H 0.77957 0.69705 0.52934 0.0
H2648 H 0.73846 0.61234 0.43294 0.0
H2649 H 0.79949 0.72539 0.41355 0.0
H2650 H 0.7635 0.66593 0.4944 0.0
H2651 H 0.7706 0.67194 0.3513 0.0
C2652 C 0.75473 0.64105 0.34938 0.0
C2653 C 0.74553 0.62385 0.37181 0.0
C2654 C 0.77137 0.67896 0.47663 0.0
C2655 C 0.76314 0.65957 0.41187 0.0
C2656 C 0.78054 0.69676 0.49658 0.0
C2657 C 0.79093 0.71391 0.47441 0.0
C2658 C 0.77253 0.67826 0.43412 0.0
C2659 C 0.79169 0.71258 0.43198 0.0
C2660 C 0.76354 0.65888 0.36924 0.0
C2661 C 0.7454 0.62518 0.41433 0.0
N2662 N 0.78264 0.69511 0.41327 0.0
N2663 N 0.75404 0.64268 0.43291 0.0
H2664 H 0.36282 0.11479 0.31585 0.0
H2665 H 0.306 0.08601 0.52845 0.0
H2666 H 0.39094 0.12888 0.43265 0.0
H2667 H 0.27777 0.07235 0.41176 0.0
H2668 H 0.33722 0.10161 0.49391 0.0
H2669 H 0.33156 0.09904 0.3503 0.0
C2670 C 0.36245 0.11458 0.34871 0.0
C2671 C 0.37961 0.12321 0.3713 0.0
C2672 C 0.32419 0.09519 0.47584 0.0
C2673 C 0.34376 0.10515 0.41107 0.0
C2674 C 0.30633 0.08626 0.49559 0.0
C2675 C 0.28915 0.07781 0.47306 0.0
C2676 C 0.32497 0.09572 0.43317 0.0
C2677 C 0.29058 0.07865 0.43048 0.0
C2678 C 0.34457 0.10557 0.3684 0.0
C2679 C 0.37815 0.12246 0.41388 0.0
N2680 N 0.30812 0.08741 0.412 0.0
N2681 N 0.3606 0.11361 0.4323 0.0
H2682 H 0.88666 0.24931 0.31476 0.0
H2683 H 0.9168 0.2248 0.52979 0.0
H2684 H 0.87632 0.26839 0.42965 0.0
H2685 H 0.93066 0.20945 0.41418 0.0
H2686 H 0.90129 0.24024 0.49396 0.0
H2687 H 0.90218 0.234 0.35083 0.0
C2688 C 0.88765 0.2503 0.34755 0.0
C2689 C 0.88016 0.2602 0.36911 0.0
C2690 C 0.90775 0.23351 0.47645 0.0
C2691 C 0.89793 0.24262 0.41077 0.0
C2692 C 0.91662 0.22468 0.49692 0.0
C2693 C 0.9251 0.2158 0.47506 0.0
C2694 C 0.90728 0.23343 0.43374 0.0
C2695 C 0.92435 0.2161 0.43243 0.0
C2696 C 0.89653 0.24155 0.36817 0.0
C2697 C 0.88188 0.26095 0.41165 0.0
N2698 N 0.91561 0.22472 0.41327 0.0
N2699 N 0.89054 0.25229 0.43101 0.0
H2700 H 0.03313 0.56525 0.16645 0.0
H2701 H 0.96841 0.56431 0.35191 0.0
H2702 H 0.05475 0.60935 0.25863 0.0
H2703 H 0.96071 0.51178 0.29849 0.0
H2704 H 0.99697 0.58275 0.30917 0.0
H2705 H 0.00318 0.54711 0.20578 0.0
C2706 C 0.0315 0.57121 0.19467 0.0
C2707 C 0.04648 0.58881 0.20937 0.0
C2708 C 0.98898 0.56718 0.30679 0.0
C2709 C 0.01228 0.56828 0.25412 0.0
C2710 C 0.97266 0.55665 0.33108 0.0
C2711 C 0.96222 0.53645 0.32902 0.0
C2712 C 0.99469 0.5575 0.27953 0.0
C2713 C 0.96843 0.52731 0.30138 0.0
C2714 C 0.01448 0.56081 0.21718 0.0
C2715 C 0.04363 0.59579 0.2463 0.0
N2716 N 0.98418 0.5379 0.27757 0.0
N2717 N 0.02687 0.58558 0.26726 0.0
H2718 H 0.40806 0.46508 0.25919 0.0
H2719 H 0.46514 0.40706 0.24169 0.0
H2720 H 0.42024 0.44695 0.14509 0.0
H2721 H 0.44749 0.41977 0.35581 0.0
H2722 H 0.44948 0.4222 0.20597 0.0
H2723 H 0.42304 0.44926 0.29489 0.0
C2724 C 0.41388 0.45777 0.24155 0.0
C2725 C 0.41285 0.45739 0.19893 0.0
C2726 C 0.44898 0.42166 0.23881 0.0
C2727 C 0.43016 0.43918 0.23994 0.0
C2728 C 0.45797 0.41303 0.25933 0.0
C2729 C 0.45767 0.4121 0.30195 0.0
C2730 C 0.43964 0.42959 0.26093 0.0
C2731 C 0.44807 0.42008 0.32298 0.0
C2732 C 0.42242 0.44869 0.26206 0.0
C2733 C 0.42064 0.44761 0.17791 0.0
N2734 N 0.43951 0.42852 0.30229 0.0
N2735 N 0.429 0.43896 0.19859 0.0
H2736 H 0.54038 0.94425 0.26521 0.0
H2737 H 0.59776 0.05939 0.24304 0.0
H2738 H 0.55425 0.97363 0.14976 0.0
H2739 H 0.58416 0.02985 0.35829 0.0
H2740 H 0.58199 0.02825 0.20846 0.0
H2741 H 0.55631 0.97541 0.29959 0.0
C2742 C 0.54677 0.95725 0.24699 0.0
C2743 C 0.54593 0.95623 0.20439 0.0
C2744 C 0.58245 0.02855 0.2413 0.0
C2745 C 0.56431 0.99217 0.24388 0.0
C2746 C 0.59148 0.04637 0.26116 0.0
C2747 C 0.59234 0.04733 0.30377 0.0
C2748 C 0.57414 0.01144 0.26408 0.0
C2749 C 0.5839 0.02989 0.32545 0.0
C2750 C 0.55589 0.97508 0.26674 0.0
C2751 C 0.55452 0.97365 0.1826 0.0
N2752 N 0.57517 0.01271 0.3054 0.0
N2753 N 0.56333 0.99086 0.20256 0.0
H2754 H 0.40541 0.94408 0.76622 0.0
H2755 H 0.46438 0.05916 0.74412 0.0
H2756 H 0.42289 0.97342 0.65089 0.0
H2757 H 0.44828 0.02964 0.85938 0.0
H2758 H 0.44911 0.02803 0.70955 0.0
H2759 H 0.42082 0.97522 0.80059 0.0
C2760 C 0.41249 0.95707 0.74802 0.0
C2761 C 0.41281 0.95605 0.70546 0.0
C2762 C 0.4489 0.02833 0.74239 0.0
C2763 C 0.43056 0.99197 0.74495 0.0
C2764 C 0.45763 0.04614 0.76225 0.0
C2765 C 0.45765 0.0471 0.80485 0.0
C2766 C 0.44004 0.01123 0.76517 0.0
C2767 C 0.44864 0.02966 0.82654 0.0
C2768 C 0.42131 0.97489 0.76777 0.0
C2769 C 0.42225 0.97345 0.68371 0.0
N2770 N 0.44021 0.01249 0.80648 0.0
N2771 N 0.43072 0.99065 0.70367 0.0
H2772 H 0.03057 0.44952 0.64654 0.0
H2773 H 0.97428 0.41859 0.85959 0.0
H2774 H 0.05919 0.46217 0.76274 0.0
H2775 H 0.9461 0.40974 0.74354 0.0
H2776 H 0.00547 0.43367 0.82476 0.0
H2777 H 0.99949 0.434 0.68152 0.0
C2778 C 0.03035 0.44903 0.67939 0.0
C2779 C 0.0476 0.45722 0.70165 0.0
C2780 C 0.99245 0.42842 0.80692 0.0
C2781 C 0.01192 0.43938 0.74205 0.0
C2782 C 0.97462 0.41977 0.82681 0.0
C2783 C 0.95748 0.41287 0.80454 0.0
C2784 C 0.99321 0.43015 0.76437 0.0
C2785 C 0.95889 0.41486 0.76208 0.0
C2786 C 0.01256 0.44016 0.69939 0.0
C2787 C 0.04632 0.45611 0.74423 0.0
N2788 N 0.97638 0.42328 0.74346 0.0
N2789 N 0.02884 0.44737 0.76298 0.0
H2790 H 0.53939 0.59521 0.76511 0.0
H2791 H 0.59505 0.53581 0.74767 0.0
H2792 H 0.55439 0.57995 0.6507 0.0
H2793 H 0.58423 0.55545 0.86134 0.0
H2794 H 0.57981 0.55134 0.71177 0.0
H2795 H 0.55521 0.58023 0.80062 0.0
C2796 C 0.54601 0.5887 0.74736 0.0
C2797 C 0.54552 0.58887 0.70472 0.0
C2798 C 0.58079 0.5523 0.74454 0.0
C2799 C 0.56375 0.57157 0.74553 0.0
C2800 C 0.58949 0.5434 0.76516 0.0
C2801 C 0.59095 0.54429 0.80771 0.0
C2802 C 0.57337 0.56215 0.76652 0.0
C2803 C 0.58348 0.55439 0.82857 0.0
C2804 C 0.55509 0.58016 0.76776 0.0
C2805 C 0.55442 0.58021 0.68355 0.0
N2806 N 0.57498 0.56287 0.80779 0.0
N2807 N 0.56313 0.57189 0.70416 0.0
loop_
_geom_bond_atom_site_label_1
_geom_bond_atom_site_label_2
_geom_bond_distance
_geom_bond_site_symmetry_2
_ccdc_geom_bond_type
Co0 N4 2.148 . S
Co0 N10 2.128 . S
Co0 N20 2.194 . S
Co0 O25 2.351 . S
Co0 O26 2.155 . S
Co0 O27 2.096 . S
C1 N4 1.301 . S
C1 N5 1.328 . S
C1 H6 0.930 . S
C2 C3 1.333 . S
C2 N4 1.317 1_556 S
C2 H7 0.930 . S
C3 C2 1.333 . S
C3 N5 1.350 1_556 S
C3 H29 0.931 . S
N4 Co0 2.148 . S
N4 C1 1.301 . S
N4 C2 1.317 1_554 S
N5 C1 1.328 . S
N5 C3 1.350 1_554 S
H6 C1 0.930 . S
H7 C2 0.930 . S
C8 O9 1.224 . S
C8 O27 1.247 . S
O9 C8 1.224 . S
N10 Co0 2.128 . S
N10 C11 1.355 . S
N10 C13 1.311 . S
C11 N10 1.355 . S
C11 C12 1.363 . S
C11 H23 0.929 . S
C12 C11 1.363 . S
C12 N14 1.375 . S
C12 H30 0.931 . S
C13 N10 1.311 . S
C13 N14 1.347 . S
C13 H24 0.929 . S
N14 C12 1.375 . S
N14 C13 1.347 . S
C15 C18 1.365 . S
C15 N20 1.328 . S
C15 H21 0.929 . S
C16 C17 1.362 . S
C16 C19 1.378 . S
C16 H31 0.929 1_554 S
C17 C16 1.362 . S
C17 C18 1.366 . S
C18 C15 1.365 . S
C18 C17 1.366 . S
C18 H32 0.930 . S
C19 C16 1.378 . S
C19 N20 1.315 . S
C19 H22 0.930 . S
N20 Co0 2.194 . S
N20 C15 1.328 . S
N20 C19 1.315 . S
H21 C15 0.929 . S
H22 C19 0.930 . S
H23 C11 0.929 . S
H24 C13 0.929 . S
O25 Co0 2.351 . S
O25 C28 1.244 . S
O26 Co0 2.155 . S
O26 C28 1.240 . S
O27 Co0 2.096 . S
O27 C8 1.247 . S
C28 O25 1.244 . S
C28 O26 1.240 . S
H29 C3 0.931 . S
H30 C12 0.931 . S
H31 C16 0.929 1_556 S
H32 C18 0.930 . S
Co33 N37 2.148 . S
Co33 N43 2.128 . S
Co33 N53 2.194 . S
Co33 O58 2.351 . S
Co33 O59 2.155 . S
Co33 O60 2.096 . S
C34 N37 1.301 . S
C34 N38 1.328 . S
C34 H39 0.930 . S
C35 C36 1.333 . S
C35 N37 1.317 1_556 S
C35 H40 0.930 . S
C36 C35 1.333 . S
C36 N38 1.350 1_556 S
C36 H62 0.931 . S
N37 Co33 2.148 . S
N37 C34 1.301 . S
N37 C35 1.317 1_554 S
N38 C34 1.328 . S
N38 C36 1.350 1_554 S
H39 C34 0.930 . S
H40 C35 0.930 . S
C41 O42 1.224 . S
C41 O60 1.247 . S
O42 C41 1.224 . S
N43 Co33 2.128 . S
N43 C44 1.355 . S
N43 C46 1.311 . S
C44 N43 1.355 . S
C44 C45 1.363 . S
C44 H56 0.929 . S
C45 C44 1.363 . S
C45 N47 1.375 . S
C45 H63 0.931 . S
C46 N43 1.311 . S
C46 N47 1.347 . S
C46 H57 0.929 . S
N47 C45 1.375 . S
N47 C46 1.347 . S
C48 C51 1.365 . S
C48 N53 1.328 . S
C48 H54 0.929 . S
C49 C50 1.362 . S
C49 C52 1.378 . S
C49 H64 0.929 1_554 S
C50 C49 1.362 . S
C50 C51 1.366 . S
C51 C48 1.365 . S
C51 C50 1.366 . S
C51 H65 0.930 . S
C52 C49 1.378 . S
C52 N53 1.315 . S
C52 H55 0.930 . S
N53 Co33 2.194 . S
N53 C48 1.328 . S
N53 C52 1.315 . S
H54 C48 0.929 . S
H55 C52 0.930 . S
H56 C44 0.929 . S
H57 C46 0.929 . S
O58 Co33 2.351 . S
O58 C61 1.244 . S
O59 Co33 2.155 . S
O59 C61 1.240 . S
O60 Co33 2.096 . S
O60 C41 1.247 . S
C61 O58 1.244 . S
C61 O59 1.240 . S
H62 C36 0.931 . S
H63 C45 0.931 . S
H64 C49 0.929 1_556 S
H65 C51 0.930 . S
Co66 N70 2.148 . S
Co66 N76 2.128 . S
Co66 N86 2.194 . S
Co66 O91 2.351 . S
Co66 O92 2.155 . S
Co66 O93 2.096 . S
C67 N70 1.301 . S
C67 N71 1.328 . S
C67 H72 0.930 . S
C68 C69 1.333 . S
C68 N70 1.317 1_556 S
C68 H73 0.930 . S
C69 C68 1.333 . S
C69 N71 1.350 1_556 S
C69 H95 0.931 . S
N70 Co66 2.148 . S
N70 C67 1.301 . S
N70 C68 1.317 1_554 S
N71 C67 1.328 . S
N71 C69 1.350 1_554 S
H72 C67 0.930 . S
H73 C68 0.930 . S
C74 O75 1.224 . S
C74 O93 1.247 . S
O75 C74 1.224 . S
N76 Co66 2.128 . S
N76 C77 1.355 . S
N76 C79 1.311 . S
C77 N76 1.355 . S
C77 C78 1.363 . S
C77 H89 0.929 . S
C78 C77 1.363 . S
C78 N80 1.375 . S
C78 H96 0.931 . S
C79 N76 1.311 . S
C79 N80 1.347 . S
C79 H90 0.929 . S
N80 C78 1.375 . S
N80 C79 1.347 . S
C81 C84 1.365 . S
C81 N86 1.328 . S
C81 H87 0.929 . S
C82 C83 1.362 . S
C82 C85 1.378 . S
C82 H97 0.929 1_554 S
C83 C82 1.362 . S
C83 C84 1.366 . S
C84 C81 1.365 . S
C84 C83 1.366 . S
C84 H98 0.930 . S
C85 C82 1.378 . S
C85 N86 1.315 . S
C85 H88 0.930 . S
N86 Co66 2.194 . S
N86 C81 1.328 . S
N86 C85 1.315 . S
H87 C81 0.929 . S
H88 C85 0.930 . S
H89 C77 0.929 . S
H90 C79 0.929 . S
O91 Co66 2.351 . S
O91 C94 1.244 . S
O92 Co66 2.155 . S
O92 C94 1.240 . S
O93 Co66 2.096 . S
O93 C74 1.247 . S
C94 O91 1.244 . S
C94 O92 1.240 . S
H95 C69 0.931 . S
H96 C78 0.931 . S
H97 C82 0.929 1_556 S
H98 C84 0.930 . S
Co99 N103 2.148 . S
Co99 N109 2.128 . S
Co99 N119 2.194 . S
Co99 O124 2.351 . S
Co99 O125 2.155 . S
Co99 O126 2.096 . S
C100 N103 1.301 . S
C100 N104 1.328 . S
C100 H105 0.930 . S
C101 C102 1.333 . S
C101 N103 1.317 . S
C101 H106 0.930 . S
C102 C101 1.333 . S
C102 N104 1.350 . S
C102 H128 0.931 . S
N103 Co99 2.148 . S
N103 C100 1.301 . S
N103 C101 1.317 . S
N104 C100 1.328 . S
N104 C102 1.350 . S
H105 C100 0.930 . S
H106 C101 0.930 . S
C107 O108 1.224 . S
C107 O126 1.247 . S
O108 C107 1.224 . S
N109 Co99 2.128 . S
N109 C110 1.355 . S
N109 C112 1.311 . S
C110 N109 1.355 . S
C110 C111 1.363 . S
C110 H122 0.929 . S
C111 C110 1.363 . S
C111 N113 1.375 . S
C111 H129 0.931 . S
C112 N109 1.311 . S
C112 N113 1.347 . S
C112 H123 0.929 . S
N113 C111 1.375 . S
N113 C112 1.347 . S
C114 C117 1.365 . S
C114 N119 1.328 . S
C114 H120 0.929 . S
C115 C116 1.362 . S
C115 C118 1.378 . S
C115 H130 0.929 . S
C116 C115 1.362 . S
C116 C117 1.366 . S
C117 C114 1.365 . S
C117 C116 1.366 . S
C117 H131 0.930 . S
C118 C115 1.378 . S
C118 N119 1.315 . S
C118 H121 0.930 . S
N119 Co99 2.194 . S
N119 C114 1.328 . S
N119 C118 1.315 . S
H120 C114 0.929 . S
H121 C118 0.930 . S
H122 C110 0.929 . S
H123 C112 0.929 . S
O124 Co99 2.351 . S
O124 C127 1.244 . S
O125 Co99 2.155 . S
O125 C127 1.240 . S
O126 Co99 2.096 . S
O126 C107 1.247 . S
C127 O124 1.244 . S
C127 O125 1.240 . S
H128 C102 0.931 . S
H129 C111 0.931 . S
H130 C115 0.929 . S
H131 C117 0.930 . S
Co132 N136 2.148 . S
Co132 N142 2.128 . S
Co132 N152 2.194 . S
Co132 O157 2.351 . S
Co132 O158 2.155 . S
Co132 O159 2.096 . S
C133 N136 1.301 . S
C133 N137 1.328 . S
C133 H138 0.930 . S
C134 C135 1.333 . S
C134 N136 1.317 . S
C134 H139 0.930 . S
C135 C134 1.333 . S
C135 N137 1.350 . S
C135 H161 0.931 . S
N136 Co132 2.148 . S
N136 C133 1.301 . S
N136 C134 1.317 . S
N137 C133 1.328 . S
N137 C135 1.350 . S
H138 C133 0.930 . S
H139 C134 0.930 . S
C140 O141 1.224 . S
C140 O159 1.247 . S
O141 C140 1.224 . S
N142 Co132 2.128 . S
N142 C143 1.355 . S
N142 C145 1.311 . S
C143 N142 1.355 . S
C143 C144 1.363 . S
C143 H155 0.929 . S
C144 C143 1.363 . S
C144 N146 1.375 . S
C144 H162 0.931 . S
C145 N142 1.311 . S
C145 N146 1.347 . S
C145 H156 0.929 . S
N146 C144 1.375 . S
N146 C145 1.347 . S
C147 C150 1.365 . S
C147 N152 1.328 . S
C147 H153 0.929 . S
C148 C149 1.362 . S
C148 C151 1.378 . S
C148 H163 0.929 . S
C149 C148 1.362 . S
C149 C150 1.366 . S
C150 C147 1.365 . S
C150 C149 1.366 . S
C150 H164 0.930 . S
C151 C148 1.378 . S
C151 N152 1.315 . S
C151 H154 0.930 . S
N152 Co132 2.194 . S
N152 C147 1.328 . S
N152 C151 1.315 . S
H153 C147 0.929 . S
H154 C151 0.930 . S
H155 C143 0.929 . S
H156 C145 0.929 . S
O157 Co132 2.351 . S
O157 C160 1.244 . S
O158 Co132 2.155 . S
O158 C160 1.240 . S
O159 Co132 2.096 . S
O159 C140 1.247 . S
C160 O157 1.244 . S
C160 O158 1.240 . S
H161 C135 0.931 . S
H162 C144 0.931 . S
H163 C148 0.929 . S
H164 C150 0.930 . S
Co165 N169 2.148 . S
Co165 N175 2.128 . S
Co165 N185 2.194 . S
Co165 O190 2.351 . S
Co165 O191 2.155 . S
Co165 O192 2.096 . S
C166 N169 1.301 . S
C166 N170 1.328 . S
C166 H171 0.930 . S
C167 C168 1.333 . S
C167 N169 1.317 . S
C167 H172 0.930 . S
C168 C167 1.333 . S
C168 N170 1.350 . S
C168 H194 0.931 . S
N169 Co165 2.148 . S
N169 C166 1.301 . S
N169 C167 1.317 . S
N170 C166 1.328 . S
N170 C168 1.350 . S
H171 C166 0.930 . S
H172 C167 0.930 . S
C173 O174 1.224 . S
C173 O192 1.247 . S
O174 C173 1.224 . S
N175 Co165 2.128 . S
N175 C176 1.355 . S
N175 C178 1.311 . S
C176 N175 1.355 . S
C176 C177 1.363 . S
C176 H188 0.929 . S
C177 C176 1.363 . S
C177 N179 1.375 . S
C177 H195 0.931 . S
C178 N175 1.311 . S
C178 N179 1.347 . S
C178 H189 0.929 . S
N179 C177 1.375 . S
N179 C178 1.347 . S
C180 C183 1.365 . S
C180 N185 1.328 . S
C180 H186 0.929 . S
C181 C182 1.362 . S
C181 C184 1.378 . S
C181 H196 0.929 . S
C182 C181 1.362 . S
C182 C183 1.366 . S
C183 C180 1.365 . S
C183 C182 1.366 . S
C183 H197 0.930 . S
C184 C181 1.378 . S
C184 N185 1.315 . S
C184 H187 0.930 . S
N185 Co165 2.194 . S
N185 C180 1.328 . S
N185 C184 1.315 . S
H186 C180 0.929 . S
H187 C184 0.930 . S
H188 C176 0.929 . S
H189 C178 0.929 . S
O190 Co165 2.351 . S
O190 C193 1.244 . S
O191 Co165 2.155 . S
O191 C193 1.240 . S
O192 Co165 2.096 . S
O192 C173 1.247 . S
C193 O190 1.244 . S
C193 O191 1.240 . S
H194 C168 0.931 . S
H195 C177 0.931 . S
H196 C181 0.929 . S
H197 C183 0.930 . S
Co198 N202 2.148 . S
Co198 N208 2.128 . S
Co198 N218 2.194 . S
Co198 O223 2.351 . S
Co198 O224 2.155 . S
Co198 O225 2.096 . S
C199 N202 1.301 . S
C199 N203 1.328 . S
C199 H204 0.930 . S
C200 C201 1.333 . S
C200 N202 1.317 1_554 S
C200 H205 0.930 . S
C201 C200 1.333 . S
C201 N203 1.350 1_554 S
C201 H227 0.931 . S
N202 Co198 2.148 . S
N202 C199 1.301 . S
N202 C200 1.317 1_556 S
N203 C199 1.328 . S
N203 C201 1.350 1_556 S
H204 C199 0.930 . S
H205 C200 0.930 . S
C206 O207 1.224 . S
C206 O225 1.247 . S
O207 C206 1.224 . S
N208 Co198 2.128 . S
N208 C209 1.355 . S
N208 C211 1.311 . S
C209 N208 1.355 . S
C209 C210 1.363 . S
C209 H221 0.929 . S
C210 C209 1.363 . S
C210 N212 1.375 . S
C210 H228 0.931 . S
C211 N208 1.311 . S
C211 N212 1.347 . S
C211 H222 0.929 . S
N212 C210 1.375 . S
N212 C211 1.347 . S
C213 C216 1.365 . S
C213 N218 1.328 . S
C213 H219 0.929 . S
C214 C215 1.362 . S
C214 C217 1.378 . S
C214 H229 0.929 1_556 S
C215 C214 1.362 . S
C215 C216 1.366 . S
C216 C213 1.365 . S
C216 C215 1.366 . S
C216 H230 0.930 . S
C217 C214 1.378 . S
C217 N218 1.315 . S
C217 H220 0.930 . S
N218 Co198 2.194 . S
N218 C213 1.328 . S
N218 C217 1.315 . S
H219 C213 0.929 . S
H220 C217 0.930 . S
H221 C209 0.929 . S
H222 C211 0.929 . S
O223 Co198 2.351 . S
O223 C226 1.244 . S
O224 Co198 2.155 . S
O224 C226 1.240 . S
O225 Co198 2.096 . S
O225 C206 1.247 . S
C226 O223 1.244 . S
C226 O224 1.240 . S
H227 C201 0.931 . S
H228 C210 0.931 . S
H229 C214 0.929 1_554 S
H230 C216 0.930 . S
Co231 N235 2.148 . S
Co231 N241 2.128 . S
Co231 N251 2.194 . S
Co231 O256 2.351 . S
Co231 O257 2.155 . S
Co231 O258 2.096 . S
C232 N235 1.301 . S
C232 N236 1.328 . S
C232 H237 0.930 . S
C233 C234 1.333 . S
C233 N235 1.317 1_554 S
C233 H238 0.930 . S
C234 C233 1.333 . S
C234 N236 1.350 1_554 S
C234 H260 0.931 . S
N235 Co231 2.148 . S
N235 C232 1.301 . S
N235 C233 1.317 1_556 S
N236 C232 1.328 . S
N236 C234 1.350 1_556 S
H237 C232 0.930 . S
H238 C233 0.930 . S
C239 O240 1.224 . S
C239 O258 1.247 . S
O240 C239 1.224 . S
N241 Co231 2.128 . S
N241 C242 1.355 . S
N241 C244 1.311 . S
C242 N241 1.355 . S
C242 C243 1.363 . S
C242 H254 0.929 . S
C243 C242 1.363 . S
C243 N245 1.375 . S
C243 H261 0.931 . S
C244 N241 1.311 . S
C244 N245 1.347 . S
C244 H255 0.929 . S
N245 C243 1.375 . S
N245 C244 1.347 . S
C246 C249 1.365 . S
C246 N251 1.328 . S
C246 H252 0.929 . S
C247 C248 1.362 . S
C247 C250 1.378 . S
C247 H262 0.929 1_556 S
C248 C247 1.362 . S
C248 C249 1.366 . S
C249 C246 1.365 . S
C249 C248 1.366 . S
C249 H263 0.930 . S
C250 C247 1.378 . S
C250 N251 1.315 . S
C250 H253 0.930 . S
N251 Co231 2.194 . S
N251 C246 1.328 . S
N251 C250 1.315 . S
H252 C246 0.929 . S
H253 C250 0.930 . S
H254 C242 0.929 . S
H255 C244 0.929 . S
O256 Co231 2.351 . S
O256 C259 1.244 . S
O257 Co231 2.155 . S
O257 C259 1.240 . S
O258 Co231 2.096 . S
O258 C239 1.247 . S
C259 O256 1.244 . S
C259 O257 1.240 . S
H260 C234 0.931 . S
H261 C243 0.931 . S
H262 C247 0.929 1_554 S
H263 C249 0.930 . S
Co264 N268 2.148 . S
Co264 N274 2.128 . S
Co264 N284 2.194 . S
Co264 O289 2.351 . S
Co264 O290 2.155 . S
Co264 O291 2.096 . S
C265 N268 1.301 . S
C265 N269 1.328 . S
C265 H270 0.930 . S
C266 C267 1.333 . S
C266 N268 1.317 1_554 S
C266 H271 0.930 . S
C267 C266 1.333 . S
C267 N269 1.350 1_554 S
C267 H293 0.931 . S
N268 Co264 2.148 . S
N268 C265 1.301 . S
N268 C266 1.317 1_556 S
N269 C265 1.328 . S
N269 C267 1.350 1_556 S
H270 C265 0.930 . S
H271 C266 0.930 . S
C272 O273 1.224 . S
C272 O291 1.247 . S
O273 C272 1.224 . S
N274 Co264 2.128 . S
N274 C275 1.355 . S
N274 C277 1.311 . S
C275 N274 1.355 . S
C275 C276 1.363 . S
C275 H287 0.929 . S
C276 C275 1.363 . S
C276 N278 1.375 . S
C276 H294 0.931 . S
C277 N274 1.311 . S
C277 N278 1.347 . S
C277 H288 0.929 . S
N278 C276 1.375 . S
N278 C277 1.347 . S
C279 C282 1.365 . S
C279 N284 1.328 . S
C279 H285 0.929 . S
C280 C281 1.362 . S
C280 C283 1.378 . S
C280 H295 0.929 1_556 S
C281 C280 1.362 . S
C281 C282 1.366 . S
C282 C279 1.365 . S
C282 C281 1.366 . S
C282 H296 0.930 . S
C283 C280 1.378 . S
C283 N284 1.315 . S
C283 H286 0.930 . S
N284 Co264 2.194 . S
N284 C279 1.328 . S
N284 C283 1.315 . S
H285 C279 0.929 . S
H286 C283 0.930 . S
H287 C275 0.929 . S
H288 C277 0.929 . S
O289 Co264 2.351 . S
O289 C292 1.244 . S
O290 Co264 2.155 . S
O290 C292 1.240 . S
O291 Co264 2.096 . S
O291 C272 1.247 . S
C292 O289 1.244 . S
C292 O290 1.240 . S
H293 C267 0.931 . S
H294 C276 0.931 . S
H295 C280 0.929 1_554 S
H296 C282 0.930 . S
Co297 N301 2.148 . S
Co297 N307 2.128 . S
Co297 N317 2.194 . S
Co297 O322 2.351 . S
Co297 O323 2.155 . S
Co297 O324 2.096 . S
C298 N301 1.301 . S
C298 N302 1.328 . S
C298 H303 0.930 . S
C299 C300 1.333 . S
C299 N301 1.317 . S
C299 H304 0.930 . S
C300 C299 1.333 . S
C300 N302 1.350 . S
C300 H326 0.931 . S
N301 Co297 2.148 . S
N301 C298 1.301 . S
N301 C299 1.317 . S
N302 C298 1.328 . S
N302 C300 1.350 . S
H303 C298 0.930 . S
H304 C299 0.930 . S
C305 O306 1.224 . S
C305 O324 1.247 . S
O306 C305 1.224 . S
N307 Co297 2.128 . S
N307 C308 1.355 . S
N307 C310 1.311 . S
C308 N307 1.355 . S
C308 C309 1.363 . S
C308 H320 0.929 . S
C309 C308 1.363 . S
C309 N311 1.375 . S
C309 H327 0.931 . S
C310 N307 1.311 . S
C310 N311 1.347 . S
C310 H321 0.929 . S
N311 C309 1.375 . S
N311 C310 1.347 . S
C312 C315 1.365 . S
C312 N317 1.328 . S
C312 H318 0.929 . S
C313 C314 1.362 . S
C313 C316 1.378 . S
C313 H328 0.929 . S
C314 C313 1.362 . S
C314 C315 1.366 . S
C315 C312 1.365 . S
C315 C314 1.366 . S
C315 H329 0.930 . S
C316 C313 1.378 . S
C316 N317 1.315 . S
C316 H319 0.930 . S
N317 Co297 2.194 . S
N317 C312 1.328 . S
N317 C316 1.315 . S
H318 C312 0.929 . S
H319 C316 0.930 . S
H320 C308 0.929 . S
H321 C310 0.929 . S
O322 Co297 2.351 . S
O322 C325 1.244 . S
O323 Co297 2.155 . S
O323 C325 1.240 . S
O324 Co297 2.096 . S
O324 C305 1.247 . S
C325 O322 1.244 . S
C325 O323 1.240 . S
H326 C300 0.931 . S
H327 C309 0.931 . S
H328 C313 0.929 . S
H329 C315 0.930 . S
Co330 N334 2.148 . S
Co330 N340 2.128 . S
Co330 N350 2.194 . S
Co330 O355 2.351 . S
Co330 O356 2.155 . S
Co330 O357 2.096 . S
C331 N334 1.301 . S
C331 N335 1.328 . S
C331 H336 0.930 . S
C332 C333 1.333 . S
C332 N334 1.317 . S
C332 H337 0.930 . S
C333 C332 1.333 . S
C333 N335 1.350 . S
C333 H359 0.931 . S
N334 Co330 2.148 . S
N334 C331 1.301 . S
N334 C332 1.317 . S
N335 C331 1.328 . S
N335 C333 1.350 . S
H336 C331 0.930 . S
H337 C332 0.930 . S
C338 O339 1.224 . S
C338 O357 1.247 . S
O339 C338 1.224 . S
N340 Co330 2.128 . S
N340 C341 1.355 . S
N340 C343 1.311 . S
C341 N340 1.355 . S
C341 C342 1.363 . S
C341 H353 0.929 . S
C342 C341 1.363 . S
C342 N344 1.375 . S
C342 H360 0.931 . S
C343 N340 1.311 . S
C343 N344 1.347 . S
C343 H354 0.929 . S
N344 C342 1.375 . S
N344 C343 1.347 . S
C345 C348 1.365 . S
C345 N350 1.328 . S
C345 H351 0.929 . S
C346 C347 1.362 . S
C346 C349 1.378 . S
C346 H361 0.929 . S
C347 C346 1.362 . S
C347 C348 1.366 . S
C348 C345 1.365 . S
C348 C347 1.366 . S
C348 H362 0.930 . S
C349 C346 1.378 . S
C349 N350 1.315 . S
C349 H352 0.930 . S
N350 Co330 2.194 . S
N350 C345 1.328 . S
N350 C349 1.315 . S
H351 C345 0.929 . S
H352 C349 0.930 . S
H353 C341 0.929 . S
H354 C343 0.929 . S
O355 Co330 2.351 . S
O355 C358 1.244 . S
O356 Co330 2.155 . S
O356 C358 1.240 . S
O357 Co330 2.096 . S
O357 C338 1.247 . S
C358 O355 1.244 . S
C358 O356 1.240 . S
H359 C333 0.931 . S
H360 C342 0.931 . S
H361 C346 0.929 . S
H362 C348 0.930 . S
Co363 N367 2.148 . S
Co363 N373 2.128 . S
Co363 N383 2.194 . S
Co363 O388 2.351 . S
Co363 O389 2.155 . S
Co363 O390 2.096 . S
C364 N367 1.301 . S
C364 N368 1.328 . S
C364 H369 0.930 . S
C365 C366 1.333 . S
C365 N367 1.317 . S
C365 H370 0.930 . S
C366 C365 1.333 . S
C366 N368 1.350 . S
C366 H392 0.931 . S
N367 Co363 2.148 . S
N367 C364 1.301 . S
N367 C365 1.317 . S
N368 C364 1.328 . S
N368 C366 1.350 . S
H369 C364 0.930 . S
H370 C365 0.930 . S
C371 O372 1.224 . S
C371 O390 1.247 . S
O372 C371 1.224 . S
N373 Co363 2.128 . S
N373 C374 1.355 . S
N373 C376 1.311 . S
C374 N373 1.355 . S
C374 C375 1.363 . S
C374 H386 0.929 . S
C375 C374 1.363 . S
C375 N377 1.375 . S
C375 H393 0.931 . S
C376 N373 1.311 . S
C376 N377 1.347 . S
C376 H387 0.929 . S
N377 C375 1.375 . S
N377 C376 1.347 . S
C378 C381 1.365 . S
C378 N383 1.328 . S
C378 H384 0.929 . S
C379 C380 1.362 . S
C379 C382 1.378 . S
C379 H394 0.929 . S
C380 C379 1.362 . S
C380 C381 1.366 . S
C381 C378 1.365 . S
C381 C380 1.366 . S
C381 H395 0.930 . S
C382 C379 1.378 . S
C382 N383 1.315 . S
C382 H385 0.930 . S
N383 Co363 2.194 . S
N383 C378 1.328 . S
N383 C382 1.315 . S
H384 C378 0.929 . S
H385 C382 0.930 . S
H386 C374 0.929 . S
H387 C376 0.929 . S
O388 Co363 2.351 . S
O388 C391 1.244 . S
O389 Co363 2.155 . S
O389 C391 1.240 . S
O390 Co363 2.096 . S
O390 C371 1.247 . S
C391 O388 1.244 . S
C391 O389 1.240 . S
H392 C366 0.931 . S
H393 C375 0.931 . S
H394 C379 0.929 . S
H395 C381 0.930 . S
Co396 N400 2.148 . S
Co396 N406 2.128 . S
Co396 N416 2.194 . S
Co396 O421 2.351 . S
Co396 O422 2.155 . S
Co396 O423 2.096 . S
C397 N400 1.301 . S
C397 N401 1.328 . S
C397 H402 0.930 . S
C398 C399 1.333 . S
C398 N400 1.317 . S
C398 H403 0.930 . S
C399 C398 1.333 . S
C399 N401 1.350 . S
C399 H425 0.931 . S
N400 Co396 2.148 . S
N400 C397 1.301 . S
N400 C398 1.317 . S
N401 C397 1.328 . S
N401 C399 1.350 . S
H402 C397 0.930 . S
H403 C398 0.930 . S
C404 O405 1.224 . S
C404 O423 1.247 . S
O405 C404 1.224 . S
N406 Co396 2.128 . S
N406 C407 1.355 . S
N406 C409 1.311 . S
C407 N406 1.355 . S
C407 C408 1.363 . S
C407 H419 0.929 . S
C408 C407 1.363 . S
C408 N410 1.375 . S
C408 H426 0.931 . S
C409 N406 1.311 . S
C409 N410 1.347 . S
C409 H420 0.929 . S
N410 C408 1.375 . S
N410 C409 1.347 . S
C411 C414 1.365 . S
C411 N416 1.328 . S
C411 H417 0.929 . S
C412 C413 1.362 . S
C412 C415 1.378 . S
C412 H427 0.929 . S
C413 C412 1.362 . S
C413 C414 1.366 . S
C414 C411 1.365 . S
C414 C413 1.366 . S
C414 H428 0.930 . S
C415 C412 1.378 . S
C415 N416 1.315 . S
C415 H418 0.930 . S
N416 Co396 2.194 . S
N416 C411 1.328 . S
N416 C415 1.315 . S
H417 C411 0.929 . S
H418 C415 0.930 . S
H419 C407 0.929 . S
H420 C409 0.929 . S
O421 Co396 2.351 . S
O421 C424 1.244 . S
O422 Co396 2.155 . S
O422 C424 1.240 . S
O423 Co396 2.096 . S
O423 C404 1.247 . S
C424 O421 1.244 . S
C424 O422 1.240 . S
H425 C399 0.931 . S
H426 C408 0.931 . S
H427 C412 0.929 . S
H428 C414 0.930 . S
Co429 N433 2.148 . S
Co429 N439 2.128 . S
Co429 N449 2.194 . S
Co429 O454 2.351 . S
Co429 O455 2.155 . S
Co429 O456 2.096 . S
C430 N433 1.301 . S
C430 N434 1.328 . S
C430 H435 0.930 . S
C431 C432 1.333 . S
C431 N433 1.317 . S
C431 H436 0.930 . S
C432 C431 1.333 . S
C432 N434 1.350 . S
C432 H458 0.931 . S
N433 Co429 2.148 . S
N433 C430 1.301 . S
N433 C431 1.317 . S
N434 C430 1.328 . S
N434 C432 1.350 . S
H435 C430 0.930 . S
H436 C431 0.930 . S
C437 O438 1.224 . S
C437 O456 1.247 . S
O438 C437 1.224 . S
N439 Co429 2.128 . S
N439 C440 1.355 . S
N439 C442 1.311 . S
C440 N439 1.355 . S
C440 C441 1.363 . S
C440 H452 0.929 . S
C441 C440 1.363 . S
C441 N443 1.375 . S
C441 H459 0.931 . S
C442 N439 1.311 . S
C442 N443 1.347 . S
C442 H453 0.929 . S
N443 C441 1.375 . S
N443 C442 1.347 . S
C444 C447 1.365 . S
C444 N449 1.328 . S
C444 H450 0.929 . S
C445 C446 1.362 . S
C445 C448 1.378 . S
C445 H460 0.929 . S
C446 C445 1.362 . S
C446 C447 1.366 . S
C447 C444 1.365 . S
C447 C446 1.366 . S
C447 H461 0.930 . S
C448 C445 1.378 . S
C448 N449 1.315 . S
C448 H451 0.930 . S
N449 Co429 2.194 . S
N449 C444 1.328 . S
N449 C448 1.315 . S
H450 C444 0.929 . S
H451 C448 0.930 . S
H452 C440 0.929 . S
H453 C442 0.929 . S
O454 Co429 2.351 . S
O454 C457 1.244 . S
O455 Co429 2.155 . S
O455 C457 1.240 . S
O456 Co429 2.096 . S
O456 C437 1.247 . S
C457 O454 1.244 . S
C457 O455 1.240 . S
H458 C432 0.931 . S
H459 C441 0.931 . S
H460 C445 0.929 . S
H461 C447 0.930 . S
Co462 N466 2.148 . S
Co462 N472 2.128 . S
Co462 N482 2.194 . S
Co462 O487 2.351 . S
Co462 O488 2.155 . S
Co462 O489 2.096 . S
C463 N466 1.301 . S
C463 N467 1.328 . S
C463 H468 0.930 . S
C464 C465 1.333 . S
C464 N466 1.317 . S
C464 H469 0.930 . S
C465 C464 1.333 . S
C465 N467 1.350 . S
C465 H491 0.931 . S
N466 Co462 2.148 . S
N466 C463 1.301 . S
N466 C464 1.317 . S
N467 C463 1.328 . S
N467 C465 1.350 . S
H468 C463 0.930 . S
H469 C464 0.930 . S
C470 O471 1.224 . S
C470 O489 1.247 . S
O471 C470 1.224 . S
N472 Co462 2.128 . S
N472 C473 1.355 . S
N472 C475 1.311 . S
C473 N472 1.355 . S
C473 C474 1.363 . S
C473 H485 0.929 . S
C474 C473 1.363 . S
C474 N476 1.375 . S
C474 H492 0.931 . S
C475 N472 1.311 . S
C475 N476 1.347 . S
C475 H486 0.929 . S
N476 C474 1.375 . S
N476 C475 1.347 . S
C477 C480 1.365 . S
C477 N482 1.328 . S
C477 H483 0.929 . S
C478 C479 1.362 . S
C478 C481 1.378 . S
C478 H493 0.929 . S
C479 C478 1.362 . S
C479 C480 1.366 . S
C480 C477 1.365 . S
C480 C479 1.366 . S
C480 H494 0.930 . S
C481 C478 1.378 . S
C481 N482 1.315 . S
C481 H484 0.930 . S
N482 Co462 2.194 . S
N482 C477 1.328 . S
N482 C481 1.315 . S
H483 C477 0.929 . S
H484 C481 0.930 . S
H485 C473 0.929 . S
H486 C475 0.929 . S
O487 Co462 2.351 . S
O487 C490 1.244 . S
O488 Co462 2.155 . S
O488 C490 1.240 . S
O489 Co462 2.096 . S
O489 C470 1.247 . S
C490 O487 1.244 . S
C490 O488 1.240 . S
H491 C465 0.931 . S
H492 C474 0.931 . S
H493 C478 0.929 . S
H494 C480 0.930 . S
Co495 N499 2.148 . S
Co495 N505 2.128 . S
Co495 N515 2.194 . S
Co495 O520 2.351 . S
Co495 O521 2.155 . S
Co495 O522 2.096 . S
C496 N499 1.301 . S
C496 N500 1.328 . S
C496 H501 0.930 . S
C497 C498 1.333 . S
C497 N499 1.317 . S
C497 H502 0.930 . S
C498 C497 1.333 . S
C498 N500 1.350 . S
C498 H524 0.931 . S
N499 Co495 2.148 . S
N499 C496 1.301 . S
N499 C497 1.317 . S
N500 C496 1.328 . S
N500 C498 1.350 . S
H501 C496 0.930 . S
H502 C497 0.930 . S
C503 O504 1.224 . S
C503 O522 1.247 . S
O504 C503 1.224 . S
N505 Co495 2.128 . S
N505 C506 1.355 . S
N505 C508 1.311 . S
C506 N505 1.355 . S
C506 C507 1.363 . S
C506 H518 0.929 . S
C507 C506 1.363 . S
C507 N509 1.375 . S
C507 H525 0.931 . S
C508 N505 1.311 . S
C508 N509 1.347 . S
C508 H519 0.929 . S
N509 C507 1.375 . S
N509 C508 1.347 . S
C510 C513 1.365 . S
C510 N515 1.328 . S
C510 H516 0.929 . S
C511 C512 1.362 . S
C511 C514 1.378 . S
C511 H526 0.929 . S
C512 C511 1.362 . S
C512 C513 1.366 . S
C513 C510 1.365 . S
C513 C512 1.366 . S
C513 H527 0.930 . S
C514 C511 1.378 . S
C514 N515 1.315 . S
C514 H517 0.930 . S
N515 Co495 2.194 . S
N515 C510 1.328 . S
N515 C514 1.315 . S
H516 C510 0.929 . S
H517 C514 0.930 . S
H518 C506 0.929 . S
H519 C508 0.929 . S
O520 Co495 2.351 . S
O520 C523 1.244 . S
O521 Co495 2.155 . S
O521 C523 1.240 . S
O522 Co495 2.096 . S
O522 C503 1.247 . S
C523 O520 1.244 . S
C523 O521 1.240 . S
H524 C498 0.931 . S
H525 C507 0.931 . S
H526 C511 0.929 . S
H527 C513 0.930 . S
Co528 N532 2.148 . S
Co528 N538 2.128 . S
Co528 N548 2.194 . S
Co528 O553 2.351 . S
Co528 O554 2.155 . S
Co528 O555 2.096 . S
C529 N532 1.301 . S
C529 N533 1.328 . S
C529 H534 0.930 . S
C530 C531 1.333 . S
C530 N532 1.317 . S
C530 H535 0.930 . S
C531 C530 1.333 . S
C531 N533 1.350 . S
C531 H557 0.931 . S
N532 Co528 2.148 . S
N532 C529 1.301 . S
N532 C530 1.317 . S
N533 C529 1.328 . S
N533 C531 1.350 . S
H534 C529 0.930 . S
H535 C530 0.930 . S
C536 O537 1.224 . S
C536 O555 1.247 . S
O537 C536 1.224 . S
N538 Co528 2.128 . S
N538 C539 1.355 . S
N538 C541 1.311 . S
C539 N538 1.355 . S
C539 C540 1.363 . S
C539 H551 0.929 . S
C540 C539 1.363 . S
C540 N542 1.375 . S
C540 H558 0.931 . S
C541 N538 1.311 . S
C541 N542 1.347 . S
C541 H552 0.929 . S
N542 C540 1.375 . S
N542 C541 1.347 . S
C543 C546 1.365 . S
C543 N548 1.328 . S
C543 H549 0.929 . S
C544 C545 1.362 . S
C544 C547 1.378 . S
C544 H559 0.929 . S
C545 C544 1.362 . S
C545 C546 1.366 . S
C546 C543 1.365 . S
C546 C545 1.366 . S
C546 H560 0.930 . S
C547 C544 1.378 . S
C547 N548 1.315 . S
C547 H550 0.930 . S
N548 Co528 2.194 . S
N548 C543 1.328 . S
N548 C547 1.315 . S
H549 C543 0.929 . S
H550 C547 0.930 . S
H551 C539 0.929 . S
H552 C541 0.929 . S
O553 Co528 2.351 . S
O553 C556 1.244 . S
O554 Co528 2.155 . S
O554 C556 1.240 . S
O555 Co528 2.096 . S
O555 C536 1.247 . S
C556 O553 1.244 . S
C556 O554 1.240 . S
H557 C531 0.931 . S
H558 C540 0.931 . S
H559 C544 0.929 . S
H560 C546 0.930 . S
Co561 N565 2.148 . S
Co561 N571 2.128 . S
Co561 N581 2.194 . S
Co561 O586 2.351 . S
Co561 O587 2.155 . S
Co561 O588 2.096 . S
C562 N565 1.301 . S
C562 N566 1.328 . S
C562 H567 0.930 . S
C563 C564 1.333 . S
C563 N565 1.317 . S
C563 H568 0.930 . S
C564 C563 1.333 . S
C564 N566 1.350 . S
C564 H590 0.931 . S
N565 Co561 2.148 . S
N565 C562 1.301 . S
N565 C563 1.317 . S
N566 C562 1.328 . S
N566 C564 1.350 . S
H567 C562 0.930 . S
H568 C563 0.930 . S
C569 O570 1.224 . S
C569 O588 1.247 . S
O570 C569 1.224 . S
N571 Co561 2.128 . S
N571 C572 1.355 . S
N571 C574 1.311 . S
C572 N571 1.355 . S
C572 C573 1.363 . S
C572 H584 0.929 . S
C573 C572 1.363 . S
C573 N575 1.375 . S
C573 H591 0.931 . S
C574 N571 1.311 . S
C574 N575 1.347 . S
C574 H585 0.929 . S
N575 C573 1.375 . S
N575 C574 1.347 . S
C576 C579 1.365 . S
C576 N581 1.328 . S
C576 H582 0.929 . S
C577 C578 1.362 . S
C577 C580 1.378 . S
C577 H592 0.929 . S
C578 C577 1.362 . S
C578 C579 1.366 . S
C579 C576 1.365 . S
C579 C578 1.366 . S
C579 H593 0.930 . S
C580 C577 1.378 . S
C580 N581 1.315 . S
C580 H583 0.930 . S
N581 Co561 2.194 . S
N581 C576 1.328 . S
N581 C580 1.315 . S
H582 C576 0.929 . S
H583 C580 0.930 . S
H584 C572 0.929 . S
H585 C574 0.929 . S
O586 Co561 2.351 . S
O586 C589 1.244 . S
O587 Co561 2.155 . S
O587 C589 1.240 . S
O588 Co561 2.096 . S
O588 C569 1.247 . S
C589 O586 1.244 . S
C589 O587 1.240 . S
H590 C564 0.931 . S
H591 C573 0.931 . S
H592 C577 0.929 . S
H593 C579 0.930 . S
Co594 N598 2.148 . S
Co594 N604 2.128 . S
Co594 N614 2.194 . S
Co594 O619 2.351 . S
Co594 O620 2.155 . S
Co594 O621 2.096 . S
C595 N598 1.301 . S
C595 N599 1.328 . S
C595 H600 0.930 . S
C596 C597 1.333 . S
C596 N598 1.317 . S
C596 H601 0.930 . S
C597 C596 1.333 . S
C597 N599 1.350 . S
C597 H623 0.931 . S
N598 Co594 2.148 . S
N598 C595 1.301 . S
N598 C596 1.317 . S
N599 C595 1.328 . S
N599 C597 1.350 . S
H600 C595 0.930 . S
H601 C596 0.930 . S
C602 O603 1.224 . S
C602 O621 1.247 . S
O603 C602 1.224 . S
N604 Co594 2.128 . S
N604 C605 1.355 . S
N604 C607 1.311 . S
C605 N604 1.355 . S
C605 C606 1.363 . S
C605 H617 0.929 . S
C606 C605 1.363 . S
C606 N608 1.375 . S
C606 H624 0.931 . S
C607 N604 1.311 . S
C607 N608 1.347 . S
C607 H618 0.929 . S
N608 C606 1.375 . S
N608 C607 1.347 . S
C609 C612 1.365 . S
C609 N614 1.328 . S
C609 H615 0.929 . S
C610 C611 1.362 . S
C610 C613 1.378 . S
C610 H625 0.929 . S
C611 C610 1.362 . S
C611 C612 1.366 . S
C612 C609 1.365 . S
C612 C611 1.366 . S
C612 H626 0.930 . S
C613 C610 1.378 . S
C613 N614 1.315 . S
C613 H616 0.930 . S
N614 Co594 2.194 . S
N614 C609 1.328 . S
N614 C613 1.315 . S
H615 C609 0.929 . S
H616 C613 0.930 . S
H617 C605 0.929 . S
H618 C607 0.929 . S
O619 Co594 2.351 . S
O619 C622 1.244 . S
O620 Co594 2.155 . S
O620 C622 1.240 . S
O621 Co594 2.096 . S
O621 C602 1.247 . S
C622 O619 1.244 . S
C622 O620 1.240 . S
H623 C597 0.931 . S
H624 C606 0.931 . S
H625 C610 0.929 . S
H626 C612 0.930 . S
Co627 N631 2.148 . S
Co627 N637 2.128 . S
Co627 N647 2.194 . S
Co627 O652 2.351 . S
Co627 O653 2.155 . S
Co627 O654 2.096 . S
C628 N631 1.301 . S
C628 N632 1.328 . S
C628 H633 0.930 . S
C629 C630 1.333 . S
C629 N631 1.317 . S
C629 H634 0.930 . S
C630 C629 1.333 . S
C630 N632 1.350 . S
C630 H656 0.931 . S
N631 Co627 2.148 . S
N631 C628 1.301 . S
N631 C629 1.317 . S
N632 C628 1.328 . S
N632 C630 1.350 . S
H633 C628 0.930 . S
H634 C629 0.930 . S
C635 O636 1.224 . S
C635 O654 1.247 . S
O636 C635 1.224 . S
N637 Co627 2.128 . S
N637 C638 1.355 . S
N637 C640 1.311 . S
C638 N637 1.355 . S
C638 C639 1.363 . S
C638 H650 0.929 . S
C639 C638 1.363 . S
C639 N641 1.375 . S
C639 H657 0.931 . S
C640 N637 1.311 . S
C640 N641 1.347 . S
C640 H651 0.929 . S
N641 C639 1.375 . S
N641 C640 1.347 . S
C642 C645 1.365 . S
C642 N647 1.328 . S
C642 H648 0.929 . S
C643 C644 1.362 . S
C643 C646 1.378 . S
C643 H658 0.929 . S
C644 C643 1.362 . S
C644 C645 1.366 . S
C645 C642 1.365 . S
C645 C644 1.366 . S
C645 H659 0.930 . S
C646 C643 1.378 . S
C646 N647 1.315 . S
C646 H649 0.930 . S
N647 Co627 2.194 . S
N647 C642 1.328 . S
N647 C646 1.315 . S
H648 C642 0.929 . S
H649 C646 0.930 . S
H650 C638 0.929 . S
H651 C640 0.929 . S
O652 Co627 2.351 . S
O652 C655 1.244 . S
O653 Co627 2.155 . S
O653 C655 1.240 . S
O654 Co627 2.096 . S
O654 C635 1.247 . S
C655 O652 1.244 . S
C655 O653 1.240 . S
H656 C630 0.931 . S
H657 C639 0.931 . S
H658 C643 0.929 . S
H659 C645 0.930 . S
Co660 N664 2.148 . S
Co660 N670 2.128 . S
Co660 N680 2.194 . S
Co660 O685 2.351 . S
Co660 O686 2.155 . S
Co660 O687 2.096 . S
C661 N664 1.301 . S
C661 N665 1.328 . S
C661 H666 0.930 . S
C662 C663 1.333 . S
C662 N664 1.317 . S
C662 H667 0.930 . S
C663 C662 1.333 . S
C663 N665 1.350 . S
C663 H689 0.931 . S
N664 Co660 2.148 . S
N664 C661 1.301 . S
N664 C662 1.317 . S
N665 C661 1.328 . S
N665 C663 1.350 . S
H666 C661 0.930 . S
H667 C662 0.930 . S
C668 O669 1.224 . S
C668 O687 1.247 . S
O669 C668 1.224 . S
N670 Co660 2.128 . S
N670 C671 1.355 . S
N670 C673 1.311 . S
C671 N670 1.355 . S
C671 C672 1.363 . S
C671 H683 0.929 . S
C672 C671 1.363 . S
C672 N674 1.375 . S
C672 H690 0.931 . S
C673 N670 1.311 . S
C673 N674 1.347 . S
C673 H684 0.929 . S
N674 C672 1.375 . S
N674 C673 1.347 . S
C675 C678 1.365 . S
C675 N680 1.328 . S
C675 H681 0.929 . S
C676 C677 1.362 . S
C676 C679 1.378 . S
C676 H691 0.929 . S
C677 C676 1.362 . S
C677 C678 1.366 . S
C678 C675 1.365 . S
C678 C677 1.366 . S
C678 H692 0.930 . S
C679 C676 1.378 . S
C679 N680 1.315 . S
C679 H682 0.930 . S
N680 Co660 2.194 . S
N680 C675 1.328 . S
N680 C679 1.315 . S
H681 C675 0.929 . S
H682 C679 0.930 . S
H683 C671 0.929 . S
H684 C673 0.929 . S
O685 Co660 2.351 . S
O685 C688 1.244 . S
O686 Co660 2.155 . S
O686 C688 1.240 . S
O687 Co660 2.096 . S
O687 C668 1.247 . S
C688 O685 1.244 . S
C688 O686 1.240 . S
H689 C663 0.931 . S
H690 C672 0.931 . S
H691 C676 0.929 . S
H692 C678 0.930 . S
Co693 N697 2.148 . S
Co693 N703 2.128 . S
Co693 N713 2.194 . S
Co693 O718 2.351 . S
Co693 O719 2.155 . S
Co693 O720 2.096 . S
C694 N697 1.301 . S
C694 N698 1.328 . S
C694 H699 0.930 . S
C695 C696 1.333 . S
C695 N697 1.317 . S
C695 H700 0.930 . S
C696 C695 1.333 . S
C696 N698 1.350 . S
C696 H722 0.931 . S
N697 Co693 2.148 . S
N697 C694 1.301 . S
N697 C695 1.317 . S
N698 C694 1.328 . S
N698 C696 1.350 . S
H699 C694 0.930 . S
H700 C695 0.930 . S
C701 O702 1.224 . S
C701 O720 1.247 . S
O702 C701 1.224 . S
N703 Co693 2.128 . S
N703 C704 1.355 . S
N703 C706 1.311 . S
C704 N703 1.355 . S
C704 C705 1.363 . S
C704 H716 0.929 . S
C705 C704 1.363 . S
C705 N707 1.375 . S
C705 H723 0.931 . S
C706 N703 1.311 . S
C706 N707 1.347 . S
C706 H717 0.929 . S
N707 C705 1.375 . S
N707 C706 1.347 . S
C708 C711 1.365 . S
C708 N713 1.328 . S
C708 H714 0.929 . S
C709 C710 1.362 . S
C709 C712 1.378 . S
C709 H724 0.929 . S
C710 C709 1.362 . S
C710 C711 1.366 . S
C711 C708 1.365 . S
C711 C710 1.366 . S
C711 H725 0.930 . S
C712 C709 1.378 . S
C712 N713 1.315 . S
C712 H715 0.930 . S
N713 Co693 2.194 . S
N713 C708 1.328 . S
N713 C712 1.315 . S
H714 C708 0.929 . S
H715 C712 0.930 . S
H716 C704 0.929 . S
H717 C706 0.929 . S
O718 Co693 2.351 . S
O718 C721 1.244 . S
O719 Co693 2.155 . S
O719 C721 1.240 . S
O720 Co693 2.096 . S
O720 C701 1.247 . S
C721 O718 1.244 . S
C721 O719 1.240 . S
H722 C696 0.931 . S
H723 C705 0.931 . S
H724 C709 0.929 . S
H725 C711 0.930 . S
Co726 N730 2.148 . S
Co726 N736 2.128 . S
Co726 N746 2.194 . S
Co726 O751 2.351 . S
Co726 O752 2.155 . S
Co726 O753 2.096 . S
C727 N730 1.301 . S
C727 N731 1.328 . S
C727 H732 0.930 . S
C728 C729 1.333 . S
C728 N730 1.317 . S
C728 H733 0.930 . S
C729 C728 1.333 . S
C729 N731 1.350 . S
C729 H755 0.931 . S
N730 Co726 2.148 . S
N730 C727 1.301 . S
N730 C728 1.317 . S
N731 C727 1.328 . S
N731 C729 1.350 . S
H732 C727 0.930 . S
H733 C728 0.930 . S
C734 O735 1.224 . S
C734 O753 1.247 . S
O735 C734 1.224 . S
N736 Co726 2.128 . S
N736 C737 1.355 . S
N736 C739 1.311 . S
C737 N736 1.355 . S
C737 C738 1.363 . S
C737 H749 0.929 . S
C738 C737 1.363 . S
C738 N740 1.375 . S
C738 H756 0.931 . S
C739 N736 1.311 . S
C739 N740 1.347 . S
C739 H750 0.929 . S
N740 C738 1.375 . S
N740 C739 1.347 . S
C741 C744 1.365 . S
C741 N746 1.328 . S
C741 H747 0.929 . S
C742 C743 1.362 . S
C742 C745 1.378 . S
C742 H757 0.929 . S
C743 C742 1.362 . S
C743 C744 1.366 . S
C744 C741 1.365 . S
C744 C743 1.366 . S
C744 H758 0.930 . S
C745 C742 1.378 . S
C745 N746 1.315 . S
C745 H748 0.930 . S
N746 Co726 2.194 . S
N746 C741 1.328 . S
N746 C745 1.315 . S
H747 C741 0.929 . S
H748 C745 0.930 . S
H749 C737 0.929 . S
H750 C739 0.929 . S
O751 Co726 2.351 . S
O751 C754 1.244 . S
O752 Co726 2.155 . S
O752 C754 1.240 . S
O753 Co726 2.096 . S
O753 C734 1.247 . S
C754 O751 1.244 . S
C754 O752 1.240 . S
H755 C729 0.931 . S
H756 C738 0.931 . S
H757 C742 0.929 . S
H758 C744 0.930 . S
Co759 N763 2.148 . S
Co759 N769 2.128 . S
Co759 N779 2.194 . S
Co759 O784 2.351 . S
Co759 O785 2.155 . S
Co759 O786 2.096 . S
C760 N763 1.301 . S
C760 N764 1.328 . S
C760 H765 0.930 . S
C761 C762 1.333 . S
C761 N763 1.317 . S
C761 H766 0.930 . S
C762 C761 1.333 . S
C762 N764 1.350 . S
C762 H788 0.931 . S
N763 Co759 2.148 . S
N763 C760 1.301 . S
N763 C761 1.317 . S
N764 C760 1.328 . S
N764 C762 1.350 . S
H765 C760 0.930 . S
H766 C761 0.930 . S
C767 O768 1.224 . S
C767 O786 1.247 . S
O768 C767 1.224 . S
N769 Co759 2.128 . S
N769 C770 1.355 . S
N769 C772 1.311 . S
C770 N769 1.355 . S
C770 C771 1.363 . S
C770 H782 0.929 . S
C771 C770 1.363 . S
C771 N773 1.375 . S
C771 H789 0.931 . S
C772 N769 1.311 . S
C772 N773 1.347 . S
C772 H783 0.929 . S
N773 C771 1.375 . S
N773 C772 1.347 . S
C774 C777 1.365 . S
C774 N779 1.328 . S
C774 H780 0.929 . S
C775 C776 1.362 . S
C775 C778 1.378 . S
C775 H790 0.929 . S
C776 C775 1.362 . S
C776 C777 1.366 . S
C777 C774 1.365 . S
C777 C776 1.366 . S
C777 H791 0.930 . S
C778 C775 1.378 . S
C778 N779 1.315 . S
C778 H781 0.930 . S
N779 Co759 2.194 . S
N779 C774 1.328 . S
N779 C778 1.315 . S
H780 C774 0.929 . S
H781 C778 0.930 . S
H782 C770 0.929 . S
H783 C772 0.929 . S
O784 Co759 2.351 . S
O784 C787 1.244 . S
O785 Co759 2.155 . S
O785 C787 1.240 . S
O786 Co759 2.096 . S
O786 C767 1.247 . S
C787 O784 1.244 . S
C787 O785 1.240 . S
H788 C762 0.931 . S
H789 C771 0.931 . S
H790 C775 0.929 . S
H791 C777 0.930 . S
Co792 N796 2.148 . S
Co792 N802 2.128 . S
Co792 N812 2.194 . S
Co792 O817 2.351 . S
Co792 O818 2.155 . S
Co792 O819 2.096 . S
C793 N796 1.301 . S
C793 N797 1.328 . S
C793 H798 0.930 . S
C794 C795 1.333 . S
C794 N796 1.317 . S
C794 H799 0.930 . S
C795 C794 1.333 . S
C795 N797 1.350 . S
C795 H821 0.931 . S
N796 Co792 2.148 . S
N796 C793 1.301 . S
N796 C794 1.317 . S
N797 C793 1.328 . S
N797 C795 1.350 . S
H798 C793 0.930 . S
H799 C794 0.930 . S
C800 O801 1.224 . S
C800 O819 1.247 . S
O801 C800 1.224 . S
N802 Co792 2.128 . S
N802 C803 1.355 . S
N802 C805 1.311 . S
C803 N802 1.355 . S
C803 C804 1.363 . S
C803 H815 0.929 . S
C804 C803 1.363 . S
C804 N806 1.375 . S
C804 H822 0.931 . S
C805 N802 1.311 . S
C805 N806 1.347 . S
C805 H816 0.929 . S
N806 C804 1.375 . S
N806 C805 1.347 . S
C807 C810 1.365 . S
C807 N812 1.328 . S
C807 H813 0.929 . S
C808 C809 1.362 . S
C808 C811 1.378 . S
C808 H823 0.929 . S
C809 C808 1.362 . S
C809 C810 1.366 . S
C810 C807 1.365 . S
C810 C809 1.366 . S
C810 H824 0.930 . S
C811 C808 1.378 . S
C811 N812 1.315 . S
C811 H814 0.930 . S
N812 Co792 2.194 . S
N812 C807 1.328 . S
N812 C811 1.315 . S
H813 C807 0.929 . S
H814 C811 0.930 . S
H815 C803 0.929 . S
H816 C805 0.929 . S
O817 Co792 2.351 . S
O817 C820 1.244 . S
O818 Co792 2.155 . S
O818 C820 1.240 . S
O819 Co792 2.096 . S
O819 C800 1.247 . S
C820 O817 1.244 . S
C820 O818 1.240 . S
H821 C795 0.931 . S
H822 C804 0.931 . S
H823 C808 0.929 . S
H824 C810 0.930 . S
Co825 N829 2.148 . S
Co825 N835 2.128 . S
Co825 N845 2.194 . S
Co825 O850 2.351 . S
Co825 O851 2.155 . S
Co825 O852 2.096 . S
C826 N829 1.301 . S
C826 N830 1.328 . S
C826 H831 0.930 . S
C827 C828 1.333 . S
C827 N829 1.317 . S
C827 H832 0.930 . S
C828 C827 1.333 . S
C828 N830 1.350 . S
C828 H854 0.931 . S
N829 Co825 2.148 . S
N829 C826 1.301 . S
N829 C827 1.317 . S
N830 C826 1.328 . S
N830 C828 1.350 . S
H831 C826 0.930 . S
H832 C827 0.930 . S
C833 O834 1.224 . S
C833 O852 1.247 . S
O834 C833 1.224 . S
N835 Co825 2.128 . S
N835 C836 1.355 . S
N835 C838 1.311 . S
C836 N835 1.355 . S
C836 C837 1.363 . S
C836 H848 0.929 . S
C837 C836 1.363 . S
C837 N839 1.375 . S
C837 H855 0.931 . S
C838 N835 1.311 . S
C838 N839 1.347 . S
C838 H849 0.929 . S
N839 C837 1.375 . S
N839 C838 1.347 . S
C840 C843 1.365 . S
C840 N845 1.328 . S
C840 H846 0.929 . S
C841 C842 1.362 . S
C841 C844 1.378 . S
C841 H856 0.929 . S
C842 C841 1.362 . S
C842 C843 1.366 . S
C843 C840 1.365 . S
C843 C842 1.366 . S
C843 H857 0.930 . S
C844 C841 1.378 . S
C844 N845 1.315 . S
C844 H847 0.930 . S
N845 Co825 2.194 . S
N845 C840 1.328 . S
N845 C844 1.315 . S
H846 C840 0.929 . S
H847 C844 0.930 . S
H848 C836 0.929 . S
H849 C838 0.929 . S
O850 Co825 2.351 . S
O850 C853 1.244 . S
O851 Co825 2.155 . S
O851 C853 1.240 . S
O852 Co825 2.096 . S
O852 C833 1.247 . S
C853 O850 1.244 . S
C853 O851 1.240 . S
H854 C828 0.931 . S
H855 C837 0.931 . S
H856 C841 0.929 . S
H857 C843 0.930 . S
Co858 N862 2.148 . S
Co858 N868 2.128 . S
Co858 N878 2.194 . S
Co858 O883 2.351 . S
Co858 O884 2.155 . S
Co858 O885 2.096 . S
C859 N862 1.301 . S
C859 N863 1.328 . S
C859 H864 0.930 . S
C860 C861 1.333 . S
C860 N862 1.317 . S
C860 H865 0.930 . S
C861 C860 1.333 . S
C861 N863 1.350 . S
C861 H887 0.931 . S
N862 Co858 2.148 . S
N862 C859 1.301 . S
N862 C860 1.317 . S
N863 C859 1.328 . S
N863 C861 1.350 . S
H864 C859 0.930 . S
H865 C860 0.930 . S
C866 O867 1.224 . S
C866 O885 1.247 . S
O867 C866 1.224 . S
N868 Co858 2.128 . S
N868 C869 1.355 . S
N868 C871 1.311 . S
C869 N868 1.355 . S
C869 C870 1.363 . S
C869 H881 0.929 . S
C870 C869 1.363 . S
C870 N872 1.375 . S
C870 H888 0.931 . S
C871 N868 1.311 . S
C871 N872 1.347 . S
C871 H882 0.929 . S
N872 C870 1.375 . S
N872 C871 1.347 . S
C873 C876 1.365 . S
C873 N878 1.328 . S
C873 H879 0.929 . S
C874 C875 1.362 . S
C874 C877 1.378 . S
C874 H889 0.929 . S
C875 C874 1.362 . S
C875 C876 1.366 . S
C876 C873 1.365 . S
C876 C875 1.366 . S
C876 H890 0.930 . S
C877 C874 1.378 . S
C877 N878 1.315 . S
C877 H880 0.930 . S
N878 Co858 2.194 . S
N878 C873 1.328 . S
N878 C877 1.315 . S
H879 C873 0.929 . S
H880 C877 0.930 . S
H881 C869 0.929 . S
H882 C871 0.929 . S
O883 Co858 2.351 . S
O883 C886 1.244 . S
O884 Co858 2.155 . S
O884 C886 1.240 . S
O885 Co858 2.096 . S
O885 C866 1.247 . S
C886 O883 1.244 . S
C886 O884 1.240 . S
H887 C861 0.931 . S
H888 C870 0.931 . S
H889 C874 0.929 . S
H890 C876 0.930 . S
Co891 N895 2.148 . S
Co891 N901 2.128 . S
Co891 N911 2.194 . S
Co891 O916 2.351 . S
Co891 O917 2.155 . S
Co891 O918 2.096 . S
C892 N895 1.301 . S
C892 N896 1.328 . S
C892 H897 0.930 . S
C893 C894 1.333 . S
C893 N895 1.317 . S
C893 H898 0.930 . S
C894 C893 1.333 . S
C894 N896 1.350 . S
C894 H920 0.931 . S
N895 Co891 2.148 . S
N895 C892 1.301 . S
N895 C893 1.317 . S
N896 C892 1.328 . S
N896 C894 1.350 . S
H897 C892 0.930 . S
H898 C893 0.930 . S
C899 O900 1.224 . S
C899 O918 1.247 . S
O900 C899 1.224 . S
N901 Co891 2.128 . S
N901 C902 1.355 . S
N901 C904 1.311 . S
C902 N901 1.355 . S
C902 C903 1.363 . S
C902 H914 0.929 . S
C903 C902 1.363 . S
C903 N905 1.375 . S
C903 H921 0.931 . S
C904 N901 1.311 . S
C904 N905 1.347 . S
C904 H915 0.929 . S
N905 C903 1.375 . S
N905 C904 1.347 . S
C906 C909 1.365 . S
C906 N911 1.328 . S
C906 H912 0.929 . S
C907 C908 1.362 . S
C907 C910 1.378 . S
C907 H922 0.929 . S
C908 C907 1.362 . S
C908 C909 1.366 . S
C909 C906 1.365 . S
C909 C908 1.366 . S
C909 H923 0.930 . S
C910 C907 1.378 . S
C910 N911 1.315 . S
C910 H913 0.930 . S
N911 Co891 2.194 . S
N911 C906 1.328 . S
N911 C910 1.315 . S
H912 C906 0.929 . S
H913 C910 0.930 . S
H914 C902 0.929 . S
H915 C904 0.929 . S
O916 Co891 2.351 . S
O916 C919 1.244 . S
O917 Co891 2.155 . S
O917 C919 1.240 . S
O918 Co891 2.096 . S
O918 C899 1.247 . S
C919 O916 1.244 . S
C919 O917 1.240 . S
H920 C894 0.931 . S
H921 C903 0.931 . S
H922 C907 0.929 . S
H923 C909 0.930 . S
Co924 N928 2.148 . S
Co924 N934 2.128 . S
Co924 N944 2.194 . S
Co924 O949 2.351 . S
Co924 O950 2.155 . S
Co924 O951 2.096 . S
C925 N928 1.301 . S
C925 N929 1.328 . S
C925 H930 0.930 . S
C926 C927 1.333 . S
C926 N928 1.317 . S
C926 H931 0.930 . S
C927 C926 1.333 . S
C927 N929 1.350 . S
C927 H953 0.931 . S
N928 Co924 2.148 . S
N928 C925 1.301 . S
N928 C926 1.317 . S
N929 C925 1.328 . S
N929 C927 1.350 . S
H930 C925 0.930 . S
H931 C926 0.930 . S
C932 O933 1.224 . S
C932 O951 1.247 . S
O933 C932 1.224 . S
N934 Co924 2.128 . S
N934 C935 1.355 . S
N934 C937 1.311 . S
C935 N934 1.355 . S
C935 C936 1.363 . S
C935 H947 0.929 . S
C936 C935 1.363 . S
C936 N938 1.375 . S
C936 H954 0.931 . S
C937 N934 1.311 . S
C937 N938 1.347 . S
C937 H948 0.929 . S
N938 C936 1.375 . S
N938 C937 1.347 . S
C939 C942 1.365 . S
C939 N944 1.328 . S
C939 H945 0.929 . S
C940 C941 1.362 . S
C940 C943 1.378 . S
C940 H955 0.929 . S
C941 C940 1.362 . S
C941 C942 1.366 . S
C942 C939 1.365 . S
C942 C941 1.366 . S
C942 H956 0.930 . S
C943 C940 1.378 . S
C943 N944 1.315 . S
C943 H946 0.930 . S
N944 Co924 2.194 . S
N944 C939 1.328 . S
N944 C943 1.315 . S
H945 C939 0.929 . S
H946 C943 0.930 . S
H947 C935 0.929 . S
H948 C937 0.929 . S
O949 Co924 2.351 . S
O949 C952 1.244 . S
O950 Co924 2.155 . S
O950 C952 1.240 . S
O951 Co924 2.096 . S
O951 C932 1.247 . S
C952 O949 1.244 . S
C952 O950 1.240 . S
H953 C927 0.931 . S
H954 C936 0.931 . S
H955 C940 0.929 . S
H956 C942 0.930 . S
Co957 N961 2.148 . S
Co957 N967 2.128 . S
Co957 N977 2.194 . S
Co957 O982 2.351 . S
Co957 O983 2.155 . S
Co957 O984 2.096 . S
C958 N961 1.301 . S
C958 N962 1.328 . S
C958 H963 0.930 . S
C959 C960 1.333 . S
C959 N961 1.317 . S
C959 H964 0.930 . S
C960 C959 1.333 . S
C960 N962 1.350 . S
C960 H986 0.931 . S
N961 Co957 2.148 . S
N961 C958 1.301 . S
N961 C959 1.317 . S
N962 C958 1.328 . S
N962 C960 1.350 . S
H963 C958 0.930 . S
H964 C959 0.930 . S
C965 O966 1.224 . S
C965 O984 1.247 . S
O966 C965 1.224 . S
N967 Co957 2.128 . S
N967 C968 1.355 . S
N967 C970 1.311 . S
C968 N967 1.355 . S
C968 C969 1.363 . S
C968 H980 0.929 . S
C969 C968 1.363 . S
C969 N971 1.375 . S
C969 H987 0.931 . S
C970 N967 1.311 . S
C970 N971 1.347 . S
C970 H981 0.929 . S
N971 C969 1.375 . S
N971 C970 1.347 . S
C972 C975 1.365 . S
C972 N977 1.328 . S
C972 H978 0.929 . S
C973 C974 1.362 . S
C973 C976 1.378 . S
C973 H988 0.929 . S
C974 C973 1.362 . S
C974 C975 1.366 . S
C975 C972 1.365 . S
C975 C974 1.366 . S
C975 H989 0.930 . S
C976 C973 1.378 . S
C976 N977 1.315 . S
C976 H979 0.930 . S
N977 Co957 2.194 . S
N977 C972 1.328 . S
N977 C976 1.315 . S
H978 C972 0.929 . S
H979 C976 0.930 . S
H980 C968 0.929 . S
H981 C970 0.929 . S
O982 Co957 2.351 . S
O982 C985 1.244 . S
O983 Co957 2.155 . S
O983 C985 1.240 . S
O984 Co957 2.096 . S
O984 C965 1.247 . S
C985 O982 1.244 . S
C985 O983 1.240 . S
H986 C960 0.931 . S
H987 C969 0.931 . S
H988 C973 0.929 . S
H989 C975 0.930 . S
Co990 N994 2.148 . S
Co990 N1000 2.128 . S
Co990 N1010 2.194 . S
Co990 O1015 2.351 . S
Co990 O1016 2.155 . S
Co990 O1017 2.096 . S
C991 N994 1.301 . S
C991 N995 1.328 . S
C991 H996 0.930 . S
C992 C993 1.333 . S
C992 N994 1.317 . S
C992 H997 0.930 . S
C993 C992 1.333 . S
C993 N995 1.350 . S
C993 H1019 0.931 . S
N994 Co990 2.148 . S
N994 C991 1.301 . S
N994 C992 1.317 . S
N995 C991 1.328 . S
N995 C993 1.350 . S
H996 C991 0.930 . S
H997 C992 0.930 . S
C998 O999 1.224 . S
C998 O1017 1.247 . S
O999 C998 1.224 . S
N1000 Co990 2.128 . S
N1000 C1001 1.355 . S
N1000 C1003 1.311 . S
C1001 N1000 1.355 . S
C1001 C1002 1.363 . S
C1001 H1013 0.929 . S
C1002 C1001 1.363 . S
C1002 N1004 1.375 . S
C1002 H1020 0.931 . S
C1003 N1000 1.311 . S
C1003 N1004 1.347 . S
C1003 H1014 0.929 . S
N1004 C1002 1.375 . S
N1004 C1003 1.347 . S
C1005 C1008 1.365 . S
C1005 N1010 1.328 . S
C1005 H1011 0.929 . S
C1006 C1007 1.362 . S
C1006 C1009 1.378 . S
C1006 H1021 0.929 . S
C1007 C1006 1.362 . S
C1007 C1008 1.366 . S
C1008 C1005 1.365 . S
C1008 C1007 1.366 . S
C1008 H1022 0.930 . S
C1009 C1006 1.378 . S
C1009 N1010 1.315 . S
C1009 H1012 0.930 . S
N1010 Co990 2.194 . S
N1010 C1005 1.328 . S
N1010 C1009 1.315 . S
H1011 C1005 0.929 . S
H1012 C1009 0.930 . S
H1013 C1001 0.929 . S
H1014 C1003 0.929 . S
O1015 Co990 2.351 . S
O1015 C1018 1.244 . S
O1016 Co990 2.155 . S
O1016 C1018 1.240 . S
O1017 Co990 2.096 . S
O1017 C998 1.247 . S
C1018 O1015 1.244 . S
C1018 O1016 1.240 . S
H1019 C993 0.931 . S
H1020 C1002 0.931 . S
H1021 C1006 0.929 . S
H1022 C1008 0.930 . S
Co1023 N1027 2.148 . S
Co1023 N1033 2.128 . S
Co1023 N1043 2.194 . S
Co1023 O1048 2.351 . S
Co1023 O1049 2.155 . S
Co1023 O1050 2.096 . S
C1024 N1027 1.301 . S
C1024 N1028 1.328 . S
C1024 H1029 0.930 . S
C1025 C1026 1.333 . S
C1025 N1027 1.317 . S
C1025 H1030 0.930 . S
C1026 C1025 1.333 . S
C1026 N1028 1.350 . S
C1026 H1052 0.931 . S
N1027 Co1023 2.148 . S
N1027 C1024 1.301 . S
N1027 C1025 1.317 . S
N1028 C1024 1.328 . S
N1028 C1026 1.350 . S
H1029 C1024 0.930 . S
H1030 C1025 0.930 . S
C1031 O1032 1.224 . S
C1031 O1050 1.247 . S
O1032 C1031 1.224 . S
N1033 Co1023 2.128 . S
N1033 C1034 1.355 . S
N1033 C1036 1.311 . S
C1034 N1033 1.355 . S
C1034 C1035 1.363 . S
C1034 H1046 0.929 . S
C1035 C1034 1.363 . S
C1035 N1037 1.375 . S
C1035 H1053 0.931 . S
C1036 N1033 1.311 . S
C1036 N1037 1.347 . S
C1036 H1047 0.929 . S
N1037 C1035 1.375 . S
N1037 C1036 1.347 . S
C1038 C1041 1.365 . S
C1038 N1043 1.328 . S
C1038 H1044 0.929 . S
C1039 C1040 1.362 . S
C1039 C1042 1.378 . S
C1039 H1054 0.929 . S
C1040 C1039 1.362 . S
C1040 C1041 1.366 . S
C1041 C1038 1.365 . S
C1041 C1040 1.366 . S
C1041 H1055 0.930 . S
C1042 C1039 1.378 . S
C1042 N1043 1.315 . S
C1042 H1045 0.930 . S
N1043 Co1023 2.194 . S
N1043 C1038 1.328 . S
N1043 C1042 1.315 . S
H1044 C1038 0.929 . S
H1045 C1042 0.930 . S
H1046 C1034 0.929 . S
H1047 C1036 0.929 . S
O1048 Co1023 2.351 . S
O1048 C1051 1.244 . S
O1049 Co1023 2.155 . S
O1049 C1051 1.240 . S
O1050 Co1023 2.096 . S
O1050 C1031 1.247 . S
C1051 O1048 1.244 . S
C1051 O1049 1.240 . S
H1052 C1026 0.931 . S
H1053 C1035 0.931 . S
H1054 C1039 0.929 . S
H1055 C1041 0.930 . S
Co1056 N1060 2.148 . S
Co1056 N1066 2.128 . S
Co1056 N1076 2.194 . S
Co1056 O1081 2.351 . S
Co1056 O1082 2.155 . S
Co1056 O1083 2.096 . S
C1057 N1060 1.301 . S
C1057 N1061 1.328 . S
C1057 H1062 0.930 . S
C1058 C1059 1.333 . S
C1058 N1060 1.317 . S
C1058 H1063 0.930 . S
C1059 C1058 1.333 . S
C1059 N1061 1.350 . S
C1059 H1085 0.931 . S
N1060 Co1056 2.148 . S
N1060 C1057 1.301 . S
N1060 C1058 1.317 . S
N1061 C1057 1.328 . S
N1061 C1059 1.350 . S
H1062 C1057 0.930 . S
H1063 C1058 0.930 . S
C1064 O1065 1.224 . S
C1064 O1083 1.247 . S
O1065 C1064 1.224 . S
N1066 Co1056 2.128 . S
N1066 C1067 1.355 . S
N1066 C1069 1.311 . S
C1067 N1066 1.355 . S
C1067 C1068 1.363 . S
C1067 H1079 0.929 . S
C1068 C1067 1.363 . S
C1068 N1070 1.375 . S
C1068 H1086 0.931 . S
C1069 N1066 1.311 . S
C1069 N1070 1.347 . S
C1069 H1080 0.929 . S
N1070 C1068 1.375 . S
N1070 C1069 1.347 . S
C1071 C1074 1.365 . S
C1071 N1076 1.328 . S
C1071 H1077 0.929 . S
C1072 C1073 1.362 . S
C1072 C1075 1.378 . S
C1072 H1087 0.929 . S
C1073 C1072 1.362 . S
C1073 C1074 1.366 . S
C1074 C1071 1.365 . S
C1074 C1073 1.366 . S
C1074 H1088 0.930 . S
C1075 C1072 1.378 . S
C1075 N1076 1.315 . S
C1075 H1078 0.930 . S
N1076 Co1056 2.194 . S
N1076 C1071 1.328 . S
N1076 C1075 1.315 . S
H1077 C1071 0.929 . S
H1078 C1075 0.930 . S
H1079 C1067 0.929 . S
H1080 C1069 0.929 . S
O1081 Co1056 2.351 . S
O1081 C1084 1.244 . S
O1082 Co1056 2.155 . S
O1082 C1084 1.240 . S
O1083 Co1056 2.096 . S
O1083 C1064 1.247 . S
C1084 O1081 1.244 . S
C1084 O1082 1.240 . S
H1085 C1059 0.931 . S
H1086 C1068 0.931 . S
H1087 C1072 0.929 . S
H1088 C1074 0.930 . S
Co1089 N1093 2.148 . S
Co1089 N1099 2.128 . S
Co1089 N1109 2.194 . S
Co1089 O1114 2.351 . S
Co1089 O1115 2.155 . S
Co1089 O1116 2.096 . S
C1090 N1093 1.301 . S
C1090 N1094 1.328 . S
C1090 H1095 0.930 . S
C1091 C1092 1.333 . S
C1091 N1093 1.317 . S
C1091 H1096 0.930 . S
C1092 C1091 1.333 . S
C1092 N1094 1.350 . S
C1092 H1118 0.931 . S
N1093 Co1089 2.148 . S
N1093 C1090 1.301 . S
N1093 C1091 1.317 . S
N1094 C1090 1.328 . S
N1094 C1092 1.350 . S
H1095 C1090 0.930 . S
H1096 C1091 0.930 . S
C1097 O1098 1.224 . S
C1097 O1116 1.247 . S
O1098 C1097 1.224 . S
N1099 Co1089 2.128 . S
N1099 C1100 1.355 . S
N1099 C1102 1.311 . S
C1100 N1099 1.355 . S
C1100 C1101 1.363 . S
C1100 H1112 0.929 . S
C1101 C1100 1.363 . S
C1101 N1103 1.375 . S
C1101 H1119 0.931 . S
C1102 N1099 1.311 . S
C1102 N1103 1.347 . S
C1102 H1113 0.929 . S
N1103 C1101 1.375 . S
N1103 C1102 1.347 . S
C1104 C1107 1.365 . S
C1104 N1109 1.328 . S
C1104 H1110 0.929 . S
C1105 C1106 1.362 . S
C1105 C1108 1.378 . S
C1105 H1120 0.929 . S
C1106 C1105 1.362 . S
C1106 C1107 1.366 . S
C1107 C1104 1.365 . S
C1107 C1106 1.366 . S
C1107 H1121 0.930 . S
C1108 C1105 1.378 . S
C1108 N1109 1.315 . S
C1108 H1111 0.930 . S
N1109 Co1089 2.194 . S
N1109 C1104 1.328 . S
N1109 C1108 1.315 . S
H1110 C1104 0.929 . S
H1111 C1108 0.930 . S
H1112 C1100 0.929 . S
H1113 C1102 0.929 . S
O1114 Co1089 2.351 . S
O1114 C1117 1.244 . S
O1115 Co1089 2.155 . S
O1115 C1117 1.240 . S
O1116 Co1089 2.096 . S
O1116 C1097 1.247 . S
C1117 O1114 1.244 . S
C1117 O1115 1.240 . S
H1118 C1092 0.931 . S
H1119 C1101 0.931 . S
H1120 C1105 0.929 . S
H1121 C1107 0.930 . S
Co1122 N1126 2.148 . S
Co1122 N1132 2.128 . S
Co1122 N1142 2.194 . S
Co1122 O1147 2.351 . S
Co1122 O1148 2.155 . S
Co1122 O1149 2.096 . S
C1123 N1126 1.301 . S
C1123 N1127 1.328 . S
C1123 H1128 0.930 . S
C1124 C1125 1.333 . S
C1124 N1126 1.317 . S
C1124 H1129 0.930 . S
C1125 C1124 1.333 . S
C1125 N1127 1.350 . S
C1125 H1151 0.931 . S
N1126 Co1122 2.148 . S
N1126 C1123 1.301 . S
N1126 C1124 1.317 . S
N1127 C1123 1.328 . S
N1127 C1125 1.350 . S
H1128 C1123 0.930 . S
H1129 C1124 0.930 . S
C1130 O1131 1.224 . S
C1130 O1149 1.247 . S
O1131 C1130 1.224 . S
N1132 Co1122 2.128 . S
N1132 C1133 1.355 . S
N1132 C1135 1.311 . S
C1133 N1132 1.355 . S
C1133 C1134 1.363 . S
C1133 H1145 0.929 . S
C1134 C1133 1.363 . S
C1134 N1136 1.375 . S
C1134 H1152 0.931 . S
C1135 N1132 1.311 . S
C1135 N1136 1.347 . S
C1135 H1146 0.929 . S
N1136 C1134 1.375 . S
N1136 C1135 1.347 . S
C1137 C1140 1.365 . S
C1137 N1142 1.328 . S
C1137 H1143 0.929 . S
C1138 C1139 1.362 . S
C1138 C1141 1.378 . S
C1138 H1153 0.929 . S
C1139 C1138 1.362 . S
C1139 C1140 1.366 . S
C1140 C1137 1.365 . S
C1140 C1139 1.366 . S
C1140 H1154 0.930 . S
C1141 C1138 1.378 . S
C1141 N1142 1.315 . S
C1141 H1144 0.930 . S
N1142 Co1122 2.194 . S
N1142 C1137 1.328 . S
N1142 C1141 1.315 . S
H1143 C1137 0.929 . S
H1144 C1141 0.930 . S
H1145 C1133 0.929 . S
H1146 C1135 0.929 . S
O1147 Co1122 2.351 . S
O1147 C1150 1.244 . S
O1148 Co1122 2.155 . S
O1148 C1150 1.240 . S
O1149 Co1122 2.096 . S
O1149 C1130 1.247 . S
C1150 O1147 1.244 . S
C1150 O1148 1.240 . S
H1151 C1125 0.931 . S
H1152 C1134 0.931 . S
H1153 C1138 0.929 . S
H1154 C1140 0.930 . S
Co1155 N1159 2.148 . S
Co1155 N1165 2.128 . S
Co1155 N1175 2.194 . S
Co1155 O1180 2.351 . S
Co1155 O1181 2.155 . S
Co1155 O1182 2.096 . S
C1156 N1159 1.301 . S
C1156 N1160 1.328 . S
C1156 H1161 0.930 . S
C1157 C1158 1.333 . S
C1157 N1159 1.317 . S
C1157 H1162 0.930 . S
C1158 C1157 1.333 . S
C1158 N1160 1.350 . S
C1158 H1184 0.931 . S
N1159 Co1155 2.148 . S
N1159 C1156 1.301 . S
N1159 C1157 1.317 . S
N1160 C1156 1.328 . S
N1160 C1158 1.350 . S
H1161 C1156 0.930 . S
H1162 C1157 0.930 . S
C1163 O1164 1.224 . S
C1163 O1182 1.247 . S
O1164 C1163 1.224 . S
N1165 Co1155 2.128 . S
N1165 C1166 1.355 . S
N1165 C1168 1.311 . S
C1166 N1165 1.355 . S
C1166 C1167 1.363 . S
C1166 H1178 0.929 . S
C1167 C1166 1.363 . S
C1167 N1169 1.375 . S
C1167 H1185 0.931 . S
C1168 N1165 1.311 . S
C1168 N1169 1.347 . S
C1168 H1179 0.929 . S
N1169 C1167 1.375 . S
N1169 C1168 1.347 . S
C1170 C1173 1.365 . S
C1170 N1175 1.328 . S
C1170 H1176 0.929 . S
C1171 C1172 1.362 . S
C1171 C1174 1.378 . S
C1171 H1186 0.929 . S
C1172 C1171 1.362 . S
C1172 C1173 1.366 . S
C1173 C1170 1.365 . S
C1173 C1172 1.366 . S
C1173 H1187 0.930 . S
C1174 C1171 1.378 . S
C1174 N1175 1.315 . S
C1174 H1177 0.930 . S
N1175 Co1155 2.194 . S
N1175 C1170 1.328 . S
N1175 C1174 1.315 . S
H1176 C1170 0.929 . S
H1177 C1174 0.930 . S
H1178 C1166 0.929 . S
H1179 C1168 0.929 . S
O1180 Co1155 2.351 . S
O1180 C1183 1.244 . S
O1181 Co1155 2.155 . S
O1181 C1183 1.240 . S
O1182 Co1155 2.096 . S
O1182 C1163 1.247 . S
C1183 O1180 1.244 . S
C1183 O1181 1.240 . S
H1184 C1158 0.931 . S
H1185 C1167 0.931 . S
H1186 C1171 0.929 . S
H1187 C1173 0.930 . S
H1188 C1194 0.930 . S
H1189 C1198 0.930 . S
H1190 C1203 0.929 . S
H1191 C1201 0.929 . S
H1192 C1196 0.929 . S
H1193 C1202 0.929 . S
C1194 H1188 0.930 . S
C1194 C1195 1.367 . S
C1194 C1202 1.378 . S
C1195 C1194 1.367 . S
C1195 C1203 1.433 . S
C1196 H1192 0.929 . S
C1196 C1198 1.378 . S
C1196 C1200 1.350 . S
C1197 C1200 1.463 . S
C1197 C1202 1.350 . S
C1197 N1205 1.427 . S
C1198 H1189 0.930 . S
C1198 C1196 1.378 . S
C1198 C1199 1.367 . S
C1199 C1198 1.367 . S
C1199 C1201 1.433 . S
C1200 C1196 1.350 . S
C1200 C1197 1.463 . S
C1200 N1204 1.427 . S
C1201 H1191 0.929 . S
C1201 C1199 1.433 . S
C1201 N1204 1.384 . S
C1202 H1193 0.929 . S
C1202 C1194 1.378 . S
C1202 C1197 1.350 . S
C1203 H1190 0.929 . S
C1203 C1195 1.433 . S
C1203 N1205 1.384 . S
N1204 C1200 1.427 . S
N1204 C1201 1.384 . S
N1205 C1197 1.427 . S
N1205 C1203 1.384 . S
H1206 C1212 0.930 . S
H1207 C1216 0.930 . S
H1208 C1221 0.929 . S
H1209 C1219 0.929 . S
H1210 C1214 0.929 . S
H1211 C1220 0.929 . S
C1212 H1206 0.930 . S
C1212 C1213 1.367 . S
C1212 C1220 1.378 . S
C1213 C1212 1.367 . S
C1213 C1221 1.433 . S
C1214 H1210 0.929 . S
C1214 C1216 1.378 . S
C1214 C1218 1.350 . S
C1215 C1218 1.463 . S
C1215 C1220 1.350 . S
C1215 N1223 1.427 . S
C1216 H1207 0.930 . S
C1216 C1214 1.378 . S
C1216 C1217 1.367 . S
C1217 C1216 1.367 . S
C1217 C1219 1.433 . S
C1218 C1214 1.350 . S
C1218 C1215 1.463 . S
C1218 N1222 1.427 . S
C1219 H1209 0.929 . S
C1219 C1217 1.433 . S
C1219 N1222 1.384 . S
C1220 H1211 0.929 . S
C1220 C1212 1.378 . S
C1220 C1215 1.350 . S
C1221 H1208 0.929 . S
C1221 C1213 1.433 . S
C1221 N1223 1.384 . S
N1222 C1218 1.427 . S
N1222 C1219 1.384 . S
N1223 C1215 1.427 . S
N1223 C1221 1.384 . S
H1224 C1230 0.930 . S
H1225 C1234 0.930 . S
H1226 C1239 0.929 . S
H1227 C1237 0.929 . S
H1228 C1232 0.929 . S
H1229 C1238 0.929 . S
C1230 H1224 0.930 . S
C1230 C1231 1.367 . S
C1230 C1238 1.378 . S
C1231 C1230 1.367 . S
C1231 C1239 1.433 . S
C1232 H1228 0.929 . S
C1232 C1234 1.378 . S
C1232 C1236 1.350 . S
C1233 C1236 1.463 . S
C1233 C1238 1.350 . S
C1233 N1241 1.427 . S
C1234 H1225 0.930 . S
C1234 C1232 1.378 . S
C1234 C1235 1.367 . S
C1235 C1234 1.367 . S
C1235 C1237 1.433 . S
C1236 C1232 1.350 . S
C1236 C1233 1.463 . S
C1236 N1240 1.427 . S
C1237 H1227 0.929 . S
C1237 C1235 1.433 . S
C1237 N1240 1.384 . S
C1238 H1229 0.929 . S
C1238 C1230 1.378 . S
C1238 C1233 1.350 . S
C1239 H1226 0.929 . S
C1239 C1231 1.433 . S
C1239 N1241 1.384 . S
N1240 C1236 1.427 . S
N1240 C1237 1.384 . S
N1241 C1233 1.427 . S
N1241 C1239 1.384 . S
H1242 C1248 0.930 . S
H1243 C1252 0.930 . S
H1244 C1257 0.929 . S
H1245 C1255 0.929 . S
H1246 C1250 0.929 . S
H1247 C1256 0.929 . S
C1248 H1242 0.930 . S
C1248 C1249 1.367 . S
C1248 C1256 1.378 . S
C1249 C1248 1.367 . S
C1249 C1257 1.433 . S
C1250 H1246 0.929 . S
C1250 C1252 1.378 . S
C1250 C1254 1.350 . S
C1251 C1254 1.463 . S
C1251 C1256 1.350 . S
C1251 N1259 1.427 . S
C1252 H1243 0.930 . S
C1252 C1250 1.378 . S
C1252 C1253 1.367 . S
C1253 C1252 1.367 . S
C1253 C1255 1.433 . S
C1254 C1250 1.350 . S
C1254 C1251 1.463 . S
C1254 N1258 1.427 . S
C1255 H1245 0.929 . S
C1255 C1253 1.433 . S
C1255 N1258 1.384 . S
C1256 H1247 0.929 . S
C1256 C1248 1.378 . S
C1256 C1251 1.350 . S
C1257 H1244 0.929 . S
C1257 C1249 1.433 . S
C1257 N1259 1.384 . S
N1258 C1254 1.427 . S
N1258 C1255 1.384 . S
N1259 C1251 1.427 . S
N1259 C1257 1.384 . S
H1260 C1266 0.930 . S
H1261 C1270 0.930 . S
H1262 C1275 0.929 . S
H1263 C1273 0.929 . S
H1264 C1268 0.929 . S
H1265 C1274 0.929 . S
C1266 H1260 0.930 . S
C1266 C1267 1.367 . S
C1266 C1274 1.378 . S
C1267 C1266 1.367 . S
C1267 C1275 1.433 . S
C1268 H1264 0.929 . S
C1268 C1270 1.378 . S
C1268 C1272 1.350 . S
C1269 C1272 1.463 . S
C1269 C1274 1.350 . S
C1269 N1277 1.427 . S
C1270 H1261 0.930 . S
C1270 C1268 1.378 . S
C1270 C1271 1.367 . S
C1271 C1270 1.367 . S
C1271 C1273 1.433 . S
C1272 C1268 1.350 . S
C1272 C1269 1.463 . S
C1272 N1276 1.427 . S
C1273 H1263 0.929 . S
C1273 C1271 1.433 . S
C1273 N1276 1.384 . S
C1274 H1265 0.929 . S
C1274 C1266 1.378 . S
C1274 C1269 1.350 . S
C1275 H1262 0.929 . S
C1275 C1267 1.433 . S
C1275 N1277 1.384 . S
N1276 C1272 1.427 . S
N1276 C1273 1.384 . S
N1277 C1269 1.427 . S
N1277 C1275 1.384 . S
H1278 C1284 0.930 . S
H1279 C1288 0.930 . S
H1280 C1293 0.929 . S
H1281 C1291 0.929 . S
H1282 C1286 0.929 . S
H1283 C1292 0.929 . S
C1284 H1278 0.930 . S
C1284 C1285 1.367 . S
C1284 C1292 1.378 . S
C1285 C1284 1.367 . S
C1285 C1293 1.433 . S
C1286 H1282 0.929 . S
C1286 C1288 1.378 . S
C1286 C1290 1.350 . S
C1287 C1290 1.463 . S
C1287 C1292 1.350 . S
C1287 N1295 1.427 . S
C1288 H1279 0.930 . S
C1288 C1286 1.378 . S
C1288 C1289 1.367 . S
C1289 C1288 1.367 . S
C1289 C1291 1.433 . S
C1290 C1286 1.350 . S
C1290 C1287 1.463 . S
C1290 N1294 1.427 . S
C1291 H1281 0.929 . S
C1291 C1289 1.433 . S
C1291 N1294 1.384 . S
C1292 H1283 0.929 . S
C1292 C1284 1.378 . S
C1292 C1287 1.350 . S
C1293 H1280 0.929 . S
C1293 C1285 1.433 . S
C1293 N1295 1.384 . S
N1294 C1290 1.427 . S
N1294 C1291 1.384 . S
N1295 C1287 1.427 . S
N1295 C1293 1.384 . S
H1296 C1302 0.930 . S
H1297 C1306 0.930 . S
H1298 C1311 0.929 . S
H1299 C1309 0.929 . S
H1300 C1304 0.929 . S
H1301 C1310 0.929 . S
C1302 H1296 0.930 . S
C1302 C1303 1.367 . S
C1302 C1310 1.378 . S
C1303 C1302 1.367 . S
C1303 C1311 1.433 . S
C1304 H1300 0.929 . S
C1304 C1306 1.378 . S
C1304 C1308 1.350 . S
C1305 C1308 1.463 . S
C1305 C1310 1.350 . S
C1305 N1313 1.427 . S
C1306 H1297 0.930 . S
C1306 C1304 1.378 . S
C1306 C1307 1.367 . S
C1307 C1306 1.367 . S
C1307 C1309 1.433 . S
C1308 C1304 1.350 . S
C1308 C1305 1.463 . S
C1308 N1312 1.427 . S
C1309 H1299 0.929 . S
C1309 C1307 1.433 . S
C1309 N1312 1.384 . S
C1310 H1301 0.929 . S
C1310 C1302 1.378 . S
C1310 C1305 1.350 . S
C1311 H1298 0.929 . S
C1311 C1303 1.433 . S
C1311 N1313 1.384 . S
N1312 C1308 1.427 . S
N1312 C1309 1.384 . S
N1313 C1305 1.427 . S
N1313 C1311 1.384 . S
H1314 C1320 0.930 . S
H1315 C1324 0.930 . S
H1316 C1329 0.929 . S
H1317 C1327 0.929 . S
H1318 C1322 0.929 . S
H1319 C1328 0.929 . S
C1320 H1314 0.930 . S
C1320 C1321 1.367 . S
C1320 C1328 1.378 . S
C1321 C1320 1.367 . S
C1321 C1329 1.433 . S
C1322 H1318 0.929 . S
C1322 C1324 1.378 . S
C1322 C1326 1.350 . S
C1323 C1326 1.463 . S
C1323 C1328 1.350 . S
C1323 N1331 1.427 . S
C1324 H1315 0.930 . S
C1324 C1322 1.378 . S
C1324 C1325 1.367 . S
C1325 C1324 1.367 . S
C1325 C1327 1.433 . S
C1326 C1322 1.350 . S
C1326 C1323 1.463 . S
C1326 N1330 1.427 . S
C1327 H1317 0.929 . S
C1327 C1325 1.433 . S
C1327 N1330 1.384 . S
C1328 H1319 0.929 . S
C1328 C1320 1.378 . S
C1328 C1323 1.350 . S
C1329 H1316 0.929 . S
C1329 C1321 1.433 . S
C1329 N1331 1.384 . S
N1330 C1326 1.427 . S
N1330 C1327 1.384 . S
N1331 C1323 1.427 . S
N1331 C1329 1.384 . S
H1332 C1338 0.930 . S
H1333 C1342 0.930 . S
H1334 C1347 0.929 . S
H1335 C1345 0.929 . S
H1336 C1340 0.929 . S
H1337 C1346 0.929 . S
C1338 H1332 0.930 . S
C1338 C1339 1.367 . S
C1338 C1346 1.378 . S
C1339 C1338 1.367 . S
C1339 C1347 1.433 . S
C1340 H1336 0.929 . S
C1340 C1342 1.378 . S
C1340 C1344 1.350 . S
C1341 C1344 1.463 . S
C1341 C1346 1.350 . S
C1341 N1349 1.427 . S
C1342 H1333 0.930 . S
C1342 C1340 1.378 . S
C1342 C1343 1.367 . S
C1343 C1342 1.367 . S
C1343 C1345 1.433 . S
C1344 C1340 1.350 . S
C1344 C1341 1.463 . S
C1344 N1348 1.427 . S
C1345 H1335 0.929 . S
C1345 C1343 1.433 . S
C1345 N1348 1.384 . S
C1346 H1337 0.929 . S
C1346 C1338 1.378 . S
C1346 C1341 1.350 . S
C1347 H1334 0.929 . S
C1347 C1339 1.433 . S
C1347 N1349 1.384 . S
N1348 C1344 1.427 . S
N1348 C1345 1.384 . S
N1349 C1341 1.427 . S
N1349 C1347 1.384 . S
H1350 C1356 0.930 . S
H1351 C1360 0.930 . S
H1352 C1365 0.929 . S
H1353 C1363 0.929 . S
H1354 C1358 0.929 . S
H1355 C1364 0.929 . S
C1356 H1350 0.930 . S
C1356 C1357 1.367 . S
C1356 C1364 1.378 . S
C1357 C1356 1.367 . S
C1357 C1365 1.433 . S
C1358 H1354 0.929 . S
C1358 C1360 1.378 . S
C1358 C1362 1.350 . S
C1359 C1362 1.463 . S
C1359 C1364 1.350 . S
C1359 N1367 1.427 . S
C1360 H1351 0.930 . S
C1360 C1358 1.378 . S
C1360 C1361 1.367 . S
C1361 C1360 1.367 . S
C1361 C1363 1.433 . S
C1362 C1358 1.350 . S
C1362 C1359 1.463 . S
C1362 N1366 1.427 . S
C1363 H1353 0.929 . S
C1363 C1361 1.433 . S
C1363 N1366 1.384 . S
C1364 H1355 0.929 . S
C1364 C1356 1.378 . S
C1364 C1359 1.350 . S
C1365 H1352 0.929 . S
C1365 C1357 1.433 . S
C1365 N1367 1.384 . S
N1366 C1362 1.427 . S
N1366 C1363 1.384 . S
N1367 C1359 1.427 . S
N1367 C1365 1.384 . S
H1368 C1374 0.930 . S
H1369 C1378 0.930 . S
H1370 C1383 0.929 . S
H1371 C1381 0.929 . S
H1372 C1376 0.929 . S
H1373 C1382 0.929 . S
C1374 H1368 0.930 . S
C1374 C1375 1.367 . S
C1374 C1382 1.378 . S
C1375 C1374 1.367 . S
C1375 C1383 1.433 . S
C1376 H1372 0.929 . S
C1376 C1378 1.378 . S
C1376 C1380 1.350 . S
C1377 C1380 1.463 . S
C1377 C1382 1.350 . S
C1377 N1385 1.427 . S
C1378 H1369 0.930 . S
C1378 C1376 1.378 . S
C1378 C1379 1.367 . S
C1379 C1378 1.367 . S
C1379 C1381 1.433 . S
C1380 C1376 1.350 . S
C1380 C1377 1.463 . S
C1380 N1384 1.427 . S
C1381 H1371 0.929 . S
C1381 C1379 1.433 . S
C1381 N1384 1.384 . S
C1382 H1373 0.929 . S
C1382 C1374 1.378 . S
C1382 C1377 1.350 . S
C1383 H1370 0.929 . S
C1383 C1375 1.433 . S
C1383 N1385 1.384 . S
N1384 C1380 1.427 . S
N1384 C1381 1.384 . S
N1385 C1377 1.427 . S
N1385 C1383 1.384 . S
H1386 C1392 0.930 . S
H1387 C1396 0.930 . S
H1388 C1401 0.929 . S
H1389 C1399 0.929 . S
H1390 C1394 0.929 . S
H1391 C1400 0.929 . S
C1392 H1386 0.930 . S
C1392 C1393 1.367 . S
C1392 C1400 1.378 . S
C1393 C1392 1.367 . S
C1393 C1401 1.433 . S
C1394 H1390 0.929 . S
C1394 C1396 1.378 . S
C1394 C1398 1.350 . S
C1395 C1398 1.463 . S
C1395 C1400 1.350 . S
C1395 N1403 1.427 . S
C1396 H1387 0.930 . S
C1396 C1394 1.378 . S
C1396 C1397 1.367 . S
C1397 C1396 1.367 . S
C1397 C1399 1.433 . S
C1398 C1394 1.350 . S
C1398 C1395 1.463 . S
C1398 N1402 1.427 . S
C1399 H1389 0.929 . S
C1399 C1397 1.433 . S
C1399 N1402 1.384 . S
C1400 H1391 0.929 . S
C1400 C1392 1.378 . S
C1400 C1395 1.350 . S
C1401 H1388 0.929 . S
C1401 C1393 1.433 . S
C1401 N1403 1.384 . S
N1402 C1398 1.427 . S
N1402 C1399 1.384 . S
N1403 C1395 1.427 . S
N1403 C1401 1.384 . S
H1404 C1410 0.930 . S
H1405 C1414 0.930 . S
H1406 C1419 0.929 . S
H1407 C1417 0.929 . S
H1408 C1412 0.929 . S
H1409 C1418 0.929 . S
C1410 H1404 0.930 . S
C1410 C1411 1.367 . S
C1410 C1418 1.378 . S
C1411 C1410 1.367 . S
C1411 C1419 1.433 . S
C1412 H1408 0.929 . S
C1412 C1414 1.378 . S
C1412 C1416 1.350 . S
C1413 C1416 1.463 1_655 S
C1413 C1418 1.350 . S
C1413 N1421 1.427 . S
C1414 H1405 0.930 . S
C1414 C1412 1.378 . S
C1414 C1415 1.367 . S
C1415 C1414 1.367 . S
C1415 C1417 1.433 . S
C1416 C1412 1.350 . S
C1416 C1413 1.463 1_455 S
C1416 N1420 1.427 . S
C1417 H1407 0.929 . S
C1417 C1415 1.433 . S
C1417 N1420 1.384 . S
C1418 H1409 0.929 . S
C1418 C1410 1.378 . S
C1418 C1413 1.350 . S
C1419 H1406 0.929 . S
C1419 C1411 1.433 . S
C1419 N1421 1.384 . S
N1420 C1416 1.427 . S
N1420 C1417 1.384 . S
N1421 C1413 1.427 . S
N1421 C1419 1.384 . S
H1422 C1428 0.930 . S
H1423 C1432 0.930 . S
H1424 C1437 0.929 . S
H1425 C1435 0.929 . S
H1426 C1430 0.929 . S
H1427 C1436 0.929 . S
C1428 H1422 0.930 . S
C1428 C1429 1.367 . S
C1428 C1436 1.378 . S
C1429 C1428 1.367 . S
C1429 C1437 1.433 . S
C1430 H1426 0.929 . S
C1430 C1432 1.378 . S
C1430 C1434 1.350 . S
C1431 C1434 1.463 . S
C1431 C1436 1.350 . S
C1431 N1439 1.427 . S
C1432 H1423 0.930 . S
C1432 C1430 1.378 . S
C1432 C1433 1.367 . S
C1433 C1432 1.367 . S
C1433 C1435 1.433 . S
C1434 C1430 1.350 . S
C1434 C1431 1.463 . S
C1434 N1438 1.427 . S
C1435 H1425 0.929 . S
C1435 C1433 1.433 . S
C1435 N1438 1.384 . S
C1436 H1427 0.929 . S
C1436 C1428 1.378 . S
C1436 C1431 1.350 . S
C1437 H1424 0.929 . S
C1437 C1429 1.433 . S
C1437 N1439 1.384 . S
N1438 C1434 1.427 . S
N1438 C1435 1.384 . S
N1439 C1431 1.427 . S
N1439 C1437 1.384 . S
H1440 C1446 0.930 . S
H1441 C1450 0.930 . S
H1442 C1455 0.929 . S
H1443 C1453 0.929 . S
H1444 C1448 0.929 . S
H1445 C1454 0.929 . S
C1446 H1440 0.930 . S
C1446 C1447 1.367 . S
C1446 C1454 1.378 . S
C1447 C1446 1.367 . S
C1447 C1455 1.433 . S
C1448 H1444 0.929 . S
C1448 C1450 1.378 . S
C1448 C1452 1.350 . S
C1449 C1452 1.463 1_565 S
C1449 C1454 1.350 . S
C1449 N1457 1.427 . S
C1450 H1441 0.930 . S
C1450 C1448 1.378 . S
C1450 C1451 1.367 . S
C1451 C1450 1.367 . S
C1451 C1453 1.433 . S
C1452 C1448 1.350 . S
C1452 C1449 1.463 1_545 S
C1452 N1456 1.427 . S
C1453 H1443 0.929 . S
C1453 C1451 1.433 . S
C1453 N1456 1.384 . S
C1454 H1445 0.929 . S
C1454 C1446 1.378 . S
C1454 C1449 1.350 . S
C1455 H1442 0.929 . S
C1455 C1447 1.433 . S
C1455 N1457 1.384 . S
N1456 C1452 1.427 . S
N1456 C1453 1.384 . S
N1457 C1449 1.427 . S
N1457 C1455 1.384 . S
H1458 C1464 0.930 . S
H1459 C1468 0.930 . S
H1460 C1473 0.929 . S
H1461 C1471 0.929 . S
H1462 C1466 0.929 . S
H1463 C1472 0.929 . S
C1464 H1458 0.930 . S
C1464 C1465 1.367 . S
C1464 C1472 1.378 . S
C1465 C1464 1.367 . S
C1465 C1473 1.433 . S
C1466 H1462 0.929 . S
C1466 C1468 1.378 . S
C1466 C1470 1.350 . S
C1467 C1470 1.463 1_564 S
C1467 C1472 1.350 . S
C1467 N1475 1.427 1_554 S
C1468 H1459 0.930 . S
C1468 C1466 1.378 . S
C1468 C1469 1.367 . S
C1469 C1468 1.367 . S
C1469 C1471 1.433 . S
C1470 C1466 1.350 . S
C1470 C1467 1.463 1_546 S
C1470 N1474 1.427 1_556 S
C1471 H1461 0.929 . S
C1471 C1469 1.433 . S
C1471 N1474 1.384 1_556 S
C1472 H1463 0.929 . S
C1472 C1464 1.378 . S
C1472 C1467 1.350 . S
C1473 H1460 0.929 . S
C1473 C1465 1.433 . S
C1473 N1475 1.384 1_554 S
N1474 C1470 1.427 1_554 S
N1474 C1471 1.384 1_554 S
N1475 C1467 1.427 1_556 S
N1475 C1473 1.384 1_556 S
H1476 C1482 0.930 . S
H1477 C1486 0.930 . S
H1478 C1491 0.929 . S
H1479 C1489 0.929 . S
H1480 C1484 0.928 1_656 S
H1481 C1490 0.928 1_454 S
C1482 H1476 0.930 . S
C1482 C1483 1.367 . S
C1482 C1490 1.378 . S
C1483 C1482 1.367 . S
C1483 C1491 1.433 . S
C1484 H1480 0.928 1_454 S
C1484 C1486 1.378 . S
C1484 C1488 1.350 . S
C1485 C1488 1.463 1_656 S
C1485 C1490 1.350 . S
C1485 N1493 1.427 . S
C1486 H1477 0.930 . S
C1486 C1484 1.378 . S
C1486 C1487 1.367 . S
C1487 C1486 1.367 . S
C1487 C1489 1.433 . S
C1488 C1484 1.350 . S
C1488 C1485 1.463 1_454 S
C1488 N1492 1.427 . S
C1489 H1479 0.929 . S
C1489 C1487 1.433 . S
C1489 N1492 1.384 . S
C1490 H1481 0.928 1_656 S
C1490 C1482 1.378 . S
C1490 C1485 1.350 . S
C1491 H1478 0.929 . S
C1491 C1483 1.433 . S
C1491 N1493 1.384 . S
N1492 C1488 1.427 . S
N1492 C1489 1.384 . S
N1493 C1485 1.427 . S
N1493 C1491 1.384 . S
H1494 C1500 0.921 1_556 S
H1495 C1504 0.921 1_554 S
H1496 C1509 0.929 . S
H1497 C1507 0.929 . S
H1498 C1502 0.929 . S
H1499 C1508 0.929 . S
C1500 H1494 0.921 1_554 S
C1500 C1501 1.383 . S
C1500 C1508 1.371 1_554 S
C1501 C1500 1.383 . S
C1501 C1509 1.433 . S
C1502 H1498 0.929 . S
C1502 C1504 1.371 1_554 S
C1502 C1506 1.350 1_554 S
C1503 C1506 1.463 1_554 S
C1503 C1508 1.350 1_554 S
C1503 N1511 1.427 . S
C1504 H1495 0.921 1_556 S
C1504 C1502 1.371 1_556 S
C1504 C1505 1.383 . S
C1505 C1504 1.383 . S
C1505 C1507 1.433 . S
C1506 C1502 1.350 1_556 S
C1506 C1503 1.463 1_556 S
C1506 N1510 1.427 . S
C1507 H1497 0.929 . S
C1507 C1505 1.433 . S
C1507 N1510 1.384 . S
C1508 H1499 0.929 . S
C1508 C1500 1.371 1_556 S
C1508 C1503 1.350 1_556 S
C1509 H1496 0.929 . S
C1509 C1501 1.433 . S
C1509 N1511 1.384 . S
N1510 C1506 1.427 . S
N1510 C1507 1.384 . S
N1511 C1503 1.427 . S
N1511 C1509 1.384 . S
H1512 C1518 0.930 . S
H1513 C1522 0.929 1_565 S
H1514 C1527 0.929 . S
H1515 C1525 0.929 . S
H1516 C1520 0.929 . S
H1517 C1526 0.927 1_556 S
C1518 H1512 0.930 . S
C1518 C1519 1.367 . S
C1518 C1526 1.378 . S
C1519 C1518 1.367 . S
C1519 C1527 1.433 . S
C1520 H1516 0.929 . S
C1520 C1522 1.381 . S
C1520 C1524 1.350 . S
C1521 C1524 1.463 . S
C1521 C1526 1.350 . S
C1521 N1529 1.427 . S
C1522 H1513 0.929 1_545 S
C1522 C1520 1.381 . S
C1522 C1523 1.365 1_544 S
C1523 C1522 1.365 1_566 S
C1523 C1525 1.433 1_565 S
C1524 C1520 1.350 . S
C1524 C1521 1.463 . S
C1524 N1528 1.427 1_554 S
C1525 H1515 0.929 . S
C1525 C1523 1.433 1_545 S
C1525 N1528 1.384 . S
C1526 H1517 0.927 1_554 S
C1526 C1518 1.378 . S
C1526 C1521 1.350 . S
C1527 H1514 0.929 . S
C1527 C1519 1.433 . S
C1527 N1529 1.384 . S
N1528 C1524 1.427 1_556 S
N1528 C1525 1.384 . S
N1529 C1521 1.427 . S
N1529 C1527 1.384 . S
H1530 C1536 0.930 . S
H1531 C1540 0.930 1_455 S
H1532 C1545 0.929 . S
H1533 C1543 0.929 . S
H1534 C1538 0.929 . S
H1535 C1544 0.929 . S
C1536 H1530 0.930 . S
C1536 C1537 1.367 1_556 S
C1536 C1544 1.378 . S
C1537 C1536 1.367 1_554 S
C1537 C1545 1.433 . S
C1538 H1534 0.929 . S
C1538 C1540 1.378 . S
C1538 C1542 1.350 . S
C1539 C1542 1.463 . S
C1539 C1544 1.350 1_554 S
C1539 N1547 1.427 . S
C1540 H1531 0.930 1_655 S
C1540 C1538 1.378 . S
C1540 C1541 1.380 1_655 S
C1541 C1540 1.380 1_455 S
C1541 C1543 1.422 1_454 S
C1542 C1538 1.350 . S
C1542 C1539 1.463 . S
C1542 N1546 1.427 1_554 S
C1543 H1533 0.929 . S
C1543 C1541 1.422 1_656 S
C1543 N1546 1.384 . S
C1544 H1535 0.929 . S
C1544 C1536 1.378 . S
C1544 C1539 1.350 1_556 S
C1545 H1532 0.929 . S
C1545 C1537 1.433 . S
C1545 N1547 1.384 . S
N1546 C1542 1.427 1_556 S
N1546 C1543 1.384 . S
N1547 C1539 1.427 . S
N1547 C1545 1.384 . S
H1548 C1554 0.930 1_556 S
H1549 C1558 0.930 . S
H1550 C1563 0.929 . S
H1551 C1561 0.929 . S
H1552 C1556 0.929 . S
H1553 C1562 0.922 1_556 S
C1554 H1548 0.930 1_554 S
C1554 C1555 1.367 . S
C1554 C1562 1.379 . S
C1555 C1554 1.367 . S
C1555 C1563 1.433 . S
C1556 H1552 0.929 . S
C1556 C1558 1.378 . S
C1556 C1560 1.350 . S
C1557 C1560 1.463 . S
C1557 C1562 1.355 . S
C1557 N1565 1.427 . S
C1558 H1549 0.930 . S
C1558 C1556 1.378 . S
C1558 C1559 1.367 . S
C1559 C1558 1.367 . S
C1559 C1561 1.433 1_554 S
C1560 C1556 1.350 . S
C1560 C1557 1.463 . S
C1560 N1564 1.427 1_554 S
C1561 H1551 0.929 . S
C1561 C1559 1.433 1_556 S
C1561 N1564 1.384 . S
C1562 H1553 0.922 1_554 S
C1562 C1554 1.379 . S
C1562 C1557 1.355 . S
C1563 H1550 0.929 . S
C1563 C1555 1.433 . S
C1563 N1565 1.384 . S
N1564 C1560 1.427 1_556 S
N1564 C1561 1.384 . S
N1565 C1557 1.427 . S
N1565 C1563 1.384 . S
H1566 C1572 0.917 1_655 S
H1567 C1576 0.930 . S
H1568 C1581 0.929 . S
H1569 C1579 0.929 . S
H1570 C1574 0.929 . S
H1571 C1580 0.929 . S
C1572 H1566 0.917 1_455 S
C1572 C1573 1.350 1_455 S
C1572 C1580 1.409 . S
C1573 C1572 1.350 1_655 S
C1573 C1581 1.433 1_655 S
C1574 H1570 0.929 . S
C1574 C1576 1.378 . S
C1574 C1578 1.350 . S
C1575 C1578 1.463 . S
C1575 C1580 1.350 . S
C1575 N1583 1.427 . S
C1576 H1567 0.930 . S
C1576 C1574 1.378 . S
C1576 C1577 1.367 . S
C1577 C1576 1.367 . S
C1577 C1579 1.433 . S
C1578 C1574 1.350 . S
C1578 C1575 1.463 . S
C1578 N1582 1.427 . S
C1579 H1569 0.929 . S
C1579 C1577 1.433 . S
C1579 N1582 1.384 . S
C1580 H1571 0.929 . S
C1580 C1572 1.409 . S
C1580 C1575 1.350 . S
C1581 H1568 0.929 . S
C1581 C1573 1.433 1_455 S
C1581 N1583 1.384 . S
N1582 C1578 1.427 . S
N1582 C1579 1.384 . S
N1583 C1575 1.427 . S
N1583 C1581 1.384 . S
H1584 C1590 0.930 . S
H1585 C1594 0.930 . S
H1586 C1599 0.929 . S
H1587 C1597 0.929 . S
H1588 C1592 0.929 . S
H1589 C1598 0.929 . S
C1590 H1584 0.930 . S
C1590 C1591 1.367 . S
C1590 C1598 1.378 . S
C1591 C1590 1.367 . S
C1591 C1599 1.433 . S
C1592 H1588 0.929 . S
C1592 C1594 1.378 . S
C1592 C1596 1.350 . S
C1593 C1596 1.463 . S
C1593 C1598 1.350 . S
C1593 N1601 1.427 . S
C1594 H1585 0.930 . S
C1594 C1592 1.378 . S
C1594 C1595 1.367 . S
C1595 C1594 1.367 . S
C1595 C1597 1.433 . S
C1596 C1592 1.350 . S
C1596 C1593 1.463 . S
C1596 N1600 1.427 . S
C1597 H1587 0.929 . S
C1597 C1595 1.433 . S
C1597 N1600 1.384 . S
C1598 H1589 0.929 . S
C1598 C1590 1.378 . S
C1598 C1593 1.350 . S
C1599 H1586 0.929 . S
C1599 C1591 1.433 . S
C1599 N1601 1.384 . S
N1600 C1596 1.427 . S
N1600 C1597 1.384 . S
N1601 C1593 1.427 . S
N1601 C1599 1.384 . S
H1602 C1608 0.930 . S
H1603 C1612 0.930 . S
H1604 C1617 0.929 . S
H1605 C1615 0.929 1_545 S
H1606 C1610 0.929 . S
H1607 C1616 0.929 . S
C1608 H1602 0.930 . S
C1608 C1609 1.367 . S
C1608 C1616 1.378 . S
C1609 C1608 1.367 . S
C1609 C1617 1.433 . S
C1610 H1606 0.929 . S
C1610 C1612 1.378 . S
C1610 C1614 1.350 . S
C1611 C1614 1.463 . S
C1611 C1616 1.350 . S
C1611 N1619 1.427 . S
C1612 H1603 0.930 . S
C1612 C1610 1.378 . S
C1612 C1613 1.367 1_565 S
C1613 C1612 1.367 1_545 S
C1613 C1615 1.433 1_545 S
C1614 C1610 1.350 . S
C1614 C1611 1.463 . S
C1614 N1618 1.427 . S
C1615 H1605 0.929 1_565 S
C1615 C1613 1.433 1_565 S
C1615 N1618 1.384 . S
C1616 H1607 0.929 . S
C1616 C1608 1.378 . S
C1616 C1611 1.350 . S
C1617 H1604 0.929 . S
C1617 C1609 1.433 . S
C1617 N1619 1.384 . S
N1618 C1614 1.427 . S
N1618 C1615 1.384 . S
N1619 C1611 1.427 . S
N1619 C1617 1.384 . S
H1620 C1626 0.930 . S
H1621 C1630 0.930 1_545 S
H1622 C1635 0.929 . S
H1623 C1633 0.929 . S
H1624 C1628 0.929 . S
H1625 C1634 0.929 . S
C1626 H1620 0.930 . S
C1626 C1627 1.367 . S
C1626 C1634 1.378 . S
C1627 C1626 1.367 . S
C1627 C1635 1.433 1_556 S
C1628 H1624 0.929 . S
C1628 C1630 1.378 . S
C1628 C1632 1.350 1_554 S
C1629 C1632 1.463 . S
C1629 C1634 1.350 . S
C1629 N1637 1.427 1_556 S
C1630 H1621 0.930 1_565 S
C1630 C1628 1.378 . S
C1630 C1631 1.367 1_565 S
C1631 C1630 1.367 1_545 S
C1631 C1633 1.433 1_544 S
C1632 C1628 1.350 1_556 S
C1632 C1629 1.463 . S
C1632 N1636 1.427 . S
C1633 H1623 0.929 . S
C1633 C1631 1.433 1_566 S
C1633 N1636 1.384 . S
C1634 H1625 0.929 . S
C1634 C1626 1.378 . S
C1634 C1629 1.350 . S
C1635 H1622 0.929 . S
C1635 C1627 1.433 1_554 S
C1635 N1637 1.384 . S
N1636 C1632 1.427 . S
N1636 C1633 1.384 . S
N1637 C1629 1.427 1_554 S
N1637 C1635 1.384 . S
H1638 C1644 0.930 . S
H1639 C1648 0.930 1_655 S
H1640 C1653 0.929 1_554 S
H1641 C1651 0.929 . S
H1642 C1646 0.929 . S
H1643 C1652 0.929 . S
C1644 H1638 0.930 . S
C1644 C1645 1.367 . S
C1644 C1652 1.378 . S
C1645 C1644 1.367 . S
C1645 C1653 1.433 . S
C1646 H1642 0.929 . S
C1646 C1648 1.378 . S
C1646 C1650 1.350 1_554 S
C1647 C1650 1.463 . S
C1647 C1652 1.350 . S
C1647 N1655 1.429 . S
C1648 H1639 0.930 1_455 S
C1648 C1646 1.378 . S
C1648 C1649 1.374 1_455 S
C1649 C1648 1.374 1_655 S
C1649 C1651 1.424 1_654 S
C1650 C1646 1.350 1_556 S
C1650 C1647 1.463 . S
C1650 N1654 1.427 . S
C1651 H1641 0.929 . S
C1651 C1649 1.424 1_456 S
C1651 N1654 1.384 . S
C1652 H1643 0.929 . S
C1652 C1644 1.378 . S
C1652 C1647 1.350 . S
C1653 H1640 0.929 1_556 S
C1653 C1645 1.433 . S
C1653 N1655 1.384 . S
N1654 C1650 1.427 . S
N1654 C1651 1.384 . S
N1655 C1647 1.429 . S
N1655 C1653 1.384 . S
H1656 C1662 0.930 . S
H1657 C1666 0.926 1_554 S
H1658 C1671 0.929 . S
H1659 C1669 0.929 . S
H1660 C1664 0.929 1_554 S
H1661 C1670 0.929 . S
C1662 H1656 0.930 . S
C1662 C1663 1.366 . S
C1662 C1670 1.378 . S
C1663 C1662 1.366 . S
C1663 C1671 1.434 1_556 S
C1664 H1660 0.929 1_556 S
C1664 C1666 1.378 . S
C1664 C1668 1.350 . S
C1665 C1668 1.463 . S
C1665 C1670 1.350 . S
C1665 N1673 1.427 1_556 S
C1666 H1657 0.926 1_556 S
C1666 C1664 1.378 . S
C1666 C1667 1.367 . S
C1667 C1666 1.367 . S
C1667 C1669 1.433 . S
C1668 C1664 1.350 . S
C1668 C1665 1.463 . S
C1668 N1672 1.427 . S
C1669 H1659 0.929 . S
C1669 C1667 1.433 . S
C1669 N1672 1.384 . S
C1670 H1661 0.929 . S
C1670 C1662 1.378 . S
C1670 C1665 1.350 . S
C1671 H1658 0.929 . S
C1671 C1663 1.434 1_554 S
C1671 N1673 1.384 . S
N1672 C1668 1.427 . S
N1672 C1669 1.384 . S
N1673 C1665 1.427 1_554 S
N1673 C1671 1.384 . S
H1674 C1680 0.930 . S
H1675 C1684 0.929 1_455 S
H1676 C1689 0.929 . S
H1677 C1687 0.929 . S
H1678 C1682 0.929 . S
H1679 C1688 0.929 . S
C1680 H1674 0.930 . S
C1680 C1681 1.367 . S
C1680 C1688 1.378 . S
C1681 C1680 1.367 . S
C1681 C1689 1.433 . S
C1682 H1678 0.929 . S
C1682 C1684 1.382 . S
C1682 C1686 1.350 . S
C1683 C1686 1.463 . S
C1683 C1688 1.350 . S
C1683 N1691 1.427 . S
C1684 H1675 0.929 1_655 S
C1684 C1682 1.382 . S
C1684 C1685 1.364 1_655 S
C1685 C1684 1.364 1_455 S
C1685 C1687 1.433 1_455 S
C1686 C1682 1.350 . S
C1686 C1683 1.463 . S
C1686 N1690 1.427 . S
C1687 H1677 0.929 . S
C1687 C1685 1.433 1_655 S
C1687 N1690 1.384 . S
C1688 H1679 0.929 . S
C1688 C1680 1.378 . S
C1688 C1683 1.350 . S
C1689 H1676 0.929 . S
C1689 C1681 1.433 . S
C1689 N1691 1.384 . S
N1690 C1686 1.427 . S
N1690 C1687 1.384 . S
N1691 C1683 1.427 . S
N1691 C1689 1.384 . S
H1692 C1698 0.930 . S
H1693 C1702 0.930 . S
H1694 C1707 0.929 . S
H1695 C1705 0.929 . S
H1696 C1700 0.929 . S
H1697 C1706 0.929 . S
C1698 H1692 0.930 . S
C1698 C1699 1.367 . S
C1698 C1706 1.378 . S
C1699 C1698 1.367 . S
C1699 C1707 1.433 . S
C1700 H1696 0.929 . S
C1700 C1702 1.378 . S
C1700 C1704 1.350 . S
C1701 C1704 1.463 . S
C1701 C1706 1.350 . S
C1701 N1709 1.427 . S
C1702 H1693 0.930 . S
C1702 C1700 1.378 . S
C1702 C1703 1.367 . S
C1703 C1702 1.367 . S
C1703 C1705 1.433 . S
C1704 C1700 1.350 . S
C1704 C1701 1.463 . S
C1704 N1708 1.427 . S
C1705 H1695 0.929 . S
C1705 C1703 1.433 . S
C1705 N1708 1.384 . S
C1706 H1697 0.929 . S
C1706 C1698 1.378 . S
C1706 C1701 1.350 . S
C1707 H1694 0.929 . S
C1707 C1699 1.433 . S
C1707 N1709 1.384 . S
N1708 C1704 1.427 . S
N1708 C1705 1.384 . S
N1709 C1701 1.427 . S
N1709 C1707 1.384 . S
H1710 C1716 0.930 . S
H1711 C1720 0.930 1_565 S
H1712 C1725 0.929 . S
H1713 C1723 0.929 . S
H1714 C1718 0.929 . S
H1715 C1724 0.929 . S
C1716 H1710 0.930 . S
C1716 C1717 1.367 . S
C1716 C1724 1.378 . S
C1717 C1716 1.367 . S
C1717 C1725 1.433 . S
C1718 H1714 0.929 . S
C1718 C1720 1.378 . S
C1718 C1722 1.350 . S
C1719 C1722 1.463 . S
C1719 C1724 1.350 . S
C1719 N1727 1.427 . S
C1720 H1711 0.930 1_545 S
C1720 C1718 1.378 . S
C1720 C1721 1.367 1_545 S
C1721 C1720 1.367 1_565 S
C1721 C1723 1.433 1_565 S
C1722 C1718 1.350 . S
C1722 C1719 1.463 . S
C1722 N1726 1.427 . S
C1723 H1713 0.929 . S
C1723 C1721 1.433 1_545 S
C1723 N1726 1.384 . S
C1724 H1715 0.929 . S
C1724 C1716 1.378 . S
C1724 C1719 1.350 . S
C1725 H1712 0.929 . S
C1725 C1717 1.433 . S
C1725 N1727 1.384 . S
N1726 C1722 1.427 . S
N1726 C1723 1.384 . S
N1727 C1719 1.427 . S
N1727 C1725 1.384 . S
H1728 C1734 0.930 . S
H1729 C1738 0.930 . S
H1730 C1743 0.929 . S
H1731 C1741 0.929 . S
H1732 C1736 0.929 . S
H1733 C1742 0.929 . S
C1734 H1728 0.930 . S
C1734 C1735 1.367 . S
C1734 C1742 1.378 . S
C1735 C1734 1.367 . S
C1735 C1743 1.433 . S
C1736 H1732 0.929 . S
C1736 C1738 1.378 . S
C1736 C1740 1.350 . S
C1737 C1740 1.463 . S
C1737 C1742 1.350 . S
C1737 N1745 1.427 . S
C1738 H1729 0.930 . S
C1738 C1736 1.378 . S
C1738 C1739 1.367 . S
C1739 C1738 1.367 . S
C1739 C1741 1.433 . S
C1740 C1736 1.350 . S
C1740 C1737 1.463 . S
C1740 N1744 1.427 . S
C1741 H1731 0.929 . S
C1741 C1739 1.433 . S
C1741 N1744 1.384 . S
C1742 H1733 0.929 . S
C1742 C1734 1.378 . S
C1742 C1737 1.350 . S
C1743 H1730 0.929 . S
C1743 C1735 1.433 . S
C1743 N1745 1.384 . S
N1744 C1740 1.427 . S
N1744 C1741 1.384 . S
N1745 C1737 1.427 . S
N1745 C1743 1.384 . S
H1746 C1752 0.930 . S
H1747 C1756 0.930 . S
H1748 C1761 0.929 . S
H1749 C1759 0.929 . S
H1750 C1754 0.929 . S
H1751 C1760 0.929 . S
C1752 H1746 0.930 . S
C1752 C1753 1.367 . S
C1752 C1760 1.378 . S
C1753 C1752 1.367 . S
C1753 C1761 1.433 . S
C1754 H1750 0.929 . S
C1754 C1756 1.378 . S
C1754 C1758 1.350 . S
C1755 C1758 1.463 . S
C1755 C1760 1.350 . S
C1755 N1763 1.427 . S
C1756 H1747 0.930 . S
C1756 C1754 1.378 . S
C1756 C1757 1.367 . S
C1757 C1756 1.367 . S
C1757 C1759 1.433 . S
C1758 C1754 1.350 . S
C1758 C1755 1.463 . S
C1758 N1762 1.427 . S
C1759 H1749 0.929 . S
C1759 C1757 1.433 . S
C1759 N1762 1.384 . S
C1760 H1751 0.929 . S
C1760 C1752 1.378 . S
C1760 C1755 1.350 . S
C1761 H1748 0.929 . S
C1761 C1753 1.433 . S
C1761 N1763 1.384 . S
N1762 C1758 1.427 . S
N1762 C1759 1.384 . S
N1763 C1755 1.427 . S
N1763 C1761 1.384 . S
H1764 C1770 0.930 . S
H1765 C1774 0.930 . S
H1766 C1779 0.929 . S
H1767 C1777 0.929 . S
H1768 C1772 0.929 . S
H1769 C1778 0.929 . S
C1770 H1764 0.930 . S
C1770 C1771 1.367 . S
C1770 C1778 1.378 . S
C1771 C1770 1.367 . S
C1771 C1779 1.433 . S
C1772 H1768 0.929 . S
C1772 C1774 1.378 . S
C1772 C1776 1.350 . S
C1773 C1776 1.463 . S
C1773 C1778 1.350 . S
C1773 N1781 1.427 . S
C1774 H1765 0.930 . S
C1774 C1772 1.378 . S
C1774 C1775 1.367 . S
C1775 C1774 1.367 . S
C1775 C1777 1.433 . S
C1776 C1772 1.350 . S
C1776 C1773 1.463 . S
C1776 N1780 1.427 . S
C1777 H1767 0.929 . S
C1777 C1775 1.433 . S
C1777 N1780 1.384 . S
C1778 H1769 0.929 . S
C1778 C1770 1.378 . S
C1778 C1773 1.350 . S
C1779 H1766 0.929 . S
C1779 C1771 1.433 . S
C1779 N1781 1.384 . S
N1780 C1776 1.427 . S
N1780 C1777 1.384 . S
N1781 C1773 1.427 . S
N1781 C1779 1.384 . S
H1782 C1788 0.930 . S
H1783 C1792 0.930 . S
H1784 C1797 0.929 . S
H1785 C1795 0.929 . S
H1786 C1790 0.929 . S
H1787 C1796 0.929 . S
C1788 H1782 0.930 . S
C1788 C1789 1.367 . S
C1788 C1796 1.378 . S
C1789 C1788 1.367 . S
C1789 C1797 1.433 . S
C1790 H1786 0.929 . S
C1790 C1792 1.378 . S
C1790 C1794 1.350 . S
C1791 C1794 1.463 . S
C1791 C1796 1.350 . S
C1791 N1799 1.427 . S
C1792 H1783 0.930 . S
C1792 C1790 1.378 . S
C1792 C1793 1.367 . S
C1793 C1792 1.367 . S
C1793 C1795 1.433 . S
C1794 C1790 1.350 . S
C1794 C1791 1.463 . S
C1794 N1798 1.427 . S
C1795 H1785 0.929 . S
C1795 C1793 1.433 . S
C1795 N1798 1.384 . S
C1796 H1787 0.929 . S
C1796 C1788 1.378 . S
C1796 C1791 1.350 . S
C1797 H1784 0.929 . S
C1797 C1789 1.433 . S
C1797 N1799 1.384 . S
N1798 C1794 1.427 . S
N1798 C1795 1.384 . S
N1799 C1791 1.427 . S
N1799 C1797 1.384 . S
H1800 C1806 0.930 . S
H1801 C1810 0.930 . S
H1802 C1815 0.929 . S
H1803 C1813 0.929 . S
H1804 C1808 0.929 . S
H1805 C1814 0.929 . S
C1806 H1800 0.930 . S
C1806 C1807 1.367 . S
C1806 C1814 1.378 . S
C1807 C1806 1.367 . S
C1807 C1815 1.433 . S
C1808 H1804 0.929 . S
C1808 C1810 1.378 . S
C1808 C1812 1.350 . S
C1809 C1812 1.463 . S
C1809 C1814 1.350 . S
C1809 N1817 1.427 . S
C1810 H1801 0.930 . S
C1810 C1808 1.378 . S
C1810 C1811 1.367 . S
C1811 C1810 1.367 . S
C1811 C1813 1.433 . S
C1812 C1808 1.350 . S
C1812 C1809 1.463 . S
C1812 N1816 1.427 . S
C1813 H1803 0.929 . S
C1813 C1811 1.433 . S
C1813 N1816 1.384 . S
C1814 H1805 0.929 . S
C1814 C1806 1.378 . S
C1814 C1809 1.350 . S
C1815 H1802 0.929 . S
C1815 C1807 1.433 . S
C1815 N1817 1.384 . S
N1816 C1812 1.427 . S
N1816 C1813 1.384 . S
N1817 C1809 1.427 . S
N1817 C1815 1.384 . S
H1818 C1824 0.930 . S
H1819 C1828 0.930 . S
H1820 C1833 0.929 . S
H1821 C1831 0.929 . S
H1822 C1826 0.929 . S
H1823 C1832 0.929 . S
C1824 H1818 0.930 . S
C1824 C1825 1.367 . S
C1824 C1832 1.378 . S
C1825 C1824 1.367 . S
C1825 C1833 1.433 . S
C1826 H1822 0.929 . S
C1826 C1828 1.378 . S
C1826 C1830 1.350 . S
C1827 C1830 1.463 . S
C1827 C1832 1.350 . S
C1827 N1835 1.427 . S
C1828 H1819 0.930 . S
C1828 C1826 1.378 . S
C1828 C1829 1.367 . S
C1829 C1828 1.367 . S
C1829 C1831 1.433 . S
C1830 C1826 1.350 . S
C1830 C1827 1.463 . S
C1830 N1834 1.427 . S
C1831 H1821 0.929 . S
C1831 C1829 1.433 . S
C1831 N1834 1.384 . S
C1832 H1823 0.929 . S
C1832 C1824 1.378 . S
C1832 C1827 1.350 . S
C1833 H1820 0.929 . S
C1833 C1825 1.433 . S
C1833 N1835 1.384 . S
N1834 C1830 1.427 . S
N1834 C1831 1.384 . S
N1835 C1827 1.427 . S
N1835 C1833 1.384 . S
H1836 C1842 0.930 . S
H1837 C1846 0.930 . S
H1838 C1851 0.929 . S
H1839 C1849 0.929 . S
H1840 C1844 0.929 . S
H1841 C1850 0.929 . S
C1842 H1836 0.930 . S
C1842 C1843 1.367 . S
C1842 C1850 1.378 . S
C1843 C1842 1.367 . S
C1843 C1851 1.433 . S
C1844 H1840 0.929 . S
C1844 C1846 1.378 . S
C1844 C1848 1.350 . S
C1845 C1848 1.463 . S
C1845 C1850 1.350 . S
C1845 N1853 1.427 . S
C1846 H1837 0.930 . S
C1846 C1844 1.378 . S
C1846 C1847 1.367 . S
C1847 C1846 1.367 . S
C1847 C1849 1.433 . S
C1848 C1844 1.350 . S
C1848 C1845 1.463 . S
C1848 N1852 1.427 . S
C1849 H1839 0.929 . S
C1849 C1847 1.433 . S
C1849 N1852 1.384 . S
C1850 H1841 0.929 . S
C1850 C1842 1.378 . S
C1850 C1845 1.350 . S
C1851 H1838 0.929 . S
C1851 C1843 1.433 . S
C1851 N1853 1.384 . S
N1852 C1848 1.427 . S
N1852 C1849 1.384 . S
N1853 C1845 1.427 . S
N1853 C1851 1.384 . S
H1854 C1860 0.930 . S
H1855 C1864 0.930 . S
H1856 C1869 0.929 . S
H1857 C1867 0.929 . S
H1858 C1862 0.929 . S
H1859 C1868 0.929 . S
C1860 H1854 0.930 . S
C1860 C1861 1.367 . S
C1860 C1868 1.378 . S
C1861 C1860 1.367 . S
C1861 C1869 1.433 . S
C1862 H1858 0.929 . S
C1862 C1864 1.378 . S
C1862 C1866 1.350 . S
C1863 C1866 1.463 . S
C1863 C1868 1.350 . S
C1863 N1871 1.427 . S
C1864 H1855 0.930 . S
C1864 C1862 1.378 . S
C1864 C1865 1.367 . S
C1865 C1864 1.367 . S
C1865 C1867 1.433 . S
C1866 C1862 1.350 . S
C1866 C1863 1.463 . S
C1866 N1870 1.427 . S
C1867 H1857 0.929 . S
C1867 C1865 1.433 . S
C1867 N1870 1.384 . S
C1868 H1859 0.929 . S
C1868 C1860 1.378 . S
C1868 C1863 1.350 . S
C1869 H1856 0.929 . S
C1869 C1861 1.433 . S
C1869 N1871 1.384 . S
N1870 C1866 1.427 . S
N1870 C1867 1.384 . S
N1871 C1863 1.427 . S
N1871 C1869 1.384 . S
H1872 C1878 0.930 . S
H1873 C1882 0.930 . S
H1874 C1887 0.929 . S
H1875 C1885 0.929 . S
H1876 C1880 0.929 . S
H1877 C1886 0.929 . S
C1878 H1872 0.930 . S
C1878 C1879 1.367 . S
C1878 C1886 1.378 . S
C1879 C1878 1.367 . S
C1879 C1887 1.433 . S
C1880 H1876 0.929 . S
C1880 C1882 1.378 . S
C1880 C1884 1.350 . S
C1881 C1884 1.463 . S
C1881 C1886 1.350 . S
C1881 N1889 1.427 . S
C1882 H1873 0.930 . S
C1882 C1880 1.378 . S
C1882 C1883 1.367 . S
C1883 C1882 1.367 . S
C1883 C1885 1.433 . S
C1884 C1880 1.350 . S
C1884 C1881 1.463 . S
C1884 N1888 1.427 . S
C1885 H1875 0.929 . S
C1885 C1883 1.433 . S
C1885 N1888 1.384 . S
C1886 H1877 0.929 . S
C1886 C1878 1.378 . S
C1886 C1881 1.350 . S
C1887 H1874 0.929 . S
C1887 C1879 1.433 . S
C1887 N1889 1.384 . S
N1888 C1884 1.427 . S
N1888 C1885 1.384 . S
N1889 C1881 1.427 . S
N1889 C1887 1.384 . S
H1890 C1896 0.930 . S
H1891 C1900 0.930 . S
H1892 C1905 0.929 . S
H1893 C1903 0.929 . S
H1894 C1898 0.929 . S
H1895 C1904 0.929 . S
C1896 H1890 0.930 . S
C1896 C1897 1.367 . S
C1896 C1904 1.378 . S
C1897 C1896 1.367 . S
C1897 C1905 1.433 . S
C1898 H1894 0.929 . S
C1898 C1900 1.378 . S
C1898 C1902 1.350 . S
C1899 C1902 1.463 . S
C1899 C1904 1.350 . S
C1899 N1907 1.427 . S
C1900 H1891 0.930 . S
C1900 C1898 1.378 . S
C1900 C1901 1.367 . S
C1901 C1900 1.367 . S
C1901 C1903 1.433 . S
C1902 C1898 1.350 . S
C1902 C1899 1.463 . S
C1902 N1906 1.427 . S
C1903 H1893 0.929 . S
C1903 C1901 1.433 . S
C1903 N1906 1.384 . S
C1904 H1895 0.929 . S
C1904 C1896 1.378 . S
C1904 C1899 1.350 . S
C1905 H1892 0.929 . S
C1905 C1897 1.433 . S
C1905 N1907 1.384 . S
N1906 C1902 1.427 . S
N1906 C1903 1.384 . S
N1907 C1899 1.427 . S
N1907 C1905 1.384 . S
H1908 C1914 0.930 . S
H1909 C1918 0.930 . S
H1910 C1923 0.929 . S
H1911 C1921 0.929 . S
H1912 C1916 0.929 . S
H1913 C1922 0.929 . S
C1914 H1908 0.930 . S
C1914 C1915 1.367 . S
C1914 C1922 1.378 . S
C1915 C1914 1.367 . S
C1915 C1923 1.433 . S
C1916 H1912 0.929 . S
C1916 C1918 1.378 . S
C1916 C1920 1.350 . S
C1917 C1920 1.463 . S
C1917 C1922 1.350 . S
C1917 N1925 1.427 . S
C1918 H1909 0.930 . S
C1918 C1916 1.378 . S
C1918 C1919 1.367 . S
C1919 C1918 1.367 . S
C1919 C1921 1.433 . S
C1920 C1916 1.350 . S
C1920 C1917 1.463 . S
C1920 N1924 1.427 . S
C1921 H1911 0.929 . S
C1921 C1919 1.433 . S
C1921 N1924 1.384 . S
C1922 H1913 0.929 . S
C1922 C1914 1.378 . S
C1922 C1917 1.350 . S
C1923 H1910 0.929 . S
C1923 C1915 1.433 . S
C1923 N1925 1.384 . S
N1924 C1920 1.427 . S
N1924 C1921 1.384 . S
N1925 C1917 1.427 . S
N1925 C1923 1.384 . S
H1926 C1932 0.930 . S
H1927 C1936 0.930 . S
H1928 C1941 0.929 . S
H1929 C1939 0.929 . S
H1930 C1934 0.929 . S
H1931 C1940 0.929 . S
C1932 H1926 0.930 . S
C1932 C1933 1.367 . S
C1932 C1940 1.378 . S
C1933 C1932 1.367 . S
C1933 C1941 1.433 . S
C1934 H1930 0.929 . S
C1934 C1936 1.378 . S
C1934 C1938 1.350 . S
C1935 C1938 1.463 . S
C1935 C1940 1.350 . S
C1935 N1943 1.427 . S
C1936 H1927 0.930 . S
C1936 C1934 1.378 . S
C1936 C1937 1.367 . S
C1937 C1936 1.367 . S
C1937 C1939 1.433 . S
C1938 C1934 1.350 . S
C1938 C1935 1.463 . S
C1938 N1942 1.427 . S
C1939 H1929 0.929 . S
C1939 C1937 1.433 . S
C1939 N1942 1.384 . S
C1940 H1931 0.929 . S
C1940 C1932 1.378 . S
C1940 C1935 1.350 . S
C1941 H1928 0.929 . S
C1941 C1933 1.433 . S
C1941 N1943 1.384 . S
N1942 C1938 1.427 . S
N1942 C1939 1.384 . S
N1943 C1935 1.427 . S
N1943 C1941 1.384 . S
H1944 C1950 0.930 . S
H1945 C1954 0.930 . S
H1946 C1959 0.929 . S
H1947 C1957 0.929 . S
H1948 C1952 0.929 . S
H1949 C1958 0.929 . S
C1950 H1944 0.930 . S
C1950 C1951 1.367 . S
C1950 C1958 1.378 . S
C1951 C1950 1.367 . S
C1951 C1959 1.433 . S
C1952 H1948 0.929 . S
C1952 C1954 1.378 . S
C1952 C1956 1.350 . S
C1953 C1956 1.463 . S
C1953 C1958 1.350 . S
C1953 N1961 1.427 . S
C1954 H1945 0.930 . S
C1954 C1952 1.378 . S
C1954 C1955 1.367 . S
C1955 C1954 1.367 . S
C1955 C1957 1.433 . S
C1956 C1952 1.350 . S
C1956 C1953 1.463 . S
C1956 N1960 1.427 . S
C1957 H1947 0.929 . S
C1957 C1955 1.433 . S
C1957 N1960 1.384 . S
C1958 H1949 0.929 . S
C1958 C1950 1.378 . S
C1958 C1953 1.350 . S
C1959 H1946 0.929 . S
C1959 C1951 1.433 . S
C1959 N1961 1.384 . S
N1960 C1956 1.427 . S
N1960 C1957 1.384 . S
N1961 C1953 1.427 . S
N1961 C1959 1.384 . S
H1962 C1968 0.930 . S
H1963 C1972 0.930 . S
H1964 C1977 0.929 . S
H1965 C1975 0.929 . S
H1966 C1970 0.929 . S
H1967 C1976 0.929 . S
C1968 H1962 0.930 . S
C1968 C1969 1.367 . S
C1968 C1976 1.378 . S
C1969 C1968 1.367 . S
C1969 C1977 1.433 . S
C1970 H1966 0.929 . S
C1970 C1972 1.378 . S
C1970 C1974 1.350 . S
C1971 C1974 1.463 . S
C1971 C1976 1.350 . S
C1971 N1979 1.427 . S
C1972 H1963 0.930 . S
C1972 C1970 1.378 . S
C1972 C1973 1.367 . S
C1973 C1972 1.367 . S
C1973 C1975 1.433 . S
C1974 C1970 1.350 . S
C1974 C1971 1.463 . S
C1974 N1978 1.427 . S
C1975 H1965 0.929 . S
C1975 C1973 1.433 . S
C1975 N1978 1.384 . S
C1976 H1967 0.929 . S
C1976 C1968 1.378 . S
C1976 C1971 1.350 . S
C1977 H1964 0.929 . S
C1977 C1969 1.433 . S
C1977 N1979 1.384 . S
N1978 C1974 1.427 . S
N1978 C1975 1.384 . S
N1979 C1971 1.427 . S
N1979 C1977 1.384 . S
H1980 C1986 0.930 . S
H1981 C1990 0.930 . S
H1982 C1995 0.929 . S
H1983 C1993 0.929 . S
H1984 C1988 0.929 . S
H1985 C1994 0.929 . S
C1986 H1980 0.930 . S
C1986 C1987 1.367 . S
C1986 C1994 1.378 . S
C1987 C1986 1.367 . S
C1987 C1995 1.433 . S
C1988 H1984 0.929 . S
C1988 C1990 1.378 . S
C1988 C1992 1.350 . S
C1989 C1992 1.463 . S
C1989 C1994 1.350 . S
C1989 N1997 1.427 . S
C1990 H1981 0.930 . S
C1990 C1988 1.378 . S
C1990 C1991 1.367 . S
C1991 C1990 1.367 . S
C1991 C1993 1.433 . S
C1992 C1988 1.350 . S
C1992 C1989 1.463 . S
C1992 N1996 1.427 . S
C1993 H1983 0.929 . S
C1993 C1991 1.433 . S
C1993 N1996 1.384 . S
C1994 H1985 0.929 . S
C1994 C1986 1.378 . S
C1994 C1989 1.350 . S
C1995 H1982 0.929 . S
C1995 C1987 1.433 . S
C1995 N1997 1.384 . S
N1996 C1992 1.427 . S
N1996 C1993 1.384 . S
N1997 C1989 1.427 . S
N1997 C1995 1.384 . S
H1998 C2004 0.930 . S
H1999 C2008 0.930 . S
H2000 C2013 0.929 . S
H2001 C2011 0.929 . S
H2002 C2006 0.929 . S
H2003 C2012 0.929 . S
C2004 H1998 0.930 . S
C2004 C2005 1.367 . S
C2004 C2012 1.378 . S
C2005 C2004 1.367 . S
C2005 C2013 1.433 . S
C2006 H2002 0.929 . S
C2006 C2008 1.378 . S
C2006 C2010 1.350 . S
C2007 C2010 1.463 . S
C2007 C2012 1.350 . S
C2007 N2015 1.427 . S
C2008 H1999 0.930 . S
C2008 C2006 1.378 . S
C2008 C2009 1.367 . S
C2009 C2008 1.367 . S
C2009 C2011 1.433 . S
C2010 C2006 1.350 . S
C2010 C2007 1.463 . S
C2010 N2014 1.427 . S
C2011 H2001 0.929 . S
C2011 C2009 1.433 . S
C2011 N2014 1.384 . S
C2012 H2003 0.929 . S
C2012 C2004 1.378 . S
C2012 C2007 1.350 . S
C2013 H2000 0.929 . S
C2013 C2005 1.433 . S
C2013 N2015 1.384 . S
N2014 C2010 1.427 . S
N2014 C2011 1.384 . S
N2015 C2007 1.427 . S
N2015 C2013 1.384 . S
H2016 C2022 0.930 . S
H2017 C2026 0.930 . S
H2018 C2031 0.929 . S
H2019 C2029 0.929 . S
H2020 C2024 0.929 . S
H2021 C2030 0.929 . S
C2022 H2016 0.930 . S
C2022 C2023 1.367 . S
C2022 C2030 1.378 . S
C2023 C2022 1.367 . S
C2023 C2031 1.433 . S
C2024 H2020 0.929 . S
C2024 C2026 1.378 . S
C2024 C2028 1.350 . S
C2025 C2028 1.463 . S
C2025 C2030 1.350 . S
C2025 N2033 1.427 . S
C2026 H2017 0.930 . S
C2026 C2024 1.378 . S
C2026 C2027 1.367 . S
C2027 C2026 1.367 . S
C2027 C2029 1.433 . S
C2028 C2024 1.350 . S
C2028 C2025 1.463 . S
C2028 N2032 1.427 . S
C2029 H2019 0.929 . S
C2029 C2027 1.433 . S
C2029 N2032 1.384 . S
C2030 H2021 0.929 . S
C2030 C2022 1.378 . S
C2030 C2025 1.350 . S
C2031 H2018 0.929 . S
C2031 C2023 1.433 . S
C2031 N2033 1.384 . S
N2032 C2028 1.427 . S
N2032 C2029 1.384 . S
N2033 C2025 1.427 . S
N2033 C2031 1.384 . S
H2034 C2040 0.930 . S
H2035 C2044 0.930 . S
H2036 C2049 0.929 . S
H2037 C2047 0.929 . S
H2038 C2042 0.929 . S
H2039 C2048 0.929 . S
C2040 H2034 0.930 . S
C2040 C2041 1.367 . S
C2040 C2048 1.378 . S
C2041 C2040 1.367 . S
C2041 C2049 1.433 . S
C2042 H2038 0.929 . S
C2042 C2044 1.378 . S
C2042 C2046 1.350 . S
C2043 C2046 1.463 . S
C2043 C2048 1.350 . S
C2043 N2051 1.427 . S
C2044 H2035 0.930 . S
C2044 C2042 1.378 . S
C2044 C2045 1.367 . S
C2045 C2044 1.367 . S
C2045 C2047 1.433 . S
C2046 C2042 1.350 . S
C2046 C2043 1.463 . S
C2046 N2050 1.427 . S
C2047 H2037 0.929 . S
C2047 C2045 1.433 . S
C2047 N2050 1.384 . S
C2048 H2039 0.929 . S
C2048 C2040 1.378 . S
C2048 C2043 1.350 . S
C2049 H2036 0.929 . S
C2049 C2041 1.433 . S
C2049 N2051 1.384 . S
N2050 C2046 1.427 . S
N2050 C2047 1.384 . S
N2051 C2043 1.427 . S
N2051 C2049 1.384 . S
H2052 C2058 0.930 . S
H2053 C2062 0.930 . S
H2054 C2067 0.929 . S
H2055 C2065 0.929 . S
H2056 C2060 0.929 . S
H2057 C2066 0.929 . S
C2058 H2052 0.930 . S
C2058 C2059 1.367 . S
C2058 C2066 1.378 . S
C2059 C2058 1.367 . S
C2059 C2067 1.433 . S
C2060 H2056 0.929 . S
C2060 C2062 1.378 . S
C2060 C2064 1.350 . S
C2061 C2064 1.463 . S
C2061 C2066 1.350 . S
C2061 N2069 1.427 . S
C2062 H2053 0.930 . S
C2062 C2060 1.378 . S
C2062 C2063 1.367 . S
C2063 C2062 1.367 . S
C2063 C2065 1.433 . S
C2064 C2060 1.350 . S
C2064 C2061 1.463 . S
C2064 N2068 1.427 . S
C2065 H2055 0.929 . S
C2065 C2063 1.433 . S
C2065 N2068 1.384 . S
C2066 H2057 0.929 . S
C2066 C2058 1.378 . S
C2066 C2061 1.350 . S
C2067 H2054 0.929 . S
C2067 C2059 1.433 . S
C2067 N2069 1.384 . S
N2068 C2064 1.427 . S
N2068 C2065 1.384 . S
N2069 C2061 1.427 . S
N2069 C2067 1.384 . S
H2070 C2076 0.930 . S
H2071 C2080 0.930 . S
H2072 C2085 0.929 . S
H2073 C2083 0.929 . S
H2074 C2078 0.929 . S
H2075 C2084 0.929 . S
C2076 H2070 0.930 . S
C2076 C2077 1.367 . S
C2076 C2084 1.378 . S
C2077 C2076 1.367 . S
C2077 C2085 1.433 . S
C2078 H2074 0.929 . S
C2078 C2080 1.378 . S
C2078 C2082 1.350 . S
C2079 C2082 1.463 . S
C2079 C2084 1.350 . S
C2079 N2087 1.427 . S
C2080 H2071 0.930 . S
C2080 C2078 1.378 . S
C2080 C2081 1.367 . S
C2081 C2080 1.367 . S
C2081 C2083 1.433 . S
C2082 C2078 1.350 . S
C2082 C2079 1.463 . S
C2082 N2086 1.427 . S
C2083 H2073 0.929 . S
C2083 C2081 1.433 . S
C2083 N2086 1.384 . S
C2084 H2075 0.929 . S
C2084 C2076 1.378 . S
C2084 C2079 1.350 . S
C2085 H2072 0.929 . S
C2085 C2077 1.433 . S
C2085 N2087 1.384 . S
N2086 C2082 1.427 . S
N2086 C2083 1.384 . S
N2087 C2079 1.427 . S
N2087 C2085 1.384 . S
H2088 C2094 0.930 . S
H2089 C2098 0.930 . S
H2090 C2103 0.929 . S
H2091 C2101 0.929 . S
H2092 C2096 0.929 . S
H2093 C2102 0.929 . S
C2094 H2088 0.930 . S
C2094 C2095 1.367 . S
C2094 C2102 1.378 . S
C2095 C2094 1.367 . S
C2095 C2103 1.433 . S
C2096 H2092 0.929 . S
C2096 C2098 1.378 . S
C2096 C2100 1.350 . S
C2097 C2100 1.463 . S
C2097 C2102 1.350 . S
C2097 N2105 1.427 . S
C2098 H2089 0.930 . S
C2098 C2096 1.378 . S
C2098 C2099 1.367 . S
C2099 C2098 1.367 . S
C2099 C2101 1.433 . S
C2100 C2096 1.350 . S
C2100 C2097 1.463 . S
C2100 N2104 1.427 . S
C2101 H2091 0.929 . S
C2101 C2099 1.433 . S
C2101 N2104 1.384 . S
C2102 H2093 0.929 . S
C2102 C2094 1.378 . S
C2102 C2097 1.350 . S
C2103 H2090 0.929 . S
C2103 C2095 1.433 . S
C2103 N2105 1.384 . S
N2104 C2100 1.427 . S
N2104 C2101 1.384 . S
N2105 C2097 1.427 . S
N2105 C2103 1.384 . S
H2106 C2112 0.930 . S
H2107 C2116 0.930 . S
H2108 C2121 0.929 . S
H2109 C2119 0.929 . S
H2110 C2114 0.929 . S
H2111 C2120 0.929 . S
C2112 H2106 0.930 . S
C2112 C2113 1.367 . S
C2112 C2120 1.378 . S
C2113 C2112 1.367 . S
C2113 C2121 1.433 . S
C2114 H2110 0.929 . S
C2114 C2116 1.378 . S
C2114 C2118 1.350 . S
C2115 C2118 1.463 . S
C2115 C2120 1.350 . S
C2115 N2123 1.427 . S
C2116 H2107 0.930 . S
C2116 C2114 1.378 . S
C2116 C2117 1.367 . S
C2117 C2116 1.367 . S
C2117 C2119 1.433 . S
C2118 C2114 1.350 . S
C2118 C2115 1.463 . S
C2118 N2122 1.427 . S
C2119 H2109 0.929 . S
C2119 C2117 1.433 . S
C2119 N2122 1.384 . S
C2120 H2111 0.929 . S
C2120 C2112 1.378 . S
C2120 C2115 1.350 . S
C2121 H2108 0.929 . S
C2121 C2113 1.433 . S
C2121 N2123 1.384 . S
N2122 C2118 1.427 . S
N2122 C2119 1.384 . S
N2123 C2115 1.427 . S
N2123 C2121 1.384 . S
H2124 C2130 0.930 . S
H2125 C2134 0.930 . S
H2126 C2139 0.929 . S
H2127 C2137 0.929 . S
H2128 C2132 0.929 . S
H2129 C2138 0.929 . S
C2130 H2124 0.930 . S
C2130 C2131 1.367 . S
C2130 C2138 1.378 . S
C2131 C2130 1.367 . S
C2131 C2139 1.433 . S
C2132 H2128 0.929 . S
C2132 C2134 1.378 . S
C2132 C2136 1.350 . S
C2133 C2136 1.463 . S
C2133 C2138 1.350 . S
C2133 N2141 1.427 . S
C2134 H2125 0.930 . S
C2134 C2132 1.378 . S
C2134 C2135 1.367 . S
C2135 C2134 1.367 . S
C2135 C2137 1.433 . S
C2136 C2132 1.350 . S
C2136 C2133 1.463 . S
C2136 N2140 1.427 . S
C2137 H2127 0.929 . S
C2137 C2135 1.433 . S
C2137 N2140 1.384 . S
C2138 H2129 0.929 . S
C2138 C2130 1.378 . S
C2138 C2133 1.350 . S
C2139 H2126 0.929 . S
C2139 C2131 1.433 . S
C2139 N2141 1.384 . S
N2140 C2136 1.427 . S
N2140 C2137 1.384 . S
N2141 C2133 1.427 . S
N2141 C2139 1.384 . S
H2142 C2148 0.930 . S
H2143 C2152 0.930 . S
H2144 C2157 0.929 . S
H2145 C2155 0.929 . S
H2146 C2150 0.929 . S
H2147 C2156 0.929 . S
C2148 H2142 0.930 . S
C2148 C2149 1.367 . S
C2148 C2156 1.378 . S
C2149 C2148 1.367 . S
C2149 C2157 1.433 . S
C2150 H2146 0.929 . S
C2150 C2152 1.378 . S
C2150 C2154 1.350 . S
C2151 C2154 1.463 . S
C2151 C2156 1.350 . S
C2151 N2159 1.427 . S
C2152 H2143 0.930 . S
C2152 C2150 1.378 . S
C2152 C2153 1.367 . S
C2153 C2152 1.367 . S
C2153 C2155 1.433 . S
C2154 C2150 1.350 . S
C2154 C2151 1.463 . S
C2154 N2158 1.427 . S
C2155 H2145 0.929 . S
C2155 C2153 1.433 . S
C2155 N2158 1.384 . S
C2156 H2147 0.929 . S
C2156 C2148 1.378 . S
C2156 C2151 1.350 . S
C2157 H2144 0.929 . S
C2157 C2149 1.433 . S
C2157 N2159 1.384 . S
N2158 C2154 1.427 . S
N2158 C2155 1.384 . S
N2159 C2151 1.427 . S
N2159 C2157 1.384 . S
H2160 C2166 0.930 . S
H2161 C2170 0.930 . S
H2162 C2175 0.929 . S
H2163 C2173 0.929 . S
H2164 C2168 0.929 . S
H2165 C2174 0.929 . S
C2166 H2160 0.930 . S
C2166 C2167 1.367 . S
C2166 C2174 1.378 . S
C2167 C2166 1.367 . S
C2167 C2175 1.433 . S
C2168 H2164 0.929 . S
C2168 C2170 1.378 . S
C2168 C2172 1.350 . S
C2169 C2172 1.463 . S
C2169 C2174 1.350 . S
C2169 N2177 1.427 . S
C2170 H2161 0.930 . S
C2170 C2168 1.378 . S
C2170 C2171 1.367 . S
C2171 C2170 1.367 . S
C2171 C2173 1.433 . S
C2172 C2168 1.350 . S
C2172 C2169 1.463 . S
C2172 N2176 1.427 . S
C2173 H2163 0.929 . S
C2173 C2171 1.433 . S
C2173 N2176 1.384 . S
C2174 H2165 0.929 . S
C2174 C2166 1.378 . S
C2174 C2169 1.350 . S
C2175 H2162 0.929 . S
C2175 C2167 1.433 . S
C2175 N2177 1.384 . S
N2176 C2172 1.427 . S
N2176 C2173 1.384 . S
N2177 C2169 1.427 . S
N2177 C2175 1.384 . S
H2178 C2184 0.930 . S
H2179 C2188 0.930 . S
H2180 C2193 0.929 . S
H2181 C2191 0.929 . S
H2182 C2186 0.929 . S
H2183 C2192 0.929 . S
C2184 H2178 0.930 . S
C2184 C2185 1.367 . S
C2184 C2192 1.378 . S
C2185 C2184 1.367 . S
C2185 C2193 1.433 . S
C2186 H2182 0.929 . S
C2186 C2188 1.378 . S
C2186 C2190 1.350 . S
C2187 C2190 1.463 1_545 S
C2187 C2192 1.350 . S
C2187 N2195 1.427 . S
C2188 H2179 0.930 . S
C2188 C2186 1.378 . S
C2188 C2189 1.367 . S
C2189 C2188 1.367 . S
C2189 C2191 1.433 . S
C2190 C2186 1.350 . S
C2190 C2187 1.463 1_565 S
C2190 N2194 1.427 . S
C2191 H2181 0.929 . S
C2191 C2189 1.433 . S
C2191 N2194 1.384 . S
C2192 H2183 0.929 . S
C2192 C2184 1.378 . S
C2192 C2187 1.350 . S
C2193 H2180 0.929 . S
C2193 C2185 1.433 . S
C2193 N2195 1.384 . S
N2194 C2190 1.427 . S
N2194 C2191 1.384 . S
N2195 C2187 1.427 . S
N2195 C2193 1.384 . S
H2196 C2202 0.930 . S
H2197 C2206 0.930 . S
H2198 C2211 0.929 . S
H2199 C2209 0.929 . S
H2200 C2204 0.929 1_455 S
H2201 C2210 0.929 1_655 S
C2202 H2196 0.930 . S
C2202 C2203 1.367 . S
C2202 C2210 1.378 . S
C2203 C2202 1.367 . S
C2203 C2211 1.433 . S
C2204 H2200 0.929 1_655 S
C2204 C2206 1.378 . S
C2204 C2208 1.350 . S
C2205 C2208 1.463 1_455 S
C2205 C2210 1.350 . S
C2205 N2213 1.427 . S
C2206 H2197 0.930 . S
C2206 C2204 1.378 . S
C2206 C2207 1.367 . S
C2207 C2206 1.367 . S
C2207 C2209 1.433 . S
C2208 C2204 1.350 . S
C2208 C2205 1.463 1_655 S
C2208 N2212 1.427 . S
C2209 H2199 0.929 . S
C2209 C2207 1.433 . S
C2209 N2212 1.384 . S
C2210 H2201 0.929 1_455 S
C2210 C2202 1.378 . S
C2210 C2205 1.350 . S
C2211 H2198 0.929 . S
C2211 C2203 1.433 . S
C2211 N2213 1.384 . S
N2212 C2208 1.427 . S
N2212 C2209 1.384 . S
N2213 C2205 1.427 . S
N2213 C2211 1.384 . S
H2214 C2220 0.930 . S
H2215 C2224 0.930 . S
H2216 C2229 0.929 . S
H2217 C2227 0.929 . S
H2218 C2222 0.929 . S
H2219 C2228 0.929 . S
C2220 H2214 0.930 . S
C2220 C2221 1.367 . S
C2220 C2228 1.378 . S
C2221 C2220 1.367 . S
C2221 C2229 1.433 . S
C2222 H2218 0.929 . S
C2222 C2224 1.378 . S
C2222 C2226 1.350 . S
C2223 C2226 1.463 . S
C2223 C2228 1.350 . S
C2223 N2231 1.427 . S
C2224 H2215 0.930 . S
C2224 C2222 1.378 . S
C2224 C2225 1.367 . S
C2225 C2224 1.367 . S
C2225 C2227 1.433 . S
C2226 C2222 1.350 . S
C2226 C2223 1.463 . S
C2226 N2230 1.427 . S
C2227 H2217 0.929 . S
C2227 C2225 1.433 . S
C2227 N2230 1.384 . S
C2228 H2219 0.929 . S
C2228 C2220 1.378 . S
C2228 C2223 1.350 . S
C2229 H2216 0.929 . S
C2229 C2221 1.433 . S
C2229 N2231 1.384 . S
N2230 C2226 1.427 . S
N2230 C2227 1.384 . S
N2231 C2223 1.427 . S
N2231 C2229 1.384 . S
H2232 C2238 0.930 . S
H2233 C2242 0.930 . S
H2234 C2247 0.929 . S
H2235 C2245 0.929 . S
H2236 C2240 0.929 . S
H2237 C2246 0.929 . S
C2238 H2232 0.930 . S
C2238 C2239 1.367 . S
C2238 C2246 1.378 . S
C2239 C2238 1.367 . S
C2239 C2247 1.433 . S
C2240 H2236 0.929 . S
C2240 C2242 1.378 . S
C2240 C2244 1.350 . S
C2241 C2244 1.463 1_545 S
C2241 C2246 1.350 . S
C2241 N2249 1.451 . S
C2242 H2233 0.930 . S
C2242 C2240 1.378 . S
C2242 C2243 1.367 . S
C2243 C2242 1.367 . S
C2243 C2245 1.433 . S
C2244 C2240 1.350 . S
C2244 C2241 1.463 1_565 S
C2244 N2248 1.451 . S
C2245 H2235 0.929 . S
C2245 C2243 1.433 . S
C2245 N2248 1.407 . S
C2246 H2237 0.929 . S
C2246 C2238 1.378 . S
C2246 C2241 1.350 . S
C2247 H2234 0.929 . S
C2247 C2239 1.433 . S
C2247 N2249 1.407 . S
N2248 C2244 1.451 . S
N2248 C2245 1.407 . S
N2249 C2241 1.451 . S
N2249 C2247 1.407 . S
H2250 C2256 0.930 . S
H2251 C2260 0.930 . S
H2252 C2265 0.929 . S
H2253 C2263 0.929 . S
H2254 C2258 0.929 . S
H2255 C2264 0.929 . S
C2256 H2250 0.930 . S
C2256 C2257 1.367 . S
C2256 C2264 1.378 . S
C2257 C2256 1.367 . S
C2257 C2265 1.433 . S
C2258 H2254 0.929 . S
C2258 C2260 1.378 . S
C2258 C2262 1.350 . S
C2259 C2262 1.463 1_455 S
C2259 C2264 1.350 . S
C2259 N2267 1.427 . S
C2260 H2251 0.930 . S
C2260 C2258 1.378 . S
C2260 C2261 1.367 . S
C2261 C2260 1.367 . S
C2261 C2263 1.433 . S
C2262 C2258 1.350 . S
C2262 C2259 1.463 1_655 S
C2262 N2266 1.427 . S
C2263 H2253 0.929 . S
C2263 C2261 1.433 . S
C2263 N2266 1.384 . S
C2264 H2255 0.929 . S
C2264 C2256 1.378 . S
C2264 C2259 1.350 . S
C2265 H2252 0.929 . S
C2265 C2257 1.433 . S
C2265 N2267 1.384 . S
N2266 C2262 1.427 . S
N2266 C2263 1.384 . S
N2267 C2259 1.427 . S
N2267 C2265 1.384 . S
H2268 C2274 0.930 . S
H2269 C2278 0.930 . S
H2270 C2283 0.929 . S
H2271 C2281 0.929 . S
H2272 C2276 0.929 . S
H2273 C2282 0.929 . S
C2274 H2268 0.930 . S
C2274 C2275 1.367 . S
C2274 C2282 1.378 . S
C2275 C2274 1.367 . S
C2275 C2283 1.433 . S
C2276 H2272 0.929 . S
C2276 C2278 1.378 . S
C2276 C2280 1.350 . S
C2277 C2280 1.463 . S
C2277 C2282 1.350 . S
C2277 N2285 1.427 . S
C2278 H2269 0.930 . S
C2278 C2276 1.378 . S
C2278 C2279 1.367 . S
C2279 C2278 1.367 . S
C2279 C2281 1.433 . S
C2280 C2276 1.350 . S
C2280 C2277 1.463 . S
C2280 N2284 1.427 . S
C2281 H2271 0.929 . S
C2281 C2279 1.433 . S
C2281 N2284 1.384 . S
C2282 H2273 0.929 . S
C2282 C2274 1.378 . S
C2282 C2277 1.350 . S
C2283 H2270 0.929 . S
C2283 C2275 1.433 . S
C2283 N2285 1.384 . S
N2284 C2280 1.427 . S
N2284 C2281 1.384 . S
N2285 C2277 1.427 . S
N2285 C2283 1.384 . S
H2286 C2292 0.930 . S
H2287 C2296 0.930 . S
H2288 C2301 0.929 . S
H2289 C2299 0.929 . S
H2290 C2294 0.929 . S
H2291 C2300 0.929 . S
C2292 H2286 0.930 . S
C2292 C2293 1.367 . S
C2292 C2300 1.378 . S
C2293 C2292 1.367 . S
C2293 C2301 1.433 . S
C2294 H2290 0.929 . S
C2294 C2296 1.378 . S
C2294 C2298 1.350 . S
C2295 C2298 1.463 . S
C2295 C2300 1.350 . S
C2295 N2303 1.427 . S
C2296 H2287 0.930 . S
C2296 C2294 1.378 . S
C2296 C2297 1.367 . S
C2297 C2296 1.367 . S
C2297 C2299 1.433 . S
C2298 C2294 1.350 . S
C2298 C2295 1.463 . S
C2298 N2302 1.427 . S
C2299 H2289 0.929 . S
C2299 C2297 1.433 . S
C2299 N2302 1.384 . S
C2300 H2291 0.929 . S
C2300 C2292 1.378 . S
C2300 C2295 1.350 . S
C2301 H2288 0.929 . S
C2301 C2293 1.433 . S
C2301 N2303 1.384 . S
N2302 C2298 1.427 . S
N2302 C2299 1.384 . S
N2303 C2295 1.427 . S
N2303 C2301 1.384 . S
H2304 C2310 0.930 . S
H2305 C2314 0.930 . S
H2306 C2319 0.929 . S
H2307 C2317 0.929 . S
H2308 C2312 0.929 . S
H2309 C2318 0.929 . S
C2310 H2304 0.930 . S
C2310 C2311 1.367 . S
C2310 C2318 1.378 . S
C2311 C2310 1.367 . S
C2311 C2319 1.433 . S
C2312 H2308 0.929 . S
C2312 C2314 1.378 . S
C2312 C2316 1.350 . S
C2313 C2316 1.463 . S
C2313 C2318 1.350 . S
C2313 N2321 1.427 . S
C2314 H2305 0.930 . S
C2314 C2312 1.378 . S
C2314 C2315 1.367 . S
C2315 C2314 1.367 . S
C2315 C2317 1.433 . S
C2316 C2312 1.350 . S
C2316 C2313 1.463 . S
C2316 N2320 1.427 . S
C2317 H2307 0.929 . S
C2317 C2315 1.433 . S
C2317 N2320 1.384 . S
C2318 H2309 0.929 . S
C2318 C2310 1.378 . S
C2318 C2313 1.350 . S
C2319 H2306 0.929 . S
C2319 C2311 1.433 . S
C2319 N2321 1.384 . S
N2320 C2316 1.427 . S
N2320 C2317 1.384 . S
N2321 C2313 1.427 . S
N2321 C2319 1.384 . S
H2322 C2328 0.930 . S
H2323 C2332 0.930 . S
H2324 C2337 0.929 . S
H2325 C2335 0.929 . S
H2326 C2330 0.929 . S
H2327 C2336 0.929 . S
C2328 H2322 0.930 . S
C2328 C2329 1.367 . S
C2328 C2336 1.378 . S
C2329 C2328 1.367 . S
C2329 C2337 1.433 . S
C2330 H2326 0.929 . S
C2330 C2332 1.378 . S
C2330 C2334 1.350 . S
C2331 C2334 1.463 . S
C2331 C2336 1.350 . S
C2331 N2339 1.427 . S
C2332 H2323 0.930 . S
C2332 C2330 1.378 . S
C2332 C2333 1.375 . S
C2333 C2332 1.375 . S
C2333 C2335 1.443 . S
C2334 C2330 1.350 . S
C2334 C2331 1.463 . S
C2334 N2338 1.427 . S
C2335 H2325 0.929 . S
C2335 C2333 1.443 . S
C2335 N2338 1.384 . S
C2336 H2327 0.929 . S
C2336 C2328 1.378 . S
C2336 C2331 1.350 . S
C2337 H2324 0.929 . S
C2337 C2329 1.433 . S
C2337 N2339 1.384 . S
N2338 C2334 1.427 . S
N2338 C2335 1.384 . S
N2339 C2331 1.427 . S
N2339 C2337 1.384 . S
H2340 C2346 0.930 . S
H2341 C2350 0.930 . S
H2342 C2355 0.929 . S
H2343 C2353 0.929 1_556 S
H2344 C2348 0.929 . S
H2345 C2354 0.929 . S
C2346 H2340 0.930 . S
C2346 C2347 1.367 . S
C2346 C2354 1.378 . S
C2347 C2346 1.367 . S
C2347 C2355 1.433 . S
C2348 H2344 0.929 . S
C2348 C2350 1.378 . S
C2348 C2352 1.350 . S
C2349 C2352 1.463 . S
C2349 C2354 1.350 . S
C2349 N2357 1.427 . S
C2350 H2341 0.930 . S
C2350 C2348 1.378 . S
C2350 C2351 1.383 . S
C2351 C2350 1.383 . S
C2351 C2353 1.439 . S
C2352 C2348 1.350 . S
C2352 C2349 1.463 . S
C2352 N2356 1.427 . S
C2353 H2343 0.929 1_554 S
C2353 C2351 1.439 . S
C2353 N2356 1.384 . S
C2354 H2345 0.929 . S
C2354 C2346 1.378 . S
C2354 C2349 1.350 . S
C2355 H2342 0.929 . S
C2355 C2347 1.433 . S
C2355 N2357 1.384 . S
N2356 C2352 1.427 . S
N2356 C2353 1.384 . S
N2357 C2349 1.427 . S
N2357 C2355 1.384 . S
H2358 C2364 0.930 1_556 S
H2359 C2368 0.930 . S
H2360 C2373 0.929 . S
H2361 C2371 0.929 . S
H2362 C2366 0.929 . S
H2363 C2372 0.929 . S
C2364 H2358 0.930 1_554 S
C2364 C2365 1.371 . S
C2364 C2372 1.378 . S
C2365 C2364 1.371 . S
C2365 C2373 1.443 . S
C2366 H2362 0.929 . S
C2366 C2368 1.378 . S
C2366 C2370 1.350 . S
C2367 C2370 1.463 . S
C2367 C2372 1.350 . S
C2367 N2375 1.427 . S
C2368 H2359 0.930 . S
C2368 C2366 1.378 . S
C2368 C2369 1.367 . S
C2369 C2368 1.367 . S
C2369 C2371 1.433 . S
C2370 C2366 1.350 . S
C2370 C2367 1.463 . S
C2370 N2374 1.427 . S
C2371 H2361 0.929 . S
C2371 C2369 1.433 . S
C2371 N2374 1.384 . S
C2372 H2363 0.929 . S
C2372 C2364 1.378 . S
C2372 C2367 1.350 . S
C2373 H2360 0.929 . S
C2373 C2365 1.443 . S
C2373 N2375 1.384 . S
N2374 C2370 1.427 . S
N2374 C2371 1.384 . S
N2375 C2367 1.427 . S
N2375 C2373 1.384 . S
H2376 C2382 0.930 1_554 S
H2377 C2386 0.930 . S
H2378 C2391 0.929 . S
H2379 C2389 0.929 . S
H2380 C2384 0.929 . S
H2381 C2390 0.929 . S
C2382 H2376 0.930 1_556 S
C2382 C2383 1.372 . S
C2382 C2390 1.378 . S
C2383 C2382 1.372 . S
C2383 C2391 1.443 . S
C2384 H2380 0.929 . S
C2384 C2386 1.378 . S
C2384 C2388 1.350 . S
C2385 C2388 1.463 . S
C2385 C2390 1.350 . S
C2385 N2393 1.427 . S
C2386 H2377 0.930 . S
C2386 C2384 1.378 . S
C2386 C2387 1.367 . S
C2387 C2386 1.367 . S
C2387 C2389 1.433 . S
C2388 C2384 1.350 . S
C2388 C2385 1.463 . S
C2388 N2392 1.427 . S
C2389 H2379 0.929 . S
C2389 C2387 1.433 . S
C2389 N2392 1.384 . S
C2390 H2381 0.929 . S
C2390 C2382 1.378 . S
C2390 C2385 1.350 . S
C2391 H2378 0.929 . S
C2391 C2383 1.443 . S
C2391 N2393 1.384 . S
N2392 C2388 1.427 . S
N2392 C2389 1.384 . S
N2393 C2385 1.427 . S
N2393 C2391 1.384 . S
H2394 C2400 0.930 . S
H2395 C2404 0.930 . S
H2396 C2409 0.929 . S
H2397 C2407 0.929 . S
H2398 C2402 0.929 . S
H2399 C2408 0.929 . S
C2400 H2394 0.930 . S
C2400 C2401 1.366 1_554 S
C2400 C2408 1.378 1_554 S
C2401 C2400 1.366 1_556 S
C2401 C2409 1.440 . S
C2402 H2398 0.929 . S
C2402 C2404 1.378 . S
C2402 C2406 1.350 . S
C2403 C2406 1.463 . S
C2403 C2408 1.350 . S
C2403 N2411 1.427 . S
C2404 H2395 0.930 . S
C2404 C2402 1.378 . S
C2404 C2405 1.367 . S
C2405 C2404 1.367 . S
C2405 C2407 1.433 . S
C2406 C2402 1.350 . S
C2406 C2403 1.463 . S
C2406 N2410 1.427 . S
C2407 H2397 0.929 . S
C2407 C2405 1.433 . S
C2407 N2410 1.384 . S
C2408 H2399 0.929 . S
C2408 C2400 1.378 1_556 S
C2408 C2403 1.350 . S
C2409 H2396 0.929 . S
C2409 C2401 1.440 . S
C2409 N2411 1.384 . S
N2410 C2406 1.427 . S
N2410 C2407 1.384 . S
N2411 C2403 1.427 . S
N2411 C2409 1.384 . S
H2412 C2418 0.930 . S
H2413 C2422 0.930 1_554 S
H2414 C2427 0.929 . S
H2415 C2425 0.929 . S
H2416 C2420 0.929 . S
H2417 C2426 0.929 . S
C2418 H2412 0.930 . S
C2418 C2419 1.367 . S
C2418 C2426 1.378 . S
C2419 C2418 1.367 . S
C2419 C2427 1.433 . S
C2420 H2416 0.929 . S
C2420 C2422 1.378 . S
C2420 C2424 1.350 . S
C2421 C2424 1.463 . S
C2421 C2426 1.350 . S
C2421 N2429 1.427 . S
C2422 H2413 0.930 1_556 S
C2422 C2420 1.378 . S
C2422 C2423 1.368 . S
C2423 C2422 1.368 . S
C2423 C2425 1.443 . S
C2424 C2420 1.350 . S
C2424 C2421 1.463 . S
C2424 N2428 1.427 . S
C2425 H2415 0.929 . S
C2425 C2423 1.443 . S
C2425 N2428 1.384 . S
C2426 H2417 0.929 . S
C2426 C2418 1.378 . S
C2426 C2421 1.350 . S
C2427 H2414 0.929 . S
C2427 C2419 1.433 . S
C2427 N2429 1.384 . S
N2428 C2424 1.427 . S
N2428 C2425 1.384 . S
N2429 C2421 1.427 . S
N2429 C2427 1.384 . S
H2430 C2436 0.930 . S
H2431 C2440 0.930 . S
H2432 C2445 0.929 . S
H2433 C2443 0.929 . S
H2434 C2438 0.929 . S
H2435 C2444 0.929 . S
C2436 H2430 0.930 . S
C2436 C2437 1.367 . S
C2436 C2444 1.378 . S
C2437 C2436 1.367 . S
C2437 C2445 1.433 . S
C2438 H2434 0.929 . S
C2438 C2440 1.378 . S
C2438 C2442 1.350 . S
C2439 C2442 1.463 . S
C2439 C2444 1.350 . S
C2439 N2447 1.427 . S
C2440 H2431 0.930 . S
C2440 C2438 1.378 . S
C2440 C2441 1.367 . S
C2441 C2440 1.367 . S
C2441 C2443 1.433 . S
C2442 C2438 1.350 . S
C2442 C2439 1.463 . S
C2442 N2446 1.427 . S
C2443 H2433 0.929 . S
C2443 C2441 1.433 . S
C2443 N2446 1.384 . S
C2444 H2435 0.929 . S
C2444 C2436 1.378 . S
C2444 C2439 1.350 . S
C2445 H2432 0.929 . S
C2445 C2437 1.433 . S
C2445 N2447 1.384 . S
N2446 C2442 1.427 . S
N2446 C2443 1.384 . S
N2447 C2439 1.427 . S
N2447 C2445 1.384 . S
H2448 C2454 0.930 . S
H2449 C2458 0.930 . S
H2450 C2463 0.929 . S
H2451 C2461 0.929 . S
H2452 C2456 0.929 . S
H2453 C2462 0.929 . S
C2454 H2448 0.930 . S
C2454 C2455 1.367 . S
C2454 C2462 1.378 . S
C2455 C2454 1.367 . S
C2455 C2463 1.433 . S
C2456 H2452 0.929 . S
C2456 C2458 1.378 . S
C2456 C2460 1.350 . S
C2457 C2460 1.463 . S
C2457 C2462 1.350 . S
C2457 N2465 1.427 . S
C2458 H2449 0.930 . S
C2458 C2456 1.378 . S
C2458 C2459 1.367 . S
C2459 C2458 1.367 . S
C2459 C2461 1.433 . S
C2460 C2456 1.350 . S
C2460 C2457 1.463 . S
C2460 N2464 1.427 . S
C2461 H2451 0.929 . S
C2461 C2459 1.433 . S
C2461 N2464 1.384 . S
C2462 H2453 0.929 . S
C2462 C2454 1.378 . S
C2462 C2457 1.350 . S
C2463 H2450 0.929 . S
C2463 C2455 1.433 . S
C2463 N2465 1.384 . S
N2464 C2460 1.427 . S
N2464 C2461 1.384 . S
N2465 C2457 1.427 . S
N2465 C2463 1.384 . S
H2466 C2472 0.930 . S
H2467 C2476 0.930 . S
H2468 C2481 0.929 . S
H2469 C2479 0.929 . S
H2470 C2474 0.929 . S
H2471 C2480 0.929 . S
C2472 H2466 0.930 . S
C2472 C2473 1.367 . S
C2472 C2480 1.378 . S
C2473 C2472 1.367 . S
C2473 C2481 1.433 . S
C2474 H2470 0.929 . S
C2474 C2476 1.378 . S
C2474 C2478 1.350 . S
C2475 C2478 1.463 . S
C2475 C2480 1.350 . S
C2475 N2483 1.427 . S
C2476 H2467 0.930 . S
C2476 C2474 1.378 . S
C2476 C2477 1.367 . S
C2477 C2476 1.367 . S
C2477 C2479 1.433 . S
C2478 C2474 1.350 . S
C2478 C2475 1.463 . S
C2478 N2482 1.427 . S
C2479 H2469 0.929 . S
C2479 C2477 1.433 . S
C2479 N2482 1.384 . S
C2480 H2471 0.929 . S
C2480 C2472 1.378 . S
C2480 C2475 1.350 . S
C2481 H2468 0.929 . S
C2481 C2473 1.433 . S
C2481 N2483 1.384 . S
N2482 C2478 1.427 . S
N2482 C2479 1.384 . S
N2483 C2475 1.427 . S
N2483 C2481 1.384 . S
H2484 C2490 0.930 . S
H2485 C2494 0.930 . S
H2486 C2499 0.929 . S
H2487 C2497 0.929 . S
H2488 C2492 0.929 . S
H2489 C2498 0.929 . S
C2490 H2484 0.930 . S
C2490 C2491 1.367 . S
C2490 C2498 1.378 . S
C2491 C2490 1.367 . S
C2491 C2499 1.433 . S
C2492 H2488 0.929 . S
C2492 C2494 1.378 . S
C2492 C2496 1.350 . S
C2493 C2496 1.463 . S
C2493 C2498 1.350 . S
C2493 N2501 1.427 . S
C2494 H2485 0.930 . S
C2494 C2492 1.378 . S
C2494 C2495 1.367 . S
C2495 C2494 1.367 . S
C2495 C2497 1.433 . S
C2496 C2492 1.350 . S
C2496 C2493 1.463 . S
C2496 N2500 1.427 . S
C2497 H2487 0.929 . S
C2497 C2495 1.433 . S
C2497 N2500 1.384 . S
C2498 H2489 0.929 . S
C2498 C2490 1.378 . S
C2498 C2493 1.350 . S
C2499 H2486 0.929 . S
C2499 C2491 1.433 . S
C2499 N2501 1.384 . S
N2500 C2496 1.427 . S
N2500 C2497 1.384 . S
N2501 C2493 1.427 . S
N2501 C2499 1.384 . S
H2502 C2508 0.930 . S
H2503 C2512 0.930 . S
H2504 C2517 0.929 1_554 S
H2505 C2515 0.929 . S
H2506 C2510 0.929 . S
H2507 C2516 0.929 . S
C2508 H2502 0.930 . S
C2508 C2509 1.367 . S
C2508 C2516 1.378 . S
C2509 C2508 1.367 . S
C2509 C2517 1.433 . S
C2510 H2506 0.929 . S
C2510 C2512 1.378 . S
C2510 C2514 1.350 . S
C2511 C2514 1.463 . S
C2511 C2516 1.350 . S
C2511 N2519 1.427 . S
C2512 H2503 0.930 . S
C2512 C2510 1.378 . S
C2512 C2513 1.367 . S
C2513 C2512 1.367 . S
C2513 C2515 1.433 . S
C2514 C2510 1.350 . S
C2514 C2511 1.463 . S
C2514 N2518 1.427 . S
C2515 H2505 0.929 . S
C2515 C2513 1.433 . S
C2515 N2518 1.384 . S
C2516 H2507 0.929 . S
C2516 C2508 1.378 . S
C2516 C2511 1.350 . S
C2517 H2504 0.929 1_556 S
C2517 C2509 1.433 . S
C2517 N2519 1.384 . S
N2518 C2514 1.427 . S
N2518 C2515 1.384 . S
N2519 C2511 1.427 . S
N2519 C2517 1.384 . S
H2520 C2526 0.930 . S
H2521 C2530 0.930 1_554 S
H2522 C2535 0.929 . S
H2523 C2533 0.929 . S
H2524 C2528 0.929 . S
H2525 C2534 0.929 . S
C2526 H2520 0.930 . S
C2526 C2527 1.367 . S
C2526 C2534 1.378 . S
C2527 C2526 1.367 . S
C2527 C2535 1.433 . S
C2528 H2524 0.929 . S
C2528 C2530 1.378 . S
C2528 C2532 1.350 . S
C2529 C2532 1.463 . S
C2529 C2534 1.350 . S
C2529 N2537 1.427 . S
C2530 H2521 0.930 1_556 S
C2530 C2528 1.378 . S
C2530 C2531 1.367 . S
C2531 C2530 1.367 . S
C2531 C2533 1.433 . S
C2532 C2528 1.350 . S
C2532 C2529 1.463 . S
C2532 N2536 1.427 . S
C2533 H2523 0.929 . S
C2533 C2531 1.433 . S
C2533 N2536 1.384 . S
C2534 H2525 0.929 . S
C2534 C2526 1.378 . S
C2534 C2529 1.350 . S
C2535 H2522 0.929 . S
C2535 C2527 1.433 . S
C2535 N2537 1.384 . S
N2536 C2532 1.427 . S
N2536 C2533 1.384 . S
N2537 C2529 1.427 . S
N2537 C2535 1.384 . S
H2538 C2544 0.930 . S
H2539 C2548 0.930 . S
H2540 C2553 0.929 . S
H2541 C2551 0.929 . S
H2542 C2546 0.929 . S
H2543 C2552 0.929 . S
C2544 H2538 0.930 . S
C2544 C2545 1.367 . S
C2544 C2552 1.378 . S
C2545 C2544 1.367 . S
C2545 C2553 1.433 . S
C2546 H2542 0.929 . S
C2546 C2548 1.378 . S
C2546 C2550 1.350 . S
C2547 C2550 1.463 . S
C2547 C2552 1.350 . S
C2547 N2555 1.427 . S
C2548 H2539 0.930 . S
C2548 C2546 1.378 . S
C2548 C2549 1.367 . S
C2549 C2548 1.367 . S
C2549 C2551 1.433 . S
C2550 C2546 1.350 . S
C2550 C2547 1.463 . S
C2550 N2554 1.427 . S
C2551 H2541 0.929 . S
C2551 C2549 1.433 . S
C2551 N2554 1.384 . S
C2552 H2543 0.929 . S
C2552 C2544 1.378 . S
C2552 C2547 1.350 . S
C2553 H2540 0.929 . S
C2553 C2545 1.433 . S
C2553 N2555 1.384 . S
N2554 C2550 1.427 . S
N2554 C2551 1.384 . S
N2555 C2547 1.427 . S
N2555 C2553 1.384 . S
H2556 C2562 0.930 . S
H2557 C2566 0.930 . S
H2558 C2571 0.929 . S
H2559 C2569 0.929 . S
H2560 C2564 0.929 . S
H2561 C2570 0.929 . S
C2562 H2556 0.930 . S
C2562 C2563 1.367 . S
C2562 C2570 1.378 . S
C2563 C2562 1.367 . S
C2563 C2571 1.433 . S
C2564 H2560 0.929 . S
C2564 C2566 1.378 . S
C2564 C2568 1.350 . S
C2565 C2568 1.463 . S
C2565 C2570 1.350 . S
C2565 N2573 1.427 . S
C2566 H2557 0.930 . S
C2566 C2564 1.378 . S
C2566 C2567 1.367 . S
C2567 C2566 1.367 . S
C2567 C2569 1.433 . S
C2568 C2564 1.350 . S
C2568 C2565 1.463 . S
C2568 N2572 1.427 . S
C2569 H2559 0.929 . S
C2569 C2567 1.433 . S
C2569 N2572 1.384 . S
C2570 H2561 0.929 . S
C2570 C2562 1.378 . S
C2570 C2565 1.350 . S
C2571 H2558 0.929 . S
C2571 C2563 1.433 . S
C2571 N2573 1.384 . S
N2572 C2568 1.427 . S
N2572 C2569 1.384 . S
N2573 C2565 1.427 . S
N2573 C2571 1.384 . S
H2574 C2580 0.930 . S
H2575 C2584 0.930 . S
H2576 C2589 0.929 . S
H2577 C2587 0.929 . S
H2578 C2582 0.929 . S
H2579 C2588 0.929 . S
C2580 H2574 0.930 . S
C2580 C2581 1.367 . S
C2580 C2588 1.378 . S
C2581 C2580 1.367 . S
C2581 C2589 1.433 . S
C2582 H2578 0.929 . S
C2582 C2584 1.378 . S
C2582 C2586 1.350 . S
C2583 C2586 1.463 . S
C2583 C2588 1.350 . S
C2583 N2591 1.427 . S
C2584 H2575 0.930 . S
C2584 C2582 1.378 . S
C2584 C2585 1.367 . S
C2585 C2584 1.367 . S
C2585 C2587 1.433 . S
C2586 C2582 1.350 . S
C2586 C2583 1.463 . S
C2586 N2590 1.427 . S
C2587 H2577 0.929 . S
C2587 C2585 1.433 . S
C2587 N2590 1.384 . S
C2588 H2579 0.929 . S
C2588 C2580 1.378 . S
C2588 C2583 1.350 . S
C2589 H2576 0.929 . S
C2589 C2581 1.433 . S
C2589 N2591 1.384 . S
N2590 C2586 1.427 . S
N2590 C2587 1.384 . S
N2591 C2583 1.427 . S
N2591 C2589 1.384 . S
H2592 C2598 0.930 . S
H2593 C2602 0.930 . S
H2594 C2607 0.929 1_556 S
H2595 C2605 0.929 . S
H2596 C2600 0.929 . S
H2597 C2606 0.929 . S
C2598 H2592 0.930 . S
C2598 C2599 1.367 . S
C2598 C2606 1.378 . S
C2599 C2598 1.367 . S
C2599 C2607 1.433 . S
C2600 H2596 0.929 . S
C2600 C2602 1.378 . S
C2600 C2604 1.350 . S
C2601 C2604 1.463 . S
C2601 C2606 1.350 . S
C2601 N2609 1.427 . S
C2602 H2593 0.930 . S
C2602 C2600 1.378 . S
C2602 C2603 1.367 . S
C2603 C2602 1.367 . S
C2603 C2605 1.433 . S
C2604 C2600 1.350 . S
C2604 C2601 1.463 . S
C2604 N2608 1.427 . S
C2605 H2595 0.929 . S
C2605 C2603 1.433 . S
C2605 N2608 1.384 . S
C2606 H2597 0.929 . S
C2606 C2598 1.378 . S
C2606 C2601 1.350 . S
C2607 H2594 0.929 1_554 S
C2607 C2599 1.433 . S
C2607 N2609 1.384 . S
N2608 C2604 1.427 . S
N2608 C2605 1.384 . S
N2609 C2601 1.427 . S
N2609 C2607 1.384 . S
H2610 C2616 0.930 . S
H2611 C2620 0.930 . S
H2612 C2625 0.929 . S
H2613 C2623 0.929 . S
H2614 C2618 0.929 . S
H2615 C2624 0.929 . S
C2616 H2610 0.930 . S
C2616 C2617 1.367 . S
C2616 C2624 1.378 . S
C2617 C2616 1.367 . S
C2617 C2625 1.433 . S
C2618 H2614 0.929 . S
C2618 C2620 1.378 . S
C2618 C2622 1.350 . S
C2619 C2622 1.463 . S
C2619 C2624 1.350 . S
C2619 N2627 1.427 . S
C2620 H2611 0.930 . S
C2620 C2618 1.378 . S
C2620 C2621 1.367 . S
C2621 C2620 1.367 . S
C2621 C2623 1.433 . S
C2622 C2618 1.350 . S
C2622 C2619 1.463 . S
C2622 N2626 1.427 . S
C2623 H2613 0.929 . S
C2623 C2621 1.433 . S
C2623 N2626 1.384 . S
C2624 H2615 0.929 . S
C2624 C2616 1.378 . S
C2624 C2619 1.350 . S
C2625 H2612 0.929 . S
C2625 C2617 1.433 . S
C2625 N2627 1.384 . S
N2626 C2622 1.427 . S
N2626 C2623 1.384 . S
N2627 C2619 1.427 . S
N2627 C2625 1.384 . S
H2628 C2634 0.930 . S
H2629 C2638 0.930 . S
H2630 C2643 0.929 1_556 S
H2631 C2641 0.929 . S
H2632 C2636 0.929 . S
H2633 C2642 0.929 . S
C2634 H2628 0.930 . S
C2634 C2635 1.367 . S
C2634 C2642 1.378 . S
C2635 C2634 1.367 . S
C2635 C2643 1.433 . S
C2636 H2632 0.929 . S
C2636 C2638 1.378 . S
C2636 C2640 1.350 . S
C2637 C2640 1.463 . S
C2637 C2642 1.350 . S
C2637 N2645 1.427 . S
C2638 H2629 0.930 . S
C2638 C2636 1.378 . S
C2638 C2639 1.367 . S
C2639 C2638 1.367 . S
C2639 C2641 1.433 . S
C2640 C2636 1.350 . S
C2640 C2637 1.463 . S
C2640 N2644 1.427 . S
C2641 H2631 0.929 . S
C2641 C2639 1.433 . S
C2641 N2644 1.384 . S
C2642 H2633 0.929 . S
C2642 C2634 1.378 . S
C2642 C2637 1.350 . S
C2643 H2630 0.929 1_554 S
C2643 C2635 1.433 . S
C2643 N2645 1.384 . S
N2644 C2640 1.427 . S
N2644 C2641 1.384 . S
N2645 C2637 1.427 . S
N2645 C2643 1.384 . S
H2646 C2652 0.930 . S
H2647 C2656 0.930 . S
H2648 C2661 0.929 . S
H2649 C2659 0.929 . S
H2650 C2654 0.929 . S
H2651 C2660 0.929 . S
C2652 H2646 0.930 . S
C2652 C2653 1.367 . S
C2652 C2660 1.378 . S
C2653 C2652 1.367 . S
C2653 C2661 1.433 . S
C2654 H2650 0.929 . S
C2654 C2656 1.378 . S
C2654 C2658 1.350 . S
C2655 C2658 1.463 . S
C2655 C2660 1.350 . S
C2655 N2663 1.427 . S
C2656 H2647 0.930 . S
C2656 C2654 1.378 . S
C2656 C2657 1.367 . S
C2657 C2656 1.367 . S
C2657 C2659 1.433 . S
C2658 C2654 1.350 . S
C2658 C2655 1.463 . S
C2658 N2662 1.427 . S
C2659 H2649 0.929 . S
C2659 C2657 1.433 . S
C2659 N2662 1.384 . S
C2660 H2651 0.929 . S
C2660 C2652 1.378 . S
C2660 C2655 1.350 . S
C2661 H2648 0.929 . S
C2661 C2653 1.433 . S
C2661 N2663 1.384 . S
N2662 C2658 1.427 . S
N2662 C2659 1.384 . S
N2663 C2655 1.427 . S
N2663 C2661 1.384 . S
H2664 C2670 0.930 . S
H2665 C2674 0.930 . S
H2666 C2679 0.929 . S
H2667 C2677 0.929 . S
H2668 C2672 0.929 . S
H2669 C2678 0.929 . S
C2670 H2664 0.930 . S
C2670 C2671 1.367 . S
C2670 C2678 1.378 . S
C2671 C2670 1.367 . S
C2671 C2679 1.433 . S
C2672 H2668 0.929 . S
C2672 C2674 1.378 . S
C2672 C2676 1.350 . S
C2673 C2676 1.463 . S
C2673 C2678 1.350 . S
C2673 N2681 1.427 . S
C2674 H2665 0.930 . S
C2674 C2672 1.378 . S
C2674 C2675 1.367 . S
C2675 C2674 1.367 . S
C2675 C2677 1.433 . S
C2676 C2672 1.350 . S
C2676 C2673 1.463 . S
C2676 N2680 1.427 . S
C2677 H2667 0.929 . S
C2677 C2675 1.433 . S
C2677 N2680 1.384 . S
C2678 H2669 0.929 . S
C2678 C2670 1.378 . S
C2678 C2673 1.350 . S
C2679 H2666 0.929 . S
C2679 C2671 1.433 . S
C2679 N2681 1.384 . S
N2680 C2676 1.427 . S
N2680 C2677 1.384 . S
N2681 C2673 1.427 . S
N2681 C2679 1.384 . S
H2682 C2688 0.930 . S
H2683 C2692 0.930 . S
H2684 C2697 0.929 . S
H2685 C2695 0.929 . S
H2686 C2690 0.929 . S
H2687 C2696 0.929 . S
C2688 H2682 0.930 . S
C2688 C2689 1.367 . S
C2688 C2696 1.378 . S
C2689 C2688 1.367 . S
C2689 C2697 1.433 . S
C2690 H2686 0.929 . S
C2690 C2692 1.378 . S
C2690 C2694 1.350 . S
C2691 C2694 1.463 . S
C2691 C2696 1.350 . S
C2691 N2699 1.427 . S
C2692 H2683 0.930 . S
C2692 C2690 1.378 . S
C2692 C2693 1.367 . S
C2693 C2692 1.367 . S
C2693 C2695 1.433 . S
C2694 C2690 1.350 . S
C2694 C2691 1.463 . S
C2694 N2698 1.427 . S
C2695 H2685 0.929 . S
C2695 C2693 1.433 . S
C2695 N2698 1.384 . S
C2696 H2687 0.929 . S
C2696 C2688 1.378 . S
C2696 C2691 1.350 . S
C2697 H2684 0.929 . S
C2697 C2689 1.433 . S
C2697 N2699 1.384 . S
N2698 C2694 1.427 . S
N2698 C2695 1.384 . S
N2699 C2691 1.427 . S
N2699 C2697 1.384 . S
H2700 C2706 0.930 . S
H2701 C2710 0.930 . S
H2702 C2715 0.929 . S
H2703 C2713 0.929 . S
H2704 C2708 0.929 1_455 S
H2705 C2714 0.929 1_655 S
C2706 H2700 0.930 . S
C2706 C2707 1.367 . S
C2706 C2714 1.378 . S
C2707 C2706 1.367 . S
C2707 C2715 1.433 . S
C2708 H2704 0.929 1_655 S
C2708 C2710 1.378 . S
C2708 C2712 1.350 . S
C2709 C2712 1.463 1_455 S
C2709 C2714 1.350 . S
C2709 N2717 1.427 . S
C2710 H2701 0.930 . S
C2710 C2708 1.378 . S
C2710 C2711 1.367 . S
C2711 C2710 1.367 . S
C2711 C2713 1.433 . S
C2712 C2708 1.350 . S
C2712 C2709 1.463 1_655 S
C2712 N2716 1.427 . S
C2713 H2703 0.929 . S
C2713 C2711 1.433 . S
C2713 N2716 1.384 . S
C2714 H2705 0.929 1_455 S
C2714 C2706 1.378 . S
C2714 C2709 1.350 . S
C2715 H2702 0.929 . S
C2715 C2707 1.433 . S
C2715 N2717 1.384 . S
N2716 C2712 1.427 . S
N2716 C2713 1.384 . S
N2717 C2709 1.427 . S
N2717 C2715 1.384 . S
H2718 C2724 0.930 . S
H2719 C2728 0.930 . S
H2720 C2733 0.929 . S
H2721 C2731 0.929 . S
H2722 C2726 0.929 . S
H2723 C2732 0.929 . S
C2724 H2718 0.930 . S
C2724 C2725 1.367 . S
C2724 C2732 1.378 . S
C2725 C2724 1.367 . S
C2725 C2733 1.433 . S
C2726 H2722 0.929 . S
C2726 C2728 1.378 . S
C2726 C2730 1.350 . S
C2727 C2730 1.463 . S
C2727 C2732 1.350 . S
C2727 N2735 1.427 . S
C2728 H2719 0.930 . S
C2728 C2726 1.378 . S
C2728 C2729 1.367 . S
C2729 C2728 1.367 . S
C2729 C2731 1.433 . S
C2730 C2726 1.350 . S
C2730 C2727 1.463 . S
C2730 N2734 1.427 . S
C2731 H2721 0.929 . S
C2731 C2729 1.433 . S
C2731 N2734 1.384 . S
C2732 H2723 0.929 . S
C2732 C2724 1.378 . S
C2732 C2727 1.350 . S
C2733 H2720 0.929 . S
C2733 C2725 1.433 . S
C2733 N2735 1.384 . S
N2734 C2730 1.427 . S
N2734 C2731 1.384 . S
N2735 C2727 1.427 . S
N2735 C2733 1.384 . S
H2736 C2742 0.930 . S
H2737 C2746 0.930 . S
H2738 C2751 0.929 . S
H2739 C2749 0.929 . S
H2740 C2744 0.929 . S
H2741 C2750 0.929 . S
C2742 H2736 0.930 . S
C2742 C2743 1.367 . S
C2742 C2750 1.378 . S
C2743 C2742 1.367 . S
C2743 C2751 1.433 . S
C2744 H2740 0.929 . S
C2744 C2746 1.378 . S
C2744 C2748 1.350 . S
C2745 C2748 1.463 1_565 S
C2745 C2750 1.350 . S
C2745 N2753 1.427 . S
C2746 H2737 0.930 . S
C2746 C2744 1.378 . S
C2746 C2747 1.367 . S
C2747 C2746 1.367 . S
C2747 C2749 1.433 . S
C2748 C2744 1.350 . S
C2748 C2745 1.463 1_545 S
C2748 N2752 1.427 . S
C2749 H2739 0.929 . S
C2749 C2747 1.433 . S
C2749 N2752 1.384 . S
C2750 H2741 0.929 . S
C2750 C2742 1.378 . S
C2750 C2745 1.350 . S
C2751 H2738 0.929 . S
C2751 C2743 1.433 . S
C2751 N2753 1.384 . S
N2752 C2748 1.427 . S
N2752 C2749 1.384 . S
N2753 C2745 1.427 . S
N2753 C2751 1.384 . S
H2754 C2760 0.930 . S
H2755 C2764 0.930 . S
H2756 C2769 0.929 . S
H2757 C2767 0.929 . S
H2758 C2762 0.929 . S
H2759 C2768 0.929 . S
C2760 H2754 0.930 . S
C2760 C2761 1.367 . S
C2760 C2768 1.378 . S
C2761 C2760 1.367 . S
C2761 C2769 1.433 . S
C2762 H2758 0.929 . S
C2762 C2764 1.378 . S
C2762 C2766 1.350 . S
C2763 C2766 1.463 1_565 S
C2763 C2768 1.350 . S
C2763 N2771 1.427 . S
C2764 H2755 0.930 . S
C2764 C2762 1.378 . S
C2764 C2765 1.367 . S
C2765 C2764 1.367 . S
C2765 C2767 1.433 . S
C2766 C2762 1.350 . S
C2766 C2763 1.463 1_545 S
C2766 N2770 1.427 . S
C2767 H2757 0.929 . S
C2767 C2765 1.433 . S
C2767 N2770 1.384 . S
C2768 H2759 0.929 . S
C2768 C2760 1.378 . S
C2768 C2763 1.350 . S
C2769 H2756 0.929 . S
C2769 C2761 1.433 . S
C2769 N2771 1.384 . S
N2770 C2766 1.427 . S
N2770 C2767 1.384 . S
N2771 C2763 1.427 . S
N2771 C2769 1.384 . S
H2772 C2778 0.930 . S
H2773 C2782 0.930 . S
H2774 C2787 0.929 . S
H2775 C2785 0.929 . S
H2776 C2780 0.929 1_455 S
H2777 C2786 0.929 1_655 S
C2778 H2772 0.930 . S
C2778 C2779 1.367 . S
C2778 C2786 1.378 . S
C2779 C2778 1.367 . S
C2779 C2787 1.433 . S
C2780 H2776 0.929 1_655 S
C2780 C2782 1.378 . S
C2780 C2784 1.350 . S
C2781 C2784 1.463 1_455 S
C2781 C2786 1.350 . S
C2781 N2789 1.427 . S
C2782 H2773 0.930 . S
C2782 C2780 1.378 . S
C2782 C2783 1.367 . S
C2783 C2782 1.367 . S
C2783 C2785 1.433 . S
C2784 C2780 1.350 . S
C2784 C2781 1.463 1_655 S
C2784 N2788 1.427 . S
C2785 H2775 0.929 . S
C2785 C2783 1.433 . S
C2785 N2788 1.384 . S
C2786 H2777 0.929 1_455 S
C2786 C2778 1.378 . S
C2786 C2781 1.350 . S
C2787 H2774 0.929 . S
C2787 C2779 1.433 . S
C2787 N2789 1.384 . S
N2788 C2784 1.427 . S
N2788 C2785 1.384 . S
N2789 C2781 1.427 . S
N2789 C2787 1.384 . S
H2790 C2796 0.930 . S
H2791 C2800 0.930 . S
H2792 C2805 0.929 . S
H2793 C2803 0.929 . S
H2794 C2798 0.929 . S
H2795 C2804 0.929 . S
C2796 H2790 0.930 . S
C2796 C2797 1.367 . S
C2796 C2804 1.378 . S
C2797 C2796 1.367 . S
C2797 C2805 1.433 . S
C2798 H2794 0.929 . S
C2798 C2800 1.378 . S
C2798 C2802 1.350 . S
C2799 C2802 1.463 . S
C2799 C2804 1.350 . S
C2799 N2807 1.427 . S
C2800 H2791 0.930 . S
C2800 C2798 1.378 . S
C2800 C2801 1.367 . S
C2801 C2800 1.367 . S
C2801 C2803 1.433 . S
C2802 C2798 1.350 . S
C2802 C2799 1.463 . S
C2802 N2806 1.427 . S
C2803 H2793 0.929 . S
C2803 C2801 1.433 . S
C2803 N2806 1.384 . S
C2804 H2795 0.929 . S
C2804 C2796 1.378 . S
C2804 C2799 1.350 . S
C2805 H2792 0.929 . S
C2805 C2797 1.433 . S
C2805 N2807 1.384 . S
N2806 C2802 1.427 . S
N2806 C2803 1.384 . S
N2807 C2799 1.427 . S
N2807 C2805 1.384 . S
C1195 N608 0.851 . S
C1199 N14 0.851 . S
C1213 N47 0.850 . S
C1217 N641 0.850 . S
C1231 N674 0.857 . S
C1235 N80 0.857 . S
C1249 N1103 0.860 . S
C1253 N113 0.860 . S
C1267 N1136 0.843 . S
C1271 N146 0.843 . S
C1285 N179 0.851 . S
C1289 N1169 0.851 . S
C1303 N212 0.861 . S
C1307 N806 0.861 . S
C1321 N839 0.860 . S
C1325 N245 0.860 . S
C1339 N278 0.860 . S
C1343 N872 0.860 . S
C1357 N509 0.843 . S
C1361 N311 0.843 . S
C1375 N344 0.852 . S
C1379 N542 0.852 . S
C1393 N575 0.854 . S
C1397 N377 0.854 . S
C1411 N410 0.853 . S
C1415 N1004 0.853 . S
C1429 N443 0.861 . S
C1433 N1037 0.861 . S
C1447 N1070 0.853 . S
C1451 N476 0.853 . S
C1465 N905 0.852 . S
C1469 N707 0.852 . S
C1483 N740 0.855 . S
C1487 N938 0.855 . S
C1501 N971 0.845 . S
C1505 N773 0.845 . S
C1519 C17 1.095 . S
C1523 N236 1.102 . S
C1537 C50 1.101 . S
C1541 N269 1.093 1_554 S
C1555 C83 1.096 . S
C1559 N203 1.101 1_554 S
C1573 N368 1.100 . S
C1577 C116 1.097 . S
C1591 C149 1.100 . S
C1595 N302 1.095 . S
C1609 C182 1.101 . S
C1613 N335 1.093 . S
C1627 C215 1.097 . S
C1631 N38 1.099 . S
C1645 C248 1.095 . S
C1649 N71 1.103 . S
C1663 N5 1.101 1_556 S
C1667 C281 1.096 . S
C1681 C314 1.095 . S
C1685 N170 1.102 . S
C1699 C347 1.099 . S
C1703 N104 1.096 . S
C1717 C380 1.102 . S
C1721 N137 1.094 . S
C1735 N632 1.100 . S
C1739 C413 1.097 . S
C1753 C446 1.104 . S
C1757 N665 1.091 . S
C1771 C479 1.103 . S
C1775 N599 1.092 . S
C1789 C512 1.101 . S
C1793 N764 1.093 . S
C1807 C545 1.102 . S
C1811 N698 1.092 . S
C1825 N731 1.095 . S
C1829 C578 1.099 . S
C1843 N434 1.098 . S
C1847 C611 1.099 . S
C1861 C644 1.098 . S
C1865 N467 1.096 . S
C1879 N401 1.090 . S
C1883 C677 1.105 . S
C1897 C710 1.101 . S
C1901 N566 1.096 . S
C1915 N500 1.102 . S
C1919 C743 1.095 . S
C1933 N533 1.099 . S
C1937 C776 1.096 . S
C1951 N1028 1.094 . S
C1955 C809 1.102 . S
C1969 N1061 1.094 . S
C1973 C842 1.102 . S
C1987 C875 1.099 . S
C1991 N995 1.098 . S
C2005 N1160 1.094 . S
C2009 C908 1.101 . S
C2023 N1094 1.094 . S
C2027 C941 1.102 . S
C2041 C974 1.097 . S
C2045 N1127 1.097 . S
C2059 N830 1.094 . S
C2063 C1007 1.102 . S
C2077 C1040 1.097 . S
C2081 N863 1.099 . S
C2095 C1073 1.099 . S
C2099 N797 1.097 . S
C2113 C1106 1.102 . S
C2117 N962 1.092 . S
C2131 N896 1.093 . S
C2135 C1139 1.101 . S
C2149 N929 1.090 . S
C2153 C1172 1.105 . S
C2167 C28 1.595 . S
C2171 C127 1.595 . S
C2185 C61 1.594 . S
C2189 C160 1.594 . S
C2203 C193 1.594 . S
C2207 C94 1.595 . S
C2221 C226 1.595 . S
C2225 C325 1.595 . S
C2239 C358 1.594 . S
C2243 C259 1.593 . S
C2257 C292 1.594 . S
C2261 C391 1.594 . S
C2275 C424 1.595 . S
C2279 C523 1.595 . S
C2293 C457 1.595 . S
C2297 C556 1.594 . S
C2311 C589 1.595 . S
C2315 C490 1.595 . S
C2329 C622 1.595 . S
C2333 C721 1.577 1_554 S
C2347 C655 1.594 . S
C2351 C754 1.571 1_554 S
C2365 C787 1.580 1_554 S
C2369 C688 1.595 . S
C2383 C919 1.579 1_556 S
C2387 C820 1.595 . S
C2401 C952 1.588 1_556 S
C2405 C853 1.595 . S
C2419 C886 1.594 . S
C2423 C985 1.584 1_556 S
C2437 C1018 1.595 . S
C2441 C1117 1.594 . S
C2455 C1150 1.594 . S
C2459 C1051 1.594 . S
C2473 C1183 1.594 . S
C2477 C1084 1.594 . S
C2491 C8 1.987 1_556 S
C2495 C536 1.981 . S
C2509 C41 1.986 1_556 S
C2513 C569 1.982 . S
C2527 C503 1.983 . S
C2531 C74 1.985 1_556 S
C2545 C107 1.983 . S
C2549 C866 1.985 . S
C2563 C800 1.981 . S
C2567 C140 1.987 . S
C2581 C173 1.986 . S
C2585 C833 1.982 . S
C2599 C206 1.985 1_554 S
C2603 C1130 1.983 . S
C2617 C1163 1.981 . S
C2621 C239 1.987 1_554 S
C2635 C272 1.983 1_554 S
C2639 C1097 1.985 . S
C2653 C668 1.987 . S
C2657 C305 1.981 . S
C2671 C602 1.987 . S
C2675 C338 1.981 . S
C2689 C635 1.981 . S
C2693 C371 1.987 . S
C2707 C932 1.982 . S
C2711 C404 1.986 . S
C2725 C965 1.981 . S
C2729 C437 1.987 . S
C2743 C899 1.982 . S
C2747 C470 1.986 . S
C2761 C1064 1.981 . S
C2765 C701 1.987 . S
C2779 C998 1.983 . S
C2783 C734 1.985 . S
C2797 C1031 1.987 . S
C2801 C767 1.981 . S
