# Generated by pormake.
# Topology uoy, (4)-cn, num edge types: 1
# Building blocks:
#     Node 0, Type 0, BuildingBlock: NAHDIM_clean_sbu_0, # of connection points: 4
#     Node 1, Type 0, BuildingBlock: NAHDIM_clean_sbu_0, # of connection points: 4
#     Node 2, Type 0, BuildingBlock: NAHDIM_clean_sbu_0, # of connection points: 4
#     Node 3, Type 0, BuildingBlock: NAHDIM_clean_sbu_0, # of connection points: 4
#     Node 4, Type 0, BuildingBlock: NAHDIM_clean_sbu_0, # of connection points: 4
#     Node 5, Type 0, BuildingBlock: NAHDIM_clean_sbu_0, # of connection points: 4
#     Node 6, Type 0, BuildingBlock: NAHDIM_clean_sbu_0, # of connection points: 4
#     Node 7, Type 0, BuildingBlock: NAHDIM_clean_sbu_0, # of connection points: 4
#     Node 8, Type 0, BuildingBlock: NAHDIM_clean_sbu_0, # of connection points: 4
#     Node 9, Type 0, BuildingBlock: NAHDIM_clean_sbu_0, # of connection points: 4
#     Node 10, Type 0, BuildingBlock: NAHDIM_clean_sbu_0, # of connection points: 4
#     Node 11, Type 0, BuildingBlock: NAHDIM_clean_sbu_0, # of connection points: 4
#     Node 12, Type 0, BuildingBlock: NAHDIM_clean_sbu_0, # of connection points: 4
#     Node 13, Type 0, BuildingBlock: NAHDIM_clean_sbu_0, # of connection points: 4
#     Node 14, Type 0, BuildingBlock: NAHDIM_clean_sbu_0, # of connection points: 4
#     Node 15, Type 0, BuildingBlock: NAHDIM_clean_sbu_0, # of connection points: 4
#     Edge 16, Type (0, 0), BuildingBlock: AJUNOK_clean_linker_0, # of connection points: 2
#     Edge 17, Type (0, 0), BuildingBlock: AJUNOK_clean_linker_0, # of connection points: 2
#     Edge 18, Type (0, 0), BuildingBlock: AJUNOK_clean_linker_0, # of connection points: 2
#     Edge 19, Type (0, 0), BuildingBlock: AJUNOK_clean_linker_0, # of connection points: 2
#     Edge 20, Type (0, 0), BuildingBlock: AJUNOK_clean_linker_0, # of connection points: 2
#     Edge 21, Type (0, 0), BuildingBlock: AJUNOK_clean_linker_0, # of connection points: 2
#     Edge 22, Type (0, 0), BuildingBlock: AJUNOK_clean_linker_0, # of connection points: 2
#     Edge 23, Type (0, 0), BuildingBlock: AJUNOK_clean_linker_0, # of connection points: 2
#     Edge 24, Type (0, 0), BuildingBlock: AJUNOK_clean_linker_0, # of connection points: 2
#     Edge 25, Type (0, 0), BuildingBlock: AJUNOK_clean_linker_0, # of connection points: 2
#     Edge 26, Type (0, 0), BuildingBlock: AJUNOK_clean_linker_0, # of connection points: 2
#     Edge 27, Type (0, 0), BuildingBlock: AJUNOK_clean_linker_0, # of connection points: 2
#     Edge 28, Type (0, 0), BuildingBlock: AJUNOK_clean_linker_0, # of connection points: 2
#     Edge 29, Type (0, 0), BuildingBlock: AJUNOK_clean_linker_0, # of connection points: 2
#     Edge 30, Type (0, 0), BuildingBlock: AJUNOK_clean_linker_0, # of connection points: 2
#     Edge 31, Type (0, 0), BuildingBlock: AJUNOK_clean_linker_0, # of connection points: 2
#     Edge 32, Type (0, 0), BuildingBlock: AJUNOK_clean_linker_0, # of connection points: 2
#     Edge 33, Type (0, 0), BuildingBlock: AJUNOK_clean_linker_0, # of connection points: 2
#     Edge 34, Type (0, 0), BuildingBlock: AJUNOK_clean_linker_0, # of connection points: 2
#     Edge 35, Type (0, 0), BuildingBlock: AJUNOK_clean_linker_0, # of connection points: 2
#     Edge 36, Type (0, 0), BuildingBlock: AJUNOK_clean_linker_0, # of connection points: 2
#     Edge 37, Type (0, 0), BuildingBlock: AJUNOK_clean_linker_0, # of connection points: 2
#     Edge 38, Type (0, 0), BuildingBlock: AJUNOK_clean_linker_0, # of connection points: 2
#     Edge 39, Type (0, 0), BuildingBlock: AJUNOK_clean_linker_0, # of connection points: 2
#     Edge 40, Type (0, 0), BuildingBlock: AJUNOK_clean_linker_0, # of connection points: 2
#     Edge 41, Type (0, 0), BuildingBlock: AJUNOK_clean_linker_0, # of connection points: 2
#     Edge 42, Type (0, 0), BuildingBlock: AJUNOK_clean_linker_0, # of connection points: 2
#     Edge 43, Type (0, 0), BuildingBlock: AJUNOK_clean_linker_0, # of connection points: 2
#     Edge 44, Type (0, 0), BuildingBlock: AJUNOK_clean_linker_0, # of connection points: 2
#     Edge 45, Type (0, 0), BuildingBlock: AJUNOK_clean_linker_0, # of connection points: 2
#     Edge 46, Type (0, 0), BuildingBlock: AJUNOK_clean_linker_0, # of connection points: 2
#     Edge 47, Type (0, 0), BuildingBlock: AJUNOK_clean_linker_0, # of connection points: 2
# Relax obj value: 0.103
# Max RMSD: 0.145
# Mean RMSD: 0.145
data_MOF--net-uoy--node1-NAHDIM_clean_sbu_0--edge1-AJUNOK_clean_linker_0
_symmetry_space_group_name_H-M    P1
_symmetry_Int_Tables_number       1
_symmetry_cell_setting            triclinic
loop_
_symmetry_equiv_pos_as_xyz
'x, y, z'
_cell_length_a     21.137541
_cell_length_b     21.129448
_cell_length_c     74.641991
_cell_angle_alpha  90.012099
_cell_angle_beta   89.956031
_cell_angle_gamma 90.045565
loop_
_atom_site_label
_atom_site_type_symbol
_atom_site_fract_x
_atom_site_fract_y
_atom_site_fract_z
_atom_type_partial_charge
C0 C 0.13688 0.05008 0.17459 0.0
O1 O 0.13556 0.10638 0.16715 0.0
O2 O 0.2762 0.14224 0.19813 0.0
Zn3 Zn 0.26815 0.08144 0.17754 0.0
O4 O 0.26828 0.12597 0.15383 0.0
C5 C 0.39821 0.05859 0.17813 0.0
O6 O 0.39589 0.12065 0.17734 0.0
O7 O 0.18946 0.02849 0.18013 0.0
C8 C 0.25148 0.18309 0.15167 0.0
O9 O 0.23164 0.21567 0.16558 0.0
C10 C 0.23269 0.16017 0.20873 0.0
O11 O 0.17438 0.14108 0.20595 0.0
O12 O 0.34645 0.02784 0.17825 0.0
C13 C 0.91973 0.60816 0.42779 0.0
O14 O 0.85783 0.61071 0.4292 0.0
O15 O 0.8604 0.73372 0.45567 0.0
Zn16 Zn 0.898 0.73742 0.43095 0.0
O17 O 0.83299 0.73526 0.41136 0.0
C18 C 0.93242 0.8671 0.4363 0.0
O19 O 0.88033 0.86588 0.44591 0.0
O20 O 0.95084 0.65965 0.42811 0.0
C21 C 0.79681 0.78067 0.40704 0.0
O22 O 0.79802 0.83325 0.41641 0.0
C23 C 0.80239 0.73868 0.45987 0.0
O24 O 0.75984 0.74643 0.44726 0.0
O25 O 0.9506 0.81662 0.42858 0.0
C26 C 0.35427 0.42311 0.67225 0.0
O27 O 0.35578 0.36369 0.66711 0.0
O28 O 0.21936 0.3341 0.69771 0.0
Zn29 Zn 0.22328 0.39277 0.67653 0.0
O30 O 0.21851 0.34529 0.65338 0.0
C31 C 0.09339 0.41402 0.67713 0.0
O32 O 0.09664 0.35218 0.67554 0.0
O33 O 0.30174 0.44692 0.67706 0.0
C34 C 0.23822 0.28915 0.65118 0.0
O35 O 0.26515 0.2593 0.66459 0.0
C36 C 0.26169 0.32784 0.70966 0.0
O37 O 0.31548 0.35832 0.70789 0.0
O38 O 0.14467 0.44544 0.67786 0.0
C39 C 0.55942 0.88873 0.92715 0.0
O40 O 0.62147 0.88812 0.92793 0.0
O41 O 0.62336 0.74855 0.95151 0.0
Zn42 Zn 0.5825 0.75635 0.92725 0.0
O43 O 0.64686 0.76041 0.90738 0.0
C44 C 0.55074 0.62534 0.9287 0.0
O45 O 0.60699 0.62412 0.93615 0.0
O46 O 0.53013 0.83615 0.92661 0.0
C47 C 0.69745 0.72797 0.90704 0.0
O48 O 0.71015 0.68986 0.92045 0.0
C49 C 0.6773 0.76873 0.95642 0.0
O50 O 0.71266 0.80029 0.94503 0.0
O51 O 0.52845 0.6783 0.92359 0.0
C52 C 0.10379 0.4417 0.05668 0.0
O53 O 0.10125 0.37975 0.05531 0.0
O54 O 0.24306 0.36756 0.03474 0.0
Zn55 Zn 0.23507 0.4132 0.05829 0.0
O56 O 0.22755 0.35505 0.07946 0.0
C57 C 0.36697 0.4426 0.05705 0.0
O58 O 0.36833 0.38552 0.05009 0.0
O59 O 0.15762 0.46822 0.05787 0.0
C60 C 0.26202 0.30674 0.08207 0.0
O61 O 0.30392 0.2907 0.0699 0.0
C62 C 0.22718 0.31131 0.03071 0.0
O63 O 0.20015 0.27522 0.04282 0.0
O64 O 0.31388 0.46599 0.0616 0.0
C65 C 0.5582 0.60428 0.31298 0.0
O66 O 0.61999 0.6031 0.31103 0.0
O67 O 0.62785 0.72918 0.28677 0.0
Zn68 Zn 0.5843 0.73466 0.3106 0.0
O69 O 0.64588 0.73834 0.33101 0.0
C70 C 0.5591 0.86704 0.31066 0.0
O71 O 0.6212 0.8686 0.31135 0.0
O72 O 0.53036 0.6575 0.31339 0.0
C73 C 0.62815 0.76229 0.3458 0.0
O74 O 0.57041 0.78474 0.34722 0.0
C75 C 0.6846 0.74603 0.28385 0.0
O76 O 0.7192 0.7663 0.29729 0.0
O77 O 0.5314 0.81363 0.31043 0.0
C78 C 0.39924 0.06158 0.55588 0.0
O79 O 0.3953 0.12357 0.55509 0.0
O80 O 0.27272 0.12776 0.53072 0.0
Zn81 Zn 0.26934 0.08107 0.55411 0.0
O82 O 0.26955 0.13793 0.57569 0.0
C83 C 0.14007 0.04769 0.54763 0.0
O84 O 0.14067 0.10359 0.53994 0.0
O85 O 0.34839 0.0294 0.55559 0.0
C86 C 0.22132 0.16671 0.58173 0.0
O87 O 0.16742 0.16282 0.57309 0.0
C88 C 0.25741 0.18491 0.52781 0.0
O89 O 0.23773 0.22035 0.54115 0.0
O90 O 0.19079 0.02647 0.55456 0.0
C91 C 0.91449 0.88446 0.808 0.0
O92 O 0.85239 0.88725 0.80821 0.0
O93 O 0.83206 0.75772 0.78424 0.0
Zn94 Zn 0.88516 0.75346 0.80652 0.0
O95 O 0.83083 0.75231 0.82855 0.0
C96 C 0.91543 0.6205 0.81073 0.0
O97 O 0.85847 0.61886 0.81776 0.0
O98 O 0.94088 0.83048 0.80732 0.0
C99 C 0.85686 0.74077 0.84353 0.0
O100 O 0.91817 0.73077 0.84402 0.0
C101 C 0.78433 0.7219 0.78227 0.0
O102 O 0.7679 0.68395 0.79541 0.0
O103 O 0.93741 0.67326 0.80533 0.0
C104 C 0.59225 0.56136 0.6769 0.0
O105 O 0.59483 0.62335 0.67796 0.0
O106 O 0.72548 0.62019 0.70415 0.0
Zn107 Zn 0.72452 0.57885 0.67987 0.0
O108 O 0.73409 0.63748 0.65885 0.0
C109 C 0.85283 0.54746 0.68195 0.0
O110 O 0.8539 0.60823 0.68566 0.0
O111 O 0.64363 0.53018 0.67725 0.0
C112 C 0.75802 0.6926 0.65861 0.0
O113 O 0.77761 0.71896 0.67353 0.0
C114 C 0.70553 0.67352 0.7096 0.0
O115 O 0.67877 0.71319 0.6984 0.0
O116 O 0.79975 0.52112 0.679 0.0
C117 C 0.41608 0.12463 0.92447 0.0
O118 O 0.35685 0.12264 0.91916 0.0
O119 O 0.33383 0.26711 0.95017 0.0
Zn120 Zn 0.38639 0.25675 0.9279 0.0
O121 O 0.33122 0.25454 0.90602 0.0
C122 C 0.41174 0.38731 0.92409 0.0
O123 O 0.34992 0.38629 0.92232 0.0
O124 O 0.43964 0.17762 0.92905 0.0
C125 C 0.35607 0.26874 0.89105 0.0
O126 O 0.41674 0.28208 0.89044 0.0
C127 C 0.31725 0.22472 0.96131 0.0
O128 O 0.3326 0.16549 0.95824 0.0
O129 O 0.44064 0.3352 0.92655 0.0
C130 C 0.89886 0.91407 0.18315 0.0
O131 O 0.89673 0.85356 0.18715 0.0
O132 O 0.76946 0.84684 0.20623 0.0
Zn133 Zn 0.76757 0.89246 0.18268 0.0
O134 O 0.76212 0.83493 0.16134 0.0
C135 C 0.63709 0.92106 0.18078 0.0
O136 O 0.63551 0.85909 0.17941 0.0
O137 O 0.84721 0.94334 0.18051 0.0
C138 C 0.75519 0.86419 0.14659 0.0
O139 O 0.75365 0.92634 0.14684 0.0
C140 C 0.7444 0.79346 0.20949 0.0
O141 O 0.71628 0.76245 0.19648 0.0
O142 O 0.69045 0.94825 0.18245 0.0
C143 C 0.05553 0.36866 0.42627 0.0
O144 O 0.1177 0.36974 0.42643 0.0
O145 O 0.13149 0.2475 0.45239 0.0
Zn146 Zn 0.08379 0.24003 0.42932 0.0
O147 O 0.14209 0.23871 0.40817 0.0
C148 C 0.06504 0.10738 0.4286 0.0
O149 O 0.12657 0.11011 0.42624 0.0
O150 O 0.02755 0.31555 0.42724 0.0
C151 C 0.12058 0.22128 0.39308 0.0
O152 O 0.06107 0.20377 0.39188 0.0
C153 C 0.18913 0.23216 0.45435 0.0
O154 O 0.22142 0.21231 0.4404 0.0
O155 O 0.0343 0.15879 0.43018 0.0
C156 C 0.6407 0.9298 0.56012 0.0
O157 O 0.63999 0.8676 0.56047 0.0
O158 O 0.75753 0.8462 0.5381 0.0
Zn159 Zn 0.76762 0.89871 0.56042 0.0
O160 O 0.76206 0.85075 0.58368 0.0
C161 C 0.89956 0.91564 0.55366 0.0
O162 O 0.89414 0.85589 0.54909 0.0
O163 O 0.69385 0.95798 0.56021 0.0
C164 C 0.8003 0.80925 0.58947 0.0
O165 O 0.8484 0.79133 0.57958 0.0
C166 C 0.76788 0.78803 0.53505 0.0
O167 O 0.78889 0.75131 0.54791 0.0
O168 O 0.8507 0.94552 0.5589 0.0
C169 C 0.05774 0.12076 0.80814 0.0
O170 O 0.11982 0.12169 0.80746 0.0
O171 O 0.1252 0.25351 0.78312 0.0
Zn172 Zn 0.08262 0.25149 0.80723 0.0
O173 O 0.14594 0.24733 0.82731 0.0
C174 C 0.05281 0.38242 0.80262 0.0
O175 O 0.10558 0.3791 0.79339 0.0
O176 O 0.02831 0.17325 0.80832 0.0
C177 C 0.19313 0.28438 0.82842 0.0
O178 O 0.2019 0.3272 0.81592 0.0
C179 C 0.18167 0.23787 0.77929 0.0
O180 O 0.21886 0.21537 0.79184 0.0
O181 O 0.03148 0.3322 0.8099 0.0
C182 C 0.86684 0.58218 0.06114 0.0
O183 O 0.86503 0.64108 0.06675 0.0
O184 O 0.72079 0.6562 0.03633 0.0
Zn185 Zn 0.73464 0.60583 0.05888 0.0
O186 O 0.73969 0.66163 0.08068 0.0
C187 C 0.60542 0.57989 0.06286 0.0
O188 O 0.6065 0.64201 0.0635 0.0
O189 O 0.81518 0.55505 0.05693 0.0
C190 C 0.73188 0.72118 0.08013 0.0
O191 O 0.71961 0.74819 0.06468 0.0
C192 C 0.76244 0.68039 0.02612 0.0
O193 O 0.82245 0.67528 0.03039 0.0
O194 O 0.6576 0.55042 0.06125 0.0
C195 C 0.41949 0.366 0.31251 0.0
O196 O 0.35739 0.36431 0.31296 0.0
O197 O 0.35777 0.23445 0.28411 0.0
Zn198 Zn 0.39593 0.23625 0.30873 0.0
O199 O 0.33154 0.2397 0.32852 0.0
C200 C 0.42209 0.10564 0.30609 0.0
O201 O 0.36602 0.10843 0.29859 0.0
O202 O 0.44951 0.31429 0.31068 0.0
C203 C 0.28091 0.20766 0.32975 0.0
O204 O 0.26546 0.16865 0.31677 0.0
C205 C 0.3032 0.25165 0.27894 0.0
O206 O 0.26246 0.27421 0.29059 0.0
O207 O 0.44745 0.15663 0.31164 0.0
C208 C 0.22579 0.30018 0.11388 0.0
C209 C 0.25806 0.27248 0.09935 0.0
C210 C 0.22393 0.2709 0.13069 0.0
C211 C 0.25371 0.21237 0.13364 0.0
H212 H 0.20255 0.34556 0.1124 0.0
H213 H 0.19888 0.29453 0.14144 0.0
S214 S 0.34267 0.1186 0.09986 0.0
N215 N 0.31924 0.18224 0.0889 0.0
N216 N 0.31554 0.12691 0.12046 0.0
C217 C 0.28528 0.18348 0.11915 0.0
C218 C 0.28753 0.21359 0.10203 0.0
C219 C 0.70155 0.81449 0.38972 0.0
C220 C 0.75442 0.77458 0.39137 0.0
C221 C 0.66075 0.80977 0.375 0.0
C222 C 0.67188 0.76571 0.36122 0.0
H223 H 0.69119 0.84934 0.39996 0.0
H224 H 0.62056 0.84146 0.37434 0.0
S225 S 0.80416 0.65054 0.35902 0.0
N226 N 0.8158 0.6894 0.37792 0.0
N227 N 0.73957 0.68122 0.35016 0.0
C228 C 0.72478 0.72572 0.36263 0.0
C229 C 0.76587 0.72993 0.37774 0.0
C230 C 0.2721 0.18253 0.61155 0.0
C231 C 0.22508 0.1998 0.59914 0.0
C232 C 0.27543 0.21105 0.62846 0.0
C233 C 0.23263 0.25873 0.63344 0.0
H234 H 0.30611 0.14591 0.60833 0.0
H235 H 0.31234 0.19612 0.63758 0.0
S236 S 0.10102 0.32169 0.60578 0.0
N237 N 0.13477 0.26762 0.59299 0.0
N238 N 0.14164 0.32207 0.62466 0.0
C239 C 0.18567 0.2769 0.62111 0.0
C240 C 0.18171 0.24718 0.60399 0.0
C241 C 0.75658 0.76284 0.86008 0.0
C242 C 0.81822 0.73781 0.86007 0.0
C243 C 0.71843 0.76014 0.87539 0.0
C244 C 0.74003 0.73167 0.89129 0.0
H245 H 0.73749 0.78493 0.84816 0.0
H246 H 0.67123 0.77991 0.87463 0.0
S247 S 0.89807 0.65929 0.89839 0.0
N248 N 0.89948 0.68399 0.87742 0.0
N249 N 0.82757 0.67857 0.90618 0.0
C250 C 0.80171 0.70662 0.89153 0.0
C251 C 0.84084 0.70984 0.87594 0.0
C252 C 0.8005 0.71602 0.60984 0.0
C253 C 0.7901 0.78099 0.60727 0.0
C254 C 0.78914 0.68773 0.6265 0.0
C255 C 0.76889 0.72388 0.64126 0.0
H256 H 0.81631 0.68662 0.59881 0.0
H257 H 0.79709 0.63732 0.6279 0.0
S258 S 0.73697 0.89621 0.64162 0.0
N259 N 0.75878 0.8809 0.6208 0.0
N260 N 0.73993 0.82793 0.65237 0.0
C261 C 0.75958 0.78907 0.63897 0.0
C262 C 0.76945 0.8176 0.62188 0.0
C263 C 0.25646 0.24361 0.87452 0.0
C264 C 0.31663 0.27206 0.87468 0.0
C265 C 0.21739 0.24714 0.85942 0.0
C266 C 0.23656 0.27996 0.84393 0.0
H267 H 0.23924 0.21824 0.88616 0.0
H268 H 0.17135 0.22466 0.86003 0.0
S269 S 0.39015 0.36209 0.83733 0.0
N270 N 0.394 0.33351 0.85788 0.0
N271 N 0.32032 0.34052 0.82954 0.0
C272 C 0.29679 0.30835 0.84384 0.0
C273 C 0.33689 0.30424 0.85918 0.0
C274 C 0.75137 0.72887 0.11313 0.0
C275 C 0.73707 0.75911 0.09681 0.0
C276 C 0.75695 0.76313 0.12911 0.0
C277 C 0.74865 0.82915 0.12946 0.0
H278 H 0.75849 0.67814 0.11363 0.0
H279 H 0.76818 0.73751 0.14127 0.0
S280 S 0.7093 0.93122 0.09048 0.0
N281 N 0.71385 0.85916 0.08206 0.0
N282 N 0.72437 0.92356 0.11205 0.0
C283 C 0.73405 0.86009 0.11326 0.0
C284 C 0.72825 0.82512 0.09696 0.0
C285 C 0.14271 0.18623 0.36171 0.0
C286 C 0.16201 0.21961 0.37708 0.0
C287 C 0.18131 0.18285 0.34648 0.0
C288 C 0.24056 0.21319 0.34594 0.0
H289 H 0.09766 0.16177 0.36147 0.0
H290 H 0.16442 0.15613 0.33506 0.0
S291 S 0.31227 0.30872 0.38252 0.0
N292 N 0.24379 0.28483 0.39072 0.0
N293 N 0.31621 0.27891 0.36212 0.0
C294 C 0.26012 0.2475 0.36116 0.0
C295 C 0.22096 0.25055 0.37672 0.0
C296 C 0.20391 0.20232 0.23907 0.0
C297 C 0.24962 0.19372 0.22553 0.0
C298 C 0.22088 0.22469 0.25611 0.0
C299 C 0.28421 0.23883 0.26023 0.0
H300 H 0.15505 0.18911 0.23679 0.0
H301 H 0.18468 0.22769 0.26635 0.0
S302 S 0.42027 0.23474 0.22881 0.0
N303 N 0.35979 0.20905 0.21688 0.0
N304 N 0.39145 0.25019 0.24889 0.0
C305 C 0.32958 0.23461 0.24651 0.0
C306 C 0.31235 0.21236 0.22916 0.0
C307 C 0.82408 0.71383 0.49193 0.0
C308 C 0.78511 0.74279 0.47902 0.0
C309 C 0.81511 0.7248 0.51026 0.0
C310 C 0.76765 0.76614 0.51628 0.0
H311 H 0.86326 0.68415 0.4878 0.0
H312 H 0.84808 0.70393 0.51966 0.0
S313 S 0.64882 0.84847 0.48817 0.0
N314 N 0.69358 0.80988 0.47369 0.0
N315 N 0.67765 0.83163 0.50816 0.0
C316 C 0.72612 0.79253 0.50362 0.0
C317 C 0.73455 0.78049 0.48497 0.0
C318 C 0.18208 0.27857 0.73002 0.0
C319 C 0.24544 0.2956 0.72671 0.0
C320 C 0.16269 0.25731 0.74688 0.0
C321 C 0.20587 0.25131 0.76109 0.0
H322 H 0.14629 0.2843 0.71978 0.0
H323 H 0.11293 0.24721 0.74892 0.0
S324 S 0.37851 0.28237 0.75895 0.0
N325 N 0.35249 0.2997 0.73868 0.0
N326 N 0.31585 0.25904 0.77041 0.0
C327 C 0.27008 0.26417 0.75771 0.0
C328 C 0.28988 0.28653 0.74052 0.0
C329 C 0.67809 0.70841 0.00416 0.0
C330 C 0.74259 0.70894 0.00884 0.0
C331 C 0.65766 0.72948 0.98739 0.0
C332 C 0.70066 0.75248 0.97456 0.0
H333 H 0.64282 0.69013 0.01334 0.0
H334 H 0.60758 0.72669 0.98441 0.0
S335 S 0.87437 0.76811 0.98045 0.0
N336 N 0.84928 0.73755 -0.00047 0.0
N337 N 0.81063 0.77748 0.96796 0.0
C338 C 0.76508 0.7557 0.97925 0.0
C339 C 0.78608 0.73384 -0.00362 0.0
C340 C 0.25996 0.32979 -0.00091 0.0
C341 C 0.24325 0.28674 0.01266 0.0
C342 C 0.28136 0.30901 0.98239 0.0
C343 C 0.28756 0.24411 0.9785 0.0
H344 H 0.25767 0.38034 0.00145 0.0
H345 H 0.29488 0.34453 0.97264 0.0
S346 S 0.24537 0.11155 0.00893 0.0
N347 N 0.23059 0.17591 0.02076 0.0
N348 N 0.27126 0.13659 0.98929 0.0
C349 C 0.26862 0.20029 0.99168 0.0
C350 C 0.24633 0.22163 0.00876 0.0
C351 C 0.67149 0.72295 0.25123 0.0
C352 C 0.7076 0.75014 0.26511 0.0
C353 C 0.68621 0.73381 0.23319 0.0
C354 C 0.73729 0.77278 0.22832 0.0
H355 H 0.62997 0.69484 0.25427 0.0
H356 H 0.65519 0.71425 0.22306 0.0
S357 S 0.85243 0.84766 0.25932 0.0
N358 N 0.80117 0.81195 0.27262 0.0
N359 N 0.8285 0.83268 0.2387 0.0
C360 C 0.77637 0.79677 0.242 0.0
C361 C 0.76168 0.78532 0.26039 0.0
C362 C 0.18471 0.25997 0.48683 0.0
C363 C 0.21572 0.22861 0.47268 0.0
C364 C 0.20169 0.24922 0.50471 0.0
C365 C 0.24979 0.20609 0.50908 0.0
H366 H 0.1452 0.2912 0.48416 0.0
H367 H 0.17427 0.27191 0.51516 0.0
S368 S 0.35187 0.11884 0.47705 0.0
N369 N 0.30185 0.15818 0.46424 0.0
N370 N 0.3332 0.13746 0.49787 0.0
C371 C 0.28417 0.17786 0.49506 0.0
C372 C 0.26736 0.18932 0.47684 0.0
C373 C 0.71176 0.64367 0.7417 0.0
C374 C 0.71632 0.69078 0.72848 0.0
C375 C 0.73017 0.65558 0.75938 0.0
C376 C 0.75535 0.71461 0.76437 0.0
H377 H 0.69536 0.59662 0.73825 0.0
H378 H 0.72777 0.6171 0.76895 0.0
S379 S 0.77281 0.85522 0.735 0.0
N380 N 0.74343 0.79996 0.72173 0.0
N381 N 0.77989 0.8221 0.75494 0.0
C382 C 0.75771 0.76301 0.75143 0.0
C383 C 0.73763 0.75118 0.73348 0.0
C384 C 0.01944 0.04099 0.17176 0.0
C385 C 0.07734 0.01377 0.17697 0.0
C386 C 0.96218 0.00857 0.17392 0.0
C387 C 0.96032 0.94736 0.18131 0.0
H388 H 0.01803 0.08796 0.16597 0.0
H389 H 0.91907 0.03171 0.16963 0.0
S390 S 0.09849 0.85489 0.1974 0.0
N391 N 0.12916 0.92189 0.19006 0.0
N392 N 0.02154 0.8609 0.19409 0.0
C393 C 0.01782 0.91946 0.18663 0.0
C394 C 0.07625 0.95264 0.18448 0.0
C395 C 0.05185 0.48681 0.42656 0.0
C396 C 0.01934 0.42871 0.42583 0.0
C397 C 0.01928 0.54443 0.42693 0.0
C398 C 0.95278 0.54644 0.42659 0.0
H399 H 0.10304 0.48805 0.42708 0.0
H400 H 0.04667 0.5877 0.42773 0.0
S401 S 0.84503 0.40775 0.42365 0.0
N402 N 0.91667 0.37682 0.42405 0.0
N403 N 0.8554 0.48507 0.42473 0.0
C404 C 0.91956 0.48874 0.42547 0.0
C405 C 0.95281 0.42995 0.42509 0.0
C406 C 0.47215 0.42949 0.67088 0.0
C407 C 0.4137 0.46029 0.67319 0.0
C408 C 0.52936 0.46259 0.67207 0.0
C409 C 0.53063 0.52806 0.6755 0.0
H410 H 0.47403 0.37908 0.6683 0.0
H411 H 0.57295 0.43642 0.67027 0.0
S412 S 0.39057 0.63157 0.68224 0.0
N413 N 0.36052 0.56045 0.67885 0.0
N414 N 0.46803 0.62281 0.68102 0.0
C415 C 0.4725 0.55973 0.67767 0.0
C416 C 0.4141 0.52585 0.67654 0.0
C417 C 0.42446 0.00658 0.92262 0.0
C418 C 0.45408 0.06554 0.92533 0.0
C419 C 0.45875 0.94987 0.92334 0.0
C420 C 0.52426 0.94963 0.92668 0.0
H421 H 0.37416 0.00394 0.91997 0.0
H422 H 0.43355 0.9059 0.92114 0.0
S423 S 0.62471 0.09127 0.93474 0.0
N424 N 0.55308 0.12012 0.93156 0.0
N425 N 0.61751 0.01378 0.93285 0.0
C426 C 0.55459 0.00827 0.92943 0.0
C427 C 0.51955 0.06607 0.92878 0.0
C428 C 0.98571 0.44894 0.0552 0.0
C429 C 0.04451 0.47935 0.0574 0.0
C430 C 0.92873 0.48259 0.05629 0.0
C431 C 0.92804 0.54807 0.05971 0.0
H432 H 0.98339 0.39851 0.05269 0.0
H433 H 0.88485 0.45676 0.0546 0.0
S434 S 0.06912 0.6508 0.066 0.0
N435 N 0.0985 0.57936 0.06279 0.0
N436 N 0.9916 0.64252 0.06487 0.0
C437 C 0.98652 0.57931 0.06176 0.0
C438 C 0.04463 0.54504 0.06059 0.0
C439 C 0.55285 0.48633 0.31081 0.0
C440 C 0.52178 0.54431 0.31376 0.0
C441 C 0.51955 0.42901 0.31067 0.0
C442 C 0.45376 0.42721 0.31349 0.0
H443 H 0.60331 0.48503 0.30831 0.0
H444 H 0.54569 0.38589 0.30808 0.0
S445 S 0.35039 0.56542 0.32301 0.0
N446 N 0.42162 0.59608 0.32039 0.0
N447 N 0.35905 0.48847 0.32016 0.0
C448 C 0.42221 0.48471 0.31687 0.0
C449 C 0.45617 0.54316 0.317 0.0
C450 C 0.52275 0.93182 0.55867 0.0
C451 C 0.58031 0.96532 0.55926 0.0
C452 C 0.46471 0.96335 0.55761 0.0
C453 C 0.46164 0.0298 0.55708 0.0
H454 H 0.52221 0.88057 0.55897 0.0
H455 H 0.42192 0.93515 0.55715 0.0
S456 S 0.59867 0.14009 0.55845 0.0
N457 N 0.63064 0.06894 0.55937 0.0
N458 N 0.52157 0.12836 0.55737 0.0
C459 C 0.51884 0.06409 0.55773 0.0
C460 C 0.5781 0.03185 0.55882 0.0
C461 C 0.95618 0.05951 0.80858 0.0
C462 C 0.02274 0.05971 0.80838 0.0
C463 C 0.92187 0.00272 0.80854 0.0
C464 C 0.95258 0.94361 0.80829 0.0
H465 H 0.93007 0.1036 0.8087 0.0
H466 H 0.8707 0.00545 0.80863 0.0
S467 S 0.12639 0.91762 0.80799 0.0
N468 N 0.11827 -0.00472 0.80814 0.0
N469 N 0.05382 0.8888 0.80805 0.0
C470 C 0.01919 0.94299 0.80821 0.0
C471 C 0.05421 0.0009 0.80825 0.0
C472 C 0.51903 0.92571 0.17933 0.0
C473 C 0.57733 0.95786 0.18024 0.0
C474 C 0.46161 0.95863 0.1787 0.0
C475 C 0.45993 0.02517 0.17889 0.0
H476 H 0.51744 0.87448 0.17912 0.0
H477 H 0.4182 0.93145 0.178 0.0
S478 S 0.59933 0.13223 0.18126 0.0
N479 N 0.62979 0.06035 0.18137 0.0
N480 N 0.52199 0.12228 0.18017 0.0
C481 C 0.51788 0.05808 0.17983 0.0
C482 C 0.57647 0.02446 0.18051 0.0
C483 C 0.93892 0.98478 0.439 0.0
C484 C 0.96768 0.9273 0.43406 0.0
C485 C 0.97044 0.04266 0.43696 0.0
C486 C 0.03234 0.04547 0.43008 0.0
H487 H 0.89136 0.98535 0.44441 0.0
H488 H 0.94617 0.08546 0.44103 0.0
S489 S 0.12897 0.90856 0.41505 0.0
N490 N 0.06174 0.87682 0.42185 0.0
N491 N 0.12121 0.98552 0.41813 0.0
C492 C 0.06178 0.98835 0.42506 0.0
C493 C 0.02941 0.92935 0.427 0.0
C494 C 0.02874 0.51179 0.68163 0.0
C495 C 0.03123 0.44634 0.67829 0.0
C496 C 0.97088 0.54365 0.68289 0.0
C497 C 0.91296 0.51153 0.68081 0.0
H498 H 0.07183 0.53889 0.68334 0.0
H499 H 0.97186 0.5941 0.68545 0.0
S500 S 0.89308 0.33979 0.67184 0.0
N501 N 0.97036 0.35024 0.67291 0.0
N502 N 0.86169 0.41024 0.67526 0.0
C503 C 0.91461 0.446 0.67747 0.0
C504 C 0.97366 0.41342 0.67622 0.0
C505 C 0.50976 0.45029 0.93012 0.0
C506 C 0.44659 0.44838 0.92425 0.0
C507 C 0.54284 0.5076 0.93134 0.0
C508 C 0.51437 0.56554 0.92664 0.0
H509 H 0.53376 0.40729 0.93412 0.0
H510 H 0.59116 0.50624 0.93614 0.0
S511 S 0.35083 0.58627 0.9095 0.0
N512 N 0.3574 0.50943 0.91299 0.0
N513 N 0.41967 0.61704 0.91525 0.0
C514 C 0.45162 0.56425 0.92036 0.0
C515 C 0.41776 0.50578 0.91918 0.0
C516 C 0.54253 0.48124 0.05754 0.0
C517 C 0.5442 0.54539 0.06254 0.0
C518 C 0.4851 0.44859 0.05595 0.0
C519 C 0.42683 0.47853 0.05941 0.0
H520 H 0.58586 0.45613 0.05446 0.0
H521 H 0.48662 0.39945 0.05184 0.0
S522 S 0.40517 0.64524 0.07392 0.0
N523 N 0.48242 0.63718 0.07165 0.0
N524 N 0.37461 0.57575 0.06871 0.0
C525 C 0.42781 0.54231 0.06484 0.0
C526 C 0.48638 0.57571 0.06639 0.0
C527 C 0.52069 0.04268 0.3113 0.0
C528 C 0.4554 0.04417 0.30772 0.0
C529 C 0.55358 0.98523 0.31231 0.0
C530 C 0.52245 0.92687 0.30994 0.0
H531 H 0.54695 0.08628 0.31309 0.0
H532 H 0.60395 0.98678 0.31493 0.0
S533 S 0.35096 0.9046 0.30106 0.0
N534 N 0.36025 0.98202 0.30234 0.0
N535 N 0.42192 0.87422 0.30431 0.0
C536 C 0.45688 0.92762 0.30666 0.0
C537 C 0.42344 0.98617 0.30552 0.0
C538 C 0.96412 0.01399 0.55026 0.0
C539 C 0.96155 0.94793 0.55235 0.0
C540 C 0.02211 0.04555 0.54854 0.0
C541 C 0.07982 0.01244 0.5492 0.0
H542 H 0.92097 0.04156 0.54969 0.0
H543 H 0.02161 0.09649 0.5469 0.0
S544 S 0.09913 0.83911 0.55483 0.0
N545 N 0.02184 0.85032 0.5551 0.0
N546 N 0.13087 0.90994 0.55221 0.0
C547 C 0.07802 0.94645 0.55148 0.0
C548 C 0.01889 0.91413 0.55295 0.0
C549 C 0.9278 0.50375 0.81548 0.0
C550 C 0.95235 0.56101 0.80874 0.0
C551 C 0.96055 0.44648 0.81349 0.0
C552 C 0.01925 0.44389 0.80462 0.0
H553 H 0.88265 0.50286 0.82235 0.0
H554 H 0.93937 0.40388 0.81891 0.0
S555 S 0.10495 0.58054 0.78464 0.0
N556 N 0.03957 0.61151 0.79294 0.0
N557 N 0.10105 0.50422 0.78917 0.0
C558 C 0.04461 0.50088 0.79788 0.0
C559 C 0.01127 0.55927 0.79995 0.0
loop_
_geom_bond_atom_site_label_1
_geom_bond_atom_site_label_2
_geom_bond_distance
_geom_bond_site_symmetry_2
_ccdc_geom_bond_type
C0 O1 1.160 . S
C0 O7 1.185 . S
O1 C0 1.160 . S
O2 Zn3 1.899 . S
O2 C10 1.284 . S
Zn3 O2 1.899 . S
Zn3 O4 2.032 . S
Zn3 O7 2.086 . S
Zn3 O12 1.977 . S
O4 Zn3 2.032 . S
O4 C8 1.278 . S
C5 O6 1.203 . S
C5 O12 1.267 . S
O6 C5 1.203 . S
O7 C0 1.185 . S
O7 Zn3 2.086 . S
C8 O4 1.278 . S
C8 O9 1.211 . S
O9 C8 1.211 . S
C10 O2 1.284 . S
C10 O11 1.273 . S
O11 C10 1.273 . S
O12 Zn3 1.977 . S
O12 C5 1.267 . S
C13 O14 1.160 . S
C13 O20 1.185 . S
O14 C13 1.160 . S
O15 Zn16 1.899 . S
O15 C23 1.284 . S
Zn16 O15 1.899 . S
Zn16 O17 2.032 . S
Zn16 O20 2.086 . S
Zn16 O25 1.977 . S
O17 Zn16 2.032 . S
O17 C21 1.278 . S
C18 O19 1.203 . S
C18 O25 1.267 . S
O19 C18 1.203 . S
O20 C13 1.185 . S
O20 Zn16 2.086 . S
C21 O17 1.278 . S
C21 O22 1.211 . S
O22 C21 1.211 . S
C23 O15 1.284 . S
C23 O24 1.273 . S
O24 C23 1.273 . S
O25 Zn16 1.977 . S
O25 C18 1.267 . S
C26 O27 1.160 . S
C26 O33 1.185 . S
O27 C26 1.160 . S
O28 Zn29 1.899 . S
O28 C36 1.284 . S
Zn29 O28 1.899 . S
Zn29 O30 2.032 . S
Zn29 O33 2.086 . S
Zn29 O38 1.977 . S
O30 Zn29 2.032 . S
O30 C34 1.278 . S
C31 O32 1.203 . S
C31 O38 1.267 . S
O32 C31 1.203 . S
O33 C26 1.185 . S
O33 Zn29 2.086 . S
C34 O30 1.278 . S
C34 O35 1.211 . S
O35 C34 1.211 . S
C36 O28 1.284 . S
C36 O37 1.273 . S
O37 C36 1.273 . S
O38 Zn29 1.977 . S
O38 C31 1.267 . S
C39 O40 1.160 . S
C39 O46 1.185 . S
O40 C39 1.160 . S
O41 Zn42 1.899 . S
O41 C49 1.284 . S
Zn42 O41 1.899 . S
Zn42 O43 2.032 . S
Zn42 O46 2.086 . S
Zn42 O51 1.977 . S
O43 Zn42 2.032 . S
O43 C47 1.278 . S
C44 O45 1.203 . S
C44 O51 1.267 . S
O45 C44 1.203 . S
O46 C39 1.185 . S
O46 Zn42 2.086 . S
C47 O43 1.278 . S
C47 O48 1.211 . S
O48 C47 1.211 . S
C49 O41 1.284 . S
C49 O50 1.273 . S
O50 C49 1.273 . S
O51 Zn42 1.977 . S
O51 C44 1.267 . S
C52 O53 1.160 . S
C52 O59 1.185 . S
O53 C52 1.160 . S
O54 Zn55 1.899 . S
O54 C62 1.284 . S
Zn55 O54 1.899 . S
Zn55 O56 2.032 . S
Zn55 O59 2.086 . S
Zn55 O64 1.977 . S
O56 Zn55 2.032 . S
O56 C60 1.278 . S
C57 O58 1.203 . S
C57 O64 1.267 . S
O58 C57 1.203 . S
O59 C52 1.185 . S
O59 Zn55 2.086 . S
C60 O56 1.278 . S
C60 O61 1.211 . S
O61 C60 1.211 . S
C62 O54 1.284 . S
C62 O63 1.273 . S
O63 C62 1.273 . S
O64 Zn55 1.977 . S
O64 C57 1.267 . S
C65 O66 1.160 . S
C65 O72 1.185 . S
O66 C65 1.160 . S
O67 Zn68 1.899 . S
O67 C75 1.284 . S
Zn68 O67 1.899 . S
Zn68 O69 2.032 . S
Zn68 O72 2.086 . S
Zn68 O77 1.977 . S
O69 Zn68 2.032 . S
O69 C73 1.278 . S
C70 O71 1.203 . S
C70 O77 1.267 . S
O71 C70 1.203 . S
O72 C65 1.185 . S
O72 Zn68 2.086 . S
C73 O69 1.278 . S
C73 O74 1.211 . S
O74 C73 1.211 . S
C75 O67 1.284 . S
C75 O76 1.273 . S
O76 C75 1.273 . S
O77 Zn68 1.977 . S
O77 C70 1.267 . S
C78 O79 1.160 . S
C78 O85 1.185 . S
O79 C78 1.160 . S
O80 Zn81 1.899 . S
O80 C88 1.284 . S
Zn81 O80 1.899 . S
Zn81 O82 2.032 . S
Zn81 O85 2.086 . S
Zn81 O90 1.977 . S
O82 Zn81 2.032 . S
O82 C86 1.278 . S
C83 O84 1.203 . S
C83 O90 1.267 . S
O84 C83 1.203 . S
O85 C78 1.185 . S
O85 Zn81 2.086 . S
C86 O82 1.278 . S
C86 O87 1.211 . S
O87 C86 1.211 . S
C88 O80 1.284 . S
C88 O89 1.273 . S
O89 C88 1.273 . S
O90 Zn81 1.977 . S
O90 C83 1.267 . S
C91 O92 1.160 . S
C91 O98 1.185 . S
O92 C91 1.160 . S
O93 Zn94 1.899 . S
O93 C101 1.284 . S
Zn94 O93 1.899 . S
Zn94 O95 2.032 . S
Zn94 O98 2.086 . S
Zn94 O103 1.977 . S
O95 Zn94 2.032 . S
O95 C99 1.278 . S
C96 O97 1.203 . S
C96 O103 1.267 . S
O97 C96 1.203 . S
O98 C91 1.185 . S
O98 Zn94 2.086 . S
C99 O95 1.278 . S
C99 O100 1.211 . S
O100 C99 1.211 . S
C101 O93 1.284 . S
C101 O102 1.273 . S
O102 C101 1.273 . S
O103 Zn94 1.977 . S
O103 C96 1.267 . S
C104 O105 1.160 . S
C104 O111 1.185 . S
O105 C104 1.160 . S
O106 Zn107 1.899 . S
O106 C114 1.284 . S
Zn107 O106 1.899 . S
Zn107 O108 2.032 . S
Zn107 O111 2.086 . S
Zn107 O116 1.977 . S
O108 Zn107 2.032 . S
O108 C112 1.278 . S
C109 O110 1.203 . S
C109 O116 1.267 . S
O110 C109 1.203 . S
O111 C104 1.185 . S
O111 Zn107 2.086 . S
C112 O108 1.278 . S
C112 O113 1.211 . S
O113 C112 1.211 . S
C114 O106 1.284 . S
C114 O115 1.273 . S
O115 C114 1.273 . S
O116 Zn107 1.977 . S
O116 C109 1.267 . S
C117 O118 1.160 . S
C117 O124 1.185 . S
O118 C117 1.160 . S
O119 Zn120 1.899 . S
O119 C127 1.284 . S
Zn120 O119 1.899 . S
Zn120 O121 2.032 . S
Zn120 O124 2.086 . S
Zn120 O129 1.977 . S
O121 Zn120 2.032 . S
O121 C125 1.278 . S
C122 O123 1.203 . S
C122 O129 1.267 . S
O123 C122 1.203 . S
O124 C117 1.185 . S
O124 Zn120 2.086 . S
C125 O121 1.278 . S
C125 O126 1.211 . S
O126 C125 1.211 . S
C127 O119 1.284 . S
C127 O128 1.273 . S
O128 C127 1.273 . S
O129 Zn120 1.977 . S
O129 C122 1.267 . S
C130 O131 1.160 . S
C130 O137 1.185 . S
O131 C130 1.160 . S
O132 Zn133 1.899 . S
O132 C140 1.284 . S
Zn133 O132 1.899 . S
Zn133 O134 2.032 . S
Zn133 O137 2.086 . S
Zn133 O142 1.977 . S
O134 Zn133 2.032 . S
O134 C138 1.278 . S
C135 O136 1.203 . S
C135 O142 1.267 . S
O136 C135 1.203 . S
O137 C130 1.185 . S
O137 Zn133 2.086 . S
C138 O134 1.278 . S
C138 O139 1.211 . S
O139 C138 1.211 . S
C140 O132 1.284 . S
C140 O141 1.273 . S
O141 C140 1.273 . S
O142 Zn133 1.977 . S
O142 C135 1.267 . S
C143 O144 1.160 . S
C143 O150 1.185 . S
O144 C143 1.160 . S
O145 Zn146 1.899 . S
O145 C153 1.284 . S
Zn146 O145 1.899 . S
Zn146 O147 2.032 . S
Zn146 O150 2.086 . S
Zn146 O155 1.977 . S
O147 Zn146 2.032 . S
O147 C151 1.278 . S
C148 O149 1.203 . S
C148 O155 1.267 . S
O149 C148 1.203 . S
O150 C143 1.185 . S
O150 Zn146 2.086 . S
C151 O147 1.278 . S
C151 O152 1.211 . S
O152 C151 1.211 . S
C153 O145 1.284 . S
C153 O154 1.273 . S
O154 C153 1.273 . S
O155 Zn146 1.977 . S
O155 C148 1.267 . S
C156 O157 1.160 . S
C156 O163 1.185 . S
O157 C156 1.160 . S
O158 Zn159 1.899 . S
O158 C166 1.284 . S
Zn159 O158 1.899 . S
Zn159 O160 2.032 . S
Zn159 O163 2.086 . S
Zn159 O168 1.977 . S
O160 Zn159 2.032 . S
O160 C164 1.278 . S
C161 O162 1.203 . S
C161 O168 1.267 . S
O162 C161 1.203 . S
O163 C156 1.185 . S
O163 Zn159 2.086 . S
C164 O160 1.278 . S
C164 O165 1.211 . S
O165 C164 1.211 . S
C166 O158 1.284 . S
C166 O167 1.273 . S
O167 C166 1.273 . S
O168 Zn159 1.977 . S
O168 C161 1.267 . S
C169 O170 1.160 . S
C169 O176 1.185 . S
O170 C169 1.160 . S
O171 Zn172 1.899 . S
O171 C179 1.284 . S
Zn172 O171 1.899 . S
Zn172 O173 2.032 . S
Zn172 O176 2.086 . S
Zn172 O181 1.977 . S
O173 Zn172 2.032 . S
O173 C177 1.278 . S
C174 O175 1.203 . S
C174 O181 1.267 . S
O175 C174 1.203 . S
O176 C169 1.185 . S
O176 Zn172 2.086 . S
C177 O173 1.278 . S
C177 O178 1.211 . S
O178 C177 1.211 . S
C179 O171 1.284 . S
C179 O180 1.273 . S
O180 C179 1.273 . S
O181 Zn172 1.977 . S
O181 C174 1.267 . S
C182 O183 1.160 . S
C182 O189 1.185 . S
O183 C182 1.160 . S
O184 Zn185 1.899 . S
O184 C192 1.284 . S
Zn185 O184 1.899 . S
Zn185 O186 2.032 . S
Zn185 O189 2.086 . S
Zn185 O194 1.977 . S
O186 Zn185 2.032 . S
O186 C190 1.278 . S
C187 O188 1.203 . S
C187 O194 1.267 . S
O188 C187 1.203 . S
O189 C182 1.185 . S
O189 Zn185 2.086 . S
C190 O186 1.278 . S
C190 O191 1.211 . S
O191 C190 1.211 . S
C192 O184 1.284 . S
C192 O193 1.273 . S
O193 C192 1.273 . S
O194 Zn185 1.977 . S
O194 C187 1.267 . S
C195 O196 1.160 . S
C195 O202 1.185 . S
O196 C195 1.160 . S
O197 Zn198 1.899 . S
O197 C205 1.284 . S
Zn198 O197 1.899 . S
Zn198 O199 2.032 . S
Zn198 O202 2.086 . S
Zn198 O207 1.977 . S
O199 Zn198 2.032 . S
O199 C203 1.278 . S
C200 O201 1.203 . S
C200 O207 1.267 . S
O201 C200 1.203 . S
O202 C195 1.185 . S
O202 Zn198 2.086 . S
C203 O199 1.278 . S
C203 O204 1.211 . S
O204 C203 1.211 . S
C205 O197 1.284 . S
C205 O206 1.273 . S
O206 C205 1.273 . S
O207 Zn198 1.977 . S
O207 C200 1.267 . S
C208 C209 1.369 . S
C208 C210 1.419 . S
C208 H212 0.930 . S
C209 C208 1.369 . S
C209 C218 1.429 . S
C210 C208 1.419 . S
C210 C211 1.363 . S
C210 H213 0.929 . S
C211 C210 1.363 . S
C211 C217 1.428 . S
H212 C208 0.930 . S
H213 C210 0.929 . S
S214 N215 1.613 . S
S214 N216 1.610 . S
N215 S214 1.613 . S
N215 C218 1.350 . S
N216 S214 1.610 . S
N216 C217 1.351 . S
C217 C211 1.428 . S
C217 N216 1.351 . S
C217 C218 1.434 . S
C218 C209 1.429 . S
C218 N215 1.350 . S
C218 C217 1.434 . S
C219 C220 1.369 . S
C219 C221 1.419 . S
C219 H223 0.930 . S
C220 C219 1.369 . S
C220 C229 1.429 . S
C221 C219 1.419 . S
C221 C222 1.363 . S
C221 H224 0.929 . S
C222 C221 1.363 . S
C222 C228 1.428 . S
H223 C219 0.930 . S
H224 C221 0.929 . S
S225 N226 1.613 . S
S225 N227 1.610 . S
N226 S225 1.613 . S
N226 C229 1.350 . S
N227 S225 1.610 . S
N227 C228 1.351 . S
C228 C222 1.428 . S
C228 N227 1.351 . S
C228 C229 1.434 . S
C229 C220 1.429 . S
C229 N226 1.350 . S
C229 C228 1.434 . S
C230 C231 1.369 . S
C230 C232 1.419 . S
C230 H234 0.930 . S
C231 C230 1.369 . S
C231 C240 1.429 . S
C232 C230 1.419 . S
C232 C233 1.363 . S
C232 H235 0.929 . S
C233 C232 1.363 . S
C233 C239 1.428 . S
H234 C230 0.930 . S
H235 C232 0.929 . S
S236 N237 1.613 . S
S236 N238 1.610 . S
N237 S236 1.613 . S
N237 C240 1.350 . S
N238 S236 1.610 . S
N238 C239 1.351 . S
C239 C233 1.428 . S
C239 N238 1.351 . S
C239 C240 1.434 . S
C240 C231 1.429 . S
C240 N237 1.350 . S
C240 C239 1.434 . S
C241 C242 1.369 . S
C241 C243 1.419 . S
C241 H245 0.930 . S
C242 C241 1.369 . S
C242 C251 1.429 . S
C243 C241 1.419 . S
C243 C244 1.363 . S
C243 H246 0.929 . S
C244 C243 1.363 . S
C244 C250 1.428 . S
H245 C241 0.930 . S
H246 C243 0.929 . S
S247 N248 1.613 . S
S247 N249 1.610 . S
N248 S247 1.613 . S
N248 C251 1.350 . S
N249 S247 1.610 . S
N249 C250 1.351 . S
C250 C244 1.428 . S
C250 N249 1.351 . S
C250 C251 1.434 . S
C251 C242 1.429 . S
C251 N248 1.350 . S
C251 C250 1.434 . S
C252 C253 1.369 . S
C252 C254 1.419 . S
C252 H256 0.930 . S
C253 C252 1.369 . S
C253 C262 1.429 . S
C254 C252 1.419 . S
C254 C255 1.363 . S
C254 H257 0.929 . S
C255 C254 1.363 . S
C255 C261 1.428 . S
H256 C252 0.930 . S
H257 C254 0.929 . S
S258 N259 1.613 . S
S258 N260 1.610 . S
N259 S258 1.613 . S
N259 C262 1.350 . S
N260 S258 1.610 . S
N260 C261 1.351 . S
C261 C255 1.428 . S
C261 N260 1.351 . S
C261 C262 1.434 . S
C262 C253 1.429 . S
C262 N259 1.350 . S
C262 C261 1.434 . S
C263 C264 1.369 . S
C263 C265 1.419 . S
C263 H267 0.930 . S
C264 C263 1.369 . S
C264 C273 1.429 . S
C265 C263 1.419 . S
C265 C266 1.363 . S
C265 H268 0.929 . S
C266 C265 1.363 . S
C266 C272 1.428 . S
H267 C263 0.930 . S
H268 C265 0.929 . S
S269 N270 1.613 . S
S269 N271 1.610 . S
N270 S269 1.613 . S
N270 C273 1.350 . S
N271 S269 1.610 . S
N271 C272 1.351 . S
C272 C266 1.428 . S
C272 N271 1.351 . S
C272 C273 1.434 . S
C273 C264 1.429 . S
C273 N270 1.350 . S
C273 C272 1.434 . S
C274 C275 1.369 . S
C274 C276 1.419 . S
C274 H278 0.930 . S
C275 C274 1.369 . S
C275 C284 1.429 . S
C276 C274 1.419 . S
C276 C277 1.363 . S
C276 H279 0.929 . S
C277 C276 1.363 . S
C277 C283 1.428 . S
H278 C274 0.930 . S
H279 C276 0.929 . S
S280 N281 1.613 . S
S280 N282 1.610 . S
N281 S280 1.613 . S
N281 C284 1.350 . S
N282 S280 1.610 . S
N282 C283 1.351 . S
C283 C277 1.428 . S
C283 N282 1.351 . S
C283 C284 1.434 . S
C284 C275 1.429 . S
C284 N281 1.350 . S
C284 C283 1.434 . S
C285 C286 1.369 . S
C285 C287 1.419 . S
C285 H289 0.930 . S
C286 C285 1.369 . S
C286 C295 1.429 . S
C287 C285 1.419 . S
C287 C288 1.363 . S
C287 H290 0.929 . S
C288 C287 1.363 . S
C288 C294 1.428 . S
H289 C285 0.930 . S
H290 C287 0.929 . S
S291 N292 1.613 . S
S291 N293 1.610 . S
N292 S291 1.613 . S
N292 C295 1.350 . S
N293 S291 1.610 . S
N293 C294 1.351 . S
C294 C288 1.428 . S
C294 N293 1.351 . S
C294 C295 1.434 . S
C295 C286 1.429 . S
C295 N292 1.350 . S
C295 C294 1.434 . S
C296 C297 1.369 . S
C296 C298 1.419 . S
C296 H300 0.930 . S
C297 C296 1.369 . S
C297 C306 1.429 . S
C298 C296 1.419 . S
C298 C299 1.363 . S
C298 H301 0.929 . S
C299 C298 1.363 . S
C299 C305 1.428 . S
H300 C296 0.930 . S
H301 C298 0.929 . S
S302 N303 1.613 . S
S302 N304 1.610 . S
N303 S302 1.613 . S
N303 C306 1.350 . S
N304 S302 1.610 . S
N304 C305 1.351 . S
C305 C299 1.428 . S
C305 N304 1.351 . S
C305 C306 1.434 . S
C306 C297 1.429 . S
C306 N303 1.350 . S
C306 C305 1.434 . S
C307 C308 1.369 . S
C307 C309 1.419 . S
C307 H311 0.930 . S
C308 C307 1.369 . S
C308 C317 1.429 . S
C309 C307 1.419 . S
C309 C310 1.363 . S
C309 H312 0.929 . S
C310 C309 1.363 . S
C310 C316 1.428 . S
H311 C307 0.930 . S
H312 C309 0.929 . S
S313 N314 1.613 . S
S313 N315 1.610 . S
N314 S313 1.613 . S
N314 C317 1.350 . S
N315 S313 1.610 . S
N315 C316 1.351 . S
C316 C310 1.428 . S
C316 N315 1.351 . S
C316 C317 1.434 . S
C317 C308 1.429 . S
C317 N314 1.350 . S
C317 C316 1.434 . S
C318 C319 1.369 . S
C318 C320 1.419 . S
C318 H322 0.930 . S
C319 C318 1.369 . S
C319 C328 1.429 . S
C320 C318 1.419 . S
C320 C321 1.363 . S
C320 H323 0.929 . S
C321 C320 1.363 . S
C321 C327 1.428 . S
H322 C318 0.930 . S
H323 C320 0.929 . S
S324 N325 1.613 . S
S324 N326 1.610 . S
N325 S324 1.613 . S
N325 C328 1.350 . S
N326 S324 1.610 . S
N326 C327 1.351 . S
C327 C321 1.428 . S
C327 N326 1.351 . S
C327 C328 1.434 . S
C328 C319 1.429 . S
C328 N325 1.350 . S
C328 C327 1.434 . S
C329 C330 1.369 . S
C329 C331 1.419 1_554 S
C329 H333 0.930 . S
C330 C329 1.369 . S
C330 C339 1.429 . S
C331 C329 1.419 1_556 S
C331 C332 1.363 . S
C331 H334 0.929 . S
C332 C331 1.363 . S
C332 C338 1.428 . S
H333 C329 0.930 . S
H334 C331 0.929 . S
S335 N336 1.613 1_556 S
S335 N337 1.610 . S
N336 S335 1.613 1_554 S
N336 C339 1.350 . S
N337 S335 1.610 . S
N337 C338 1.351 . S
C338 C332 1.428 . S
C338 N337 1.351 . S
C338 C339 1.434 1_556 S
C339 C330 1.429 . S
C339 N336 1.350 . S
C339 C338 1.434 1_554 S
C340 C341 1.369 . S
C340 C342 1.419 1_554 S
C340 H344 0.930 . S
C341 C340 1.369 . S
C341 C350 1.429 . S
C342 C340 1.419 1_556 S
C342 C343 1.363 . S
C342 H345 0.929 . S
C343 C342 1.363 . S
C343 C349 1.428 . S
H344 C340 0.930 . S
H345 C342 0.929 . S
S346 N347 1.613 . S
S346 N348 1.610 1_554 S
N347 S346 1.613 . S
N347 C350 1.350 . S
N348 S346 1.610 1_556 S
N348 C349 1.351 . S
C349 C343 1.428 . S
C349 N348 1.351 . S
C349 C350 1.434 1_556 S
C350 C341 1.429 . S
C350 N347 1.350 . S
C350 C349 1.434 1_554 S
C351 C352 1.369 . S
C351 C353 1.419 . S
C351 H355 0.930 . S
C352 C351 1.369 . S
C352 C361 1.429 . S
C353 C351 1.419 . S
C353 C354 1.363 . S
C353 H356 0.929 . S
C354 C353 1.363 . S
C354 C360 1.428 . S
H355 C351 0.930 . S
H356 C353 0.929 . S
S357 N358 1.613 . S
S357 N359 1.610 . S
N358 S357 1.613 . S
N358 C361 1.350 . S
N359 S357 1.610 . S
N359 C360 1.351 . S
C360 C354 1.428 . S
C360 N359 1.351 . S
C360 C361 1.434 . S
C361 C352 1.429 . S
C361 N358 1.350 . S
C361 C360 1.434 . S
C362 C363 1.369 . S
C362 C364 1.419 . S
C362 H366 0.930 . S
C363 C362 1.369 . S
C363 C372 1.429 . S
C364 C362 1.419 . S
C364 C365 1.363 . S
C364 H367 0.929 . S
C365 C364 1.363 . S
C365 C371 1.428 . S
H366 C362 0.930 . S
H367 C364 0.929 . S
S368 N369 1.613 . S
S368 N370 1.610 . S
N369 S368 1.613 . S
N369 C372 1.350 . S
N370 S368 1.610 . S
N370 C371 1.351 . S
C371 C365 1.428 . S
C371 N370 1.351 . S
C371 C372 1.434 . S
C372 C363 1.429 . S
C372 N369 1.350 . S
C372 C371 1.434 . S
C373 C374 1.369 . S
C373 C375 1.419 . S
C373 H377 0.930 . S
C374 C373 1.369 . S
C374 C383 1.429 . S
C375 C373 1.419 . S
C375 C376 1.363 . S
C375 H378 0.929 . S
C376 C375 1.363 . S
C376 C382 1.428 . S
H377 C373 0.930 . S
H378 C375 0.929 . S
S379 N380 1.613 . S
S379 N381 1.610 . S
N380 S379 1.613 . S
N380 C383 1.350 . S
N381 S379 1.610 . S
N381 C382 1.351 . S
C382 C376 1.428 . S
C382 N381 1.351 . S
C382 C383 1.434 . S
C383 C374 1.429 . S
C383 N380 1.350 . S
C383 C382 1.434 . S
C384 C385 1.369 . S
C384 C386 1.419 1_455 S
C384 H388 0.930 . S
C385 C384 1.369 . S
C385 C394 1.429 1_545 S
C386 C384 1.419 1_655 S
C386 C387 1.362 1_545 S
C386 H389 0.929 . S
C387 C386 1.362 1_565 S
C387 C393 1.428 . S
H388 C384 0.930 . S
H389 C386 0.929 . S
S390 N391 1.613 . S
S390 N392 1.610 1_455 S
N391 S390 1.613 . S
N391 C394 1.350 . S
N392 S390 1.610 1_655 S
N392 C393 1.351 . S
C393 C387 1.428 . S
C393 N392 1.351 . S
C393 C394 1.434 1_655 S
C394 C385 1.429 1_565 S
C394 N391 1.350 . S
C394 C393 1.434 1_455 S
C395 C396 1.369 . S
C395 C397 1.419 . S
C395 H399 0.930 . S
C396 C395 1.369 . S
C396 C405 1.429 1_455 S
C397 C395 1.419 . S
C397 C398 1.363 1_455 S
C397 H400 0.929 . S
C398 C397 1.363 1_655 S
C398 C404 1.428 . S
H399 C395 0.930 . S
H400 C397 0.929 . S
S401 N402 1.613 . S
S401 N403 1.610 . S
N402 S401 1.613 . S
N402 C405 1.350 . S
N403 S401 1.610 . S
N403 C404 1.351 . S
C404 C398 1.428 . S
C404 N403 1.351 . S
C404 C405 1.434 . S
C405 C396 1.429 1_655 S
C405 N402 1.350 . S
C405 C404 1.434 . S
C406 C407 1.369 . S
C406 C408 1.419 . S
C406 H410 0.930 . S
C407 C406 1.369 . S
C407 C416 1.429 . S
C408 C406 1.419 . S
C408 C409 1.363 . S
C408 H411 0.929 . S
C409 C408 1.363 . S
C409 C415 1.428 . S
H410 C406 0.930 . S
H411 C408 0.929 . S
S412 N413 1.613 . S
S412 N414 1.610 . S
N413 S412 1.613 . S
N413 C416 1.350 . S
N414 S412 1.610 . S
N414 C415 1.351 . S
C415 C409 1.428 . S
C415 N414 1.351 . S
C415 C416 1.434 . S
C416 C407 1.429 . S
C416 N413 1.350 . S
C416 C415 1.434 . S
C417 C418 1.369 . S
C417 C419 1.419 1_545 S
C417 H421 0.930 . S
C418 C417 1.369 . S
C418 C427 1.429 . S
C419 C417 1.419 1_565 S
C419 C420 1.363 . S
C419 H422 0.929 . S
C420 C419 1.363 . S
C420 C426 1.428 . S
H421 C417 0.930 . S
H422 C419 0.929 . S
S423 N424 1.613 . S
S423 N425 1.610 1_545 S
N424 S423 1.613 . S
N424 C427 1.350 . S
N425 S423 1.610 1_565 S
N425 C426 1.351 . S
C426 C420 1.428 . S
C426 N425 1.351 . S
C426 C427 1.434 1_565 S
C427 C418 1.429 . S
C427 N424 1.350 . S
C427 C426 1.434 1_545 S
C428 C429 1.369 . S
C428 C430 1.419 1_455 S
C428 H432 0.930 . S
C429 C428 1.369 . S
C429 C438 1.429 . S
C430 C428 1.419 1_655 S
C430 C431 1.363 . S
C430 H433 0.929 . S
C431 C430 1.363 . S
C431 C437 1.428 . S
H432 C428 0.930 . S
H433 C430 0.929 . S
S434 N435 1.613 . S
S434 N436 1.610 1_455 S
N435 S434 1.613 . S
N435 C438 1.350 . S
N436 S434 1.610 1_655 S
N436 C437 1.351 . S
C437 C431 1.428 . S
C437 N436 1.351 . S
C437 C438 1.434 1_655 S
C438 C429 1.429 . S
C438 N435 1.350 . S
C438 C437 1.434 1_455 S
C439 C440 1.369 . S
C439 C441 1.419 . S
C439 H443 0.930 . S
C440 C439 1.369 . S
C440 C449 1.429 . S
C441 C439 1.419 . S
C441 C442 1.363 . S
C441 H444 0.929 . S
C442 C441 1.363 . S
C442 C448 1.428 . S
H443 C439 0.930 . S
H444 C441 0.929 . S
S445 N446 1.613 . S
S445 N447 1.610 . S
N446 S445 1.613 . S
N446 C449 1.350 . S
N447 S445 1.610 . S
N447 C448 1.351 . S
C448 C442 1.428 . S
C448 N447 1.351 . S
C448 C449 1.434 . S
C449 C440 1.429 . S
C449 N446 1.350 . S
C449 C448 1.434 . S
C450 C451 1.369 . S
C450 C452 1.419 . S
C450 H454 0.930 . S
C451 C450 1.369 . S
C451 C460 1.429 1_565 S
C452 C450 1.419 . S
C452 C453 1.363 1_565 S
C452 H455 0.929 . S
C453 C452 1.363 1_545 S
C453 C459 1.428 . S
H454 C450 0.930 . S
H455 C452 0.929 . S
S456 N457 1.613 . S
S456 N458 1.610 . S
N457 S456 1.613 . S
N457 C460 1.350 . S
N458 S456 1.610 . S
N458 C459 1.351 . S
C459 C453 1.428 . S
C459 N458 1.351 . S
C459 C460 1.434 . S
C460 C451 1.429 1_545 S
C460 N457 1.350 . S
C460 C459 1.434 . S
C461 C462 1.369 1_655 S
C461 C463 1.419 1_545 S
C461 H465 0.930 . S
C462 C461 1.369 1_455 S
C462 C471 1.429 . S
C463 C461 1.419 1_565 S
C463 C464 1.363 . S
C463 H466 0.929 . S
C464 C463 1.363 . S
C464 C470 1.428 1_655 S
H465 C461 0.930 . S
H466 C463 0.929 . S
S467 N468 1.613 1_565 S
S467 N469 1.610 . S
N468 S467 1.613 1_545 S
N468 C471 1.350 . S
N469 S467 1.610 . S
N469 C470 1.351 . S
C470 C464 1.428 1_455 S
C470 N469 1.351 . S
C470 C471 1.434 1_565 S
C471 C462 1.429 . S
C471 N468 1.350 . S
C471 C470 1.434 1_545 S
C472 C473 1.369 . S
C472 C474 1.418 1_565 S
C472 H476 0.930 . S
C473 C472 1.369 . S
C473 C482 1.429 1_565 S
C474 C472 1.418 1_545 S
C474 C475 1.363 . S
C474 H477 0.929 1_545 S
C475 C474 1.363 . S
C475 C481 1.428 . S
H476 C472 0.930 . S
H477 C474 0.929 1_565 S
S478 N479 1.613 . S
S478 N480 1.610 . S
N479 S478 1.613 . S
N479 C482 1.350 . S
N480 S478 1.610 . S
N480 C481 1.351 . S
C481 C475 1.428 . S
C481 N480 1.351 . S
C481 C482 1.434 . S
C482 C473 1.429 1_545 S
C482 N479 1.350 . S
C482 C481 1.434 . S
C483 C484 1.369 . S
C483 C485 1.419 1_565 S
C483 H487 0.930 . S
C484 C483 1.369 . S
C484 C493 1.429 1_655 S
C485 C483 1.419 1_545 S
C485 C486 1.363 1_655 S
C485 H488 0.929 . S
C486 C485 1.363 1_455 S
C486 C492 1.428 . S
H487 C483 0.930 . S
H488 C485 0.929 . S
S489 N490 1.613 . S
S489 N491 1.610 1_565 S
N490 S489 1.613 . S
N490 C493 1.350 . S
N491 S489 1.610 1_545 S
N491 C492 1.351 . S
C492 C486 1.428 . S
C492 N491 1.351 . S
C492 C493 1.434 1_545 S
C493 C484 1.429 1_455 S
C493 N490 1.350 . S
C493 C492 1.434 1_565 S
C494 C495 1.369 . S
C494 C496 1.419 1_455 S
C494 H498 0.930 . S
C495 C494 1.369 . S
C495 C504 1.429 . S
C496 C494 1.419 1_655 S
C496 C497 1.363 . S
C496 H499 0.929 . S
C497 C496 1.363 . S
C497 C503 1.428 . S
H498 C494 0.930 . S
H499 C496 0.929 . S
S500 N501 1.613 1_655 S
S500 N502 1.610 . S
N501 S500 1.613 1_455 S
N501 C504 1.350 . S
N502 S500 1.610 . S
N502 C503 1.351 . S
C503 C497 1.428 . S
C503 N502 1.351 . S
C503 C504 1.434 1_655 S
C504 C495 1.429 . S
C504 N501 1.350 . S
C504 C503 1.434 1_455 S
C505 C506 1.369 . S
C505 C507 1.419 . S
C505 H509 0.930 . S
C506 C505 1.369 . S
C506 C515 1.429 . S
C507 C505 1.419 . S
C507 C508 1.363 . S
C507 H510 0.929 . S
C508 C507 1.363 . S
C508 C514 1.428 . S
H509 C505 0.930 . S
H510 C507 0.929 . S
S511 N512 1.613 . S
S511 N513 1.610 . S
N512 S511 1.613 . S
N512 C515 1.350 . S
N513 S511 1.610 . S
N513 C514 1.351 . S
C514 C508 1.428 . S
C514 N513 1.351 . S
C514 C515 1.434 . S
C515 C506 1.429 . S
C515 N512 1.350 . S
C515 C514 1.434 . S
C516 C517 1.369 . S
C516 C518 1.419 . S
C516 H520 0.930 . S
C517 C516 1.369 . S
C517 C526 1.429 . S
C518 C516 1.419 . S
C518 C519 1.363 . S
C518 H521 0.929 . S
C519 C518 1.363 . S
C519 C525 1.428 . S
H520 C516 0.930 . S
H521 C518 0.929 . S
S522 N523 1.613 . S
S522 N524 1.610 . S
N523 S522 1.613 . S
N523 C526 1.350 . S
N524 S522 1.610 . S
N524 C525 1.351 . S
C525 C519 1.428 . S
C525 N524 1.351 . S
C525 C526 1.434 . S
C526 C517 1.429 . S
C526 N523 1.350 . S
C526 C525 1.434 . S
C527 C528 1.369 . S
C527 C529 1.419 1_545 S
C527 H531 0.930 . S
C528 C527 1.369 . S
C528 C537 1.429 . S
C529 C527 1.419 1_565 S
C529 C530 1.363 . S
C529 H532 0.929 . S
C530 C529 1.363 . S
C530 C536 1.428 . S
H531 C527 0.930 . S
H532 C529 0.929 . S
S533 N534 1.613 1_565 S
S533 N535 1.610 . S
N534 S533 1.613 1_545 S
N534 C537 1.350 . S
N535 S533 1.610 . S
N535 C536 1.351 . S
C536 C530 1.428 . S
C536 N535 1.351 . S
C536 C537 1.434 1_565 S
C537 C528 1.429 . S
C537 N534 1.350 . S
C537 C536 1.434 1_545 S
C538 C539 1.369 1_545 S
C538 C540 1.419 1_655 S
C538 H542 0.930 . S
C539 C538 1.369 1_565 S
C539 C548 1.429 . S
C540 C538 1.419 1_455 S
C540 C541 1.363 . S
C540 H543 0.929 . S
C541 C540 1.363 . S
C541 C547 1.428 1_545 S
H542 C538 0.930 . S
H543 C540 0.929 . S
S544 N545 1.613 1_455 S
S544 N546 1.610 . S
N545 S544 1.613 1_655 S
N545 C548 1.350 . S
N546 S544 1.610 . S
N546 C547 1.351 . S
C547 C541 1.428 1_565 S
C547 N546 1.351 . S
C547 C548 1.434 1_455 S
C548 C539 1.429 . S
C548 N545 1.350 . S
C548 C547 1.434 1_655 S
C549 C550 1.369 . S
C549 C551 1.419 . S
C549 H553 0.930 . S
C550 C549 1.369 . S
C550 C559 1.429 1_655 S
C551 C549 1.419 . S
C551 C552 1.363 1_655 S
C551 H554 0.929 . S
C552 C551 1.363 1_455 S
C552 C558 1.428 . S
H553 C549 0.930 . S
H554 C551 0.929 . S
S555 N556 1.613 . S
S555 N557 1.610 . S
N556 S555 1.613 . S
N556 C559 1.350 . S
N557 S555 1.610 . S
N557 C558 1.351 . S
C558 C552 1.428 . S
C558 N557 1.351 . S
C558 C559 1.434 . S
C559 C550 1.429 1_455 S
C559 N556 1.350 . S
C559 C558 1.434 . S
C209 C60 1.177 . S
C211 C8 1.167 . S
C220 C21 1.168 . S
C222 C73 1.178 . S
C231 C86 1.179 . S
C233 C34 1.168 . S
C242 C99 1.170 . S
C244 C47 1.168 . S
C253 C164 1.166 . S
C255 C112 1.177 . S
C264 C125 1.166 . S
C266 C177 1.173 . S
C275 C190 1.179 . S
C277 C138 1.169 . S
C286 C151 1.179 . S
C288 C203 1.174 . S
C297 C10 1.341 . S
C299 C205 1.341 . S
C308 C23 1.341 . S
C310 C166 1.341 . S
C319 C36 1.342 . S
C321 C179 1.342 . S
C330 C192 1.342 . S
C332 C49 1.342 . S
C341 C62 1.342 . S
C343 C127 1.342 . S
C352 C75 1.341 . S
C354 C140 1.341 . S
C363 C153 1.341 . S
C365 C88 1.341 . S
C374 C114 1.342 . S
C376 C101 1.342 . S
C385 C0 1.472 . S
C387 C130 1.470 . S
C396 C143 1.477 . S
C398 C13 1.474 . S
C407 C26 1.477 . S
C409 C104 1.475 . S
C418 C117 1.477 . S
C420 C39 1.475 . S
C429 C52 1.477 . S
C431 C182 1.475 . S
C440 C65 1.477 . S
C442 C195 1.474 . S
C451 C156 1.476 . S
C453 C78 1.472 . S
C462 C169 1.470 . S
C464 C91 1.471 . S
C473 C135 1.447 . S
C475 C5 1.442 . S
C484 C18 1.448 . S
C486 C148 1.440 . S
C495 C31 1.441 . S
C497 C109 1.446 . S
C506 C122 1.437 . S
C508 C44 1.446 . S
C517 C187 1.438 . S
C519 C57 1.446 . S
C528 C200 1.438 . S
C530 C70 1.446 . S
C539 C161 1.437 . S
C541 C83 1.445 . S
C550 C96 1.445 . S
C552 C174 1.438 . S
