# Generated by pormake.
# Topology lcy-e, (6)-cn, num edge types: 1
# Building blocks:
#     Node 0, Type 0, BuildingBlock: VOLQOD_clean_sbu_1, # of connection points: 6
#     Node 1, Type 0, BuildingBlock: VOLQOD_clean_sbu_1, # of connection points: 6
#     Node 2, Type 0, BuildingBlock: VOLQOD_clean_sbu_1, # of connection points: 6
#     Node 3, Type 0, BuildingBlock: VOLQOD_clean_sbu_1, # of connection points: 6
#     Node 4, Type 0, BuildingBlock: VOLQOD_clean_sbu_1, # of connection points: 6
#     Node 5, Type 0, BuildingBlock: VOLQOD_clean_sbu_1, # of connection points: 6
#     Node 6, Type 0, BuildingBlock: VOLQOD_clean_sbu_1, # of connection points: 6
#     Node 7, Type 0, BuildingBlock: VOLQOD_clean_sbu_1, # of connection points: 6
#     Node 8, Type 0, BuildingBlock: VOLQOD_clean_sbu_1, # of connection points: 6
#     Node 9, Type 0, BuildingBlock: VOLQOD_clean_sbu_1, # of connection points: 6
#     Node 10, Type 0, BuildingBlock: VOLQOD_clean_sbu_1, # of connection points: 6
#     Node 11, Type 0, BuildingBlock: VOLQOD_clean_sbu_1, # of connection points: 6
#     Edge 12, Type (0, 0), BuildingBlock: OJICUG_clean_linker_0, # of connection points: 2
#     Edge 13, Type (0, 0), BuildingBlock: OJICUG_clean_linker_0, # of connection points: 2
#     Edge 14, Type (0, 0), BuildingBlock: OJICUG_clean_linker_0, # of connection points: 2
#     Edge 15, Type (0, 0), BuildingBlock: OJICUG_clean_linker_0, # of connection points: 2
#     Edge 16, Type (0, 0), BuildingBlock: OJICUG_clean_linker_0, # of connection points: 2
#     Edge 17, Type (0, 0), BuildingBlock: OJICUG_clean_linker_0, # of connection points: 2
#     Edge 18, Type (0, 0), BuildingBlock: OJICUG_clean_linker_0, # of connection points: 2
#     Edge 19, Type (0, 0), BuildingBlock: OJICUG_clean_linker_0, # of connection points: 2
#     Edge 20, Type (0, 0), BuildingBlock: OJICUG_clean_linker_0, # of connection points: 2
#     Edge 21, Type (0, 0), BuildingBlock: OJICUG_clean_linker_0, # of connection points: 2
#     Edge 22, Type (0, 0), BuildingBlock: OJICUG_clean_linker_0, # of connection points: 2
#     Edge 23, Type (0, 0), BuildingBlock: OJICUG_clean_linker_0, # of connection points: 2
#     Edge 24, Type (0, 0), BuildingBlock: OJICUG_clean_linker_0, # of connection points: 2
#     Edge 25, Type (0, 0), BuildingBlock: OJICUG_clean_linker_0, # of connection points: 2
#     Edge 26, Type (0, 0), BuildingBlock: OJICUG_clean_linker_0, # of connection points: 2
#     Edge 27, Type (0, 0), BuildingBlock: OJICUG_clean_linker_0, # of connection points: 2
#     Edge 28, Type (0, 0), BuildingBlock: OJICUG_clean_linker_0, # of connection points: 2
#     Edge 29, Type (0, 0), BuildingBlock: OJICUG_clean_linker_0, # of connection points: 2
#     Edge 30, Type (0, 0), BuildingBlock: OJICUG_clean_linker_0, # of connection points: 2
#     Edge 31, Type (0, 0), BuildingBlock: OJICUG_clean_linker_0, # of connection points: 2
#     Edge 32, Type (0, 0), BuildingBlock: OJICUG_clean_linker_0, # of connection points: 2
#     Edge 33, Type (0, 0), BuildingBlock: OJICUG_clean_linker_0, # of connection points: 2
#     Edge 34, Type (0, 0), BuildingBlock: OJICUG_clean_linker_0, # of connection points: 2
#     Edge 35, Type (0, 0), BuildingBlock: OJICUG_clean_linker_0, # of connection points: 2
#     Edge 36, Type (0, 0), BuildingBlock: OJICUG_clean_linker_0, # of connection points: 2
#     Edge 37, Type (0, 0), BuildingBlock: OJICUG_clean_linker_0, # of connection points: 2
#     Edge 38, Type (0, 0), BuildingBlock: OJICUG_clean_linker_0, # of connection points: 2
#     Edge 39, Type (0, 0), BuildingBlock: OJICUG_clean_linker_0, # of connection points: 2
#     Edge 40, Type (0, 0), BuildingBlock: OJICUG_clean_linker_0, # of connection points: 2
#     Edge 41, Type (0, 0), BuildingBlock: OJICUG_clean_linker_0, # of connection points: 2
#     Edge 42, Type (0, 0), BuildingBlock: OJICUG_clean_linker_0, # of connection points: 2
#     Edge 43, Type (0, 0), BuildingBlock: OJICUG_clean_linker_0, # of connection points: 2
#     Edge 44, Type (0, 0), BuildingBlock: OJICUG_clean_linker_0, # of connection points: 2
#     Edge 45, Type (0, 0), BuildingBlock: OJICUG_clean_linker_0, # of connection points: 2
#     Edge 46, Type (0, 0), BuildingBlock: OJICUG_clean_linker_0, # of connection points: 2
#     Edge 47, Type (0, 0), BuildingBlock: OJICUG_clean_linker_0, # of connection points: 2
# Relax obj value: 0.403
# Max RMSD: 0.290
# Mean RMSD: 0.282
data_MOF--net-lcy-e--node1-VOLQOD_clean_sbu_1--edge1-OJICUG_clean_linker_0
_symmetry_space_group_name_H-M    P1
_symmetry_Int_Tables_number       1
_symmetry_cell_setting            triclinic
loop_
_symmetry_equiv_pos_as_xyz
'x, y, z'
_cell_length_a     28.9178
_cell_length_b     29.03523
_cell_length_c     28.830809
_cell_angle_alpha  89.94755
_cell_angle_beta   89.957163
_cell_angle_gamma 90.289959
loop_
_atom_site_label
_atom_site_type_symbol
_atom_site_fract_x
_atom_site_fract_y
_atom_site_fract_z
_atom_type_partial_charge
O0 O 0.24328 0.14608 0.41903 0.0
Zn1 Zn 0.20242 0.15505 0.47544 0.0
O2 O 0.14162 0.17543 0.45491 0.0
Zn3 Zn 0.12815 0.23444 0.47895 0.0
Zn4 Zn 0.13587 0.17489 0.3898 0.0
Zn5 Zn 0.09346 0.13716 0.47611 0.0
O6 O 0.09977 0.22784 0.54268 0.0
O7 O 0.07024 0.15724 0.53871 0.0
O8 O 0.2348 0.20841 0.51049 0.0
O9 O 0.18769 0.26459 0.48794 0.0
O10 O 0.09445 0.27511 0.43329 0.0
O11 O 0.11079 0.23496 0.36975 0.0
O12 O 0.0922 0.12656 0.36741 0.0
O13 O 0.19537 0.09175 0.50775 0.0
O14 O 0.04416 0.12759 0.42754 0.0
O15 O 0.1223 0.07749 0.48687 0.0
C16 C 0.2364 0.15407 0.37611 0.0
C17 C 0.07846 0.19401 0.56134 0.0
C18 C 0.09429 0.27055 0.3893 0.0
C19 C 0.2262 0.25121 0.50391 0.0
C20 C 0.05312 0.11755 0.38545 0.0
C21 C 0.16108 0.06409 0.50243 0.0
O22 O 0.19708 0.16636 0.36096 0.0
O23 O 0.04574 0.71911 0.63584 0.0
Zn24 Zn -0.00192 0.76705 0.65252 0.0
O25 O 0.03059 0.8254 0.65854 0.0
Zn26 Zn 0.01421 0.85564 0.71454 0.0
Zn27 Zn 0.09602 0.82225 0.65184 0.0
Zn28 Zn 0.00879 0.86014 0.60803 0.0
O29 O 0.96225 0.89995 0.70235 0.0
O30 O 0.94855 0.89086 0.62684 0.0
O31 O 0.96951 0.74874 0.71498 0.0
O32 O 0.98906 0.80885 0.75859 0.0
O33 O 0.07021 0.8817 0.74663 0.0
O34 O 0.12493 0.84021 0.71178 0.0
O35 O 0.12135 0.86904 0.60714 0.0
O36 O 0.95027 0.77253 0.59967 0.0
O37 O 0.05702 0.9043 0.58478 0.0
O38 O -0.00349 0.81616 0.55739 0.0
C39 C 0.0893 0.72085 0.62864 0.0
C40 C 0.93706 0.90637 0.66658 0.0
C41 C 0.1118 0.8676 0.74363 0.0
C42 C 0.97154 0.76881 0.7544 0.0
C43 C 0.10095 0.90105 0.58532 0.0
C44 C 0.96142 0.79008 0.56054 0.0
O45 O 0.11261 0.75803 0.63305 0.0
O46 O 0.43667 0.8209 0.92515 0.0
Zn47 Zn 0.39252 0.78635 0.96855 0.0
O48 O 0.33119 0.81543 0.96886 0.0
Zn49 Zn 0.30776 0.82432 0.03114 0.0
Zn50 Zn 0.33404 0.87328 0.93638 0.0
Zn51 Zn 0.2868 0.77836 0.93734 0.0
O52 O 0.25406 0.7814 0.04743 0.0
O53 O 0.24668 0.74453 0.98066 0.0
O54 O 0.41711 0.78045 0.03547 0.0
O55 O 0.35617 0.80525 0.07504 0.0
O56 O 0.29998 0.89179 0.04544 0.0
O57 O 0.33409 0.92334 0.98356 0.0
O58 O 0.27971 0.88357 0.89427 0.0
O59 O 0.38775 0.72367 0.93798 0.0
O60 O 0.24577 0.81486 0.89644 0.0
O61 O 0.31904 0.72955 0.90322 0.0
C62 C 0.42924 0.85366 0.89656 0.0
C63 C 0.23601 0.74945 0.02295 0.0
C64 C 0.31711 0.92653 0.02425 0.0
C65 C 0.39689 0.78924 0.07398 0.0
C66 C 0.24717 0.85638 0.88271 0.0
C67 C 0.35703 0.70876 0.91 0.0
O68 O 0.39125 0.8757 0.89698 0.0
O69 O 0.41927 0.07759 0.14722 0.0
Zn70 Zn 0.45763 0.1208 0.18662 0.0
O71 O 0.46796 0.17811 0.15261 0.0
Zn72 Zn 0.53302 0.19151 0.14446 0.0
Zn73 Zn 0.43609 0.17783 0.0947 0.0
Zn74 Zn 0.44201 0.22732 0.18598 0.0
O75 O 0.55515 0.24165 0.18934 0.0
O76 O 0.48898 0.2544 0.22632 0.0
O77 O 0.51901 0.09093 0.20397 0.0
O78 O 0.56787 0.13888 0.16898 0.0
O79 O 0.55115 0.19185 0.07582 0.0
O80 O 0.48345 0.16973 0.04646 0.0
O81 O 0.39911 0.23508 0.0826 0.0
O82 O 0.41732 0.13192 0.24294 0.0
O83 O 0.41553 0.27566 0.14559 0.0
O84 O 0.39261 0.20255 0.22652 0.0
C85 C 0.39393 0.08476 0.11176 0.0
C86 C 0.53248 0.25898 0.22315 0.0
C87 C 0.52671 0.17651 0.04216 0.0
C88 C 0.56008 0.10278 0.19257 0.0
C89 C 0.3971 0.27225 0.10578 0.0
C90 C 0.38958 0.16526 0.24955 0.0
O91 O 0.39482 0.12302 0.09024 0.0
O92 O 0.69357 0.20925 0.48777 0.0
Zn93 Zn 0.634 0.23945 0.49511 0.0
O94 O 0.64763 0.29889 0.51774 0.0
Zn95 Zn 0.64382 0.29916 0.58254 0.0
Zn96 Zn 0.7073 0.31959 0.49456 0.0
Zn97 Zn 0.60087 0.33805 0.49639 0.0
O98 O 0.59529 0.34051 0.60586 0.0
O99 O 0.55023 0.34725 0.54391 0.0
O100 O 0.60057 0.19952 0.54189 0.0
O101 O 0.62659 0.23674 0.60427 0.0
O102 O 0.70237 0.32068 0.60908 0.0
O103 O 0.74559 0.34166 0.54868 0.0
O104 O 0.69694 0.37505 0.45188 0.0
O105 O 0.60642 0.24535 0.43118 0.0
O106 O 0.63116 0.39787 0.48506 0.0
O107 O 0.57951 0.3169 0.43365 0.0
C108 C 0.73356 0.22215 0.47501 0.0
C109 C 0.55746 0.35222 0.58725 0.0
C110 C 0.73894 0.33848 0.59226 0.0
C111 C 0.60664 0.20221 0.58565 0.0
C112 C 0.66662 0.40592 0.46017 0.0
C113 C 0.58695 0.27961 0.41167 0.0
O114 O 0.74339 0.26462 0.4681 0.0
O115 O 0.9428 0.20476 0.85781 0.0
Zn116 Zn -0.00971 0.25356 0.83937 0.0
O117 O 0.95628 0.30582 0.81721 0.0
Zn118 Zn 0.97172 0.31231 0.755 0.0
Zn119 Zn 0.89237 0.30429 0.8264 0.0
Zn120 Zn 0.97359 0.36077 0.84449 0.0
O121 O 0.03334 0.34453 0.75056 0.0
O122 O 0.03022 0.38587 0.81513 0.0
O123 O 0.02951 0.22859 0.7842 0.0
O124 O 0.97909 0.2499 0.73053 0.0
O125 O 0.92098 0.34232 0.72017 0.0
O126 O 0.86275 0.32029 0.76599 0.0
O127 O 0.87046 0.35249 0.87093 0.0
O128 O 0.02519 0.27476 0.89817 0.0
O129 O 0.92135 0.40537 0.8488 0.0
O130 O -0.00813 0.34357 0.90676 0.0
C131 C 0.89874 0.20655 0.86082 0.0
C132 C 0.05133 0.37335 0.77863 0.0
C133 C 0.87792 0.33851 0.72862 0.0
C134 C 0.01301 0.22542 0.74303 0.0
C135 C 0.88299 0.39437 0.86752 0.0
C136 C 0.01581 0.31048 0.9225 0.0
O137 O 0.87603 0.24235 0.84954 0.0
O138 O 0.91125 0.65227 0.06365 0.0
Zn139 Zn 0.8688 0.68922 0.02245 0.0
O140 O 0.80917 0.65744 0.01522 0.0
Zn141 Zn 0.79457 0.6496 0.95014 0.0
Zn142 Zn 0.80977 0.59878 0.0476 0.0
Zn143 Zn 0.76022 0.69297 0.04136 0.0
O144 O 0.74151 0.68969 0.92863 0.0
O145 O 0.72411 0.72548 -0.00596 0.0
O146 O 0.89848 0.70326 0.9595 0.0
O147 O 0.84736 0.67165 0.91155 0.0
O148 O 0.78831 0.58294 0.93459 0.0
O149 O 0.81109 0.54857 -0.00015 0.0
O150 O 0.75384 0.58938 0.08886 0.0
O151 O 0.86083 0.74756 0.05906 0.0
O152 O 0.71669 0.6553 0.07862 0.0
O153 O 0.78704 0.7418 0.08046 0.0
C154 C 0.90428 0.61745 0.08977 0.0
C155 C 0.71901 0.72028 0.95074 0.0
C156 C 0.80004 0.54702 0.95705 0.0
C157 C 0.88528 0.6928 0.91853 0.0
C158 C 0.71906 0.61515 0.09584 0.0
C159 C 0.82625 0.7617 0.08225 0.0
O160 O 0.86658 0.59457 0.08792 0.0
O161 O 0.55973 0.55312 0.34762 0.0
Zn162 Zn 0.51799 0.59308 0.30895 0.0
O163 O 0.51786 0.65386 0.33536 0.0
Zn164 Zn 0.45724 0.68014 0.33744 0.0
Zn165 Zn 0.54648 0.65564 0.39475 0.0
Zn166 Zn 0.5557 0.68993 0.29701 0.0
O167 O 0.44932 0.72739 0.2847 0.0
O168 O 0.51668 0.71793 0.24876 0.0
O169 O 0.4518 0.56825 0.30396 0.0
O170 O 0.41193 0.63089 0.32226 0.0
O171 O 0.43967 0.69495 0.40438 0.0
O172 O 0.49595 0.65652 0.44044 0.0
O173 O 0.58276 0.71355 0.40537 0.0
O174 O 0.55044 0.59426 0.24672 0.0
O175 O 0.58466 0.74072 0.33341 0.0
O176 O 0.60097 0.64956 0.26451 0.0
C177 C 0.58691 0.56154 0.38146 0.0
C178 C 0.47563 0.73326 0.24932 0.0
C179 C 0.45684 0.67648 0.44085 0.0
C180 C 0.41329 0.58877 0.3105 0.0
C181 C 0.59298 0.74504 0.37652 0.0
C182 C 0.58905 0.61473 0.24041 0.0
O183 O 0.5865 0.60009 0.40259 0.0
O184 O 0.11979 0.44887 0.25713 0.0
Zn185 Zn 0.14442 0.49955 0.21525 0.0
O186 O 0.16086 0.47129 0.15649 0.0
Zn187 Zn 0.22041 0.49088 0.14003 0.0
Zn188 Zn 0.16181 0.40616 0.15723 0.0
Zn189 Zn 0.12104 0.49207 0.10907 0.0
O190 O 0.21625 0.55247 0.11036 0.0
O191 O 0.14565 0.55119 0.08004 0.0
O192 O 0.20358 0.5256 0.2469 0.0
O193 O 0.25576 0.49916 0.197 0.0
O194 O 0.25454 0.44358 0.10367 0.0
O195 O 0.22496 0.38314 0.14129 0.0
O196 O 0.12317 0.37966 0.10713 0.0
O197 O 0.09064 0.54495 0.20334 0.0
O198 O 0.10469 0.44099 0.06471 0.0
O199 O 0.06352 0.51044 0.13973 0.0
C200 C 0.1192 0.40511 0.253 0.0
C201 C 0.18393 0.57178 0.08778 0.0
C202 C 0.25487 0.40096 0.11401 0.0
C203 C 0.24554 0.51644 0.23603 0.0
C204 C 0.1055 0.39754 0.07121 0.0
C205 C 0.05837 0.53771 0.17373 0.0
O206 O 0.13596 0.38477 0.21761 0.0
O207 O 0.76749 0.96452 0.78125 0.0
Zn208 Zn 0.72909 0.97595 0.83576 0.0
O209 O 0.67298 -0.00116 0.81403 0.0
Zn210 Zn 0.6761 0.0632 0.81462 0.0
Zn211 Zn 0.65893 0.97076 0.75433 0.0
Zn212 Zn 0.62464 0.98028 0.8536 0.0
O213 O 0.6401 0.09048 0.86714 0.0
O214 O 0.60773 0.02899 0.89992 0.0
O215 O 0.76493 0.02353 0.87137 0.0
O216 O 0.74101 0.08222 0.82748 0.0
O217 O 0.64925 0.0849 0.75492 0.0
O218 O 0.63193 0.02147 0.7143 0.0
O219 O 0.60829 0.92111 0.76776 0.0
O220 O 0.71641 0.91577 0.86616 0.0
O221 O 0.57139 0.97079 0.81202 0.0
O222 O 0.64083 0.91841 0.88147 0.0
C223 C 0.76102 0.95404 0.73905 0.0
C224 C 0.61576 0.07218 0.89893 0.0
C225 C 0.63161 0.06517 0.71948 0.0
C226 C 0.76916 0.06474 0.85659 0.0
C227 C 0.57159 0.9335 0.78924 0.0
C228 C 0.67932 0.89713 0.88121 0.0
O229 O 0.72014 0.94982 0.7224 0.0
O230 O 0.83381 0.9085 0.43446 0.0
Zn231 Zn 0.79194 0.95326 0.40195 0.0
O232 O 0.80765 0.95374 0.33689 0.0
Zn233 Zn 0.81201 0.01403 0.31063 0.0
Zn234 Zn 0.86416 0.92198 0.32481 0.0
Zn235 Zn 0.76021 0.92368 0.30516 0.0
O236 O 0.75789 0.02916 0.26838 0.0
O237 O 0.71416 0.96757 0.28126 0.0
O238 O 0.79653 0.01878 0.42741 0.0
O239 O 0.80857 0.05826 0.3623 0.0
O240 O 0.87514 0.02616 0.28475 0.0
O241 O 0.91296 0.97066 0.32186 0.0
O242 O 0.86144 0.88888 0.26329 0.0
O243 O 0.72831 0.92464 0.41198 0.0
O244 O 0.78562 0.89078 0.25147 0.0
O245 O 0.72693 0.88267 0.3473 0.0
C246 C 0.86276 0.87874 0.42001 0.0
C247 C 0.71933 0.00783 0.26492 0.0
C248 C 0.91227 0.00978 0.3018 0.0
C249 C 0.80349 0.05685 0.40602 0.0
C250 C 0.82612 0.8801 0.23838 0.0
C251 C 0.7119 0.89176 0.38764 0.0
O252 O 0.87665 0.87832 0.37794 0.0
O253 O 0.33258 0.5572 0.57327 0.0
Zn254 Zn 0.29144 0.5124 0.60691 0.0
O255 O 0.31312 0.50604 0.67024 0.0
Zn256 Zn 0.31901 0.4422 0.68756 0.0
Zn257 Zn 0.37199 0.53578 0.6784 0.0
Zn258 Zn 0.27075 0.53365 0.71153 0.0
O259 O 0.26707 0.42039 0.72904 0.0
O260 O 0.23067 0.48663 0.73957 0.0
O261 O 0.28978 0.4497 0.57435 0.0
O262 O 0.31148 0.40399 0.63197 0.0
O263 O 0.38326 0.42682 0.70729 0.0
O264 O 0.41906 0.48643 0.6742 0.0
O265 O 0.37728 0.56732 0.74033 0.0
O266 O 0.22956 0.54468 0.60565 0.0
O267 O 0.30365 0.56608 0.76224 0.0
O268 O 0.22797 0.57429 0.67704 0.0
C269 C 0.36497 0.58414 0.58631 0.0
C270 C 0.23304 0.44335 0.74463 0.0
C271 C 0.41928 0.44541 0.68979 0.0
C272 C 0.29995 0.40977 0.59 0.0
C273 C 0.34581 0.57628 0.76981 0.0
C274 C 0.21199 0.57125 0.63605 0.0
O275 O 0.38262 0.58126 0.62673 0.0
C276 C 0.25519 0.33125 0.49646 0.0
C277 C 0.258 0.28811 0.51872 0.0
H278 H 0.26641 0.40394 0.50145 0.0
C279 C 0.28348 0.28428 0.55972 0.0
H280 H 0.23636 0.33494 0.46419 0.0
C281 C 0.30095 0.32397 0.58099 0.0
C282 C 0.29288 0.36793 0.56159 0.0
H283 H 0.28631 0.25148 0.57742 0.0
H284 H 0.31768 0.32038 0.61439 0.0
C285 C 0.27235 0.37086 0.51775 0.0
C286 C 0.84318 0.97326 0.72416 0.0
C287 C 0.80332 0.94868 0.71054 0.0
H288 H 0.91674 0.97938 0.72027 0.0
C289 C 0.80702 0.91608 0.67478 0.0
H290 H 0.8414 -0.00059 0.75091 0.0
C291 C 0.85078 0.9052 0.65645 0.0
C292 C 0.89097 0.92669 0.67397 0.0
H293 H 0.77693 0.89675 0.66354 0.0
H294 H 0.85353 0.87739 0.63161 0.0
C295 C 0.88643 0.96214 0.70642 0.0
C296 C 0.22731 0.69447 0.08819 0.0
C297 C 0.21169 0.71052 0.04512 0.0
H298 H 0.23159 0.63724 0.13464 0.0
C299 C 0.18186 0.68249 0.01863 0.0
H300 H 0.25074 0.715 0.10906 0.0
C301 C 0.17068 0.63787 0.03338 0.0
C302 C 0.19018 0.62036 0.07421 0.0
H303 H 0.16958 0.69403 0.9851 0.0
H304 H 0.14927 0.61621 0.01152 0.0
C305 C 0.21709 0.6496 0.10232 0.0
C306 C 0.59549 0.03424 0.23183 0.0
C307 C 0.6006 0.07657 0.20894 0.0
H308 H 0.62916 0.97903 0.2671 0.0
C309 C 0.64536 0.09513 0.20291 0.0
H310 H 0.56158 0.01904 0.23694 0.0
C311 C 0.68399 0.07253 0.22038 0.0
C312 C 0.67888 0.03061 0.24392 0.0
H313 H 0.65069 0.12778 0.18546 0.0
H314 H 0.71778 0.08817 0.21582 0.0
C315 C 0.6343 0.01135 0.24897 0.0
C316 C 0.7913 0.18464 0.42355 0.0
C317 C 0.76644 0.18509 0.46514 0.0
H318 H 0.82366 0.14275 0.37221 0.0
C319 C 0.76403 0.14481 0.49226 0.0
H320 H 0.79368 0.21528 0.40219 0.0
C321 C 0.78053 0.10318 0.4751 0.0
C322 C 0.79961 0.10134 0.43049 0.0
H323 H 0.74546 0.14466 0.52494 0.0
H324 H 0.77445 0.07203 0.49495 0.0
C325 C 0.80791 0.1429 0.40631 0.0
C326 C 0.11603 0.42706 0.79729 0.0
C327 C 0.09916 0.38947 0.77163 0.0
H328 H 0.17277 0.47286 0.80969 0.0
C329 C 0.12926 0.36586 0.74175 0.0
H330 H 0.09387 0.44557 0.82109 0.0
C331 C 0.17496 0.38073 0.73635 0.0
C332 C 0.19086 0.41984 0.76018 0.0
H333 H 0.11743 0.33627 0.72218 0.0
H334 H 0.19684 0.36345 0.71137 0.0
C335 C 0.16134 0.44229 0.79136 0.0
C336 C 0.70942 0.81847 0.86877 0.0
C337 C 0.68096 0.84829 0.89423 0.0
H338 H 0.74177 0.75265 0.86557 0.0
C339 C 0.65643 0.83134 0.93256 0.0
H340 H 0.72766 0.83056 0.83821 0.0
C341 C 0.66475 0.78663 0.94848 0.0
C342 C 0.69681 0.75824 0.9255 0.0
H343 H 0.63364 0.85359 0.95211 0.0
H344 H 0.64887 0.77552 0.98068 0.0
C345 C 0.7168 0.77356 0.88391 0.0
C346 C 0.32645 0.58793 0.30889 0.0
C347 C 0.36877 0.56523 0.30065 0.0
H348 H 0.25341 0.58978 0.29548 0.0
C349 C 0.36799 0.52217 0.2788 0.0
H350 H 0.3257 0.62092 0.32639 0.0
C351 C 0.32654 0.50438 0.26155 0.0
C352 C 0.285 0.52919 0.26588 0.0
H353 H 0.39969 0.50348 0.27245 0.0
H354 H 0.32751 0.47242 0.2422 0.0
C355 C 0.28485 0.56999 0.29169 0.0
C356 C 0.58938 0.24382 0.28528 0.0
C357 C 0.5561 0.27317 0.26598 0.0
H358 H 0.62397 0.22172 0.34698 0.0
C359 C 0.53574 0.30699 0.29408 0.0
H360 H 0.60473 0.21669 0.26466 0.0
C361 C 0.54636 0.30965 0.34125 0.0
C362 C 0.57685 0.27789 0.36141 0.0
H363 H 0.50934 0.32944 0.28014 0.0
H364 H 0.52912 0.33527 0.36228 0.0
C365 C 0.59937 0.24589 0.33268 0.0
C366 C 0.0911 0.22468 0.64152 0.0
C367 C 0.06602 0.19612 0.61108 0.0
H368 H 0.09546 0.25363 0.70977 0.0
C369 C 0.02961 0.16918 0.62885 0.0
H370 H 0.12005 0.24505 0.62907 0.0
C371 C 0.01574 0.17409 0.67506 0.0
C372 C 0.03891 0.20493 0.70461 0.0
H373 H 0.01007 0.14641 0.60638 0.0
H374 H 0.98469 0.15652 0.68673 0.0
C375 C 0.07791 0.22867 0.68803 0.0
C376 C 0.96402 0.76345 0.84087 0.0
C377 C 0.95283 0.74613 0.79659 0.0
H378 H 0.95223 0.75974 0.91418 0.0
C379 C 0.92253 0.70839 0.79334 0.0
H380 H 0.98774 0.79219 0.84471 0.0
C381 C 0.90207 0.68994 0.83327 0.0
C382 C 0.91185 0.70846 0.87739 0.0
H383 H 0.91338 0.69409 0.75988 0.0
H384 H 0.87766 0.66178 0.82941 0.0
C385 C 0.94397 0.74466 0.88083 0.0
C386 C 0.48387 0.75117 0.16457 0.0
C387 C 0.45729 0.7531 0.20566 0.0
H388 H 0.4858 0.76062 0.09079 0.0
C389 C 0.41205 0.76991 0.20322 0.0
H390 H 0.51897 0.73834 0.16504 0.0
C391 C 0.39326 0.78288 0.16058 0.0
C392 C 0.41908 0.77897 0.11918 0.0
H393 H 0.39066 0.77187 0.23401 0.0
H394 H 0.3578 0.79472 0.16005 0.0
C395 C 0.4649 0.76374 0.12181 0.0
C396 C 0.09822 0.35446 0.37148 0.0
C397 C 0.08383 0.30984 0.35898 0.0
H398 H 0.12109 0.42056 0.34676 0.0
C399 C 0.07153 0.30087 0.31278 0.0
H400 H 0.10811 0.36215 0.40688 0.0
C401 C 0.07975 0.3337 0.27861 0.0
C402 C 0.09976 0.37625 0.29018 0.0
H403 H 0.05984 0.26689 0.30238 0.0
H404 H 0.07345 0.32457 0.24272 0.0
C405 C 0.10609 0.38769 0.33708 0.0
C406 C 0.88509 0.81522 0.53236 0.0
C407 C 0.9279 0.79488 0.52272 0.0
H408 H 0.83106 0.85869 0.5073 0.0
C409 C 0.9446 0.79514 0.47695 0.0
H410 H 0.8719 0.8161 0.56753 0.0
C411 C 0.92162 0.81987 0.4425 0.0
C412 C 0.88182 0.84515 0.45348 0.0
H413 H 0.97788 0.7801 0.46892 0.0
H414 H 0.9371 0.82207 0.40834 0.0
C415 C 0.86233 0.84047 0.49803 0.0
C416 C 0.32506 0.60128 0.84915 0.0
C417 C 0.35692 0.60183 0.8124 0.0
H418 H 0.30124 0.63511 0.91031 0.0
C419 C 0.39553 0.6314 0.81459 0.0
H420 H 0.29553 0.57815 0.84889 0.0
C421 C 0.39903 0.66376 0.85038 0.0
C422 C 0.36404 0.66637 0.88393 0.0
H423 H 0.42073 0.63221 0.78679 0.0
H424 H 0.42641 0.68936 0.84926 0.0
C425 C 0.32851 0.63347 0.88454 0.0
C426 C 0.59613 0.16332 0.9907 0.0
C427 C 0.54919 0.15579 0.0011 0.0
H428 H 0.65423 0.14281 0.94895 0.0
C429 C 0.52441 0.1224 0.97561 0.0
H430 H 0.61615 0.18853 0.00985 0.0
C431 C 0.54642 0.09537 0.94268 0.0
C432 C 0.59335 0.10198 0.93319 0.0
H433 H 0.48827 0.11525 0.98263 0.0
H434 H 0.52671 0.06903 0.92469 0.0
C435 C 0.6179 0.13704 0.95626 0.0
C436 C 0.58624 0.17129 0.66253 0.0
C437 C 0.59697 0.16269 0.61592 0.0
H438 H 0.58864 0.14641 0.7321 0.0
C439 C 0.6097 0.11806 0.60232 0.0
H440 H 0.57593 0.20537 0.6737 0.0
C441 C 0.61717 0.08409 0.63599 0.0
C442 C 0.61209 0.09485 0.68322 0.0
H443 H 0.61843 0.11079 0.56653 0.0
H444 H 0.63091 0.05108 0.62543 0.0
C445 C 0.59387 0.13769 0.69594 0.0
C446 C 0.03406 0.37023 0.03419 0.0
C447 C 0.08203 0.36738 0.03836 0.0
H448 H 0.97464 0.35074 -0.00487 0.0
C449 C 0.10697 0.33674 0.01032 0.0
H450 H 0.01433 0.39295 0.05641 0.0
C451 C 0.08437 0.31268 0.97479 0.0
C452 C 0.03678 0.31892 0.96795 0.0
H453 H 0.14414 0.33383 0.01391 0.0
H454 H 0.10458 0.29276 0.95042 0.0
C455 C 0.01148 0.3456 -0.00033 0.0
C456 C 0.87093 0.83157 0.18227 0.0
C457 C 0.83086 0.85631 0.19367 0.0
H458 H 0.90116 0.78183 0.13646 0.0
C459 C 0.793 0.85564 0.16317 0.0
H460 H 0.90076 0.83195 0.20496 0.0
C461 C 0.7933 0.82737 0.12448 0.0
C462 C 0.83157 0.79952 0.11528 0.0
H463 H 0.76205 0.8753 0.1703 0.0
H464 H 0.76253 0.82541 0.1031 0.0
C465 C 0.8713 0.80325 0.14303 0.0
C466 C 0.36063 0.62691 0.51099 0.0
C467 C 0.38394 0.61784 0.55283 0.0
H468 H 0.36531 0.65505 0.44245 0.0
C469 C 0.42723 0.6385 0.56066 0.0
H470 H 0.32675 0.61226 0.50434 0.0
C471 C 0.44909 0.66317 0.5253 0.0
C472 C 0.42778 0.66805 0.48182 0.0
H473 H 0.44578 0.63279 0.59277 0.0
H474 H 0.48424 0.67513 0.53067 0.0
C475 C 0.3823 0.65215 0.4758 0.0
C476 C 0.31651 0.12992 0.35282 0.0
C477 C 0.27545 0.15389 0.34336 0.0
H478 H 0.38531 0.11401 0.32968 0.0
C479 C 0.27225 0.18022 0.30265 0.0
H480 H 0.31978 0.10937 0.38401 0.0
C481 C 0.30955 0.18361 0.27257 0.0
C482 C 0.35071 0.16008 0.28195 0.0
H483 H 0.24124 0.19936 0.29446 0.0
H484 H 0.30604 0.20467 0.24172 0.0
C485 C 0.35382 0.13252 0.32188 0.0
C486 C 0.13594 0.98386 0.49265 0.0
C487 C 0.16209 0.01599 0.51817 0.0
H488 H 0.09503 0.92231 0.49485 0.0
C489 C 0.17611 0.00489 0.56339 0.0
H490 H 0.12485 -0.00835 0.45761 0.0
C491 C 0.15941 0.96455 0.5845 0.0
C492 C 0.12832 0.93579 0.56056 0.0
H493 H 0.19574 0.02938 0.58386 0.0
H494 H 0.1673 0.95812 0.62066 0.0
C495 C 0.11854 0.94445 0.51393 0.0
C496 C 0.19087 0.88709 0.77057 0.0
C497 C 0.14439 0.87758 0.78107 0.0
H498 H 0.26046 0.88942 0.7961 0.0
C499 C 0.13124 0.86887 0.82706 0.0
H500 H 0.20154 0.89361 0.73512 0.0
C501 C 0.16492 0.86505 0.86139 0.0
C502 C 0.2117 0.87154 0.85024 0.0
H503 H 0.09559 0.86087 0.83564 0.0
H504 H 0.15476 0.85452 0.89602 0.0
C505 C 0.22438 0.88479 0.80526 0.0
C506 C 0.35792 0.00633 0.11806 0.0
C507 C 0.36579 0.04683 0.09248 0.0
H508 H 0.3345 0.93628 0.11651 0.0
C509 C 0.34965 0.04951 0.04657 0.0
H510 H 0.36942 0.00351 0.1537 0.0
C511 C 0.33 0.01107 0.02531 0.0
C512 C 0.32535 0.96956 0.04979 0.0
H513 H 0.35479 0.08036 0.02601 0.0
H514 H 0.32082 0.01307 0.98893 0.0
C515 C 0.33744 0.96805 0.09695 0.0
C516 C 0.85667 0.34935 0.64559 0.0
C517 C 0.84443 0.35097 0.69274 0.0
H518 H 0.83196 0.34431 0.57575 0.0
C519 C 0.79824 0.35824 0.7053 0.0
H520 H 0.89224 0.34416 0.63511 0.0
C521 C 0.76407 0.35856 0.67158 0.0
C522 C 0.7756 0.35136 0.62486 0.0
H523 H 0.78814 0.36074 0.74142 0.0
H524 H 0.72831 0.36125 0.68249 0.0
C525 C 0.82226 0.3495 0.61167 0.0
C526 C 0.84966 0.47258 0.86388 0.0
C527 C 0.85408 0.43057 0.88729 0.0
H528 H 0.82683 0.5422 0.86721 0.0
C529 C 0.8338 0.42483 0.93115 0.0
H530 H 0.86471 0.47739 0.82977 0.0
C531 C 0.81288 0.46218 0.95312 0.0
C532 C 0.81088 0.50512 0.93078 0.0
H533 H 0.83685 0.39249 0.94964 0.0
H534 H 0.80034 0.45811 0.98832 0.0
C535 C 0.82755 0.50941 0.88517 0.0
C536 C 0.69609 0.58659 0.17357 0.0
C537 C 0.68323 0.60174 0.12924 0.0
H538 H 0.67532 0.57959 0.24471 0.0
C539 C 0.63693 0.61317 0.12039 0.0
H540 H 0.73178 0.57829 0.18119 0.0
C541 C 0.60459 0.61276 0.1563 0.0
C542 C 0.6186 0.60204 0.20148 0.0
H543 H 0.62651 0.62526 0.08642 0.0
H544 H 0.56976 0.62464 0.14957 0.0
C545 C 0.66402 0.58751 0.20978 0.0
C546 C 0.66211 0.49013 0.46001 0.0
C547 C 0.66542 0.44919 0.43451 0.0
H548 H 0.63453 0.55817 0.4631 0.0
C549 C 0.64982 0.44808 0.38853 0.0
H550 H 0.67309 0.49121 0.49593 0.0
C551 C 0.62634 0.48582 0.37012 0.0
C552 C 0.61867 0.52519 0.39742 0.0
H553 H 0.65108 0.4164 0.36873 0.0
H554 H 0.61173 0.483 0.33565 0.0
C555 C 0.63924 0.52808 0.44146 0.0
C556 C 0.33872 0.38643 0.10597 0.0
C557 C 0.29302 0.37216 0.09823 0.0
H558 H 0.40891 0.36472 0.11425 0.0
C559 C 0.28394 0.32732 0.08261 0.0
H560 H 0.34622 0.42095 0.11821 0.0
C561 C 0.31985 0.29573 0.07877 0.0
C562 C 0.36477 0.3084 0.09214 0.0
H563 H 0.24875 0.31593 0.07633 0.0
H564 H 0.31156 0.26028 0.07029 0.0
C565 C 0.37445 0.35443 0.1036 0.0
C566 C 0.82774 0.17194 0.89348 0.0
C567 C 0.87171 0.16562 0.87387 0.0
H568 H 0.76029 0.14337 0.90381 0.0
C569 C 0.88493 0.12154 0.85903 0.0
H570 H 0.81702 0.2055 0.90579 0.0
C571 C 0.85233 0.08573 0.85839 0.0
C572 C 0.8068 0.09411 0.87278 0.0
H573 H 0.91866 0.11596 0.84373 0.0
H574 H 0.86135 0.05321 0.84242 0.0
C575 C 0.79539 0.13647 0.89265 0.0
C576 C 0.02013 0.60955 0.15078 0.0
C577 C 0.01665 0.56594 0.17147 0.0
H578 H 0.98735 0.65999 0.10789 0.0
C579 C 0.97382 0.54305 0.17153 0.0
H580 H 0.0532 0.62722 0.14918 0.0
C581 C 0.93631 0.56123 0.1473 0.0
C582 C 0.94117 0.60246 0.12209 0.0
H583 H 0.97071 0.50883 0.18631 0.0
H584 H 0.90463 0.54124 0.14564 0.0
C585 C 0.98269 0.62768 0.12617 0.0
C586 C 0.63215 0.86762 0.37705 0.0
C587 C 0.67276 0.86421 0.40325 0.0
H588 H 0.57495 0.83129 0.34748 0.0
C589 C 0.6813 0.82421 0.4291 0.0
H590 H 0.6255 0.89806 0.35633 0.0
C591 C 0.6523 0.78586 0.42408 0.0
C592 C 0.61542 0.78743 0.39252 0.0
H593 H 0.71309 0.82077 0.44866 0.0
H594 H 0.66152 0.75383 0.44095 0.0
C595 C 0.60383 0.82926 0.37133 0.0
C596 C 0.53546 0.40759 0.6485 0.0
C597 C 0.52245 0.37306 0.61696 0.0
H598 H 0.51203 0.45826 0.69713 0.0
C599 C 0.47639 0.35827 0.61483 0.0
H600 H 0.57108 0.41915 0.65068 0.0
C601 C 0.44329 0.37891 0.64303 0.0
C602 C 0.45577 0.41549 0.67246 0.0
H603 H 0.466 0.33123 0.59109 0.0
H604 H 0.40742 0.36854 0.63934 0.0
C605 C 0.50208 0.4294 0.67544 0.0
C606 C 0.18541 0.64087 0.59514 0.0
C607 C 0.17503 0.60283 0.62326 0.0
H608 H 0.16577 0.70906 0.57502 0.0
C609 C 0.1328 0.60086 0.64706 0.0
H610 H 0.21828 0.64312 0.57717 0.0
C611 C 0.10237 0.63794 0.64507 0.0
C612 C 0.11476 0.67796 0.62058 0.0
H613 H 0.12472 0.5719 0.66944 0.0
H614 H 0.07119 0.63686 0.66593 0.0
C615 C 0.15563 0.67853 0.59421 0.0
C616 C 0.45438 0.89956 0.82734 0.0
C617 C 0.46485 0.86664 0.86157 0.0
H618 H 0.48064 0.94516 0.77517 0.0
C619 C 0.50964 0.84783 0.86245 0.0
H620 H 0.42008 0.91418 0.82482 0.0
C621 C 0.5442 0.86495 0.83275 0.0
C622 C 0.53446 0.90109 0.80184 0.0
H623 H 0.51874 0.82194 0.88787 0.0
H624 H 0.57942 0.85321 0.83728 0.0
C625 C 0.48881 0.91664 0.79798 0.0
C626 C 0.93922 0.08438 0.33257 0.0
C627 C 0.95012 0.04174 0.31236 0.0
H628 H 0.96362 0.14123 0.37332 0.0
C629 C -0.00398 0.02641 0.31259 0.0
H630 H 0.90382 0.09641 0.33372 0.0
C631 C 0.03028 0.05263 0.33436 0.0
C632 C 0.01851 0.09335 0.35763 0.0
H633 H 0.00488 -0.00672 0.2979 0.0
H634 H 0.06535 0.03971 0.33548 0.0
C635 C 0.97309 0.10964 0.3558 0.0
loop_
_geom_bond_atom_site_label_1
_geom_bond_atom_site_label_2
_geom_bond_distance
_geom_bond_site_symmetry_2
_ccdc_geom_bond_type
O0 Zn1 1.953 . S
O0 C16 1.225 . S
Zn1 O0 1.953 . S
Zn1 O2 1.949 . S
Zn1 O8 1.919 . S
Zn1 O13 1.924 . S
O2 Zn1 1.949 . S
O2 Zn3 1.923 . S
O2 Zn4 1.950 . S
O2 Zn5 1.945 . S
Zn3 O2 1.923 . S
Zn3 O6 1.933 . S
Zn3 O9 1.941 . S
Zn3 O10 1.965 . S
Zn4 O2 1.950 . S
Zn4 O11 1.938 . S
Zn4 O12 1.906 . S
Zn4 O22 1.953 . S
Zn5 O2 1.945 . S
Zn5 O7 1.932 . S
Zn5 O14 1.977 . S
Zn5 O15 1.910 . S
O6 Zn3 1.933 . S
O6 C17 1.226 . S
O7 Zn5 1.932 . S
O7 C17 1.307 . S
O8 Zn1 1.919 . S
O8 C19 1.253 . S
O9 Zn3 1.941 . S
O9 C19 1.283 . S
O10 Zn3 1.965 . S
O10 C18 1.303 . S
O11 Zn4 1.938 . S
O11 C18 1.247 . S
O12 Zn4 1.906 . S
O12 C20 1.304 . S
O13 Zn1 1.924 . S
O13 C21 1.311 . S
O14 Zn5 1.977 . S
O14 C20 1.272 . S
O15 Zn5 1.910 . S
O15 C21 1.231 . S
C16 O0 1.225 . S
C16 O22 1.298 . S
C17 O6 1.226 . S
C17 O7 1.307 . S
C18 O10 1.303 . S
C18 O11 1.247 . S
C19 O8 1.253 . S
C19 O9 1.283 . S
C20 O12 1.304 . S
C20 O14 1.272 . S
C21 O13 1.311 . S
C21 O15 1.231 . S
O22 Zn4 1.953 . S
O22 C16 1.298 . S
O23 Zn24 1.953 . S
O23 C39 1.225 . S
Zn24 O23 1.953 . S
Zn24 O25 1.949 . S
Zn24 O31 1.919 1_455 S
Zn24 O36 1.924 1_455 S
O25 Zn24 1.949 . S
O25 Zn26 1.923 . S
O25 Zn27 1.950 . S
O25 Zn28 1.952 . S
Zn26 O25 1.923 . S
Zn26 O29 1.933 1_455 S
Zn26 O32 1.941 . S
Zn26 O33 1.965 . S
Zn27 O25 1.950 . S
Zn27 O34 1.938 . S
Zn27 O35 1.906 . S
Zn27 O45 1.953 . S
Zn28 O25 1.952 . S
Zn28 O30 1.926 1_455 S
Zn28 O37 1.984 . S
Zn28 O38 1.904 1_455 S
O29 Zn26 1.933 1_655 S
O29 C40 1.226 . S
O30 Zn28 1.926 1_655 S
O30 C40 1.307 . S
O31 Zn24 1.919 1_655 S
O31 C42 1.253 . S
O32 Zn26 1.941 . S
O32 C42 1.283 1_455 S
O33 Zn26 1.965 . S
O33 C41 1.303 . S
O34 Zn27 1.938 . S
O34 C41 1.247 . S
O35 Zn27 1.906 . S
O35 C43 1.304 . S
O36 Zn24 1.924 1_655 S
O36 C44 1.311 . S
O37 Zn28 1.984 . S
O37 C43 1.272 . S
O38 Zn28 1.904 1_655 S
O38 C44 1.231 . S
C39 O23 1.225 . S
C39 O45 1.298 . S
C40 O29 1.226 . S
C40 O30 1.307 . S
C41 O33 1.303 . S
C41 O34 1.247 . S
C42 O31 1.253 . S
C42 O32 1.283 1_655 S
C43 O35 1.304 . S
C43 O37 1.272 . S
C44 O36 1.311 . S
C44 O38 1.231 . S
O45 Zn27 1.953 . S
O45 C39 1.298 . S
O46 Zn47 1.953 . S
O46 C62 1.225 . S
Zn47 O46 1.953 . S
Zn47 O48 1.949 . S
Zn47 O54 1.919 . S
Zn47 O59 1.924 . S
O48 Zn47 1.949 . S
O48 Zn49 1.923 1_556 S
O48 Zn50 1.950 . S
O48 Zn51 1.945 . S
Zn49 O48 1.923 1_554 S
Zn49 O52 1.933 . S
Zn49 O55 1.941 . S
Zn49 O56 1.965 . S
Zn50 O48 1.950 . S
Zn50 O57 1.938 . S
Zn50 O58 1.906 . S
Zn50 O68 1.953 . S
Zn51 O48 1.945 . S
Zn51 O53 1.932 . S
Zn51 O60 1.977 . S
Zn51 O61 1.910 . S
O52 Zn49 1.933 . S
O52 C63 1.226 . S
O53 Zn51 1.932 . S
O53 C63 1.307 1_556 S
O54 Zn47 1.919 . S
O54 C65 1.253 1_556 S
O55 Zn49 1.941 . S
O55 C65 1.283 . S
O56 Zn49 1.965 . S
O56 C64 1.303 . S
O57 Zn50 1.938 . S
O57 C64 1.247 1_556 S
O58 Zn50 1.906 . S
O58 C66 1.304 . S
O59 Zn47 1.924 . S
O59 C67 1.311 . S
O60 Zn51 1.977 . S
O60 C66 1.272 . S
O61 Zn51 1.910 . S
O61 C67 1.231 . S
C62 O46 1.225 . S
C62 O68 1.298 . S
C63 O52 1.226 . S
C63 O53 1.307 1_554 S
C64 O56 1.303 . S
C64 O57 1.247 1_554 S
C65 O54 1.253 1_554 S
C65 O55 1.283 . S
C66 O58 1.304 . S
C66 O60 1.272 . S
C67 O59 1.311 . S
C67 O61 1.231 . S
O68 Zn50 1.953 . S
O68 C62 1.298 . S
O69 Zn70 1.953 . S
O69 C85 1.225 . S
Zn70 O69 1.953 . S
Zn70 O71 1.949 . S
Zn70 O77 1.919 . S
Zn70 O82 1.924 . S
O71 Zn70 1.949 . S
O71 Zn72 1.923 . S
O71 Zn73 1.950 . S
O71 Zn74 1.945 . S
Zn72 O71 1.923 . S
Zn72 O75 1.933 . S
Zn72 O78 1.941 . S
Zn72 O79 1.965 . S
Zn73 O71 1.950 . S
Zn73 O80 1.938 . S
Zn73 O81 1.906 . S
Zn73 O91 1.953 . S
Zn74 O71 1.945 . S
Zn74 O76 1.932 . S
Zn74 O83 1.977 . S
Zn74 O84 1.910 . S
O75 Zn72 1.933 . S
O75 C86 1.226 . S
O76 Zn74 1.932 . S
O76 C86 1.307 . S
O77 Zn70 1.919 . S
O77 C88 1.253 . S
O78 Zn72 1.941 . S
O78 C88 1.283 . S
O79 Zn72 1.965 . S
O79 C87 1.303 . S
O80 Zn73 1.938 . S
O80 C87 1.247 . S
O81 Zn73 1.906 . S
O81 C89 1.304 . S
O82 Zn70 1.924 . S
O82 C90 1.311 . S
O83 Zn74 1.977 . S
O83 C89 1.272 . S
O84 Zn74 1.910 . S
O84 C90 1.231 . S
C85 O69 1.225 . S
C85 O91 1.298 . S
C86 O75 1.226 . S
C86 O76 1.307 . S
C87 O79 1.303 . S
C87 O80 1.247 . S
C88 O77 1.253 . S
C88 O78 1.283 . S
C89 O81 1.304 . S
C89 O83 1.272 . S
C90 O82 1.311 . S
C90 O84 1.231 . S
O91 Zn73 1.953 . S
O91 C85 1.298 . S
O92 Zn93 1.953 . S
O92 C108 1.225 . S
Zn93 O92 1.953 . S
Zn93 O94 1.949 . S
Zn93 O100 1.919 . S
Zn93 O105 1.924 . S
O94 Zn93 1.949 . S
O94 Zn95 1.923 . S
O94 Zn96 1.950 . S
O94 Zn97 1.945 . S
Zn95 O94 1.923 . S
Zn95 O98 1.933 . S
Zn95 O101 1.941 . S
Zn95 O102 1.965 . S
Zn96 O94 1.950 . S
Zn96 O103 1.938 . S
Zn96 O104 1.906 . S
Zn96 O114 1.953 . S
Zn97 O94 1.945 . S
Zn97 O99 1.932 . S
Zn97 O106 1.977 . S
Zn97 O107 1.910 . S
O98 Zn95 1.933 . S
O98 C109 1.226 . S
O99 Zn97 1.932 . S
O99 C109 1.307 . S
O100 Zn93 1.919 . S
O100 C111 1.253 . S
O101 Zn95 1.941 . S
O101 C111 1.283 . S
O102 Zn95 1.965 . S
O102 C110 1.303 . S
O103 Zn96 1.938 . S
O103 C110 1.247 . S
O104 Zn96 1.906 . S
O104 C112 1.304 . S
O105 Zn93 1.924 . S
O105 C113 1.311 . S
O106 Zn97 1.977 . S
O106 C112 1.272 . S
O107 Zn97 1.910 . S
O107 C113 1.231 . S
C108 O92 1.225 . S
C108 O114 1.298 . S
C109 O98 1.226 . S
C109 O99 1.307 . S
C110 O102 1.303 . S
C110 O103 1.247 . S
C111 O100 1.253 . S
C111 O101 1.283 . S
C112 O104 1.304 . S
C112 O106 1.272 . S
C113 O105 1.311 . S
C113 O107 1.231 . S
O114 Zn96 1.953 . S
O114 C108 1.298 . S
O115 Zn116 1.953 . S
O115 C131 1.225 . S
Zn116 O115 1.953 . S
Zn116 O117 1.949 . S
Zn116 O123 1.919 1_655 S
Zn116 O128 1.924 1_655 S
O117 Zn116 1.949 . S
O117 Zn118 1.923 . S
O117 Zn119 1.950 . S
O117 Zn120 1.945 . S
Zn118 O117 1.923 . S
Zn118 O121 1.933 1_655 S
Zn118 O124 1.941 . S
Zn118 O125 1.965 . S
Zn119 O117 1.950 . S
Zn119 O126 1.938 . S
Zn119 O127 1.906 . S
Zn119 O137 1.953 . S
Zn120 O117 1.945 . S
Zn120 O122 1.932 1_655 S
Zn120 O129 1.977 . S
Zn120 O130 1.910 1_655 S
O121 Zn118 1.933 1_455 S
O121 C132 1.226 . S
O122 Zn120 1.932 1_455 S
O122 C132 1.307 . S
O123 Zn116 1.919 1_455 S
O123 C134 1.253 . S
O124 Zn118 1.941 . S
O124 C134 1.283 1_655 S
O125 Zn118 1.965 . S
O125 C133 1.303 . S
O126 Zn119 1.938 . S
O126 C133 1.247 . S
O127 Zn119 1.906 . S
O127 C135 1.304 . S
O128 Zn116 1.924 1_455 S
O128 C136 1.311 . S
O129 Zn120 1.977 . S
O129 C135 1.272 . S
O130 Zn120 1.910 1_455 S
O130 C136 1.231 . S
C131 O115 1.225 . S
C131 O137 1.298 . S
C132 O121 1.226 . S
C132 O122 1.307 . S
C133 O125 1.303 . S
C133 O126 1.247 . S
C134 O123 1.253 . S
C134 O124 1.283 1_455 S
C135 O127 1.304 . S
C135 O129 1.272 . S
C136 O128 1.311 . S
C136 O130 1.231 . S
O137 Zn119 1.953 . S
O137 C131 1.298 . S
O138 Zn139 1.953 . S
O138 C154 1.225 . S
Zn139 O138 1.953 . S
Zn139 O140 1.949 . S
Zn139 O146 1.935 . S
Zn139 O151 1.924 . S
O140 Zn139 1.949 . S
O140 Zn141 1.923 1_554 S
O140 Zn142 1.950 . S
O140 Zn143 1.945 . S
Zn141 O140 1.923 1_556 S
Zn141 O144 1.933 . S
Zn141 O147 1.941 . S
Zn141 O148 1.965 . S
Zn142 O140 1.950 . S
Zn142 O149 1.938 . S
Zn142 O150 1.906 . S
Zn142 O160 1.953 . S
Zn143 O140 1.945 . S
Zn143 O145 1.932 . S
Zn143 O152 1.977 . S
Zn143 O153 1.910 . S
O144 Zn141 1.933 . S
O144 C155 1.226 . S
O145 Zn143 1.932 . S
O145 C155 1.307 1_554 S
O146 Zn139 1.935 . S
O146 C157 1.234 1_554 S
O147 Zn141 1.941 . S
O147 C157 1.283 . S
O148 Zn141 1.965 . S
O148 C156 1.303 . S
O149 Zn142 1.938 . S
O149 C156 1.247 1_554 S
O150 Zn142 1.906 . S
O150 C158 1.304 . S
O151 Zn139 1.924 . S
O151 C159 1.311 . S
O152 Zn143 1.977 . S
O152 C158 1.272 . S
O153 Zn143 1.910 . S
O153 C159 1.231 . S
C154 O138 1.225 . S
C154 O160 1.298 . S
C155 O144 1.226 . S
C155 O145 1.307 1_556 S
C156 O148 1.303 . S
C156 O149 1.247 1_556 S
C157 O146 1.234 1_556 S
C157 O147 1.283 . S
C158 O150 1.304 . S
C158 O152 1.272 . S
C159 O151 1.311 . S
C159 O153 1.231 . S
O160 Zn142 1.953 . S
O160 C154 1.298 . S
O161 Zn162 1.953 . S
O161 C177 1.225 . S
Zn162 O161 1.953 . S
Zn162 O163 1.949 . S
Zn162 O169 1.919 . S
Zn162 O174 1.924 . S
O163 Zn162 1.949 . S
O163 Zn164 1.923 . S
O163 Zn165 1.950 . S
O163 Zn166 1.945 . S
Zn164 O163 1.923 . S
Zn164 O167 1.933 . S
Zn164 O170 1.941 . S
Zn164 O171 1.965 . S
Zn165 O163 1.950 . S
Zn165 O172 1.938 . S
Zn165 O173 1.906 . S
Zn165 O183 1.953 . S
Zn166 O163 1.945 . S
Zn166 O168 1.932 . S
Zn166 O175 1.977 . S
Zn166 O176 1.910 . S
O167 Zn164 1.933 . S
O167 C178 1.226 . S
O168 Zn166 1.932 . S
O168 C178 1.307 . S
O169 Zn162 1.919 . S
O169 C180 1.253 . S
O170 Zn164 1.941 . S
O170 C180 1.283 . S
O171 Zn164 1.965 . S
O171 C179 1.303 . S
O172 Zn165 1.938 . S
O172 C179 1.247 . S
O173 Zn165 1.906 . S
O173 C181 1.304 . S
O174 Zn162 1.924 . S
O174 C182 1.311 . S
O175 Zn166 1.977 . S
O175 C181 1.272 . S
O176 Zn166 1.910 . S
O176 C182 1.231 . S
C177 O161 1.225 . S
C177 O183 1.298 . S
C178 O167 1.226 . S
C178 O168 1.307 . S
C179 O171 1.303 . S
C179 O172 1.247 . S
C180 O169 1.253 . S
C180 O170 1.283 . S
C181 O173 1.304 . S
C181 O175 1.272 . S
C182 O174 1.311 . S
C182 O176 1.231 . S
O183 Zn165 1.953 . S
O183 C177 1.298 . S
O184 Zn185 1.953 . S
O184 C200 1.225 . S
Zn185 O184 1.953 . S
Zn185 O186 1.949 . S
Zn185 O192 1.919 . S
Zn185 O197 1.924 . S
O186 Zn185 1.949 . S
O186 Zn187 1.923 . S
O186 Zn188 1.950 . S
O186 Zn189 1.945 . S
Zn187 O186 1.923 . S
Zn187 O190 1.933 . S
Zn187 O193 1.941 . S
Zn187 O194 1.965 . S
Zn188 O186 1.950 . S
Zn188 O195 1.938 . S
Zn188 O196 1.906 . S
Zn188 O206 1.953 . S
Zn189 O186 1.945 . S
Zn189 O191 1.932 . S
Zn189 O198 1.977 . S
Zn189 O199 1.910 . S
O190 Zn187 1.933 . S
O190 C201 1.226 . S
O191 Zn189 1.932 . S
O191 C201 1.307 . S
O192 Zn185 1.919 . S
O192 C203 1.253 . S
O193 Zn187 1.941 . S
O193 C203 1.283 . S
O194 Zn187 1.965 . S
O194 C202 1.303 . S
O195 Zn188 1.938 . S
O195 C202 1.247 . S
O196 Zn188 1.906 . S
O196 C204 1.304 . S
O197 Zn185 1.924 . S
O197 C205 1.311 . S
O198 Zn189 1.977 . S
O198 C204 1.272 . S
O199 Zn189 1.910 . S
O199 C205 1.231 . S
C200 O184 1.225 . S
C200 O206 1.298 . S
C201 O190 1.226 . S
C201 O191 1.307 . S
C202 O194 1.303 . S
C202 O195 1.247 . S
C203 O192 1.253 . S
C203 O193 1.283 . S
C204 O196 1.304 . S
C204 O198 1.272 . S
C205 O197 1.311 . S
C205 O199 1.231 . S
O206 Zn188 1.953 . S
O206 C200 1.298 . S
O207 Zn208 1.953 . S
O207 C223 1.225 1_545 S
Zn208 O207 1.953 . S
Zn208 O209 1.949 . S
Zn208 O215 1.919 . S
Zn208 O220 1.924 1_545 S
O209 Zn208 1.949 . S
O209 Zn210 1.923 . S
O209 Zn211 1.950 . S
O209 Zn212 1.945 . S
Zn210 O209 1.923 . S
Zn210 O213 1.933 . S
Zn210 O216 1.941 . S
Zn210 O217 1.965 . S
Zn211 O209 1.950 . S
Zn211 O218 1.938 . S
Zn211 O219 1.906 1_545 S
Zn211 O229 1.953 1_545 S
Zn212 O209 1.945 . S
Zn212 O214 1.932 . S
Zn212 O221 1.977 1_545 S
Zn212 O222 1.910 1_545 S
O213 Zn210 1.933 . S
O213 C224 1.226 . S
O214 Zn212 1.932 . S
O214 C224 1.307 . S
O215 Zn208 1.919 . S
O215 C226 1.253 . S
O216 Zn210 1.941 . S
O216 C226 1.283 . S
O217 Zn210 1.965 . S
O217 C225 1.303 . S
O218 Zn211 1.938 . S
O218 C225 1.247 . S
O219 Zn211 1.906 1_565 S
O219 C227 1.304 . S
O220 Zn208 1.924 1_565 S
O220 C228 1.311 . S
O221 Zn212 1.977 1_565 S
O221 C227 1.272 . S
O222 Zn212 1.910 1_565 S
O222 C228 1.231 . S
C223 O207 1.225 1_565 S
C223 O229 1.298 . S
C224 O213 1.226 . S
C224 O214 1.307 . S
C225 O217 1.303 . S
C225 O218 1.247 . S
C226 O215 1.253 . S
C226 O216 1.283 . S
C227 O219 1.304 . S
C227 O221 1.272 . S
C228 O220 1.311 . S
C228 O222 1.231 . S
O229 Zn211 1.953 1_565 S
O229 C223 1.298 . S
O230 Zn231 1.953 . S
O230 C246 1.225 . S
Zn231 O230 1.953 . S
Zn231 O232 1.949 . S
Zn231 O238 1.919 . S
Zn231 O243 1.924 . S
O232 Zn231 1.949 . S
O232 Zn233 1.923 1_565 S
O232 Zn234 1.950 . S
O232 Zn235 1.945 . S
Zn233 O232 1.923 1_545 S
Zn233 O236 1.933 . S
Zn233 O239 1.941 . S
Zn233 O240 1.965 . S
Zn234 O232 1.950 . S
Zn234 O241 1.938 . S
Zn234 O242 1.906 . S
Zn234 O252 1.953 . S
Zn235 O232 1.945 . S
Zn235 O237 1.932 . S
Zn235 O244 1.977 . S
Zn235 O245 1.910 . S
O236 Zn233 1.933 . S
O236 C247 1.226 . S
O237 Zn235 1.932 . S
O237 C247 1.307 1_565 S
O238 Zn231 1.919 . S
O238 C249 1.253 1_565 S
O239 Zn233 1.941 . S
O239 C249 1.283 . S
O240 Zn233 1.965 . S
O240 C248 1.303 . S
O241 Zn234 1.938 . S
O241 C248 1.247 1_565 S
O242 Zn234 1.906 . S
O242 C250 1.304 . S
O243 Zn231 1.924 . S
O243 C251 1.311 . S
O244 Zn235 1.977 . S
O244 C250 1.272 . S
O245 Zn235 1.910 . S
O245 C251 1.231 . S
C246 O230 1.225 . S
C246 O252 1.298 . S
C247 O236 1.226 . S
C247 O237 1.307 1_545 S
C248 O240 1.303 . S
C248 O241 1.247 1_545 S
C249 O238 1.253 1_545 S
C249 O239 1.283 . S
C250 O242 1.304 . S
C250 O244 1.272 . S
C251 O243 1.311 . S
C251 O245 1.231 . S
O252 Zn234 1.953 . S
O252 C246 1.298 . S
O253 Zn254 1.953 . S
O253 C269 1.225 . S
Zn254 O253 1.953 . S
Zn254 O255 1.949 . S
Zn254 O261 1.919 . S
Zn254 O266 1.924 . S
O255 Zn254 1.949 . S
O255 Zn256 1.923 . S
O255 Zn257 1.950 . S
O255 Zn258 1.945 . S
Zn256 O255 1.923 . S
Zn256 O259 1.933 . S
Zn256 O262 1.941 . S
Zn256 O263 1.965 . S
Zn257 O255 1.950 . S
Zn257 O264 1.938 . S
Zn257 O265 1.906 . S
Zn257 O275 1.953 . S
Zn258 O255 1.945 . S
Zn258 O260 1.932 . S
Zn258 O267 1.977 . S
Zn258 O268 1.910 . S
O259 Zn256 1.933 . S
O259 C270 1.226 . S
O260 Zn258 1.932 . S
O260 C270 1.307 . S
O261 Zn254 1.919 . S
O261 C272 1.253 . S
O262 Zn256 1.941 . S
O262 C272 1.283 . S
O263 Zn256 1.965 . S
O263 C271 1.303 . S
O264 Zn257 1.938 . S
O264 C271 1.247 . S
O265 Zn257 1.906 . S
O265 C273 1.304 . S
O266 Zn254 1.924 . S
O266 C274 1.311 . S
O267 Zn258 1.977 . S
O267 C273 1.272 . S
O268 Zn258 1.910 . S
O268 C274 1.231 . S
C269 O253 1.225 . S
C269 O275 1.298 . S
C270 O259 1.226 . S
C270 O260 1.307 . S
C271 O263 1.303 . S
C271 O264 1.247 . S
C272 O261 1.253 . S
C272 O262 1.283 . S
C273 O265 1.304 . S
C273 O267 1.272 . S
C274 O266 1.311 . S
C274 O268 1.231 . S
O275 Zn257 1.953 . S
O275 C269 1.298 . S
C276 C277 1.387 . S
C276 H280 0.950 . S
C276 C285 1.390 . S
C277 C276 1.387 . S
C277 C279 1.387 . S
H278 C285 0.950 . S
C279 C277 1.387 . S
C279 C281 1.390 . S
C279 H283 0.950 . S
H280 C276 0.950 . S
C281 C279 1.390 . S
C281 C282 1.387 . S
C281 H284 0.950 . S
C282 C281 1.387 . S
C282 C285 1.387 . S
H283 C279 0.950 . S
H284 C281 0.950 . S
C285 C276 1.390 . S
C285 H278 0.950 . S
C285 C282 1.387 . S
C286 C287 1.387 . S
C286 H290 0.950 . S
C286 C295 1.390 . S
C287 C286 1.387 . S
C287 C289 1.387 . S
H288 C295 0.950 . S
C289 C287 1.387 . S
C289 C291 1.390 . S
C289 H293 0.950 . S
H290 C286 0.950 . S
C291 C289 1.390 . S
C291 C292 1.387 . S
C291 H294 0.950 . S
C292 C291 1.387 . S
C292 C295 1.387 . S
H293 C289 0.950 . S
H294 C291 0.950 . S
C295 C286 1.390 . S
C295 H288 0.950 . S
C295 C292 1.387 . S
C296 C297 1.387 . S
C296 H300 0.950 . S
C296 C305 1.390 . S
C297 C296 1.387 . S
C297 C299 1.387 . S
H298 C305 0.950 . S
C299 C297 1.387 . S
C299 C301 1.390 . S
C299 H303 0.950 . S
H300 C296 0.950 . S
C301 C299 1.390 . S
C301 C302 1.387 . S
C301 H304 0.950 . S
C302 C301 1.387 . S
C302 C305 1.387 . S
H303 C299 0.950 . S
H304 C301 0.950 . S
C305 C296 1.390 . S
C305 H298 0.950 . S
C305 C302 1.387 . S
C306 C307 1.387 . S
C306 H310 0.950 . S
C306 C315 1.390 . S
C307 C306 1.387 . S
C307 C309 1.387 . S
H308 C315 0.950 . S
C309 C307 1.387 . S
C309 C311 1.390 . S
C309 H313 0.950 . S
H310 C306 0.950 . S
C311 C309 1.390 . S
C311 C312 1.387 . S
C311 H314 0.950 . S
C312 C311 1.387 . S
C312 C315 1.387 . S
H313 C309 0.950 . S
H314 C311 0.950 . S
C315 C306 1.390 . S
C315 H308 0.950 . S
C315 C312 1.387 . S
C316 C317 1.387 . S
C316 H320 0.950 . S
C316 C325 1.390 . S
C317 C316 1.387 . S
C317 C319 1.387 . S
H318 C325 0.950 . S
C319 C317 1.387 . S
C319 C321 1.390 . S
C319 H323 0.950 . S
H320 C316 0.950 . S
C321 C319 1.390 . S
C321 C322 1.387 . S
C321 H324 0.950 . S
C322 C321 1.387 . S
C322 C325 1.387 . S
H323 C319 0.950 . S
H324 C321 0.950 . S
C325 C316 1.390 . S
C325 H318 0.950 . S
C325 C322 1.387 . S
C326 C327 1.387 . S
C326 H330 0.950 . S
C326 C335 1.390 . S
C327 C326 1.387 . S
C327 C329 1.387 . S
H328 C335 0.950 . S
C329 C327 1.387 . S
C329 C331 1.390 . S
C329 H333 0.950 . S
H330 C326 0.950 . S
C331 C329 1.390 . S
C331 C332 1.387 . S
C331 H334 0.950 . S
C332 C331 1.387 . S
C332 C335 1.387 . S
H333 C329 0.950 . S
H334 C331 0.950 . S
C335 C326 1.390 . S
C335 H328 0.950 . S
C335 C332 1.387 . S
C336 C337 1.387 . S
C336 H340 0.950 . S
C336 C345 1.390 . S
C337 C336 1.387 . S
C337 C339 1.387 . S
H338 C345 0.950 . S
C339 C337 1.387 . S
C339 C341 1.390 . S
C339 H343 0.950 . S
H340 C336 0.950 . S
C341 C339 1.390 . S
C341 C342 1.387 . S
C341 H344 0.950 . S
C342 C341 1.387 . S
C342 C345 1.387 . S
H343 C339 0.950 . S
H344 C341 0.950 . S
C345 C336 1.390 . S
C345 H338 0.950 . S
C345 C342 1.387 . S
C346 C347 1.387 . S
C346 H350 0.950 . S
C346 C355 1.390 . S
C347 C346 1.387 . S
C347 C349 1.387 . S
H348 C355 0.950 . S
C349 C347 1.387 . S
C349 C351 1.390 . S
C349 H353 0.950 . S
H350 C346 0.950 . S
C351 C349 1.390 . S
C351 C352 1.387 . S
C351 H354 0.950 . S
C352 C351 1.387 . S
C352 C355 1.387 . S
H353 C349 0.950 . S
H354 C351 0.950 . S
C355 C346 1.390 . S
C355 H348 0.950 . S
C355 C352 1.387 . S
C356 C357 1.387 . S
C356 H360 0.950 . S
C356 C365 1.390 . S
C357 C356 1.387 . S
C357 C359 1.387 . S
H358 C365 0.950 . S
C359 C357 1.387 . S
C359 C361 1.390 . S
C359 H363 0.950 . S
H360 C356 0.950 . S
C361 C359 1.390 . S
C361 C362 1.387 . S
C361 H364 0.950 . S
C362 C361 1.387 . S
C362 C365 1.387 . S
H363 C359 0.950 . S
H364 C361 0.950 . S
C365 C356 1.390 . S
C365 H358 0.950 . S
C365 C362 1.387 . S
C366 C367 1.387 . S
C366 H370 0.950 . S
C366 C375 1.390 . S
C367 C366 1.387 . S
C367 C369 1.387 1_455 S
H368 C375 0.950 . S
C369 C367 1.387 1_655 S
C369 C371 1.390 . S
C369 H373 0.950 . S
H370 C366 0.950 . S
C371 C369 1.390 . S
C371 C372 1.387 1_655 S
C371 H374 0.950 . S
C372 C371 1.387 1_455 S
C372 C375 1.387 . S
H373 C369 0.950 . S
H374 C371 0.950 . S
C375 C366 1.390 . S
C375 H368 0.950 . S
C375 C372 1.387 . S
C376 C377 1.387 . S
C376 H380 0.950 . S
C376 C385 1.390 . S
C377 C376 1.387 . S
C377 C379 1.387 . S
H378 C385 0.950 . S
C379 C377 1.387 . S
C379 C381 1.390 . S
C379 H383 0.950 . S
H380 C376 0.950 . S
C381 C379 1.390 . S
C381 C382 1.387 . S
C381 H384 0.950 . S
C382 C381 1.387 . S
C382 C385 1.387 . S
H383 C379 0.950 . S
H384 C381 0.950 . S
C385 C376 1.390 . S
C385 H378 0.950 . S
C385 C382 1.387 . S
C386 C387 1.387 . S
C386 H390 0.950 . S
C386 C395 1.390 . S
C387 C386 1.387 . S
C387 C389 1.387 . S
H388 C395 0.950 . S
C389 C387 1.387 . S
C389 C391 1.390 . S
C389 H393 0.950 . S
H390 C386 0.950 . S
C391 C389 1.390 . S
C391 C392 1.387 . S
C391 H394 0.950 . S
C392 C391 1.387 . S
C392 C395 1.387 . S
H393 C389 0.950 . S
H394 C391 0.950 . S
C395 C386 1.390 . S
C395 H388 0.950 . S
C395 C392 1.387 . S
C396 C397 1.387 . S
C396 H400 0.950 . S
C396 C405 1.390 . S
C397 C396 1.387 . S
C397 C399 1.387 . S
H398 C405 0.950 . S
C399 C397 1.387 . S
C399 C401 1.390 . S
C399 H403 0.950 . S
H400 C396 0.950 . S
C401 C399 1.390 . S
C401 C402 1.387 . S
C401 H404 0.950 . S
C402 C401 1.387 . S
C402 C405 1.387 . S
H403 C399 0.950 . S
H404 C401 0.950 . S
C405 C396 1.390 . S
C405 H398 0.950 . S
C405 C402 1.387 . S
C406 C407 1.387 . S
C406 H410 0.950 . S
C406 C415 1.390 . S
C407 C406 1.387 . S
C407 C409 1.387 . S
H408 C415 0.950 . S
C409 C407 1.387 . S
C409 C411 1.390 . S
C409 H413 0.950 . S
H410 C406 0.950 . S
C411 C409 1.390 . S
C411 C412 1.387 . S
C411 H414 0.950 . S
C412 C411 1.387 . S
C412 C415 1.387 . S
H413 C409 0.950 . S
H414 C411 0.950 . S
C415 C406 1.390 . S
C415 H408 0.950 . S
C415 C412 1.387 . S
C416 C417 1.387 . S
C416 H420 0.950 . S
C416 C425 1.390 . S
C417 C416 1.387 . S
C417 C419 1.387 . S
H418 C425 0.950 . S
C419 C417 1.387 . S
C419 C421 1.390 . S
C419 H423 0.950 . S
H420 C416 0.950 . S
C421 C419 1.390 . S
C421 C422 1.387 . S
C421 H424 0.950 . S
C422 C421 1.387 . S
C422 C425 1.387 . S
H423 C419 0.950 . S
H424 C421 0.950 . S
C425 C416 1.390 . S
C425 H418 0.950 . S
C425 C422 1.387 . S
C426 C427 1.387 . S
C426 H430 0.950 . S
C426 C435 1.390 1_554 S
C427 C426 1.387 . S
C427 C429 1.387 . S
H428 C435 0.950 . S
C429 C427 1.387 . S
C429 C431 1.390 . S
C429 H433 0.950 . S
H430 C426 0.950 . S
C431 C429 1.390 . S
C431 C432 1.387 1_554 S
C431 H434 0.950 1_554 S
C432 C431 1.387 1_556 S
C432 C435 1.387 . S
H433 C429 0.950 . S
H434 C431 0.950 1_556 S
C435 C426 1.390 1_556 S
C435 H428 0.950 . S
C435 C432 1.387 . S
C436 C437 1.387 . S
C436 H440 0.950 . S
C436 C445 1.390 . S
C437 C436 1.387 . S
C437 C439 1.387 . S
H438 C445 0.950 . S
C439 C437 1.387 . S
C439 C441 1.390 . S
C439 H443 0.950 . S
H440 C436 0.950 . S
C441 C439 1.390 . S
C441 C442 1.387 . S
C441 H444 0.950 . S
C442 C441 1.387 . S
C442 C445 1.387 . S
H443 C439 0.950 . S
H444 C441 0.950 . S
C445 C436 1.390 . S
C445 H438 0.950 . S
C445 C442 1.387 . S
C446 C447 1.385 1_556 S
C446 H450 0.950 . S
C446 C455 1.390 . S
C447 C446 1.385 1_554 S
C447 C449 1.388 . S
H448 C455 0.950 . S
C449 C447 1.388 . S
C449 C451 1.390 1_554 S
C449 H453 0.950 . S
H450 C446 0.950 . S
C451 C449 1.390 1_556 S
C451 C452 1.387 . S
C451 H454 0.950 . S
C452 C451 1.387 . S
C452 C455 1.387 . S
H453 C449 0.950 . S
H454 C451 0.950 . S
C455 C446 1.390 . S
C455 H448 0.950 . S
C455 C452 1.387 . S
C456 C457 1.387 . S
C456 H460 0.950 . S
C456 C465 1.390 . S
C457 C456 1.387 . S
C457 C459 1.387 . S
H458 C465 0.950 . S
C459 C457 1.387 . S
C459 C461 1.390 . S
C459 H463 0.950 . S
H460 C456 0.950 . S
C461 C459 1.390 . S
C461 C462 1.387 . S
C461 H464 0.950 . S
C462 C461 1.387 . S
C462 C465 1.387 . S
H463 C459 0.950 . S
H464 C461 0.950 . S
C465 C456 1.390 . S
C465 H458 0.950 . S
C465 C462 1.387 . S
C466 C467 1.387 . S
C466 H470 0.950 . S
C466 C475 1.390 . S
C467 C466 1.387 . S
C467 C469 1.387 . S
H468 C475 0.950 . S
C469 C467 1.387 . S
C469 C471 1.390 . S
C469 H473 0.950 . S
H470 C466 0.950 . S
C471 C469 1.390 . S
C471 C472 1.387 . S
C471 H474 0.950 . S
C472 C471 1.387 . S
C472 C475 1.387 . S
H473 C469 0.950 . S
H474 C471 0.950 . S
C475 C466 1.390 . S
C475 H468 0.950 . S
C475 C472 1.387 . S
C476 C477 1.387 . S
C476 H480 0.950 . S
C476 C485 1.390 . S
C477 C476 1.387 . S
C477 C479 1.387 . S
H478 C485 0.950 . S
C479 C477 1.387 . S
C479 C481 1.390 . S
C479 H483 0.950 . S
H480 C476 0.950 . S
C481 C479 1.390 . S
C481 C482 1.387 . S
C481 H484 0.950 . S
C482 C481 1.387 . S
C482 C485 1.387 . S
H483 C479 0.950 . S
H484 C481 0.950 . S
C485 C476 1.390 . S
C485 H478 0.950 . S
C485 C482 1.387 . S
C486 C487 1.387 . S
C486 H490 0.950 . S
C486 C495 1.390 1_545 S
C487 C486 1.387 . S
C487 C489 1.387 . S
H488 C495 0.950 . S
C489 C487 1.387 . S
C489 C491 1.390 . S
C489 H493 0.950 . S
H490 C486 0.950 . S
C491 C489 1.390 . S
C491 C492 1.387 1_545 S
C491 H494 0.950 . S
C492 C491 1.387 1_565 S
C492 C495 1.387 . S
H493 C489 0.950 . S
H494 C491 0.950 . S
C495 C486 1.390 1_565 S
C495 H488 0.950 . S
C495 C492 1.387 . S
C496 C497 1.387 . S
C496 H500 0.950 . S
C496 C505 1.390 . S
C497 C496 1.387 . S
C497 C499 1.387 . S
H498 C505 0.950 . S
C499 C497 1.387 . S
C499 C501 1.390 . S
C499 H503 0.950 . S
H500 C496 0.950 . S
C501 C499 1.390 . S
C501 C502 1.387 . S
C501 H504 0.950 . S
C502 C501 1.387 . S
C502 C505 1.387 . S
H503 C499 0.950 . S
H504 C501 0.950 . S
C505 C496 1.390 . S
C505 H498 0.950 . S
C505 C502 1.387 . S
C506 C507 1.387 1_565 S
C506 H510 0.950 . S
C506 C515 1.390 . S
C507 C506 1.387 1_545 S
C507 C509 1.387 1_545 S
H508 C515 0.950 . S
C509 C507 1.387 1_565 S
C509 C511 1.390 . S
C509 H513 0.950 1_565 S
H510 C506 0.950 . S
C511 C509 1.390 . S
C511 C512 1.387 . S
C511 H514 0.950 . S
C512 C511 1.387 . S
C512 C515 1.387 . S
H513 C509 0.950 1_545 S
H514 C511 0.950 . S
C515 C506 1.390 . S
C515 H508 0.950 . S
C515 C512 1.387 . S
C516 C517 1.387 . S
C516 H520 0.950 . S
C516 C525 1.390 . S
C517 C516 1.387 . S
C517 C519 1.387 . S
H518 C525 0.950 . S
C519 C517 1.387 . S
C519 C521 1.390 . S
C519 H523 0.950 . S
H520 C516 0.950 . S
C521 C519 1.390 . S
C521 C522 1.387 . S
C521 H524 0.950 . S
C522 C521 1.387 . S
C522 C525 1.387 . S
H523 C519 0.950 . S
H524 C521 0.950 . S
C525 C516 1.390 . S
C525 H518 0.950 . S
C525 C522 1.387 . S
C526 C527 1.387 . S
C526 H530 0.950 . S
C526 C535 1.390 . S
C527 C526 1.387 . S
C527 C529 1.387 . S
H528 C535 0.950 . S
C529 C527 1.387 . S
C529 C531 1.390 . S
C529 H533 0.950 . S
H530 C526 0.950 . S
C531 C529 1.390 . S
C531 C532 1.387 . S
C531 H534 0.950 . S
C532 C531 1.387 . S
C532 C535 1.387 . S
H533 C529 0.950 . S
H534 C531 0.950 . S
C535 C526 1.390 . S
C535 H528 0.950 . S
C535 C532 1.387 . S
C536 C537 1.387 . S
C536 H540 0.950 . S
C536 C545 1.390 . S
C537 C536 1.387 . S
C537 C539 1.387 . S
H538 C545 0.950 . S
C539 C537 1.387 . S
C539 C541 1.390 . S
C539 H543 0.950 . S
H540 C536 0.950 . S
C541 C539 1.390 . S
C541 C542 1.387 . S
C541 H544 0.950 . S
C542 C541 1.387 . S
C542 C545 1.387 . S
H543 C539 0.950 . S
H544 C541 0.950 . S
C545 C536 1.390 . S
C545 H538 0.950 . S
C545 C542 1.387 . S
C546 C547 1.387 . S
C546 H550 0.950 . S
C546 C555 1.390 . S
C547 C546 1.387 . S
C547 C549 1.387 . S
H548 C555 0.950 . S
C549 C547 1.387 . S
C549 C551 1.390 . S
C549 H553 0.950 . S
H550 C546 0.950 . S
C551 C549 1.390 . S
C551 C552 1.387 . S
C551 H554 0.950 . S
C552 C551 1.387 . S
C552 C555 1.387 . S
H553 C549 0.950 . S
H554 C551 0.950 . S
C555 C546 1.390 . S
C555 H548 0.950 . S
C555 C552 1.387 . S
C556 C557 1.387 . S
C556 H560 0.950 . S
C556 C565 1.390 . S
C557 C556 1.387 . S
C557 C559 1.387 . S
H558 C565 0.950 . S
C559 C557 1.387 . S
C559 C561 1.390 . S
C559 H563 0.950 . S
H560 C556 0.950 . S
C561 C559 1.390 . S
C561 C562 1.387 . S
C561 H564 0.950 . S
C562 C561 1.387 . S
C562 C565 1.387 . S
H563 C559 0.950 . S
H564 C561 0.950 . S
C565 C556 1.390 . S
C565 H558 0.950 . S
C565 C562 1.387 . S
C566 C567 1.387 . S
C566 H570 0.950 . S
C566 C575 1.390 . S
C567 C566 1.387 . S
C567 C569 1.387 . S
H568 C575 0.950 . S
C569 C567 1.387 . S
C569 C571 1.390 . S
C569 H573 0.950 . S
H570 C566 0.950 . S
C571 C569 1.390 . S
C571 C572 1.387 . S
C571 H574 0.950 . S
C572 C571 1.387 . S
C572 C575 1.387 . S
H573 C569 0.950 . S
H574 C571 0.950 . S
C575 C566 1.390 . S
C575 H568 0.950 . S
C575 C572 1.387 . S
C576 C577 1.387 . S
C576 H580 0.950 . S
C576 C585 1.390 . S
C577 C576 1.387 . S
C577 C579 1.387 . S
H578 C585 0.950 1_655 S
C579 C577 1.387 . S
C579 C581 1.390 . S
C579 H583 0.950 . S
H580 C576 0.950 . S
C581 C579 1.390 . S
C581 C582 1.387 1_455 S
C581 H584 0.950 1_455 S
C582 C581 1.387 1_655 S
C582 C585 1.387 1_655 S
H583 C579 0.950 . S
H584 C581 0.950 1_655 S
C585 C576 1.390 . S
C585 H578 0.950 1_455 S
C585 C582 1.387 1_455 S
C586 C587 1.387 . S
C586 H590 0.950 . S
C586 C595 1.390 . S
C587 C586 1.387 . S
C587 C589 1.387 . S
H588 C595 0.950 . S
C589 C587 1.387 . S
C589 C591 1.390 . S
C589 H593 0.950 . S
H590 C586 0.950 . S
C591 C589 1.390 . S
C591 C592 1.387 . S
C591 H594 0.950 . S
C592 C591 1.387 . S
C592 C595 1.387 . S
H593 C589 0.950 . S
H594 C591 0.950 . S
C595 C586 1.390 . S
C595 H588 0.950 . S
C595 C592 1.387 . S
C596 C597 1.387 . S
C596 H600 0.950 . S
C596 C605 1.390 . S
C597 C596 1.387 . S
C597 C599 1.387 . S
H598 C605 0.950 . S
C599 C597 1.387 . S
C599 C601 1.390 . S
C599 H603 0.950 . S
H600 C596 0.950 . S
C601 C599 1.390 . S
C601 C602 1.387 . S
C601 H604 0.950 . S
C602 C601 1.387 . S
C602 C605 1.387 . S
H603 C599 0.950 . S
H604 C601 0.950 . S
C605 C596 1.390 . S
C605 H598 0.950 . S
C605 C602 1.387 . S
C606 C607 1.387 . S
C606 H610 0.950 . S
C606 C615 1.390 . S
C607 C606 1.387 . S
C607 C609 1.387 . S
H608 C615 0.950 . S
C609 C607 1.387 . S
C609 C611 1.390 . S
C609 H613 0.950 . S
H610 C606 0.950 . S
C611 C609 1.390 . S
C611 C612 1.387 . S
C611 H614 0.950 . S
C612 C611 1.387 . S
C612 C615 1.387 . S
H613 C609 0.950 . S
H614 C611 0.950 . S
C615 C606 1.390 . S
C615 H608 0.950 . S
C615 C612 1.387 . S
C616 C617 1.387 . S
C616 H620 0.950 . S
C616 C625 1.390 . S
C617 C616 1.387 . S
C617 C619 1.387 . S
H618 C625 0.950 . S
C619 C617 1.387 . S
C619 C621 1.390 . S
C619 H623 0.950 . S
H620 C616 0.950 . S
C621 C619 1.390 . S
C621 C622 1.387 . S
C621 H624 0.950 . S
C622 C621 1.387 . S
C622 C625 1.387 . S
H623 C619 0.950 . S
H624 C621 0.950 . S
C625 C616 1.390 . S
C625 H618 0.950 . S
C625 C622 1.387 . S
C626 C627 1.387 . S
C626 H630 0.950 . S
C626 C635 1.390 . S
C627 C626 1.387 . S
C627 C629 1.387 . S
H628 C635 0.950 . S
C629 C627 1.387 . S
C629 C631 1.390 . S
C629 H633 0.950 . S
H630 C626 0.950 . S
C631 C629 1.390 . S
C631 C632 1.393 . S
C631 H634 0.950 . S
C632 C631 1.393 . S
C632 C635 1.392 . S
H633 C629 0.950 . S
H634 C631 0.950 . S
C635 C626 1.390 . S
C635 H628 0.950 . S
C635 C632 1.392 . S
C277 C19 1.486 . S
C282 C272 1.513 . S
C287 C223 1.720 . S
C292 C40 1.790 . S
C297 C63 1.616 . S
C302 C201 1.633 . S
C307 C88 1.587 . S
C312 C247 1.589 . S
C317 C108 1.541 . S
C322 C249 1.582 . S
C327 C132 1.675 . S
C332 C270 1.655 . S
C337 C228 1.677 . S
C342 C155 1.603 . S
C347 C180 1.463 . S
C352 C203 1.463 . S
C357 C86 1.453 . S
C362 C113 1.528 . S
C367 C17 1.559 . S
C372 C134 1.518 . S
C377 C42 1.574 . S
C382 C157 1.590 . S
C387 C178 1.539 . S
C392 C65 1.532 . S
C397 C18 1.193 . S
C402 C200 1.185 . S
C407 C44 1.150 . S
C412 C246 1.250 . S
C417 C273 1.133 . S
C422 C67 1.100 . S
C427 C87 1.140 . S
C432 C224 1.135 . S
C437 C111 1.187 . S
C442 C225 1.275 . S
C447 C204 1.280 . S
C452 C136 1.177 . S
C457 C250 1.232 . S
C462 C159 1.180 . S
C467 C269 1.194 . S
C472 C179 1.203 . S
C477 C16 1.402 . S
C482 C90 1.340 . S
C487 C21 1.212 . S
C492 C43 1.318 . S
C497 C41 1.079 . S
C502 C66 1.041 . S
C507 C85 1.134 . S
C512 C64 1.142 . S
C517 C133 1.139 . S
C522 C110 1.132 . S
C527 C135 1.106 . S
C532 C156 1.132 . S
C537 C158 1.300 . S
C542 C182 1.249 . S
C547 C112 1.214 . S
C552 C177 1.216 . S
C557 C202 1.160 . S
C562 C89 1.126 . S
C567 C131 1.265 . S
C572 C226 1.186 . S
C577 C205 1.279 . S
C582 C154 1.385 . S
C587 C251 1.169 . S
C592 C181 1.216 . S
C597 C109 1.227 . S
C602 C271 1.230 . S
C607 C274 1.182 . S
C612 C39 1.225 . S
C617 C62 1.146 . S
C622 C227 1.138 . S
C627 C248 1.043 . S
C632 C20 0.999 1_655 S
