# Generated by pormake.
# Topology uoy, (4)-cn, num edge types: 1
# Building blocks:
#     Node 0, Type 0, BuildingBlock: KUFVIS_clean_sbu_0, # of connection points: 4
#     Node 1, Type 0, BuildingBlock: KUFVIS_clean_sbu_0, # of connection points: 4
#     Node 2, Type 0, BuildingBlock: KUFVIS_clean_sbu_0, # of connection points: 4
#     Node 3, Type 0, BuildingBlock: KUFVIS_clean_sbu_0, # of connection points: 4
#     Node 4, Type 0, BuildingBlock: KUFVIS_clean_sbu_0, # of connection points: 4
#     Node 5, Type 0, BuildingBlock: KUFVIS_clean_sbu_0, # of connection points: 4
#     Node 6, Type 0, BuildingBlock: KUFVIS_clean_sbu_0, # of connection points: 4
#     Node 7, Type 0, BuildingBlock: KUFVIS_clean_sbu_0, # of connection points: 4
#     Node 8, Type 0, BuildingBlock: KUFVIS_clean_sbu_0, # of connection points: 4
#     Node 9, Type 0, BuildingBlock: KUFVIS_clean_sbu_0, # of connection points: 4
#     Node 10, Type 0, BuildingBlock: KUFVIS_clean_sbu_0, # of connection points: 4
#     Node 11, Type 0, BuildingBlock: KUFVIS_clean_sbu_0, # of connection points: 4
#     Node 12, Type 0, BuildingBlock: KUFVIS_clean_sbu_0, # of connection points: 4
#     Node 13, Type 0, BuildingBlock: KUFVIS_clean_sbu_0, # of connection points: 4
#     Node 14, Type 0, BuildingBlock: KUFVIS_clean_sbu_0, # of connection points: 4
#     Node 15, Type 0, BuildingBlock: KUFVIS_clean_sbu_0, # of connection points: 4
#     Edge 16, Type (0, 0), BuildingBlock: TEMPAE_clean_linker_10, # of connection points: 2
#     Edge 17, Type (0, 0), BuildingBlock: TEMPAE_clean_linker_10, # of connection points: 2
#     Edge 18, Type (0, 0), BuildingBlock: TEMPAE_clean_linker_10, # of connection points: 2
#     Edge 19, Type (0, 0), BuildingBlock: TEMPAE_clean_linker_10, # of connection points: 2
#     Edge 20, Type (0, 0), BuildingBlock: TEMPAE_clean_linker_10, # of connection points: 2
#     Edge 21, Type (0, 0), BuildingBlock: TEMPAE_clean_linker_10, # of connection points: 2
#     Edge 22, Type (0, 0), BuildingBlock: TEMPAE_clean_linker_10, # of connection points: 2
#     Edge 23, Type (0, 0), BuildingBlock: TEMPAE_clean_linker_10, # of connection points: 2
#     Edge 24, Type (0, 0), BuildingBlock: TEMPAE_clean_linker_10, # of connection points: 2
#     Edge 25, Type (0, 0), BuildingBlock: TEMPAE_clean_linker_10, # of connection points: 2
#     Edge 26, Type (0, 0), BuildingBlock: TEMPAE_clean_linker_10, # of connection points: 2
#     Edge 27, Type (0, 0), BuildingBlock: TEMPAE_clean_linker_10, # of connection points: 2
#     Edge 28, Type (0, 0), BuildingBlock: TEMPAE_clean_linker_10, # of connection points: 2
#     Edge 29, Type (0, 0), BuildingBlock: TEMPAE_clean_linker_10, # of connection points: 2
#     Edge 30, Type (0, 0), BuildingBlock: TEMPAE_clean_linker_10, # of connection points: 2
#     Edge 31, Type (0, 0), BuildingBlock: TEMPAE_clean_linker_10, # of connection points: 2
#     Edge 32, Type (0, 0), BuildingBlock: TEMPAE_clean_linker_10, # of connection points: 2
#     Edge 33, Type (0, 0), BuildingBlock: TEMPAE_clean_linker_10, # of connection points: 2
#     Edge 34, Type (0, 0), BuildingBlock: TEMPAE_clean_linker_10, # of connection points: 2
#     Edge 35, Type (0, 0), BuildingBlock: TEMPAE_clean_linker_10, # of connection points: 2
#     Edge 36, Type (0, 0), BuildingBlock: TEMPAE_clean_linker_10, # of connection points: 2
#     Edge 37, Type (0, 0), BuildingBlock: TEMPAE_clean_linker_10, # of connection points: 2
#     Edge 38, Type (0, 0), BuildingBlock: TEMPAE_clean_linker_10, # of connection points: 2
#     Edge 39, Type (0, 0), BuildingBlock: TEMPAE_clean_linker_10, # of connection points: 2
#     Edge 40, Type (0, 0), BuildingBlock: TEMPAE_clean_linker_10, # of connection points: 2
#     Edge 41, Type (0, 0), BuildingBlock: TEMPAE_clean_linker_10, # of connection points: 2
#     Edge 42, Type (0, 0), BuildingBlock: TEMPAE_clean_linker_10, # of connection points: 2
#     Edge 43, Type (0, 0), BuildingBlock: TEMPAE_clean_linker_10, # of connection points: 2
#     Edge 44, Type (0, 0), BuildingBlock: TEMPAE_clean_linker_10, # of connection points: 2
#     Edge 45, Type (0, 0), BuildingBlock: TEMPAE_clean_linker_10, # of connection points: 2
#     Edge 46, Type (0, 0), BuildingBlock: TEMPAE_clean_linker_10, # of connection points: 2
#     Edge 47, Type (0, 0), BuildingBlock: TEMPAE_clean_linker_10, # of connection points: 2
# Relax obj value: 0.051
# Max RMSD: 0.080
# Mean RMSD: 0.080
data_MOF--net-uoy--node1-KUFVIS_clean_sbu_0--edge1-TEMPAE_clean_linker_10
_symmetry_space_group_name_H-M    P1
_symmetry_Int_Tables_number       1
_symmetry_cell_setting            triclinic
loop_
_symmetry_equiv_pos_as_xyz
'x, y, z'
_cell_length_a     28.037979
_cell_length_b     28.093584
_cell_length_c     105.93998
_cell_angle_alpha  90.025517
_cell_angle_beta   90.000191
_cell_angle_gamma 89.953979
loop_
_atom_site_label
_atom_site_type_symbol
_atom_site_fract_x
_atom_site_fract_y
_atom_site_fract_z
_atom_type_partial_charge
Mn0 Mn 0.2566 0.11046 0.18732 0.0
Mn1 Mn 0.19043 0.20793 0.19341 0.0
C2 C 0.24493 0.13527 0.20822 0.0
C3 C 0.33112 0.07638 0.18271 0.0
C4 C 0.14759 0.1132 0.18541 0.0
O5 O 0.2546 0.14467 0.17031 0.0
O6 O 0.21706 0.21203 0.17616 0.0
C7 C 0.26696 0.2805 0.19333 0.0
N8 N 0.23 0.25856 0.19929 0.0
C9 C 0.23323 0.31405 0.21654 0.0
C10 C 0.27135 0.33734 0.21061 0.0
C11 C 0.28859 0.32019 0.19901 0.0
C12 C 0.21429 0.2737 0.21065 0.0
H13 H 0.27955 0.26798 0.18428 0.0
C14 C 0.23903 0.18655 0.16801 0.0
O15 O 0.29158 0.05508 0.17973 0.0
O16 O 0.32728 0.11763 0.1881 0.0
N17 N 0.16212 0.20941 0.20981 0.0
C18 C 0.12515 0.18286 0.21431 0.0
C19 C 0.10363 0.19536 0.22581 0.0
C20 C 0.11958 0.23565 0.23241 0.0
C21 C 0.15722 0.26275 0.22751 0.0
C22 C 0.1778 0.24815 0.21612 0.0
H23 H 0.11214 0.15237 0.20919 0.0
O24 O 0.25671 0.09165 0.20562 0.0
O25 O 0.23971 0.16245 0.19843 0.0
O26 O 0.18652 0.08948 0.18526 0.0
O27 O 0.14599 0.15774 0.18778 0.0
C28 C 0.17437 0.30431 0.23334 0.0
C29 C 0.21261 0.32978 0.22793 0.0
H30 H 0.28751 0.36849 0.21486 0.0
H31 H 0.31798 0.33797 0.19437 0.0
H32 H 0.07449 0.17431 0.2295 0.0
H33 H 0.10262 0.2455 0.24123 0.0
H34 H 0.15792 0.31703 0.24193 0.0
H35 H 0.22576 0.36154 0.23257 0.0
Mn36 Mn 0.90927 0.76227 0.43533 0.0
Mn37 Mn 0.82247 0.68371 0.44256 0.0
C38 C 0.88535 0.75433 0.4562 0.0
C39 C 0.93547 0.83833 0.42949 0.0
C40 C 0.92283 0.65464 0.43529 0.0
O41 O 0.87603 0.75068 0.41845 0.0
O42 O 0.81454 0.70464 0.42478 0.0
C43 C 0.7336 0.74017 0.44063 0.0
N44 N 0.76366 0.71235 0.44752 0.0
C45 C 0.70641 0.70561 0.46435 0.0
C46 C 0.67481 0.73429 0.45745 0.0
C47 C 0.68863 0.75193 0.44558 0.0
C48 C 0.75086 0.69547 0.45898 0.0
H49 H 0.74372 0.75283 0.43138 0.0
C50 C 0.83698 0.72848 0.41634 0.0
O51 O 0.96076 0.80061 0.42721 0.0
O52 O 0.89402 0.83171 0.43465 0.0
N53 N 0.82649 0.66161 0.45957 0.0
C54 C 0.86286 0.63822 0.46542 0.0
C55 C 0.8564 0.62138 0.47778 0.0
C56 C 0.81239 0.62805 0.48387 0.0
C57 C 0.77558 0.65231 0.47762 0.0
C58 C 0.78446 0.66917 0.46544 0.0
H59 H 0.89648 0.63243 0.46069 0.0
O60 O 0.92758 0.76994 0.45333 0.0
O61 O 0.85843 0.74227 0.44667 0.0
O62 O 0.94084 0.69613 0.43477 0.0
O63 O 0.87915 0.64697 0.43766 0.0
C64 C 0.73045 0.6604 0.483 0.0
C65 C 0.69583 0.6871 0.47639 0.0
H66 H 0.64003 0.74329 0.46121 0.0
H67 H 0.66444 0.77409 0.4402 0.0
H68 H 0.88506 0.60286 0.48255 0.0
H69 H 0.80734 0.61467 0.49337 0.0
H70 H 0.72219 0.64612 0.49222 0.0
H71 H 0.66147 0.69376 0.48071 0.0
Mn72 Mn 0.24603 0.40133 0.68775 0.0
Mn73 Mn 0.31985 0.30968 0.69428 0.0
C74 C 0.25822 0.37744 0.70866 0.0
C75 C 0.16959 0.43041 0.68311 0.0
C76 C 0.35531 0.40846 0.68779 0.0
O77 O 0.25178 0.36856 0.67062 0.0
O78 O 0.30056 0.30887 0.67632 0.0
C79 C 0.24826 0.23346 0.69056 0.0
N80 N 0.28121 0.25545 0.698 0.0
C81 C 0.27008 0.19789 0.71452 0.0
C82 C 0.23611 0.17453 0.70705 0.0
C83 C 0.2249 0.19262 0.69505 0.0
C84 C 0.29106 0.23928 0.70971 0.0
H85 H 0.23991 0.24692 0.68128 0.0
C86 C 0.27575 0.33112 0.66809 0.0
O87 O 0.20762 0.45445 0.68023 0.0
O88 O 0.1761 0.3891 0.68827 0.0
N89 N 0.34216 0.3043 0.71127 0.0
C90 C 0.37893 0.32825 0.71679 0.0
C91 C 0.39599 0.31356 0.72862 0.0
C92 C 0.37631 0.27329 0.73445 0.0
C93 C 0.33996 0.24796 0.72835 0.0
C94 C 0.32404 0.26458 0.71663 0.0
H95 H 0.39556 0.35793 0.71215 0.0
O96 O 0.24362 0.42006 0.70598 0.0
O97 O 0.2659 0.35034 0.69894 0.0
O98 O 0.31436 0.42728 0.68603 0.0
O99 O 0.36163 0.36504 0.69097 0.0
C100 C 0.32024 0.20582 0.73323 0.0
C101 C 0.28479 0.18112 0.72643 0.0
H102 H 0.21865 0.14255 0.71039 0.0
H103 H 0.19872 0.17483 0.68921 0.0
H104 H 0.42474 0.33279 0.73314 0.0
H105 H 0.38985 0.26171 0.74353 0.0
H106 H 0.33289 0.19177 0.74209 0.0
H107 H 0.26976 0.14882 0.73034 0.0
Mn108 Mn 0.60552 0.72722 0.93567 0.0
Mn109 Mn 0.68642 0.81085 0.94383 0.0
C110 C 0.62695 0.73696 0.95666 0.0
C111 C 0.58371 0.6495 0.93012 0.0
C112 C 0.5846 0.83448 0.93676 0.0
O113 O 0.64008 0.73896 0.91915 0.0
O114 O 0.69251 0.79497 0.92552 0.0
C115 C 0.77701 0.75858 0.93977 0.0
N116 N 0.74746 0.78386 0.94746 0.0
C117 C 0.80723 0.78765 0.96375 0.0
C118 C 0.83835 0.7617 0.95599 0.0
C119 C 0.82304 0.74683 0.94399 0.0
C120 C 0.76172 0.79802 0.95907 0.0
H121 H 0.76568 0.74779 0.93045 0.0
C122 C 0.67476 0.76736 0.91707 0.0
O123 O 0.5569 0.68572 0.92738 0.0
O124 O 0.62414 0.65863 0.93556 0.0
N125 N 0.68503 0.82835 0.96126 0.0
C126 C 0.64874 0.8477 0.96809 0.0
C127 C 0.65681 0.86135 0.98066 0.0
C128 C 0.70224 0.85538 0.98601 0.0
C129 C 0.73883 0.83483 0.97881 0.0
C130 C 0.72846 0.82128 0.96641 0.0
H131 H 0.61389 0.85216 0.964 0.0
O132 O 0.58546 0.71996 0.95359 0.0
O133 O 0.65416 0.74996 0.94731 0.0
O134 O 0.57134 0.79215 0.93426 0.0
O135 O 0.62625 0.84483 0.94061 0.0
C136 C 0.78504 0.82682 0.9835 0.0
C137 C 0.81925 0.80306 0.97601 0.0
H138 H 0.87389 0.75263 0.9592 0.0
H139 H 0.84683 0.72672 0.93796 0.0
H140 H 0.62816 0.87661 0.98619 0.0
H141 H 0.70845 0.86607 0.9957 0.0
H142 H 0.79428 0.83867 0.99289 0.0
H143 H 0.8544 0.79615 0.97984 0.0
Mn144 Mn 0.25964 0.39679 0.06043 0.0
Mn145 Mn 0.19339 0.29903 0.05497 0.0
C146 C 0.24856 0.36971 0.03973 0.0
C147 C 0.33383 0.43124 0.06501 0.0
C148 C 0.1508 0.39467 0.06229 0.0
O149 O 0.25665 0.36447 0.07771 0.0
O150 O 0.21994 0.29621 0.07223 0.0
C151 C 0.26953 0.22599 0.05543 0.0
N152 N 0.23277 0.24782 0.04934 0.0
C153 C 0.23627 0.1916 0.03226 0.0
C154 C 0.27419 0.16841 0.03832 0.0
C155 C 0.2912 0.18598 0.0499 0.0
C156 C 0.21728 0.23226 0.038 0.0
H157 H 0.28195 0.23888 0.06446 0.0
C158 C 0.24115 0.32278 0.08027 0.0
O159 O 0.29416 0.4529 0.06769 0.0
O160 O 0.33032 0.38937 0.05995 0.0
N161 N 0.16505 0.29664 0.03859 0.0
C162 C 0.12787 0.32282 0.03403 0.0
C163 C 0.10664 0.30995 0.02252 0.0
C164 C 0.12294 0.26956 0.01601 0.0
C165 C 0.16056 0.24266 0.02103 0.0
C166 C 0.18092 0.25768 0.0324 0.0
H167 H 0.11426 0.35313 0.03915 0.0
O168 O 0.26062 0.4135 0.04198 0.0
O169 O 0.24294 0.3437 0.04971 0.0
O170 O 0.18968 0.41835 0.06208 0.0
O171 O 0.1492 0.34982 0.0604 0.0
C172 C 0.17781 0.20083 0.01535 0.0
C173 C 0.21587 0.17545 0.02089 0.0
H174 H 0.29037 0.13701 0.0342 0.0
H175 H 0.32043 0.16829 0.05465 0.0
H176 H 0.07737 0.33071 0.01878 0.0
H177 H 0.10616 0.25938 0.00721 0.0
H178 H 0.16148 0.18776 0.00679 0.0
H179 H 0.22902 0.14345 0.01636 0.0
Mn180 Mn 0.60981 0.77782 0.31191 0.0
Mn181 Mn 0.69103 0.6946 0.30377 0.0
C182 C 0.6305 0.76846 0.29087 0.0
C183 C 0.58898 0.85528 0.31788 0.0
C184 C 0.5901 0.67113 0.31182 0.0
O185 O 0.64438 0.764 0.32847 0.0
O186 O 0.70178 0.71383 0.32159 0.0
C187 C 0.78242 0.74692 0.30527 0.0
N188 N 0.7504 0.72105 0.29847 0.0
C189 C 0.80414 0.716 0.28081 0.0
C190 C 0.83777 0.74255 0.28762 0.0
C191 C 0.82673 0.75833 0.29987 0.0
C192 C 0.76059 0.70585 0.28666 0.0
H193 H 0.77432 0.75839 0.31476 0.0
C194 C 0.68189 0.73887 0.33025 0.0
O195 O 0.56174 0.81923 0.32044 0.0
O196 O 0.62938 0.84605 0.31242 0.0
N197 N 0.68406 0.67405 0.28667 0.0
C198 C 0.64604 0.65265 0.28102 0.0
C199 C 0.64972 0.63798 0.26839 0.0
C200 C 0.69259 0.64489 0.26178 0.0
C201 C 0.73116 0.667 0.26782 0.0
C202 C 0.72516 0.68151 0.28035 0.0
H203 H 0.61316 0.64698 0.2861 0.0
O204 O 0.58965 0.7867 0.29405 0.0
O205 O 0.65776 0.75495 0.30017 0.0
O206 O 0.57475 0.71363 0.31273 0.0
O207 O 0.63285 0.6608 0.30893 0.0
C208 C 0.77519 0.67551 0.26188 0.0
C209 C 0.81177 0.69988 0.26837 0.0
H210 H 0.87196 0.75145 0.28349 0.0
H211 H 0.85245 0.77892 0.30518 0.0
H212 H 0.6197 0.62113 0.26378 0.0
H213 H 0.69539 0.63339 0.25204 0.0
H214 H 0.78098 0.66353 0.25231 0.0
H215 H 0.8453 0.70683 0.26366 0.0
Mn216 Mn 0.24705 0.10734 0.5629 0.0
Mn217 Mn 0.32158 0.1966 0.55473 0.0
C218 C 0.25211 0.13138 0.54196 0.0
C219 C 0.17152 0.07908 0.56889 0.0
C220 C 0.35601 0.09718 0.56123 0.0
O221 O 0.25799 0.14144 0.57961 0.0
O222 O 0.30528 0.20143 0.57298 0.0
C223 C 0.26179 0.28227 0.55872 0.0
N224 N 0.28918 0.2547 0.55102 0.0
C225 C 0.28839 0.31432 0.53471 0.0
C226 C 0.26016 0.34341 0.54247 0.0
C227 C 0.24654 0.32715 0.55448 0.0
C228 C 0.30222 0.26987 0.53941 0.0
H229 H 0.25208 0.27029 0.56806 0.0
C230 C 0.28145 0.17976 0.58157 0.0
O231 O 0.21002 0.05486 0.57118 0.0
O232 O 0.17716 0.12047 0.5637 0.0
N233 N 0.33902 0.1961 0.53731 0.0
C234 C 0.3615 0.16148 0.53054 0.0
C235 C 0.3744 0.17041 0.51796 0.0
C236 C 0.36451 0.21496 0.51255 0.0
C237 C 0.34083 0.24974 0.51969 0.0
C238 C 0.32818 0.23855 0.5321 0.0
H239 H 0.36919 0.12725 0.5347 0.0
O240 O 0.23904 0.08845 0.54489 0.0
O241 O 0.26391 0.15867 0.5514 0.0
O242 O 0.31525 0.07874 0.56344 0.0
O243 O 0.36119 0.14047 0.55805 0.0
C244 C 0.32896 0.29494 0.51495 0.0
C245 C 0.30266 0.32727 0.52242 0.0
H246 H 0.24838 0.37806 0.53924 0.0
H247 H 0.22471 0.34937 0.56052 0.0
H248 H 0.39218 0.14315 0.51248 0.0
H249 H 0.37472 0.22187 0.50286 0.0
H250 H 0.33994 0.30488 0.50557 0.0
H251 H 0.29295 0.36162 0.51856 0.0
Mn252 Mn 0.90355 0.75025 0.81152 0.0
Mn253 Mn 0.81138 0.82336 0.80554 0.0
C254 C 0.87988 0.76302 0.79063 0.0
C255 C 0.93207 0.67414 0.81627 0.0
C256 C 0.90931 0.85793 0.81356 0.0
O257 O 0.87012 0.75649 0.82865 0.0
O258 O 0.80417 0.79605 0.8226 0.0
C259 C 0.73362 0.75221 0.80483 0.0
N260 N 0.75845 0.78799 0.79919 0.0
C261 C 0.70607 0.78739 0.78123 0.0
C262 C 0.6798 0.75057 0.78683 0.0
C263 C 0.69388 0.73265 0.79865 0.0
C264 C 0.7461 0.80448 0.78768 0.0
H265 H 0.74404 0.73884 0.81399 0.0
C266 C 0.82879 0.77388 0.83089 0.0
O267 O 0.95638 0.71199 0.81911 0.0
O268 O 0.8907 0.68064 0.81108 0.0
N269 N 0.81322 0.85279 0.78929 0.0
C270 C 0.84226 0.88852 0.7852 0.0
C271 C 0.83271 0.91084 0.77362 0.0
C272 C 0.79283 0.89697 0.7665 0.0
C273 C 0.76302 0.86071 0.771 0.0
C274 C 0.77452 0.8395 0.78255 0.0
H275 H 0.87225 0.90026 0.79077 0.0
O276 O 0.92234 0.74753 0.79328 0.0
O277 O 0.85305 0.77084 0.80041 0.0
O278 O 0.93027 0.81773 0.81302 0.0
O279 O 0.86459 0.86343 0.81177 0.0
C280 C 0.72197 0.84525 0.76455 0.0
C281 C 0.69377 0.80826 0.76959 0.0
H282 H 0.64875 0.73586 0.78217 0.0
H283 H 0.67384 0.70421 0.80303 0.0
H284 H 0.85572 0.93902 0.77025 0.0
H285 H 0.7854 0.91442 0.75759 0.0
H286 H 0.71192 0.86175 0.75572 0.0
H287 H 0.66246 0.79637 0.76451 0.0
Mn288 Mn 0.76532 0.6087 0.68768 0.0
Mn289 Mn 0.69404 0.70282 0.69343 0.0
C290 C 0.75305 0.6343 0.70845 0.0
C291 C 0.84134 0.57826 0.68319 0.0
C292 C 0.65627 0.6049 0.68647 0.0
O293 O 0.7602 0.64061 0.67038 0.0
O294 O 0.71803 0.7055 0.67591 0.0
C295 C 0.76737 0.77834 0.6919 0.0
N296 N 0.73214 0.75586 0.69843 0.0
C297 C 0.73766 0.8121 0.71547 0.0
C298 C 0.77397 0.83598 0.70894 0.0
C299 C 0.78916 0.81877 0.69714 0.0
C300 C 0.71837 0.77116 0.70995 0.0
H301 H 0.7786 0.76556 0.68275 0.0
C302 C 0.74073 0.68057 0.66779 0.0
O303 O 0.80299 0.55453 0.68042 0.0
O304 O 0.83539 0.61997 0.68817 0.0
N305 N 0.66749 0.70572 0.71002 0.0
C306 C 0.63073 0.67971 0.71485 0.0
C307 C 0.61054 0.69287 0.72647 0.0
C308 C 0.62743 0.73335 0.73282 0.0
C309 C 0.66442 0.76024 0.7275 0.0
C310 C 0.68348 0.74516 0.71597 0.0
H311 H 0.61667 0.64931 0.70986 0.0
O312 O 0.7673 0.59131 0.70603 0.0
O313 O 0.74606 0.66062 0.69856 0.0
O314 O 0.69662 0.58377 0.68609 0.0
O315 O 0.65189 0.64941 0.68869 0.0
C316 C 0.68224 0.80212 0.73304 0.0
C317 C 0.71919 0.8278 0.72711 0.0
H318 H 0.79029 0.86764 0.71286 0.0
H319 H 0.81717 0.83698 0.69204 0.0
H320 H 0.58166 0.67219 0.73044 0.0
H321 H 0.61155 0.74364 0.74174 0.0
H322 H 0.66726 0.81505 0.74179 0.0
H323 H 0.73279 0.85983 0.73152 0.0
Mn324 Mn 0.4013 0.24887 0.93725 0.0
Mn325 Mn 0.30389 0.18269 0.94303 0.0
C326 C 0.37684 0.23611 0.95811 0.0
C327 C 0.43527 0.32324 0.9329 0.0
C328 C 0.39854 0.14077 0.93445 0.0
O329 O 0.36658 0.24775 0.92026 0.0
O330 O 0.29812 0.21229 0.92616 0.0
C331 C 0.23097 0.25882 0.94441 0.0
N332 N 0.25367 0.22099 0.94974 0.0
C333 C 0.20047 0.22167 0.96754 0.0
C334 C 0.17642 0.26065 0.96225 0.0
C335 C 0.19204 0.27959 0.95069 0.0
C336 C 0.23997 0.20355 0.96105 0.0
H337 H 0.24237 0.2728 0.9354 0.0
C338 C 0.32391 0.23404 0.91804 0.0
O339 O 0.45661 0.28395 0.92974 0.0
O340 O 0.39395 0.31926 0.93828 0.0
N341 N 0.30432 0.15172 0.95908 0.0
C342 C 0.33165 0.11431 0.96296 0.0
C343 C 0.32083 0.09131 0.97437 0.0
C344 C 0.28136 0.10621 0.9815 0.0
C345 C 0.25335 0.14427 0.97721 0.0
C346 C 0.26629 0.16634 0.96589 0.0
H347 H 0.36127 0.10179 0.95737 0.0
O348 O 0.42047 0.24806 0.95552 0.0
O349 O 0.34955 0.23132 0.94831 0.0
O350 O 0.42258 0.17931 0.93497 0.0
O351 O 0.35368 0.13931 0.93649 0.0
C352 C 0.21259 0.16058 0.98362 0.0
C353 C 0.18635 0.19953 0.97886 0.0
H354 H 0.14589 0.27624 0.96697 0.0
H355 H 0.17368 0.30967 0.94655 0.0
H356 H 0.34248 0.06178 0.97756 0.0
H357 H 0.27281 0.08812 0.99024 0.0
H358 H 0.20121 0.14309 0.99219 0.0
H359 H 0.15525 0.21205 0.98394 0.0
Mn360 Mn 0.73516 0.90314 0.18438 0.0
Mn361 Mn 0.81662 0.82072 0.19303 0.0
C362 C 0.74173 0.88049 0.20539 0.0
C363 C 0.65788 0.92646 0.17845 0.0
C364 C 0.84278 0.92242 0.18694 0.0
O365 O 0.74887 0.86982 0.16773 0.0
O366 O 0.80438 0.81766 0.17451 0.0
C367 C 0.76359 0.73211 0.18729 0.0
N368 N 0.78821 0.75973 0.1956 0.0
C369 C 0.78975 0.69683 0.21101 0.0
C370 C 0.76443 0.66766 0.20261 0.0
C371 C 0.75099 0.68551 0.19074 0.0
C372 C 0.80085 0.74307 0.20709 0.0
H373 H 0.75401 0.74539 0.17807 0.0
C374 C 0.77841 0.83593 0.16579 0.0
O375 O 0.69474 0.9529 0.17604 0.0
O376 O 0.66626 0.88549 0.18363 0.0
N377 N 0.83118 0.8189 0.21064 0.0
C378 C 0.85009 0.8535 0.21813 0.0
C379 C 0.86257 0.84264 0.23064 0.0
C380 C 0.85604 0.79621 0.23524 0.0
C381 C 0.8359 0.76142 0.22738 0.0
C382 C 0.82346 0.77455 0.21509 0.0
H383 H 0.85519 0.88911 0.21459 0.0
O384 O 0.72578 0.92226 0.20229 0.0
O385 O 0.75554 0.85345 0.19608 0.0
O386 O 0.80113 0.93614 0.18371 0.0
O387 O 0.85166 0.88067 0.19093 0.0
C388 C 0.82733 0.71435 0.23129 0.0
C389 C 0.80397 0.68211 0.22316 0.0
H390 H 0.75482 0.63164 0.20522 0.0
H391 H 0.73141 0.66323 0.18422 0.0
H392 H 0.8775 0.86987 0.23668 0.0
H393 H 0.86601 0.78783 0.24487 0.0
H394 H 0.83845 0.70277 0.24055 0.0
H395 H 0.79657 0.6463 0.2264 0.0
Mn396 Mn 0.1164 0.23806 0.43583 0.0
Mn397 Mn 0.20376 0.31576 0.44326 0.0
C398 C 0.13864 0.24696 0.45681 0.0
C399 C 0.08967 0.16208 0.43007 0.0
C400 C 0.10444 0.34587 0.43525 0.0
O401 O 0.15136 0.24808 0.41912 0.0
O402 O 0.21315 0.29329 0.42567 0.0
C403 C 0.29206 0.2581 0.44223 0.0
N404 N 0.26171 0.28686 0.44876 0.0
C405 C 0.31774 0.29496 0.46583 0.0
C406 C 0.34961 0.26531 0.45931 0.0
C407 C 0.33654 0.2465 0.44751 0.0
C408 C 0.27376 0.30479 0.46017 0.0
H409 H 0.28256 0.24461 0.43302 0.0
C410 C 0.19111 0.26925 0.41719 0.0
O411 O 0.0651 0.20002 0.42752 0.0
O412 O 0.1307 0.16838 0.4355 0.0
N413 N 0.1984 0.33934 0.4601 0.0
C414 C 0.16184 0.36373 0.46558 0.0
C415 C 0.16755 0.38195 0.47783 0.0
C416 C 0.21106 0.37563 0.48419 0.0
C417 C 0.24807 0.35032 0.47833 0.0
C418 C 0.2399 0.33205 0.46625 0.0
H419 H 0.12867 0.36935 0.46062 0.0
O420 O 0.09645 0.23174 0.45374 0.0
O421 O 0.16654 0.25803 0.4474 0.0
O422 O 0.0858 0.30462 0.43484 0.0
O423 O 0.1481 0.35287 0.43779 0.0
C424 C 0.29279 0.34262 0.48398 0.0
C425 C 0.32763 0.31484 0.47777 0.0
H426 H 0.38404 0.25648 0.46332 0.0
H427 H 0.36095 0.22361 0.44242 0.0
H428 H 0.13874 0.40131 0.48229 0.0
H429 H 0.21556 0.39014 0.49359 0.0
H430 H 0.30057 0.35808 0.4931 0.0
H431 H 0.36167 0.30851 0.4823 0.0
Mn432 Mn 0.77175 0.89588 0.56165 0.0
Mn433 Mn 0.69724 0.80638 0.55361 0.0
C434 C 0.76647 0.87164 0.54072 0.0
C435 C 0.84713 0.92438 0.56769 0.0
C436 C 0.66272 0.90569 0.56018 0.0
O437 O 0.76117 0.86187 0.57834 0.0
O438 O 0.71385 0.80164 0.57185 0.0
C439 C 0.75711 0.72075 0.55753 0.0
N440 N 0.72966 0.74831 0.54985 0.0
C441 C 0.73048 0.68873 0.53351 0.0
C442 C 0.75877 0.65966 0.54125 0.0
C443 C 0.77241 0.6759 0.55327 0.0
C444 C 0.71657 0.73314 0.53824 0.0
H445 H 0.76685 0.73272 0.56687 0.0
C446 C 0.73787 0.82354 0.58038 0.0
O447 O 0.80852 0.94846 0.56995 0.0
O448 O 0.84174 0.88308 0.56241 0.0
N449 N 0.67957 0.80681 0.5362 0.0
C450 C 0.65701 0.84142 0.52945 0.0
C451 C 0.64419 0.83257 0.51686 0.0
C452 C 0.65425 0.7881 0.5114 0.0
C453 C 0.67796 0.7533 0.51853 0.0
C454 C 0.69052 0.76442 0.53095 0.0
H455 H 0.64922 0.8756 0.53363 0.0
O456 O 0.77944 0.91466 0.54362 0.0
O457 O 0.75484 0.84441 0.55018 0.0
O458 O 0.70351 0.92422 0.5623 0.0
O459 O 0.65751 0.86242 0.55698 0.0
C460 C 0.68999 0.70817 0.51375 0.0
C461 C 0.71628 0.67584 0.52121 0.0
H462 H 0.77061 0.62505 0.53801 0.0
H463 H 0.79428 0.65369 0.55929 0.0
H464 H 0.62637 0.85983 0.51139 0.0
H465 H 0.64415 0.78127 0.5017 0.0
H466 H 0.67916 0.69828 0.50433 0.0
H467 H 0.7261 0.64154 0.51733 0.0
Mn468 Mn 0.10506 0.26949 0.81185 0.0
Mn469 Mn 0.19575 0.1942 0.80614 0.0
C470 C 0.12785 0.25458 0.791 0.0
C471 C 0.07781 0.34627 0.81635 0.0
C472 C 0.0975 0.16213 0.81454 0.0
O473 O 0.13906 0.26423 0.82892 0.0
O474 O 0.20431 0.22318 0.82297 0.0
C475 C 0.27474 0.26382 0.80459 0.0
N476 N 0.24909 0.22772 0.79936 0.0
C477 C 0.30098 0.22469 0.78131 0.0
C478 C 0.3281 0.26179 0.78649 0.0
C479 C 0.31468 0.2817 0.79814 0.0
C480 C 0.2608 0.20935 0.78799 0.0
H481 H 0.26482 0.27869 0.81362 0.0
C482 C 0.18019 0.24644 0.83116 0.0
O483 O 0.0531 0.30893 0.8194 0.0
O484 O 0.11884 0.33892 0.81104 0.0
N485 N 0.19258 0.16293 0.79015 0.0
C486 C 0.16252 0.12746 0.78642 0.0
C487 C 0.17131 0.10328 0.77506 0.0
C488 C 0.21147 0.11504 0.76779 0.0
C489 C 0.24226 0.15114 0.77191 0.0
C490 C 0.23149 0.17428 0.78326 0.0
H491 H 0.13232 0.11727 0.79212 0.0
O492 O 0.08574 0.27099 0.79366 0.0
O493 O 0.15488 0.24708 0.80076 0.0
O494 O 0.07724 0.20262 0.81374 0.0
O495 O 0.14213 0.15578 0.81283 0.0
C496 C 0.28352 0.16466 0.76527 0.0
C497 C 0.31256 0.20186 0.76987 0.0
H498 H 0.35929 0.27521 0.78163 0.0
H499 H 0.33537 0.31037 0.8022 0.0
H500 H 0.14752 0.07526 0.77199 0.0
H501 H 0.21833 0.09613 0.75906 0.0
H502 H 0.29301 0.14654 0.75662 0.0
H503 H 0.34395 0.21237 0.76461 0.0
Mn504 Mn 0.73713 0.60336 0.0626 0.0
Mn505 Mn 0.82018 0.68348 0.05355 0.0
C506 C 0.74425 0.62432 0.0415 0.0
C507 C 0.65965 0.58185 0.06866 0.0
C508 C 0.84428 0.58187 0.06042 0.0
O509 O 0.7513 0.63791 0.07902 0.0
O510 O 0.80716 0.6893 0.07201 0.0
C511 C 0.76893 0.77409 0.05828 0.0
N512 N 0.79306 0.74466 0.0503 0.0
C513 C 0.79567 0.80494 0.03417 0.0
C514 C 0.77087 0.83594 0.04221 0.0
C515 C 0.75716 0.82031 0.05428 0.0
C516 C 0.80604 0.75921 0.03862 0.0
H517 H 0.75912 0.76251 0.06764 0.0
C518 C 0.78074 0.67199 0.08078 0.0
O519 O 0.69612 0.55505 0.07122 0.0
O520 O 0.66852 0.62224 0.06322 0.0
N521 N 0.83517 0.6824 0.03596 0.0
C522 C 0.85321 0.64621 0.02886 0.0
C523 C 0.86564 0.65467 0.01622 0.0
C524 C 0.85986 0.70038 0.01108 0.0
C525 C 0.84055 0.73684 0.01855 0.0
C526 C 0.82811 0.72607 0.031 0.0
H527 H 0.85749 0.61114 0.03279 0.0
O528 O 0.72755 0.58305 0.04478 0.0
O529 O 0.75855 0.65167 0.05068 0.0
O530 O 0.80227 0.56906 0.0635 0.0
O531 O 0.85421 0.62318 0.05631 0.0
C532 C 0.83273 0.78331 0.01409 0.0
C533 C 0.81003 0.81735 0.02185 0.0
H534 H 0.76184 0.87165 0.03919 0.0
H535 H 0.73796 0.84401 0.06054 0.0
H536 H 0.87987 0.62612 0.01048 0.0
H537 H 0.86968 0.7069 0.00134 0.0
H538 H 0.84392 0.79292 0.00467 0.0
H539 H 0.80319 0.85269 0.01819 0.0
Mn540 Mn 0.40752 0.25552 0.30996 0.0
Mn541 Mn 0.31087 0.32351 0.30472 0.0
C542 C 0.37987 0.26581 0.28934 0.0
C543 C 0.44046 0.18122 0.31486 0.0
C544 C 0.40778 0.36355 0.31174 0.0
O545 O 0.37613 0.26105 0.32737 0.0
O546 O 0.30694 0.29626 0.32187 0.0
C547 C 0.2361 0.24917 0.3047 0.0
N548 N 0.2589 0.28573 0.29882 0.0
C549 C 0.20388 0.28355 0.28143 0.0
C550 C 0.17968 0.24588 0.28728 0.0
C551 C 0.19614 0.22834 0.29892 0.0
C552 C 0.24433 0.30182 0.28745 0.0
H553 H 0.24824 0.23623 0.31375 0.0
C554 C 0.33415 0.27608 0.32995 0.0
O555 O 0.46325 0.22046 0.31722 0.0
O556 O 0.39825 0.18526 0.30997 0.0
N557 N 0.3098 0.35255 0.28842 0.0
C558 C 0.33721 0.38901 0.28401 0.0
C559 C 0.32549 0.41071 0.27249 0.0
C560 C 0.28509 0.39553 0.26578 0.0
C561 C 0.25701 0.35853 0.27062 0.0
C562 C 0.27079 0.33778 0.28205 0.0
H563 H 0.36753 0.40181 0.28928 0.0
O564 O 0.42345 0.25247 0.29152 0.0
O565 O 0.3544 0.2729 0.29938 0.0
O566 O 0.43093 0.32457 0.31095 0.0
O567 O 0.36257 0.36625 0.3105 0.0
C568 C 0.21539 0.34205 0.26466 0.0
C569 C 0.18903 0.30428 0.26998 0.0
H570 H 0.1484 0.23026 0.28295 0.0
H571 H 0.17768 0.19926 0.3035 0.0
H572 H 0.34719 0.43948 0.26887 0.0
H573 H 0.27589 0.4126 0.25694 0.0
H574 H 0.20337 0.35859 0.25602 0.0
H575 H 0.15723 0.29165 0.26524 0.0
C576 C 0.21775 0.26522 0.09702 0.0
C577 C 0.24663 0.30339 0.09319 0.0
C578 C 0.22125 0.24607 0.10917 0.0
C579 C 0.2549 0.26508 0.11773 0.0
C580 C 0.28504 0.30288 0.11389 0.0
C581 C 0.28027 0.32194 0.10167 0.0
C582 C 0.18778 0.2064 0.11296 0.0
C583 C 0.32174 0.32356 0.12274 0.0
C584 C 0.22069 0.249 0.15198 0.0
C585 C 0.24581 0.20754 0.15529 0.0
C586 C 0.22489 0.26908 0.13994 0.0
C587 C 0.25537 0.24757 0.13097 0.0
C588 C 0.2822 0.20674 0.13433 0.0
C589 C 0.27686 0.18695 0.14645 0.0
C590 C 0.19506 0.31219 0.13668 0.0
C591 C 0.3155 0.18325 0.12503 0.0
H592 H 0.19144 0.25073 0.09059 0.0
H593 H 0.303 0.3511 0.09874 0.0
H594 H 0.20836 0.17534 0.11644 0.0
H595 H 0.16448 0.21853 0.12079 0.0
H596 H 0.16478 0.19452 0.10502 0.0
H597 H 0.34499 0.3501 0.118 0.0
H598 H 0.30364 0.34112 0.13081 0.0
H599 H 0.34444 0.29479 0.12668 0.0
H600 H 0.1966 0.26536 0.1587 0.0
H601 H 0.29682 0.15529 0.14896 0.0
H602 H 0.16876 0.30265 0.12927 0.0
H603 H 0.21789 0.3409 0.13281 0.0
H604 H 0.1754 0.32638 0.14498 0.0
H605 H 0.29452 0.16696 0.11727 0.0
H606 H 0.33758 0.15506 0.1295 0.0
H607 H 0.33949 0.21011 0.12072 0.0
C608 C 0.83382 0.76152 0.39428 0.0
C609 C 0.81526 0.73107 0.40357 0.0
C610 C 0.81236 0.76493 0.38232 0.0
C611 C 0.77159 0.73707 0.37957 0.0
C612 C 0.75275 0.70628 0.38887 0.0
C613 C 0.7747 0.70372 0.40073 0.0
C614 C 0.83333 0.79826 0.37263 0.0
C615 C 0.70954 0.67572 0.38627 0.0
C616 C 0.68937 0.77032 0.3524 0.0
C617 C 0.7046 0.73886 0.34292 0.0
C618 C 0.7114 0.77077 0.36432 0.0
C619 C 0.74931 0.73881 0.36683 0.0
C620 C 0.76492 0.70711 0.35732 0.0
C621 C 0.74251 0.70759 0.34549 0.0
C622 C 0.69394 0.80521 0.37424 0.0
C623 C 0.80498 0.67221 0.35967 0.0
H624 H 0.86492 0.78301 0.39637 0.0
H625 H 0.75995 0.68004 0.4078 0.0
H626 H 0.84489 0.77782 0.36421 0.0
H627 H 0.80587 0.82406 0.36945 0.0
H628 H 0.86443 0.81835 0.37635 0.0
H629 H 0.69891 0.65412 0.39458 0.0
H630 H 0.67892 0.69842 0.38347 0.0
H631 H 0.71699 0.65129 0.37827 0.0
H632 H 0.66036 0.79482 0.3505 0.0
H633 H 0.75467 0.68307 0.33828 0.0
H634 H 0.72391 0.82763 0.37761 0.0
H635 H 0.68019 0.78529 0.38251 0.0
H636 H 0.66517 0.82884 0.37066 0.0
H637 H 0.8376 0.69148 0.36266 0.0
H638 H 0.81356 0.65063 0.35118 0.0
H639 H 0.79509 0.64773 0.36746 0.0
C640 C 0.24849 0.18467 0.60361 0.0
C641 C 0.27938 0.20215 0.59427 0.0
C642 C 0.24507 0.20697 0.61545 0.0
C643 C 0.27338 0.24754 0.61804 0.0
C644 C 0.30439 0.2655 0.60865 0.0
C645 C 0.30697 0.24269 0.5969 0.0
C646 C 0.21155 0.18684 0.62523 0.0
C647 C 0.33549 0.30842 0.6111 0.0
C648 C 0.24323 0.32788 0.64591 0.0
C649 C 0.27492 0.31094 0.65513 0.0
C650 C 0.24192 0.30735 0.6338 0.0
C651 C 0.27317 0.26927 0.63084 0.0
C652 C 0.30531 0.25225 0.64007 0.0
C653 C 0.30575 0.27317 0.65206 0.0
C654 C 0.20708 0.32629 0.62416 0.0
C655 C 0.33948 0.21195 0.63728 0.0
H656 H 0.22668 0.15369 0.60166 0.0
H657 H 0.33086 0.25672 0.58978 0.0
H658 H 0.2322 0.17424 0.63352 0.0
H659 H 0.18686 0.21495 0.62862 0.0
H660 H 0.19016 0.15664 0.62152 0.0
H661 H 0.35617 0.31918 0.60262 0.0
H662 H 0.3133 0.339 0.61418 0.0
H663 H 0.3609 0.30053 0.61885 0.0
H664 H 0.21915 0.35684 0.64819 0.0
H665 H 0.33057 0.25975 0.65905 0.0
H666 H 0.18331 0.29723 0.6209 0.0
H667 H 0.22664 0.33959 0.61578 0.0
H668 H 0.18475 0.35563 0.62799 0.0
H669 H 0.31937 0.17977 0.63438 0.0
H670 H 0.36205 0.2027 0.64555 0.0
H671 H 0.36317 0.22181 0.62931 0.0
C672 C 0.83086 0.7451 0.85345 0.0
C673 C 0.80744 0.76942 0.84368 0.0
C674 C 0.81056 0.74222 0.86559 0.0
C675 C 0.76602 0.76437 0.86798 0.0
C676 C 0.7421 0.7885 0.85814 0.0
C677 C 0.76294 0.7906 0.84616 0.0
C678 C 0.83687 0.71588 0.87586 0.0
C679 C 0.69466 0.81278 0.86031 0.0
C680 C 0.68817 0.72984 0.89586 0.0
C681 C 0.69775 0.7667 0.90445 0.0
C682 C 0.71133 0.72773 0.88412 0.0
C683 C 0.7445 0.76359 0.88082 0.0
C684 C 0.75449 0.80075 0.88944 0.0
C685 C 0.73118 0.80176 0.90116 0.0
C686 C 0.69991 0.68742 0.87519 0.0
C687 C 0.78917 0.84001 0.8862 0.0
H688 H 0.8651 0.7285 0.85166 0.0
H689 H 0.74425 0.80945 0.83873 0.0
H690 H 0.8459 0.74075 0.88364 0.0
H691 H 0.81372 0.68774 0.87991 0.0
H692 H 0.8703 0.69918 0.87238 0.0
H693 H 0.68042 0.82959 0.85159 0.0
H694 H 0.6681 0.7867 0.8638 0.0
H695 H 0.69848 0.84068 0.86765 0.0
H696 H 0.66287 0.70224 0.89835 0.0
H697 H 0.73898 0.83034 0.90771 0.0
H698 H 0.73321 0.66912 0.87226 0.0
H699 H 0.68296 0.70171 0.86652 0.0
H700 H 0.67551 0.66081 0.87947 0.0
H701 H 0.82422 0.82465 0.88354 0.0
H702 H 0.79454 0.86522 0.89415 0.0
H703 H 0.77583 0.86026 0.87793 0.0
C704 C 0.71141 0.76239 0.5961 0.0
C705 C 0.74026 0.80167 0.59312 0.0
C706 C 0.71394 0.7405 0.60798 0.0
C707 C 0.74628 0.75806 0.61711 0.0
C708 C 0.77607 0.79713 0.61413 0.0
C709 C 0.77258 0.8186 0.60219 0.0
C710 C 0.68117 0.69925 0.61085 0.0
C711 C 0.81112 0.81674 0.62362 0.0
C712 C 0.71434 0.73877 0.65143 0.0
C713 C 0.74316 0.69977 0.65475 0.0
C714 C 0.71527 0.75797 0.63925 0.0
C715 C 0.74603 0.73805 0.6301 0.0
C716 C 0.77551 0.6989 0.63333 0.0
C717 C 0.77358 0.68001 0.64562 0.0
C718 C 0.68291 0.79943 0.63616 0.0
C719 C 0.809 0.67702 0.6238 0.0
H720 H 0.68642 0.74883 0.58917 0.0
H721 H 0.79543 0.84855 0.59997 0.0
H722 H 0.70214 0.66819 0.61417 0.0
H723 H 0.65633 0.70922 0.61856 0.0
H724 H 0.65982 0.68829 0.60251 0.0
H725 H 0.83397 0.84515 0.61955 0.0
H726 H 0.79156 0.83165 0.63182 0.0
H727 H 0.83437 0.7878 0.62722 0.0
H728 H 0.69043 0.75429 0.65834 0.0
H729 H 0.79608 0.65005 0.6481 0.0
H730 H 0.65844 0.7896 0.62836 0.0
H731 H 0.70437 0.83021 0.6329 0.0
H732 H 0.66116 0.81087 0.64439 0.0
H733 H 0.78843 0.66326 0.61563 0.0
H734 H 0.83027 0.64737 0.62786 0.0
H735 H 0.83379 0.7045 0.62013 0.0
C736 C 0.3243 0.27267 0.89657 0.0
C737 C 0.30232 0.24285 0.90545 0.0
C738 C 0.30399 0.27972 0.88457 0.0
C739 C 0.26115 0.2559 0.88135 0.0
C740 C 0.23825 0.22679 0.89039 0.0
C741 C 0.25892 0.22084 0.9023 0.0
C742 C 0.32907 0.31151 0.8752 0.0
C743 C 0.19291 0.20015 0.88729 0.0
C744 C 0.18601 0.28588 0.85247 0.0
C745 C 0.20157 0.25113 0.8439 0.0
C746 C 0.20654 0.28942 0.86457 0.0
C747 C 0.24271 0.25689 0.86819 0.0
C748 C 0.25883 0.2222 0.85951 0.0
C749 C 0.23835 0.21997 0.84749 0.0
C750 C 0.18901 0.32731 0.87354 0.0
C751 C 0.29664 0.18621 0.86305 0.0
H752 H 0.3575 0.29026 0.89895 0.0
H753 H 0.24141 0.19778 0.90907 0.0
H754 H 0.34363 0.28966 0.86737 0.0
H755 H 0.3035 0.33719 0.87101 0.0
H756 H 0.35889 0.33161 0.87959 0.0
H757 H 0.17797 0.18137 0.89563 0.0
H758 H 0.16549 0.22497 0.8836 0.0
H759 H 0.20015 0.17348 0.8798 0.0
H760 H 0.15796 0.31035 0.84973 0.0
H761 H 0.25054 0.19278 0.84097 0.0
H762 H 0.21959 0.34769 0.8774 0.0
H763 H 0.17054 0.31042 0.88164 0.0
H764 H 0.16393 0.3525 0.86892 0.0
H765 H 0.32922 0.20459 0.86643 0.0
H766 H 0.30654 0.16273 0.85503 0.0
H767 H 0.28353 0.16359 0.87091 0.0
C768 C 0.81312 0.73394 0.09553 0.0
C769 C 0.78275 0.69494 0.09342 0.0
C770 C 0.81346 0.75799 0.10714 0.0
C771 C 0.78275 0.74279 0.11693 0.0
C772 C 0.75241 0.70321 0.11496 0.0
C773 C 0.75277 0.67975 0.10324 0.0
C774 C 0.84646 0.79995 0.10889 0.0
C775 C 0.71924 0.68587 0.1252 0.0
C776 C 0.81271 0.77623 0.15073 0.0
C777 C 0.78125 0.81426 0.15301 0.0
C778 C 0.8138 0.75299 0.13901 0.0
C779 C 0.78273 0.76803 0.12928 0.0
C780 C 0.75147 0.80686 0.1314 0.0
C781 C 0.75109 0.82952 0.14323 0.0
C782 C 0.84777 0.71184 0.13711 0.0
C783 C 0.71789 0.82398 0.12122 0.0
H784 H 0.83639 0.7462 0.08804 0.0
H785 H 0.72907 0.64982 0.10175 0.0
H786 H 0.82543 0.83232 0.11115 0.0
H787 H 0.87079 0.79339 0.11697 0.0
H788 H 0.86831 0.80717 0.10036 0.0
H789 H 0.69801 0.65448 0.12219 0.0
H790 H 0.74002 0.67614 0.13373 0.0
H791 H 0.69434 0.71479 0.12795 0.0
H792 H 0.83622 0.76398 0.15817 0.0
H793 H 0.72659 0.85874 0.14486 0.0
H794 H 0.87144 0.71895 0.12894 0.0
H795 H 0.82741 0.67899 0.13494 0.0
H796 H 0.87029 0.70512 0.14555 0.0
H797 H 0.73832 0.83377 0.11264 0.0
H798 H 0.69653 0.85526 0.12427 0.0
H799 H 0.69313 0.7949 0.11854 0.0
C800 C 0.25415 0.29349 0.40178 0.0
C801 C 0.21384 0.26574 0.40457 0.0
C802 C 0.27597 0.2915 0.38989 0.0
C803 C 0.25732 0.26077 0.38054 0.0
C804 C 0.21756 0.2316 0.38337 0.0
C805 C 0.19612 0.23458 0.39534 0.0
C806 C 0.31796 0.32361 0.3872 0.0
C807 C 0.19692 0.19815 0.37364 0.0
C808 C 0.2761 0.29915 0.34668 0.0
C809 C 0.31513 0.27111 0.34294 0.0
C810 C 0.2568 0.29561 0.35882 0.0
C811 C 0.27661 0.26284 0.36748 0.0
C812 C 0.31569 0.23397 0.36379 0.0
C813 C 0.33478 0.23868 0.35157 0.0
C814 C 0.21561 0.3276 0.36242 0.0
C815 C 0.33735 0.1983 0.37277 0.0
H816 H 0.26838 0.3176 0.40882 0.0
H817 H 0.16536 0.2126 0.39742 0.0
H818 H 0.34832 0.30257 0.38346 0.0
H819 H 0.30803 0.34999 0.37987 0.0
H820 H 0.33007 0.34315 0.39574 0.0
H821 H 0.16884 0.17476 0.37767 0.0
H822 H 0.18113 0.21899 0.36579 0.0
H823 H 0.22547 0.17552 0.36956 0.0
H824 H 0.26081 0.3246 0.34014 0.0
H825 H 0.3647 0.21669 0.34873 0.0
H826 H 0.22604 0.35065 0.37047 0.0
H827 H 0.18478 0.30587 0.36554 0.0
H828 H 0.20392 0.35071 0.3545 0.0
H829 H 0.35217 0.21698 0.38112 0.0
H830 H 0.36626 0.17715 0.36829 0.0
H831 H 0.30944 0.17359 0.37625 0.0
C832 C 0.31053 0.16601 0.22142 0.0
C833 C 0.26192 0.15559 0.22023 0.0
C834 C 0.32936 0.18341 0.23278 0.0
C835 C 0.29826 0.1935 0.24298 0.0
C836 C 0.24898 0.18297 0.2418 0.0
C837 C 0.2318 0.16225 0.23059 0.0
C838 C 0.38267 0.18999 0.23393 0.0
C839 C 0.21399 0.19534 0.25211 0.0
C840 C 0.34553 0.20101 0.27655 0.0
C841 C 0.35729 0.24927 0.27758 0.0
C842 C 0.32731 0.18223 0.26527 0.0
C843 C 0.31791 0.21311 0.255 0.0
C844 C 0.32951 0.26211 0.25606 0.0
C845 C 0.35091 0.27917 0.26719 0.0
C846 C 0.31948 0.12917 0.26425 0.0
C847 C 0.31774 0.29687 0.24567 0.0
H848 H 0.33412 0.15935 0.2135 0.0
H849 H 0.19484 0.15183 0.2299 0.0
H850 H 0.39137 0.22837 0.23466 0.0
H851 H 0.39594 0.17249 0.24265 0.0
H852 H 0.40218 0.17501 0.22571 0.0
H853 H 0.17871 0.17828 0.25062 0.0
H854 H 0.22747 0.18523 0.26156 0.0
H855 H 0.209 0.23443 0.25215 0.0
H856 H 0.35205 0.17756 0.2845 0.0
H857 H 0.36218 0.31587 0.26779 0.0
H858 H 0.33723 0.11515 0.25565 0.0
H859 H 0.28087 0.12137 0.26337 0.0
H860 H 0.3335 0.10968 0.27259 0.0
H861 H 0.33449 0.33221 0.24722 0.0
H862 H 0.27856 0.30151 0.24542 0.0
H863 H 0.32873 0.28334 0.23629 0.0
C864 C 0.81813 0.77743 0.47061 0.0
C865 C 0.86616 0.76528 0.46893 0.0
C866 C 0.80054 0.79186 0.48242 0.0
C867 C 0.8328 0.7996 0.4925 0.0
C868 C 0.88211 0.79054 0.49062 0.0
C869 C 0.89775 0.77181 0.47904 0.0
C870 C 0.74736 0.7978 0.48415 0.0
C871 C 0.91934 0.80135 0.50052 0.0
C872 C 0.78417 0.88295 0.51779 0.0
C873 C 0.77964 0.8523 0.52816 0.0
C874 C 0.80324 0.86678 0.50629 0.0
C875 C 0.81486 0.81794 0.50483 0.0
C876 C 0.81058 0.78694 0.51528 0.0
C877 C 0.7952 0.80511 0.52694 0.0
C878 C 0.81291 0.90237 0.49592 0.0
C879 C 0.82289 0.73477 0.51419 0.0
H880 H 0.79447 0.77736 0.46259 0.0
H881 H 0.93541 0.76442 0.47774 0.0
H882 H 0.73837 0.83161 0.48895 0.0
H883 H 0.7279 0.79674 0.47503 0.0
H884 H 0.73407 0.76867 0.49028 0.0
H885 H 0.94993 0.82025 0.49614 0.0
H886 H 0.90577 0.82339 0.50843 0.0
H887 H 0.9335 0.76743 0.50437 0.0
H888 H 0.77458 0.92014 0.51884 0.0
H889 H 0.79673 0.78262 0.53519 0.0
H890 H 0.78807 0.89662 0.48792 0.0
H891 H 0.84971 0.89765 0.49224 0.0
H892 H 0.80873 0.93967 0.49922 0.0
H893 H 0.80018 0.71796 0.50685 0.0
H894 H 0.8182 0.71555 0.52325 0.0
H895 H 0.86046 0.73021 0.51122 0.0
C896 C 0.19358 0.34459 0.72178 0.0
C897 C 0.24182 0.35665 0.72066 0.0
C898 C 0.17478 0.32832 0.73325 0.0
C899 C 0.20576 0.32074 0.74362 0.0
C900 C 0.25474 0.33257 0.74249 0.0
C901 C 0.27163 0.35261 0.73118 0.0
C902 C 0.12158 0.32084 0.73437 0.0
C903 C 0.28953 0.32288 0.75307 0.0
C904 C 0.15892 0.31797 0.77723 0.0
C905 C 0.14896 0.26956 0.77891 0.0
C906 C 0.17599 0.33526 0.76568 0.0
C907 C 0.18626 0.30282 0.75581 0.0
C908 C 0.17617 0.25377 0.75747 0.0
C909 C 0.15564 0.23809 0.76885 0.0
C910 C 0.18183 0.38833 0.76396 0.0
C911 C 0.18847 0.21769 0.74743 0.0
H912 H 0.17011 0.34955 0.71375 0.0
H913 H 0.30804 0.36487 0.73056 0.0
H914 H 0.11356 0.28251 0.73559 0.0
H915 H 0.10765 0.33973 0.7428 0.0
H916 H 0.10205 0.33382 0.72591 0.0
H917 H 0.32494 0.33926 0.7513 0.0
H918 H 0.27594 0.33599 0.76225 0.0
H919 H 0.2942 0.28384 0.75399 0.0
H920 H 0.15201 0.34263 0.7849 0.0
H921 H 0.14512 0.20134 0.76988 0.0
H922 H 0.16417 0.4 0.75511 0.0
H923 H 0.22015 0.39748 0.76316 0.0
H924 H 0.1665 0.40884 0.77197 0.0
H925 H 0.17561 0.22894 0.73801 0.0
H926 H 0.17361 0.18196 0.74954 0.0
H927 H 0.2278 0.21491 0.7468 0.0
C928 C 0.72172 0.69132 0.02712 0.0
C929 C 0.73262 0.64305 0.02879 0.0
C930 C 0.70722 0.70904 0.01534 0.0
C931 C 0.69897 0.67693 0.0053 0.0
C932 C 0.70716 0.62761 0.00713 0.0
C933 C 0.72518 0.61148 0.01874 0.0
C934 C 0.70103 0.76207 0.01364 0.0
C935 C 0.69528 0.59168 0.99699 0.0
C936 C 0.61496 0.72086 0.97961 0.0
C937 C 0.64616 0.72661 0.96939 0.0
C938 C 0.63145 0.70378 0.99129 0.0
C939 C 0.68078 0.69474 0.99298 0.0
C940 C 0.71254 0.70137 0.98277 0.0
C941 C 0.69441 0.71503 0.97097 0.0
C942 C 0.59581 0.69355 0.00163 0.0
C943 C 0.76563 0.69419 0.98431 0.0
H944 H 0.72323 0.71516 0.0351 0.0
H945 H 0.73173 0.5738 0.02011 0.0
H946 H 0.6655 0.7706 0.00966 0.0
H947 H 0.70524 0.78188 0.02263 0.0
H948 H 0.72792 0.77512 0.00678 0.0
H949 H 0.69996 0.55445 0.0003 0.0
H950 H 0.6578 0.59649 0.99386 0.0
H951 H 0.71834 0.59719 0.98862 0.0
H952 H 0.57726 0.72793 0.97832 0.0
H953 H 0.71788 0.71525 0.96289 0.0
H954 H 0.60274 0.71661 0.00992 0.0
H955 H 0.59958 0.6561 0.00482 0.0
H956 H 0.55845 0.69938 0.9985 0.0
H957 H 0.77963 0.72128 0.99097 0.0
H958 H 0.78506 0.69726 0.97522 0.0
H959 H 0.77366 0.65888 0.98844 0.0
C960 C 0.31298 0.33534 0.02672 0.0
C961 C 0.26485 0.34792 0.02782 0.0
C962 C 0.33135 0.31716 0.01538 0.0
C963 C 0.30013 0.30862 0.00511 0.0
C964 C 0.25124 0.321 0.00624 0.0
C965 C 0.23464 0.34235 0.01744 0.0
C966 C 0.38436 0.30838 0.0143 0.0
C967 C 0.21603 0.31013 0.99587 0.0
C968 C 0.34712 0.30162 0.9715 0.0
C969 C 0.35658 0.25294 0.97015 0.0
C970 C 0.32996 0.3203 0.98291 0.0
C971 C 0.31935 0.28908 0.99302 0.0
C972 C 0.32896 0.23973 0.99168 0.0
C973 C 0.34919 0.22256 0.9804 0.0
C974 C 0.32419 0.37355 0.9842 0.0
C975 C 0.31599 0.20471 0.00189 0.0
H976 H 0.33666 0.34109 0.03467 0.0
H977 H 0.19803 0.35411 0.01811 0.0
H978 H 0.39148 0.26975 0.0133 0.0
H979 H 0.39863 0.3262 0.00575 0.0
H980 H 0.40421 0.32165 0.02267 0.0
H981 H 0.18106 0.32776 0.99745 0.0
H982 H 0.22977 0.32075 0.98649 0.0
H983 H 0.21034 0.27115 0.99562 0.0
H984 H 0.3543 0.32536 0.96365 0.0
H985 H 0.35862 0.1854 0.97956 0.0
H986 H 0.34218 0.38621 0.99291 0.0
H987 H 0.28587 0.3828 0.98503 0.0
H988 H 0.33921 0.39307 0.97599 0.0
H989 H 0.33198 0.16906 0.00024 0.0
H990 H 0.27672 0.20101 0.00198 0.0
H991 H 0.32682 0.21743 0.01136 0.0
C992 C 0.61698 0.78112 0.26787 0.0
C993 C 0.64889 0.77759 0.278 0.0
C994 C 0.63193 0.79806 0.25605 0.0
C995 C 0.68078 0.80898 0.25408 0.0
C996 C 0.71338 0.80426 0.2642 0.0
C997 C 0.69654 0.79083 0.27616 0.0
C998 C 0.59468 0.80494 0.2459 0.0
C999 C 0.76607 0.81313 0.26239 0.0
C1000 C 0.71926 0.81318 0.2197 0.0
C1001 C 0.73021 0.86144 0.21808 0.0
C1002 C 0.70531 0.7952 0.2315 0.0
C1003 C 0.69771 0.82703 0.24164 0.0
C1004 C 0.70513 0.87646 0.2398 0.0
C1005 C 0.72281 0.89282 0.22818 0.0
C1006 C 0.6985 0.74224 0.23308 0.0
C1007 C 0.69226 0.91228 0.24989 0.0
H1008 H 0.57967 0.77255 0.26934 0.0
H1009 H 0.72046 0.79216 0.28415 0.0
H1010 H 0.60565 0.83106 0.23861 0.0
H1011 H 0.58761 0.77032 0.24123 0.0
H1012 H 0.56047 0.81712 0.2501 0.0
H1013 H 0.78625 0.81083 0.27138 0.0
H1014 H 0.78044 0.78644 0.25566 0.0
H1015 H 0.77268 0.8486 0.2582 0.0
H1016 H 0.72034 0.78957 0.21166 0.0
H1017 H 0.72902 0.93056 0.22684 0.0
H1018 H 0.66197 0.73428 0.23643 0.0
H1019 H 0.72362 0.72885 0.24036 0.0
H1020 H 0.70446 0.72244 0.22416 0.0
H1021 H 0.65495 0.90642 0.25304 0.0
H1022 H 0.69573 0.94955 0.24651 0.0
H1023 H 0.71552 0.90775 0.25825 0.0
C1024 C 0.20446 0.2242 0.47166 0.0
C1025 C 0.15666 0.23652 0.46969 0.0
C1026 C 0.22104 0.21024 0.48361 0.0
C1027 C 0.18796 0.20304 0.49352 0.0
C1028 C 0.13886 0.21234 0.49135 0.0
C1029 C 0.12424 0.23066 0.47964 0.0
C1030 C 0.27408 0.20427 0.48563 0.0
C1031 C 0.10077 0.2021 0.50106 0.0
C1032 C 0.23492 0.11981 0.51902 0.0
C1033 C 0.23914 0.15057 0.52938 0.0
C1034 C 0.21632 0.1359 0.50746 0.0
C1035 C 0.20484 0.18474 0.50595 0.0
C1036 C 0.20864 0.21582 0.51641 0.0
C1037 C 0.2236 0.19775 0.52811 0.0
C1038 C 0.20731 0.10027 0.49705 0.0
C1039 C 0.19632 0.26796 0.51528 0.0
H1040 H 0.22874 0.22369 0.46378 0.0
H1041 H 0.08673 0.23817 0.4781 0.0
H1042 H 0.28267 0.17104 0.49075 0.0
H1043 H 0.29414 0.20418 0.47661 0.0
H1044 H 0.28705 0.23412 0.49156 0.0
H1045 H 0.07081 0.18252 0.49658 0.0
H1046 H 0.11371 0.18093 0.5092 0.0
H1047 H 0.08592 0.23624 0.50459 0.0
H1048 H 0.2445 0.08263 0.5201 0.0
H1049 H 0.22187 0.22033 0.53635 0.0
H1050 H 0.23328 0.10543 0.48929 0.0
H1051 H 0.17108 0.10548 0.49304 0.0
H1052 H 0.21047 0.06298 0.50044 0.0
H1053 H 0.2191 0.28471 0.50794 0.0
H1054 H 0.20087 0.2873 0.52432 0.0
H1055 H 0.15877 0.27242 0.51227 0.0
C1056 C 0.8171 0.66744 0.72175 0.0
C1057 C 0.76881 0.65585 0.72043 0.0
C1058 C 0.83519 0.68448 0.73323 0.0
C1059 C 0.80354 0.69325 0.7434 0.0
C1060 C 0.75454 0.68177 0.74206 0.0
C1061 C 0.73826 0.6611 0.73076 0.0
C1062 C 0.88837 0.69162 0.73458 0.0
C1063 C 0.719 0.69264 0.75238 0.0
C1064 C 0.84809 0.69877 0.77722 0.0
C1065 C 0.85872 0.74717 0.77862 0.0
C1066 C 0.83147 0.68057 0.76571 0.0
C1067 C 0.82232 0.71214 0.75557 0.0
C1068 C 0.83299 0.76121 0.75697 0.0
C1069 C 0.85305 0.77772 0.76833 0.0
C1070 C 0.82502 0.62743 0.76433 0.0
C1071 C 0.82176 0.79652 0.74666 0.0
H1072 H 0.84112 0.66157 0.71387 0.0
H1073 H 0.70172 0.64937 0.72999 0.0
H1074 H 0.89662 0.73001 0.73555 0.0
H1075 H 0.90149 0.67356 0.74323 0.0
H1076 H 0.90841 0.67754 0.72633 0.0
H1077 H 0.68389 0.67561 0.75063 0.0
H1078 H 0.7321 0.68119 0.76176 0.0
H1079 H 0.71384 0.73171 0.75283 0.0
H1080 H 0.85427 0.67478 0.78508 0.0
H1081 H 0.86398 0.81443 0.76916 0.0
H1082 H 0.84313 0.61465 0.75564 0.0
H1083 H 0.78663 0.61872 0.7634 0.0
H1084 H 0.83951 0.60753 0.77254 0.0
H1085 H 0.8376 0.83204 0.74853 0.0
H1086 H 0.78253 0.80036 0.74603 0.0
H1087 H 0.83425 0.78395 0.73732 0.0
C1088 C 0.05845 0.11016 0.18735 0.0
C1089 C 0.10124 0.088 0.18365 0.0
C1090 C 0.01477 0.08578 0.18706 0.0
C1091 C 0.01319 0.0384 0.18256 0.0
C1092 C 0.05569 0.01666 0.17811 0.0
C1093 C 0.09929 0.04143 0.17888 0.0
C1094 C 0.97076 0.10997 0.19223 0.0
C1095 C 0.05534 0.96665 0.1729 0.0
C1096 C 0.91875 0.9548 0.19557 0.0
C1097 C 0.88381 0.95555 0.1861 0.0
C1098 C 0.96029 0.98234 0.19462 0.0
C1099 C 0.96817 0.01022 0.18369 0.0
C1100 C 0.93297 0.01128 0.17406 0.0
C1101 C 0.89078 0.98445 0.17547 0.0
C1102 C 0.99593 0.98125 0.20532 0.0
C1103 C 0.94058 0.03953 0.16213 0.0
H1104 H 0.05916 0.14622 0.19097 0.0
H1105 H 0.13189 0.02411 0.17584 0.0
H1106 H 0.94133 0.10848 0.18525 0.0
H1107 H 0.95848 0.09095 0.20081 0.0
H1108 H 0.97736 0.1478 0.19473 0.0
H1109 H 0.08979 0.95708 0.16838 0.0
H1110 H 0.0483 0.94101 0.18064 0.0
H1111 H 0.02632 0.96257 0.16586 0.0
H1112 H 0.91368 0.93246 0.20378 0.0
H1113 H 0.86422 0.98448 0.16804 0.0
H1114 H 1.00333 0.01798 0.20864 0.0
H1115 H 0.03015 0.96598 0.20197 0.0
H1116 H 0.98319 0.95981 0.21345 0.0
H1117 H 0.9468 0.07754 0.16441 0.0
H1118 H 0.90972 0.037 0.15558 0.0
H1119 H 0.97292 0.02635 0.15719 0.0
C1120 C 0.03111 0.39415 0.43954 0.0
C1121 C 0.07473 0.38873 0.43327 0.0
C1122 C 0.0067 0.43798 0.43932 0.0
C1123 C 0.02578 0.47672 0.43237 0.0
C1124 C 0.06869 0.47047 0.42552 0.0
C1125 C 0.09301 0.42685 0.42623 0.0
C1126 C 0.96158 0.44345 0.44696 0.0
C1127 C 0.08952 0.5102 0.41767 0.0
C1128 C 0.94033 0.57789 0.42459 0.0
C1129 C 0.95328 0.61235 0.43351 0.0
C1130 C 0.96465 0.53425 0.42382 0.0
C1131 C 1.00163 0.52413 0.43253 0.0
C1132 C 0.01511 0.55917 0.4415 0.0
C1133 C 0.99114 0.6032 0.44177 0.0
C1134 C 0.95018 0.49866 0.41385 0.0
C1135 C 0.05357 0.54943 0.45113 0.0
H1136 H 0.01739 0.36494 0.44515 0.0
H1137 H 0.12681 0.42264 0.42138 0.0
H1138 H 0.96672 0.47134 0.45426 0.0
H1139 H 0.93183 0.45524 0.44081 0.0
H1140 H 0.95105 0.40981 0.45171 0.0
H1141 H 0.12094 0.49837 0.4121 0.0
H1142 H 0.0622 0.5244 0.41109 0.0
H1143 H 0.10066 0.53993 0.4239 0.0
H1144 H 0.9107 0.58498 0.41828 0.0
H1145 H 1.00036 0.62955 0.44884 0.0
H1146 H 0.93501 0.4665 0.4184 0.0
H1147 H 0.98187 0.48713 0.40837 0.0
H1148 H 0.92327 0.5134 0.40722 0.0
H1149 H 0.04345 0.51823 0.45697 0.0
H1150 H 0.05978 0.58031 0.45748 0.0
H1151 H 0.08755 0.54046 0.44633 0.0
C1152 C 0.41169 0.4577 0.67501 0.0
C1153 C 0.39796 0.4388 0.68668 0.0
C1154 C 0.45384 0.48458 0.67387 0.0
C1155 C 0.48229 0.49318 0.6847 0.0
C1156 C 0.46784 0.47472 0.69654 0.0
C1157 C 0.42593 0.44766 0.69736 0.0
C1158 C 0.46817 0.50341 0.66108 0.0
C1159 C 0.49655 0.4837 0.70837 0.0
C1160 C 0.6135 0.52734 0.68257 0.0
C1161 C 0.61176 0.57655 0.68488 0.0
C1162 C 0.57151 0.50001 0.682 0.0
C1163 C 0.52667 0.52228 0.68384 0.0
C1164 C 0.52457 0.57206 0.68579 0.0
C1165 C 0.56698 0.59852 0.68624 0.0
C1166 C 0.57521 0.44704 0.67982 0.0
C1167 C 0.47758 0.5972 0.68787 0.0
H1168 H 0.38993 0.45065 0.66676 0.0
H1169 H 0.41465 0.43397 0.70643 0.0
H1170 H 0.47078 0.54279 0.66139 0.0
H1171 H 0.50396 0.48959 0.6585 0.0
H1172 H 0.44245 0.49323 0.65358 0.0
H1173 H 0.48043 0.46675 0.71683 0.0
H1174 H 0.5333 0.46976 0.70718 0.0
H1175 H 0.49944 0.52255 0.7101 0.0
H1176 H 0.64773 0.50992 0.68144 0.0
H1177 H 0.56491 0.63648 0.68799 0.0
H1178 H 0.55135 0.43612 0.67198 0.0
H1179 H 0.56337 0.42776 0.6884 0.0
H1180 H 0.6122 0.43572 0.67754 0.0
H1181 H 0.45243 0.58882 0.6801 0.0
H1182 H 0.48175 0.63646 0.68846 0.0
H1183 H 0.46111 0.58445 0.69677 0.0
C1184 C 0.39822 0.05154 0.93278 0.0
C1185 C 0.42374 0.09462 0.93236 0.0
C1186 C 0.42164 0.00735 0.93232 0.0
C1187 C 0.47193 0.00583 0.93132 0.0
C1188 C 0.49779 0.049 0.93026 0.0
C1189 C 0.47346 0.09282 0.93083 0.0
C1190 C 0.39265 0.9623 0.93354 0.0
C1191 C 0.55144 0.04896 0.92908 0.0
C1192 C 0.53892 0.90193 0.94595 0.0
C1193 C 0.55063 0.87436 0.93538 0.0
C1194 C 0.51236 0.94403 0.94476 0.0
C1195 C 0.49774 0.95951 0.93264 0.0
C1196 C 0.50853 0.93114 0.92192 0.0
C1197 C 0.53469 0.88863 0.92344 0.0
C1198 C 0.50096 0.97254 0.95647 0.0
C1199 C 0.49394 0.94656 0.90884 0.0
H1200 H 0.35981 0.05216 0.93391 0.0
H1201 H 0.49364 0.12567 0.93043 0.0
H1202 H 0.40231 0.93672 0.92598 0.0
H1203 H 0.40071 0.94495 0.9427 0.0
H1204 H 0.35368 0.96925 0.93306 0.0
H1205 H 0.56584 0.08502 0.9271 0.0
H1206 H 0.56754 0.03579 0.93799 0.0
H1207 H 0.56282 0.0245 0.92142 0.0
H1208 H 0.55101 0.89085 0.95519 0.0
H1209 H 0.54441 0.86763 0.91524 0.0
H1210 H 0.46195 0.97868 0.95715 0.0
H1211 H 0.51835 0.00794 0.95592 0.0
H1212 H 0.51314 0.95455 0.96523 0.0
H1213 H 0.45503 0.95362 0.90852 0.0
H1214 H 0.50286 0.91944 0.90158 0.0
H1215 H 0.51227 0.98031 0.90639 0.0
C1216 C 0.10294 0.46942 0.06618 0.0
C1217 C 0.10453 0.42011 0.06405 0.0
C1218 C 0.05914 0.4939 0.06678 0.0
C1219 C 0.01583 0.46863 0.0651 0.0
C1220 C 0.01712 0.41872 0.06339 0.0
C1221 C 0.06126 0.39512 0.06294 0.0
C1222 C 0.0593 0.54711 0.06875 0.0
C1223 C 0.97193 0.39042 0.06143 0.0
C1224 C 0.89757 0.52915 0.07325 0.0
C1225 C 0.88439 0.54797 0.06152 0.0
C1226 C 0.94022 0.50301 0.07462 0.0
C1227 C 0.96966 0.49487 0.06393 0.0
C1228 C 0.95526 0.51232 0.05199 0.0
C1229 C 0.9132 0.5391 0.05098 0.0
C1230 C 0.95464 0.48561 0.08754 0.0
C1231 C 0.9848 0.50358 0.04029 0.0
H1232 H 0.13595 0.48915 0.06712 0.0
H1233 H 0.06171 0.35703 0.06133 0.0
H1234 H 0.04683 0.56512 0.06004 0.0
H1235 H 0.03429 0.55698 0.07644 0.0
H1236 H 0.09535 0.56082 0.07113 0.0
H1237 H 0.97867 0.35145 0.06122 0.0
H1238 H 0.94589 0.39822 0.06904 0.0
H1239 H 0.95515 0.40094 0.05236 0.0
H1240 H 0.87567 0.53671 0.08145 0.0
H1241 H 0.90309 0.55353 0.0419 0.0
H1242 H 0.9884 0.50311 0.09042 0.0
H1243 H 0.96145 0.44673 0.08732 0.0
H1244 H 0.92702 0.49317 0.09478 0.0
H1245 H 0.02016 0.52082 0.04131 0.0
H1246 H 0.96743 0.5176 0.03162 0.0
H1247 H 0.99109 0.46486 0.03904 0.0
C1248 C 0.5682 0.59634 0.32283 0.0
C1249 C 0.55732 0.63088 0.31375 0.0
C1250 C 0.54193 0.55391 0.32361 0.0
C1251 C 0.50509 0.54511 0.31476 0.0
C1252 C 0.49334 0.58051 0.30573 0.0
C1253 C 0.51929 0.62335 0.30544 0.0
C1254 C 0.55473 0.51783 0.33361 0.0
C1255 C 0.45515 0.57209 0.29594 0.0
C1256 C 0.47808 0.41539 0.3072 0.0
C1257 C 0.43434 0.40866 0.31333 0.0
C1258 C 0.50126 0.45972 0.30752 0.0
C1259 C 0.48093 0.4978 0.31447 0.0
C1260 C 0.43753 0.49064 0.32104 0.0
C1261 C 0.41435 0.4464 0.32021 0.0
C1262 C 0.54687 0.46615 0.30013 0.0
C1263 C 0.4155 0.52976 0.32889 0.0
H1264 H 0.59796 0.60221 0.32918 0.0
H1265 H 0.51165 0.64979 0.29827 0.0
H1266 H 0.52222 0.50598 0.33869 0.0
H1267 H 0.57078 0.48595 0.32912 0.0
H1268 H 0.58052 0.53225 0.34059 0.0
H1269 H 0.44893 0.60388 0.28993 0.0
H1270 H 0.46573 0.5419 0.28978 0.0
H1271 H 0.42108 0.56215 0.30055 0.0
H1272 H 0.49326 0.38649 0.30172 0.0
H1273 H 0.38054 0.44123 0.32498 0.0
H1274 H 0.57632 0.47635 0.30657 0.0
H1275 H 0.54251 0.49546 0.2932 0.0
H1276 H 0.55743 0.43335 0.29498 0.0
H1277 H 0.44173 0.54303 0.3359 0.0
H1278 H 0.38306 0.51764 0.33398 0.0
H1279 H 0.40569 0.56022 0.32276 0.0
C1280 C 0.61468 0.97374 0.56932 0.0
C1281 C 0.61846 0.93487 0.56106 0.0
C1282 C 0.5715 0.9993 0.57045 0.0
C1283 C 0.53168 0.98657 0.56288 0.0
C1284 C 0.53565 0.9477 0.55446 0.0
C1285 C 0.57853 0.92206 0.55379 0.0
C1286 C 0.56841 0.03987 0.57975 0.0
C1287 C 0.49488 0.93373 0.54589 0.0
C1288 C 0.40412 0.02801 0.56976 0.0
C1289 C 0.40026 0.06785 0.56185 0.0
C1290 C 0.44724 1.00214 0.57058 0.0
C1291 C 0.48688 0.01561 0.56304 0.0
C1292 C 0.48283 0.05548 0.55496 0.0
C1293 C 0.44005 0.08134 0.55461 0.0
C1294 C 0.45045 0.96046 0.57951 0.0
C1295 C 0.5234 0.07035 0.54645 0.0
H1296 H 0.64509 0.9835 0.57508 0.0
H1297 H 0.58091 0.89212 0.54738 0.0
H1298 H 0.5627 0.07385 0.57464 0.0
H1299 H 0.53737 0.03469 0.58611 0.0
H1300 H 0.60118 0.04315 0.58558 0.0
H1301 H 0.50369 0.90255 0.53987 0.0
H1302 H 0.46283 0.92507 0.55157 0.0
H1303 H 0.48538 0.96406 0.53967 0.0
H1304 H 0.37383 0.01765 0.57549 0.0
H1305 H 0.43764 0.11203 0.54846 0.0
H1306 H 0.48162 0.96481 0.58586 0.0
H1307 H 0.45599 0.92711 0.5741 0.0
H1308 H 0.41779 0.95653 0.58535 0.0
H1309 H 0.55559 0.07838 0.55214 0.0
H1310 H 0.51448 0.10218 0.54069 0.0
H1311 H 0.53274 0.04071 0.53997 0.0
C1312 C 0.02601 0.11386 0.80914 0.0
C1313 C 0.06755 0.1195 0.81633 0.0
C1314 C 1.00023 0.07105 0.80943 0.0
C1315 C 0.01544 0.03366 0.81746 0.0
C1316 C 0.05617 0.04013 0.82519 0.0
C1317 C 0.08238 0.08264 0.82432 0.0
C1318 C 0.95801 0.06507 0.80072 0.0
C1319 C 0.07254 1.00186 0.8342 0.0
C1320 C 0.92284 0.93737 0.82353 0.0
C1321 C 0.93845 0.90106 0.81545 0.0
C1322 C 0.94876 0.97994 0.82473 0.0
C1323 C 0.99005 0.98705 0.81725 0.0
C1324 C 0.00594 0.95028 0.8091 0.0
C1325 C 0.98039 0.90736 0.80848 0.0
C1326 C 0.93164 0.01751 0.83386 0.0
C1327 C 0.04881 0.95697 0.80065 0.0
H1328 H 0.01503 0.14213 0.80281 0.0
H1329 H 0.11455 0.0871 0.82988 0.0
H1330 H 0.96471 0.03511 0.79412 0.0
H1331 H 0.92562 0.05608 0.80623 0.0
H1332 H 0.95068 0.09766 0.79511 0.0
H1333 H 0.10172 0.01435 0.84048 0.0
H1334 H 0.04227 0.98972 0.84013 0.0
H1335 H 0.08552 0.97057 0.82882 0.0
H1336 H 0.89041 0.93234 0.82894 0.0
H1337 H 0.99203 0.87947 0.8021 0.0
H1338 H 0.9194 0.04935 0.82858 0.0
H1339 H 0.96136 0.02896 0.84007 0.0
H1340 H 0.90177 0.00465 0.83984 0.0
H1341 H 0.04274 0.98765 0.79425 0.0
H1342 H 0.0564 0.92494 0.79483 0.0
H1343 H 0.08082 0.9652 0.80639 0.0
C1344 C 0.57112 0.92406 0.18386 0.0
C1345 C 0.60839 0.94443 0.17687 0.0
C1346 C 0.52525 0.94432 0.18391 0.0
C1347 C 0.51593 0.98536 0.17654 0.0
C1348 C 0.5528 0.00459 0.16893 0.0
C1349 C 0.59874 0.98431 0.16932 0.0
C1350 C 0.48745 0.92317 0.19237 0.0
C1351 C 0.5441 0.04753 0.16069 0.0
C1352 C 0.38479 0.01775 0.17172 0.0
C1353 C 0.37852 0.0541 0.18065 0.0
C1354 C 0.42965 0.99604 0.16997 0.0
C1355 C 0.46879 0.01007 0.17758 0.0
C1356 C 0.46249 0.04679 0.18661 0.0
C1357 C 0.4177 0.06872 0.1879 0.0
C1358 C 0.43511 0.95794 0.16002 0.0
C1359 C 0.50281 0.06218 0.19514 0.0
H1360 H 0.57831 0.89347 0.1898 0.0
H1361 H 0.62732 1.00014 0.16386 0.0
H1362 H 0.47744 0.94937 0.19976 0.0
H1363 H 0.4548 0.91514 0.18687 0.0
H1364 H 0.49969 0.89 0.19707 0.0
H1365 H 0.57462 0.05482 0.15429 0.0
H1366 H 0.5115 0.04233 0.15491 0.0
H1367 H 0.53813 0.07934 0.16669 0.0
H1368 H 0.35471 0.00652 0.16602 0.0
H1369 H 0.41304 0.09656 0.19489 0.0
H1370 H 0.44401 0.92347 0.16455 0.0
H1371 H 0.46501 0.96698 0.15359 0.0
H1372 H 0.40217 0.95327 0.15433 0.0
H1373 H 0.51549 0.0314 0.20078 0.0
H1374 H 0.49204 0.09109 0.20171 0.0
H1375 H 0.53339 0.07483 0.18941 0.0
C1376 C 0.9376 0.9252 0.43456 0.0
C1377 C 0.95509 0.88676 0.42749 0.0
C1378 C 0.95957 0.97011 0.43403 0.0
C1379 C 0.99931 0.97717 0.42597 0.0
C1380 C 0.01566 0.93904 0.41835 0.0
C1381 C 0.99379 0.89412 0.41933 0.0
C1382 C 0.94153 0.00943 0.4425 0.0
C1383 C 0.057 0.94538 0.40938 0.0
C1384 C 0.03186 0.10667 0.41955 0.0
C1385 C 0.06974 0.11381 0.428 0.0
C1386 C 0.00988 0.06186 0.41839 0.0
C1387 C 0.02524 0.02363 0.42611 0.0
C1388 C 0.06408 0.0305 0.43448 0.0
C1389 C 0.08622 0.07529 0.43519 0.0
C1390 C 0.96951 0.05573 0.4091 0.0
C1391 C 0.08104 0.99107 0.44306 0.0
H1392 H 0.90796 0.91967 0.44097 0.0
H1393 H 0.00733 0.86457 0.41381 0.0
H1394 H 0.96999 0.01997 0.44923 0.0
H1395 H 0.93242 0.04134 0.43683 0.0
H1396 H 0.90954 0.9986 0.44798 0.0
H1397 H 0.06232 0.91379 0.40323 0.0
H1398 H 0.05116 0.97709 0.40333 0.0
H1399 H 0.09024 0.95156 0.41481 0.0
H1400 H 0.01911 0.13627 0.41393 0.0
H1401 H 0.11521 0.08067 0.44181 0.0
H1402 H 0.9357 0.04939 0.41427 0.0
H1403 H 0.97603 0.02416 0.40304 0.0
H1404 H 0.96484 0.08745 0.40297 0.0
H1405 H 0.05172 0.98037 0.4495 0.0
H1406 H 0.11226 1.00184 0.44885 0.0
H1407 H 0.09094 0.95927 0.43744 0.0
C1408 C 0.08317 0.43239 0.68878 0.0
C1409 C 0.12093 0.45027 0.6815 0.0
C1410 C 0.03752 0.45292 0.68823 0.0
C1411 C 0.02895 0.49161 0.67996 0.0
C1412 C 0.06651 0.50867 0.67223 0.0
C1413 C 0.11225 0.48823 0.67322 0.0
C1414 C 0.99893 0.43428 0.69685 0.0
C1415 C 0.05858 0.54903 0.66307 0.0
C1416 C 0.89795 0.51933 0.67344 0.0
C1417 C 0.88976 0.55776 0.68161 0.0
C1418 C 0.94354 0.49857 0.67242 0.0
C1419 C 0.98144 0.5158 0.68001 0.0
C1420 C 0.97332 0.55487 0.68819 0.0
C1421 C 0.92782 0.5757 0.68877 0.0
C1422 C 0.95098 0.45777 0.66335 0.0
C1423 C 0.01229 0.57372 0.69667 0.0
H1424 H 0.0897 0.40329 0.69527 0.0
H1425 H 0.14124 0.50202 0.66753 0.0
H1426 H 0.98719 0.46293 0.70337 0.0
H1427 H 0.96736 0.42331 0.69126 0.0
H1428 H 0.0111 0.40341 0.70256 0.0
H1429 H 0.09013 0.55532 0.65695 0.0
H1430 H 0.02727 0.5414 0.65699 0.0
H1431 H 0.05069 0.58225 0.66833 0.0
H1432 H 0.86872 0.50549 0.66784 0.0
H1433 H 0.92167 0.60517 0.69517 0.0
H1434 H 0.95921 0.42481 0.66869 0.0
H1435 H 0.98194 0.46515 0.65713 0.0
H1436 H 0.9191 0.45117 0.65738 0.0
H1437 H 0.02437 0.54522 0.70318 0.0
H1438 H 1.00036 0.6047 0.70237 0.0
H1439 H 0.04358 0.5846 0.69096 0.0
C1440 C 0.4423 0.40947 0.93826 0.0
C1441 C 0.45772 0.37051 0.93106 0.0
C1442 C 0.46445 0.4541 0.93721 0.0
C1443 C 0.5023 0.46037 0.92851 0.0
C1444 C 0.51725 0.42144 0.92096 0.0
C1445 C 0.49518 0.37678 0.92244 0.0
C1446 C 0.44798 0.4943 0.94563 0.0
C1447 C 0.55668 0.42694 0.91138 0.0
C1448 C 0.52798 0.58994 0.92046 0.0
C1449 C 0.56672 0.59993 0.9284 0.0
C1450 C 0.50823 0.54396 0.91988 0.0
C1451 C 0.52689 0.50742 0.92766 0.0
C1452 C 0.56694 0.51703 0.93541 0.0
C1453 C 0.58668 0.56299 0.93557 0.0
C1454 C 0.46634 0.53494 0.91125 0.0
C1455 C 0.58742 0.47945 0.94404 0.0
H1456 H 0.41359 0.40479 0.94501 0.0
H1457 H 0.50706 0.34682 0.91681 0.0
H1458 H 0.47814 0.50697 0.95152 0.0
H1459 H 0.43586 0.52481 0.93981 0.0
H1460 H 0.41832 0.4835 0.95196 0.0
H1461 H 0.5623 0.39402 0.90576 0.0
H1462 H 0.54828 0.45665 0.90484 0.0
H1463 H 0.59054 0.43605 0.91622 0.0
H1464 H 0.51255 0.61829 0.91484 0.0
H1465 H 0.61642 0.57051 0.9418 0.0
H1466 H 0.43378 0.52881 0.91697 0.0
H1467 H 0.47253 0.50241 0.90554 0.0
H1468 H 0.45958 0.56531 0.90478 0.0
H1469 H 0.5605 0.46952 0.95125 0.0
H1470 H 0.62015 0.49179 0.94896 0.0
H1471 H 0.59611 0.44679 0.93862 0.0
C1472 C 0.60006 0.52604 0.07833 0.0
C1473 C 0.61004 0.56461 0.07036 0.0
C1474 C 0.55412 0.50592 0.07881 0.0
C1475 C 0.51765 0.52392 0.07086 0.0
C1476 C 0.52725 0.56378 0.06308 0.0
C1477 C 0.5731 0.58397 0.06305 0.0
C1478 C 0.54507 0.46434 0.0875 0.0
C1479 C 0.48984 0.58354 0.05426 0.0
C1480 C 0.42063 0.43837 0.06007 0.0
C1481 C 0.38101 0.45389 0.06702 0.0
C1482 C 0.46518 0.46076 0.06128 0.0
C1483 C 0.47073 0.49891 0.06991 0.0
C1484 C 0.43114 0.5139 0.07722 0.0
C1485 C 0.38656 0.49164 0.07557 0.0
C1486 C 0.50605 0.44427 0.05307 0.0
C1487 C 0.43582 0.55359 0.08675 0.0
H1488 H 0.62839 0.51104 0.08405 0.0
H1489 H 0.58061 0.61353 0.05678 0.0
H1490 H 0.51208 0.47034 0.09307 0.0
H1491 H 0.53966 0.43156 0.08185 0.0
H1492 H 0.57521 0.45822 0.09412 0.0
H1493 H 0.50217 0.6161 0.04929 0.0
H1494 H 0.48047 0.55628 0.04709 0.0
H1495 H 0.4568 0.59216 0.05954 0.0
H1496 H 0.41651 0.40944 0.05338 0.0
H1497 H 0.35611 0.50359 0.08102 0.0
H1498 H 0.53638 0.43264 0.05905 0.0
H1499 H 0.51887 0.47423 0.04715 0.0
H1500 H 0.49581 0.41434 0.04678 0.0
H1501 H 0.4654 0.54573 0.09339 0.0
H1502 H 0.40254 0.55901 0.09226 0.0
H1503 H 0.44478 0.58734 0.08187 0.0
C1504 C 0.44607 0.09441 0.31009 0.0
C1505 C 0.46244 0.13388 0.31693 0.0
C1506 C 0.46823 0.04979 0.31123 0.0
C1507 C 0.50701 0.04407 0.31967 0.0
C1508 C 0.52274 0.08347 0.32692 0.0
C1509 C 0.50069 0.12812 0.32533 0.0
C1510 C 0.45094 0.00907 0.30312 0.0
C1511 C 0.56307 0.07854 0.33626 0.0
C1512 C 0.53424 0.91496 0.32789 0.0
C1513 C 0.57223 0.90486 0.31971 0.0
C1514 C 0.51434 0.96089 0.32851 0.0
C1515 C 0.53196 0.99719 0.32049 0.0
C1516 C 0.5713 0.98748 0.31249 0.0
C1517 C 0.59132 0.94162 0.31232 0.0
C1518 C 0.47334 0.97008 0.33742 0.0
C1519 C 0.59061 0.02477 0.3036 0.0
H1520 H 0.41674 0.09874 0.30352 0.0
H1521 H 0.51328 0.15848 0.33069 0.0
H1522 H 0.48045 0.99615 0.29703 0.0
H1523 H 0.43969 0.97885 0.30915 0.0
H1524 H 0.42049 0.01942 0.297 0.0
H1525 H 0.56884 0.11165 0.34179 0.0
H1526 H 0.55562 0.04891 0.3429 0.0
H1527 H 0.59658 0.06965 0.33122 0.0
H1528 H 0.51949 0.88672 0.33366 0.0
H1529 H 0.62043 0.93396 0.3059 0.0
H1530 H 0.44008 0.97555 0.33193 0.0
H1531 H 0.47979 1.00301 0.34295 0.0
H1532 H 0.46765 0.94005 0.34407 0.0
H1533 H 0.56282 0.03433 0.29658 0.0
H1534 H 0.62282 0.01234 0.29845 0.0
H1535 H 0.59975 0.05767 0.30885 0.0
C1536 C 0.93424 0.92817 0.56283 0.0
C1537 C 0.89529 0.94471 0.56989 0.0
C1538 C 0.9792 0.95002 0.56372 0.0
C1539 C 0.9859 0.9886 0.57216 0.0
C1540 C 0.9472 0.00404 0.57975 0.0
C1541 C 0.90216 0.98242 0.57838 0.0
C1542 C 0.01899 0.93307 0.55522 0.0
C1543 C 0.95312 0.04407 0.58912 0.0
C1544 C 0.11594 0.0199 0.57893 0.0
C1545 C 0.12321 0.05868 0.57083 0.0
C1546 C 0.07084 0.9981 0.57994 0.0
C1547 C 0.03251 0.01452 0.57237 0.0
C1548 C 0.03958 0.05421 0.56433 0.0
C1549 C 0.08457 0.07614 0.5638 0.0
C1550 C 0.06449 0.95682 0.58889 0.0
C1551 C 1.0002 0.07228 0.55587 0.0
H1552 H 0.92913 0.8993 0.55617 0.0
H1553 H 0.87225 0.9952 0.58391 0.0
H1554 H 0.03003 0.96237 0.54884 0.0
H1555 H 0.05061 0.92302 0.56091 0.0
H1556 H 0.00832 0.90201 0.54938 0.0
H1557 H 0.9212 0.0485 0.59523 0.0
H1558 H 0.98466 0.03747 0.59521 0.0
H1559 H 0.95948 0.07797 0.58403 0.0
H1560 H 0.1456 0.00636 0.58443 0.0
H1561 H 0.08997 0.10584 0.55743 0.0
H1562 H 0.05846 0.92363 0.58345 0.0
H1563 H 0.03262 0.96257 0.59492 0.0
H1564 H 0.09609 0.95162 0.59507 0.0
H1565 H 0.9895 0.04386 0.54916 0.0
H1566 H 0.01111 0.10412 0.55037 0.0
H1567 H 0.96829 0.08153 0.56154 0.0
C1568 C 0.93375 0.58777 0.81081 0.0
C1569 C 0.9519 0.62568 0.81795 0.0
C1570 C 0.95452 0.54234 0.81139 0.0
C1571 C 0.99374 0.53425 0.81953 0.0
C1572 C 0.01111 0.57199 0.82713 0.0
C1573 C 0.99037 0.61745 0.82613 0.0
C1574 C 0.93549 0.50343 0.80293 0.0
C1575 C 0.0521 0.56451 0.83615 0.0
C1576 C 0.02101 0.40397 0.82638 0.0
C1577 C 0.05874 0.39505 0.81802 0.0
C1578 C 1.00076 0.44965 0.82737 0.0
C1579 C 0.01786 0.4869 0.81958 0.0
C1580 C 0.05646 0.47816 0.81127 0.0
C1581 C 0.07678 0.43251 0.8107 0.0
C1582 C 0.96045 0.4578 0.83657 0.0
C1583 C 0.07516 0.51654 0.80261 0.0
H1584 H 0.90425 0.59399 0.8044 0.0
H1585 H 1.00437 0.64661 0.83171 0.0
H1586 H 0.96393 0.49137 0.79638 0.0
H1587 H 0.9247 0.4722 0.80866 0.0
H1588 H 0.90434 0.51532 0.79726 0.0
H1589 H 0.05882 0.59632 0.84213 0.0
H1590 H 0.04476 0.53363 0.84238 0.0
H1591 H 0.08505 0.55627 0.83078 0.0
H1592 H 0.00714 0.37517 0.83211 0.0
H1593 H 0.10573 0.42573 0.80415 0.0
H1594 H 0.92711 0.4656 0.83133 0.0
H1595 H 0.96821 0.48915 0.84261 0.0
H1596 H 0.95419 0.42644 0.84273 0.0
H1597 H 0.04646 0.52814 0.79608 0.0
H1598 H 0.1061 0.5043 0.79691 0.0
H1599 H 0.08612 0.54814 0.80817 0.0
loop_
_geom_bond_atom_site_label_1
_geom_bond_atom_site_label_2
_geom_bond_distance
_geom_bond_site_symmetry_2
_ccdc_geom_bond_type
Mn0 O5 2.095 . S
Mn0 O15 2.162 . S
Mn0 O16 2.297 . S
Mn0 O24 2.385 . S
Mn0 O25 2.209 . S
Mn0 O26 2.094 . S
Mn1 O6 2.121 . S
Mn1 N8 2.257 . S
Mn1 N17 2.282 . S
Mn1 O25 2.215 . S
Mn1 O27 2.117 . S
C2 O24 1.234 . S
C2 O25 1.283 . S
C3 O15 1.281 . S
C3 O16 1.236 . S
C4 O26 1.240 . S
C4 O27 1.264 . S
O5 Mn0 2.095 . S
O5 C14 1.250 . S
O6 Mn1 2.121 . S
O6 C14 1.258 . S
C7 N8 1.326 . S
C7 C11 1.460 . S
C7 H13 0.929 . S
N8 Mn1 2.257 . S
N8 C7 1.326 . S
N8 C12 1.362 . S
C9 C10 1.258 . S
C9 C12 1.431 . S
C9 C29 1.449 . S
C10 C9 1.258 . S
C10 C11 1.477 . S
C10 H30 0.931 . S
C11 C7 1.460 . S
C11 C10 1.477 . S
C11 H31 0.930 . S
C12 N8 1.362 . S
C12 C9 1.431 . S
C12 C22 1.476 . S
H13 C7 0.929 . S
C14 O5 1.250 . S
C14 O6 1.258 . S
O15 Mn0 2.162 . S
O15 C3 1.281 . S
O16 Mn0 2.297 . S
O16 C3 1.236 . S
N17 Mn1 2.282 . S
N17 C18 1.328 . S
N17 C22 1.318 . S
C18 N17 1.328 . S
C18 C19 1.457 . S
C18 H23 0.929 . S
C19 C18 1.457 . S
C19 C20 1.291 . S
C19 H32 0.931 . S
C20 C19 1.291 . S
C20 C21 1.373 . S
C20 H33 0.929 . S
C21 C20 1.373 . S
C21 C22 1.396 . S
C21 C28 1.403 . S
C22 C12 1.476 . S
C22 N17 1.318 . S
C22 C21 1.396 . S
H23 C18 0.929 . S
O24 Mn0 2.385 . S
O24 C2 1.234 . S
O25 Mn0 2.209 . S
O25 Mn1 2.215 . S
O25 C2 1.283 . S
O26 Mn0 2.094 . S
O26 C4 1.240 . S
O27 Mn1 2.117 . S
O27 C4 1.264 . S
C28 C21 1.403 . S
C28 C29 1.399 . S
C28 H34 0.929 . S
C29 C9 1.449 . S
C29 C28 1.399 . S
C29 H35 0.930 . S
H30 C10 0.931 . S
H31 C11 0.930 . S
H32 C19 0.931 . S
H33 C20 0.929 . S
H34 C28 0.929 . S
H35 C29 0.930 . S
Mn36 O41 2.095 . S
Mn36 O51 2.162 . S
Mn36 O52 2.297 . S
Mn36 O60 2.385 . S
Mn36 O61 2.209 . S
Mn36 O62 2.094 . S
Mn37 O42 2.121 . S
Mn37 N44 2.257 . S
Mn37 N53 2.282 . S
Mn37 O61 2.215 . S
Mn37 O63 2.117 . S
C38 O60 1.234 . S
C38 O61 1.283 . S
C39 O51 1.281 . S
C39 O52 1.236 . S
C40 O62 1.240 . S
C40 O63 1.264 . S
O41 Mn36 2.095 . S
O41 C50 1.250 . S
O42 Mn37 2.121 . S
O42 C50 1.258 . S
C43 N44 1.326 . S
C43 C47 1.460 . S
C43 H49 0.929 . S
N44 Mn37 2.257 . S
N44 C43 1.326 . S
N44 C48 1.362 . S
C45 C46 1.258 . S
C45 C48 1.431 . S
C45 C65 1.449 . S
C46 C45 1.258 . S
C46 C47 1.477 . S
C46 H66 0.931 . S
C47 C43 1.460 . S
C47 C46 1.477 . S
C47 H67 0.930 . S
C48 N44 1.362 . S
C48 C45 1.431 . S
C48 C58 1.476 . S
H49 C43 0.929 . S
C50 O41 1.250 . S
C50 O42 1.258 . S
O51 Mn36 2.162 . S
O51 C39 1.281 . S
O52 Mn36 2.297 . S
O52 C39 1.236 . S
N53 Mn37 2.282 . S
N53 C54 1.328 . S
N53 C58 1.318 . S
C54 N53 1.328 . S
C54 C55 1.457 . S
C54 H59 0.929 . S
C55 C54 1.457 . S
C55 C56 1.291 . S
C55 H68 0.931 . S
C56 C55 1.291 . S
C56 C57 1.373 . S
C56 H69 0.929 . S
C57 C56 1.373 . S
C57 C58 1.396 . S
C57 C64 1.403 . S
C58 C48 1.476 . S
C58 N53 1.318 . S
C58 C57 1.396 . S
H59 C54 0.929 . S
O60 Mn36 2.385 . S
O60 C38 1.234 . S
O61 Mn36 2.209 . S
O61 Mn37 2.215 . S
O61 C38 1.283 . S
O62 Mn36 2.094 . S
O62 C40 1.240 . S
O63 Mn37 2.117 . S
O63 C40 1.264 . S
C64 C57 1.403 . S
C64 C65 1.399 . S
C64 H70 0.929 . S
C65 C45 1.449 . S
C65 C64 1.399 . S
C65 H71 0.930 . S
H66 C46 0.931 . S
H67 C47 0.930 . S
H68 C55 0.931 . S
H69 C56 0.929 . S
H70 C64 0.929 . S
H71 C65 0.930 . S
Mn72 O77 2.095 . S
Mn72 O87 2.162 . S
Mn72 O88 2.297 . S
Mn72 O96 2.385 . S
Mn72 O97 2.209 . S
Mn72 O98 2.094 . S
Mn73 O78 2.121 . S
Mn73 N80 2.257 . S
Mn73 N89 2.282 . S
Mn73 O97 2.215 . S
Mn73 O99 2.117 . S
C74 O96 1.234 . S
C74 O97 1.283 . S
C75 O87 1.281 . S
C75 O88 1.236 . S
C76 O98 1.240 . S
C76 O99 1.264 . S
O77 Mn72 2.095 . S
O77 C86 1.250 . S
O78 Mn73 2.121 . S
O78 C86 1.258 . S
C79 N80 1.326 . S
C79 C83 1.460 . S
C79 H85 0.929 . S
N80 Mn73 2.257 . S
N80 C79 1.326 . S
N80 C84 1.362 . S
C81 C82 1.258 . S
C81 C84 1.431 . S
C81 C101 1.449 . S
C82 C81 1.258 . S
C82 C83 1.477 . S
C82 H102 0.931 . S
C83 C79 1.460 . S
C83 C82 1.477 . S
C83 H103 0.930 . S
C84 N80 1.362 . S
C84 C81 1.431 . S
C84 C94 1.476 . S
H85 C79 0.929 . S
C86 O77 1.250 . S
C86 O78 1.258 . S
O87 Mn72 2.162 . S
O87 C75 1.281 . S
O88 Mn72 2.297 . S
O88 C75 1.236 . S
N89 Mn73 2.282 . S
N89 C90 1.328 . S
N89 C94 1.318 . S
C90 N89 1.328 . S
C90 C91 1.457 . S
C90 H95 0.929 . S
C91 C90 1.457 . S
C91 C92 1.291 . S
C91 H104 0.931 . S
C92 C91 1.291 . S
C92 C93 1.373 . S
C92 H105 0.929 . S
C93 C92 1.373 . S
C93 C94 1.396 . S
C93 C100 1.403 . S
C94 C84 1.476 . S
C94 N89 1.318 . S
C94 C93 1.396 . S
H95 C90 0.929 . S
O96 Mn72 2.385 . S
O96 C74 1.234 . S
O97 Mn72 2.209 . S
O97 Mn73 2.215 . S
O97 C74 1.283 . S
O98 Mn72 2.094 . S
O98 C76 1.240 . S
O99 Mn73 2.117 . S
O99 C76 1.264 . S
C100 C93 1.403 . S
C100 C101 1.399 . S
C100 H106 0.929 . S
C101 C81 1.449 . S
C101 C100 1.399 . S
C101 H107 0.930 . S
H102 C82 0.931 . S
H103 C83 0.930 . S
H104 C91 0.931 . S
H105 C92 0.929 . S
H106 C100 0.929 . S
H107 C101 0.930 . S
Mn108 O113 2.095 . S
Mn108 O123 2.162 . S
Mn108 O124 2.297 . S
Mn108 O132 2.385 . S
Mn108 O133 2.209 . S
Mn108 O134 2.094 . S
Mn109 O114 2.121 . S
Mn109 N116 2.257 . S
Mn109 N125 2.282 . S
Mn109 O133 2.215 . S
Mn109 O135 2.117 . S
C110 O132 1.234 . S
C110 O133 1.283 . S
C111 O123 1.281 . S
C111 O124 1.236 . S
C112 O134 1.240 . S
C112 O135 1.264 . S
O113 Mn108 2.095 . S
O113 C122 1.250 . S
O114 Mn109 2.121 . S
O114 C122 1.258 . S
C115 N116 1.326 . S
C115 C119 1.460 . S
C115 H121 0.929 . S
N116 Mn109 2.257 . S
N116 C115 1.326 . S
N116 C120 1.362 . S
C117 C118 1.258 . S
C117 C120 1.431 . S
C117 C137 1.449 . S
C118 C117 1.258 . S
C118 C119 1.477 . S
C118 H138 0.931 . S
C119 C115 1.460 . S
C119 C118 1.477 . S
C119 H139 0.930 . S
C120 N116 1.362 . S
C120 C117 1.431 . S
C120 C130 1.476 . S
H121 C115 0.929 . S
C122 O113 1.250 . S
C122 O114 1.258 . S
O123 Mn108 2.162 . S
O123 C111 1.281 . S
O124 Mn108 2.297 . S
O124 C111 1.236 . S
N125 Mn109 2.282 . S
N125 C126 1.328 . S
N125 C130 1.318 . S
C126 N125 1.328 . S
C126 C127 1.457 . S
C126 H131 0.929 . S
C127 C126 1.457 . S
C127 C128 1.291 . S
C127 H140 0.931 . S
C128 C127 1.291 . S
C128 C129 1.373 . S
C128 H141 0.929 . S
C129 C128 1.373 . S
C129 C130 1.396 . S
C129 C136 1.403 . S
C130 C120 1.476 . S
C130 N125 1.318 . S
C130 C129 1.396 . S
H131 C126 0.929 . S
O132 Mn108 2.385 . S
O132 C110 1.234 . S
O133 Mn108 2.209 . S
O133 Mn109 2.215 . S
O133 C110 1.283 . S
O134 Mn108 2.094 . S
O134 C112 1.240 . S
O135 Mn109 2.117 . S
O135 C112 1.264 . S
C136 C129 1.403 . S
C136 C137 1.399 . S
C136 H142 0.929 . S
C137 C117 1.449 . S
C137 C136 1.399 . S
C137 H143 0.930 . S
H138 C118 0.931 . S
H139 C119 0.930 . S
H140 C127 0.931 . S
H141 C128 0.929 . S
H142 C136 0.929 . S
H143 C137 0.930 . S
Mn144 O149 2.095 . S
Mn144 O159 2.162 . S
Mn144 O160 2.297 . S
Mn144 O168 2.385 . S
Mn144 O169 2.209 . S
Mn144 O170 2.094 . S
Mn145 O150 2.121 . S
Mn145 N152 2.257 . S
Mn145 N161 2.282 . S
Mn145 O169 2.215 . S
Mn145 O171 2.117 . S
C146 O168 1.234 . S
C146 O169 1.283 . S
C147 O159 1.281 . S
C147 O160 1.236 . S
C148 O170 1.240 . S
C148 O171 1.264 . S
O149 Mn144 2.095 . S
O149 C158 1.250 . S
O150 Mn145 2.121 . S
O150 C158 1.258 . S
C151 N152 1.326 . S
C151 C155 1.460 . S
C151 H157 0.929 . S
N152 Mn145 2.257 . S
N152 C151 1.326 . S
N152 C156 1.362 . S
C153 C154 1.258 . S
C153 C156 1.431 . S
C153 C173 1.449 . S
C154 C153 1.258 . S
C154 C155 1.477 . S
C154 H174 0.931 . S
C155 C151 1.460 . S
C155 C154 1.477 . S
C155 H175 0.930 . S
C156 N152 1.362 . S
C156 C153 1.431 . S
C156 C166 1.476 . S
H157 C151 0.929 . S
C158 O149 1.250 . S
C158 O150 1.258 . S
O159 Mn144 2.162 . S
O159 C147 1.281 . S
O160 Mn144 2.297 . S
O160 C147 1.236 . S
N161 Mn145 2.282 . S
N161 C162 1.328 . S
N161 C166 1.318 . S
C162 N161 1.328 . S
C162 C163 1.457 . S
C162 H167 0.929 . S
C163 C162 1.457 . S
C163 C164 1.291 . S
C163 H176 0.931 . S
C164 C163 1.291 . S
C164 C165 1.373 . S
C164 H177 0.929 . S
C165 C164 1.373 . S
C165 C166 1.396 . S
C165 C172 1.403 . S
C166 C156 1.476 . S
C166 N161 1.318 . S
C166 C165 1.396 . S
H167 C162 0.929 . S
O168 Mn144 2.385 . S
O168 C146 1.234 . S
O169 Mn144 2.209 . S
O169 Mn145 2.215 . S
O169 C146 1.283 . S
O170 Mn144 2.094 . S
O170 C148 1.240 . S
O171 Mn145 2.117 . S
O171 C148 1.264 . S
C172 C165 1.403 . S
C172 C173 1.399 . S
C172 H178 0.929 . S
C173 C153 1.449 . S
C173 C172 1.399 . S
C173 H179 0.930 . S
H174 C154 0.931 . S
H175 C155 0.930 . S
H176 C163 0.931 . S
H177 C164 0.929 . S
H178 C172 0.929 . S
H179 C173 0.930 . S
Mn180 O185 2.095 . S
Mn180 O195 2.162 . S
Mn180 O196 2.297 . S
Mn180 O204 2.385 . S
Mn180 O205 2.209 . S
Mn180 O206 2.094 . S
Mn181 O186 2.121 . S
Mn181 N188 2.257 . S
Mn181 N197 2.282 . S
Mn181 O205 2.215 . S
Mn181 O207 2.117 . S
C182 O204 1.234 . S
C182 O205 1.283 . S
C183 O195 1.281 . S
C183 O196 1.236 . S
C184 O206 1.240 . S
C184 O207 1.264 . S
O185 Mn180 2.095 . S
O185 C194 1.250 . S
O186 Mn181 2.121 . S
O186 C194 1.258 . S
C187 N188 1.326 . S
C187 C191 1.460 . S
C187 H193 0.929 . S
N188 Mn181 2.257 . S
N188 C187 1.326 . S
N188 C192 1.362 . S
C189 C190 1.258 . S
C189 C192 1.431 . S
C189 C209 1.449 . S
C190 C189 1.258 . S
C190 C191 1.477 . S
C190 H210 0.931 . S
C191 C187 1.460 . S
C191 C190 1.477 . S
C191 H211 0.930 . S
C192 N188 1.362 . S
C192 C189 1.431 . S
C192 C202 1.476 . S
H193 C187 0.929 . S
C194 O185 1.250 . S
C194 O186 1.258 . S
O195 Mn180 2.162 . S
O195 C183 1.281 . S
O196 Mn180 2.297 . S
O196 C183 1.236 . S
N197 Mn181 2.282 . S
N197 C198 1.328 . S
N197 C202 1.318 . S
C198 N197 1.328 . S
C198 C199 1.457 . S
C198 H203 0.929 . S
C199 C198 1.457 . S
C199 C200 1.291 . S
C199 H212 0.931 . S
C200 C199 1.291 . S
C200 C201 1.373 . S
C200 H213 0.929 . S
C201 C200 1.373 . S
C201 C202 1.396 . S
C201 C208 1.403 . S
C202 C192 1.476 . S
C202 N197 1.318 . S
C202 C201 1.396 . S
H203 C198 0.929 . S
O204 Mn180 2.385 . S
O204 C182 1.234 . S
O205 Mn180 2.209 . S
O205 Mn181 2.215 . S
O205 C182 1.283 . S
O206 Mn180 2.094 . S
O206 C184 1.240 . S
O207 Mn181 2.117 . S
O207 C184 1.264 . S
C208 C201 1.403 . S
C208 C209 1.399 . S
C208 H214 0.929 . S
C209 C189 1.449 . S
C209 C208 1.399 . S
C209 H215 0.930 . S
H210 C190 0.931 . S
H211 C191 0.930 . S
H212 C199 0.931 . S
H213 C200 0.929 . S
H214 C208 0.929 . S
H215 C209 0.930 . S
Mn216 O221 2.095 . S
Mn216 O231 2.162 . S
Mn216 O232 2.297 . S
Mn216 O240 2.385 . S
Mn216 O241 2.209 . S
Mn216 O242 2.094 . S
Mn217 O222 2.121 . S
Mn217 N224 2.257 . S
Mn217 N233 2.282 . S
Mn217 O241 2.215 . S
Mn217 O243 2.117 . S
C218 O240 1.234 . S
C218 O241 1.283 . S
C219 O231 1.281 . S
C219 O232 1.236 . S
C220 O242 1.240 . S
C220 O243 1.264 . S
O221 Mn216 2.095 . S
O221 C230 1.250 . S
O222 Mn217 2.121 . S
O222 C230 1.258 . S
C223 N224 1.326 . S
C223 C227 1.460 . S
C223 H229 0.929 . S
N224 Mn217 2.257 . S
N224 C223 1.326 . S
N224 C228 1.362 . S
C225 C226 1.258 . S
C225 C228 1.431 . S
C225 C245 1.449 . S
C226 C225 1.258 . S
C226 C227 1.477 . S
C226 H246 0.931 . S
C227 C223 1.460 . S
C227 C226 1.477 . S
C227 H247 0.930 . S
C228 N224 1.362 . S
C228 C225 1.431 . S
C228 C238 1.476 . S
H229 C223 0.929 . S
C230 O221 1.250 . S
C230 O222 1.258 . S
O231 Mn216 2.162 . S
O231 C219 1.281 . S
O232 Mn216 2.297 . S
O232 C219 1.236 . S
N233 Mn217 2.282 . S
N233 C234 1.328 . S
N233 C238 1.318 . S
C234 N233 1.328 . S
C234 C235 1.457 . S
C234 H239 0.929 . S
C235 C234 1.457 . S
C235 C236 1.291 . S
C235 H248 0.931 . S
C236 C235 1.291 . S
C236 C237 1.373 . S
C236 H249 0.929 . S
C237 C236 1.373 . S
C237 C238 1.396 . S
C237 C244 1.403 . S
C238 C228 1.476 . S
C238 N233 1.318 . S
C238 C237 1.396 . S
H239 C234 0.929 . S
O240 Mn216 2.385 . S
O240 C218 1.234 . S
O241 Mn216 2.209 . S
O241 Mn217 2.215 . S
O241 C218 1.283 . S
O242 Mn216 2.094 . S
O242 C220 1.240 . S
O243 Mn217 2.117 . S
O243 C220 1.264 . S
C244 C237 1.403 . S
C244 C245 1.399 . S
C244 H250 0.929 . S
C245 C225 1.449 . S
C245 C244 1.399 . S
C245 H251 0.930 . S
H246 C226 0.931 . S
H247 C227 0.930 . S
H248 C235 0.931 . S
H249 C236 0.929 . S
H250 C244 0.929 . S
H251 C245 0.930 . S
Mn252 O257 2.095 . S
Mn252 O267 2.162 . S
Mn252 O268 2.297 . S
Mn252 O276 2.385 . S
Mn252 O277 2.209 . S
Mn252 O278 2.094 . S
Mn253 O258 2.121 . S
Mn253 N260 2.257 . S
Mn253 N269 2.282 . S
Mn253 O277 2.215 . S
Mn253 O279 2.117 . S
C254 O276 1.234 . S
C254 O277 1.283 . S
C255 O267 1.281 . S
C255 O268 1.236 . S
C256 O278 1.240 . S
C256 O279 1.264 . S
O257 Mn252 2.095 . S
O257 C266 1.250 . S
O258 Mn253 2.121 . S
O258 C266 1.258 . S
C259 N260 1.326 . S
C259 C263 1.460 . S
C259 H265 0.929 . S
N260 Mn253 2.257 . S
N260 C259 1.326 . S
N260 C264 1.362 . S
C261 C262 1.258 . S
C261 C264 1.431 . S
C261 C281 1.449 . S
C262 C261 1.258 . S
C262 C263 1.477 . S
C262 H282 0.931 . S
C263 C259 1.460 . S
C263 C262 1.477 . S
C263 H283 0.930 . S
C264 N260 1.362 . S
C264 C261 1.431 . S
C264 C274 1.476 . S
H265 C259 0.929 . S
C266 O257 1.250 . S
C266 O258 1.258 . S
O267 Mn252 2.162 . S
O267 C255 1.281 . S
O268 Mn252 2.297 . S
O268 C255 1.236 . S
N269 Mn253 2.282 . S
N269 C270 1.328 . S
N269 C274 1.318 . S
C270 N269 1.328 . S
C270 C271 1.457 . S
C270 H275 0.929 . S
C271 C270 1.457 . S
C271 C272 1.291 . S
C271 H284 0.931 . S
C272 C271 1.291 . S
C272 C273 1.373 . S
C272 H285 0.929 . S
C273 C272 1.373 . S
C273 C274 1.396 . S
C273 C280 1.403 . S
C274 C264 1.476 . S
C274 N269 1.318 . S
C274 C273 1.396 . S
H275 C270 0.929 . S
O276 Mn252 2.385 . S
O276 C254 1.234 . S
O277 Mn252 2.209 . S
O277 Mn253 2.215 . S
O277 C254 1.283 . S
O278 Mn252 2.094 . S
O278 C256 1.240 . S
O279 Mn253 2.117 . S
O279 C256 1.264 . S
C280 C273 1.403 . S
C280 C281 1.399 . S
C280 H286 0.929 . S
C281 C261 1.449 . S
C281 C280 1.399 . S
C281 H287 0.930 . S
H282 C262 0.931 . S
H283 C263 0.930 . S
H284 C271 0.931 . S
H285 C272 0.929 . S
H286 C280 0.929 . S
H287 C281 0.930 . S
Mn288 O293 2.095 . S
Mn288 O303 2.162 . S
Mn288 O304 2.297 . S
Mn288 O312 2.385 . S
Mn288 O313 2.209 . S
Mn288 O314 2.094 . S
Mn289 O294 2.121 . S
Mn289 N296 2.257 . S
Mn289 N305 2.282 . S
Mn289 O313 2.215 . S
Mn289 O315 2.117 . S
C290 O312 1.234 . S
C290 O313 1.283 . S
C291 O303 1.281 . S
C291 O304 1.236 . S
C292 O314 1.240 . S
C292 O315 1.264 . S
O293 Mn288 2.095 . S
O293 C302 1.250 . S
O294 Mn289 2.121 . S
O294 C302 1.258 . S
C295 N296 1.326 . S
C295 C299 1.460 . S
C295 H301 0.929 . S
N296 Mn289 2.257 . S
N296 C295 1.326 . S
N296 C300 1.362 . S
C297 C298 1.258 . S
C297 C300 1.431 . S
C297 C317 1.449 . S
C298 C297 1.258 . S
C298 C299 1.477 . S
C298 H318 0.931 . S
C299 C295 1.460 . S
C299 C298 1.477 . S
C299 H319 0.930 . S
C300 N296 1.362 . S
C300 C297 1.431 . S
C300 C310 1.476 . S
H301 C295 0.929 . S
C302 O293 1.250 . S
C302 O294 1.258 . S
O303 Mn288 2.162 . S
O303 C291 1.281 . S
O304 Mn288 2.297 . S
O304 C291 1.236 . S
N305 Mn289 2.282 . S
N305 C306 1.328 . S
N305 C310 1.318 . S
C306 N305 1.328 . S
C306 C307 1.457 . S
C306 H311 0.929 . S
C307 C306 1.457 . S
C307 C308 1.291 . S
C307 H320 0.931 . S
C308 C307 1.291 . S
C308 C309 1.373 . S
C308 H321 0.929 . S
C309 C308 1.373 . S
C309 C310 1.396 . S
C309 C316 1.403 . S
C310 C300 1.476 . S
C310 N305 1.318 . S
C310 C309 1.396 . S
H311 C306 0.929 . S
O312 Mn288 2.385 . S
O312 C290 1.234 . S
O313 Mn288 2.209 . S
O313 Mn289 2.215 . S
O313 C290 1.283 . S
O314 Mn288 2.094 . S
O314 C292 1.240 . S
O315 Mn289 2.117 . S
O315 C292 1.264 . S
C316 C309 1.403 . S
C316 C317 1.399 . S
C316 H322 0.929 . S
C317 C297 1.449 . S
C317 C316 1.399 . S
C317 H323 0.930 . S
H318 C298 0.931 . S
H319 C299 0.930 . S
H320 C307 0.931 . S
H321 C308 0.929 . S
H322 C316 0.929 . S
H323 C317 0.930 . S
Mn324 O329 2.095 . S
Mn324 O339 2.162 . S
Mn324 O340 2.297 . S
Mn324 O348 2.385 . S
Mn324 O349 2.209 . S
Mn324 O350 2.094 . S
Mn325 O330 2.121 . S
Mn325 N332 2.257 . S
Mn325 N341 2.282 . S
Mn325 O349 2.215 . S
Mn325 O351 2.117 . S
C326 O348 1.234 . S
C326 O349 1.283 . S
C327 O339 1.281 . S
C327 O340 1.236 . S
C328 O350 1.240 . S
C328 O351 1.264 . S
O329 Mn324 2.095 . S
O329 C338 1.250 . S
O330 Mn325 2.121 . S
O330 C338 1.258 . S
C331 N332 1.326 . S
C331 C335 1.460 . S
C331 H337 0.929 . S
N332 Mn325 2.257 . S
N332 C331 1.326 . S
N332 C336 1.362 . S
C333 C334 1.258 . S
C333 C336 1.431 . S
C333 C353 1.449 . S
C334 C333 1.258 . S
C334 C335 1.477 . S
C334 H354 0.931 . S
C335 C331 1.460 . S
C335 C334 1.477 . S
C335 H355 0.930 . S
C336 N332 1.362 . S
C336 C333 1.431 . S
C336 C346 1.476 . S
H337 C331 0.929 . S
C338 O329 1.250 . S
C338 O330 1.258 . S
O339 Mn324 2.162 . S
O339 C327 1.281 . S
O340 Mn324 2.297 . S
O340 C327 1.236 . S
N341 Mn325 2.282 . S
N341 C342 1.328 . S
N341 C346 1.318 . S
C342 N341 1.328 . S
C342 C343 1.457 . S
C342 H347 0.929 . S
C343 C342 1.457 . S
C343 C344 1.291 . S
C343 H356 0.931 . S
C344 C343 1.291 . S
C344 C345 1.373 . S
C344 H357 0.929 . S
C345 C344 1.373 . S
C345 C346 1.396 . S
C345 C352 1.403 . S
C346 C336 1.476 . S
C346 N341 1.318 . S
C346 C345 1.396 . S
H347 C342 0.929 . S
O348 Mn324 2.385 . S
O348 C326 1.234 . S
O349 Mn324 2.209 . S
O349 Mn325 2.215 . S
O349 C326 1.283 . S
O350 Mn324 2.094 . S
O350 C328 1.240 . S
O351 Mn325 2.117 . S
O351 C328 1.264 . S
C352 C345 1.403 . S
C352 C353 1.399 . S
C352 H358 0.929 . S
C353 C333 1.449 . S
C353 C352 1.399 . S
C353 H359 0.930 . S
H354 C334 0.931 . S
H355 C335 0.930 . S
H356 C343 0.931 . S
H357 C344 0.929 . S
H358 C352 0.929 . S
H359 C353 0.930 . S
Mn360 O365 2.095 . S
Mn360 O375 2.162 . S
Mn360 O376 2.297 . S
Mn360 O384 2.385 . S
Mn360 O385 2.209 . S
Mn360 O386 2.094 . S
Mn361 O366 2.121 . S
Mn361 N368 2.257 . S
Mn361 N377 2.282 . S
Mn361 O385 2.215 . S
Mn361 O387 2.117 . S
C362 O384 1.234 . S
C362 O385 1.283 . S
C363 O375 1.281 . S
C363 O376 1.236 . S
C364 O386 1.240 . S
C364 O387 1.264 . S
O365 Mn360 2.095 . S
O365 C374 1.250 . S
O366 Mn361 2.121 . S
O366 C374 1.258 . S
C367 N368 1.326 . S
C367 C371 1.460 . S
C367 H373 0.929 . S
N368 Mn361 2.257 . S
N368 C367 1.326 . S
N368 C372 1.362 . S
C369 C370 1.258 . S
C369 C372 1.431 . S
C369 C389 1.449 . S
C370 C369 1.258 . S
C370 C371 1.477 . S
C370 H390 0.931 . S
C371 C367 1.460 . S
C371 C370 1.477 . S
C371 H391 0.930 . S
C372 N368 1.362 . S
C372 C369 1.431 . S
C372 C382 1.476 . S
H373 C367 0.929 . S
C374 O365 1.250 . S
C374 O366 1.258 . S
O375 Mn360 2.162 . S
O375 C363 1.281 . S
O376 Mn360 2.297 . S
O376 C363 1.236 . S
N377 Mn361 2.282 . S
N377 C378 1.328 . S
N377 C382 1.318 . S
C378 N377 1.328 . S
C378 C379 1.457 . S
C378 H383 0.929 . S
C379 C378 1.457 . S
C379 C380 1.291 . S
C379 H392 0.931 . S
C380 C379 1.291 . S
C380 C381 1.373 . S
C380 H393 0.929 . S
C381 C380 1.373 . S
C381 C382 1.396 . S
C381 C388 1.403 . S
C382 C372 1.476 . S
C382 N377 1.318 . S
C382 C381 1.396 . S
H383 C378 0.929 . S
O384 Mn360 2.385 . S
O384 C362 1.234 . S
O385 Mn360 2.209 . S
O385 Mn361 2.215 . S
O385 C362 1.283 . S
O386 Mn360 2.094 . S
O386 C364 1.240 . S
O387 Mn361 2.117 . S
O387 C364 1.264 . S
C388 C381 1.403 . S
C388 C389 1.399 . S
C388 H394 0.929 . S
C389 C369 1.449 . S
C389 C388 1.399 . S
C389 H395 0.930 . S
H390 C370 0.931 . S
H391 C371 0.930 . S
H392 C379 0.931 . S
H393 C380 0.929 . S
H394 C388 0.929 . S
H395 C389 0.930 . S
Mn396 O401 2.095 . S
Mn396 O411 2.162 . S
Mn396 O412 2.297 . S
Mn396 O420 2.385 . S
Mn396 O421 2.209 . S
Mn396 O422 2.094 . S
Mn397 O402 2.121 . S
Mn397 N404 2.257 . S
Mn397 N413 2.282 . S
Mn397 O421 2.215 . S
Mn397 O423 2.117 . S
C398 O420 1.234 . S
C398 O421 1.283 . S
C399 O411 1.281 . S
C399 O412 1.236 . S
C400 O422 1.240 . S
C400 O423 1.264 . S
O401 Mn396 2.095 . S
O401 C410 1.250 . S
O402 Mn397 2.121 . S
O402 C410 1.258 . S
C403 N404 1.326 . S
C403 C407 1.460 . S
C403 H409 0.929 . S
N404 Mn397 2.257 . S
N404 C403 1.326 . S
N404 C408 1.362 . S
C405 C406 1.258 . S
C405 C408 1.431 . S
C405 C425 1.449 . S
C406 C405 1.258 . S
C406 C407 1.477 . S
C406 H426 0.931 . S
C407 C403 1.460 . S
C407 C406 1.477 . S
C407 H427 0.930 . S
C408 N404 1.362 . S
C408 C405 1.431 . S
C408 C418 1.476 . S
H409 C403 0.929 . S
C410 O401 1.250 . S
C410 O402 1.258 . S
O411 Mn396 2.162 . S
O411 C399 1.281 . S
O412 Mn396 2.297 . S
O412 C399 1.236 . S
N413 Mn397 2.282 . S
N413 C414 1.328 . S
N413 C418 1.318 . S
C414 N413 1.328 . S
C414 C415 1.457 . S
C414 H419 0.929 . S
C415 C414 1.457 . S
C415 C416 1.291 . S
C415 H428 0.931 . S
C416 C415 1.291 . S
C416 C417 1.373 . S
C416 H429 0.929 . S
C417 C416 1.373 . S
C417 C418 1.396 . S
C417 C424 1.403 . S
C418 C408 1.476 . S
C418 N413 1.318 . S
C418 C417 1.396 . S
H419 C414 0.929 . S
O420 Mn396 2.385 . S
O420 C398 1.234 . S
O421 Mn396 2.209 . S
O421 Mn397 2.215 . S
O421 C398 1.283 . S
O422 Mn396 2.094 . S
O422 C400 1.240 . S
O423 Mn397 2.117 . S
O423 C400 1.264 . S
C424 C417 1.403 . S
C424 C425 1.399 . S
C424 H430 0.929 . S
C425 C405 1.449 . S
C425 C424 1.399 . S
C425 H431 0.930 . S
H426 C406 0.931 . S
H427 C407 0.930 . S
H428 C415 0.931 . S
H429 C416 0.929 . S
H430 C424 0.929 . S
H431 C425 0.930 . S
Mn432 O437 2.095 . S
Mn432 O447 2.162 . S
Mn432 O448 2.297 . S
Mn432 O456 2.385 . S
Mn432 O457 2.209 . S
Mn432 O458 2.094 . S
Mn433 O438 2.121 . S
Mn433 N440 2.257 . S
Mn433 N449 2.282 . S
Mn433 O457 2.215 . S
Mn433 O459 2.117 . S
C434 O456 1.234 . S
C434 O457 1.283 . S
C435 O447 1.281 . S
C435 O448 1.236 . S
C436 O458 1.240 . S
C436 O459 1.264 . S
O437 Mn432 2.095 . S
O437 C446 1.250 . S
O438 Mn433 2.121 . S
O438 C446 1.258 . S
C439 N440 1.326 . S
C439 C443 1.460 . S
C439 H445 0.929 . S
N440 Mn433 2.257 . S
N440 C439 1.326 . S
N440 C444 1.362 . S
C441 C442 1.258 . S
C441 C444 1.431 . S
C441 C461 1.449 . S
C442 C441 1.258 . S
C442 C443 1.477 . S
C442 H462 0.931 . S
C443 C439 1.460 . S
C443 C442 1.477 . S
C443 H463 0.930 . S
C444 N440 1.362 . S
C444 C441 1.431 . S
C444 C454 1.476 . S
H445 C439 0.929 . S
C446 O437 1.250 . S
C446 O438 1.258 . S
O447 Mn432 2.162 . S
O447 C435 1.281 . S
O448 Mn432 2.297 . S
O448 C435 1.236 . S
N449 Mn433 2.282 . S
N449 C450 1.328 . S
N449 C454 1.318 . S
C450 N449 1.328 . S
C450 C451 1.457 . S
C450 H455 0.929 . S
C451 C450 1.457 . S
C451 C452 1.291 . S
C451 H464 0.931 . S
C452 C451 1.291 . S
C452 C453 1.373 . S
C452 H465 0.929 . S
C453 C452 1.373 . S
C453 C454 1.396 . S
C453 C460 1.403 . S
C454 C444 1.476 . S
C454 N449 1.318 . S
C454 C453 1.396 . S
H455 C450 0.929 . S
O456 Mn432 2.385 . S
O456 C434 1.234 . S
O457 Mn432 2.209 . S
O457 Mn433 2.215 . S
O457 C434 1.283 . S
O458 Mn432 2.094 . S
O458 C436 1.240 . S
O459 Mn433 2.117 . S
O459 C436 1.264 . S
C460 C453 1.403 . S
C460 C461 1.399 . S
C460 H466 0.929 . S
C461 C441 1.449 . S
C461 C460 1.399 . S
C461 H467 0.930 . S
H462 C442 0.931 . S
H463 C443 0.930 . S
H464 C451 0.931 . S
H465 C452 0.929 . S
H466 C460 0.929 . S
H467 C461 0.930 . S
Mn468 O473 2.095 . S
Mn468 O483 2.162 . S
Mn468 O484 2.297 . S
Mn468 O492 2.385 . S
Mn468 O493 2.209 . S
Mn468 O494 2.094 . S
Mn469 O474 2.121 . S
Mn469 N476 2.257 . S
Mn469 N485 2.282 . S
Mn469 O493 2.215 . S
Mn469 O495 2.117 . S
C470 O492 1.234 . S
C470 O493 1.283 . S
C471 O483 1.281 . S
C471 O484 1.236 . S
C472 O494 1.240 . S
C472 O495 1.264 . S
O473 Mn468 2.095 . S
O473 C482 1.250 . S
O474 Mn469 2.121 . S
O474 C482 1.258 . S
C475 N476 1.326 . S
C475 C479 1.460 . S
C475 H481 0.929 . S
N476 Mn469 2.257 . S
N476 C475 1.326 . S
N476 C480 1.362 . S
C477 C478 1.258 . S
C477 C480 1.431 . S
C477 C497 1.449 . S
C478 C477 1.258 . S
C478 C479 1.477 . S
C478 H498 0.931 . S
C479 C475 1.460 . S
C479 C478 1.477 . S
C479 H499 0.930 . S
C480 N476 1.362 . S
C480 C477 1.431 . S
C480 C490 1.476 . S
H481 C475 0.929 . S
C482 O473 1.250 . S
C482 O474 1.258 . S
O483 Mn468 2.162 . S
O483 C471 1.281 . S
O484 Mn468 2.297 . S
O484 C471 1.236 . S
N485 Mn469 2.282 . S
N485 C486 1.328 . S
N485 C490 1.318 . S
C486 N485 1.328 . S
C486 C487 1.457 . S
C486 H491 0.929 . S
C487 C486 1.457 . S
C487 C488 1.291 . S
C487 H500 0.931 . S
C488 C487 1.291 . S
C488 C489 1.373 . S
C488 H501 0.929 . S
C489 C488 1.373 . S
C489 C490 1.396 . S
C489 C496 1.403 . S
C490 C480 1.476 . S
C490 N485 1.318 . S
C490 C489 1.396 . S
H491 C486 0.929 . S
O492 Mn468 2.385 . S
O492 C470 1.234 . S
O493 Mn468 2.209 . S
O493 Mn469 2.215 . S
O493 C470 1.283 . S
O494 Mn468 2.094 . S
O494 C472 1.240 . S
O495 Mn469 2.117 . S
O495 C472 1.264 . S
C496 C489 1.403 . S
C496 C497 1.399 . S
C496 H502 0.929 . S
C497 C477 1.449 . S
C497 C496 1.399 . S
C497 H503 0.930 . S
H498 C478 0.931 . S
H499 C479 0.930 . S
H500 C487 0.931 . S
H501 C488 0.929 . S
H502 C496 0.929 . S
H503 C497 0.930 . S
Mn504 O509 2.095 . S
Mn504 O519 2.162 . S
Mn504 O520 2.297 . S
Mn504 O528 2.385 . S
Mn504 O529 2.209 . S
Mn504 O530 2.094 . S
Mn505 O510 2.121 . S
Mn505 N512 2.257 . S
Mn505 N521 2.282 . S
Mn505 O529 2.215 . S
Mn505 O531 2.117 . S
C506 O528 1.234 . S
C506 O529 1.283 . S
C507 O519 1.281 . S
C507 O520 1.236 . S
C508 O530 1.240 . S
C508 O531 1.264 . S
O509 Mn504 2.095 . S
O509 C518 1.250 . S
O510 Mn505 2.121 . S
O510 C518 1.258 . S
C511 N512 1.326 . S
C511 C515 1.460 . S
C511 H517 0.929 . S
N512 Mn505 2.257 . S
N512 C511 1.326 . S
N512 C516 1.362 . S
C513 C514 1.258 . S
C513 C516 1.431 . S
C513 C533 1.449 . S
C514 C513 1.258 . S
C514 C515 1.477 . S
C514 H534 0.931 . S
C515 C511 1.460 . S
C515 C514 1.477 . S
C515 H535 0.930 . S
C516 N512 1.362 . S
C516 C513 1.431 . S
C516 C526 1.476 . S
H517 C511 0.929 . S
C518 O509 1.250 . S
C518 O510 1.258 . S
O519 Mn504 2.162 . S
O519 C507 1.281 . S
O520 Mn504 2.297 . S
O520 C507 1.236 . S
N521 Mn505 2.282 . S
N521 C522 1.328 . S
N521 C526 1.318 . S
C522 N521 1.328 . S
C522 C523 1.457 . S
C522 H527 0.929 . S
C523 C522 1.457 . S
C523 C524 1.291 . S
C523 H536 0.931 . S
C524 C523 1.291 . S
C524 C525 1.373 . S
C524 H537 0.929 . S
C525 C524 1.373 . S
C525 C526 1.396 . S
C525 C532 1.403 . S
C526 C516 1.476 . S
C526 N521 1.318 . S
C526 C525 1.396 . S
H527 C522 0.929 . S
O528 Mn504 2.385 . S
O528 C506 1.234 . S
O529 Mn504 2.209 . S
O529 Mn505 2.215 . S
O529 C506 1.283 . S
O530 Mn504 2.094 . S
O530 C508 1.240 . S
O531 Mn505 2.117 . S
O531 C508 1.264 . S
C532 C525 1.403 . S
C532 C533 1.399 . S
C532 H538 0.929 . S
C533 C513 1.449 . S
C533 C532 1.399 . S
C533 H539 0.930 . S
H534 C514 0.931 . S
H535 C515 0.930 . S
H536 C523 0.931 . S
H537 C524 0.929 . S
H538 C532 0.929 . S
H539 C533 0.930 . S
Mn540 O545 2.095 . S
Mn540 O555 2.162 . S
Mn540 O556 2.297 . S
Mn540 O564 2.385 . S
Mn540 O565 2.209 . S
Mn540 O566 2.094 . S
Mn541 O546 2.121 . S
Mn541 N548 2.257 . S
Mn541 N557 2.282 . S
Mn541 O565 2.215 . S
Mn541 O567 2.117 . S
C542 O564 1.234 . S
C542 O565 1.283 . S
C543 O555 1.281 . S
C543 O556 1.236 . S
C544 O566 1.240 . S
C544 O567 1.264 . S
O545 Mn540 2.095 . S
O545 C554 1.250 . S
O546 Mn541 2.121 . S
O546 C554 1.258 . S
C547 N548 1.326 . S
C547 C551 1.460 . S
C547 H553 0.929 . S
N548 Mn541 2.257 . S
N548 C547 1.326 . S
N548 C552 1.362 . S
C549 C550 1.258 . S
C549 C552 1.431 . S
C549 C569 1.449 . S
C550 C549 1.258 . S
C550 C551 1.477 . S
C550 H570 0.931 . S
C551 C547 1.460 . S
C551 C550 1.477 . S
C551 H571 0.930 . S
C552 N548 1.362 . S
C552 C549 1.431 . S
C552 C562 1.476 . S
H553 C547 0.929 . S
C554 O545 1.250 . S
C554 O546 1.258 . S
O555 Mn540 2.162 . S
O555 C543 1.281 . S
O556 Mn540 2.297 . S
O556 C543 1.236 . S
N557 Mn541 2.282 . S
N557 C558 1.328 . S
N557 C562 1.318 . S
C558 N557 1.328 . S
C558 C559 1.457 . S
C558 H563 0.929 . S
C559 C558 1.457 . S
C559 C560 1.291 . S
C559 H572 0.931 . S
C560 C559 1.291 . S
C560 C561 1.373 . S
C560 H573 0.929 . S
C561 C560 1.373 . S
C561 C562 1.396 . S
C561 C568 1.403 . S
C562 C552 1.476 . S
C562 N557 1.318 . S
C562 C561 1.396 . S
H563 C558 0.929 . S
O564 Mn540 2.385 . S
O564 C542 1.234 . S
O565 Mn540 2.209 . S
O565 Mn541 2.215 . S
O565 C542 1.283 . S
O566 Mn540 2.094 . S
O566 C544 1.240 . S
O567 Mn541 2.117 . S
O567 C544 1.264 . S
C568 C561 1.403 . S
C568 C569 1.399 . S
C568 H574 0.929 . S
C569 C549 1.449 . S
C569 C568 1.399 . S
C569 H575 0.930 . S
H570 C550 0.931 . S
H571 C551 0.930 . S
H572 C559 0.931 . S
H573 C560 0.929 . S
H574 C568 0.929 . S
H575 C569 0.930 . S
C576 C577 1.391 . S
C576 C578 1.394 . S
C576 H592 0.931 . S
C577 C576 1.391 . S
C577 C581 1.376 . S
C578 C576 1.394 . S
C578 C579 1.369 . S
C578 C582 1.531 . S
C579 C578 1.369 . S
C579 C580 1.410 . S
C579 C587 1.503 . S
C580 C579 1.410 . S
C580 C581 1.392 . S
C580 C583 1.511 . S
C581 C577 1.376 . S
C581 C580 1.392 . S
C581 H593 0.929 . S
C582 C578 1.531 . S
C582 H594 0.960 . S
C582 H595 0.962 . S
C582 H596 0.960 . S
C583 C580 1.511 . S
C583 H597 0.961 . S
C583 H598 0.961 . S
C583 H599 0.961 . S
C584 C585 1.370 . S
C584 C586 1.363 . S
C584 H600 0.931 . S
C585 C584 1.370 . S
C585 C589 1.408 . S
C586 C584 1.363 . S
C586 C587 1.370 . S
C586 C590 1.524 . S
C587 C579 1.503 . S
C587 C586 1.370 . S
C587 C588 1.403 . S
C588 C587 1.403 . S
C588 C589 1.404 . S
C588 C591 1.539 . S
C589 C585 1.408 . S
C589 C588 1.404 . S
C589 H601 0.930 . S
C590 C586 1.524 . S
C590 H602 0.956 . S
C590 H603 0.961 . S
C590 H604 0.961 . S
C591 C588 1.539 . S
C591 H605 0.958 . S
C591 H606 0.961 . S
C591 H607 0.960 . S
H592 C576 0.931 . S
H593 C581 0.929 . S
H594 C582 0.960 . S
H595 C582 0.962 . S
H596 C582 0.960 . S
H597 C583 0.961 . S
H598 C583 0.961 . S
H599 C583 0.961 . S
H600 C584 0.931 . S
H601 C589 0.930 . S
H602 C590 0.956 . S
H603 C590 0.961 . S
H604 C590 0.961 . S
H605 C591 0.958 . S
H606 C591 0.961 . S
H607 C591 0.960 . S
C608 C609 1.391 . S
C608 C610 1.394 . S
C608 H624 0.931 . S
C609 C608 1.391 . S
C609 C613 1.376 . S
C610 C608 1.394 . S
C610 C611 1.369 . S
C610 C614 1.531 . S
C611 C610 1.369 . S
C611 C612 1.410 . S
C611 C619 1.503 . S
C612 C611 1.410 . S
C612 C613 1.392 . S
C612 C615 1.511 . S
C613 C609 1.376 . S
C613 C612 1.392 . S
C613 H625 0.929 . S
C614 C610 1.531 . S
C614 H626 0.960 . S
C614 H627 0.962 . S
C614 H628 0.960 . S
C615 C612 1.511 . S
C615 H629 0.961 . S
C615 H630 0.961 . S
C615 H631 0.961 . S
C616 C617 1.370 . S
C616 C618 1.363 . S
C616 H632 0.931 . S
C617 C616 1.370 . S
C617 C621 1.408 . S
C618 C616 1.363 . S
C618 C619 1.370 . S
C618 C622 1.524 . S
C619 C611 1.503 . S
C619 C618 1.370 . S
C619 C620 1.403 . S
C620 C619 1.403 . S
C620 C621 1.404 . S
C620 C623 1.539 . S
C621 C617 1.408 . S
C621 C620 1.404 . S
C621 H633 0.930 . S
C622 C618 1.524 . S
C622 H634 0.956 . S
C622 H635 0.961 . S
C622 H636 0.961 . S
C623 C620 1.539 . S
C623 H637 0.958 . S
C623 H638 0.961 . S
C623 H639 0.960 . S
H624 C608 0.931 . S
H625 C613 0.929 . S
H626 C614 0.960 . S
H627 C614 0.962 . S
H628 C614 0.960 . S
H629 C615 0.961 . S
H630 C615 0.961 . S
H631 C615 0.961 . S
H632 C616 0.931 . S
H633 C621 0.930 . S
H634 C622 0.956 . S
H635 C622 0.961 . S
H636 C622 0.961 . S
H637 C623 0.958 . S
H638 C623 0.961 . S
H639 C623 0.960 . S
C640 C641 1.391 . S
C640 C642 1.394 . S
C640 H656 0.931 . S
C641 C640 1.391 . S
C641 C645 1.376 . S
C642 C640 1.394 . S
C642 C643 1.369 . S
C642 C646 1.531 . S
C643 C642 1.369 . S
C643 C644 1.410 . S
C643 C651 1.503 . S
C644 C643 1.410 . S
C644 C645 1.392 . S
C644 C647 1.511 . S
C645 C641 1.376 . S
C645 C644 1.392 . S
C645 H657 0.929 . S
C646 C642 1.531 . S
C646 H658 0.960 . S
C646 H659 0.962 . S
C646 H660 0.960 . S
C647 C644 1.511 . S
C647 H661 0.961 . S
C647 H662 0.961 . S
C647 H663 0.961 . S
C648 C649 1.370 . S
C648 C650 1.363 . S
C648 H664 0.931 . S
C649 C648 1.370 . S
C649 C653 1.408 . S
C650 C648 1.363 . S
C650 C651 1.370 . S
C650 C654 1.524 . S
C651 C643 1.503 . S
C651 C650 1.370 . S
C651 C652 1.403 . S
C652 C651 1.403 . S
C652 C653 1.404 . S
C652 C655 1.539 . S
C653 C649 1.408 . S
C653 C652 1.404 . S
C653 H665 0.930 . S
C654 C650 1.524 . S
C654 H666 0.956 . S
C654 H667 0.961 . S
C654 H668 0.961 . S
C655 C652 1.539 . S
C655 H669 0.958 . S
C655 H670 0.961 . S
C655 H671 0.960 . S
H656 C640 0.931 . S
H657 C645 0.929 . S
H658 C646 0.960 . S
H659 C646 0.962 . S
H660 C646 0.960 . S
H661 C647 0.961 . S
H662 C647 0.961 . S
H663 C647 0.961 . S
H664 C648 0.931 . S
H665 C653 0.930 . S
H666 C654 0.956 . S
H667 C654 0.961 . S
H668 C654 0.961 . S
H669 C655 0.958 . S
H670 C655 0.961 . S
H671 C655 0.960 . S
C672 C673 1.391 . S
C672 C674 1.394 . S
C672 H688 0.931 . S
C673 C672 1.391 . S
C673 C677 1.376 . S
C674 C672 1.394 . S
C674 C675 1.369 . S
C674 C678 1.531 . S
C675 C674 1.369 . S
C675 C676 1.410 . S
C675 C683 1.503 . S
C676 C675 1.410 . S
C676 C677 1.392 . S
C676 C679 1.511 . S
C677 C673 1.376 . S
C677 C676 1.392 . S
C677 H689 0.929 . S
C678 C674 1.531 . S
C678 H690 0.960 . S
C678 H691 0.962 . S
C678 H692 0.960 . S
C679 C676 1.511 . S
C679 H693 0.961 . S
C679 H694 0.961 . S
C679 H695 0.961 . S
C680 C681 1.370 . S
C680 C682 1.363 . S
C680 H696 0.931 . S
C681 C680 1.370 . S
C681 C685 1.408 . S
C682 C680 1.363 . S
C682 C683 1.370 . S
C682 C686 1.524 . S
C683 C675 1.503 . S
C683 C682 1.370 . S
C683 C684 1.403 . S
C684 C683 1.403 . S
C684 C685 1.404 . S
C684 C687 1.539 . S
C685 C681 1.408 . S
C685 C684 1.404 . S
C685 H697 0.930 . S
C686 C682 1.524 . S
C686 H698 0.956 . S
C686 H699 0.961 . S
C686 H700 0.961 . S
C687 C684 1.539 . S
C687 H701 0.958 . S
C687 H702 0.961 . S
C687 H703 0.960 . S
H688 C672 0.931 . S
H689 C677 0.929 . S
H690 C678 0.960 . S
H691 C678 0.962 . S
H692 C678 0.960 . S
H693 C679 0.961 . S
H694 C679 0.961 . S
H695 C679 0.961 . S
H696 C680 0.931 . S
H697 C685 0.930 . S
H698 C686 0.956 . S
H699 C686 0.961 . S
H700 C686 0.961 . S
H701 C687 0.958 . S
H702 C687 0.961 . S
H703 C687 0.960 . S
C704 C705 1.391 . S
C704 C706 1.394 . S
C704 H720 0.931 . S
C705 C704 1.391 . S
C705 C709 1.376 . S
C706 C704 1.394 . S
C706 C707 1.369 . S
C706 C710 1.531 . S
C707 C706 1.369 . S
C707 C708 1.410 . S
C707 C715 1.503 . S
C708 C707 1.410 . S
C708 C709 1.392 . S
C708 C711 1.511 . S
C709 C705 1.376 . S
C709 C708 1.392 . S
C709 H721 0.929 . S
C710 C706 1.531 . S
C710 H722 0.960 . S
C710 H723 0.962 . S
C710 H724 0.960 . S
C711 C708 1.511 . S
C711 H725 0.961 . S
C711 H726 0.961 . S
C711 H727 0.961 . S
C712 C713 1.370 . S
C712 C714 1.363 . S
C712 H728 0.931 . S
C713 C712 1.370 . S
C713 C717 1.408 . S
C714 C712 1.363 . S
C714 C715 1.370 . S
C714 C718 1.524 . S
C715 C707 1.503 . S
C715 C714 1.370 . S
C715 C716 1.403 . S
C716 C715 1.403 . S
C716 C717 1.404 . S
C716 C719 1.539 . S
C717 C713 1.408 . S
C717 C716 1.404 . S
C717 H729 0.930 . S
C718 C714 1.524 . S
C718 H730 0.956 . S
C718 H731 0.961 . S
C718 H732 0.961 . S
C719 C716 1.539 . S
C719 H733 0.958 . S
C719 H734 0.961 . S
C719 H735 0.960 . S
H720 C704 0.931 . S
H721 C709 0.929 . S
H722 C710 0.960 . S
H723 C710 0.962 . S
H724 C710 0.960 . S
H725 C711 0.961 . S
H726 C711 0.961 . S
H727 C711 0.961 . S
H728 C712 0.931 . S
H729 C717 0.930 . S
H730 C718 0.956 . S
H731 C718 0.961 . S
H732 C718 0.961 . S
H733 C719 0.958 . S
H734 C719 0.961 . S
H735 C719 0.960 . S
C736 C737 1.391 . S
C736 C738 1.394 . S
C736 H752 0.931 . S
C737 C736 1.391 . S
C737 C741 1.376 . S
C738 C736 1.394 . S
C738 C739 1.369 . S
C738 C742 1.531 . S
C739 C738 1.369 . S
C739 C740 1.410 . S
C739 C747 1.503 . S
C740 C739 1.410 . S
C740 C741 1.392 . S
C740 C743 1.511 . S
C741 C737 1.376 . S
C741 C740 1.392 . S
C741 H753 0.929 . S
C742 C738 1.531 . S
C742 H754 0.960 . S
C742 H755 0.962 . S
C742 H756 0.960 . S
C743 C740 1.511 . S
C743 H757 0.961 . S
C743 H758 0.961 . S
C743 H759 0.961 . S
C744 C745 1.370 . S
C744 C746 1.363 . S
C744 H760 0.931 . S
C745 C744 1.370 . S
C745 C749 1.408 . S
C746 C744 1.363 . S
C746 C747 1.370 . S
C746 C750 1.524 . S
C747 C739 1.503 . S
C747 C746 1.370 . S
C747 C748 1.403 . S
C748 C747 1.403 . S
C748 C749 1.404 . S
C748 C751 1.539 . S
C749 C745 1.408 . S
C749 C748 1.404 . S
C749 H761 0.930 . S
C750 C746 1.524 . S
C750 H762 0.956 . S
C750 H763 0.961 . S
C750 H764 0.961 . S
C751 C748 1.539 . S
C751 H765 0.958 . S
C751 H766 0.961 . S
C751 H767 0.960 . S
H752 C736 0.931 . S
H753 C741 0.929 . S
H754 C742 0.960 . S
H755 C742 0.962 . S
H756 C742 0.960 . S
H757 C743 0.961 . S
H758 C743 0.961 . S
H759 C743 0.961 . S
H760 C744 0.931 . S
H761 C749 0.930 . S
H762 C750 0.956 . S
H763 C750 0.961 . S
H764 C750 0.961 . S
H765 C751 0.958 . S
H766 C751 0.961 . S
H767 C751 0.960 . S
C768 C769 1.391 . S
C768 C770 1.394 . S
C768 H784 0.931 . S
C769 C768 1.391 . S
C769 C773 1.376 . S
C770 C768 1.394 . S
C770 C771 1.369 . S
C770 C774 1.531 . S
C771 C770 1.369 . S
C771 C772 1.410 . S
C771 C779 1.503 . S
C772 C771 1.410 . S
C772 C773 1.392 . S
C772 C775 1.511 . S
C773 C769 1.376 . S
C773 C772 1.392 . S
C773 H785 0.929 . S
C774 C770 1.531 . S
C774 H786 0.960 . S
C774 H787 0.962 . S
C774 H788 0.960 . S
C775 C772 1.511 . S
C775 H789 0.961 . S
C775 H790 0.961 . S
C775 H791 0.961 . S
C776 C777 1.370 . S
C776 C778 1.363 . S
C776 H792 0.931 . S
C777 C776 1.370 . S
C777 C781 1.408 . S
C778 C776 1.363 . S
C778 C779 1.370 . S
C778 C782 1.524 . S
C779 C771 1.503 . S
C779 C778 1.370 . S
C779 C780 1.403 . S
C780 C779 1.403 . S
C780 C781 1.404 . S
C780 C783 1.539 . S
C781 C777 1.408 . S
C781 C780 1.404 . S
C781 H793 0.930 . S
C782 C778 1.524 . S
C782 H794 0.956 . S
C782 H795 0.961 . S
C782 H796 0.961 . S
C783 C780 1.539 . S
C783 H797 0.958 . S
C783 H798 0.961 . S
C783 H799 0.960 . S
H784 C768 0.931 . S
H785 C773 0.929 . S
H786 C774 0.960 . S
H787 C774 0.962 . S
H788 C774 0.960 . S
H789 C775 0.961 . S
H790 C775 0.961 . S
H791 C775 0.961 . S
H792 C776 0.931 . S
H793 C781 0.930 . S
H794 C782 0.956 . S
H795 C782 0.961 . S
H796 C782 0.961 . S
H797 C783 0.958 . S
H798 C783 0.961 . S
H799 C783 0.960 . S
C800 C801 1.391 . S
C800 C802 1.394 . S
C800 H816 0.931 . S
C801 C800 1.391 . S
C801 C805 1.376 . S
C802 C800 1.394 . S
C802 C803 1.369 . S
C802 C806 1.531 . S
C803 C802 1.369 . S
C803 C804 1.410 . S
C803 C811 1.503 . S
C804 C803 1.410 . S
C804 C805 1.392 . S
C804 C807 1.511 . S
C805 C801 1.376 . S
C805 C804 1.392 . S
C805 H817 0.929 . S
C806 C802 1.531 . S
C806 H818 0.960 . S
C806 H819 0.962 . S
C806 H820 0.960 . S
C807 C804 1.511 . S
C807 H821 0.961 . S
C807 H822 0.961 . S
C807 H823 0.961 . S
C808 C809 1.370 . S
C808 C810 1.363 . S
C808 H824 0.931 . S
C809 C808 1.370 . S
C809 C813 1.408 . S
C810 C808 1.363 . S
C810 C811 1.370 . S
C810 C814 1.524 . S
C811 C803 1.503 . S
C811 C810 1.370 . S
C811 C812 1.403 . S
C812 C811 1.403 . S
C812 C813 1.404 . S
C812 C815 1.539 . S
C813 C809 1.408 . S
C813 C812 1.404 . S
C813 H825 0.930 . S
C814 C810 1.524 . S
C814 H826 0.956 . S
C814 H827 0.961 . S
C814 H828 0.961 . S
C815 C812 1.539 . S
C815 H829 0.958 . S
C815 H830 0.961 . S
C815 H831 0.960 . S
H816 C800 0.931 . S
H817 C805 0.929 . S
H818 C806 0.960 . S
H819 C806 0.962 . S
H820 C806 0.960 . S
H821 C807 0.961 . S
H822 C807 0.961 . S
H823 C807 0.961 . S
H824 C808 0.931 . S
H825 C813 0.930 . S
H826 C814 0.956 . S
H827 C814 0.961 . S
H828 C814 0.961 . S
H829 C815 0.958 . S
H830 C815 0.961 . S
H831 C815 0.960 . S
C832 C833 1.391 . S
C832 C834 1.394 . S
C832 H848 0.931 . S
C833 C832 1.391 . S
C833 C837 1.376 . S
C834 C832 1.394 . S
C834 C835 1.369 . S
C834 C838 1.531 . S
C835 C834 1.369 . S
C835 C836 1.410 . S
C835 C843 1.503 . S
C836 C835 1.410 . S
C836 C837 1.392 . S
C836 C839 1.511 . S
C837 C833 1.376 . S
C837 C836 1.392 . S
C837 H849 0.929 . S
C838 C834 1.531 . S
C838 H850 0.960 . S
C838 H851 0.962 . S
C838 H852 0.960 . S
C839 C836 1.511 . S
C839 H853 0.961 . S
C839 H854 0.961 . S
C839 H855 0.961 . S
C840 C841 1.370 . S
C840 C842 1.363 . S
C840 H856 0.931 . S
C841 C840 1.370 . S
C841 C845 1.408 . S
C842 C840 1.363 . S
C842 C843 1.370 . S
C842 C846 1.524 . S
C843 C835 1.503 . S
C843 C842 1.370 . S
C843 C844 1.403 . S
C844 C843 1.403 . S
C844 C845 1.404 . S
C844 C847 1.539 . S
C845 C841 1.408 . S
C845 C844 1.404 . S
C845 H857 0.930 . S
C846 C842 1.524 . S
C846 H858 0.956 . S
C846 H859 0.961 . S
C846 H860 0.961 . S
C847 C844 1.539 . S
C847 H861 0.958 . S
C847 H862 0.961 . S
C847 H863 0.960 . S
H848 C832 0.931 . S
H849 C837 0.929 . S
H850 C838 0.960 . S
H851 C838 0.962 . S
H852 C838 0.960 . S
H853 C839 0.961 . S
H854 C839 0.961 . S
H855 C839 0.961 . S
H856 C840 0.931 . S
H857 C845 0.930 . S
H858 C846 0.956 . S
H859 C846 0.961 . S
H860 C846 0.961 . S
H861 C847 0.958 . S
H862 C847 0.961 . S
H863 C847 0.960 . S
C864 C865 1.391 . S
C864 C866 1.394 . S
C864 H880 0.931 . S
C865 C864 1.391 . S
C865 C869 1.376 . S
C866 C864 1.394 . S
C866 C867 1.369 . S
C866 C870 1.531 . S
C867 C866 1.369 . S
C867 C868 1.410 . S
C867 C875 1.503 . S
C868 C867 1.410 . S
C868 C869 1.392 . S
C868 C871 1.511 . S
C869 C865 1.376 . S
C869 C868 1.392 . S
C869 H881 0.929 . S
C870 C866 1.531 . S
C870 H882 0.960 . S
C870 H883 0.962 . S
C870 H884 0.960 . S
C871 C868 1.511 . S
C871 H885 0.961 . S
C871 H886 0.961 . S
C871 H887 0.961 . S
C872 C873 1.370 . S
C872 C874 1.363 . S
C872 H888 0.931 . S
C873 C872 1.370 . S
C873 C877 1.408 . S
C874 C872 1.363 . S
C874 C875 1.370 . S
C874 C878 1.524 . S
C875 C867 1.503 . S
C875 C874 1.370 . S
C875 C876 1.403 . S
C876 C875 1.403 . S
C876 C877 1.404 . S
C876 C879 1.539 . S
C877 C873 1.408 . S
C877 C876 1.404 . S
C877 H889 0.930 . S
C878 C874 1.524 . S
C878 H890 0.956 . S
C878 H891 0.961 . S
C878 H892 0.961 . S
C879 C876 1.539 . S
C879 H893 0.958 . S
C879 H894 0.961 . S
C879 H895 0.960 . S
H880 C864 0.931 . S
H881 C869 0.929 . S
H882 C870 0.960 . S
H883 C870 0.962 . S
H884 C870 0.960 . S
H885 C871 0.961 . S
H886 C871 0.961 . S
H887 C871 0.961 . S
H888 C872 0.931 . S
H889 C877 0.930 . S
H890 C878 0.956 . S
H891 C878 0.961 . S
H892 C878 0.961 . S
H893 C879 0.958 . S
H894 C879 0.961 . S
H895 C879 0.960 . S
C896 C897 1.391 . S
C896 C898 1.394 . S
C896 H912 0.931 . S
C897 C896 1.391 . S
C897 C901 1.376 . S
C898 C896 1.394 . S
C898 C899 1.369 . S
C898 C902 1.531 . S
C899 C898 1.369 . S
C899 C900 1.410 . S
C899 C907 1.503 . S
C900 C899 1.410 . S
C900 C901 1.392 . S
C900 C903 1.511 . S
C901 C897 1.376 . S
C901 C900 1.392 . S
C901 H913 0.929 . S
C902 C898 1.531 . S
C902 H914 0.960 . S
C902 H915 0.962 . S
C902 H916 0.960 . S
C903 C900 1.511 . S
C903 H917 0.961 . S
C903 H918 0.961 . S
C903 H919 0.961 . S
C904 C905 1.370 . S
C904 C906 1.363 . S
C904 H920 0.931 . S
C905 C904 1.370 . S
C905 C909 1.408 . S
C906 C904 1.363 . S
C906 C907 1.370 . S
C906 C910 1.524 . S
C907 C899 1.503 . S
C907 C906 1.370 . S
C907 C908 1.403 . S
C908 C907 1.403 . S
C908 C909 1.404 . S
C908 C911 1.539 . S
C909 C905 1.408 . S
C909 C908 1.404 . S
C909 H921 0.930 . S
C910 C906 1.524 . S
C910 H922 0.956 . S
C910 H923 0.961 . S
C910 H924 0.961 . S
C911 C908 1.539 . S
C911 H925 0.958 . S
C911 H926 0.961 . S
C911 H927 0.960 . S
H912 C896 0.931 . S
H913 C901 0.929 . S
H914 C902 0.960 . S
H915 C902 0.962 . S
H916 C902 0.960 . S
H917 C903 0.961 . S
H918 C903 0.961 . S
H919 C903 0.961 . S
H920 C904 0.931 . S
H921 C909 0.930 . S
H922 C910 0.956 . S
H923 C910 0.961 . S
H924 C910 0.961 . S
H925 C911 0.958 . S
H926 C911 0.961 . S
H927 C911 0.960 . S
C928 C929 1.391 . S
C928 C930 1.394 . S
C928 H944 0.931 . S
C929 C928 1.391 . S
C929 C933 1.376 . S
C930 C928 1.394 . S
C930 C931 1.369 . S
C930 C934 1.531 . S
C931 C930 1.369 . S
C931 C932 1.410 . S
C931 C939 1.503 1_554 S
C932 C931 1.410 . S
C932 C933 1.392 . S
C932 C935 1.511 . S
C933 C929 1.376 . S
C933 C932 1.392 . S
C933 H945 0.929 . S
C934 C930 1.531 . S
C934 H946 0.960 1_554 S
C934 H947 0.962 . S
C934 H948 0.960 . S
C935 C932 1.511 . S
C935 H949 0.961 . S
C935 H950 0.920 1_554 S
C935 H951 0.961 . S
C936 C937 1.370 . S
C936 C938 1.363 . S
C936 H952 0.931 . S
C937 C936 1.370 . S
C937 C941 1.408 . S
C938 C936 1.363 . S
C938 C939 1.370 . S
C938 C942 1.524 1_556 S
C939 C931 1.503 1_556 S
C939 C938 1.370 . S
C939 C940 1.403 . S
C940 C939 1.403 . S
C940 C941 1.404 . S
C940 C943 1.539 . S
C941 C937 1.408 . S
C941 C940 1.404 . S
C941 H953 0.930 . S
C942 C938 1.524 1_554 S
C942 H954 0.956 . S
C942 H955 0.961 . S
C942 H956 0.951 1_554 S
C943 C940 1.539 . S
C943 H957 0.958 . S
C943 H958 0.961 . S
C943 H959 0.960 . S
H944 C928 0.931 . S
H945 C933 0.929 . S
H946 C934 0.960 1_556 S
H947 C934 0.962 . S
H948 C934 0.960 . S
H949 C935 0.961 . S
H950 C935 0.920 1_556 S
H951 C935 0.961 . S
H952 C936 0.931 . S
H953 C941 0.930 . S
H954 C942 0.956 . S
H955 C942 0.961 . S
H956 C942 0.951 1_556 S
H957 C943 0.958 . S
H958 C943 0.961 . S
H959 C943 0.960 . S
C960 C961 1.391 . S
C960 C962 1.394 . S
C960 H976 0.931 . S
C961 C960 1.391 . S
C961 C965 1.376 . S
C962 C960 1.394 . S
C962 C963 1.369 . S
C962 C966 1.531 . S
C963 C962 1.369 . S
C963 C964 1.410 . S
C963 C971 1.503 1_554 S
C964 C963 1.410 . S
C964 C965 1.392 . S
C964 C967 1.505 . S
C965 C961 1.376 . S
C965 C964 1.392 . S
C965 H977 0.929 . S
C966 C962 1.531 . S
C966 H978 0.960 . S
C966 H979 0.962 . S
C966 H980 0.960 . S
C967 C964 1.505 . S
C967 H981 0.958 . S
C967 H982 0.970 1_554 S
C967 H983 0.960 1_554 S
C968 C969 1.370 . S
C968 C970 1.363 . S
C968 H984 0.931 . S
C969 C968 1.370 . S
C969 C973 1.408 . S
C970 C968 1.363 . S
C970 C971 1.370 . S
C970 C974 1.524 . S
C971 C963 1.503 1_556 S
C971 C970 1.370 . S
C971 C972 1.403 . S
C972 C971 1.403 . S
C972 C973 1.404 . S
C972 C975 1.539 . S
C973 C969 1.408 . S
C973 C972 1.404 . S
C973 H985 0.930 . S
C974 C970 1.524 . S
C974 H986 0.956 . S
C974 H987 0.961 . S
C974 H988 0.961 . S
C975 C972 1.539 . S
C975 H989 0.933 1_556 S
C975 H990 0.961 . S
C975 H991 0.960 1_556 S
H976 C960 0.931 . S
H977 C965 0.929 . S
H978 C966 0.960 . S
H979 C966 0.962 . S
H980 C966 0.960 . S
H981 C967 0.958 . S
H982 C967 0.970 1_556 S
H983 C967 0.960 1_556 S
H984 C968 0.931 . S
H985 C973 0.930 . S
H986 C974 0.956 . S
H987 C974 0.961 . S
H988 C974 0.961 . S
H989 C975 0.933 1_554 S
H990 C975 0.961 . S
H991 C975 0.960 1_554 S
C992 C993 1.391 . S
C992 C994 1.394 . S
C992 H1008 0.931 . S
C993 C992 1.391 . S
C993 C997 1.376 . S
C994 C992 1.394 . S
C994 C995 1.369 . S
C994 C998 1.531 . S
C995 C994 1.369 . S
C995 C996 1.410 . S
C995 C1003 1.503 . S
C996 C995 1.410 . S
C996 C997 1.392 . S
C996 C999 1.511 . S
C997 C993 1.376 . S
C997 C996 1.392 . S
C997 H1009 0.929 . S
C998 C994 1.531 . S
C998 H1010 0.960 . S
C998 H1011 0.962 . S
C998 H1012 0.960 . S
C999 C996 1.511 . S
C999 H1013 0.961 . S
C999 H1014 0.961 . S
C999 H1015 0.961 . S
C1000 C1001 1.370 . S
C1000 C1002 1.363 . S
C1000 H1016 0.931 . S
C1001 C1000 1.370 . S
C1001 C1005 1.408 . S
C1002 C1000 1.363 . S
C1002 C1003 1.370 . S
C1002 C1006 1.524 . S
C1003 C995 1.503 . S
C1003 C1002 1.370 . S
C1003 C1004 1.403 . S
C1004 C1003 1.403 . S
C1004 C1005 1.404 . S
C1004 C1007 1.539 . S
C1005 C1001 1.408 . S
C1005 C1004 1.404 . S
C1005 H1017 0.930 . S
C1006 C1002 1.524 . S
C1006 H1018 0.956 . S
C1006 H1019 0.961 . S
C1006 H1020 0.961 . S
C1007 C1004 1.539 . S
C1007 H1021 0.958 . S
C1007 H1022 0.961 . S
C1007 H1023 0.960 . S
H1008 C992 0.931 . S
H1009 C997 0.929 . S
H1010 C998 0.960 . S
H1011 C998 0.962 . S
H1012 C998 0.960 . S
H1013 C999 0.961 . S
H1014 C999 0.961 . S
H1015 C999 0.961 . S
H1016 C1000 0.931 . S
H1017 C1005 0.930 . S
H1018 C1006 0.956 . S
H1019 C1006 0.961 . S
H1020 C1006 0.961 . S
H1021 C1007 0.958 . S
H1022 C1007 0.961 . S
H1023 C1007 0.960 . S
C1024 C1025 1.391 . S
C1024 C1026 1.394 . S
C1024 H1040 0.931 . S
C1025 C1024 1.391 . S
C1025 C1029 1.376 . S
C1026 C1024 1.394 . S
C1026 C1027 1.369 . S
C1026 C1030 1.531 . S
C1027 C1026 1.369 . S
C1027 C1028 1.410 . S
C1027 C1035 1.503 . S
C1028 C1027 1.410 . S
C1028 C1029 1.392 . S
C1028 C1031 1.511 . S
C1029 C1025 1.376 . S
C1029 C1028 1.392 . S
C1029 H1041 0.929 . S
C1030 C1026 1.531 . S
C1030 H1042 0.960 . S
C1030 H1043 0.962 . S
C1030 H1044 0.960 . S
C1031 C1028 1.511 . S
C1031 H1045 0.961 . S
C1031 H1046 0.961 . S
C1031 H1047 0.961 . S
C1032 C1033 1.370 . S
C1032 C1034 1.363 . S
C1032 H1048 0.931 . S
C1033 C1032 1.370 . S
C1033 C1037 1.408 . S
C1034 C1032 1.363 . S
C1034 C1035 1.370 . S
C1034 C1038 1.524 . S
C1035 C1027 1.503 . S
C1035 C1034 1.370 . S
C1035 C1036 1.403 . S
C1036 C1035 1.403 . S
C1036 C1037 1.404 . S
C1036 C1039 1.539 . S
C1037 C1033 1.408 . S
C1037 C1036 1.404 . S
C1037 H1049 0.930 . S
C1038 C1034 1.524 . S
C1038 H1050 0.956 . S
C1038 H1051 0.961 . S
C1038 H1052 0.961 . S
C1039 C1036 1.539 . S
C1039 H1053 0.958 . S
C1039 H1054 0.961 . S
C1039 H1055 0.960 . S
H1040 C1024 0.931 . S
H1041 C1029 0.929 . S
H1042 C1030 0.960 . S
H1043 C1030 0.962 . S
H1044 C1030 0.960 . S
H1045 C1031 0.961 . S
H1046 C1031 0.961 . S
H1047 C1031 0.961 . S
H1048 C1032 0.931 . S
H1049 C1037 0.930 . S
H1050 C1038 0.956 . S
H1051 C1038 0.961 . S
H1052 C1038 0.961 . S
H1053 C1039 0.958 . S
H1054 C1039 0.961 . S
H1055 C1039 0.960 . S
C1056 C1057 1.391 . S
C1056 C1058 1.394 . S
C1056 H1072 0.931 . S
C1057 C1056 1.391 . S
C1057 C1061 1.376 . S
C1058 C1056 1.394 . S
C1058 C1059 1.369 . S
C1058 C1062 1.531 . S
C1059 C1058 1.369 . S
C1059 C1060 1.410 . S
C1059 C1067 1.503 . S
C1060 C1059 1.410 . S
C1060 C1061 1.392 . S
C1060 C1063 1.511 . S
C1061 C1057 1.376 . S
C1061 C1060 1.392 . S
C1061 H1073 0.929 . S
C1062 C1058 1.531 . S
C1062 H1074 0.960 . S
C1062 H1075 0.962 . S
C1062 H1076 0.960 . S
C1063 C1060 1.511 . S
C1063 H1077 0.961 . S
C1063 H1078 0.961 . S
C1063 H1079 0.961 . S
C1064 C1065 1.370 . S
C1064 C1066 1.363 . S
C1064 H1080 0.931 . S
C1065 C1064 1.370 . S
C1065 C1069 1.408 . S
C1066 C1064 1.363 . S
C1066 C1067 1.370 . S
C1066 C1070 1.524 . S
C1067 C1059 1.503 . S
C1067 C1066 1.370 . S
C1067 C1068 1.403 . S
C1068 C1067 1.403 . S
C1068 C1069 1.404 . S
C1068 C1071 1.539 . S
C1069 C1065 1.408 . S
C1069 C1068 1.404 . S
C1069 H1081 0.930 . S
C1070 C1066 1.524 . S
C1070 H1082 0.956 . S
C1070 H1083 0.961 . S
C1070 H1084 0.961 . S
C1071 C1068 1.539 . S
C1071 H1085 0.958 . S
C1071 H1086 0.961 . S
C1071 H1087 0.960 . S
H1072 C1056 0.931 . S
H1073 C1061 0.929 . S
H1074 C1062 0.960 . S
H1075 C1062 0.962 . S
H1076 C1062 0.960 . S
H1077 C1063 0.961 . S
H1078 C1063 0.961 . S
H1079 C1063 0.961 . S
H1080 C1064 0.931 . S
H1081 C1069 0.930 . S
H1082 C1070 0.956 . S
H1083 C1070 0.961 . S
H1084 C1070 0.961 . S
H1085 C1071 0.958 . S
H1086 C1071 0.961 . S
H1087 C1071 0.960 . S
C1088 C1089 1.391 . S
C1088 C1090 1.394 . S
C1088 H1104 0.931 . S
C1089 C1088 1.391 . S
C1089 C1093 1.376 . S
C1090 C1088 1.394 . S
C1090 C1091 1.369 . S
C1090 C1094 1.531 1_455 S
C1091 C1090 1.369 . S
C1091 C1092 1.410 1_545 S
C1091 C1099 1.503 1_445 S
C1092 C1091 1.410 1_565 S
C1092 C1093 1.392 1_565 S
C1092 C1095 1.511 . S
C1093 C1089 1.376 . S
C1093 C1092 1.392 1_545 S
C1093 H1105 0.929 1_545 S
C1094 C1090 1.531 1_655 S
C1094 H1106 0.960 . S
C1094 H1107 0.962 . S
C1094 H1108 0.960 . S
C1095 C1092 1.511 . S
C1095 H1109 0.961 . S
C1095 H1110 0.961 . S
C1095 H1111 0.961 . S
C1096 C1097 1.370 . S
C1096 C1098 1.363 . S
C1096 H1112 0.931 . S
C1097 C1096 1.370 . S
C1097 C1101 1.408 . S
C1098 C1096 1.363 . S
C1098 C1099 1.370 . S
C1098 C1102 1.524 . S
C1099 C1091 1.503 1_665 S
C1099 C1098 1.370 . S
C1099 C1100 1.403 . S
C1100 C1099 1.403 . S
C1100 C1101 1.404 . S
C1100 C1103 1.539 1_565 S
C1101 C1097 1.408 . S
C1101 C1100 1.404 . S
C1101 H1113 0.930 . S
C1102 C1098 1.524 . S
C1102 H1114 0.956 1_565 S
C1102 H1115 0.961 1_655 S
C1102 H1116 0.961 . S
C1103 C1100 1.539 1_545 S
C1103 H1117 0.958 . S
C1103 H1118 0.961 1_545 S
C1103 H1119 0.960 . S
H1104 C1088 0.931 . S
H1105 C1093 0.929 1_565 S
H1106 C1094 0.960 . S
H1107 C1094 0.962 . S
H1108 C1094 0.960 . S
H1109 C1095 0.961 . S
H1110 C1095 0.961 . S
H1111 C1095 0.961 . S
H1112 C1096 0.931 . S
H1113 C1101 0.930 . S
H1114 C1102 0.956 1_545 S
H1115 C1102 0.961 1_455 S
H1116 C1102 0.961 . S
H1117 C1103 0.958 . S
H1118 C1103 0.961 1_565 S
H1119 C1103 0.960 . S
C1120 C1121 1.391 . S
C1120 C1122 1.394 1_455 S
C1120 H1136 0.925 1_455 S
C1121 C1120 1.391 . S
C1121 C1125 1.376 . S
C1122 C1120 1.394 1_655 S
C1122 C1123 1.369 1_655 S
C1122 C1126 1.531 . S
C1123 C1122 1.369 1_455 S
C1123 C1124 1.410 . S
C1123 C1131 1.503 1_455 S
C1124 C1123 1.410 . S
C1124 C1125 1.392 . S
C1124 C1127 1.511 . S
C1125 C1121 1.376 . S
C1125 C1124 1.392 . S
C1125 H1137 0.929 . S
C1126 C1122 1.531 . S
C1126 H1138 0.960 . S
C1126 H1139 0.962 . S
C1126 H1140 0.960 . S
C1127 C1124 1.511 . S
C1127 H1141 0.961 . S
C1127 H1142 0.961 . S
C1127 H1143 0.961 . S
C1128 C1129 1.370 . S
C1128 C1130 1.363 . S
C1128 H1144 0.931 . S
C1129 C1128 1.370 . S
C1129 C1133 1.408 . S
C1130 C1128 1.363 . S
C1130 C1131 1.370 . S
C1130 C1134 1.524 . S
C1131 C1123 1.503 1_655 S
C1131 C1130 1.370 . S
C1131 C1132 1.403 . S
C1132 C1131 1.403 . S
C1132 C1133 1.404 . S
C1132 C1135 1.539 1_655 S
C1133 C1129 1.408 . S
C1133 C1132 1.404 . S
C1133 H1145 0.930 . S
C1134 C1130 1.524 . S
C1134 H1146 0.956 . S
C1134 H1147 0.962 1_655 S
C1134 H1148 0.961 . S
C1135 C1132 1.539 1_455 S
C1135 H1149 0.958 1_455 S
C1135 H1150 0.961 . S
C1135 H1151 0.960 . S
H1136 C1120 0.925 1_655 S
H1137 C1125 0.929 . S
H1138 C1126 0.960 . S
H1139 C1126 0.962 . S
H1140 C1126 0.960 . S
H1141 C1127 0.961 . S
H1142 C1127 0.961 . S
H1143 C1127 0.961 . S
H1144 C1128 0.931 . S
H1145 C1133 0.930 . S
H1146 C1134 0.956 . S
H1147 C1134 0.962 1_455 S
H1148 C1134 0.961 . S
H1149 C1135 0.958 1_655 S
H1150 C1135 0.961 . S
H1151 C1135 0.960 . S
C1152 C1153 1.391 . S
C1152 C1154 1.394 . S
C1152 H1168 0.931 . S
C1153 C1152 1.391 . S
C1153 C1157 1.376 . S
C1154 C1152 1.394 . S
C1154 C1155 1.369 . S
C1154 C1158 1.531 . S
C1155 C1154 1.369 . S
C1155 C1156 1.410 . S
C1155 C1163 1.503 . S
C1156 C1155 1.410 . S
C1156 C1157 1.392 . S
C1156 C1159 1.511 . S
C1157 C1153 1.376 . S
C1157 C1156 1.392 . S
C1157 H1169 0.929 . S
C1158 C1154 1.531 . S
C1158 H1170 0.960 . S
C1158 H1171 0.962 . S
C1158 H1172 0.960 . S
C1159 C1156 1.511 . S
C1159 H1173 0.961 . S
C1159 H1174 0.961 . S
C1159 H1175 0.961 . S
C1160 C1161 1.370 . S
C1160 C1162 1.363 . S
C1160 H1176 0.931 . S
C1161 C1160 1.370 . S
C1161 C1165 1.408 . S
C1162 C1160 1.363 . S
C1162 C1163 1.370 . S
C1162 C1166 1.524 . S
C1163 C1155 1.503 . S
C1163 C1162 1.370 . S
C1163 C1164 1.403 . S
C1164 C1163 1.403 . S
C1164 C1165 1.404 . S
C1164 C1167 1.539 . S
C1165 C1161 1.408 . S
C1165 C1164 1.404 . S
C1165 H1177 0.930 . S
C1166 C1162 1.524 . S
C1166 H1178 0.956 . S
C1166 H1179 0.961 . S
C1166 H1180 0.961 . S
C1167 C1164 1.539 . S
C1167 H1181 0.958 . S
C1167 H1182 0.961 . S
C1167 H1183 0.960 . S
H1168 C1152 0.931 . S
H1169 C1157 0.929 . S
H1170 C1158 0.960 . S
H1171 C1158 0.962 . S
H1172 C1158 0.960 . S
H1173 C1159 0.961 . S
H1174 C1159 0.961 . S
H1175 C1159 0.961 . S
H1176 C1160 0.931 . S
H1177 C1165 0.930 . S
H1178 C1166 0.956 . S
H1179 C1166 0.961 . S
H1180 C1166 0.961 . S
H1181 C1167 0.958 . S
H1182 C1167 0.961 . S
H1183 C1167 0.960 . S
C1184 C1185 1.391 . S
C1184 C1186 1.394 . S
C1184 H1200 0.931 . S
C1185 C1184 1.391 . S
C1185 C1189 1.376 . S
C1186 C1184 1.394 . S
C1186 C1187 1.369 . S
C1186 C1190 1.531 1_545 S
C1187 C1186 1.369 . S
C1187 C1188 1.410 . S
C1187 C1195 1.503 1_545 S
C1188 C1187 1.410 . S
C1188 C1189 1.392 . S
C1188 C1191 1.511 . S
C1189 C1185 1.376 . S
C1189 C1188 1.392 . S
C1189 H1201 0.929 . S
C1190 C1186 1.531 1_565 S
C1190 H1202 0.960 . S
C1190 H1203 0.962 . S
C1190 H1204 0.960 . S
C1191 C1188 1.511 . S
C1191 H1205 0.961 . S
C1191 H1206 0.961 . S
C1191 H1207 0.961 . S
C1192 C1193 1.370 . S
C1192 C1194 1.363 . S
C1192 H1208 0.931 . S
C1193 C1192 1.370 . S
C1193 C1197 1.408 . S
C1194 C1192 1.363 . S
C1194 C1195 1.370 . S
C1194 C1198 1.524 . S
C1195 C1187 1.503 1_565 S
C1195 C1194 1.370 . S
C1195 C1196 1.403 . S
C1196 C1195 1.403 . S
C1196 C1197 1.404 . S
C1196 C1199 1.539 . S
C1197 C1193 1.408 . S
C1197 C1196 1.404 . S
C1197 H1209 0.930 . S
C1198 C1194 1.524 . S
C1198 H1210 0.956 . S
C1198 H1211 0.961 1_565 S
C1198 H1212 0.961 . S
C1199 C1196 1.539 . S
C1199 H1213 0.958 . S
C1199 H1214 0.961 . S
C1199 H1215 0.960 1_565 S
H1200 C1184 0.931 . S
H1201 C1189 0.929 . S
H1202 C1190 0.960 . S
H1203 C1190 0.962 . S
H1204 C1190 0.960 . S
H1205 C1191 0.961 . S
H1206 C1191 0.961 . S
H1207 C1191 0.961 . S
H1208 C1192 0.931 . S
H1209 C1197 0.930 . S
H1210 C1198 0.956 . S
H1211 C1198 0.961 1_545 S
H1212 C1198 0.961 . S
H1213 C1199 0.958 . S
H1214 C1199 0.961 . S
H1215 C1199 0.960 1_545 S
C1216 C1217 1.391 . S
C1216 C1218 1.394 . S
C1216 H1232 0.931 . S
C1217 C1216 1.391 . S
C1217 C1221 1.376 . S
C1218 C1216 1.394 . S
C1218 C1219 1.369 . S
C1218 C1222 1.531 . S
C1219 C1218 1.369 . S
C1219 C1220 1.410 . S
C1219 C1227 1.503 1_455 S
C1220 C1219 1.410 . S
C1220 C1221 1.392 . S
C1220 C1223 1.511 1_455 S
C1221 C1217 1.376 . S
C1221 C1220 1.392 . S
C1221 H1233 0.929 . S
C1222 C1218 1.531 . S
C1222 H1234 0.960 . S
C1222 H1235 0.962 . S
C1222 H1236 0.960 . S
C1223 C1220 1.511 1_655 S
C1223 H1237 0.961 . S
C1223 H1238 0.961 . S
C1223 H1239 0.961 . S
C1224 C1225 1.370 . S
C1224 C1226 1.363 . S
C1224 H1240 0.931 . S
C1225 C1224 1.370 . S
C1225 C1229 1.408 . S
C1226 C1224 1.363 . S
C1226 C1227 1.370 . S
C1226 C1230 1.524 . S
C1227 C1219 1.503 1_655 S
C1227 C1226 1.370 . S
C1227 C1228 1.403 . S
C1228 C1227 1.403 . S
C1228 C1229 1.404 . S
C1228 C1231 1.539 . S
C1229 C1225 1.408 . S
C1229 C1228 1.404 . S
C1229 H1241 0.930 . S
C1230 C1226 1.524 . S
C1230 H1242 0.956 1_655 S
C1230 H1243 0.956 1_655 S
C1230 H1244 0.961 . S
C1231 C1228 1.539 . S
C1231 H1245 0.958 . S
C1231 H1246 0.961 . S
C1231 H1247 0.960 . S
H1232 C1216 0.931 . S
H1233 C1221 0.929 . S
H1234 C1222 0.960 . S
H1235 C1222 0.962 . S
H1236 C1222 0.960 . S
H1237 C1223 0.961 . S
H1238 C1223 0.961 . S
H1239 C1223 0.961 . S
H1240 C1224 0.931 . S
H1241 C1229 0.930 . S
H1242 C1230 0.956 1_455 S
H1243 C1230 0.956 1_455 S
H1244 C1230 0.961 . S
H1245 C1231 0.958 . S
H1246 C1231 0.961 . S
H1247 C1231 0.960 . S
C1248 C1249 1.391 . S
C1248 C1250 1.394 . S
C1248 H1264 0.931 . S
C1249 C1248 1.391 . S
C1249 C1253 1.376 . S
C1250 C1248 1.394 . S
C1250 C1251 1.369 . S
C1250 C1254 1.531 . S
C1251 C1250 1.369 . S
C1251 C1252 1.410 . S
C1251 C1259 1.503 . S
C1252 C1251 1.410 . S
C1252 C1253 1.392 . S
C1252 C1255 1.511 . S
C1253 C1249 1.376 . S
C1253 C1252 1.392 . S
C1253 H1265 0.929 . S
C1254 C1250 1.531 . S
C1254 H1266 0.960 . S
C1254 H1267 0.962 . S
C1254 H1268 0.960 . S
C1255 C1252 1.511 . S
C1255 H1269 0.961 . S
C1255 H1270 0.961 . S
C1255 H1271 0.961 . S
C1256 C1257 1.370 . S
C1256 C1258 1.363 . S
C1256 H1272 0.931 . S
C1257 C1256 1.370 . S
C1257 C1261 1.408 . S
C1258 C1256 1.363 . S
C1258 C1259 1.370 . S
C1258 C1262 1.524 . S
C1259 C1251 1.503 . S
C1259 C1258 1.370 . S
C1259 C1260 1.403 . S
C1260 C1259 1.403 . S
C1260 C1261 1.404 . S
C1260 C1263 1.539 . S
C1261 C1257 1.408 . S
C1261 C1260 1.404 . S
C1261 H1273 0.930 . S
C1262 C1258 1.524 . S
C1262 H1274 0.956 . S
C1262 H1275 0.961 . S
C1262 H1276 0.961 . S
C1263 C1260 1.539 . S
C1263 H1277 0.958 . S
C1263 H1278 0.961 . S
C1263 H1279 0.960 . S
H1264 C1248 0.931 . S
H1265 C1253 0.929 . S
H1266 C1254 0.960 . S
H1267 C1254 0.962 . S
H1268 C1254 0.960 . S
H1269 C1255 0.961 . S
H1270 C1255 0.961 . S
H1271 C1255 0.961 . S
H1272 C1256 0.931 . S
H1273 C1261 0.930 . S
H1274 C1262 0.956 . S
H1275 C1262 0.961 . S
H1276 C1262 0.961 . S
H1277 C1263 0.958 . S
H1278 C1263 0.961 . S
H1279 C1263 0.960 . S
C1280 C1281 1.391 . S
C1280 C1282 1.394 . S
C1280 H1296 0.931 . S
C1281 C1280 1.391 . S
C1281 C1285 1.376 . S
C1282 C1280 1.394 . S
C1282 C1283 1.369 . S
C1282 C1286 1.531 1_565 S
C1283 C1282 1.369 . S
C1283 C1284 1.410 . S
C1283 C1291 1.503 1_565 S
C1284 C1283 1.410 . S
C1284 C1285 1.392 . S
C1284 C1287 1.511 . S
C1285 C1281 1.376 . S
C1285 C1284 1.392 . S
C1285 H1297 0.929 . S
C1286 C1282 1.531 1_545 S
C1286 H1298 0.960 . S
C1286 H1299 0.962 1_545 S
C1286 H1300 0.960 . S
C1287 C1284 1.511 . S
C1287 H1301 0.961 . S
C1287 H1302 0.961 . S
C1287 H1303 0.961 1_565 S
C1288 C1289 1.370 . S
C1288 C1290 1.363 1_545 S
C1288 H1304 0.931 1_545 S
C1289 C1288 1.370 . S
C1289 C1293 1.408 . S
C1290 C1288 1.363 1_565 S
C1290 C1291 1.370 1_565 S
C1290 C1294 1.524 . S
C1291 C1283 1.503 1_545 S
C1291 C1290 1.370 1_545 S
C1291 C1292 1.403 . S
C1292 C1291 1.403 . S
C1292 C1293 1.404 . S
C1292 C1295 1.539 . S
C1293 C1289 1.408 . S
C1293 C1292 1.404 . S
C1293 H1305 0.930 . S
C1294 C1290 1.524 . S
C1294 H1306 0.956 . S
C1294 H1307 0.961 . S
C1294 H1308 0.961 . S
C1295 C1292 1.539 . S
C1295 H1309 0.958 . S
C1295 H1310 0.961 . S
C1295 H1311 0.960 . S
H1296 C1280 0.931 . S
H1297 C1285 0.929 . S
H1298 C1286 0.960 . S
H1299 C1286 0.962 1_565 S
H1300 C1286 0.960 . S
H1301 C1287 0.961 . S
H1302 C1287 0.961 . S
H1303 C1287 0.961 1_545 S
H1304 C1288 0.931 1_565 S
H1305 C1293 0.930 . S
H1306 C1294 0.956 . S
H1307 C1294 0.961 . S
H1308 C1294 0.961 . S
H1309 C1295 0.958 . S
H1310 C1295 0.961 . S
H1311 C1295 0.960 . S
C1312 C1313 1.391 . S
C1312 C1314 1.394 . S
C1312 H1328 0.931 . S
C1313 C1312 1.391 . S
C1313 C1317 1.376 . S
C1314 C1312 1.394 . S
C1314 C1315 1.369 . S
C1314 C1318 1.531 1_455 S
C1315 C1314 1.369 . S
C1315 C1316 1.410 . S
C1315 C1323 1.503 1_445 S
C1316 C1315 1.410 . S
C1316 C1317 1.392 . S
C1316 C1319 1.511 1_545 S
C1317 C1313 1.376 . S
C1317 C1316 1.392 . S
C1317 H1329 0.929 . S
C1318 C1314 1.531 1_655 S
C1318 H1330 0.960 . S
C1318 H1331 0.962 . S
C1318 H1332 0.960 . S
C1319 C1316 1.511 1_565 S
C1319 H1333 0.961 1_565 S
C1319 H1334 0.961 . S
C1319 H1335 0.961 . S
C1320 C1321 1.370 . S
C1320 C1322 1.363 . S
C1320 H1336 0.931 . S
C1321 C1320 1.370 . S
C1321 C1325 1.408 . S
C1322 C1320 1.363 . S
C1322 C1323 1.370 . S
C1322 C1326 1.524 1_565 S
C1323 C1315 1.503 1_665 S
C1323 C1322 1.370 . S
C1323 C1324 1.403 1_655 S
C1324 C1323 1.403 1_455 S
C1324 C1325 1.404 1_455 S
C1324 C1327 1.539 . S
C1325 C1321 1.408 . S
C1325 C1324 1.404 1_655 S
C1325 H1337 0.930 . S
C1326 C1322 1.524 1_545 S
C1326 H1338 0.956 . S
C1326 H1339 0.961 . S
C1326 H1340 0.961 . S
C1327 C1324 1.539 . S
C1327 H1341 0.958 . S
C1327 H1342 0.961 . S
C1327 H1343 0.960 . S
H1328 C1312 0.931 . S
H1329 C1317 0.929 . S
H1330 C1318 0.960 . S
H1331 C1318 0.962 . S
H1332 C1318 0.960 . S
H1333 C1319 0.961 1_545 S
H1334 C1319 0.961 . S
H1335 C1319 0.961 . S
H1336 C1320 0.931 . S
H1337 C1325 0.930 . S
H1338 C1326 0.956 . S
H1339 C1326 0.961 . S
H1340 C1326 0.961 . S
H1341 C1327 0.958 . S
H1342 C1327 0.961 . S
H1343 C1327 0.960 . S
C1344 C1345 1.391 . S
C1344 C1346 1.394 . S
C1344 H1360 0.931 . S
C1345 C1344 1.391 . S
C1345 C1349 1.376 . S
C1346 C1344 1.394 . S
C1346 C1347 1.369 . S
C1346 C1350 1.531 . S
C1347 C1346 1.369 . S
C1347 C1348 1.410 1_565 S
C1347 C1355 1.503 1_565 S
C1348 C1347 1.410 1_545 S
C1348 C1349 1.392 1_545 S
C1348 C1351 1.511 . S
C1349 C1345 1.376 . S
C1349 C1348 1.392 1_565 S
C1349 H1361 0.929 1_565 S
C1350 C1346 1.531 . S
C1350 H1362 0.960 . S
C1350 H1363 0.962 . S
C1350 H1364 0.960 . S
C1351 C1348 1.511 . S
C1351 H1365 0.961 . S
C1351 H1366 0.961 . S
C1351 H1367 0.961 . S
C1352 C1353 1.370 . S
C1352 C1354 1.363 . S
C1352 H1368 0.931 . S
C1353 C1352 1.370 . S
C1353 C1357 1.408 . S
C1354 C1352 1.363 . S
C1354 C1355 1.370 . S
C1354 C1358 1.524 . S
C1355 C1347 1.503 1_545 S
C1355 C1354 1.370 . S
C1355 C1356 1.403 . S
C1356 C1355 1.403 . S
C1356 C1357 1.404 . S
C1356 C1359 1.539 1_545 S
C1357 C1353 1.408 . S
C1357 C1356 1.404 . S
C1357 H1369 0.930 . S
C1358 C1354 1.524 . S
C1358 H1370 0.956 1_545 S
C1358 H1371 0.961 . S
C1358 H1372 0.961 . S
C1359 C1356 1.539 1_565 S
C1359 H1373 0.958 . S
C1359 H1374 0.961 1_565 S
C1359 H1375 0.960 . S
H1360 C1344 0.931 . S
H1361 C1349 0.929 1_545 S
H1362 C1350 0.960 . S
H1363 C1350 0.962 . S
H1364 C1350 0.960 . S
H1365 C1351 0.961 . S
H1366 C1351 0.961 . S
H1367 C1351 0.961 . S
H1368 C1352 0.931 . S
H1369 C1357 0.930 . S
H1370 C1358 0.956 1_565 S
H1371 C1358 0.961 . S
H1372 C1358 0.961 . S
H1373 C1359 0.958 . S
H1374 C1359 0.961 1_545 S
H1375 C1359 0.960 . S
C1376 C1377 1.391 . S
C1376 C1378 1.394 . S
C1376 H1392 0.931 . S
C1377 C1376 1.391 . S
C1377 C1381 1.376 . S
C1378 C1376 1.394 . S
C1378 C1379 1.369 . S
C1378 C1382 1.531 1_655 S
C1379 C1378 1.369 . S
C1379 C1380 1.410 . S
C1379 C1387 1.503 1_665 S
C1380 C1379 1.410 . S
C1380 C1381 1.392 . S
C1380 C1383 1.516 . S
C1381 C1377 1.376 . S
C1381 C1380 1.392 . S
C1381 H1393 0.929 . S
C1382 C1378 1.531 1_455 S
C1382 H1394 0.960 . S
C1382 H1395 0.962 1_455 S
C1382 H1396 0.960 . S
C1383 C1380 1.516 . S
C1383 H1397 0.973 . S
C1383 H1398 0.961 1_565 S
C1383 H1399 0.944 1_655 S
C1384 C1385 1.370 . S
C1384 C1386 1.363 1_455 S
C1384 H1400 0.931 1_455 S
C1385 C1384 1.370 . S
C1385 C1389 1.408 . S
C1386 C1384 1.363 1_655 S
C1386 C1387 1.370 1_655 S
C1386 C1390 1.524 . S
C1387 C1379 1.503 1_445 S
C1387 C1386 1.370 1_455 S
C1387 C1388 1.403 . S
C1388 C1387 1.403 . S
C1388 C1389 1.404 . S
C1388 C1391 1.539 1_545 S
C1389 C1385 1.408 . S
C1389 C1388 1.404 . S
C1389 H1401 0.930 . S
C1390 C1386 1.524 . S
C1390 H1402 0.956 . S
C1390 H1403 0.961 . S
C1390 H1404 0.961 . S
C1391 C1388 1.539 1_565 S
C1391 H1405 0.958 . S
C1391 H1406 0.961 . S
C1391 H1407 0.960 . S
H1392 C1376 0.931 . S
H1393 C1381 0.929 . S
H1394 C1382 0.960 . S
H1395 C1382 0.962 1_655 S
H1396 C1382 0.960 . S
H1397 C1383 0.973 . S
H1398 C1383 0.961 1_545 S
H1399 C1383 0.944 1_455 S
H1400 C1384 0.931 1_655 S
H1401 C1389 0.930 . S
H1402 C1390 0.956 . S
H1403 C1390 0.961 . S
H1404 C1390 0.961 . S
H1405 C1391 0.958 . S
H1406 C1391 0.961 . S
H1407 C1391 0.960 . S
C1408 C1409 1.391 . S
C1408 C1410 1.394 . S
C1408 H1424 0.931 . S
C1409 C1408 1.391 . S
C1409 C1413 1.376 . S
C1410 C1408 1.394 . S
C1410 C1411 1.369 . S
C1410 C1414 1.531 1_455 S
C1411 C1410 1.369 . S
C1411 C1412 1.410 . S
C1411 C1419 1.503 1_455 S
C1412 C1411 1.410 . S
C1412 C1413 1.392 . S
C1412 C1415 1.511 . S
C1413 C1409 1.376 . S
C1413 C1412 1.392 . S
C1413 H1425 0.929 . S
C1414 C1410 1.531 1_655 S
C1414 H1426 0.960 . S
C1414 H1427 0.962 . S
C1414 H1428 0.960 . S
C1415 C1412 1.511 . S
C1415 H1429 0.961 . S
C1415 H1430 0.961 . S
C1415 H1431 0.961 . S
C1416 C1417 1.370 . S
C1416 C1418 1.363 . S
C1416 H1432 0.931 . S
C1417 C1416 1.370 . S
C1417 C1421 1.408 . S
C1418 C1416 1.363 . S
C1418 C1419 1.370 . S
C1418 C1422 1.524 . S
C1419 C1411 1.503 1_655 S
C1419 C1418 1.370 . S
C1419 C1420 1.403 . S
C1420 C1419 1.403 . S
C1420 C1421 1.404 . S
C1420 C1423 1.539 . S
C1421 C1417 1.408 . S
C1421 C1420 1.404 . S
C1421 H1433 0.930 . S
C1422 C1418 1.524 . S
C1422 H1434 0.956 . S
C1422 H1435 0.961 1_655 S
C1422 H1436 0.961 . S
C1423 C1420 1.539 . S
C1423 H1437 0.958 . S
C1423 H1438 0.961 . S
C1423 H1439 0.960 1_655 S
H1424 C1408 0.931 . S
H1425 C1413 0.929 . S
H1426 C1414 0.960 . S
H1427 C1414 0.962 . S
H1428 C1414 0.960 . S
H1429 C1415 0.961 . S
H1430 C1415 0.961 . S
H1431 C1415 0.961 . S
H1432 C1416 0.931 . S
H1433 C1421 0.930 . S
H1434 C1422 0.956 . S
H1435 C1422 0.961 1_455 S
H1436 C1422 0.961 . S
H1437 C1423 0.958 . S
H1438 C1423 0.961 . S
H1439 C1423 0.960 1_455 S
C1440 C1441 1.391 . S
C1440 C1442 1.394 . S
C1440 H1456 0.931 . S
C1441 C1440 1.391 . S
C1441 C1445 1.376 . S
C1442 C1440 1.394 . S
C1442 C1443 1.369 . S
C1442 C1446 1.531 . S
C1443 C1442 1.369 . S
C1443 C1444 1.410 . S
C1443 C1451 1.503 . S
C1444 C1443 1.410 . S
C1444 C1445 1.392 . S
C1444 C1447 1.511 . S
C1445 C1441 1.376 . S
C1445 C1444 1.392 . S
C1445 H1457 0.929 . S
C1446 C1442 1.531 . S
C1446 H1458 0.960 . S
C1446 H1459 0.962 . S
C1446 H1460 0.960 . S
C1447 C1444 1.511 . S
C1447 H1461 0.961 . S
C1447 H1462 0.961 . S
C1447 H1463 0.961 . S
C1448 C1449 1.370 . S
C1448 C1450 1.363 . S
C1448 H1464 0.931 . S
C1449 C1448 1.370 . S
C1449 C1453 1.408 . S
C1450 C1448 1.363 . S
C1450 C1451 1.370 . S
C1450 C1454 1.524 . S
C1451 C1443 1.503 . S
C1451 C1450 1.370 . S
C1451 C1452 1.403 . S
C1452 C1451 1.403 . S
C1452 C1453 1.404 . S
C1452 C1455 1.539 . S
C1453 C1449 1.408 . S
C1453 C1452 1.404 . S
C1453 H1465 0.930 . S
C1454 C1450 1.524 . S
C1454 H1466 0.956 . S
C1454 H1467 0.961 . S
C1454 H1468 0.961 . S
C1455 C1452 1.539 . S
C1455 H1469 0.958 . S
C1455 H1470 0.961 . S
C1455 H1471 0.960 . S
H1456 C1440 0.931 . S
H1457 C1445 0.929 . S
H1458 C1446 0.960 . S
H1459 C1446 0.962 . S
H1460 C1446 0.960 . S
H1461 C1447 0.961 . S
H1462 C1447 0.961 . S
H1463 C1447 0.961 . S
H1464 C1448 0.931 . S
H1465 C1453 0.930 . S
H1466 C1454 0.956 . S
H1467 C1454 0.961 . S
H1468 C1454 0.961 . S
H1469 C1455 0.958 . S
H1470 C1455 0.961 . S
H1471 C1455 0.960 . S
C1472 C1473 1.391 . S
C1472 C1474 1.394 . S
C1472 H1488 0.931 . S
C1473 C1472 1.391 . S
C1473 C1477 1.376 . S
C1474 C1472 1.394 . S
C1474 C1475 1.369 . S
C1474 C1478 1.531 . S
C1475 C1474 1.369 . S
C1475 C1476 1.410 . S
C1475 C1483 1.503 . S
C1476 C1475 1.410 . S
C1476 C1477 1.392 . S
C1476 C1479 1.511 . S
C1477 C1473 1.376 . S
C1477 C1476 1.392 . S
C1477 H1489 0.929 . S
C1478 C1474 1.531 . S
C1478 H1490 0.960 . S
C1478 H1491 0.962 . S
C1478 H1492 0.960 . S
C1479 C1476 1.511 . S
C1479 H1493 0.961 . S
C1479 H1494 0.961 . S
C1479 H1495 0.961 . S
C1480 C1481 1.370 . S
C1480 C1482 1.363 . S
C1480 H1496 0.931 . S
C1481 C1480 1.370 . S
C1481 C1485 1.408 . S
C1482 C1480 1.363 . S
C1482 C1483 1.370 . S
C1482 C1486 1.524 . S
C1483 C1475 1.503 . S
C1483 C1482 1.370 . S
C1483 C1484 1.403 . S
C1484 C1483 1.403 . S
C1484 C1485 1.404 . S
C1484 C1487 1.539 . S
C1485 C1481 1.408 . S
C1485 C1484 1.404 . S
C1485 H1497 0.930 . S
C1486 C1482 1.524 . S
C1486 H1498 0.956 . S
C1486 H1499 0.961 . S
C1486 H1500 0.961 . S
C1487 C1484 1.539 . S
C1487 H1501 0.958 . S
C1487 H1502 0.961 . S
C1487 H1503 0.960 . S
H1488 C1472 0.931 . S
H1489 C1477 0.929 . S
H1490 C1478 0.960 . S
H1491 C1478 0.962 . S
H1492 C1478 0.960 . S
H1493 C1479 0.961 . S
H1494 C1479 0.961 . S
H1495 C1479 0.961 . S
H1496 C1480 0.931 . S
H1497 C1485 0.930 . S
H1498 C1486 0.956 . S
H1499 C1486 0.961 . S
H1500 C1486 0.961 . S
H1501 C1487 0.958 . S
H1502 C1487 0.961 . S
H1503 C1487 0.960 . S
C1504 C1505 1.391 . S
C1504 C1506 1.394 . S
C1504 H1520 0.931 . S
C1505 C1504 1.391 . S
C1505 C1509 1.376 . S
C1506 C1504 1.394 . S
C1506 C1507 1.369 . S
C1506 C1510 1.531 1_545 S
C1507 C1506 1.369 . S
C1507 C1508 1.410 . S
C1507 C1515 1.503 1_545 S
C1508 C1507 1.410 . S
C1508 C1509 1.392 . S
C1508 C1511 1.511 . S
C1509 C1505 1.376 . S
C1509 C1508 1.392 . S
C1509 H1521 0.929 . S
C1510 C1506 1.531 1_565 S
C1510 H1522 0.960 . S
C1510 H1523 0.962 . S
C1510 H1524 0.960 . S
C1511 C1508 1.511 . S
C1511 H1525 0.961 . S
C1511 H1526 0.961 . S
C1511 H1527 0.961 . S
C1512 C1513 1.370 . S
C1512 C1514 1.363 . S
C1512 H1528 0.931 . S
C1513 C1512 1.370 . S
C1513 C1517 1.408 . S
C1514 C1512 1.363 . S
C1514 C1515 1.370 . S
C1514 C1518 1.524 . S
C1515 C1507 1.503 1_565 S
C1515 C1514 1.370 . S
C1515 C1516 1.403 . S
C1516 C1515 1.403 . S
C1516 C1517 1.404 . S
C1516 C1519 1.539 . S
C1517 C1513 1.408 . S
C1517 C1516 1.404 . S
C1517 H1529 0.930 . S
C1518 C1514 1.524 . S
C1518 H1530 0.956 . S
C1518 H1531 0.961 1_565 S
C1518 H1532 0.961 . S
C1519 C1516 1.539 . S
C1519 H1533 0.958 . S
C1519 H1534 0.961 . S
C1519 H1535 0.960 1_565 S
H1520 C1504 0.931 . S
H1521 C1509 0.929 . S
H1522 C1510 0.960 . S
H1523 C1510 0.962 . S
H1524 C1510 0.960 . S
H1525 C1511 0.961 . S
H1526 C1511 0.961 . S
H1527 C1511 0.961 . S
H1528 C1512 0.931 . S
H1529 C1517 0.930 . S
H1530 C1518 0.956 . S
H1531 C1518 0.961 1_545 S
H1532 C1518 0.961 . S
H1533 C1519 0.958 . S
H1534 C1519 0.961 . S
H1535 C1519 0.960 1_545 S
C1536 C1537 1.391 . S
C1536 C1538 1.394 1_565 S
C1536 H1552 0.931 . S
C1537 C1536 1.391 . S
C1537 C1541 1.376 . S
C1538 C1536 1.394 1_545 S
C1538 C1539 1.369 1_545 S
C1538 C1542 1.531 . S
C1539 C1538 1.369 1_565 S
C1539 C1540 1.410 . S
C1539 C1547 1.503 1_665 S
C1540 C1539 1.410 . S
C1540 C1541 1.392 . S
C1540 C1543 1.511 . S
C1541 C1537 1.376 . S
C1541 C1540 1.392 . S
C1541 H1553 0.929 . S
C1542 C1538 1.531 . S
C1542 H1554 0.960 . S
C1542 H1555 0.962 . S
C1542 H1556 0.960 . S
C1543 C1540 1.511 . S
C1543 H1557 0.961 . S
C1543 H1558 0.961 1_655 S
C1543 H1559 0.961 . S
C1544 C1545 1.370 . S
C1544 C1546 1.363 1_545 S
C1544 H1560 0.931 1_545 S
C1545 C1544 1.370 . S
C1545 C1549 1.408 . S
C1546 C1544 1.363 1_565 S
C1546 C1547 1.370 1_565 S
C1546 C1550 1.524 . S
C1547 C1539 1.503 1_445 S
C1547 C1546 1.370 1_545 S
C1547 C1548 1.403 . S
C1548 C1547 1.403 . S
C1548 C1549 1.404 . S
C1548 C1551 1.539 1_455 S
C1549 C1545 1.408 . S
C1549 C1548 1.404 . S
C1549 H1561 0.930 . S
C1550 C1546 1.524 . S
C1550 H1562 0.956 . S
C1550 H1563 0.961 . S
C1550 H1564 0.961 . S
C1551 C1548 1.539 1_655 S
C1551 H1565 0.958 . S
C1551 H1566 0.961 1_655 S
C1551 H1567 0.960 . S
H1552 C1536 0.931 . S
H1553 C1541 0.929 . S
H1554 C1542 0.960 . S
H1555 C1542 0.962 . S
H1556 C1542 0.960 . S
H1557 C1543 0.961 . S
H1558 C1543 0.961 1_455 S
H1559 C1543 0.961 . S
H1560 C1544 0.931 1_565 S
H1561 C1549 0.930 . S
H1562 C1550 0.956 . S
H1563 C1550 0.961 . S
H1564 C1550 0.961 . S
H1565 C1551 0.958 . S
H1566 C1551 0.961 1_455 S
H1567 C1551 0.960 . S
C1568 C1569 1.391 . S
C1568 C1570 1.394 . S
C1568 H1584 0.931 . S
C1569 C1568 1.391 . S
C1569 C1573 1.376 . S
C1570 C1568 1.394 . S
C1570 C1571 1.369 . S
C1570 C1574 1.531 . S
C1571 C1570 1.369 . S
C1571 C1572 1.410 1_655 S
C1571 C1579 1.503 1_655 S
C1572 C1571 1.410 1_455 S
C1572 C1573 1.392 1_455 S
C1572 C1575 1.511 . S
C1573 C1569 1.376 . S
C1573 C1572 1.392 1_655 S
C1573 H1585 0.929 . S
C1574 C1570 1.531 . S
C1574 H1586 0.960 . S
C1574 H1587 0.962 . S
C1574 H1588 0.960 . S
C1575 C1572 1.511 . S
C1575 H1589 0.961 . S
C1575 H1590 0.961 . S
C1575 H1591 0.961 . S
C1576 C1577 1.370 . S
C1576 C1578 1.363 1_455 S
C1576 H1592 0.931 1_455 S
C1577 C1576 1.370 . S
C1577 C1581 1.408 . S
C1578 C1576 1.363 1_655 S
C1578 C1579 1.370 1_655 S
C1578 C1582 1.524 . S
C1579 C1571 1.503 1_455 S
C1579 C1578 1.370 1_455 S
C1579 C1580 1.403 . S
C1580 C1579 1.403 . S
C1580 C1581 1.404 . S
C1580 C1583 1.539 . S
C1581 C1577 1.408 . S
C1581 C1580 1.404 . S
C1581 H1593 0.930 . S
C1582 C1578 1.524 . S
C1582 H1594 0.956 . S
C1582 H1595 0.961 . S
C1582 H1596 0.961 . S
C1583 C1580 1.539 . S
C1583 H1597 0.958 . S
C1583 H1598 0.961 . S
C1583 H1599 0.960 . S
H1584 C1568 0.931 . S
H1585 C1573 0.929 . S
H1586 C1574 0.960 . S
H1587 C1574 0.962 . S
H1588 C1574 0.960 . S
H1589 C1575 0.961 . S
H1590 C1575 0.961 . S
H1591 C1575 0.961 . S
H1592 C1576 0.931 1_655 S
H1593 C1581 0.930 . S
H1594 C1582 0.956 . S
H1595 C1582 0.961 . S
H1596 C1582 0.961 . S
H1597 C1583 0.958 . S
H1598 C1583 0.961 . S
H1599 C1583 0.960 . S
C577 C158 1.278 . S
C585 C14 1.280 . S
C609 C50 1.241 . S
C617 C194 1.263 . S
C641 C230 1.255 . S
C649 C86 1.261 . S
C673 C266 1.243 . S
C681 C122 1.265 . S
C705 C446 1.290 . S
C713 C302 1.282 . S
C737 C338 1.240 . S
C745 C482 1.262 . S
C769 C518 1.276 . S
C777 C374 1.280 . S
C801 C410 1.295 . S
C809 C554 1.279 . S
C833 C2 1.344 . S
C841 C542 1.330 . S
C865 C38 1.309 . S
C873 C434 1.326 . S
C897 C74 1.335 . S
C905 C470 1.321 . S
C929 C506 1.306 . S
C937 C110 1.325 . S
C961 C146 1.344 . S
C969 C326 1.329 . S
C993 C182 1.329 . S
C1001 C362 1.318 . S
C1025 C398 1.307 . S
C1033 C218 1.326 . S
C1057 C290 1.344 . S
C1065 C254 1.330 . S
C1089 C4 1.622 . S
C1097 C364 1.625 . S
C1121 C400 1.615 . S
C1129 C40 1.623 . S
C1153 C76 1.623 . S
C1161 C292 1.622 . S
C1185 C328 1.623 . S
C1193 C112 1.624 . S
C1217 C148 1.615 . S
C1225 C508 1.623 . S
C1249 C184 1.624 . S
C1257 C544 1.624 . S
C1281 C436 1.622 . S
C1289 C220 1.622 . S
C1313 C472 1.615 . S
C1321 C256 1.624 . S
C1345 C363 1.386 . S
C1353 C3 1.391 . S
C1377 C39 1.387 . S
C1385 C399 1.392 . S
C1409 C75 1.386 . S
C1417 C291 1.391 . S
C1441 C327 1.387 . S
C1449 C111 1.392 . S
C1473 C507 1.388 . S
C1481 C147 1.391 . S
C1505 C543 1.386 . S
C1513 C183 1.391 . S
C1537 C435 1.387 . S
C1545 C219 1.392 . S
C1569 C255 1.386 . S
C1577 C471 1.391 . S
