# Generated by pormake.
# Topology xfw, (5)-cn, num edge types: 1
# Building blocks:
#     Node 0, Type 0, BuildingBlock: XOMCOT_clean_sbu_1, # of connection points: 5
#     Node 1, Type 0, BuildingBlock: XOMCOT_clean_sbu_1, # of connection points: 5
#     Node 2, Type 0, BuildingBlock: XOMCOT_clean_sbu_1, # of connection points: 5
#     Node 3, Type 0, BuildingBlock: XOMCOT_clean_sbu_1, # of connection points: 5
#     Node 4, Type 0, BuildingBlock: XOMCOT_clean_sbu_1, # of connection points: 5
#     Node 5, Type 0, BuildingBlock: XOMCOT_clean_sbu_1, # of connection points: 5
#     Node 6, Type 0, BuildingBlock: XOMCOT_clean_sbu_1, # of connection points: 5
#     Node 7, Type 0, BuildingBlock: XOMCOT_clean_sbu_1, # of connection points: 5
#     Edge 8, Type (0, 0), BuildingBlock: XUDNAN_clean_linker_2, # of connection points: 2
#     Edge 9, Type (0, 0), BuildingBlock: XUDNAN_clean_linker_2, # of connection points: 2
#     Edge 10, Type (0, 0), BuildingBlock: XUDNAN_clean_linker_2, # of connection points: 2
#     Edge 11, Type (0, 0), BuildingBlock: XUDNAN_clean_linker_2, # of connection points: 2
#     Edge 12, Type (0, 0), BuildingBlock: XUDNAN_clean_linker_2, # of connection points: 2
#     Edge 13, Type (0, 0), BuildingBlock: XUDNAN_clean_linker_2, # of connection points: 2
#     Edge 14, Type (0, 0), BuildingBlock: XUDNAN_clean_linker_2, # of connection points: 2
#     Edge 15, Type (0, 0), BuildingBlock: XUDNAN_clean_linker_2, # of connection points: 2
#     Edge 16, Type (0, 0), BuildingBlock: XUDNAN_clean_linker_2, # of connection points: 2
#     Edge 17, Type (0, 0), BuildingBlock: XUDNAN_clean_linker_2, # of connection points: 2
#     Edge 18, Type (0, 0), BuildingBlock: XUDNAN_clean_linker_2, # of connection points: 2
#     Edge 19, Type (0, 0), BuildingBlock: XUDNAN_clean_linker_2, # of connection points: 2
#     Edge 20, Type (0, 0), BuildingBlock: XUDNAN_clean_linker_2, # of connection points: 2
#     Edge 21, Type (0, 0), BuildingBlock: XUDNAN_clean_linker_2, # of connection points: 2
#     Edge 22, Type (0, 0), BuildingBlock: XUDNAN_clean_linker_2, # of connection points: 2
#     Edge 23, Type (0, 0), BuildingBlock: XUDNAN_clean_linker_2, # of connection points: 2
#     Edge 24, Type (0, 0), BuildingBlock: XUDNAN_clean_linker_2, # of connection points: 2
#     Edge 25, Type (0, 0), BuildingBlock: XUDNAN_clean_linker_2, # of connection points: 2
#     Edge 26, Type (0, 0), BuildingBlock: XUDNAN_clean_linker_2, # of connection points: 2
#     Edge 27, Type (0, 0), BuildingBlock: XUDNAN_clean_linker_2, # of connection points: 2
# Relax obj value: 0.597
# Max RMSD: 0.301
# Mean RMSD: 0.301
data_MOF--net-xfw--node1-XOMCOT_clean_sbu_1--edge1-XUDNAN_clean_linker_2
_symmetry_space_group_name_H-M    P1
_symmetry_Int_Tables_number       1
_symmetry_cell_setting            triclinic
loop_
_symmetry_equiv_pos_as_xyz
'x, y, z'
_cell_length_a     26.589674
_cell_length_b     26.569612
_cell_length_c     59.709196
_cell_angle_alpha  90.095334
_cell_angle_beta   89.896056
_cell_angle_gamma 89.934716
loop_
_atom_site_label
_atom_site_type_symbol
_atom_site_fract_x
_atom_site_fract_y
_atom_site_fract_z
_atom_type_partial_charge
C0 C 0.33089 0.03321 0.5932 0.0
C1 C 0.32753 0.99044 0.58027 0.0
N2 N 0.27856 0.97794 0.57841 0.0
N3 N 0.28433 0.04754 0.59944 0.0
C4 C 0.25336 0.01292 0.59042 0.0
H5 H 0.36494 0.05356 0.59718 0.0
Co6 Co 0.26906 0.10584 0.61489 0.0
C7 C 0.16452 0.09275 0.63241 0.0
O8 O 0.1562 0.14088 0.62898 0.0
N9 N 0.25525 0.1653 0.6308 0.0
C10 C 0.24419 0.24413 0.64253 0.0
C11 C 0.25395 0.21393 0.62423 0.0
C12 C 0.24701 0.1671 0.65308 0.0
N13 N 0.23958 0.21436 0.66064 0.0
O14 O 0.30962 0.08145 0.63926 0.0
H15 H 0.26 0.22711 0.60735 0.0
H16 H 0.24681 0.13398 0.66359 0.0
O17 O 0.20772 0.07383 0.6276 0.0
C18 C 0.35121 0.1047 0.64187 0.0
O19 O 0.35882 0.14648 0.63062 0.0
N20 N 0.23487 0.12956 0.58939 0.0
C21 C 0.20413 0.15906 0.54677 0.0
C22 C 0.17195 0.13139 0.5606 0.0
C23 C 0.18845 0.11589 0.58163 0.0
C24 C 0.26674 0.15612 0.57596 0.0
C25 C 0.25213 0.17143 0.55459 0.0
H26 H 0.16457 0.09048 0.59067 0.0
H27 H 0.30438 0.16431 0.58176 0.0
H28 H 0.21286 0.01493 0.59159 0.0
H29 H 0.35864 0.97108 0.57232 0.0
H30 H 0.2403 0.28467 0.64244 0.0
H31 H 0.13523 0.11966 0.55475 0.0
H32 H 0.27822 0.19231 0.54422 0.0
C33 C 0.05067 0.68769 0.39321 0.0
C34 C 0.00911 0.68126 0.40653 0.0
N35 N 0.98841 0.72677 0.41037 0.0
N36 N 0.05617 0.73694 0.38853 0.0
C37 C 0.01728 0.75985 0.39897 0.0
H38 H 0.07673 0.65858 0.38808 0.0
Co39 Co 0.11215 0.76049 0.37347 0.0
C40 C 0.09417 0.86687 0.36159 0.0
O41 O 0.14108 0.87544 0.36734 0.0
N42 N 0.16996 0.78173 0.35776 0.0
C43 C 0.24765 0.79681 0.34549 0.0
C44 C 0.21877 0.78515 0.36392 0.0
C45 C 0.17041 0.79161 0.33558 0.0
N46 N 0.21706 0.80037 0.32764 0.0
O47 O 0.0893 0.72398 0.34758 0.0
H48 H 0.23346 0.77796 0.38041 0.0
H49 H 0.13692 0.79145 0.32532 0.0
O50 O 0.07604 0.8222 0.36346 0.0
C51 C 0.11375 0.6842 0.34249 0.0
O52 O 0.15746 0.67623 0.35209 0.0
N53 N 0.1339 0.79088 0.40034 0.0
C54 C 0.1589 0.81482 0.44437 0.0
C55 C 0.12319 0.84327 0.43283 0.0
C56 C 0.11091 0.83053 0.41088 0.0
C57 C 0.16754 0.76186 0.41175 0.0
C58 C 0.18176 0.774 0.43361 0.0
H59 H 0.08073 0.85108 0.40316 0.0
H60 H 0.18235 0.7281 0.40401 0.0
H61 H 0.01118 0.80006 0.39892 0.0
H62 H 0.99717 0.6462 0.41405 0.0
H63 H 0.28823 0.79987 0.34508 0.0
H64 H 0.10407 0.87446 0.4409 0.0
H65 H 0.20866 0.75051 0.44233 0.0
C66 C 0.69342 0.97092 0.58162 0.0
C67 C 0.70029 0.0095 0.56673 0.0
N68 N 0.74892 0.02332 0.56746 0.0
N69 N 0.7375 0.96035 0.59165 0.0
C70 C 0.7708 0.99322 0.58282 0.0
H71 H 0.65899 0.95007 0.58417 0.0
Co72 Co 0.74414 0.90484 0.60982 0.0
C73 C 0.84628 0.90668 0.62985 0.0
O74 O 0.84648 0.8574 0.62802 0.0
N75 N 0.74789 0.84777 0.62839 0.0
C76 C 0.74791 0.77097 0.64321 0.0
C77 C 0.74537 0.7981 0.62362 0.0
C78 C 0.75101 0.84967 0.65094 0.0
N79 N 0.7516 0.80361 0.6604 0.0
O80 O 0.70426 0.93882 0.63216 0.0
H81 H 0.74183 0.782 0.60711 0.0
H82 H 0.75272 0.8846 0.66023 0.0
O83 O 0.80798 0.93173 0.62287 0.0
C84 C 0.65885 0.92323 0.63236 0.0
O85 O 0.64722 0.88448 0.61968 0.0
N86 N 0.77808 0.87201 0.58628 0.0
C87 C 0.8109 0.82979 0.54585 0.0
C88 C 0.84343 0.85892 0.55906 0.0
C89 C 0.82596 0.88078 0.57888 0.0
C90 C 0.74567 0.84486 0.57342 0.0
C91 C 0.76129 0.82303 0.55331 0.0
H92 H 0.8506 0.90654 0.58738 0.0
H93 H 0.70684 0.84119 0.57862 0.0
H94 H 0.8107 0.99287 0.58636 0.0
H95 H 0.67225 0.02486 0.55553 0.0
H96 H 0.74765 0.73037 0.64458 0.0
H97 H 0.88193 0.86574 0.55399 0.0
H98 H 0.73413 0.80248 0.54338 0.0
C99 C 0.99402 0.3415 0.39753 0.0
C100 C 0.03388 0.33288 0.41158 0.0
N101 N 0.0438 0.28327 0.41135 0.0
N102 N 0.97863 0.29738 0.38876 0.0
C103 C 0.0099 0.26244 0.39742 0.0
H104 H 0.97505 0.3771 0.39519 0.0
Co105 Co 0.91926 0.29146 0.37316 0.0
C106 C 0.91857 0.19003 0.35122 0.0
O107 O 0.86944 0.18932 0.35352 0.0
N108 N 0.85851 0.28844 0.35733 0.0
C109 C 0.77873 0.28636 0.34627 0.0
C110 C 0.81033 0.29091 0.36444 0.0
C111 C 0.85513 0.28434 0.33486 0.0
N112 N 0.80716 0.28191 0.32767 0.0
O113 O 0.94789 0.33219 0.34977 0.0
H114 H 0.79853 0.29494 0.38166 0.0
H115 H 0.88771 0.27979 0.32417 0.0
O116 O 0.94364 0.22812 0.35847 0.0
C117 C 0.93228 0.37763 0.35042 0.0
O118 O 0.896 0.38898 0.36454 0.0
N119 N 0.89198 0.25611 0.39773 0.0
C120 C 0.86293 0.21977 0.43957 0.0
C121 C 0.8849 0.18772 0.42378 0.0
C122 C 0.90034 0.2068 0.4032 0.0
C123 C 0.87065 0.28784 0.41305 0.0
C124 C 0.85586 0.27049 0.43415 0.0
H125 H 0.92187 0.18206 0.39271 0.0
H126 H 0.86669 0.32735 0.40906 0.0
H127 H 1.00529 0.2223 0.39519 0.0
H128 H 0.05178 0.36022 0.4224 0.0
H129 H 0.73806 0.28557 0.34683 0.0
H130 H 0.89242 0.14865 0.42777 0.0
H131 H 0.83953 0.29642 0.44616 0.0
C132 C 0.70788 0.11823 0.07496 0.0
C133 C 0.69069 0.09424 0.05609 0.0
N134 N 0.7023 0.04507 0.0578 0.0
N135 N 0.73085 0.08442 0.08827 0.0
C136 C 0.72638 0.03995 0.07754 0.0
H137 H 0.70512 0.15805 0.07856 0.0
Co138 Co 0.76151 0.10175 0.11484 0.0
C139 C 0.82574 0.01435 0.12819 0.0
O140 O 0.80908 0.01553 0.14892 0.0
N141 N 0.79138 0.1212 0.14176 0.0
C142 C 0.8467 0.14381 0.16775 0.0
C143 C 0.84093 0.1246 0.14653 0.0
C144 C 0.76794 0.13899 0.1602 0.0
N145 N 0.80065 0.15283 0.1763 0.0
O146 O 0.71011 0.06476 0.1304 0.0
H147 H 0.871 0.11426 0.13518 0.0
H148 H 0.72768 0.14324 0.16162 0.0
O149 O 0.80574 0.04291 0.11351 0.0
C150 C 0.66893 0.08894 0.13265 0.0
O151 O 0.66768 0.13659 0.1268 0.0
N152 N 0.80977 0.13867 0.0987 0.0
C153 C 0.88156 0.1923 0.07468 0.0
C154 C 0.87466 0.14089 0.07089 0.0
C155 C 0.8381 0.115 0.08274 0.0
C156 C 0.8146 0.18924 0.10215 0.0
C157 C 0.85049 0.21706 0.09018 0.0
H158 H 0.83207 0.07593 0.07866 0.0
H159 H 0.79072 0.20796 0.11427 0.0
H160 H 0.74237 1.00502 0.08355 0.0
H161 H 0.67214 0.11167 0.04195 0.0
H162 H 0.88203 0.1504 0.17623 0.0
H163 H 0.89664 0.12099 0.05838 0.0
H164 H 0.85422 0.25711 0.09311 0.0
C165 C 0.06007 0.34623 0.90976 0.0
C166 C 0.04102 0.35025 0.93113 0.0
N167 N 0.03732 0.30365 0.93959 0.0
N168 N 0.06761 0.29714 0.90468 0.0
C169 C 0.0531 0.27225 0.92331 0.0
H170 H 0.0702 0.37773 0.89935 0.0
Co171 Co 0.09946 0.26897 0.87951 0.0
C172 C 0.02809 0.19014 0.8639 0.0
O173 O 0.03009 0.20728 0.84329 0.0
N174 N 0.13211 0.24056 0.8543 0.0
C175 C 0.16405 0.18527 0.83002 0.0
C176 C 0.1445 0.19165 0.85106 0.0
C177 C 0.14539 0.2631 0.83483 0.0
N178 N 0.16431 0.23021 0.81977 0.0
O179 O 0.05721 0.30964 0.86044 0.0
H180 H 0.13761 0.16137 0.86258 0.0
H181 H 0.13935 0.30237 0.83119 0.0
O182 O 0.05078 0.21394 0.8795 0.0
C183 C 0.07545 0.35329 0.85666 0.0
O184 O 0.12148 0.36273 0.86351 0.0
N185 N 0.14227 0.23294 0.89889 0.0
C186 C 0.19861 0.19323 0.93394 0.0
C187 C 0.16404 0.16327 0.92243 0.0
C188 C 0.1358 0.1839 0.90518 0.0
C189 C 0.17754 0.26205 0.90923 0.0
C190 C 0.20578 0.24311 0.9271 0.0
H191 H 0.10756 0.1604 0.89767 0.0
H192 H 0.1817 0.30103 0.90436 0.0
H193 H 0.05593 0.2319 0.92533 0.0
H194 H 0.03364 0.38473 0.94025 0.0
H195 H 0.17596 0.14995 0.82265 0.0
H196 H 0.15688 0.12479 0.92751 0.0
H197 H 0.23209 0.26738 0.93575 0.0
C198 C 0.32499 0.89002 0.06368 0.0
C199 C 0.32869 0.92545 0.04705 0.0
N200 N 0.29369 0.96108 0.05088 0.0
N201 N 0.28737 0.90284 0.07775 0.0
C202 C 0.26925 0.94666 0.06963 0.0
H203 H 0.34875 0.85728 0.06556 0.0
Co204 Co 0.27054 0.86666 0.1032 0.0
C205 C 0.18655 0.92884 0.12387 0.0
O206 O 0.20519 0.92828 0.1442 0.0
N207 N 0.25504 0.8291 0.1292 0.0
C208 C 0.22853 0.77058 0.15321 0.0
C209 C 0.23064 0.7846 0.13107 0.0
C210 C 0.26803 0.84056 0.15051 0.0
N211 N 0.25218 0.80594 0.16538 0.0
O212 O 0.31258 0.91155 0.12008 0.0
H213 H 0.2154 0.76292 0.11737 0.0
H214 H 0.2875 0.87454 0.1553 0.0
O215 O 0.21095 0.90864 0.10775 0.0
C216 C 0.35832 0.8969 0.12042 0.0
O217 O 0.36926 0.85292 0.11155 0.0
N218 N 0.23299 0.82212 0.08524 0.0
C219 C 0.18896 0.76423 0.05157 0.0
C220 C 0.15961 0.79618 0.06501 0.0
C221 C 0.18222 0.82458 0.08183 0.0
C222 C 0.26138 0.78814 0.07365 0.0
C223 C 0.24023 0.75908 0.05657 0.0
H224 H 0.15851 0.84912 0.09157 0.0
H225 H 0.30119 0.78519 0.07704 0.0
H226 H 0.23867 0.96758 0.07717 0.0
H227 H 0.3556 0.92549 0.03342 0.0
H228 H 0.21138 0.73674 0.15978 0.0
H229 H 0.11985 0.80138 0.06185 0.0
H230 H 0.26408 0.73397 0.04696 0.0
C231 C 0.88124 0.68811 0.91771 0.0
C232 C 0.91412 0.67389 0.93428 0.0
N233 N 0.95822 0.69752 0.93073 0.0
N234 N 0.90441 0.72082 0.90393 0.0
C235 C 0.9514 0.72556 0.91213 0.0
H236 H 0.8426 0.67608 0.91596 0.0
Co237 Co 0.87374 0.75107 0.87969 0.0
C238 C 0.94646 0.82791 0.86297 0.0
O239 O 0.94193 0.8115 0.8423 0.0
N240 N 0.84163 0.78135 0.85524 0.0
C241 C 0.80896 0.83905 0.83254 0.0
C242 C 0.82899 0.83048 0.85338 0.0
C243 C 0.82795 0.76075 0.83548 0.0
N244 N 0.80839 0.79507 0.82135 0.0
O245 O 0.91229 0.70768 0.86035 0.0
H246 H 0.83539 0.85871 0.86613 0.0
H247 H 0.83389 0.7218 0.83104 0.0
O248 O 0.92462 0.80433 0.87887 0.0
C249 C 0.88931 0.66576 0.85826 0.0
O250 O 0.84384 0.66177 0.86676 0.0
N251 N 0.83455 0.78921 0.89944 0.0
C252 C 0.77354 0.83598 0.93107 0.0
C253 C 0.8247 0.84778 0.92962 0.0
C254 C 0.8548 0.82329 0.91398 0.0
C255 C 0.78475 0.77723 0.90055 0.0
C256 C 0.75339 0.80009 0.91643 0.0
H257 H 0.89464 0.83046 0.91428 0.0
H258 H 0.76968 0.74892 0.88939 0.0
H259 H 0.97953 0.7503 0.90507 0.0
H260 H 0.90607 0.64849 0.94797 0.0
H261 H 0.79642 0.87491 0.82602 0.0
H262 H 0.84173 0.87424 0.94117 0.0
H263 H 0.71408 0.78966 0.91739 0.0
H264 H 0.32004 0.93954 0.54036 0.0
H265 H 0.18655 0.9343 0.58223 0.0
H266 H 0.14376 0.88295 0.55362 0.0
H267 H 0.26061 0.95575 0.49053 0.0
H268 H 0.30198 0.91679 0.47397 0.0
H269 H 0.32497 0.94636 0.49902 0.0
H270 H 0.35217 0.85966 0.51472 0.0
H271 H 0.32977 0.82969 0.48954 0.0
H272 H 0.30685 0.8094 0.51647 0.0
H273 H 0.11135 0.84458 0.51827 0.0
H274 H 0.09379 0.81657 0.4795 0.0
H275 H 0.24948 0.84261 0.46149 0.0
C276 C 0.28251 0.92614 0.54396 0.0
C277 C 0.25666 0.94124 0.56355 0.0
C278 C 0.20696 0.92383 0.56723 0.0
C279 C 0.18245 0.89429 0.55115 0.0
C280 C 0.20843 0.88174 0.53166 0.0
C281 C 0.25766 0.8964 0.52816 0.0
C282 C 0.27582 0.88142 0.50504 0.0
C283 C 0.29175 0.92784 0.49135 0.0
C284 C 0.31869 0.84273 0.50654 0.0
C285 C 0.22848 0.85785 0.49576 0.0
C286 C 0.1901 0.85809 0.51143 0.0
C287 C 0.14141 0.84295 0.50605 0.0
C288 C 0.1317 0.8274 0.48405 0.0
C289 C 0.17057 0.82693 0.46785 0.0
C290 C 0.21962 0.84155 0.47385 0.0
H291 H 0.87709 0.87091 0.51531 0.0
H292 H 0.78414 0.73911 0.52711 0.0
H293 H 0.81264 0.70309 0.49122 0.0
H294 H 0.8635 0.87626 0.45486 0.0
H295 H 0.92816 0.89382 0.45027 0.0
H296 H 0.89681 0.91185 0.47585 0.0
H297 H 0.96672 0.86831 0.49913 0.0
H298 H 0.99843 0.85092 0.47362 0.0
H299 H 0.9817 0.80322 0.49372 0.0
H300 H 0.85461 0.67907 0.45519 0.0
H301 H 0.91149 0.66628 0.42294 0.0
H302 H 0.98038 0.81136 0.43586 0.0
C303 C 0.86276 0.83436 0.51049 0.0
C304 C 0.828 0.80809 0.52412 0.0
C305 C 0.80992 0.7606 0.51685 0.0
C306 C 0.82603 0.73968 0.49649 0.0
C307 C 0.86039 0.76655 0.48359 0.0
C308 C 0.87886 0.81267 0.49037 0.0
C309 C 0.91811 0.83225 0.47418 0.0
C310 C 0.90058 0.88146 0.46314 0.0
C311 C 0.96925 0.83904 0.48586 0.0
C312 C 0.9195 0.78941 0.45744 0.0
C313 C 0.8854 0.75224 0.46301 0.0
C314 C 0.8813 0.70801 0.4506 0.0
C315 C 0.91385 0.701 0.43238 0.0
C316 C 0.95033 0.73778 0.42685 0.0
C317 C 0.95226 0.783 0.43932 0.0
H318 H 0.73412 0.02706 0.52304 0.0
H319 H 0.81885 0.09422 0.57719 0.0
H320 H 0.85655 0.15523 0.55041 0.0
H321 H 0.83284 0.03664 0.48167 0.0
H322 H 0.78956 0.04861 0.4591 0.0
H323 H 0.76994 0.01151 0.48275 0.0
H324 H 0.69464 0.07204 0.48916 0.0
H325 H 0.7143 0.10963 0.46567 0.0
H326 H 0.70619 0.13841 0.4928 0.0
H327 H 0.88108 0.21132 0.51727 0.0
H328 H 0.89769 0.25106 0.48036 0.0
H329 H 0.79925 0.14282 0.44847 0.0
C330 C 0.76048 0.0548 0.52922 0.0
C331 C 0.77322 0.05684 0.55209 0.0
C332 C 0.80873 0.09257 0.55965 0.0
C333 C 0.82999 0.12729 0.54461 0.0
C334 C 0.81579 0.12484 0.52212 0.0
C335 C 0.78248 0.08884 0.51446 0.0
C336 C 0.77448 0.09253 0.48949 0.0
C337 C 0.79282 0.04448 0.47756 0.0
C338 C 0.71912 0.10384 0.48397 0.0
C339 C 0.80782 0.13687 0.48421 0.0
C340 C 0.83114 0.15541 0.5032 0.0
C341 C 0.86315 0.19695 0.50231 0.0
C342 C 0.87208 0.21947 0.4814 0.0
C343 C 0.84948 0.19988 0.4618 0.0
C344 C 0.81684 0.15836 0.4633 0.0
H345 H 0.11776 0.20695 0.53473 0.0
H346 H 0.25451 0.14188 0.50758 0.0
H347 H 0.22607 0.16257 0.46917 0.0
H348 H 0.0335 0.16743 0.49056 0.0
H349 H 0.99781 0.22513 0.49107 0.0
H350 H 0.02791 0.20297 0.5162 0.0
H351 H 0.07499 0.28798 0.52008 0.0
H352 H 0.0448 0.31043 0.49505 0.0
H353 H 0.11244 0.31067 0.49701 0.0
H354 H 0.18161 0.18976 0.43368 0.0
H355 H 0.12822 0.22923 0.4043 0.0
H356 H 0.02373 0.27954 0.45521 0.0
C357 C 0.14149 0.19687 0.52065 0.0
C358 C 0.18814 0.17279 0.52394 0.0
C359 C 0.21873 0.16068 0.50526 0.0
C360 C 0.20273 0.17191 0.48346 0.0
C361 C 0.15633 0.19555 0.48075 0.0
C362 C 0.12642 0.20837 0.49887 0.0
C363 C 0.07948 0.23595 0.4916 0.0
C364 C 0.03187 0.20607 0.49772 0.0
C365 C 0.07787 0.28943 0.50152 0.0
C366 C 0.08777 0.23697 0.46657 0.0
C367 C 0.13186 0.21282 0.46054 0.0
C368 C 0.14712 0.20892 0.43821 0.0
C369 C 0.11684 0.23116 0.4217 0.0
C370 C 0.0727 0.25732 0.42782 0.0
C371 C 0.05775 0.25979 0.4504 0.0
H372 H 0.75948 0.93562 0.93853 0.0
H373 H 0.72291 0.78812 0.96455 0.0
H374 H 0.68918 0.82736 -0.00086 0.0
H375 H 0.80548 0.98469 0.98622 0.0
H376 H 0.781 0.04752 0.98289 0.0
H377 H 0.7925 0.00906 0.95866 0.0
H378 H 0.69995 0.02011 0.94603 0.0
H379 H 0.68821 0.05939 0.97013 0.0
H380 H 0.64965 1.00479 0.96511 0.0
H381 H 0.6766 0.88143 0.03345 0.0
H382 H 0.67764 0.94696 0.06313 0.0
H383 H 0.71882 0.05883 0.0138 0.0
C384 C 0.7425 0.9119 0.95119 0.0
C385 C 0.74315 0.85913 0.94899 0.0
C386 C 0.72178 0.82877 0.96593 0.0
C387 C 0.70278 0.85073 0.9856 0.0
C388 C 0.70464 0.903 0.98773 0.0
C389 C 0.72291 0.93325 0.97072 0.0
C390 C 0.72517 0.98784 0.9778 0.0
C391 C 0.77924 0.00843 0.97631 0.0
C392 C 0.68855 0.01992 0.96394 0.0
C393 C 0.7078 0.98335 0.00181 0.0
C394 C 0.69579 0.93424 0.00726 0.0
C395 C 0.68443 0.92023 0.02921 0.0
C396 C 0.68546 0.9574 0.04596 0.0
C397 C 0.69745 0.00778 0.04055 0.0
C398 C 0.70796 0.02083 0.01817 0.0
H399 H 0.86625 0.27105 0.04626 0.0
H400 H 0.98074 0.16998 0.07147 0.0
H401 H 0.03872 0.19742 0.0416 0.0
H402 H 0.88309 0.24576 0.99204 0.0
H403 H 0.87407 0.30817 0.98095 0.0
H404 H 0.84569 0.29117 0.00719 0.0
H405 H 0.88977 0.36577 0.02699 0.0
H406 H 0.91752 0.38394 0.00063 0.0
H407 H 0.95701 0.37278 0.02463 0.0
H408 H 0.07565 0.21959 0.00501 0.0
H409 H 0.0938 0.24405 0.96585 0.0
H410 H 0.95775 0.33359 0.96435 0.0
C411 C 0.90446 0.25689 0.04611 0.0
C412 C 0.91954 0.21902 0.06119 0.0
C413 C 0.969 0.1995 0.06011 0.0
C414 C 1.00208 0.21483 0.04323 0.0
C415 C 0.98522 0.2501 0.02774 0.0
C416 C 0.938 0.27188 0.02928 0.0
C417 C 0.9271 0.30434 0.00899 0.0
C418 C 0.8797 0.28624 -0.00343 0.0
C419 C 0.9226 0.36002 0.01572 0.0
C420 C 0.97418 0.29496 -0.00471 0.0
C421 C 0.0074 0.26392 0.00652 0.0
C422 C 0.05073 0.24512 -0.0037 0.0
C423 C 0.06048 0.25865 0.97407 0.0
C424 C 0.02723 0.29082 0.96243 0.0
C425 C 0.98402 0.30975 0.97324 0.0
H426 H 0.25035 0.10528 0.93717 0.0
H427 H 0.19911 0.23331 0.97606 0.0
H428 H 0.22488 0.19012 0.01095 0.0
H429 H 0.20482 0.0141 0.97208 0.0
H430 H 0.25624 0.97051 0.9686 0.0
H431 H 0.24166 0.01448 0.9467 0.0
H432 H 0.33285 0.04881 0.9477 0.0
H433 H 0.34805 1.00431 0.96942 0.0
H434 H 0.35887 0.07055 0.97384 0.0
H435 H 0.24399 0.12722 0.04155 0.0
H436 H 0.26244 0.05297 0.06522 0.0
H437 H 0.30188 0.96732 0.00591 0.0
C438 C 0.24612 0.12478 0.95302 0.0
C439 C 0.22336 0.17266 0.95405 0.0
C440 C 0.21746 0.19696 0.975 0.0
C441 C 0.23167 0.17259 0.99485 0.0
C442 C 0.2523 0.1244 0.99332 0.0
C443 C 0.26036 0.10118 0.97288 0.0
C444 C 0.27962 0.04803 0.97572 0.0
C445 C 0.24341 0.00954 0.96515 0.0
C446 C 0.33303 0.04263 0.9661 0.0
C447 C 0.27966 0.04428 0.00096 0.0
C448 C 0.26394 0.08865 0.01087 0.0
C449 C 0.25731 0.09264 0.03398 0.0
C450 C 0.2674 0.05026 0.04726 0.0
C451 C 0.28402 1.00471 0.03736 0.0
C452 C 0.2904 1.00203 0.01394 0.0
H453 H 0.95885 0.68659 0.9758 0.0
H454 H 0.05564 0.7093 0.91822 0.0
H455 H 0.12916 0.71645 0.94335 0.0
H456 H 0.01368 0.77557 0.00941 0.0
H457 H 0.00722 0.74126 0.03528 0.0
H458 H 0.96407 0.72995 0.0127 0.0
H459 H 0.98638 0.63496 0.01338 0.0
H460 H 0.02968 0.64598 0.03606 0.0
H461 H 0.05114 0.61562 0.01076 0.0
H462 H 0.18972 0.73101 0.97485 0.0
H463 H 0.23161 0.75596 0.00995 0.0
H464 H 0.09533 0.72184 0.04702 0.0
C465 C 0.99572 0.69144 0.96842 0.0
C466 C 1.00167 0.69705 0.94506 0.0
C467 C 0.05031 0.70512 0.93609 0.0
C468 C 0.09227 0.70875 0.95021 0.0
C469 C 0.08492 0.70399 0.97324 0.0
C470 C 0.03781 0.69538 0.98227 0.0
C471 C 0.03896 0.69697 0.0076 0.0
C472 C 1.00393 0.7384 0.01677 0.0
C473 C 0.02577 0.64529 0.01753 0.0
C474 C 0.0937 0.70973 0.01142 0.0
C475 C 0.11982 0.71268 0.99143 0.0
C476 C 0.16994 0.72783 0.99063 0.0
C477 C 0.19352 0.74166 0.01071 0.0
C478 C 0.16684 0.74066 0.03128 0.0
C479 C 0.11675 0.72301 0.03159 0.0
H480 H 0.55927 0.89916 0.63348 0.0
H481 H 0.66513 0.01328 0.6552 0.0
H482 H 0.59408 0.06671 0.66766 0.0
H483 H 0.47667 0.97888 0.6091 0.0
H484 H 0.42038 0.94518 0.61665 0.0
H485 H 0.47897 0.91202 0.61414 0.0
H486 H 0.46911 0.8789 0.65474 0.0
H487 H 0.41027 0.91223 0.65737 0.0
H488 H 0.45981 0.9229 0.67739 0.0
H489 H 0.51249 0.11359 0.67073 0.0
H490 H 0.42852 0.15 0.66366 0.0
H491 H 0.3753 1.00489 0.64071 0.0
C492 C 0.56774 0.93469 0.64153 0.0
C493 C 0.61789 0.9519 0.64348 0.0
C494 C 0.62713 0.99906 0.65372 0.0
C495 C 0.58693 0.0296 0.66089 0.0
C496 C 0.53781 0.01218 0.65794 0.0
C497 C 0.52816 0.96553 0.64866 0.0
C498 C 0.47238 0.95797 0.64463 0.0
C499 C 0.46151 0.94796 0.61966 0.0
C500 C 0.45168 0.91547 0.65942 0.0
C501 C 0.45219 0.00865 0.65203 0.0
C502 C 0.49041 0.0391 0.66004 0.0
C503 C 0.48209 0.08966 0.66513 0.0
C504 C 0.43425 0.11003 0.6611 0.0
C505 C 0.39523 0.07994 0.65214 0.0
C506 C 0.40387 0.0282 0.64841 0.0
H507 H 0.01408 0.6607 0.34448 0.0
H508 H 0.15716 0.60806 0.31873 0.0
H509 H 0.11966 0.52494 0.31079 0.0
H510 H 0.99027 0.55907 0.37478 0.0
H511 H 0.92311 0.55658 0.37085 0.0
H512 H 0.95552 0.61548 0.36829 0.0
H513 H 0.92029 0.62778 0.32832 0.0
H514 H 0.88663 0.56916 0.33079 0.0
H515 H 0.92896 0.57909 0.3076 0.0
H516 H 0.07245 0.44345 0.31328 0.0
H517 H 0.01983 0.372 0.32573 0.0
H518 H 0.90806 0.47732 0.3506 0.0
C519 C 0.03669 0.63255 0.33601 0.0
C520 C 0.08823 0.64102 0.3318 0.0
C521 C 0.11736 0.60249 0.32174 0.0
C522 C 0.09634 0.55514 0.31717 0.0
C523 C 0.04608 0.54689 0.32277 0.0
C524 C 0.01642 0.58482 0.33174 0.0
C525 C 0.96629 0.56444 0.33966 0.0
C526 C 0.9584 0.57446 0.36488 0.0
C527 C 0.92298 0.58642 0.32575 0.0
C528 C 0.97338 0.50887 0.33485 0.0
C529 C 0.01912 0.49951 0.32464 0.0
C530 C 0.03599 0.45044 0.32074 0.0
C531 C 0.00587 0.41001 0.32788 0.0
C532 C 0.95968 0.41895 0.33903 0.0
C533 C 0.94283 0.46909 0.34186 0.0
H534 H 0.6424 0.99066 0.12473 0.0
H535 H 0.58665 0.13121 0.15218 0.0
H536 H 0.50181 0.09435 0.15576 0.0
H537 H 0.53952 0.96792 0.09098 0.0
H538 H 0.53888 0.90055 0.09442 0.0
H539 H 0.59681 0.93473 0.09749 0.0
H540 H 0.6088 0.89754 0.13721 0.0
H541 H 0.55102 0.86278 0.13419 0.0
H542 H 0.55945 0.90445 0.15774 0.0
H543 H 0.42083 0.04589 0.15192 0.0
H544 H 0.35098 0.98876 0.14166 0.0
H545 H 0.4594 0.88022 0.11648 0.0
C546 C 0.61273 0.01294 0.13228 0.0
C547 C 0.62121 0.06352 0.13852 0.0
C548 C 0.58101 0.09222 0.1475 0.0
C549 C 0.53268 0.0716 0.14961 0.0
C550 C 0.52502 0.02217 0.1426 0.0
C551 C 0.56403 0.99306 0.13426 0.0
C552 C 0.54485 0.94275 0.12589 0.0
C553 C 0.55565 0.93614 0.10071 0.0
C554 C 0.56737 0.89931 0.13958 0.0
C555 C 0.48899 0.94857 0.13041 0.0
C556 C 0.47828 0.99445 0.14021 0.0
C557 C 0.42886 0.00949 0.14458 0.0
C558 C 0.38939 0.97688 0.13866 0.0
C559 C 0.39959 0.92986 0.12844 0.0
C560 C 0.4502 0.91556 0.12458 0.0
H561 H 0.09708 0.45346 0.85925 0.0
H562 H 0.98045 0.34951 0.83834 0.0
H563 H 0.92417 0.42169 0.8305 0.0
H564 H 0.01901 0.53195 0.88916 0.0
H565 H 0.05136 0.58953 0.88235 0.0
H566 H 0.08509 0.53087 0.88236 0.0
H567 H 0.11317 0.54636 0.84136 0.0
H568 H 0.07942 0.60525 0.84122 0.0
H569 H 0.06645 0.55833 0.82018 0.0
H570 H 0.87761 0.5038 0.82962 0.0
H571 H 0.84272 0.58802 0.83752 0.0
H572 H 0.98921 0.63883 0.85977 0.0
C573 C 0.06024 0.44575 0.85236 0.0
C574 C 0.04338 0.39572 0.8491 0.0
C575 C 0.99434 0.38744 0.84073 0.0
C576 C 0.96222 0.42826 0.83618 0.0
C577 C 0.97973 0.47706 0.8401 0.0
C578 C 0.02766 0.48592 0.84802 0.0
C579 C 0.0355 0.54124 0.85337 0.0
C580 C 0.04848 0.54881 0.87828 0.0
C581 C 0.07604 0.56414 0.83812 0.0
C582 C 0.98394 0.5621 0.84789 0.0
C583 C 0.95263 0.52455 0.83989 0.0
C584 C 0.90203 0.53358 0.83548 0.0
C585 C 0.88256 0.58158 0.84002 0.0
C586 C 0.91345 0.62009 0.84896 0.0
C587 C 0.96514 0.61057 0.85231 0.0
H588 H 0.0657 0.11148 0.62289 0.0
H589 H 0.16474 0.9985 0.65122 0.0
H590 H 0.0915 0.94242 0.65714 0.0
H591 H 0.9553 0.08774 0.65806 0.0
H592 H 0.9117 0.09664 0.63532 0.0
H593 H 0.97081 0.12979 0.63541 0.0
H594 H 0.99212 0.09306 0.5963 0.0
H595 H 0.93306 0.06005 0.59606 0.0
H596 H 0.99102 0.02584 0.5922 0.0
H597 H 0.00843 0.89794 0.65869 0.0
H598 H 0.92352 0.86403 0.6526 0.0
H599 H 0.87826 1.00434 0.62135 0.0
C600 C 0.07191 0.07532 0.63077 0.0
C601 C 0.12088 0.0596 0.637 0.0
C602 C 0.12756 0.0114 0.64655 0.0
C603 C 0.08615 0.97947 0.65003 0.0
C604 C 0.03843 0.99611 0.64362 0.0
C605 C 0.03118 0.04271 0.63398 0.0
C606 C 0.97681 0.04985 0.62682 0.0
C607 C 0.95221 0.09361 0.63967 0.0
C608 C 0.97305 0.05764 0.60134 0.0
C609 C 0.95453 0.99972 0.63377 0.0
C610 C 0.99069 0.96968 0.64373 0.0
C611 C 0.97988 0.92117 0.65096 0.0
C612 C 0.9314 0.90227 0.64739 0.0
C613 C 0.89408 0.93146 0.63646 0.0
C614 C 0.90564 0.98133 0.63001 0.0
H615 H 0.11206 0.96583 0.37104 0.0
H616 H 1.00345 0.867 0.33938 0.0
H617 H 0.95134 0.94125 0.3296 0.0
H618 H 0.0223 0.04786 0.39585 0.0
H619 H 0.06 0.10362 0.39227 0.0
H620 H 0.08993 0.04321 0.39514 0.0
H621 H 0.13695 0.05755 0.35762 0.0
H622 H 0.10662 0.11784 0.35456 0.0
H623 H 0.10147 0.07133 0.33267 0.0
H624 H 0.9104 0.02607 0.32428 0.0
H625 H 0.87863 0.11299 0.32727 0.0
H626 H 0.01315 0.15645 0.36345 0.0
C627 C 0.07759 0.9597 0.3618 0.0
C628 C 0.06204 0.91056 0.35571 0.0
C629 C 0.01613 0.90424 0.34412 0.0
C630 C 0.98653 0.94622 0.3384 0.0
C631 C 1.00322 0.99415 0.34456 0.0
C632 C 0.04742 1.001 0.35625 0.0
C633 C 0.05526 0.05595 0.36233 0.0
C634 C 0.05695 0.06306 0.38791 0.0
C635 C 0.10291 0.07689 0.35112 0.0
C636 C 0.00826 0.07914 0.35239 0.0
C637 C 0.97913 0.04288 0.34196 0.0
C638 C 0.93302 0.05469 0.33232 0.0
C639 C 0.91536 0.10428 0.33407 0.0
C640 C 0.94346 0.14166 0.34552 0.0
C641 C 0.99121 0.12907 0.35425 0.0
H642 H 0.11286 0.94774 0.15548 0.0
H643 H 0.13913 0.94393 0.0837 0.0
H644 H 0.04891 0.95983 0.07713 0.0
H645 H 0.99367 0.88544 0.15469 0.0
H646 H 0.9663 0.92341 0.1766 0.0
H647 H 0.03324 0.91292 0.17592 0.0
H648 H 0.04903 0.00914 0.17577 0.0
H649 H 0.98219 0.01988 0.17684 0.0
H650 H 0.0192 0.04759 0.15477 0.0
H651 H 0.95509 0.97409 0.07825 0.0
H652 H 0.86641 0.9936 0.08701 0.0
H653 H 0.90065 0.98894 0.15802 0.0
C654 C 0.09984 0.95095 0.13837 0.0
C655 C 0.13337 0.94449 0.12011 0.0
C656 C 0.1144 0.94858 0.09799 0.0
C657 C 0.06307 0.95742 0.09407 0.0
C658 C 0.0309 0.96224 0.11242 0.0
C659 C 0.04859 0.95974 0.13413 0.0
C660 C 0.00601 0.96658 0.15086 0.0
C661 C 0.99944 0.91926 0.16537 0.0
C662 C 0.01463 0.0136 0.16541 0.0
C663 C 0.96169 0.97361 0.13517 0.0
C664 C 0.97685 0.97059 0.11306 0.0
C665 C 0.94287 0.97664 0.09551 0.0
C666 C 0.89247 0.98766 0.10066 0.0
C667 C 0.87629 0.99286 0.12319 0.0
C668 C 0.91141 0.98451 0.14062 0.0
H669 H 0.96409 0.90368 0.83235 0.0
H670 H 0.97033 0.87051 0.90345 0.0
H671 H 0.9876 0.95998 0.91141 0.0
H672 H 0.06544 0.99758 0.83275 0.0
H673 H 0.03517 0.03639 0.81202 0.0
H674 H 0.02508 0.96936 0.81201 0.0
H675 H 0.92892 0.98448 0.81412 0.0
H676 H 0.93876 0.05154 0.81457 0.0
H677 H 0.90337 0.02185 0.83667 0.0
H678 H 0.99932 0.05422 0.91189 0.0
H679 H 0.01481 0.14426 0.90459 0.0
H680 H 1.00378 0.1164 0.83309 0.0
C681 C 0.97006 0.91495 0.84958 0.0
C682 C 0.96532 0.87984 0.8673 0.0
C683 C 0.973 0.89658 0.88959 0.0
C684 C 0.98287 0.94743 0.8943 0.0
C685 C 0.98546 0.98131 0.87653 0.0
C686 C 0.98019 0.96566 0.85458 0.0
C687 C 0.98487 0.00981 0.83858 0.0
C688 C 0.03035 1.00287 0.82292 0.0
C689 C 0.93607 0.01735 0.8252 0.0
C690 C 0.99326 0.05275 0.85496 0.0
C691 C 0.99316 0.03549 0.87678 0.0
C692 C 0.99989 0.06805 0.89486 0.0
C693 C 0.00849 0.11927 0.89052 0.0
C694 C 0.01077 0.1377 0.86826 0.0
C695 C 1.00201 0.10385 0.85032 0.0
H696 H 0.19419 0.15733 0.69229 0.0
H697 H 0.26026 0.30423 0.68067 0.0
H698 H 0.24497 0.32667 0.72037 0.0
H699 H 0.09849 0.19653 0.73153 0.0
H700 H 0.1049 0.1406 0.74833 0.0
H701 H 0.11815 0.13819 0.71875 0.0
H702 H 0.20715 0.10298 0.7271 0.0
H703 H 0.19429 0.10544 0.75668 0.0
H704 H 0.24846 0.13747 0.74545 0.0
H705 H 0.22514 0.33086 0.76223 0.0
H706 H 0.20314 0.31606 0.80207 0.0
H707 H 0.15266 0.16565 0.78516 0.0
C708 C 0.20574 0.19418 0.69802 0.0
C709 C 0.22873 0.2289 0.68338 0.0
C710 C 0.24219 0.27716 0.69154 0.0
C711 C 0.23385 0.29013 0.71407 0.0
C712 C 0.21189 0.25446 0.72812 0.0
C713 C 0.19795 0.20753 0.72031 0.0
C714 C 0.17653 0.17513 0.73874 0.0
C715 C 0.12124 0.16186 0.73405 0.0
C716 C 0.20853 0.12746 0.74219 0.0
C717 C 0.18121 0.21083 0.7583 0.0
C718 C 0.20126 0.25659 0.75192 0.0
C719 C 0.20927 0.2952 0.76737 0.0
C720 C 0.19659 0.28657 0.7899 0.0
C721 C 0.17664 0.2396 0.79669 0.0
C722 C 0.16869 0.20161 0.78057 0.0
H723 H 0.18929 0.76569 0.1964 0.0
H724 H 0.32706 0.85138 0.18877 0.0
H725 H 0.33364 0.85905 0.22987 0.0
H726 H 0.13958 0.83505 0.24195 0.0
H727 H 0.11329 0.78109 0.25597 0.0
H728 H 0.12042 0.78072 0.22598 0.0
H729 H 0.173 0.69865 0.22831 0.0
H730 H 0.16565 0.69854 0.2583 0.0
H731 H 0.22768 0.69668 0.2461 0.0
H732 H 0.3239 0.85889 0.27193 0.0
H733 H 0.29869 0.85019 0.31165 0.0
H734 H 0.1684 0.76337 0.29125 0.0
C735 C 0.22126 0.78538 0.20335 0.0
C736 C 0.25757 0.80803 0.18935 0.0
C737 C 0.2984 0.83429 0.19915 0.0
C738 C 0.30263 0.83861 0.22247 0.0
C739 C 0.26578 0.81637 0.23576 0.0
C740 C 0.22601 0.79009 0.22655 0.0
C741 C 0.19087 0.77054 0.24446 0.0
C742 C 0.13792 0.79323 0.24193 0.0
C743 C 0.18923 0.71267 0.24428 0.0
C744 C 0.21687 0.79029 0.26517 0.0
C745 C 0.26011 0.81646 0.25986 0.0
C746 C 0.29021 0.8383 0.2763 0.0
C747 C 0.27571 0.83306 0.29879 0.0
C748 C 0.23146 0.8064 0.30456 0.0
C749 C 0.20191 0.78478 0.28743 0.0
H750 H 0.82011 0.86054 0.78709 0.0
H751 H 0.76633 0.71117 0.80361 0.0
H752 H 0.74519 0.69652 0.76376 0.0
H753 H 0.72727 0.88951 0.74508 0.0
H754 H 0.77132 0.92226 0.72736 0.0
H755 H 0.78075 0.92098 0.75722 0.0
H756 H 0.87002 0.88386 0.75126 0.0
H757 H 0.86082 0.88491 0.7214 0.0
H758 H 0.8775 0.8269 0.73514 0.0
H759 H 0.72991 0.6989 0.72195 0.0
H760 H 0.72284 0.71743 0.68157 0.0
H761 H 0.79029 0.86406 0.69292 0.0
C762 C 0.80321 0.82505 0.78237 0.0
C763 C 0.79445 0.78708 0.79838 0.0
C764 C 0.77345 0.74061 0.79151 0.0
C765 C 0.76121 0.73207 0.76898 0.0
C766 C 0.7706 0.77029 0.75358 0.0
C767 C 0.79129 0.81578 0.75999 0.0
C768 C 0.79906 0.85018 0.74015 0.0
C769 C 0.76772 0.89859 0.74261 0.0
C770 C 0.85518 0.86214 0.7368 0.0
C771 C 0.77921 0.81708 0.72157 0.0
C772 C 0.76285 0.77122 0.7296 0.0
C773 C 0.74277 0.73466 0.71546 0.0
C774 C 0.7392 0.74543 0.69251 0.0
C775 C 0.75582 0.7923 0.68393 0.0
C776 C 0.77633 0.82824 0.6988 0.0
H777 H 0.8593 0.29666 0.28907 0.0
H778 H 0.71944 0.23661 0.31539 0.0
H779 H 0.69842 0.2038 0.27792 0.0
H780 H 0.81419 0.32719 0.2322 0.0
H781 H 0.87255 0.30734 0.21955 0.0
H782 H 0.87231 0.33325 0.24746 0.0
H783 H 0.91729 0.25319 0.26205 0.0
H784 H 0.91719 0.22677 0.2343 0.0
H785 H 0.88931 0.19239 0.25716 0.0
H786 H 0.69757 0.16878 0.23869 0.0
H787 H 0.7164 0.13576 0.2009 0.0
H788 H 0.85821 0.21634 0.20097 0.0
C789 C 0.82393 0.27717 0.28699 0.0
C790 C 0.79116 0.26919 0.3053 0.0
C791 C 0.74496 0.2439 0.30166 0.0
C792 C 0.73277 0.22487 0.28041 0.0
C793 C 0.76703 0.23166 0.26299 0.0
C794 C 0.81151 0.25756 0.26604 0.0
C795 C 0.84401 0.25604 0.24524 0.0
C796 C 0.85116 0.30912 0.23554 0.0
C797 C 0.89494 0.23057 0.24998 0.0
C798 C 0.81153 0.22395 0.23018 0.0
C799 C 0.76696 0.21082 0.24058 0.0
C800 C 0.732 0.17945 0.23026 0.0
C801 C 0.74298 0.16096 0.20879 0.0
C802 C 0.78875 0.17352 0.19797 0.0
C803 C 0.82311 0.20577 0.20884 0.0
loop_
_geom_bond_atom_site_label_1
_geom_bond_atom_site_label_2
_geom_bond_distance
_geom_bond_site_symmetry_2
_ccdc_geom_bond_type
C0 C1 1.351 . S
C0 N3 1.368 . S
C0 H5 0.931 . S
C1 C0 1.351 . S
C1 N2 1.373 . S
C1 H29 0.930 . S
N2 C1 1.373 . S
N2 C4 1.340 . S
N3 C0 1.368 . S
N3 C4 1.321 . S
N3 Co6 2.135 . S
C4 N2 1.340 . S
C4 N3 1.321 . S
C4 H28 0.930 . S
H5 C0 0.931 . S
Co6 N3 2.135 . S
Co6 N9 2.121 . S
Co6 O14 2.055 . S
Co6 O17 2.039 . S
Co6 N20 2.140 . S
C7 O8 1.227 . S
C7 O17 1.265 . S
O8 C7 1.227 . S
N9 Co6 2.121 . S
N9 C11 1.375 . S
N9 C12 1.313 . S
C10 C11 1.338 . S
C10 N13 1.377 . S
C10 H30 0.930 . S
C11 N9 1.375 . S
C11 C10 1.338 . S
C11 H15 0.931 . S
C12 N9 1.313 . S
C12 N13 1.344 . S
C12 H16 0.930 . S
N13 C10 1.377 . S
N13 C12 1.344 . S
O14 Co6 2.055 . S
O14 C18 1.253 . S
H15 C11 0.931 . S
H16 C12 0.930 . S
O17 Co6 2.039 . S
O17 C7 1.265 . S
C18 O14 1.253 . S
C18 O19 1.227 . S
O19 C18 1.227 . S
N20 Co6 2.140 . S
N20 C23 1.346 . S
N20 C24 1.345 . S
C21 C22 1.387 . S
C21 C25 1.391 . S
C22 C21 1.387 . S
C22 C23 1.369 . S
C22 H31 0.929 . S
C23 N20 1.346 . S
C23 C22 1.369 . S
C23 H26 0.928 . S
C24 N20 1.345 . S
C24 C25 1.371 . S
C24 H27 0.931 . S
C25 C21 1.391 . S
C25 C24 1.371 . S
C25 H32 0.930 . S
H26 C23 0.928 . S
H27 C24 0.931 . S
H28 C4 0.930 . S
H29 C1 0.930 . S
H30 C10 0.930 . S
H31 C22 0.929 . S
H32 C25 0.930 . S
C33 C34 1.351 . S
C33 N36 1.368 . S
C33 H38 0.931 . S
C34 C33 1.351 . S
C34 N35 1.373 . S
C34 H62 0.930 . S
N35 C34 1.373 . S
N35 C37 1.340 . S
N36 C33 1.368 . S
N36 C37 1.321 . S
N36 Co39 2.135 . S
C37 N35 1.340 . S
C37 N36 1.321 . S
C37 H61 0.930 . S
H38 C33 0.931 . S
Co39 N36 2.135 . S
Co39 N42 2.121 . S
Co39 O47 2.055 . S
Co39 O50 2.039 . S
Co39 N53 2.140 . S
C40 O41 1.227 . S
C40 O50 1.265 . S
O41 C40 1.227 . S
N42 Co39 2.121 . S
N42 C44 1.375 . S
N42 C45 1.313 . S
C43 C44 1.338 . S
C43 N46 1.377 . S
C43 H63 0.930 . S
C44 N42 1.375 . S
C44 C43 1.338 . S
C44 H48 0.931 . S
C45 N42 1.313 . S
C45 N46 1.344 . S
C45 H49 0.930 . S
N46 C43 1.377 . S
N46 C45 1.344 . S
O47 Co39 2.055 . S
O47 C51 1.253 . S
H48 C44 0.931 . S
H49 C45 0.930 . S
O50 Co39 2.039 . S
O50 C40 1.265 . S
C51 O47 1.253 . S
C51 O52 1.227 . S
O52 C51 1.227 . S
N53 Co39 2.140 . S
N53 C56 1.346 . S
N53 C57 1.345 . S
C54 C55 1.387 . S
C54 C58 1.391 . S
C55 C54 1.387 . S
C55 C56 1.369 . S
C55 H64 0.929 . S
C56 N53 1.346 . S
C56 C55 1.369 . S
C56 H59 0.928 . S
C57 N53 1.345 . S
C57 C58 1.371 . S
C57 H60 0.931 . S
C58 C54 1.391 . S
C58 C57 1.371 . S
C58 H65 0.930 . S
H59 C56 0.928 . S
H60 C57 0.931 . S
H61 C37 0.930 . S
H62 C34 0.930 . S
H63 C43 0.930 . S
H64 C55 0.929 . S
H65 C58 0.930 . S
C66 C67 1.351 . S
C66 N69 1.368 . S
C66 H71 0.931 . S
C67 C66 1.351 . S
C67 N68 1.373 . S
C67 H95 0.930 . S
N68 C67 1.373 . S
N68 C70 1.340 . S
N69 C66 1.368 . S
N69 C70 1.321 . S
N69 Co72 2.135 . S
C70 N68 1.340 . S
C70 N69 1.321 . S
C70 H94 0.930 . S
H71 C66 0.931 . S
Co72 N69 2.135 . S
Co72 N75 2.121 . S
Co72 O80 2.055 . S
Co72 O83 2.039 . S
Co72 N86 2.140 . S
C73 O74 1.227 . S
C73 O83 1.265 . S
O74 C73 1.227 . S
N75 Co72 2.121 . S
N75 C77 1.375 . S
N75 C78 1.313 . S
C76 C77 1.338 . S
C76 N79 1.377 . S
C76 H96 0.930 . S
C77 N75 1.375 . S
C77 C76 1.338 . S
C77 H81 0.931 . S
C78 N75 1.313 . S
C78 N79 1.344 . S
C78 H82 0.930 . S
N79 C76 1.377 . S
N79 C78 1.344 . S
O80 Co72 2.055 . S
O80 C84 1.253 . S
H81 C77 0.931 . S
H82 C78 0.930 . S
O83 Co72 2.039 . S
O83 C73 1.265 . S
C84 O80 1.253 . S
C84 O85 1.227 . S
O85 C84 1.227 . S
N86 Co72 2.140 . S
N86 C89 1.346 . S
N86 C90 1.345 . S
C87 C88 1.387 . S
C87 C91 1.391 . S
C88 C87 1.387 . S
C88 C89 1.369 . S
C88 H97 0.929 . S
C89 N86 1.346 . S
C89 C88 1.369 . S
C89 H92 0.928 . S
C90 N86 1.345 . S
C90 C91 1.371 . S
C90 H93 0.931 . S
C91 C87 1.391 . S
C91 C90 1.371 . S
C91 H98 0.930 . S
H92 C89 0.928 . S
H93 C90 0.931 . S
H94 C70 0.930 . S
H95 C67 0.930 . S
H96 C76 0.930 . S
H97 C88 0.929 . S
H98 C91 0.930 . S
C99 C100 1.351 . S
C99 N102 1.368 . S
C99 H104 0.931 . S
C100 C99 1.351 . S
C100 N101 1.373 . S
C100 H128 0.930 . S
N101 C100 1.373 . S
N101 C103 1.340 . S
N102 C99 1.368 . S
N102 C103 1.321 . S
N102 Co105 2.135 . S
C103 N101 1.340 . S
C103 N102 1.321 . S
C103 H127 0.930 . S
H104 C99 0.931 . S
Co105 N102 2.135 . S
Co105 N108 2.121 . S
Co105 O113 2.055 . S
Co105 O116 2.039 . S
Co105 N119 2.140 . S
C106 O107 1.227 . S
C106 O116 1.265 . S
O107 C106 1.227 . S
N108 Co105 2.121 . S
N108 C110 1.375 . S
N108 C111 1.313 . S
C109 C110 1.338 . S
C109 N112 1.377 . S
C109 H129 0.930 . S
C110 N108 1.375 . S
C110 C109 1.338 . S
C110 H114 0.931 . S
C111 N108 1.313 . S
C111 N112 1.344 . S
C111 H115 0.930 . S
N112 C109 1.377 . S
N112 C111 1.344 . S
O113 Co105 2.055 . S
O113 C117 1.253 . S
H114 C110 0.931 . S
H115 C111 0.930 . S
O116 Co105 2.039 . S
O116 C106 1.265 . S
C117 O113 1.253 . S
C117 O118 1.227 . S
O118 C117 1.227 . S
N119 Co105 2.140 . S
N119 C122 1.346 . S
N119 C123 1.345 . S
C120 C121 1.387 . S
C120 C124 1.391 . S
C121 C120 1.387 . S
C121 C122 1.369 . S
C121 H130 0.929 . S
C122 N119 1.346 . S
C122 C121 1.369 . S
C122 H125 0.928 . S
C123 N119 1.345 . S
C123 C124 1.371 . S
C123 H126 0.931 . S
C124 C120 1.391 . S
C124 C123 1.371 . S
C124 H131 0.930 . S
H125 C122 0.928 . S
H126 C123 0.931 . S
H127 C103 0.930 . S
H128 C100 0.930 . S
H129 C109 0.930 . S
H130 C121 0.929 . S
H131 C124 0.930 . S
C132 C133 1.351 . S
C132 N135 1.368 . S
C132 H137 0.931 . S
C133 C132 1.351 . S
C133 N134 1.373 . S
C133 H161 0.930 . S
N134 C133 1.373 . S
N134 C136 1.340 . S
N135 C132 1.368 . S
N135 C136 1.321 . S
N135 Co138 2.135 . S
C136 N134 1.340 . S
C136 N135 1.321 . S
C136 H160 0.930 . S
H137 C132 0.931 . S
Co138 N135 2.135 . S
Co138 N141 2.121 . S
Co138 O146 2.055 . S
Co138 O149 2.039 . S
Co138 N152 2.140 . S
C139 O140 1.227 . S
C139 O149 1.265 . S
O140 C139 1.227 . S
N141 Co138 2.121 . S
N141 C143 1.375 . S
N141 C144 1.313 . S
C142 C143 1.338 . S
C142 N145 1.377 . S
C142 H162 0.930 . S
C143 N141 1.375 . S
C143 C142 1.338 . S
C143 H147 0.931 . S
C144 N141 1.313 . S
C144 N145 1.344 . S
C144 H148 0.930 . S
N145 C142 1.377 . S
N145 C144 1.344 . S
O146 Co138 2.055 . S
O146 C150 1.253 . S
H147 C143 0.931 . S
H148 C144 0.930 . S
O149 Co138 2.039 . S
O149 C139 1.265 . S
C150 O146 1.253 . S
C150 O151 1.227 . S
O151 C150 1.227 . S
N152 Co138 2.140 . S
N152 C155 1.346 . S
N152 C156 1.345 . S
C153 C154 1.387 . S
C153 C157 1.391 . S
C154 C153 1.387 . S
C154 C155 1.369 . S
C154 H163 0.929 . S
C155 N152 1.346 . S
C155 C154 1.369 . S
C155 H158 0.928 . S
C156 N152 1.345 . S
C156 C157 1.371 . S
C156 H159 0.931 . S
C157 C153 1.391 . S
C157 C156 1.371 . S
C157 H164 0.930 . S
H158 C155 0.928 . S
H159 C156 0.931 . S
H160 C136 0.930 . S
H161 C133 0.930 . S
H162 C142 0.930 . S
H163 C154 0.929 . S
H164 C157 0.930 . S
C165 C166 1.351 . S
C165 N168 1.368 . S
C165 H170 0.931 . S
C166 C165 1.351 . S
C166 N167 1.373 . S
C166 H194 0.930 . S
N167 C166 1.373 . S
N167 C169 1.340 . S
N168 C165 1.368 . S
N168 C169 1.321 . S
N168 Co171 2.135 . S
C169 N167 1.340 . S
C169 N168 1.321 . S
C169 H193 0.930 . S
H170 C165 0.931 . S
Co171 N168 2.135 . S
Co171 N174 2.121 . S
Co171 O179 2.055 . S
Co171 O182 2.039 . S
Co171 N185 2.140 . S
C172 O173 1.227 . S
C172 O182 1.265 . S
O173 C172 1.227 . S
N174 Co171 2.121 . S
N174 C176 1.375 . S
N174 C177 1.313 . S
C175 C176 1.338 . S
C175 N178 1.377 . S
C175 H195 0.930 . S
C176 N174 1.375 . S
C176 C175 1.338 . S
C176 H180 0.931 . S
C177 N174 1.313 . S
C177 N178 1.344 . S
C177 H181 0.930 . S
N178 C175 1.377 . S
N178 C177 1.344 . S
O179 Co171 2.055 . S
O179 C183 1.253 . S
H180 C176 0.931 . S
H181 C177 0.930 . S
O182 Co171 2.039 . S
O182 C172 1.265 . S
C183 O179 1.253 . S
C183 O184 1.227 . S
O184 C183 1.227 . S
N185 Co171 2.140 . S
N185 C188 1.346 . S
N185 C189 1.345 . S
C186 C187 1.387 . S
C186 C190 1.391 . S
C187 C186 1.387 . S
C187 C188 1.369 . S
C187 H196 0.929 . S
C188 N185 1.346 . S
C188 C187 1.369 . S
C188 H191 0.928 . S
C189 N185 1.345 . S
C189 C190 1.371 . S
C189 H192 0.931 . S
C190 C186 1.391 . S
C190 C189 1.371 . S
C190 H197 0.930 . S
H191 C188 0.928 . S
H192 C189 0.931 . S
H193 C169 0.930 . S
H194 C166 0.930 . S
H195 C175 0.930 . S
H196 C187 0.929 . S
H197 C190 0.930 . S
C198 C199 1.351 . S
C198 N201 1.368 . S
C198 H203 0.931 . S
C199 C198 1.351 . S
C199 N200 1.373 . S
C199 H227 0.930 . S
N200 C199 1.373 . S
N200 C202 1.340 . S
N201 C198 1.368 . S
N201 C202 1.321 . S
N201 Co204 2.135 . S
C202 N200 1.340 . S
C202 N201 1.321 . S
C202 H226 0.930 . S
H203 C198 0.931 . S
Co204 N201 2.135 . S
Co204 N207 2.121 . S
Co204 O212 2.055 . S
Co204 O215 2.039 . S
Co204 N218 2.140 . S
C205 O206 1.227 . S
C205 O215 1.265 . S
O206 C205 1.227 . S
N207 Co204 2.121 . S
N207 C209 1.375 . S
N207 C210 1.313 . S
C208 C209 1.338 . S
C208 N211 1.377 . S
C208 H228 0.930 . S
C209 N207 1.375 . S
C209 C208 1.338 . S
C209 H213 0.931 . S
C210 N207 1.313 . S
C210 N211 1.344 . S
C210 H214 0.930 . S
N211 C208 1.377 . S
N211 C210 1.344 . S
O212 Co204 2.055 . S
O212 C216 1.253 . S
H213 C209 0.931 . S
H214 C210 0.930 . S
O215 Co204 2.039 . S
O215 C205 1.265 . S
C216 O212 1.253 . S
C216 O217 1.227 . S
O217 C216 1.227 . S
N218 Co204 2.140 . S
N218 C221 1.346 . S
N218 C222 1.345 . S
C219 C220 1.387 . S
C219 C223 1.391 . S
C220 C219 1.387 . S
C220 C221 1.369 . S
C220 H229 0.929 . S
C221 N218 1.346 . S
C221 C220 1.369 . S
C221 H224 0.928 . S
C222 N218 1.345 . S
C222 C223 1.371 . S
C222 H225 0.931 . S
C223 C219 1.391 . S
C223 C222 1.371 . S
C223 H230 0.930 . S
H224 C221 0.928 . S
H225 C222 0.931 . S
H226 C202 0.930 . S
H227 C199 0.930 . S
H228 C208 0.930 . S
H229 C220 0.929 . S
H230 C223 0.930 . S
C231 C232 1.351 . S
C231 N234 1.368 . S
C231 H236 0.931 . S
C232 C231 1.351 . S
C232 N233 1.373 . S
C232 H260 0.930 . S
N233 C232 1.373 . S
N233 C235 1.340 . S
N234 C231 1.368 . S
N234 C235 1.321 . S
N234 Co237 2.135 . S
C235 N233 1.340 . S
C235 N234 1.321 . S
C235 H259 0.930 . S
H236 C231 0.931 . S
Co237 N234 2.135 . S
Co237 N240 2.121 . S
Co237 O245 2.055 . S
Co237 O248 2.039 . S
Co237 N251 2.140 . S
C238 O239 1.227 . S
C238 O248 1.265 . S
O239 C238 1.227 . S
N240 Co237 2.121 . S
N240 C242 1.375 . S
N240 C243 1.313 . S
C241 C242 1.338 . S
C241 N244 1.377 . S
C241 H261 0.930 . S
C242 N240 1.375 . S
C242 C241 1.338 . S
C242 H246 0.931 . S
C243 N240 1.313 . S
C243 N244 1.344 . S
C243 H247 0.930 . S
N244 C241 1.377 . S
N244 C243 1.344 . S
O245 Co237 2.055 . S
O245 C249 1.253 . S
H246 C242 0.931 . S
H247 C243 0.930 . S
O248 Co237 2.039 . S
O248 C238 1.265 . S
C249 O245 1.253 . S
C249 O250 1.227 . S
O250 C249 1.227 . S
N251 Co237 2.140 . S
N251 C254 1.346 . S
N251 C255 1.345 . S
C252 C253 1.387 . S
C252 C256 1.391 . S
C253 C252 1.387 . S
C253 C254 1.369 . S
C253 H262 0.929 . S
C254 N251 1.346 . S
C254 C253 1.369 . S
C254 H257 0.928 . S
C255 N251 1.345 . S
C255 C256 1.371 . S
C255 H258 0.931 . S
C256 C252 1.391 . S
C256 C255 1.371 . S
C256 H263 0.930 . S
H257 C254 0.928 . S
H258 C255 0.931 . S
H259 C235 0.930 . S
H260 C232 0.930 . S
H261 C241 0.930 . S
H262 C253 0.929 . S
H263 C256 0.930 . S
H264 C276 0.930 1_545 S
H265 C278 0.930 . S
H266 C279 0.930 . S
H267 C283 0.959 . S
H268 C283 0.959 . S
H269 C283 0.961 . S
H270 C284 0.960 1_545 S
H271 C284 0.961 . S
H272 C284 0.959 . S
H273 C287 0.929 . S
H274 C288 0.931 . S
H275 C290 0.930 . S
C276 H264 0.930 1_565 S
C276 C277 1.399 . S
C276 C281 1.399 . S
C277 C276 1.399 . S
C277 C278 1.376 . S
C278 H265 0.930 . S
C278 C277 1.376 . S
C278 C279 1.388 . S
C279 H266 0.930 . S
C279 C278 1.388 . S
C279 C280 1.390 . S
C280 C279 1.390 . S
C280 C281 1.394 . S
C280 C286 1.465 . S
C281 C276 1.399 . S
C281 C280 1.394 . S
C281 C282 1.516 . S
C282 C281 1.516 . S
C282 C283 1.502 . S
C282 C284 1.561 . S
C282 C285 1.526 . S
C283 H267 0.959 . S
C283 H268 0.959 . S
C283 H269 0.961 . S
C283 C282 1.502 . S
C284 H270 0.960 1_565 S
C284 H271 0.961 . S
C284 H272 0.959 . S
C284 C282 1.561 . S
C285 C282 1.526 . S
C285 C286 1.396 . S
C285 C290 1.390 . S
C286 C280 1.465 . S
C286 C285 1.396 . S
C286 C287 1.399 . S
C287 H273 0.929 . S
C287 C286 1.399 . S
C287 C288 1.385 . S
C288 H274 0.931 . S
C288 C287 1.385 . S
C288 C289 1.389 . S
C289 C288 1.389 . S
C289 C290 1.387 . S
C290 H275 0.930 . S
C290 C285 1.390 . S
C290 C289 1.387 . S
H291 C303 0.930 . S
H292 C305 0.930 . S
H293 C306 0.930 . S
H294 C310 0.959 . S
H295 C310 0.959 . S
H296 C310 0.961 . S
H297 C311 0.960 . S
H298 C311 0.961 . S
H299 C311 0.959 . S
H300 C314 0.929 . S
H301 C315 0.931 1_455 S
H302 C317 0.930 . S
C303 H291 0.930 . S
C303 C304 1.399 . S
C303 C308 1.399 . S
C304 C303 1.399 . S
C304 C305 1.376 . S
C305 H292 0.930 . S
C305 C304 1.376 . S
C305 C306 1.388 . S
C306 H293 0.930 . S
C306 C305 1.388 . S
C306 C307 1.390 . S
C307 C306 1.390 . S
C307 C308 1.394 . S
C307 C313 1.465 . S
C308 C303 1.399 . S
C308 C307 1.394 . S
C308 C309 1.516 . S
C309 C308 1.516 . S
C309 C310 1.502 . S
C309 C311 1.561 . S
C309 C312 1.526 . S
C310 H294 0.959 . S
C310 H295 0.959 . S
C310 H296 0.961 . S
C310 C309 1.502 . S
C311 H297 0.960 . S
C311 H298 0.961 . S
C311 H299 0.959 . S
C311 C309 1.561 . S
C312 C309 1.526 . S
C312 C313 1.396 . S
C312 C317 1.390 . S
C313 C307 1.465 . S
C313 C312 1.396 . S
C313 C314 1.399 . S
C314 H300 0.929 . S
C314 C313 1.399 . S
C314 C315 1.385 . S
C315 H301 0.931 1_655 S
C315 C314 1.385 . S
C315 C316 1.389 . S
C316 C315 1.389 . S
C316 C317 1.387 . S
C317 H302 0.930 . S
C317 C312 1.390 . S
C317 C316 1.387 . S
H318 C330 0.930 1_565 S
H319 C332 0.930 . S
H320 C333 0.930 . S
H321 C337 0.959 . S
H322 C337 0.959 . S
H323 C337 0.961 . S
H324 C338 0.960 1_565 S
H325 C338 0.961 . S
H326 C338 0.959 . S
H327 C341 0.929 . S
H328 C342 0.931 . S
H329 C344 0.930 . S
C330 H318 0.930 1_545 S
C330 C331 1.399 . S
C330 C335 1.399 . S
C331 C330 1.399 . S
C331 C332 1.376 . S
C332 H319 0.930 . S
C332 C331 1.376 . S
C332 C333 1.388 . S
C333 H320 0.930 . S
C333 C332 1.388 . S
C333 C334 1.390 . S
C334 C333 1.390 . S
C334 C335 1.394 . S
C334 C340 1.465 . S
C335 C330 1.399 . S
C335 C334 1.394 . S
C335 C336 1.516 . S
C336 C335 1.516 . S
C336 C337 1.502 . S
C336 C338 1.561 . S
C336 C339 1.526 . S
C337 H321 0.959 . S
C337 H322 0.959 . S
C337 H323 0.961 . S
C337 C336 1.502 . S
C338 H324 0.960 1_545 S
C338 H325 0.961 . S
C338 H326 0.959 . S
C338 C336 1.561 . S
C339 C336 1.526 . S
C339 C340 1.396 . S
C339 C344 1.390 . S
C340 C334 1.465 . S
C340 C339 1.396 . S
C340 C341 1.399 . S
C341 H327 0.929 . S
C341 C340 1.399 . S
C341 C342 1.385 . S
C342 H328 0.931 . S
C342 C341 1.385 . S
C342 C343 1.389 . S
C343 C342 1.389 . S
C343 C344 1.387 . S
C344 H329 0.930 . S
C344 C339 1.390 . S
C344 C343 1.387 . S
H345 C357 0.930 . S
H346 C359 0.930 . S
H347 C360 0.930 . S
H348 C364 0.959 . S
H349 C364 0.959 1_655 S
H350 C364 0.961 . S
H351 C365 0.960 . S
H352 C365 0.961 . S
H353 C365 0.959 . S
H354 C368 0.929 . S
H355 C369 0.931 . S
H356 C371 0.930 1_655 S
C357 H345 0.930 . S
C357 C358 1.399 . S
C357 C362 1.399 . S
C358 C357 1.399 . S
C358 C359 1.376 . S
C359 H346 0.930 . S
C359 C358 1.376 . S
C359 C360 1.388 . S
C360 H347 0.930 . S
C360 C359 1.388 . S
C360 C361 1.390 . S
C361 C360 1.390 . S
C361 C362 1.394 . S
C361 C367 1.465 . S
C362 C357 1.399 . S
C362 C361 1.394 . S
C362 C363 1.516 . S
C363 C362 1.516 . S
C363 C364 1.502 . S
C363 C365 1.561 . S
C363 C366 1.526 . S
C364 H348 0.959 . S
C364 H349 0.959 1_455 S
C364 H350 0.961 . S
C364 C363 1.502 . S
C365 H351 0.960 . S
C365 H352 0.961 . S
C365 H353 0.959 . S
C365 C363 1.561 . S
C366 C363 1.526 . S
C366 C367 1.396 . S
C366 C371 1.390 . S
C367 C361 1.465 . S
C367 C366 1.396 . S
C367 C368 1.399 . S
C368 H354 0.929 . S
C368 C367 1.399 . S
C368 C369 1.385 . S
C369 H355 0.931 . S
C369 C368 1.385 . S
C369 C370 1.389 . S
C370 C369 1.389 . S
C370 C371 1.387 . S
C371 H356 0.930 1_455 S
C371 C366 1.390 . S
C371 C370 1.387 . S
H372 C384 0.930 . S
H373 C386 0.930 . S
H374 C387 0.930 1_554 S
H375 C391 0.959 . S
H376 C391 0.959 . S
H377 C391 0.961 . S
H378 C392 0.960 . S
H379 C392 0.961 1_545 S
H380 C392 0.959 . S
H381 C395 0.929 . S
H382 C396 0.931 . S
H383 C398 0.930 1_545 S
C384 H372 0.930 . S
C384 C385 1.399 . S
C384 C389 1.399 . S
C385 C384 1.399 . S
C385 C386 1.376 . S
C386 H373 0.930 . S
C386 C385 1.376 . S
C386 C387 1.388 . S
C387 H374 0.930 1_556 S
C387 C386 1.388 . S
C387 C388 1.390 . S
C388 C387 1.390 . S
C388 C389 1.394 . S
C388 C394 1.465 1_556 S
C389 C384 1.399 . S
C389 C388 1.394 . S
C389 C390 1.516 . S
C390 C389 1.516 . S
C390 C391 1.502 . S
C390 C392 1.561 . S
C390 C393 1.526 . S
C391 H375 0.959 . S
C391 H376 0.959 . S
C391 H377 0.961 . S
C391 C390 1.502 . S
C392 H378 0.960 . S
C392 H379 0.961 1_565 S
C392 H380 0.959 . S
C392 C390 1.561 . S
C393 C390 1.526 . S
C393 C394 1.396 1_556 S
C393 C398 1.390 1_556 S
C394 C388 1.465 1_554 S
C394 C393 1.396 1_554 S
C394 C395 1.399 . S
C395 H381 0.929 . S
C395 C394 1.399 . S
C395 C396 1.385 . S
C396 H382 0.931 . S
C396 C395 1.385 . S
C396 C397 1.389 . S
C397 C396 1.389 . S
C397 C398 1.387 . S
C398 H383 0.930 1_565 S
C398 C393 1.390 1_554 S
C398 C397 1.387 . S
H399 C411 0.930 . S
H400 C413 0.930 . S
H401 C414 0.930 . S
H402 C418 0.959 . S
H403 C418 0.959 . S
H404 C418 0.961 . S
H405 C419 0.960 . S
H406 C419 0.961 . S
H407 C419 0.959 . S
H408 C422 0.929 1_554 S
H409 C423 0.931 . S
H410 C425 0.930 . S
C411 H399 0.930 . S
C411 C412 1.399 . S
C411 C416 1.399 . S
C412 C411 1.399 . S
C412 C413 1.376 . S
C413 H400 0.930 . S
C413 C412 1.376 . S
C413 C414 1.388 . S
C414 H401 0.930 . S
C414 C413 1.388 . S
C414 C415 1.390 . S
C415 C414 1.390 . S
C415 C416 1.394 . S
C415 C421 1.465 . S
C416 C411 1.399 . S
C416 C415 1.394 . S
C416 C417 1.516 . S
C417 C416 1.516 . S
C417 C418 1.502 1_554 S
C417 C419 1.561 . S
C417 C420 1.526 1_554 S
C418 H402 0.959 . S
C418 H403 0.959 . S
C418 H404 0.961 . S
C418 C417 1.502 1_556 S
C419 H405 0.960 . S
C419 H406 0.961 . S
C419 H407 0.959 . S
C419 C417 1.561 . S
C420 C417 1.526 1_556 S
C420 C421 1.396 1_556 S
C420 C425 1.390 . S
C421 C415 1.465 . S
C421 C420 1.396 1_554 S
C421 C422 1.399 1_554 S
C422 H408 0.929 1_556 S
C422 C421 1.399 1_556 S
C422 C423 1.385 . S
C423 H409 0.931 . S
C423 C422 1.385 . S
C423 C424 1.389 . S
C424 C423 1.389 . S
C424 C425 1.387 . S
C425 H410 0.930 . S
C425 C420 1.390 . S
C425 C424 1.387 . S
H426 C438 0.930 . S
H427 C440 0.930 . S
H428 C441 0.930 . S
H429 C445 0.959 . S
H430 C445 0.959 . S
H431 C445 0.961 . S
H432 C446 0.960 . S
H433 C446 0.961 1_565 S
H434 C446 0.959 . S
H435 C449 0.929 . S
H436 C450 0.931 . S
H437 C452 0.930 1_565 S
C438 H426 0.930 . S
C438 C439 1.399 . S
C438 C443 1.399 . S
C439 C438 1.399 . S
C439 C440 1.376 . S
C440 H427 0.930 . S
C440 C439 1.376 . S
C440 C441 1.388 . S
C441 H428 0.930 . S
C441 C440 1.388 . S
C441 C442 1.390 . S
C442 C441 1.390 . S
C442 C443 1.394 . S
C442 C448 1.465 1_556 S
C443 C438 1.399 . S
C443 C442 1.394 . S
C443 C444 1.516 . S
C444 C443 1.516 . S
C444 C445 1.502 . S
C444 C446 1.561 . S
C444 C447 1.560 . S
C445 H429 0.959 . S
C445 H430 0.959 . S
C445 H431 0.961 . S
C445 C444 1.502 . S
C446 H432 0.960 . S
C446 H433 0.961 1_545 S
C446 H434 0.959 . S
C446 C444 1.561 . S
C447 C444 1.560 . S
C447 C448 1.388 1_556 S
C447 C452 1.366 1_556 S
C448 C442 1.465 1_554 S
C448 C447 1.388 1_554 S
C448 C449 1.399 . S
C449 H435 0.929 . S
C449 C448 1.399 . S
C449 C450 1.385 . S
C450 H436 0.931 . S
C450 C449 1.385 . S
C450 C451 1.389 . S
C451 C450 1.389 . S
C451 C452 1.387 . S
C452 H437 0.930 1_545 S
C452 C447 1.366 1_554 S
C452 C451 1.387 . S
H453 C465 0.930 . S
H454 C467 0.930 . S
H455 C468 0.930 . S
H456 C472 0.959 . S
H457 C472 0.959 . S
H458 C472 0.961 . S
H459 C473 0.960 . S
H460 C473 0.986 . S
H461 C473 0.959 . S
H462 C476 0.929 . S
H463 C477 0.931 . S
H464 C479 0.930 . S
C465 H453 0.930 . S
C465 C466 1.399 . S
C465 C470 1.399 . S
C466 C465 1.399 . S
C466 C467 1.376 . S
C467 H454 0.930 . S
C467 C466 1.376 . S
C467 C468 1.388 . S
C468 H455 0.930 . S
C468 C467 1.388 . S
C468 C469 1.390 . S
C469 C468 1.390 . S
C469 C470 1.394 . S
C469 C475 1.465 1_556 S
C470 C465 1.399 . S
C470 C469 1.394 . S
C470 C471 1.516 1_556 S
C471 C470 1.516 1_554 S
C471 C472 1.502 . S
C471 C473 1.561 1_554 S
C471 C474 1.526 . S
C472 H456 0.959 . S
C472 H457 0.959 . S
C472 H458 0.961 . S
C472 C471 1.502 . S
C473 H459 0.960 . S
C473 H460 0.986 . S
C473 H461 0.959 . S
C473 C471 1.561 1_556 S
C474 C471 1.526 . S
C474 C475 1.396 . S
C474 C479 1.390 . S
C475 C469 1.465 1_554 S
C475 C474 1.396 . S
C475 C476 1.399 . S
C476 H462 0.929 . S
C476 C475 1.399 . S
C476 C477 1.385 . S
C477 H463 0.931 . S
C477 C476 1.385 . S
C477 C478 1.389 . S
C478 C477 1.389 . S
C478 C479 1.387 . S
C479 H464 0.930 . S
C479 C474 1.390 . S
C479 C478 1.387 . S
H480 C492 0.930 . S
H481 C494 0.930 . S
H482 C495 0.930 . S
H483 C499 0.959 . S
H484 C499 0.959 . S
H485 C499 0.961 . S
H486 C500 0.960 . S
H487 C500 0.961 . S
H488 C500 0.959 . S
H489 C503 0.929 . S
H490 C504 0.931 . S
H491 C506 0.930 . S
C492 H480 0.930 . S
C492 C493 1.399 . S
C492 C497 1.399 . S
C493 C492 1.399 . S
C493 C494 1.376 . S
C494 H481 0.930 . S
C494 C493 1.376 . S
C494 C495 1.388 . S
C495 H482 0.930 . S
C495 C494 1.388 . S
C495 C496 1.390 . S
C496 C495 1.390 . S
C496 C497 1.394 . S
C496 C502 1.465 1_565 S
C497 C492 1.399 . S
C497 C496 1.394 . S
C497 C498 1.516 . S
C498 C497 1.516 . S
C498 C499 1.502 . S
C498 C500 1.561 1_565 S
C498 C501 1.526 1_565 S
C499 H483 0.959 . S
C499 H484 0.959 . S
C499 H485 0.961 . S
C499 C498 1.502 . S
C500 H486 0.960 . S
C500 H487 0.961 . S
C500 H488 0.959 . S
C500 C498 1.561 1_545 S
C501 C498 1.526 1_545 S
C501 C502 1.396 . S
C501 C506 1.390 . S
C502 C496 1.465 1_545 S
C502 C501 1.396 . S
C502 C503 1.399 . S
C503 H489 0.929 . S
C503 C502 1.399 . S
C503 C504 1.385 . S
C504 H490 0.931 . S
C504 C503 1.385 . S
C504 C505 1.389 . S
C505 C504 1.389 . S
C505 C506 1.387 . S
C506 H491 0.930 . S
C506 C501 1.390 . S
C506 C505 1.387 . S
H507 C519 0.930 . S
H508 C521 0.930 . S
H509 C522 0.930 . S
H510 C526 0.959 . S
H511 C526 0.959 . S
H512 C526 0.961 . S
H513 C527 0.960 . S
H514 C527 0.961 . S
H515 C527 0.959 . S
H516 C530 0.929 . S
H517 C531 0.931 . S
H518 C533 0.930 . S
C519 H507 0.930 . S
C519 C520 1.399 . S
C519 C524 1.399 . S
C520 C519 1.399 . S
C520 C521 1.376 . S
C521 H508 0.930 . S
C521 C520 1.376 . S
C521 C522 1.388 . S
C522 H509 0.930 . S
C522 C521 1.388 . S
C522 C523 1.390 . S
C523 C522 1.390 . S
C523 C524 1.394 . S
C523 C529 1.465 1_455 S
C524 C519 1.399 . S
C524 C523 1.394 . S
C524 C525 1.516 1_455 S
C525 C524 1.516 1_655 S
C525 C526 1.502 . S
C525 C527 1.561 1_655 S
C525 C528 1.526 . S
C526 H510 0.959 . S
C526 H511 0.959 . S
C526 H512 0.961 . S
C526 C525 1.502 . S
C527 H513 0.960 . S
C527 H514 0.961 . S
C527 H515 0.959 . S
C527 C525 1.561 1_455 S
C528 C525 1.526 . S
C528 C529 1.396 . S
C528 C533 1.390 . S
C529 C523 1.465 1_655 S
C529 C528 1.396 . S
C529 C530 1.399 . S
C530 H516 0.929 . S
C530 C529 1.399 . S
C530 C531 1.385 . S
C531 H517 0.931 . S
C531 C530 1.385 . S
C531 C532 1.389 . S
C532 C531 1.389 . S
C532 C533 1.387 . S
C533 H518 0.930 . S
C533 C528 1.390 . S
C533 C532 1.387 . S
H534 C546 0.930 . S
H535 C548 0.930 . S
H536 C549 0.930 . S
H537 C553 0.959 . S
H538 C553 0.959 . S
H539 C553 0.961 . S
H540 C554 0.960 . S
H541 C554 0.961 . S
H542 C554 0.959 . S
H543 C557 0.929 . S
H544 C558 0.931 . S
H545 C560 0.930 . S
C546 H534 0.930 . S
C546 C547 1.399 . S
C546 C551 1.399 . S
C547 C546 1.399 . S
C547 C548 1.376 . S
C548 H535 0.930 . S
C548 C547 1.376 . S
C548 C549 1.388 . S
C549 H536 0.930 . S
C549 C548 1.388 . S
C549 C550 1.390 . S
C550 C549 1.390 . S
C550 C551 1.394 . S
C550 C556 1.465 1_545 S
C551 C546 1.399 . S
C551 C550 1.394 . S
C551 C552 1.516 1_545 S
C552 C551 1.516 1_565 S
C552 C553 1.502 1_565 S
C552 C554 1.561 . S
C552 C555 1.526 . S
C553 H537 0.959 . S
C553 H538 0.959 . S
C553 H539 0.961 . S
C553 C552 1.502 1_545 S
C554 H540 0.960 . S
C554 H541 0.961 . S
C554 H542 0.959 . S
C554 C552 1.561 . S
C555 C552 1.526 . S
C555 C556 1.396 . S
C555 C560 1.390 . S
C556 C550 1.465 1_565 S
C556 C555 1.396 . S
C556 C557 1.399 . S
C557 H543 0.929 . S
C557 C556 1.399 . S
C557 C558 1.385 . S
C558 H544 0.931 . S
C558 C557 1.385 . S
C558 C559 1.389 . S
C559 C558 1.389 . S
C559 C560 1.387 . S
C560 H545 0.930 . S
C560 C555 1.390 . S
C560 C559 1.387 . S
H561 C573 0.930 . S
H562 C575 0.930 . S
H563 C576 0.930 1_655 S
H564 C580 0.959 . S
H565 C580 0.959 . S
H566 C580 0.961 . S
H567 C581 0.960 1_455 S
H568 C581 0.961 . S
H569 C581 0.959 . S
H570 C584 0.929 . S
H571 C585 0.931 . S
H572 C587 0.930 . S
C573 H561 0.930 . S
C573 C574 1.399 . S
C573 C578 1.399 . S
C574 C573 1.399 . S
C574 C575 1.376 . S
C575 H562 0.930 . S
C575 C574 1.376 . S
C575 C576 1.388 . S
C576 H563 0.930 1_455 S
C576 C575 1.388 . S
C576 C577 1.390 . S
C577 C576 1.390 . S
C577 C578 1.400 . S
C577 C583 1.459 1_455 S
C578 C573 1.399 . S
C578 C577 1.400 . S
C578 C579 1.516 . S
C579 C578 1.516 . S
C579 C580 1.502 . S
C579 C581 1.561 1_455 S
C579 C582 1.526 1_455 S
C580 H564 0.959 . S
C580 H565 0.959 . S
C580 H566 0.961 . S
C580 C579 1.502 . S
C581 H567 0.960 1_655 S
C581 H568 0.961 . S
C581 H569 0.959 . S
C581 C579 1.561 1_655 S
C582 C579 1.526 1_655 S
C582 C583 1.396 . S
C582 C587 1.390 . S
C583 C577 1.459 1_655 S
C583 C582 1.396 . S
C583 C584 1.399 . S
C584 H570 0.929 . S
C584 C583 1.399 . S
C584 C585 1.385 . S
C585 H571 0.931 . S
C585 C584 1.385 . S
C585 C586 1.389 . S
C586 C585 1.389 . S
C586 C587 1.387 . S
C587 H572 0.930 . S
C587 C582 1.390 . S
C587 C586 1.387 . S
H588 C600 0.930 . S
H589 C602 0.930 1_565 S
H590 C603 0.930 . S
H591 C607 0.959 . S
H592 C607 0.959 . S
H593 C607 0.961 1_455 S
H594 C608 0.966 . S
H595 C608 0.961 1_655 S
H596 C608 0.959 . S
H597 C611 0.929 . S
H598 C612 0.931 . S
H599 C614 0.930 . S
C600 H588 0.930 . S
C600 C601 1.399 . S
C600 C605 1.399 . S
C601 C600 1.399 . S
C601 C602 1.376 . S
C602 H589 0.930 1_545 S
C602 C601 1.376 . S
C602 C603 1.388 1_545 S
C603 H590 0.930 . S
C603 C602 1.388 1_565 S
C603 C604 1.390 . S
C604 C603 1.390 . S
C604 C605 1.394 1_565 S
C604 C610 1.465 1_455 S
C605 C600 1.399 . S
C605 C604 1.394 1_545 S
C605 C606 1.516 1_455 S
C606 C605 1.516 1_655 S
C606 C607 1.502 . S
C606 C608 1.561 1_645 S
C606 C609 1.526 1_545 S
C607 H591 0.959 . S
C607 H592 0.959 . S
C607 H593 0.961 1_655 S
C607 C606 1.502 . S
C608 H594 0.966 . S
C608 H595 0.961 1_455 S
C608 H596 0.959 . S
C608 C606 1.561 1_465 S
C609 C606 1.526 1_565 S
C609 C610 1.396 . S
C609 C614 1.390 . S
C610 C604 1.465 1_655 S
C610 C609 1.396 . S
C610 C611 1.399 . S
C611 H597 0.929 . S
C611 C610 1.399 . S
C611 C612 1.385 . S
C612 H598 0.931 . S
C612 C611 1.385 . S
C612 C613 1.389 . S
C613 C612 1.389 . S
C613 C614 1.387 . S
C614 H599 0.930 . S
C614 C609 1.390 . S
C614 C613 1.387 . S
H615 C627 0.930 1_655 S
H616 C629 0.930 . S
H617 C630 0.930 . S
H618 C634 0.959 . S
H619 C634 0.959 1_545 S
H620 C634 0.961 . S
H621 C635 0.942 1_565 S
H622 C635 0.975 1_655 S
H623 C635 0.967 . S
H624 C638 0.929 . S
H625 C639 0.931 1_455 S
H626 C641 0.930 . S
C627 H615 0.930 1_455 S
C627 C628 1.399 . S
C627 C632 1.399 . S
C628 C627 1.399 . S
C628 C629 1.376 . S
C629 H616 0.930 . S
C629 C628 1.376 . S
C629 C630 1.388 . S
C630 H617 0.930 . S
C630 C629 1.388 . S
C630 C631 1.390 . S
C631 C630 1.390 . S
C631 C632 1.394 . S
C631 C637 1.465 1_565 S
C632 C627 1.399 . S
C632 C631 1.394 . S
C632 C633 1.516 1_455 S
C633 C632 1.516 1_655 S
C633 C634 1.502 . S
C633 C635 1.558 1_665 S
C633 C636 1.526 1_565 S
C634 H618 0.959 . S
C634 H619 0.959 1_565 S
C634 H620 0.961 . S
C634 C633 1.502 . S
C635 H621 0.942 1_545 S
C635 H622 0.975 1_455 S
C635 H623 0.967 . S
C635 C633 1.558 1_445 S
C636 C633 1.526 1_545 S
C636 C637 1.396 1_655 S
C636 C641 1.390 . S
C637 C631 1.465 1_545 S
C637 C636 1.396 1_455 S
C637 C638 1.399 . S
C638 H624 0.929 . S
C638 C637 1.399 . S
C638 C639 1.385 1_455 S
C639 H625 0.931 1_655 S
C639 C638 1.385 1_655 S
C639 C640 1.389 . S
C640 C639 1.389 . S
C640 C641 1.387 . S
C641 H626 0.930 . S
C641 C636 1.390 . S
C641 C640 1.387 . S
H642 C654 0.930 . S
H643 C656 0.930 . S
H644 C657 0.930 . S
H645 C661 0.959 . S
H646 C661 0.959 . S
H647 C661 0.961 . S
H648 C662 0.960 1_455 S
H649 C662 0.961 . S
H650 C662 0.959 . S
H651 C665 0.929 . S
H652 C666 0.931 . S
H653 C668 0.930 . S
C654 H642 0.930 . S
C654 C655 1.399 . S
C654 C659 1.399 . S
C655 C654 1.399 . S
C655 C656 1.376 1_565 S
C656 H643 0.930 . S
C656 C655 1.376 1_545 S
C656 C657 1.388 . S
C657 H644 0.930 . S
C657 C656 1.388 . S
C657 C658 1.390 . S
C658 C657 1.390 . S
C658 C659 1.394 1_545 S
C658 C664 1.465 1_455 S
C659 C654 1.399 . S
C659 C658 1.394 1_565 S
C659 C660 1.516 1_455 S
C660 C659 1.516 1_655 S
C660 C661 1.502 . S
C660 C662 1.561 . S
C660 C663 1.526 . S
C661 H645 0.959 . S
C661 H646 0.959 . S
C661 H647 0.961 . S
C661 C660 1.502 . S
C662 H648 0.960 1_655 S
C662 H649 0.961 . S
C662 H650 0.959 . S
C662 C660 1.561 . S
C663 C660 1.526 . S
C663 C664 1.396 1_565 S
C663 C668 1.390 . S
C664 C658 1.465 1_655 S
C664 C663 1.396 1_545 S
C664 C665 1.399 . S
C665 H651 0.929 . S
C665 C664 1.399 . S
C665 C666 1.385 . S
C666 H652 0.931 . S
C666 C665 1.385 . S
C666 C667 1.389 . S
C667 C666 1.389 . S
C667 C668 1.387 1_545 S
C668 H653 0.930 . S
C668 C663 1.390 . S
C668 C667 1.387 1_565 S
H669 C681 0.930 1_455 S
H670 C683 0.930 . S
H671 C684 0.930 . S
H672 C688 0.959 . S
H673 C688 0.959 1_545 S
H674 C688 0.961 . S
H675 C689 0.957 1_665 S
H676 C689 0.967 . S
H677 C689 0.954 1_655 S
H678 C692 0.929 . S
H679 C693 0.931 1_655 S
H680 C695 0.930 . S
C681 H669 0.930 1_655 S
C681 C682 1.399 . S
C681 C686 1.399 . S
C682 C681 1.399 . S
C682 C683 1.376 . S
C683 H670 0.930 . S
C683 C682 1.376 . S
C683 C684 1.388 . S
C684 H671 0.930 . S
C684 C683 1.388 . S
C684 C685 1.390 . S
C685 C684 1.390 . S
C685 C686 1.394 . S
C685 C691 1.465 1_565 S
C686 C681 1.399 . S
C686 C685 1.394 . S
C686 C687 1.516 1_655 S
C687 C686 1.516 1_455 S
C687 C688 1.502 . S
C687 C689 1.564 1_565 S
C687 C690 1.526 1_565 S
C688 H672 0.959 . S
C688 H673 0.959 1_565 S
C688 H674 0.961 . S
C688 C687 1.502 . S
C689 H675 0.957 1_445 S
C689 H676 0.967 . S
C689 H677 0.954 1_455 S
C689 C687 1.564 1_545 S
C690 C687 1.526 1_545 S
C690 C691 1.396 1_455 S
C690 C695 1.390 . S
C691 C685 1.465 1_545 S
C691 C690 1.396 1_655 S
C691 C692 1.399 . S
C692 H678 0.929 . S
C692 C691 1.399 . S
C692 C693 1.385 1_655 S
C693 H679 0.931 1_455 S
C693 C692 1.385 1_455 S
C693 C694 1.390 . S
C694 C693 1.390 . S
C694 C695 1.387 . S
C695 H680 0.930 . S
C695 C690 1.390 . S
C695 C694 1.387 . S
H696 C708 0.930 . S
H697 C710 0.930 . S
H698 C711 0.930 . S
H699 C715 0.959 . S
H700 C715 0.959 . S
H701 C715 0.961 . S
H702 C716 0.960 . S
H703 C716 0.961 . S
H704 C716 0.959 . S
H705 C719 0.929 . S
H706 C720 0.931 . S
H707 C722 0.930 . S
C708 H696 0.930 . S
C708 C709 1.399 . S
C708 C713 1.399 . S
C709 C708 1.399 . S
C709 C710 1.376 . S
C710 H697 0.930 . S
C710 C709 1.376 . S
C710 C711 1.388 . S
C711 H698 0.930 . S
C711 C710 1.388 . S
C711 C712 1.390 . S
C712 C711 1.390 . S
C712 C713 1.394 . S
C712 C718 1.465 . S
C713 C708 1.399 . S
C713 C712 1.394 . S
C713 C714 1.516 . S
C714 C713 1.516 . S
C714 C715 1.502 . S
C714 C716 1.561 . S
C714 C717 1.526 . S
C715 H699 0.959 . S
C715 H700 0.959 . S
C715 H701 0.961 . S
C715 C714 1.502 . S
C716 H702 0.960 . S
C716 H703 0.961 . S
C716 H704 0.959 . S
C716 C714 1.561 . S
C717 C714 1.526 . S
C717 C718 1.396 . S
C717 C722 1.390 . S
C718 C712 1.465 . S
C718 C717 1.396 . S
C718 C719 1.399 . S
C719 H705 0.929 . S
C719 C718 1.399 . S
C719 C720 1.385 . S
C720 H706 0.931 . S
C720 C719 1.385 . S
C720 C721 1.389 . S
C721 C720 1.389 . S
C721 C722 1.387 . S
C722 H707 0.930 . S
C722 C717 1.390 . S
C722 C721 1.387 . S
H723 C735 0.930 . S
H724 C737 0.930 . S
H725 C738 0.930 . S
H726 C742 0.959 . S
H727 C742 0.959 . S
H728 C742 0.961 . S
H729 C743 0.960 . S
H730 C743 0.961 . S
H731 C743 0.959 . S
H732 C746 0.929 . S
H733 C747 0.931 . S
H734 C749 0.930 . S
C735 H723 0.930 . S
C735 C736 1.399 . S
C735 C740 1.399 . S
C736 C735 1.399 . S
C736 C737 1.376 . S
C737 H724 0.930 . S
C737 C736 1.376 . S
C737 C738 1.388 . S
C738 H725 0.930 . S
C738 C737 1.388 . S
C738 C739 1.390 . S
C739 C738 1.390 . S
C739 C740 1.394 . S
C739 C745 1.465 . S
C740 C735 1.399 . S
C740 C739 1.394 . S
C740 C741 1.516 . S
C741 C740 1.516 . S
C741 C742 1.502 . S
C741 C743 1.561 . S
C741 C744 1.526 . S
C742 H726 0.959 . S
C742 H727 0.959 . S
C742 H728 0.961 . S
C742 C741 1.502 . S
C743 H729 0.960 . S
C743 H730 0.961 . S
C743 H731 0.959 . S
C743 C741 1.561 . S
C744 C741 1.526 . S
C744 C745 1.396 . S
C744 C749 1.390 . S
C745 C739 1.465 . S
C745 C744 1.396 . S
C745 C746 1.399 . S
C746 H732 0.929 . S
C746 C745 1.399 . S
C746 C747 1.385 . S
C747 H733 0.931 . S
C747 C746 1.385 . S
C747 C748 1.389 . S
C748 C747 1.389 . S
C748 C749 1.387 . S
C749 H734 0.930 . S
C749 C744 1.390 . S
C749 C748 1.387 . S
H750 C762 0.930 . S
H751 C764 0.930 . S
H752 C765 0.930 . S
H753 C769 0.959 . S
H754 C769 0.959 . S
H755 C769 0.961 . S
H756 C770 0.960 . S
H757 C770 0.961 . S
H758 C770 0.959 . S
H759 C773 0.929 . S
H760 C774 0.931 . S
H761 C776 0.930 . S
C762 H750 0.930 . S
C762 C763 1.399 . S
C762 C767 1.399 . S
C763 C762 1.399 . S
C763 C764 1.376 . S
C764 H751 0.930 . S
C764 C763 1.376 . S
C764 C765 1.388 . S
C765 H752 0.930 . S
C765 C764 1.388 . S
C765 C766 1.390 . S
C766 C765 1.390 . S
C766 C767 1.394 . S
C766 C772 1.465 . S
C767 C762 1.399 . S
C767 C766 1.394 . S
C767 C768 1.516 . S
C768 C767 1.516 . S
C768 C769 1.502 . S
C768 C770 1.561 . S
C768 C771 1.526 . S
C769 H753 0.959 . S
C769 H754 0.959 . S
C769 H755 0.961 . S
C769 C768 1.502 . S
C770 H756 0.960 . S
C770 H757 0.961 . S
C770 H758 0.959 . S
C770 C768 1.561 . S
C771 C768 1.526 . S
C771 C772 1.396 . S
C771 C776 1.390 . S
C772 C766 1.465 . S
C772 C771 1.396 . S
C772 C773 1.399 . S
C773 H759 0.929 . S
C773 C772 1.399 . S
C773 C774 1.385 . S
C774 H760 0.931 . S
C774 C773 1.385 . S
C774 C775 1.389 . S
C775 C774 1.389 . S
C775 C776 1.387 . S
C776 H761 0.930 . S
C776 C771 1.390 . S
C776 C775 1.387 . S
H777 C789 0.930 . S
H778 C791 0.930 . S
H779 C792 0.930 . S
H780 C796 0.959 . S
H781 C796 0.959 . S
H782 C796 0.961 . S
H783 C797 0.960 . S
H784 C797 0.961 . S
H785 C797 0.959 . S
H786 C800 0.929 . S
H787 C801 0.931 . S
H788 C803 0.930 . S
C789 H777 0.930 . S
C789 C790 1.399 . S
C789 C794 1.399 . S
C790 C789 1.399 . S
C790 C791 1.376 . S
C791 H778 0.930 . S
C791 C790 1.376 . S
C791 C792 1.388 . S
C792 H779 0.930 . S
C792 C791 1.388 . S
C792 C793 1.390 . S
C793 C792 1.390 . S
C793 C794 1.394 . S
C793 C799 1.465 . S
C794 C789 1.399 . S
C794 C793 1.394 . S
C794 C795 1.516 . S
C795 C794 1.516 . S
C795 C796 1.502 . S
C795 C797 1.561 . S
C795 C798 1.526 . S
C796 H780 0.959 . S
C796 H781 0.959 . S
C796 H782 0.961 . S
C796 C795 1.502 . S
C797 H783 0.960 . S
C797 H784 0.961 . S
C797 H785 0.959 . S
C797 C795 1.561 . S
C798 C795 1.526 . S
C798 C799 1.396 . S
C798 C803 1.390 . S
C799 C793 1.465 . S
C799 C798 1.396 . S
C799 C800 1.399 . S
C800 H786 0.929 . S
C800 C799 1.399 . S
C800 C801 1.385 . S
C801 H787 0.931 . S
C801 C800 1.385 . S
C801 C802 1.389 . S
C802 C801 1.389 . S
C802 C803 1.387 . S
C803 H788 0.930 . S
C803 C798 1.390 . S
C803 C802 1.387 . S
C277 N2 0.920 1_565 S
C289 C54 0.983 . S
C304 C87 0.972 . S
C316 N35 0.926 1_655 S
C331 N68 0.921 1_545 S
C343 C120 0.980 . S
C358 C21 0.907 . S
C370 N101 1.002 1_455 S
C385 C252 1.003 . S
C397 N134 0.932 1_565 S
C412 C153 0.804 . S
C424 N167 1.042 1_655 S
C439 C186 1.011 . S
C451 N200 0.918 1_545 S
C466 N233 1.026 1_455 S
C478 C219 0.811 . S
C493 C84 1.518 . S
C505 C18 1.543 . S
C520 C51 1.548 . S
C532 C117 1.525 . S
C547 C150 1.549 . S
C559 C216 1.568 . S
C574 C183 1.517 . S
C586 C249 1.551 . S
C601 C7 0.973 . S
C613 C73 0.933 . S
C628 C40 0.906 . S
C640 C106 0.973 . S
C655 C205 0.958 . S
C667 C139 0.866 . S
C682 C238 0.848 . S
C694 C172 0.897 . S
C709 N13 1.704 . S
C721 N178 1.703 . S
C736 N211 1.678 . S
C748 N46 1.647 . S
C763 N244 1.671 . S
C775 N79 1.668 . S
C790 N112 1.613 . S
C802 N145 1.628 . S
