# Generated by pormake.
# Topology qtz-a, (4)-cn, num edge types: 1
# Building blocks:
#     Node 0, Type 0, BuildingBlock: AZAVOO_clean_sbu_0, # of connection points: 4
#     Node 1, Type 0, BuildingBlock: AZAVOO_clean_sbu_0, # of connection points: 4
#     Node 2, Type 0, BuildingBlock: AZAVOO_clean_sbu_0, # of connection points: 4
#     Node 3, Type 0, BuildingBlock: AZAVOO_clean_sbu_0, # of connection points: 4
#     Node 4, Type 0, BuildingBlock: AZAVOO_clean_sbu_0, # of connection points: 4
#     Node 5, Type 0, BuildingBlock: AZAVOO_clean_sbu_0, # of connection points: 4
#     Node 6, Type 0, BuildingBlock: AZAVOO_clean_sbu_0, # of connection points: 4
#     Node 7, Type 0, BuildingBlock: AZAVOO_clean_sbu_0, # of connection points: 4
#     Node 8, Type 0, BuildingBlock: AZAVOO_clean_sbu_0, # of connection points: 4
#     Node 9, Type 0, BuildingBlock: AZAVOO_clean_sbu_0, # of connection points: 4
#     Node 10, Type 0, BuildingBlock: AZAVOO_clean_sbu_0, # of connection points: 4
#     Node 11, Type 0, BuildingBlock: AZAVOO_clean_sbu_0, # of connection points: 4
#     Edge 12, Type (0, 0), BuildingBlock: MIFKUJ_clean_linker_0, # of connection points: 2
#     Edge 13, Type (0, 0), BuildingBlock: MIFKUJ_clean_linker_0, # of connection points: 2
#     Edge 14, Type (0, 0), BuildingBlock: MIFKUJ_clean_linker_0, # of connection points: 2
#     Edge 15, Type (0, 0), BuildingBlock: MIFKUJ_clean_linker_0, # of connection points: 2
#     Edge 16, Type (0, 0), BuildingBlock: MIFKUJ_clean_linker_0, # of connection points: 2
#     Edge 17, Type (0, 0), BuildingBlock: MIFKUJ_clean_linker_0, # of connection points: 2
#     Edge 18, Type (0, 0), BuildingBlock: MIFKUJ_clean_linker_0, # of connection points: 2
#     Edge 19, Type (0, 0), BuildingBlock: MIFKUJ_clean_linker_0, # of connection points: 2
#     Edge 20, Type (0, 0), BuildingBlock: MIFKUJ_clean_linker_0, # of connection points: 2
#     Edge 21, Type (0, 0), BuildingBlock: MIFKUJ_clean_linker_0, # of connection points: 2
#     Edge 22, Type (0, 0), BuildingBlock: MIFKUJ_clean_linker_0, # of connection points: 2
#     Edge 23, Type (0, 0), BuildingBlock: MIFKUJ_clean_linker_0, # of connection points: 2
#     Edge 24, Type (0, 0), BuildingBlock: MIFKUJ_clean_linker_0, # of connection points: 2
#     Edge 25, Type (0, 0), BuildingBlock: MIFKUJ_clean_linker_0, # of connection points: 2
#     Edge 26, Type (0, 0), BuildingBlock: MIFKUJ_clean_linker_0, # of connection points: 2
#     Edge 27, Type (0, 0), BuildingBlock: MIFKUJ_clean_linker_0, # of connection points: 2
#     Edge 28, Type (0, 0), BuildingBlock: MIFKUJ_clean_linker_0, # of connection points: 2
#     Edge 29, Type (0, 0), BuildingBlock: MIFKUJ_clean_linker_0, # of connection points: 2
#     Edge 30, Type (0, 0), BuildingBlock: MIFKUJ_clean_linker_0, # of connection points: 2
#     Edge 31, Type (0, 0), BuildingBlock: MIFKUJ_clean_linker_0, # of connection points: 2
#     Edge 32, Type (0, 0), BuildingBlock: MIFKUJ_clean_linker_0, # of connection points: 2
#     Edge 33, Type (0, 0), BuildingBlock: MIFKUJ_clean_linker_0, # of connection points: 2
#     Edge 34, Type (0, 0), BuildingBlock: MIFKUJ_clean_linker_0, # of connection points: 2
#     Edge 35, Type (0, 0), BuildingBlock: MIFKUJ_clean_linker_0, # of connection points: 2
# Relax obj value: 0.802
# Max RMSD: 0.290
# Mean RMSD: 0.288
data_MOF--net-qtz-a--node1-AZAVOO_clean_sbu_0--edge1-MIFKUJ_clean_linker_0
_symmetry_space_group_name_H-M    P1
_symmetry_Int_Tables_number       1
_symmetry_cell_setting            triclinic
loop_
_symmetry_equiv_pos_as_xyz
'x, y, z'
_cell_length_a     49.028394
_cell_length_b     49.036592
_cell_length_c     64.683739
_cell_angle_alpha  90.029217
_cell_angle_beta   89.977469
_cell_angle_gamma 97.488716
loop_
_atom_site_label
_atom_site_type_symbol
_atom_site_fract_x
_atom_site_fract_y
_atom_site_fract_z
_atom_type_partial_charge
Mg0 Mg 0.46454 0.17839 0.11805 0.0
O1 O 0.48449 0.15718 0.08961 0.0
O2 O 0.46227 0.11421 0.08628 0.0
Mg3 Mg 0.43239 0.10592 0.11307 0.0
C4 C 0.48003 0.13391 0.08009 0.0
C5 C 0.52285 0.20099 0.10178 0.0
O6 O 0.54504 0.20347 0.09021 0.0
O7 O 0.42921 0.18042 0.09532 0.0
O8 O 0.40826 0.13709 0.09731 0.0
O9 O 0.49503 0.16269 0.14106 0.0
O10 O 0.459 0.13774 0.12921 0.0
C11 C 0.40912 0.16193 0.09112 0.0
C12 C 0.48101 0.13892 0.13962 0.0
O13 O 0.5014 0.18517 0.09586 0.0
Mg14 Mg 0.25593 0.45289 0.44834 0.0
O15 O 0.25826 0.49906 0.45992 0.0
O16 O 0.28189 0.4933 0.43295 0.0
Mg17 Mg 0.30598 0.49066 0.40434 0.0
C18 C 0.27409 0.5099 0.44587 0.0
C19 C 0.20325 0.43353 0.48206 0.0
O20 O 0.17717 0.42308 0.48205 0.0
O21 O 0.23396 0.46222 0.4182 0.0
O22 O 0.26054 0.48103 0.39396 0.0
O23 O 0.29451 0.44624 0.46615 0.0
O24 O 0.29722 0.46395 0.43489 0.0
C25 C 0.24887 0.45909 0.40237 0.0
C26 C 0.3098 0.45586 0.45083 0.0
O27 O 0.21499 0.43863 0.46467 0.0
Mg28 Mg 0.9904 0.32363 0.91554 0.0
O29 O 0.98509 0.35813 0.89197 0.0
O30 O 0.01976 0.39186 0.89708 0.0
Mg31 Mg 0.04779 0.37853 0.92254 0.0
C32 C 0.99793 0.38184 0.88753 0.0
C33 C 0.95509 0.26946 0.90647 0.0
O34 O 0.97372 0.26293 0.91952 0.0
O35 O 0.02391 0.3106 0.89472 0.0
O36 O 0.0582 0.34449 0.90067 0.0
O37 O 0.96765 0.34479 0.93929 0.0
O38 O 0.01276 0.35161 0.93508 0.0
C39 C 0.04859 0.32197 0.8918 0.0
C40 C 0.99123 0.35838 0.94406 0.0
O41 O 0.95681 0.29416 0.90012 0.0
Mg42 Mg 0.57048 0.83772 0.10166 0.0
O43 O 0.54546 0.85637 0.07587 0.0
O44 O 0.568 0.8985 0.07031 0.0
Mg45 Mg 0.60433 0.9077 0.09261 0.0
C46 C 0.5485 0.87935 0.06614 0.0
C47 C 0.56127 0.77614 0.10561 0.0
O48 O 0.58815 0.78208 0.10689 0.0
O49 O 0.60377 0.83151 0.07771 0.0
O50 O 0.62505 0.87477 0.07605 0.0
O51 O 0.54523 0.85514 0.12595 0.0
O52 O 0.58385 0.87662 0.11314 0.0
C53 C 0.62337 0.84931 0.07135 0.0
C54 C 0.56276 0.8772 0.12484 0.0
O55 O 0.54771 0.79445 0.0985 0.0
Mg56 Mg 0.65541 0.53283 0.46522 0.0
O57 O 0.66181 0.50415 0.43747 0.0
O58 O 0.63651 0.5193 0.41209 0.0
Mg59 Mg 0.61259 0.55333 0.42284 0.0
C60 C 0.65302 0.50323 0.41879 0.0
C61 C 0.70574 0.54003 0.4938 0.0
O62 O 0.70076 0.56537 0.49058 0.0
O63 O 0.68249 0.56922 0.44997 0.0
O64 O 0.65286 0.58182 0.42664 0.0
O65 O 0.61936 0.5034 0.47598 0.0
O66 O 0.61613 0.53717 0.45406 0.0
C67 C 0.67603 0.58538 0.43588 0.0
C68 C 0.60424 0.51598 0.46377 0.0
O69 O 0.69154 0.52058 0.48404 0.0
Mg70 Mg 0.02247 0.67077 0.92137 0.0
O71 O 0.02895 0.63746 0.8968 0.0
O72 O 0.99222 0.60527 0.89901 0.0
Mg73 Mg 0.96338 0.61703 0.92435 0.0
C74 C 0.0152 0.61479 0.89077 0.0
C75 C 0.06954 0.71531 0.92344 0.0
O76 O 0.06046 0.7104 0.94237 0.0
O77 O 0.99107 0.68626 0.89982 0.0
O78 O 0.95535 0.65348 0.90414 0.0
O79 O 0.0432 0.64842 0.94548 0.0
O80 O 0.99865 0.64126 0.93911 0.0
C81 C 0.96616 0.67624 0.89626 0.0
C82 C 0.01949 0.63423 0.94892 0.0
O83 O 0.05747 0.70135 0.90874 0.0
Mg84 Mg 0.84813 0.5492 0.69082 0.0
O85 O 0.87808 0.53288 0.71376 0.0
O86 O 0.92114 0.55083 0.70612 0.0
Mg87 Mg 0.91806 0.58113 0.67939 0.0
C88 C 0.90398 0.53521 0.71712 0.0
C89 C 0.7905 0.51809 0.70176 0.0
O90 O 0.77103 0.5047 0.71319 0.0
O91 O 0.85213 0.58906 0.70908 0.0
O92 O 0.89515 0.6072 0.70143 0.0
O93 O 0.85519 0.5157 0.66925 0.0
O94 O 0.87942 0.55716 0.66917 0.0
C95 C 0.87236 0.60815 0.71084 0.0
C96 C 0.87601 0.53223 0.66249 0.0
O97 O 0.81207 0.53012 0.71042 0.0
Mg98 Mg 0.32469 0.98843 0.88484 0.0
O99 O 0.3587 0.97396 0.90528 0.0
O100 O 0.39405 0.00779 0.90524 0.0
Mg101 Mg 0.38432 0.04183 0.88314 0.0
C102 C 0.38266 0.98426 0.91138 0.0
C103 C 0.2961 0.92948 0.89371 0.0
O104 O 0.31848 0.9242 0.88415 0.0
O105 O 0.31615 0.01842 0.91055 0.0
O106 O 0.35153 0.05174 0.90601 0.0
O107 O 0.34197 0.96982 0.85683 0.0
O108 O 0.35398 0.0125 0.86729 0.0
C109 C 0.32902 0.04212 0.91483 0.0
C110 C 0.35775 0.99296 0.85479 0.0
O111 O 0.293 0.95436 0.89739 0.0
Mg112 Mg 0.42729 0.28228 0.34402 0.0
O113 O 0.47539 0.29663 0.33772 0.0
O114 O 0.49292 0.32326 0.36442 0.0
Mg115 Mg 0.45992 0.32769 0.38757 0.0
C116 C 0.4955 0.3112 0.34717 0.0
C117 C 0.45332 0.26195 0.30646 0.0
O118 O 0.42934 0.24699 0.30924 0.0
O119 O 0.44084 0.25381 0.36842 0.0
O120 O 0.4607 0.28116 0.39123 0.0
O121 O 0.41602 0.32052 0.32803 0.0
O122 O 0.43423 0.3221 0.35867 0.0
C123 C 0.43879 0.26677 0.38526 0.0
C124 C 0.4256 0.33517 0.34346 0.0
O125 O 0.46144 0.28022 0.31996 0.0
Mg126 Mg 0.16808 0.46225 0.68712 0.0
O127 O 0.13791 0.47855 0.7102 0.0
O128 O 0.09553 0.45769 0.70347 0.0
Mg129 Mg 0.09885 0.42731 0.67686 0.0
C130 C 0.11206 0.47466 0.71397 0.0
C131 C 0.22708 0.49204 0.69545 0.0
O132 O 0.24729 0.50636 0.70561 0.0
O133 O 0.16601 0.42324 0.70661 0.0
O134 O 0.12364 0.4033 0.69876 0.0
O135 O 0.15913 0.49415 0.66451 0.0
O136 O 0.13648 0.4521 0.66613 0.0
C137 C 0.14645 0.40343 0.70834 0.0
C138 C 0.13878 0.47647 0.65845 0.0
O139 O 0.20501 0.48312 0.70501 0.0
Mg140 Mg 0.6709 0.0262 0.87452 0.0
O141 O 0.64102 0.0388 0.89946 0.0
O142 O 0.60263 0.00891 0.89728 0.0
Mg143 Mg 0.60842 0.97625 0.87285 0.0
C144 C 0.61651 0.03011 0.90533 0.0
C145 C 0.70601 0.08229 0.88325 0.0
O146 O 0.68504 0.09018 0.8733 0.0
O147 O 0.68149 0.99131 0.89552 0.0
O148 O 0.64272 0.96204 0.89236 0.0
O149 O 0.64992 0.04979 0.85061 0.0
O150 O 0.63876 0.00571 0.85747 0.0
C151 C 0.66704 0.96824 0.89948 0.0
C152 C 0.63376 0.02712 0.84756 0.0
O153 O 0.7058 0.0569 0.88733 0.0
Mg154 Mg 0.50053 0.67744 0.32102 0.0
O155 O 0.4816 0.66953 0.35345 0.0
O156 O 0.50034 0.6355 0.36854 0.0
Mg157 Mg 0.53383 0.62406 0.34696 0.0
C158 C 0.48344 0.65322 0.36864 0.0
C159 C 0.4714 0.7283 0.30344 0.0
O160 O 0.45734 0.74905 0.30625 0.0
O161 O 0.53921 0.70198 0.33503 0.0
O162 O 0.55676 0.66744 0.35064 0.0
O163 O 0.46999 0.64316 0.30874 0.0
O164 O 0.51121 0.63745 0.32026 0.0
C165 C 0.5575 0.69287 0.34619 0.0
C166 C 0.48754 0.62664 0.31357 0.0
O167 O 0.47892 0.71582 0.31927 0.0
H168 H 0.4585 0.10976 0.04517 0.0
H169 H 0.48274 0.09735 0.01437 0.0
H170 H 0.55977 0.13383 0.0408 0.0
H171 H 0.53503 0.14785 0.07134 0.0
H172 H 0.56158 0.14128 1.00072 0.0
H173 H 0.53609 0.05933 0.04275 0.0
H174 H 0.50269 0.02704 0.06226 0.0
H175 H 0.45337 0.01162 0.00757 0.0
H176 H 0.48643 0.04368 0.98787 0.0
H177 H 0.64202 0.06453 0.93506 0.0
H178 H 0.62048 0.08592 0.96397 0.0
H179 H 0.54038 0.05071 0.94216 0.0
H180 H 0.56181 0.02854 0.91381 0.0
H181 H 0.5422 0.04293 0.98091 0.0
H182 H 0.56716 0.12217 0.93804 0.0
H183 H 0.59859 0.15529 0.91776 0.0
H184 H 0.6469 0.17705 0.97207 0.0
H185 H 0.61595 0.14378 0.99264 0.0
C186 C 0.48059 0.11542 0.04431 0.0
C187 C 0.49496 0.12945 0.06074 0.0
C188 C 0.4945 0.10809 0.02675 0.0
C189 C 0.52332 0.11356 0.02552 0.0
C190 C 0.53759 0.12901 0.04143 0.0
C191 C 0.52348 0.13707 0.05887 0.0
C192 C 0.53836 0.10213 0.00807 0.0
C193 C 0.55764 0.1197 0.99657 0.0
C194 C 0.53292 0.07406 0.00223 0.0
C195 C 0.51361 0.05399 0.01392 0.0
C196 C 0.5181 0.04901 0.03496 0.0
C197 C 0.49924 0.03074 0.04604 0.0
C198 C 0.47588 0.01732 0.03621 0.0
C199 C 0.47145 0.02193 0.01522 0.0
C200 C 0.4903 0.04007 0.00407 0.0
C201 C 0.6198 0.06153 0.93636 0.0
C202 C 0.60366 0.0447 0.92216 0.0
C203 C 0.60747 0.07391 0.95286 0.0
C204 C 0.57869 0.07022 0.95526 0.0
C205 C 0.5626 0.05385 0.9408 0.0
C206 C 0.5749 0.04116 0.92454 0.0
C207 C 0.56519 0.08212 0.97328 0.0
C208 C 0.54628 0.06454 0.98501 0.0
C209 C 0.57085 0.11017 0.97913 0.0
C210 C 0.5894 0.13028 0.96683 0.0
C211 C 0.5846 0.13387 0.94563 0.0
C212 C 0.60231 0.1527 0.93408 0.0
C213 C 0.62477 0.16821 0.94361 0.0
C214 C 0.62952 0.16499 0.96471 0.0
C215 C 0.61189 0.14617 0.97632 0.0
H216 H 0.63846 0.18277 0.93464 0.0
H217 H 0.46122 0.00337 0.04487 0.0
H218 H 0.44899 0.69151 0.37799 0.0
H219 H 0.41146 0.68678 0.40312 0.0
H220 H 0.43408 0.60824 0.42206 0.0
H221 H 0.47293 0.61441 0.39866 0.0
H222 H 0.36949 0.65724 0.4019 0.0
H223 H 0.40735 0.58116 0.46464 0.0
H224 H 0.44579 0.58081 0.48903 0.0
H225 H 0.46817 0.66763 0.48041 0.0
H226 H 0.42925 0.66881 0.45651 0.0
H227 H 0.288 0.53817 0.41117 0.0
H228 H 0.31773 0.58122 0.40829 0.0
H229 H 0.31485 0.59198 0.47453 0.0
H230 H 0.28561 0.54734 0.47747 0.0
H231 H 0.36412 0.59892 0.46464 0.0
H232 H 0.29428 0.64278 0.43922 0.0
H233 H 0.25214 0.65106 0.42082 0.0
H234 H 0.29172 0.64152 0.36253 0.0
H235 H 0.33395 0.63271 0.38052 0.0
C236 C 0.44638 0.67363 0.38799 0.0
C237 C 0.46354 0.65294 0.38596 0.0
C238 C 0.42481 0.67089 0.40236 0.0
C239 C 0.41951 0.64707 0.41464 0.0
C240 C 0.43774 0.62722 0.41336 0.0
C241 C 0.4598 0.63045 0.39955 0.0
C242 C 0.3929 0.64056 0.426 0.0
C243 C 0.36847 0.6449 0.41583 0.0
C244 C 0.39094 0.626 0.44501 0.0
C245 C 0.41517 0.6251 0.45875 0.0
C246 C 0.42022 0.60029 0.46807 0.0
C247 C 0.44207 0.59995 0.4819 0.0
C248 C 0.45929 0.62422 0.48637 0.0
C249 C 0.45477 0.64886 0.47696 0.0
C250 C 0.43277 0.64938 0.46328 0.0
C251 C 0.29303 0.55003 0.42511 0.0
C252 C 0.28481 0.53932 0.44455 0.0
C253 C 0.30984 0.57501 0.42344 0.0
C254 C 0.31853 0.59028 0.44116 0.0
C255 C 0.30844 0.58067 0.4606 0.0
C256 C 0.29156 0.55531 0.46229 0.0
C257 C 0.34163 0.61307 0.43911 0.0
C258 C 0.36532 0.61202 0.4511 0.0
C259 C 0.34276 0.63185 0.42243 0.0
C260 C 0.31742 0.63718 0.4113 0.0
C261 C 0.294 0.64233 0.42248 0.0
C262 C 0.27007 0.64712 0.41211 0.0
C263 C 0.26927 0.64686 0.39053 0.0
C264 C 0.2924 0.64181 0.37926 0.0
C265 C 0.31639 0.637 0.38954 0.0
H266 H 0.25071 0.65055 0.38253 0.0
H267 H 0.47626 0.62389 0.49702 0.0
H268 H 0.95744 0.52818 0.72603 0.0
H269 H 0.97407 0.50257 0.7549 0.0
H270 H 0.89082 0.48169 0.77661 0.0
H271 H 0.87398 0.50714 0.74788 0.0
H272 H 0.9268 0.49901 0.80811 0.0
H273 H 0.9208 0.43518 0.75113 0.0
H274 H 0.93076 0.42096 0.71563 0.0
H275 H 0.01712 0.43084 0.72922 0.0
H276 H 0.00775 0.44546 0.76483 0.0
H277 H 0.96141 0.36361 0.85683 0.0
H278 H 0.94647 0.38998 0.82772 0.0
H279 H 0.99703 0.46267 0.84979 0.0
H280 H 0.01212 0.43655 0.87886 0.0
H281 H 0.97749 0.41918 0.79617 0.0
H282 H 0.95899 0.51806 0.83953 0.0
H283 H 0.94826 0.53266 0.87482 0.0
H284 H 0.9076 0.45165 0.88795 0.0
H285 H 0.91788 0.4366 0.85276 0.0
C286 C 0.94263 0.51814 0.73693 0.0
C287 C 0.91431 0.51963 0.73453 0.0
C288 C 0.95219 0.50344 0.75339 0.0
C289 C 0.93366 0.49006 0.76783 0.0
C290 C 0.90548 0.49185 0.76565 0.0
C291 C 0.89588 0.50631 0.74913 0.0
C292 C 0.94347 0.474 0.78516 0.0
C293 C 0.938 0.48164 0.8055 0.0
C294 C 0.9579 0.4512 0.78174 0.0
C295 C 0.96359 0.44172 0.76057 0.0
C296 C 0.94194 0.43448 0.74653 0.0
C297 C 0.94748 0.42633 0.72641 0.0
C298 C 0.97458 0.42509 0.72019 0.0
C299 C 0.99618 0.43186 0.73411 0.0
C300 C 0.99077 0.44006 0.75426 0.0
C301 C 0.96926 0.38523 0.85556 0.0
C302 C 0.98794 0.39794 0.87025 0.0
C303 C 0.96087 0.40022 0.83882 0.0
C304 C 0.97061 0.42829 0.83658 0.0
C305 C 0.98916 0.44106 0.85124 0.0
C306 C 0.99778 0.42605 0.86786 0.0
C307 C 0.96095 0.44432 0.81915 0.0
C308 C 0.9665 0.43669 0.79878 0.0
C309 C 0.94654 0.46716 0.82253 0.0
C310 C 0.9397 0.47608 0.84362 0.0
C311 C 0.94781 0.50336 0.84997 0.0
C312 C 0.94177 0.51173 0.86993 0.0
C313 C 0.92739 0.49308 0.88364 0.0
C314 C 0.91888 0.46604 0.87737 0.0
C315 C 0.92487 0.45755 0.85742 0.0
H316 H 0.92276 0.4996 0.89909 0.0
H317 H 0.97884 0.41882 0.7046 0.0
H318 H 0.49555 0.85427 0.05968 0.0
H319 H 0.46336 0.86498 0.03259 0.0
H320 H 0.52563 0.92628 0.00758 0.0
H321 H 0.55756 0.91609 0.03454 0.0
H322 H 0.44553 0.91766 0.02464 0.0
H323 H 0.51922 0.92282 0.95434 0.0
H324 H 0.55843 0.90048 0.94197 0.0
H325 H 0.52996 0.82826 0.97733 0.0
H326 H 0.49033 0.84997 0.98964 0.0
H327 H 0.42117 0.00565 0.93935 0.0
H328 H 0.4445 0.98106 0.96557 0.0
H329 H 0.40181 0.90396 0.94388 0.0
H330 H 0.37737 0.92858 0.91814 0.0
H331 H 0.46603 0.91153 0.94976 0.0
H332 H 0.37888 0.91905 0.98182 0.0
H333 H 0.34143 0.94409 0.99379 0.0
H334 H 0.39687 0.99117 0.0357 0.0
H335 H 0.43479 0.96682 0.02361 0.0
C336 C 0.5024 0.86988 0.04832 0.0
C337 C 0.5291 0.88437 0.04933 0.0
C338 C 0.48398 0.87604 0.03291 0.0
C339 C 0.49217 0.89631 0.018 0.0
C340 C 0.51894 0.91041 0.01881 0.0
C341 C 0.53713 0.90461 0.03432 0.0
C342 C 0.47272 0.90375 0.00197 0.0
C343 C 0.44979 0.91606 0.00825 0.0
C344 C 0.47833 0.90155 0.9806 0.0
C345 C 0.5019 0.88814 0.97304 0.0
C346 C 0.52123 0.90212 0.95939 0.0
C347 C 0.54355 0.88957 0.9524 0.0
C348 C 0.54673 0.863 0.95891 0.0
C349 C 0.52753 0.84888 0.97236 0.0
C350 C 0.50516 0.86132 0.97937 0.0
C351 C 0.41667 0.98347 0.94019 0.0
C352 C 0.39736 0.96906 0.92673 0.0
C353 C 0.42999 0.96947 0.95519 0.0
C354 C 0.42477 0.94074 0.95669 0.0
C355 C 0.406 0.92617 0.94299 0.0
C356 C 0.39206 0.94025 0.92834 0.0
C357 C 0.43931 0.9261 0.97247 0.0
C358 C 0.46145 0.91267 0.96612 0.0
C359 C 0.43306 0.92745 0.99379 0.0
C360 C 0.40995 0.9416 0.00138 0.0
C361 C 0.38325 0.93508 0.9933 0.0
C362 C 0.36187 0.94907 1.00018 0.0
C363 C 0.3668 0.96939 0.01537 0.0
C364 C 0.39308 0.97555 0.02384 0.0
C365 C 0.41454 0.9617 0.01694 0.0
H366 H 0.35023 0.98022 0.02066 0.0
H367 H 0.56404 0.85334 0.9535 0.0
H368 H 0.6579 0.50505 0.37707 0.0
H369 H 0.64767 0.46581 0.35393 0.0
H370 H 0.64763 0.41056 0.40571 0.0
H371 H 0.65796 0.44992 0.42908 0.0
H372 H 0.66122 0.38883 0.36129 0.0
H373 H 0.59227 0.42711 0.40331 0.0
H374 H 0.57256 0.46657 0.41818 0.0
H375 H 0.56061 0.49744 0.35718 0.0
H376 H 0.58075 0.45833 0.34198 0.0
H377 H 0.54151 0.29266 0.36078 0.0
H378 H 0.58581 0.32138 0.36048 0.0
H379 H 0.55579 0.3732 0.31409 0.0
H380 H 0.51109 0.34451 0.31475 0.0
H381 H 0.56296 0.3988 0.3496 0.0
H382 H 0.61918 0.34806 0.30885 0.0
H383 H 0.6389 0.30733 0.29639 0.0
H384 H 0.67375 0.29692 0.3563 0.0
H385 H 0.65391 0.33733 0.36925 0.0
C386 C 0.65707 0.48452 0.38342 0.0
C387 C 0.65814 0.48051 0.40491 0.0
C388 C 0.65139 0.4621 0.37014 0.0
C389 C 0.64652 0.43536 0.37817 0.0
C390 C 0.65147 0.43107 0.39923 0.0
C391 C 0.65731 0.4536 0.41259 0.0
C392 C 0.62905 0.41403 0.36621 0.0
C393 C 0.63972 0.39078 0.35866 0.0
C394 C 0.60117 0.41697 0.36257 0.0
C395 C 0.58832 0.44006 0.37154 0.0
C396 C 0.58561 0.44243 0.39309 0.0
C397 C 0.57436 0.4647 0.40157 0.0
C398 C 0.56545 0.48455 0.38863 0.0
C399 C 0.56761 0.48208 0.36718 0.0
C400 C 0.57894 0.45987 0.35862 0.0
C401 C 0.54502 0.30901 0.34944 0.0
C402 C 0.52296 0.31653 0.33788 0.0
C403 C 0.57044 0.32559 0.34932 0.0
C404 C 0.57407 0.34983 0.33754 0.0
C405 C 0.55342 0.35469 0.3234 0.0
C406 C 0.52792 0.33809 0.32358 0.0
C407 C 0.59479 0.37295 0.3444 0.0
C408 C 0.58461 0.39679 0.35143 0.0
C409 C 0.62286 0.37007 0.34776 0.0
C410 C 0.63492 0.34572 0.34005 0.0
C411 C 0.63087 0.33698 0.31943 0.0
C412 C 0.64211 0.31396 0.31227 0.0
C413 C 0.65754 0.29953 0.32555 0.0
C414 C 0.66181 0.30813 0.34602 0.0
C415 C 0.65061 0.33113 0.35327 0.0
H416 H 0.66622 0.28171 0.31997 0.0
H417 H 0.55686 0.5018 0.39525 0.0
H418 H 0.13956 0.51455 0.73877 0.0
H419 H 0.12187 0.53698 0.76867 0.0
H420 H 0.04211 0.48981 0.75975 0.0
H421 H 0.05934 0.46827 0.7292 0.0
H422 H 0.03409 0.53779 0.77063 0.0
H423 H 0.08796 0.47409 0.79862 0.0
H424 H 0.12813 0.44935 0.80355 0.0
H425 H 0.17653 0.52419 0.82315 0.0
H426 H 0.13671 0.5495 0.81813 0.0
H427 H 0.98976 0.56795 0.87243 0.0
H428 H 0.00532 0.54331 0.8428 0.0
H429 H 0.07914 0.60134 0.83935 0.0
H430 H 0.06375 0.62633 0.86912 0.0
H431 H 0.08787 0.54497 0.83583 0.0
H432 H 0.02857 0.60711 0.80516 0.0
H433 H 0.98484 0.62653 0.80184 0.0
H434 H 0.94191 0.5459 0.79053 0.0
H435 H 0.9855 0.52598 0.79376 0.0
C436 C 0.11822 0.509 0.74308 0.0
C437 C 0.10101 0.48931 0.73164 0.0
C438 C 0.10814 0.52171 0.76034 0.0
C439 C 0.08077 0.51465 0.7669 0.0
C440 C 0.06334 0.49553 0.75518 0.0
C441 C 0.07329 0.48313 0.73771 0.0
C442 C 0.07045 0.52733 0.78589 0.0
C443 C 0.04576 0.539 0.78492 0.0
C444 C 0.08536 0.52884 0.80474 0.0
C445 C 0.10941 0.51376 0.80781 0.0
C446 C 0.10722 0.48533 0.80384 0.0
C447 C 0.12992 0.47119 0.80667 0.0
C448 C 0.15488 0.48521 0.81359 0.0
C449 C 0.15718 0.51338 0.81776 0.0
C450 C 0.13454 0.52763 0.81495 0.0
C451 C 0.00936 0.57555 0.86547 0.0
C452 C 0.02544 0.59929 0.8732 0.0
C453 C 0.01813 0.56144 0.84843 0.0
C454 C 0.04319 0.57065 0.8387 0.0
C455 C 0.05965 0.59393 0.8466 0.0
C456 C 0.05081 0.60822 0.8636 0.0
C457 C 0.05215 0.55601 0.82025 0.0
C458 C 0.0764 0.54375 0.82145 0.0
C459 C 0.03634 0.5531 0.80189 0.0
C460 C 0.01022 0.56506 0.79982 0.0
C461 C 0.00978 0.59351 0.80205 0.0
C462 C 0.98504 0.6046 0.80016 0.0
C463 C 0.96058 0.58743 0.79608 0.0
C464 C 0.96086 0.55914 0.79374 0.0
C465 C 0.98558 0.54796 0.79551 0.0
H466 H 0.94143 0.59606 0.79471 0.0
H467 H 0.17243 0.47422 0.81577 0.0
H468 H 0.41911 0.19101 0.05561 0.0
H469 H 0.39262 0.18176 0.02378 0.0
H470 H 0.32814 0.13338 0.05802 0.0
H471 H 0.3548 0.14202 0.08981 0.0
H472 H 0.38424 0.12026 0.01961 0.0
H473 H 0.26922 0.13512 0.02103 0.0
H474 H 0.23986 0.16893 0.03342 0.0
H475 H 0.30782 0.23334 0.02848 0.0
H476 H 0.33747 0.20002 0.01577 0.0
H477 H 0.31407 0.02366 0.95335 0.0
H478 H 0.31527 0.05239 0.9845 0.0
H479 H 0.3267 0.12538 0.94668 0.0
H480 H 0.32618 0.09682 0.91564 0.0
H481 H 0.29523 0.12978 0.98569 0.0
H482 H 0.37998 0.10093 0.95753 0.0
H483 H 0.41047 0.06722 0.94685 0.0
H484 H 0.40498 0.03166 0.00756 0.0
H485 H 0.37369 0.06449 0.0184 0.0
C486 C 0.39861 0.17975 0.05655 0.0
C487 C 0.3891 0.16688 0.07505 0.0
C488 C 0.38352 0.17442 0.03834 0.0
C489 C 0.35857 0.15675 0.03861 0.0
C490 C 0.34726 0.14723 0.05756 0.0
C491 C 0.36253 0.15213 0.0757 0.0
C492 C 0.34886 0.14207 0.01954 0.0
C493 C 0.36483 0.12248 0.01212 0.0
C494 C 0.32334 0.1447 0.01015 0.0
C495 C 0.30565 0.16497 0.01765 0.0
C496 C 0.27789 0.15651 0.02252 0.0
C497 C 0.26119 0.17559 0.02961 0.0
C498 C 0.272 0.20325 0.03181 0.0
C499 C 0.29951 0.21189 0.02687 0.0
C500 C 0.31629 0.19289 0.01977 0.0
C501 C 0.31555 0.04579 0.95169 0.0
C502 C 0.32019 0.05814 0.93222 0.0
C503 C 0.31633 0.06215 0.96945 0.0
C504 C 0.32135 0.09094 0.9678 0.0
C505 C 0.32272 0.10321 0.94821 0.0
C506 C 0.32249 0.08691 0.93053 0.0
C507 C 0.33058 0.10789 0.98598 0.0
C508 C 0.31458 0.12766 0.99325 0.0
C509 C 0.35607 0.10531 0.99553 0.0
C510 C 0.37411 0.08492 0.98867 0.0
C511 C 0.38483 0.08559 0.96848 0.0
C512 C 0.40232 0.06666 0.96242 0.0
C513 C 0.40956 0.04723 0.9765 0.0
C514 C 0.39921 0.04657 0.99663 0.0
C515 C 0.38154 0.06529 0.00272 0.0
H516 H 0.42337 0.03282 0.97191 0.0
H517 H 0.25903 0.21799 0.03729 0.0
H518 H 0.42935 0.30333 0.41536 0.0
H519 H 0.38963 0.32757 0.41932 0.0
H520 H 0.34808 0.27927 0.37022 0.0
H521 H 0.38858 0.25556 0.36543 0.0
H522 H 0.34412 0.32943 0.36325 0.0
H523 H 0.3273 0.27433 0.42251 0.0
H524 H 0.33676 0.25147 0.45516 0.0
H525 H 0.35555 0.33001 0.48482 0.0
H526 H 0.34663 0.3534 0.4523 0.0
H527 H 0.2363 0.40937 0.42202 0.0
H528 H 0.26054 0.36888 0.41927 0.0
H529 H 0.32111 0.41436 0.37962 0.0
H530 H 0.29546 0.45316 0.38025 0.0
H531 H 0.30572 0.35642 0.43003 0.0
H532 H 0.35229 0.3784 0.3481 0.0
H533 H 0.33978 0.39801 0.31487 0.0
H534 H 0.25406 0.37833 0.32965 0.0
H535 H 0.2661 0.35823 0.36285 0.0
C536 C 0.41186 0.29788 0.40527 0.0
C537 C 0.41284 0.27858 0.38927 0.0
C538 C 0.38889 0.3115 0.40784 0.0
C539 C 0.36577 0.30539 0.3951 0.0
C540 C 0.36579 0.28461 0.38012 0.0
C541 C 0.38901 0.27113 0.37735 0.0
C542 C 0.34305 0.32269 0.39615 0.0
C543 C 0.33543 0.335 0.37784 0.0
C544 C 0.33121 0.32964 0.41513 0.0
C545 C 0.3365 0.31565 0.43484 0.0
C546 C 0.33366 0.28676 0.43594 0.0
C547 C 0.33889 0.27369 0.45445 0.0
C548 C 0.3468 0.28927 0.47205 0.0
C549 C 0.3494 0.31796 0.47119 0.0
C550 C 0.3442 0.33113 0.45271 0.0
C551 C 0.25473 0.41062 0.41264 0.0
C552 C 0.26424 0.43488 0.40181 0.0
C553 C 0.26861 0.38746 0.41109 0.0
C554 C 0.29244 0.3882 0.39887 0.0
C555 C 0.30228 0.41268 0.38855 0.0
C556 C 0.28787 0.4353 0.38939 0.0
C557 C 0.30761 0.36385 0.39722 0.0
C558 C 0.31389 0.35033 0.4154 0.0
C559 C 0.31763 0.35518 0.37805 0.0
C560 C 0.31012 0.36686 0.35798 0.0
C561 C 0.33078 0.37804 0.34417 0.0
C562 C 0.32377 0.38931 0.32537 0.0
C563 C 0.29613 0.38944 0.32016 0.0
C564 C 0.27546 0.37825 0.33373 0.0
C565 C 0.28236 0.36693 0.35255 0.0
H566 H 0.29073 0.3982 0.3056 0.0
H567 H 0.35087 0.27911 0.48636 0.0
H568 H 0.11418 0.35409 0.71133 0.0
H569 H 0.10642 0.32619 0.74241 0.0
H570 H 0.17358 0.37608 0.77271 0.0
H571 H 0.1814 0.40456 0.74162 0.0
H572 H 0.16038 0.31353 0.78507 0.0
H573 H 0.12524 0.40069 0.78183 0.0
H574 H 0.10259 0.43754 0.76591 0.0
H575 H 0.0292 0.38088 0.75649 0.0
H576 H 0.05169 0.34348 0.77195 0.0
H577 H 0.10426 0.33183 0.88682 0.0
H578 H 0.12889 0.32916 0.85424 0.0
H579 H 0.05515 0.28809 0.82592 0.0
H580 H 0.03035 0.29049 0.85849 0.0
H581 H 0.07355 0.34216 0.81184 0.0
H582 H 0.10974 0.25735 0.82372 0.0
H583 H 0.13442 0.22497 0.84319 0.0
H584 H 0.20854 0.28215 0.84078 0.0
H585 H 0.18421 0.31507 0.82156 0.0
C586 C 0.12797 0.35864 0.72432 0.0
C587 C 0.14795 0.38198 0.72421 0.0
C588 C 0.1236 0.34251 0.74202 0.0
C589 C 0.13922 0.34935 0.75984 0.0
C590 C 0.16142 0.37049 0.75901 0.0
C591 C 0.16577 0.3868 0.74125 0.0
C592 C 0.12827 0.3388 0.77995 0.0
C593 C 0.14152 0.31981 0.7911 0.0
C594 C 0.10365 0.34707 0.78763 0.0
C595 C 0.09031 0.36919 0.77769 0.0
C596 C 0.10445 0.39596 0.77602 0.0
C597 C 0.09162 0.41696 0.76717 0.0
C598 C 0.06453 0.41149 0.76017 0.0
C599 C 0.05023 0.38501 0.76189 0.0
C600 C 0.06302 0.3639 0.77066 0.0
C601 C 0.09357 0.3212 0.87389 0.0
C602 C 0.06521 0.31195 0.87505 0.0
C603 C 0.10776 0.31952 0.85532 0.0
C604 C 0.09374 0.30867 0.83767 0.0
C605 C 0.06629 0.2965 0.83944 0.0
C606 C 0.05214 0.29791 0.85808 0.0
C607 C 0.10524 0.31634 0.81705 0.0
C608 C 0.09216 0.3353 0.80579 0.0
C609 C 0.13035 0.30858 0.80979 0.0
C610 C 0.14506 0.28879 0.82132 0.0
C611 C 0.13124 0.26314 0.8275 0.0
C612 C 0.14518 0.24466 0.83846 0.0
C613 C 0.17301 0.25152 0.84326 0.0
C614 C 0.18697 0.27686 0.83706 0.0
C615 C 0.17312 0.29543 0.8261 0.0
H616 H 0.18377 0.23718 0.85175 0.0
H617 H 0.05456 0.42781 0.75353 0.0
H618 H 0.61112 0.82298 0.03497 0.0
H619 H 0.63904 0.83108 0.0038 0.0
H620 H 0.707 0.86931 0.0405 0.0
H621 H 0.67869 0.86203 0.07156 0.0
H622 H 0.68828 0.90515 0.01658 0.0
H623 H 0.7163 0.81786 0.00496 0.0
H624 H 0.71199 0.76733 0.00251 0.0
H625 H 0.6538 0.76837 0.95303 0.0
H626 H 0.6574 0.81887 0.95536 0.0
H627 H 0.71464 0.97455 0.92274 0.0
H628 H 0.72709 0.94358 0.94994 0.0
H629 H 0.6551 0.88632 0.93556 0.0
H630 H 0.64316 0.91628 0.90821 0.0
H631 H 0.69429 0.85864 0.94899 0.0
H632 H 0.65287 0.93963 0.9711 0.0
H633 H 0.65173 0.98965 0.97416 0.0
H634 H 0.7301 0.99877 0.00479 0.0
H635 H 0.73178 0.94879 0.00169 0.0
C636 C 0.63252 0.8316 0.0365 0.0
C637 C 0.64274 0.84218 0.05552 0.0
C638 C 0.64857 0.83626 0.01864 0.0
C639 C 0.67507 0.85118 0.01975 0.0
C640 C 0.68659 0.85794 0.03924 0.0
C641 C 0.67044 0.85368 0.057 0.0
C642 C 0.68697 0.86596 0.00113 0.0
C643 C 0.69064 0.89484 0.00196 0.0
C644 C 0.68938 0.85268 0.98193 0.0
C645 C 0.68712 0.82224 0.98037 0.0
C646 C 0.70245 0.80733 0.99364 0.0
C647 C 0.70015 0.77867 0.99225 0.0
C648 C 0.68263 0.76465 0.97762 0.0
C649 C 0.6674 0.77926 0.96433 0.0
C650 C 0.66961 0.80793 0.96565 0.0
C651 C 0.70187 0.95506 0.92507 0.0
C652 C 0.67753 0.94826 0.91365 0.0
C653 C 0.70902 0.93736 0.94059 0.0
C654 C 0.69172 0.91286 0.94506 0.0
C655 C 0.66878 0.90507 0.93247 0.0
C656 C 0.66179 0.92251 0.91694 0.0
C657 C 0.69436 0.89749 0.96456 0.0
C658 C 0.69325 0.8687 0.96386 0.0
C659 C 0.69367 0.91069 0.98396 0.0
C660 C 0.69263 0.94064 0.98591 0.0
C661 C 0.66991 0.95237 0.97838 0.0
C662 C 0.66916 0.98067 0.98012 0.0
C663 C 0.69088 0.99739 0.98959 0.0
C664 C 0.71334 0.9858 0.9974 0.0
C665 C 0.71421 0.9575 0.99565 0.0
H666 H 0.69026 0.0193 0.99094 0.0
H667 H 0.68087 0.74246 0.97658 0.0
H668 H 0.59832 0.72006 0.32271 0.0
H669 H 0.64621 0.72937 0.33434 0.0
H670 H 0.6197 0.71312 0.39723 0.0
H671 H 0.5722 0.704 0.38565 0.0
H672 H 0.67345 0.74421 0.39477 0.0
H673 H 0.62088 0.65439 0.36564 0.0
H674 H 0.59569 0.63103 0.33615 0.0
H675 H 0.66053 0.66389 0.295 0.0
H676 H 0.68604 0.68739 0.32432 0.0
H677 H 0.67155 0.63417 0.45293 0.0
H678 H 0.68066 0.67713 0.43452 0.0
H679 H 0.72862 0.63872 0.38952 0.0
H680 H 0.71731 0.59477 0.40747 0.0
H681 H 0.69049 0.65201 0.37066 0.0
H682 H 0.74981 0.70915 0.41146 0.0
H683 H 0.77383 0.73013 0.44214 0.0
H684 H 0.7 0.76093 0.46182 0.0
H685 H 0.67533 0.73978 0.43152 0.0
C686 C 0.60263 0.72036 0.33914 0.0
C687 C 0.5818 0.71109 0.35333 0.0
C688 C 0.63003 0.72559 0.34578 0.0
C689 C 0.6366 0.7212 0.36658 0.0
C690 C 0.61521 0.71656 0.38111 0.0
C691 C 0.58798 0.71125 0.37449 0.0
C692 C 0.66334 0.7122 0.37233 0.0
C693 C 0.67789 0.72431 0.38941 0.0
C694 C 0.67018 0.687 0.36456 0.0
C695 C 0.65521 0.67264 0.34703 0.0
C696 C 0.62972 0.65652 0.35028 0.0
C697 C 0.6154 0.64332 0.33363 0.0
C698 C 0.62648 0.64603 0.31371 0.0
C699 C 0.65196 0.66185 0.31043 0.0
C700 C 0.66637 0.67509 0.32704 0.0
C701 C 0.68539 0.63531 0.4398 0.0
C702 C 0.69355 0.61128 0.43149 0.0
C703 C 0.69087 0.66015 0.42919 0.0
C704 C 0.70503 0.66146 0.4102 0.0
C705 C 0.71725 0.63832 0.4039 0.0
C706 C 0.71104 0.61318 0.41426 0.0
C707 C 0.69908 0.68257 0.39474 0.0
C708 C 0.6882 0.67271 0.37565 0.0
C709 C 0.69613 0.70992 0.40062 0.0
C710 C 0.71071 0.72294 0.41902 0.0
C711 C 0.73862 0.7203 0.42235 0.0
C712 C 0.75237 0.73224 0.4397 0.0
C713 C 0.73847 0.7469 0.45389 0.0
C714 C 0.71078 0.74966 0.45076 0.0
C715 C 0.69692 0.73778 0.43343 0.0
H716 H 0.74915 0.7561 0.46733 0.0
H717 H 0.61534 0.63584 0.30082 0.0
H718 H 0.91059 0.67058 0.89192 0.0
H719 H 0.88609 0.67556 0.85968 0.0
H720 H 0.96114 0.71339 0.83126 0.0
H721 H 0.98598 0.70849 0.86359 0.0
H722 H 0.90726 0.72818 0.81328 0.0
H723 H 0.95807 0.65324 0.82902 0.0
H724 H 0.97312 0.61705 0.851 0.0
H725 H 0.88993 0.5772 0.85477 0.0
H726 H 0.87427 0.61369 0.83318 0.0
H727 H 0.90817 0.65527 0.71624 0.0
H728 H 0.91418 0.6826 0.74784 0.0
H729 H 0.84091 0.63678 0.77341 0.0
H730 H 0.8346 0.60936 0.74187 0.0
H731 H 0.89058 0.62965 0.79325 0.0
H732 H 0.84305 0.70338 0.77001 0.0
H733 H 0.83257 0.73975 0.74613 0.0
H734 H 0.91476 0.78119 0.75305 0.0
H735 H 0.9259 0.74485 0.77675 0.0
C736 C 0.92169 0.68103 0.8791 0.0
C737 C 0.95034 0.68839 0.88004 0.0
C738 C 0.90759 0.68406 0.86073 0.0
C739 C 0.92198 0.69432 0.84307 0.0
C740 C 0.94974 0.70543 0.84479 0.0
C741 C 0.96393 0.70247 0.86326 0.0
C742 C 0.91028 0.68653 0.82256 0.0
C743 C 0.90361 0.70671 0.80876 0.0
C744 C 0.90569 0.65848 0.81679 0.0
C745 C 0.91493 0.63648 0.82982 0.0
C746 C 0.94291 0.63703 0.83482 0.0
C747 C 0.95157 0.61641 0.84716 0.0
C748 C 0.93247 0.5949 0.85438 0.0
C749 C 0.90468 0.59394 0.84922 0.0
C750 C 0.8959 0.61461 0.83696 0.0
C751 C 0.89275 0.65163 0.72828 0.0
C752 C 0.87128 0.62967 0.72676 0.0
C753 C 0.89613 0.66745 0.74627 0.0
C754 C 0.8781 0.66154 0.76297 0.0
C755 C 0.85501 0.64164 0.76063 0.0
C756 C 0.85148 0.62594 0.74259 0.0
C757 C 0.88681 0.67117 0.78388 0.0
C758 C 0.89348 0.65116 0.79778 0.0
C759 C 0.892 0.69934 0.78931 0.0
C760 C 0.88537 0.72124 0.77505 0.0
C761 C 0.85899 0.7201 0.7663 0.0
C762 C 0.8529 0.74076 0.75282 0.0
C763 C 0.873 0.76274 0.74804 0.0
C764 C 0.89921 0.76414 0.75676 0.0
C765 C 0.90541 0.74354 0.77024 0.0
H766 H 0.86825 0.77871 0.7376 0.0
H767 H 0.93922 0.57896 0.86391 0.0
H768 H 0.59942 0.92269 0.13203 0.0
H769 H 0.58941 0.96793 0.14311 0.0
H770 H 0.5035 0.93606 0.14937 0.0
H771 H 0.51353 0.89055 0.13871 0.0
H772 H 0.5588 0.99738 0.12161 0.0
H773 H 0.47176 0.97556 0.18252 0.0
H774 H 0.45845 0.94312 0.21101 0.0
H775 H 0.54281 0.93045 0.21906 0.0
H776 H 0.55669 0.96309 0.19083 0.0
H777 H 0.45149 0.08952 0.14832 0.0
H778 H 0.46936 0.04578 0.15361 0.0
H779 H 0.55234 0.08773 0.15142 0.0
H780 H 0.53452 0.13149 0.14556 0.0
H781 H 0.50287 0.02314 0.1807 0.0
H782 H 0.58984 0.04947 0.12151 0.0
H783 H 0.60153 0.08021 0.0917 0.0
H784 H 0.51565 0.08109 0.07915 0.0
H785 H 0.5035 0.05022 0.10871 0.0
C786 C 0.57847 0.92523 0.13609 0.0
C787 C 0.55718 0.90324 0.13428 0.0
C788 C 0.5728 0.95105 0.14247 0.0
C789 C 0.54574 0.95538 0.1471 0.0
C790 C 0.52461 0.93311 0.14622 0.0
C791 C 0.53033 0.90715 0.14002 0.0
C792 C 0.5392 0.98371 0.15031 0.0
C793 C 0.54717 0.00316 0.13483 0.0
C794 C 0.5233 0.99101 0.16721 0.0
C795 C 0.51523 0.97163 0.18443 0.0
C796 C 0.4875 0.96596 0.19044 0.0
C797 C 0.47984 0.94751 0.20653 0.0
C798 C 0.49976 0.93467 0.2168 0.0
C799 C 0.52739 0.94033 0.21105 0.0
C800 C 0.53515 0.95878 0.19498 0.0
C801 C 0.47353 0.08942 0.14925 0.0
C802 C 0.49167 0.11373 0.14635 0.0
C803 C 0.48369 0.0645 0.15245 0.0
C804 C 0.51214 0.06352 0.15265 0.0
C805 C 0.5303 0.08806 0.15109 0.0
C806 C 0.52013 0.11301 0.14781 0.0
C807 C 0.52256 0.03657 0.15204 0.0
C808 C 0.51509 0.0174 0.16781 0.0
C809 C 0.53877 0.02931 0.13533 0.0
C810 C 0.5458 0.04787 0.11748 0.0
C811 C 0.57348 0.05626 0.11237 0.0
C812 C 0.58018 0.07371 0.09553 0.0
C813 C 0.55936 0.08276 0.08363 0.0
C814 C 0.53178 0.07432 0.0885 0.0
C815 C 0.52497 0.05684 0.10529 0.0
H816 H 0.56464 0.09616 0.07056 0.0
H817 H 0.49379 0.92038 0.22924 0.0
H818 H 0.56912 0.53179 0.43436 0.0
H819 H 0.51962 0.51873 0.43192 0.0
H820 H 0.52194 0.46634 0.48528 0.0
H821 H 0.57185 0.47857 0.48734 0.0
H822 H 0.48661 0.44262 0.45805 0.0
H823 H 0.50474 0.53173 0.48841 0.0
H824 H 0.52657 0.57988 0.49007 0.0
H825 H 0.48272 0.59891 0.43568 0.0
H826 H 0.46079 0.55076 0.43351 0.0
H827 H 0.34225 0.43755 0.48095 0.0
H828 H 0.39261 0.4454 0.48329 0.0
H829 H 0.39622 0.49126 0.42627 0.0
H830 H 0.34625 0.4835 0.42381 0.0
H831 H 0.42826 0.51804 0.45706 0.0
H832 H 0.41156 0.42697 0.42696 0.0
H833 H 0.39241 0.37797 0.42547 0.0
H834 H 0.43368 0.36301 0.4821 0.0
H835 H 0.45257 0.41206 0.48417 0.0
C836 C 0.55928 0.5173 0.44547 0.0
C837 C 0.5745 0.50646 0.46118 0.0
C838 C 0.53086 0.50991 0.44409 0.0
C839 C 0.51694 0.49206 0.45871 0.0
C840 C 0.5322 0.48029 0.4739 0.0
C841 C 0.56074 0.48736 0.47508 0.0
C842 C 0.48641 0.4865 0.45861 0.0
C843 C 0.47384 0.45911 0.45812 0.0
C844 C 0.46973 0.50806 0.45855 0.0
C845 C 0.48164 0.53742 0.46049 0.0
C846 C 0.49991 0.54611 0.47668 0.0
C847 C 0.51231 0.5734 0.4777 0.0
C848 C 0.50638 0.59232 0.46276 0.0
C849 C 0.48759 0.58411 0.44703 0.0
C850 C 0.47512 0.55683 0.44593 0.0
C851 C 0.3538 0.44923 0.46889 0.0
C852 C 0.3402 0.45991 0.45219 0.0
C853 C 0.38255 0.45362 0.47022 0.0
C854 C 0.39813 0.46884 0.4549 0.0
C855 C 0.38458 0.4795 0.43826 0.0
C856 C 0.35596 0.47495 0.43685 0.0
C857 C 0.42854 0.47417 0.45626 0.0
C858 C 0.44106 0.50157 0.45706 0.0
C859 C 0.44513 0.45264 0.45692 0.0
C860 C 0.43326 0.42326 0.45583 0.0
C861 C 0.41629 0.41331 0.43922 0.0
C862 C 0.40555 0.38549 0.43824 0.0
C863 C 0.4119 0.36738 0.45367 0.0
C864 C 0.42881 0.37707 0.47016 0.0
C865 C 0.43951 0.40487 0.47126 0.0
H866 H 0.40383 0.34581 0.45287 0.0
H867 H 0.51602 0.61344 0.46356 0.0
H868 H 0.97309 0.59866 0.95747 0.0
H869 H 0.97109 0.55196 0.97023 0.0
H870 H 0.05839 0.56534 0.98249 0.0
H871 H 0.0608 0.61168 0.96823 0.0
H872 H 0.0486 0.52407 0.95958 0.0
H873 H 0.00767 0.54747 0.02186 0.0
H874 H 0.97648 0.56875 0.04497 0.0
H875 H 0.90679 0.51987 0.01755 0.0
H876 H 0.93749 0.49857 0.99404 0.0
H877 H 0.0351 0.38132 0.96647 0.0
H878 H 0.04204 0.42755 0.98132 0.0
H879 H 0.95973 0.43951 0.96317 0.0
H880 H 0.9523 0.3928 0.94915 0.0
H881 H 0.97429 0.46747 0.99825 0.0
H882 H 0.01698 0.4584 0.92942 0.0
H883 H 0.04894 0.43973 0.90526 0.0
H884 H 0.11606 0.46288 0.9469 0.0
H885 H 0.08464 0.48215 0.97114 0.0
C886 C 0.99186 0.59179 0.96295 0.0
C887 C 0.01727 0.60849 0.96102 0.0
C888 C 0.99059 0.56515 0.97072 0.0
C889 C 0.01461 0.55497 0.97735 0.0
C890 C 0.0396 0.57263 0.97733 0.0
C891 C 0.04095 0.59912 0.96914 0.0
C892 C 0.01437 0.52495 0.98046 0.0
C893 C 0.03286 0.51185 0.96866 0.0
C894 C 0.99361 0.50878 0.99197 0.0
C895 C 0.97495 0.52146 0.00612 0.0
C896 C 0.98569 0.54137 0.02065 0.0
C897 C 0.96808 0.55342 0.03385 0.0
C898 C 0.93968 0.54568 0.03272 0.0
C899 C 0.92881 0.52583 0.01842 0.0
C900 C 0.94632 0.51371 0.00518 0.0
C901 C 0.01827 0.39359 0.96615 0.0
C902 C 0.99332 0.38375 0.95642 0.0
C903 C 0.02226 0.41999 0.97459 0.0
C904 C 0.00166 0.43721 0.97286 0.0
C905 C 0.97594 0.42659 0.96462 0.0
C906 C 0.97173 0.39994 0.95656 0.0
C907 C 0.00791 0.46711 0.97689 0.0
C908 C 0.99054 0.47999 0.98989 0.0
C909 C 0.02978 0.48328 0.96659 0.0
C910 C 0.04848 0.47137 0.95216 0.0
C911 C 0.03853 0.45935 0.93345 0.0
C912 C 0.05653 0.44871 0.91974 0.0
C913 C 0.08441 0.44985 0.92463 0.0
C914 C 0.09444 0.4619 0.94317 0.0
C915 C 0.0766 0.47279 0.95685 0.0
H916 H 0.09826 0.44154 0.91401 0.0
H917 H 0.92608 0.55505 0.04295 0.0
H918 H 0.89942 0.54696 0.62535 0.0
H919 H 0.94264 0.53378 0.61175 0.0
H920 H 0.94947 0.48375 0.66607 0.0
H921 H 0.90536 0.49483 0.67835 0.0
H922 H 0.98979 0.54523 0.6239 0.0
H923 H 0.98825 0.43706 0.66295 0.0
H924 H 0.95482 0.39571 0.6688 0.0
H925 H 0.90685 0.41717 0.61718 0.0
H926 H 0.94019 0.45845 0.61082 0.0
H927 H 0.1155 0.52294 0.66432 0.0
H928 H 0.07016 0.53119 0.65253 0.0
H929 H 0.06413 0.45762 0.61509 0.0
H930 H 0.10881 0.44836 0.62828 0.0
H931 H 0.02157 0.45445 0.63492 0.0
H932 H 0.06428 0.52624 0.59418 0.0
H933 H 0.09696 0.56673 0.58447 0.0
H934 H 0.06153 0.61539 0.62994 0.0
H935 H 0.02896 0.57511 0.64021 0.0
C936 C 0.90984 0.53231 0.63382 0.0
C937 C 0.89909 0.52136 0.65257 0.0
C938 C 0.93457 0.52497 0.6262 0.0
C939 C 0.9493 0.50732 0.63763 0.0
C940 C 0.93818 0.49637 0.65638 0.0
C941 C 0.91302 0.50285 0.66353 0.0
C942 C 0.97748 0.50251 0.63134 0.0
C943 C 0.99666 0.52528 0.62597 0.0
C944 C 0.98643 0.47629 0.63309 0.0
C945 C 0.96679 0.4509 0.63639 0.0
C946 C 0.97077 0.43281 0.65268 0.0
C947 C 0.95176 0.40942 0.65614 0.0
C948 C 0.92874 0.40381 0.64336 0.0
C949 C 0.9247 0.42154 0.62707 0.0
C950 C 0.94363 0.44495 0.62354 0.0
C951 C 0.10483 0.50906 0.65306 0.0
C952 C 0.11547 0.48508 0.64713 0.0
C953 C 0.0789 0.51383 0.64619 0.0
C954 C 0.06359 0.49517 0.63271 0.0
C955 C 0.07536 0.47227 0.62555 0.0
C956 C 0.10093 0.46707 0.63294 0.0
C957 C 0.03411 0.4975 0.62868 0.0
C958 C 0.01466 0.47424 0.63211 0.0
C959 C 0.02482 0.52302 0.62423 0.0
C960 C 0.04415 0.54755 0.61799 0.0
C961 C 0.06352 0.54553 0.60218 0.0
C962 C 0.08204 0.56846 0.59658 0.0
C963 C 0.08131 0.59362 0.60658 0.0
C964 C 0.06204 0.5959 0.62218 0.0
C965 C 0.04349 0.57302 0.62788 0.0
H966 H 0.09568 0.61134 0.60223 0.0
H967 H 0.91403 0.38573 0.6461 0.0
H968 H 0.3903 0.04009 0.84423 0.0
H969 H 0.43607 0.04388 0.82929 0.0
H970 H 0.42598 0.95621 0.81869 0.0
H971 H 0.38035 0.95215 0.83463 0.0
H972 H 0.46808 0.97013 0.84164 0.0
H973 H 0.43958 0.00435 0.77811 0.0
H974 H 0.41554 0.03251 0.75442 0.0
H975 H 0.46259 0.10594 0.77793 0.0
H976 H 0.48665 0.07829 0.802 0.0
H977 H 0.60875 0.98402 0.82585 0.0
H978 H 0.56107 0.97719 0.81406 0.0
H979 H 0.55167 0.05989 0.83285 0.0
H980 H 0.5999 0.06709 0.84416 0.0
H981 H 0.51958 0.04271 0.79817 0.0
H982 H 0.5327 0.00855 0.86875 0.0
H983 H 0.55292 0.98093 0.89522 0.0
H984 H 0.53358 0.9084 0.85813 0.0
H985 H 0.51243 0.93543 0.83175 0.0
C986 C 0.39761 0.02164 0.83842 0.0
C987 C 0.38214 0.99571 0.8412 0.0
C988 C 0.42367 0.02391 0.8295 0.0
C989 C 0.43457 0.00032 0.82285 0.0
C990 C 0.41801 0.97469 0.82377 0.0
C991 C 0.39195 0.97238 0.83289 0.0
C992 C 0.46458 0.00188 0.81909 0.0
C993 C 0.47918 0.9854 0.83153 0.0
C994 C 0.47925 0.02237 0.80643 0.0
C995 C 0.46488 0.03919 0.79195 0.0
C996 C 0.44469 0.02651 0.77835 0.0
C997 C 0.43107 0.0424 0.76483 0.0
C998 C 0.43752 0.071 0.76468 0.0
C999 C 0.45763 0.08378 0.77805 0.0
C1000 C 0.47132 0.068 0.79161 0.0
C1001 C 0.59675 0.00103 0.82686 0.0
C1002 C 0.60778 0.02598 0.83607 0.0
C1003 C 0.56953 0.99708 0.82018 0.0
C1004 C 0.55273 0.01781 0.82302 0.0
C1005 C 0.56435 0.04362 0.83057 0.0
C1006 C 0.59185 0.04774 0.837 0.0
C1007 C 0.52253 0.01127 0.82095 0.0
C1008 C 0.50816 0.02689 0.80762 0.0
C1009 C 0.50782 0.99005 0.83282 0.0
C1010 C 0.52137 0.97401 0.84822 0.0
C1011 C 0.53297 0.98674 0.8662 0.0
C1012 C 0.54447 0.9712 0.88121 0.0
C1013 C 0.54484 0.94302 0.87825 0.0
C1014 C 0.5334 0.93025 0.86036 0.0
C1015 C 0.52149 0.94561 0.84545 0.0
H1016 H 0.55385 0.93106 0.88986 0.0
H1017 H 0.42694 0.08326 0.7542 0.0
H1018 H 0.39252 0.36717 0.32394 0.0
H1019 H 0.40044 0.41701 0.31916 0.0
H1020 H 0.47594 0.42066 0.35407 0.0
H1021 H 0.46684 0.37108 0.36014 0.0
H1022 H 0.45528 0.46316 0.3627 0.0
H1023 H 0.47264 0.42141 0.29835 0.0
H1024 H 0.46315 0.39067 0.26829 0.0
H1025 H 0.39486 0.43264 0.25139 0.0
H1026 H 0.40375 0.46343 0.28151 0.0
H1027 H 0.52131 0.58755 0.32026 0.0
H1028 H 0.50835 0.53818 0.3247 0.0
H1029 H 0.42375 0.5473 0.3119 0.0
H1030 H 0.43646 0.59716 0.30782 0.0
H1031 H 0.44813 0.49947 0.29153 0.0
H1032 H 0.43261 0.53858 0.36047 0.0
H1033 H 0.44897 0.57097 0.38827 0.0
H1034 H 0.52363 0.53434 0.39295 0.0
H1035 H 0.50725 0.5011 0.36549 0.0
C1036 C 0.41057 0.37876 0.33084 0.0
C1037 C 0.42912 0.3654 0.34236 0.0
C1038 C 0.41527 0.4072 0.32791 0.0
C1039 C 0.43926 0.42263 0.33568 0.0
C1040 C 0.45734 0.40931 0.34781 0.0
C1041 C 0.45215 0.38096 0.3513 0.0
C1042 C 0.44578 0.45248 0.33088 0.0
C1043 C 0.45387 0.47085 0.34707 0.0
C1044 C 0.44404 0.46292 0.3105 0.0
C1045 C 0.4387 0.44456 0.2923 0.0
C1046 C 0.45549 0.42397 0.28829 0.0
C1047 C 0.45024 0.40656 0.27124 0.0
C1048 C 0.42837 0.40966 0.25797 0.0
C1049 C 0.41177 0.43024 0.2617 0.0
C1050 C 0.41692 0.4477 0.27875 0.0
C1051 C 0.49991 0.57918 0.31841 0.0
C1052 C 0.47982 0.5964 0.31407 0.0
C1053 C 0.49259 0.55091 0.32084 0.0
C1054 C 0.46509 0.5392 0.3188 0.0
C1055 C 0.44509 0.55603 0.31354 0.0
C1056 C 0.45239 0.58448 0.31125 0.0
C1057 C 0.45728 0.50961 0.32333 0.0
C1058 C 0.44917 0.49145 0.3071 0.0
C1059 C 0.45983 0.49916 0.34347 0.0
C1060 C 0.46881 0.51758 0.36094 0.0
C1061 C 0.45243 0.53736 0.36755 0.0
C1062 C 0.46174 0.55585 0.38322 0.0
C1063 C 0.48754 0.55494 0.39218 0.0
C1064 C 0.50372 0.535 0.38593 0.0
C1065 C 0.49435 0.51621 0.37044 0.0
H1066 H 0.49506 0.5697 0.40392 0.0
H1067 H 0.42433 0.39614 0.24478 0.0
H1068 H 0.49764 0.29594 0.29054 0.0
H1069 H 0.52004 0.29136 0.25687 0.0
H1070 H 0.46626 0.21597 0.24556 0.0
H1071 H 0.44423 0.22022 0.27883 0.0
H1072 H 0.51759 0.2109 0.23421 0.0
H1073 H 0.45298 0.27786 0.22572 0.0
H1074 H 0.43562 0.32173 0.23363 0.0
H1075 H 0.5131 0.36636 0.21542 0.0
H1076 H 0.53102 0.32269 0.20765 0.0
H1077 H 0.48305 0.22674 0.1201 0.0
H1078 H 0.48145 0.24188 0.15606 0.0
H1079 H 0.56392 0.22258 0.16547 0.0
H1080 H 0.5648 0.20571 0.1298 0.0
H1081 H 0.50916 0.28008 0.17948 0.0
H1082 H 0.57359 0.2038 0.20259 0.0
H1083 H 0.58463 0.15629 0.19873 0.0
H1084 H 0.49892 0.127 0.19036 0.0
H1085 H 0.48765 0.17449 0.19319 0.0
C1086 C 0.49091 0.27824 0.28094 0.0
C1087 C 0.46907 0.25851 0.2873 0.0
C1088 C 0.50361 0.27573 0.26169 0.0
C1089 C 0.49468 0.25341 0.24862 0.0
C1090 C 0.47356 0.23332 0.25536 0.0
C1091 C 0.46088 0.23586 0.2744 0.0
C1092 C 0.50616 0.25088 0.22753 0.0
C1093 C 0.51621 0.22629 0.22233 0.0
C1094 C 0.50435 0.27085 0.21197 0.0
C1095 C 0.49343 0.29705 0.21634 0.0
C1096 C 0.46636 0.29704 0.22353 0.0
C1097 C 0.45641 0.32185 0.22797 0.0
C1098 C 0.47328 0.34681 0.2251 0.0
C1099 C 0.50008 0.34701 0.21768 0.0
C1100 C 0.51014 0.32224 0.21325 0.0
C1101 C 0.50068 0.2254 0.12995 0.0
C1102 C 0.52361 0.21408 0.12244 0.0
C1103 C 0.49991 0.23436 0.15044 0.0
C1104 C 0.52225 0.2326 0.16378 0.0
C1105 C 0.54602 0.22319 0.1558 0.0
C1106 C 0.54667 0.21394 0.13532 0.0
C1107 C 0.51986 0.23967 0.18606 0.0
C1108 C 0.51148 0.26512 0.19149 0.0
C1109 C 0.52283 0.22037 0.20189 0.0
C1110 C 0.52991 0.19259 0.19763 0.0
C1111 C 0.55724 0.18723 0.19944 0.0
C1112 C 0.56353 0.16036 0.19742 0.0
C1113 C 0.54251 0.13866 0.19414 0.0
C1114 C 0.51522 0.14386 0.19261 0.0
C1115 C 0.50891 0.17076 0.19417 0.0
H1116 H 0.54735 0.11781 0.19287 0.0
H1117 H 0.46555 0.366 0.22856 0.0
H1118 H 0.2522 0.52744 0.66671 0.0
H1119 H 0.25635 0.51959 0.62942 0.0
H1120 H 0.21275 0.43786 0.63653 0.0
H1121 H 0.20919 0.44541 0.67377 0.0
H1122 H 0.25771 0.43816 0.61176 0.0
H1123 H 0.17985 0.48901 0.61735 0.0
H1124 H 0.15557 0.52807 0.6273 0.0
H1125 H 0.21312 0.58308 0.59218 0.0
H1126 H 0.23787 0.54441 0.5821 0.0
H1127 H 0.19626 0.40137 0.51589 0.0
H1128 H 0.21059 0.41341 0.55116 0.0
H1129 H 0.25476 0.48988 0.52946 0.0
H1130 H 0.24034 0.47766 0.49387 0.0
H1131 H 0.21761 0.49691 0.5606 0.0
H1132 H 0.29042 0.44333 0.55035 0.0
H1133 H 0.31232 0.40321 0.53938 0.0
H1134 H 0.26306 0.35225 0.58291 0.0
H1135 H 0.24053 0.39197 0.59394 0.0
C1136 C 0.24352 0.50782 0.66026 0.0
C1137 C 0.22974 0.48727 0.67301 0.0
C1138 C 0.2458 0.5034 0.63898 0.0
C1139 C 0.23456 0.47825 0.63014 0.0
C1140 C 0.22141 0.45748 0.64298 0.0
C1141 C 0.21903 0.46195 0.66421 0.0
C1142 C 0.23637 0.47344 0.60752 0.0
C1143 C 0.24884 0.45091 0.60056 0.0
C1144 C 0.22556 0.4906 0.59288 0.0
C1145 C 0.21092 0.51389 0.59919 0.0
C1146 C 0.18749 0.50948 0.61192 0.0
C1147 C 0.1736 0.53152 0.61753 0.0
C1148 C 0.18286 0.55802 0.61046 0.0
C1149 C 0.206 0.56255 0.59769 0.0
C1150 C 0.21995 0.54058 0.592 0.0
C1151 C 0.2097 0.4204 0.51854 0.0
C1152 C 0.21737 0.43853 0.50212 0.0
C1153 C 0.21793 0.42724 0.53872 0.0
C1154 C 0.23384 0.45251 0.54298 0.0
C1155 C 0.24261 0.4702 0.52649 0.0
C1156 C 0.23463 0.46312 0.50614 0.0
C1157 C 0.23844 0.46126 0.56483 0.0
C1158 C 0.22706 0.48449 0.57172 0.0
C1159 C 0.2501 0.44464 0.57941 0.0
C1160 C 0.26367 0.42065 0.5729 0.0
C1161 C 0.2841 0.42353 0.55749 0.0
C1162 C 0.29666 0.40086 0.55127 0.0
C1163 C 0.28906 0.37519 0.56042 0.0
C1164 C 0.26892 0.37215 0.57584 0.0
C1165 C 0.25628 0.39476 0.5821 0.0
H1166 H 0.29881 0.35767 0.55559 0.0
H1167 H 0.17204 0.57504 0.61482 0.0
H1168 H 0.75362 0.07287 0.90259 0.0
H1169 H 0.79593 0.10492 0.9064 0.0
H1170 H 0.75704 0.16858 0.8768 0.0
H1171 H 0.71474 0.13669 0.87282 0.0
H1172 H 0.80753 0.16449 0.86043 0.0
H1173 H 0.76836 0.17092 0.92798 0.0
H1174 H 0.74804 0.15305 0.96094 0.0
H1175 H 0.82155 0.11778 0.97501 0.0
H1176 H 0.84218 0.13512 0.94197 0.0
H1177 H 0.90886 0.27802 0.88484 0.0
H1178 H 0.86683 0.24579 0.88032 0.0
H1179 H 0.90423 0.18314 0.91251 0.0
H1180 H 0.9461 0.21531 0.91737 0.0
H1181 H 0.85433 0.18667 0.92746 0.0
H1182 H 0.89367 0.17999 0.86012 0.0
H1183 H 0.9141 0.19729 0.82705 0.0
H1184 H 0.84066 0.23238 0.81242 0.0
H1185 H 0.81992 0.21559 0.84555 0.0
C1186 C 0.75396 0.09377 0.89709 0.0
C1187 C 0.7308 0.1022 0.88738 0.0
C1188 C 0.77815 0.11207 0.8993 0.0
C1189 C 0.7796 0.13915 0.89191 0.0
C1190 C 0.75638 0.14775 0.88255 0.0
C1191 C 0.73217 0.12951 0.88039 0.0
C1192 C 0.80557 0.15828 0.89339 0.0
C1193 C 0.81759 0.16966 0.87511 0.0
C1194 C 0.81902 0.16443 0.91249 0.0
C1195 C 0.80671 0.15409 0.93241 0.0
C1196 C 0.78011 0.15916 0.93802 0.0
C1197 C 0.76855 0.14916 0.95674 0.0
C1198 C 0.78346 0.13422 0.97004 0.0
C1199 C 0.81001 0.12932 0.96468 0.0
C1200 C 0.82165 0.13925 0.94597 0.0
C1201 C 0.90828 0.25727 0.89071 0.0
C1202 C 0.93081 0.24926 0.90152 0.0
C1203 C 0.88424 0.23884 0.88809 0.0
C1204 C 0.8824 0.212 0.89603 0.0
C1205 C 0.90515 0.20377 0.90633 0.0
C1206 C 0.92912 0.22218 0.90901 0.0
C1207 C 0.85638 0.19288 0.89448 0.0
C1208 C 0.84432 0.18151 0.91276 0.0
C1209 C 0.84294 0.18668 0.87537 0.0
C1210 C 0.85535 0.19677 0.85542 0.0
C1211 C 0.88196 0.19159 0.84993 0.0
C1212 C 0.89358 0.20127 0.83116 0.0
C1213 C 0.87872 0.21599 0.81766 0.0
C1214 C 0.85217 0.221 0.8229 0.0
C1215 C 0.84046 0.21139 0.84166 0.0
H1216 H 0.88775 0.22346 0.80313 0.0
H1217 H 0.77447 0.1265 0.98452 0.0
H1218 H 0.44283 0.73573 0.26847 0.0
H1219 H 0.4565 0.72856 0.23283 0.0
H1220 H 0.52926 0.6965 0.25439 0.0
H1221 H 0.51586 0.70413 0.29023 0.0
H1222 H 0.54128 0.73722 0.22681 0.0
H1223 H 0.47932 0.65454 0.22912 0.0
H1224 H 0.43586 0.62485 0.23641 0.0
H1225 H 0.39335 0.67131 0.19364 0.0
H1226 H 0.43648 0.70158 0.18633 0.0
H1227 H 0.58395 0.73506 0.12506 0.0
H1228 H 0.56629 0.71111 0.15635 0.0
H1229 H 0.49009 0.7453 0.14981 0.0
H1230 H 0.50739 0.76905 0.11837 0.0
H1231 H 0.48286 0.6942 0.16987 0.0
H1232 H 0.54113 0.78191 0.17434 0.0
H1233 H 0.58342 0.81362 0.16732 0.0
H1234 H 0.63152 0.75879 0.19822 0.0
H1235 H 0.58948 0.72653 0.20512 0.0
C1236 C 0.4615 0.72668 0.26565 0.0
C1237 C 0.47816 0.72031 0.28218 0.0
C1238 C 0.46918 0.72237 0.24525 0.0
C1239 C 0.49374 0.71167 0.2409 0.0
C1240 C 0.51006 0.70451 0.2574 0.0
C1241 C 0.50227 0.70866 0.27788 0.0
C1242 C 0.50373 0.71124 0.21923 0.0
C1243 C 0.52885 0.7271 0.21445 0.0
C1244 C 0.48719 0.69867 0.203 0.0
C1245 C 0.46116 0.68045 0.20726 0.0
C1246 C 0.46068 0.65857 0.22138 0.0
C1247 C 0.4361 0.64161 0.2255 0.0
C1248 C 0.41185 0.64621 0.21551 0.0
C1249 C 0.41215 0.66777 0.20136 0.0
C1250 C 0.43668 0.68481 0.1972 0.0
C1251 C 0.56303 0.73667 0.1298 0.0
C1252 C 0.54738 0.75459 0.11952 0.0
C1253 C 0.55298 0.72297 0.14773 0.0
C1254 C 0.5272 0.72708 0.15571 0.0
C1255 C 0.51014 0.74203 0.14402 0.0
C1256 C 0.52013 0.75565 0.12601 0.0
C1257 C 0.52017 0.72035 0.17762 0.0
C1258 C 0.49559 0.70351 0.18236 0.0
C1259 C 0.53704 0.73218 0.19392 0.0
C1260 C 0.56226 0.75167 0.19001 0.0
C1261 C 0.56076 0.77654 0.1795 0.0
C1262 C 0.58467 0.79461 0.17556 0.0
C1263 C 0.61016 0.78818 0.18227 0.0
C1264 C 0.61177 0.7637 0.19299 0.0
C1265 C 0.58792 0.74551 0.19692 0.0
H1266 H 0.62865 0.8022 0.17921 0.0
H1267 H 0.39284 0.63306 0.21873 0.0
H1268 H 0.76786 0.47663 0.67663 0.0
H1269 H 0.76098 0.47842 0.63909 0.0
H1270 H 0.79863 0.56297 0.63848 0.0
H1271 H 0.80519 0.56136 0.67595 0.0
H1272 H 0.74864 0.55522 0.61904 0.0
H1273 H 0.83262 0.51541 0.61786 0.0
H1274 H 0.86418 0.48198 0.62688 0.0
H1275 H 0.80814 0.41664 0.60058 0.0
H1276 H 0.77606 0.44957 0.59156 0.0
H1277 H 0.74411 0.57625 0.51322 0.0
H1278 H 0.766 0.57009 0.54646 0.0
H1279 H 0.72886 0.48542 0.54804 0.0
H1280 H 0.70718 0.4913 0.51446 0.0
H1281 H 0.78116 0.49304 0.5665 0.0
H1282 H 0.69603 0.5321 0.57033 0.0
H1283 H 0.66408 0.56518 0.5614 0.0
H1284 H 0.72226 0.63172 0.58372 0.0
H1285 H 0.75473 0.59904 0.5925 0.0
C1286 C 0.77488 0.49548 0.6684 0.0
C1287 C 0.78746 0.51872 0.67908 0.0
C1288 C 0.77114 0.49642 0.64698 0.0
C1289 C 0.77963 0.52072 0.63597 0.0
C1290 C 0.79222 0.54393 0.64665 0.0
C1291 C 0.79615 0.54292 0.66801 0.0
C1292 C 0.77331 0.52267 0.61364 0.0
C1293 C 0.75617 0.54194 0.60752 0.0
C1294 C 0.78255 0.50482 0.59872 0.0
C1295 C 0.80178 0.48494 0.60419 0.0
C1296 C 0.82688 0.49388 0.61416 0.0
C1297 C 0.8449 0.47504 0.61924 0.0
C1298 C 0.83813 0.44723 0.61437 0.0
C1299 C 0.81335 0.43819 0.60436 0.0
C1300 C 0.79525 0.45694 0.59922 0.0
C1301 C 0.74111 0.55611 0.52037 0.0
C1302 C 0.72355 0.53438 0.51136 0.0
C1303 C 0.75363 0.55263 0.53939 0.0
C1304 C 0.74856 0.52748 0.54993 0.0
C1305 C 0.73295 0.50504 0.5402 0.0
C1306 C 0.72055 0.50845 0.52102 0.0
C1307 C 0.75667 0.52574 0.57197 0.0
C1308 C 0.7739 0.50644 0.57805 0.0
C1309 C 0.74749 0.54351 0.58698 0.0
C1310 C 0.72791 0.56317 0.58187 0.0
C1311 C 0.70208 0.55381 0.57319 0.0
C1312 C 0.68388 0.57248 0.56818 0.0
C1313 C 0.69117 0.60054 0.57194 0.0
C1314 C 0.71666 0.60998 0.58078 0.0
C1315 C 0.73497 0.5914 0.58579 0.0
H1316 H 0.67704 0.61497 0.56804 0.0
H1317 H 0.85213 0.43269 0.61832 0.0
H1318 H 0.10021 0.74558 0.9524 0.0
H1319 H 0.13889 0.78132 0.94698 0.0
H1320 H 0.13188 0.76928 0.88103 0.0
H1321 H 0.09269 0.73338 0.88633 0.0
H1322 H 0.18837 0.77988 0.93 0.0
H1323 H 0.14979 0.83286 0.85804 0.0
H1324 H 0.10595 0.84002 0.84146 0.0
H1325 H 0.06528 0.83251 0.90038 0.0
H1326 H 0.10892 0.82566 0.91732 0.0
H1327 H 0.29583 0.87445 0.88684 0.0
H1328 H 0.25769 0.83774 0.89189 0.0
H1329 H 0.20751 0.89668 0.9156 0.0
H1330 H 0.24547 0.93363 0.91039 0.0
H1331 H 0.17955 0.86275 0.8878 0.0
H1332 H 0.23475 0.85365 0.94804 0.0
H1333 H 0.27734 0.84848 0.96708 0.0
H1334 H 0.28241 0.77169 0.9363 0.0
H1335 H 0.24003 0.7766 0.91686 0.0
C1336 C 0.10681 0.75046 0.9367 0.0
C1337 C 0.09328 0.73668 0.91978 0.0
C1338 C 0.12905 0.77085 0.93365 0.0
C1339 C 0.1382 0.77806 0.91362 0.0
C1340 C 0.12496 0.7642 0.89663 0.0
C1341 C 0.10264 0.74367 0.89968 0.0
C1342 C 0.16145 0.8003 0.91075 0.0
C1343 C 0.18649 0.79793 0.92068 0.0
C1344 C 0.15885 0.82406 0.89888 0.0
C1345 C 0.13255 0.82843 0.88889 0.0
C1346 C 0.1315 0.83281 0.86745 0.0
C1347 C 0.10669 0.83681 0.85799 0.0
C1348 C 0.08283 0.83662 0.86984 0.0
C1349 C 0.08375 0.83253 0.8912 0.0
C1350 C 0.10851 0.82855 0.90073 0.0
C1351 C 0.27676 0.87961 0.89327 0.0
C1352 C 0.27371 0.90698 0.89823 0.0
C1353 C 0.25498 0.85858 0.89616 0.0
C1354 C 0.22979 0.86446 0.90418 0.0
C1355 C 0.22675 0.89171 0.90933 0.0
C1356 C 0.24853 0.91277 0.90645 0.0
C1357 C 0.2065 0.84224 0.90697 0.0
C1358 C 0.18149 0.8446 0.89699 0.0
C1359 C 0.20896 0.81869 0.91911 0.0
C1360 C 0.23437 0.81563 0.93085 0.0
C1361 C 0.24507 0.83577 0.94522 0.0
C1362 C 0.26915 0.83286 0.9561 0.0
C1363 C 0.28261 0.80981 0.95287 0.0
C1364 C 0.27198 0.78956 0.93877 0.0
C1365 C 0.24792 0.79238 0.92783 0.0
H1366 H 0.30125 0.8076 0.96131 0.0
H1367 H 0.06364 0.8397 0.86249 0.0
loop_
_geom_bond_atom_site_label_1
_geom_bond_atom_site_label_2
_geom_bond_distance
_geom_bond_site_symmetry_2
_ccdc_geom_bond_type
Mg0 O1 2.028 . S
Mg0 O7 1.986 . S
Mg0 O9 2.114 . S
Mg0 O10 2.251 . S
Mg0 O13 2.010 . S
O1 Mg0 2.028 . S
O1 C4 1.250 . S
O2 Mg3 2.028 . S
O2 C4 1.248 . S
Mg3 O2 2.028 . S
Mg3 O8 2.032 . S
Mg3 O10 2.079 . S
C4 O1 1.250 . S
C4 O2 1.248 . S
C5 O6 1.264 . S
C5 O13 1.249 . S
O6 C5 1.264 . S
O7 Mg0 1.986 . S
O7 C11 1.246 . S
O8 Mg3 2.032 . S
O8 C11 1.259 . S
O9 Mg0 2.114 . S
O9 C12 1.252 . S
O10 Mg0 2.251 . S
O10 Mg3 2.079 . S
O10 C12 1.273 . S
C11 O7 1.246 . S
C11 O8 1.259 . S
C12 O9 1.252 . S
C12 O10 1.273 . S
O13 Mg0 2.010 . S
O13 C5 1.249 . S
Mg14 O15 2.028 . S
Mg14 O21 1.986 . S
Mg14 O23 2.114 . S
Mg14 O24 2.251 . S
Mg14 O27 2.010 . S
O15 Mg14 2.028 . S
O15 C18 1.250 . S
O16 Mg17 2.028 . S
O16 C18 1.248 . S
Mg17 O16 2.028 . S
Mg17 O22 2.032 . S
Mg17 O24 2.079 . S
C18 O15 1.250 . S
C18 O16 1.248 . S
C19 O20 1.264 . S
C19 O27 1.249 . S
O20 C19 1.264 . S
O21 Mg14 1.986 . S
O21 C25 1.246 . S
O22 Mg17 2.032 . S
O22 C25 1.259 . S
O23 Mg14 2.114 . S
O23 C26 1.252 . S
O24 Mg14 2.251 . S
O24 Mg17 2.079 . S
O24 C26 1.273 . S
C25 O21 1.246 . S
C25 O22 1.259 . S
C26 O23 1.252 . S
C26 O24 1.273 . S
O27 Mg14 2.010 . S
O27 C19 1.249 . S
Mg28 O29 2.028 . S
Mg28 O35 1.986 . S
Mg28 O37 2.114 . S
Mg28 O38 2.251 . S
Mg28 O41 2.010 . S
O29 Mg28 2.028 . S
O29 C32 1.250 . S
O30 Mg31 2.028 . S
O30 C32 1.248 . S
Mg31 O30 2.028 . S
Mg31 O36 2.032 1_655 S
Mg31 O38 2.079 . S
C32 O29 1.250 . S
C32 O30 1.248 . S
C33 O34 1.264 . S
C33 O41 1.249 . S
O34 C33 1.264 . S
O35 Mg28 1.986 . S
O35 C39 1.246 1_655 S
O36 Mg31 2.032 1_455 S
O36 C39 1.259 . S
O37 Mg28 2.114 . S
O37 C40 1.252 . S
O38 Mg28 2.251 . S
O38 Mg31 2.079 . S
O38 C40 1.273 . S
C39 O35 1.246 1_455 S
C39 O36 1.259 . S
C40 O37 1.252 . S
C40 O38 1.273 . S
O41 Mg28 2.010 . S
O41 C33 1.249 . S
Mg42 O43 2.028 . S
Mg42 O49 1.986 . S
Mg42 O51 2.114 . S
Mg42 O52 2.251 . S
Mg42 O55 2.010 . S
O43 Mg42 2.028 . S
O43 C46 1.250 . S
O44 Mg45 2.028 . S
O44 C46 1.248 . S
Mg45 O44 2.028 . S
Mg45 O50 2.032 . S
Mg45 O52 2.079 . S
C46 O43 1.250 . S
C46 O44 1.248 . S
C47 O48 1.264 . S
C47 O55 1.249 . S
O48 C47 1.264 . S
O49 Mg42 1.986 . S
O49 C53 1.246 . S
O50 Mg45 2.032 . S
O50 C53 1.259 . S
O51 Mg42 2.114 . S
O51 C54 1.252 . S
O52 Mg42 2.251 . S
O52 Mg45 2.079 . S
O52 C54 1.273 . S
C53 O49 1.246 . S
C53 O50 1.259 . S
C54 O51 1.252 . S
C54 O52 1.273 . S
O55 Mg42 2.010 . S
O55 C47 1.249 . S
Mg56 O57 2.028 . S
Mg56 O63 1.986 . S
Mg56 O65 2.114 . S
Mg56 O66 2.251 . S
Mg56 O69 2.010 . S
O57 Mg56 2.028 . S
O57 C60 1.250 . S
O58 Mg59 2.028 . S
O58 C60 1.248 . S
Mg59 O58 2.028 . S
Mg59 O64 2.032 . S
Mg59 O66 2.079 . S
C60 O57 1.250 . S
C60 O58 1.248 . S
C61 O62 1.264 . S
C61 O69 1.249 . S
O62 C61 1.264 . S
O63 Mg56 1.986 . S
O63 C67 1.246 . S
O64 Mg59 2.032 . S
O64 C67 1.259 . S
O65 Mg56 2.114 . S
O65 C68 1.252 . S
O66 Mg56 2.251 . S
O66 Mg59 2.079 . S
O66 C68 1.273 . S
C67 O63 1.246 . S
C67 O64 1.259 . S
C68 O65 1.252 . S
C68 O66 1.273 . S
O69 Mg56 2.010 . S
O69 C61 1.249 . S
Mg70 O71 2.028 . S
Mg70 O77 1.986 . S
Mg70 O79 2.114 . S
Mg70 O80 2.251 . S
Mg70 O83 2.010 . S
O71 Mg70 2.028 . S
O71 C74 1.250 . S
O72 Mg73 2.028 . S
O72 C74 1.248 . S
Mg73 O72 2.028 . S
Mg73 O78 2.032 1_455 S
Mg73 O80 2.079 . S
C74 O71 1.250 . S
C74 O72 1.248 . S
C75 O76 1.264 . S
C75 O83 1.249 . S
O76 C75 1.264 . S
O77 Mg70 1.986 . S
O77 C81 1.246 1_455 S
O78 Mg73 2.032 1_655 S
O78 C81 1.259 . S
O79 Mg70 2.114 . S
O79 C82 1.252 . S
O80 Mg70 2.251 . S
O80 Mg73 2.079 . S
O80 C82 1.273 . S
C81 O77 1.246 1_655 S
C81 O78 1.259 . S
C82 O79 1.252 . S
C82 O80 1.273 . S
O83 Mg70 2.010 . S
O83 C75 1.249 . S
Mg84 O85 2.028 . S
Mg84 O91 1.986 . S
Mg84 O93 2.114 . S
Mg84 O94 2.251 . S
Mg84 O97 2.010 . S
O85 Mg84 2.028 . S
O85 C88 1.250 . S
O86 Mg87 2.028 . S
O86 C88 1.248 . S
Mg87 O86 2.028 . S
Mg87 O92 2.032 . S
Mg87 O94 2.079 . S
C88 O85 1.250 . S
C88 O86 1.248 . S
C89 O90 1.264 . S
C89 O97 1.249 . S
O90 C89 1.264 . S
O91 Mg84 1.986 . S
O91 C95 1.246 . S
O92 Mg87 2.032 . S
O92 C95 1.259 . S
O93 Mg84 2.114 . S
O93 C96 1.252 . S
O94 Mg84 2.251 . S
O94 Mg87 2.079 . S
O94 C96 1.273 . S
C95 O91 1.246 . S
C95 O92 1.259 . S
C96 O93 1.252 . S
C96 O94 1.273 . S
O97 Mg84 2.010 . S
O97 C89 1.249 . S
Mg98 O99 2.028 . S
Mg98 O105 1.986 . S
Mg98 O107 2.114 . S
Mg98 O108 2.251 . S
Mg98 O111 2.010 . S
O99 Mg98 2.028 . S
O99 C102 1.250 . S
O100 Mg101 2.028 . S
O100 C102 1.248 . S
Mg101 O100 2.028 . S
Mg101 O106 2.032 1_565 S
Mg101 O108 2.079 . S
C102 O99 1.250 . S
C102 O100 1.248 . S
C103 O104 1.264 . S
C103 O111 1.249 . S
O104 C103 1.264 . S
O105 Mg98 1.986 . S
O105 C109 1.246 1_565 S
O106 Mg101 2.032 1_545 S
O106 C109 1.259 . S
O107 Mg98 2.114 . S
O107 C110 1.252 . S
O108 Mg98 2.251 . S
O108 Mg101 2.079 . S
O108 C110 1.273 . S
C109 O105 1.246 1_545 S
C109 O106 1.259 . S
C110 O107 1.252 . S
C110 O108 1.273 . S
O111 Mg98 2.010 . S
O111 C103 1.249 . S
Mg112 O113 2.028 . S
Mg112 O119 1.986 . S
Mg112 O121 2.114 . S
Mg112 O122 2.251 . S
Mg112 O125 2.010 . S
O113 Mg112 2.028 . S
O113 C116 1.250 . S
O114 Mg115 2.028 . S
O114 C116 1.248 . S
Mg115 O114 2.028 . S
Mg115 O120 2.032 . S
Mg115 O122 2.079 . S
C116 O113 1.250 . S
C116 O114 1.248 . S
C117 O118 1.264 . S
C117 O125 1.249 . S
O118 C117 1.264 . S
O119 Mg112 1.986 . S
O119 C123 1.246 . S
O120 Mg115 2.032 . S
O120 C123 1.259 . S
O121 Mg112 2.114 . S
O121 C124 1.252 . S
O122 Mg112 2.251 . S
O122 Mg115 2.079 . S
O122 C124 1.273 . S
C123 O119 1.246 . S
C123 O120 1.259 . S
C124 O121 1.252 . S
C124 O122 1.273 . S
O125 Mg112 2.010 . S
O125 C117 1.249 . S
Mg126 O127 2.028 . S
Mg126 O133 1.986 . S
Mg126 O135 2.114 . S
Mg126 O136 2.251 . S
Mg126 O139 2.010 . S
O127 Mg126 2.028 . S
O127 C130 1.250 . S
O128 Mg129 2.028 . S
O128 C130 1.248 . S
Mg129 O128 2.028 . S
Mg129 O134 2.032 . S
Mg129 O136 2.079 . S
C130 O127 1.250 . S
C130 O128 1.248 . S
C131 O132 1.264 . S
C131 O139 1.249 . S
O132 C131 1.264 . S
O133 Mg126 1.986 . S
O133 C137 1.246 . S
O134 Mg129 2.032 . S
O134 C137 1.259 . S
O135 Mg126 2.114 . S
O135 C138 1.252 . S
O136 Mg126 2.251 . S
O136 Mg129 2.079 . S
O136 C138 1.273 . S
C137 O133 1.246 . S
C137 O134 1.259 . S
C138 O135 1.252 . S
C138 O136 1.273 . S
O139 Mg126 2.010 . S
O139 C131 1.249 . S
Mg140 O141 2.028 . S
Mg140 O147 1.986 . S
Mg140 O149 2.114 . S
Mg140 O150 2.251 . S
Mg140 O153 2.010 . S
O141 Mg140 2.028 . S
O141 C144 1.250 . S
O142 Mg143 2.028 . S
O142 C144 1.248 . S
Mg143 O142 2.028 . S
Mg143 O148 2.032 1_545 S
Mg143 O150 2.079 . S
C144 O141 1.250 . S
C144 O142 1.248 . S
C145 O146 1.264 . S
C145 O153 1.249 . S
O146 C145 1.264 . S
O147 Mg140 1.986 . S
O147 C151 1.246 1_545 S
O148 Mg143 2.032 1_565 S
O148 C151 1.259 . S
O149 Mg140 2.114 . S
O149 C152 1.252 . S
O150 Mg140 2.251 . S
O150 Mg143 2.079 . S
O150 C152 1.273 . S
C151 O147 1.246 1_565 S
C151 O148 1.259 . S
C152 O149 1.252 . S
C152 O150 1.273 . S
O153 Mg140 2.010 . S
O153 C145 1.249 . S
Mg154 O155 2.028 . S
Mg154 O161 1.986 . S
Mg154 O163 2.114 . S
Mg154 O164 2.251 . S
Mg154 O167 2.010 . S
O155 Mg154 2.028 . S
O155 C158 1.250 . S
O156 Mg157 2.028 . S
O156 C158 1.248 . S
Mg157 O156 2.028 . S
Mg157 O162 2.032 . S
Mg157 O164 2.079 . S
C158 O155 1.250 . S
C158 O156 1.248 . S
C159 O160 1.264 . S
C159 O167 1.249 . S
O160 C159 1.264 . S
O161 Mg154 1.986 . S
O161 C165 1.246 . S
O162 Mg157 2.032 . S
O162 C165 1.259 . S
O163 Mg154 2.114 . S
O163 C166 1.252 . S
O164 Mg154 2.251 . S
O164 Mg157 2.079 . S
O164 C166 1.273 . S
C165 O161 1.246 . S
C165 O162 1.259 . S
C166 O163 1.252 . S
C166 O164 1.273 . S
O167 Mg154 2.010 . S
O167 C159 1.249 . S
H168 C186 0.951 . S
H169 C188 0.951 1_556 S
H170 C190 0.950 . S
H171 C191 0.950 . S
H172 C193 0.927 1_554 S
H173 C196 0.950 . S
H174 C197 0.950 . S
H175 C199 0.950 . S
H176 C200 0.950 . S
H177 C201 0.951 . S
H178 C203 0.951 . S
H179 C205 0.950 . S
H180 C206 0.950 . S
H181 C208 0.950 . S
H182 C211 0.950 . S
H183 C212 0.950 . S
H184 C214 0.950 1_554 S
H185 C215 0.950 1_554 S
C186 H168 0.951 . S
C186 C187 1.366 . S
C186 C188 1.388 . S
C187 C186 1.366 . S
C187 C191 1.385 . S
C188 H169 0.951 1_554 S
C188 C186 1.388 . S
C188 C189 1.366 . S
C189 C188 1.366 . S
C189 C190 1.414 . S
C189 C192 1.499 . S
C190 H170 0.950 . S
C190 C189 1.414 . S
C190 C191 1.374 . S
C191 H171 0.950 . S
C191 C187 1.385 . S
C191 C190 1.374 . S
C192 C189 1.499 . S
C192 C193 1.367 1_554 S
C192 C194 1.389 1_554 S
C193 H172 0.927 1_556 S
C193 C192 1.367 1_556 S
C193 C209 1.408 . S
C194 C192 1.389 1_556 S
C194 C195 1.524 . S
C194 C208 1.377 . S
C195 C194 1.524 . S
C195 C196 1.397 1_556 S
C195 C200 1.363 . S
C196 H173 0.950 . S
C196 C195 1.397 1_554 S
C196 C197 1.334 . S
C197 H174 0.950 . S
C197 C196 1.334 . S
C197 C198 1.287 . S
C198 C197 1.287 . S
C198 C199 1.524 1_554 S
C198 H217 0.913 . S
C199 H175 0.950 . S
C199 C198 1.524 1_556 S
C199 C200 1.415 . S
C200 H176 0.950 . S
C200 C195 1.363 . S
C200 C199 1.415 . S
C201 H177 0.951 . S
C201 C202 1.366 . S
C201 C203 1.388 . S
C202 C201 1.366 . S
C202 C206 1.385 . S
C203 H178 0.951 . S
C203 C201 1.388 . S
C203 C204 1.366 . S
C204 C203 1.366 . S
C204 C205 1.414 . S
C204 C207 1.499 . S
C205 H179 0.950 . S
C205 C204 1.414 . S
C205 C206 1.374 . S
C206 H180 0.950 . S
C206 C202 1.385 . S
C206 C205 1.374 . S
C207 C204 1.499 . S
C207 C208 1.373 . S
C207 C209 1.389 . S
C208 H181 0.950 . S
C208 C194 1.377 . S
C208 C207 1.373 . S
C209 C193 1.408 . S
C209 C207 1.389 . S
C209 C210 1.524 . S
C210 C209 1.524 . S
C210 C211 1.397 . S
C210 C215 1.363 . S
C211 H182 0.950 . S
C211 C210 1.397 . S
C211 C212 1.334 . S
C212 H183 0.950 . S
C212 C211 1.334 . S
C212 C213 1.287 . S
C213 C212 1.287 . S
C213 C214 1.524 . S
C213 H216 0.999 . S
C214 H184 0.950 1_556 S
C214 C213 1.524 . S
C214 C215 1.415 . S
C215 H185 0.950 1_556 S
C215 C210 1.363 . S
C215 C214 1.415 . S
H216 C213 0.999 . S
H217 C198 0.913 . S
H218 C236 0.951 . S
H219 C238 0.951 . S
H220 C240 0.950 . S
H221 C241 0.950 . S
H222 C243 0.950 . S
H223 C246 0.950 . S
H224 C247 0.950 . S
H225 C249 0.950 . S
H226 C250 0.950 . S
H227 C251 0.951 . S
H228 C253 0.951 . S
H229 C255 0.950 . S
H230 C256 0.950 . S
H231 C258 0.950 . S
H232 C261 0.950 . S
H233 C262 0.950 . S
H234 C264 0.950 . S
H235 C265 0.950 . S
C236 H218 0.951 . S
C236 C237 1.366 . S
C236 C238 1.388 . S
C237 C236 1.366 . S
C237 C241 1.385 . S
C238 H219 0.951 . S
C238 C236 1.388 . S
C238 C239 1.366 . S
C239 C238 1.366 . S
C239 C240 1.414 . S
C239 C242 1.499 . S
C240 H220 0.950 . S
C240 C239 1.414 . S
C240 C241 1.374 . S
C241 H221 0.950 . S
C241 C237 1.385 . S
C241 C240 1.374 . S
C242 C239 1.499 . S
C242 C243 1.373 . S
C242 C244 1.389 . S
C243 H222 0.950 . S
C243 C242 1.373 . S
C243 C259 1.377 . S
C244 C242 1.389 . S
C244 C245 1.524 . S
C244 C258 1.377 . S
C245 C244 1.524 . S
C245 C246 1.397 . S
C245 C250 1.363 . S
C246 H223 0.950 . S
C246 C245 1.397 . S
C246 C247 1.334 . S
C247 H224 0.950 . S
C247 C246 1.334 . S
C247 C248 1.287 . S
C248 C247 1.287 . S
C248 C249 1.524 . S
C248 H267 0.913 . S
C249 H225 0.950 . S
C249 C248 1.524 . S
C249 C250 1.415 . S
C250 H226 0.950 . S
C250 C245 1.363 . S
C250 C249 1.415 . S
C251 H227 0.951 . S
C251 C252 1.366 . S
C251 C253 1.388 . S
C252 C251 1.366 . S
C252 C256 1.385 . S
C253 H228 0.951 . S
C253 C251 1.388 . S
C253 C254 1.366 . S
C254 C253 1.366 . S
C254 C255 1.414 . S
C254 C257 1.499 . S
C255 H229 0.950 . S
C255 C254 1.414 . S
C255 C256 1.374 . S
C256 H230 0.950 . S
C256 C252 1.385 . S
C256 C255 1.374 . S
C257 C254 1.499 . S
C257 C258 1.373 . S
C257 C259 1.389 . S
C258 H231 0.950 . S
C258 C244 1.377 . S
C258 C257 1.373 . S
C259 C243 1.377 . S
C259 C257 1.389 . S
C259 C260 1.524 . S
C260 C259 1.524 . S
C260 C261 1.397 . S
C260 C265 1.363 . S
C261 H232 0.950 . S
C261 C260 1.397 . S
C261 C262 1.334 . S
C262 H233 0.950 . S
C262 C261 1.334 . S
C262 C263 1.287 . S
C263 C262 1.287 . S
C263 C264 1.524 . S
C263 H266 0.999 . S
C264 H234 0.950 . S
C264 C263 1.524 . S
C264 C265 1.415 . S
C265 H235 0.950 . S
C265 C260 1.363 . S
C265 C264 1.415 . S
H266 C263 0.999 . S
H267 C248 0.913 . S
H268 C286 0.951 . S
H269 C288 0.951 . S
H270 C290 0.950 . S
H271 C291 0.950 . S
H272 C293 0.950 . S
H273 C296 0.950 . S
H274 C297 0.950 . S
H275 C299 0.950 . S
H276 C300 0.950 . S
H277 C301 0.951 . S
H278 C303 0.951 . S
H279 C305 0.950 . S
H280 C306 0.950 . S
H281 C308 0.950 . S
H282 C311 0.950 . S
H283 C312 0.950 . S
H284 C314 0.950 . S
H285 C315 0.950 . S
C286 H268 0.951 . S
C286 C287 1.366 . S
C286 C288 1.388 . S
C287 C286 1.366 . S
C287 C291 1.385 . S
C288 H269 0.951 . S
C288 C286 1.388 . S
C288 C289 1.366 . S
C289 C288 1.366 . S
C289 C290 1.414 . S
C289 C292 1.499 . S
C290 H270 0.950 . S
C290 C289 1.414 . S
C290 C291 1.374 . S
C291 H271 0.950 . S
C291 C287 1.385 . S
C291 C290 1.374 . S
C292 C289 1.499 . S
C292 C293 1.373 . S
C292 C294 1.389 . S
C293 H272 0.950 . S
C293 C292 1.373 . S
C293 C309 1.377 . S
C294 C292 1.389 . S
C294 C295 1.524 . S
C294 C308 1.377 . S
C295 C294 1.524 . S
C295 C296 1.397 . S
C295 C300 1.363 . S
C296 H273 0.950 . S
C296 C295 1.397 . S
C296 C297 1.334 . S
C297 H274 0.950 . S
C297 C296 1.334 . S
C297 C298 1.287 . S
C298 C297 1.287 . S
C298 C299 1.524 . S
C298 H317 0.913 . S
C299 H275 0.950 . S
C299 C298 1.524 . S
C299 C300 1.415 . S
C300 H276 0.950 . S
C300 C295 1.363 . S
C300 C299 1.415 . S
C301 H277 0.951 . S
C301 C302 1.366 . S
C301 C303 1.388 . S
C302 C301 1.366 . S
C302 C306 1.385 . S
C303 H278 0.951 . S
C303 C301 1.388 . S
C303 C304 1.366 . S
C304 C303 1.366 . S
C304 C305 1.414 . S
C304 C307 1.499 . S
C305 H279 0.950 . S
C305 C304 1.414 . S
C305 C306 1.374 . S
C306 H280 0.950 . S
C306 C302 1.385 . S
C306 C305 1.374 . S
C307 C304 1.499 . S
C307 C308 1.373 . S
C307 C309 1.389 . S
C308 H281 0.950 . S
C308 C294 1.377 . S
C308 C307 1.373 . S
C309 C293 1.377 . S
C309 C307 1.389 . S
C309 C310 1.524 . S
C310 C309 1.524 . S
C310 C311 1.397 . S
C310 C315 1.363 . S
C311 H282 0.950 . S
C311 C310 1.397 . S
C311 C312 1.334 . S
C312 H283 0.950 . S
C312 C311 1.334 . S
C312 C313 1.287 . S
C313 C312 1.287 . S
C313 C314 1.524 . S
C313 H316 0.999 . S
C314 H284 0.950 . S
C314 C313 1.524 . S
C314 C315 1.415 . S
C315 H285 0.950 . S
C315 C310 1.363 . S
C315 C314 1.415 . S
H316 C313 0.999 . S
H317 C298 0.913 . S
H318 C336 0.951 . S
H319 C338 0.951 . S
H320 C340 0.950 . S
H321 C341 0.950 . S
H322 C343 0.950 . S
H323 C346 0.950 . S
H324 C347 0.950 . S
H325 C349 0.950 . S
H326 C350 0.950 . S
H327 C351 0.951 . S
H328 C353 0.951 . S
H329 C355 0.950 . S
H330 C356 0.950 . S
H331 C358 0.950 . S
H332 C361 0.967 . S
H333 C362 0.950 . S
H334 C364 0.950 . S
H335 C365 0.950 . S
C336 H318 0.951 . S
C336 C337 1.366 . S
C336 C338 1.388 . S
C337 C336 1.366 . S
C337 C341 1.385 . S
C338 H319 0.951 . S
C338 C336 1.388 . S
C338 C339 1.366 . S
C339 C338 1.366 . S
C339 C340 1.414 . S
C339 C342 1.510 . S
C340 H320 0.950 . S
C340 C339 1.414 . S
C340 C341 1.374 . S
C341 H321 0.950 . S
C341 C337 1.385 . S
C341 C340 1.374 . S
C342 C339 1.510 . S
C342 C343 1.380 . S
C342 C344 1.372 1_554 S
C343 H322 0.950 . S
C343 C342 1.380 . S
C343 C359 1.377 1_554 S
C344 C342 1.372 1_556 S
C344 C345 1.524 . S
C344 C358 1.377 . S
C345 C344 1.524 . S
C345 C346 1.397 . S
C345 C350 1.363 . S
C346 H323 0.950 . S
C346 C345 1.397 . S
C346 C347 1.334 . S
C347 H324 0.950 . S
C347 C346 1.334 . S
C347 C348 1.287 . S
C348 C347 1.287 . S
C348 C349 1.524 . S
C348 H367 0.913 . S
C349 H325 0.950 . S
C349 C348 1.524 . S
C349 C350 1.415 . S
C350 H326 0.950 . S
C350 C345 1.363 . S
C350 C349 1.415 . S
C351 H327 0.951 . S
C351 C352 1.366 . S
C351 C353 1.388 . S
C352 C351 1.366 . S
C352 C356 1.385 . S
C353 H328 0.951 . S
C353 C351 1.388 . S
C353 C354 1.366 . S
C354 C353 1.366 . S
C354 C355 1.414 . S
C354 C357 1.499 . S
C355 H329 0.950 . S
C355 C354 1.414 . S
C355 C356 1.374 . S
C356 H330 0.950 . S
C356 C352 1.385 . S
C356 C355 1.374 . S
C357 C354 1.499 . S
C357 C358 1.373 . S
C357 C359 1.389 . S
C358 H331 0.950 . S
C358 C344 1.377 . S
C358 C357 1.373 . S
C359 C343 1.377 1_556 S
C359 C357 1.389 . S
C359 C360 1.524 1_556 S
C360 C359 1.524 1_554 S
C360 C361 1.397 . S
C360 C365 1.363 . S
C361 H332 0.967 . S
C361 C360 1.397 . S
C361 C362 1.334 . S
C362 H333 0.950 . S
C362 C361 1.334 . S
C362 C363 1.287 . S
C363 C362 1.287 . S
C363 C364 1.524 . S
C363 H366 0.999 . S
C364 H334 0.950 . S
C364 C363 1.524 . S
C364 C365 1.415 . S
C365 H335 0.950 . S
C365 C360 1.363 . S
C365 C364 1.415 . S
H366 C363 0.999 . S
H367 C348 0.913 . S
H368 C386 0.951 . S
H369 C388 0.951 . S
H370 C390 0.950 . S
H371 C391 0.950 . S
H372 C393 0.950 . S
H373 C396 0.950 . S
H374 C397 0.950 . S
H375 C399 0.950 . S
H376 C400 0.950 . S
H377 C401 0.951 . S
H378 C403 0.951 . S
H379 C405 0.950 . S
H380 C406 0.950 . S
H381 C408 0.950 . S
H382 C411 0.950 . S
H383 C412 0.950 . S
H384 C414 0.950 . S
H385 C415 0.950 . S
C386 H368 0.951 . S
C386 C387 1.366 . S
C386 C388 1.388 . S
C387 C386 1.366 . S
C387 C391 1.385 . S
C388 H369 0.951 . S
C388 C386 1.388 . S
C388 C389 1.366 . S
C389 C388 1.366 . S
C389 C390 1.414 . S
C389 C392 1.499 . S
C390 H370 0.950 . S
C390 C389 1.414 . S
C390 C391 1.374 . S
C391 H371 0.950 . S
C391 C387 1.385 . S
C391 C390 1.374 . S
C392 C389 1.499 . S
C392 C393 1.373 . S
C392 C394 1.389 . S
C393 H372 0.950 . S
C393 C392 1.373 . S
C393 C409 1.377 . S
C394 C392 1.389 . S
C394 C395 1.524 . S
C394 C408 1.377 . S
C395 C394 1.524 . S
C395 C396 1.397 . S
C395 C400 1.363 . S
C396 H373 0.950 . S
C396 C395 1.397 . S
C396 C397 1.334 . S
C397 H374 0.950 . S
C397 C396 1.334 . S
C397 C398 1.287 . S
C398 C397 1.287 . S
C398 C399 1.524 . S
C398 H417 0.913 . S
C399 H375 0.950 . S
C399 C398 1.524 . S
C399 C400 1.415 . S
C400 H376 0.950 . S
C400 C395 1.363 . S
C400 C399 1.415 . S
C401 H377 0.951 . S
C401 C402 1.366 . S
C401 C403 1.388 . S
C402 C401 1.366 . S
C402 C406 1.385 . S
C403 H378 0.951 . S
C403 C401 1.388 . S
C403 C404 1.366 . S
C404 C403 1.366 . S
C404 C405 1.414 . S
C404 C407 1.499 . S
C405 H379 0.950 . S
C405 C404 1.414 . S
C405 C406 1.374 . S
C406 H380 0.950 . S
C406 C402 1.385 . S
C406 C405 1.374 . S
C407 C404 1.499 . S
C407 C408 1.373 . S
C407 C409 1.389 . S
C408 H381 0.950 . S
C408 C394 1.377 . S
C408 C407 1.373 . S
C409 C393 1.377 . S
C409 C407 1.389 . S
C409 C410 1.524 . S
C410 C409 1.524 . S
C410 C411 1.397 . S
C410 C415 1.363 . S
C411 H382 0.950 . S
C411 C410 1.397 . S
C411 C412 1.334 . S
C412 H383 0.950 . S
C412 C411 1.334 . S
C412 C413 1.287 . S
C413 C412 1.287 . S
C413 C414 1.524 . S
C413 H416 0.999 . S
C414 H384 0.950 . S
C414 C413 1.524 . S
C414 C415 1.415 . S
C415 H385 0.950 . S
C415 C410 1.363 . S
C415 C414 1.415 . S
H416 C413 0.999 . S
H417 C398 0.913 . S
H418 C436 0.951 . S
H419 C438 0.951 . S
H420 C440 0.950 . S
H421 C441 0.950 . S
H422 C443 0.950 . S
H423 C446 0.950 . S
H424 C447 0.950 . S
H425 C449 0.950 . S
H426 C450 0.950 . S
H427 C451 0.951 . S
H428 C453 0.951 . S
H429 C455 0.950 . S
H430 C456 0.950 . S
H431 C458 0.950 . S
H432 C461 0.950 . S
H433 C462 0.950 . S
H434 C464 0.950 . S
H435 C465 0.950 . S
C436 H418 0.951 . S
C436 C437 1.366 . S
C436 C438 1.388 . S
C437 C436 1.366 . S
C437 C441 1.385 . S
C438 H419 0.951 . S
C438 C436 1.388 . S
C438 C439 1.366 . S
C439 C438 1.366 . S
C439 C440 1.414 . S
C439 C442 1.499 . S
C440 H420 0.950 . S
C440 C439 1.414 . S
C440 C441 1.374 . S
C441 H421 0.950 . S
C441 C437 1.385 . S
C441 C440 1.374 . S
C442 C439 1.499 . S
C442 C443 1.373 . S
C442 C444 1.389 . S
C443 H422 0.950 . S
C443 C442 1.373 . S
C443 C459 1.377 . S
C444 C442 1.389 . S
C444 C445 1.524 . S
C444 C458 1.377 . S
C445 C444 1.524 . S
C445 C446 1.397 . S
C445 C450 1.363 . S
C446 H423 0.950 . S
C446 C445 1.397 . S
C446 C447 1.334 . S
C447 H424 0.950 . S
C447 C446 1.334 . S
C447 C448 1.287 . S
C448 C447 1.287 . S
C448 C449 1.524 . S
C448 H467 0.913 . S
C449 H425 0.950 . S
C449 C448 1.524 . S
C449 C450 1.415 . S
C450 H426 0.950 . S
C450 C445 1.363 . S
C450 C449 1.415 . S
C451 H427 0.951 . S
C451 C452 1.366 . S
C451 C453 1.388 . S
C452 C451 1.366 . S
C452 C456 1.385 . S
C453 H428 0.951 . S
C453 C451 1.388 . S
C453 C454 1.366 . S
C454 C453 1.366 . S
C454 C455 1.414 . S
C454 C457 1.499 . S
C455 H429 0.950 . S
C455 C454 1.414 . S
C455 C456 1.374 . S
C456 H430 0.950 . S
C456 C452 1.385 . S
C456 C455 1.374 . S
C457 C454 1.499 . S
C457 C458 1.373 . S
C457 C459 1.389 . S
C458 H431 0.950 . S
C458 C444 1.377 . S
C458 C457 1.373 . S
C459 C443 1.377 . S
C459 C457 1.389 . S
C459 C460 1.524 . S
C460 C459 1.524 . S
C460 C461 1.397 . S
C460 C465 1.363 . S
C461 H432 0.950 . S
C461 C460 1.397 . S
C461 C462 1.334 . S
C462 H433 0.950 . S
C462 C461 1.334 . S
C462 C463 1.287 . S
C463 C462 1.287 . S
C463 C464 1.524 . S
C463 H466 0.999 . S
C464 H434 0.950 . S
C464 C463 1.524 . S
C464 C465 1.415 . S
C465 H435 0.950 . S
C465 C460 1.363 . S
C465 C464 1.415 . S
H466 C463 0.999 . S
H467 C448 0.913 . S
H468 C486 0.951 . S
H469 C488 0.951 . S
H470 C490 0.950 . S
H471 C491 0.950 . S
H472 C493 0.950 . S
H473 C496 0.950 . S
H474 C497 0.950 . S
H475 C499 0.950 . S
H476 C500 0.950 . S
H477 C501 0.951 1_565 S
H478 C503 0.951 . S
H479 C505 0.950 . S
H480 C506 0.950 . S
H481 C508 0.950 . S
H482 C511 0.950 . S
H483 C512 0.950 . S
H484 C514 0.950 . S
H485 C515 0.950 . S
C486 H468 0.951 . S
C486 C487 1.366 . S
C486 C488 1.388 . S
C487 C486 1.366 . S
C487 C491 1.385 . S
C488 H469 0.951 . S
C488 C486 1.388 . S
C488 C489 1.366 . S
C489 C488 1.366 . S
C489 C490 1.414 . S
C489 C492 1.474 1_554 S
C490 H470 0.950 . S
C490 C489 1.414 . S
C490 C491 1.374 . S
C491 H471 0.950 . S
C491 C487 1.385 . S
C491 C490 1.374 . S
C492 C489 1.474 1_556 S
C492 C493 1.406 . S
C492 C494 1.385 1_556 S
C493 H472 0.950 . S
C493 C492 1.406 . S
C493 C509 1.377 . S
C494 C492 1.385 1_554 S
C494 C495 1.524 . S
C494 C508 1.377 1_554 S
C495 C494 1.524 . S
C495 C496 1.397 . S
C495 C500 1.363 . S
C496 H473 0.950 . S
C496 C495 1.397 . S
C496 C497 1.334 . S
C497 H474 0.950 . S
C497 C496 1.334 . S
C497 C498 1.287 . S
C498 C497 1.287 . S
C498 C499 1.524 . S
C498 H517 0.913 . S
C499 H475 0.950 . S
C499 C498 1.524 . S
C499 C500 1.415 . S
C500 H476 0.950 . S
C500 C495 1.363 . S
C500 C499 1.415 . S
C501 H477 0.951 1_545 S
C501 C502 1.366 . S
C501 C503 1.388 . S
C502 C501 1.366 . S
C502 C506 1.385 . S
C503 H478 0.951 . S
C503 C501 1.388 . S
C503 C504 1.366 . S
C504 C503 1.366 . S
C504 C505 1.414 . S
C504 C507 1.499 . S
C505 H479 0.950 . S
C505 C504 1.414 . S
C505 C506 1.374 . S
C506 H480 0.950 . S
C506 C502 1.385 . S
C506 C505 1.374 . S
C507 C504 1.499 . S
C507 C508 1.373 . S
C507 C509 1.389 . S
C508 H481 0.950 . S
C508 C494 1.377 1_556 S
C508 C507 1.373 . S
C509 C493 1.377 . S
C509 C507 1.389 . S
C509 C510 1.524 . S
C510 C509 1.524 . S
C510 C511 1.397 . S
C510 C515 1.363 . S
C511 H482 0.950 . S
C511 C510 1.397 . S
C511 C512 1.334 . S
C512 H483 0.950 . S
C512 C511 1.334 . S
C512 C513 1.287 . S
C513 C512 1.287 . S
C513 C514 1.524 . S
C513 H516 0.999 . S
C514 H484 0.950 . S
C514 C513 1.524 . S
C514 C515 1.415 . S
C515 H485 0.950 . S
C515 C510 1.363 . S
C515 C514 1.415 . S
H516 C513 0.999 . S
H517 C498 0.913 . S
H518 C536 0.951 . S
H519 C538 0.951 . S
H520 C540 0.950 . S
H521 C541 0.950 . S
H522 C543 0.950 . S
H523 C546 0.950 . S
H524 C547 0.950 . S
H525 C549 0.950 . S
H526 C550 0.950 . S
H527 C551 0.951 . S
H528 C553 0.951 . S
H529 C555 0.950 . S
H530 C556 0.950 . S
H531 C558 0.950 . S
H532 C561 0.950 . S
H533 C562 0.950 . S
H534 C564 0.950 . S
H535 C565 0.950 . S
C536 H518 0.951 . S
C536 C537 1.366 . S
C536 C538 1.388 . S
C537 C536 1.366 . S
C537 C541 1.385 . S
C538 H519 0.951 . S
C538 C536 1.388 . S
C538 C539 1.366 . S
C539 C538 1.366 . S
C539 C540 1.414 . S
C539 C542 1.499 . S
C540 H520 0.950 . S
C540 C539 1.414 . S
C540 C541 1.374 . S
C541 H521 0.950 . S
C541 C537 1.385 . S
C541 C540 1.374 . S
C542 C539 1.499 . S
C542 C543 1.373 . S
C542 C544 1.389 . S
C543 H522 0.950 . S
C543 C542 1.373 . S
C543 C559 1.377 . S
C544 C542 1.389 . S
C544 C545 1.524 . S
C544 C558 1.377 . S
C545 C544 1.524 . S
C545 C546 1.397 . S
C545 C550 1.363 . S
C546 H523 0.950 . S
C546 C545 1.397 . S
C546 C547 1.334 . S
C547 H524 0.950 . S
C547 C546 1.334 . S
C547 C548 1.287 . S
C548 C547 1.287 . S
C548 C549 1.524 . S
C548 H567 0.913 . S
C549 H525 0.950 . S
C549 C548 1.524 . S
C549 C550 1.415 . S
C550 H526 0.950 . S
C550 C545 1.363 . S
C550 C549 1.415 . S
C551 H527 0.951 . S
C551 C552 1.366 . S
C551 C553 1.388 . S
C552 C551 1.366 . S
C552 C556 1.385 . S
C553 H528 0.951 . S
C553 C551 1.388 . S
C553 C554 1.366 . S
C554 C553 1.366 . S
C554 C555 1.414 . S
C554 C557 1.499 . S
C555 H529 0.950 . S
C555 C554 1.414 . S
C555 C556 1.374 . S
C556 H530 0.950 . S
C556 C552 1.385 . S
C556 C555 1.374 . S
C557 C554 1.499 . S
C557 C558 1.373 . S
C557 C559 1.389 . S
C558 H531 0.950 . S
C558 C544 1.377 . S
C558 C557 1.373 . S
C559 C543 1.377 . S
C559 C557 1.389 . S
C559 C560 1.524 . S
C560 C559 1.524 . S
C560 C561 1.397 . S
C560 C565 1.363 . S
C561 H532 0.950 . S
C561 C560 1.397 . S
C561 C562 1.334 . S
C562 H533 0.950 . S
C562 C561 1.334 . S
C562 C563 1.287 . S
C563 C562 1.287 . S
C563 C564 1.524 . S
C563 H566 0.999 . S
C564 H534 0.950 . S
C564 C563 1.524 . S
C564 C565 1.415 . S
C565 H535 0.950 . S
C565 C560 1.363 . S
C565 C564 1.415 . S
H566 C563 0.999 . S
H567 C548 0.913 . S
H568 C586 0.951 . S
H569 C588 0.951 . S
H570 C590 0.950 . S
H571 C591 0.950 . S
H572 C593 0.950 . S
H573 C596 0.950 . S
H574 C597 0.950 . S
H575 C599 0.950 . S
H576 C600 0.950 . S
H577 C601 0.951 . S
H578 C603 0.951 . S
H579 C605 0.950 . S
H580 C606 0.944 1_655 S
H581 C608 0.950 . S
H582 C611 0.950 . S
H583 C612 0.950 . S
H584 C614 0.950 . S
H585 C615 0.950 . S
C586 H568 0.951 . S
C586 C587 1.366 . S
C586 C588 1.388 . S
C587 C586 1.366 . S
C587 C591 1.385 . S
C588 H569 0.951 . S
C588 C586 1.388 . S
C588 C589 1.366 . S
C589 C588 1.366 . S
C589 C590 1.414 . S
C589 C592 1.499 . S
C590 H570 0.950 . S
C590 C589 1.414 . S
C590 C591 1.374 . S
C591 H571 0.950 . S
C591 C587 1.385 . S
C591 C590 1.374 . S
C592 C589 1.499 . S
C592 C593 1.373 . S
C592 C594 1.389 . S
C593 H572 0.950 . S
C593 C592 1.373 . S
C593 C609 1.377 . S
C594 C592 1.389 . S
C594 C595 1.524 . S
C594 C608 1.377 . S
C595 C594 1.524 . S
C595 C596 1.397 . S
C595 C600 1.363 . S
C596 H573 0.950 . S
C596 C595 1.397 . S
C596 C597 1.334 . S
C597 H574 0.950 . S
C597 C596 1.334 . S
C597 C598 1.287 . S
C598 C597 1.287 . S
C598 C599 1.524 . S
C598 H617 0.913 . S
C599 H575 0.950 . S
C599 C598 1.524 . S
C599 C600 1.415 . S
C600 H576 0.950 . S
C600 C595 1.363 . S
C600 C599 1.415 . S
C601 H577 0.951 . S
C601 C602 1.366 . S
C601 C603 1.388 . S
C602 C601 1.366 . S
C602 C606 1.387 . S
C603 H578 0.951 . S
C603 C601 1.388 . S
C603 C604 1.366 . S
C604 C603 1.366 . S
C604 C605 1.414 . S
C604 C607 1.499 . S
C605 H579 0.950 . S
C605 C604 1.414 . S
C605 C606 1.377 . S
C606 H580 0.944 1_455 S
C606 C602 1.387 . S
C606 C605 1.377 . S
C607 C604 1.499 . S
C607 C608 1.373 . S
C607 C609 1.389 . S
C608 H581 0.950 . S
C608 C594 1.377 . S
C608 C607 1.373 . S
C609 C593 1.377 . S
C609 C607 1.389 . S
C609 C610 1.524 . S
C610 C609 1.524 . S
C610 C611 1.397 . S
C610 C615 1.363 . S
C611 H582 0.950 . S
C611 C610 1.397 . S
C611 C612 1.334 . S
C612 H583 0.950 . S
C612 C611 1.334 . S
C612 C613 1.287 . S
C613 C612 1.287 . S
C613 C614 1.524 . S
C613 H616 0.999 . S
C614 H584 0.950 . S
C614 C613 1.524 . S
C614 C615 1.415 . S
C615 H585 0.950 . S
C615 C610 1.363 . S
C615 C614 1.415 . S
H616 C613 0.999 . S
H617 C598 0.913 . S
H618 C636 0.951 . S
H619 C638 0.951 1_556 S
H620 C640 0.950 . S
H621 C641 0.950 . S
H622 C643 0.950 . S
H623 C646 0.950 . S
H624 C647 0.950 . S
H625 C649 0.950 . S
H626 C650 0.950 . S
H627 C651 0.951 . S
H628 C653 0.951 . S
H629 C655 0.950 . S
H630 C656 0.950 . S
H631 C658 0.950 . S
H632 C661 0.950 . S
H633 C662 0.936 1_556 S
H634 C664 0.950 . S
H635 C665 0.950 . S
C636 H618 0.951 . S
C636 C637 1.366 . S
C636 C638 1.388 . S
C637 C636 1.366 . S
C637 C641 1.385 . S
C638 H619 0.951 1_554 S
C638 C636 1.388 . S
C638 C639 1.366 . S
C639 C638 1.366 . S
C639 C640 1.414 . S
C639 C642 1.499 1_554 S
C640 H620 0.950 . S
C640 C639 1.414 . S
C640 C641 1.374 . S
C641 H621 0.950 . S
C641 C637 1.385 . S
C641 C640 1.374 . S
C642 C639 1.499 1_556 S
C642 C643 1.373 1_556 S
C642 C644 1.389 . S
C643 H622 0.950 . S
C643 C642 1.373 1_554 S
C643 C659 1.377 1_554 S
C644 C642 1.389 . S
C644 C645 1.524 . S
C644 C658 1.377 . S
C645 C644 1.524 . S
C645 C646 1.397 . S
C645 C650 1.363 . S
C646 H623 0.950 . S
C646 C645 1.397 . S
C646 C647 1.334 . S
C647 H624 0.950 . S
C647 C646 1.334 . S
C647 C648 1.287 . S
C648 C647 1.287 . S
C648 C649 1.524 . S
C648 H667 0.913 . S
C649 H625 0.950 . S
C649 C648 1.524 . S
C649 C650 1.415 . S
C650 H626 0.950 . S
C650 C645 1.363 . S
C650 C649 1.415 . S
C651 H627 0.951 . S
C651 C652 1.366 . S
C651 C653 1.388 . S
C652 C651 1.366 . S
C652 C656 1.385 . S
C653 H628 0.951 . S
C653 C651 1.388 . S
C653 C654 1.366 . S
C654 C653 1.366 . S
C654 C655 1.414 . S
C654 C657 1.499 . S
C655 H629 0.950 . S
C655 C654 1.414 . S
C655 C656 1.374 . S
C656 H630 0.950 . S
C656 C652 1.385 . S
C656 C655 1.374 . S
C657 C654 1.499 . S
C657 C658 1.373 . S
C657 C659 1.389 . S
C658 H631 0.950 . S
C658 C644 1.377 . S
C658 C657 1.373 . S
C659 C643 1.377 1_556 S
C659 C657 1.389 . S
C659 C660 1.524 1_556 S
C660 C659 1.524 1_554 S
C660 C661 1.397 1_554 S
C660 C665 1.363 . S
C661 H632 0.950 . S
C661 C660 1.397 1_556 S
C661 C662 1.322 1_566 S
C662 H633 0.936 1_554 S
C662 C661 1.322 1_544 S
C662 C663 1.314 . S
C663 C662 1.314 . S
C663 C664 1.524 1_545 S
C663 H666 0.999 . S
C664 H634 0.950 . S
C664 C663 1.524 1_565 S
C664 C665 1.415 . S
C665 H635 0.950 . S
C665 C660 1.363 . S
C665 C664 1.415 . S
H666 C663 0.999 . S
H667 C648 0.913 . S
H668 C686 0.951 . S
H669 C688 0.951 . S
H670 C690 0.950 . S
H671 C691 0.950 . S
H672 C693 0.950 . S
H673 C696 0.950 . S
H674 C697 0.950 . S
H675 C699 0.950 . S
H676 C700 0.950 . S
H677 C701 0.951 . S
H678 C703 0.951 . S
H679 C705 0.950 . S
H680 C706 0.950 . S
H681 C708 0.950 . S
H682 C711 0.950 . S
H683 C712 0.950 . S
H684 C714 0.950 . S
H685 C715 0.950 . S
C686 H668 0.951 . S
C686 C687 1.366 . S
C686 C688 1.388 . S
C687 C686 1.366 . S
C687 C691 1.385 . S
C688 H669 0.951 . S
C688 C686 1.388 . S
C688 C689 1.366 . S
C689 C688 1.366 . S
C689 C690 1.414 . S
C689 C692 1.499 . S
C690 H670 0.950 . S
C690 C689 1.414 . S
C690 C691 1.374 . S
C691 H671 0.950 . S
C691 C687 1.385 . S
C691 C690 1.374 . S
C692 C689 1.499 . S
C692 C693 1.373 . S
C692 C694 1.389 . S
C693 H672 0.950 . S
C693 C692 1.373 . S
C693 C709 1.377 . S
C694 C692 1.389 . S
C694 C695 1.524 . S
C694 C708 1.377 . S
C695 C694 1.524 . S
C695 C696 1.397 . S
C695 C700 1.363 . S
C696 H673 0.950 . S
C696 C695 1.397 . S
C696 C697 1.334 . S
C697 H674 0.950 . S
C697 C696 1.334 . S
C697 C698 1.287 . S
C698 C697 1.287 . S
C698 C699 1.524 . S
C698 H717 0.913 . S
C699 H675 0.950 . S
C699 C698 1.524 . S
C699 C700 1.415 . S
C700 H676 0.950 . S
C700 C695 1.363 . S
C700 C699 1.415 . S
C701 H677 0.951 . S
C701 C702 1.366 . S
C701 C703 1.388 . S
C702 C701 1.366 . S
C702 C706 1.385 . S
C703 H678 0.951 . S
C703 C701 1.388 . S
C703 C704 1.366 . S
C704 C703 1.366 . S
C704 C705 1.414 . S
C704 C707 1.499 . S
C705 H679 0.950 . S
C705 C704 1.414 . S
C705 C706 1.374 . S
C706 H680 0.950 . S
C706 C702 1.385 . S
C706 C705 1.374 . S
C707 C704 1.499 . S
C707 C708 1.373 . S
C707 C709 1.389 . S
C708 H681 0.950 . S
C708 C694 1.377 . S
C708 C707 1.373 . S
C709 C693 1.377 . S
C709 C707 1.389 . S
C709 C710 1.524 . S
C710 C709 1.524 . S
C710 C711 1.397 . S
C710 C715 1.363 . S
C711 H682 0.950 . S
C711 C710 1.397 . S
C711 C712 1.334 . S
C712 H683 0.950 . S
C712 C711 1.334 . S
C712 C713 1.287 . S
C713 C712 1.287 . S
C713 C714 1.524 . S
C713 H716 0.999 . S
C714 H684 0.950 . S
C714 C713 1.524 . S
C714 C715 1.415 . S
C715 H685 0.950 . S
C715 C710 1.363 . S
C715 C714 1.415 . S
H716 C713 0.999 . S
H717 C698 0.913 . S
H718 C736 0.951 . S
H719 C738 0.951 . S
H720 C740 0.950 . S
H721 C741 0.950 1_455 S
H722 C743 0.950 . S
H723 C746 0.950 . S
H724 C747 0.950 . S
H725 C749 0.950 . S
H726 C750 0.950 . S
H727 C751 0.951 . S
H728 C753 0.951 . S
H729 C755 0.950 . S
H730 C756 0.950 . S
H731 C758 0.950 . S
H732 C761 0.950 . S
H733 C762 0.950 . S
H734 C764 0.950 . S
H735 C765 0.950 . S
C736 H718 0.951 . S
C736 C737 1.366 . S
C736 C738 1.388 . S
C737 C736 1.366 . S
C737 C741 1.385 . S
C738 H719 0.951 . S
C738 C736 1.388 . S
C738 C739 1.366 . S
C739 C738 1.366 . S
C739 C740 1.414 . S
C739 C742 1.499 . S
C740 H720 0.950 . S
C740 C739 1.414 . S
C740 C741 1.374 . S
C741 H721 0.950 1_655 S
C741 C737 1.385 . S
C741 C740 1.374 . S
C742 C739 1.499 . S
C742 C743 1.373 . S
C742 C744 1.389 . S
C743 H722 0.950 . S
C743 C742 1.373 . S
C743 C759 1.377 . S
C744 C742 1.389 . S
C744 C745 1.524 . S
C744 C758 1.377 . S
C745 C744 1.524 . S
C745 C746 1.397 . S
C745 C750 1.363 . S
C746 H723 0.950 . S
C746 C745 1.397 . S
C746 C747 1.334 . S
C747 H724 0.950 . S
C747 C746 1.334 . S
C747 C748 1.287 . S
C748 C747 1.287 . S
C748 C749 1.524 . S
C748 H767 0.913 . S
C749 H725 0.950 . S
C749 C748 1.524 . S
C749 C750 1.415 . S
C750 H726 0.950 . S
C750 C745 1.363 . S
C750 C749 1.415 . S
C751 H727 0.951 . S
C751 C752 1.366 . S
C751 C753 1.388 . S
C752 C751 1.366 . S
C752 C756 1.385 . S
C753 H728 0.951 . S
C753 C751 1.388 . S
C753 C754 1.366 . S
C754 C753 1.366 . S
C754 C755 1.414 . S
C754 C757 1.499 . S
C755 H729 0.950 . S
C755 C754 1.414 . S
C755 C756 1.374 . S
C756 H730 0.950 . S
C756 C752 1.385 . S
C756 C755 1.374 . S
C757 C754 1.499 . S
C757 C758 1.373 . S
C757 C759 1.389 . S
C758 H731 0.950 . S
C758 C744 1.377 . S
C758 C757 1.373 . S
C759 C743 1.377 . S
C759 C757 1.389 . S
C759 C760 1.524 . S
C760 C759 1.524 . S
C760 C761 1.397 . S
C760 C765 1.363 . S
C761 H732 0.950 . S
C761 C760 1.397 . S
C761 C762 1.334 . S
C762 H733 0.950 . S
C762 C761 1.334 . S
C762 C763 1.287 . S
C763 C762 1.287 . S
C763 C764 1.524 . S
C763 H766 0.999 . S
C764 H734 0.950 . S
C764 C763 1.524 . S
C764 C765 1.415 . S
C765 H735 0.950 . S
C765 C760 1.363 . S
C765 C764 1.415 . S
H766 C763 0.999 . S
H767 C748 0.913 . S
H768 C786 0.951 . S
H769 C788 0.951 . S
H770 C790 0.950 . S
H771 C791 0.950 . S
H772 C793 0.950 . S
H773 C796 0.950 . S
H774 C797 0.950 . S
H775 C799 0.950 . S
H776 C800 0.950 . S
H777 C801 0.951 . S
H778 C803 0.951 . S
H779 C805 0.950 . S
H780 C806 0.950 . S
H781 C808 0.950 . S
H782 C811 0.950 . S
H783 C812 0.950 . S
H784 C814 0.950 . S
H785 C815 0.950 . S
C786 H768 0.951 . S
C786 C787 1.366 . S
C786 C788 1.388 . S
C787 C786 1.366 . S
C787 C791 1.385 . S
C788 H769 0.951 . S
C788 C786 1.388 . S
C788 C789 1.366 . S
C789 C788 1.366 . S
C789 C790 1.414 . S
C789 C792 1.499 . S
C790 H770 0.950 . S
C790 C789 1.414 . S
C790 C791 1.374 . S
C791 H771 0.950 . S
C791 C787 1.385 . S
C791 C790 1.374 . S
C792 C789 1.499 . S
C792 C793 1.373 . S
C792 C794 1.389 . S
C793 H772 0.950 . S
C793 C792 1.373 . S
C793 C809 1.377 1_565 S
C794 C792 1.389 . S
C794 C795 1.524 . S
C794 C808 1.377 1_565 S
C795 C794 1.524 . S
C795 C796 1.397 . S
C795 C800 1.363 . S
C796 H773 0.950 . S
C796 C795 1.397 . S
C796 C797 1.334 . S
C797 H774 0.950 . S
C797 C796 1.334 . S
C797 C798 1.287 . S
C798 C797 1.287 . S
C798 C799 1.524 . S
C798 H817 0.913 . S
C799 H775 0.950 . S
C799 C798 1.524 . S
C799 C800 1.415 . S
C800 H776 0.950 . S
C800 C795 1.363 . S
C800 C799 1.415 . S
C801 H777 0.951 . S
C801 C802 1.366 . S
C801 C803 1.388 . S
C802 C801 1.366 . S
C802 C806 1.385 . S
C803 H778 0.951 . S
C803 C801 1.388 . S
C803 C804 1.366 . S
C804 C803 1.366 . S
C804 C805 1.414 . S
C804 C807 1.499 . S
C805 H779 0.950 . S
C805 C804 1.414 . S
C805 C806 1.374 . S
C806 H780 0.950 . S
C806 C802 1.385 . S
C806 C805 1.374 . S
C807 C804 1.499 . S
C807 C808 1.373 . S
C807 C809 1.389 . S
C808 H781 0.950 . S
C808 C794 1.377 1_545 S
C808 C807 1.373 . S
C809 C793 1.377 1_545 S
C809 C807 1.389 . S
C809 C810 1.524 . S
C810 C809 1.524 . S
C810 C811 1.397 . S
C810 C815 1.363 . S
C811 H782 0.950 . S
C811 C810 1.397 . S
C811 C812 1.334 . S
C812 H783 0.950 . S
C812 C811 1.334 . S
C812 C813 1.287 . S
C813 C812 1.287 . S
C813 C814 1.524 . S
C813 H816 0.999 . S
C814 H784 0.950 . S
C814 C813 1.524 . S
C814 C815 1.415 . S
C815 H785 0.950 . S
C815 C810 1.363 . S
C815 C814 1.415 . S
H816 C813 0.999 . S
H817 C798 0.913 . S
H818 C836 0.951 . S
H819 C838 0.951 . S
H820 C840 0.950 . S
H821 C841 0.950 . S
H822 C843 0.950 . S
H823 C846 0.950 . S
H824 C847 0.950 . S
H825 C849 0.950 . S
H826 C850 0.950 . S
H827 C851 0.951 . S
H828 C853 0.951 . S
H829 C855 0.950 . S
H830 C856 0.950 . S
H831 C858 0.950 . S
H832 C861 0.950 . S
H833 C862 0.950 . S
H834 C864 0.950 . S
H835 C865 0.950 . S
C836 H818 0.951 . S
C836 C837 1.366 . S
C836 C838 1.388 . S
C837 C836 1.366 . S
C837 C841 1.385 . S
C838 H819 0.951 . S
C838 C836 1.388 . S
C838 C839 1.366 . S
C839 C838 1.366 . S
C839 C840 1.414 . S
C839 C842 1.499 . S
C840 H820 0.950 . S
C840 C839 1.414 . S
C840 C841 1.374 . S
C841 H821 0.950 . S
C841 C837 1.385 . S
C841 C840 1.374 . S
C842 C839 1.499 . S
C842 C843 1.373 . S
C842 C844 1.389 . S
C843 H822 0.950 . S
C843 C842 1.373 . S
C843 C859 1.377 . S
C844 C842 1.389 . S
C844 C845 1.524 . S
C844 C858 1.377 . S
C845 C844 1.524 . S
C845 C846 1.397 . S
C845 C850 1.363 . S
C846 H823 0.950 . S
C846 C845 1.397 . S
C846 C847 1.334 . S
C847 H824 0.950 . S
C847 C846 1.334 . S
C847 C848 1.287 . S
C848 C847 1.287 . S
C848 C849 1.524 . S
C848 H867 0.913 . S
C849 H825 0.950 . S
C849 C848 1.524 . S
C849 C850 1.415 . S
C850 H826 0.950 . S
C850 C845 1.363 . S
C850 C849 1.415 . S
C851 H827 0.951 . S
C851 C852 1.366 . S
C851 C853 1.388 . S
C852 C851 1.366 . S
C852 C856 1.385 . S
C853 H828 0.951 . S
C853 C851 1.388 . S
C853 C854 1.366 . S
C854 C853 1.366 . S
C854 C855 1.414 . S
C854 C857 1.499 . S
C855 H829 0.950 . S
C855 C854 1.414 . S
C855 C856 1.374 . S
C856 H830 0.950 . S
C856 C852 1.385 . S
C856 C855 1.374 . S
C857 C854 1.499 . S
C857 C858 1.373 . S
C857 C859 1.389 . S
C858 H831 0.950 . S
C858 C844 1.377 . S
C858 C857 1.373 . S
C859 C843 1.377 . S
C859 C857 1.389 . S
C859 C860 1.524 . S
C860 C859 1.524 . S
C860 C861 1.397 . S
C860 C865 1.363 . S
C861 H832 0.950 . S
C861 C860 1.397 . S
C861 C862 1.334 . S
C862 H833 0.950 . S
C862 C861 1.334 . S
C862 C863 1.287 . S
C863 C862 1.287 . S
C863 C864 1.524 . S
C863 H866 0.999 . S
C864 H834 0.950 . S
C864 C863 1.524 . S
C864 C865 1.415 . S
C865 H835 0.950 . S
C865 C860 1.363 . S
C865 C864 1.415 . S
H866 C863 0.999 . S
H867 C848 0.913 . S
H868 C886 0.951 . S
H869 C888 0.951 . S
H870 C890 0.950 . S
H871 C891 0.950 . S
H872 C893 0.950 . S
H873 C896 0.950 . S
H874 C897 0.950 . S
H875 C899 0.950 . S
H876 C900 0.950 . S
H877 C901 0.951 . S
H878 C903 0.951 . S
H879 C905 0.950 . S
H880 C906 0.950 . S
H881 C908 0.950 . S
H882 C911 0.950 . S
H883 C912 0.950 . S
H884 C914 0.950 . S
H885 C915 0.950 . S
C886 H868 0.951 . S
C886 C887 1.366 . S
C886 C888 1.388 . S
C887 C886 1.366 . S
C887 C891 1.385 . S
C888 H869 0.951 . S
C888 C886 1.388 . S
C888 C889 1.366 . S
C889 C888 1.366 . S
C889 C890 1.414 . S
C889 C892 1.499 . S
C890 H870 0.950 . S
C890 C889 1.414 . S
C890 C891 1.374 . S
C891 H871 0.950 . S
C891 C887 1.385 . S
C891 C890 1.374 . S
C892 C889 1.499 . S
C892 C893 1.373 . S
C892 C894 1.389 1_455 S
C893 H872 0.950 . S
C893 C892 1.373 . S
C893 C909 1.377 . S
C894 C892 1.389 1_655 S
C894 C895 1.524 . S
C894 C908 1.377 . S
C895 C894 1.524 . S
C895 C896 1.397 . S
C895 C900 1.363 . S
C896 H873 0.950 . S
C896 C895 1.397 . S
C896 C897 1.334 . S
C897 H874 0.950 . S
C897 C896 1.334 . S
C897 C898 1.287 . S
C898 C897 1.287 . S
C898 C899 1.524 . S
C898 H917 0.913 . S
C899 H875 0.950 . S
C899 C898 1.524 . S
C899 C900 1.415 . S
C900 H876 0.950 . S
C900 C895 1.363 . S
C900 C899 1.415 . S
C901 H877 0.951 . S
C901 C902 1.366 . S
C901 C903 1.388 . S
C902 C901 1.366 . S
C902 C906 1.385 . S
C903 H878 0.951 . S
C903 C901 1.388 . S
C903 C904 1.366 . S
C904 C903 1.366 . S
C904 C905 1.414 . S
C904 C907 1.499 . S
C905 H879 0.950 . S
C905 C904 1.414 . S
C905 C906 1.374 . S
C906 H880 0.950 . S
C906 C902 1.385 . S
C906 C905 1.374 . S
C907 C904 1.499 . S
C907 C908 1.373 . S
C907 C909 1.389 1_655 S
C908 H881 0.950 . S
C908 C894 1.377 . S
C908 C907 1.373 . S
C909 C893 1.377 . S
C909 C907 1.389 1_455 S
C909 C910 1.524 . S
C910 C909 1.524 . S
C910 C911 1.397 . S
C910 C915 1.363 . S
C911 H882 0.950 . S
C911 C910 1.397 . S
C911 C912 1.334 . S
C912 H883 0.950 . S
C912 C911 1.334 . S
C912 C913 1.287 . S
C913 C912 1.287 . S
C913 C914 1.524 . S
C913 H916 0.999 . S
C914 H884 0.950 . S
C914 C913 1.524 . S
C914 C915 1.415 . S
C915 H885 0.950 . S
C915 C910 1.363 . S
C915 C914 1.415 . S
H916 C913 0.999 . S
H917 C898 0.913 . S
H918 C936 0.951 . S
H919 C938 0.951 . S
H920 C940 0.950 . S
H921 C941 0.950 . S
H922 C943 0.950 . S
H923 C946 0.950 . S
H924 C947 0.950 . S
H925 C949 0.950 . S
H926 C950 0.950 . S
H927 C951 0.951 . S
H928 C953 0.951 . S
H929 C955 0.950 . S
H930 C956 0.950 . S
H931 C958 0.950 . S
H932 C961 0.950 . S
H933 C962 0.950 . S
H934 C964 0.950 . S
H935 C965 0.950 . S
C936 H918 0.951 . S
C936 C937 1.366 . S
C936 C938 1.388 . S
C937 C936 1.366 . S
C937 C941 1.385 . S
C938 H919 0.951 . S
C938 C936 1.388 . S
C938 C939 1.366 . S
C939 C938 1.366 . S
C939 C940 1.414 . S
C939 C942 1.499 . S
C940 H920 0.950 . S
C940 C939 1.414 . S
C940 C941 1.374 . S
C941 H921 0.950 . S
C941 C937 1.385 . S
C941 C940 1.374 . S
C942 C939 1.499 . S
C942 C943 1.373 . S
C942 C944 1.389 . S
C943 H922 0.950 . S
C943 C942 1.373 . S
C943 C959 1.377 1_655 S
C944 C942 1.389 . S
C944 C945 1.524 . S
C944 C958 1.377 1_655 S
C945 C944 1.524 . S
C945 C946 1.397 . S
C945 C950 1.363 . S
C946 H923 0.950 . S
C946 C945 1.397 . S
C946 C947 1.334 . S
C947 H924 0.950 . S
C947 C946 1.334 . S
C947 C948 1.287 . S
C948 C947 1.287 . S
C948 C949 1.524 . S
C948 H967 0.913 . S
C949 H925 0.950 . S
C949 C948 1.524 . S
C949 C950 1.415 . S
C950 H926 0.950 . S
C950 C945 1.363 . S
C950 C949 1.415 . S
C951 H927 0.951 . S
C951 C952 1.366 . S
C951 C953 1.388 . S
C952 C951 1.366 . S
C952 C956 1.385 . S
C953 H928 0.951 . S
C953 C951 1.388 . S
C953 C954 1.366 . S
C954 C953 1.366 . S
C954 C955 1.414 . S
C954 C957 1.499 . S
C955 H929 0.950 . S
C955 C954 1.414 . S
C955 C956 1.374 . S
C956 H930 0.950 . S
C956 C952 1.385 . S
C956 C955 1.374 . S
C957 C954 1.499 . S
C957 C958 1.373 . S
C957 C959 1.389 . S
C958 H931 0.950 . S
C958 C944 1.377 1_455 S
C958 C957 1.373 . S
C959 C943 1.377 1_455 S
C959 C957 1.389 . S
C959 C960 1.524 . S
C960 C959 1.524 . S
C960 C961 1.397 . S
C960 C965 1.363 . S
C961 H932 0.950 . S
C961 C960 1.397 . S
C961 C962 1.334 . S
C962 H933 0.950 . S
C962 C961 1.334 . S
C962 C963 1.287 . S
C963 C962 1.287 . S
C963 C964 1.524 . S
C963 H966 0.999 . S
C964 H934 0.950 . S
C964 C963 1.524 . S
C964 C965 1.415 . S
C965 H935 0.950 . S
C965 C960 1.363 . S
C965 C964 1.415 . S
H966 C963 0.999 . S
H967 C948 0.913 . S
H968 C986 0.951 . S
H969 C988 0.951 . S
H970 C990 0.950 . S
H971 C991 0.950 . S
H972 C993 0.950 . S
H973 C996 0.950 1_565 S
H974 C997 0.950 . S
H975 C999 0.950 . S
H976 C1000 0.950 . S
H977 C1001 0.951 . S
H978 C1003 0.951 . S
H979 C1005 0.950 . S
H980 C1006 0.950 . S
H981 C1008 0.950 . S
H982 C1011 0.950 1_545 S
H983 C1012 0.950 . S
H984 C1014 0.950 . S
H985 C1015 0.950 . S
C986 H968 0.951 . S
C986 C987 1.366 1_545 S
C986 C988 1.388 . S
C987 C986 1.366 1_565 S
C987 C991 1.385 . S
C988 H969 0.951 . S
C988 C986 1.388 . S
C988 C989 1.366 1_545 S
C989 C988 1.366 1_565 S
C989 C990 1.414 . S
C989 C992 1.499 . S
C990 H970 0.950 . S
C990 C989 1.414 . S
C990 C991 1.374 . S
C991 H971 0.950 . S
C991 C987 1.385 . S
C991 C990 1.374 . S
C992 C989 1.499 . S
C992 C993 1.373 . S
C992 C994 1.389 1_565 S
C993 H972 0.950 . S
C993 C992 1.373 . S
C993 C1009 1.377 . S
C994 C992 1.389 1_545 S
C994 C995 1.524 . S
C994 C1008 1.377 . S
C995 C994 1.524 . S
C995 C996 1.397 . S
C995 C1000 1.363 . S
C996 H973 0.950 1_545 S
C996 C995 1.397 . S
C996 C997 1.334 . S
C997 H974 0.950 . S
C997 C996 1.334 . S
C997 C998 1.287 . S
C998 C997 1.287 . S
C998 C999 1.524 . S
C998 H1017 0.913 . S
C999 H975 0.950 . S
C999 C998 1.524 . S
C999 C1000 1.415 . S
C1000 H976 0.950 . S
C1000 C995 1.363 . S
C1000 C999 1.415 . S
C1001 H977 0.951 . S
C1001 C1002 1.366 1_565 S
C1001 C1003 1.388 . S
C1002 C1001 1.366 1_545 S
C1002 C1006 1.385 . S
C1003 H978 0.951 . S
C1003 C1001 1.388 . S
C1003 C1004 1.366 1_565 S
C1004 C1003 1.366 1_545 S
C1004 C1005 1.414 . S
C1004 C1007 1.499 . S
C1005 H979 0.950 . S
C1005 C1004 1.414 . S
C1005 C1006 1.374 . S
C1006 H980 0.950 . S
C1006 C1002 1.385 . S
C1006 C1005 1.374 . S
C1007 C1004 1.499 . S
C1007 C1008 1.373 . S
C1007 C1009 1.389 1_545 S
C1008 H981 0.950 . S
C1008 C994 1.377 . S
C1008 C1007 1.373 . S
C1009 C993 1.377 . S
C1009 C1007 1.389 1_565 S
C1009 C1010 1.524 . S
C1010 C1009 1.524 . S
C1010 C1011 1.397 . S
C1010 C1015 1.363 . S
C1011 H982 0.950 1_565 S
C1011 C1010 1.397 . S
C1011 C1012 1.334 . S
C1012 H983 0.950 . S
C1012 C1011 1.334 . S
C1012 C1013 1.287 . S
C1013 C1012 1.287 . S
C1013 C1014 1.524 . S
C1013 H1016 0.999 . S
C1014 H984 0.950 . S
C1014 C1013 1.524 . S
C1014 C1015 1.415 . S
C1015 H985 0.950 . S
C1015 C1010 1.363 . S
C1015 C1014 1.415 . S
H1016 C1013 0.999 . S
H1017 C998 0.913 . S
H1018 C1036 0.951 . S
H1019 C1038 0.951 . S
H1020 C1040 0.950 . S
H1021 C1041 0.950 . S
H1022 C1043 0.950 . S
H1023 C1046 0.950 . S
H1024 C1047 0.950 . S
H1025 C1049 0.950 . S
H1026 C1050 0.950 . S
H1027 C1051 0.951 . S
H1028 C1053 0.951 . S
H1029 C1055 0.950 . S
H1030 C1056 0.950 . S
H1031 C1058 0.950 . S
H1032 C1061 0.950 . S
H1033 C1062 0.950 . S
H1034 C1064 0.950 . S
H1035 C1065 0.950 . S
C1036 H1018 0.951 . S
C1036 C1037 1.366 . S
C1036 C1038 1.388 . S
C1037 C1036 1.366 . S
C1037 C1041 1.385 . S
C1038 H1019 0.951 . S
C1038 C1036 1.388 . S
C1038 C1039 1.366 . S
C1039 C1038 1.366 . S
C1039 C1040 1.414 . S
C1039 C1042 1.499 . S
C1040 H1020 0.950 . S
C1040 C1039 1.414 . S
C1040 C1041 1.374 . S
C1041 H1021 0.950 . S
C1041 C1037 1.385 . S
C1041 C1040 1.374 . S
C1042 C1039 1.499 . S
C1042 C1043 1.373 . S
C1042 C1044 1.389 . S
C1043 H1022 0.950 . S
C1043 C1042 1.373 . S
C1043 C1059 1.377 . S
C1044 C1042 1.389 . S
C1044 C1045 1.524 . S
C1044 C1058 1.377 . S
C1045 C1044 1.524 . S
C1045 C1046 1.397 . S
C1045 C1050 1.363 . S
C1046 H1023 0.950 . S
C1046 C1045 1.397 . S
C1046 C1047 1.334 . S
C1047 H1024 0.950 . S
C1047 C1046 1.334 . S
C1047 C1048 1.287 . S
C1048 C1047 1.287 . S
C1048 C1049 1.524 . S
C1048 H1067 0.913 . S
C1049 H1025 0.950 . S
C1049 C1048 1.524 . S
C1049 C1050 1.415 . S
C1050 H1026 0.950 . S
C1050 C1045 1.363 . S
C1050 C1049 1.415 . S
C1051 H1027 0.951 . S
C1051 C1052 1.366 . S
C1051 C1053 1.388 . S
C1052 C1051 1.366 . S
C1052 C1056 1.385 . S
C1053 H1028 0.951 . S
C1053 C1051 1.388 . S
C1053 C1054 1.366 . S
C1054 C1053 1.366 . S
C1054 C1055 1.414 . S
C1054 C1057 1.499 . S
C1055 H1029 0.950 . S
C1055 C1054 1.414 . S
C1055 C1056 1.374 . S
C1056 H1030 0.950 . S
C1056 C1052 1.385 . S
C1056 C1055 1.374 . S
C1057 C1054 1.499 . S
C1057 C1058 1.373 . S
C1057 C1059 1.389 . S
C1058 H1031 0.950 . S
C1058 C1044 1.377 . S
C1058 C1057 1.373 . S
C1059 C1043 1.377 . S
C1059 C1057 1.389 . S
C1059 C1060 1.524 . S
C1060 C1059 1.524 . S
C1060 C1061 1.397 . S
C1060 C1065 1.363 . S
C1061 H1032 0.950 . S
C1061 C1060 1.397 . S
C1061 C1062 1.334 . S
C1062 H1033 0.950 . S
C1062 C1061 1.334 . S
C1062 C1063 1.287 . S
C1063 C1062 1.287 . S
C1063 C1064 1.524 . S
C1063 H1066 0.999 . S
C1064 H1034 0.950 . S
C1064 C1063 1.524 . S
C1064 C1065 1.415 . S
C1065 H1035 0.950 . S
C1065 C1060 1.363 . S
C1065 C1064 1.415 . S
H1066 C1063 0.999 . S
H1067 C1048 0.913 . S
H1068 C1086 0.951 . S
H1069 C1088 0.951 . S
H1070 C1090 0.950 . S
H1071 C1091 0.950 . S
H1072 C1093 0.950 . S
H1073 C1096 0.950 . S
H1074 C1097 0.950 . S
H1075 C1099 0.950 . S
H1076 C1100 0.950 . S
H1077 C1101 0.951 . S
H1078 C1103 0.951 . S
H1079 C1105 0.950 . S
H1080 C1106 0.950 . S
H1081 C1108 0.950 . S
H1082 C1111 0.950 . S
H1083 C1112 0.950 . S
H1084 C1114 0.950 . S
H1085 C1115 0.950 . S
C1086 H1068 0.951 . S
C1086 C1087 1.366 . S
C1086 C1088 1.388 . S
C1087 C1086 1.366 . S
C1087 C1091 1.385 . S
C1088 H1069 0.951 . S
C1088 C1086 1.388 . S
C1088 C1089 1.366 . S
C1089 C1088 1.366 . S
C1089 C1090 1.414 . S
C1089 C1092 1.499 . S
C1090 H1070 0.950 . S
C1090 C1089 1.414 . S
C1090 C1091 1.374 . S
C1091 H1071 0.950 . S
C1091 C1087 1.385 . S
C1091 C1090 1.374 . S
C1092 C1089 1.499 . S
C1092 C1093 1.373 . S
C1092 C1094 1.389 . S
C1093 H1072 0.950 . S
C1093 C1092 1.373 . S
C1093 C1109 1.377 . S
C1094 C1092 1.389 . S
C1094 C1095 1.524 . S
C1094 C1108 1.377 . S
C1095 C1094 1.524 . S
C1095 C1096 1.397 . S
C1095 C1100 1.363 . S
C1096 H1073 0.950 . S
C1096 C1095 1.397 . S
C1096 C1097 1.334 . S
C1097 H1074 0.950 . S
C1097 C1096 1.334 . S
C1097 C1098 1.287 . S
C1098 C1097 1.287 . S
C1098 C1099 1.524 . S
C1098 H1117 0.913 . S
C1099 H1075 0.950 . S
C1099 C1098 1.524 . S
C1099 C1100 1.415 . S
C1100 H1076 0.950 . S
C1100 C1095 1.363 . S
C1100 C1099 1.415 . S
C1101 H1077 0.951 . S
C1101 C1102 1.366 . S
C1101 C1103 1.388 . S
C1102 C1101 1.366 . S
C1102 C1106 1.385 . S
C1103 H1078 0.951 . S
C1103 C1101 1.388 . S
C1103 C1104 1.366 . S
C1104 C1103 1.366 . S
C1104 C1105 1.414 . S
C1104 C1107 1.499 . S
C1105 H1079 0.950 . S
C1105 C1104 1.414 . S
C1105 C1106 1.374 . S
C1106 H1080 0.950 . S
C1106 C1102 1.385 . S
C1106 C1105 1.374 . S
C1107 C1104 1.499 . S
C1107 C1108 1.373 . S
C1107 C1109 1.389 . S
C1108 H1081 0.950 . S
C1108 C1094 1.377 . S
C1108 C1107 1.373 . S
C1109 C1093 1.377 . S
C1109 C1107 1.389 . S
C1109 C1110 1.524 . S
C1110 C1109 1.524 . S
C1110 C1111 1.397 . S
C1110 C1115 1.363 . S
C1111 H1082 0.950 . S
C1111 C1110 1.397 . S
C1111 C1112 1.334 . S
C1112 H1083 0.950 . S
C1112 C1111 1.334 . S
C1112 C1113 1.287 . S
C1113 C1112 1.287 . S
C1113 C1114 1.524 . S
C1113 H1116 0.999 . S
C1114 H1084 0.950 . S
C1114 C1113 1.524 . S
C1114 C1115 1.415 . S
C1115 H1085 0.950 . S
C1115 C1110 1.363 . S
C1115 C1114 1.415 . S
H1116 C1113 0.999 . S
H1117 C1098 0.913 . S
H1118 C1136 0.951 . S
H1119 C1138 0.951 . S
H1120 C1140 0.950 . S
H1121 C1141 0.950 . S
H1122 C1143 0.950 . S
H1123 C1146 0.950 . S
H1124 C1147 0.950 . S
H1125 C1149 0.950 . S
H1126 C1150 0.950 . S
H1127 C1151 0.951 . S
H1128 C1153 0.951 . S
H1129 C1155 0.950 . S
H1130 C1156 0.950 . S
H1131 C1158 0.950 . S
H1132 C1161 0.950 . S
H1133 C1162 0.950 . S
H1134 C1164 0.950 . S
H1135 C1165 0.950 . S
C1136 H1118 0.951 . S
C1136 C1137 1.366 . S
C1136 C1138 1.388 . S
C1137 C1136 1.366 . S
C1137 C1141 1.385 . S
C1138 H1119 0.951 . S
C1138 C1136 1.388 . S
C1138 C1139 1.366 . S
C1139 C1138 1.366 . S
C1139 C1140 1.414 . S
C1139 C1142 1.499 . S
C1140 H1120 0.950 . S
C1140 C1139 1.414 . S
C1140 C1141 1.374 . S
C1141 H1121 0.950 . S
C1141 C1137 1.385 . S
C1141 C1140 1.374 . S
C1142 C1139 1.499 . S
C1142 C1143 1.373 . S
C1142 C1144 1.389 . S
C1143 H1122 0.950 . S
C1143 C1142 1.373 . S
C1143 C1159 1.377 . S
C1144 C1142 1.389 . S
C1144 C1145 1.524 . S
C1144 C1158 1.377 . S
C1145 C1144 1.524 . S
C1145 C1146 1.397 . S
C1145 C1150 1.363 . S
C1146 H1123 0.950 . S
C1146 C1145 1.397 . S
C1146 C1147 1.334 . S
C1147 H1124 0.950 . S
C1147 C1146 1.334 . S
C1147 C1148 1.287 . S
C1148 C1147 1.287 . S
C1148 C1149 1.524 . S
C1148 H1167 0.913 . S
C1149 H1125 0.950 . S
C1149 C1148 1.524 . S
C1149 C1150 1.415 . S
C1150 H1126 0.950 . S
C1150 C1145 1.363 . S
C1150 C1149 1.415 . S
C1151 H1127 0.951 . S
C1151 C1152 1.366 . S
C1151 C1153 1.388 . S
C1152 C1151 1.366 . S
C1152 C1156 1.385 . S
C1153 H1128 0.951 . S
C1153 C1151 1.388 . S
C1153 C1154 1.366 . S
C1154 C1153 1.366 . S
C1154 C1155 1.414 . S
C1154 C1157 1.499 . S
C1155 H1129 0.950 . S
C1155 C1154 1.414 . S
C1155 C1156 1.374 . S
C1156 H1130 0.950 . S
C1156 C1152 1.385 . S
C1156 C1155 1.374 . S
C1157 C1154 1.499 . S
C1157 C1158 1.373 . S
C1157 C1159 1.389 . S
C1158 H1131 0.950 . S
C1158 C1144 1.377 . S
C1158 C1157 1.373 . S
C1159 C1143 1.377 . S
C1159 C1157 1.389 . S
C1159 C1160 1.524 . S
C1160 C1159 1.524 . S
C1160 C1161 1.397 . S
C1160 C1165 1.363 . S
C1161 H1132 0.950 . S
C1161 C1160 1.397 . S
C1161 C1162 1.334 . S
C1162 H1133 0.950 . S
C1162 C1161 1.334 . S
C1162 C1163 1.287 . S
C1163 C1162 1.287 . S
C1163 C1164 1.524 . S
C1163 H1166 0.999 . S
C1164 H1134 0.950 . S
C1164 C1163 1.524 . S
C1164 C1165 1.415 . S
C1165 H1135 0.950 . S
C1165 C1160 1.363 . S
C1165 C1164 1.415 . S
H1166 C1163 0.999 . S
H1167 C1148 0.913 . S
H1168 C1186 0.951 . S
H1169 C1188 0.951 . S
H1170 C1190 0.950 . S
H1171 C1191 0.950 . S
H1172 C1193 0.950 . S
H1173 C1196 0.950 . S
H1174 C1197 0.950 . S
H1175 C1199 0.950 . S
H1176 C1200 0.950 . S
H1177 C1201 0.951 . S
H1178 C1203 0.951 . S
H1179 C1205 0.950 . S
H1180 C1206 0.950 . S
H1181 C1208 0.950 . S
H1182 C1211 0.950 . S
H1183 C1212 0.950 . S
H1184 C1214 0.950 . S
H1185 C1215 0.950 . S
C1186 H1168 0.951 . S
C1186 C1187 1.366 . S
C1186 C1188 1.388 . S
C1187 C1186 1.366 . S
C1187 C1191 1.385 . S
C1188 H1169 0.951 . S
C1188 C1186 1.388 . S
C1188 C1189 1.366 . S
C1189 C1188 1.366 . S
C1189 C1190 1.414 . S
C1189 C1192 1.499 . S
C1190 H1170 0.950 . S
C1190 C1189 1.414 . S
C1190 C1191 1.374 . S
C1191 H1171 0.950 . S
C1191 C1187 1.385 . S
C1191 C1190 1.374 . S
C1192 C1189 1.499 . S
C1192 C1193 1.373 . S
C1192 C1194 1.389 . S
C1193 H1172 0.950 . S
C1193 C1192 1.373 . S
C1193 C1209 1.377 . S
C1194 C1192 1.389 . S
C1194 C1195 1.524 . S
C1194 C1208 1.377 . S
C1195 C1194 1.524 . S
C1195 C1196 1.397 . S
C1195 C1200 1.363 . S
C1196 H1173 0.950 . S
C1196 C1195 1.397 . S
C1196 C1197 1.334 . S
C1197 H1174 0.950 . S
C1197 C1196 1.334 . S
C1197 C1198 1.287 . S
C1198 C1197 1.287 . S
C1198 C1199 1.524 . S
C1198 H1217 0.913 . S
C1199 H1175 0.950 . S
C1199 C1198 1.524 . S
C1199 C1200 1.415 . S
C1200 H1176 0.950 . S
C1200 C1195 1.363 . S
C1200 C1199 1.415 . S
C1201 H1177 0.951 . S
C1201 C1202 1.366 . S
C1201 C1203 1.388 . S
C1202 C1201 1.366 . S
C1202 C1206 1.385 . S
C1203 H1178 0.951 . S
C1203 C1201 1.388 . S
C1203 C1204 1.366 . S
C1204 C1203 1.366 . S
C1204 C1205 1.414 . S
C1204 C1207 1.499 . S
C1205 H1179 0.950 . S
C1205 C1204 1.414 . S
C1205 C1206 1.374 . S
C1206 H1180 0.950 . S
C1206 C1202 1.385 . S
C1206 C1205 1.374 . S
C1207 C1204 1.499 . S
C1207 C1208 1.373 . S
C1207 C1209 1.389 . S
C1208 H1181 0.950 . S
C1208 C1194 1.377 . S
C1208 C1207 1.373 . S
C1209 C1193 1.377 . S
C1209 C1207 1.389 . S
C1209 C1210 1.524 . S
C1210 C1209 1.524 . S
C1210 C1211 1.397 . S
C1210 C1215 1.363 . S
C1211 H1182 0.950 . S
C1211 C1210 1.397 . S
C1211 C1212 1.334 . S
C1212 H1183 0.950 . S
C1212 C1211 1.334 . S
C1212 C1213 1.287 . S
C1213 C1212 1.287 . S
C1213 C1214 1.524 . S
C1213 H1216 0.999 . S
C1214 H1184 0.950 . S
C1214 C1213 1.524 . S
C1214 C1215 1.415 . S
C1215 H1185 0.950 . S
C1215 C1210 1.363 . S
C1215 C1214 1.415 . S
H1216 C1213 0.999 . S
H1217 C1198 0.913 . S
H1218 C1236 0.951 . S
H1219 C1238 0.951 . S
H1220 C1240 0.950 . S
H1221 C1241 0.950 . S
H1222 C1243 0.950 . S
H1223 C1246 0.950 . S
H1224 C1247 0.950 . S
H1225 C1249 0.950 . S
H1226 C1250 0.950 . S
H1227 C1251 0.951 . S
H1228 C1253 0.951 . S
H1229 C1255 0.950 . S
H1230 C1256 0.950 . S
H1231 C1258 0.950 . S
H1232 C1261 0.950 . S
H1233 C1262 0.950 . S
H1234 C1264 0.950 . S
H1235 C1265 0.950 . S
C1236 H1218 0.951 . S
C1236 C1237 1.366 . S
C1236 C1238 1.388 . S
C1237 C1236 1.366 . S
C1237 C1241 1.385 . S
C1238 H1219 0.951 . S
C1238 C1236 1.388 . S
C1238 C1239 1.366 . S
C1239 C1238 1.366 . S
C1239 C1240 1.414 . S
C1239 C1242 1.499 . S
C1240 H1220 0.950 . S
C1240 C1239 1.414 . S
C1240 C1241 1.374 . S
C1241 H1221 0.950 . S
C1241 C1237 1.385 . S
C1241 C1240 1.374 . S
C1242 C1239 1.499 . S
C1242 C1243 1.373 . S
C1242 C1244 1.389 . S
C1243 H1222 0.950 . S
C1243 C1242 1.373 . S
C1243 C1259 1.377 . S
C1244 C1242 1.389 . S
C1244 C1245 1.524 . S
C1244 C1258 1.377 . S
C1245 C1244 1.524 . S
C1245 C1246 1.397 . S
C1245 C1250 1.363 . S
C1246 H1223 0.950 . S
C1246 C1245 1.397 . S
C1246 C1247 1.334 . S
C1247 H1224 0.950 . S
C1247 C1246 1.334 . S
C1247 C1248 1.287 . S
C1248 C1247 1.287 . S
C1248 C1249 1.524 . S
C1248 H1267 0.913 . S
C1249 H1225 0.950 . S
C1249 C1248 1.524 . S
C1249 C1250 1.415 . S
C1250 H1226 0.950 . S
C1250 C1245 1.363 . S
C1250 C1249 1.415 . S
C1251 H1227 0.951 . S
C1251 C1252 1.366 . S
C1251 C1253 1.388 . S
C1252 C1251 1.366 . S
C1252 C1256 1.385 . S
C1253 H1228 0.951 . S
C1253 C1251 1.388 . S
C1253 C1254 1.366 . S
C1254 C1253 1.366 . S
C1254 C1255 1.414 . S
C1254 C1257 1.499 . S
C1255 H1229 0.950 . S
C1255 C1254 1.414 . S
C1255 C1256 1.374 . S
C1256 H1230 0.950 . S
C1256 C1252 1.385 . S
C1256 C1255 1.374 . S
C1257 C1254 1.499 . S
C1257 C1258 1.373 . S
C1257 C1259 1.389 . S
C1258 H1231 0.950 . S
C1258 C1244 1.377 . S
C1258 C1257 1.373 . S
C1259 C1243 1.377 . S
C1259 C1257 1.389 . S
C1259 C1260 1.524 . S
C1260 C1259 1.524 . S
C1260 C1261 1.397 . S
C1260 C1265 1.363 . S
C1261 H1232 0.950 . S
C1261 C1260 1.397 . S
C1261 C1262 1.334 . S
C1262 H1233 0.950 . S
C1262 C1261 1.334 . S
C1262 C1263 1.287 . S
C1263 C1262 1.287 . S
C1263 C1264 1.524 . S
C1263 H1266 0.999 . S
C1264 H1234 0.950 . S
C1264 C1263 1.524 . S
C1264 C1265 1.415 . S
C1265 H1235 0.950 . S
C1265 C1260 1.363 . S
C1265 C1264 1.415 . S
H1266 C1263 0.999 . S
H1267 C1248 0.913 . S
H1268 C1286 0.951 . S
H1269 C1288 0.951 . S
H1270 C1290 0.950 . S
H1271 C1291 0.950 . S
H1272 C1293 0.950 . S
H1273 C1296 0.950 . S
H1274 C1297 0.950 . S
H1275 C1299 0.950 . S
H1276 C1300 0.950 . S
H1277 C1301 0.951 . S
H1278 C1303 0.951 . S
H1279 C1305 0.950 . S
H1280 C1306 0.950 . S
H1281 C1308 0.950 . S
H1282 C1311 0.950 . S
H1283 C1312 0.950 . S
H1284 C1314 0.950 . S
H1285 C1315 0.950 . S
C1286 H1268 0.951 . S
C1286 C1287 1.366 . S
C1286 C1288 1.388 . S
C1287 C1286 1.366 . S
C1287 C1291 1.385 . S
C1288 H1269 0.951 . S
C1288 C1286 1.388 . S
C1288 C1289 1.366 . S
C1289 C1288 1.366 . S
C1289 C1290 1.414 . S
C1289 C1292 1.499 . S
C1290 H1270 0.950 . S
C1290 C1289 1.414 . S
C1290 C1291 1.374 . S
C1291 H1271 0.950 . S
C1291 C1287 1.385 . S
C1291 C1290 1.374 . S
C1292 C1289 1.499 . S
C1292 C1293 1.373 . S
C1292 C1294 1.389 . S
C1293 H1272 0.950 . S
C1293 C1292 1.373 . S
C1293 C1309 1.377 . S
C1294 C1292 1.389 . S
C1294 C1295 1.524 . S
C1294 C1308 1.377 . S
C1295 C1294 1.524 . S
C1295 C1296 1.397 . S
C1295 C1300 1.363 . S
C1296 H1273 0.950 . S
C1296 C1295 1.397 . S
C1296 C1297 1.334 . S
C1297 H1274 0.950 . S
C1297 C1296 1.334 . S
C1297 C1298 1.287 . S
C1298 C1297 1.287 . S
C1298 C1299 1.524 . S
C1298 H1317 0.913 . S
C1299 H1275 0.950 . S
C1299 C1298 1.524 . S
C1299 C1300 1.415 . S
C1300 H1276 0.950 . S
C1300 C1295 1.363 . S
C1300 C1299 1.415 . S
C1301 H1277 0.951 . S
C1301 C1302 1.366 . S
C1301 C1303 1.388 . S
C1302 C1301 1.366 . S
C1302 C1306 1.385 . S
C1303 H1278 0.951 . S
C1303 C1301 1.388 . S
C1303 C1304 1.366 . S
C1304 C1303 1.366 . S
C1304 C1305 1.414 . S
C1304 C1307 1.499 . S
C1305 H1279 0.950 . S
C1305 C1304 1.414 . S
C1305 C1306 1.374 . S
C1306 H1280 0.950 . S
C1306 C1302 1.385 . S
C1306 C1305 1.374 . S
C1307 C1304 1.499 . S
C1307 C1308 1.373 . S
C1307 C1309 1.389 . S
C1308 H1281 0.950 . S
C1308 C1294 1.377 . S
C1308 C1307 1.373 . S
C1309 C1293 1.377 . S
C1309 C1307 1.389 . S
C1309 C1310 1.524 . S
C1310 C1309 1.524 . S
C1310 C1311 1.397 . S
C1310 C1315 1.363 . S
C1311 H1282 0.950 . S
C1311 C1310 1.397 . S
C1311 C1312 1.334 . S
C1312 H1283 0.950 . S
C1312 C1311 1.334 . S
C1312 C1313 1.287 . S
C1313 C1312 1.287 . S
C1313 C1314 1.524 . S
C1313 H1316 0.999 . S
C1314 H1284 0.950 . S
C1314 C1313 1.524 . S
C1314 C1315 1.415 . S
C1315 H1285 0.950 . S
C1315 C1310 1.363 . S
C1315 C1314 1.415 . S
H1316 C1313 0.999 . S
H1317 C1298 0.913 . S
H1318 C1336 0.951 . S
H1319 C1338 0.951 . S
H1320 C1340 0.950 . S
H1321 C1341 0.950 . S
H1322 C1343 0.950 . S
H1323 C1346 0.950 . S
H1324 C1347 0.950 . S
H1325 C1349 0.950 . S
H1326 C1350 0.950 . S
H1327 C1351 0.951 . S
H1328 C1353 0.951 . S
H1329 C1355 0.950 . S
H1330 C1356 0.950 . S
H1331 C1358 0.950 . S
H1332 C1361 0.950 . S
H1333 C1362 0.950 . S
H1334 C1364 0.950 . S
H1335 C1365 0.950 . S
C1336 H1318 0.951 . S
C1336 C1337 1.366 . S
C1336 C1338 1.388 . S
C1337 C1336 1.366 . S
C1337 C1341 1.385 . S
C1338 H1319 0.951 . S
C1338 C1336 1.388 . S
C1338 C1339 1.366 . S
C1339 C1338 1.366 . S
C1339 C1340 1.414 . S
C1339 C1342 1.499 . S
C1340 H1320 0.950 . S
C1340 C1339 1.414 . S
C1340 C1341 1.374 . S
C1341 H1321 0.950 . S
C1341 C1337 1.385 . S
C1341 C1340 1.374 . S
C1342 C1339 1.499 . S
C1342 C1343 1.373 . S
C1342 C1344 1.389 . S
C1343 H1322 0.950 . S
C1343 C1342 1.373 . S
C1343 C1359 1.377 . S
C1344 C1342 1.389 . S
C1344 C1345 1.524 . S
C1344 C1358 1.377 . S
C1345 C1344 1.524 . S
C1345 C1346 1.397 . S
C1345 C1350 1.363 . S
C1346 H1323 0.950 . S
C1346 C1345 1.397 . S
C1346 C1347 1.334 . S
C1347 H1324 0.950 . S
C1347 C1346 1.334 . S
C1347 C1348 1.287 . S
C1348 C1347 1.287 . S
C1348 C1349 1.524 . S
C1348 H1367 0.913 . S
C1349 H1325 0.950 . S
C1349 C1348 1.524 . S
C1349 C1350 1.415 . S
C1350 H1326 0.950 . S
C1350 C1345 1.363 . S
C1350 C1349 1.415 . S
C1351 H1327 0.951 . S
C1351 C1352 1.366 . S
C1351 C1353 1.388 . S
C1352 C1351 1.366 . S
C1352 C1356 1.385 . S
C1353 H1328 0.951 . S
C1353 C1351 1.388 . S
C1353 C1354 1.366 . S
C1354 C1353 1.366 . S
C1354 C1355 1.414 . S
C1354 C1357 1.499 . S
C1355 H1329 0.950 . S
C1355 C1354 1.414 . S
C1355 C1356 1.374 . S
C1356 H1330 0.950 . S
C1356 C1352 1.385 . S
C1356 C1355 1.374 . S
C1357 C1354 1.499 . S
C1357 C1358 1.373 . S
C1357 C1359 1.389 . S
C1358 H1331 0.950 . S
C1358 C1344 1.377 . S
C1358 C1357 1.373 . S
C1359 C1343 1.377 . S
C1359 C1357 1.389 . S
C1359 C1360 1.524 . S
C1360 C1359 1.524 . S
C1360 C1361 1.397 . S
C1360 C1365 1.363 . S
C1361 H1332 0.950 . S
C1361 C1360 1.397 . S
C1361 C1362 1.334 . S
C1362 H1333 0.950 . S
C1362 C1361 1.334 . S
C1362 C1363 1.287 . S
C1363 C1362 1.287 . S
C1363 C1364 1.524 . S
C1363 H1366 0.999 . S
C1364 H1334 0.950 . S
C1364 C1363 1.524 . S
C1364 C1365 1.415 . S
C1365 H1335 0.950 . S
C1365 C1360 1.363 . S
C1365 C1364 1.415 . S
H1366 C1363 0.999 . S
H1367 C1348 0.913 . S
C187 C4 0.748 . S
C202 C144 0.475 . S
C237 C158 0.804 . S
C252 C18 0.801 . S
C287 C88 0.746 . S
C302 C32 0.477 . S
C337 C46 0.746 . S
C352 C102 0.477 . S
C387 C60 0.804 . S
C402 C116 0.801 . S
C437 C130 0.748 . S
C452 C74 0.475 . S
C487 C11 0.959 . S
C502 C109 0.883 . S
C537 C123 0.827 . S
C552 C25 0.826 . S
C587 C137 0.961 . S
C602 C39 0.881 . S
C637 C53 0.959 . S
C652 C151 0.883 . S
C687 C165 0.828 . S
C702 C67 0.826 . S
C737 C81 0.883 . S
C752 C95 0.959 . S
C787 C54 0.224 . S
C802 C12 0.224 . S
C837 C68 0.382 . S
C852 C26 0.380 . S
C887 C82 0.609 . S
C902 C40 0.609 . S
C937 C96 0.225 . S
C952 C138 0.222 . S
C987 C110 0.607 . S
C1002 C152 0.611 . S
C1037 C124 0.380 . S
C1052 C166 0.382 . S
C1087 C117 0.931 . S
C1102 C5 0.969 . S
C1137 C131 0.968 . S
C1152 C19 0.931 . S
C1187 C145 1.206 . S
C1202 C33 1.206 . S
C1237 C159 0.929 . S
C1252 C47 0.972 . S
C1287 C89 0.969 . S
C1302 C61 0.931 . S
C1337 C75 1.207 . S
C1352 C103 1.206 . S
