# Generated by pormake.
# Topology lcy-e, (6)-cn, num edge types: 1
# Building blocks:
#     Node 0, Type 0, BuildingBlock: UKALOJ_clean_sbu_0, # of connection points: 6
#     Node 1, Type 0, BuildingBlock: UKALOJ_clean_sbu_0, # of connection points: 6
#     Node 2, Type 0, BuildingBlock: UKALOJ_clean_sbu_0, # of connection points: 6
#     Node 3, Type 0, BuildingBlock: UKALOJ_clean_sbu_0, # of connection points: 6
#     Node 4, Type 0, BuildingBlock: UKALOJ_clean_sbu_0, # of connection points: 6
#     Node 5, Type 0, BuildingBlock: UKALOJ_clean_sbu_0, # of connection points: 6
#     Node 6, Type 0, BuildingBlock: UKALOJ_clean_sbu_0, # of connection points: 6
#     Node 7, Type 0, BuildingBlock: UKALOJ_clean_sbu_0, # of connection points: 6
#     Node 8, Type 0, BuildingBlock: UKALOJ_clean_sbu_0, # of connection points: 6
#     Node 9, Type 0, BuildingBlock: UKALOJ_clean_sbu_0, # of connection points: 6
#     Node 10, Type 0, BuildingBlock: UKALOJ_clean_sbu_0, # of connection points: 6
#     Node 11, Type 0, BuildingBlock: UKALOJ_clean_sbu_0, # of connection points: 6
#     Edge 12, Type (0, 0), BuildingBlock: KIFKEQ_clean_linker_1, # of connection points: 2
#     Edge 13, Type (0, 0), BuildingBlock: KIFKEQ_clean_linker_1, # of connection points: 2
#     Edge 14, Type (0, 0), BuildingBlock: KIFKEQ_clean_linker_1, # of connection points: 2
#     Edge 15, Type (0, 0), BuildingBlock: KIFKEQ_clean_linker_1, # of connection points: 2
#     Edge 16, Type (0, 0), BuildingBlock: KIFKEQ_clean_linker_1, # of connection points: 2
#     Edge 17, Type (0, 0), BuildingBlock: KIFKEQ_clean_linker_1, # of connection points: 2
#     Edge 18, Type (0, 0), BuildingBlock: KIFKEQ_clean_linker_1, # of connection points: 2
#     Edge 19, Type (0, 0), BuildingBlock: KIFKEQ_clean_linker_1, # of connection points: 2
#     Edge 20, Type (0, 0), BuildingBlock: KIFKEQ_clean_linker_1, # of connection points: 2
#     Edge 21, Type (0, 0), BuildingBlock: KIFKEQ_clean_linker_1, # of connection points: 2
#     Edge 22, Type (0, 0), BuildingBlock: KIFKEQ_clean_linker_1, # of connection points: 2
#     Edge 23, Type (0, 0), BuildingBlock: KIFKEQ_clean_linker_1, # of connection points: 2
#     Edge 24, Type (0, 0), BuildingBlock: KIFKEQ_clean_linker_1, # of connection points: 2
#     Edge 25, Type (0, 0), BuildingBlock: KIFKEQ_clean_linker_1, # of connection points: 2
#     Edge 26, Type (0, 0), BuildingBlock: KIFKEQ_clean_linker_1, # of connection points: 2
#     Edge 27, Type (0, 0), BuildingBlock: KIFKEQ_clean_linker_1, # of connection points: 2
#     Edge 28, Type (0, 0), BuildingBlock: KIFKEQ_clean_linker_1, # of connection points: 2
#     Edge 29, Type (0, 0), BuildingBlock: KIFKEQ_clean_linker_1, # of connection points: 2
#     Edge 30, Type (0, 0), BuildingBlock: KIFKEQ_clean_linker_1, # of connection points: 2
#     Edge 31, Type (0, 0), BuildingBlock: KIFKEQ_clean_linker_1, # of connection points: 2
#     Edge 32, Type (0, 0), BuildingBlock: KIFKEQ_clean_linker_1, # of connection points: 2
#     Edge 33, Type (0, 0), BuildingBlock: KIFKEQ_clean_linker_1, # of connection points: 2
#     Edge 34, Type (0, 0), BuildingBlock: KIFKEQ_clean_linker_1, # of connection points: 2
#     Edge 35, Type (0, 0), BuildingBlock: KIFKEQ_clean_linker_1, # of connection points: 2
#     Edge 36, Type (0, 0), BuildingBlock: KIFKEQ_clean_linker_1, # of connection points: 2
#     Edge 37, Type (0, 0), BuildingBlock: KIFKEQ_clean_linker_1, # of connection points: 2
#     Edge 38, Type (0, 0), BuildingBlock: KIFKEQ_clean_linker_1, # of connection points: 2
#     Edge 39, Type (0, 0), BuildingBlock: KIFKEQ_clean_linker_1, # of connection points: 2
#     Edge 40, Type (0, 0), BuildingBlock: KIFKEQ_clean_linker_1, # of connection points: 2
#     Edge 41, Type (0, 0), BuildingBlock: KIFKEQ_clean_linker_1, # of connection points: 2
#     Edge 42, Type (0, 0), BuildingBlock: KIFKEQ_clean_linker_1, # of connection points: 2
#     Edge 43, Type (0, 0), BuildingBlock: KIFKEQ_clean_linker_1, # of connection points: 2
#     Edge 44, Type (0, 0), BuildingBlock: KIFKEQ_clean_linker_1, # of connection points: 2
#     Edge 45, Type (0, 0), BuildingBlock: KIFKEQ_clean_linker_1, # of connection points: 2
#     Edge 46, Type (0, 0), BuildingBlock: KIFKEQ_clean_linker_1, # of connection points: 2
#     Edge 47, Type (0, 0), BuildingBlock: KIFKEQ_clean_linker_1, # of connection points: 2
# Relax obj value: 0.284
# Max RMSD: 0.290
# Mean RMSD: 0.290
data_MOF--net-lcy-e--node1-UKALOJ_clean_sbu_0--edge1-KIFKEQ_clean_linker_1
_symmetry_space_group_name_H-M    P1
_symmetry_Int_Tables_number       1
_symmetry_cell_setting            triclinic
loop_
_symmetry_equiv_pos_as_xyz
'x, y, z'
_cell_length_a     39.76845
_cell_length_b     39.75185
_cell_length_c     39.806101
_cell_angle_alpha  90.03562
_cell_angle_beta   90.006468
_cell_angle_gamma 90.031536
loop_
_atom_site_label
_atom_site_type_symbol
_atom_site_fract_x
_atom_site_fract_y
_atom_site_fract_z
_atom_type_partial_charge
Zn0 Zn 0.11967 0.23084 0.44839 0.0
O1 O 0.15245 0.26607 0.4659 0.0
C2 C 0.17797 0.188 0.42899 0.0
Zn3 Zn 0.13488 0.19547 0.48853 0.0
C4 C 0.16876 0.26248 0.49292 0.0
O5 O 0.16637 0.23508 0.50947 0.0
C6 C 0.0849 0.16605 0.44138 0.0
O7 O 0.09622 0.21214 0.51826 0.0
O8 O 0.08173 0.25102 0.48193 0.0
N9 N 0.14922 0.16237 0.52479 0.0
C10 C 0.13062 0.14244 0.5449 0.0
C11 C 0.18193 0.12827 0.55147 0.0
N12 N 0.1811 0.15365 0.52901 0.0
N13 N 0.15057 0.12111 0.56197 0.0
C14 C 0.12183 0.2766 0.38601 0.0
C15 C 0.07044 0.29061 0.37979 0.0
N16 N 0.10452 0.2627 0.41149 0.0
N17 N 0.0726 0.27153 0.40773 0.0
N18 N 0.10101 0.29383 0.36572 0.0
H19 H 0.17222 0.27144 0.40579 0.0
H20 H 0.16889 0.29738 0.3688 0.0
H21 H 0.1651 0.25253 0.3652 0.0
C22 C 0.1592 0.27445 0.38141 0.0
C23 C 0.09285 0.14206 0.54632 0.0
H24 H 0.08453 0.15777 0.56781 0.0
H25 H 0.08334 0.11614 0.55038 0.0
H26 H 0.08133 0.1521 0.52321 0.0
O27 O 0.1029 0.15784 0.46647 0.0
O28 O 0.08653 0.19567 0.42991 0.0
C29 C 0.0777 0.23666 0.51025 0.0
O30 O 0.15824 0.21003 0.41686 0.0
O31 O 0.17407 0.17827 0.45898 0.0
Zn32 Zn 0.00744 0.86658 0.69959 0.0
O33 O 0.97075 0.89927 0.71533 0.0
C34 C 0.05026 0.92626 0.68455 0.0
Zn35 Zn 0.03809 0.88296 0.74321 0.0
C36 C 0.97151 0.91581 0.74246 0.0
O37 O -0.00276 0.91401 0.76155 0.0
C38 C 0.07202 0.8327 0.6979 0.0
O39 O 0.01957 0.84419 0.77111 0.0
O40 O 0.98497 0.82787 0.73121 0.0
N41 N 0.06922 0.89687 0.78169 0.0
C42 C 0.0939 0.87892 0.79637 0.0
C43 C 0.09963 0.92973 0.81254 0.0
N44 N 0.07264 0.92843 0.79195 0.0
N45 N 0.11351 0.89898 0.81531 0.0
C46 C 0.95919 0.87069 0.63878 0.0
C47 C 0.96108 0.82076 0.61921 0.0
N48 N 0.97877 0.85249 0.65956 0.0
N49 N 0.97985 0.82145 0.64741 0.0
N50 N 0.94772 0.85131 0.61348 0.0
H51 H 0.9728 0.92062 0.65634 0.0
H52 H 0.92858 0.91172 0.65494 0.0
H53 H 0.95114 0.91961 0.61667 0.0
C54 C 0.95289 0.9078 0.64186 0.0
C55 C 0.09901 0.84164 0.79267 0.0
H56 H 0.07558 0.82843 0.78595 0.0
H57 H 0.10889 0.83086 0.81642 0.0
H58 H 0.11785 0.83684 0.77274 0.0
O59 O 0.07724 0.85095 0.72359 0.0
O60 O 0.04384 0.83376 0.68332 0.0
C61 C -0.00327 0.82464 0.76086 0.0
O62 O 0.03072 0.90543 0.67008 0.0
O63 O 0.05666 0.92273 0.71549 0.0
Zn64 Zn 0.3546 0.78717 0.9893 0.0
O65 O 0.39498 0.77047 0.01627 0.0
C66 C 0.40186 0.82721 0.94558 0.0
Zn67 Zn 0.37518 0.75945 0.94538 0.0
C68 C 0.41725 0.75048 0.00566 0.0
O69 O 0.41611 0.73989 0.97546 0.0
C70 C 0.31138 0.79744 0.93108 0.0
O71 O 0.34717 0.71898 0.96076 0.0
O72 O 0.32679 0.74345 0.00585 0.0
N73 N 0.39118 0.73342 0.90429 0.0
C74 C 0.37445 0.7121 0.88396 0.0
C75 C 0.42317 0.7194 0.86276 0.0
N76 N 0.42147 0.7379 0.89113 0.0
N77 N 0.39405 0.70284 0.85798 0.0
C78 C 0.35733 0.83613 0.0487 0.0
C79 C 0.30647 0.85221 0.05337 0.0
N80 N 0.33865 0.81602 0.02883 0.0
N81 N 0.30696 0.82579 0.03205 0.0
N82 N 0.33785 0.8593 0.06393 0.0
H83 H 0.39954 0.80754 0.06565 0.0
H84 H 0.40467 0.85155 0.07175 0.0
H85 H 0.40827 0.834 0.03003 0.0
C86 C 0.39456 0.83244 0.05419 0.0
C87 C 0.3383 0.70198 0.88813 0.0
H88 H 0.33721 0.67771 0.90183 0.0
H89 H 0.32609 0.6984 0.86332 0.0
H90 H 0.32385 0.72083 0.9025 0.0
O91 O 0.33401 0.77996 0.91673 0.0
O92 O 0.31355 0.80345 0.9622 0.0
C93 C 0.32973 0.71741 0.98729 0.0
O94 O 0.38341 0.82985 0.97154 0.0
O95 O 0.40362 0.79949 0.93014 0.0
Zn96 Zn 0.48217 0.12014 0.18934 0.0
O97 O 0.51845 0.08741 0.20624 0.0
C98 C 0.43867 0.06018 0.17705 0.0
Zn99 Zn 0.44997 0.10734 0.23233 0.0
C100 C 0.51733 0.07459 0.23531 0.0
O101 O 0.49151 0.07931 0.25374 0.0
C102 C 0.41688 0.15374 0.18398 0.0
O103 O 0.46731 0.1494 0.25689 0.0
O104 O 0.50584 0.15929 0.21869 0.0
N105 N 0.41984 0.09645 0.27231 0.0
C106 C 0.3994 0.11647 0.29051 0.0
C107 C 0.39051 0.06599 0.3062 0.0
N108 N 0.41448 0.06513 0.28228 0.0
N109 N 0.3808 0.09794 0.312 0.0
C110 C 0.52936 0.11322 0.12804 0.0
C111 C 0.52787 0.16269 0.10731 0.0
N112 N 0.51049 0.13226 0.1487 0.0
N113 N 0.50969 0.16301 0.13586 0.0
N114 N 0.54059 0.13178 0.10206 0.0
H115 H 0.55988 0.07217 0.1443 0.0
H116 H 0.5358 0.06356 0.10711 0.0
H117 H 0.5156 0.06415 0.14762 0.0
C118 C 0.53516 0.07612 0.132 0.0
C119 C 0.39591 0.15385 0.28583 0.0
H120 H 0.40755 0.16298 0.26249 0.0
H121 H 0.40853 0.1669 0.30699 0.0
H122 H 0.36898 0.16116 0.28586 0.0
O123 O 0.4099 0.13582 0.20947 0.0
O124 O 0.44628 0.15305 0.17197 0.0
C125 C 0.49229 0.16628 0.24683 0.0
O126 O 0.45778 0.08078 0.16174 0.0
O127 O 0.43263 0.06448 0.208 0.0
Zn128 Zn 0.60732 0.25403 0.533 0.0
O129 O 0.64789 0.22691 0.51619 0.0
C130 C 0.65582 0.30061 0.5668 0.0
Zn131 Zn 0.62311 0.29652 0.50085 0.0
C132 C 0.6667 0.23629 0.49239 0.0
O133 O 0.66237 0.26519 0.47913 0.0
C134 C 0.56205 0.31152 0.54225 0.0
O135 O 0.59133 0.27989 0.46361 0.0
O136 O 0.57839 0.23395 0.49147 0.0
N137 N 0.63698 0.33695 0.47255 0.0
C138 C 0.61824 0.36221 0.45996 0.0
C139 C 0.66967 0.37488 0.45171 0.0
N140 N 0.66893 0.34481 0.46737 0.0
N141 N 0.63818 0.38656 0.44724 0.0
C142 C 0.6121 0.19639 0.58481 0.0
C143 C 0.56056 0.18454 0.59358 0.0
N144 N 0.59365 0.21513 0.56343 0.0
N145 N 0.56166 0.2075 0.56871 0.0
N146 N 0.5919 0.17699 0.60396 0.0
H147 H 0.66064 0.22044 0.5757 0.0
H148 H 0.66136 0.17577 0.57826 0.0
H149 H 0.65637 0.20026 0.61586 0.0
C150 C 0.64963 0.19874 0.58885 0.0
C151 C 0.58048 0.36233 0.45871 0.0
H152 H 0.57008 0.3366 0.45937 0.0
H153 H 0.57147 0.37499 0.43557 0.0
H154 H 0.57054 0.37619 0.48074 0.0
O155 O 0.58343 0.32558 0.52309 0.0
O156 O 0.5657 0.28079 0.54973 0.0
C157 C 0.57608 0.25198 0.46505 0.0
O158 O 0.63711 0.27542 0.57307 0.0
O159 O 0.65539 0.31353 0.53778 0.0
Zn160 Zn 0.94074 0.37134 0.75382 0.0
O161 O 0.95845 0.33538 0.72116 0.0
C162 C 0.91869 0.31552 0.79868 0.0
Zn163 Zn 0.97966 0.35703 0.79089 0.0
C164 C 0.98538 0.31931 0.72646 0.0
O165 O 0.00128 0.32348 0.75398 0.0
C166 C 0.93368 0.41037 0.81641 0.0
O167 O 0.01065 0.39455 0.7733 0.0
O168 O 0.97617 0.40699 0.73196 0.0
N169 N 0.0145 0.34359 0.82586 0.0
C170 C 0.03248 0.3628 0.8472 0.0
C171 C 0.03931 0.31172 0.86204 0.0
N172 N 0.01891 0.31184 0.83498 0.0
N173 N 0.04813 0.3434 0.87007 0.0
C174 C 0.8821 0.3648 0.70351 0.0
C175 C 0.8648 0.41537 0.69909 0.0
N176 N 0.90369 0.38441 0.72081 0.0
N177 N 0.89301 0.41584 0.7179 0.0
N178 N 0.85744 0.38362 0.68991 0.0
H179 H 0.90804 0.32447 0.67956 0.0
H180 H 0.86431 0.31607 0.68583 0.0
H181 H 0.89321 0.31434 0.72069 0.0
C182 C 0.88681 0.32781 0.6973 0.0
C183 C 0.03695 0.40021 0.84416 0.0
H184 H 0.05573 0.40526 0.82418 0.0
H185 H 0.04646 0.41157 0.86775 0.0
H186 H 0.01333 0.41278 0.83684 0.0
O187 O 0.95744 0.39129 0.82601 0.0
O188 O 0.92257 0.40779 0.78671 0.0
C189 C 0.00414 0.41135 0.74712 0.0
O190 O 0.90761 0.33526 0.77615 0.0
O191 O 0.94869 0.31878 0.80881 0.0
Zn192 Zn 0.88191 0.73241 0.04354 0.0
O193 O 0.84757 0.76525 0.02425 0.0
C194 C 0.82546 0.68811 0.06727 0.0
Zn195 Zn 0.86578 0.69395 0.00625 0.0
C196 C 0.82947 0.75926 -0.00118 0.0
O197 O 0.8311 0.73042 0.98473 0.0
C198 C 0.91961 0.66969 0.05274 0.0
O199 O 0.90229 0.71143 0.9742 0.0
O200 O 0.91827 0.75216 0.00796 0.0
N201 N 0.85246 0.65819 0.97178 0.0
C202 C 0.87141 0.63674 0.95354 0.0
C203 C 0.82016 0.62283 0.9463 0.0
N204 N 0.82063 0.64965 0.96703 0.0
N205 N 0.8517 0.61428 0.93733 0.0
C206 C 0.87686 0.78125 0.10362 0.0
C207 C 0.92763 0.79652 0.11146 0.0
N208 N 0.89542 0.76705 0.0791 0.0
N209 N 0.92697 0.77672 0.08388 0.0
N210 N 0.89648 0.7994 0.12436 0.0
H211 H 0.82723 0.77319 0.08262 0.0
H212 H 0.82878 0.80184 0.1177 0.0
H213 H 0.83355 0.75756 0.12467 0.0
C214 C 0.83942 0.77833 0.10705 0.0
C215 C 0.90921 0.63643 0.95315 0.0
H216 H 0.92032 0.65189 0.97322 0.0
H217 H 0.91813 0.64692 0.92894 0.0
H218 H 0.91873 0.6103 0.95546 0.0
O219 O 0.90074 0.65976 0.02893 0.0
O220 O 0.91715 0.69959 0.06339 0.0
C221 C 0.92073 0.7367 0.97996 0.0
O222 O 0.84465 0.71188 0.07677 0.0
O223 O 0.82871 0.67597 0.03807 0.0
Zn224 Zn 0.53983 0.61976 0.25478 0.0
O225 O 0.52331 0.65721 0.22351 0.0
C226 C 0.56033 0.67577 0.30005 0.0
Zn227 Zn 0.50064 0.63328 0.29089 0.0
C228 C 0.49515 0.67151 0.22712 0.0
O229 O 0.47743 0.66537 0.25317 0.0
C230 C 0.54726 0.5802 0.316 0.0
O231 O 0.47147 0.59374 0.27395 0.0
O232 O 0.50483 0.5857 0.23076 0.0
N233 N 0.4652 0.645 0.32621 0.0
C234 C 0.44864 0.62474 0.34776 0.0
C235 C 0.43853 0.67531 0.36249 0.0
N236 N 0.45876 0.67643 0.3353 0.0
N237 N 0.43192 0.64314 0.37074 0.0
C238 C 0.59819 0.62669 0.20366 0.0
C239 C 0.61199 0.5755 0.19557 0.0
N240 N 0.57654 0.60744 0.22126 0.0
N241 N 0.58501 0.57566 0.21601 0.0
N242 N 0.62068 0.6072 0.18729 0.0
H243 H 0.58359 0.67515 0.22466 0.0
H244 H 0.58752 0.67386 0.18016 0.0
H245 H 0.62472 0.67399 0.20589 0.0
C246 C 0.59855 0.6645 0.20397 0.0
C247 C 0.44651 0.5871 0.34476 0.0
H248 H 0.42971 0.58082 0.32342 0.0
H249 H 0.43577 0.57534 0.36759 0.0
H250 H 0.47135 0.57587 0.33958 0.0
O251 O 0.52529 0.60086 0.32665 0.0
O252 O 0.55651 0.58163 0.28564 0.0
C253 C 0.47776 0.57894 0.24652 0.0
O254 O 0.57307 0.65448 0.27985 0.0
O255 O 0.52951 0.67339 0.30767 0.0
Zn256 Zn 0.19746 0.47561 0.12315 0.0
O257 O 0.21492 0.50478 0.08464 0.0
C258 C 0.17003 0.42833 0.07208 0.0
Zn259 Zn 0.23396 0.43611 0.10873 0.0
C260 C 0.2401 0.49742 0.06672 0.0
O261 O 0.25501 0.46938 0.07113 0.0
C262 C 0.18922 0.41658 0.16606 0.0
O263 O 0.26849 0.45457 0.14268 0.0
O264 O 0.23587 0.49741 0.15519 0.0
N265 N 0.26599 0.39855 0.09518 0.0
C266 C 0.27915 0.37343 0.11364 0.0
C267 C 0.29155 0.36354 0.06248 0.0
N268 N 0.27388 0.3925 0.06339 0.0
N269 N 0.29479 0.35103 0.09372 0.0
C270 C 0.1427 0.5306 0.1171 0.0
C271 C 0.13174 0.54137 0.16841 0.0
N272 N 0.16407 0.51232 0.13602 0.0
N273 N 0.1574 0.51926 0.16787 0.0
N274 N 0.12218 0.54906 0.13686 0.0
H275 H 0.15494 0.50795 0.06868 0.0
H276 H 0.15027 0.55239 0.06855 0.0
H277 H 0.1136 0.52616 0.07164 0.0
C278 C 0.14026 0.52878 0.07946 0.0
C279 C 0.27771 0.37106 0.15119 0.0
H280 H 0.30145 0.36022 0.16106 0.0
H281 H 0.25697 0.3539 0.15829 0.0
H282 H 0.27344 0.39588 0.16296 0.0
O283 O 0.21187 0.40481 0.14679 0.0
O284 O 0.17939 0.44659 0.16222 0.0
C285 C 0.26371 0.4818 0.15848 0.0
O286 O 0.16099 0.45279 0.09057 0.0
O287 O 0.19976 0.41721 0.07429 0.0
Zn288 Zn 0.72341 0.03229 0.85977 0.0
O289 O 0.75107 0.01363 0.82069 0.0
C290 C 0.67556 0.06042 0.80862 0.0
Zn291 Zn 0.68246 -0.00267 0.84531 0.0
C292 C 0.74254 0.98877 0.80275 0.0
O293 O 0.71401 0.97475 0.8072 0.0
C294 C 0.66577 0.04249 0.90358 0.0
O295 O 0.70152 0.96281 0.87847 0.0
O296 O 0.74492 -0.00611 0.89208 0.0
N297 N 0.64317 0.9659 0.83522 0.0
C298 C 0.6225 0.94959 0.8566 0.0
C299 C 0.60068 0.94627 0.8078 0.0
N300 N 0.62971 0.96358 0.80487 0.0
N301 N 0.59572 0.93707 0.83999 0.0
C302 C 0.77479 0.09037 0.85362 0.0
C303 C 0.7965 0.09241 0.90253 0.0
N304 N 0.76128 0.06501 0.87155 0.0
N305 N 0.77496 0.06617 0.90189 0.0
N306 N 0.79658 0.10805 0.87255 0.0
H307 H 0.76051 0.07412 0.80377 0.0
H308 H 0.7901 0.10851 0.80495 0.0
H309 H 0.74686 0.11578 0.81553 0.0
C310 C 0.7677 0.09736 0.8173 0.0
C311 C 0.6267 0.94822 0.89415 0.0
H312 H 0.63373 0.92228 0.90155 0.0
H313 H 0.60261 0.95453 0.90674 0.0
H314 H 0.6464 0.96515 0.90365 0.0
O315 O 0.65289 0.02106 0.88367 0.0
O316 O 0.69608 0.05126 0.89956 0.0
C317 C 0.72877 0.96625 0.89443 0.0
O318 O 0.70073 0.06865 0.82659 0.0
O319 O 0.66324 0.0312 0.81118 0.0
Zn320 Zn 0.76003 0.95172 0.37432 0.0
O321 O 0.73137 0.96933 0.33529 0.0
C322 C 0.80755 0.92434 0.32301 0.0
Zn323 Zn 0.80039 0.98725 0.36087 0.0
C324 C 0.7391 -0.00461 0.31881 0.0
O325 O 0.76702 0.01015 0.32442 0.0
C326 C 0.81897 0.94225 0.41778 0.0
O327 O 0.78282 0.02087 0.39603 0.0
O328 O 0.73786 0.99035 0.40615 0.0
N329 N 0.83833 0.01922 0.34853 0.0
C330 C 0.8637 0.0311 0.36755 0.0
C331 C 0.87341 0.0461 0.31706 0.0
N332 N 0.84428 0.02868 0.31717 0.0
N333 N 0.88615 0.04755 0.34835 0.0
C334 C 0.70475 0.89721 0.36739 0.0
C335 C 0.69744 0.88212 0.41827 0.0
N336 N 0.72366 0.91767 0.38674 0.0
N337 N 0.71893 0.90836 0.41835 0.0
N338 N 0.68807 0.87485 0.3866 0.0
H339 H 0.68173 0.9116 0.32111 0.0
H340 H 0.70221 0.8714 0.31972 0.0
H341 H 0.72669 0.90945 0.31885 0.0
C342 C 0.70417 0.89741 0.32965 0.0
C343 C 0.86608 0.02789 0.40506 0.0
H344 H 0.84104 0.02477 0.41668 0.0
H345 H 0.87838 0.05046 0.41598 0.0
H346 H 0.88171 0.00572 0.41142 0.0
O347 O 0.83179 0.96348 0.39765 0.0
O348 O 0.78846 0.93396 0.41424 0.0
C349 C 0.75485 0.01724 0.41073 0.0
O350 O 0.78326 0.91509 0.34166 0.0
O351 O 0.81849 0.95414 0.32526 0.0
Zn352 Zn 0.28755 0.50814 0.62696 0.0
O353 O 0.26855 0.4794 0.58885 0.0
C354 C 0.31259 0.55515 0.57392 0.0
Zn355 Zn 0.25118 0.54798 0.61428 0.0
C356 C 0.24198 0.48666 0.57302 0.0
O357 O 0.22696 0.5144 0.57884 0.0
C358 C 0.29869 0.56752 0.66916 0.0
O359 O 0.219 0.53005 0.65087 0.0
O360 O 0.25045 0.48566 0.66022 0.0
N361 N 0.21845 0.58586 0.60363 0.0
C362 C 0.20217 0.60731 0.62422 0.0
C363 C 0.19523 0.62493 0.57412 0.0
N364 N 0.2139 0.59669 0.5725 0.0
N365 N 0.18742 0.63202 0.60629 0.0
C366 C 0.34147 0.45264 0.61792 0.0
C367 C 0.35822 0.44495 0.66823 0.0
N368 N 0.32203 0.4718 0.63803 0.0
N369 N 0.33236 0.46682 0.66929 0.0
N370 N 0.3642 0.43553 0.6363 0.0
H371 H 0.32541 0.42982 0.57204 0.0
H372 H 0.36556 0.45031 0.56938 0.0
H373 H 0.32756 0.47479 0.56991 0.0
C374 C 0.33992 0.45222 0.58021 0.0
C375 C 0.20262 0.60565 0.66196 0.0
H376 H 0.2216 0.58808 0.67178 0.0
H377 H 0.17774 0.59687 0.67094 0.0
H378 H 0.20731 0.63099 0.6727 0.0
O379 O 0.27656 0.57982 0.64969 0.0
O380 O 0.30689 0.53693 0.66595 0.0
C381 C 0.22342 0.50215 0.66548 0.0
O382 O 0.32265 0.5313 0.59272 0.0
O383 O 0.28286 0.56604 0.57709 0.0
H384 H 0.20588 0.30542 0.45632 0.0
H385 H 0.16893 0.28788 0.55671 0.0
H386 H 0.2211 0.36272 0.47151 0.0
H387 H 0.1847 0.34554 0.57235 0.0
H388 H 0.17923 0.45985 0.57697 0.0
H389 H 0.16379 0.40328 0.55767 0.0
H390 H 0.2593 0.39503 0.50655 0.0
H391 H 0.27426 0.45131 0.5255 0.0
C392 C 0.2021 0.3136 0.48203 0.0
C393 C 0.18665 0.29224 0.5055 0.0
C394 C 0.21056 0.34648 0.49065 0.0
C395 C 0.20355 0.35881 0.52293 0.0
C396 C 0.18977 0.33685 0.54706 0.0
C397 C 0.18148 0.30368 0.53842 0.0
C398 C 0.19608 0.44645 0.56028 0.0
C399 C 0.22761 0.45996 0.55212 0.0
C400 C 0.18769 0.41382 0.54996 0.0
C401 C 0.21064 0.3945 0.53117 0.0
C402 C 0.24106 0.40924 0.52094 0.0
C403 C 0.24949 0.44159 0.53144 0.0
H404 H 0.76641 0.92492 0.80495 0.0
H405 H 0.78067 0.02135 0.75751 0.0
H406 H 0.82398 0.90902 0.78981 0.0
H407 H 0.83799 0.00593 0.74269 0.0
H408 H 0.9336 0.9549 0.70249 0.0
H409 H 0.87473 0.96939 0.71091 0.0
H410 H 0.87934 0.92873 0.81148 0.0
H411 H 0.93845 0.91345 0.80247 0.0
C412 C 0.78129 0.94197 0.78979 0.0
C413 C 0.76911 0.97411 0.7819 0.0
C414 C 0.81449 0.9333 0.78191 0.0
C415 C 0.83576 0.95658 0.76581 0.0
C416 C 0.82233 0.98744 0.75511 0.0
C417 C 0.78935 -0.00387 0.76318 0.0
C418 C 0.92221 0.9499 0.7267 0.0
C419 C 0.9405 0.9334 0.75197 0.0
C420 C 0.88846 0.95798 0.73145 0.0
C421 C 0.87219 0.9496 0.76159 0.0
C422 C 0.89105 0.9348 0.78767 0.0
C423 C 0.92503 0.92682 0.78292 0.0
H424 H 0.34907 0.65694 0.96285 0.0
H425 H 0.27979 0.70266 0.03307 0.0
H426 H 0.32768 0.60161 0.97705 0.0
H427 H 0.25819 0.64651 0.04728 0.0
H428 H 0.2045 0.54631 0.03608 0.0
H429 H 0.22622 0.59972 0.01553 0.0
H430 H 0.3277 0.56361 0.029 0.0
H431 H 0.30583 0.50997 0.05026 0.0
C432 C 0.32905 0.65524 0.98122 0.0
C433 C 0.31583 0.68428 -0.00332 0.0
C434 C 0.31706 0.62343 0.98947 0.0
C435 C 0.29131 0.61985 0.01309 0.0
C436 C 0.27793 0.64876 0.02866 0.0
C437 C 0.2903 0.68078 0.0207 0.0
C438 C 0.23147 0.54947 0.03396 0.0
C439 C 0.25354 0.52417 0.04503 0.0
C440 C 0.24382 0.58016 0.02256 0.0
C441 C 0.27852 0.586 0.02156 0.0
C442 C 0.30075 0.55969 0.02978 0.0
C443 C 0.28832 0.52891 0.04155 0.0
H444 H 0.56051 0.03675 0.19922 0.0
H445 H 0.54422 0.07735 0.29848 0.0
H446 H 0.61728 0.02005 0.21502 0.0
H447 H 0.60133 0.0603 0.31457 0.0
H448 H 0.71614 0.05982 0.31904 0.0
H449 H 0.66088 0.07796 0.2984 0.0
H450 H 0.64588 0.9802 0.25334 0.0
H451 H 0.70074 0.96233 0.27394 0.0
C452 C 0.56892 0.04141 0.2247 0.0
C453 C 0.54799 0.05807 0.24775 0.0
C454 C 0.60144 0.03201 0.23367 0.0
C455 C 0.61389 0.03935 0.26583 0.0
C456 C 0.59252 0.05488 0.28939 0.0
C457 C 0.55969 0.06401 0.28047 0.0
C458 C 0.70155 0.04285 0.30349 0.0
C459 C 0.71273 0.00992 0.29755 0.0
C460 C 0.6697 0.05291 0.29233 0.0
C461 C 0.6489 0.03027 0.27477 0.0
C462 C 0.66133 -0.0018 0.26676 0.0
C463 C 0.69283 0.98807 0.27824 0.0
H464 H 0.66882 0.21398 0.42791 0.0
H465 H 0.71149 0.19855 0.52628 0.0
H466 H 0.69026 0.1589 0.41008 0.0
H467 H 0.73312 0.14389 0.50862 0.0
H468 H 0.78987 0.05965 0.45049 0.0
H469 H 0.7729 0.11573 0.46872 0.0
H470 H 0.67381 0.09893 0.4276 0.0
H471 H 0.69094 0.04243 0.40939 0.0
C472 C 0.68414 0.19949 0.44515 0.0
C473 C 0.68918 0.21068 0.4782 0.0
C474 C 0.69571 0.1677 0.43526 0.0
C475 C 0.71284 0.14689 0.45817 0.0
C476 C 0.72004 0.15933 0.49041 0.0
C477 C 0.70805 0.19077 0.5004 0.0
C478 C 0.76416 0.0676 0.44622 0.0
C479 C 0.74154 0.04661 0.42897 0.0
C480 C 0.75455 0.09978 0.45641 0.0
C481 C 0.72224 0.1119 0.44907 0.0
C482 C 0.69908 0.09038 0.43307 0.0
C483 C 0.7086 0.05786 0.42328 0.0
H484 H 0.02882 0.4111 0.68323 0.0
H485 H 0.04296 0.45529 0.7812 0.0
H486 H 0.08404 0.43262 0.66577 0.0
H487 H 0.09776 0.47687 0.76393 0.0
H488 H 0.17996 0.53601 0.70518 0.0
H489 H 0.12461 0.51718 0.72375 0.0
H490 H 0.1446 0.41839 0.68328 0.0
H491 H 0.20037 0.43738 0.66475 0.0
C492 C 0.04318 0.4265 0.70053 0.0
C493 C 0.03152 0.43208 0.73333 0.0
C494 C 0.07502 0.43819 0.69084 0.0
C495 C 0.0954 0.45599 0.71369 0.0
C496 C 0.08267 0.46328 0.74578 0.0
C497 C 0.05121 0.45119 0.75557 0.0
C498 C 0.17289 0.50999 0.70114 0.0
C499 C 0.19458 0.488 0.68397 0.0
C500 C 0.14112 0.49929 0.71153 0.0
C501 C 0.13008 0.46648 0.7045 0.0
C502 C 0.1523 0.44399 0.68856 0.0
C503 C 0.18442 0.4546 0.67858 0.0
H504 H 0.70003 0.90443 0.89822 0.0
H505 H 0.78747 0.96036 0.93095 0.0
H506 H 0.72259 0.85371 0.92329 0.0
H507 H 0.80996 0.90892 0.95658 0.0
H508 H 0.81728 0.81917 0.02894 0.0
H509 H 0.79294 0.86934 0.00437 0.0
H510 H 0.77278 0.81479 0.91275 0.0
H511 H 0.79785 0.76396 0.93728 0.0
C512 C 0.72403 0.90605 0.91099 0.0
C513 C 0.742 0.93661 0.91259 0.0
C514 C 0.737 0.87678 0.92509 0.0
C515 C 0.76805 0.87733 0.94156 0.0
C516 C 0.78582 0.90792 0.944 0.0
C517 C 0.77298 0.93733 0.92945 0.0
C518 C 0.8075 0.81759 0.00358 0.0
C519 C 0.80972 0.78752 0.98492 0.0
C520 C 0.7938 0.84652 0.9895 0.0
C521 C 0.78155 0.84608 0.95656 0.0
C522 C 0.78221 0.81572 0.93827 0.0
C523 C 0.79633 0.78664 0.95231 0.0
H524 H 0.43959 0.53308 0.2789 0.0
H525 H 0.45402 0.58026 0.18238 0.0
H526 H 0.38627 0.50937 0.25962 0.0
H527 H 0.40022 0.55683 0.16308 0.0
H528 H 0.28336 0.54758 0.16196 0.0
H529 H 0.33793 0.56843 0.18212 0.0
H530 H 0.3639 0.4683 0.21503 0.0
H531 H 0.30986 0.44751 0.19459 0.0
C532 C 0.4317 0.53756 0.25323 0.0
C533 C 0.45099 0.55805 0.23193 0.0
C534 C 0.40113 0.52423 0.2423 0.0
C535 C 0.38895 0.53173 0.21008 0.0
C536 C 0.40892 0.55107 0.18822 0.0
C537 C 0.43991 0.56391 0.19898 0.0
C538 C 0.30042 0.53032 0.17433 0.0
C539 C 0.29239 0.49606 0.17705 0.0
C540 C 0.33178 0.54207 0.1853 0.0
C541 C 0.35522 0.51982 0.19968 0.0
C542 C 0.34634 0.48595 0.204 0.0
C543 C 0.31537 0.47413 0.19251 0.0
H544 H 0.4612 0.21428 0.28309 0.0
H545 H 0.55701 0.16573 0.26817 0.0
H546 H 0.48054 0.23639 0.33696 0.0
H547 H 0.57641 0.18753 0.32249 0.0
H548 H 0.57403 0.18817 0.43949 0.0
H549 H 0.55616 0.17219 0.3826 0.0
H550 H 0.52409 0.27428 0.36412 0.0
H551 H 0.54199 0.29016 0.42056 0.0
C552 C 0.48693 0.20964 0.29076 0.0
C553 C 0.50789 0.18891 0.27136 0.0
C554 C 0.49786 0.22191 0.32172 0.0
C555 C 0.52971 0.2131 0.33409 0.0
C556 C 0.55154 0.19424 0.31365 0.0
C557 C 0.54077 0.18243 0.28231 0.0
C558 C 0.56236 0.20687 0.4235 0.0
C559 C 0.55907 0.24026 0.43439 0.0
C560 C 0.55275 0.19795 0.39083 0.0
C561 C 0.53928 0.2222 0.36887 0.0
C562 C 0.5345 0.25516 0.38047 0.0
C563 C 0.54454 0.26415 0.4128 0.0
H564 H 0.03482 0.20114 0.54875 0.0
H565 H 0.07354 0.30119 0.53245 0.0
H566 H 0.01207 0.21855 0.603 0.0
H567 H 0.05094 0.31875 0.58709 0.0
H568 H 0.0496 0.32057 0.70301 0.0
H569 H 0.06809 0.30145 0.64737 0.0
H570 H 0.96999 0.2583 0.62962 0.0
H571 H 0.95165 0.27748 0.68498 0.0
C572 C 0.03734 0.2272 0.55635 0.0
C573 C 0.05543 0.25001 0.53639 0.0
C574 C 0.02462 0.23707 0.58747 0.0
C575 C 0.03032 0.26978 0.59944 0.0
C576 C 0.0467 0.29321 0.57858 0.0
C577 C 0.05898 0.28343 0.5471 0.0
C578 C 0.03248 0.306 0.6876 0.0
C579 C -0.00062 0.30011 0.69823 0.0
C580 C 0.04276 0.2957 0.65558 0.0
C581 C 0.02021 0.27898 0.63403 0.0
C582 C 0.98781 0.27124 0.64566 0.0
C583 C 0.97742 0.28197 0.67736 0.0
H584 H 0.93387 0.82582 0.78692 0.0
H585 H 0.02968 0.77566 0.79368 0.0
H586 H 0.91866 0.80421 0.84258 0.0
H587 H 0.01472 0.75397 0.84907 0.0
H588 H 0.95841 0.70034 0.93696 0.0
H589 H 0.97523 0.71711 0.88047 0.0
H590 H 0.94116 0.8183 0.90055 0.0
H591 H 0.92419 0.80127 0.9573 0.0
C592 C 0.9509 0.80878 0.79962 0.0
C593 C 0.98255 0.80164 0.78585 0.0
C594 C 0.94264 0.79713 0.83177 0.0
C595 C 0.96583 0.77799 0.85042 0.0
C596 C -0.00364 0.76865 0.83534 0.0
C597 C 0.00473 0.78062 0.80347 0.0
C598 C 0.95563 0.72645 0.92965 0.0
C599 C 0.94041 0.74965 0.95151 0.0
C600 C 0.96495 0.73596 0.89723 0.0
C601 C 0.95882 0.7688 0.88587 0.0
C602 C 0.94552 0.79261 0.90847 0.0
C603 C 0.93654 0.78313 0.94116 0.0
H604 H 0.53061 0.715 0.18925 0.0
H605 H 0.43297 0.66852 0.19832 0.0
H606 H 0.51718 0.73283 0.13224 0.0
H607 H 0.41922 0.68663 0.14103 0.0
H608 H 0.42112 0.68618 0.02742 0.0
H609 H 0.44 0.66971 0.08367 0.0
H610 H 0.47978 0.76964 0.09935 0.0
H611 H 0.46104 0.78575 0.04327 0.0
C612 C 0.50577 0.70967 0.17936 0.0
C613 C 0.48262 0.69079 0.19823 0.0
C614 C 0.49821 0.7196 0.14663 0.0
C615 C 0.46745 0.71052 0.13193 0.0
C616 C 0.44344 0.69336 0.15153 0.0
C617 C 0.45092 0.68369 0.18454 0.0
C618 C 0.43547 0.70395 0.04231 0.0
C619 C 0.44031 0.73697 0.03093 0.0
C620 C 0.44546 0.69487 0.07478 0.0
C621 C 0.46064 0.71865 0.09617 0.0
C622 C 0.46812 0.75077 0.08352 0.0
C623 C 0.45786 0.75988 0.05126 0.0
H624 H 0.12959 0.26469 0.31221 0.0
H625 H 0.09023 0.3584 0.34953 0.0
H626 H 0.1483 0.29259 0.2608 0.0
H627 H 0.10982 0.38708 0.29875 0.0
H628 H 0.12766 0.42506 0.19396 0.0
H629 H 0.10257 0.39336 0.2398 0.0
H630 H 0.1915 0.33101 0.24502 0.0
H631 H 0.21599 0.36213 0.1984 0.0
C632 C 0.12502 0.29137 0.30914 0.0
C633 C 0.10895 0.30972 0.33454 0.0
C634 C 0.13581 0.30738 0.27995 0.0
C635 C 0.13093 0.34214 0.27583 0.0
C636 C 0.11367 0.36021 0.30093 0.0
C637 C 0.10254 0.344 0.32998 0.0
C638 C 0.14174 0.40441 0.2048 0.0
C639 C 0.17382 0.396 0.19264 0.0
C640 C 0.12742 0.38636 0.23115 0.0
C641 C 0.14507 0.35977 0.24622 0.0
C642 C 0.17696 0.351 0.23362 0.0
C643 C 0.19111 0.36885 0.20694 0.0
H644 H 0.96418 0.84224 0.54865 0.0
H645 H 0.88827 0.88324 0.61411 0.0
H646 H 0.9334 0.86351 0.49953 0.0
H647 H 0.85756 0.90482 0.56542 0.0
H648 H 0.79504 0.90515 0.46977 0.0
H649 H 0.82637 0.88103 0.51626 0.0
H650 H 0.91859 0.92135 0.47551 0.0
H651 H 0.88716 0.94548 0.42838 0.0
C652 C 0.94073 0.85558 0.55231 0.0
C653 C 0.92847 0.86142 0.58483 0.0
C654 C 0.92337 0.86799 0.52443 0.0
C655 C 0.89325 0.88593 0.52876 0.0
C656 C 0.88064 0.89093 0.56137 0.0
C657 C 0.89816 0.87881 0.58916 0.0
C658 C 0.82202 0.90887 0.47056 0.0
C659 C 0.83863 0.92745 0.4455 0.0
C660 C 0.83989 0.89514 0.4973 0.0
C661 C 0.87481 0.89948 0.49952 0.0
C662 C 0.89165 0.91752 0.47423 0.0
C663 C 0.87366 0.93154 0.44746 0.0
H664 H 0.34367 0.54641 0.71603 0.0
H665 H 0.29061 0.63493 0.68176 0.0
H666 H 0.37003 0.57927 0.76029 0.0
H667 H 0.31718 0.66788 0.7265 0.0
H668 H 0.39701 0.72056 0.79293 0.0
H669 H 0.37549 0.688 0.74499 0.0
H670 H 0.3485 0.6072 0.8124 0.0
H671 H 0.37018 0.63979 0.85986 0.0
C672 C 0.33766 0.57292 0.71788 0.0
C673 C 0.31491 0.58807 0.69547 0.0
C674 C 0.35274 0.59168 0.7433 0.0
C675 C 0.34557 0.62603 0.74682 0.0
C676 C 0.32334 0.64145 0.72409 0.0
C677 C 0.308 0.62257 0.69868 0.0
C678 C 0.38691 0.69561 0.79711 0.0
C679 C 0.38498 0.68248 0.82973 0.0
C680 C 0.37434 0.6772 0.76994 0.0
C681 C 0.36019 0.64522 0.77509 0.0
C682 C 0.35944 0.63171 0.8077 0.0
C683 C 0.37167 0.65025 0.8348 0.0
H684 H 0.59966 0.09917 0.10167 0.0
H685 H 0.52217 0.13952 0.03769 0.0
H686 H 0.6294 0.07746 0.05232 0.0
H687 H 0.55181 0.1179 0.98801 0.0
H688 H 0.59841 0.03548 0.91673 0.0
H689 H 0.5674 0.05855 0.96472 0.0
H690 H 0.65869 0.10416 0.00185 0.0
H691 H 0.68958 0.08152 0.95427 0.0
C692 C 0.58915 0.1033 0.07693 0.0
C693 C 0.55879 0.12071 0.07313 0.0
C694 C 0.60609 0.0911 0.04881 0.0
C695 C 0.59272 0.09596 0.0165 0.0
C696 C 0.56239 0.1136 0.01272 0.0
C697 C 0.54568 0.12617 0.0409 0.0
C698 C 0.61175 0.05054 0.93509 0.0
C699 C 0.64639 0.05667 0.93177 0.0
C700 C 0.59403 0.06381 0.96238 0.0
C701 C 0.6108 0.08296 0.98689 0.0
C702 C 0.64531 0.08919 0.98342 0.0
C703 C 0.66289 0.07632 0.95608 0.0
H704 H 0.56181 0.18151 0.6643 0.0
H705 H 0.64156 0.13105 0.61093 0.0
H706 H 0.58118 0.15625 0.71706 0.0
H707 H 0.66182 0.10696 0.66371 0.0
H708 H 0.70962 0.1042 0.76832 0.0
H709 H 0.68736 0.13337 0.71892 0.0
H710 H 0.5881 0.09534 0.74106 0.0
H711 H 0.61037 0.066 0.7902 0.0
C712 C 0.5833 0.16481 0.6639 0.0
C713 C 0.60074 0.15879 0.63383 0.0
C714 C 0.5945 0.15063 0.69399 0.0
C715 C 0.62344 0.13044 0.6944 0.0
C716 C 0.64 0.12327 0.66409 0.0
C717 C 0.62848 0.13701 0.634 0.0
C718 C 0.68295 0.10292 0.76316 0.0
C719 C 0.66165 0.08308 0.78304 0.0
C720 C 0.6703 0.11919 0.73473 0.0
C721 C 0.63613 0.11624 0.72619 0.0
C722 C 0.61451 0.09801 0.74721 0.0
C723 C 0.62724 0.08129 0.77523 0.0
H724 H 0.11673 0.45823 0.04055 0.0
H725 H 0.17295 0.36548 0.04609 0.0
H726 H 0.08553 0.43624 0.99243 0.0
H727 H 0.141 0.34293 -0.00083 0.0
H728 H 0.11185 0.33172 0.88878 0.0
H729 H 0.13915 0.35126 0.94037 0.0
H730 H 0.04548 0.39649 0.97235 0.0
H731 H 0.01909 0.37783 0.92 0.0
C732 C 0.12181 0.43287 0.03196 0.0
C733 C 0.14742 0.41368 0.04673 0.0
C734 C 0.10395 0.42021 0.00444 0.0
C735 C 0.11113 0.38796 0.99158 0.0
C736 C 0.13547 0.36818 0.00777 0.0
C737 C 0.15358 0.38099 0.03485 0.0
C738 C 0.09741 0.34581 0.90705 0.0
C739 C 0.0638 0.3538 0.90068 0.0
C740 C 0.11276 0.35682 0.93663 0.0
C741 C 0.09447 0.37551 0.96058 0.0
C742 C 0.06046 0.38272 0.95427 0.0
C743 C 0.0453 0.37198 0.92454 0.0
H744 H 0.8702 0.92892 0.29699 0.0
H745 H 0.77961 0.86911 0.29244 0.0
H746 H 0.89434 0.89636 0.25138 0.0
H747 H 0.80335 0.83704 0.24562 0.0
H748 H 0.86534 0.77018 0.17665 0.0
H749 H 0.84552 0.79769 0.22789 0.0
H750 H 0.88651 0.89204 0.19242 0.0
H751 H 0.90688 0.86386 0.14166 0.0
C752 C 0.85547 0.90866 0.28622 0.0
C753 C 0.82291 0.90168 0.29803 0.0
C754 C 0.86923 0.89016 0.2599 0.0
C755 C 0.85062 0.86446 0.24441 0.0
C756 C 0.81849 0.85653 0.25713 0.0
C757 C 0.80482 0.87489 0.28388 0.0
C758 C 0.87001 0.7968 0.18006 0.0
C759 C 0.88713 0.81521 0.15533 0.0
C760 C 0.85863 0.81257 0.20925 0.0
C761 C 0.86417 0.84713 0.21422 0.0
C762 C 0.88217 0.86529 0.18967 0.0
C763 C 0.89376 0.84936 0.16059 0.0
H764 H 0.30738 0.61722 0.54649 0.0
H765 H 0.36593 0.5259 0.54151 0.0
H766 H 0.33818 0.63994 0.49898 0.0
H767 H 0.39605 0.54806 0.49275 0.0
H768 H 0.46138 0.6085 0.4204 0.0
H769 H 0.4351 0.5885 0.47228 0.0
H770 H 0.34063 0.63201 0.44037 0.0
H771 H 0.36778 0.65291 0.38927 0.0
C772 C 0.32696 0.60201 0.53519 0.0
C773 C 0.33416 0.56971 0.54753 0.0
C774 C 0.34443 0.61492 0.50774 0.0
C775 C 0.36922 0.59566 0.49157 0.0
C776 C 0.37728 0.56373 0.50471 0.0
C777 C 0.36003 0.55096 0.5326 0.0
C778 C 0.43501 0.61366 0.42481 0.0
C779 C 0.41629 0.63182 0.4011 0.0
C780 C 0.4199 0.60213 0.4543 0.0
C781 C 0.38569 0.6085 0.46055 0.0
C782 C 0.36715 0.62707 0.43672 0.0
C783 C 0.38244 0.63887 0.40739 0.0
H784 H 0.20234 0.12477 0.43347 0.0
H785 H 0.21617 0.21873 0.3808 0.0
H786 H 0.25159 0.10143 0.40518 0.0
H787 H 0.26604 0.1954 0.35285 0.0
H788 H 0.37643 0.15173 0.35366 0.0
H789 H 0.32513 0.17387 0.37941 0.0
H790 H 0.26949 0.08857 0.34178 0.0
H791 H 0.32052 0.06736 0.31448 0.0
C792 C 0.21581 0.1403 0.41559 0.0
C793 C 0.20555 0.1735 0.40917 0.0
C794 C 0.24385 0.12692 0.39944 0.0
C795 C 0.26251 0.14675 0.37712 0.0
C796 C 0.252 0.17979 0.37018 0.0
C797 C 0.22343 0.19298 0.38586 0.0
C798 C 0.35314 0.13806 0.35046 0.0
C799 C 0.3521 0.10844 0.33125 0.0
C800 C 0.32392 0.15062 0.36524 0.0
C801 C 0.29343 0.13319 0.36188 0.0
C802 C 0.29275 0.10254 0.3444 0.0
C803 C 0.32187 0.09032 0.32907 0.0
H804 H 0.16399 0.05611 0.54987 0.0
H805 H 0.11313 0.12325 0.61792 0.0
H806 H 0.13998 0.00751 0.57952 0.0
H807 H 0.08902 0.075 0.64771 0.0
H808 H 0.08307 0.97955 0.71171 0.0
H809 H 0.10977 0.02617 0.68271 0.0
H810 H 0.07974 0.98414 0.58726 0.0
H811 H 0.05269 0.93697 0.6164 0.0
C812 C 0.14813 0.06024 0.5716 0.0
C813 C 0.14031 0.09303 0.58193 0.0
C814 C 0.13411 0.03266 0.58821 0.0
C815 C 0.11249 0.03761 0.61567 0.0
C816 C 0.10572 0.07052 0.62668 0.0
C817 C 0.11943 0.09802 0.60982 0.0
C818 C 0.08209 0.98012 0.68451 0.0
C819 C 0.06574 0.95457 0.66628 0.0
C820 C 0.09732 0.00692 0.66798 0.0
C821 C 0.09681 0.00867 0.63284 0.0
C822 C 0.08069 0.98312 0.61443 0.0
C823 C 0.06505 0.95633 0.63106 0.0
H824 H 0.1658 0.86875 0.78515 0.0
H825 H 0.13286 0.91131 0.87902 0.0
H826 H 0.21471 0.84465 0.81247 0.0
H827 H 0.18363 0.88982 0.90648 0.0
H828 H 0.24864 0.80948 0.95405 0.0
H829 H 0.20304 0.838 0.92531 0.0
H830 H 0.26649 0.85043 0.83781 0.0
H831 H 0.31143 0.81978 0.86625 0.0
C832 C 0.16939 0.87311 0.81174 0.0
C833 C 0.14511 0.89054 0.83044 0.0
C834 C 0.19775 0.85985 0.82736 0.0
C835 C 0.20295 0.86461 0.86195 0.0
C836 C 0.17991 0.88464 0.88004 0.0
C837 C 0.15111 0.89739 0.86439 0.0
C838 C 0.25262 0.81803 0.92852 0.0
C839 C 0.28334 0.81227 0.91219 0.0
C840 C 0.22666 0.83487 0.91217 0.0
C841 C 0.23106 0.84707 0.87931 0.0
C842 C 0.26193 0.84107 0.86293 0.0
C843 C 0.28771 0.82348 0.87911 0.0
H844 H 0.41335 0.00316 0.2047 0.0
H845 H 0.42729 0.05366 0.10967 0.0
H846 H 0.38589 0.9566 0.1763 0.0
H847 H 0.39809 0.00781 0.08118 0.0
H848 H 0.38292 0.90236 0.03822 0.0
H849 H 0.40594 0.95216 0.06507 0.0
H850 H 0.33707 0.93856 0.14819 0.0
H851 H 0.3158 0.887 0.12173 0.0
C852 C 0.41025 0.00439 0.17768 0.0
C853 C 0.42265 0.03188 0.15931 0.0
C854 C 0.39412 0.97785 0.16141 0.0
C855 C 0.38952 0.97841 0.12642 0.0
C856 C 0.40165 0.00621 0.10809 0.0
C857 C 0.41834 0.03253 0.12436 0.0
C858 C 0.37302 0.90999 0.0624 0.0
C859 C 0.3486 0.89041 0.07868 0.0
C860 C 0.38579 0.93882 0.07759 0.0
C861 C 0.3737 0.94931 0.10906 0.0
C862 C 0.34762 0.93074 0.12436 0.0
C863 C 0.33518 0.90147 0.10924 0.0
H864 H 0.83337 0.40174 0.62965 0.0
H865 H 0.81211 0.34155 0.71696 0.0
H866 H 0.78124 0.3823 0.60342 0.0
H867 H 0.75921 0.32272 0.69168 0.0
H868 H 0.69024 0.26639 0.61552 0.0
H869 H 0.73804 0.28751 0.64796 0.0
H870 H 0.72222 0.38678 0.60644 0.0
H871 H 0.67575 0.36521 0.5731 0.0
C872 C 0.81721 0.38448 0.64317 0.0
C873 C 0.82666 0.37257 0.67482 0.0
C874 C 0.78727 0.37352 0.62845 0.0
C875 C 0.76589 0.35093 0.64549 0.0
C876 C 0.77525 0.33963 0.67761 0.0
C877 C 0.80537 0.35039 0.69212 0.0
C878 C 0.69668 0.29282 0.61397 0.0
C879 C 0.67966 0.31412 0.59163 0.0
C880 C 0.72405 0.30499 0.63249 0.0
C881 C 0.73446 0.33875 0.62927 0.0
C882 C 0.71564 0.36044 0.60874 0.0
C883 C 0.68877 0.34819 0.58991 0.0
H884 H 0.96626 0.44543 0.86568 0.0
H885 H 0.87019 0.43511 0.81605 0.0
H886 H 0.94499 0.49475 0.89614 0.0
H887 H 0.84879 0.48362 0.84728 0.0
H888 H 0.82353 0.55293 0.94316 0.0
H889 H 0.84237 0.50065 0.91628 0.0
H890 H 0.92094 0.55531 0.86534 0.0
H891 H 0.90081 0.60775 0.89029 0.0
C892 C 0.94046 0.45324 0.86188 0.0
C893 C 0.91988 0.43667 0.83847 0.0
C894 C 0.92841 0.48144 0.8791 0.0
C895 C 0.8954 0.49278 0.87377 0.0
C896 C 0.8743 0.47516 0.85174 0.0
C897 C 0.88656 0.44755 0.83392 0.0
C898 C 0.84457 0.55376 0.92592 0.0
C899 C 0.86141 0.58422 0.91965 0.0
C900 C 0.85544 0.52393 0.91083 0.0
C901 C 0.88354 0.52411 0.88957 0.0
C902 C 0.89976 0.5546 0.88245 0.0
C903 C 0.88843 0.58449 0.89693 0.0
H904 H 0.80391 0.62371 0.07186 0.0
H905 H 0.78558 0.72366 0.11017 0.0
H906 H 0.75479 0.60286 0.10246 0.0
H907 H 0.73613 0.70285 0.14045 0.0
H908 H 0.62683 0.65653 0.1406 0.0
H909 H 0.67903 0.67663 0.11517 0.0
H910 H 0.73412 0.59837 0.16622 0.0
H911 H 0.68202 0.57935 0.19314 0.0
C912 C 0.78961 0.64107 0.08724 0.0
C913 C 0.79854 0.67521 0.08897 0.0
C914 C 0.76165 0.62914 0.10471 0.0
C915 C 0.74179 0.65135 0.12356 0.0
C916 C 0.75113 0.68535 0.12592 0.0
C917 C 0.77953 0.69715 0.10897 0.0
C918 C 0.65016 0.64417 0.14702 0.0
C919 C 0.65063 0.61714 0.1697 0.0
C920 C 0.67992 0.6555 0.13233 0.0
C921 C 0.71049 0.63935 0.13932 0.0
C922 C 0.7108 0.61132 0.16071 0.0
C923 C 0.6811 0.60038 0.17589 0.0
H924 H 0.59013 0.43015 0.46841 0.0
H925 H 0.66686 0.41548 0.39337 0.0
H926 H 0.56928 0.47897 0.43819 0.0
H927 H 0.64829 0.46631 0.36454 0.0
H928 H 0.57828 0.52323 0.29589 0.0
H929 H 0.60286 0.47961 0.33015 0.0
H930 H 0.57563 0.53473 0.41988 0.0
H931 H 0.54919 0.57802 0.38502 0.0
C932 C 0.60244 0.43736 0.44531 0.0
C933 C 0.62887 0.41802 0.43211 0.0
C934 C 0.59103 0.46589 0.42838 0.0
C935 C 0.60653 0.47622 0.39839 0.0
C936 C 0.63493 0.45843 0.38689 0.0
C937 C 0.64586 0.42952 0.40351 0.0
C938 C 0.57756 0.52616 0.32295 0.0
C939 C 0.56187 0.55408 0.33781 0.0
C940 C 0.59204 0.50123 0.34267 0.0
C941 C 0.59178 0.50376 0.37787 0.0
C942 C 0.57608 0.5318 0.39285 0.0
C943 C 0.56101 0.55665 0.37296 0.0
H944 H 0.35669 0.32849 0.07941 0.0
H945 H 0.26378 0.30181 0.12818 0.0
H946 H 0.38229 0.2763 0.09948 0.0
H947 H 0.28886 0.24932 0.14815 0.0
H948 H 0.36429 0.18673 0.21385 0.0
H949 H 0.33109 0.23225 0.18901 0.0
H950 H 0.38079 0.21622 0.09373 0.0
H951 H 0.41445 0.17184 0.11879 0.0
C952 C 0.34177 0.31109 0.0941 0.0
C953 C 0.30873 0.31917 0.10296 0.0
C954 C 0.3562 0.28122 0.10551 0.0
C955 C 0.33759 0.25874 0.12561 0.0
C956 C 0.30401 0.26639 0.1333 0.0
C957 C 0.28969 0.29633 0.12197 0.0
C958 C 0.36749 0.1926 0.18747 0.0
C959 C 0.39217 0.17628 0.16833 0.0
C960 C 0.34854 0.21859 0.1732 0.0
C961 C 0.35384 0.22824 0.13954 0.0
C962 C 0.37679 0.21003 0.11993 0.0
C963 C 0.39589 0.18448 0.13422 0.0
H964 H 0.9298 0.27942 0.85553 0.0
H965 H 0.861 0.2889 0.77206 0.0
H966 H 0.89888 0.23072 0.87567 0.0
H967 H 0.83072 0.23918 0.79144 0.0
H968 H 0.76723 0.16441 0.84974 0.0
H969 H 0.79504 0.21683 0.83387 0.0
H970 H 0.89103 0.17349 0.8611 0.0
H971 H 0.86255 0.12152 0.87784 0.0
C972 C 0.90801 0.27107 0.84147 0.0
C973 C 0.89791 0.28785 0.8121 0.0
C974 C 0.89043 0.24296 0.85289 0.0
C975 C 0.86255 0.2307 0.83499 0.0
C976 C 0.85188 0.2481 0.80607 0.0
C977 C 0.86928 0.27653 0.79485 0.0
C978 C 0.79429 0.16629 0.85213 0.0
C979 C 0.81301 0.13908 0.86444 0.0
C980 C 0.81024 0.19619 0.84302 0.0
C981 C 0.84533 0.19937 0.84594 0.0
C982 C 0.86393 0.17214 0.85892 0.0
C983 C 0.84782 0.14235 0.86835 0.0
H984 H 0.06145 0.54578 0.16648 0.0
H985 H 0.11613 0.5948 0.08671 0.0
H986 H 0.00938 0.57278 0.14727 0.0
H987 H 0.0639 0.61996 0.06631 0.0
H988 H 0.95505 0.62021 0.02108 0.0
H989 H 0.00417 0.59014 0.04325 0.0
H990 H 0.99169 0.63996 0.13877 0.0
H991 H 0.94331 0.67068 0.11651 0.0
C992 C 0.06228 0.5623 0.14488 0.0
C993 C 0.09254 0.5674 0.1274 0.0
C994 C 0.0326 0.57744 0.1338 0.0
C995 C 0.03277 0.59757 0.10489 0.0
C996 C 0.06317 0.60369 0.08813 0.0
C997 C 0.09291 0.58915 0.09963 0.0
C998 C 0.9625 0.62424 0.04694 0.0
C999 C 0.94562 0.64776 0.0671 0.0
C1000 C 0.9906 0.60729 0.05949 0.0
C1001 C 0.00153 0.61305 0.09255 0.0
C1002 C 0.98356 0.63517 0.11323 0.0
C1003 C 0.95603 0.65269 0.10048 0.0
H1004 H 0.7009 0.81031 0.40165 0.0
H1005 H 0.63338 0.87493 0.34698 0.0
H1006 H 0.67089 0.76061 0.38034 0.0
H1007 H 0.60309 0.82549 0.32578 0.0
H1008 H 0.53629 0.73087 0.33231 0.0
H1009 H 0.56767 0.77873 0.35382 0.0
H1010 H 0.66044 0.73325 0.32065 0.0
H1011 H 0.62887 0.68497 0.29849 0.0
C1012 C 0.67941 0.81368 0.38529 0.0
C1013 C 0.6692 0.8461 0.37583 0.0
C1014 C 0.66255 0.78544 0.37288 0.0
C1015 C 0.63485 0.78933 0.35136 0.0
C1016 C 0.62434 0.82187 0.34242 0.0
C1017 C 0.64154 0.85004 0.35442 0.0
C1018 C 0.5634 0.73088 0.32961 0.0
C1019 C 0.58014 0.70409 0.31369 0.0
C1020 C 0.58128 0.75841 0.3418 0.0
C1021 C 0.61636 0.75964 0.33877 0.0
C1022 C 0.63334 0.73271 0.32338 0.0
C1023 C 0.61532 0.70523 0.31065 0.0
H1024 H 0.55234 0.37982 0.54434 0.0
H1025 H 0.50593 0.28507 0.57074 0.0
H1026 H 0.50396 0.40981 0.56801 0.0
H1027 H 0.45792 0.31497 0.59409 0.0
H1028 H 0.36241 0.38187 0.59512 0.0
H1029 H 0.4109 0.35202 0.57143 0.0
H1030 H 0.47787 0.41704 0.62705 0.0
H1031 H 0.42917 0.44676 0.65059 0.0
C1032 C 0.53182 0.36545 0.55504 0.0
C1033 C 0.53293 0.33014 0.55572 0.0
C1034 C 0.50431 0.38257 0.56873 0.0
C1035 C 0.4773 0.36462 0.58284 0.0
C1036 C 0.4783 0.32937 0.58315 0.0
C1037 C 0.50589 0.31232 0.56992 0.0
C1038 C 0.38756 0.38952 0.60224 0.0
C1039 C 0.39236 0.41645 0.62447 0.0
C1040 C 0.41519 0.37252 0.58885 0.0
C1041 C 0.44806 0.38245 0.59728 0.0
C1042 C 0.45279 0.40919 0.61987 0.0
C1043 C 0.4251 0.42588 0.63358 0.0
H1044 H 0.13967 0.63825 0.65423 0.0
H1045 H 0.20134 0.69478 0.5853 0.0
H1046 H 0.11867 0.69063 0.67854 0.0
H1047 H 0.17932 0.74744 0.60873 0.0
H1048 H 0.08788 0.82137 0.63312 0.0
H1049 H 0.12003 0.77413 0.6107 0.0
H1050 H 0.14311 0.74195 0.71171 0.0
H1051 H 0.11102 0.7896 0.73416 0.0
C1052 C 0.14899 0.66191 0.64461 0.0
C1053 C 0.17266 0.66261 0.6185 0.0
C1054 C 0.13702 0.69182 0.65846 0.0
C1055 C 0.14798 0.72295 0.64591 0.0
C1056 C 0.17077 0.72369 0.61899 0.0
C1057 C 0.18309 0.69372 0.60545 0.0
C1058 C 0.10068 0.80471 0.65045 0.0
C1059 C 0.09725 0.80902 0.68528 0.0
C1060 C 0.11906 0.77779 0.63766 0.0
C1061 C 0.13372 0.75438 0.65953 0.0
C1062 C 0.13181 0.75968 0.69441 0.0
C1063 C 0.11387 0.78706 0.70724 0.0
H1064 H 0.44852 0.86318 0.98029 0.0
H1065 H 0.40317 0.85118 0.88257 0.0
H1066 H 0.49469 0.89533 0.9548 0.0
H1067 H 0.44869 0.88358 0.85719 0.0
H1068 H 0.53274 0.95809 0.82701 0.0
H1069 H 0.48109 0.9398 0.85546 0.0
H1070 H 0.53886 0.86906 0.91409 0.0
H1071 H 0.58997 0.88651 0.88481 0.0
C1072 C 0.44773 0.86877 0.95366 0.0
C1073 C 0.42256 0.85497 0.93325 0.0
C1074 C 0.4742 0.88674 0.93904 0.0
C1075 C 0.47532 0.89147 0.90402 0.0
C1076 C 0.44834 0.88039 0.88422 0.0
C1077 C 0.42232 0.86197 0.89871 0.0
C1078 C 0.53414 0.93839 0.84573 0.0
C1079 C 0.56524 0.92402 0.85422 0.0
C1080 C 0.50481 0.92824 0.8622 0.0
C1081 C 0.50626 0.90374 0.88756 0.0
C1082 C 0.53727 0.88881 0.89541 0.0
C1083 C 0.56643 0.89863 0.87863 0.0
H1084 H 0.90893 0.10972 0.33565 0.0
H1085 H 0.93498 0.01568 0.38259 0.0
H1086 H 0.96107 0.13475 0.35654 0.0
H1087 H 0.98748 0.04018 0.40329 0.0
H1088 H 0.05101 0.1135 0.4703 0.0
H1089 H 0.00493 0.08141 0.44495 0.0
H1090 H 0.02099 0.13316 0.35079 0.0
H1091 H 0.06589 0.16576 0.37638 0.0
C1092 C 0.92618 0.09443 0.35012 0.0
C1093 C 0.91795 0.06122 0.3582 0.0
C1094 C 0.95603 0.10854 0.36198 0.0
C1095 C 0.97836 0.08943 0.38176 0.0
C1096 C 0.97054 0.05571 0.38871 0.0
C1097 C 0.9406 0.04172 0.37694 0.0
C1098 C 0.04496 0.11744 0.44406 0.0
C1099 C 0.06149 0.14235 0.4254 0.0
C1100 C 0.01867 0.09911 0.4295 0.0
C1101 C 0.00893 0.10525 0.39602 0.0
C1102 C 0.02725 0.12853 0.37687 0.0
C1103 C 0.05308 0.14703 0.39147 0.0
loop_
_geom_bond_atom_site_label_1
_geom_bond_atom_site_label_2
_geom_bond_distance
_geom_bond_site_symmetry_2
_ccdc_geom_bond_type
Zn0 O1 2.055 . S
Zn0 O8 2.046 . S
Zn0 N16 2.036 . S
Zn0 O28 2.053 . S
Zn0 O30 2.066 . S
O1 Zn0 2.055 . S
O1 C4 1.259 . S
C2 O30 1.256 . S
C2 O31 1.244 . S
Zn3 O5 2.046 . S
Zn3 O7 2.055 . S
Zn3 N9 2.036 . S
Zn3 O27 2.066 . S
Zn3 O31 2.053 . S
C4 O1 1.259 . S
C4 O5 1.254 . S
O5 Zn3 2.046 . S
O5 C4 1.254 . S
C6 O27 1.256 . S
C6 O28 1.244 . S
O7 Zn3 2.055 . S
O7 C29 1.259 . S
O8 Zn0 2.046 . S
O8 C29 1.254 . S
N9 Zn3 2.036 . S
N9 C10 1.298 . S
N9 N12 1.398 . S
C10 N9 1.298 . S
C10 N13 1.367 . S
C10 C23 1.481 . S
C11 N12 1.299 . S
C11 N13 1.379 . S
N12 N9 1.398 . S
N12 C11 1.299 . S
N13 C10 1.367 . S
N13 C11 1.379 . S
C14 N16 1.298 . S
C14 N18 1.367 . S
C14 C22 1.481 . S
C15 N17 1.299 . S
C15 N18 1.379 . S
N16 Zn0 2.036 . S
N16 C14 1.298 . S
N16 N17 1.398 . S
N17 C15 1.299 . S
N17 N16 1.398 . S
N18 C14 1.367 . S
N18 C15 1.379 . S
H19 C22 0.980 . S
H20 C22 0.981 . S
H21 C22 0.981 . S
C22 C14 1.481 . S
C22 H19 0.980 . S
C22 H20 0.981 . S
C22 H21 0.981 . S
C23 C10 1.481 . S
C23 H24 0.980 . S
C23 H25 0.981 . S
C23 H26 0.981 . S
H24 C23 0.980 . S
H25 C23 0.981 . S
H26 C23 0.981 . S
O27 Zn3 2.066 . S
O27 C6 1.256 . S
O28 Zn0 2.053 . S
O28 C6 1.244 . S
C29 O7 1.259 . S
C29 O8 1.254 . S
O30 Zn0 2.066 . S
O30 C2 1.256 . S
O31 C2 1.244 . S
O31 Zn3 2.053 . S
Zn32 O33 2.055 . S
Zn32 O40 2.046 . S
Zn32 N48 2.036 . S
Zn32 O60 2.053 1_655 S
Zn32 O62 2.066 1_655 S
O33 Zn32 2.055 . S
O33 C36 1.259 . S
C34 O62 1.256 . S
C34 O63 1.244 . S
Zn35 O37 2.046 . S
Zn35 O39 2.055 . S
Zn35 N41 2.036 . S
Zn35 O59 2.066 . S
Zn35 O63 2.053 . S
C36 O33 1.259 . S
C36 O37 1.254 1_655 S
O37 Zn35 2.046 . S
O37 C36 1.254 1_455 S
C38 O59 1.256 . S
C38 O60 1.244 . S
O39 Zn35 2.055 . S
O39 C61 1.259 1_455 S
O40 Zn32 2.046 . S
O40 C61 1.254 . S
N41 Zn35 2.036 . S
N41 C42 1.298 . S
N41 N44 1.398 . S
C42 N41 1.298 . S
C42 N45 1.367 . S
C42 C55 1.481 . S
C43 N44 1.299 . S
C43 N45 1.379 . S
N44 N41 1.398 . S
N44 C43 1.299 . S
N45 C42 1.367 . S
N45 C43 1.379 . S
C46 N48 1.298 . S
C46 N50 1.367 . S
C46 C54 1.481 . S
C47 N49 1.299 . S
C47 N50 1.379 . S
N48 Zn32 2.036 . S
N48 C46 1.298 . S
N48 N49 1.398 . S
N49 C47 1.299 . S
N49 N48 1.398 . S
N50 C46 1.367 . S
N50 C47 1.379 . S
H51 C54 0.980 . S
H52 C54 0.981 . S
H53 C54 0.981 . S
C54 C46 1.481 . S
C54 H51 0.980 . S
C54 H52 0.981 . S
C54 H53 0.981 . S
C55 C42 1.481 . S
C55 H56 0.980 . S
C55 H57 0.981 . S
C55 H58 0.981 . S
H56 C55 0.980 . S
H57 C55 0.981 . S
H58 C55 0.981 . S
O59 Zn35 2.066 . S
O59 C38 1.256 . S
O60 Zn32 2.053 1_455 S
O60 C38 1.244 . S
C61 O39 1.259 1_655 S
C61 O40 1.254 . S
O62 Zn32 2.066 1_455 S
O62 C34 1.256 . S
O63 C34 1.244 . S
O63 Zn35 2.053 . S
Zn64 O65 2.055 . S
Zn64 O72 2.046 . S
Zn64 N80 2.036 . S
Zn64 O92 2.053 1_554 S
Zn64 O94 2.066 1_554 S
O65 Zn64 2.055 . S
O65 C68 1.259 . S
C66 O94 1.256 . S
C66 O95 1.244 . S
Zn67 O69 2.046 . S
Zn67 O71 2.055 . S
Zn67 N73 2.036 . S
Zn67 O91 2.066 . S
Zn67 O95 2.053 . S
C68 O65 1.259 . S
C68 O69 1.254 1_554 S
O69 Zn67 2.046 . S
O69 C68 1.254 1_556 S
C70 O91 1.256 . S
C70 O92 1.244 . S
O71 Zn67 2.055 . S
O71 C93 1.259 1_556 S
O72 Zn64 2.046 . S
O72 C93 1.254 . S
N73 Zn67 2.036 . S
N73 C74 1.298 . S
N73 N76 1.398 . S
C74 N73 1.298 . S
C74 N77 1.367 . S
C74 C87 1.481 . S
C75 N76 1.299 . S
C75 N77 1.379 . S
N76 N73 1.398 . S
N76 C75 1.299 . S
N77 C74 1.367 . S
N77 C75 1.379 . S
C78 N80 1.298 . S
C78 N82 1.367 . S
C78 C86 1.481 . S
C79 N81 1.299 . S
C79 N82 1.379 . S
N80 Zn64 2.036 . S
N80 C78 1.298 . S
N80 N81 1.398 . S
N81 C79 1.299 . S
N81 N80 1.398 . S
N82 C78 1.367 . S
N82 C79 1.379 . S
H83 C86 0.980 . S
H84 C86 0.981 . S
H85 C86 0.981 . S
C86 C78 1.481 . S
C86 H83 0.980 . S
C86 H84 0.981 . S
C86 H85 0.981 . S
C87 C74 1.481 . S
C87 H88 0.980 . S
C87 H89 0.981 . S
C87 H90 0.981 . S
H88 C87 0.980 . S
H89 C87 0.981 . S
H90 C87 0.981 . S
O91 Zn67 2.066 . S
O91 C70 1.256 . S
O92 Zn64 2.053 1_556 S
O92 C70 1.244 . S
C93 O71 1.259 1_554 S
C93 O72 1.254 . S
O94 Zn64 2.066 1_556 S
O94 C66 1.256 . S
O95 C66 1.244 . S
O95 Zn67 2.053 . S
Zn96 O97 2.055 . S
Zn96 O104 2.046 . S
Zn96 N112 2.036 . S
Zn96 O124 2.053 . S
Zn96 O126 2.066 . S
O97 Zn96 2.055 . S
O97 C100 1.259 . S
C98 O126 1.256 . S
C98 O127 1.244 . S
Zn99 O101 2.046 . S
Zn99 O103 2.055 . S
Zn99 N105 2.036 . S
Zn99 O123 2.066 . S
Zn99 O127 2.053 . S
C100 O97 1.259 . S
C100 O101 1.254 . S
O101 Zn99 2.046 . S
O101 C100 1.254 . S
C102 O123 1.256 . S
C102 O124 1.244 . S
O103 Zn99 2.055 . S
O103 C125 1.259 . S
O104 Zn96 2.046 . S
O104 C125 1.254 . S
N105 Zn99 2.036 . S
N105 C106 1.298 . S
N105 N108 1.398 . S
C106 N105 1.298 . S
C106 N109 1.367 . S
C106 C119 1.481 . S
C107 N108 1.299 . S
C107 N109 1.379 . S
N108 N105 1.398 . S
N108 C107 1.299 . S
N109 C106 1.367 . S
N109 C107 1.379 . S
C110 N112 1.298 . S
C110 N114 1.367 . S
C110 C118 1.481 . S
C111 N113 1.299 . S
C111 N114 1.379 . S
N112 Zn96 2.036 . S
N112 C110 1.298 . S
N112 N113 1.398 . S
N113 C111 1.299 . S
N113 N112 1.398 . S
N114 C110 1.367 . S
N114 C111 1.379 . S
H115 C118 0.980 . S
H116 C118 0.981 . S
H117 C118 0.981 . S
C118 C110 1.481 . S
C118 H115 0.980 . S
C118 H116 0.981 . S
C118 H117 0.981 . S
C119 C106 1.481 . S
C119 H120 0.980 . S
C119 H121 0.981 . S
C119 H122 0.981 . S
H120 C119 0.980 . S
H121 C119 0.981 . S
H122 C119 0.981 . S
O123 Zn99 2.066 . S
O123 C102 1.256 . S
O124 Zn96 2.053 . S
O124 C102 1.244 . S
C125 O103 1.259 . S
C125 O104 1.254 . S
O126 Zn96 2.066 . S
O126 C98 1.256 . S
O127 C98 1.244 . S
O127 Zn99 2.053 . S
Zn128 O129 2.055 . S
Zn128 O136 2.046 . S
Zn128 N144 2.036 . S
Zn128 O156 2.053 . S
Zn128 O158 2.066 . S
O129 Zn128 2.055 . S
O129 C132 1.259 . S
C130 O158 1.256 . S
C130 O159 1.244 . S
Zn131 O133 2.046 . S
Zn131 O135 2.055 . S
Zn131 N137 2.036 . S
Zn131 O155 2.066 . S
Zn131 O159 2.053 . S
C132 O129 1.259 . S
C132 O133 1.254 . S
O133 Zn131 2.046 . S
O133 C132 1.254 . S
C134 O155 1.256 . S
C134 O156 1.244 . S
O135 Zn131 2.055 . S
O135 C157 1.259 . S
O136 Zn128 2.046 . S
O136 C157 1.254 . S
N137 Zn131 2.036 . S
N137 C138 1.298 . S
N137 N140 1.398 . S
C138 N137 1.298 . S
C138 N141 1.367 . S
C138 C151 1.481 . S
C139 N140 1.299 . S
C139 N141 1.379 . S
N140 N137 1.398 . S
N140 C139 1.299 . S
N141 C138 1.367 . S
N141 C139 1.379 . S
C142 N144 1.298 . S
C142 N146 1.367 . S
C142 C150 1.481 . S
C143 N145 1.299 . S
C143 N146 1.379 . S
N144 Zn128 2.036 . S
N144 C142 1.298 . S
N144 N145 1.398 . S
N145 C143 1.299 . S
N145 N144 1.398 . S
N146 C142 1.367 . S
N146 C143 1.379 . S
H147 C150 0.980 . S
H148 C150 0.981 . S
H149 C150 0.981 . S
C150 C142 1.481 . S
C150 H147 0.980 . S
C150 H148 0.981 . S
C150 H149 0.981 . S
C151 C138 1.481 . S
C151 H152 0.980 . S
C151 H153 0.981 . S
C151 H154 0.981 . S
H152 C151 0.980 . S
H153 C151 0.981 . S
H154 C151 0.981 . S
O155 Zn131 2.066 . S
O155 C134 1.256 . S
O156 Zn128 2.053 . S
O156 C134 1.244 . S
C157 O135 1.259 . S
C157 O136 1.254 . S
O158 Zn128 2.066 . S
O158 C130 1.256 . S
O159 C130 1.244 . S
O159 Zn131 2.053 . S
Zn160 O161 2.055 . S
Zn160 O168 2.046 . S
Zn160 N176 2.036 . S
Zn160 O188 2.053 . S
Zn160 O190 2.066 . S
O161 Zn160 2.055 . S
O161 C164 1.259 1_655 S
C162 O190 1.256 . S
C162 O191 1.244 . S
Zn163 O165 2.046 . S
Zn163 O167 2.055 . S
Zn163 N169 2.036 . S
Zn163 O187 2.066 1_455 S
Zn163 O191 2.053 1_455 S
C164 O161 1.259 1_455 S
C164 O165 1.254 . S
O165 Zn163 2.046 . S
O165 C164 1.254 . S
C166 O187 1.256 . S
C166 O188 1.244 . S
O167 Zn163 2.055 . S
O167 C189 1.259 . S
O168 Zn160 2.046 . S
O168 C189 1.254 1_655 S
N169 Zn163 2.036 . S
N169 C170 1.298 . S
N169 N172 1.398 . S
C170 N169 1.298 . S
C170 N173 1.367 . S
C170 C183 1.481 . S
C171 N172 1.299 . S
C171 N173 1.379 . S
N172 N169 1.398 . S
N172 C171 1.299 . S
N173 C170 1.367 . S
N173 C171 1.379 . S
C174 N176 1.298 . S
C174 N178 1.367 . S
C174 C182 1.481 . S
C175 N177 1.299 . S
C175 N178 1.379 . S
N176 Zn160 2.036 . S
N176 C174 1.298 . S
N176 N177 1.398 . S
N177 C175 1.299 . S
N177 N176 1.398 . S
N178 C174 1.367 . S
N178 C175 1.379 . S
H179 C182 0.980 . S
H180 C182 0.981 . S
H181 C182 0.981 . S
C182 C174 1.481 . S
C182 H179 0.980 . S
C182 H180 0.981 . S
C182 H181 0.981 . S
C183 C170 1.481 . S
C183 H184 0.980 . S
C183 H185 0.981 . S
C183 H186 0.981 . S
H184 C183 0.980 . S
H185 C183 0.981 . S
H186 C183 0.981 . S
O187 Zn163 2.066 1_655 S
O187 C166 1.256 . S
O188 Zn160 2.053 . S
O188 C166 1.244 . S
C189 O167 1.259 . S
C189 O168 1.254 1_455 S
O190 Zn160 2.066 . S
O190 C162 1.256 . S
O191 C162 1.244 . S
O191 Zn163 2.053 1_655 S
Zn192 O193 2.055 . S
Zn192 O200 2.046 . S
Zn192 N208 2.036 . S
Zn192 O220 2.053 . S
Zn192 O222 2.066 . S
O193 Zn192 2.055 . S
O193 C196 1.259 1_554 S
C194 O222 1.256 . S
C194 O223 1.244 . S
Zn195 O197 2.046 . S
Zn195 O199 2.055 . S
Zn195 N201 2.036 . S
Zn195 O219 2.066 1_556 S
Zn195 O223 2.053 1_556 S
C196 O193 1.259 1_556 S
C196 O197 1.254 . S
O197 Zn195 2.046 . S
O197 C196 1.254 . S
C198 O219 1.256 . S
C198 O220 1.244 . S
O199 Zn195 2.055 . S
O199 C221 1.259 . S
O200 Zn192 2.046 . S
O200 C221 1.254 1_554 S
N201 Zn195 2.036 . S
N201 C202 1.298 . S
N201 N204 1.398 . S
C202 N201 1.298 . S
C202 N205 1.367 . S
C202 C215 1.481 . S
C203 N204 1.299 . S
C203 N205 1.379 . S
N204 N201 1.398 . S
N204 C203 1.299 . S
N205 C202 1.367 . S
N205 C203 1.379 . S
C206 N208 1.298 . S
C206 N210 1.367 . S
C206 C214 1.481 . S
C207 N209 1.299 . S
C207 N210 1.379 . S
N208 Zn192 2.036 . S
N208 C206 1.298 . S
N208 N209 1.398 . S
N209 C207 1.299 . S
N209 N208 1.398 . S
N210 C206 1.367 . S
N210 C207 1.379 . S
H211 C214 0.980 . S
H212 C214 0.981 . S
H213 C214 0.981 . S
C214 C206 1.481 . S
C214 H211 0.980 . S
C214 H212 0.981 . S
C214 H213 0.981 . S
C215 C202 1.481 . S
C215 H216 0.980 . S
C215 H217 0.981 . S
C215 H218 0.981 . S
H216 C215 0.980 . S
H217 C215 0.981 . S
H218 C215 0.981 . S
O219 Zn195 2.066 1_554 S
O219 C198 1.256 . S
O220 Zn192 2.053 . S
O220 C198 1.244 . S
C221 O199 1.259 . S
C221 O200 1.254 1_556 S
O222 Zn192 2.066 . S
O222 C194 1.256 . S
O223 C194 1.244 . S
O223 Zn195 2.053 1_554 S
Zn224 O225 2.055 . S
Zn224 O232 2.046 . S
Zn224 N240 2.036 . S
Zn224 O252 2.053 . S
Zn224 O254 2.066 . S
O225 Zn224 2.055 . S
O225 C228 1.259 . S
C226 O254 1.256 . S
C226 O255 1.244 . S
Zn227 O229 2.046 . S
Zn227 O231 2.055 . S
Zn227 N233 2.036 . S
Zn227 O251 2.066 . S
Zn227 O255 2.053 . S
C228 O225 1.259 . S
C228 O229 1.254 . S
O229 Zn227 2.046 . S
O229 C228 1.254 . S
C230 O251 1.256 . S
C230 O252 1.244 . S
O231 Zn227 2.055 . S
O231 C253 1.259 . S
O232 Zn224 2.046 . S
O232 C253 1.254 . S
N233 Zn227 2.036 . S
N233 C234 1.298 . S
N233 N236 1.398 . S
C234 N233 1.298 . S
C234 N237 1.367 . S
C234 C247 1.481 . S
C235 N236 1.299 . S
C235 N237 1.379 . S
N236 N233 1.398 . S
N236 C235 1.299 . S
N237 C234 1.367 . S
N237 C235 1.379 . S
C238 N240 1.298 . S
C238 N242 1.367 . S
C238 C246 1.481 . S
C239 N241 1.299 . S
C239 N242 1.379 . S
N240 Zn224 2.036 . S
N240 C238 1.298 . S
N240 N241 1.398 . S
N241 C239 1.299 . S
N241 N240 1.398 . S
N242 C238 1.367 . S
N242 C239 1.379 . S
H243 C246 0.980 . S
H244 C246 0.981 . S
H245 C246 0.981 . S
C246 C238 1.481 . S
C246 H243 0.980 . S
C246 H244 0.981 . S
C246 H245 0.981 . S
C247 C234 1.481 . S
C247 H248 0.980 . S
C247 H249 0.981 . S
C247 H250 0.981 . S
H248 C247 0.980 . S
H249 C247 0.981 . S
H250 C247 0.981 . S
O251 Zn227 2.066 . S
O251 C230 1.256 . S
O252 Zn224 2.053 . S
O252 C230 1.244 . S
C253 O231 1.259 . S
C253 O232 1.254 . S
O254 Zn224 2.066 . S
O254 C226 1.256 . S
O255 C226 1.244 . S
O255 Zn227 2.053 . S
Zn256 O257 2.055 . S
Zn256 O264 2.046 . S
Zn256 N272 2.036 . S
Zn256 O284 2.053 . S
Zn256 O286 2.066 . S
O257 Zn256 2.055 . S
O257 C260 1.259 . S
C258 O286 1.256 . S
C258 O287 1.244 . S
Zn259 O261 2.046 . S
Zn259 O263 2.055 . S
Zn259 N265 2.036 . S
Zn259 O283 2.066 . S
Zn259 O287 2.053 . S
C260 O257 1.259 . S
C260 O261 1.254 . S
O261 Zn259 2.046 . S
O261 C260 1.254 . S
C262 O283 1.256 . S
C262 O284 1.244 . S
O263 Zn259 2.055 . S
O263 C285 1.259 . S
O264 Zn256 2.046 . S
O264 C285 1.254 . S
N265 Zn259 2.036 . S
N265 C266 1.298 . S
N265 N268 1.398 . S
C266 N265 1.298 . S
C266 N269 1.367 . S
C266 C279 1.481 . S
C267 N268 1.299 . S
C267 N269 1.379 . S
N268 N265 1.398 . S
N268 C267 1.299 . S
N269 C266 1.367 . S
N269 C267 1.379 . S
C270 N272 1.298 . S
C270 N274 1.367 . S
C270 C278 1.481 . S
C271 N273 1.299 . S
C271 N274 1.379 . S
N272 Zn256 2.036 . S
N272 C270 1.298 . S
N272 N273 1.398 . S
N273 C271 1.299 . S
N273 N272 1.398 . S
N274 C270 1.367 . S
N274 C271 1.379 . S
H275 C278 0.980 . S
H276 C278 0.981 . S
H277 C278 0.981 . S
C278 C270 1.481 . S
C278 H275 0.980 . S
C278 H276 0.981 . S
C278 H277 0.981 . S
C279 C266 1.481 . S
C279 H280 0.980 . S
C279 H281 0.981 . S
C279 H282 0.981 . S
H280 C279 0.980 . S
H281 C279 0.981 . S
H282 C279 0.981 . S
O283 Zn259 2.066 . S
O283 C262 1.256 . S
O284 Zn256 2.053 . S
O284 C262 1.244 . S
C285 O263 1.259 . S
C285 O264 1.254 . S
O286 Zn256 2.066 . S
O286 C258 1.256 . S
O287 C258 1.244 . S
O287 Zn259 2.053 . S
Zn288 O289 2.055 . S
Zn288 O296 2.046 . S
Zn288 N304 2.036 . S
Zn288 O316 2.053 . S
Zn288 O318 2.066 . S
O289 Zn288 2.055 . S
O289 C292 1.259 1_545 S
C290 O318 1.256 . S
C290 O319 1.244 . S
Zn291 O293 2.046 . S
Zn291 O295 2.055 . S
Zn291 N297 2.036 . S
Zn291 O315 2.066 1_565 S
Zn291 O319 2.053 1_565 S
C292 O289 1.259 1_565 S
C292 O293 1.254 . S
O293 Zn291 2.046 . S
O293 C292 1.254 . S
C294 O315 1.256 . S
C294 O316 1.244 . S
O295 Zn291 2.055 . S
O295 C317 1.259 . S
O296 Zn288 2.046 . S
O296 C317 1.254 1_545 S
N297 Zn291 2.036 . S
N297 C298 1.298 . S
N297 N300 1.398 . S
C298 N297 1.298 . S
C298 N301 1.367 . S
C298 C311 1.481 . S
C299 N300 1.299 . S
C299 N301 1.379 . S
N300 N297 1.398 . S
N300 C299 1.299 . S
N301 C298 1.367 . S
N301 C299 1.379 . S
C302 N304 1.298 . S
C302 N306 1.367 . S
C302 C310 1.481 . S
C303 N305 1.299 . S
C303 N306 1.379 . S
N304 Zn288 2.036 . S
N304 C302 1.298 . S
N304 N305 1.398 . S
N305 C303 1.299 . S
N305 N304 1.398 . S
N306 C302 1.367 . S
N306 C303 1.379 . S
H307 C310 0.980 . S
H308 C310 0.981 . S
H309 C310 0.981 . S
C310 C302 1.481 . S
C310 H307 0.980 . S
C310 H308 0.981 . S
C310 H309 0.981 . S
C311 C298 1.481 . S
C311 H312 0.980 . S
C311 H313 0.981 . S
C311 H314 0.981 . S
H312 C311 0.980 . S
H313 C311 0.981 . S
H314 C311 0.981 . S
O315 Zn291 2.066 1_545 S
O315 C294 1.256 . S
O316 Zn288 2.053 . S
O316 C294 1.244 . S
C317 O295 1.259 . S
C317 O296 1.254 1_565 S
O318 Zn288 2.066 . S
O318 C290 1.256 . S
O319 C290 1.244 . S
O319 Zn291 2.053 1_545 S
Zn320 O321 2.055 . S
Zn320 O328 2.046 . S
Zn320 N336 2.036 . S
Zn320 O348 2.053 . S
Zn320 O350 2.066 . S
O321 Zn320 2.055 . S
O321 C324 1.259 1_565 S
C322 O350 1.256 . S
C322 O351 1.244 . S
Zn323 O325 2.046 . S
Zn323 O327 2.055 . S
Zn323 N329 2.036 . S
Zn323 O347 2.066 1_545 S
Zn323 O351 2.053 1_545 S
C324 O321 1.259 1_545 S
C324 O325 1.254 . S
O325 Zn323 2.046 . S
O325 C324 1.254 . S
C326 O347 1.256 . S
C326 O348 1.244 . S
O327 Zn323 2.055 . S
O327 C349 1.259 . S
O328 Zn320 2.046 . S
O328 C349 1.254 1_565 S
N329 Zn323 2.036 . S
N329 C330 1.298 . S
N329 N332 1.398 . S
C330 N329 1.298 . S
C330 N333 1.367 . S
C330 C343 1.481 . S
C331 N332 1.299 . S
C331 N333 1.379 . S
N332 N329 1.398 . S
N332 C331 1.299 . S
N333 C330 1.367 . S
N333 C331 1.379 . S
C334 N336 1.298 . S
C334 N338 1.367 . S
C334 C342 1.481 . S
C335 N337 1.299 . S
C335 N338 1.379 . S
N336 Zn320 2.036 . S
N336 C334 1.298 . S
N336 N337 1.398 . S
N337 C335 1.299 . S
N337 N336 1.398 . S
N338 C334 1.367 . S
N338 C335 1.379 . S
H339 C342 0.980 . S
H340 C342 0.981 . S
H341 C342 0.981 . S
C342 C334 1.481 . S
C342 H339 0.980 . S
C342 H340 0.981 . S
C342 H341 0.981 . S
C343 C330 1.481 . S
C343 H344 0.980 . S
C343 H345 0.981 . S
C343 H346 0.981 . S
H344 C343 0.980 . S
H345 C343 0.981 . S
H346 C343 0.981 . S
O347 Zn323 2.066 1_565 S
O347 C326 1.256 . S
O348 Zn320 2.053 . S
O348 C326 1.244 . S
C349 O327 1.259 . S
C349 O328 1.254 1_545 S
O350 Zn320 2.066 . S
O350 C322 1.256 . S
O351 C322 1.244 . S
O351 Zn323 2.053 1_565 S
Zn352 O353 2.055 . S
Zn352 O360 2.046 . S
Zn352 N368 2.036 . S
Zn352 O380 2.053 . S
Zn352 O382 2.066 . S
O353 Zn352 2.055 . S
O353 C356 1.259 . S
C354 O382 1.256 . S
C354 O383 1.244 . S
Zn355 O357 2.046 . S
Zn355 O359 2.055 . S
Zn355 N361 2.036 . S
Zn355 O379 2.066 . S
Zn355 O383 2.053 . S
C356 O353 1.259 . S
C356 O357 1.254 . S
O357 Zn355 2.046 . S
O357 C356 1.254 . S
C358 O379 1.256 . S
C358 O380 1.244 . S
O359 Zn355 2.055 . S
O359 C381 1.259 . S
O360 Zn352 2.046 . S
O360 C381 1.254 . S
N361 Zn355 2.036 . S
N361 C362 1.298 . S
N361 N364 1.398 . S
C362 N361 1.298 . S
C362 N365 1.367 . S
C362 C375 1.481 . S
C363 N364 1.299 . S
C363 N365 1.379 . S
N364 N361 1.398 . S
N364 C363 1.299 . S
N365 C362 1.367 . S
N365 C363 1.379 . S
C366 N368 1.298 . S
C366 N370 1.367 . S
C366 C374 1.481 . S
C367 N369 1.299 . S
C367 N370 1.379 . S
N368 Zn352 2.036 . S
N368 C366 1.298 . S
N368 N369 1.398 . S
N369 C367 1.299 . S
N369 N368 1.398 . S
N370 C366 1.367 . S
N370 C367 1.379 . S
H371 C374 0.980 . S
H372 C374 0.981 . S
H373 C374 0.981 . S
C374 C366 1.481 . S
C374 H371 0.980 . S
C374 H372 0.981 . S
C374 H373 0.981 . S
C375 C362 1.481 . S
C375 H376 0.980 . S
C375 H377 0.981 . S
C375 H378 0.981 . S
H376 C375 0.980 . S
H377 C375 0.981 . S
H378 C375 0.981 . S
O379 Zn355 2.066 . S
O379 C358 1.256 . S
O380 Zn352 2.053 . S
O380 C358 1.244 . S
C381 O359 1.259 . S
C381 O360 1.254 . S
O382 Zn352 2.066 . S
O382 C354 1.256 . S
O383 C354 1.244 . S
O383 Zn355 2.053 . S
H384 C392 0.950 . S
H385 C397 0.950 . S
H386 C394 0.950 . S
H387 C396 0.950 . S
H388 C398 0.950 . S
H389 C400 0.950 . S
H390 C402 0.950 . S
H391 C403 0.950 . S
C392 H384 0.950 . S
C392 C393 1.386 . S
C392 C394 1.391 . S
C393 C392 1.386 . S
C393 C397 1.393 . S
C394 H386 0.950 . S
C394 C392 1.391 . S
C394 C395 1.400 . S
C395 C394 1.400 . S
C395 C396 1.398 . S
C395 C401 1.491 . S
C396 H387 0.950 . S
C396 C395 1.398 . S
C396 C397 1.391 . S
C397 H385 0.950 . S
C397 C393 1.393 . S
C397 C396 1.391 . S
C398 H388 0.950 . S
C398 C399 1.386 . S
C398 C400 1.391 . S
C399 C398 1.386 . S
C399 C403 1.393 . S
C400 H389 0.950 . S
C400 C398 1.391 . S
C400 C401 1.400 . S
C401 C395 1.491 . S
C401 C400 1.400 . S
C401 C402 1.398 . S
C402 H390 0.950 . S
C402 C401 1.398 . S
C402 C403 1.391 . S
C403 H391 0.950 . S
C403 C399 1.393 . S
C403 C402 1.391 . S
H404 C412 0.950 1_545 S
H405 C417 0.950 . S
H406 C414 0.950 . S
H407 C416 0.950 . S
H408 C418 0.950 . S
H409 C420 0.950 . S
H410 C422 0.950 . S
H411 C423 0.950 . S
C412 H404 0.950 1_565 S
C412 C413 1.386 . S
C412 C414 1.391 . S
C413 C412 1.386 . S
C413 C417 1.393 . S
C414 H406 0.950 . S
C414 C412 1.391 . S
C414 C415 1.400 . S
C415 C414 1.400 . S
C415 C416 1.398 . S
C415 C421 1.491 . S
C416 H407 0.950 . S
C416 C415 1.398 . S
C416 C417 1.391 . S
C417 H405 0.950 . S
C417 C413 1.393 . S
C417 C416 1.391 . S
C418 H408 0.950 . S
C418 C419 1.386 . S
C418 C420 1.391 . S
C419 C418 1.386 . S
C419 C423 1.393 . S
C420 H409 0.950 . S
C420 C418 1.391 . S
C420 C421 1.400 . S
C421 C415 1.491 . S
C421 C420 1.400 . S
C421 C422 1.398 . S
C422 H410 0.950 . S
C422 C421 1.398 . S
C422 C423 1.391 . S
C423 H411 0.950 . S
C423 C419 1.393 . S
C423 C422 1.391 . S
H424 C432 0.950 1_556 S
H425 C437 0.950 . S
H426 C434 0.950 . S
H427 C436 0.950 . S
H428 C438 0.950 . S
H429 C440 0.950 . S
H430 C442 0.950 . S
H431 C443 0.950 . S
C432 H424 0.950 1_554 S
C432 C433 1.386 . S
C432 C434 1.391 . S
C433 C432 1.386 . S
C433 C437 1.393 . S
C434 H426 0.950 . S
C434 C432 1.391 . S
C434 C435 1.400 . S
C435 C434 1.400 . S
C435 C436 1.398 . S
C435 C441 1.491 . S
C436 H427 0.950 . S
C436 C435 1.398 . S
C436 C437 1.391 . S
C437 H425 0.950 . S
C437 C433 1.393 . S
C437 C436 1.391 . S
C438 H428 0.950 . S
C438 C439 1.386 . S
C438 C440 1.391 . S
C439 C438 1.386 . S
C439 C443 1.393 . S
C440 H429 0.950 . S
C440 C438 1.391 . S
C440 C441 1.400 . S
C441 C435 1.491 . S
C441 C440 1.400 . S
C441 C442 1.398 . S
C442 H430 0.950 . S
C442 C441 1.398 . S
C442 C443 1.391 . S
C443 H431 0.950 . S
C443 C439 1.393 . S
C443 C442 1.391 . S
H444 C452 0.950 . S
H445 C457 0.950 . S
H446 C454 0.950 1_565 S
H447 C456 0.950 . S
H448 C458 0.950 . S
H449 C460 0.950 . S
H450 C462 0.950 . S
H451 C463 0.950 . S
C452 H444 0.950 . S
C452 C453 1.386 . S
C452 C454 1.391 . S
C453 C452 1.386 . S
C453 C457 1.393 . S
C454 H446 0.950 1_545 S
C454 C452 1.391 . S
C454 C455 1.400 . S
C455 C454 1.400 . S
C455 C456 1.398 . S
C455 C461 1.491 . S
C456 H447 0.950 . S
C456 C455 1.398 . S
C456 C457 1.391 . S
C457 H445 0.950 . S
C457 C453 1.393 . S
C457 C456 1.391 . S
C458 H448 0.950 . S
C458 C459 1.386 . S
C458 C460 1.391 . S
C459 C458 1.386 . S
C459 C463 1.393 1_545 S
C460 H449 0.950 . S
C460 C458 1.391 . S
C460 C461 1.400 . S
C461 C455 1.491 . S
C461 C460 1.400 . S
C461 C462 1.398 1_545 S
C462 H450 0.950 . S
C462 C461 1.398 1_565 S
C462 C463 1.391 . S
C463 H451 0.950 . S
C463 C459 1.393 1_565 S
C463 C462 1.391 . S
H464 C472 0.950 . S
H465 C477 0.950 . S
H466 C474 0.950 . S
H467 C476 0.950 . S
H468 C478 0.950 . S
H469 C480 0.950 . S
H470 C482 0.950 . S
H471 C483 0.950 . S
C472 H464 0.950 . S
C472 C473 1.386 . S
C472 C474 1.391 . S
C473 C472 1.386 . S
C473 C477 1.393 . S
C474 H466 0.950 . S
C474 C472 1.391 . S
C474 C475 1.400 . S
C475 C474 1.400 . S
C475 C476 1.398 . S
C475 C481 1.491 . S
C476 H467 0.950 . S
C476 C475 1.398 . S
C476 C477 1.391 . S
C477 H465 0.950 . S
C477 C473 1.393 . S
C477 C476 1.391 . S
C478 H468 0.950 . S
C478 C479 1.386 . S
C478 C480 1.391 . S
C479 C478 1.386 . S
C479 C483 1.393 . S
C480 H469 0.950 . S
C480 C478 1.391 . S
C480 C481 1.400 . S
C481 C475 1.491 . S
C481 C480 1.400 . S
C481 C482 1.398 . S
C482 H470 0.950 . S
C482 C481 1.398 . S
C482 C483 1.391 . S
C483 H471 0.950 . S
C483 C479 1.393 . S
C483 C482 1.391 . S
H484 C492 0.950 . S
H485 C497 0.950 . S
H486 C494 0.950 . S
H487 C496 0.950 . S
H488 C498 0.950 . S
H489 C500 0.950 . S
H490 C502 0.950 . S
H491 C503 0.950 . S
C492 H484 0.950 . S
C492 C493 1.386 . S
C492 C494 1.391 . S
C493 C492 1.386 . S
C493 C497 1.393 . S
C494 H486 0.950 . S
C494 C492 1.391 . S
C494 C495 1.400 . S
C495 C494 1.400 . S
C495 C496 1.398 . S
C495 C501 1.491 . S
C496 H487 0.950 . S
C496 C495 1.398 . S
C496 C497 1.391 . S
C497 H485 0.950 . S
C497 C493 1.393 . S
C497 C496 1.391 . S
C498 H488 0.950 . S
C498 C499 1.386 . S
C498 C500 1.391 . S
C499 C498 1.386 . S
C499 C503 1.393 . S
C500 H489 0.950 . S
C500 C498 1.391 . S
C500 C501 1.400 . S
C501 C495 1.491 . S
C501 C500 1.400 . S
C501 C502 1.398 . S
C502 H490 0.950 . S
C502 C501 1.398 . S
C502 C503 1.391 . S
C503 H491 0.950 . S
C503 C499 1.393 . S
C503 C502 1.391 . S
H504 C512 0.950 . S
H505 C517 0.950 . S
H506 C514 0.950 . S
H507 C516 0.950 1_554 S
H508 C518 0.950 . S
H509 C520 0.950 . S
H510 C522 0.950 . S
H511 C523 0.950 . S
C512 H504 0.950 . S
C512 C513 1.386 . S
C512 C514 1.391 . S
C513 C512 1.386 . S
C513 C517 1.393 . S
C514 H506 0.950 . S
C514 C512 1.391 . S
C514 C515 1.400 . S
C515 C514 1.400 . S
C515 C516 1.398 . S
C515 C521 1.491 . S
C516 H507 0.950 1_556 S
C516 C515 1.398 . S
C516 C517 1.391 . S
C517 H505 0.950 . S
C517 C513 1.393 . S
C517 C516 1.391 . S
C518 H508 0.950 . S
C518 C519 1.386 1_554 S
C518 C520 1.391 . S
C519 C518 1.386 1_556 S
C519 C523 1.393 . S
C520 H509 0.950 . S
C520 C518 1.391 . S
C520 C521 1.400 1_554 S
C521 C515 1.491 . S
C521 C520 1.400 1_556 S
C521 C522 1.398 . S
C522 H510 0.950 . S
C522 C521 1.398 . S
C522 C523 1.391 . S
C523 H511 0.950 . S
C523 C519 1.393 . S
C523 C522 1.391 . S
H524 C532 0.950 . S
H525 C537 0.950 . S
H526 C534 0.950 . S
H527 C536 0.950 . S
H528 C538 0.950 . S
H529 C540 0.950 . S
H530 C542 0.950 . S
H531 C543 0.950 . S
C532 H524 0.950 . S
C532 C533 1.386 . S
C532 C534 1.391 . S
C533 C532 1.386 . S
C533 C537 1.393 . S
C534 H526 0.950 . S
C534 C532 1.391 . S
C534 C535 1.400 . S
C535 C534 1.400 . S
C535 C536 1.398 . S
C535 C541 1.491 . S
C536 H527 0.950 . S
C536 C535 1.398 . S
C536 C537 1.391 . S
C537 H525 0.950 . S
C537 C533 1.393 . S
C537 C536 1.391 . S
C538 H528 0.950 . S
C538 C539 1.386 . S
C538 C540 1.391 . S
C539 C538 1.386 . S
C539 C543 1.393 . S
C540 H529 0.950 . S
C540 C538 1.391 . S
C540 C541 1.400 . S
C541 C535 1.491 . S
C541 C540 1.400 . S
C541 C542 1.398 . S
C542 H530 0.950 . S
C542 C541 1.398 . S
C542 C543 1.391 . S
C543 H531 0.950 . S
C543 C539 1.393 . S
C543 C542 1.391 . S
H544 C552 0.950 . S
H545 C557 0.950 . S
H546 C554 0.950 . S
H547 C556 0.950 . S
H548 C558 0.950 . S
H549 C560 0.950 . S
H550 C562 0.950 . S
H551 C563 0.950 . S
C552 H544 0.950 . S
C552 C553 1.386 . S
C552 C554 1.391 . S
C553 C552 1.386 . S
C553 C557 1.393 . S
C554 H546 0.950 . S
C554 C552 1.391 . S
C554 C555 1.400 . S
C555 C554 1.400 . S
C555 C556 1.398 . S
C555 C561 1.491 . S
C556 H547 0.950 . S
C556 C555 1.398 . S
C556 C557 1.391 . S
C557 H545 0.950 . S
C557 C553 1.393 . S
C557 C556 1.391 . S
C558 H548 0.950 . S
C558 C559 1.386 . S
C558 C560 1.391 . S
C559 C558 1.386 . S
C559 C563 1.393 . S
C560 H549 0.950 . S
C560 C558 1.391 . S
C560 C561 1.400 . S
C561 C555 1.491 . S
C561 C560 1.400 . S
C561 C562 1.398 . S
C562 H550 0.950 . S
C562 C561 1.398 . S
C562 C563 1.391 . S
C563 H551 0.950 . S
C563 C559 1.393 . S
C563 C562 1.391 . S
H564 C572 0.950 . S
H565 C577 0.950 . S
H566 C574 0.950 1_655 S
H567 C576 0.950 . S
H568 C578 0.950 . S
H569 C580 0.950 . S
H570 C582 0.950 . S
H571 C583 0.950 . S
C572 H564 0.950 . S
C572 C573 1.386 . S
C572 C574 1.391 . S
C573 C572 1.386 . S
C573 C577 1.393 . S
C574 H566 0.950 1_455 S
C574 C572 1.391 . S
C574 C575 1.400 . S
C575 C574 1.400 . S
C575 C576 1.398 . S
C575 C581 1.491 . S
C576 H567 0.950 . S
C576 C575 1.398 . S
C576 C577 1.391 . S
C577 H565 0.950 . S
C577 C573 1.393 . S
C577 C576 1.391 . S
C578 H568 0.950 . S
C578 C579 1.386 . S
C578 C580 1.391 . S
C579 C578 1.386 . S
C579 C583 1.393 1_455 S
C580 H569 0.950 . S
C580 C578 1.391 . S
C580 C581 1.400 . S
C581 C575 1.491 . S
C581 C580 1.400 . S
C581 C582 1.398 1_455 S
C582 H570 0.950 . S
C582 C581 1.398 1_655 S
C582 C583 1.391 . S
C583 H571 0.950 . S
C583 C579 1.393 1_655 S
C583 C582 1.391 . S
H584 C592 0.950 . S
H585 C597 0.950 . S
H586 C594 0.950 . S
H587 C596 0.950 . S
H588 C598 0.950 . S
H589 C600 0.950 . S
H590 C602 0.950 . S
H591 C603 0.950 . S
C592 H584 0.950 . S
C592 C593 1.386 . S
C592 C594 1.391 . S
C593 C592 1.386 . S
C593 C597 1.393 . S
C594 H586 0.950 . S
C594 C592 1.391 . S
C594 C595 1.400 . S
C595 C594 1.400 . S
C595 C596 1.398 . S
C595 C601 1.491 . S
C596 H587 0.950 . S
C596 C595 1.398 . S
C596 C597 1.391 . S
C597 H585 0.950 . S
C597 C593 1.393 . S
C597 C596 1.391 . S
C598 H588 0.950 . S
C598 C599 1.386 . S
C598 C600 1.391 . S
C599 C598 1.386 . S
C599 C603 1.393 . S
C600 H589 0.950 . S
C600 C598 1.391 . S
C600 C601 1.400 . S
C601 C595 1.491 . S
C601 C600 1.400 . S
C601 C602 1.398 . S
C602 H590 0.950 . S
C602 C601 1.398 . S
C602 C603 1.391 . S
C603 H591 0.950 . S
C603 C599 1.393 . S
C603 C602 1.391 . S
H604 C612 0.950 . S
H605 C617 0.950 . S
H606 C614 0.950 . S
H607 C616 0.950 . S
H608 C618 0.950 . S
H609 C620 0.950 . S
H610 C622 0.950 . S
H611 C623 0.950 . S
C612 H604 0.950 . S
C612 C613 1.386 . S
C612 C614 1.391 . S
C613 C612 1.386 . S
C613 C617 1.393 . S
C614 H606 0.950 . S
C614 C612 1.391 . S
C614 C615 1.400 . S
C615 C614 1.400 . S
C615 C616 1.398 . S
C615 C621 1.491 . S
C616 H607 0.950 . S
C616 C615 1.398 . S
C616 C617 1.391 . S
C617 H605 0.950 . S
C617 C613 1.393 . S
C617 C616 1.391 . S
C618 H608 0.950 . S
C618 C619 1.386 . S
C618 C620 1.391 . S
C619 C618 1.386 . S
C619 C623 1.393 . S
C620 H609 0.950 . S
C620 C618 1.391 . S
C620 C621 1.400 . S
C621 C615 1.491 . S
C621 C620 1.400 . S
C621 C622 1.398 . S
C622 H610 0.950 . S
C622 C621 1.398 . S
C622 C623 1.391 . S
C623 H611 0.950 . S
C623 C619 1.393 . S
C623 C622 1.391 . S
H624 C632 0.950 . S
H625 C637 0.950 . S
H626 C634 0.950 . S
H627 C636 0.950 . S
H628 C638 0.950 . S
H629 C640 0.950 . S
H630 C642 0.950 . S
H631 C643 0.950 . S
C632 H624 0.950 . S
C632 C633 1.386 . S
C632 C634 1.391 . S
C633 C632 1.386 . S
C633 C637 1.393 . S
C634 H626 0.950 . S
C634 C632 1.391 . S
C634 C635 1.400 . S
C635 C634 1.400 . S
C635 C636 1.398 . S
C635 C641 1.491 . S
C636 H627 0.950 . S
C636 C635 1.398 . S
C636 C637 1.391 . S
C637 H625 0.950 . S
C637 C633 1.393 . S
C637 C636 1.391 . S
C638 H628 0.950 . S
C638 C639 1.386 . S
C638 C640 1.391 . S
C639 C638 1.386 . S
C639 C643 1.393 . S
C640 H629 0.950 . S
C640 C638 1.391 . S
C640 C641 1.400 . S
C641 C635 1.491 . S
C641 C640 1.400 . S
C641 C642 1.398 . S
C642 H630 0.950 . S
C642 C641 1.398 . S
C642 C643 1.391 . S
C643 H631 0.950 . S
C643 C639 1.393 . S
C643 C642 1.391 . S
H644 C652 0.950 . S
H645 C657 0.950 . S
H646 C654 0.950 . S
H647 C656 0.950 . S
H648 C658 0.950 . S
H649 C660 0.950 . S
H650 C662 0.950 . S
H651 C663 0.950 . S
C652 H644 0.950 . S
C652 C653 1.386 . S
C652 C654 1.391 . S
C653 C652 1.386 . S
C653 C657 1.393 . S
C654 H646 0.950 . S
C654 C652 1.391 . S
C654 C655 1.400 . S
C655 C654 1.400 . S
C655 C656 1.398 . S
C655 C661 1.491 . S
C656 H647 0.950 . S
C656 C655 1.398 . S
C656 C657 1.391 . S
C657 H645 0.950 . S
C657 C653 1.393 . S
C657 C656 1.391 . S
C658 H648 0.950 . S
C658 C659 1.386 . S
C658 C660 1.391 . S
C659 C658 1.386 . S
C659 C663 1.393 . S
C660 H649 0.950 . S
C660 C658 1.391 . S
C660 C661 1.400 . S
C661 C655 1.491 . S
C661 C660 1.400 . S
C661 C662 1.398 . S
C662 H650 0.950 . S
C662 C661 1.398 . S
C662 C663 1.391 . S
C663 H651 0.950 . S
C663 C659 1.393 . S
C663 C662 1.391 . S
H664 C672 0.950 . S
H665 C677 0.950 . S
H666 C674 0.950 . S
H667 C676 0.950 . S
H668 C678 0.950 . S
H669 C680 0.950 . S
H670 C682 0.950 . S
H671 C683 0.950 . S
C672 H664 0.950 . S
C672 C673 1.386 . S
C672 C674 1.391 . S
C673 C672 1.386 . S
C673 C677 1.393 . S
C674 H666 0.950 . S
C674 C672 1.391 . S
C674 C675 1.400 . S
C675 C674 1.400 . S
C675 C676 1.398 . S
C675 C681 1.491 . S
C676 H667 0.950 . S
C676 C675 1.398 . S
C676 C677 1.391 . S
C677 H665 0.950 . S
C677 C673 1.393 . S
C677 C676 1.391 . S
C678 H668 0.950 . S
C678 C679 1.386 . S
C678 C680 1.391 . S
C679 C678 1.386 . S
C679 C683 1.393 . S
C680 H669 0.950 . S
C680 C678 1.391 . S
C680 C681 1.400 . S
C681 C675 1.491 . S
C681 C680 1.400 . S
C681 C682 1.398 . S
C682 H670 0.950 . S
C682 C681 1.398 . S
C682 C683 1.391 . S
C683 H671 0.950 . S
C683 C679 1.393 . S
C683 C682 1.391 . S
H684 C692 0.950 . S
H685 C697 0.950 . S
H686 C694 0.950 . S
H687 C696 0.950 . S
H688 C698 0.950 . S
H689 C700 0.937 1_554 S
H690 C702 0.950 . S
H691 C703 0.950 . S
C692 H684 0.950 . S
C692 C693 1.386 . S
C692 C694 1.391 . S
C693 C692 1.386 . S
C693 C697 1.393 . S
C694 H686 0.950 . S
C694 C692 1.391 . S
C694 C695 1.400 . S
C695 C694 1.400 . S
C695 C696 1.398 . S
C695 C701 1.491 . S
C696 H687 0.950 . S
C696 C695 1.398 . S
C696 C697 1.391 . S
C697 H685 0.950 . S
C697 C693 1.393 . S
C697 C696 1.391 . S
C698 H688 0.950 . S
C698 C699 1.386 . S
C698 C700 1.391 . S
C699 C698 1.386 . S
C699 C703 1.393 . S
C700 H689 0.937 1_556 S
C700 C698 1.391 . S
C700 C701 1.400 1_556 S
C701 C695 1.491 . S
C701 C700 1.400 1_554 S
C701 C702 1.398 1_554 S
C702 H690 0.950 . S
C702 C701 1.398 1_556 S
C702 C703 1.391 . S
C703 H691 0.950 . S
C703 C699 1.393 . S
C703 C702 1.391 . S
H704 C712 0.950 . S
H705 C717 0.950 . S
H706 C714 0.950 . S
H707 C716 0.950 . S
H708 C718 0.950 . S
H709 C720 0.950 . S
H710 C722 0.950 . S
H711 C723 0.950 . S
C712 H704 0.950 . S
C712 C713 1.386 . S
C712 C714 1.391 . S
C713 C712 1.386 . S
C713 C717 1.393 . S
C714 H706 0.950 . S
C714 C712 1.391 . S
C714 C715 1.400 . S
C715 C714 1.400 . S
C715 C716 1.398 . S
C715 C721 1.491 . S
C716 H707 0.950 . S
C716 C715 1.398 . S
C716 C717 1.391 . S
C717 H705 0.950 . S
C717 C713 1.393 . S
C717 C716 1.391 . S
C718 H708 0.950 . S
C718 C719 1.386 . S
C718 C720 1.391 . S
C719 C718 1.386 . S
C719 C723 1.393 . S
C720 H709 0.950 . S
C720 C718 1.391 . S
C720 C721 1.400 . S
C721 C715 1.491 . S
C721 C720 1.400 . S
C721 C722 1.398 . S
C722 H710 0.950 . S
C722 C721 1.398 . S
C722 C723 1.391 . S
C723 H711 0.950 . S
C723 C719 1.393 . S
C723 C722 1.391 . S
H724 C732 0.950 . S
H725 C737 0.950 . S
H726 C734 0.955 . S
H727 C736 0.950 . S
H728 C738 0.950 . S
H729 C740 0.950 . S
H730 C742 0.950 . S
H731 C743 0.950 . S
C732 H724 0.950 . S
C732 C733 1.386 . S
C732 C734 1.385 1_554 S
C733 C732 1.386 . S
C733 C737 1.393 . S
C734 H726 0.955 . S
C734 C732 1.385 1_556 S
C734 C735 1.401 . S
C735 C734 1.401 . S
C735 C736 1.398 1_556 S
C735 C741 1.491 . S
C736 H727 0.950 . S
C736 C735 1.398 1_554 S
C736 C737 1.391 . S
C737 H725 0.950 . S
C737 C733 1.393 . S
C737 C736 1.391 . S
C738 H728 0.950 . S
C738 C739 1.386 . S
C738 C740 1.391 . S
C739 C738 1.386 . S
C739 C743 1.393 . S
C740 H729 0.950 . S
C740 C738 1.391 . S
C740 C741 1.400 . S
C741 C735 1.491 . S
C741 C740 1.400 . S
C741 C742 1.398 . S
C742 H730 0.950 . S
C742 C741 1.398 . S
C742 C743 1.391 . S
C743 H731 0.950 . S
C743 C739 1.393 . S
C743 C742 1.391 . S
H744 C752 0.950 . S
H745 C757 0.950 . S
H746 C754 0.950 . S
H747 C756 0.950 . S
H748 C758 0.950 . S
H749 C760 0.950 . S
H750 C762 0.950 . S
H751 C763 0.950 . S
C752 H744 0.950 . S
C752 C753 1.386 . S
C752 C754 1.391 . S
C753 C752 1.386 . S
C753 C757 1.393 . S
C754 H746 0.950 . S
C754 C752 1.391 . S
C754 C755 1.400 . S
C755 C754 1.400 . S
C755 C756 1.398 . S
C755 C761 1.491 . S
C756 H747 0.950 . S
C756 C755 1.398 . S
C756 C757 1.391 . S
C757 H745 0.950 . S
C757 C753 1.393 . S
C757 C756 1.391 . S
C758 H748 0.950 . S
C758 C759 1.386 . S
C758 C760 1.391 . S
C759 C758 1.386 . S
C759 C763 1.393 . S
C760 H749 0.950 . S
C760 C758 1.391 . S
C760 C761 1.400 . S
C761 C755 1.491 . S
C761 C760 1.400 . S
C761 C762 1.398 . S
C762 H750 0.950 . S
C762 C761 1.398 . S
C762 C763 1.391 . S
C763 H751 0.950 . S
C763 C759 1.393 . S
C763 C762 1.391 . S
H764 C772 0.950 . S
H765 C777 0.950 . S
H766 C774 0.950 . S
H767 C776 0.950 . S
H768 C778 0.950 . S
H769 C780 0.950 . S
H770 C782 0.950 . S
H771 C783 0.950 . S
C772 H764 0.950 . S
C772 C773 1.386 . S
C772 C774 1.391 . S
C773 C772 1.386 . S
C773 C777 1.393 . S
C774 H766 0.950 . S
C774 C772 1.391 . S
C774 C775 1.400 . S
C775 C774 1.400 . S
C775 C776 1.398 . S
C775 C781 1.491 . S
C776 H767 0.950 . S
C776 C775 1.398 . S
C776 C777 1.391 . S
C777 H765 0.950 . S
C777 C773 1.393 . S
C777 C776 1.391 . S
C778 H768 0.950 . S
C778 C779 1.386 . S
C778 C780 1.391 . S
C779 C778 1.386 . S
C779 C783 1.393 . S
C780 H769 0.950 . S
C780 C778 1.391 . S
C780 C781 1.400 . S
C781 C775 1.491 . S
C781 C780 1.400 . S
C781 C782 1.398 . S
C782 H770 0.950 . S
C782 C781 1.398 . S
C782 C783 1.391 . S
C783 H771 0.950 . S
C783 C779 1.393 . S
C783 C782 1.391 . S
H784 C792 0.950 . S
H785 C797 0.950 . S
H786 C794 0.950 . S
H787 C796 0.950 . S
H788 C798 0.950 . S
H789 C800 0.950 . S
H790 C802 0.950 . S
H791 C803 0.950 . S
C792 H784 0.950 . S
C792 C793 1.386 . S
C792 C794 1.391 . S
C793 C792 1.386 . S
C793 C797 1.393 . S
C794 H786 0.950 . S
C794 C792 1.391 . S
C794 C795 1.400 . S
C795 C794 1.400 . S
C795 C796 1.398 . S
C795 C801 1.491 . S
C796 H787 0.950 . S
C796 C795 1.398 . S
C796 C797 1.391 . S
C797 H785 0.950 . S
C797 C793 1.393 . S
C797 C796 1.391 . S
C798 H788 0.950 . S
C798 C799 1.386 . S
C798 C800 1.391 . S
C799 C798 1.386 . S
C799 C803 1.393 . S
C800 H789 0.950 . S
C800 C798 1.391 . S
C800 C801 1.400 . S
C801 C795 1.491 . S
C801 C800 1.400 . S
C801 C802 1.398 . S
C802 H790 0.950 . S
C802 C801 1.398 . S
C802 C803 1.391 . S
C803 H791 0.950 . S
C803 C799 1.393 . S
C803 C802 1.391 . S
H804 C812 0.950 . S
H805 C817 0.950 . S
H806 C814 0.950 . S
H807 C816 0.950 . S
H808 C818 0.950 . S
H809 C820 0.950 . S
H810 C822 0.950 . S
H811 C823 0.950 . S
C812 H804 0.950 . S
C812 C813 1.386 . S
C812 C814 1.391 . S
C813 C812 1.386 . S
C813 C817 1.393 . S
C814 H806 0.950 . S
C814 C812 1.391 . S
C814 C815 1.400 . S
C815 C814 1.400 . S
C815 C816 1.398 . S
C815 C821 1.491 . S
C816 H807 0.950 . S
C816 C815 1.398 . S
C816 C817 1.391 . S
C817 H805 0.950 . S
C817 C813 1.393 . S
C817 C816 1.391 . S
C818 H808 0.950 . S
C818 C819 1.386 . S
C818 C820 1.391 1_565 S
C819 C818 1.386 . S
C819 C823 1.393 . S
C820 H809 0.950 . S
C820 C818 1.391 1_545 S
C820 C821 1.400 . S
C821 C815 1.491 . S
C821 C820 1.400 . S
C821 C822 1.398 1_545 S
C822 H810 0.950 . S
C822 C821 1.398 1_565 S
C822 C823 1.391 . S
C823 H811 0.950 . S
C823 C819 1.393 . S
C823 C822 1.391 . S
H824 C832 0.950 . S
H825 C837 0.950 . S
H826 C834 0.950 . S
H827 C836 0.950 . S
H828 C838 0.950 . S
H829 C840 0.950 . S
H830 C842 0.950 . S
H831 C843 0.950 . S
C832 H824 0.950 . S
C832 C833 1.386 . S
C832 C834 1.391 . S
C833 C832 1.386 . S
C833 C837 1.393 . S
C834 H826 0.950 . S
C834 C832 1.391 . S
C834 C835 1.400 . S
C835 C834 1.400 . S
C835 C836 1.398 . S
C835 C841 1.491 . S
C836 H827 0.950 . S
C836 C835 1.398 . S
C836 C837 1.391 . S
C837 H825 0.950 . S
C837 C833 1.393 . S
C837 C836 1.391 . S
C838 H828 0.950 . S
C838 C839 1.386 . S
C838 C840 1.391 . S
C839 C838 1.386 . S
C839 C843 1.393 . S
C840 H829 0.950 . S
C840 C838 1.391 . S
C840 C841 1.400 . S
C841 C835 1.491 . S
C841 C840 1.400 . S
C841 C842 1.398 . S
C842 H830 0.950 . S
C842 C841 1.398 . S
C842 C843 1.391 . S
C843 H831 0.950 . S
C843 C839 1.393 . S
C843 C842 1.391 . S
H844 C852 0.950 . S
H845 C857 0.950 . S
H846 C854 0.950 . S
H847 C856 0.950 . S
H848 C858 0.950 . S
H849 C860 0.950 . S
H850 C862 0.950 . S
H851 C863 0.950 . S
C852 H844 0.950 . S
C852 C853 1.386 . S
C852 C854 1.391 1_545 S
C853 C852 1.386 . S
C853 C857 1.393 . S
C854 H846 0.950 . S
C854 C852 1.391 1_565 S
C854 C855 1.400 . S
C855 C854 1.400 . S
C855 C856 1.398 1_565 S
C855 C861 1.491 . S
C856 H847 0.950 . S
C856 C855 1.398 1_545 S
C856 C857 1.391 . S
C857 H845 0.950 . S
C857 C853 1.393 . S
C857 C856 1.391 . S
C858 H848 0.950 . S
C858 C859 1.386 . S
C858 C860 1.391 . S
C859 C858 1.386 . S
C859 C863 1.393 . S
C860 H849 0.950 . S
C860 C858 1.391 . S
C860 C861 1.400 . S
C861 C855 1.491 . S
C861 C860 1.400 . S
C861 C862 1.398 . S
C862 H850 0.950 . S
C862 C861 1.398 . S
C862 C863 1.391 . S
C863 H851 0.950 . S
C863 C859 1.393 . S
C863 C862 1.391 . S
H864 C872 0.950 . S
H865 C877 0.950 . S
H866 C874 0.950 . S
H867 C876 0.950 . S
H868 C878 0.950 . S
H869 C880 0.950 . S
H870 C882 0.950 . S
H871 C883 0.950 . S
C872 H864 0.950 . S
C872 C873 1.386 . S
C872 C874 1.391 . S
C873 C872 1.386 . S
C873 C877 1.393 . S
C874 H866 0.950 . S
C874 C872 1.391 . S
C874 C875 1.400 . S
C875 C874 1.400 . S
C875 C876 1.398 . S
C875 C881 1.491 . S
C876 H867 0.950 . S
C876 C875 1.398 . S
C876 C877 1.391 . S
C877 H865 0.950 . S
C877 C873 1.393 . S
C877 C876 1.391 . S
C878 H868 0.950 . S
C878 C879 1.386 . S
C878 C880 1.391 . S
C879 C878 1.386 . S
C879 C883 1.393 . S
C880 H869 0.950 . S
C880 C878 1.391 . S
C880 C881 1.400 . S
C881 C875 1.491 . S
C881 C880 1.400 . S
C881 C882 1.398 . S
C882 H870 0.950 . S
C882 C881 1.398 . S
C882 C883 1.391 . S
C883 H871 0.950 . S
C883 C879 1.393 . S
C883 C882 1.391 . S
H884 C892 0.950 . S
H885 C897 0.950 . S
H886 C894 0.950 . S
H887 C896 0.950 . S
H888 C898 0.950 . S
H889 C900 0.950 . S
H890 C902 0.950 . S
H891 C903 0.950 . S
C892 H884 0.950 . S
C892 C893 1.386 . S
C892 C894 1.391 . S
C893 C892 1.386 . S
C893 C897 1.393 . S
C894 H886 0.950 . S
C894 C892 1.391 . S
C894 C895 1.400 . S
C895 C894 1.400 . S
C895 C896 1.398 . S
C895 C901 1.491 . S
C896 H887 0.950 . S
C896 C895 1.398 . S
C896 C897 1.391 . S
C897 H885 0.950 . S
C897 C893 1.393 . S
C897 C896 1.391 . S
C898 H888 0.950 . S
C898 C899 1.386 . S
C898 C900 1.391 . S
C899 C898 1.386 . S
C899 C903 1.393 . S
C900 H889 0.950 . S
C900 C898 1.391 . S
C900 C901 1.400 . S
C901 C895 1.491 . S
C901 C900 1.400 . S
C901 C902 1.398 . S
C902 H890 0.950 . S
C902 C901 1.398 . S
C902 C903 1.391 . S
C903 H891 0.950 . S
C903 C899 1.393 . S
C903 C902 1.391 . S
H904 C912 0.950 . S
H905 C917 0.950 . S
H906 C914 0.950 . S
H907 C916 0.950 . S
H908 C918 0.950 . S
H909 C920 0.950 . S
H910 C922 0.950 . S
H911 C923 0.950 . S
C912 H904 0.950 . S
C912 C913 1.386 . S
C912 C914 1.391 . S
C913 C912 1.386 . S
C913 C917 1.393 . S
C914 H906 0.950 . S
C914 C912 1.391 . S
C914 C915 1.400 . S
C915 C914 1.400 . S
C915 C916 1.398 . S
C915 C921 1.491 . S
C916 H907 0.950 . S
C916 C915 1.398 . S
C916 C917 1.391 . S
C917 H905 0.950 . S
C917 C913 1.393 . S
C917 C916 1.391 . S
C918 H908 0.950 . S
C918 C919 1.386 . S
C918 C920 1.391 . S
C919 C918 1.386 . S
C919 C923 1.393 . S
C920 H909 0.950 . S
C920 C918 1.391 . S
C920 C921 1.400 . S
C921 C915 1.491 . S
C921 C920 1.400 . S
C921 C922 1.398 . S
C922 H910 0.950 . S
C922 C921 1.398 . S
C922 C923 1.391 . S
C923 H911 0.950 . S
C923 C919 1.393 . S
C923 C922 1.391 . S
H924 C932 0.950 . S
H925 C937 0.950 . S
H926 C934 0.950 . S
H927 C936 0.950 . S
H928 C938 0.950 . S
H929 C940 0.950 . S
H930 C942 0.950 . S
H931 C943 0.950 . S
C932 H924 0.950 . S
C932 C933 1.386 . S
C932 C934 1.391 . S
C933 C932 1.386 . S
C933 C937 1.393 . S
C934 H926 0.950 . S
C934 C932 1.391 . S
C934 C935 1.400 . S
C935 C934 1.400 . S
C935 C936 1.398 . S
C935 C941 1.491 . S
C936 H927 0.950 . S
C936 C935 1.398 . S
C936 C937 1.391 . S
C937 H925 0.950 . S
C937 C933 1.393 . S
C937 C936 1.391 . S
C938 H928 0.950 . S
C938 C939 1.386 . S
C938 C940 1.391 . S
C939 C938 1.386 . S
C939 C943 1.393 . S
C940 H929 0.950 . S
C940 C938 1.391 . S
C940 C941 1.400 . S
C941 C935 1.491 . S
C941 C940 1.400 . S
C941 C942 1.398 . S
C942 H930 0.950 . S
C942 C941 1.398 . S
C942 C943 1.391 . S
C943 H931 0.950 . S
C943 C939 1.393 . S
C943 C942 1.391 . S
H944 C952 0.950 . S
H945 C957 0.950 . S
H946 C954 0.950 . S
H947 C956 0.950 . S
H948 C958 0.950 . S
H949 C960 0.950 . S
H950 C962 0.950 . S
H951 C963 0.950 . S
C952 H944 0.950 . S
C952 C953 1.386 . S
C952 C954 1.391 . S
C953 C952 1.386 . S
C953 C957 1.393 . S
C954 H946 0.950 . S
C954 C952 1.391 . S
C954 C955 1.400 . S
C955 C954 1.400 . S
C955 C956 1.398 . S
C955 C961 1.491 . S
C956 H947 0.950 . S
C956 C955 1.398 . S
C956 C957 1.391 . S
C957 H945 0.950 . S
C957 C953 1.393 . S
C957 C956 1.391 . S
C958 H948 0.950 . S
C958 C959 1.386 . S
C958 C960 1.391 . S
C959 C958 1.386 . S
C959 C963 1.393 . S
C960 H949 0.950 . S
C960 C958 1.391 . S
C960 C961 1.400 . S
C961 C955 1.491 . S
C961 C960 1.400 . S
C961 C962 1.398 . S
C962 H950 0.950 . S
C962 C961 1.398 . S
C962 C963 1.391 . S
C963 H951 0.950 . S
C963 C959 1.393 . S
C963 C962 1.391 . S
H964 C972 0.950 . S
H965 C977 0.950 . S
H966 C974 0.950 . S
H967 C976 0.950 . S
H968 C978 0.950 . S
H969 C980 0.950 . S
H970 C982 0.950 . S
H971 C983 0.950 . S
C972 H964 0.950 . S
C972 C973 1.386 . S
C972 C974 1.391 . S
C973 C972 1.386 . S
C973 C977 1.393 . S
C974 H966 0.950 . S
C974 C972 1.391 . S
C974 C975 1.400 . S
C975 C974 1.400 . S
C975 C976 1.398 . S
C975 C981 1.491 . S
C976 H967 0.950 . S
C976 C975 1.398 . S
C976 C977 1.391 . S
C977 H965 0.950 . S
C977 C973 1.393 . S
C977 C976 1.391 . S
C978 H968 0.950 . S
C978 C979 1.386 . S
C978 C980 1.391 . S
C979 C978 1.386 . S
C979 C983 1.393 . S
C980 H969 0.950 . S
C980 C978 1.391 . S
C980 C981 1.400 . S
C981 C975 1.491 . S
C981 C980 1.400 . S
C981 C982 1.398 . S
C982 H970 0.950 . S
C982 C981 1.398 . S
C982 C983 1.391 . S
C983 H971 0.950 . S
C983 C979 1.393 . S
C983 C982 1.391 . S
H984 C992 0.950 . S
H985 C997 0.950 . S
H986 C994 0.950 . S
H987 C996 0.950 . S
H988 C998 0.950 . S
H989 C1000 0.950 . S
H990 C1002 0.950 . S
H991 C1003 0.950 . S
C992 H984 0.950 . S
C992 C993 1.386 . S
C992 C994 1.391 . S
C993 C992 1.386 . S
C993 C997 1.393 . S
C994 H986 0.950 . S
C994 C992 1.391 . S
C994 C995 1.400 . S
C995 C994 1.400 . S
C995 C996 1.398 . S
C995 C1001 1.491 . S
C996 H987 0.950 . S
C996 C995 1.398 . S
C996 C997 1.391 . S
C997 H985 0.950 . S
C997 C993 1.393 . S
C997 C996 1.391 . S
C998 H988 0.950 . S
C998 C999 1.386 . S
C998 C1000 1.391 1_655 S
C999 C998 1.386 . S
C999 C1003 1.393 . S
C1000 H989 0.950 . S
C1000 C998 1.391 1_455 S
C1000 C1001 1.400 . S
C1001 C995 1.491 . S
C1001 C1000 1.400 . S
C1001 C1002 1.398 1_455 S
C1002 H990 0.950 . S
C1002 C1001 1.398 1_655 S
C1002 C1003 1.391 . S
C1003 H991 0.950 . S
C1003 C999 1.393 . S
C1003 C1002 1.391 . S
H1004 C1012 0.950 . S
H1005 C1017 0.950 . S
H1006 C1014 0.950 . S
H1007 C1016 0.950 . S
H1008 C1018 0.950 . S
H1009 C1020 0.950 . S
H1010 C1022 0.950 . S
H1011 C1023 0.950 . S
C1012 H1004 0.950 . S
C1012 C1013 1.386 . S
C1012 C1014 1.391 . S
C1013 C1012 1.386 . S
C1013 C1017 1.393 . S
C1014 H1006 0.950 . S
C1014 C1012 1.391 . S
C1014 C1015 1.400 . S
C1015 C1014 1.400 . S
C1015 C1016 1.398 . S
C1015 C1021 1.491 . S
C1016 H1007 0.950 . S
C1016 C1015 1.398 . S
C1016 C1017 1.391 . S
C1017 H1005 0.950 . S
C1017 C1013 1.393 . S
C1017 C1016 1.391 . S
C1018 H1008 0.950 . S
C1018 C1019 1.386 . S
C1018 C1020 1.391 . S
C1019 C1018 1.386 . S
C1019 C1023 1.393 . S
C1020 H1009 0.950 . S
C1020 C1018 1.391 . S
C1020 C1021 1.400 . S
C1021 C1015 1.491 . S
C1021 C1020 1.400 . S
C1021 C1022 1.398 . S
C1022 H1010 0.950 . S
C1022 C1021 1.398 . S
C1022 C1023 1.391 . S
C1023 H1011 0.950 . S
C1023 C1019 1.393 . S
C1023 C1022 1.391 . S
H1024 C1032 0.950 . S
H1025 C1037 0.950 . S
H1026 C1034 0.950 . S
H1027 C1036 0.950 . S
H1028 C1038 0.950 . S
H1029 C1040 0.950 . S
H1030 C1042 0.950 . S
H1031 C1043 0.950 . S
C1032 H1024 0.950 . S
C1032 C1033 1.386 . S
C1032 C1034 1.391 . S
C1033 C1032 1.386 . S
C1033 C1037 1.393 . S
C1034 H1026 0.950 . S
C1034 C1032 1.391 . S
C1034 C1035 1.400 . S
C1035 C1034 1.400 . S
C1035 C1036 1.398 . S
C1035 C1041 1.491 . S
C1036 H1027 0.950 . S
C1036 C1035 1.398 . S
C1036 C1037 1.391 . S
C1037 H1025 0.950 . S
C1037 C1033 1.393 . S
C1037 C1036 1.391 . S
C1038 H1028 0.950 . S
C1038 C1039 1.386 . S
C1038 C1040 1.391 . S
C1039 C1038 1.386 . S
C1039 C1043 1.393 . S
C1040 H1029 0.950 . S
C1040 C1038 1.391 . S
C1040 C1041 1.400 . S
C1041 C1035 1.491 . S
C1041 C1040 1.400 . S
C1041 C1042 1.398 . S
C1042 H1030 0.950 . S
C1042 C1041 1.398 . S
C1042 C1043 1.391 . S
C1043 H1031 0.950 . S
C1043 C1039 1.393 . S
C1043 C1042 1.391 . S
H1044 C1052 0.950 . S
H1045 C1057 0.950 . S
H1046 C1054 0.950 . S
H1047 C1056 0.950 . S
H1048 C1058 0.950 . S
H1049 C1060 0.950 . S
H1050 C1062 0.950 . S
H1051 C1063 0.950 . S
C1052 H1044 0.950 . S
C1052 C1053 1.386 . S
C1052 C1054 1.391 . S
C1053 C1052 1.386 . S
C1053 C1057 1.393 . S
C1054 H1046 0.950 . S
C1054 C1052 1.391 . S
C1054 C1055 1.400 . S
C1055 C1054 1.400 . S
C1055 C1056 1.398 . S
C1055 C1061 1.491 . S
C1056 H1047 0.950 . S
C1056 C1055 1.398 . S
C1056 C1057 1.391 . S
C1057 H1045 0.950 . S
C1057 C1053 1.393 . S
C1057 C1056 1.391 . S
C1058 H1048 0.950 . S
C1058 C1059 1.386 . S
C1058 C1060 1.391 . S
C1059 C1058 1.386 . S
C1059 C1063 1.393 . S
C1060 H1049 0.950 . S
C1060 C1058 1.391 . S
C1060 C1061 1.400 . S
C1061 C1055 1.491 . S
C1061 C1060 1.400 . S
C1061 C1062 1.398 . S
C1062 H1050 0.950 . S
C1062 C1061 1.398 . S
C1062 C1063 1.391 . S
C1063 H1051 0.950 . S
C1063 C1059 1.393 . S
C1063 C1062 1.391 . S
H1064 C1072 0.950 . S
H1065 C1077 0.950 . S
H1066 C1074 0.950 . S
H1067 C1076 0.950 . S
H1068 C1078 0.950 . S
H1069 C1080 0.950 . S
H1070 C1082 0.950 . S
H1071 C1083 0.950 . S
C1072 H1064 0.950 . S
C1072 C1073 1.386 . S
C1072 C1074 1.391 . S
C1073 C1072 1.386 . S
C1073 C1077 1.393 . S
C1074 H1066 0.950 . S
C1074 C1072 1.391 . S
C1074 C1075 1.400 . S
C1075 C1074 1.400 . S
C1075 C1076 1.398 . S
C1075 C1081 1.491 . S
C1076 H1067 0.950 . S
C1076 C1075 1.398 . S
C1076 C1077 1.391 . S
C1077 H1065 0.950 . S
C1077 C1073 1.393 . S
C1077 C1076 1.391 . S
C1078 H1068 0.950 . S
C1078 C1079 1.386 . S
C1078 C1080 1.391 . S
C1079 C1078 1.386 . S
C1079 C1083 1.393 . S
C1080 H1069 0.950 . S
C1080 C1078 1.391 . S
C1080 C1081 1.400 . S
C1081 C1075 1.491 . S
C1081 C1080 1.400 . S
C1081 C1082 1.398 . S
C1082 H1070 0.950 . S
C1082 C1081 1.398 . S
C1082 C1083 1.391 . S
C1083 H1071 0.950 . S
C1083 C1079 1.393 . S
C1083 C1082 1.391 . S
H1084 C1092 0.950 . S
H1085 C1097 0.950 . S
H1086 C1094 0.950 . S
H1087 C1096 0.950 . S
H1088 C1098 0.950 . S
H1089 C1100 0.950 . S
H1090 C1102 0.950 . S
H1091 C1103 0.950 . S
C1092 H1084 0.950 . S
C1092 C1093 1.386 . S
C1092 C1094 1.391 . S
C1093 C1092 1.386 . S
C1093 C1097 1.393 . S
C1094 H1086 0.950 . S
C1094 C1092 1.391 . S
C1094 C1095 1.400 . S
C1095 C1094 1.400 . S
C1095 C1096 1.398 . S
C1095 C1101 1.491 . S
C1096 H1087 0.950 . S
C1096 C1095 1.398 . S
C1096 C1097 1.391 . S
C1097 H1085 0.950 . S
C1097 C1093 1.393 . S
C1097 C1096 1.391 . S
C1098 H1088 0.950 . S
C1098 C1099 1.386 . S
C1098 C1100 1.391 1_455 S
C1099 C1098 1.386 . S
C1099 C1103 1.393 . S
C1100 H1089 0.950 . S
C1100 C1098 1.391 1_655 S
C1100 C1101 1.400 . S
C1101 C1095 1.491 . S
C1101 C1100 1.400 . S
C1101 C1102 1.398 1_655 S
C1102 H1090 0.950 . S
C1102 C1101 1.398 1_455 S
C1102 C1103 1.391 . S
C1103 H1091 0.950 . S
C1103 C1099 1.393 . S
C1103 C1102 1.391 . S
C393 C4 1.329 . S
C399 C356 1.351 . S
C413 C292 1.336 . S
C419 C36 1.356 . S
C433 C93 1.337 . S
C439 C260 1.356 . S
C453 C100 1.332 . S
C459 C324 1.319 . S
C473 C132 1.359 . S
C479 C349 1.347 . S
C493 C189 1.330 . S
C499 C381 1.352 . S
C513 C317 1.338 . S
C519 C196 1.357 . S
C533 C253 1.320 . S
C539 C285 1.338 . S
C553 C125 1.329 . S
C559 C157 1.351 . S
C573 C29 1.331 . S
C579 C164 1.320 . S
C593 C61 1.349 . S
C599 C221 1.359 . S
C613 C228 1.332 . S
C619 C68 1.319 . S
C633 N18 1.256 . S
C639 C262 1.263 . S
C653 N50 1.259 . S
C659 C326 1.264 . S
C673 C358 1.264 . S
C679 N77 1.264 . S
C693 N114 1.265 . S
C699 C294 1.264 . S
C713 N146 1.261 . S
C719 C290 1.264 . S
C733 C258 1.263 . S
C739 N173 1.257 . S
C753 C322 1.264 . S
C759 N210 1.264 . S
C773 C354 1.264 . S
C779 N237 1.264 . S
C793 C2 1.264 . S
C799 N109 1.262 . S
C813 N13 1.259 . S
C819 C34 1.264 . S
C833 N45 1.261 . S
C839 C70 1.264 . S
C853 C98 1.264 . S
C859 N82 1.263 . S
C873 N178 1.264 . S
C879 C130 1.264 . S
C893 C166 1.263 . S
C899 N205 1.260 . S
C913 C194 1.264 . S
C919 N242 1.260 . S
C933 N141 1.256 . S
C939 C230 1.263 . S
C953 N269 1.265 . S
C959 C102 1.264 . S
C973 C162 1.264 . S
C979 N306 1.265 . S
C993 N274 1.263 . S
C999 C198 1.264 . S
C1013 N338 1.258 . S
C1019 C226 1.263 . S
C1033 C134 1.263 . S
C1039 N370 1.256 . S
C1053 N365 1.259 . S
C1059 C38 1.263 . S
C1073 C66 1.263 . S
C1079 N301 1.261 . S
C1093 N333 1.263 . S
C1099 C6 1.264 . S
