# Generated by pormake.
# Topology lvt, (4)-cn, num edge types: 1
# Building blocks:
#     Node 0, Type 0, BuildingBlock: NAWXER_clean_sbu_0, # of connection points: 4
#     Node 1, Type 0, BuildingBlock: NAWXER_clean_sbu_0, # of connection points: 4
#     Node 2, Type 0, BuildingBlock: NAWXER_clean_sbu_0, # of connection points: 4
#     Node 3, Type 0, BuildingBlock: NAWXER_clean_sbu_0, # of connection points: 4
#     Node 4, Type 0, BuildingBlock: NAWXER_clean_sbu_0, # of connection points: 4
#     Node 5, Type 0, BuildingBlock: NAWXER_clean_sbu_0, # of connection points: 4
#     Node 6, Type 0, BuildingBlock: NAWXER_clean_sbu_0, # of connection points: 4
#     Node 7, Type 0, BuildingBlock: NAWXER_clean_sbu_0, # of connection points: 4
#     Edge 8, Type (0, 0), BuildingBlock: XUDNAN_clean_linker_2, # of connection points: 2
#     Edge 9, Type (0, 0), BuildingBlock: XUDNAN_clean_linker_2, # of connection points: 2
#     Edge 10, Type (0, 0), BuildingBlock: XUDNAN_clean_linker_2, # of connection points: 2
#     Edge 11, Type (0, 0), BuildingBlock: XUDNAN_clean_linker_2, # of connection points: 2
#     Edge 12, Type (0, 0), BuildingBlock: XUDNAN_clean_linker_2, # of connection points: 2
#     Edge 13, Type (0, 0), BuildingBlock: XUDNAN_clean_linker_2, # of connection points: 2
#     Edge 14, Type (0, 0), BuildingBlock: XUDNAN_clean_linker_2, # of connection points: 2
#     Edge 15, Type (0, 0), BuildingBlock: XUDNAN_clean_linker_2, # of connection points: 2
#     Edge 16, Type (0, 0), BuildingBlock: XUDNAN_clean_linker_2, # of connection points: 2
#     Edge 17, Type (0, 0), BuildingBlock: XUDNAN_clean_linker_2, # of connection points: 2
#     Edge 18, Type (0, 0), BuildingBlock: XUDNAN_clean_linker_2, # of connection points: 2
#     Edge 19, Type (0, 0), BuildingBlock: XUDNAN_clean_linker_2, # of connection points: 2
#     Edge 20, Type (0, 0), BuildingBlock: XUDNAN_clean_linker_2, # of connection points: 2
#     Edge 21, Type (0, 0), BuildingBlock: XUDNAN_clean_linker_2, # of connection points: 2
#     Edge 22, Type (0, 0), BuildingBlock: XUDNAN_clean_linker_2, # of connection points: 2
#     Edge 23, Type (0, 0), BuildingBlock: XUDNAN_clean_linker_2, # of connection points: 2
# Relax obj value: 0.000
# Max RMSD: 0.000
# Mean RMSD: 0.000
data_MOF--net-lvt--node1-NAWXER_clean_sbu_0--edge1-XUDNAN_clean_linker_2
_symmetry_space_group_name_H-M    P1
_symmetry_Int_Tables_number       1
_symmetry_cell_setting            triclinic
loop_
_symmetry_equiv_pos_as_xyz
'x, y, z'
_cell_length_a     38.271628
_cell_length_b     38.154849
_cell_length_c     21.705484
_cell_angle_alpha  89.989366
_cell_angle_beta   90.188059
_cell_angle_gamma 89.805534
loop_
_atom_site_label
_atom_site_type_symbol
_atom_site_fract_x
_atom_site_fract_y
_atom_site_fract_z
_atom_type_partial_charge
C0 C 0.95386 0.96078 0.49321 0.0
C1 C 0.02361 0.04384 0.37175 0.0
O2 O 0.95589 0.96116 0.43469 0.0
Zn3 Zn 0.98617 1.0029 0.4278 0.0
O4 O 0.96889 0.98489 0.52431 0.0
Zn5 Zn 0.99977 0.02983 0.51207 0.0
O6 O 0.96985 0.06792 0.53993 0.0
O7 O 0.95267 0.04582 0.45092 0.0
O8 O 0.02271 0.0498 0.42984 0.0
O9 O 1.00536 0.01904 0.34913 0.0
O10 O 0.03389 0.98624 0.47195 0.0
O11 O 0.04147 1.0165 0.55791 0.0
C12 C 0.94897 0.06834 0.49426 0.0
C13 C 0.05208 0.9933 0.52009 0.0
C14 C 0.24623 0.84365 0.65227 0.0
C15 C 0.32245 0.7512 0.73468 0.0
O16 O 0.27135 0.82869 0.62405 0.0
Zn17 Zn 0.28503 0.79788 0.69073 0.0
O18 O 0.23919 0.8348 0.70792 0.0
Zn19 Zn 0.25766 0.79845 0.7772 0.0
O20 O 0.27313 0.8304 0.84216 0.0
O21 O 0.30332 0.8352 0.75581 0.0
O22 O 0.29956 0.76172 0.77344 0.0
O23 O 0.32324 0.76474 0.6812 0.0
O24 O 0.24003 0.76587 0.69383 0.0
O25 O 0.21654 0.76827 0.78663 0.0
C26 C 0.297 0.84519 0.81095 0.0
C27 C 0.21624 0.75668 0.73164 0.0
C28 C 0.48295 1.00157 0.945 0.0
C29 C 0.58246 0.07318 0.00629 0.0
O30 O 0.49584 0.02785 0.91718 0.0
Zn31 Zn 0.53371 0.03632 0.97315 0.0
O32 O 0.49757 0.99023 0.99455 0.0
Zn33 Zn 0.54172 1.00432 0.05255 0.0
O34 O 0.5178 1.01526 0.12975 0.0
O35 O 0.50532 0.05147 0.05335 0.0
O36 O 0.57662 0.04829 0.04464 0.0
O37 O 0.56418 0.07548 0.95755 0.0
O38 O 0.56591 0.99184 0.95826 0.0
O39 O 0.57259 0.96325 0.0457 0.0
C40 C 0.50096 0.04168 0.10926 0.0
C41 C 0.5789 0.96604 0.98841 0.0
C42 C 0.31421 0.19435 0.26394 0.0
C43 C 0.23094 0.28706 0.31388 0.0
O44 O 0.2964 0.20438 0.21695 0.0
Zn45 Zn 0.25504 0.24053 0.1964 0.0
O46 O 0.30781 0.20765 0.31634 0.0
Zn47 Zn 0.27108 0.23956 0.29007 0.0
O48 O 0.22807 0.20593 0.2683 0.0
O49 O 0.21682 0.21097 0.16908 0.0
O50 O 0.25058 0.27025 0.35093 0.0
O51 O 0.23026 0.27858 0.25657 0.0
O52 O 0.27724 0.27054 0.13647 0.0
O53 O 0.2977 0.27676 0.23124 0.0
C54 C 0.20981 0.19741 0.22099 0.0
C55 C 0.2976 0.28579 0.17421 0.0
C56 C 0.69782 0.33417 0.28039 0.0
C57 C 0.77509 0.24311 0.36349 0.0
O58 O 0.72416 0.32785 0.24571 0.0
Zn59 Zn 0.76953 0.29461 0.24563 0.0
O60 O 0.69433 0.31734 0.33052 0.0
Zn61 Zn 0.73572 0.28814 0.32286 0.0
O62 O 0.77654 0.32522 0.33479 0.0
O63 O 0.80796 0.32828 0.25007 0.0
O64 O 0.74707 0.25486 0.38725 0.0
O65 O 0.78559 0.25535 0.31167 0.0
O66 O 0.76211 0.26738 0.17146 0.0
O67 O 0.72438 0.25514 0.24514 0.0
C68 C 0.80222 0.3383 0.30502 0.0
C69 C 0.73611 0.24984 0.19059 0.0
C70 C 0.82112 0.69138 0.78409 0.0
C71 C 0.73314 0.78276 0.81776 0.0
O72 O 0.80387 0.69973 0.73547 0.0
Zn73 Zn 0.76285 0.73464 0.70743 0.0
O74 O 0.81462 0.70697 0.8346 0.0
Zn75 Zn 0.77761 0.73717 0.80269 0.0
O76 O 0.73774 0.69991 0.78076 0.0
O77 O 0.7271 0.7018 0.68083 0.0
O78 O 0.75366 0.76951 0.85768 0.0
O79 O 0.73439 0.77189 0.76186 0.0
O80 O 0.786 0.76424 0.64699 0.0
O81 O 0.80565 0.77135 0.74184 0.0
C82 C 0.72098 0.68865 0.73353 0.0
C83 C 0.80672 0.77931 0.6844 0.0
C84 C 0.46136 0.56494 0.93259 0.0
C85 C 0.54032 0.49674 0.06492 0.0
O86 O 0.47105 0.57278 0.98697 0.0
Zn87 Zn 0.49942 0.5311 1.00228 0.0
O88 O 0.47046 0.53541 0.90944 0.0
Zn89 Zn 0.50085 0.49036 0.93359 0.0
O90 O 0.46665 0.45216 0.93964 0.0
O91 O 0.46229 0.49086 0.01449 0.0
O92 O 0.5331 0.48167 0.0136 0.0
O93 O 0.52638 0.52618 0.07775 0.0
O94 O 0.53928 0.53581 0.93408 0.0
O95 O 0.53543 0.49198 0.86775 0.0
C96 C 0.45222 0.4623 0.9893 0.0
C97 C 0.55025 0.52006 0.88565 0.0
C98 C 0.98614 0.48965 0.47353 0.0
C99 C 0.0725 0.57531 0.54056 0.0
O100 O 0.99551 0.5168 0.44397 0.0
Zn101 Zn 0.03155 0.53108 0.50162 0.0
O102 O 1.00211 0.48088 0.52331 0.0
Zn103 Zn 0.04467 0.4992 0.58002 0.0
O104 O 0.02028 0.50553 0.65856 0.0
O105 O 1.00174 0.54006 0.58325 0.0
O106 O 0.07162 0.54832 0.57572 0.0
O107 O 0.05426 0.57574 0.4915 0.0
O108 O 0.07093 0.49354 0.48469 0.0
O109 O 0.08088 0.46309 0.56909 0.0
C110 C 0.99955 0.52932 0.63904 0.0
C111 C 0.08741 0.46899 0.51263 0.0
H112 H 0.07462 0.08651 0.41438 0.0
H113 H 0.02876 0.04817 0.24424 0.0
H114 H 0.07152 0.08357 0.18483 0.0
H115 H 0.09185 0.17379 0.36545 0.0
H116 H 0.13238 0.17633 0.40773 0.0
H117 H 0.09779 0.14855 0.43494 0.0
H118 H 0.14008 0.09527 0.43457 0.0
H119 H 0.17479 0.12285 0.40723 0.0
H120 H 0.16294 0.08406 0.36478 0.0
H121 H 0.12026 0.12508 0.14533 0.0
H122 H 0.1699 0.16586 0.13034 0.0
H123 H 0.18263 0.17344 0.32859 0.0
C124 C 0.07315 0.08557 0.36456 0.0
C125 C 0.04806 0.06478 0.33392 0.0
C126 C 0.04767 0.06404 0.26868 0.0
C127 C 0.07184 0.08405 0.23468 0.0
C128 C 0.09627 0.10428 0.2668 0.0
C129 C 0.09701 0.10488 0.33041 0.0
C130 C 0.12594 0.12781 0.35495 0.0
C131 C 0.11109 0.15843 0.39299 0.0
C132 C 0.1525 0.1062 0.39258 0.0
C133 C 0.14151 0.14043 0.29527 0.0
C134 C 0.12417 0.12685 0.24467 0.0
C135 C 0.13401 0.13566 0.18476 0.0
C136 C 0.1622 0.15885 0.17668 0.0
C137 C 0.1803 0.17272 0.22827 0.0
C138 C 0.16963 0.16316 0.28808 0.0
H139 H 0.08384 0.9745 0.62928 0.0
H140 H 0.09553 0.96966 0.43077 0.0
H141 H 0.1499 0.93542 0.44325 0.0
H142 H 0.17765 0.97864 0.66895 0.0
H143 H 0.17284 0.95044 0.73499 0.0
H144 H 0.13708 0.97814 0.71091 0.0
H145 H 0.09679 0.92381 0.70341 0.0
H146 H 0.13238 0.89603 0.72744 0.0
H147 H 0.10982 0.88722 0.65611 0.0
H148 H 0.20109 0.89881 0.47666 0.0
H149 H 0.24336 0.85954 0.52886 0.0
H150 H 0.19715 0.88618 0.70524 0.0
C151 C 0.09831 0.96681 0.58864 0.0
C152 C 0.08572 0.9749 0.52912 0.0
C153 C 0.10479 0.96368 0.47683 0.0
C154 C 0.13579 0.9444 0.48341 0.0
C155 C 0.14728 0.93629 0.54263 0.0
C156 C 0.12907 0.94697 0.59438 0.0
C157 C 0.14545 0.93212 0.65244 0.0
C158 C 0.15907 0.9616 0.69429 0.0
C159 C 0.11957 0.90839 0.68685 0.0
C160 C 0.17528 0.91109 0.62512 0.0
C161 C 0.17622 0.91425 0.5618 0.0
C162 C 0.2008 0.89631 0.52632 0.0
C163 C 0.22474 0.87411 0.55633 0.0
C164 C 0.2236 0.86976 0.62106 0.0
C165 C 0.19879 0.88896 0.65568 0.0
H166 H 0.45284 0.9403 0.98493 0.0
H167 H 0.44038 0.02441 0.8517 0.0
H168 H 0.38691 0.99632 0.81213 0.0
H169 H 0.42739 0.87189 0.88539 0.0
H170 H 0.40483 0.84704 0.94353 0.0
H171 H 0.44036 0.87531 0.96509 0.0
H172 H 0.39984 0.90756 0.04207 0.0
H173 H 0.36405 0.87952 0.02028 0.0
H174 H 0.35937 0.92645 0.01498 0.0
H175 H 0.33803 0.9576 0.7816 0.0
H176 H 0.29805 0.90872 0.75824 0.0
H177 H 0.34071 0.84949 0.91146 0.0
C178 C 0.43866 0.95302 0.94787 0.0
C179 C 0.45078 0.98466 0.92152 0.0
C180 C 0.43168 1.0002 0.8726 0.0
C181 C 0.40113 0.98456 0.85007 0.0
C182 C 0.38994 0.95343 0.877 0.0
C183 C 0.40812 0.93769 0.92465 0.0
C184 C 0.39167 0.90301 0.94249 0.0
C185 C 0.4176 0.87252 0.93356 0.0
C186 C 0.37791 0.90422 0.00891 0.0
C187 C 0.36187 0.90132 0.89637 0.0
C188 C 0.3612 0.93097 0.8596 0.0
C189 C 0.33786 0.93457 0.8107 0.0
C190 C 0.31524 0.90678 0.79789 0.0
C191 C 0.31593 0.87594 0.834 0.0
C192 C 0.33899 0.87338 0.88464 0.0
H193 H 0.34173 0.17193 0.15549 0.0
H194 H 0.35175 0.15879 0.35332 0.0
H195 H 0.4003 0.11656 0.3369 0.0
H196 H 0.35991 0.08285 0.11235 0.0
H197 H 0.38397 0.09542 0.04465 0.0
H198 H 0.34945 0.12318 0.073 0.0
H199 H 0.39256 0.17539 0.07925 0.0
H200 H 0.4272 0.1478 0.051 0.0
H201 H 0.43243 0.17073 0.12301 0.0
H202 H 0.44863 0.07497 0.29623 0.0
H203 H 0.49254 0.04119 0.23613 0.0
H204 H 0.45001 0.08497 0.0672 0.0
C205 C 0.35384 0.16002 0.19556 0.0
C206 C 0.34277 0.16848 0.25569 0.0
C207 C 0.35975 0.15261 0.30676 0.0
C208 C 0.3873 0.12857 0.29786 0.0
C209 C 0.39761 0.12094 0.23768 0.0
C210 C 0.38135 0.13644 0.18756 0.0
C211 C 0.3977 0.12514 0.12758 0.0
C212 C 0.37118 0.10547 0.08703 0.0
C213 C 0.41341 0.15664 0.09322 0.0
C214 C 0.42583 0.10084 0.15145 0.0
C215 C 0.42543 0.09833 0.21493 0.0
C216 C 0.44916 0.07689 0.2465 0.0
C217 C 0.47396 0.05777 0.21211 0.0
C218 C 0.47492 0.06067 0.14708 0.0
C219 C 0.45034 0.08242 0.1169 0.0
H220 H 0.90224 0.91416 0.45354 0.0
H221 H 0.96559 0.9433 0.61192 0.0
H222 H 0.93597 0.89927 0.67467 0.0
H223 H 0.82306 0.90069 0.53802 0.0
H224 H 0.80882 0.86325 0.49411 0.0
H225 H 0.83612 0.89587 0.45872 0.0
H226 H 0.88118 0.84793 0.42963 0.0
H227 H 0.85394 0.81512 0.46477 0.0
H228 H 0.89878 0.81981 0.48893 0.0
H229 H 0.89937 0.85495 0.72245 0.0
H230 H 0.85675 0.8107 0.75387 0.0
H231 H 0.81497 0.80802 0.56739 0.0
C232 C 0.91003 0.9109 0.5012 0.0
C233 C 0.93622 0.93237 0.52771 0.0
C234 C 0.94547 0.92751 0.59047 0.0
C235 C 0.92889 0.90241 0.62667 0.0
C236 C 0.90294 0.88215 0.59979 0.0
C237 C 0.89342 0.88583 0.53865 0.0
C238 C 0.86368 0.86098 0.52283 0.0
C239 C 0.83098 0.88143 0.50221 0.0
C240 C 0.87509 0.83438 0.47362 0.0
C241 C 0.85801 0.84325 0.58483 0.0
C242 C 0.8812 0.85596 0.62816 0.0
C243 C 0.88112 0.84457 0.68898 0.0
C244 C 0.85666 0.8194 0.70637 0.0
C245 C 0.8324 0.80573 0.66323 0.0
C246 C 0.83322 0.81782 0.60143 0.0
H247 H 0.9218 0.09536 0.38857 0.0
H248 H 0.91389 0.10226 0.58742 0.0
H249 H 0.86622 0.14613 0.57621 0.0
H250 H 0.90959 0.18724 0.36084 0.0
H251 H 0.88572 0.18059 0.2901 0.0
H252 H 0.91775 0.14883 0.31464 0.0
H253 H 0.87092 0.09999 0.30901 0.0
H254 H 0.83867 0.13165 0.28484 0.0
H255 H 0.83089 0.10487 0.35179 0.0
H256 H 0.81773 0.18821 0.54158 0.0
H257 H 0.77786 0.22944 0.48765 0.0
H258 H 0.82132 0.19708 0.31227 0.0
C259 C 0.90988 0.10592 0.42982 0.0
C260 C 0.92116 0.09518 0.4889 0.0
C261 C 0.9055 0.11014 0.54175 0.0
C262 C 0.87836 0.1349 0.53577 0.0
C263 C 0.86769 0.14476 0.47663 0.0
C264 C 0.88341 0.13107 0.42466 0.0
C265 C 0.86868 0.1472 0.3664 0.0
C266 C 0.89713 0.16715 0.33093 0.0
C267 C 0.85125 0.11926 0.32563 0.0
C268 C 0.84194 0.17201 0.39346 0.0
C269 C 0.84134 0.16997 0.45705 0.0
C270 C 0.81817 0.19012 0.49185 0.0
C271 C 0.79551 0.21332 0.46085 0.0
C272 C 0.79663 0.21654 0.39587 0.0
C273 C 0.82002 0.19537 0.36203 0.0
H274 H 0.69485 0.19555 0.22681 0.0
H275 H 0.73736 0.24564 0.06415 0.0
H276 H 0.70406 0.20451 0.99809 0.0
H277 H 0.69673 0.10647 0.16619 0.0
H278 H 0.6567 0.0945 0.20421 0.0
H279 H 0.68481 0.12715 0.23783 0.0
H280 H 0.63312 0.17121 0.23985 0.0
H281 H 0.60491 0.1388 0.20602 0.0
H282 H 0.6099 0.18089 0.16944 0.0
H283 H 0.66168 0.16076 0.95036 0.0
H284 H 0.61799 0.1151 0.9252 0.0
H285 H 0.60664 0.09207 0.11978 0.0
C286 C 0.69739 0.19775 0.17727 0.0
C287 C 0.71856 0.22387 0.15053 0.0
C288 C 0.72137 0.22572 0.08556 0.0
C289 C 0.70248 0.20255 0.04774 0.0
C290 C 0.68142 0.1774 0.07572 0.0
C291 C 0.67922 0.17459 0.13907 0.0
C292 C 0.65473 0.14549 0.15798 0.0
C293 C 0.67443 0.1167 0.19365 0.0
C294 C 0.62384 0.15998 0.19552 0.0
C295 C 0.64296 0.13264 0.0954 0.0
C296 C 0.65841 0.15146 0.04842 0.0
C297 C 0.64986 0.14553 0.98677 0.0
C298 C 0.62497 0.11966 0.97292 0.0
C299 C 0.6093 0.0998 0.02048 0.0
C300 C 0.61868 0.10636 0.08236 0.0
H301 H 0.62375 0.91463 0.03455 0.0
H302 H 0.58107 0.95754 0.86462 0.0
H303 H 0.61515 0.91511 0.8048 0.0
H304 H 0.71066 0.89959 0.97552 0.0
H305 H 0.71741 0.85906 0.01661 0.0
H306 H 0.68883 0.89216 0.0478 0.0
H307 H 0.63852 0.84704 0.05309 0.0
H308 H 0.66697 0.81379 0.02197 0.0
H309 H 0.62599 0.82356 0.98446 0.0
H310 H 0.65283 0.86915 0.76229 0.0
H311 H 0.69426 0.82191 0.73834 0.0
H312 H 0.71533 0.80784 0.93373 0.0
C313 C 0.62152 0.91491 0.98481 0.0
C314 C 0.59969 0.93953 0.95442 0.0
C315 C 0.59769 0.93919 0.88916 0.0
C316 C 0.61689 0.91507 0.85458 0.0
C317 C 0.63825 0.89141 0.88563 0.0
C318 C 0.64092 0.89102 0.94913 0.0
C319 C 0.66671 0.863 0.97007 0.0
C320 C 0.69774 0.87944 0.00454 0.0
C321 C 0.64845 0.8352 0.00975 0.0
C322 C 0.67794 0.84793 0.90833 0.0
C323 C 0.66091 0.86474 0.86052 0.0
C324 C 0.66641 0.85573 0.79924 0.0
C325 C 0.69003 0.82875 0.78617 0.0
C326 C 0.70816 0.81107 0.83406 0.0
C327 C 0.70199 0.8209 0.89607 0.0
H328 H 0.59967 0.56381 0.9302 0.0
H329 H 0.56376 0.51523 0.76104 0.0
H330 H 0.60534 0.55187 0.70164 0.0
H331 H 0.60613 0.64848 0.87429 0.0
H332 H 0.64471 0.65958 0.91784 0.0
H333 H 0.61511 0.62699 0.94664 0.0
H334 H 0.66562 0.58166 0.95338 0.0
H335 H 0.69558 0.61431 0.92556 0.0
H336 H 0.69179 0.57291 0.88617 0.0
H337 H 0.64722 0.59943 0.66089 0.0
H338 H 0.68848 0.64857 0.64413 0.0
H339 H 0.69562 0.66383 0.84187 0.0
C340 C 0.60098 0.56032 0.88073 0.0
C341 C 0.57858 0.53671 0.85012 0.0
C342 C 0.58102 0.53294 0.78538 0.0
C343 C 0.60437 0.5538 0.75135 0.0
C344 C 0.62526 0.57782 0.78304 0.0
C345 C 0.62407 0.5806 0.8465 0.0
C346 C 0.64796 0.60904 0.87012 0.0
C347 C 0.62723 0.6377 0.9042 0.0
C348 C 0.67696 0.59354 0.91122 0.0
C349 C 0.66242 0.62247 0.81005 0.0
C350 C 0.64918 0.60433 0.76011 0.0
C351 C 0.65803 0.61346 0.69983 0.0
C352 C 0.68129 0.64151 0.69071 0.0
C353 C 0.69542 0.65995 0.74166 0.0
C354 C 0.68561 0.65015 0.80185 0.0
H355 H 0.68271 0.35501 0.16331 0.0
H356 H 0.65458 0.37372 0.35388 0.0
H357 H 0.61328 0.42028 0.32039 0.0
H358 H 0.67814 0.44399 0.10996 0.0
H359 H 0.65919 0.43244 0.03662 0.0
H360 H 0.68734 0.40183 0.07608 0.0
H361 H 0.6387 0.35475 0.07222 0.0
H362 H 0.61053 0.38509 0.03227 0.0
H363 H 0.59611 0.3649 0.10279 0.0
H364 H 0.57595 0.46627 0.26449 0.0
H365 H 0.541 0.50207 0.19123 0.0
H366 H 0.59175 0.44976 0.03823 0.0
C367 C 0.66799 0.36901 0.19809 0.0
C368 C 0.67202 0.36103 0.26123 0.0
C369 C 0.65183 0.37947 0.30524 0.0
C370 C 0.6285 0.40606 0.28665 0.0
C371 C 0.62538 0.41347 0.22387 0.0
C372 C 0.64424 0.39504 0.1803 0.0
C373 C 0.63491 0.40651 0.11559 0.0
C374 C 0.66679 0.42212 0.08265 0.0
C375 C 0.61911 0.376 0.07856 0.0
C376 C 0.60784 0.43437 0.12933 0.0
C377 C 0.603 0.43848 0.19199 0.0
C378 C 0.57946 0.46311 0.21535 0.0
C379 C 0.55988 0.48347 0.1735 0.0
C380 C 0.56361 0.47857 0.10918 0.0
C381 C 0.5882 0.45395 0.08718 0.0
H382 H 0.85942 0.37476 0.2592 0.0
H383 H 0.79725 0.35908 0.42421 0.0
H384 H 0.83597 0.39822 0.48172 0.0
H385 H 0.94221 0.37633 0.33389 0.0
H386 H 0.96049 0.41049 0.28668 0.0
H387 H 0.92693 0.38245 0.25595 0.0
H388 H 0.8891 0.43683 0.22938 0.0
H389 H 0.92261 0.46507 0.25994 0.0
H390 H 0.87863 0.46799 0.28902 0.0
H391 H 0.88287 0.43407 0.52464 0.0
H392 H 0.93511 0.46889 0.54969 0.0
H393 H 0.96682 0.46581 0.35804 0.0
C394 C 0.85381 0.3799 0.30722 0.0
C395 C 0.82521 0.3637 0.337 0.0
C396 C 0.81886 0.37105 0.40005 0.0
C397 C 0.84072 0.39333 0.43336 0.0
C398 C 0.86877 0.40851 0.40309 0.0
C399 C 0.87535 0.40253 0.34142 0.0
C400 C 0.90796 0.42199 0.32114 0.0
C401 C 0.93606 0.39627 0.29806 0.0
C402 C 0.89903 0.44961 0.27195 0.0
C403 C 0.91884 0.43909 0.38143 0.0
C404 C 0.89573 0.43073 0.42792 0.0
C405 C 0.90094 0.44128 0.48859 0.0
C406 C 0.9307 0.46087 0.50241 0.0
C407 C 0.95463 0.47012 0.45571 0.0
C408 C 0.94848 0.45949 0.39424 0.0
H409 H 0.83717 0.65285 0.68294 0.0
H410 H 0.86649 0.66715 0.87455 0.0
H411 H 0.91271 0.62181 0.86261 0.0
H412 H 0.8522 0.5589 0.67464 0.0
H413 H 0.86887 0.56159 0.59722 0.0
H414 H 0.83672 0.59277 0.62334 0.0
H415 H 0.8779 0.644 0.5941 0.0
H416 H 0.90999 0.61305 0.56756 0.0
H417 H 0.92161 0.64496 0.62524 0.0
H418 H 0.95889 0.5766 0.8251 0.0
H419 H 1.00062 0.53982 0.76538 0.0
H420 H 0.93854 0.55709 0.60073 0.0
C421 C 0.85296 0.64635 0.72287 0.0
C422 C 0.84816 0.66358 0.77973 0.0
C423 C 0.86965 0.65423 0.8305 0.0
C424 C 0.89587 0.62844 0.82416 0.0
C425 C 0.89999 0.61217 0.76695 0.0
C426 C 0.87894 0.62093 0.71736 0.0
C427 C 0.88944 0.60165 0.65966 0.0
C428 C 0.86006 0.57728 0.63744 0.0
C429 C 0.90039 0.62745 0.60868 0.0
C430 C 0.92023 0.58104 0.68381 0.0
C431 C 0.92596 0.58691 0.74587 0.0
C432 C 0.95434 0.57162 0.77666 0.0
C433 C 0.97779 0.55065 0.74261 0.0
C434 C 0.97275 0.54571 0.67857 0.0
C435 C 0.9431 0.56042 0.64968 0.0
H436 H 0.41971 0.40059 0.9515 0.0
H437 H 0.42603 0.47478 0.10318 0.0
H438 H 0.3869 0.43809 0.16421 0.0
H439 H 0.32674 0.37939 0.97472 0.0
H440 H 0.33229 0.33378 0.95532 0.0
H441 H 0.36035 0.36629 0.92137 0.0
H442 H 0.41465 0.3326 0.96175 0.0
H443 H 0.38677 0.30013 0.99614 0.0
H444 H 0.41835 0.32298 0.04284 0.0
H445 H 0.35165 0.39238 0.21291 0.0
H446 H 0.31627 0.34155 0.24355 0.0
H447 H 0.32802 0.29722 0.06055 0.0
C448 C 0.41251 0.40924 0.99725 0.0
C449 C 0.42613 0.44065 0.02231 0.0
C450 C 0.41605 0.45097 0.08253 0.0
C451 C 0.39382 0.43025 0.1179 0.0
C452 C 0.38133 0.39934 0.09245 0.0
C453 C 0.38974 0.38895 0.03332 0.0
C454 C 0.37228 0.35429 0.01786 0.0
C455 C 0.34637 0.35871 0.96413 0.0
C456 C 0.39965 0.32582 1.00383 0.0
C457 C 0.35337 0.34683 0.07793 0.0
C458 C 0.35932 0.37317 0.12026 0.0
C459 C 0.34636 0.37174 0.18003 0.0
C460 C 0.32649 0.34267 0.1971 0.0
C461 C 0.31932 0.31561 0.15438 0.0
C462 C 0.3328 0.3178 0.09385 0.0
H463 H 0.33984 0.72999 0.85137 0.0
H464 H 0.35998 0.70801 0.65849 0.0
H465 H 0.39767 0.65807 0.6888 0.0
H466 H 0.42761 0.70936 0.90578 0.0
H467 H 0.41248 0.69047 0.97695 0.0
H468 H 0.38749 0.72464 0.93997 0.0
H469 H 0.33308 0.68442 0.93903 0.0
H470 H 0.35794 0.65005 0.97561 0.0
H471 H 0.33588 0.64178 0.90359 0.0
H472 H 0.42985 0.60861 0.73973 0.0
H473 H 0.45918 0.56587 0.8075 0.0
H474 H 0.42097 0.62167 0.9682 0.0
C475 C 0.35231 0.71477 0.81547 0.0
C476 C 0.34687 0.72276 0.75247 0.0
C477 C 0.36387 0.70242 0.70696 0.0
C478 C 0.38519 0.67395 0.72375 0.0
C479 C 0.38962 0.66653 0.78624 0.0
C480 C 0.37407 0.68663 0.83144 0.0
C481 C 0.38346 0.67332 0.89529 0.0
C482 C 0.40399 0.7011 0.93163 0.0
C483 C 0.35063 0.6617 0.93043 0.0
C484 C 0.40638 0.64225 0.87896 0.0
C485 C 0.40931 0.63871 0.81575 0.0
C486 C 0.428 0.6113 0.78924 0.0
C487 C 0.4444 0.58703 0.82824 0.0
C488 C 0.4424 0.59043 0.89321 0.0
C489 C 0.42316 0.61852 0.91878 0.0
H490 H 0.1965 0.68932 0.76036 0.0
H491 H 0.17257 0.77791 0.64252 0.0
H492 H 0.13179 0.74146 0.58207 0.0
H493 H 0.19904 0.62698 0.64364 0.0
H494 H 0.17909 0.59185 0.68633 0.0
H495 H 0.20271 0.62563 0.72645 0.0
H496 H 0.14836 0.63946 0.7931 0.0
H497 H 0.12476 0.60517 0.75408 0.0
H498 H 0.10723 0.64906 0.75594 0.0
H499 H 0.09914 0.69445 0.52749 0.0
H500 H 0.07155 0.64058 0.48786 0.0
H501 H 0.11647 0.58173 0.64025 0.0
C502 C 0.18153 0.70119 0.72338 0.0
C503 C 0.18683 0.73649 0.70668 0.0
C504 C 0.16812 0.75101 0.65645 0.0
C505 C 0.14512 0.7305 0.62172 0.0
C506 C 0.14125 0.69542 0.63772 0.0
C507 C 0.15847 0.68089 0.68784 0.0
C508 C 0.15114 0.64193 0.69244 0.0
C509 C 0.18502 0.62034 0.68687 0.0
C510 C 0.13171 0.63341 0.75245 0.0
C511 C 0.12777 0.63688 0.63657 0.0
C512 C 0.12242 0.66808 0.60572 0.0
C513 C 0.10276 0.66988 0.55163 0.0
C514 C 0.08742 0.63908 0.52919 0.0
C515 C 0.09178 0.6069 0.56085 0.0
C516 C 0.11254 0.6059 0.61497 0.0
H517 H 0.20735 0.30181 0.43143 0.0
H518 H 0.20829 0.34154 0.24393 0.0
H519 H 0.17509 0.39353 0.27705 0.0
H520 H 0.11926 0.32905 0.46415 0.0
H521 H 0.12797 0.34052 0.54327 0.0
H522 H 0.15366 0.30707 0.50612 0.0
H523 H 0.2102 0.34094 0.53325 0.0
H524 H 0.18464 0.37462 0.57023 0.0
H525 H 0.21456 0.386 0.50952 0.0
H526 H 0.14234 0.44064 0.32839 0.0
H527 H 0.10665 0.47889 0.3936 0.0
H528 H 0.12336 0.40885 0.54904 0.0
C529 C 0.20069 0.3216 0.39757 0.0
C530 C 0.21049 0.3177 0.33508 0.0
C531 C 0.20093 0.34388 0.29191 0.0
C532 C 0.18227 0.37363 0.31034 0.0
C533 C 0.173 0.37673 0.37204 0.0
C534 C 0.18145 0.35138 0.41505 0.0
C535 C 0.16644 0.36063 0.47777 0.0
C536 C 0.14028 0.33266 0.49906 0.0
C537 C 0.19571 0.36586 0.52551 0.0
C538 C 0.14816 0.39505 0.46297 0.0
C539 C 0.1528 0.40385 0.40179 0.0
C540 C 0.13843 0.43406 0.37638 0.0
C541 C 0.11815 0.45566 0.41405 0.0
C542 C 0.112 0.44694 0.47663 0.0
C543 C 0.12766 0.41636 0.50156 0.0
loop_
_geom_bond_atom_site_label_1
_geom_bond_atom_site_label_2
_geom_bond_distance
_geom_bond_site_symmetry_2
_ccdc_geom_bond_type
C0 O2 1.247 . S
C0 O4 1.258 . S
C1 O8 1.247 . S
C1 O9 1.258 . S
O2 C0 1.247 . S
O2 Zn3 2.030 1_655 S
Zn3 O2 2.030 1_455 S
Zn3 O7 2.037 1_465 S
Zn3 O9 2.033 1_565 S
Zn3 O10 2.026 . S
O4 C0 1.258 . S
O4 Zn5 2.033 1_665 S
Zn5 O4 2.033 1_445 S
Zn5 O6 2.026 1_455 S
Zn5 O8 2.030 . S
Zn5 O11 2.037 1_545 S
O6 Zn5 2.026 1_655 S
O6 C12 1.247 . S
O7 Zn3 2.037 1_645 S
O7 C12 1.258 . S
O8 C1 1.247 . S
O8 Zn5 2.030 . S
O9 C1 1.258 . S
O9 Zn3 2.033 1_545 S
O10 Zn3 2.026 . S
O10 C13 1.247 . S
O11 Zn5 2.037 1_565 S
O11 C13 1.258 . S
C12 O6 1.247 . S
C12 O7 1.258 . S
C13 O10 1.247 . S
C13 O11 1.258 . S
C14 O16 1.247 . S
C14 O18 1.258 . S
C15 O22 1.247 . S
C15 O23 1.258 . S
O16 C14 1.247 . S
O16 Zn17 2.028 . S
Zn17 O16 2.028 . S
Zn17 O21 2.035 . S
Zn17 O23 2.035 . S
Zn17 O24 2.028 . S
O18 C14 1.258 . S
O18 Zn19 2.035 . S
Zn19 O18 2.035 . S
Zn19 O20 2.028 . S
Zn19 O22 2.028 . S
Zn19 O25 2.035 . S
O20 Zn19 2.028 . S
O20 C26 1.247 . S
O21 Zn17 2.035 . S
O21 C26 1.258 . S
O22 C15 1.247 . S
O22 Zn19 2.028 . S
O23 C15 1.258 . S
O23 Zn17 2.035 . S
O24 Zn17 2.028 . S
O24 C27 1.247 . S
O25 Zn19 2.035 . S
O25 C27 1.258 . S
C26 O20 1.247 . S
C26 O21 1.258 . S
C27 O24 1.247 . S
C27 O25 1.258 . S
C28 O30 1.247 . S
C28 O32 1.258 1_556 S
C29 O36 1.247 . S
C29 O37 1.258 1_554 S
O30 C28 1.247 . S
O30 Zn31 2.028 1_565 S
Zn31 O30 2.028 1_545 S
Zn31 O35 2.035 . S
Zn31 O37 2.035 . S
Zn31 O38 2.028 1_545 S
O32 C28 1.258 1_554 S
O32 Zn33 2.035 . S
Zn33 O32 2.035 . S
Zn33 O34 2.028 1_565 S
Zn33 O36 2.028 1_565 S
Zn33 O39 2.035 . S
O34 Zn33 2.028 1_545 S
O34 C40 1.247 . S
O35 Zn31 2.035 . S
O35 C40 1.258 1_556 S
O36 C29 1.247 . S
O36 Zn33 2.028 1_545 S
O37 C29 1.258 1_556 S
O37 Zn31 2.035 . S
O38 Zn31 2.028 1_565 S
O38 C41 1.247 . S
O39 Zn33 2.035 . S
O39 C41 1.258 1_554 S
C40 O34 1.247 . S
C40 O35 1.258 1_554 S
C41 O38 1.247 . S
C41 O39 1.258 1_556 S
C42 O44 1.247 . S
C42 O46 1.258 . S
C43 O50 1.247 . S
C43 O51 1.258 . S
O44 C42 1.247 . S
O44 Zn45 2.028 . S
Zn45 O44 2.028 . S
Zn45 O49 2.035 . S
Zn45 O51 2.035 . S
Zn45 O52 2.028 . S
O46 C42 1.258 . S
O46 Zn47 2.035 . S
Zn47 O46 2.035 . S
Zn47 O48 2.028 . S
Zn47 O50 2.028 . S
Zn47 O53 2.035 . S
O48 Zn47 2.028 . S
O48 C54 1.247 . S
O49 Zn45 2.035 . S
O49 C54 1.258 . S
O50 C43 1.247 . S
O50 Zn47 2.028 . S
O51 C43 1.258 . S
O51 Zn45 2.035 . S
O52 Zn45 2.028 . S
O52 C55 1.247 . S
O53 Zn47 2.035 . S
O53 C55 1.258 . S
C54 O48 1.247 . S
C54 O49 1.258 . S
C55 O52 1.247 . S
C55 O53 1.258 . S
C56 O58 1.247 . S
C56 O60 1.258 . S
C57 O64 1.247 . S
C57 O65 1.258 . S
O58 C56 1.247 . S
O58 Zn59 2.028 . S
Zn59 O58 2.028 . S
Zn59 O63 2.035 . S
Zn59 O65 2.035 . S
Zn59 O66 2.028 . S
O60 C56 1.258 . S
O60 Zn61 2.035 . S
Zn61 O60 2.035 . S
Zn61 O62 2.028 . S
Zn61 O64 2.028 . S
Zn61 O67 2.035 . S
O62 Zn61 2.028 . S
O62 C68 1.247 . S
O63 Zn59 2.035 . S
O63 C68 1.258 . S
O64 C57 1.247 . S
O64 Zn61 2.028 . S
O65 C57 1.258 . S
O65 Zn59 2.035 . S
O66 Zn59 2.028 . S
O66 C69 1.247 . S
O67 Zn61 2.035 . S
O67 C69 1.258 . S
C68 O62 1.247 . S
C68 O63 1.258 . S
C69 O66 1.247 . S
C69 O67 1.258 . S
C70 O72 1.247 . S
C70 O74 1.258 . S
C71 O78 1.247 . S
C71 O79 1.258 . S
O72 C70 1.247 . S
O72 Zn73 2.028 . S
Zn73 O72 2.028 . S
Zn73 O77 2.035 . S
Zn73 O79 2.035 . S
Zn73 O80 2.028 . S
O74 C70 1.258 . S
O74 Zn75 2.035 . S
Zn75 O74 2.035 . S
Zn75 O76 2.028 . S
Zn75 O78 2.028 . S
Zn75 O81 2.035 . S
O76 Zn75 2.028 . S
O76 C82 1.247 . S
O77 Zn73 2.035 . S
O77 C82 1.258 . S
O78 C71 1.247 . S
O78 Zn75 2.028 . S
O79 C71 1.258 . S
O79 Zn73 2.035 . S
O80 Zn73 2.028 . S
O80 C83 1.247 . S
O81 Zn75 2.035 . S
O81 C83 1.258 . S
C82 O76 1.247 . S
C82 O77 1.258 . S
C83 O80 1.247 . S
C83 O81 1.258 . S
C84 O86 1.247 1_556 S
C84 O88 1.258 . S
C85 O92 1.247 1_554 S
C85 O93 1.258 . S
O86 C84 1.247 1_554 S
O86 Zn87 2.028 . S
Zn87 O86 2.028 . S
Zn87 O91 2.035 . S
Zn87 O93 2.035 . S
Zn87 O94 2.028 . S
O88 C84 1.258 . S
O88 Zn89 2.035 . S
Zn89 O88 2.035 . S
Zn89 O90 2.028 . S
Zn89 O92 2.028 . S
Zn89 O95 2.035 . S
O90 Zn89 2.028 . S
O90 C96 1.247 1_556 S
O91 Zn87 2.035 . S
O91 C96 1.258 . S
O92 C85 1.247 1_556 S
O92 Zn89 2.028 . S
O93 C85 1.258 . S
O93 Zn87 2.035 . S
O94 Zn87 2.028 . S
O94 C97 1.247 1_554 S
O95 Zn89 2.035 . S
O95 C97 1.258 . S
C96 O90 1.247 1_554 S
C96 O91 1.258 . S
C97 O94 1.247 1_556 S
C97 O95 1.258 . S
C98 O100 1.247 . S
C98 O102 1.258 . S
C99 O106 1.247 . S
C99 O107 1.258 . S
O100 C98 1.247 . S
O100 Zn101 2.030 1_655 S
Zn101 O100 2.030 1_455 S
Zn101 O105 2.037 1_455 S
Zn101 O107 2.033 . S
Zn101 O108 2.026 . S
O102 C98 1.258 . S
O102 Zn103 2.033 1_655 S
Zn103 O102 2.033 1_455 S
Zn103 O104 2.026 1_455 S
Zn103 O106 2.030 . S
Zn103 O109 2.037 . S
O104 Zn103 2.026 1_655 S
O104 C110 1.247 . S
O105 Zn101 2.037 1_655 S
O105 C110 1.258 . S
O106 C99 1.247 . S
O106 Zn103 2.030 . S
O107 C99 1.258 . S
O107 Zn101 2.033 . S
O108 Zn101 2.026 . S
O108 C111 1.247 . S
O109 Zn103 2.037 . S
O109 C111 1.258 . S
C110 O104 1.247 . S
C110 O105 1.258 . S
C111 O108 1.247 . S
C111 O109 1.258 . S
H112 C124 0.930 . S
H113 C126 0.930 . S
H114 C127 0.930 . S
H115 C131 0.959 . S
H116 C131 0.959 . S
H117 C131 0.961 . S
H118 C132 0.960 . S
H119 C132 0.961 . S
H120 C132 0.959 . S
H121 C135 0.929 . S
H122 C136 0.931 . S
H123 C138 0.930 . S
C124 H112 0.930 . S
C124 C125 1.399 . S
C124 C129 1.399 . S
C125 C124 1.399 . S
C125 C126 1.376 . S
C126 H113 0.930 . S
C126 C125 1.376 . S
C126 C127 1.388 . S
C127 H114 0.930 . S
C127 C126 1.388 . S
C127 C128 1.390 . S
C128 C127 1.390 . S
C128 C129 1.394 . S
C128 C134 1.465 . S
C129 C124 1.399 . S
C129 C128 1.394 . S
C129 C130 1.516 . S
C130 C129 1.516 . S
C130 C131 1.502 . S
C130 C132 1.561 . S
C130 C133 1.526 . S
C131 H115 0.959 . S
C131 H116 0.959 . S
C131 H117 0.961 . S
C131 C130 1.502 . S
C132 H118 0.960 . S
C132 H119 0.961 . S
C132 H120 0.959 . S
C132 C130 1.561 . S
C133 C130 1.526 . S
C133 C134 1.396 . S
C133 C138 1.390 . S
C134 C128 1.465 . S
C134 C133 1.396 . S
C134 C135 1.399 . S
C135 H121 0.929 . S
C135 C134 1.399 . S
C135 C136 1.385 . S
C136 H122 0.931 . S
C136 C135 1.385 . S
C136 C137 1.389 . S
C137 C136 1.389 . S
C137 C138 1.387 . S
C138 H123 0.930 . S
C138 C133 1.390 . S
C138 C137 1.387 . S
H139 C151 0.930 . S
H140 C153 0.930 . S
H141 C154 0.930 . S
H142 C158 0.959 . S
H143 C158 0.959 . S
H144 C158 0.961 . S
H145 C159 0.960 . S
H146 C159 0.961 . S
H147 C159 0.959 . S
H148 C162 0.929 . S
H149 C163 0.931 . S
H150 C165 0.930 . S
C151 H139 0.930 . S
C151 C152 1.399 . S
C151 C156 1.399 . S
C152 C151 1.399 . S
C152 C153 1.376 . S
C153 H140 0.930 . S
C153 C152 1.376 . S
C153 C154 1.388 . S
C154 H141 0.930 . S
C154 C153 1.388 . S
C154 C155 1.390 . S
C155 C154 1.390 . S
C155 C156 1.394 . S
C155 C161 1.465 . S
C156 C151 1.399 . S
C156 C155 1.394 . S
C156 C157 1.516 . S
C157 C156 1.516 . S
C157 C158 1.502 . S
C157 C159 1.561 . S
C157 C160 1.526 . S
C158 H142 0.959 . S
C158 H143 0.959 . S
C158 H144 0.961 . S
C158 C157 1.502 . S
C159 H145 0.960 . S
C159 H146 0.961 . S
C159 H147 0.959 . S
C159 C157 1.561 . S
C160 C157 1.526 . S
C160 C161 1.396 . S
C160 C165 1.390 . S
C161 C155 1.465 . S
C161 C160 1.396 . S
C161 C162 1.399 . S
C162 H148 0.929 . S
C162 C161 1.399 . S
C162 C163 1.385 . S
C163 H149 0.931 . S
C163 C162 1.385 . S
C163 C164 1.389 . S
C164 C163 1.389 . S
C164 C165 1.387 . S
C165 H150 0.930 . S
C165 C160 1.390 . S
C165 C164 1.387 . S
H166 C178 0.930 . S
H167 C180 0.930 . S
H168 C181 0.930 . S
H169 C185 0.959 . S
H170 C185 0.959 . S
H171 C185 0.961 1_554 S
H172 C186 0.960 1_554 S
H173 C186 0.961 . S
H174 C186 0.959 . S
H175 C189 0.929 . S
H176 C190 0.931 . S
H177 C192 0.930 . S
C178 H166 0.930 . S
C178 C179 1.399 . S
C178 C183 1.399 . S
C179 C178 1.399 . S
C179 C180 1.376 . S
C180 H167 0.930 . S
C180 C179 1.376 . S
C180 C181 1.388 . S
C181 H168 0.930 . S
C181 C180 1.388 . S
C181 C182 1.390 . S
C182 C181 1.390 . S
C182 C183 1.394 . S
C182 C188 1.465 . S
C183 C178 1.399 . S
C183 C182 1.394 . S
C183 C184 1.516 . S
C184 C183 1.516 . S
C184 C185 1.502 . S
C184 C186 1.561 . S
C184 C187 1.526 . S
C185 H169 0.959 . S
C185 H170 0.959 . S
C185 H171 0.961 1_556 S
C185 C184 1.502 . S
C186 H172 0.960 1_556 S
C186 H173 0.961 . S
C186 H174 0.959 . S
C186 C184 1.561 . S
C187 C184 1.526 . S
C187 C188 1.396 . S
C187 C192 1.390 . S
C188 C182 1.465 . S
C188 C187 1.396 . S
C188 C189 1.399 . S
C189 H175 0.929 . S
C189 C188 1.399 . S
C189 C190 1.385 . S
C190 H176 0.931 . S
C190 C189 1.385 . S
C190 C191 1.389 . S
C191 C190 1.389 . S
C191 C192 1.387 . S
C192 H177 0.930 . S
C192 C187 1.390 . S
C192 C191 1.387 . S
H193 C205 0.930 . S
H194 C207 0.930 . S
H195 C208 0.930 . S
H196 C212 0.959 . S
H197 C212 0.959 . S
H198 C212 0.961 . S
H199 C213 0.960 . S
H200 C213 0.961 . S
H201 C213 0.959 . S
H202 C216 0.929 . S
H203 C217 0.931 1_556 S
H204 C219 0.930 . S
C205 H193 0.930 . S
C205 C206 1.399 . S
C205 C210 1.399 . S
C206 C205 1.399 . S
C206 C207 1.376 . S
C207 H194 0.930 . S
C207 C206 1.376 . S
C207 C208 1.388 . S
C208 H195 0.930 . S
C208 C207 1.388 . S
C208 C209 1.390 . S
C209 C208 1.390 . S
C209 C210 1.394 . S
C209 C215 1.465 . S
C210 C205 1.399 . S
C210 C209 1.394 . S
C210 C211 1.516 . S
C211 C210 1.516 . S
C211 C212 1.502 . S
C211 C213 1.561 . S
C211 C214 1.526 . S
C212 H196 0.959 . S
C212 H197 0.959 . S
C212 H198 0.961 . S
C212 C211 1.502 . S
C213 H199 0.960 . S
C213 H200 0.961 . S
C213 H201 0.959 . S
C213 C211 1.561 . S
C214 C211 1.526 . S
C214 C215 1.396 . S
C214 C219 1.390 . S
C215 C209 1.465 . S
C215 C214 1.396 . S
C215 C216 1.399 . S
C216 H202 0.929 . S
C216 C215 1.399 . S
C216 C217 1.385 . S
C217 H203 0.931 1_554 S
C217 C216 1.385 . S
C217 C218 1.389 . S
C218 C217 1.389 . S
C218 C219 1.387 . S
C219 H204 0.930 . S
C219 C214 1.390 . S
C219 C218 1.387 . S
H220 C232 0.930 . S
H221 C234 0.930 . S
H222 C235 0.930 . S
H223 C239 0.959 . S
H224 C239 0.959 . S
H225 C239 0.961 . S
H226 C240 0.960 . S
H227 C240 0.961 . S
H228 C240 0.959 . S
H229 C243 0.929 . S
H230 C244 0.931 . S
H231 C246 0.930 . S
C232 H220 0.930 . S
C232 C233 1.399 . S
C232 C237 1.399 . S
C233 C232 1.399 . S
C233 C234 1.376 . S
C234 H221 0.930 . S
C234 C233 1.376 . S
C234 C235 1.388 . S
C235 H222 0.930 . S
C235 C234 1.388 . S
C235 C236 1.390 . S
C236 C235 1.390 . S
C236 C237 1.394 . S
C236 C242 1.465 . S
C237 C232 1.399 . S
C237 C236 1.394 . S
C237 C238 1.516 . S
C238 C237 1.516 . S
C238 C239 1.502 . S
C238 C240 1.561 . S
C238 C241 1.526 . S
C239 H223 0.959 . S
C239 H224 0.959 . S
C239 H225 0.961 . S
C239 C238 1.502 . S
C240 H226 0.960 . S
C240 H227 0.961 . S
C240 H228 0.959 . S
C240 C238 1.561 . S
C241 C238 1.526 . S
C241 C242 1.396 . S
C241 C246 1.390 . S
C242 C236 1.465 . S
C242 C241 1.396 . S
C242 C243 1.399 . S
C243 H229 0.929 . S
C243 C242 1.399 . S
C243 C244 1.385 . S
C244 H230 0.931 . S
C244 C243 1.385 . S
C244 C245 1.389 . S
C245 C244 1.389 . S
C245 C246 1.387 . S
C246 H231 0.930 . S
C246 C241 1.390 . S
C246 C245 1.387 . S
H247 C259 0.930 . S
H248 C261 0.930 . S
H249 C262 0.930 . S
H250 C266 0.959 . S
H251 C266 0.959 . S
H252 C266 0.961 . S
H253 C267 0.960 . S
H254 C267 0.961 . S
H255 C267 0.959 . S
H256 C270 0.929 . S
H257 C271 0.931 . S
H258 C273 0.930 . S
C259 H247 0.930 . S
C259 C260 1.399 . S
C259 C264 1.399 . S
C260 C259 1.399 . S
C260 C261 1.376 . S
C261 H248 0.930 . S
C261 C260 1.376 . S
C261 C262 1.388 . S
C262 H249 0.930 . S
C262 C261 1.388 . S
C262 C263 1.390 . S
C263 C262 1.390 . S
C263 C264 1.394 . S
C263 C269 1.465 . S
C264 C259 1.399 . S
C264 C263 1.394 . S
C264 C265 1.516 . S
C265 C264 1.516 . S
C265 C266 1.502 . S
C265 C267 1.561 . S
C265 C268 1.526 . S
C266 H250 0.959 . S
C266 H251 0.959 . S
C266 H252 0.961 . S
C266 C265 1.502 . S
C267 H253 0.960 . S
C267 H254 0.961 . S
C267 H255 0.959 . S
C267 C265 1.561 . S
C268 C265 1.526 . S
C268 C269 1.396 . S
C268 C273 1.390 . S
C269 C263 1.465 . S
C269 C268 1.396 . S
C269 C270 1.399 . S
C270 H256 0.929 . S
C270 C269 1.399 . S
C270 C271 1.385 . S
C271 H257 0.931 . S
C271 C270 1.385 . S
C271 C272 1.389 . S
C272 C271 1.389 . S
C272 C273 1.387 . S
C273 H258 0.930 . S
C273 C268 1.390 . S
C273 C272 1.387 . S
H274 C286 0.930 . S
H275 C288 0.930 . S
H276 C289 0.930 . S
H277 C293 0.959 . S
H278 C293 0.959 . S
H279 C293 0.961 . S
H280 C294 0.960 . S
H281 C294 0.961 1_556 S
H282 C294 0.959 . S
H283 C297 0.929 . S
H284 C298 0.931 . S
H285 C300 0.930 . S
C286 H274 0.930 . S
C286 C287 1.399 . S
C286 C291 1.399 . S
C287 C286 1.399 . S
C287 C288 1.376 . S
C288 H275 0.930 . S
C288 C287 1.376 . S
C288 C289 1.388 . S
C289 H276 0.930 . S
C289 C288 1.388 . S
C289 C290 1.390 . S
C290 C289 1.390 . S
C290 C291 1.394 . S
C290 C296 1.465 . S
C291 C286 1.399 . S
C291 C290 1.394 . S
C291 C292 1.516 . S
C292 C291 1.516 . S
C292 C293 1.502 . S
C292 C294 1.561 . S
C292 C295 1.526 . S
C293 H277 0.959 . S
C293 H278 0.959 . S
C293 H279 0.961 . S
C293 C292 1.502 . S
C294 H280 0.960 . S
C294 H281 0.961 1_554 S
C294 H282 0.959 . S
C294 C292 1.561 . S
C295 C292 1.526 . S
C295 C296 1.396 . S
C295 C300 1.390 . S
C296 C290 1.465 . S
C296 C295 1.396 . S
C296 C297 1.399 . S
C297 H283 0.929 . S
C297 C296 1.399 . S
C297 C298 1.385 . S
C298 H284 0.931 . S
C298 C297 1.385 . S
C298 C299 1.389 . S
C299 C298 1.389 . S
C299 C300 1.387 . S
C300 H285 0.930 . S
C300 C295 1.390 . S
C300 C299 1.387 . S
H301 C313 0.930 . S
H302 C315 0.930 . S
H303 C316 0.930 . S
H304 C320 0.959 . S
H305 C320 0.959 1_554 S
H306 C320 0.961 1_554 S
H307 C321 0.960 . S
H308 C321 0.961 . S
H309 C321 0.959 . S
H310 C324 0.929 . S
H311 C325 0.931 . S
H312 C327 0.930 . S
C313 H301 0.930 . S
C313 C314 1.399 . S
C313 C318 1.399 . S
C314 C313 1.399 . S
C314 C315 1.376 . S
C315 H302 0.930 . S
C315 C314 1.376 . S
C315 C316 1.388 . S
C316 H303 0.930 . S
C316 C315 1.388 . S
C316 C317 1.390 . S
C317 C316 1.390 . S
C317 C318 1.394 . S
C317 C323 1.465 . S
C318 C313 1.399 . S
C318 C317 1.394 . S
C318 C319 1.516 . S
C319 C318 1.516 . S
C319 C320 1.502 . S
C319 C321 1.561 . S
C319 C322 1.526 . S
C320 H304 0.959 . S
C320 H305 0.959 1_556 S
C320 H306 0.961 1_556 S
C320 C319 1.502 . S
C321 H307 0.960 . S
C321 H308 0.961 . S
C321 H309 0.959 . S
C321 C319 1.561 . S
C322 C319 1.526 . S
C322 C323 1.396 . S
C322 C327 1.390 . S
C323 C317 1.465 . S
C323 C322 1.396 . S
C323 C324 1.399 . S
C324 H310 0.929 . S
C324 C323 1.399 . S
C324 C325 1.385 . S
C325 H311 0.931 . S
C325 C324 1.385 . S
C325 C326 1.389 . S
C326 C325 1.389 . S
C326 C327 1.387 . S
C327 H312 0.930 . S
C327 C322 1.390 . S
C327 C326 1.387 . S
H328 C340 0.930 . S
H329 C342 0.930 . S
H330 C343 0.930 . S
H331 C347 0.959 . S
H332 C347 0.959 . S
H333 C347 0.961 . S
H334 C348 0.960 . S
H335 C348 0.961 . S
H336 C348 0.959 . S
H337 C351 0.929 . S
H338 C352 0.931 . S
H339 C354 0.930 . S
C340 H328 0.930 . S
C340 C341 1.399 . S
C340 C345 1.399 . S
C341 C340 1.399 . S
C341 C342 1.376 . S
C342 H329 0.930 . S
C342 C341 1.376 . S
C342 C343 1.388 . S
C343 H330 0.930 . S
C343 C342 1.388 . S
C343 C344 1.390 . S
C344 C343 1.390 . S
C344 C345 1.394 . S
C344 C350 1.465 . S
C345 C340 1.399 . S
C345 C344 1.394 . S
C345 C346 1.516 . S
C346 C345 1.516 . S
C346 C347 1.502 . S
C346 C348 1.561 . S
C346 C349 1.526 . S
C347 H331 0.959 . S
C347 H332 0.959 . S
C347 H333 0.961 . S
C347 C346 1.502 . S
C348 H334 0.960 . S
C348 H335 0.961 . S
C348 H336 0.959 . S
C348 C346 1.561 . S
C349 C346 1.526 . S
C349 C350 1.396 . S
C349 C354 1.390 . S
C350 C344 1.465 . S
C350 C349 1.396 . S
C350 C351 1.399 . S
C351 H337 0.929 . S
C351 C350 1.399 . S
C351 C352 1.385 . S
C352 H338 0.931 . S
C352 C351 1.385 . S
C352 C353 1.389 . S
C353 C352 1.389 . S
C353 C354 1.387 . S
C354 H339 0.930 . S
C354 C349 1.390 . S
C354 C353 1.387 . S
H355 C367 0.930 . S
H356 C369 0.930 . S
H357 C370 0.930 . S
H358 C374 0.959 . S
H359 C374 0.959 1_556 S
H360 C374 0.961 . S
H361 C375 0.960 . S
H362 C375 0.961 1_556 S
H363 C375 0.959 . S
H364 C378 0.929 . S
H365 C379 0.931 . S
H366 C381 0.930 . S
C367 H355 0.930 . S
C367 C368 1.399 . S
C367 C372 1.399 . S
C368 C367 1.399 . S
C368 C369 1.376 . S
C369 H356 0.930 . S
C369 C368 1.376 . S
C369 C370 1.388 . S
C370 H357 0.930 . S
C370 C369 1.388 . S
C370 C371 1.390 . S
C371 C370 1.390 . S
C371 C372 1.394 . S
C371 C377 1.465 . S
C372 C367 1.399 . S
C372 C371 1.394 . S
C372 C373 1.516 . S
C373 C372 1.516 . S
C373 C374 1.502 . S
C373 C375 1.561 . S
C373 C376 1.526 . S
C374 H358 0.959 . S
C374 H359 0.959 1_554 S
C374 H360 0.961 . S
C374 C373 1.502 . S
C375 H361 0.960 . S
C375 H362 0.961 1_554 S
C375 H363 0.959 . S
C375 C373 1.561 . S
C376 C373 1.526 . S
C376 C377 1.396 . S
C376 C381 1.390 . S
C377 C371 1.465 . S
C377 C376 1.396 . S
C377 C378 1.399 . S
C378 H364 0.929 . S
C378 C377 1.399 . S
C378 C379 1.385 . S
C379 H365 0.931 . S
C379 C378 1.385 . S
C379 C380 1.389 . S
C380 C379 1.389 . S
C380 C381 1.387 . S
C381 H366 0.930 . S
C381 C376 1.390 . S
C381 C380 1.387 . S
H382 C394 0.930 . S
H383 C396 0.930 . S
H384 C397 0.930 . S
H385 C401 0.959 . S
H386 C401 0.959 . S
H387 C401 0.961 . S
H388 C402 0.960 . S
H389 C402 0.961 . S
H390 C402 0.959 . S
H391 C405 0.929 . S
H392 C406 0.931 . S
H393 C408 0.930 . S
C394 H382 0.930 . S
C394 C395 1.399 . S
C394 C399 1.399 . S
C395 C394 1.399 . S
C395 C396 1.376 . S
C396 H383 0.930 . S
C396 C395 1.376 . S
C396 C397 1.388 . S
C397 H384 0.930 . S
C397 C396 1.388 . S
C397 C398 1.390 . S
C398 C397 1.390 . S
C398 C399 1.394 . S
C398 C404 1.465 . S
C399 C394 1.399 . S
C399 C398 1.394 . S
C399 C400 1.516 . S
C400 C399 1.516 . S
C400 C401 1.502 . S
C400 C402 1.561 . S
C400 C403 1.526 . S
C401 H385 0.959 . S
C401 H386 0.959 . S
C401 H387 0.961 . S
C401 C400 1.502 . S
C402 H388 0.960 . S
C402 H389 0.961 . S
C402 H390 0.959 . S
C402 C400 1.561 . S
C403 C400 1.526 . S
C403 C404 1.396 . S
C403 C408 1.390 . S
C404 C398 1.465 . S
C404 C403 1.396 . S
C404 C405 1.399 . S
C405 H391 0.929 . S
C405 C404 1.399 . S
C405 C406 1.385 . S
C406 H392 0.931 . S
C406 C405 1.385 . S
C406 C407 1.389 . S
C407 C406 1.389 . S
C407 C408 1.387 . S
C408 H393 0.930 . S
C408 C403 1.390 . S
C408 C407 1.387 . S
H409 C421 0.930 . S
H410 C423 0.930 . S
H411 C424 0.930 . S
H412 C428 0.959 . S
H413 C428 0.959 . S
H414 C428 0.961 . S
H415 C429 0.960 . S
H416 C429 0.961 . S
H417 C429 0.959 . S
H418 C432 0.929 . S
H419 C433 0.931 . S
H420 C435 0.930 . S
C421 H409 0.930 . S
C421 C422 1.399 . S
C421 C426 1.399 . S
C422 C421 1.399 . S
C422 C423 1.376 . S
C423 H410 0.930 . S
C423 C422 1.376 . S
C423 C424 1.388 . S
C424 H411 0.930 . S
C424 C423 1.388 . S
C424 C425 1.390 . S
C425 C424 1.390 . S
C425 C426 1.394 . S
C425 C431 1.465 . S
C426 C421 1.399 . S
C426 C425 1.394 . S
C426 C427 1.516 . S
C427 C426 1.516 . S
C427 C428 1.502 . S
C427 C429 1.561 . S
C427 C430 1.526 . S
C428 H412 0.959 . S
C428 H413 0.959 . S
C428 H414 0.961 . S
C428 C427 1.502 . S
C429 H415 0.960 . S
C429 H416 0.961 . S
C429 H417 0.959 . S
C429 C427 1.561 . S
C430 C427 1.526 . S
C430 C431 1.396 . S
C430 C435 1.390 . S
C431 C425 1.465 . S
C431 C430 1.396 . S
C431 C432 1.399 . S
C432 H418 0.929 . S
C432 C431 1.399 . S
C432 C433 1.385 . S
C433 H419 0.931 . S
C433 C432 1.385 . S
C433 C434 1.389 . S
C434 C433 1.389 . S
C434 C435 1.387 . S
C435 H420 0.930 . S
C435 C430 1.390 . S
C435 C434 1.387 . S
H436 C448 0.930 . S
H437 C450 0.930 . S
H438 C451 0.930 . S
H439 C455 0.959 . S
H440 C455 0.959 . S
H441 C455 0.961 1_556 S
H442 C456 0.960 1_556 S
H443 C456 0.961 . S
H444 C456 0.959 . S
H445 C459 0.929 . S
H446 C460 0.931 . S
H447 C462 0.930 . S
C448 H436 0.930 . S
C448 C449 1.399 . S
C448 C453 1.399 . S
C449 C448 1.399 . S
C449 C450 1.376 . S
C450 H437 0.930 . S
C450 C449 1.376 . S
C450 C451 1.388 . S
C451 H438 0.930 . S
C451 C450 1.388 . S
C451 C452 1.390 . S
C452 C451 1.390 . S
C452 C453 1.394 . S
C452 C458 1.465 . S
C453 C448 1.399 . S
C453 C452 1.394 . S
C453 C454 1.516 . S
C454 C453 1.516 . S
C454 C455 1.502 . S
C454 C456 1.561 . S
C454 C457 1.526 . S
C455 H439 0.959 . S
C455 H440 0.959 . S
C455 H441 0.961 1_554 S
C455 C454 1.502 . S
C456 H442 0.960 1_554 S
C456 H443 0.961 . S
C456 H444 0.959 . S
C456 C454 1.561 . S
C457 C454 1.526 . S
C457 C458 1.396 . S
C457 C462 1.390 . S
C458 C452 1.465 . S
C458 C457 1.396 . S
C458 C459 1.399 . S
C459 H445 0.929 . S
C459 C458 1.399 . S
C459 C460 1.385 . S
C460 H446 0.931 . S
C460 C459 1.385 . S
C460 C461 1.389 . S
C461 C460 1.389 . S
C461 C462 1.387 . S
C462 H447 0.930 . S
C462 C457 1.390 . S
C462 C461 1.387 . S
H463 C475 0.930 . S
H464 C477 0.930 . S
H465 C478 0.930 . S
H466 C482 0.959 . S
H467 C482 0.959 . S
H468 C482 0.961 . S
H469 C483 0.960 . S
H470 C483 0.961 1_554 S
H471 C483 0.959 . S
H472 C486 0.929 . S
H473 C487 0.931 . S
H474 C489 0.930 . S
C475 H463 0.930 . S
C475 C476 1.399 . S
C475 C480 1.399 . S
C476 C475 1.399 . S
C476 C477 1.376 . S
C477 H464 0.930 . S
C477 C476 1.376 . S
C477 C478 1.388 . S
C478 H465 0.930 . S
C478 C477 1.388 . S
C478 C479 1.390 . S
C479 C478 1.390 . S
C479 C480 1.394 . S
C479 C485 1.465 . S
C480 C475 1.399 . S
C480 C479 1.394 . S
C480 C481 1.516 . S
C481 C480 1.516 . S
C481 C482 1.502 . S
C481 C483 1.561 . S
C481 C484 1.526 . S
C482 H466 0.959 . S
C482 H467 0.959 . S
C482 H468 0.961 . S
C482 C481 1.502 . S
C483 H469 0.960 . S
C483 H470 0.961 1_556 S
C483 H471 0.959 . S
C483 C481 1.561 . S
C484 C481 1.526 . S
C484 C485 1.396 . S
C484 C489 1.390 . S
C485 C479 1.465 . S
C485 C484 1.396 . S
C485 C486 1.399 . S
C486 H472 0.929 . S
C486 C485 1.399 . S
C486 C487 1.385 . S
C487 H473 0.931 . S
C487 C486 1.385 . S
C487 C488 1.389 . S
C488 C487 1.389 . S
C488 C489 1.387 . S
C489 H474 0.930 . S
C489 C484 1.390 . S
C489 C488 1.387 . S
H490 C502 0.930 . S
H491 C504 0.930 . S
H492 C505 0.930 . S
H493 C509 0.959 . S
H494 C509 0.959 . S
H495 C509 0.961 . S
H496 C510 0.960 . S
H497 C510 0.961 . S
H498 C510 0.959 . S
H499 C513 0.929 . S
H500 C514 0.931 . S
H501 C516 0.930 . S
C502 H490 0.930 . S
C502 C503 1.399 . S
C502 C507 1.399 . S
C503 C502 1.399 . S
C503 C504 1.376 . S
C504 H491 0.930 . S
C504 C503 1.376 . S
C504 C505 1.388 . S
C505 H492 0.930 . S
C505 C504 1.388 . S
C505 C506 1.390 . S
C506 C505 1.390 . S
C506 C507 1.394 . S
C506 C512 1.465 . S
C507 C502 1.399 . S
C507 C506 1.394 . S
C507 C508 1.516 . S
C508 C507 1.516 . S
C508 C509 1.502 . S
C508 C510 1.561 . S
C508 C511 1.526 . S
C509 H493 0.959 . S
C509 H494 0.959 . S
C509 H495 0.961 . S
C509 C508 1.502 . S
C510 H496 0.960 . S
C510 H497 0.961 . S
C510 H498 0.959 . S
C510 C508 1.561 . S
C511 C508 1.526 . S
C511 C512 1.396 . S
C511 C516 1.390 . S
C512 C506 1.465 . S
C512 C511 1.396 . S
C512 C513 1.399 . S
C513 H499 0.929 . S
C513 C512 1.399 . S
C513 C514 1.385 . S
C514 H500 0.931 . S
C514 C513 1.385 . S
C514 C515 1.389 . S
C515 C514 1.389 . S
C515 C516 1.387 . S
C516 H501 0.930 . S
C516 C511 1.390 . S
C516 C515 1.387 . S
H517 C529 0.930 . S
H518 C531 0.930 . S
H519 C532 0.930 . S
H520 C536 0.959 . S
H521 C536 0.959 . S
H522 C536 0.961 . S
H523 C537 0.960 . S
H524 C537 0.961 . S
H525 C537 0.959 . S
H526 C540 0.929 . S
H527 C541 0.931 . S
H528 C543 0.930 . S
C529 H517 0.930 . S
C529 C530 1.399 . S
C529 C534 1.399 . S
C530 C529 1.399 . S
C530 C531 1.376 . S
C531 H518 0.930 . S
C531 C530 1.376 . S
C531 C532 1.388 . S
C532 H519 0.930 . S
C532 C531 1.388 . S
C532 C533 1.390 . S
C533 C532 1.390 . S
C533 C534 1.394 . S
C533 C539 1.465 . S
C534 C529 1.399 . S
C534 C533 1.394 . S
C534 C535 1.516 . S
C535 C534 1.516 . S
C535 C536 1.502 . S
C535 C537 1.561 . S
C535 C538 1.526 . S
C536 H520 0.959 . S
C536 H521 0.959 . S
C536 H522 0.961 . S
C536 C535 1.502 . S
C537 H523 0.960 . S
C537 H524 0.961 . S
C537 H525 0.959 . S
C537 C535 1.561 . S
C538 C535 1.526 . S
C538 C539 1.396 . S
C538 C543 1.390 . S
C539 C533 1.465 . S
C539 C538 1.396 . S
C539 C540 1.399 . S
C540 H526 0.929 . S
C540 C539 1.399 . S
C540 C541 1.385 . S
C541 H527 0.931 . S
C541 C540 1.385 . S
C541 C542 1.389 . S
C542 C541 1.389 . S
C542 C543 1.387 . S
C543 H528 0.930 . S
C543 C538 1.390 . S
C543 C542 1.387 . S
C125 C1 1.497 . S
C137 C54 1.493 . S
C152 C13 1.487 . S
C164 C14 1.490 . S
C179 C28 1.489 . S
C191 C26 1.491 . S
C206 C42 1.495 . S
C218 C40 1.490 . S
C233 C0 1.496 . S
C245 C83 1.496 . S
C260 C12 1.494 . S
C272 C57 1.488 . S
C287 C69 1.485 . S
C299 C29 1.483 . S
C314 C41 1.493 . S
C326 C71 1.491 . S
C341 C97 1.498 . S
C353 C82 1.498 . S
C368 C56 1.492 . S
C380 C85 1.494 . S
C395 C68 1.489 . S
C407 C98 1.490 . S
C422 C70 1.492 . S
C434 C110 1.496 . S
C449 C96 1.497 . S
C461 C55 1.491 . S
C476 C15 1.485 . S
C488 C84 1.489 . S
C503 C27 1.497 . S
C515 C99 1.496 . S
C530 C43 1.485 . S
C542 C111 1.486 . S
