# Generated by pormake.
# Topology cds-f, (5)-cn, num edge types: 1
# Building blocks:
#     Node 0, Type 0, BuildingBlock: BEQFEK_clean_sbu_0, # of connection points: 5
#     Node 1, Type 0, BuildingBlock: BEQFEK_clean_sbu_0, # of connection points: 5
#     Node 2, Type 0, BuildingBlock: BEQFEK_clean_sbu_0, # of connection points: 5
#     Node 3, Type 0, BuildingBlock: BEQFEK_clean_sbu_0, # of connection points: 5
#     Node 4, Type 0, BuildingBlock: BEQFEK_clean_sbu_0, # of connection points: 5
#     Node 5, Type 0, BuildingBlock: BEQFEK_clean_sbu_0, # of connection points: 5
#     Node 6, Type 0, BuildingBlock: BEQFEK_clean_sbu_0, # of connection points: 5
#     Node 7, Type 0, BuildingBlock: BEQFEK_clean_sbu_0, # of connection points: 5
#     Node 8, Type 0, BuildingBlock: BEQFEK_clean_sbu_0, # of connection points: 5
#     Node 9, Type 0, BuildingBlock: BEQFEK_clean_sbu_0, # of connection points: 5
#     Node 10, Type 0, BuildingBlock: BEQFEK_clean_sbu_0, # of connection points: 5
#     Node 11, Type 0, BuildingBlock: BEQFEK_clean_sbu_0, # of connection points: 5
#     Node 12, Type 0, BuildingBlock: BEQFEK_clean_sbu_0, # of connection points: 5
#     Node 13, Type 0, BuildingBlock: BEQFEK_clean_sbu_0, # of connection points: 5
#     Node 14, Type 0, BuildingBlock: BEQFEK_clean_sbu_0, # of connection points: 5
#     Node 15, Type 0, BuildingBlock: BEQFEK_clean_sbu_0, # of connection points: 5
#     Edge 16, Type (0, 0), None
#     Edge 17, Type (0, 0), None
#     Edge 18, Type (0, 0), None
#     Edge 19, Type (0, 0), None
#     Edge 20, Type (0, 0), None
#     Edge 21, Type (0, 0), None
#     Edge 22, Type (0, 0), None
#     Edge 23, Type (0, 0), None
#     Edge 24, Type (0, 0), None
#     Edge 25, Type (0, 0), None
#     Edge 26, Type (0, 0), None
#     Edge 27, Type (0, 0), None
#     Edge 28, Type (0, 0), None
#     Edge 29, Type (0, 0), None
#     Edge 30, Type (0, 0), None
#     Edge 31, Type (0, 0), None
#     Edge 32, Type (0, 0), None
#     Edge 33, Type (0, 0), None
#     Edge 34, Type (0, 0), None
#     Edge 35, Type (0, 0), None
#     Edge 36, Type (0, 0), None
#     Edge 37, Type (0, 0), None
#     Edge 38, Type (0, 0), None
#     Edge 39, Type (0, 0), None
#     Edge 40, Type (0, 0), None
#     Edge 41, Type (0, 0), None
#     Edge 42, Type (0, 0), None
#     Edge 43, Type (0, 0), None
#     Edge 44, Type (0, 0), None
#     Edge 45, Type (0, 0), None
#     Edge 46, Type (0, 0), None
#     Edge 47, Type (0, 0), None
#     Edge 48, Type (0, 0), None
#     Edge 49, Type (0, 0), None
#     Edge 50, Type (0, 0), None
#     Edge 51, Type (0, 0), None
#     Edge 52, Type (0, 0), None
#     Edge 53, Type (0, 0), None
#     Edge 54, Type (0, 0), None
#     Edge 55, Type (0, 0), None
# Relax obj value: 0.099
# Max RMSD: 0.165
# Mean RMSD: 0.108
data_MOF--net-cds-f--node1-BEQFEK_clean_sbu_0--edge1-none
_symmetry_space_group_name_H-M    P1
_symmetry_Int_Tables_number       1
_symmetry_cell_setting            triclinic
loop_
_symmetry_equiv_pos_as_xyz
'x, y, z'
_cell_length_a     22.75305
_cell_length_b     22.757457
_cell_length_c     28.409127
_cell_angle_alpha  89.98731
_cell_angle_beta   94.71947
_cell_angle_gamma 88.139045
loop_
_atom_site_label
_atom_site_type_symbol
_atom_site_fract_x
_atom_site_fract_y
_atom_site_fract_z
_atom_type_partial_charge
Co0 Co 0.32771 0.35335 0.15301 0.0
Co1 Co 0.19389 0.35298 0.16691 0.0
C2 C 0.28506 0.29095 0.23494 0.0
O3 O 0.32618 0.30829 0.21126 0.0
O4 O 0.23112 0.30576 0.2233 0.0
C5 C 0.45114 0.3212 0.15081 0.0
O6 O 0.44299 0.28263 0.18379 0.0
C7 C 0.07165 0.3133 0.17697 0.0
C8 C 0.02135 0.39235 0.14919 0.0
C9 C 0.0148 0.33692 0.16767 0.0
N10 N 0.10992 0.35336 0.16454 0.0
N11 N 0.07936 0.40036 0.148 0.0
C12 C 0.08926 0.25365 0.19627 0.0
H13 H 0.13681 0.24386 0.19289 0.0
H14 H 0.06249 0.21987 0.17719 0.0
H15 H 0.08042 0.25185 0.23408 0.0
C16 C 0.28858 0.30603 0.06099 0.0
N17 N 0.27719 0.32086 0.10507 0.0
N18 N 0.21993 0.32551 0.1079 0.0
C19 C 0.19285 0.31689 0.06435 0.0
C20 C 0.2358 0.30597 0.03255 0.0
C21 C 0.34976 0.29598 0.04607 0.0
H22 H 0.37826 0.27487 0.07517 0.0
H23 H 0.34974 0.26645 0.01502 0.0
H24 H 0.36838 0.33868 0.03718 0.0
O25 O 0.30727 0.43849 0.16191 0.0
O26 O 0.21246 0.43811 0.17404 0.0
H27 H 0.11685 0.37413 0.05185 0.0
H28 H 0.11339 0.30659 0.01846 0.0
C29 C 0.12793 0.32628 0.0528 0.0
H30 H 0.10359 0.30579 0.08036 0.0
H31 H 0.0982 0.438 0.13566 0.0
O32 O 0.40832 0.3537 0.13378 0.0
C33 C 0.25953 0.46577 0.17013 0.0
Co34 Co 0.6246 0.30738 0.64239 0.0
Co35 Co 0.62748 0.17159 0.65273 0.0
C36 C 0.67882 0.2493 0.73014 0.0
O37 O 0.6642 0.29516 0.70583 0.0
O38 O 0.66753 0.19788 0.71469 0.0
C39 C 0.6492 0.43204 0.64763 0.0
O40 O 0.68337 0.41979 0.6861 0.0
C41 C 0.65921 0.04495 0.66827 0.0
C42 C 0.58743 0.00789 0.62119 0.0
C43 C 0.63535 -0.00741 0.65237 0.0
N44 N 0.62623 0.08925 0.64738 0.0
N45 N 0.58366 0.06667 0.61929 0.0
C46 C 0.71159 0.05288 0.70273 0.0
H47 H 0.72662 0.09871 0.70175 0.0
H48 H 0.74811 0.02204 0.69453 0.0
H49 H 0.69948 0.04267 0.73882 0.0
C50 C 0.67832 0.27789 0.55464 0.0
N51 N 0.66122 0.26171 0.59673 0.0
N52 N 0.65942 0.20416 0.5986 0.0
C53 C 0.67339 0.18198 0.55656 0.0
C54 C 0.6837 0.22819 0.52634 0.0
C55 C 0.68607 0.34062 0.54118 0.0
H56 H 0.70211 0.36606 0.57261 0.0
H57 H 0.71907 0.34367 0.51474 0.0
H58 H 0.6432 0.36024 0.52636 0.0
O59 O 0.53974 0.28898 0.64217 0.0
O60 O 0.54243 0.19238 0.65109 0.0
H61 H 0.62734 0.10645 0.53106 0.0
H62 H 0.70304 0.10869 0.51658 0.0
C63 C 0.67269 0.11823 0.54424 0.0
H64 H 0.68737 0.09104 0.57556 0.0
H65 H 0.55164 0.0916 0.59898 0.0
O66 O 0.6226 0.39123 0.6252 0.0
C67 C 0.51364 0.2409 0.64618 0.0
Co68 Co 0.67901 0.62798 0.15104 0.0
Co69 Co 0.81592 0.62757 0.16558 0.0
C70 C 0.73809 0.68543 0.23494 0.0
O71 O 0.69195 0.67043 0.21031 0.0
O72 O 0.78962 0.67141 0.22293 0.0
C73 C 0.55531 0.65996 0.14862 0.0
O74 O 0.57038 0.6982 0.18164 0.0
C75 C 0.93994 0.66788 0.17614 0.0
C76 C 0.98539 0.58886 0.14946 0.0
C77 C -0.00483 0.64453 0.16739 0.0
N78 N 0.8995 0.62745 0.16388 0.0
N79 N 0.92718 0.58047 0.14803 0.0
C80 C 0.92565 0.7276 0.19472 0.0
H81 H 0.87723 0.73638 0.19221 0.0
H82 H 0.94706 0.76146 0.17448 0.0
H83 H 0.94346 0.73045 0.23218 0.0
C84 C 0.70013 0.67671 0.05966 0.0
N85 N 0.72025 0.6619 0.10389 0.0
N86 N 0.77806 0.65667 0.10688 0.0
C87 C 0.79647 0.66481 0.06332 0.0
C88 C 0.74719 0.67605 0.03131 0.0
C89 C 0.63598 0.68687 0.04443 0.0
H90 H 0.6132 0.70779 0.07339 0.0
H91 H 0.62995 0.71657 0.01333 0.0
H92 H 0.61559 0.64423 0.03542 0.0
O93 O 0.7013 0.54287 0.1591 0.0
O94 O 0.79866 0.54283 0.17133 0.0
H95 H 0.86898 0.60584 0.05213 0.0
H96 H 0.86685 0.67238 0.01725 0.0
C97 C 0.8589 0.65388 0.05199 0.0
H98 H 0.88922 0.67455 0.07913 0.0
H99 H 0.9062 0.54259 0.13595 0.0
O100 O 0.59457 0.6277 0.13143 0.0
C101 C 0.75069 0.51546 0.16716 0.0
Co102 Co 0.33167 0.81248 0.62911 0.0
Co103 Co 0.33508 0.67654 0.62017 0.0
C104 C 0.30018 0.75436 0.53632 0.0
O105 O 0.30638 0.80162 0.56013 0.0
O106 O 0.30923 0.70414 0.55595 0.0
C107 C 0.30183 0.93841 0.62569 0.0
O108 O 0.26731 0.92957 0.58718 0.0
C109 C 0.30238 0.55187 0.60544 0.0
C110 C 0.37547 0.50896 0.65028 0.0
C111 C 0.32575 0.49759 0.62081 0.0
N112 N 0.33713 0.59355 0.62503 0.0
N113 N 0.38058 0.56742 0.65178 0.0
C114 C 0.24688 0.56399 0.57474 0.0
H115 H 0.23522 0.61172 0.57411 0.0
H116 H 0.21034 0.53937 0.58813 0.0
H117 H 0.25291 0.54822 0.53844 0.0
C118 C 0.26115 0.78247 0.70925 0.0
N119 N 0.28751 0.76801 0.66984 0.0
N120 N 0.28754 0.71062 0.66486 0.0
C121 C 0.25985 0.68696 0.70004 0.0
C122 C 0.24252 0.73154 0.72973 0.0
C123 C 0.26239 0.84238 0.73084 0.0
H124 H 0.30891 0.85465 0.73911 0.0
H125 H 0.24148 0.87484 0.70499 0.0
H126 H 0.23887 0.84403 0.76356 0.0
O127 O 0.41712 0.79231 0.63942 0.0
O128 O 0.41901 0.6955 0.63327 0.0
H129 H 0.30432 0.60498 0.71865 0.0
H130 H 0.23155 0.61276 0.73935 0.0
C131 C 0.25866 0.62235 0.70971 0.0
H132 H 0.24003 0.5996 0.6777 0.0
H133 H 0.41382 0.5896 0.67123 0.0
O134 O 0.32881 0.8954 0.64707 0.0
C135 C 0.44547 0.74332 0.63993 0.0
Co136 Co 0.15478 0.64181 0.88631 0.0
Co137 Co 0.29212 0.63255 0.89985 0.0
C138 C 0.22103 0.67447 0.97816 0.0
O139 O 0.17179 0.66888 0.9538 0.0
O140 O 0.26976 0.66261 0.96063 0.0
C141 C 0.02951 0.67562 0.88612 0.0
O142 O 0.04232 0.70583 0.92475 0.0
C143 C 0.41936 0.66018 0.91427 0.0
C144 C 0.45772 0.58174 0.88083 0.0
C145 C 0.47228 0.63363 0.90355 0.0
N146 N 0.37537 0.62534 0.89835 0.0
N147 N 0.39881 0.57851 0.87862 0.0
C148 C 0.41049 0.71881 0.93667 0.0
H149 H 0.3629 0.73165 0.93481 0.0
H150 H 0.43473 0.75241 0.91841 0.0
H151 H 0.42893 0.71688 0.97405 0.0
C152 C 0.18448 0.70715 0.80042 0.0
N153 N 0.19973 0.68152 0.8427 0.0
N154 N 0.25762 0.6792 0.84977 0.0
C155 C 0.28089 0.70432 0.81299 0.0
C156 C 0.23545 0.72267 0.78028 0.0
C157 C 0.12315 0.70905 0.77702 0.0
H158 H 0.1077 0.6635 0.77228 0.0
H159 H 0.09325 0.7325 0.80018 0.0
H160 H 0.12105 0.73148 0.74219 0.0
O161 O 0.16938 0.55513 0.88394 0.0
O162 O 0.26685 0.55096 0.89336 0.0
H163 H 0.36139 0.65621 0.80346 0.0
H164 H 0.35473 0.72616 0.77316 0.0
C165 C 0.34539 0.70259 0.80576 0.0
H166 H 0.36989 0.72342 0.83628 0.0
H167 H 0.37449 0.54443 0.86318 0.0
O168 O 0.07035 0.64965 0.8656 0.0
C169 C 0.21792 0.52573 0.8874 0.0
Co170 Co 0.36406 0.31525 0.37202 0.0
Co171 Co 0.3539 0.1804 0.35472 0.0
C172 C 0.30363 0.27197 0.28322 0.0
O173 O 0.32247 0.31265 0.31027 0.0
O174 O 0.31275 0.2176 0.2942 0.0
C175 C 0.33796 0.43863 0.37372 0.0
O176 O 0.29653 0.427 0.34046 0.0
C177 C 0.31234 0.05734 0.3354 0.0
C178 C 0.38113 0.0093 0.38113 0.0
C179 C 0.33193 0.00119 0.35019 0.0
N180 N 0.34879 0.09662 0.3568 0.0
N181 N 0.38962 0.06726 0.38397 0.0
C182 C 0.26039 0.07323 0.30168 0.0
H183 H 0.25007 0.12117 0.30258 0.0
H184 H 0.22147 0.04865 0.31069 0.0
H185 H 0.27038 0.06046 0.26542 0.0
C186 C 0.30744 0.28856 0.45682 0.0
N187 N 0.3251 0.27176 0.41487 0.0
N188 N 0.32522 0.21419 0.41148 0.0
C189 C 0.31025 0.19235 0.45308 0.0
C190 C 0.30051 0.23892 0.48399 0.0
C191 C 0.30052 0.35161 0.47113 0.0
H192 H 0.28392 0.37852 0.44013 0.0
H193 H 0.26808 0.35695 0.49799 0.0
H194 H 0.34379 0.36794 0.48552 0.0
O195 O 0.44639 0.28652 0.36974 0.0
O196 O 0.44139 0.19106 0.35586 0.0
H197 H 0.35519 0.11193 0.47535 0.0
H198 H 0.28098 0.12032 0.49317 0.0
C199 C 0.30965 0.12824 0.46433 0.0
H200 H 0.29261 0.10348 0.43286 0.0
H201 H 0.42358 0.08701 0.40455 0.0
O202 O 0.3707 0.39727 0.39215 0.0
C203 C 0.47138 0.23687 0.36291 0.0
Co204 Co 0.79829 0.33934 0.88655 0.0
Co205 Co 0.66383 0.34868 0.89957 0.0
C206 C 0.75043 0.30656 0.97856 0.0
O207 O 0.79477 0.31216 0.95426 0.0
O208 O 0.69819 0.31845 0.96077 0.0
C209 C 0.9237 0.30566 0.8869 0.0
O210 O 0.9188 0.27517 0.92552 0.0
C211 C 0.53969 0.32075 0.91396 0.0
C212 C 0.49427 0.39971 0.88111 0.0
C213 C 0.48453 0.34752 0.9037 0.0
N214 N 0.58028 0.3558 0.89797 0.0
N215 N 0.55268 0.40291 0.87856 0.0
C216 C 0.5533 0.26189 0.93619 0.0
H217 H 0.60057 0.24925 0.93443 0.0
H218 H 0.5255 0.22843 0.91772 0.0
H219 H 0.54235 0.26327 0.97353 0.0
C220 C 0.75148 0.27363 0.80068 0.0
N221 N 0.74471 0.29954 0.84275 0.0
N222 N 0.68822 0.30208 0.84956 0.0
C223 C 0.65757 0.27698 0.81278 0.0
C224 C 0.69643 0.25791 0.78047 0.0
C225 C 0.80824 0.2713 0.77761 0.0
H226 H 0.82296 0.31672 0.77253 0.0
H227 H 0.84265 0.24791 0.80118 0.0
H228 H 0.80342 0.24858 0.74299 0.0
O229 O 0.78326 0.42619 0.88368 0.0
O230 O 0.68769 0.43043 0.89285 0.0
H231 H 0.57539 0.32571 0.80322 0.0
H232 H 0.5758 0.25643 0.77215 0.0
C233 C 0.59161 0.27921 0.80511 0.0
H234 H 0.57293 0.25784 0.8353 0.0
H235 H 0.57373 0.43724 0.86322 0.0
O236 O 0.87863 0.33161 0.86624 0.0
C237 C 0.73542 0.45567 0.88687 0.0
Co238 Co 0.63824 0.80344 0.37738 0.0
Co239 Co 0.6308 0.66825 0.39277 0.0
C240 C 0.66678 0.74521 0.4735 0.0
O241 O 0.66132 0.79175 0.44798 0.0
O242 O 0.65705 0.69501 0.45557 0.0
C243 C 0.67659 0.92631 0.38089 0.0
O244 O 0.70472 0.91372 0.42203 0.0
C245 C 0.6611 0.54267 0.41191 0.0
C246 C 0.58569 0.50258 0.37121 0.0
C247 C 0.63725 0.48941 0.39893 0.0
N248 N 0.62528 0.58567 0.39217 0.0
N249 N 0.58008 0.56132 0.36833 0.0
C250 C 0.71881 0.55235 0.43935 0.0
H251 H 0.73013 0.59935 0.43827 0.0
H252 H 0.75409 0.52505 0.42448 0.0
H253 H 0.71616 0.53799 0.47641 0.0
C254 C 0.71013 0.75776 0.29946 0.0
N255 N 0.68186 0.75043 0.33901 0.0
N256 N 0.68097 0.69382 0.34805 0.0
C257 C 0.71021 0.66383 0.31597 0.0
C258 C 0.72971 0.70297 0.28377 0.0
C259 C 0.71092 0.81495 0.27367 0.0
H260 H 0.6649 0.83112 0.26427 0.0
H261 H 0.73266 0.84801 0.2973 0.0
H262 H 0.73468 0.81037 0.24119 0.0
O263 O 0.5508 0.79232 0.36566 0.0
O264 O 0.5487 0.6964 0.37758 0.0
H265 H 0.66499 0.5832 0.30495 0.0
H266 H 0.73624 0.58295 0.28137 0.0
C267 C 0.71085 0.59823 0.31103 0.0
H268 H 0.73156 0.57793 0.34391 0.0
H269 H 0.54579 0.58483 0.34937 0.0
O270 O 0.64898 0.88643 0.35782 0.0
C271 C 0.52226 0.7453 0.36763 0.0
Co272 Co 0.65946 0.62931 0.89865 0.0
Co273 Co 0.79447 0.63487 0.88831 0.0
C274 C 0.74114 0.6661 0.97947 0.0
O275 O 0.68969 0.65697 0.96052 0.0
O276 O 0.78638 0.6592 0.95606 0.0
C277 C 0.53283 0.65343 0.91234 0.0
O278 O 0.54546 0.69958 0.93849 0.0
C279 C 0.91701 0.67663 0.89171 0.0
C280 C 0.95298 0.61817 0.83828 0.0
C281 C 0.96843 0.66096 0.8712 0.0
N282 N 0.8733 0.64371 0.8723 0.0
N283 N 0.89508 0.60951 0.83995 0.0
C284 C 0.91021 0.72108 0.92974 0.0
H285 H 0.86301 0.73122 0.9341 0.0
H286 H 0.93211 0.76206 0.92087 0.0
H287 H 0.93256 0.70398 0.96336 0.0
C288 C 0.65275 0.70289 0.81369 0.0
N289 N 0.68411 0.67623 0.85022 0.0
N290 N 0.74066 0.67764 0.84401 0.0
C291 C 0.74667 0.70464 0.80234 0.0
C292 C 0.6911 0.72199 0.78192 0.0
C293 C 0.58688 0.70195 0.80582 0.0
H294 H 0.5671 0.7221 0.83659 0.0
H295 H 0.5701 0.72642 0.7734 0.0
H296 H 0.57293 0.65573 0.80285 0.0
O297 O 0.68576 0.5471 0.89205 0.0
O298 O 0.78167 0.54821 0.88401 0.0
H299 H 0.81665 0.66128 0.76897 0.0
H300 H 0.79845 0.73477 0.74719 0.0
C301 C 0.80327 0.7065 0.77922 0.0
H302 H 0.83838 0.72357 0.80447 0.0
H303 H 0.87075 0.57872 0.82011 0.0
O304 O 0.57336 0.62358 0.89444 0.0
C305 C 0.7345 0.52031 0.8867 0.0
Co306 Co 0.34073 0.81105 0.35326 0.0
Co307 Co 0.34837 0.67585 0.36987 0.0
C308 C 0.28847 0.72408 0.28131 0.0
O309 O 0.29838 0.77769 0.29244 0.0
O310 O 0.30736 0.68207 0.30813 0.0
C311 C 0.31054 0.94271 0.33641 0.0
O312 O 0.26784 0.93593 0.30308 0.0
C313 C 0.32347 0.55083 0.36972 0.0
C314 C 0.39765 0.51566 0.41785 0.0
C315 C 0.35022 0.49917 0.38763 0.0
N316 N 0.3545 0.59587 0.38788 0.0
N317 N 0.39828 0.57468 0.41708 0.0
C318 C 0.27033 0.55767 0.33518 0.0
H319 H 0.24807 0.60117 0.33949 0.0
H320 H 0.23837 0.52299 0.34047 0.0
H321 H 0.28424 0.55412 0.29871 0.0
C322 C 0.30262 0.80206 0.45326 0.0
N323 N 0.31288 0.77941 0.41046 0.0
N324 N 0.30961 0.72197 0.41296 0.0
C325 C 0.29372 0.70649 0.45548 0.0
C326 C 0.29197 0.75603 0.48389 0.0
C327 C 0.31082 0.86515 0.46625 0.0
H328 H 0.29794 0.89394 0.43549 0.0
H329 H 0.28377 0.87806 0.49553 0.0
H330 H 0.35799 0.8717 0.47759 0.0
O331 O 0.42791 0.79455 0.35452 0.0
O332 O 0.43129 0.69888 0.36866 0.0
H333 H 0.32489 0.62368 0.48556 0.0
H334 H 0.24926 0.64386 0.49493 0.0
C335 C 0.28333 0.64448 0.46926 0.0
H336 H 0.2672 0.61889 0.43795 0.0
H337 H 0.42991 0.60043 0.43506 0.0
O338 O 0.33786 0.8983 0.35588 0.0
C339 C 0.45717 0.7465 0.36222 0.0
Co340 Co 0.29639 0.35219 0.89973 0.0
Co341 Co 0.15916 0.34691 0.88938 0.0
C342 C 0.23124 0.31541 0.98062 0.0
O343 O 0.27881 0.32437 0.96161 0.0
O344 O 0.18119 0.32241 0.95718 0.0
C345 C 0.42589 0.32774 0.91287 0.0
O346 O 0.41881 0.28104 0.93867 0.0
C347 C 0.03737 0.30491 0.89264 0.0
C348 C -0.00968 0.3641 0.83951 0.0
C349 C 0.98172 0.32074 0.87218 0.0
N350 N 0.07703 0.33824 0.87343 0.0
N351 N 0.04854 0.37291 0.84128 0.0
C352 C 0.05209 0.25993 0.93045 0.0
H353 H 0.10023 0.25001 0.93489 0.0
H354 H 0.0286 0.21895 0.92131 0.0
H355 H 0.03644 0.2764 0.96412 0.0
C356 C 0.28552 0.28057 0.8142 0.0
N357 N 0.26173 0.3059 0.85121 0.0
N358 N 0.20386 0.30488 0.84491 0.0
C359 C 0.18917 0.2796 0.80269 0.0
C360 C 0.24046 0.26341 0.78189 0.0
C361 C 0.34986 0.28116 0.80662 0.0
H362 H 0.3635 0.32731 0.80372 0.0
H363 H 0.37564 0.26056 0.83744 0.0
H364 H 0.36004 0.25692 0.77424 0.0
O365 O 0.26868 0.43436 0.89297 0.0
O366 O 0.17108 0.43338 0.88493 0.0
H367 H 0.11251 0.32391 0.76977 0.0
H368 H 0.12601 0.25096 0.7472 0.0
C369 C 0.12782 0.27843 0.77954 0.0
H370 H 0.09784 0.26078 0.80456 0.0
H371 H 0.06872 0.40409 0.82164 0.0
O372 O 0.3816 0.35797 0.89545 0.0
C373 C 0.21884 0.46117 0.88752 0.0
Co374 Co 0.64496 0.30331 0.3907 0.0
Co375 Co 0.652 0.1674 0.37832 0.0
C376 C 0.67802 0.22898 0.47375 0.0
O377 O 0.66992 0.27907 0.45429 0.0
O378 O 0.67247 0.1817 0.44943 0.0
C379 C 0.66016 0.42967 0.40903 0.0
O380 O 0.70345 0.41845 0.44152 0.0
C381 C 0.68631 0.03924 0.38674 0.0
C382 C 0.63407 0.00557 0.32418 0.0
C383 C 0.66941 -0.01233 0.36388 0.0
N384 N 0.66096 0.08543 0.36216 0.0
N385 N 0.63066 0.0647 0.3244 0.0
C386 C 0.72312 0.04404 0.43245 0.0
H387 H 0.73772 0.08966 0.43813 0.0
H388 H 0.76244 0.01387 0.4325 0.0
H389 H 0.69692 0.03042 0.46161 0.0
C390 C 0.72704 0.30127 0.31719 0.0
N391 N 0.69644 0.27289 0.3481 0.0
N392 N 0.6968 0.21635 0.33869 0.0
C393 C 0.72573 0.20792 0.29925 0.0
C394 C 0.74657 0.2616 0.28446 0.0
C395 C 0.72867 0.3669 0.31397 0.0
H396 H 0.74291 0.38496 0.34915 0.0
H397 H 0.75953 0.38101 0.28817 0.0
H398 H 0.68378 0.38505 0.30299 0.0
O399 O 0.56329 0.28037 0.37608 0.0
O400 O 0.56462 0.18418 0.36583 0.0
H401 H 0.68107 0.14406 0.25597 0.0
H402 H 0.75709 0.15303 0.24402 0.0
C403 C 0.7262 0.1516 0.27225 0.0
H404 H 0.73918 0.11452 0.29666 0.0
H405 H 0.60504 0.0909 0.29994 0.0
O406 O 0.63545 0.38839 0.38601 0.0
C407 C 0.53644 0.23326 0.3672 0.0
Co408 Co 0.82535 0.339 0.16498 0.0
Co409 Co 0.68867 0.33784 0.15183 0.0
C410 C 0.75343 0.2801 0.23554 0.0
O411 O 0.80394 0.29365 0.22285 0.0
O412 O 0.70619 0.29583 0.21138 0.0
C413 C 0.95726 0.31258 0.17538 0.0
O414 O 0.95277 0.2622 0.19709 0.0
C415 C 0.56427 0.3083 0.15376 0.0
C416 C 0.52219 0.37686 0.1058 0.0
C417 C 0.51004 0.33213 0.1362 0.0
N418 N 0.60653 0.33862 0.13517 0.0
N419 N 0.5811 0.37896 0.10612 0.0
C420 C 0.5762 0.25963 0.18906 0.0
H421 H 0.61842 0.23613 0.1832 0.0
H422 H 0.54043 0.22758 0.18629 0.0
H423 H 0.57947 0.27841 0.2252 0.0
C424 C 0.807 0.30534 0.06195 0.0
N425 N 0.78874 0.31111 0.10598 0.0
N426 N 0.73138 0.30465 0.10354 0.0
C427 C 0.71194 0.29124 0.05907 0.0
C428 C 0.75824 0.29441 0.03021 0.0
C429 C 0.86784 0.31893 0.04974 0.0
H430 H 0.90075 0.30454 0.07862 0.0
H431 H 0.87861 0.29642 0.01679 0.0
H432 H 0.87079 0.3671 0.04489 0.0
O433 O 0.80275 0.42343 0.17141 0.0
O434 O 0.70549 0.42298 0.15938 0.0
H435 H 0.62514 0.31957 0.0315 0.0
H436 H 0.64732 0.24628 0.01467 0.0
C437 C 0.6491 0.27852 0.04396 0.0
H438 H 0.62722 0.2596 0.07364 0.0
H439 H 0.60408 0.40947 0.08797 0.0
O440 O 0.91148 0.34346 0.16196 0.0
C441 C 0.75294 0.45061 0.16727 0.0
Co442 Co 0.62137 0.80725 0.65239 0.0
Co443 Co 0.62422 0.67155 0.64395 0.0
C444 C 0.67378 0.73015 0.73143 0.0
O445 O 0.662 0.78163 0.71483 0.0
O446 O 0.66062 0.68439 0.70782 0.0
C447 C 0.65176 0.93177 0.66538 0.0
O448 O 0.69534 0.91817 0.69708 0.0
C449 C 0.6561 0.54503 0.65212 0.0
C450 C 0.59261 0.50928 0.59718 0.0
C451 C 0.63573 0.49297 0.6324 0.0
N452 N 0.62558 0.58998 0.62987 0.0
N453 N 0.58812 0.56828 0.59686 0.0
C454 C 0.70248 0.5523 0.692 0.0
H455 H 0.72433 0.59477 0.6886 0.0
H456 H 0.73637 0.51612 0.6925 0.0
H457 H 0.68155 0.55197 0.72593 0.0
C458 C 0.66287 0.7946 0.55571 0.0
N459 N 0.65393 0.77289 0.59881 0.0
N460 N 0.66041 0.71538 0.59804 0.0
C461 C 0.6767 0.69881 0.55554 0.0
C462 C 0.67571 0.74786 0.52596 0.0
C463 C 0.65109 0.85773 0.54216 0.0
H464 H 0.6719 0.88634 0.56987 0.0
H465 H 0.66901 0.86856 0.50828 0.0
H466 H 0.6028 0.86739 0.53948 0.0
O467 O 0.53677 0.79022 0.6503 0.0
O468 O 0.53862 0.69343 0.64188 0.0
H469 H 0.64997 0.61641 0.52579 0.0
H470 H 0.72507 0.63488 0.51771 0.0
C471 C 0.6902 0.63639 0.54275 0.0
H472 H 0.70639 0.61066 0.57456 0.0
H473 H 0.55828 0.5938 0.57499 0.0
O474 O 0.62047 0.89216 0.6459 0.0
C475 C 0.51026 0.74214 0.6452 0.0
Co476 Co 0.18427 0.64295 0.16509 0.0
Co477 Co 0.31809 0.64354 0.15157 0.0
C478 C 0.27061 0.70631 0.23283 0.0
O479 O 0.2176 0.69137 0.22128 0.0
O480 O 0.31274 0.68857 0.20934 0.0
C481 C 0.05406 0.66939 0.175 0.0
O482 O 0.06241 0.72024 0.19588 0.0
C483 C 0.44293 0.67286 0.15211 0.0
C484 C 0.47472 0.60327 0.10519 0.0
C485 C 0.49335 0.64869 0.13459 0.0
N486 N 0.39672 0.64212 0.1345 0.0
N487 N 0.41592 0.60116 0.10605 0.0
C488 C 0.43857 0.72259 0.18624 0.0
H489 H 0.39527 0.74623 0.17985 0.0
H490 H 0.47393 0.75428 0.18265 0.0
H491 H 0.44268 0.70487 0.22281 0.0
C492 C 0.1813 0.67515 0.06134 0.0
N493 N 0.20856 0.66913 0.10539 0.0
N494 N 0.26542 0.67551 0.10291 0.0
C495 C 0.27579 0.68935 0.05853 0.0
C496 C 0.22361 0.68637 0.02969 0.0
C497 C 0.11793 0.66188 0.04901 0.0
H498 H 0.09101 0.67513 0.07817 0.0
H499 H 0.10036 0.68551 0.01647 0.0
H500 H 0.11399 0.6139 0.04323 0.0
O501 O 0.2082 0.55821 0.17356 0.0
O502 O 0.30286 0.55844 0.16129 0.0
H503 H 0.35739 0.66188 0.03142 0.0
H504 H 0.33107 0.73498 0.01416 0.0
C505 C 0.33546 0.70272 0.04358 0.0
H506 H 0.36305 0.72189 0.07327 0.0
H507 H 0.38908 0.57029 0.08865 0.0
O508 O 0.09745 0.63858 0.16224 0.0
C509 C 0.25719 0.53086 0.16985 0.0
Co510 Co 0.33597 0.31053 0.62213 0.0
Co511 Co 0.33742 0.17441 0.62813 0.0
C512 C 0.3058 0.23832 0.53645 0.0
O513 O 0.31175 0.28741 0.55739 0.0
O514 O 0.31407 0.19003 0.55918 0.0
C515 C 0.3067 0.43826 0.60885 0.0
O516 O 0.26395 0.42861 0.57616 0.0
C517 C 0.29999 0.05146 0.62069 0.0
C518 C 0.36373 0.00951 0.67432 0.0
C519 C 0.3183 -0.00228 0.64055 0.0
N520 N 0.33373 0.09314 0.64143 0.0
N521 N 0.37129 0.06776 0.67375 0.0
C522 C 0.25185 0.06273 0.58245 0.0
H523 H 0.24125 0.11046 0.5785 0.0
H524 H 0.21174 0.03961 0.59076 0.0
H525 H 0.26589 0.04461 0.54876 0.0
C526 C 0.26263 0.30022 0.70172 0.0
N527 N 0.28975 0.27614 0.66577 0.0
N528 N 0.29112 0.21858 0.66983 0.0
C529 C 0.26573 0.20437 0.70947 0.0
C530 C 0.24697 0.25566 0.73107 0.0
C531 C 0.26107 0.36472 0.71213 0.0
H532 H 0.24093 0.389 0.68069 0.0
H533 H 0.23526 0.37514 0.74273 0.0
H534 H 0.30681 0.37966 0.71971 0.0
O535 O 0.42036 0.28947 0.63519 0.0
O536 O 0.42255 0.19235 0.64002 0.0
H537 H 0.3145 0.13141 0.74203 0.0
H538 H 0.24128 0.14229 0.76144 0.0
C539 C 0.26805 0.14405 0.73054 0.0
H540 H 0.25131 0.11212 0.7036 0.0
H541 H 0.40306 0.09013 0.69469 0.0
O542 O 0.33601 0.39582 0.62913 0.0
C543 C 0.44883 0.24088 0.64132 0.0
loop_
_geom_bond_atom_site_label_1
_geom_bond_atom_site_label_2
_geom_bond_distance
_geom_bond_site_symmetry_2
_ccdc_geom_bond_type
Co0 O3 1.970 . S
Co0 N17 1.989 . S
Co0 O25 1.967 . S
Co0 O32 1.920 . S
Co1 O4 1.966 . S
Co1 N10 2.022 . S
Co1 N18 1.993 . S
Co1 O26 1.941 . S
C2 O3 1.258 . S
C2 O4 1.263 . S
O3 Co0 1.970 . S
O3 C2 1.258 . S
O4 Co1 1.966 . S
O4 C2 1.263 . S
C5 O6 1.235 . S
C5 O32 1.289 . S
O6 C5 1.235 . S
C7 C9 1.400 . S
C7 N10 1.351 . S
C7 C12 1.501 . S
C8 C9 1.387 . S
C8 N11 1.341 . S
C9 C7 1.400 . S
C9 C8 1.387 . S
N10 Co1 2.022 . S
N10 C7 1.351 . S
N10 N11 1.365 . S
N11 C8 1.341 . S
N11 N10 1.365 . S
N11 H31 0.862 . S
C12 C7 1.501 . S
C12 H13 0.961 . S
C12 H14 0.961 . S
C12 H15 0.960 . S
H13 C12 0.961 . S
H14 C12 0.961 . S
H15 C12 0.960 . S
C16 N17 1.342 . S
C16 C20 1.401 . S
C16 C21 1.499 . S
N17 Co0 1.989 . S
N17 C16 1.342 . S
N17 N18 1.388 . S
N18 Co1 1.993 . S
N18 N17 1.388 . S
N18 C19 1.346 . S
C19 N18 1.346 . S
C19 C20 1.396 . S
C19 C29 1.510 . S
C20 C16 1.401 . S
C20 C19 1.396 . S
C21 C16 1.499 . S
C21 H22 0.959 . S
C21 H23 0.960 . S
C21 H24 0.961 . S
H22 C21 0.959 . S
H23 C21 0.960 . S
H24 C21 0.961 . S
O25 Co0 1.967 . S
O25 C33 1.258 . S
O26 Co1 1.941 . S
O26 C33 1.266 . S
H27 C29 0.959 . S
H28 C29 0.961 . S
C29 C19 1.510 . S
C29 H27 0.959 . S
C29 H28 0.961 . S
C29 H30 0.960 . S
H30 C29 0.960 . S
H31 N11 0.862 . S
O32 Co0 1.920 . S
O32 C5 1.289 . S
C33 O25 1.258 . S
C33 O26 1.266 . S
Co34 O37 1.970 . S
Co34 N51 1.989 . S
Co34 O59 1.967 . S
Co34 O66 1.920 . S
Co35 O38 1.966 . S
Co35 N44 2.022 . S
Co35 N52 1.993 . S
Co35 O60 1.941 . S
C36 O37 1.258 . S
C36 O38 1.263 . S
O37 Co34 1.970 . S
O37 C36 1.258 . S
O38 Co35 1.966 . S
O38 C36 1.263 . S
C39 O40 1.235 . S
C39 O66 1.289 . S
O40 C39 1.235 . S
C41 C43 1.400 . S
C41 N44 1.351 . S
C41 C46 1.501 . S
C42 C43 1.387 . S
C42 N45 1.341 . S
C43 C41 1.400 . S
C43 C42 1.387 . S
N44 Co35 2.022 . S
N44 C41 1.351 . S
N44 N45 1.365 . S
N45 C42 1.341 . S
N45 N44 1.365 . S
N45 H65 0.862 . S
C46 C41 1.501 . S
C46 H47 0.961 . S
C46 H48 0.961 . S
C46 H49 0.960 . S
H47 C46 0.961 . S
H48 C46 0.961 . S
H49 C46 0.960 . S
C50 N51 1.342 . S
C50 C54 1.401 . S
C50 C55 1.499 . S
N51 Co34 1.989 . S
N51 C50 1.342 . S
N51 N52 1.388 . S
N52 Co35 1.993 . S
N52 N51 1.388 . S
N52 C53 1.346 . S
C53 N52 1.346 . S
C53 C54 1.396 . S
C53 C63 1.510 . S
C54 C50 1.401 . S
C54 C53 1.396 . S
C55 C50 1.499 . S
C55 H56 0.959 . S
C55 H57 0.960 . S
C55 H58 0.961 . S
H56 C55 0.959 . S
H57 C55 0.960 . S
H58 C55 0.961 . S
O59 Co34 1.967 . S
O59 C67 1.258 . S
O60 Co35 1.941 . S
O60 C67 1.266 . S
H61 C63 0.959 . S
H62 C63 0.961 . S
C63 C53 1.510 . S
C63 H61 0.959 . S
C63 H62 0.961 . S
C63 H64 0.960 . S
H64 C63 0.960 . S
H65 N45 0.862 . S
O66 Co34 1.920 . S
O66 C39 1.289 . S
C67 O59 1.258 . S
C67 O60 1.266 . S
Co68 O71 1.970 . S
Co68 N85 1.989 . S
Co68 O93 1.967 . S
Co68 O100 1.920 . S
Co69 O72 1.966 . S
Co69 N78 2.022 . S
Co69 N86 1.993 . S
Co69 O94 1.941 . S
C70 O71 1.258 . S
C70 O72 1.263 . S
O71 Co68 1.970 . S
O71 C70 1.258 . S
O72 Co69 1.966 . S
O72 C70 1.263 . S
C73 O74 1.235 . S
C73 O100 1.289 . S
O74 C73 1.235 . S
C75 C77 1.400 1_655 S
C75 N78 1.351 . S
C75 C80 1.501 . S
C76 C77 1.387 . S
C76 N79 1.341 1_455 S
C77 C75 1.400 1_455 S
C77 C76 1.387 . S
N78 Co69 2.022 . S
N78 C75 1.351 . S
N78 N79 1.365 . S
N79 C76 1.341 1_655 S
N79 N78 1.365 . S
N79 H99 0.862 . S
C80 C75 1.501 . S
C80 H81 0.961 . S
C80 H82 0.961 . S
C80 H83 0.960 . S
H81 C80 0.961 . S
H82 C80 0.961 . S
H83 C80 0.960 . S
C84 N85 1.342 . S
C84 C88 1.401 . S
C84 C89 1.499 . S
N85 Co68 1.989 . S
N85 C84 1.342 . S
N85 N86 1.388 . S
N86 Co69 1.993 . S
N86 N85 1.388 . S
N86 C87 1.346 . S
C87 N86 1.346 . S
C87 C88 1.396 . S
C87 C97 1.510 . S
C88 C84 1.401 . S
C88 C87 1.396 . S
C89 C84 1.499 . S
C89 H90 0.959 . S
C89 H91 0.960 . S
C89 H92 0.961 1_554 S
H90 C89 0.959 . S
H91 C89 0.960 . S
H92 C89 0.961 1_556 S
O93 Co68 1.967 . S
O93 C101 1.258 . S
O94 Co69 1.941 . S
O94 C101 1.266 . S
H95 C97 0.959 . S
H96 C97 0.961 . S
C97 C87 1.510 . S
C97 H95 0.959 . S
C97 H96 0.961 . S
C97 H98 0.960 . S
H98 C97 0.960 . S
H99 N79 0.862 . S
O100 Co68 1.920 . S
O100 C73 1.289 . S
C101 O93 1.258 . S
C101 O94 1.266 . S
Co102 O105 1.970 . S
Co102 N119 1.989 . S
Co102 O127 1.967 . S
Co102 O134 1.920 . S
Co103 O106 1.966 . S
Co103 N112 2.022 . S
Co103 N120 1.993 . S
Co103 O128 1.941 . S
C104 O105 1.258 . S
C104 O106 1.263 . S
O105 Co102 1.970 . S
O105 C104 1.258 . S
O106 Co103 1.966 . S
O106 C104 1.263 . S
C107 O108 1.235 . S
C107 O134 1.289 . S
O108 C107 1.235 . S
C109 C111 1.400 . S
C109 N112 1.351 . S
C109 C114 1.501 . S
C110 C111 1.387 . S
C110 N113 1.341 . S
C111 C109 1.400 . S
C111 C110 1.387 . S
N112 Co103 2.022 . S
N112 C109 1.351 . S
N112 N113 1.365 . S
N113 C110 1.341 . S
N113 N112 1.365 . S
N113 H133 0.862 . S
C114 C109 1.501 . S
C114 H115 0.961 . S
C114 H116 0.961 . S
C114 H117 0.960 . S
H115 C114 0.961 . S
H116 C114 0.961 . S
H117 C114 0.960 . S
C118 N119 1.342 . S
C118 C122 1.401 . S
C118 C123 1.499 . S
N119 Co102 1.989 . S
N119 C118 1.342 . S
N119 N120 1.388 . S
N120 Co103 1.993 . S
N120 N119 1.388 . S
N120 C121 1.346 . S
C121 N120 1.346 . S
C121 C122 1.396 . S
C121 C131 1.510 . S
C122 C118 1.401 . S
C122 C121 1.396 . S
C123 C118 1.499 . S
C123 H124 0.959 . S
C123 H125 0.960 . S
C123 H126 0.961 . S
H124 C123 0.959 . S
H125 C123 0.960 . S
H126 C123 0.961 . S
O127 Co102 1.967 . S
O127 C135 1.258 . S
O128 Co103 1.941 . S
O128 C135 1.266 . S
H129 C131 0.959 . S
H130 C131 0.961 . S
C131 C121 1.510 . S
C131 H129 0.959 . S
C131 H130 0.961 . S
C131 H132 0.960 . S
H132 C131 0.960 . S
H133 N113 0.862 . S
O134 Co102 1.920 . S
O134 C107 1.289 . S
C135 O127 1.258 . S
C135 O128 1.266 . S
Co136 O139 1.970 . S
Co136 N153 1.989 . S
Co136 O161 1.967 . S
Co136 O168 1.920 . S
Co137 O140 1.966 . S
Co137 N146 2.022 . S
Co137 N154 1.993 . S
Co137 O162 1.941 . S
C138 O139 1.258 . S
C138 O140 1.263 . S
O139 Co136 1.970 . S
O139 C138 1.258 . S
O140 Co137 1.966 . S
O140 C138 1.263 . S
C141 O142 1.235 . S
C141 O168 1.289 . S
O142 C141 1.235 . S
C143 C145 1.400 . S
C143 N146 1.351 . S
C143 C148 1.501 . S
C144 C145 1.387 . S
C144 N147 1.341 . S
C145 C143 1.400 . S
C145 C144 1.387 . S
N146 Co137 2.022 . S
N146 C143 1.351 . S
N146 N147 1.365 . S
N147 C144 1.341 . S
N147 N146 1.365 . S
N147 H167 0.862 . S
C148 C143 1.501 . S
C148 H149 0.961 . S
C148 H150 0.961 . S
C148 H151 0.960 . S
H149 C148 0.961 . S
H150 C148 0.961 . S
H151 C148 0.960 . S
C152 N153 1.342 . S
C152 C156 1.401 . S
C152 C157 1.499 . S
N153 Co136 1.989 . S
N153 C152 1.342 . S
N153 N154 1.388 . S
N154 Co137 1.993 . S
N154 N153 1.388 . S
N154 C155 1.346 . S
C155 N154 1.346 . S
C155 C156 1.396 . S
C155 C165 1.510 . S
C156 C152 1.401 . S
C156 C155 1.396 . S
C157 C152 1.499 . S
C157 H158 0.959 . S
C157 H159 0.960 . S
C157 H160 0.961 . S
H158 C157 0.959 . S
H159 C157 0.960 . S
H160 C157 0.961 . S
O161 Co136 1.967 . S
O161 C169 1.258 . S
O162 Co137 1.941 . S
O162 C169 1.266 . S
H163 C165 0.959 . S
H164 C165 0.961 . S
C165 C155 1.510 . S
C165 H163 0.959 . S
C165 H164 0.961 . S
C165 H166 0.960 . S
H166 C165 0.960 . S
H167 N147 0.862 . S
O168 Co136 1.920 . S
O168 C141 1.289 . S
C169 O161 1.258 . S
C169 O162 1.266 . S
Co170 O173 1.970 . S
Co170 N187 1.989 . S
Co170 O195 1.967 . S
Co170 O202 1.920 . S
Co171 O174 1.966 . S
Co171 N180 2.022 . S
Co171 N188 1.993 . S
Co171 O196 1.941 . S
C172 O173 1.258 . S
C172 O174 1.263 . S
O173 Co170 1.970 . S
O173 C172 1.258 . S
O174 Co171 1.966 . S
O174 C172 1.263 . S
C175 O176 1.235 . S
C175 O202 1.289 . S
O176 C175 1.235 . S
C177 C179 1.400 . S
C177 N180 1.351 . S
C177 C182 1.501 . S
C178 C179 1.387 . S
C178 N181 1.341 . S
C179 C177 1.400 . S
C179 C178 1.387 . S
N180 Co171 2.022 . S
N180 C177 1.351 . S
N180 N181 1.365 . S
N181 C178 1.341 . S
N181 N180 1.365 . S
N181 H201 0.862 . S
C182 C177 1.501 . S
C182 H183 0.961 . S
C182 H184 0.961 . S
C182 H185 0.960 . S
H183 C182 0.961 . S
H184 C182 0.961 . S
H185 C182 0.960 . S
C186 N187 1.342 . S
C186 C190 1.401 . S
C186 C191 1.499 . S
N187 Co170 1.989 . S
N187 C186 1.342 . S
N187 N188 1.388 . S
N188 Co171 1.993 . S
N188 N187 1.388 . S
N188 C189 1.346 . S
C189 N188 1.346 . S
C189 C190 1.396 . S
C189 C199 1.510 . S
C190 C186 1.401 . S
C190 C189 1.396 . S
C191 C186 1.499 . S
C191 H192 0.959 . S
C191 H193 0.960 . S
C191 H194 0.961 . S
H192 C191 0.959 . S
H193 C191 0.960 . S
H194 C191 0.961 . S
O195 Co170 1.967 . S
O195 C203 1.258 . S
O196 Co171 1.941 . S
O196 C203 1.266 . S
H197 C199 0.959 . S
H198 C199 0.961 . S
C199 C189 1.510 . S
C199 H197 0.959 . S
C199 H198 0.961 . S
C199 H200 0.960 . S
H200 C199 0.960 . S
H201 N181 0.862 . S
O202 Co170 1.920 . S
O202 C175 1.289 . S
C203 O195 1.258 . S
C203 O196 1.266 . S
Co204 O207 1.970 . S
Co204 N221 1.989 . S
Co204 O229 1.967 . S
Co204 O236 1.920 . S
Co205 O208 1.966 . S
Co205 N214 2.022 . S
Co205 N222 1.993 . S
Co205 O230 1.941 . S
C206 O207 1.258 . S
C206 O208 1.263 . S
O207 Co204 1.970 . S
O207 C206 1.258 . S
O208 Co205 1.966 . S
O208 C206 1.263 . S
C209 O210 1.235 . S
C209 O236 1.289 . S
O210 C209 1.235 . S
C211 C213 1.400 . S
C211 N214 1.351 . S
C211 C216 1.501 . S
C212 C213 1.387 . S
C212 N215 1.341 . S
C213 C211 1.400 . S
C213 C212 1.387 . S
N214 Co205 2.022 . S
N214 C211 1.351 . S
N214 N215 1.365 . S
N215 C212 1.341 . S
N215 N214 1.365 . S
N215 H235 0.862 . S
C216 C211 1.501 . S
C216 H217 0.961 . S
C216 H218 0.961 . S
C216 H219 0.960 . S
H217 C216 0.961 . S
H218 C216 0.961 . S
H219 C216 0.960 . S
C220 N221 1.342 . S
C220 C224 1.401 . S
C220 C225 1.499 . S
N221 Co204 1.989 . S
N221 C220 1.342 . S
N221 N222 1.388 . S
N222 Co205 1.993 . S
N222 N221 1.388 . S
N222 C223 1.346 . S
C223 N222 1.346 . S
C223 C224 1.396 . S
C223 C233 1.510 . S
C224 C220 1.401 . S
C224 C223 1.396 . S
C225 C220 1.499 . S
C225 H226 0.959 . S
C225 H227 0.960 . S
C225 H228 0.961 . S
H226 C225 0.959 . S
H227 C225 0.960 . S
H228 C225 0.961 . S
O229 Co204 1.967 . S
O229 C237 1.258 . S
O230 Co205 1.941 . S
O230 C237 1.266 . S
H231 C233 0.959 . S
H232 C233 0.961 . S
C233 C223 1.510 . S
C233 H231 0.959 . S
C233 H232 0.961 . S
C233 H234 0.960 . S
H234 C233 0.960 . S
H235 N215 0.862 . S
O236 Co204 1.920 . S
O236 C209 1.289 . S
C237 O229 1.258 . S
C237 O230 1.266 . S
Co238 O241 1.970 . S
Co238 N255 1.989 . S
Co238 O263 1.967 . S
Co238 O270 1.920 . S
Co239 O242 1.966 . S
Co239 N248 2.022 . S
Co239 N256 1.993 . S
Co239 O264 1.941 . S
C240 O241 1.258 . S
C240 O242 1.263 . S
O241 Co238 1.970 . S
O241 C240 1.258 . S
O242 Co239 1.966 . S
O242 C240 1.263 . S
C243 O244 1.235 . S
C243 O270 1.289 . S
O244 C243 1.235 . S
C245 C247 1.400 . S
C245 N248 1.351 . S
C245 C250 1.501 . S
C246 C247 1.387 . S
C246 N249 1.341 . S
C247 C245 1.400 . S
C247 C246 1.387 . S
N248 Co239 2.022 . S
N248 C245 1.351 . S
N248 N249 1.365 . S
N249 C246 1.341 . S
N249 N248 1.365 . S
N249 H269 0.862 . S
C250 C245 1.501 . S
C250 H251 0.961 . S
C250 H252 0.961 . S
C250 H253 0.960 . S
H251 C250 0.961 . S
H252 C250 0.961 . S
H253 C250 0.960 . S
C254 N255 1.342 . S
C254 C258 1.401 . S
C254 C259 1.499 . S
N255 Co238 1.989 . S
N255 C254 1.342 . S
N255 N256 1.388 . S
N256 Co239 1.993 . S
N256 N255 1.388 . S
N256 C257 1.346 . S
C257 N256 1.346 . S
C257 C258 1.396 . S
C257 C267 1.510 . S
C258 C254 1.401 . S
C258 C257 1.396 . S
C259 C254 1.499 . S
C259 H260 0.959 . S
C259 H261 0.960 . S
C259 H262 0.961 . S
H260 C259 0.959 . S
H261 C259 0.960 . S
H262 C259 0.961 . S
O263 Co238 1.967 . S
O263 C271 1.258 . S
O264 Co239 1.941 . S
O264 C271 1.266 . S
H265 C267 0.959 . S
H266 C267 0.961 . S
C267 C257 1.510 . S
C267 H265 0.959 . S
C267 H266 0.961 . S
C267 H268 0.960 . S
H268 C267 0.960 . S
H269 N249 0.862 . S
O270 Co238 1.920 . S
O270 C243 1.289 . S
C271 O263 1.258 . S
C271 O264 1.266 . S
Co272 O275 1.970 . S
Co272 N289 1.989 . S
Co272 O297 1.967 . S
Co272 O304 1.920 . S
Co273 O276 1.966 . S
Co273 N282 2.022 . S
Co273 N290 1.993 . S
Co273 O298 1.941 . S
C274 O275 1.258 . S
C274 O276 1.263 . S
O275 Co272 1.970 . S
O275 C274 1.258 . S
O276 Co273 1.966 . S
O276 C274 1.263 . S
C277 O278 1.235 . S
C277 O304 1.289 . S
O278 C277 1.235 . S
C279 C281 1.400 . S
C279 N282 1.351 . S
C279 C284 1.501 . S
C280 C281 1.387 . S
C280 N283 1.341 . S
C281 C279 1.400 . S
C281 C280 1.387 . S
N282 Co273 2.022 . S
N282 C279 1.351 . S
N282 N283 1.365 . S
N283 C280 1.341 . S
N283 N282 1.365 . S
N283 H303 0.862 . S
C284 C279 1.501 . S
C284 H285 0.961 . S
C284 H286 0.961 . S
C284 H287 0.960 . S
H285 C284 0.961 . S
H286 C284 0.961 . S
H287 C284 0.960 . S
C288 N289 1.342 . S
C288 C292 1.401 . S
C288 C293 1.499 . S
N289 Co272 1.989 . S
N289 C288 1.342 . S
N289 N290 1.388 . S
N290 Co273 1.993 . S
N290 N289 1.388 . S
N290 C291 1.346 . S
C291 N290 1.346 . S
C291 C292 1.396 . S
C291 C301 1.510 . S
C292 C288 1.401 . S
C292 C291 1.396 . S
C293 C288 1.499 . S
C293 H294 0.959 . S
C293 H295 0.960 . S
C293 H296 0.961 . S
H294 C293 0.959 . S
H295 C293 0.960 . S
H296 C293 0.961 . S
O297 Co272 1.967 . S
O297 C305 1.258 . S
O298 Co273 1.941 . S
O298 C305 1.266 . S
H299 C301 0.959 . S
H300 C301 0.961 . S
C301 C291 1.510 . S
C301 H299 0.959 . S
C301 H300 0.961 . S
C301 H302 0.960 . S
H302 C301 0.960 . S
H303 N283 0.862 . S
O304 Co272 1.920 . S
O304 C277 1.289 . S
C305 O297 1.258 . S
C305 O298 1.266 . S
Co306 O309 1.970 . S
Co306 N323 1.989 . S
Co306 O331 1.967 . S
Co306 O338 1.920 . S
Co307 O310 1.966 . S
Co307 N316 2.022 . S
Co307 N324 1.993 . S
Co307 O332 1.941 . S
C308 O309 1.258 . S
C308 O310 1.263 . S
O309 Co306 1.970 . S
O309 C308 1.258 . S
O310 Co307 1.966 . S
O310 C308 1.263 . S
C311 O312 1.235 . S
C311 O338 1.289 . S
O312 C311 1.235 . S
C313 C315 1.400 . S
C313 N316 1.351 . S
C313 C318 1.501 . S
C314 C315 1.387 . S
C314 N317 1.341 . S
C315 C313 1.400 . S
C315 C314 1.387 . S
N316 Co307 2.022 . S
N316 C313 1.351 . S
N316 N317 1.365 . S
N317 C314 1.341 . S
N317 N316 1.365 . S
N317 H337 0.862 . S
C318 C313 1.501 . S
C318 H319 0.961 . S
C318 H320 0.961 . S
C318 H321 0.960 . S
H319 C318 0.961 . S
H320 C318 0.961 . S
H321 C318 0.960 . S
C322 N323 1.342 . S
C322 C326 1.401 . S
C322 C327 1.499 . S
N323 Co306 1.989 . S
N323 C322 1.342 . S
N323 N324 1.388 . S
N324 Co307 1.993 . S
N324 N323 1.388 . S
N324 C325 1.346 . S
C325 N324 1.346 . S
C325 C326 1.396 . S
C325 C335 1.510 . S
C326 C322 1.401 . S
C326 C325 1.396 . S
C327 C322 1.499 . S
C327 H328 0.959 . S
C327 H329 0.960 . S
C327 H330 0.961 . S
H328 C327 0.959 . S
H329 C327 0.960 . S
H330 C327 0.961 . S
O331 Co306 1.967 . S
O331 C339 1.258 . S
O332 Co307 1.941 . S
O332 C339 1.266 . S
H333 C335 0.959 . S
H334 C335 0.961 . S
C335 C325 1.510 . S
C335 H333 0.959 . S
C335 H334 0.961 . S
C335 H336 0.960 . S
H336 C335 0.960 . S
H337 N317 0.862 . S
O338 Co306 1.920 . S
O338 C311 1.289 . S
C339 O331 1.258 . S
C339 O332 1.266 . S
Co340 O343 1.970 . S
Co340 N357 1.989 . S
Co340 O365 1.967 . S
Co340 O372 1.920 . S
Co341 O344 1.966 . S
Co341 N350 2.022 . S
Co341 N358 1.993 . S
Co341 O366 1.941 . S
C342 O343 1.258 . S
C342 O344 1.263 . S
O343 Co340 1.970 . S
O343 C342 1.258 . S
O344 Co341 1.966 . S
O344 C342 1.263 . S
C345 O346 1.235 . S
C345 O372 1.289 . S
O346 C345 1.235 . S
C347 C349 1.400 1_455 S
C347 N350 1.351 . S
C347 C352 1.501 . S
C348 C349 1.387 . S
C348 N351 1.341 1_655 S
C349 C347 1.400 1_655 S
C349 C348 1.387 . S
N350 Co341 2.022 . S
N350 C347 1.351 . S
N350 N351 1.365 . S
N351 C348 1.341 1_455 S
N351 N350 1.365 . S
N351 H371 0.862 . S
C352 C347 1.501 . S
C352 H353 0.961 . S
C352 H354 0.961 . S
C352 H355 0.960 . S
H353 C352 0.961 . S
H354 C352 0.961 . S
H355 C352 0.960 . S
C356 N357 1.342 . S
C356 C360 1.401 . S
C356 C361 1.499 . S
N357 Co340 1.989 . S
N357 C356 1.342 . S
N357 N358 1.388 . S
N358 Co341 1.993 . S
N358 N357 1.388 . S
N358 C359 1.346 . S
C359 N358 1.346 . S
C359 C360 1.396 . S
C359 C369 1.510 . S
C360 C356 1.401 . S
C360 C359 1.396 . S
C361 C356 1.499 . S
C361 H362 0.959 . S
C361 H363 0.960 . S
C361 H364 0.961 . S
H362 C361 0.959 . S
H363 C361 0.960 . S
H364 C361 0.961 . S
O365 Co340 1.967 . S
O365 C373 1.258 . S
O366 Co341 1.941 . S
O366 C373 1.266 . S
H367 C369 0.959 . S
H368 C369 0.961 . S
C369 C359 1.510 . S
C369 H367 0.959 . S
C369 H368 0.961 . S
C369 H370 0.960 . S
H370 C369 0.960 . S
H371 N351 0.862 . S
O372 Co340 1.920 . S
O372 C345 1.289 . S
C373 O365 1.258 . S
C373 O366 1.266 . S
Co374 O377 1.970 . S
Co374 N391 1.989 . S
Co374 O399 1.967 . S
Co374 O406 1.920 . S
Co375 O378 1.966 . S
Co375 N384 2.022 . S
Co375 N392 1.993 . S
Co375 O400 1.941 . S
C376 O377 1.258 . S
C376 O378 1.263 . S
O377 Co374 1.970 . S
O377 C376 1.258 . S
O378 Co375 1.966 . S
O378 C376 1.263 . S
C379 O380 1.235 . S
C379 O406 1.289 . S
O380 C379 1.235 . S
C381 C383 1.400 . S
C381 N384 1.351 . S
C381 C386 1.501 . S
C382 C383 1.387 . S
C382 N385 1.341 . S
C383 C381 1.400 . S
C383 C382 1.387 . S
N384 Co375 2.022 . S
N384 C381 1.351 . S
N384 N385 1.365 . S
N385 C382 1.341 . S
N385 N384 1.365 . S
N385 H405 0.862 . S
C386 C381 1.501 . S
C386 H387 0.961 . S
C386 H388 0.961 . S
C386 H389 0.960 . S
H387 C386 0.961 . S
H388 C386 0.961 . S
H389 C386 0.960 . S
C390 N391 1.342 . S
C390 C394 1.401 . S
C390 C395 1.499 . S
N391 Co374 1.989 . S
N391 C390 1.342 . S
N391 N392 1.388 . S
N392 Co375 1.993 . S
N392 N391 1.388 . S
N392 C393 1.346 . S
C393 N392 1.346 . S
C393 C394 1.396 . S
C393 C403 1.510 . S
C394 C390 1.401 . S
C394 C393 1.396 . S
C395 C390 1.499 . S
C395 H396 0.959 . S
C395 H397 0.960 . S
C395 H398 0.961 . S
H396 C395 0.959 . S
H397 C395 0.960 . S
H398 C395 0.961 . S
O399 Co374 1.967 . S
O399 C407 1.258 . S
O400 Co375 1.941 . S
O400 C407 1.266 . S
H401 C403 0.959 . S
H402 C403 0.961 . S
C403 C393 1.510 . S
C403 H401 0.959 . S
C403 H402 0.961 . S
C403 H404 0.960 . S
H404 C403 0.960 . S
H405 N385 0.862 . S
O406 Co374 1.920 . S
O406 C379 1.289 . S
C407 O399 1.258 . S
C407 O400 1.266 . S
Co408 O411 1.970 . S
Co408 N425 1.989 . S
Co408 O433 1.967 . S
Co408 O440 1.920 . S
Co409 O412 1.966 . S
Co409 N418 2.022 . S
Co409 N426 1.993 . S
Co409 O434 1.941 . S
C410 O411 1.258 . S
C410 O412 1.263 . S
O411 Co408 1.970 . S
O411 C410 1.258 . S
O412 Co409 1.966 . S
O412 C410 1.263 . S
C413 O414 1.235 . S
C413 O440 1.289 . S
O414 C413 1.235 . S
C415 C417 1.400 . S
C415 N418 1.351 . S
C415 C420 1.501 . S
C416 C417 1.387 . S
C416 N419 1.341 . S
C417 C415 1.400 . S
C417 C416 1.387 . S
N418 Co409 2.022 . S
N418 C415 1.351 . S
N418 N419 1.365 . S
N419 C416 1.341 . S
N419 N418 1.365 . S
N419 H439 0.862 . S
C420 C415 1.501 . S
C420 H421 0.961 . S
C420 H422 0.961 . S
C420 H423 0.960 . S
H421 C420 0.961 . S
H422 C420 0.961 . S
H423 C420 0.960 . S
C424 N425 1.342 . S
C424 C428 1.401 . S
C424 C429 1.499 . S
N425 Co408 1.989 . S
N425 C424 1.342 . S
N425 N426 1.388 . S
N426 Co409 1.993 . S
N426 N425 1.388 . S
N426 C427 1.346 . S
C427 N426 1.346 . S
C427 C428 1.396 . S
C427 C437 1.510 . S
C428 C424 1.401 . S
C428 C427 1.396 . S
C429 C424 1.499 . S
C429 H430 0.959 . S
C429 H431 0.960 . S
C429 H432 0.961 . S
H430 C429 0.959 . S
H431 C429 0.960 . S
H432 C429 0.961 . S
O433 Co408 1.967 . S
O433 C441 1.258 . S
O434 Co409 1.941 . S
O434 C441 1.266 . S
H435 C437 0.959 . S
H436 C437 0.961 . S
C437 C427 1.510 . S
C437 H435 0.959 . S
C437 H436 0.961 . S
C437 H438 0.960 . S
H438 C437 0.960 . S
H439 N419 0.862 . S
O440 Co408 1.920 . S
O440 C413 1.289 . S
C441 O433 1.258 . S
C441 O434 1.266 . S
Co442 O445 1.970 . S
Co442 N459 1.989 . S
Co442 O467 1.967 . S
Co442 O474 1.920 . S
Co443 O446 1.966 . S
Co443 N452 2.022 . S
Co443 N460 1.993 . S
Co443 O468 1.941 . S
C444 O445 1.258 . S
C444 O446 1.263 . S
O445 Co442 1.970 . S
O445 C444 1.258 . S
O446 Co443 1.966 . S
O446 C444 1.263 . S
C447 O448 1.235 . S
C447 O474 1.289 . S
O448 C447 1.235 . S
C449 C451 1.400 . S
C449 N452 1.351 . S
C449 C454 1.501 . S
C450 C451 1.387 . S
C450 N453 1.341 . S
C451 C449 1.400 . S
C451 C450 1.387 . S
N452 Co443 2.022 . S
N452 C449 1.351 . S
N452 N453 1.365 . S
N453 C450 1.341 . S
N453 N452 1.365 . S
N453 H473 0.862 . S
C454 C449 1.501 . S
C454 H455 0.961 . S
C454 H456 0.961 . S
C454 H457 0.960 . S
H455 C454 0.961 . S
H456 C454 0.961 . S
H457 C454 0.960 . S
C458 N459 1.342 . S
C458 C462 1.401 . S
C458 C463 1.499 . S
N459 Co442 1.989 . S
N459 C458 1.342 . S
N459 N460 1.388 . S
N460 Co443 1.993 . S
N460 N459 1.388 . S
N460 C461 1.346 . S
C461 N460 1.346 . S
C461 C462 1.396 . S
C461 C471 1.510 . S
C462 C458 1.401 . S
C462 C461 1.396 . S
C463 C458 1.499 . S
C463 H464 0.959 . S
C463 H465 0.960 . S
C463 H466 0.961 . S
H464 C463 0.959 . S
H465 C463 0.960 . S
H466 C463 0.961 . S
O467 Co442 1.967 . S
O467 C475 1.258 . S
O468 Co443 1.941 . S
O468 C475 1.266 . S
H469 C471 0.959 . S
H470 C471 0.961 . S
C471 C461 1.510 . S
C471 H469 0.959 . S
C471 H470 0.961 . S
C471 H472 0.960 . S
H472 C471 0.960 . S
H473 N453 0.862 . S
O474 Co442 1.920 . S
O474 C447 1.289 . S
C475 O467 1.258 . S
C475 O468 1.266 . S
Co476 O479 1.970 . S
Co476 N493 1.989 . S
Co476 O501 1.967 . S
Co476 O508 1.920 . S
Co477 O480 1.966 . S
Co477 N486 2.022 . S
Co477 N494 1.993 . S
Co477 O502 1.941 . S
C478 O479 1.258 . S
C478 O480 1.263 . S
O479 Co476 1.970 . S
O479 C478 1.258 . S
O480 Co477 1.966 . S
O480 C478 1.263 . S
C481 O482 1.235 . S
C481 O508 1.289 . S
O482 C481 1.235 . S
C483 C485 1.400 . S
C483 N486 1.351 . S
C483 C488 1.501 . S
C484 C485 1.387 . S
C484 N487 1.341 . S
C485 C483 1.400 . S
C485 C484 1.387 . S
N486 Co477 2.022 . S
N486 C483 1.351 . S
N486 N487 1.365 . S
N487 C484 1.341 . S
N487 N486 1.365 . S
N487 H507 0.862 . S
C488 C483 1.501 . S
C488 H489 0.961 . S
C488 H490 0.961 . S
C488 H491 0.960 . S
H489 C488 0.961 . S
H490 C488 0.961 . S
H491 C488 0.960 . S
C492 N493 1.342 . S
C492 C496 1.401 . S
C492 C497 1.499 . S
N493 Co476 1.989 . S
N493 C492 1.342 . S
N493 N494 1.388 . S
N494 Co477 1.993 . S
N494 N493 1.388 . S
N494 C495 1.346 . S
C495 N494 1.346 . S
C495 C496 1.396 . S
C495 C505 1.510 . S
C496 C492 1.401 . S
C496 C495 1.396 . S
C497 C492 1.499 . S
C497 H498 0.959 . S
C497 H499 0.960 . S
C497 H500 0.961 . S
H498 C497 0.959 . S
H499 C497 0.960 . S
H500 C497 0.961 . S
O501 Co476 1.967 . S
O501 C509 1.258 . S
O502 Co477 1.941 . S
O502 C509 1.266 . S
H503 C505 0.959 . S
H504 C505 0.961 . S
C505 C495 1.510 . S
C505 H503 0.959 . S
C505 H504 0.961 . S
C505 H506 0.960 . S
H506 C505 0.960 . S
H507 N487 0.862 . S
O508 Co476 1.920 . S
O508 C481 1.289 . S
C509 O501 1.258 . S
C509 O502 1.266 . S
Co510 O513 1.970 . S
Co510 N527 1.989 . S
Co510 O535 1.967 . S
Co510 O542 1.920 . S
Co511 O514 1.966 . S
Co511 N520 2.022 . S
Co511 N528 1.993 . S
Co511 O536 1.941 . S
C512 O513 1.258 . S
C512 O514 1.263 . S
O513 Co510 1.970 . S
O513 C512 1.258 . S
O514 Co511 1.966 . S
O514 C512 1.263 . S
C515 O516 1.235 . S
C515 O542 1.289 . S
O516 C515 1.235 . S
C517 C519 1.400 . S
C517 N520 1.351 . S
C517 C522 1.501 . S
C518 C519 1.387 . S
C518 N521 1.341 . S
C519 C517 1.400 . S
C519 C518 1.387 . S
N520 Co511 2.022 . S
N520 C517 1.351 . S
N520 N521 1.365 . S
N521 C518 1.341 . S
N521 N520 1.365 . S
N521 H541 0.862 . S
C522 C517 1.501 . S
C522 H523 0.961 . S
C522 H524 0.961 . S
C522 H525 0.960 . S
H523 C522 0.961 . S
H524 C522 0.961 . S
H525 C522 0.960 . S
C526 N527 1.342 . S
C526 C530 1.401 . S
C526 C531 1.499 . S
N527 Co510 1.989 . S
N527 C526 1.342 . S
N527 N528 1.388 . S
N528 Co511 1.993 . S
N528 N527 1.388 . S
N528 C529 1.346 . S
C529 N528 1.346 . S
C529 C530 1.396 . S
C529 C539 1.510 . S
C530 C526 1.401 . S
C530 C529 1.396 . S
C531 C526 1.499 . S
C531 H532 0.959 . S
C531 H533 0.960 . S
C531 H534 0.961 . S
H532 C531 0.959 . S
H533 C531 0.960 . S
H534 C531 0.961 . S
O535 Co510 1.967 . S
O535 C543 1.258 . S
O536 Co511 1.941 . S
O536 C543 1.266 . S
H537 C539 0.959 . S
H538 C539 0.961 . S
C539 C529 1.510 . S
C539 H537 0.959 . S
C539 H538 0.961 . S
C539 H540 0.960 . S
H540 C539 0.960 . S
H541 N521 0.862 . S
O542 Co510 1.920 . S
O542 C515 1.289 . S
C543 O535 1.258 . S
C543 O536 1.266 . S
C413 C9 1.588 1_655 S
C43 C447 1.358 1_545 S
C77 C481 1.547 . S
C107 C519 1.392 1_565 S
C281 C141 1.610 1_655 S
C311 C179 1.472 1_565 S
C209 C349 1.466 . S
C383 C243 1.530 1_545 S
C33 C509 2.193 . S
C543 C67 2.237 . S
C441 C101 2.160 . S
C475 C135 2.290 . S
C373 C169 2.349 . S
C407 C203 2.294 . S
C305 C237 2.353 . S
C339 C271 2.272 . S
C20 C342 1.581 1_554 S
C376 C54 1.538 . S
C274 C88 1.647 1_556 S
C326 C104 1.537 . S
C138 C496 1.610 1_556 S
C190 C512 1.496 . S
C428 C206 1.641 1_554 S
C240 C462 1.468 . S
C417 C5 1.267 . S
C39 C451 1.140 . S
C73 C485 1.094 . S
C515 C111 1.189 . S
C277 C145 1.186 . S
C175 C315 1.043 . S
C345 C213 1.365 . S
C379 C247 1.061 . S
C172 C2 1.717 . S
C224 C36 1.830 . S
C70 C258 1.425 . S
C156 C122 1.448 . S
C292 C444 1.872 . S
C478 C308 1.755 . S
C530 C360 1.573 . S
C394 C410 1.468 . S
