# Generated by pormake.
# Topology uli, (4)-cn, num edge types: 1
# Building blocks:
#     Node 0, Type 0, BuildingBlock: TATPOV_clean_sbu_0, # of connection points: 4
#     Node 1, Type 0, BuildingBlock: TATPOV_clean_sbu_0, # of connection points: 4
#     Node 2, Type 0, BuildingBlock: TATPOV_clean_sbu_0, # of connection points: 4
#     Node 3, Type 0, BuildingBlock: TATPOV_clean_sbu_0, # of connection points: 4
#     Node 4, Type 0, BuildingBlock: TATPOV_clean_sbu_0, # of connection points: 4
#     Node 5, Type 0, BuildingBlock: TATPOV_clean_sbu_0, # of connection points: 4
#     Node 6, Type 0, BuildingBlock: TATPOV_clean_sbu_0, # of connection points: 4
#     Node 7, Type 0, BuildingBlock: TATPOV_clean_sbu_0, # of connection points: 4
#     Node 8, Type 0, BuildingBlock: TATPOV_clean_sbu_0, # of connection points: 4
#     Node 9, Type 0, BuildingBlock: TATPOV_clean_sbu_0, # of connection points: 4
#     Node 10, Type 0, BuildingBlock: TATPOV_clean_sbu_0, # of connection points: 4
#     Node 11, Type 0, BuildingBlock: TATPOV_clean_sbu_0, # of connection points: 4
#     Node 12, Type 0, BuildingBlock: TATPOV_clean_sbu_0, # of connection points: 4
#     Node 13, Type 0, BuildingBlock: TATPOV_clean_sbu_0, # of connection points: 4
#     Node 14, Type 0, BuildingBlock: TATPOV_clean_sbu_0, # of connection points: 4
#     Node 15, Type 0, BuildingBlock: TATPOV_clean_sbu_0, # of connection points: 4
#     Node 16, Type 0, BuildingBlock: TATPOV_clean_sbu_0, # of connection points: 4
#     Node 17, Type 0, BuildingBlock: TATPOV_clean_sbu_0, # of connection points: 4
#     Node 18, Type 0, BuildingBlock: TATPOV_clean_sbu_0, # of connection points: 4
#     Node 19, Type 0, BuildingBlock: TATPOV_clean_sbu_0, # of connection points: 4
#     Node 20, Type 0, BuildingBlock: TATPOV_clean_sbu_0, # of connection points: 4
#     Node 21, Type 0, BuildingBlock: TATPOV_clean_sbu_0, # of connection points: 4
#     Node 22, Type 0, BuildingBlock: TATPOV_clean_sbu_0, # of connection points: 4
#     Node 23, Type 0, BuildingBlock: TATPOV_clean_sbu_0, # of connection points: 4
#     Node 24, Type 0, BuildingBlock: TATPOV_clean_sbu_0, # of connection points: 4
#     Node 25, Type 0, BuildingBlock: TATPOV_clean_sbu_0, # of connection points: 4
#     Node 26, Type 0, BuildingBlock: TATPOV_clean_sbu_0, # of connection points: 4
#     Node 27, Type 0, BuildingBlock: TATPOV_clean_sbu_0, # of connection points: 4
#     Node 28, Type 0, BuildingBlock: TATPOV_clean_sbu_0, # of connection points: 4
#     Node 29, Type 0, BuildingBlock: TATPOV_clean_sbu_0, # of connection points: 4
#     Node 30, Type 0, BuildingBlock: TATPOV_clean_sbu_0, # of connection points: 4
#     Node 31, Type 0, BuildingBlock: TATPOV_clean_sbu_0, # of connection points: 4
#     Node 32, Type 0, BuildingBlock: TATPOV_clean_sbu_0, # of connection points: 4
#     Node 33, Type 0, BuildingBlock: TATPOV_clean_sbu_0, # of connection points: 4
#     Node 34, Type 0, BuildingBlock: TATPOV_clean_sbu_0, # of connection points: 4
#     Node 35, Type 0, BuildingBlock: TATPOV_clean_sbu_0, # of connection points: 4
#     Node 36, Type 0, BuildingBlock: TATPOV_clean_sbu_0, # of connection points: 4
#     Node 37, Type 0, BuildingBlock: TATPOV_clean_sbu_0, # of connection points: 4
#     Node 38, Type 0, BuildingBlock: TATPOV_clean_sbu_0, # of connection points: 4
#     Node 39, Type 0, BuildingBlock: TATPOV_clean_sbu_0, # of connection points: 4
#     Node 40, Type 0, BuildingBlock: TATPOV_clean_sbu_0, # of connection points: 4
#     Node 41, Type 0, BuildingBlock: TATPOV_clean_sbu_0, # of connection points: 4
#     Node 42, Type 0, BuildingBlock: TATPOV_clean_sbu_0, # of connection points: 4
#     Node 43, Type 0, BuildingBlock: TATPOV_clean_sbu_0, # of connection points: 4
#     Node 44, Type 0, BuildingBlock: TATPOV_clean_sbu_0, # of connection points: 4
#     Node 45, Type 0, BuildingBlock: TATPOV_clean_sbu_0, # of connection points: 4
#     Node 46, Type 0, BuildingBlock: TATPOV_clean_sbu_0, # of connection points: 4
#     Node 47, Type 0, BuildingBlock: TATPOV_clean_sbu_0, # of connection points: 4
#     Edge 48, Type (0, 0), BuildingBlock: KIFKEQ_clean_linker_1, # of connection points: 2
#     Edge 49, Type (0, 0), BuildingBlock: KIFKEQ_clean_linker_1, # of connection points: 2
#     Edge 50, Type (0, 0), BuildingBlock: KIFKEQ_clean_linker_1, # of connection points: 2
#     Edge 51, Type (0, 0), BuildingBlock: KIFKEQ_clean_linker_1, # of connection points: 2
#     Edge 52, Type (0, 0), BuildingBlock: KIFKEQ_clean_linker_1, # of connection points: 2
#     Edge 53, Type (0, 0), BuildingBlock: KIFKEQ_clean_linker_1, # of connection points: 2
#     Edge 54, Type (0, 0), BuildingBlock: KIFKEQ_clean_linker_1, # of connection points: 2
#     Edge 55, Type (0, 0), BuildingBlock: KIFKEQ_clean_linker_1, # of connection points: 2
#     Edge 56, Type (0, 0), BuildingBlock: KIFKEQ_clean_linker_1, # of connection points: 2
#     Edge 57, Type (0, 0), BuildingBlock: KIFKEQ_clean_linker_1, # of connection points: 2
#     Edge 58, Type (0, 0), BuildingBlock: KIFKEQ_clean_linker_1, # of connection points: 2
#     Edge 59, Type (0, 0), BuildingBlock: KIFKEQ_clean_linker_1, # of connection points: 2
#     Edge 60, Type (0, 0), BuildingBlock: KIFKEQ_clean_linker_1, # of connection points: 2
#     Edge 61, Type (0, 0), BuildingBlock: KIFKEQ_clean_linker_1, # of connection points: 2
#     Edge 62, Type (0, 0), BuildingBlock: KIFKEQ_clean_linker_1, # of connection points: 2
#     Edge 63, Type (0, 0), BuildingBlock: KIFKEQ_clean_linker_1, # of connection points: 2
#     Edge 64, Type (0, 0), BuildingBlock: KIFKEQ_clean_linker_1, # of connection points: 2
#     Edge 65, Type (0, 0), BuildingBlock: KIFKEQ_clean_linker_1, # of connection points: 2
#     Edge 66, Type (0, 0), BuildingBlock: KIFKEQ_clean_linker_1, # of connection points: 2
#     Edge 67, Type (0, 0), BuildingBlock: KIFKEQ_clean_linker_1, # of connection points: 2
#     Edge 68, Type (0, 0), BuildingBlock: KIFKEQ_clean_linker_1, # of connection points: 2
#     Edge 69, Type (0, 0), BuildingBlock: KIFKEQ_clean_linker_1, # of connection points: 2
#     Edge 70, Type (0, 0), BuildingBlock: KIFKEQ_clean_linker_1, # of connection points: 2
#     Edge 71, Type (0, 0), BuildingBlock: KIFKEQ_clean_linker_1, # of connection points: 2
#     Edge 72, Type (0, 0), BuildingBlock: KIFKEQ_clean_linker_1, # of connection points: 2
#     Edge 73, Type (0, 0), BuildingBlock: KIFKEQ_clean_linker_1, # of connection points: 2
#     Edge 74, Type (0, 0), BuildingBlock: KIFKEQ_clean_linker_1, # of connection points: 2
#     Edge 75, Type (0, 0), BuildingBlock: KIFKEQ_clean_linker_1, # of connection points: 2
#     Edge 76, Type (0, 0), BuildingBlock: KIFKEQ_clean_linker_1, # of connection points: 2
#     Edge 77, Type (0, 0), BuildingBlock: KIFKEQ_clean_linker_1, # of connection points: 2
#     Edge 78, Type (0, 0), BuildingBlock: KIFKEQ_clean_linker_1, # of connection points: 2
#     Edge 79, Type (0, 0), BuildingBlock: KIFKEQ_clean_linker_1, # of connection points: 2
#     Edge 80, Type (0, 0), BuildingBlock: KIFKEQ_clean_linker_1, # of connection points: 2
#     Edge 81, Type (0, 0), BuildingBlock: KIFKEQ_clean_linker_1, # of connection points: 2
#     Edge 82, Type (0, 0), BuildingBlock: KIFKEQ_clean_linker_1, # of connection points: 2
#     Edge 83, Type (0, 0), BuildingBlock: KIFKEQ_clean_linker_1, # of connection points: 2
#     Edge 84, Type (0, 0), BuildingBlock: KIFKEQ_clean_linker_1, # of connection points: 2
#     Edge 85, Type (0, 0), BuildingBlock: KIFKEQ_clean_linker_1, # of connection points: 2
#     Edge 86, Type (0, 0), BuildingBlock: KIFKEQ_clean_linker_1, # of connection points: 2
#     Edge 87, Type (0, 0), BuildingBlock: KIFKEQ_clean_linker_1, # of connection points: 2
#     Edge 88, Type (0, 0), BuildingBlock: KIFKEQ_clean_linker_1, # of connection points: 2
#     Edge 89, Type (0, 0), BuildingBlock: KIFKEQ_clean_linker_1, # of connection points: 2
#     Edge 90, Type (0, 0), BuildingBlock: KIFKEQ_clean_linker_1, # of connection points: 2
#     Edge 91, Type (0, 0), BuildingBlock: KIFKEQ_clean_linker_1, # of connection points: 2
#     Edge 92, Type (0, 0), BuildingBlock: KIFKEQ_clean_linker_1, # of connection points: 2
#     Edge 93, Type (0, 0), BuildingBlock: KIFKEQ_clean_linker_1, # of connection points: 2
#     Edge 94, Type (0, 0), BuildingBlock: KIFKEQ_clean_linker_1, # of connection points: 2
#     Edge 95, Type (0, 0), BuildingBlock: KIFKEQ_clean_linker_1, # of connection points: 2
#     Edge 96, Type (0, 0), BuildingBlock: KIFKEQ_clean_linker_1, # of connection points: 2
#     Edge 97, Type (0, 0), BuildingBlock: KIFKEQ_clean_linker_1, # of connection points: 2
#     Edge 98, Type (0, 0), BuildingBlock: KIFKEQ_clean_linker_1, # of connection points: 2
#     Edge 99, Type (0, 0), BuildingBlock: KIFKEQ_clean_linker_1, # of connection points: 2
#     Edge 100, Type (0, 0), BuildingBlock: KIFKEQ_clean_linker_1, # of connection points: 2
#     Edge 101, Type (0, 0), BuildingBlock: KIFKEQ_clean_linker_1, # of connection points: 2
#     Edge 102, Type (0, 0), BuildingBlock: KIFKEQ_clean_linker_1, # of connection points: 2
#     Edge 103, Type (0, 0), BuildingBlock: KIFKEQ_clean_linker_1, # of connection points: 2
#     Edge 104, Type (0, 0), BuildingBlock: KIFKEQ_clean_linker_1, # of connection points: 2
#     Edge 105, Type (0, 0), BuildingBlock: KIFKEQ_clean_linker_1, # of connection points: 2
#     Edge 106, Type (0, 0), BuildingBlock: KIFKEQ_clean_linker_1, # of connection points: 2
#     Edge 107, Type (0, 0), BuildingBlock: KIFKEQ_clean_linker_1, # of connection points: 2
#     Edge 108, Type (0, 0), BuildingBlock: KIFKEQ_clean_linker_1, # of connection points: 2
#     Edge 109, Type (0, 0), BuildingBlock: KIFKEQ_clean_linker_1, # of connection points: 2
#     Edge 110, Type (0, 0), BuildingBlock: KIFKEQ_clean_linker_1, # of connection points: 2
#     Edge 111, Type (0, 0), BuildingBlock: KIFKEQ_clean_linker_1, # of connection points: 2
#     Edge 112, Type (0, 0), BuildingBlock: KIFKEQ_clean_linker_1, # of connection points: 2
#     Edge 113, Type (0, 0), BuildingBlock: KIFKEQ_clean_linker_1, # of connection points: 2
#     Edge 114, Type (0, 0), BuildingBlock: KIFKEQ_clean_linker_1, # of connection points: 2
#     Edge 115, Type (0, 0), BuildingBlock: KIFKEQ_clean_linker_1, # of connection points: 2
#     Edge 116, Type (0, 0), BuildingBlock: KIFKEQ_clean_linker_1, # of connection points: 2
#     Edge 117, Type (0, 0), BuildingBlock: KIFKEQ_clean_linker_1, # of connection points: 2
#     Edge 118, Type (0, 0), BuildingBlock: KIFKEQ_clean_linker_1, # of connection points: 2
#     Edge 119, Type (0, 0), BuildingBlock: KIFKEQ_clean_linker_1, # of connection points: 2
#     Edge 120, Type (0, 0), BuildingBlock: KIFKEQ_clean_linker_1, # of connection points: 2
#     Edge 121, Type (0, 0), BuildingBlock: KIFKEQ_clean_linker_1, # of connection points: 2
#     Edge 122, Type (0, 0), BuildingBlock: KIFKEQ_clean_linker_1, # of connection points: 2
#     Edge 123, Type (0, 0), BuildingBlock: KIFKEQ_clean_linker_1, # of connection points: 2
#     Edge 124, Type (0, 0), BuildingBlock: KIFKEQ_clean_linker_1, # of connection points: 2
#     Edge 125, Type (0, 0), BuildingBlock: KIFKEQ_clean_linker_1, # of connection points: 2
#     Edge 126, Type (0, 0), BuildingBlock: KIFKEQ_clean_linker_1, # of connection points: 2
#     Edge 127, Type (0, 0), BuildingBlock: KIFKEQ_clean_linker_1, # of connection points: 2
#     Edge 128, Type (0, 0), BuildingBlock: KIFKEQ_clean_linker_1, # of connection points: 2
#     Edge 129, Type (0, 0), BuildingBlock: KIFKEQ_clean_linker_1, # of connection points: 2
#     Edge 130, Type (0, 0), BuildingBlock: KIFKEQ_clean_linker_1, # of connection points: 2
#     Edge 131, Type (0, 0), BuildingBlock: KIFKEQ_clean_linker_1, # of connection points: 2
#     Edge 132, Type (0, 0), BuildingBlock: KIFKEQ_clean_linker_1, # of connection points: 2
#     Edge 133, Type (0, 0), BuildingBlock: KIFKEQ_clean_linker_1, # of connection points: 2
#     Edge 134, Type (0, 0), BuildingBlock: KIFKEQ_clean_linker_1, # of connection points: 2
#     Edge 135, Type (0, 0), BuildingBlock: KIFKEQ_clean_linker_1, # of connection points: 2
#     Edge 136, Type (0, 0), BuildingBlock: KIFKEQ_clean_linker_1, # of connection points: 2
#     Edge 137, Type (0, 0), BuildingBlock: KIFKEQ_clean_linker_1, # of connection points: 2
#     Edge 138, Type (0, 0), BuildingBlock: KIFKEQ_clean_linker_1, # of connection points: 2
#     Edge 139, Type (0, 0), BuildingBlock: KIFKEQ_clean_linker_1, # of connection points: 2
#     Edge 140, Type (0, 0), BuildingBlock: KIFKEQ_clean_linker_1, # of connection points: 2
#     Edge 141, Type (0, 0), BuildingBlock: KIFKEQ_clean_linker_1, # of connection points: 2
#     Edge 142, Type (0, 0), BuildingBlock: KIFKEQ_clean_linker_1, # of connection points: 2
#     Edge 143, Type (0, 0), BuildingBlock: KIFKEQ_clean_linker_1, # of connection points: 2
# Relax obj value: 0.412
# Max RMSD: 0.195
# Mean RMSD: 0.195
data_MOF--net-uli--node1-TATPOV_clean_sbu_0--edge1-KIFKEQ_clean_linker_1
_symmetry_space_group_name_H-M    P1
_symmetry_Int_Tables_number       1
_symmetry_cell_setting            triclinic
loop_
_symmetry_equiv_pos_as_xyz
'x, y, z'
_cell_length_a     68.481971
_cell_length_b     68.417382
_cell_length_c     68.503144
_cell_angle_alpha  89.99161
_cell_angle_beta   89.98673
_cell_angle_gamma 89.983875
loop_
_atom_site_label
_atom_site_type_symbol
_atom_site_fract_x
_atom_site_fract_y
_atom_site_fract_z
_atom_type_partial_charge
Zn0 Zn 0.14174 0.28094 0.18491 0.0
Zn1 Zn 0.11346 0.26673 0.2028 0.0
O2 O 0.13277 0.24832 0.21534 0.0
O3 O 0.15764 0.25895 0.19797 0.0
O4 O 0.08693 0.25865 0.21343 0.0
O5 O 0.14227 0.30735 0.19628 0.0
O6 O 0.11911 0.29469 0.21446 0.0
C7 C 0.1507 0.2472 0.21055 0.0
C8 C 0.12122 0.26336 0.15734 0.0
O9 O 0.11332 0.25803 0.17339 0.0
O10 O 0.13299 0.27755 0.15754 0.0
C11 C 0.07143 0.26123 0.20353 0.0
O12 O 0.0727 0.26965 0.18633 0.0
C13 C 0.13072 0.30881 0.21055 0.0
Zn14 Zn 0.73038 0.12238 0.22123 0.0
Zn15 Zn 0.7367 0.08784 0.21778 0.0
O16 O 0.76151 0.09858 0.23203 0.0
O17 O 0.7582 0.12981 0.22553 0.0
O18 O 0.74186 0.05876 0.21908 0.0
O19 O 0.71181 0.11999 0.24362 0.0
O20 O 0.70917 0.09067 0.23104 0.0
C21 C 0.76852 0.11584 0.23174 0.0
C22 C 0.72677 0.11096 0.18204 0.0
O23 O 0.73624 0.09626 0.18852 0.0
O24 O 0.71992 0.12339 0.19385 0.0
C25 C 0.75543 0.05042 0.20952 0.0
O26 O 0.76559 0.06067 0.19687 0.0
C27 C 0.70251 0.10412 0.24211 0.0
Zn28 Zn 0.88082 0.74671 0.19637 0.0
Zn29 Zn 0.91659 0.73858 0.19496 0.0
O30 O 0.91412 0.76833 0.20239 0.0
O31 O 0.88302 0.77536 0.19925 0.0
O32 O 0.94546 0.73497 0.19998 0.0
O33 O 0.87482 0.72924 0.21911 0.0
O34 O 0.90365 0.71706 0.21218 0.0
C35 C 0.90029 0.78085 0.20254 0.0
C36 C 0.89316 0.73041 0.15926 0.0
O37 O 0.91049 0.73171 0.16601 0.0
O38 O 0.87866 0.73528 0.16963 0.0
C39 C 0.95818 0.74381 0.18974 0.0
O40 O 0.95252 0.7534 0.17412 0.0
C41 C 0.88735 0.71582 0.22113 0.0
Zn42 Zn 0.24826 0.86318 0.18434 0.0
Zn43 Zn 0.25259 0.90135 0.18297 0.0
O44 O 0.22336 0.8956 0.18973 0.0
O45 O 0.21956 0.86376 0.18884 0.0
O46 O 0.25269 0.93062 0.18619 0.0
O47 O 0.26714 0.86137 0.20688 0.0
O48 O 0.27354 0.89268 0.2029 0.0
C49 C 0.21237 0.88062 0.19107 0.0
C50 C 0.26307 0.87793 0.14728 0.0
O51 O 0.26171 0.8949 0.15485 0.0
O52 O 0.25833 0.86286 0.15689 0.0
C53 C 0.23814 0.94081 0.18073 0.0
O54 O 0.22427 0.93247 0.17043 0.0
C55 C 0.27699 0.8764 0.21123 0.0
Zn56 Zn 0.13976 0.73559 0.8102 0.0
Zn57 Zn 0.11181 0.74294 0.78891 0.0
O58 O 0.13078 0.7622 0.77627 0.0
O59 O 0.15192 0.76114 0.80042 0.0
O60 O 0.08565 0.74848 0.77591 0.0
O61 O 0.1469 0.71054 0.79842 0.0
O62 O 0.1198 0.71391 0.78153 0.0
C63 C 0.14592 0.76892 0.78471 0.0
C64 C 0.11352 0.7482 0.83449 0.0
O65 O 0.1076 0.75325 0.81754 0.0
O66 O 0.12589 0.7346 0.83569 0.0
C67 C 0.08011 0.76625 0.77565 0.0
O68 O 0.09161 0.77958 0.7833 0.0
C69 C 0.13477 0.70376 0.78634 0.0
Zn70 Zn 0.29952 0.13692 0.82936 0.0
Zn71 Zn 0.28128 0.11159 0.80787 0.0
O72 O 0.2653 0.13543 0.79948 0.0
O73 O 0.27947 0.15654 0.8192 0.0
O74 O 0.26954 0.08832 0.7938 0.0
O75 O 0.3251 0.13399 0.81578 0.0
O76 O 0.30976 0.11286 0.79717 0.0
C77 C 0.26648 0.15262 0.80657 0.0
C78 C 0.28022 0.11183 0.85373 0.0
O79 O 0.27446 0.10638 0.83688 0.0
O80 O 0.29403 0.12403 0.85501 0.0
C81 C 0.27247 0.07152 0.8012 0.0
O82 O 0.28295 0.0702 0.81722 0.0
C83 C 0.32522 0.12239 0.80142 0.0
Zn84 Zn 0.8819 0.23817 0.81556 0.0
Zn85 Zn 0.91691 0.25033 0.81156 0.0
O86 O 0.91597 0.22085 0.80254 0.0
O87 O 0.88585 0.21094 0.80724 0.0
O88 O 0.94498 0.25651 0.80483 0.0
O89 O 0.87123 0.25872 0.79735 0.0
O90 O 0.90084 0.27115 0.7965 0.0
C91 C 0.90315 0.2073 0.80203 0.0
C92 C 0.89808 0.25268 0.85149 0.0
O93 O 0.91308 0.25639 0.84106 0.0
O94 O 0.88343 0.24431 0.84397 0.0
C95 C 0.95883 0.24879 0.81449 0.0
O96 O 0.95465 0.23831 0.83001 0.0
C97 C 0.88276 0.2722 0.79213 0.0
Zn98 Zn 0.74436 0.87793 0.7226 0.0
Zn99 Zn 0.74617 0.90428 0.7492 0.0
O100 O 0.76824 0.9072 0.72879 0.0
O101 O 0.76474 0.88772 0.70376 0.0
O102 O 0.74871 0.93092 0.76169 0.0
O103 O 0.71556 0.88049 0.71804 0.0
O104 O 0.71652 0.89994 0.74351 0.0
C105 C 0.77434 0.90092 0.71239 0.0
C106 C 0.75677 0.8652 0.76273 0.0
O107 O 0.75472 0.88294 0.76806 0.0
O108 O 0.75338 0.86035 0.74514 0.0
C109 C 0.76581 0.93564 0.76722 0.0
O110 O 0.77924 0.92194 0.76812 0.0
C111 C 0.70666 0.89025 0.73098 0.0
Zn112 Zn 0.27461 0.12085 0.2725 0.0
Zn113 Zn 0.24501 0.09645 0.26866 0.0
O114 O 0.26604 0.09119 0.24804 0.0
O115 O 0.29264 0.10823 0.25262 0.0
O116 O 0.22846 0.07289 0.26308 0.0
O117 O 0.27601 0.11549 0.30145 0.0
O118 O 0.24979 0.09721 0.29842 0.0
C119 C 0.28327 0.0957 0.24281 0.0
C120 C 0.23664 0.13787 0.25941 0.0
O121 O 0.22985 0.12062 0.26097 0.0
O122 O 0.25452 0.14124 0.26311 0.0
C123 C 0.22279 0.07141 0.24546 0.0
O124 O 0.2243 0.08678 0.23404 0.0
C125 C 0.26244 0.1056 0.30923 0.0
Zn126 Zn 0.86922 0.23872 0.28345 0.0
Zn127 Zn 0.90295 0.22714 0.27487 0.0
O128 O 0.89255 0.24378 0.25127 0.0
O129 O 0.8638 0.25489 0.26009 0.0
O130 O 0.9318 0.22523 0.26823 0.0
O131 O 0.87537 0.25191 0.30827 0.0
O132 O 0.90298 0.23606 0.30451 0.0
C133 C 0.87719 0.25365 0.2475 0.0
C134 C 0.87301 0.19619 0.27765 0.0
O135 O 0.89054 0.19999 0.27266 0.0
O136 O 0.86182 0.20982 0.2834 0.0
C137 C 0.93726 0.22154 0.25086 0.0
O138 O 0.92398 0.21709 0.23774 0.0
C139 C 0.89151 0.24629 0.31515 0.0
Zn140 Zn 0.82218 0.84998 0.2884 0.0
Zn141 Zn 0.80952 0.88262 0.27467 0.0
O142 O 0.79712 0.86343 0.25508 0.0
O143 O 0.8091 0.8357 0.26602 0.0
O144 O 0.79953 0.90893 0.26516 0.0
O145 O 0.80911 0.85238 0.31396 0.0
O146 O 0.79801 0.8805 0.30314 0.0
C147 C 0.79902 0.84496 0.25356 0.0
C148 C 0.85378 0.87225 0.27577 0.0
O149 O 0.83974 0.88318 0.27013 0.0
O150 O 0.85012 0.85732 0.286 0.0
C151 C 0.80838 0.91926 0.25249 0.0
O152 O 0.82507 0.91306 0.24535 0.0
C153 C 0.79911 0.86765 0.31667 0.0
Zn154 Zn 0.14885 0.81458 0.28011 0.0
Zn155 Zn 0.11975 0.79421 0.27 0.0
O156 O 0.13896 0.78426 0.24959 0.0
O157 O 0.16189 0.80624 0.25453 0.0
O158 O 0.09423 0.78145 0.26179 0.0
O159 O 0.15342 0.80011 0.30457 0.0
O160 O 0.12702 0.7831 0.29776 0.0
C161 C 0.15501 0.79219 0.2446 0.0
C162 C 0.12177 0.84037 0.26972 0.0
O163 O 0.11496 0.82393 0.26408 0.0
O164 O 0.13585 0.84048 0.2816 0.0
C165 C 0.08781 0.78656 0.2451 0.0
O166 O 0.09788 0.79929 0.23485 0.0
C167 C 0.14131 0.78696 0.30915 0.0
Zn168 Zn 0.27775 0.87955 0.72341 0.0
Zn169 Zn 0.25509 0.90965 0.72514 0.0
O170 O 0.27608 0.9118 0.74673 0.0
O171 O 0.29607 0.88691 0.74521 0.0
O172 O 0.2442 0.93701 0.7273 0.0
O173 O 0.28437 0.88319 0.69515 0.0
O174 O 0.26056 0.90467 0.69558 0.0
C175 C 0.29071 0.90252 0.75349 0.0
C176 C 0.23647 0.87171 0.7341 0.0
O177 O 0.23426 0.89021 0.73392 0.0
O178 O 0.25288 0.86419 0.72981 0.0
C179 C 0.23769 0.94168 0.74406 0.0
O180 O 0.23545 0.92784 0.75717 0.0
C181 C 0.27253 0.89404 0.68599 0.0
Zn182 Zn 0.15771 0.30086 0.7726 0.0
Zn183 Zn 0.13116 0.27563 0.76178 0.0
O184 O 0.12152 0.29142 0.78556 0.0
O185 O 0.14242 0.31396 0.7941 0.0
O186 O 0.1055 0.26218 0.75645 0.0
O187 O 0.15973 0.31198 0.74561 0.0
O188 O 0.14092 0.28787 0.7357 0.0
C189 C 0.12636 0.30535 0.79686 0.0
C190 C 0.16843 0.25888 0.77635 0.0
O191 O 0.15124 0.25524 0.7702 0.0
O192 O 0.17403 0.27645 0.77845 0.0
C193 C 0.09926 0.25148 0.7703 0.0
O194 O 0.11131 0.24683 0.78449 0.0
C195 C 0.15219 0.30224 0.73183 0.0
Zn196 Zn 0.83042 0.13991 0.70548 0.0
Zn197 Zn 0.81669 0.11007 0.72342 0.0
O198 O 0.80554 0.13127 0.74142 0.0
O199 O 0.81883 0.15677 0.72707 0.0
O200 O 0.80709 0.08468 0.73533 0.0
O201 O 0.81582 0.13585 0.68089 0.0
O202 O 0.80331 0.11039 0.69587 0.0
C203 C 0.80861 0.14962 0.74077 0.0
C204 C 0.86145 0.11887 0.71995 0.0
O205 O 0.847 0.10956 0.72723 0.0
O206 O 0.85829 0.13206 0.70743 0.0
C207 C 0.81623 0.06873 0.73261 0.0
O208 O 0.83224 0.0689 0.72204 0.0
C209 C 0.80426 0.12147 0.68086 0.0
Zn210 Zn 0.8686 0.80164 0.72732 0.0
Zn211 Zn 0.90418 0.80035 0.72266 0.0
O212 O 0.89778 0.78658 0.74937 0.0
O213 O 0.8662 0.78134 0.74787 0.0
O214 O 0.93372 0.79768 0.72263 0.0
O215 O 0.86376 0.79465 0.69944 0.0
O216 O 0.89462 0.7861 0.6974 0.0
C217 C 0.88233 0.77891 0.75644 0.0
C218 C 0.88348 0.83937 0.72784 0.0
O219 O 0.8981 0.83026 0.72072 0.0
O220 O 0.8693 0.82982 0.73481 0.0
C221 C 0.94276 0.80443 0.7374 0.0
O222 O 0.93277 0.81408 0.75065 0.0
C223 C 0.87758 0.78702 0.68984 0.0
Zn224 Zn 0.26344 0.19347 0.13577 0.0
Zn225 Zn 0.26551 0.18364 0.1005 0.0
O226 O 0.2364 0.1909 0.10637 0.0
O227 O 0.23441 0.19379 0.13816 0.0
O228 O 0.26373 0.18239 0.07119 0.0
O229 O 0.27855 0.21829 0.13217 0.0
O230 O 0.28739 0.20431 0.10469 0.0
C231 C 0.22613 0.19341 0.12169 0.0
C232 C 0.28068 0.15508 0.12914 0.0
O233 O 0.27454 0.15691 0.11164 0.0
O234 O 0.2785 0.1689 0.14125 0.0
C235 C 0.24931 0.17363 0.06346 0.0
O236 O 0.23831 0.16241 0.07449 0.0
C237 C 0.28969 0.21764 0.11747 0.0
Zn238 Zn 0.25261 0.82366 0.84934 0.0
Zn239 Zn 0.25792 0.82152 0.88661 0.0
O240 O 0.22804 0.81753 0.88155 0.0
O241 O 0.22426 0.81762 0.84972 0.0
O242 O 0.25871 0.81493 0.91528 0.0
O243 O 0.27308 0.80345 0.84367 0.0
O244 O 0.27772 0.80146 0.87534 0.0
C245 C 0.21697 0.81628 0.86661 0.0
C246 C 0.26748 0.85941 0.86634 0.0
O247 O 0.26826 0.84986 0.88234 0.0
O248 O 0.2608 0.85152 0.85104 0.0
C249 C 0.25055 0.82468 0.92881 0.0
O250 O 0.24265 0.8417 0.92477 0.0
C251 C 0.28226 0.79632 0.85803 0.0
Zn252 Zn 0.16338 0.21862 0.87155 0.0
Zn253 Zn 0.17801 0.23157 0.90348 0.0
O254 O 0.18424 0.2019 0.90054 0.0
O255 O 0.1718 0.19081 0.87325 0.0
O256 O 0.18976 0.23504 0.9302 0.0
O257 O 0.17981 0.23908 0.85753 0.0
O258 O 0.1926 0.25014 0.88486 0.0
C259 C 0.18133 0.18779 0.88875 0.0
C260 C 0.13476 0.23832 0.89396 0.0
O261 O 0.14954 0.24177 0.90477 0.0
O262 O 0.13643 0.22655 0.87979 0.0
C263 C 0.18157 0.22499 0.9435 0.0
O264 O 0.16495 0.21626 0.93952 0.0
C265 C 0.19074 0.25116 0.86636 0.0
Zn266 Zn 0.75851 0.28626 0.85666 0.0
Zn267 Zn 0.75469 0.25988 0.88372 0.0
O268 O 0.77819 0.27777 0.89006 0.0
O269 O 0.78115 0.30101 0.86831 0.0
O270 O 0.7521 0.24654 0.90992 0.0
O271 O 0.73073 0.29563 0.8585 0.0
O272 O 0.72671 0.26964 0.87692 0.0
C273 C 0.78727 0.29267 0.8836 0.0
C274 C 0.76538 0.24461 0.84499 0.0
O275 O 0.76267 0.24014 0.86286 0.0
O276 O 0.76411 0.26232 0.83952 0.0
C277 C 0.76745 0.23978 0.91794 0.0
O278 O 0.78361 0.23879 0.90763 0.0
C279 C 0.71949 0.28387 0.86727 0.0
Zn280 Zn 0.82048 0.71216 0.84366 0.0
Zn281 Zn 0.80109 0.73178 0.88724 0.0
O282 O 0.79615 0.75312 0.86733 0.0
O283 O 0.80882 0.74021 0.84015 0.0
O284 O 0.7903 0.74059 0.91361 0.0
O285 O 0.81023 0.6926 0.86477 0.0
O286 O 0.78529 0.70815 0.8771 0.0
C287 C 0.80035 0.7542 0.84917 0.0
C288 C 0.83959 0.71849 0.87773 0.0
O289 O 0.83103 0.73041 0.88896 0.0
O290 O 0.82919 0.70465 0.87127 0.0
C291 C 0.80028 0.73796 0.92907 0.0
O292 O 0.81727 0.72914 0.92772 0.0
C293 C 0.79203 0.69318 0.86838 0.0
Zn294 Zn 0.74706 0.72284 0.12428 0.0
Zn295 Zn 0.74541 0.75093 0.10021 0.0
O296 O 0.7704 0.73415 0.09679 0.0
O297 O 0.7699 0.70726 0.11402 0.0
O298 O 0.74427 0.763 0.07318 0.0
O299 O 0.71942 0.71357 0.12202 0.0
O300 O 0.71701 0.74156 0.10656 0.0
C301 C 0.77851 0.7182 0.10191 0.0
C302 C 0.75382 0.76435 0.13901 0.0
O303 O 0.75195 0.77045 0.1215 0.0
O304 O 0.75229 0.74618 0.14278 0.0
C305 C 0.76002 0.77011 0.06633 0.0
O306 O 0.77475 0.77293 0.0783 0.0
C307 C 0.70888 0.72689 0.11476 0.0
Zn308 Zn 0.2777 0.7366 0.11959 0.0
Zn309 Zn 0.25209 0.74202 0.09189 0.0
O310 O 0.27402 0.76225 0.08943 0.0
O311 O 0.29653 0.758 0.11166 0.0
O312 O 0.2395 0.74694 0.06581 0.0
O313 O 0.2815 0.70817 0.1131 0.0
O314 O 0.25611 0.71203 0.09392 0.0
C315 C 0.28994 0.76761 0.09732 0.0
C316 C 0.23779 0.74913 0.13186 0.0
O317 O 0.23374 0.7504 0.11375 0.0
O318 O 0.25458 0.74345 0.13737 0.0
C319 C 0.23357 0.76418 0.06215 0.0
O320 O 0.23237 0.77684 0.07652 0.0
C321 C 0.26819 0.70079 0.1026 0.0
Zn322 Zn 0.74408 0.26182 0.1313 0.0
Zn323 Zn 0.76528 0.26018 0.1015 0.0
O324 O 0.7503 0.23348 0.10417 0.0
O325 O 0.73053 0.23631 0.12917 0.0
O326 O 0.77369 0.25921 0.07318 0.0
O327 O 0.72978 0.28646 0.12564 0.0
O328 O 0.75277 0.28821 0.10348 0.0
C329 C 0.73729 0.22617 0.11534 0.0
C330 C 0.78718 0.26251 0.13808 0.0
O331 O 0.78907 0.26018 0.1197 0.0
O332 O 0.77023 0.26366 0.14555 0.0
C333 C 0.77848 0.2434 0.06463 0.0
O334 O 0.78052 0.22739 0.07502 0.0
C335 C 0.73892 0.29631 0.11302 0.0
Zn336 Zn 0.63093 0.75623 0.7722 0.0
Zn337 Zn 0.60191 0.75492 0.74803 0.0
O338 O 0.59989 0.73282 0.76862 0.0
O339 O 0.62283 0.73486 0.79073 0.0
O340 O 0.57445 0.75274 0.73713 0.0
O341 O 0.62776 0.78475 0.77816 0.0
O342 O 0.60618 0.78447 0.75444 0.0
C343 C 0.60803 0.72617 0.78396 0.0
C344 C 0.64043 0.74565 0.73089 0.0
O345 O 0.62216 0.74701 0.72739 0.0
O346 O 0.64682 0.74883 0.74801 0.0
C347 C 0.56881 0.73566 0.73237 0.0
O348 O 0.58188 0.72162 0.73142 0.0
C349 C 0.6167 0.79398 0.76658 0.0
Zn350 Zn 0.25435 0.62831 0.68423 0.0
Zn351 Zn 0.24423 0.59192 0.68668 0.0
O352 O 0.27453 0.59343 0.69173 0.0
O353 O 0.28262 0.6243 0.68828 0.0
O354 O 0.23977 0.5633 0.69254 0.0
O355 O 0.23652 0.63592 0.70635 0.0
O356 O 0.22569 0.60562 0.70626 0.0
C357 C 0.28754 0.60681 0.69152 0.0
C358 C 0.23587 0.61381 0.64919 0.0
O359 O 0.23432 0.5977 0.65849 0.0
O360 O 0.24406 0.62841 0.65702 0.0
C361 C 0.24831 0.54984 0.68301 0.0
O362 O 0.25867 0.55448 0.66754 0.0
C363 C 0.22472 0.62312 0.71258 0.0
Zn364 Zn 0.36631 0.21058 0.6666 0.0
Zn365 Zn 0.39231 0.22891 0.68763 0.0
O366 O 0.36809 0.24408 0.69647 0.0
O367 O 0.34636 0.22981 0.67757 0.0
O368 O 0.41502 0.24152 0.70177 0.0
O369 O 0.37059 0.18492 0.67977 0.0
O370 O 0.3922 0.20023 0.69787 0.0
C371 C 0.35065 0.24272 0.69015 0.0
C372 C 0.3913 0.23065 0.64201 0.0
O373 O 0.39749 0.23606 0.65873 0.0
O374 O 0.3787 0.21718 0.64096 0.0
C375 C 0.41597 0.25999 0.70375 0.0
O376 O 0.40176 0.27085 0.69679 0.0
C377 C 0.38278 0.1847 0.69363 0.0
Zn378 Zn 0.74086 0.35638 0.79102 0.0
Zn379 Zn 0.74373 0.38272 0.76325 0.0
O380 O 0.72164 0.38987 0.78232 0.0
O381 O 0.71928 0.36922 0.8066 0.0
O382 O 0.74454 0.40845 0.74882 0.0
O383 O 0.76943 0.3585 0.79795 0.0
O384 O 0.7722 0.37651 0.7715 0.0
C385 C 0.7132 0.38436 0.79793 0.0
C386 C 0.73163 0.34332 0.75031 0.0
O387 O 0.73465 0.36094 0.74501 0.0
O388 O 0.73348 0.33851 0.76814 0.0
C389 C 0.72866 0.41416 0.74102 0.0
O390 O 0.71412 0.40172 0.73955 0.0
C391 C 0.78008 0.36702 0.78547 0.0
Zn392 Zn 0.62761 0.22095 0.27537 0.0
Zn393 Zn 0.59287 0.22451 0.28763 0.0
O394 O 0.59981 0.25003 0.27201 0.0
O395 O 0.62979 0.24602 0.26134 0.0
O396 O 0.5636 0.228 0.29053 0.0
O397 O 0.62342 0.19689 0.26005 0.0
O398 O 0.59551 0.19613 0.27583 0.0
C399 C 0.61461 0.25639 0.26263 0.0
C400 C 0.62359 0.22161 0.31802 0.0
O401 O 0.60555 0.22502 0.3149 0.0
O402 O 0.63526 0.21894 0.3039 0.0
C403 C 0.55665 0.24448 0.29561 0.0
O404 O 0.56874 0.25836 0.30105 0.0
C405 C 0.60801 0.18792 0.26466 0.0
Zn406 Zn 0.74686 0.63932 0.22511 0.0
Zn407 Zn 0.74703 0.6121 0.25171 0.0
O408 O 0.72468 0.60717 0.23198 0.0
O409 O 0.7251 0.62876 0.20842 0.0
O410 O 0.74668 0.58586 0.26523 0.0
O411 O 0.77513 0.63559 0.21822 0.0
O412 O 0.77608 0.61657 0.24406 0.0
C413 C 0.71733 0.61398 0.21632 0.0
C414 C 0.73724 0.65161 0.26596 0.0
O415 O 0.73892 0.63365 0.27066 0.0
O416 O 0.74004 0.65692 0.24839 0.0
C417 C 0.73012 0.57887 0.26996 0.0
O418 O 0.71475 0.59036 0.26927 0.0
C419 C 0.78489 0.62579 0.23047 0.0
Zn420 Zn 0.35293 0.78361 0.32201 0.0
Zn421 Zn 0.3816 0.77049 0.30204 0.0
O422 O 0.3606 0.75234 0.29123 0.0
O423 O 0.33596 0.76281 0.30898 0.0
O424 O 0.40645 0.76122 0.28875 0.0
O425 O 0.35384 0.81037 0.31131 0.0
O426 O 0.37695 0.79922 0.29203 0.0
C427 C 0.34273 0.75119 0.29622 0.0
C428 C 0.3782 0.76695 0.3478 0.0
O429 O 0.38607 0.76298 0.33136 0.0
O430 O 0.36374 0.77839 0.34831 0.0
C431 C 0.4127 0.74424 0.29309 0.0
O432 O 0.4028 0.73369 0.3057 0.0
C433 C 0.36553 0.81304 0.29731 0.0
Zn434 Zn 0.25562 0.367 0.32465 0.0
Zn435 Zn 0.24506 0.40351 0.32036 0.0
O436 O 0.27446 0.40154 0.3128 0.0
O437 O 0.28327 0.37082 0.3163 0.0
O438 O 0.24081 0.43177 0.3136 0.0
O439 O 0.23389 0.35876 0.30615 0.0
O440 O 0.22557 0.38957 0.30232 0.0
C441 C 0.28749 0.38827 0.31204 0.0
C442 C 0.24061 0.38403 0.36001 0.0
O443 O 0.23697 0.39891 0.34935 0.0
O444 O 0.24939 0.3694 0.35292 0.0
C445 C 0.24933 0.44573 0.32238 0.0
O446 O 0.25924 0.44213 0.33839 0.0
C447 C 0.22274 0.37153 0.2987 0.0
Zn448 Zn 0.68318 0.63313 0.73256 0.0
Zn449 Zn 0.68969 0.59759 0.74222 0.0
O450 O 0.69325 0.59944 0.71175 0.0
O451 O 0.68913 0.63043 0.70449 0.0
O452 O 0.69701 0.56921 0.74636 0.0
O453 O 0.70279 0.64318 0.75198 0.0
O454 O 0.70923 0.61272 0.75992 0.0
C455 C 0.69262 0.61313 0.69908 0.0
C456 C 0.64987 0.61571 0.75045 0.0
O457 O 0.66146 0.60135 0.75325 0.0
O458 O 0.65552 0.63047 0.7409 0.0
C459 C 0.68572 0.55535 0.74131 0.0
O460 O 0.66819 0.55954 0.73474 0.0
C461 C 0.71206 0.63101 0.76237 0.0
Zn462 Zn 0.36153 0.67321 0.78277 0.0
Zn463 Zn 0.38998 0.68968 0.76689 0.0
O464 O 0.37021 0.70063 0.74767 0.0
O465 O 0.34514 0.68538 0.76078 0.0
O466 O 0.4164 0.70017 0.75816 0.0
O467 O 0.36195 0.68592 0.80857 0.0
O468 O 0.38469 0.70321 0.79405 0.0
C469 C 0.35206 0.69657 0.7477 0.0
C470 C 0.38273 0.64404 0.76743 0.0
O471 O 0.39113 0.65948 0.76111 0.0
O472 O 0.36984 0.64563 0.7805 0.0
C473 C 0.43195 0.69089 0.76236 0.0
O474 O 0.43056 0.67463 0.77248 0.0
C475 C 0.3735 0.70028 0.80872 0.0
Zn476 Zn 0.20456 0.35227 0.73067 0.0
Zn477 Zn 0.23068 0.37845 0.74058 0.0
O478 O 0.21401 0.38822 0.71759 0.0
O479 O 0.19073 0.36789 0.70974 0.0
O480 O 0.24428 0.40417 0.74524 0.0
O481 O 0.1947 0.35018 0.7582 0.0
O482 O 0.21966 0.36838 0.76707 0.0
C483 C 0.19957 0.3838 0.7068 0.0
C484 C 0.24634 0.3412 0.72509 0.0
O485 O 0.25047 0.35834 0.7311 0.0
O486 O 0.22864 0.33578 0.72378 0.0
C487 C 0.25405 0.41044 0.73072 0.0
O488 O 0.25821 0.39823 0.7165 0.0
C489 C 0.20534 0.35729 0.77155 0.0
Zn490 Zn 0.61917 0.32135 0.73993 0.0
Zn491 Zn 0.58383 0.31765 0.75154 0.0
O492 O 0.58572 0.30832 0.72228 0.0
O493 O 0.61589 0.31305 0.71258 0.0
O494 O 0.55515 0.31227 0.75599 0.0
O495 O 0.62848 0.30266 0.7608 0.0
O496 O 0.59858 0.30173 0.77262 0.0
C497 C 0.59867 0.30766 0.70886 0.0
C498 C 0.60352 0.35729 0.75472 0.0
O499 O 0.58841 0.34693 0.75813 0.0
O500 O 0.61812 0.34981 0.7462 0.0
C501 C 0.54345 0.32047 0.74412 0.0
O502 O 0.55046 0.33338 0.73176 0.0
C503 C 0.6166 0.29716 0.77387 0.0
Zn504 Zn 0.73085 0.35947 0.23597 0.0
Zn505 Zn 0.723 0.39399 0.24525 0.0
O506 O 0.74018 0.38269 0.26797 0.0
O507 O 0.74521 0.35205 0.25986 0.0
O508 O 0.72238 0.42253 0.25282 0.0
O509 O 0.746 0.36557 0.21224 0.0
O510 O 0.73235 0.39438 0.21581 0.0
C511 C 0.7474 0.36592 0.27181 0.0
C512 C 0.68931 0.36703 0.24043 0.0
O513 O 0.69485 0.3835 0.24711 0.0
O514 O 0.70171 0.3549 0.23394 0.0
C515 C 0.71011 0.43523 0.2471 0.0
O516 O 0.696 0.42996 0.23523 0.0
C517 C 0.7421 0.38227 0.20546 0.0
Zn518 Zn 0.6205 0.69735 0.2495 0.0
Zn519 Zn 0.58412 0.69732 0.24175 0.0
O520 O 0.58769 0.70586 0.27115 0.0
O521 O 0.61919 0.70539 0.27708 0.0
O522 O 0.55522 0.70288 0.23897 0.0
O523 O 0.62754 0.71612 0.22816 0.0
O524 O 0.59704 0.71269 0.21874 0.0
C525 C 0.60193 0.70798 0.28301 0.0
C526 C 0.6052 0.65922 0.23841 0.0
O527 O 0.58877 0.66782 0.2366 0.0
O528 O 0.62019 0.66867 0.24367 0.0
C529 C 0.54254 0.69197 0.24705 0.0
O530 O 0.54825 0.67561 0.25531 0.0
C531 C 0.61426 0.71918 0.21571 0.0
Zn532 Zn 0.21335 0.63179 0.23357 0.0
Zn533 Zn 0.24157 0.60493 0.23566 0.0
O534 O 0.22052 0.59936 0.25596 0.0
O535 O 0.19597 0.61977 0.25455 0.0
O536 O 0.25664 0.58014 0.23984 0.0
O537 O 0.21073 0.62656 0.20446 0.0
O538 O 0.23582 0.60657 0.20623 0.0
C539 C 0.20414 0.60519 0.26245 0.0
C540 C 0.25274 0.6458 0.24575 0.0
O541 O 0.2583 0.6281 0.244 0.0
O542 O 0.23511 0.65044 0.24226 0.0
C543 C 0.26294 0.57713 0.25705 0.0
O544 O 0.2634 0.5918 0.26942 0.0
C545 C 0.22328 0.61584 0.19605 0.0
Zn546 Zn 0.35862 0.31315 0.21787 0.0
Zn547 Zn 0.38907 0.29608 0.2317 0.0
O548 O 0.36858 0.28324 0.24924 0.0
O549 O 0.34221 0.29654 0.23646 0.0
O550 O 0.41485 0.28449 0.24065 0.0
O551 O 0.36265 0.30518 0.19057 0.0
O552 O 0.38655 0.2872 0.20229 0.0
C553 C 0.35009 0.28528 0.24888 0.0
C554 C 0.38117 0.34075 0.2368 0.0
O555 O 0.39102 0.32528 0.24026 0.0
O556 O 0.36644 0.3399 0.22575 0.0
C557 C 0.42043 0.28669 0.25823 0.0
O558 O 0.40917 0.29637 0.27039 0.0
C559 C 0.37583 0.29256 0.18796 0.0
Zn560 Zn 0.77649 0.67785 0.62325 0.0
Zn561 Zn 0.76139 0.69541 0.59489 0.0
O562 O 0.74303 0.70631 0.61603 0.0
O563 O 0.75482 0.68896 0.64034 0.0
O564 O 0.75174 0.70738 0.56948 0.0
O565 O 0.80232 0.69022 0.62268 0.0
O566 O 0.79009 0.70654 0.59792 0.0
C567 C 0.74236 0.70107 0.63388 0.0
C568 C 0.76117 0.64979 0.59994 0.0
O569 O 0.75488 0.66552 0.59205 0.0
O570 O 0.77403 0.65093 0.61309 0.0
C571 C 0.73374 0.70675 0.5649 0.0
O572 O 0.72142 0.69818 0.57686 0.0
C573 C 0.80428 0.70302 0.60957 0.0
Zn574 Zn 0.77586 0.24473 0.38352 0.0
Zn575 Zn 0.76866 0.25957 0.41604 0.0
O576 O 0.74412 0.24338 0.40751 0.0
O577 O 0.75074 0.23115 0.37868 0.0
O578 O 0.7621 0.26398 0.44452 0.0
O579 O 0.79906 0.22923 0.3912 0.0
O580 O 0.79771 0.24911 0.41624 0.0
C581 C 0.73893 0.23344 0.39264 0.0
C582 C 0.77467 0.28782 0.38438 0.0
O583 O 0.7683 0.28587 0.40175 0.0
O584 O 0.77959 0.27292 0.37449 0.0
C585 C 0.74503 0.26994 0.44882 0.0
O586 O 0.73328 0.27529 0.43463 0.0
C587 C 0.80715 0.23666 0.40599 0.0
Zn588 Zn 0.66794 0.79146 0.36799 0.0
Zn589 Zn 0.68229 0.77483 0.39732 0.0
O590 O 0.69449 0.75687 0.37674 0.0
O591 O 0.6796 0.76967 0.35134 0.0
O592 O 0.69195 0.76363 0.42307 0.0
O593 O 0.68159 0.81661 0.3703 0.0
O594 O 0.69487 0.803 0.3961 0.0
C595 C 0.69078 0.75674 0.35852 0.0
C596 C 0.6374 0.77626 0.38774 0.0
O597 O 0.65212 0.76912 0.39676 0.0
O598 O 0.6401 0.78991 0.37563 0.0
C599 C 0.68343 0.76679 0.43927 0.0
O600 O 0.66766 0.77774 0.43951 0.0
C601 C 0.69331 0.81757 0.38448 0.0
Zn602 Zn 0.26016 0.67254 0.36298 0.0
Zn603 Zn 0.25269 0.67099 0.40056 0.0
O604 O 0.28225 0.67815 0.39643 0.0
O605 O 0.28864 0.67711 0.36506 0.0
O606 O 0.25063 0.6726 0.43013 0.0
O607 O 0.24127 0.69508 0.36028 0.0
O608 O 0.23275 0.69159 0.39111 0.0
C609 C 0.29442 0.67955 0.38238 0.0
C610 C 0.24342 0.63579 0.37513 0.0
O611 O 0.24296 0.64343 0.39212 0.0
O612 O 0.25037 0.64519 0.36082 0.0
C613 C 0.26566 0.66969 0.44069 0.0
O614 O 0.28181 0.66337 0.43251 0.0
C615 C 0.23052 0.6998 0.37457 0.0
Zn616 Zn 0.21732 0.24088 0.37173 0.0
Zn617 Zn 0.24546 0.24249 0.39866 0.0
O618 O 0.22546 0.26438 0.40336 0.0
O619 O 0.20081 0.26274 0.38309 0.0
O620 O 0.26201 0.24749 0.4224 0.0
O621 O 0.21364 0.21214 0.37833 0.0
O622 O 0.23779 0.21345 0.39947 0.0
C623 C 0.2093 0.27114 0.39718 0.0
C624 C 0.25695 0.24982 0.35699 0.0
O625 O 0.26242 0.24768 0.37464 0.0
O626 O 0.23903 0.24822 0.35248 0.0
C627 C 0.26803 0.26502 0.42381 0.0
O628 O 0.26602 0.27667 0.40869 0.0
C629 C 0.22502 0.20358 0.39019 0.0
Zn630 Zn 0.28671 0.3491 0.62737 0.0
Zn631 Zn 0.27224 0.3353 0.59579 0.0
O632 O 0.30193 0.32823 0.59703 0.0
O633 O 0.31425 0.34058 0.62384 0.0
O634 O 0.26589 0.32499 0.56897 0.0
O635 O 0.26704 0.33223 0.64198 0.0
O636 O 0.25468 0.32018 0.61487 0.0
C637 C 0.31653 0.331 0.60825 0.0
C638 C 0.26603 0.3784 0.60744 0.0
O639 O 0.26222 0.36391 0.59636 0.0
O640 O 0.27857 0.37644 0.62088 0.0
C641 C 0.27744 0.3301 0.55533 0.0
O642 O 0.29124 0.34286 0.5592 0.0
C643 C 0.25457 0.32149 0.63344 0.0
Zn644 Zn 0.6652 0.20259 0.64733 0.0
Zn645 Zn 0.68129 0.21956 0.61775 0.0
O646 O 0.69227 0.23707 0.6394 0.0
O647 O 0.67702 0.22389 0.66442 0.0
O648 O 0.69289 0.23094 0.593 0.0
O649 O 0.67896 0.17728 0.6439 0.0
O650 O 0.69289 0.19126 0.61862 0.0
C651 C 0.68825 0.23694 0.65756 0.0
C652 C 0.63614 0.2188 0.62444 0.0
O653 O 0.65142 0.22507 0.61574 0.0
O654 O 0.63791 0.20619 0.63782 0.0
C655 C 0.68447 0.22925 0.57655 0.0
O656 O 0.6677 0.21996 0.5756 0.0
C657 C 0.69086 0.17646 0.62982 0.0
Zn658 Zn 0.21963 0.75739 0.63079 0.0
Zn659 Zn 0.24604 0.75115 0.60264 0.0
O660 O 0.2232 0.73196 0.59992 0.0
O661 O 0.20054 0.73642 0.62198 0.0
O662 O 0.26073 0.74305 0.57838 0.0
O663 O 0.21814 0.78578 0.6224 0.0
O664 O 0.24201 0.78107 0.60139 0.0
C665 C 0.20704 0.72692 0.60752 0.0
C666 C 0.25873 0.74442 0.64405 0.0
O667 O 0.26318 0.7441 0.62599 0.0
O668 O 0.24168 0.74945 0.64936 0.0
C669 C 0.26266 0.7246 0.57678 0.0
O670 O 0.25827 0.71352 0.59182 0.0
C671 C 0.23034 0.79261 0.61024 0.0
H672 H 0.95339 0.21542 0.21488 0.0
H673 H 0.96777 0.23511 0.27304 0.0
H674 H 0.98618 0.22374 0.20394 0.0
H675 H 0.00051 0.24381 0.26197 0.0
H676 H 0.06336 0.24282 0.23825 0.0
H677 H 0.03168 0.23142 0.25009 0.0
H678 H 0.00431 0.25333 0.19766 0.0
H679 H 0.03589 0.26436 0.18571 0.0
C680 C 0.96357 0.22141 0.22538 0.0
C681 C 0.95786 0.22469 0.24483 0.0
C682 C 0.98236 0.22633 0.21906 0.0
C683 C 0.99595 0.23469 0.23199 0.0
C684 C 0.99048 0.23729 0.25163 0.0
C685 C 0.97166 0.23235 0.25797 0.0
C686 C 0.05057 0.24518 0.22925 0.0
C687 C 0.0522 0.2545 0.21101 0.0
C688 C 0.03239 0.23871 0.23608 0.0
C689 C 0.01542 0.24135 0.2248 0.0
C690 C 0.01709 0.25072 0.20659 0.0
C691 C 0.03522 0.25719 0.19979 0.0
H692 H 0.82643 0.94818 0.23177 0.0
H693 H 0.77102 0.93261 0.25752 0.0
H694 H 0.8127 0.97905 0.22074 0.0
H695 H 0.75694 0.9631 0.24572 0.0
H696 H 0.74451 0.02871 0.24119 0.0
H697 H 0.75679 0.99689 0.25107 0.0
H698 H 0.79151 0.99399 0.19841 0.0
H699 H 0.77985 0.02631 0.18903 0.0
C700 C 0.81124 0.95128 0.23492 0.0
C701 C 0.79985 0.93796 0.24561 0.0
C702 C 0.80328 0.96895 0.22843 0.0
C703 C 0.78363 0.97368 0.23223 0.0
C704 C 0.7722 0.9602 0.24277 0.0
C705 C 0.78024 0.94263 0.24948 0.0
C706 C 0.75464 0.02121 0.23163 0.0
C707 C 0.76128 0.03012 0.21436 0.0
C708 C 0.76164 0.00285 0.23726 0.0
C709 C 0.7753 0.99278 0.22564 0.0
C710 C 0.78137 0.00143 0.20799 0.0
C711 C 0.77455 0.01992 0.2025 0.0
H712 H 0.06711 0.75433 0.25729 0.0
H713 H 0.06667 0.8009 0.21475 0.0
H714 H 0.03705 0.74121 0.24318 0.0
H715 H 0.03641 0.7885 0.20128 0.0
H716 H 0.99039 0.75577 0.1695 0.0
H717 H 0.02247 0.7638 0.18252 0.0
H718 H 0.00327 0.74668 0.24018 0.0
H719 H 0.97156 0.73773 0.22689 0.0
C720 C 0.06052 0.76184 0.24503 0.0
C721 C 0.06932 0.77862 0.23711 0.0
C722 C 0.04324 0.75437 0.23695 0.0
C723 C 0.03424 0.76366 0.22093 0.0
C724 C 0.04306 0.78057 0.21323 0.0
C725 C 0.06039 0.78784 0.22111 0.0
C726 C 0.99315 0.75342 0.18489 0.0
C727 C 0.97839 0.74621 0.19716 0.0
C728 C 0.01151 0.75822 0.19244 0.0
C729 C 0.01548 0.75628 0.21253 0.0
C730 C 0.00092 0.74825 0.22463 0.0
C731 C 0.98265 0.74316 0.21701 0.0
H732 H 0.20838 0.96639 0.1729 0.0
H733 H 0.26105 0.96008 0.2071 0.0
H734 H 0.2017 0.99755 0.189 0.0
H735 H 0.25438 0.99118 0.22304 0.0
H736 H 0.22725 0.03567 0.26288 0.0
H737 H 0.22973 0.00408 0.24659 0.0
H738 H 0.2155 0.03131 0.19153 0.0
H739 H 0.21286 0.0629 0.20778 0.0
C740 C 0.21864 0.97173 0.18368 0.0
C741 C 0.23524 0.96071 0.18874 0.0
C742 C 0.21478 0.98956 0.19291 0.0
C743 C 0.22735 0.99664 0.20749 0.0
C744 C 0.2442 0.98588 0.21216 0.0
C745 C 0.24813 0.96816 0.20285 0.0
C746 C 0.22422 0.03488 0.24738 0.0
C747 C 0.22005 0.05186 0.2366 0.0
C748 C 0.22584 0.01681 0.23802 0.0
C749 C 0.22319 0.01531 0.21772 0.0
C750 C 0.21765 0.03202 0.20718 0.0
C751 C 0.21614 0.05012 0.21652 0.0
H752 H 0.96615 0.81862 0.76628 0.0
H753 H 0.96671 0.77973 0.7166 0.0
H754 H -0.00044 0.80943 0.7739 0.0
H755 H 0.00047 0.77068 0.72414 0.0
H756 H 0.05134 0.74265 0.76042 0.0
H757 H 0.01874 0.75243 0.74947 0.0
H758 H 0.03268 0.81272 0.76185 0.0
H759 H 0.06495 0.803 0.77301 0.0
C760 C 0.97347 0.80826 0.75683 0.0
C761 C 0.9637 0.79993 0.74082 0.0
C762 C 0.99271 0.80304 0.76116 0.0
C763 C 0.00275 0.78931 0.74964 0.0
C764 C 0.9931 0.78116 0.73343 0.0
C765 C 0.97381 0.78647 0.72902 0.0
C766 C 0.04747 0.758 0.76069 0.0
C767 C 0.06073 0.772 0.76776 0.0
C768 C 0.02882 0.76362 0.75431 0.0
C769 C 0.02303 0.78335 0.75492 0.0
C770 C 0.03652 0.79736 0.76149 0.0
C771 C 0.05509 0.79177 0.76782 0.0
H772 H 0.27261 0.03468 0.81613 0.0
H773 H 0.25414 0.06774 0.76565 0.0
H774 H 0.26051 0.00488 0.80119 0.0
H775 H 0.24179 0.03765 0.75065 0.0
H776 H 0.25006 0.97406 0.72379 0.0
H777 H 0.25565 0.00673 0.73703 0.0
H778 H 0.22993 0.98888 0.79176 0.0
H779 H 0.22459 0.95624 0.7787 0.0
C780 C 0.26584 0.03562 0.80187 0.0
C781 C 0.2644 0.05361 0.79208 0.0
C782 C 0.25873 0.01852 0.79336 0.0
C783 C 0.25004 0.01889 0.77478 0.0
C784 C 0.24847 0.03688 0.76496 0.0
C785 C 0.25548 0.0541 0.77358 0.0
C786 C 0.24518 0.97723 0.73849 0.0
C787 C 0.23715 0.96243 0.75029 0.0
C788 C 0.24836 0.99599 0.74607 0.0
C789 C 0.24358 0.00029 0.76557 0.0
C790 C 0.23418 0.9859 0.77682 0.0
C791 C 0.23101 0.96721 0.76928 0.0
H792 H 0.0692 0.27272 0.75476 0.0
H793 H 0.08147 0.2243 0.79326 0.0
H794 H 0.03515 0.27226 0.76493 0.0
H795 H 0.04723 0.2231 0.80275 0.0
H796 H 0.99229 0.24099 0.83462 0.0
H797 H 0.02561 0.24069 0.82232 0.0
H798 H 0.00457 0.25709 0.76509 0.0
H799 H 0.97135 0.25834 0.77776 0.0
C800 C 0.06448 0.26158 0.76495 0.0
C801 C 0.07804 0.24858 0.77325 0.0
C802 C 0.0449 0.26131 0.77083 0.0
C803 C 0.03835 0.24784 0.78495 0.0
C804 C 0.05177 0.23408 0.79231 0.0
C805 C 0.07138 0.23457 0.78666 0.0
C806 C 0.99482 0.24467 0.81945 0.0
C807 C 0.97919 0.24974 0.8072 0.0
C808 C 0.01394 0.24428 0.81229 0.0
C809 C 0.01791 0.24861 0.79258 0.0
C810 C 0.00221 0.25388 0.78038 0.0
C811 C 0.98311 0.25456 0.78764 0.0
H812 H 0.83309 0.03265 0.73047 0.0
H813 H 0.78228 0.0625 0.75307 0.0
H814 H 0.8203 0.00173 0.74237 0.0
H815 H 0.76957 0.03143 0.7653 0.0
H816 H 0.74405 0.968 0.75773 0.0
H817 H 0.75613 0.00104 0.75199 0.0
H818 H 0.81335 0.98352 0.77193 0.0
H819 H 0.8014 0.95045 0.77732 0.0
C820 C 0.81926 0.03266 0.73814 0.0
C821 C 0.8087 0.05008 0.74074 0.0
C822 C 0.81198 0.01491 0.74512 0.0
C823 C 0.79392 0.01407 0.75489 0.0
C824 C 0.78345 0.03153 0.75772 0.0
C825 C 0.79078 0.04935 0.75077 0.0
C826 C 0.7591 0.97129 0.7613 0.0
C827 C 0.7718 0.95648 0.76776 0.0
C828 C 0.76603 0.99027 0.75802 0.0
C829 C 0.78581 0.99486 0.76116 0.0
C830 C 0.79815 0.98037 0.76892 0.0
C831 C 0.79124 0.96143 0.77217 0.0
H832 H 0.2614 0.20483 0.04154 0.0
H833 H 0.22067 0.15663 0.04157 0.0
H834 H 0.24551 0.21833 0.01275 0.0
H835 H 0.20524 0.16969 0.01234 0.0
H836 H 0.16652 0.20885 0.97654 0.0
H837 H 0.18428 0.19613 0.00453 0.0
H838 H 0.23862 0.21545 0.97884 0.0
H839 H 0.22067 0.22883 0.95112 0.0
C840 C 0.24936 0.19684 0.03512 0.0
C841 C 0.2422 0.17972 0.04396 0.0
C842 C 0.24022 0.20461 0.01857 0.0
C843 C 0.22383 0.19533 0.01038 0.0
C844 C 0.21745 0.17757 0.01858 0.0
C845 C 0.22646 0.16992 0.03521 0.0
C846 C 0.18224 0.21062 0.97699 0.0
C847 C 0.19218 0.21983 0.96161 0.0
C848 C 0.19248 0.2031 0.99294 0.0
C849 C 0.21297 0.20438 0.99382 0.0
C850 C 0.22285 0.21425 0.97873 0.0
C851 C 0.21256 0.22197 0.96284 0.0
H852 H 0.24419 0.84285 0.96384 0.0
H853 H 0.24979 0.78588 0.93739 0.0
H854 H 0.23868 0.82756 0.99553 0.0
H855 H 0.24296 0.77052 0.96855 0.0
H856 H 0.25162 0.74841 0.03041 0.0
H857 H 0.25554 0.76301 0.99843 0.0
H858 H 0.21746 0.81054 0.01546 0.0
H859 H 0.21471 0.79641 0.04802 0.0
C860 C 0.24412 0.82705 0.96482 0.0
C861 C 0.24767 0.81559 0.9482 0.0
C862 C 0.24072 0.81821 0.98295 0.0
C863 C 0.24031 0.79768 0.9848 0.0
C864 C 0.2436 0.78631 0.96799 0.0
C865 C 0.24747 0.79514 0.95001 0.0
C866 C 0.24382 0.76181 0.02722 0.0
C867 C 0.23285 0.77125 0.04175 0.0
C868 C 0.24603 0.77024 0.00878 0.0
C869 C 0.23695 0.78815 0.00418 0.0
C870 C 0.22513 0.79705 0.0185 0.0
C871 C 0.2233 0.78882 0.03712 0.0
H872 H 0.73956 0.24926 0.94498 0.0
H873 H 0.79738 0.22452 0.93958 0.0
H874 H 0.74298 0.2494 0.98042 0.0
H875 H 0.80073 0.22467 0.97509 0.0
H876 H 0.78976 0.21273 0.04148 0.0
H877 H 0.78669 0.20999 0.00601 0.0
H878 H 0.76408 0.26884 0.00344 0.0
H879 H 0.76715 0.27166 0.03877 0.0
C880 C 0.75287 0.24355 0.95133 0.0
C881 C 0.76824 0.23696 0.93941 0.0
C882 C 0.75489 0.24381 0.97165 0.0
C883 C 0.77223 0.2373 0.98052 0.0
C884 C 0.78719 0.22976 0.96867 0.0
C885 C 0.78526 0.22969 0.94833 0.0
C886 C 0.78432 0.22516 0.03333 0.0
C887 C 0.77867 0.2424 0.04299 0.0
C888 C 0.78257 0.22357 0.01301 0.0
C889 C 0.7749 0.2391 0.00198 0.0
C890 C 0.76971 0.25649 0.01159 0.0
C891 C 0.77166 0.25817 0.03183 0.0
H892 H 0.82001 0.73749 0.96358 0.0
H893 H 0.76465 0.75423 0.93838 0.0
H894 H 0.8089 0.74844 0.99541 0.0
H895 H 0.75352 0.76544 0.97051 0.0
H896 H 0.73594 0.75703 0.03698 0.0
H897 H 0.74478 0.75148 0.00287 0.0
H898 H 0.8009 0.77834 0.01309 0.0
H899 H 0.79223 0.78363 0.04715 0.0
C900 C 0.80547 0.7436 0.96479 0.0
C901 C 0.79323 0.74495 0.94838 0.0
C902 C 0.79915 0.75006 0.98307 0.0
C903 C 0.78037 0.758 0.98552 0.0
C904 C 0.76804 0.75934 0.96913 0.0
C905 C 0.77445 0.75297 0.95072 0.0
C906 C 0.74999 0.76215 0.03186 0.0
C907 C 0.76347 0.77054 0.04491 0.0
C908 C 0.75506 0.75897 0.01227 0.0
C909 C 0.7737 0.76412 0.00533 0.0
C910 C 0.78659 0.77378 0.01806 0.0
C911 C 0.78155 0.77695 0.03759 0.0
H912 H 0.55235 0.70053 0.72324 0.0
H913 H 0.53748 0.75907 0.74162 0.0
H914 H 0.51871 0.69033 0.72834 0.0
H915 H 0.50376 0.74872 0.74705 0.0
H916 H 0.44077 0.72498 0.74292 0.0
H917 H 0.47301 0.73657 0.7327 0.0
H918 H 0.49928 0.6848 0.75746 0.0
H919 H 0.46727 0.67316 0.76738 0.0
C920 C 0.54186 0.71132 0.72811 0.0
C921 C 0.54771 0.73059 0.73217 0.0
C922 C 0.52256 0.70542 0.73119 0.0
C923 C 0.50858 0.7186 0.73845 0.0
C924 C 0.51413 0.73819 0.74141 0.0
C925 C 0.53349 0.74412 0.73831 0.0
C926 C 0.45344 0.71606 0.74611 0.0
C927 C 0.4514 0.69812 0.75597 0.0
C928 C 0.47192 0.72274 0.74032 0.0
C929 C 0.48875 0.71157 0.74412 0.0
C930 C 0.48663 0.69363 0.75394 0.0
C931 C 0.46824 0.68701 0.75979 0.0
H932 H 0.23205 0.43996 0.74619 0.0
H933 H 0.27942 0.42876 0.70617 0.0
H934 H 0.23041 0.47364 0.73498 0.0
H935 H 0.27862 0.46274 0.69563 0.0
H936 H 0.25749 0.51637 0.6633 0.0
H937 H 0.25983 0.48332 0.67627 0.0
H938 H 0.24372 0.50478 0.73345 0.0
H939 H 0.24034 0.53757 0.72012 0.0
C940 C 0.24255 0.44488 0.73544 0.0
C941 C 0.25587 0.43169 0.72706 0.0
C942 C 0.24162 0.46426 0.72894 0.0
C943 C 0.25419 0.47102 0.71412 0.0
C944 C 0.26828 0.45803 0.70663 0.0
C945 C 0.26897 0.43858 0.71287 0.0
C946 C 0.25429 0.51396 0.6786 0.0
C947 C 0.24864 0.52957 0.69064 0.0
C948 C 0.25586 0.49502 0.68615 0.0
C949 C 0.2522 0.49124 0.70605 0.0
C950 C 0.24641 0.50693 0.71803 0.0
C951 C 0.2445 0.52581 0.71039 0.0
H952 H 0.42192 0.2988 0.71113 0.0
H953 H 0.44938 0.24222 0.71681 0.0
H954 H 0.4512 0.31435 0.72402 0.0
H955 H 0.47885 0.25782 0.72927 0.0
H956 H 0.52551 0.28997 0.76308 0.0
H957 H 0.49347 0.27595 0.75601 0.0
H958 H 0.48373 0.32054 0.71241 0.0
H959 H 0.51539 0.33473 0.71974 0.0
C960 C 0.43418 0.28965 0.71519 0.0
C961 C 0.43334 0.26926 0.71279 0.0
C962 C 0.45101 0.29859 0.72251 0.0
C963 C 0.46746 0.28737 0.72758 0.0
C964 C 0.4664 0.26691 0.72574 0.0
C965 C 0.44953 0.25796 0.71845 0.0
C966 C 0.51637 0.29697 0.75223 0.0
C967 C 0.52308 0.31342 0.74191 0.0
C968 C 0.49807 0.28883 0.74806 0.0
C969 C 0.48606 0.297 0.73352 0.0
C970 C 0.49246 0.31395 0.72383 0.0
C971 C 0.51072 0.32206 0.72798 0.0
H972 H 0.69989 0.43083 0.7191 0.0
H973 H 0.74846 0.44518 0.75659 0.0
H974 H 0.6905 0.46514 0.71806 0.0
H975 H 0.73857 0.47932 0.75648 0.0
H976 H 0.72352 0.54246 0.7426 0.0
H977 H 0.73526 0.50895 0.74011 0.0
H978 H 0.67558 0.48837 0.73788 0.0
H979 H 0.664 0.52195 0.73933 0.0
C980 C 0.70866 0.44137 0.72699 0.0
C981 C 0.72491 0.43527 0.73791 0.0
C982 C 0.70314 0.46105 0.72663 0.0
C983 C 0.71351 0.47512 0.73748 0.0
C984 C 0.73027 0.46907 0.74776 0.0
C985 C 0.73598 0.44942 0.74785 0.0
C986 C 0.71292 0.53075 0.74164 0.0
C987 C 0.69282 0.53487 0.74117 0.0
C988 C 0.71965 0.51147 0.74026 0.0
C989 C 0.70644 0.49578 0.73867 0.0
C990 C 0.68629 0.49999 0.73857 0.0
C991 C 0.67959 0.51928 0.73963 0.0
H992 H 0.43754 0.29123 0.29401 0.0
H993 H 0.44678 0.26476 0.23749 0.0
H994 H 0.46945 0.27958 0.30467 0.0
H995 H 0.47882 0.2533 0.24813 0.0
H996 H 0.52858 0.22143 0.27868 0.0
H997 H 0.49498 0.23041 0.27076 0.0
H998 H 0.50372 0.28687 0.29754 0.0
H999 H 0.53717 0.27787 0.30564 0.0
C1000 C 0.44634 0.28288 0.28386 0.0
C1001 C 0.4396 0.279 0.26486 0.0
C1002 C 0.46469 0.27628 0.28996 0.0
C1003 C 0.47673 0.26554 0.27726 0.0
C1004 C 0.46984 0.26134 0.25837 0.0
C1005 C 0.45151 0.26803 0.25222 0.0
C1006 C 0.52326 0.23566 0.28312 0.0
C1007 C 0.53562 0.24895 0.29275 0.0
C1008 C 0.50404 0.24086 0.27843 0.0
C1009 C 0.49669 0.25941 0.28339 0.0
C1010 C 0.50884 0.27241 0.29365 0.0
C1011 C 0.52807 0.26726 0.29823 0.0
H1012 H 0.68724 0.46651 0.23705 0.0
H1013 H 0.73805 0.45085 0.27104 0.0
H1014 H 0.69197 0.50072 0.24576 0.0
H1015 H 0.74257 0.48502 0.28001 0.0
H1016 H 0.75799 0.5502 0.26738 0.0
H1017 H 0.7526 0.51516 0.26408 0.0
H1018 H 0.69072 0.52382 0.27277 0.0
H1019 H 0.69604 0.55891 0.27574 0.0
C1020 C 0.6993 0.47032 0.24653 0.0
C1021 C 0.71231 0.45592 0.25323 0.0
C1022 C 0.70195 0.48994 0.25165 0.0
C1023 C 0.71767 0.49564 0.2636 0.0
C1024 C 0.73045 0.48118 0.2706 0.0
C1025 C 0.72779 0.46156 0.26551 0.0
C1026 C 0.74327 0.54462 0.26896 0.0
C1027 C 0.72744 0.55742 0.27166 0.0
C1028 C 0.74018 0.52449 0.26709 0.0
C1029 C 0.72118 0.51669 0.2679 0.0
C1030 C 0.70549 0.52939 0.27169 0.0
C1031 C 0.70858 0.5495 0.27358 0.0
H1032 H 0.51049 0.67071 0.2576 0.0
H1033 H 0.52891 0.72941 0.24359 0.0
H1034 H 0.47827 0.68292 0.26639 0.0
H1035 H 0.49704 0.74182 0.25328 0.0
H1036 H 0.43326 0.7581 0.26155 0.0
H1037 H 0.46332 0.74483 0.24765 0.0
H1038 H 0.46387 0.69996 0.29211 0.0
H1039 H 0.43356 0.71266 0.3053 0.0
C1040 C 0.50762 0.68623 0.25631 0.0
C1041 C 0.5223 0.69908 0.24999 0.0
C1042 C 0.48917 0.6933 0.26153 0.0
C1043 C 0.48502 0.71346 0.26091 0.0
C1044 C 0.49952 0.7262 0.25381 0.0
C1045 C 0.51788 0.71908 0.2483 0.0
C1046 C 0.43981 0.74535 0.26826 0.0
C1047 C 0.43099 0.73643 0.28451 0.0
C1048 C 0.45711 0.73776 0.26035 0.0
C1049 C 0.46612 0.72121 0.26865 0.0
C1050 C 0.45723 0.7124 0.28496 0.0
C1051 C 0.43986 0.71981 0.29267 0.0
H1052 H 0.24454 0.54488 0.24291 0.0
H1053 H 0.28295 0.56414 0.28899 0.0
H1054 H 0.24097 0.51347 0.25878 0.0
H1055 H 0.2806 0.53207 0.30435 0.0
H1056 H 0.25562 0.48144 0.3392 0.0
H1057 H 0.2601 0.51273 0.32272 0.0
H1058 H 0.25358 0.48385 0.26687 0.0
H1059 H 0.24767 0.45315 0.28347 0.0
C1060 C 0.25279 0.54214 0.25613 0.0
C1061 C 0.2641 0.55696 0.26467 0.0
C1062 C 0.25076 0.52403 0.2653 0.0
C1063 C 0.26038 0.52005 0.28304 0.0
C1064 C 0.27252 0.53464 0.29103 0.0
C1065 C 0.27415 0.55295 0.28207 0.0
C1066 C 0.2549 0.48195 0.32341 0.0
C1067 C 0.25105 0.46494 0.31265 0.0
C1068 C 0.25774 0.49983 0.31388 0.0
C1069 C 0.25731 0.50101 0.29333 0.0
C1070 C 0.25358 0.48382 0.28266 0.0
C1071 C 0.25024 0.46611 0.2922 0.0
H1072 H 0.69611 0.70902 0.55175 0.0
H1073 H 0.75523 0.72451 0.53607 0.0
H1074 H 0.68429 0.72343 0.52146 0.0
H1075 H 0.74332 0.73919 0.50583 0.0
H1076 H 0.71641 0.74457 0.44428 0.0
H1077 H 0.7287 0.73013 0.47447 0.0
H1078 H 0.68028 0.75527 0.50613 0.0
H1079 H 0.66784 0.76947 0.47596 0.0
C1080 C 0.70661 0.71554 0.54187 0.0
C1081 C 0.72664 0.71559 0.54639 0.0
C1082 C 0.6998 0.72392 0.52453 0.0
C1083 C 0.71283 0.73253 0.5112 0.0
C1084 C 0.73289 0.73251 0.51566 0.0
C1085 C 0.73971 0.72418 0.53306 0.0
C1086 C 0.70838 0.74703 0.45768 0.0
C1087 C 0.6911 0.75816 0.45765 0.0
C1088 C 0.7155 0.73884 0.47502 0.0
C1089 C 0.70547 0.7415 0.49275 0.0
C1090 C 0.68823 0.75269 0.49271 0.0
C1091 C 0.68116 0.76093 0.4754 0.0
H1092 H 0.70871 0.27959 0.46221 0.0
H1093 H 0.76368 0.25489 0.48095 0.0
H1094 H 0.69442 0.27181 0.49383 0.0
H1095 H 0.74925 0.24683 0.51251 0.0
H1096 H 0.72012 0.24718 0.57277 0.0
H1097 H 0.73526 0.25963 0.54295 0.0
H1098 H 0.68468 0.24159 0.50988 0.0
H1099 H 0.66947 0.22943 0.5396 0.0
C1100 C 0.71784 0.27269 0.47314 0.0
C1101 C 0.73732 0.26772 0.46896 0.0
C1102 C 0.70958 0.2681 0.49123 0.0
C1103 C 0.7206 0.25844 0.50562 0.0
C1104 C 0.74037 0.25435 0.50181 0.0
C1105 C 0.74864 0.25893 0.48367 0.0
C1106 C 0.71219 0.24596 0.55915 0.0
C1107 C 0.69358 0.23727 0.55859 0.0
C1108 C 0.72092 0.25303 0.54205 0.0
C1109 C 0.71118 0.25167 0.52402 0.0
C1110 C 0.69248 0.24317 0.52355 0.0
C1111 C 0.68381 0.23605 0.5406 0.0
H1112 H 0.23465 0.67393 0.46559 0.0
H1113 H 0.29734 0.68027 0.46219 0.0
H1114 H 0.23534 0.68643 0.49916 0.0
H1115 H 0.29785 0.69324 0.49545 0.0
H1116 H 0.2792 0.74075 0.54404 0.0
H1117 H 0.28078 0.72626 0.51128 0.0
H1118 H 0.25311 0.67394 0.53295 0.0
H1119 H 0.25199 0.68801 0.56566 0.0
C1120 C 0.24854 0.6779 0.47203 0.0
C1121 C 0.26593 0.67603 0.46132 0.0
C1122 C 0.24893 0.68502 0.49118 0.0
C1123 C 0.26665 0.69083 0.49974 0.0
C1124 C 0.28402 0.68892 0.48909 0.0
C1125 C 0.2837 0.68138 0.47014 0.0
C1126 C 0.27374 0.72605 0.54184 0.0
C1127 C 0.26557 0.7155 0.55742 0.0
C1128 C 0.27464 0.71779 0.52315 0.0
C1129 C 0.26694 0.69907 0.51969 0.0
C1130 C 0.25903 0.68844 0.53528 0.0
C1131 C 0.25855 0.69647 0.55401 0.0
H1132 H 0.252 0.30186 0.54268 0.0
H1133 H 0.30146 0.33647 0.52421 0.0
H1134 H 0.25184 0.28534 0.51109 0.0
H1135 H 0.30154 0.3197 0.4929 0.0
H1136 H 0.27912 0.30242 0.4318 0.0
H1137 H 0.28198 0.3178 0.46363 0.0
H1138 H 0.27091 0.26226 0.49152 0.0
H1139 H 0.26761 0.24685 0.45953 0.0
C1140 C 0.26282 0.30595 0.5319 0.0
C1141 C 0.27667 0.32056 0.53594 0.0
C1142 C 0.26286 0.29634 0.51387 0.0
C1143 C 0.27675 0.30113 0.4995 0.0
C1144 C 0.29053 0.31579 0.50355 0.0
C1145 C 0.29049 0.32539 0.52155 0.0
C1146 C 0.27759 0.29338 0.44469 0.0
C1147 C 0.27304 0.27341 0.4431 0.0
C1148 C 0.27927 0.30222 0.46298 0.0
C1149 C 0.27648 0.29131 0.48014 0.0
C1150 C 0.27279 0.27114 0.47857 0.0
C1151 C 0.27111 0.26227 0.46024 0.0
H1152 H 0.19801 0.13615 0.24918 0.0
H1153 H 0.24616 0.17647 0.25572 0.0
H1154 H 0.17716 0.16292 0.23827 0.0
H1155 H 0.22523 0.20321 0.24517 0.0
H1156 H 0.14074 0.21907 0.23725 0.0
H1157 H 0.16139 0.19293 0.25 0.0
H1158 H 0.20959 0.21403 0.21519 0.0
H1159 H 0.18917 0.2403 0.20274 0.0
C1160 C 0.20411 0.15071 0.24841 0.0
C1161 C 0.22378 0.15413 0.25323 0.0
C1162 C 0.19214 0.16608 0.24227 0.0
C1163 C 0.19957 0.18518 0.24082 0.0
C1164 C 0.21915 0.18862 0.24587 0.0
C1165 C 0.23111 0.17328 0.252 0.0
C1166 C 0.15579 0.2182 0.23241 0.0
C1167 C 0.16331 0.23179 0.21898 0.0
C1168 C 0.16757 0.20314 0.23963 0.0
C1169 C 0.18711 0.2014 0.23359 0.0
C1170 C 0.19467 0.21513 0.22033 0.0
C1171 C 0.18292 0.23015 0.21312 0.0
H1172 H 0.88143 0.17009 0.24866 0.0
H1173 H 0.84447 0.17883 0.29895 0.0
H1174 H 0.86026 0.14332 0.23788 0.0
H1175 H 0.82355 0.15206 0.28837 0.0
H1176 H 0.78716 0.10318 0.26486 0.0
H1177 H 0.81805 0.11605 0.27801 0.0
H1178 H 0.82553 0.1508 0.22591 0.0
H1179 H 0.79475 0.13843 0.21321 0.0
C1180 C 0.8693 0.16574 0.25784 0.0
C1181 C 0.86439 0.17667 0.27447 0.0
C1182 C 0.85715 0.15048 0.25164 0.0
C1183 C 0.84016 0.14576 0.26219 0.0
C1184 C 0.83659 0.15526 0.28 0.0
C1185 C 0.8485 0.17069 0.28599 0.0
C1186 C 0.79576 0.11315 0.25609 0.0
C1187 C 0.78861 0.12001 0.23816 0.0
C1188 C 0.81337 0.1205 0.26358 0.0
C1189 C 0.82421 0.13438 0.25295 0.0
C1190 C 0.81769 0.13994 0.23433 0.0
C1191 C 0.79998 0.133 0.22712 0.0
H1192 H 0.87805 0.81186 0.19243 0.0
H1193 H 0.93001 0.7966 0.22462 0.0
H1194 H 0.87754 0.84353 0.20766 0.0
H1195 H 0.92998 0.82901 0.23981 0.0
H1196 H 0.88779 0.85542 0.28774 0.0
H1197 H 0.90963 0.83968 0.26505 0.0
H1198 H 0.88609 0.87477 0.21814 0.0
H1199 H 0.86327 0.88971 0.24092 0.0
C1200 C 0.88977 0.81557 0.20239 0.0
C1201 C 0.90367 0.80153 0.20785 0.0
C1202 C 0.88969 0.83399 0.211 0.0
C1203 C 0.90348 0.83888 0.22545 0.0
C1204 C 0.91884 0.82563 0.22911 0.0
C1205 C 0.91893 0.80706 0.22037 0.0
C1206 C 0.88788 0.86048 0.27275 0.0
C1207 C 0.87299 0.87285 0.26587 0.0
C1208 C 0.90055 0.85143 0.25959 0.0
C1209 C 0.89871 0.85496 0.23944 0.0
C1210 C 0.88711 0.87091 0.23344 0.0
C1211 C 0.87415 0.87972 0.24658 0.0
H1212 H 0.19336 0.91215 0.20733 0.0
H1213 H 0.18417 0.8531 0.18707 0.0
H1214 H 0.16078 0.91206 0.2221 0.0
H1215 H 0.15229 0.85276 0.20189 0.0
H1216 H 0.10435 0.84294 0.23363 0.0
H1217 H 0.11943 0.862 0.20778 0.0
H1218 H 0.15041 0.89591 0.251 0.0
H1219 H 0.13461 0.87762 0.27667 0.0
C1220 C 0.18422 0.89935 0.20562 0.0
C1221 C 0.19151 0.88245 0.1965 0.0
C1222 C 0.16555 0.89929 0.21407 0.0
C1223 C 0.15385 0.88235 0.21345 0.0
C1224 C 0.16057 0.86622 0.20259 0.0
C1225 C 0.17913 0.86626 0.19429 0.0
C1226 C 0.11341 0.85526 0.23769 0.0
C1227 C 0.11945 0.85786 0.25713 0.0
C1228 C 0.12228 0.86608 0.22279 0.0
C1229 C 0.13726 0.87945 0.22729 0.0
C1230 C 0.13948 0.88526 0.24686 0.0
C1231 C 0.13034 0.87468 0.26172 0.0
H1232 H 0.16875 0.79489 0.80429 0.0
H1233 H 0.147 0.78117 0.7467 0.0
H1234 H 0.18776 0.82188 0.79073 0.0
H1235 H 0.16646 0.80801 0.73309 0.0
H1236 H 0.23 0.83488 0.72105 0.0
H1237 H 0.20526 0.81176 0.73224 0.0
H1238 H 0.18199 0.85548 0.77125 0.0
H1239 H 0.20656 0.87894 0.75965 0.0
C1240 C 0.16798 0.79769 0.78874 0.0
C1241 C 0.15654 0.78583 0.7765 0.0
C1242 C 0.17872 0.81324 0.78104 0.0
C1243 C 0.17851 0.81699 0.7609 0.0
C1244 C 0.16682 0.80537 0.74867 0.0
C1245 C 0.15572 0.79006 0.75645 0.0
C1246 C 0.21942 0.83966 0.73181 0.0
C1247 C 0.22023 0.85865 0.73958 0.0
C1248 C 0.20522 0.82647 0.7381 0.0
C1249 C 0.19179 0.83188 0.75259 0.0
C1250 C 0.19224 0.85101 0.76006 0.0
C1251 C 0.20621 0.8644 0.7534 0.0
H1252 H 0.26415 0.18971 0.82082 0.0
H1253 H 0.23608 0.15019 0.78038 0.0
H1254 H 0.23998 0.21454 0.81354 0.0
H1255 H 0.21199 0.17548 0.77266 0.0
H1256 H 0.16088 0.21958 0.78023 0.0
H1257 H 0.18443 0.19348 0.78696 0.0
H1258 H 0.23108 0.23598 0.78743 0.0
H1259 H 0.20775 0.26184 0.78105 0.0
C1260 C 0.25293 0.18636 0.81019 0.0
C1261 C 0.25215 0.16794 0.80111 0.0
C1262 C 0.23908 0.20067 0.80596 0.0
C1263 C 0.22409 0.19707 0.79243 0.0
C1264 C 0.22325 0.17866 0.78329 0.0
C1265 C 0.23715 0.16424 0.78758 0.0
C1266 C 0.17617 0.2233 0.7818 0.0
C1267 C 0.18238 0.24283 0.78037 0.0
C1268 C 0.18967 0.20835 0.78554 0.0
C1269 C 0.20963 0.21265 0.78787 0.0
C1270 C 0.21579 0.23217 0.78614 0.0
C1271 C 0.20236 0.24703 0.78246 0.0
H1272 H 0.88345 0.17397 0.80966 0.0
H1273 H 0.93277 0.19594 0.77716 0.0
H1274 H 0.88434 0.14404 0.79141 0.0
H1275 H 0.93433 0.16517 0.75897 0.0
H1276 H 0.89441 0.13891 0.7097 0.0
H1277 H 0.915 0.15451 0.73351 0.0
H1278 H 0.89378 0.11483 0.77782 0.0
H1279 H 0.87184 0.10019 0.75404 0.0
C1280 C 0.89492 0.17212 0.79891 0.0
C1281 C 0.90758 0.18758 0.79435 0.0
C1282 C 0.89567 0.15466 0.78853 0.0
C1283 C 0.90914 0.15212 0.77319 0.0
C1284 C 0.92339 0.16674 0.77027 0.0
C1285 C 0.92259 0.18437 0.78075 0.0
C1286 C 0.89462 0.13296 0.72435 0.0
C1287 C 0.88048 0.11927 0.7303 0.0
C1288 C 0.90663 0.14192 0.73816 0.0
C1289 C 0.90504 0.13692 0.75802 0.0
C1290 C 0.89444 0.11992 0.76287 0.0
C1291 C 0.882 0.11128 0.74913 0.0
H1292 H 0.88682 0.85831 0.69312 0.0
H1293 H 0.87038 0.86657 0.75327 0.0
H1294 H 0.86516 0.88503 0.68353 0.0
H1295 H 0.84884 0.893 0.74396 0.0
H1296 H 0.80024 0.92636 0.72935 0.0
H1297 H 0.83554 0.92209 0.72948 0.0
H1298 H 0.83037 0.87939 0.68331 0.0
H1299 H 0.79535 0.88394 0.68291 0.0
C1300 C 0.87954 0.86665 0.70443 0.0
C1301 C 0.87997 0.86023 0.72389 0.0
C1302 C 0.86691 0.88181 0.69891 0.0
C1303 C 0.8547 0.89075 0.71285 0.0
C1304 C 0.85785 0.88649 0.73272 0.0
C1305 C 0.87029 0.87128 0.73816 0.0
C1306 C 0.80672 0.9167 0.71861 0.0
C1307 C 0.79489 0.90484 0.70668 0.0
C1308 C 0.827 0.91422 0.71874 0.0
C1309 C 0.83577 0.89982 0.70699 0.0
C1310 C 0.82422 0.89049 0.69276 0.0
C1311 C 0.80396 0.89302 0.69257 0.0
H1312 H 0.32007 0.09851 0.22686 0.0
H1313 H 0.26097 0.0815 0.21313 0.0
H1314 H 0.32707 0.10191 0.19219 0.0
H1315 H 0.26707 0.08688 0.17908 0.0
H1316 H 0.31321 0.15292 0.15064 0.0
H1317 H 0.32045 0.12794 0.17404 0.0
H1318 H 0.27636 0.09075 0.14796 0.0
H1319 H 0.26839 0.11698 0.12505 0.0
C1320 C 0.30869 0.09512 0.21642 0.0
C1321 C 0.28974 0.09063 0.22279 0.0
C1322 C 0.31256 0.09735 0.19647 0.0
C1323 C 0.2973 0.09618 0.18264 0.0
C1324 C 0.27927 0.0885 0.18895 0.0
C1325 C 0.27564 0.08551 0.20878 0.0
C1326 C 0.30554 0.13911 0.14948 0.0
C1327 C 0.28986 0.13708 0.13651 0.0
C1328 C 0.30976 0.1245 0.16296 0.0
C1329 C 0.29835 0.10737 0.1638 0.0
C1330 C 0.28483 0.10407 0.14853 0.0
C1331 C 0.28044 0.11895 0.13509 0.0
H1332 H 0.82618 0.25478 0.13041 0.0
H1333 H 0.78692 0.27459 0.17569 0.0
H1334 H 0.85357 0.25688 0.15357 0.0
H1335 H 0.81367 0.27636 0.19841 0.0
H1336 H 0.88294 0.23399 0.21345 0.0
H1337 H 0.86445 0.23933 0.18338 0.0
H1338 H 0.84274 0.29387 0.20662 0.0
H1339 H 0.86036 0.28792 0.23694 0.0
C1340 C 0.82342 0.25971 0.14518 0.0
C1341 C 0.80433 0.26439 0.15121 0.0
C1342 C 0.83907 0.26089 0.15843 0.0
C1343 C 0.8359 0.26704 0.17781 0.0
C1344 C 0.81685 0.27205 0.18353 0.0
C1345 C 0.80136 0.27077 0.17048 0.0
C1346 C 0.87486 0.2475 0.21175 0.0
C1347 C 0.87283 0.26044 0.22755 0.0
C1348 C 0.86422 0.25055 0.19452 0.0
C1349 C 0.85163 0.26673 0.19284 0.0
C1350 C 0.85182 0.28095 0.20769 0.0
C1351 C 0.86208 0.27768 0.22499 0.0
H1352 H 0.80044 0.8058 0.24678 0.0
H1353 H 0.77852 0.85971 0.22222 0.0
H1354 H 0.78822 0.78795 0.21883 0.0
H1355 H 0.76577 0.84154 0.19414 0.0
H1356 H 0.76778 0.80215 0.13746 0.0
H1357 H 0.77717 0.82283 0.16518 0.0
H1358 H 0.75762 0.77794 0.205 0.0
H1359 H 0.74882 0.75731 0.17763 0.0
C1360 C 0.79281 0.81386 0.23551 0.0
C1361 C 0.79041 0.83421 0.23683 0.0
C1362 C 0.78569 0.80356 0.21947 0.0
C1363 C 0.77586 0.81327 0.20428 0.0
C1364 C 0.77338 0.83365 0.20554 0.0
C1365 C 0.78055 0.84402 0.22169 0.0
C1366 C 0.76537 0.79683 0.15216 0.0
C1367 C 0.75787 0.77797 0.15534 0.0
C1368 C 0.77067 0.80869 0.16803 0.0
C1369 C 0.76844 0.80189 0.18731 0.0
C1370 C 0.76002 0.78343 0.19036 0.0
C1371 C 0.7549 0.77161 0.17462 0.0
H1372 H 0.17915 0.81348 0.22126 0.0
H1373 H 0.15407 0.75592 0.22797 0.0
H1374 H 0.19677 0.8024 0.19221 0.0
H1375 H 0.17217 0.74476 0.19915 0.0
H1376 H 0.20907 0.77691 0.12984 0.0
H1377 H 0.18709 0.7872 0.15631 0.0
H1378 H 0.21159 0.74288 0.19384 0.0
H1379 H 0.23384 0.73299 0.16777 0.0
C1380 C 0.17745 0.79846 0.21654 0.0
C1381 C 0.16539 0.78549 0.22694 0.0
C1382 C 0.18736 0.79221 0.19985 0.0
C1383 C 0.18572 0.77278 0.19351 0.0
C1384 C 0.1736 0.75982 0.2038 0.0
C1385 C 0.1633 0.7662 0.22024 0.0
C1386 C 0.20956 0.76927 0.14369 0.0
C1387 C 0.22318 0.75425 0.14684 0.0
C1388 C 0.19709 0.77518 0.15878 0.0
C1389 C 0.19772 0.76578 0.17701 0.0
C1390 C 0.21078 0.75025 0.17986 0.0
C1391 C 0.22354 0.74469 0.16499 0.0
H1392 H 0.31648 0.88163 0.77569 0.0
H1393 H 0.281 0.93381 0.77667 0.0
H1394 H 0.3176 0.88162 0.81087 0.0
H1395 H 0.28284 0.93439 0.81217 0.0
H1396 H 0.24982 0.89308 0.85628 0.0
H1397 H 0.26405 0.91406 0.83184 0.0
H1398 H 0.32094 0.8894 0.84388 0.0
H1399 H 0.30616 0.86782 0.86807 0.0
C1400 C 0.30964 0.89366 0.78339 0.0
C1401 C 0.29795 0.90722 0.77337 0.0
C1402 C 0.3104 0.89377 0.80377 0.0
C1403 C 0.29961 0.90758 0.81459 0.0
C1404 C 0.2907 0.92308 0.80438 0.0
C1405 C 0.28974 0.92282 0.78396 0.0
C1406 C 0.26557 0.8931 0.85466 0.0
C1407 C 0.2768 0.87854 0.86367 0.0
C1408 C 0.27385 0.90511 0.84042 0.0
C1409 C 0.29359 0.90275 0.83504 0.0
C1410 C 0.30554 0.89104 0.84705 0.0
C1411 C 0.29715 0.87892 0.86127 0.0
H1412 H 0.1403 0.32125 0.83056 0.0
H1413 H 0.08902 0.29406 0.8061 0.0
H1414 H 0.13028 0.31167 0.8627 0.0
H1415 H 0.07776 0.28581 0.83873 0.0
H1416 H 0.09969 0.23398 0.87556 0.0
H1417 H 0.08635 0.26007 0.85642 0.0
H1418 H 0.11812 0.30208 0.89139 0.0
H1419 H 0.13272 0.27537 0.9096 0.0
C1420 C 0.12631 0.31404 0.83215 0.0
C1421 C 0.11597 0.30753 0.81571 0.0
C1422 C 0.12035 0.30853 0.85086 0.0
C1423 C 0.10369 0.29665 0.85355 0.0
C1424 C 0.09135 0.29375 0.8373 0.0
C1425 C 0.09765 0.29873 0.8185 0.0
C1426 C 0.10323 0.24884 0.87973 0.0
C1427 C 0.11842 0.25252 0.893 0.0
C1428 C 0.09553 0.2641 0.86861 0.0
C1429 C 0.10259 0.28333 0.87099 0.0
C1430 C 0.1136 0.28732 0.88795 0.0
C1431 C 0.12171 0.27195 0.89878 0.0
H1432 H 0.81453 0.18881 0.74423 0.0
H1433 H 0.78592 0.14018 0.77262 0.0
H1434 H 0.80338 0.21049 0.76986 0.0
H1435 H 0.77425 0.16224 0.79827 0.0
H1436 H 0.77641 0.20629 0.85083 0.0
H1437 H 0.78591 0.18244 0.82585 0.0
H1438 H 0.77351 0.22495 0.78088 0.0
H1439 H 0.76461 0.24869 0.80556 0.0
C1440 C 0.80568 0.18274 0.75585 0.0
C1441 C 0.80104 0.16273 0.75627 0.0
C1442 C 0.7992 0.19523 0.77055 0.0
C1443 C 0.78776 0.18815 0.78605 0.0
C1444 C 0.78314 0.16812 0.78659 0.0
C1445 C 0.78971 0.15553 0.77183 0.0
C1446 C 0.77566 0.21045 0.83559 0.0
C1447 C 0.77002 0.22947 0.83022 0.0
C1448 C 0.781 0.19677 0.82128 0.0
C1449 C 0.78072 0.20188 0.80137 0.0
C1450 C 0.77437 0.22067 0.79608 0.0
C1451 C 0.76919 0.23428 0.81028 0.0
H1452 H 0.85158 0.75676 0.87305 0.0
H1453 H 0.86104 0.69822 0.85129 0.0
H1454 H 0.86819 0.77002 0.84441 0.0
H1455 H 0.87746 0.71159 0.82265 0.0
H1456 H 0.86045 0.74738 0.76547 0.0
H1457 H 0.85691 0.73167 0.79716 0.0
H1458 H 0.90033 0.77043 0.82139 0.0
H1459 H 0.90428 0.78598 0.78918 0.0
C1460 C 0.85782 0.74667 0.86258 0.0
C1461 C 0.85459 0.72641 0.86423 0.0
C1462 C 0.86737 0.7543 0.84618 0.0
C1463 C 0.87381 0.74181 0.83123 0.0
C1464 C 0.87244 0.72152 0.83391 0.0
C1465 C 0.86306 0.71389 0.85032 0.0
C1466 C 0.86957 0.75226 0.77743 0.0
C1467 C 0.88264 0.76785 0.77492 0.0
C1468 C 0.86763 0.74321 0.79554 0.0
C1469 C 0.87842 0.7498 0.81168 0.0
C1470 C 0.89193 0.76506 0.80912 0.0
C1471 C 0.89424 0.77385 0.79075 0.0
H1472 H 0.13639 0.26968 0.12093 0.0
H1473 H 0.11171 0.22439 0.15723 0.0
H1474 H 0.15729 0.24581 0.10532 0.0
H1475 H 0.13224 0.20031 0.14109 0.0
H1476 H 0.20458 0.20525 0.08992 0.0
H1477 H 0.17061 0.21661 0.09012 0.0
H1478 H 0.16612 0.20099 0.15111 0.0
H1479 H 0.19955 0.18968 0.15081 0.0
C1480 C 0.13455 0.25443 0.12479 0.0
C1481 C 0.12327 0.24912 0.14114 0.0
C1482 C 0.14662 0.24064 0.11578 0.0
C1483 C 0.14722 0.22132 0.12275 0.0
C1484 C 0.13269 0.21529 0.13599 0.0
C1485 C 0.12072 0.22912 0.14511 0.0
C1486 C 0.19609 0.20382 0.1032 0.0
C1487 C 0.20484 0.19698 0.12047 0.0
C1488 C 0.17665 0.2103 0.1033 0.0
C1489 C 0.16558 0.20981 0.12063 0.0
C1490 C 0.17397 0.20138 0.13739 0.0
C1491 C 0.19333 0.19513 0.13733 0.0
H1492 H 0.18946 0.82023 0.83842 0.0
H1493 H 0.19623 0.80488 0.89922 0.0
H1494 H 0.1558 0.81021 0.83942 0.0
H1495 H 0.16184 0.79505 0.90044 0.0
H1496 H 0.12522 0.74292 0.87233 0.0
H1497 H 0.14596 0.76702 0.88758 0.0
H1498 H 0.12268 0.81142 0.84927 0.0
H1499 H 0.1027 0.78691 0.83319 0.0
C1500 C 0.18361 0.81507 0.85219 0.0
C1501 C 0.19569 0.81288 0.8686 0.0
C1502 C 0.16405 0.8096 0.85289 0.0
C1503 C 0.15591 0.8017 0.87004 0.0
C1504 C 0.16763 0.80089 0.88694 0.0
C1505 C 0.18734 0.80648 0.88624 0.0
C1506 C 0.12372 0.75802 0.86779 0.0
C1507 C 0.11353 0.76273 0.85057 0.0
C1508 C 0.13573 0.77197 0.8766 0.0
C1509 C 0.13704 0.79088 0.86866 0.0
C1510 C 0.12282 0.79665 0.85496 0.0
C1511 C 0.1111 0.78258 0.84588 0.0
H1512 H 0.18127 0.15638 0.86436 0.0
H1513 H 0.20318 0.17576 0.92022 0.0
H1514 H 0.203 0.12877 0.8652 0.0
H1515 H 0.22455 0.14726 0.92166 0.0
H1516 H 0.28233 0.13001 0.88922 0.0
H1517 H 0.25375 0.14158 0.90602 0.0
H1518 H 0.21821 0.10011 0.87431 0.0
H1519 H 0.24695 0.08945 0.85637 0.0
C1520 C 0.19032 0.15439 0.87717 0.0
C1521 C 0.19097 0.16865 0.89188 0.0
C1522 C 0.20274 0.13826 0.87783 0.0
C1523 C 0.21605 0.13583 0.89333 0.0
C1524 C 0.21497 0.1489 0.90919 0.0
C1525 C 0.20267 0.16525 0.9084 0.0
C1526 C 0.26858 0.12273 0.88633 0.0
C1527 C 0.26669 0.10976 0.87052 0.0
C1528 C 0.25199 0.12939 0.89611 0.0
C1529 C 0.23333 0.12275 0.89057 0.0
C1530 C 0.2322 0.10642 0.87808 0.0
C1531 C 0.24877 0.10008 0.86795 0.0
H1532 H 0.80483 0.27872 0.91683 0.0
H1533 H 0.81518 0.31572 0.86682 0.0
H1534 H 0.8399 0.27527 0.92154 0.0
H1535 H 0.84988 0.31151 0.87076 0.0
H1536 H 0.90504 0.29062 0.86131 0.0
H1537 H 0.88195 0.30882 0.88137 0.0
H1538 H 0.85866 0.25423 0.90311 0.0
H1539 H 0.88207 0.2365 0.88377 0.0
C1540 C 0.81457 0.28664 0.9072 0.0
C1541 C 0.80721 0.29684 0.89096 0.0
C1542 C 0.83474 0.28456 0.90982 0.0
C1543 C 0.84789 0.29224 0.89599 0.0
C1544 C 0.84045 0.30507 0.88168 0.0
C1545 C 0.82033 0.30742 0.87927 0.0
C1546 C 0.8959 0.28263 0.87146 0.0
C1547 C 0.8948 0.26216 0.87051 0.0
C1548 C 0.88233 0.29306 0.88271 0.0
C1549 C 0.86751 0.28306 0.89294 0.0
C1550 C 0.8694 0.26266 0.89516 0.0
C1551 C 0.883 0.25232 0.88405 0.0
H1552 H 0.76158 0.8265 0.75529 0.0
H1553 H 0.76655 0.86913 0.80162 0.0
H1554 H 0.77263 0.8011 0.77724 0.0
H1555 H 0.77803 0.84336 0.82376 0.0
H1556 H 0.77653 0.78467 0.8602 0.0
H1557 H 0.76648 0.81266 0.8403 0.0
H1558 H 0.80306 0.7921 0.79322 0.0
H1559 H 0.8128 0.76417 0.81275 0.0
C1560 C 0.7651 0.83051 0.77017 0.0
C1561 C 0.76327 0.84993 0.77664 0.0
C1562 C 0.77157 0.81591 0.78275 0.0
C1563 C 0.77644 0.82025 0.80217 0.0
C1564 C 0.77432 0.83958 0.80886 0.0
C1565 C 0.76784 0.85432 0.79618 0.0
C1566 C 0.7825 0.78622 0.84564 0.0
C1567 C 0.7952 0.77199 0.83796 0.0
C1568 C 0.77682 0.8023 0.8343 0.0
C1569 C 0.78377 0.80443 0.8151 0.0
C1570 C 0.7971 0.79064 0.80779 0.0
C1571 C 0.8027 0.77462 0.81904 0.0
H1572 H 0.79948 0.68393 0.10302 0.0
H1573 H 0.80516 0.74563 0.09145 0.0
H1574 H 0.83481 0.68116 0.10563 0.0
H1575 H 0.8398 0.74357 0.09598 0.0
H1576 H 0.89473 0.74678 0.12288 0.0
H1577 H 0.87161 0.73837 0.09718 0.0
H1578 H 0.85523 0.68663 0.12984 0.0
H1579 H 0.87943 0.69432 0.15394 0.0
C1580 C 0.80833 0.69685 0.10073 0.0
C1581 C 0.79949 0.71509 0.09764 0.0
C1582 C 0.82867 0.69539 0.10253 0.0
C1583 C 0.84051 0.71231 0.10226 0.0
C1584 C 0.83166 0.73007 0.09662 0.0
C1585 C 0.81147 0.73135 0.0941 0.0
C1586 C 0.88704 0.73297 0.12372 0.0
C1587 C 0.88864 0.72128 0.14042 0.0
C1588 C 0.87329 0.72834 0.10927 0.0
C1589 C 0.8603 0.71247 0.11184 0.0
C1590 C 0.86437 0.69919 0.12707 0.0
C1591 C 0.87849 0.70352 0.14109 0.0
H1592 H 0.31588 0.7891 0.11876 0.0
H1593 H 0.27989 0.79181 0.06707 0.0
H1594 H 0.3155 0.82433 0.12091 0.0
H1595 H 0.28004 0.82735 0.06881 0.0
H1596 H 0.3013 0.88085 0.13757 0.0
H1597 H 0.31678 0.85845 0.1145 0.0
H1598 H 0.2598 0.84283 0.09223 0.0
H1599 H 0.24477 0.86529 0.11493 0.0
C1600 C 0.30872 0.79724 0.10724 0.0
C1601 C 0.29719 0.78762 0.09327 0.0
C1602 C 0.30856 0.81763 0.1084 0.0
C1603 C 0.29699 0.82876 0.09549 0.0
C1604 C 0.28851 0.81921 0.07941 0.0
C1605 C 0.2885 0.79879 0.07836 0.0
C1606 C 0.29229 0.8736 0.12677 0.0
C1607 C 0.27187 0.87459 0.12806 0.0
C1608 C 0.30112 0.86051 0.11374 0.0
C1609 C 0.28955 0.84821 0.10199 0.0
C1610 C 0.26932 0.85187 0.10104 0.0
C1611 C 0.26057 0.86488 0.11406 0.0
H1612 H 0.69577 0.11767 0.15839 0.0
H1613 H 0.75861 0.11899 0.16023 0.0
H1614 H 0.69592 0.14133 0.13178 0.0
H1615 H 0.75896 0.14357 0.13464 0.0
H1616 H 0.75798 0.19607 0.09858 0.0
H1617 H 0.75365 0.1612 0.1053 0.0
H1618 H 0.70108 0.17446 0.13772 0.0
H1619 H 0.70516 0.20872 0.13057 0.0
C1620 C 0.70965 0.12234 0.1524 0.0
C1621 C 0.72717 0.11664 0.16135 0.0
C1622 C 0.70978 0.13616 0.13738 0.0
C1623 C 0.7274 0.14508 0.1316 0.0
C1624 C 0.74506 0.13721 0.13867 0.0
C1625 C 0.74492 0.12298 0.15336 0.0
C1626 C 0.74513 0.19136 0.10651 0.0
C1627 C 0.73211 0.20517 0.11439 0.0
C1628 C 0.74272 0.17138 0.1105 0.0
C1629 C 0.72722 0.16488 0.12238 0.0
C1630 C 0.71315 0.17864 0.12842 0.0
C1631 C 0.71558 0.19848 0.12447 0.0
H1632 H 0.61488 0.62681 0.73615 0.0
H1633 H 0.6443 0.61181 0.78964 0.0
H1634 H 0.59448 0.64964 0.75343 0.0
H1635 H 0.62323 0.63428 0.80754 0.0
H1636 H 0.62955 0.70263 0.80791 0.0
H1637 H 0.62966 0.66744 0.80688 0.0
H1638 H 0.57565 0.66811 0.77414 0.0
H1639 H 0.57627 0.70369 0.77426 0.0
C1640 C 0.61602 0.62742 0.75192 0.0
C1641 C 0.63156 0.61808 0.76145 0.0
C1642 C 0.6043 0.6407 0.762 0.0
C1643 C 0.60791 0.64479 0.78184 0.0
C1644 C 0.62066 0.63224 0.79208 0.0
C1645 C 0.63252 0.61899 0.78189 0.0
C1646 C 0.61729 0.69532 0.80109 0.0
C1647 C 0.60339 0.70599 0.79042 0.0
C1648 C 0.61724 0.67491 0.80058 0.0
C1649 C 0.60313 0.66471 0.78958 0.0
C1650 C 0.58727 0.67542 0.78198 0.0
C1651 C 0.58753 0.69588 0.78217 0.0
H1652 H 0.303 0.57526 0.71132 0.0
H1653 H 0.31889 0.62923 0.68282 0.0
H1654 H 0.33564 0.5734 0.72577 0.0
H1655 H 0.3507 0.62796 0.69752 0.0
H1656 H 0.39823 0.63822 0.73079 0.0
H1657 H 0.38171 0.6184 0.7064 0.0
H1658 H 0.34838 0.59032 0.75208 0.0
H1659 H 0.36586 0.60893 0.77625 0.0
C1660 C 0.3136 0.58645 0.70776 0.0
C1661 C 0.3082 0.60272 0.69646 0.0
C1662 C 0.3323 0.58547 0.71611 0.0
C1663 C 0.34585 0.60077 0.71335 0.0
C1664 C 0.34098 0.61577 0.70014 0.0
C1665 C 0.32245 0.61671 0.69184 0.0
C1666 C 0.38822 0.62698 0.73571 0.0
C1667 C 0.38239 0.62604 0.75535 0.0
C1668 C 0.37847 0.61578 0.72165 0.0
C1669 C 0.36256 0.60388 0.7271 0.0
C1670 C 0.36001 0.59978 0.74707 0.0
C1671 C 0.37009 0.6106 0.7611 0.0
H1672 H 0.35446 0.27363 0.7155 0.0
H1673 H 0.31258 0.24417 0.67859 0.0
H1674 H 0.32958 0.29771 0.72434 0.0
H1675 H 0.28807 0.26836 0.68701 0.0
H1676 H 0.28516 0.34857 0.71812 0.0
H1677 H 0.3107 0.32478 0.71025 0.0
H1678 H 0.2684 0.27812 0.71436 0.0
H1679 H 0.24306 0.30171 0.72193 0.0
C1680 C 0.33996 0.27224 0.70933 0.0
C1681 C 0.3355 0.25688 0.69643 0.0
C1682 C 0.32577 0.28614 0.71425 0.0
C1683 C 0.30683 0.28495 0.7064 0.0
C1684 C 0.30241 0.26955 0.69357 0.0
C1685 C 0.31652 0.25569 0.68869 0.0
C1686 C 0.28137 0.33323 0.71731 0.0
C1687 C 0.26203 0.32707 0.72036 0.0
C1688 C 0.296 0.31959 0.71292 0.0
C1689 C 0.29157 0.29955 0.71156 0.0
C1690 C 0.27227 0.29346 0.71489 0.0
C1691 C 0.25771 0.30702 0.71924 0.0
H1692 H 0.62101 0.38966 0.74022 0.0
H1693 H 0.59547 0.36613 0.79266 0.0
H1694 H 0.64415 0.4079 0.75937 0.0
H1695 H 0.61835 0.38502 0.8123 0.0
H1696 H 0.68454 0.36795 0.82026 0.0
H1697 H 0.65007 0.37334 0.81565 0.0
H1698 H 0.66255 0.42517 0.78168 0.0
H1699 H 0.69736 0.41898 0.78549 0.0
C1700 C 0.61949 0.38947 0.75597 0.0
C1701 C 0.60702 0.37592 0.76493 0.0
C1702 C 0.63292 0.39995 0.76714 0.0
C1703 C 0.634 0.39704 0.78749 0.0
C1704 C 0.61858 0.38687 0.7966 0.0
C1705 C 0.60515 0.37628 0.78534 0.0
C1706 C 0.67998 0.38095 0.81247 0.0
C1707 C 0.69368 0.39253 0.80253 0.0
C1708 C 0.66 0.38419 0.80985 0.0
C1709 C 0.65335 0.39922 0.79742 0.0
C1710 C 0.66711 0.41293 0.79061 0.0
C1711 C 0.68712 0.40946 0.79291 0.0
H1712 H 0.66792 0.36121 0.27321 0.0
H1713 H 0.66579 0.35678 0.21051 0.0
H1714 H 0.64092 0.33812 0.27583 0.0
H1715 H 0.63807 0.33451 0.21289 0.0
H1716 H 0.63293 0.26848 0.22996 0.0
H1717 H 0.64296 0.30149 0.22236 0.0
H1718 H 0.60899 0.32322 0.27097 0.0
H1719 H 0.599 0.28963 0.27864 0.0
C1720 C 0.66086 0.35618 0.25998 0.0
C1721 C 0.66892 0.36055 0.24168 0.0
C1722 C 0.64535 0.34292 0.26143 0.0
C1723 C 0.63765 0.33401 0.24455 0.0
C1724 C 0.64399 0.3407 0.22619 0.0
C1725 C 0.65973 0.35359 0.22478 0.0
C1726 C 0.62704 0.28037 0.2386 0.0
C1727 C 0.6154 0.27652 0.25499 0.0
C1728 C 0.63267 0.29941 0.23419 0.0
C1729 C 0.62697 0.31511 0.24618 0.0
C1730 C 0.61381 0.31144 0.26156 0.0
C1731 C 0.60795 0.29226 0.26587 0.0
H1732 H 0.69382 0.63051 0.18863 0.0
H1733 H 0.69533 0.5838 0.23101 0.0
H1734 H 0.65862 0.62989 0.18907 0.0
H1735 H 0.65979 0.5826 0.23093 0.0
H1736 H 0.61799 0.62916 0.26028 0.0
H1737 H 0.64157 0.60609 0.24791 0.0
H1738 H 0.62538 0.62129 0.1888 0.0
H1739 H 0.60194 0.64492 0.20159 0.0
C1740 C 0.68665 0.61945 0.19739 0.0
C1741 C 0.69738 0.60786 0.21047 0.0
C1742 C 0.66626 0.61896 0.19756 0.0
C1743 C 0.65619 0.60674 0.21072 0.0
C1744 C 0.66703 0.59273 0.22118 0.0
C1745 C 0.68747 0.59337 0.22116 0.0
C1746 C 0.61854 0.62661 0.24467 0.0
C1747 C 0.6085 0.63905 0.23189 0.0
C1748 C 0.63224 0.61336 0.23744 0.0
C1749 C 0.63615 0.61246 0.21726 0.0
C1750 C 0.62326 0.62214 0.20445 0.0
C1751 C 0.60953 0.63546 0.21175 0.0
H1752 H 0.29116 0.64166 0.25663 0.0
H1753 H 0.24576 0.6849 0.24892 0.0
H1754 H 0.31336 0.66723 0.26802 0.0
H1755 H 0.26794 0.71029 0.25991 0.0
H1756 H 0.35247 0.72228 0.27019 0.0
H1757 H 0.33123 0.69672 0.2571 0.0
H1758 H 0.28298 0.71985 0.29053 0.0
H1759 H 0.30395 0.74545 0.3033 0.0
C1760 C 0.28595 0.6566 0.25724 0.0
C1761 C 0.26663 0.66119 0.252 0.0
C1762 C 0.2987 0.67125 0.26366 0.0
C1763 C 0.29237 0.69077 0.26499 0.0
C1764 C 0.27318 0.69536 0.25938 0.0
C1765 C 0.26048 0.68078 0.25299 0.0
C1766 C 0.33729 0.72196 0.27465 0.0
C1767 C 0.3299 0.73597 0.28774 0.0
C1768 C 0.32518 0.70724 0.26725 0.0
C1769 C 0.30541 0.70629 0.27273 0.0
C1770 C 0.29806 0.72034 0.28577 0.0
C1771 C 0.31013 0.73498 0.29317 0.0
H1772 H 0.37575 0.37945 0.22838 0.0
H1773 H 0.38712 0.33959 0.27575 0.0
H1774 H 0.35946 0.40167 0.25082 0.0
H1775 H 0.36945 0.36043 0.29774 0.0
H1776 H 0.3221 0.38376 0.33083 0.0
H1777 H 0.35437 0.38286 0.31583 0.0
H1778 H 0.32828 0.3989 0.26043 0.0
H1779 H 0.29677 0.40157 0.27613 0.0
C1780 C 0.3755 0.37586 0.24379 0.0
C1781 C 0.38209 0.35753 0.25023 0.0
C1782 C 0.36571 0.38836 0.25664 0.0
C1783 C 0.36169 0.38232 0.27591 0.0
C1784 C 0.37162 0.36568 0.28302 0.0
C1785 C 0.382 0.35356 0.27031 0.0
C1786 C 0.32361 0.38783 0.31561 0.0
C1787 C 0.3071 0.39252 0.30449 0.0
C1788 C 0.34206 0.38709 0.30688 0.0
C1789 C 0.34417 0.39 0.2866 0.0
C1790 C 0.32769 0.39656 0.27603 0.0
C1791 C 0.3094 0.39799 0.28497 0.0
H1792 H 0.71066 0.58137 0.68188 0.0
H1793 H 0.68327 0.63667 0.66878 0.0
H1794 H 0.7223 0.57927 0.64813 0.0
H1795 H 0.69517 0.63511 0.63588 0.0
H1796 H 0.72373 0.6449 0.58617 0.0
H1797 H 0.70033 0.62513 0.60411 0.0
H1798 H 0.74792 0.59506 0.63266 0.0
H1799 H 0.771 0.61358 0.61364 0.0
C1800 C 0.7068 0.59286 0.67171 0.0
C1801 C 0.69659 0.60948 0.67813 0.0
C1802 C 0.71349 0.5917 0.65236 0.0
C1803 C 0.71011 0.60717 0.63914 0.0
C1804 C 0.69812 0.62274 0.64527 0.0
C1805 C 0.6915 0.62385 0.66444 0.0
C1806 C 0.72919 0.63319 0.59532 0.0
C1807 C 0.74919 0.63174 0.59961 0.0
C1808 C 0.71573 0.62202 0.60592 0.0
C1809 C 0.72222 0.60972 0.62113 0.0
C1810 C 0.74219 0.60492 0.62172 0.0
C1811 C 0.75559 0.61567 0.61072 0.0
H1812 H 0.36161 0.71964 0.71627 0.0
H1813 H 0.31273 0.69132 0.74448 0.0
H1814 H 0.33964 0.73221 0.69106 0.0
H1815 H 0.29103 0.70356 0.71926 0.0
H1816 H 0.25414 0.74485 0.68361 0.0
H1817 H 0.27727 0.73447 0.70841 0.0
H1818 H 0.3193 0.72032 0.66356 0.0
H1819 H 0.29618 0.73106 0.63857 0.0
C1820 C 0.34621 0.7161 0.71711 0.0
C1821 C 0.33893 0.70452 0.73244 0.0
C1822 C 0.33367 0.7232 0.70261 0.0
C1823 C 0.31358 0.71895 0.7032 0.0
C1824 C 0.30636 0.70738 0.71854 0.0
C1825 C 0.31886 0.70026 0.73296 0.0
C1826 C 0.26832 0.73959 0.67896 0.0
C1827 C 0.27324 0.73867 0.65905 0.0
C1828 C 0.28156 0.73356 0.69322 0.0
C1829 C 0.30007 0.72641 0.68796 0.0
C1830 C 0.3052 0.72589 0.66809 0.0
C1831 C 0.29192 0.73194 0.65377 0.0
H1832 H 0.18401 0.36988 0.67298 0.0
H1833 H 0.21013 0.42146 0.69807 0.0
H1834 H 0.19346 0.38049 0.64094 0.0
H1835 H 0.21829 0.43322 0.66558 0.0
H1836 H 0.27024 0.41243 0.62783 0.0
H1837 H 0.24435 0.42461 0.648 0.0
H1838 H 0.20209 0.39406 0.61231 0.0
H1839 H 0.22858 0.38063 0.59292 0.0
C1840 C 0.19088 0.38407 0.67155 0.0
C1841 C 0.1971 0.39439 0.68811 0.0
C1842 C 0.19633 0.39035 0.65292 0.0
C1843 C 0.20785 0.4073 0.65045 0.0
C1844 C 0.21054 0.4195 0.66684 0.0
C1845 C 0.2056 0.4129 0.68555 0.0
C1846 C 0.25535 0.40894 0.62373 0.0
C1847 C 0.25159 0.3944 0.60975 0.0
C1848 C 0.24023 0.41598 0.63544 0.0
C1849 C 0.22102 0.40895 0.63298 0.0
C1850 C 0.21685 0.39859 0.61566 0.0
C1851 C 0.23209 0.39115 0.6042 0.0
H1852 H 0.6021 0.2118 0.64411 0.0
H1853 H 0.62871 0.25287 0.60433 0.0
H1854 H 0.58324 0.23777 0.65849 0.0
H1855 H 0.60857 0.27887 0.61779 0.0
H1856 H 0.62014 0.31202 0.67597 0.0
H1857 H 0.61868 0.29256 0.64684 0.0
H1858 H 0.5656 0.26517 0.66758 0.0
H1859 H 0.56768 0.28453 0.69756 0.0
C1860 C 0.60315 0.22622 0.63765 0.0
C1861 C 0.61793 0.23055 0.62405 0.0
C1862 C 0.59214 0.24128 0.64592 0.0
C1863 C 0.5954 0.26079 0.64028 0.0
C1864 C 0.60662 0.26418 0.62334 0.0
C1865 C 0.61802 0.24917 0.6154 0.0
C1866 C 0.60791 0.30214 0.6742 0.0
C1867 C 0.59443 0.29931 0.68938 0.0
C1868 C 0.60684 0.29107 0.6572 0.0
C1869 C 0.59223 0.27679 0.65482 0.0
C1870 C 0.57738 0.27562 0.66906 0.0
C1871 C 0.5785 0.28676 0.68624 0.0
H1872 H 0.74039 0.38283 0.30753 0.0
H1873 H 0.77524 0.33887 0.27874 0.0
H1874 H 0.75093 0.37016 0.33938 0.0
H1875 H 0.78547 0.32615 0.31002 0.0
H1876 H 0.80469 0.30337 0.36413 0.0
H1877 H 0.80259 0.32943 0.33995 0.0
H1878 H 0.74269 0.34003 0.35681 0.0
H1879 H 0.74531 0.31459 0.38175 0.0
C1880 C 0.75074 0.37087 0.30802 0.0
C1881 C 0.75687 0.36169 0.29071 0.0
C1882 C 0.75664 0.36351 0.32622 0.0
C1883 C 0.76897 0.34706 0.32733 0.0
C1884 C 0.77621 0.33898 0.30988 0.0
C1885 C 0.77021 0.34618 0.29185 0.0
C1886 C 0.79137 0.31187 0.36317 0.0
C1887 C 0.7751 0.30695 0.37458 0.0
C1888 C 0.79009 0.32668 0.34924 0.0
C1889 C 0.77229 0.33643 0.34602 0.0
C1890 C 0.75663 0.33287 0.35889 0.0
C1891 C 0.75808 0.31827 0.37317 0.0
H1892 H 0.57043 0.72664 0.30004 0.0
H1893 H 0.62649 0.70084 0.31298 0.0
H1894 H 0.56859 0.73914 0.33361 0.0
H1895 H 0.62493 0.71327 0.3458 0.0
H1896 H 0.60315 0.78735 0.37045 0.0
H1897 H 0.58574 0.76538 0.34902 0.0
H1898 H 0.61236 0.716 0.37792 0.0
H1899 H 0.63075 0.73817 0.39868 0.0
C1900 C 0.58214 0.72332 0.31014 0.0
C1901 C 0.59882 0.71319 0.30376 0.0
C1902 C 0.5811 0.73044 0.32936 0.0
C1903 C 0.59662 0.72733 0.34254 0.0
C1904 C 0.61249 0.71581 0.33638 0.0
C1905 C 0.61358 0.70891 0.31732 0.0
C1906 C 0.60461 0.77177 0.37292 0.0
C1907 C 0.61933 0.76453 0.38533 0.0
C1908 C 0.59452 0.75906 0.36055 0.0
C1909 C 0.59865 0.73894 0.36088 0.0
C1910 C 0.60967 0.73154 0.37662 0.0
C1911 C 0.62006 0.7443 0.38876 0.0
H1912 H 0.20485 0.62832 0.38046 0.0
H1913 H 0.2579 0.60388 0.35715 0.0
H1914 H 0.18583 0.60988 0.3566 0.0
H1915 H 0.23938 0.58584 0.33324 0.0
H1916 H 0.21412 0.57103 0.28066 0.0
H1917 H 0.21671 0.56705 0.31587 0.0
H1918 H 0.18452 0.62082 0.32394 0.0
H1919 H 0.18124 0.62422 0.28899 0.0
C1920 C 0.21235 0.61801 0.37108 0.0
C1921 C 0.23283 0.61773 0.37035 0.0
C1922 C 0.20148 0.60768 0.35714 0.0
C1923 C 0.21104 0.59703 0.34233 0.0
C1924 C 0.23132 0.59397 0.34414 0.0
C1925 C 0.2421 0.6043 0.358 0.0
C1926 C 0.20674 0.58146 0.29001 0.0
C1927 C 0.19808 0.59833 0.28206 0.0
C1928 C 0.20835 0.57925 0.31025 0.0
C1929 C 0.20168 0.59408 0.32284 0.0
C1930 C 0.1901 0.60915 0.31486 0.0
C1931 C 0.18823 0.61119 0.29463 0.0
H1932 H 0.2958 0.2403 0.35616 0.0
H1933 H 0.25054 0.26869 0.32273 0.0
H1934 H 0.3189 0.24579 0.32957 0.0
H1935 H 0.27366 0.27534 0.29677 0.0
H1936 H 0.31257 0.27279 0.24538 0.0
H1937 H 0.29082 0.26202 0.27132 0.0
H1938 H 0.33775 0.26857 0.31313 0.0
H1939 H 0.35973 0.27797 0.28678 0.0
C1940 C 0.29088 0.24795 0.34321 0.0
C1941 C 0.27136 0.254 0.34147 0.0
C1942 C 0.30413 0.25117 0.32796 0.0
C1943 C 0.29824 0.26088 0.31079 0.0
C1944 C 0.27873 0.26727 0.30939 0.0
C1945 C 0.26544 0.26366 0.3244 0.0
C1946 C 0.31827 0.27154 0.26008 0.0
C1947 C 0.33778 0.27624 0.2641 0.0
C1948 C 0.30575 0.26561 0.27505 0.0
C1949 C 0.31229 0.26482 0.29454 0.0
C1950 C 0.33211 0.26879 0.29837 0.0
C1951 C 0.34477 0.27424 0.28326 0.0
H1952 H 0.71144 0.72548 0.62537 0.0
H1953 H 0.73795 0.69289 0.6725 0.0
H1954 H 0.68595 0.73694 0.64781 0.0
H1955 H 0.71258 0.704 0.69453 0.0
H1956 H 0.63329 0.73478 0.69267 0.0
H1957 H 0.65746 0.72467 0.66815 0.0
H1958 H 0.70372 0.73497 0.7097 0.0
H1959 H 0.67997 0.74467 0.73398 0.0
C1960 C 0.71187 0.72079 0.64046 0.0
C1961 C 0.72688 0.70842 0.64715 0.0
C1962 C 0.69719 0.72722 0.65325 0.0
C1963 C 0.69734 0.7215 0.67298 0.0
C1964 C 0.71222 0.70897 0.67952 0.0
C1965 C 0.72677 0.70254 0.66682 0.0
C1966 C 0.64863 0.73492 0.69649 0.0
C1967 C 0.65463 0.74032 0.71538 0.0
C1968 C 0.66246 0.72924 0.68243 0.0
C1969 C 0.68249 0.7288 0.68707 0.0
C1970 C 0.68841 0.73475 0.70576 0.0
C1971 C 0.67471 0.74039 0.7197 0.0
H1972 H 0.70585 0.24879 0.40925 0.0
H1973 H 0.72586 0.20394 0.36967 0.0
H1974 H 0.67222 0.24338 0.39828 0.0
H1975 H 0.69266 0.19864 0.3587 0.0
H1976 H 0.63491 0.18957 0.33792 0.0
H1977 H 0.65928 0.189 0.36395 0.0
H1978 H 0.65728 0.25208 0.36681 0.0
H1979 H 0.63242 0.25239 0.34125 0.0
C1980 C 0.70299 0.23734 0.3987 0.0
C1981 C 0.71849 0.22694 0.39012 0.0
C1982 C 0.68376 0.23435 0.39233 0.0
C1983 C 0.67971 0.22071 0.37748 0.0
C1984 C 0.69509 0.20913 0.37028 0.0
C1985 C 0.71423 0.21225 0.37647 0.0
C1986 C 0.63898 0.20319 0.3449 0.0
C1987 C 0.63179 0.22101 0.33779 0.0
C1988 C 0.65308 0.20291 0.35963 0.0
C1989 C 0.66057 0.22051 0.36717 0.0
C1990 C 0.65179 0.23824 0.36145 0.0
C1991 C 0.63751 0.23847 0.34682 0.0
H1992 H 0.72562 0.64633 0.30413 0.0
H1993 H 0.73695 0.69105 0.26102 0.0
H1994 H 0.71525 0.67158 0.32731 0.0
H1995 H 0.72708 0.71601 0.28409 0.0
H1996 H 0.68477 0.75232 0.31947 0.0
H1997 H 0.69659 0.72653 0.29827 0.0
H1998 H 0.72671 0.69995 0.3469 0.0
H1999 H 0.71447 0.72577 0.36844 0.0
C2000 C 0.72606 0.6615 0.29965 0.0
C2001 C 0.7319 0.66662 0.28064 0.0
C2002 C 0.72022 0.67597 0.31295 0.0
C2003 C 0.72013 0.6958 0.30747 0.0
C2004 C 0.72656 0.70087 0.28866 0.0
C2005 C 0.7323 0.6865 0.27544 0.0
C2006 C 0.69398 0.74106 0.32572 0.0
C2007 C 0.69875 0.74121 0.34567 0.0
C2008 C 0.70083 0.72628 0.3135 0.0
C2009 C 0.71272 0.71124 0.32085 0.0
C2010 C 0.71747 0.71126 0.34083 0.0
C2011 C 0.71058 0.72613 0.35312 0.0
H2012 H 0.31035 0.69677 0.41507 0.0
H2013 H 0.32479 0.67634 0.35722 0.0
H2014 H 0.34168 0.71386 0.41676 0.0
H2015 H 0.35531 0.69362 0.35846 0.0
H2016 H 0.39842 0.73219 0.34917 0.0
H2017 H 0.38615 0.70433 0.36746 0.0
H2018 H 0.35033 0.74319 0.40201 0.0
H2019 H 0.36355 0.77084 0.38473 0.0
C2020 C 0.32041 0.69553 0.40292 0.0
C2021 C 0.31485 0.68578 0.38574 0.0
C2022 C 0.33836 0.70537 0.40385 0.0
C2023 C 0.35099 0.70568 0.38757 0.0
C2024 C 0.34625 0.69388 0.37139 0.0
C2025 C 0.32845 0.68411 0.37051 0.0
C2026 C 0.38883 0.73489 0.36145 0.0
C2027 C 0.38088 0.75356 0.36462 0.0
C2028 C 0.38154 0.71883 0.37182 0.0
C2029 C 0.36603 0.72133 0.38513 0.0
C2030 C 0.3617 0.74044 0.39139 0.0
C2031 C 0.36931 0.75648 0.38135 0.0
H2032 H 0.18458 0.29612 0.37831 0.0
H2033 H 0.22128 0.29171 0.42935 0.0
H2034 H 0.18592 0.33129 0.38025 0.0
H2035 H 0.22179 0.32718 0.43208 0.0
H2036 H 0.25733 0.37107 0.39327 0.0
H2037 H 0.2414 0.34682 0.41313 0.0
H2038 H 0.18551 0.36399 0.3892 0.0
H2039 H 0.202 0.38794 0.36863 0.0
C2040 C 0.19215 0.30266 0.39057 0.0
C2041 C 0.20345 0.29112 0.4032 0.0
C2042 C 0.19286 0.32304 0.3918 0.0
C2043 C 0.20471 0.33232 0.40587 0.0
C2044 C 0.21319 0.32063 0.42054 0.0
C2045 C 0.21278 0.30023 0.41907 0.0
C2046 C 0.24151 0.37053 0.39317 0.0
C2047 C 0.23099 0.38085 0.37896 0.0
C2048 C 0.23222 0.35641 0.40456 0.0
C2049 C 0.21216 0.35253 0.40198 0.0
C2050 C 0.20111 0.36592 0.39088 0.0
C2051 C 0.21051 0.38 0.37935 0.0
H2052 H 0.37254 0.22884 0.60683 0.0
H2053 H 0.41398 0.26374 0.63906 0.0
H2054 H 0.36116 0.25755 0.59013 0.0
H2055 H 0.40364 0.29258 0.62108 0.0
H2056 H 0.34883 0.33113 0.63138 0.0
H2057 H 0.37591 0.30886 0.63009 0.0
H2058 H 0.35518 0.28654 0.5747 0.0
H2059 H 0.32712 0.30842 0.57671 0.0
C2060 C 0.38003 0.24251 0.60961 0.0
C2061 C 0.39323 0.24424 0.62524 0.0
C2062 C 0.37348 0.25919 0.59987 0.0
C2063 C 0.38049 0.27779 0.60522 0.0
C2064 C 0.39699 0.27868 0.61749 0.0
C2065 C 0.40318 0.26204 0.62764 0.0
C2066 C 0.35019 0.32177 0.61869 0.0
C2067 C 0.3354 0.32106 0.60452 0.0
C2068 C 0.36604 0.30903 0.61777 0.0
C2069 C 0.36769 0.29531 0.6025 0.0
C2070 C 0.35413 0.29636 0.58705 0.0
C2071 C 0.33804 0.30898 0.58813 0.0
H2072 H 0.7128 0.26748 0.64857 0.0
H2073 H 0.68025 0.24186 0.69621 0.0
H2074 H 0.72402 0.29351 0.67035 0.0
H2075 H 0.69096 0.26794 0.71762 0.0
H2076 H 0.72205 0.34781 0.71149 0.0
H2077 H 0.71227 0.32221 0.68849 0.0
H2078 H 0.72 0.27878 0.73363 0.0
H2079 H 0.72916 0.30414 0.75653 0.0
C2080 C 0.70807 0.26737 0.66366 0.0
C2081 C 0.69574 0.25248 0.67066 0.0
C2082 C 0.71436 0.28237 0.67609 0.0
C2083 C 0.70847 0.28278 0.69576 0.0
C2084 C 0.6961 0.26791 0.70266 0.0
C2085 C 0.68988 0.25295 0.69032 0.0
C2086 C 0.72164 0.33279 0.71645 0.0
C2087 C 0.7262 0.32808 0.73591 0.0
C2088 C 0.71617 0.31811 0.70325 0.0
C2089 C 0.71518 0.29845 0.70926 0.0
C2090 C 0.72018 0.29379 0.72859 0.0
C2091 C 0.72553 0.30838 0.74174 0.0
H2092 H 0.25145 0.62654 0.6154 0.0
H2093 H 0.19679 0.61181 0.64275 0.0
H2094 H 0.23524 0.65059 0.59538 0.0
H2095 H 0.18006 0.63576 0.6223 0.0
H2096 H 0.1824 0.70453 0.62955 0.0
H2097 H 0.18239 0.66924 0.62984 0.0
H2098 H 0.21427 0.66862 0.57535 0.0
H2099 H 0.21495 0.70419 0.57557 0.0
C2100 C 0.23567 0.62751 0.61611 0.0
C2101 C 0.22544 0.61763 0.63083 0.0
C2102 C 0.22623 0.64148 0.60464 0.0
C2103 C 0.20636 0.64585 0.6078 0.0
C2104 C 0.1955 0.63327 0.61996 0.0
C2105 C 0.20502 0.61924 0.63146 0.0
C2106 C 0.18867 0.69694 0.61717 0.0
C2107 C 0.19936 0.70717 0.60297 0.0
C2108 C 0.18862 0.6765 0.61726 0.0
C2109 C 0.19909 0.66591 0.60302 0.0
C2110 C 0.20671 0.67625 0.58696 0.0
C2111 C 0.20698 0.6967 0.58701 0.0
H2112 H 0.19809 0.39429 0.27659 0.0
H2113 H 0.20849 0.3346 0.29448 0.0
H2114 H 0.16974 0.38352 0.2576 0.0
H2115 H 0.18038 0.32399 0.27566 0.0
H2116 H 0.12519 0.30744 0.25001 0.0
H2117 H 0.14405 0.32618 0.27375 0.0
H2118 H 0.16569 0.36318 0.22749 0.0
H2119 H 0.14676 0.3446 0.20384 0.0
C2120 C 0.19432 0.37891 0.27652 0.0
C2121 C 0.20569 0.36528 0.2869 0.0
C2122 C 0.17805 0.37278 0.26572 0.0
C2123 C 0.17266 0.35295 0.26534 0.0
C2124 C 0.18386 0.33944 0.27599 0.0
C2125 C 0.20018 0.3455 0.28656 0.0
C2126 C 0.1332 0.32015 0.24503 0.0
C2127 C 0.1348 0.32432 0.22502 0.0
C2128 C 0.14422 0.33073 0.2586 0.0
C2129 C 0.1568 0.34577 0.25239 0.0
C2130 C 0.15625 0.35161 0.23275 0.0
C2131 C 0.14536 0.34096 0.21918 0.0
H2132 H 0.66992 0.09103 0.22341 0.0
H2133 H 0.68959 0.11768 0.27694 0.0
H2134 H 0.63675 0.10277 0.2298 0.0
H2135 H 0.65668 0.12912 0.28351 0.0
H2136 H 0.60378 0.15867 0.29104 0.0
H2137 H 0.62047 0.12723 0.28796 0.0
H2138 H 0.6301 0.13864 0.22671 0.0
H2139 H 0.61373 0.16994 0.22995 0.0
C2140 C 0.66694 0.09843 0.23707 0.0
C2141 C 0.68231 0.10369 0.24959 0.0
C2142 C 0.64797 0.10526 0.24067 0.0
C2143 C 0.64411 0.11715 0.25699 0.0
C2144 C 0.65903 0.11994 0.27084 0.0
C2145 C 0.67798 0.11344 0.26707 0.0
C2146 C 0.60834 0.15385 0.27668 0.0
C2147 C 0.6077 0.16677 0.26076 0.0
C2148 C 0.6181 0.13592 0.27495 0.0
C2149 C 0.62706 0.13065 0.25722 0.0
C2150 C 0.62342 0.14218 0.2406 0.0
C2151 C 0.61396 0.16017 0.24241 0.0
H2152 H 0.80778 0.62742 0.26297 0.0
H2153 H 0.80972 0.63291 0.20023 0.0
H2154 H 0.83933 0.64404 0.26536 0.0
H2155 H 0.84135 0.64906 0.20259 0.0
H2156 H 0.89715 0.67914 0.20917 0.0
H2157 H 0.87746 0.64976 0.2143 0.0
H2158 H 0.84225 0.68086 0.25634 0.0
H2159 H 0.86159 0.71026 0.25089 0.0
C2160 C 0.81537 0.6313 0.24965 0.0
C2161 C 0.80621 0.62906 0.23141 0.0
C2162 C 0.83337 0.64091 0.25104 0.0
C2163 C 0.8427 0.64799 0.23419 0.0
C2164 C 0.8346 0.64365 0.21584 0.0
C2165 C 0.81644 0.63444 0.21447 0.0
C2166 C 0.88579 0.67943 0.22018 0.0
C2167 C 0.88077 0.69703 0.22952 0.0
C2168 C 0.87444 0.66264 0.223 0.0
C2169 C 0.85822 0.66308 0.23556 0.0
C2170 C 0.85474 0.68001 0.24666 0.0
C2171 C 0.8658 0.69689 0.24353 0.0
H2172 H 0.35087 0.84809 0.30872 0.0
H2173 H 0.37158 0.81694 0.25794 0.0
H2174 H 0.33253 0.87022 0.28774 0.0
H2175 H 0.35336 0.83941 0.23694 0.0
H2176 H 0.31495 0.88746 0.20634 0.0
H2177 H 0.3428 0.87833 0.22725 0.0
H2178 H 0.30297 0.85151 0.26809 0.0
H2179 H 0.27549 0.85985 0.24695 0.0
C2180 C 0.35228 0.84655 0.29304 0.0
C2181 C 0.36228 0.83049 0.28498 0.0
C2182 C 0.34175 0.85923 0.28106 0.0
C2183 C 0.34128 0.85624 0.26083 0.0
C2184 C 0.35354 0.842 0.25254 0.0
C2185 C 0.36403 0.82916 0.26458 0.0
C2186 C 0.31224 0.88003 0.22004 0.0
C2187 C 0.29318 0.87439 0.22519 0.0
C2188 C 0.3281 0.87477 0.23189 0.0
C2189 C 0.32495 0.8644 0.2493 0.0
C2190 C 0.30575 0.85976 0.25487 0.0
C2191 C 0.29005 0.86447 0.2428 0.0
H2192 H 0.15275 0.67291 0.80299 0.0
H2193 H 0.12948 0.69313 0.74802 0.0
H2194 H 0.17186 0.64818 0.78598 0.0
H2195 H 0.14862 0.66799 0.73093 0.0
H2196 H 0.18635 0.6122 0.71148 0.0
H2197 H 0.15921 0.62702 0.72991 0.0
H2198 H 0.20041 0.66284 0.76135 0.0
H2199 H 0.22725 0.64869 0.7426 0.0
C2200 C 0.15109 0.67151 0.78732 0.0
C2201 C 0.13985 0.6851 0.77677 0.0
C2202 C 0.16205 0.65737 0.77762 0.0
C2203 C 0.16187 0.65641 0.7572 0.0
C2204 C 0.1489 0.66844 0.74673 0.0
C2205 C 0.1379 0.68275 0.7565 0.0
C2206 C 0.18955 0.62295 0.72264 0.0
C2207 C 0.20885 0.62927 0.72577 0.0
C2208 C 0.17406 0.63148 0.73301 0.0
C2209 C 0.17781 0.64596 0.74703 0.0
C2210 C 0.19719 0.65157 0.75072 0.0
C2211 C 0.21252 0.64348 0.74003 0.0
H2212 H 0.40654 0.17813 0.72538 0.0
H2213 H 0.35926 0.15265 0.69235 0.0
H2214 H 0.40038 0.15505 0.75178 0.0
H2215 H 0.35212 0.13085 0.71891 0.0
H2216 H 0.33163 0.09966 0.76889 0.0
H2217 H 0.35378 0.10722 0.74208 0.0
H2218 H 0.37738 0.15536 0.77561 0.0
H2219 H 0.35654 0.14685 0.80252 0.0
C2220 C 0.39508 0.16738 0.72359 0.0
C2221 C 0.38301 0.16766 0.70701 0.0
C2222 C 0.39136 0.15424 0.73884 0.0
C2223 C 0.37519 0.14148 0.73802 0.0
C2224 C 0.36467 0.14033 0.7204 0.0
C2225 C 0.36867 0.1531 0.70505 0.0
C2226 C 0.34207 0.11141 0.77071 0.0
C2227 C 0.34188 0.12302 0.78761 0.0
C2228 C 0.35467 0.11593 0.75524 0.0
C2229 C 0.36693 0.13247 0.75616 0.0
C2230 C 0.36826 0.14255 0.77403 0.0
C2231 C 0.35604 0.13776 0.78959 0.0
H2232 H 0.80266 0.36305 0.75297 0.0
H2233 H 0.80421 0.35749 0.81574 0.0
H2234 H 0.83277 0.34394 0.75057 0.0
H2235 H 0.83463 0.33895 0.81331 0.0
H2236 H 0.85267 0.27644 0.76657 0.0
H2237 H 0.8326 0.30568 0.76224 0.0
H2238 H 0.87205 0.33837 0.79889 0.0
H2239 H 0.8926 0.30924 0.80262 0.0
C2240 C 0.80991 0.35858 0.7663 0.0
C2241 C 0.80101 0.36168 0.78457 0.0
C2242 C 0.82707 0.34754 0.76489 0.0
C2243 C 0.83592 0.33993 0.78173 0.0
C2244 C 0.82817 0.34479 0.8001 0.0
C2245 C 0.81076 0.3554 0.8015 0.0
C2246 C 0.85751 0.29009 0.77296 0.0
C2247 C 0.87421 0.29062 0.78483 0.0
C2248 C 0.84604 0.30682 0.7705 0.0
C2249 C 0.85078 0.32423 0.78029 0.0
C2250 C 0.86817 0.32513 0.79112 0.0
C2251 C 0.87996 0.30851 0.79313 0.0
H2252 H 0.68438 0.89913 0.76316 0.0
H2253 H 0.68138 0.87129 0.70667 0.0
H2254 H 0.65448 0.88241 0.77292 0.0
H2255 H 0.65212 0.85414 0.71654 0.0
H2256 H 0.63625 0.81865 0.79102 0.0
H2257 H 0.65143 0.84922 0.78191 0.0
H2258 H 0.61978 0.8488 0.72732 0.0
H2259 H 0.60503 0.8176 0.73627 0.0
C2260 C 0.67701 0.88998 0.75257 0.0
C2261 C 0.6856 0.88616 0.7343 0.0
C2262 C 0.65994 0.8802 0.75824 0.0
C2263 C 0.65113 0.86638 0.7458 0.0
C2264 C 0.65837 0.86458 0.72664 0.0
C2265 C 0.67534 0.87439 0.72096 0.0
C2266 C 0.63199 0.82535 0.77734 0.0
C2267 C 0.61983 0.81535 0.76416 0.0
C2268 C 0.64067 0.84307 0.7721 0.0
C2269 C 0.63731 0.85134 0.75358 0.0
C2270 C 0.62315 0.8426 0.74147 0.0
C2271 C 0.61451 0.82477 0.7467 0.0
H2272 H 0.25285 0.17993 0.4069 0.0
H2273 H 0.20073 0.17809 0.37145 0.0
H2274 H 0.26147 0.14719 0.39586 0.0
H2275 H 0.20961 0.14595 0.35991 0.0
H2276 H 0.28611 0.1226 0.33644 0.0
H2277 H 0.2748 0.13976 0.36509 0.0
H2278 H 0.21812 0.11262 0.35913 0.0
H2279 H 0.22935 0.09593 0.32979 0.0
C2280 C 0.24287 0.17232 0.39727 0.0
C2281 C 0.22643 0.18192 0.38953 0.0
C2282 C 0.24791 0.15356 0.3908 0.0
C2283 C 0.23667 0.14411 0.37641 0.0
C2284 C 0.21879 0.15265 0.3709 0.0
C2285 C 0.2137 0.1713 0.37744 0.0
C2286 C 0.27144 0.11968 0.34161 0.0
C2287 C 0.25842 0.10851 0.33034 0.0
C2288 C 0.26491 0.12951 0.35824 0.0
C2289 C 0.24523 0.12824 0.36408 0.0
C2290 C 0.23316 0.11451 0.35464 0.0
C2291 C 0.23969 0.10475 0.33788 0.0
H2292 H 0.90577 0.21874 0.34033 0.0
H2293 H 0.88154 0.27685 0.33817 0.0
H2294 H 0.89472 0.2154 0.37407 0.0
H2295 H 0.87007 0.27354 0.37132 0.0
H2296 H 0.82957 0.20578 0.39513 0.0
H2297 H 0.86174 0.20905 0.38111 0.0
H2298 H 0.86617 0.26744 0.40483 0.0
H2299 H 0.83338 0.26423 0.41835 0.0
C2300 C 0.89903 0.2312 0.34739 0.0
C2301 C 0.89404 0.24787 0.33651 0.0
C2302 C 0.89243 0.22921 0.36669 0.0
C2303 C 0.88069 0.24383 0.37526 0.0
C2304 C 0.87882 0.26179 0.36537 0.0
C2305 C 0.8854 0.26375 0.34619 0.0
C2306 C 0.83779 0.21896 0.39819 0.0
C2307 C 0.82867 0.23499 0.4072 0.0
C2308 C 0.85642 0.22089 0.39014 0.0
C2309 C 0.86633 0.23892 0.39099 0.0
C2310 C 0.85867 0.25361 0.40324 0.0
C2311 C 0.83991 0.25168 0.41125 0.0
H2312 H 0.77033 0.89437 0.326 0.0
H2313 H 0.80031 0.8434 0.34802 0.0
H2314 H 0.74559 0.89061 0.35139 0.0
H2315 H 0.77533 0.83874 0.3721 0.0
H2316 H 0.72705 0.82129 0.40614 0.0
H2317 H 0.75471 0.84207 0.39769 0.0
H2318 H 0.71951 0.87038 0.35346 0.0
H2319 H 0.69191 0.85095 0.36301 0.0
C2320 C 0.77184 0.88258 0.33645 0.0
C2321 C 0.78692 0.86881 0.33454 0.0
C2322 C 0.75754 0.88026 0.35094 0.0
C2323 C 0.75783 0.86389 0.36351 0.0
C2324 C 0.77426 0.85153 0.36289 0.0
C2325 C 0.78863 0.85406 0.34873 0.0
C2326 C 0.72507 0.83255 0.39521 0.0
C2327 C 0.70753 0.83391 0.3847 0.0
C2328 C 0.74103 0.84434 0.39011 0.0
C2329 C 0.73985 0.85729 0.37409 0.0
C2330 C 0.72139 0.86053 0.36567 0.0
C2331 C 0.70541 0.84912 0.37105 0.0
H2332 H 0.23295 0.73372 0.3546 0.0
H2333 H 0.19243 0.69732 0.38632 0.0
H2334 H 0.20618 0.75516 0.34483 0.0
H2335 H 0.16528 0.71856 0.37583 0.0
H2336 H 0.13495 0.74766 0.31416 0.0
H2337 H 0.15379 0.72654 0.33618 0.0
H2338 H 0.17847 0.77747 0.36382 0.0
H2339 H 0.15964 0.7985 0.34215 0.0
C2340 C 0.21832 0.73053 0.35973 0.0
C2341 C 0.21472 0.71403 0.3713 0.0
C2342 C 0.20303 0.74277 0.35418 0.0
C2343 C 0.18373 0.73848 0.35966 0.0
C2344 C 0.18007 0.72217 0.37154 0.0
C2345 C 0.19555 0.71017 0.3776 0.0
C2346 C 0.1436 0.75431 0.3256 0.0
C2347 C 0.1461 0.77469 0.32625 0.0
C2348 C 0.15442 0.74224 0.33815 0.0
C2349 C 0.16775 0.75047 0.35143 0.0
C2350 C 0.16838 0.77082 0.35361 0.0
C2351 C 0.15758 0.78282 0.3412 0.0
H2352 H 0.26098 0.81276 0.59382 0.0
H2353 H 0.20772 0.82112 0.62654 0.0
H2354 H 0.27176 0.84542 0.60316 0.0
H2355 H 0.21868 0.85314 0.63647 0.0
H2356 H 0.24077 0.90403 0.66357 0.0
H2357 H 0.22941 0.88566 0.6353 0.0
H2358 H 0.28442 0.8547 0.63355 0.0
H2359 H 0.29592 0.87353 0.66105 0.0
C2360 C 0.25127 0.82177 0.60248 0.0
C2361 C 0.23374 0.81406 0.60993 0.0
C2362 C 0.25754 0.84048 0.608 0.0
C2363 C 0.24646 0.85179 0.62115 0.0
C2364 C 0.22776 0.84502 0.6264 0.0
C2365 C 0.22147 0.82643 0.6208 0.0
C2366 C 0.25078 0.89397 0.65656 0.0
C2367 C 0.26902 0.88975 0.66502 0.0
C2368 C 0.24416 0.88323 0.64044 0.0
C2369 C 0.25561 0.86803 0.63258 0.0
C2370 C 0.27498 0.86607 0.63919 0.0
C2371 C 0.28163 0.87689 0.65516 0.0
H2372 H 0.21888 0.30793 0.62066 0.0
H2373 H 0.25318 0.31706 0.67285 0.0
H2374 H 0.18986 0.3019 0.64098 0.0
H2375 H 0.22431 0.31124 0.69271 0.0
H2376 H 0.16873 0.33506 0.717 0.0
H2377 H 0.19198 0.33636 0.68997 0.0
H2378 H 0.1788 0.27668 0.67522 0.0
H2379 H 0.1554 0.27514 0.70239 0.0
C2380 C 0.22038 0.3081 0.63639 0.0
C2381 C 0.23831 0.31321 0.64513 0.0
C2382 C 0.20376 0.30472 0.64796 0.0
C2383 C 0.20493 0.30645 0.66833 0.0
C2384 C 0.22311 0.31008 0.67701 0.0
C2385 C 0.23962 0.31336 0.6656 0.0
C2386 C 0.1702 0.32243 0.70759 0.0
C2387 C 0.16039 0.30495 0.71198 0.0
C2388 C 0.18354 0.32319 0.69223 0.0
C2389 C 0.18732 0.30657 0.68087 0.0
C2390 C 0.17609 0.28968 0.68383 0.0
C2391 C 0.16263 0.28887 0.6993 0.0
H2392 H 0.77284 0.09648 0.67769 0.0
H2393 H 0.80229 0.14373 0.64801 0.0
H2394 H 0.74424 0.10155 0.65711 0.0
H2395 H 0.77367 0.1498 0.62872 0.0
H2396 H 0.72051 0.16984 0.60341 0.0
H2397 H 0.74802 0.14767 0.60791 0.0
H2398 H 0.72032 0.12436 0.65973 0.0
H2399 H 0.69262 0.14519 0.65433 0.0
C2400 C 0.77339 0.10766 0.66651 0.0
C2401 C 0.78958 0.12016 0.665 0.0
C2402 C 0.75688 0.11076 0.65481 0.0
C2403 C 0.7561 0.1267 0.64175 0.0
C2404 C 0.77334 0.13745 0.63857 0.0
C2405 C 0.78989 0.13409 0.64992 0.0
C2406 C 0.72006 0.15945 0.61534 0.0
C2407 C 0.70467 0.15978 0.62889 0.0
C2408 C 0.73596 0.14684 0.61808 0.0
C2409 C 0.73699 0.13469 0.63471 0.0
C2410 C 0.7204 0.13342 0.64679 0.0
C2411 C 0.70441 0.14566 0.6438 0.0
H2412 H 0.83931 0.69405 0.62569 0.0
H2413 H 0.80881 0.74063 0.5961 0.0
H2414 H 0.86276 0.71715 0.63832 0.0
H2415 H 0.83305 0.76396 0.60801 0.0
H2416 H 0.84607 0.79473 0.66727 0.0
H2417 H 0.83419 0.7762 0.63985 0.0
H2418 H 0.88692 0.74137 0.64036 0.0
H2419 H 0.89856 0.75978 0.66873 0.0
C2420 C 0.83809 0.70919 0.62121 0.0
C2421 C 0.82182 0.71563 0.61047 0.0
C2422 C 0.85173 0.72252 0.62836 0.0
C2423 C 0.8495 0.74263 0.6248 0.0
C2424 C 0.83484 0.74865 0.61161 0.0
C2425 C 0.82104 0.73526 0.60457 0.0
C2426 C 0.85534 0.78334 0.66138 0.0
C2427 C 0.873 0.77834 0.67056 0.0
C2428 C 0.84862 0.77281 0.64534 0.0
C2429 C 0.85939 0.75698 0.63792 0.0
C2430 C 0.87801 0.7532 0.64592 0.0
C2431 C 0.88476 0.76379 0.66213 0.0
H2432 H 0.32734 0.2069 0.11058 0.0
H2433 H 0.29118 0.25626 0.12567 0.0
H2434 H 0.35652 0.22528 0.12045 0.0
H2435 H 0.32007 0.27474 0.13493 0.0
H2436 H 0.3688 0.30733 0.15195 0.0
H2437 H 0.35294 0.28926 0.12572 0.0
H2438 H 0.36419 0.23521 0.1562 0.0
H2439 H 0.38025 0.25332 0.18237 0.0
C2440 C 0.32575 0.22198 0.11513 0.0
C2441 C 0.30709 0.23025 0.11739 0.0
C2442 C 0.3424 0.23242 0.12087 0.0
C2443 C 0.3406 0.25142 0.12846 0.0
C2444 C 0.32202 0.26023 0.1289 0.0
C2445 C 0.30543 0.24967 0.12365 0.0
C2446 C 0.36883 0.2915 0.15252 0.0
C2447 C 0.37536 0.28173 0.16935 0.0
C2448 C 0.35966 0.28118 0.13754 0.0
C2449 C 0.35684 0.26092 0.1392 0.0
C2450 C 0.36611 0.25084 0.15454 0.0
C2451 C 0.37538 0.26121 0.16954 0.0
H2452 H 0.35597 0.69677 0.84432 0.0
H2453 H 0.38135 0.73931 0.80525 0.0
H2454 H 0.33728 0.7225 0.86023 0.0
H2455 H 0.36282 0.7651 0.82139 0.0
H2456 H 0.3043 0.77556 0.88463 0.0
H2457 H 0.33266 0.75467 0.87777 0.0
H2458 H 0.32677 0.76725 0.81628 0.0
H2459 H 0.29878 0.7878 0.82297 0.0
C2460 C 0.35826 0.71175 0.83971 0.0
C2461 C 0.36971 0.71593 0.82316 0.0
C2462 C 0.34753 0.72651 0.84887 0.0
C2463 C 0.34811 0.74569 0.84162 0.0
C2464 C 0.36175 0.75031 0.82696 0.0
C2465 C 0.37255 0.73555 0.81784 0.0
C2466 C 0.30913 0.77385 0.86967 0.0
C2467 C 0.29916 0.78325 0.85434 0.0
C2468 C 0.32541 0.762 0.86577 0.0
C2469 C 0.33218 0.75961 0.84653 0.0
C2470 C 0.32228 0.76917 0.83132 0.0
C2471 C 0.30599 0.78075 0.83515 0.0
H2472 H 0.19432 0.25433 0.82697 0.0
H2473 H 0.20411 0.28648 0.8804 0.0
H2474 H 0.19937 0.28414 0.80824 0.0
H2475 H 0.20932 0.31647 0.86124 0.0
H2476 H 0.17321 0.34106 0.78825 0.0
H2477 H 0.17332 0.31701 0.81464 0.0
H2478 H 0.23419 0.32827 0.82525 0.0
H2479 H 0.23431 0.35257 0.79885 0.0
C2480 C 0.19802 0.26763 0.83472 0.0
C2481 C 0.1986 0.26803 0.85522 0.0
C2482 C 0.20086 0.28468 0.82395 0.0
C2483 C 0.20445 0.30252 0.83335 0.0
C2484 C 0.20656 0.30283 0.85372 0.0
C2485 C 0.20365 0.28566 0.86462 0.0
C2486 C 0.18644 0.33902 0.79668 0.0
C2487 C 0.20378 0.34859 0.79131 0.0
C2488 C 0.18648 0.32522 0.81166 0.0
C2489 C 0.20377 0.32067 0.82161 0.0
C2490 C 0.22067 0.3316 0.81775 0.0
C2491 C 0.22066 0.34556 0.80271 0.0
H2492 H 0.60748 0.3076 0.81104 0.0
H2493 H 0.64519 0.26985 0.77752 0.0
H2494 H 0.62799 0.30236 0.83993 0.0
H2495 H 0.66518 0.26401 0.8065 0.0
H2496 H 0.69522 0.25259 0.86332 0.0
H2497 H 0.66478 0.25195 0.84463 0.0
H2498 H 0.66615 0.31481 0.84015 0.0
H2499 H 0.6969 0.31547 0.85825 0.0
C2500 C 0.61956 0.29742 0.81011 0.0
C2501 C 0.62475 0.28905 0.79209 0.0
C2502 C 0.63135 0.29455 0.82659 0.0
C2503 C 0.64812 0.28279 0.82541 0.0
C2504 C 0.6522 0.27297 0.80786 0.0
C2505 C 0.64077 0.27628 0.79128 0.0
C2506 C 0.68862 0.26634 0.85906 0.0
C2507 C 0.69849 0.2841 0.86216 0.0
C2508 C 0.67126 0.26592 0.84826 0.0
C2509 C 0.6632 0.2833 0.84092 0.0
C2510 C 0.67198 0.30121 0.8458 0.0
C2511 C 0.68958 0.3016 0.85614 0.0
H2512 H 0.73405 0.60991 0.78873 0.0
H2513 H 0.71811 0.66894 0.77282 0.0
H2514 H 0.75222 0.62262 0.81685 0.0
H2515 H 0.73608 0.68142 0.80066 0.0
H2516 H 0.75286 0.69803 0.86137 0.0
H2517 H 0.73326 0.68114 0.83687 0.0
H2518 H 0.78191 0.64319 0.82383 0.0
H2519 H 0.80151 0.65994 0.84842 0.0
C2520 C 0.73452 0.62555 0.79111 0.0
C2521 C 0.72459 0.63837 0.77848 0.0
C2522 C 0.74488 0.63281 0.80724 0.0
C2523 C 0.74531 0.653 0.81116 0.0
C2524 C 0.73568 0.66577 0.79832 0.0
C2525 C 0.72553 0.65858 0.78219 0.0
C2526 C 0.75926 0.6858 0.85362 0.0
C2527 C 0.77885 0.68051 0.85671 0.0
C2528 C 0.74807 0.67624 0.83945 0.0
C2529 C 0.75616 0.66106 0.82817 0.0
C2530 C 0.77526 0.65481 0.83226 0.0
C2531 C 0.78649 0.66447 0.84634 0.0
H2532 H 0.68632 0.75941 0.11978 0.0
H2533 H 0.68482 0.69647 0.12421 0.0
H2534 H 0.65706 0.76151 0.14009 0.0
H2535 H 0.65539 0.6986 0.14417 0.0
H2536 H 0.64103 0.74738 0.20768 0.0
H2537 H 0.65816 0.75194 0.1768 0.0
H2538 H 0.61951 0.71051 0.14919 0.0
H2539 H 0.60198 0.70634 0.18011 0.0
C2540 C 0.67925 0.74598 0.12429 0.0
C2541 C 0.68803 0.72775 0.12057 0.0
C2542 C 0.66256 0.74722 0.13605 0.0
C2543 C 0.65408 0.73025 0.1439 0.0
C2544 C 0.66153 0.71195 0.13826 0.0
C2545 C 0.67843 0.71071 0.12684 0.0
C2546 C 0.63564 0.73993 0.19481 0.0
C2547 C 0.62018 0.72654 0.19629 0.0
C2548 C 0.64544 0.74253 0.17709 0.0
C2549 C 0.64026 0.73146 0.1606 0.0
C2550 C 0.62381 0.71921 0.16167 0.0
C2551 C 0.61369 0.71696 0.17933 0.0
H2552 H 0.25256 0.60034 0.17337 0.0
H2553 H 0.20107 0.63669 0.17024 0.0
H2554 H 0.2634 0.6131 0.14197 0.0
H2555 H 0.21214 0.64989 0.13945 0.0
H2556 H 0.29024 0.67285 0.12066 0.0
H2557 H 0.27746 0.64408 0.13664 0.0
H2558 H 0.22246 0.6517 0.10663 0.0
H2559 H 0.23515 0.68111 0.0911 0.0
C2560 C 0.24322 0.61058 0.16573 0.0
C2561 C 0.22623 0.61795 0.17465 0.0
C2562 C 0.24953 0.61802 0.14775 0.0
C2563 C 0.23905 0.63305 0.13839 0.0
C2564 C 0.22075 0.63841 0.14611 0.0
C2565 C 0.21439 0.63089 0.16398 0.0
C2566 C 0.27565 0.66804 0.11687 0.0
C2567 C 0.26351 0.67974 0.10516 0.0
C2568 C 0.26827 0.65135 0.12602 0.0
C2569 C 0.24861 0.64587 0.12353 0.0
C2570 C 0.23746 0.65586 0.10942 0.0
C2571 C 0.24483 0.67266 0.10033 0.0
H2572 H 0.77408 0.37295 0.18426 0.0
H2573 H 0.71565 0.39571 0.17892 0.0
H2574 H 0.77254 0.36061 0.15124 0.0
H2575 H 0.71402 0.38359 0.14542 0.0
H2576 H 0.70754 0.31734 0.12544 0.0
H2577 H 0.70933 0.34948 0.13995 0.0
H2578 H 0.76769 0.35669 0.11704 0.0
H2579 H 0.76598 0.32404 0.10283 0.0
C2580 C 0.76133 0.37638 0.17554 0.0
C2581 C 0.74485 0.38488 0.18426 0.0
C2582 C 0.76037 0.36926 0.15647 0.0
C2583 C 0.74282 0.3704 0.14581 0.0
C2584 C 0.72756 0.38196 0.15341 0.0
C2585 C 0.72858 0.38918 0.17255 0.0
C2586 C 0.72044 0.3261 0.12274 0.0
C2587 C 0.73685 0.31787 0.11358 0.0
C2588 C 0.72147 0.34472 0.13102 0.0
C2589 C 0.73897 0.35551 0.13032 0.0
C2590 C 0.7542 0.34855 0.11835 0.0
C2591 C 0.75315 0.32986 0.11003 0.0
loop_
_geom_bond_atom_site_label_1
_geom_bond_atom_site_label_2
_geom_bond_distance
_geom_bond_site_symmetry_2
_ccdc_geom_bond_type
Zn0 O3 2.031 . S
Zn0 O5 2.049 . S
Zn0 O10 2.067 . S
Zn1 O2 1.962 . S
Zn1 O4 1.986 . S
Zn1 O6 1.996 . S
Zn1 O9 1.943 . S
O2 Zn1 1.962 . S
O2 C7 1.254 . S
O3 Zn0 2.031 . S
O3 C7 1.269 . S
O4 Zn1 1.986 . S
O4 C11 1.262 . S
O5 Zn0 2.049 . S
O5 C13 1.260 . S
O6 Zn1 1.996 . S
O6 C13 1.257 . S
C7 O2 1.254 . S
C7 O3 1.269 . S
C8 O9 1.249 . S
C8 O10 1.270 . S
O9 Zn1 1.943 . S
O9 C8 1.249 . S
O10 Zn0 2.067 . S
O10 C8 1.270 . S
C11 O4 1.262 . S
C11 O12 1.232 . S
O12 C11 1.232 . S
C13 O5 1.260 . S
C13 O6 1.257 . S
Zn14 O17 2.031 . S
Zn14 O19 2.049 . S
Zn14 O24 2.067 . S
Zn15 O16 1.962 . S
Zn15 O18 1.986 . S
Zn15 O20 1.996 . S
Zn15 O23 1.943 . S
O16 Zn15 1.962 . S
O16 C21 1.254 . S
O17 Zn14 2.031 . S
O17 C21 1.269 . S
O18 Zn15 1.986 . S
O18 C25 1.262 . S
O19 Zn14 2.049 . S
O19 C27 1.260 . S
O20 Zn15 1.996 . S
O20 C27 1.257 . S
C21 O16 1.254 . S
C21 O17 1.269 . S
C22 O23 1.249 . S
C22 O24 1.270 . S
O23 Zn15 1.943 . S
O23 C22 1.249 . S
O24 Zn14 2.067 . S
O24 C22 1.270 . S
C25 O18 1.262 . S
C25 O26 1.232 . S
O26 C25 1.232 . S
C27 O19 1.260 . S
C27 O20 1.257 . S
Zn28 O31 2.031 . S
Zn28 O33 2.049 . S
Zn28 O38 2.067 . S
Zn29 O30 1.962 . S
Zn29 O32 1.986 . S
Zn29 O34 1.996 . S
Zn29 O37 1.943 . S
O30 Zn29 1.962 . S
O30 C35 1.254 . S
O31 Zn28 2.031 . S
O31 C35 1.269 . S
O32 Zn29 1.986 . S
O32 C39 1.262 . S
O33 Zn28 2.049 . S
O33 C41 1.260 . S
O34 Zn29 1.996 . S
O34 C41 1.257 . S
C35 O30 1.254 . S
C35 O31 1.269 . S
C36 O37 1.249 . S
C36 O38 1.270 . S
O37 Zn29 1.943 . S
O37 C36 1.249 . S
O38 Zn28 2.067 . S
O38 C36 1.270 . S
C39 O32 1.262 . S
C39 O40 1.232 . S
O40 C39 1.232 . S
C41 O33 1.260 . S
C41 O34 1.257 . S
Zn42 O45 2.031 . S
Zn42 O47 2.049 . S
Zn42 O52 2.067 . S
Zn43 O44 1.962 . S
Zn43 O46 1.986 . S
Zn43 O48 1.996 . S
Zn43 O51 1.943 . S
O44 Zn43 1.962 . S
O44 C49 1.254 . S
O45 Zn42 2.031 . S
O45 C49 1.269 . S
O46 Zn43 1.986 . S
O46 C53 1.262 . S
O47 Zn42 2.049 . S
O47 C55 1.260 . S
O48 Zn43 1.996 . S
O48 C55 1.257 . S
C49 O44 1.254 . S
C49 O45 1.269 . S
C50 O51 1.249 . S
C50 O52 1.270 . S
O51 Zn43 1.943 . S
O51 C50 1.249 . S
O52 Zn42 2.067 . S
O52 C50 1.270 . S
C53 O46 1.262 . S
C53 O54 1.232 . S
O54 C53 1.232 . S
C55 O47 1.260 . S
C55 O48 1.257 . S
Zn56 O59 2.031 . S
Zn56 O61 2.049 . S
Zn56 O66 2.067 . S
Zn57 O58 1.962 . S
Zn57 O60 1.986 . S
Zn57 O62 1.996 . S
Zn57 O65 1.943 . S
O58 Zn57 1.962 . S
O58 C63 1.254 . S
O59 Zn56 2.031 . S
O59 C63 1.269 . S
O60 Zn57 1.986 . S
O60 C67 1.262 . S
O61 Zn56 2.049 . S
O61 C69 1.260 . S
O62 Zn57 1.996 . S
O62 C69 1.257 . S
C63 O58 1.254 . S
C63 O59 1.269 . S
C64 O65 1.249 . S
C64 O66 1.270 . S
O65 Zn57 1.943 . S
O65 C64 1.249 . S
O66 Zn56 2.067 . S
O66 C64 1.270 . S
C67 O60 1.262 . S
C67 O68 1.232 . S
O68 C67 1.232 . S
C69 O61 1.260 . S
C69 O62 1.257 . S
Zn70 O73 2.031 . S
Zn70 O75 2.049 . S
Zn70 O80 2.067 . S
Zn71 O72 1.962 . S
Zn71 O74 1.986 . S
Zn71 O76 1.996 . S
Zn71 O79 1.943 . S
O72 Zn71 1.962 . S
O72 C77 1.254 . S
O73 Zn70 2.031 . S
O73 C77 1.269 . S
O74 Zn71 1.986 . S
O74 C81 1.262 . S
O75 Zn70 2.049 . S
O75 C83 1.260 . S
O76 Zn71 1.996 . S
O76 C83 1.257 . S
C77 O72 1.254 . S
C77 O73 1.269 . S
C78 O79 1.249 . S
C78 O80 1.270 . S
O79 Zn71 1.943 . S
O79 C78 1.249 . S
O80 Zn70 2.067 . S
O80 C78 1.270 . S
C81 O74 1.262 . S
C81 O82 1.232 . S
O82 C81 1.232 . S
C83 O75 1.260 . S
C83 O76 1.257 . S
Zn84 O87 2.031 . S
Zn84 O89 2.049 . S
Zn84 O94 2.067 . S
Zn85 O86 1.962 . S
Zn85 O88 1.986 . S
Zn85 O90 1.996 . S
Zn85 O93 1.943 . S
O86 Zn85 1.962 . S
O86 C91 1.254 . S
O87 Zn84 2.031 . S
O87 C91 1.269 . S
O88 Zn85 1.986 . S
O88 C95 1.262 . S
O89 Zn84 2.049 . S
O89 C97 1.260 . S
O90 Zn85 1.996 . S
O90 C97 1.257 . S
C91 O86 1.254 . S
C91 O87 1.269 . S
C92 O93 1.249 . S
C92 O94 1.270 . S
O93 Zn85 1.943 . S
O93 C92 1.249 . S
O94 Zn84 2.067 . S
O94 C92 1.270 . S
C95 O88 1.262 . S
C95 O96 1.232 . S
O96 C95 1.232 . S
C97 O89 1.260 . S
C97 O90 1.257 . S
Zn98 O101 2.031 . S
Zn98 O103 2.049 . S
Zn98 O108 2.067 . S
Zn99 O100 1.962 . S
Zn99 O102 1.986 . S
Zn99 O104 1.996 . S
Zn99 O107 1.943 . S
O100 Zn99 1.962 . S
O100 C105 1.254 . S
O101 Zn98 2.031 . S
O101 C105 1.269 . S
O102 Zn99 1.986 . S
O102 C109 1.262 . S
O103 Zn98 2.049 . S
O103 C111 1.260 . S
O104 Zn99 1.996 . S
O104 C111 1.257 . S
C105 O100 1.254 . S
C105 O101 1.269 . S
C106 O107 1.249 . S
C106 O108 1.270 . S
O107 Zn99 1.943 . S
O107 C106 1.249 . S
O108 Zn98 2.067 . S
O108 C106 1.270 . S
C109 O102 1.262 . S
C109 O110 1.232 . S
O110 C109 1.232 . S
C111 O103 1.260 . S
C111 O104 1.257 . S
Zn112 O115 2.031 . S
Zn112 O117 2.049 . S
Zn112 O122 2.067 . S
Zn113 O114 1.962 . S
Zn113 O116 1.986 . S
Zn113 O118 1.996 . S
Zn113 O121 1.943 . S
O114 Zn113 1.962 . S
O114 C119 1.254 . S
O115 Zn112 2.031 . S
O115 C119 1.269 . S
O116 Zn113 1.986 . S
O116 C123 1.262 . S
O117 Zn112 2.049 . S
O117 C125 1.260 . S
O118 Zn113 1.996 . S
O118 C125 1.257 . S
C119 O114 1.254 . S
C119 O115 1.269 . S
C120 O121 1.249 . S
C120 O122 1.270 . S
O121 Zn113 1.943 . S
O121 C120 1.249 . S
O122 Zn112 2.067 . S
O122 C120 1.270 . S
C123 O116 1.262 . S
C123 O124 1.232 . S
O124 C123 1.232 . S
C125 O117 1.260 . S
C125 O118 1.257 . S
Zn126 O129 2.031 . S
Zn126 O131 2.049 . S
Zn126 O136 2.067 . S
Zn127 O128 1.962 . S
Zn127 O130 1.986 . S
Zn127 O132 1.996 . S
Zn127 O135 1.943 . S
O128 Zn127 1.962 . S
O128 C133 1.254 . S
O129 Zn126 2.031 . S
O129 C133 1.269 . S
O130 Zn127 1.986 . S
O130 C137 1.262 . S
O131 Zn126 2.049 . S
O131 C139 1.260 . S
O132 Zn127 1.996 . S
O132 C139 1.257 . S
C133 O128 1.254 . S
C133 O129 1.269 . S
C134 O135 1.249 . S
C134 O136 1.270 . S
O135 Zn127 1.943 . S
O135 C134 1.249 . S
O136 Zn126 2.067 . S
O136 C134 1.270 . S
C137 O130 1.262 . S
C137 O138 1.232 . S
O138 C137 1.232 . S
C139 O131 1.260 . S
C139 O132 1.257 . S
Zn140 O143 2.031 . S
Zn140 O145 2.049 . S
Zn140 O150 2.067 . S
Zn141 O142 1.962 . S
Zn141 O144 1.986 . S
Zn141 O146 1.996 . S
Zn141 O149 1.943 . S
O142 Zn141 1.962 . S
O142 C147 1.254 . S
O143 Zn140 2.031 . S
O143 C147 1.269 . S
O144 Zn141 1.986 . S
O144 C151 1.262 . S
O145 Zn140 2.049 . S
O145 C153 1.260 . S
O146 Zn141 1.996 . S
O146 C153 1.257 . S
C147 O142 1.254 . S
C147 O143 1.269 . S
C148 O149 1.249 . S
C148 O150 1.270 . S
O149 Zn141 1.943 . S
O149 C148 1.249 . S
O150 Zn140 2.067 . S
O150 C148 1.270 . S
C151 O144 1.262 . S
C151 O152 1.232 . S
O152 C151 1.232 . S
C153 O145 1.260 . S
C153 O146 1.257 . S
Zn154 O157 2.031 . S
Zn154 O159 2.049 . S
Zn154 O164 2.067 . S
Zn155 O156 1.962 . S
Zn155 O158 1.986 . S
Zn155 O160 1.996 . S
Zn155 O163 1.943 . S
O156 Zn155 1.962 . S
O156 C161 1.254 . S
O157 Zn154 2.031 . S
O157 C161 1.269 . S
O158 Zn155 1.986 . S
O158 C165 1.262 . S
O159 Zn154 2.049 . S
O159 C167 1.260 . S
O160 Zn155 1.996 . S
O160 C167 1.257 . S
C161 O156 1.254 . S
C161 O157 1.269 . S
C162 O163 1.249 . S
C162 O164 1.270 . S
O163 Zn155 1.943 . S
O163 C162 1.249 . S
O164 Zn154 2.067 . S
O164 C162 1.270 . S
C165 O158 1.262 . S
C165 O166 1.232 . S
O166 C165 1.232 . S
C167 O159 1.260 . S
C167 O160 1.257 . S
Zn168 O171 2.031 . S
Zn168 O173 2.049 . S
Zn168 O178 2.067 . S
Zn169 O170 1.962 . S
Zn169 O172 1.986 . S
Zn169 O174 1.996 . S
Zn169 O177 1.943 . S
O170 Zn169 1.962 . S
O170 C175 1.254 . S
O171 Zn168 2.031 . S
O171 C175 1.269 . S
O172 Zn169 1.986 . S
O172 C179 1.262 . S
O173 Zn168 2.049 . S
O173 C181 1.260 . S
O174 Zn169 1.996 . S
O174 C181 1.257 . S
C175 O170 1.254 . S
C175 O171 1.269 . S
C176 O177 1.249 . S
C176 O178 1.270 . S
O177 Zn169 1.943 . S
O177 C176 1.249 . S
O178 Zn168 2.067 . S
O178 C176 1.270 . S
C179 O172 1.262 . S
C179 O180 1.232 . S
O180 C179 1.232 . S
C181 O173 1.260 . S
C181 O174 1.257 . S
Zn182 O185 2.031 . S
Zn182 O187 2.049 . S
Zn182 O192 2.067 . S
Zn183 O184 1.962 . S
Zn183 O186 1.986 . S
Zn183 O188 1.996 . S
Zn183 O191 1.943 . S
O184 Zn183 1.962 . S
O184 C189 1.254 . S
O185 Zn182 2.031 . S
O185 C189 1.269 . S
O186 Zn183 1.986 . S
O186 C193 1.262 . S
O187 Zn182 2.049 . S
O187 C195 1.260 . S
O188 Zn183 1.996 . S
O188 C195 1.257 . S
C189 O184 1.254 . S
C189 O185 1.269 . S
C190 O191 1.249 . S
C190 O192 1.270 . S
O191 Zn183 1.943 . S
O191 C190 1.249 . S
O192 Zn182 2.067 . S
O192 C190 1.270 . S
C193 O186 1.262 . S
C193 O194 1.232 . S
O194 C193 1.232 . S
C195 O187 1.260 . S
C195 O188 1.257 . S
Zn196 O199 2.031 . S
Zn196 O201 2.049 . S
Zn196 O206 2.067 . S
Zn197 O198 1.962 . S
Zn197 O200 1.986 . S
Zn197 O202 1.996 . S
Zn197 O205 1.943 . S
O198 Zn197 1.962 . S
O198 C203 1.254 . S
O199 Zn196 2.031 . S
O199 C203 1.269 . S
O200 Zn197 1.986 . S
O200 C207 1.262 . S
O201 Zn196 2.049 . S
O201 C209 1.260 . S
O202 Zn197 1.996 . S
O202 C209 1.257 . S
C203 O198 1.254 . S
C203 O199 1.269 . S
C204 O205 1.249 . S
C204 O206 1.270 . S
O205 Zn197 1.943 . S
O205 C204 1.249 . S
O206 Zn196 2.067 . S
O206 C204 1.270 . S
C207 O200 1.262 . S
C207 O208 1.232 . S
O208 C207 1.232 . S
C209 O201 1.260 . S
C209 O202 1.257 . S
Zn210 O213 2.031 . S
Zn210 O215 2.049 . S
Zn210 O220 2.067 . S
Zn211 O212 1.962 . S
Zn211 O214 1.986 . S
Zn211 O216 1.996 . S
Zn211 O219 1.943 . S
O212 Zn211 1.962 . S
O212 C217 1.254 . S
O213 Zn210 2.031 . S
O213 C217 1.269 . S
O214 Zn211 1.986 . S
O214 C221 1.262 . S
O215 Zn210 2.049 . S
O215 C223 1.260 . S
O216 Zn211 1.996 . S
O216 C223 1.257 . S
C217 O212 1.254 . S
C217 O213 1.269 . S
C218 O219 1.249 . S
C218 O220 1.270 . S
O219 Zn211 1.943 . S
O219 C218 1.249 . S
O220 Zn210 2.067 . S
O220 C218 1.270 . S
C221 O214 1.262 . S
C221 O222 1.232 . S
O222 C221 1.232 . S
C223 O215 1.260 . S
C223 O216 1.257 . S
Zn224 O227 2.031 . S
Zn224 O229 2.049 . S
Zn224 O234 2.067 . S
Zn225 O226 1.962 . S
Zn225 O228 1.986 . S
Zn225 O230 1.996 . S
Zn225 O233 1.943 . S
O226 Zn225 1.962 . S
O226 C231 1.254 . S
O227 Zn224 2.031 . S
O227 C231 1.269 . S
O228 Zn225 1.986 . S
O228 C235 1.262 . S
O229 Zn224 2.049 . S
O229 C237 1.260 . S
O230 Zn225 1.996 . S
O230 C237 1.257 . S
C231 O226 1.254 . S
C231 O227 1.269 . S
C232 O233 1.249 . S
C232 O234 1.270 . S
O233 Zn225 1.943 . S
O233 C232 1.249 . S
O234 Zn224 2.067 . S
O234 C232 1.270 . S
C235 O228 1.262 . S
C235 O236 1.232 . S
O236 C235 1.232 . S
C237 O229 1.260 . S
C237 O230 1.257 . S
Zn238 O241 2.031 . S
Zn238 O243 2.049 . S
Zn238 O248 2.067 . S
Zn239 O240 1.962 . S
Zn239 O242 1.986 . S
Zn239 O244 1.996 . S
Zn239 O247 1.943 . S
O240 Zn239 1.962 . S
O240 C245 1.254 . S
O241 Zn238 2.031 . S
O241 C245 1.269 . S
O242 Zn239 1.986 . S
O242 C249 1.262 . S
O243 Zn238 2.049 . S
O243 C251 1.260 . S
O244 Zn239 1.996 . S
O244 C251 1.257 . S
C245 O240 1.254 . S
C245 O241 1.269 . S
C246 O247 1.249 . S
C246 O248 1.270 . S
O247 Zn239 1.943 . S
O247 C246 1.249 . S
O248 Zn238 2.067 . S
O248 C246 1.270 . S
C249 O242 1.262 . S
C249 O250 1.232 . S
O250 C249 1.232 . S
C251 O243 1.260 . S
C251 O244 1.257 . S
Zn252 O255 2.031 . S
Zn252 O257 2.049 . S
Zn252 O262 2.067 . S
Zn253 O254 1.962 . S
Zn253 O256 1.986 . S
Zn253 O258 1.996 . S
Zn253 O261 1.943 . S
O254 Zn253 1.962 . S
O254 C259 1.254 . S
O255 Zn252 2.031 . S
O255 C259 1.269 . S
O256 Zn253 1.986 . S
O256 C263 1.262 . S
O257 Zn252 2.049 . S
O257 C265 1.260 . S
O258 Zn253 1.996 . S
O258 C265 1.257 . S
C259 O254 1.254 . S
C259 O255 1.269 . S
C260 O261 1.249 . S
C260 O262 1.270 . S
O261 Zn253 1.943 . S
O261 C260 1.249 . S
O262 Zn252 2.067 . S
O262 C260 1.270 . S
C263 O256 1.262 . S
C263 O264 1.232 . S
O264 C263 1.232 . S
C265 O257 1.260 . S
C265 O258 1.257 . S
Zn266 O269 2.031 . S
Zn266 O271 2.049 . S
Zn266 O276 2.067 . S
Zn267 O268 1.962 . S
Zn267 O270 1.986 . S
Zn267 O272 1.996 . S
Zn267 O275 1.943 . S
O268 Zn267 1.962 . S
O268 C273 1.254 . S
O269 Zn266 2.031 . S
O269 C273 1.269 . S
O270 Zn267 1.986 . S
O270 C277 1.262 . S
O271 Zn266 2.049 . S
O271 C279 1.260 . S
O272 Zn267 1.996 . S
O272 C279 1.257 . S
C273 O268 1.254 . S
C273 O269 1.269 . S
C274 O275 1.249 . S
C274 O276 1.270 . S
O275 Zn267 1.943 . S
O275 C274 1.249 . S
O276 Zn266 2.067 . S
O276 C274 1.270 . S
C277 O270 1.262 . S
C277 O278 1.232 . S
O278 C277 1.232 . S
C279 O271 1.260 . S
C279 O272 1.257 . S
Zn280 O283 2.031 . S
Zn280 O285 2.049 . S
Zn280 O290 2.067 . S
Zn281 O282 1.962 . S
Zn281 O284 1.986 . S
Zn281 O286 1.996 . S
Zn281 O289 1.943 . S
O282 Zn281 1.962 . S
O282 C287 1.254 . S
O283 Zn280 2.031 . S
O283 C287 1.269 . S
O284 Zn281 1.986 . S
O284 C291 1.262 . S
O285 Zn280 2.049 . S
O285 C293 1.260 . S
O286 Zn281 1.996 . S
O286 C293 1.257 . S
C287 O282 1.254 . S
C287 O283 1.269 . S
C288 O289 1.249 . S
C288 O290 1.270 . S
O289 Zn281 1.943 . S
O289 C288 1.249 . S
O290 Zn280 2.067 . S
O290 C288 1.270 . S
C291 O284 1.262 . S
C291 O292 1.232 . S
O292 C291 1.232 . S
C293 O285 1.260 . S
C293 O286 1.257 . S
Zn294 O297 2.031 . S
Zn294 O299 2.049 . S
Zn294 O304 2.067 . S
Zn295 O296 1.962 . S
Zn295 O298 1.986 . S
Zn295 O300 1.996 . S
Zn295 O303 1.943 . S
O296 Zn295 1.962 . S
O296 C301 1.254 . S
O297 Zn294 2.031 . S
O297 C301 1.269 . S
O298 Zn295 1.986 . S
O298 C305 1.262 . S
O299 Zn294 2.049 . S
O299 C307 1.260 . S
O300 Zn295 1.996 . S
O300 C307 1.257 . S
C301 O296 1.254 . S
C301 O297 1.269 . S
C302 O303 1.249 . S
C302 O304 1.270 . S
O303 Zn295 1.943 . S
O303 C302 1.249 . S
O304 Zn294 2.067 . S
O304 C302 1.270 . S
C305 O298 1.262 . S
C305 O306 1.232 . S
O306 C305 1.232 . S
C307 O299 1.260 . S
C307 O300 1.257 . S
Zn308 O311 2.031 . S
Zn308 O313 2.049 . S
Zn308 O318 2.067 . S
Zn309 O310 1.962 . S
Zn309 O312 1.986 . S
Zn309 O314 1.996 . S
Zn309 O317 1.943 . S
O310 Zn309 1.962 . S
O310 C315 1.254 . S
O311 Zn308 2.031 . S
O311 C315 1.269 . S
O312 Zn309 1.986 . S
O312 C319 1.262 . S
O313 Zn308 2.049 . S
O313 C321 1.260 . S
O314 Zn309 1.996 . S
O314 C321 1.257 . S
C315 O310 1.254 . S
C315 O311 1.269 . S
C316 O317 1.249 . S
C316 O318 1.270 . S
O317 Zn309 1.943 . S
O317 C316 1.249 . S
O318 Zn308 2.067 . S
O318 C316 1.270 . S
C319 O312 1.262 . S
C319 O320 1.232 . S
O320 C319 1.232 . S
C321 O313 1.260 . S
C321 O314 1.257 . S
Zn322 O325 2.031 . S
Zn322 O327 2.049 . S
Zn322 O332 2.067 . S
Zn323 O324 1.962 . S
Zn323 O326 1.986 . S
Zn323 O328 1.996 . S
Zn323 O331 1.943 . S
O324 Zn323 1.962 . S
O324 C329 1.254 . S
O325 Zn322 2.031 . S
O325 C329 1.269 . S
O326 Zn323 1.986 . S
O326 C333 1.262 . S
O327 Zn322 2.049 . S
O327 C335 1.260 . S
O328 Zn323 1.996 . S
O328 C335 1.257 . S
C329 O324 1.254 . S
C329 O325 1.269 . S
C330 O331 1.249 . S
C330 O332 1.270 . S
O331 Zn323 1.943 . S
O331 C330 1.249 . S
O332 Zn322 2.067 . S
O332 C330 1.270 . S
C333 O326 1.262 . S
C333 O334 1.232 . S
O334 C333 1.232 . S
C335 O327 1.260 . S
C335 O328 1.257 . S
Zn336 O339 2.031 . S
Zn336 O341 2.049 . S
Zn336 O346 2.067 . S
Zn337 O338 1.962 . S
Zn337 O340 1.986 . S
Zn337 O342 1.996 . S
Zn337 O345 1.943 . S
O338 Zn337 1.962 . S
O338 C343 1.254 . S
O339 Zn336 2.031 . S
O339 C343 1.269 . S
O340 Zn337 1.986 . S
O340 C347 1.262 . S
O341 Zn336 2.049 . S
O341 C349 1.260 . S
O342 Zn337 1.996 . S
O342 C349 1.257 . S
C343 O338 1.254 . S
C343 O339 1.269 . S
C344 O345 1.249 . S
C344 O346 1.270 . S
O345 Zn337 1.943 . S
O345 C344 1.249 . S
O346 Zn336 2.067 . S
O346 C344 1.270 . S
C347 O340 1.262 . S
C347 O348 1.232 . S
O348 C347 1.232 . S
C349 O341 1.260 . S
C349 O342 1.257 . S
Zn350 O353 2.031 . S
Zn350 O355 2.049 . S
Zn350 O360 2.067 . S
Zn351 O352 1.962 . S
Zn351 O354 1.986 . S
Zn351 O356 1.996 . S
Zn351 O359 1.943 . S
O352 Zn351 1.962 . S
O352 C357 1.254 . S
O353 Zn350 2.031 . S
O353 C357 1.269 . S
O354 Zn351 1.986 . S
O354 C361 1.262 . S
O355 Zn350 2.049 . S
O355 C363 1.260 . S
O356 Zn351 1.996 . S
O356 C363 1.257 . S
C357 O352 1.254 . S
C357 O353 1.269 . S
C358 O359 1.249 . S
C358 O360 1.270 . S
O359 Zn351 1.943 . S
O359 C358 1.249 . S
O360 Zn350 2.067 . S
O360 C358 1.270 . S
C361 O354 1.262 . S
C361 O362 1.232 . S
O362 C361 1.232 . S
C363 O355 1.260 . S
C363 O356 1.257 . S
Zn364 O367 2.031 . S
Zn364 O369 2.049 . S
Zn364 O374 2.067 . S
Zn365 O366 1.962 . S
Zn365 O368 1.986 . S
Zn365 O370 1.996 . S
Zn365 O373 1.943 . S
O366 Zn365 1.962 . S
O366 C371 1.254 . S
O367 Zn364 2.031 . S
O367 C371 1.269 . S
O368 Zn365 1.986 . S
O368 C375 1.262 . S
O369 Zn364 2.049 . S
O369 C377 1.260 . S
O370 Zn365 1.996 . S
O370 C377 1.257 . S
C371 O366 1.254 . S
C371 O367 1.269 . S
C372 O373 1.249 . S
C372 O374 1.270 . S
O373 Zn365 1.943 . S
O373 C372 1.249 . S
O374 Zn364 2.067 . S
O374 C372 1.270 . S
C375 O368 1.262 . S
C375 O376 1.232 . S
O376 C375 1.232 . S
C377 O369 1.260 . S
C377 O370 1.257 . S
Zn378 O381 2.031 . S
Zn378 O383 2.049 . S
Zn378 O388 2.067 . S
Zn379 O380 1.962 . S
Zn379 O382 1.986 . S
Zn379 O384 1.996 . S
Zn379 O387 1.943 . S
O380 Zn379 1.962 . S
O380 C385 1.254 . S
O381 Zn378 2.031 . S
O381 C385 1.269 . S
O382 Zn379 1.986 . S
O382 C389 1.262 . S
O383 Zn378 2.049 . S
O383 C391 1.260 . S
O384 Zn379 1.996 . S
O384 C391 1.257 . S
C385 O380 1.254 . S
C385 O381 1.269 . S
C386 O387 1.249 . S
C386 O388 1.270 . S
O387 Zn379 1.943 . S
O387 C386 1.249 . S
O388 Zn378 2.067 . S
O388 C386 1.270 . S
C389 O382 1.262 . S
C389 O390 1.232 . S
O390 C389 1.232 . S
C391 O383 1.260 . S
C391 O384 1.257 . S
Zn392 O395 2.031 . S
Zn392 O397 2.049 . S
Zn392 O402 2.067 . S
Zn393 O394 1.962 . S
Zn393 O396 1.986 . S
Zn393 O398 1.996 . S
Zn393 O401 1.943 . S
O394 Zn393 1.962 . S
O394 C399 1.254 . S
O395 Zn392 2.031 . S
O395 C399 1.269 . S
O396 Zn393 1.986 . S
O396 C403 1.262 . S
O397 Zn392 2.049 . S
O397 C405 1.260 . S
O398 Zn393 1.996 . S
O398 C405 1.257 . S
C399 O394 1.254 . S
C399 O395 1.269 . S
C400 O401 1.249 . S
C400 O402 1.270 . S
O401 Zn393 1.943 . S
O401 C400 1.249 . S
O402 Zn392 2.067 . S
O402 C400 1.270 . S
C403 O396 1.262 . S
C403 O404 1.232 . S
O404 C403 1.232 . S
C405 O397 1.260 . S
C405 O398 1.257 . S
Zn406 O409 2.031 . S
Zn406 O411 2.049 . S
Zn406 O416 2.067 . S
Zn407 O408 1.962 . S
Zn407 O410 1.986 . S
Zn407 O412 1.996 . S
Zn407 O415 1.943 . S
O408 Zn407 1.962 . S
O408 C413 1.254 . S
O409 Zn406 2.031 . S
O409 C413 1.269 . S
O410 Zn407 1.986 . S
O410 C417 1.262 . S
O411 Zn406 2.049 . S
O411 C419 1.260 . S
O412 Zn407 1.996 . S
O412 C419 1.257 . S
C413 O408 1.254 . S
C413 O409 1.269 . S
C414 O415 1.249 . S
C414 O416 1.270 . S
O415 Zn407 1.943 . S
O415 C414 1.249 . S
O416 Zn406 2.067 . S
O416 C414 1.270 . S
C417 O410 1.262 . S
C417 O418 1.232 . S
O418 C417 1.232 . S
C419 O411 1.260 . S
C419 O412 1.257 . S
Zn420 O423 2.031 . S
Zn420 O425 2.049 . S
Zn420 O430 2.067 . S
Zn421 O422 1.962 . S
Zn421 O424 1.986 . S
Zn421 O426 1.996 . S
Zn421 O429 1.943 . S
O422 Zn421 1.962 . S
O422 C427 1.254 . S
O423 Zn420 2.031 . S
O423 C427 1.269 . S
O424 Zn421 1.986 . S
O424 C431 1.262 . S
O425 Zn420 2.049 . S
O425 C433 1.260 . S
O426 Zn421 1.996 . S
O426 C433 1.257 . S
C427 O422 1.254 . S
C427 O423 1.269 . S
C428 O429 1.249 . S
C428 O430 1.270 . S
O429 Zn421 1.943 . S
O429 C428 1.249 . S
O430 Zn420 2.067 . S
O430 C428 1.270 . S
C431 O424 1.262 . S
C431 O432 1.232 . S
O432 C431 1.232 . S
C433 O425 1.260 . S
C433 O426 1.257 . S
Zn434 O437 2.031 . S
Zn434 O439 2.049 . S
Zn434 O444 2.067 . S
Zn435 O436 1.962 . S
Zn435 O438 1.986 . S
Zn435 O440 1.996 . S
Zn435 O443 1.943 . S
O436 Zn435 1.962 . S
O436 C441 1.254 . S
O437 Zn434 2.031 . S
O437 C441 1.269 . S
O438 Zn435 1.986 . S
O438 C445 1.262 . S
O439 Zn434 2.049 . S
O439 C447 1.260 . S
O440 Zn435 1.996 . S
O440 C447 1.257 . S
C441 O436 1.254 . S
C441 O437 1.269 . S
C442 O443 1.249 . S
C442 O444 1.270 . S
O443 Zn435 1.943 . S
O443 C442 1.249 . S
O444 Zn434 2.067 . S
O444 C442 1.270 . S
C445 O438 1.262 . S
C445 O446 1.232 . S
O446 C445 1.232 . S
C447 O439 1.260 . S
C447 O440 1.257 . S
Zn448 O451 2.031 . S
Zn448 O453 2.049 . S
Zn448 O458 2.067 . S
Zn449 O450 1.962 . S
Zn449 O452 1.986 . S
Zn449 O454 1.996 . S
Zn449 O457 1.943 . S
O450 Zn449 1.962 . S
O450 C455 1.254 . S
O451 Zn448 2.031 . S
O451 C455 1.269 . S
O452 Zn449 1.986 . S
O452 C459 1.262 . S
O453 Zn448 2.049 . S
O453 C461 1.260 . S
O454 Zn449 1.996 . S
O454 C461 1.257 . S
C455 O450 1.254 . S
C455 O451 1.269 . S
C456 O457 1.249 . S
C456 O458 1.270 . S
O457 Zn449 1.943 . S
O457 C456 1.249 . S
O458 Zn448 2.067 . S
O458 C456 1.270 . S
C459 O452 1.262 . S
C459 O460 1.232 . S
O460 C459 1.232 . S
C461 O453 1.260 . S
C461 O454 1.257 . S
Zn462 O465 2.031 . S
Zn462 O467 2.049 . S
Zn462 O472 2.067 . S
Zn463 O464 1.962 . S
Zn463 O466 1.986 . S
Zn463 O468 1.996 . S
Zn463 O471 1.943 . S
O464 Zn463 1.962 . S
O464 C469 1.254 . S
O465 Zn462 2.031 . S
O465 C469 1.269 . S
O466 Zn463 1.986 . S
O466 C473 1.262 . S
O467 Zn462 2.049 . S
O467 C475 1.260 . S
O468 Zn463 1.996 . S
O468 C475 1.257 . S
C469 O464 1.254 . S
C469 O465 1.269 . S
C470 O471 1.249 . S
C470 O472 1.270 . S
O471 Zn463 1.943 . S
O471 C470 1.249 . S
O472 Zn462 2.067 . S
O472 C470 1.270 . S
C473 O466 1.262 . S
C473 O474 1.232 . S
O474 C473 1.232 . S
C475 O467 1.260 . S
C475 O468 1.257 . S
Zn476 O479 2.031 . S
Zn476 O481 2.049 . S
Zn476 O486 2.067 . S
Zn477 O478 1.962 . S
Zn477 O480 1.986 . S
Zn477 O482 1.996 . S
Zn477 O485 1.943 . S
O478 Zn477 1.962 . S
O478 C483 1.254 . S
O479 Zn476 2.031 . S
O479 C483 1.269 . S
O480 Zn477 1.986 . S
O480 C487 1.262 . S
O481 Zn476 2.049 . S
O481 C489 1.260 . S
O482 Zn477 1.996 . S
O482 C489 1.257 . S
C483 O478 1.254 . S
C483 O479 1.269 . S
C484 O485 1.249 . S
C484 O486 1.270 . S
O485 Zn477 1.943 . S
O485 C484 1.249 . S
O486 Zn476 2.067 . S
O486 C484 1.270 . S
C487 O480 1.262 . S
C487 O488 1.232 . S
O488 C487 1.232 . S
C489 O481 1.260 . S
C489 O482 1.257 . S
Zn490 O493 2.031 . S
Zn490 O495 2.049 . S
Zn490 O500 2.067 . S
Zn491 O492 1.962 . S
Zn491 O494 1.986 . S
Zn491 O496 1.996 . S
Zn491 O499 1.943 . S
O492 Zn491 1.962 . S
O492 C497 1.254 . S
O493 Zn490 2.031 . S
O493 C497 1.269 . S
O494 Zn491 1.986 . S
O494 C501 1.262 . S
O495 Zn490 2.049 . S
O495 C503 1.260 . S
O496 Zn491 1.996 . S
O496 C503 1.257 . S
C497 O492 1.254 . S
C497 O493 1.269 . S
C498 O499 1.249 . S
C498 O500 1.270 . S
O499 Zn491 1.943 . S
O499 C498 1.249 . S
O500 Zn490 2.067 . S
O500 C498 1.270 . S
C501 O494 1.262 . S
C501 O502 1.232 . S
O502 C501 1.232 . S
C503 O495 1.260 . S
C503 O496 1.257 . S
Zn504 O507 2.031 . S
Zn504 O509 2.049 . S
Zn504 O514 2.067 . S
Zn505 O506 1.962 . S
Zn505 O508 1.986 . S
Zn505 O510 1.996 . S
Zn505 O513 1.943 . S
O506 Zn505 1.962 . S
O506 C511 1.254 . S
O507 Zn504 2.031 . S
O507 C511 1.269 . S
O508 Zn505 1.986 . S
O508 C515 1.262 . S
O509 Zn504 2.049 . S
O509 C517 1.260 . S
O510 Zn505 1.996 . S
O510 C517 1.257 . S
C511 O506 1.254 . S
C511 O507 1.269 . S
C512 O513 1.249 . S
C512 O514 1.270 . S
O513 Zn505 1.943 . S
O513 C512 1.249 . S
O514 Zn504 2.067 . S
O514 C512 1.270 . S
C515 O508 1.262 . S
C515 O516 1.232 . S
O516 C515 1.232 . S
C517 O509 1.260 . S
C517 O510 1.257 . S
Zn518 O521 2.031 . S
Zn518 O523 2.049 . S
Zn518 O528 2.067 . S
Zn519 O520 1.962 . S
Zn519 O522 1.986 . S
Zn519 O524 1.996 . S
Zn519 O527 1.943 . S
O520 Zn519 1.962 . S
O520 C525 1.254 . S
O521 Zn518 2.031 . S
O521 C525 1.269 . S
O522 Zn519 1.986 . S
O522 C529 1.262 . S
O523 Zn518 2.049 . S
O523 C531 1.260 . S
O524 Zn519 1.996 . S
O524 C531 1.257 . S
C525 O520 1.254 . S
C525 O521 1.269 . S
C526 O527 1.249 . S
C526 O528 1.270 . S
O527 Zn519 1.943 . S
O527 C526 1.249 . S
O528 Zn518 2.067 . S
O528 C526 1.270 . S
C529 O522 1.262 . S
C529 O530 1.232 . S
O530 C529 1.232 . S
C531 O523 1.260 . S
C531 O524 1.257 . S
Zn532 O535 2.031 . S
Zn532 O537 2.049 . S
Zn532 O542 2.067 . S
Zn533 O534 1.962 . S
Zn533 O536 1.986 . S
Zn533 O538 1.996 . S
Zn533 O541 1.943 . S
O534 Zn533 1.962 . S
O534 C539 1.254 . S
O535 Zn532 2.031 . S
O535 C539 1.269 . S
O536 Zn533 1.986 . S
O536 C543 1.262 . S
O537 Zn532 2.049 . S
O537 C545 1.260 . S
O538 Zn533 1.996 . S
O538 C545 1.257 . S
C539 O534 1.254 . S
C539 O535 1.269 . S
C540 O541 1.249 . S
C540 O542 1.270 . S
O541 Zn533 1.943 . S
O541 C540 1.249 . S
O542 Zn532 2.067 . S
O542 C540 1.270 . S
C543 O536 1.262 . S
C543 O544 1.232 . S
O544 C543 1.232 . S
C545 O537 1.260 . S
C545 O538 1.257 . S
Zn546 O549 2.031 . S
Zn546 O551 2.049 . S
Zn546 O556 2.067 . S
Zn547 O548 1.962 . S
Zn547 O550 1.986 . S
Zn547 O552 1.996 . S
Zn547 O555 1.943 . S
O548 Zn547 1.962 . S
O548 C553 1.254 . S
O549 Zn546 2.031 . S
O549 C553 1.269 . S
O550 Zn547 1.986 . S
O550 C557 1.262 . S
O551 Zn546 2.049 . S
O551 C559 1.260 . S
O552 Zn547 1.996 . S
O552 C559 1.257 . S
C553 O548 1.254 . S
C553 O549 1.269 . S
C554 O555 1.249 . S
C554 O556 1.270 . S
O555 Zn547 1.943 . S
O555 C554 1.249 . S
O556 Zn546 2.067 . S
O556 C554 1.270 . S
C557 O550 1.262 . S
C557 O558 1.232 . S
O558 C557 1.232 . S
C559 O551 1.260 . S
C559 O552 1.257 . S
Zn560 O563 2.031 . S
Zn560 O565 2.049 . S
Zn560 O570 2.067 . S
Zn561 O562 1.962 . S
Zn561 O564 1.986 . S
Zn561 O566 1.996 . S
Zn561 O569 1.943 . S
O562 Zn561 1.962 . S
O562 C567 1.254 . S
O563 Zn560 2.031 . S
O563 C567 1.269 . S
O564 Zn561 1.986 . S
O564 C571 1.262 . S
O565 Zn560 2.049 . S
O565 C573 1.260 . S
O566 Zn561 1.996 . S
O566 C573 1.257 . S
C567 O562 1.254 . S
C567 O563 1.269 . S
C568 O569 1.249 . S
C568 O570 1.270 . S
O569 Zn561 1.943 . S
O569 C568 1.249 . S
O570 Zn560 2.067 . S
O570 C568 1.270 . S
C571 O564 1.262 . S
C571 O572 1.232 . S
O572 C571 1.232 . S
C573 O565 1.260 . S
C573 O566 1.257 . S
Zn574 O577 2.031 . S
Zn574 O579 2.049 . S
Zn574 O584 2.067 . S
Zn575 O576 1.962 . S
Zn575 O578 1.986 . S
Zn575 O580 1.996 . S
Zn575 O583 1.943 . S
O576 Zn575 1.962 . S
O576 C581 1.254 . S
O577 Zn574 2.031 . S
O577 C581 1.269 . S
O578 Zn575 1.986 . S
O578 C585 1.262 . S
O579 Zn574 2.049 . S
O579 C587 1.260 . S
O580 Zn575 1.996 . S
O580 C587 1.257 . S
C581 O576 1.254 . S
C581 O577 1.269 . S
C582 O583 1.249 . S
C582 O584 1.270 . S
O583 Zn575 1.943 . S
O583 C582 1.249 . S
O584 Zn574 2.067 . S
O584 C582 1.270 . S
C585 O578 1.262 . S
C585 O586 1.232 . S
O586 C585 1.232 . S
C587 O579 1.260 . S
C587 O580 1.257 . S
Zn588 O591 2.031 . S
Zn588 O593 2.049 . S
Zn588 O598 2.067 . S
Zn589 O590 1.962 . S
Zn589 O592 1.986 . S
Zn589 O594 1.996 . S
Zn589 O597 1.943 . S
O590 Zn589 1.962 . S
O590 C595 1.254 . S
O591 Zn588 2.031 . S
O591 C595 1.269 . S
O592 Zn589 1.986 . S
O592 C599 1.262 . S
O593 Zn588 2.049 . S
O593 C601 1.260 . S
O594 Zn589 1.996 . S
O594 C601 1.257 . S
C595 O590 1.254 . S
C595 O591 1.269 . S
C596 O597 1.249 . S
C596 O598 1.270 . S
O597 Zn589 1.943 . S
O597 C596 1.249 . S
O598 Zn588 2.067 . S
O598 C596 1.270 . S
C599 O592 1.262 . S
C599 O600 1.232 . S
O600 C599 1.232 . S
C601 O593 1.260 . S
C601 O594 1.257 . S
Zn602 O605 2.031 . S
Zn602 O607 2.049 . S
Zn602 O612 2.067 . S
Zn603 O604 1.962 . S
Zn603 O606 1.986 . S
Zn603 O608 1.996 . S
Zn603 O611 1.943 . S
O604 Zn603 1.962 . S
O604 C609 1.254 . S
O605 Zn602 2.031 . S
O605 C609 1.269 . S
O606 Zn603 1.986 . S
O606 C613 1.262 . S
O607 Zn602 2.049 . S
O607 C615 1.260 . S
O608 Zn603 1.996 . S
O608 C615 1.257 . S
C609 O604 1.254 . S
C609 O605 1.269 . S
C610 O611 1.249 . S
C610 O612 1.270 . S
O611 Zn603 1.943 . S
O611 C610 1.249 . S
O612 Zn602 2.067 . S
O612 C610 1.270 . S
C613 O606 1.262 . S
C613 O614 1.232 . S
O614 C613 1.232 . S
C615 O607 1.260 . S
C615 O608 1.257 . S
Zn616 O619 2.031 . S
Zn616 O621 2.049 . S
Zn616 O626 2.067 . S
Zn617 O618 1.962 . S
Zn617 O620 1.986 . S
Zn617 O622 1.996 . S
Zn617 O625 1.943 . S
O618 Zn617 1.962 . S
O618 C623 1.254 . S
O619 Zn616 2.031 . S
O619 C623 1.269 . S
O620 Zn617 1.986 . S
O620 C627 1.262 . S
O621 Zn616 2.049 . S
O621 C629 1.260 . S
O622 Zn617 1.996 . S
O622 C629 1.257 . S
C623 O618 1.254 . S
C623 O619 1.269 . S
C624 O625 1.249 . S
C624 O626 1.270 . S
O625 Zn617 1.943 . S
O625 C624 1.249 . S
O626 Zn616 2.067 . S
O626 C624 1.270 . S
C627 O620 1.262 . S
C627 O628 1.232 . S
O628 C627 1.232 . S
C629 O621 1.260 . S
C629 O622 1.257 . S
Zn630 O633 2.031 . S
Zn630 O635 2.049 . S
Zn630 O640 2.067 . S
Zn631 O632 1.962 . S
Zn631 O634 1.986 . S
Zn631 O636 1.996 . S
Zn631 O639 1.943 . S
O632 Zn631 1.962 . S
O632 C637 1.254 . S
O633 Zn630 2.031 . S
O633 C637 1.269 . S
O634 Zn631 1.986 . S
O634 C641 1.262 . S
O635 Zn630 2.049 . S
O635 C643 1.260 . S
O636 Zn631 1.996 . S
O636 C643 1.257 . S
C637 O632 1.254 . S
C637 O633 1.269 . S
C638 O639 1.249 . S
C638 O640 1.270 . S
O639 Zn631 1.943 . S
O639 C638 1.249 . S
O640 Zn630 2.067 . S
O640 C638 1.270 . S
C641 O634 1.262 . S
C641 O642 1.232 . S
O642 C641 1.232 . S
C643 O635 1.260 . S
C643 O636 1.257 . S
Zn644 O647 2.031 . S
Zn644 O649 2.049 . S
Zn644 O654 2.067 . S
Zn645 O646 1.962 . S
Zn645 O648 1.986 . S
Zn645 O650 1.996 . S
Zn645 O653 1.943 . S
O646 Zn645 1.962 . S
O646 C651 1.254 . S
O647 Zn644 2.031 . S
O647 C651 1.269 . S
O648 Zn645 1.986 . S
O648 C655 1.262 . S
O649 Zn644 2.049 . S
O649 C657 1.260 . S
O650 Zn645 1.996 . S
O650 C657 1.257 . S
C651 O646 1.254 . S
C651 O647 1.269 . S
C652 O653 1.249 . S
C652 O654 1.270 . S
O653 Zn645 1.943 . S
O653 C652 1.249 . S
O654 Zn644 2.067 . S
O654 C652 1.270 . S
C655 O648 1.262 . S
C655 O656 1.232 . S
O656 C655 1.232 . S
C657 O649 1.260 . S
C657 O650 1.257 . S
Zn658 O661 2.031 . S
Zn658 O663 2.049 . S
Zn658 O668 2.067 . S
Zn659 O660 1.962 . S
Zn659 O662 1.986 . S
Zn659 O664 1.996 . S
Zn659 O667 1.943 . S
O660 Zn659 1.962 . S
O660 C665 1.254 . S
O661 Zn658 2.031 . S
O661 C665 1.269 . S
O662 Zn659 1.986 . S
O662 C669 1.262 . S
O663 Zn658 2.049 . S
O663 C671 1.260 . S
O664 Zn659 1.996 . S
O664 C671 1.257 . S
C665 O660 1.254 . S
C665 O661 1.269 . S
C666 O667 1.249 . S
C666 O668 1.270 . S
O667 Zn659 1.943 . S
O667 C666 1.249 . S
O668 Zn658 2.067 . S
O668 C666 1.270 . S
C669 O662 1.262 . S
C669 O670 1.232 . S
O670 C669 1.232 . S
C671 O663 1.260 . S
C671 O664 1.257 . S
H672 C680 0.950 . S
H673 C685 0.950 . S
H674 C682 0.950 . S
H675 C684 0.950 . S
H676 C686 0.950 . S
H677 C688 0.950 . S
H678 C690 0.950 . S
H679 C691 0.950 . S
C680 H672 0.950 . S
C680 C681 1.386 . S
C680 C682 1.391 . S
C681 C680 1.386 . S
C681 C685 1.393 . S
C682 H674 0.950 . S
C682 C680 1.391 . S
C682 C683 1.400 . S
C683 C682 1.400 . S
C683 C684 1.398 . S
C683 C689 1.491 1_655 S
C684 H675 0.950 . S
C684 C683 1.398 . S
C684 C685 1.391 . S
C685 H673 0.950 . S
C685 C681 1.393 . S
C685 C684 1.391 . S
C686 H676 0.950 . S
C686 C687 1.386 . S
C686 C688 1.391 . S
C687 C686 1.386 . S
C687 C691 1.393 . S
C688 H677 0.950 . S
C688 C686 1.391 . S
C688 C689 1.400 . S
C689 C683 1.491 1_455 S
C689 C688 1.400 . S
C689 C690 1.398 . S
C690 H678 0.950 . S
C690 C689 1.398 . S
C690 C691 1.391 . S
C691 H679 0.950 . S
C691 C687 1.393 . S
C691 C690 1.391 . S
H692 C700 0.950 . S
H693 C705 0.950 . S
H694 C702 0.950 . S
H695 C704 0.950 . S
H696 C706 0.950 . S
H697 C708 0.950 . S
H698 C710 0.950 . S
H699 C711 0.950 . S
C700 H692 0.950 . S
C700 C701 1.386 . S
C700 C702 1.391 . S
C701 C700 1.386 . S
C701 C705 1.393 . S
C702 H694 0.950 . S
C702 C700 1.391 . S
C702 C703 1.400 . S
C703 C702 1.400 . S
C703 C704 1.398 . S
C703 C709 1.491 1_565 S
C704 H695 0.950 . S
C704 C703 1.398 . S
C704 C705 1.391 . S
C705 H693 0.950 . S
C705 C701 1.393 . S
C705 C704 1.391 . S
C706 H696 0.950 . S
C706 C707 1.386 . S
C706 C708 1.391 . S
C707 C706 1.386 . S
C707 C711 1.393 . S
C708 H697 0.950 . S
C708 C706 1.391 . S
C708 C709 1.400 . S
C709 C703 1.491 1_545 S
C709 C708 1.400 . S
C709 C710 1.398 . S
C710 H698 0.950 . S
C710 C709 1.398 . S
C710 C711 1.391 . S
C711 H699 0.950 . S
C711 C707 1.393 . S
C711 C710 1.391 . S
H712 C720 0.950 . S
H713 C725 0.950 . S
H714 C722 0.950 . S
H715 C724 0.950 . S
H716 C726 0.950 . S
H717 C728 0.950 . S
H718 C730 0.950 . S
H719 C731 0.950 . S
C720 H712 0.950 . S
C720 C721 1.386 . S
C720 C722 1.391 . S
C721 C720 1.386 . S
C721 C725 1.393 . S
C722 H714 0.950 . S
C722 C720 1.391 . S
C722 C723 1.400 . S
C723 C722 1.400 . S
C723 C724 1.398 . S
C723 C729 1.491 1_455 S
C724 H715 0.950 . S
C724 C723 1.398 . S
C724 C725 1.391 . S
C725 H713 0.950 . S
C725 C721 1.393 . S
C725 C724 1.391 . S
C726 H716 0.950 . S
C726 C727 1.386 . S
C726 C728 1.391 . S
C727 C726 1.386 . S
C727 C731 1.393 . S
C728 H717 0.950 . S
C728 C726 1.391 . S
C728 C729 1.400 . S
C729 C723 1.491 1_655 S
C729 C728 1.400 . S
C729 C730 1.398 . S
C730 H718 0.950 . S
C730 C729 1.398 . S
C730 C731 1.391 . S
C731 H719 0.950 . S
C731 C727 1.393 . S
C731 C730 1.391 . S
H732 C740 0.950 . S
H733 C745 0.950 . S
H734 C742 0.950 1_545 S
H735 C744 0.950 . S
H736 C746 0.950 . S
H737 C748 0.950 1_565 S
H738 C750 0.950 . S
H739 C751 0.950 . S
C740 H732 0.950 . S
C740 C741 1.386 . S
C740 C742 1.391 . S
C741 C740 1.386 . S
C741 C745 1.393 . S
C742 H734 0.950 1_565 S
C742 C740 1.391 . S
C742 C743 1.400 . S
C743 C742 1.400 . S
C743 C744 1.398 . S
C743 C749 1.491 1_565 S
C744 H735 0.950 . S
C744 C743 1.398 . S
C744 C745 1.391 . S
C745 H733 0.950 . S
C745 C741 1.393 . S
C745 C744 1.391 . S
C746 H736 0.950 . S
C746 C747 1.386 . S
C746 C748 1.391 . S
C747 C746 1.386 . S
C747 C751 1.393 . S
C748 H737 0.950 1_545 S
C748 C746 1.391 . S
C748 C749 1.400 . S
C749 C743 1.491 1_545 S
C749 C748 1.400 . S
C749 C750 1.398 . S
C750 H738 0.950 . S
C750 C749 1.398 . S
C750 C751 1.391 . S
C751 H739 0.950 . S
C751 C747 1.393 . S
C751 C750 1.391 . S
H752 C760 0.950 . S
H753 C765 0.950 . S
H754 C762 0.950 . S
H755 C764 0.950 1_455 S
H756 C766 0.950 . S
H757 C768 0.950 . S
H758 C770 0.950 1_655 S
H759 C771 0.950 . S
C760 H752 0.950 . S
C760 C761 1.386 . S
C760 C762 1.391 . S
C761 C760 1.386 . S
C761 C765 1.393 . S
C762 H754 0.950 . S
C762 C760 1.391 . S
C762 C763 1.400 . S
C763 C762 1.400 . S
C763 C764 1.398 . S
C763 C769 1.491 1_655 S
C764 H755 0.950 1_655 S
C764 C763 1.398 . S
C764 C765 1.391 . S
C765 H753 0.950 . S
C765 C761 1.393 . S
C765 C764 1.391 . S
C766 H756 0.950 . S
C766 C767 1.386 . S
C766 C768 1.391 . S
C767 C766 1.386 . S
C767 C771 1.393 . S
C768 H757 0.950 . S
C768 C766 1.391 . S
C768 C769 1.400 . S
C769 C763 1.491 1_455 S
C769 C768 1.400 . S
C769 C770 1.398 . S
C770 H758 0.950 1_455 S
C770 C769 1.398 . S
C770 C771 1.391 . S
C771 H759 0.950 . S
C771 C767 1.393 . S
C771 C770 1.391 . S
H772 C780 0.950 . S
H773 C785 0.950 . S
H774 C782 0.950 . S
H775 C784 0.950 . S
H776 C786 0.950 . S
H777 C788 0.950 . S
H778 C790 0.950 . S
H779 C791 0.950 . S
C780 H772 0.950 . S
C780 C781 1.386 . S
C780 C782 1.391 . S
C781 C780 1.386 . S
C781 C785 1.393 . S
C782 H774 0.950 . S
C782 C780 1.391 . S
C782 C783 1.400 . S
C783 C782 1.400 . S
C783 C784 1.398 . S
C783 C789 1.491 1_545 S
C784 H775 0.950 . S
C784 C783 1.398 . S
C784 C785 1.391 . S
C785 H773 0.950 . S
C785 C781 1.393 . S
C785 C784 1.391 . S
C786 H776 0.950 . S
C786 C787 1.386 . S
C786 C788 1.391 . S
C787 C786 1.386 . S
C787 C791 1.393 . S
C788 H777 0.950 . S
C788 C786 1.391 . S
C788 C789 1.400 . S
C789 C783 1.491 1_565 S
C789 C788 1.400 . S
C789 C790 1.398 . S
C790 H778 0.950 . S
C790 C789 1.398 . S
C790 C791 1.391 . S
C791 H779 0.950 . S
C791 C787 1.393 . S
C791 C790 1.391 . S
H792 C800 0.950 . S
H793 C805 0.950 . S
H794 C802 0.950 . S
H795 C804 0.950 . S
H796 C806 0.950 . S
H797 C808 0.950 . S
H798 C810 0.950 . S
H799 C811 0.950 . S
C800 H792 0.950 . S
C800 C801 1.386 . S
C800 C802 1.391 . S
C801 C800 1.386 . S
C801 C805 1.393 . S
C802 H794 0.950 . S
C802 C800 1.391 . S
C802 C803 1.400 . S
C803 C802 1.400 . S
C803 C804 1.398 . S
C803 C809 1.491 1_455 S
C804 H795 0.950 . S
C804 C803 1.398 . S
C804 C805 1.391 . S
C805 H793 0.950 . S
C805 C801 1.393 . S
C805 C804 1.391 . S
C806 H796 0.950 . S
C806 C807 1.386 . S
C806 C808 1.391 . S
C807 C806 1.386 . S
C807 C811 1.393 . S
C808 H797 0.950 . S
C808 C806 1.391 . S
C808 C809 1.400 . S
C809 C803 1.491 1_655 S
C809 C808 1.400 . S
C809 C810 1.398 . S
C810 H798 0.950 . S
C810 C809 1.398 . S
C810 C811 1.391 . S
C811 H799 0.950 . S
C811 C807 1.393 . S
C811 C810 1.391 . S
H812 C820 0.950 . S
H813 C825 0.950 . S
H814 C822 0.950 . S
H815 C824 0.950 . S
H816 C826 0.950 . S
H817 C828 0.950 . S
H818 C830 0.950 . S
H819 C831 0.950 . S
C820 H812 0.950 . S
C820 C821 1.386 . S
C820 C822 1.391 . S
C821 C820 1.386 . S
C821 C825 1.393 . S
C822 H814 0.950 . S
C822 C820 1.391 . S
C822 C823 1.400 . S
C823 C822 1.400 . S
C823 C824 1.398 . S
C823 C829 1.491 1_545 S
C824 H815 0.950 . S
C824 C823 1.398 . S
C824 C825 1.391 . S
C825 H813 0.950 . S
C825 C821 1.393 . S
C825 C824 1.391 . S
C826 H816 0.950 . S
C826 C827 1.386 . S
C826 C828 1.391 . S
C827 C826 1.386 . S
C827 C831 1.393 . S
C828 H817 0.950 . S
C828 C826 1.391 . S
C828 C829 1.400 . S
C829 C823 1.491 1_565 S
C829 C828 1.400 . S
C829 C830 1.398 . S
C830 H818 0.950 . S
C830 C829 1.398 . S
C830 C831 1.391 . S
C831 H819 0.950 . S
C831 C827 1.393 . S
C831 C830 1.391 . S
H832 C840 0.950 . S
H833 C845 0.950 . S
H834 C842 0.916 1_556 S
H835 C844 0.950 . S
H836 C846 0.950 . S
H837 C848 0.916 1_554 S
H838 C850 0.950 . S
H839 C851 0.950 . S
C840 H832 0.950 . S
C840 C841 1.386 . S
C840 C842 1.391 . S
C841 C840 1.386 . S
C841 C845 1.393 . S
C842 H834 0.916 1_554 S
C842 C840 1.391 . S
C842 C843 1.400 . S
C843 C842 1.400 . S
C843 C844 1.398 . S
C843 C849 1.491 1_554 S
C844 H835 0.950 . S
C844 C843 1.398 . S
C844 C845 1.391 . S
C845 H833 0.950 . S
C845 C841 1.393 . S
C845 C844 1.391 . S
C846 H836 0.950 . S
C846 C847 1.386 . S
C846 C848 1.391 . S
C847 C846 1.386 . S
C847 C851 1.393 . S
C848 H837 0.916 1_556 S
C848 C846 1.391 . S
C848 C849 1.400 . S
C849 C843 1.491 1_556 S
C849 C848 1.400 . S
C849 C850 1.398 . S
C850 H838 0.950 . S
C850 C849 1.398 . S
C850 C851 1.391 . S
C851 H839 0.950 . S
C851 C847 1.393 . S
C851 C850 1.391 . S
H852 C860 0.950 . S
H853 C865 0.950 . S
H854 C862 0.950 . S
H855 C864 0.950 . S
H856 C866 0.950 . S
H857 C868 0.950 . S
H858 C870 0.950 . S
H859 C871 0.950 . S
C860 H852 0.950 . S
C860 C861 1.386 . S
C860 C862 1.391 . S
C861 C860 1.386 . S
C861 C865 1.393 . S
C862 H854 0.950 . S
C862 C860 1.391 . S
C862 C863 1.400 . S
C863 C862 1.400 . S
C863 C864 1.398 . S
C863 C869 1.491 1_556 S
C864 H855 0.950 . S
C864 C863 1.398 . S
C864 C865 1.391 . S
C865 H853 0.950 . S
C865 C861 1.393 . S
C865 C864 1.391 . S
C866 H856 0.950 . S
C866 C867 1.386 . S
C866 C868 1.391 . S
C867 C866 1.386 . S
C867 C871 1.393 . S
C868 H857 0.950 . S
C868 C866 1.391 . S
C868 C869 1.400 . S
C869 C863 1.491 1_554 S
C869 C868 1.400 . S
C869 C870 1.398 . S
C870 H858 0.950 . S
C870 C869 1.398 . S
C870 C871 1.391 . S
C871 H859 0.950 . S
C871 C867 1.393 . S
C871 C870 1.391 . S
H872 C880 0.950 . S
H873 C885 0.950 . S
H874 C882 0.950 1_554 S
H875 C884 0.950 . S
H876 C886 0.950 . S
H877 C888 0.950 1_556 S
H878 C890 0.950 . S
H879 C891 0.950 . S
C880 H872 0.950 . S
C880 C881 1.386 . S
C880 C882 1.391 . S
C881 C880 1.386 . S
C881 C885 1.393 . S
C882 H874 0.950 1_556 S
C882 C880 1.391 . S
C882 C883 1.400 . S
C883 C882 1.400 . S
C883 C884 1.398 . S
C883 C889 1.491 1_556 S
C884 H875 0.950 . S
C884 C883 1.398 . S
C884 C885 1.391 . S
C885 H873 0.950 . S
C885 C881 1.393 . S
C885 C884 1.391 . S
C886 H876 0.950 . S
C886 C887 1.386 . S
C886 C888 1.391 . S
C887 C886 1.386 . S
C887 C891 1.393 . S
C888 H877 0.950 1_554 S
C888 C886 1.391 . S
C888 C889 1.400 . S
C889 C883 1.491 1_554 S
C889 C888 1.400 . S
C889 C890 1.398 . S
C890 H878 0.950 . S
C890 C889 1.398 . S
C890 C891 1.391 . S
C891 H879 0.950 . S
C891 C887 1.393 . S
C891 C890 1.391 . S
H892 C900 0.950 . S
H893 C905 0.950 . S
H894 C902 0.950 . S
H895 C904 0.950 . S
H896 C906 0.950 . S
H897 C908 0.950 . S
H898 C910 0.950 . S
H899 C911 0.950 . S
C900 H892 0.950 . S
C900 C901 1.386 . S
C900 C902 1.391 . S
C901 C900 1.386 . S
C901 C905 1.393 . S
C902 H894 0.950 . S
C902 C900 1.391 . S
C902 C903 1.400 . S
C903 C902 1.400 . S
C903 C904 1.398 . S
C903 C909 1.491 1_556 S
C904 H895 0.950 . S
C904 C903 1.398 . S
C904 C905 1.391 . S
C905 H893 0.950 . S
C905 C901 1.393 . S
C905 C904 1.391 . S
C906 H896 0.950 . S
C906 C907 1.386 . S
C906 C908 1.391 . S
C907 C906 1.386 . S
C907 C911 1.393 . S
C908 H897 0.950 . S
C908 C906 1.391 . S
C908 C909 1.400 . S
C909 C903 1.491 1_554 S
C909 C908 1.400 . S
C909 C910 1.398 . S
C910 H898 0.950 . S
C910 C909 1.398 . S
C910 C911 1.391 . S
C911 H899 0.950 . S
C911 C907 1.393 . S
C911 C910 1.391 . S
H912 C920 0.950 . S
H913 C925 0.950 . S
H914 C922 0.950 . S
H915 C924 0.950 . S
H916 C926 0.950 . S
H917 C928 0.950 . S
H918 C930 0.950 . S
H919 C931 0.950 . S
C920 H912 0.950 . S
C920 C921 1.386 . S
C920 C922 1.391 . S
C921 C920 1.386 . S
C921 C925 1.393 . S
C922 H914 0.950 . S
C922 C920 1.391 . S
C922 C923 1.400 . S
C923 C922 1.400 . S
C923 C924 1.398 . S
C923 C929 1.491 . S
C924 H915 0.950 . S
C924 C923 1.398 . S
C924 C925 1.391 . S
C925 H913 0.950 . S
C925 C921 1.393 . S
C925 C924 1.391 . S
C926 H916 0.950 . S
C926 C927 1.386 . S
C926 C928 1.391 . S
C927 C926 1.386 . S
C927 C931 1.393 . S
C928 H917 0.950 . S
C928 C926 1.391 . S
C928 C929 1.400 . S
C929 C923 1.491 . S
C929 C928 1.400 . S
C929 C930 1.398 . S
C930 H918 0.950 . S
C930 C929 1.398 . S
C930 C931 1.391 . S
C931 H919 0.950 . S
C931 C927 1.393 . S
C931 C930 1.391 . S
H932 C940 0.950 . S
H933 C945 0.950 . S
H934 C942 0.950 . S
H935 C944 0.950 . S
H936 C946 0.950 . S
H937 C948 0.950 . S
H938 C950 0.950 . S
H939 C951 0.950 . S
C940 H932 0.950 . S
C940 C941 1.386 . S
C940 C942 1.391 . S
C941 C940 1.386 . S
C941 C945 1.393 . S
C942 H934 0.950 . S
C942 C940 1.391 . S
C942 C943 1.400 . S
C943 C942 1.400 . S
C943 C944 1.398 . S
C943 C949 1.491 . S
C944 H935 0.950 . S
C944 C943 1.398 . S
C944 C945 1.391 . S
C945 H933 0.950 . S
C945 C941 1.393 . S
C945 C944 1.391 . S
C946 H936 0.950 . S
C946 C947 1.386 . S
C946 C948 1.391 . S
C947 C946 1.386 . S
C947 C951 1.393 . S
C948 H937 0.950 . S
C948 C946 1.391 . S
C948 C949 1.400 . S
C949 C943 1.491 . S
C949 C948 1.400 . S
C949 C950 1.398 . S
C950 H938 0.950 . S
C950 C949 1.398 . S
C950 C951 1.391 . S
C951 H939 0.950 . S
C951 C947 1.393 . S
C951 C950 1.391 . S
H952 C960 0.950 . S
H953 C965 0.950 . S
H954 C962 0.950 . S
H955 C964 0.950 . S
H956 C966 0.950 . S
H957 C968 0.950 . S
H958 C970 0.950 . S
H959 C971 0.950 . S
C960 H952 0.950 . S
C960 C961 1.386 . S
C960 C962 1.391 . S
C961 C960 1.386 . S
C961 C965 1.393 . S
C962 H954 0.950 . S
C962 C960 1.391 . S
C962 C963 1.400 . S
C963 C962 1.400 . S
C963 C964 1.398 . S
C963 C969 1.491 . S
C964 H955 0.950 . S
C964 C963 1.398 . S
C964 C965 1.391 . S
C965 H953 0.950 . S
C965 C961 1.393 . S
C965 C964 1.391 . S
C966 H956 0.950 . S
C966 C967 1.386 . S
C966 C968 1.391 . S
C967 C966 1.386 . S
C967 C971 1.393 . S
C968 H957 0.950 . S
C968 C966 1.391 . S
C968 C969 1.400 . S
C969 C963 1.491 . S
C969 C968 1.400 . S
C969 C970 1.398 . S
C970 H958 0.950 . S
C970 C969 1.398 . S
C970 C971 1.391 . S
C971 H959 0.950 . S
C971 C967 1.393 . S
C971 C970 1.391 . S
H972 C980 0.950 . S
H973 C985 0.950 . S
H974 C982 0.950 . S
H975 C984 0.950 . S
H976 C986 0.950 . S
H977 C988 0.950 . S
H978 C990 0.950 . S
H979 C991 0.950 . S
C980 H972 0.950 . S
C980 C981 1.386 . S
C980 C982 1.391 . S
C981 C980 1.386 . S
C981 C985 1.393 . S
C982 H974 0.950 . S
C982 C980 1.391 . S
C982 C983 1.400 . S
C983 C982 1.400 . S
C983 C984 1.398 . S
C983 C989 1.491 . S
C984 H975 0.950 . S
C984 C983 1.398 . S
C984 C985 1.391 . S
C985 H973 0.950 . S
C985 C981 1.393 . S
C985 C984 1.391 . S
C986 H976 0.950 . S
C986 C987 1.386 . S
C986 C988 1.391 . S
C987 C986 1.386 . S
C987 C991 1.393 . S
C988 H977 0.950 . S
C988 C986 1.391 . S
C988 C989 1.400 . S
C989 C983 1.491 . S
C989 C988 1.400 . S
C989 C990 1.398 . S
C990 H978 0.950 . S
C990 C989 1.398 . S
C990 C991 1.391 . S
C991 H979 0.950 . S
C991 C987 1.393 . S
C991 C990 1.391 . S
H992 C1000 0.950 . S
H993 C1005 0.950 . S
H994 C1002 0.950 . S
H995 C1004 0.950 . S
H996 C1006 0.950 . S
H997 C1008 0.950 . S
H998 C1010 0.950 . S
H999 C1011 0.950 . S
C1000 H992 0.950 . S
C1000 C1001 1.386 . S
C1000 C1002 1.391 . S
C1001 C1000 1.386 . S
C1001 C1005 1.393 . S
C1002 H994 0.950 . S
C1002 C1000 1.391 . S
C1002 C1003 1.400 . S
C1003 C1002 1.400 . S
C1003 C1004 1.398 . S
C1003 C1009 1.491 . S
C1004 H995 0.950 . S
C1004 C1003 1.398 . S
C1004 C1005 1.391 . S
C1005 H993 0.950 . S
C1005 C1001 1.393 . S
C1005 C1004 1.391 . S
C1006 H996 0.950 . S
C1006 C1007 1.386 . S
C1006 C1008 1.391 . S
C1007 C1006 1.386 . S
C1007 C1011 1.393 . S
C1008 H997 0.950 . S
C1008 C1006 1.391 . S
C1008 C1009 1.400 . S
C1009 C1003 1.491 . S
C1009 C1008 1.400 . S
C1009 C1010 1.398 . S
C1010 H998 0.950 . S
C1010 C1009 1.398 . S
C1010 C1011 1.391 . S
C1011 H999 0.950 . S
C1011 C1007 1.393 . S
C1011 C1010 1.391 . S
H1012 C1020 0.950 . S
H1013 C1025 0.950 . S
H1014 C1022 0.950 . S
H1015 C1024 0.950 . S
H1016 C1026 0.950 . S
H1017 C1028 0.950 . S
H1018 C1030 0.950 . S
H1019 C1031 0.950 . S
C1020 H1012 0.950 . S
C1020 C1021 1.386 . S
C1020 C1022 1.391 . S
C1021 C1020 1.386 . S
C1021 C1025 1.393 . S
C1022 H1014 0.950 . S
C1022 C1020 1.391 . S
C1022 C1023 1.400 . S
C1023 C1022 1.400 . S
C1023 C1024 1.398 . S
C1023 C1029 1.491 . S
C1024 H1015 0.950 . S
C1024 C1023 1.398 . S
C1024 C1025 1.391 . S
C1025 H1013 0.950 . S
C1025 C1021 1.393 . S
C1025 C1024 1.391 . S
C1026 H1016 0.950 . S
C1026 C1027 1.386 . S
C1026 C1028 1.391 . S
C1027 C1026 1.386 . S
C1027 C1031 1.393 . S
C1028 H1017 0.950 . S
C1028 C1026 1.391 . S
C1028 C1029 1.400 . S
C1029 C1023 1.491 . S
C1029 C1028 1.400 . S
C1029 C1030 1.398 . S
C1030 H1018 0.950 . S
C1030 C1029 1.398 . S
C1030 C1031 1.391 . S
C1031 H1019 0.950 . S
C1031 C1027 1.393 . S
C1031 C1030 1.391 . S
H1032 C1040 0.950 . S
H1033 C1045 0.950 . S
H1034 C1042 0.950 . S
H1035 C1044 0.950 . S
H1036 C1046 0.950 . S
H1037 C1048 0.950 . S
H1038 C1050 0.950 . S
H1039 C1051 0.950 . S
C1040 H1032 0.950 . S
C1040 C1041 1.386 . S
C1040 C1042 1.391 . S
C1041 C1040 1.386 . S
C1041 C1045 1.393 . S
C1042 H1034 0.950 . S
C1042 C1040 1.391 . S
C1042 C1043 1.400 . S
C1043 C1042 1.400 . S
C1043 C1044 1.398 . S
C1043 C1049 1.491 . S
C1044 H1035 0.950 . S
C1044 C1043 1.398 . S
C1044 C1045 1.391 . S
C1045 H1033 0.950 . S
C1045 C1041 1.393 . S
C1045 C1044 1.391 . S
C1046 H1036 0.950 . S
C1046 C1047 1.386 . S
C1046 C1048 1.391 . S
C1047 C1046 1.386 . S
C1047 C1051 1.393 . S
C1048 H1037 0.950 . S
C1048 C1046 1.391 . S
C1048 C1049 1.400 . S
C1049 C1043 1.491 . S
C1049 C1048 1.400 . S
C1049 C1050 1.398 . S
C1050 H1038 0.950 . S
C1050 C1049 1.398 . S
C1050 C1051 1.391 . S
C1051 H1039 0.950 . S
C1051 C1047 1.393 . S
C1051 C1050 1.391 . S
H1052 C1060 0.950 . S
H1053 C1065 0.950 . S
H1054 C1062 0.950 . S
H1055 C1064 0.950 . S
H1056 C1066 0.950 . S
H1057 C1068 0.950 . S
H1058 C1070 0.950 . S
H1059 C1071 0.950 . S
C1060 H1052 0.950 . S
C1060 C1061 1.386 . S
C1060 C1062 1.391 . S
C1061 C1060 1.386 . S
C1061 C1065 1.393 . S
C1062 H1054 0.950 . S
C1062 C1060 1.391 . S
C1062 C1063 1.400 . S
C1063 C1062 1.400 . S
C1063 C1064 1.398 . S
C1063 C1069 1.491 . S
C1064 H1055 0.950 . S
C1064 C1063 1.398 . S
C1064 C1065 1.391 . S
C1065 H1053 0.950 . S
C1065 C1061 1.393 . S
C1065 C1064 1.391 . S
C1066 H1056 0.950 . S
C1066 C1067 1.386 . S
C1066 C1068 1.391 . S
C1067 C1066 1.386 . S
C1067 C1071 1.393 . S
C1068 H1057 0.950 . S
C1068 C1066 1.391 . S
C1068 C1069 1.400 . S
C1069 C1063 1.491 . S
C1069 C1068 1.400 . S
C1069 C1070 1.398 . S
C1070 H1058 0.950 . S
C1070 C1069 1.398 . S
C1070 C1071 1.391 . S
C1071 H1059 0.950 . S
C1071 C1067 1.393 . S
C1071 C1070 1.391 . S
H1072 C1080 0.950 . S
H1073 C1085 0.950 . S
H1074 C1082 0.950 . S
H1075 C1084 0.950 . S
H1076 C1086 0.950 . S
H1077 C1088 0.950 . S
H1078 C1090 0.950 . S
H1079 C1091 0.950 . S
C1080 H1072 0.950 . S
C1080 C1081 1.386 . S
C1080 C1082 1.391 . S
C1081 C1080 1.386 . S
C1081 C1085 1.393 . S
C1082 H1074 0.950 . S
C1082 C1080 1.391 . S
C1082 C1083 1.400 . S
C1083 C1082 1.400 . S
C1083 C1084 1.398 . S
C1083 C1089 1.491 . S
C1084 H1075 0.950 . S
C1084 C1083 1.398 . S
C1084 C1085 1.391 . S
C1085 H1073 0.950 . S
C1085 C1081 1.393 . S
C1085 C1084 1.391 . S
C1086 H1076 0.950 . S
C1086 C1087 1.386 . S
C1086 C1088 1.391 . S
C1087 C1086 1.386 . S
C1087 C1091 1.393 . S
C1088 H1077 0.950 . S
C1088 C1086 1.391 . S
C1088 C1089 1.400 . S
C1089 C1083 1.491 . S
C1089 C1088 1.400 . S
C1089 C1090 1.398 . S
C1090 H1078 0.950 . S
C1090 C1089 1.398 . S
C1090 C1091 1.391 . S
C1091 H1079 0.950 . S
C1091 C1087 1.393 . S
C1091 C1090 1.391 . S
H1092 C1100 0.950 . S
H1093 C1105 0.950 . S
H1094 C1102 0.950 . S
H1095 C1104 0.950 . S
H1096 C1106 0.950 . S
H1097 C1108 0.950 . S
H1098 C1110 0.950 . S
H1099 C1111 0.950 . S
C1100 H1092 0.950 . S
C1100 C1101 1.386 . S
C1100 C1102 1.391 . S
C1101 C1100 1.386 . S
C1101 C1105 1.393 . S
C1102 H1094 0.950 . S
C1102 C1100 1.391 . S
C1102 C1103 1.400 . S
C1103 C1102 1.400 . S
C1103 C1104 1.398 . S
C1103 C1109 1.491 . S
C1104 H1095 0.950 . S
C1104 C1103 1.398 . S
C1104 C1105 1.391 . S
C1105 H1093 0.950 . S
C1105 C1101 1.393 . S
C1105 C1104 1.391 . S
C1106 H1096 0.950 . S
C1106 C1107 1.386 . S
C1106 C1108 1.391 . S
C1107 C1106 1.386 . S
C1107 C1111 1.393 . S
C1108 H1097 0.950 . S
C1108 C1106 1.391 . S
C1108 C1109 1.400 . S
C1109 C1103 1.491 . S
C1109 C1108 1.400 . S
C1109 C1110 1.398 . S
C1110 H1098 0.950 . S
C1110 C1109 1.398 . S
C1110 C1111 1.391 . S
C1111 H1099 0.950 . S
C1111 C1107 1.393 . S
C1111 C1110 1.391 . S
H1112 C1120 0.950 . S
H1113 C1125 0.950 . S
H1114 C1122 0.950 . S
H1115 C1124 0.950 . S
H1116 C1126 0.950 . S
H1117 C1128 0.950 . S
H1118 C1130 0.950 . S
H1119 C1131 0.950 . S
C1120 H1112 0.950 . S
C1120 C1121 1.386 . S
C1120 C1122 1.391 . S
C1121 C1120 1.386 . S
C1121 C1125 1.393 . S
C1122 H1114 0.950 . S
C1122 C1120 1.391 . S
C1122 C1123 1.400 . S
C1123 C1122 1.400 . S
C1123 C1124 1.398 . S
C1123 C1129 1.491 . S
C1124 H1115 0.950 . S
C1124 C1123 1.398 . S
C1124 C1125 1.391 . S
C1125 H1113 0.950 . S
C1125 C1121 1.393 . S
C1125 C1124 1.391 . S
C1126 H1116 0.950 . S
C1126 C1127 1.386 . S
C1126 C1128 1.391 . S
C1127 C1126 1.386 . S
C1127 C1131 1.393 . S
C1128 H1117 0.950 . S
C1128 C1126 1.391 . S
C1128 C1129 1.400 . S
C1129 C1123 1.491 . S
C1129 C1128 1.400 . S
C1129 C1130 1.398 . S
C1130 H1118 0.950 . S
C1130 C1129 1.398 . S
C1130 C1131 1.391 . S
C1131 H1119 0.950 . S
C1131 C1127 1.393 . S
C1131 C1130 1.391 . S
H1132 C1140 0.950 . S
H1133 C1145 0.950 . S
H1134 C1142 0.950 . S
H1135 C1144 0.950 . S
H1136 C1146 0.950 . S
H1137 C1148 0.950 . S
H1138 C1150 0.950 . S
H1139 C1151 0.950 . S
C1140 H1132 0.950 . S
C1140 C1141 1.386 . S
C1140 C1142 1.391 . S
C1141 C1140 1.386 . S
C1141 C1145 1.393 . S
C1142 H1134 0.950 . S
C1142 C1140 1.391 . S
C1142 C1143 1.400 . S
C1143 C1142 1.400 . S
C1143 C1144 1.398 . S
C1143 C1149 1.491 . S
C1144 H1135 0.950 . S
C1144 C1143 1.398 . S
C1144 C1145 1.391 . S
C1145 H1133 0.950 . S
C1145 C1141 1.393 . S
C1145 C1144 1.391 . S
C1146 H1136 0.950 . S
C1146 C1147 1.386 . S
C1146 C1148 1.391 . S
C1147 C1146 1.386 . S
C1147 C1151 1.393 . S
C1148 H1137 0.950 . S
C1148 C1146 1.391 . S
C1148 C1149 1.400 . S
C1149 C1143 1.491 . S
C1149 C1148 1.400 . S
C1149 C1150 1.398 . S
C1150 H1138 0.950 . S
C1150 C1149 1.398 . S
C1150 C1151 1.391 . S
C1151 H1139 0.950 . S
C1151 C1147 1.393 . S
C1151 C1150 1.391 . S
H1152 C1160 0.950 . S
H1153 C1165 0.950 . S
H1154 C1162 0.950 . S
H1155 C1164 0.950 . S
H1156 C1166 0.950 . S
H1157 C1168 0.950 . S
H1158 C1170 0.950 . S
H1159 C1171 0.950 . S
C1160 H1152 0.950 . S
C1160 C1161 1.386 . S
C1160 C1162 1.391 . S
C1161 C1160 1.386 . S
C1161 C1165 1.393 . S
C1162 H1154 0.950 . S
C1162 C1160 1.391 . S
C1162 C1163 1.400 . S
C1163 C1162 1.400 . S
C1163 C1164 1.398 . S
C1163 C1169 1.491 . S
C1164 H1155 0.950 . S
C1164 C1163 1.398 . S
C1164 C1165 1.391 . S
C1165 H1153 0.950 . S
C1165 C1161 1.393 . S
C1165 C1164 1.391 . S
C1166 H1156 0.950 . S
C1166 C1167 1.386 . S
C1166 C1168 1.391 . S
C1167 C1166 1.386 . S
C1167 C1171 1.393 . S
C1168 H1157 0.950 . S
C1168 C1166 1.391 . S
C1168 C1169 1.400 . S
C1169 C1163 1.491 . S
C1169 C1168 1.400 . S
C1169 C1170 1.398 . S
C1170 H1158 0.950 . S
C1170 C1169 1.398 . S
C1170 C1171 1.391 . S
C1171 H1159 0.950 . S
C1171 C1167 1.393 . S
C1171 C1170 1.391 . S
H1172 C1180 0.950 . S
H1173 C1185 0.950 . S
H1174 C1182 0.950 . S
H1175 C1184 0.950 . S
H1176 C1186 0.950 . S
H1177 C1188 0.950 . S
H1178 C1190 0.950 . S
H1179 C1191 0.950 . S
C1180 H1172 0.950 . S
C1180 C1181 1.386 . S
C1180 C1182 1.391 . S
C1181 C1180 1.386 . S
C1181 C1185 1.393 . S
C1182 H1174 0.950 . S
C1182 C1180 1.391 . S
C1182 C1183 1.400 . S
C1183 C1182 1.400 . S
C1183 C1184 1.398 . S
C1183 C1189 1.491 . S
C1184 H1175 0.950 . S
C1184 C1183 1.398 . S
C1184 C1185 1.391 . S
C1185 H1173 0.950 . S
C1185 C1181 1.393 . S
C1185 C1184 1.391 . S
C1186 H1176 0.950 . S
C1186 C1187 1.386 . S
C1186 C1188 1.391 . S
C1187 C1186 1.386 . S
C1187 C1191 1.393 . S
C1188 H1177 0.950 . S
C1188 C1186 1.391 . S
C1188 C1189 1.400 . S
C1189 C1183 1.491 . S
C1189 C1188 1.400 . S
C1189 C1190 1.398 . S
C1190 H1178 0.950 . S
C1190 C1189 1.398 . S
C1190 C1191 1.391 . S
C1191 H1179 0.950 . S
C1191 C1187 1.393 . S
C1191 C1190 1.391 . S
H1192 C1200 0.950 . S
H1193 C1205 0.950 . S
H1194 C1202 0.950 . S
H1195 C1204 0.950 . S
H1196 C1206 0.950 . S
H1197 C1208 0.950 . S
H1198 C1210 0.950 . S
H1199 C1211 0.950 . S
C1200 H1192 0.950 . S
C1200 C1201 1.386 . S
C1200 C1202 1.391 . S
C1201 C1200 1.386 . S
C1201 C1205 1.393 . S
C1202 H1194 0.950 . S
C1202 C1200 1.391 . S
C1202 C1203 1.400 . S
C1203 C1202 1.400 . S
C1203 C1204 1.398 . S
C1203 C1209 1.491 . S
C1204 H1195 0.950 . S
C1204 C1203 1.398 . S
C1204 C1205 1.391 . S
C1205 H1193 0.950 . S
C1205 C1201 1.393 . S
C1205 C1204 1.391 . S
C1206 H1196 0.950 . S
C1206 C1207 1.386 . S
C1206 C1208 1.391 . S
C1207 C1206 1.386 . S
C1207 C1211 1.393 . S
C1208 H1197 0.950 . S
C1208 C1206 1.391 . S
C1208 C1209 1.400 . S
C1209 C1203 1.491 . S
C1209 C1208 1.400 . S
C1209 C1210 1.398 . S
C1210 H1198 0.950 . S
C1210 C1209 1.398 . S
C1210 C1211 1.391 . S
C1211 H1199 0.950 . S
C1211 C1207 1.393 . S
C1211 C1210 1.391 . S
H1212 C1220 0.950 . S
H1213 C1225 0.950 . S
H1214 C1222 0.950 . S
H1215 C1224 0.950 . S
H1216 C1226 0.950 . S
H1217 C1228 0.950 . S
H1218 C1230 0.950 . S
H1219 C1231 0.950 . S
C1220 H1212 0.950 . S
C1220 C1221 1.386 . S
C1220 C1222 1.391 . S
C1221 C1220 1.386 . S
C1221 C1225 1.393 . S
C1222 H1214 0.950 . S
C1222 C1220 1.391 . S
C1222 C1223 1.400 . S
C1223 C1222 1.400 . S
C1223 C1224 1.398 . S
C1223 C1229 1.491 . S
C1224 H1215 0.950 . S
C1224 C1223 1.398 . S
C1224 C1225 1.391 . S
C1225 H1213 0.950 . S
C1225 C1221 1.393 . S
C1225 C1224 1.391 . S
C1226 H1216 0.950 . S
C1226 C1227 1.386 . S
C1226 C1228 1.391 . S
C1227 C1226 1.386 . S
C1227 C1231 1.393 . S
C1228 H1217 0.950 . S
C1228 C1226 1.391 . S
C1228 C1229 1.400 . S
C1229 C1223 1.491 . S
C1229 C1228 1.400 . S
C1229 C1230 1.398 . S
C1230 H1218 0.950 . S
C1230 C1229 1.398 . S
C1230 C1231 1.391 . S
C1231 H1219 0.950 . S
C1231 C1227 1.393 . S
C1231 C1230 1.391 . S
H1232 C1240 0.950 . S
H1233 C1245 0.950 . S
H1234 C1242 0.950 . S
H1235 C1244 0.950 . S
H1236 C1246 0.950 . S
H1237 C1248 0.950 . S
H1238 C1250 0.950 . S
H1239 C1251 0.950 . S
C1240 H1232 0.950 . S
C1240 C1241 1.386 . S
C1240 C1242 1.391 . S
C1241 C1240 1.386 . S
C1241 C1245 1.393 . S
C1242 H1234 0.950 . S
C1242 C1240 1.391 . S
C1242 C1243 1.400 . S
C1243 C1242 1.400 . S
C1243 C1244 1.398 . S
C1243 C1249 1.491 . S
C1244 H1235 0.950 . S
C1244 C1243 1.398 . S
C1244 C1245 1.391 . S
C1245 H1233 0.950 . S
C1245 C1241 1.393 . S
C1245 C1244 1.391 . S
C1246 H1236 0.950 . S
C1246 C1247 1.386 . S
C1246 C1248 1.391 . S
C1247 C1246 1.386 . S
C1247 C1251 1.393 . S
C1248 H1237 0.950 . S
C1248 C1246 1.391 . S
C1248 C1249 1.400 . S
C1249 C1243 1.491 . S
C1249 C1248 1.400 . S
C1249 C1250 1.398 . S
C1250 H1238 0.950 . S
C1250 C1249 1.398 . S
C1250 C1251 1.391 . S
C1251 H1239 0.950 . S
C1251 C1247 1.393 . S
C1251 C1250 1.391 . S
H1252 C1260 0.950 . S
H1253 C1265 0.950 . S
H1254 C1262 0.950 . S
H1255 C1264 0.950 . S
H1256 C1266 0.950 . S
H1257 C1268 0.950 . S
H1258 C1270 0.950 . S
H1259 C1271 0.950 . S
C1260 H1252 0.950 . S
C1260 C1261 1.386 . S
C1260 C1262 1.391 . S
C1261 C1260 1.386 . S
C1261 C1265 1.393 . S
C1262 H1254 0.950 . S
C1262 C1260 1.391 . S
C1262 C1263 1.400 . S
C1263 C1262 1.400 . S
C1263 C1264 1.398 . S
C1263 C1269 1.491 . S
C1264 H1255 0.950 . S
C1264 C1263 1.398 . S
C1264 C1265 1.391 . S
C1265 H1253 0.950 . S
C1265 C1261 1.393 . S
C1265 C1264 1.391 . S
C1266 H1256 0.950 . S
C1266 C1267 1.386 . S
C1266 C1268 1.391 . S
C1267 C1266 1.386 . S
C1267 C1271 1.393 . S
C1268 H1257 0.950 . S
C1268 C1266 1.391 . S
C1268 C1269 1.400 . S
C1269 C1263 1.491 . S
C1269 C1268 1.400 . S
C1269 C1270 1.398 . S
C1270 H1258 0.950 . S
C1270 C1269 1.398 . S
C1270 C1271 1.391 . S
C1271 H1259 0.950 . S
C1271 C1267 1.393 . S
C1271 C1270 1.391 . S
H1272 C1280 0.950 . S
H1273 C1285 0.950 . S
H1274 C1282 0.950 . S
H1275 C1284 0.950 . S
H1276 C1286 0.950 . S
H1277 C1288 0.950 . S
H1278 C1290 0.950 . S
H1279 C1291 0.950 . S
C1280 H1272 0.950 . S
C1280 C1281 1.386 . S
C1280 C1282 1.391 . S
C1281 C1280 1.386 . S
C1281 C1285 1.393 . S
C1282 H1274 0.950 . S
C1282 C1280 1.391 . S
C1282 C1283 1.400 . S
C1283 C1282 1.400 . S
C1283 C1284 1.398 . S
C1283 C1289 1.491 . S
C1284 H1275 0.950 . S
C1284 C1283 1.398 . S
C1284 C1285 1.391 . S
C1285 H1273 0.950 . S
C1285 C1281 1.393 . S
C1285 C1284 1.391 . S
C1286 H1276 0.950 . S
C1286 C1287 1.386 . S
C1286 C1288 1.391 . S
C1287 C1286 1.386 . S
C1287 C1291 1.393 . S
C1288 H1277 0.950 . S
C1288 C1286 1.391 . S
C1288 C1289 1.400 . S
C1289 C1283 1.491 . S
C1289 C1288 1.400 . S
C1289 C1290 1.398 . S
C1290 H1278 0.950 . S
C1290 C1289 1.398 . S
C1290 C1291 1.391 . S
C1291 H1279 0.950 . S
C1291 C1287 1.393 . S
C1291 C1290 1.391 . S
H1292 C1300 0.950 . S
H1293 C1305 0.950 . S
H1294 C1302 0.950 . S
H1295 C1304 0.950 . S
H1296 C1306 0.950 . S
H1297 C1308 0.950 . S
H1298 C1310 0.950 . S
H1299 C1311 0.950 . S
C1300 H1292 0.950 . S
C1300 C1301 1.386 . S
C1300 C1302 1.391 . S
C1301 C1300 1.386 . S
C1301 C1305 1.393 . S
C1302 H1294 0.950 . S
C1302 C1300 1.391 . S
C1302 C1303 1.400 . S
C1303 C1302 1.400 . S
C1303 C1304 1.398 . S
C1303 C1309 1.491 . S
C1304 H1295 0.950 . S
C1304 C1303 1.398 . S
C1304 C1305 1.391 . S
C1305 H1293 0.950 . S
C1305 C1301 1.393 . S
C1305 C1304 1.391 . S
C1306 H1296 0.950 . S
C1306 C1307 1.386 . S
C1306 C1308 1.391 . S
C1307 C1306 1.386 . S
C1307 C1311 1.393 . S
C1308 H1297 0.950 . S
C1308 C1306 1.391 . S
C1308 C1309 1.400 . S
C1309 C1303 1.491 . S
C1309 C1308 1.400 . S
C1309 C1310 1.398 . S
C1310 H1298 0.950 . S
C1310 C1309 1.398 . S
C1310 C1311 1.391 . S
C1311 H1299 0.950 . S
C1311 C1307 1.393 . S
C1311 C1310 1.391 . S
H1312 C1320 0.950 . S
H1313 C1325 0.950 . S
H1314 C1322 0.950 . S
H1315 C1324 0.950 . S
H1316 C1326 0.950 . S
H1317 C1328 0.950 . S
H1318 C1330 0.950 . S
H1319 C1331 0.950 . S
C1320 H1312 0.950 . S
C1320 C1321 1.386 . S
C1320 C1322 1.391 . S
C1321 C1320 1.386 . S
C1321 C1325 1.393 . S
C1322 H1314 0.950 . S
C1322 C1320 1.391 . S
C1322 C1323 1.400 . S
C1323 C1322 1.400 . S
C1323 C1324 1.398 . S
C1323 C1329 1.491 . S
C1324 H1315 0.950 . S
C1324 C1323 1.398 . S
C1324 C1325 1.391 . S
C1325 H1313 0.950 . S
C1325 C1321 1.393 . S
C1325 C1324 1.391 . S
C1326 H1316 0.950 . S
C1326 C1327 1.386 . S
C1326 C1328 1.391 . S
C1327 C1326 1.386 . S
C1327 C1331 1.393 . S
C1328 H1317 0.950 . S
C1328 C1326 1.391 . S
C1328 C1329 1.400 . S
C1329 C1323 1.491 . S
C1329 C1328 1.400 . S
C1329 C1330 1.398 . S
C1330 H1318 0.950 . S
C1330 C1329 1.398 . S
C1330 C1331 1.391 . S
C1331 H1319 0.950 . S
C1331 C1327 1.393 . S
C1331 C1330 1.391 . S
H1332 C1340 0.950 . S
H1333 C1345 0.950 . S
H1334 C1342 0.950 . S
H1335 C1344 0.950 . S
H1336 C1346 0.950 . S
H1337 C1348 0.950 . S
H1338 C1350 0.950 . S
H1339 C1351 0.950 . S
C1340 H1332 0.950 . S
C1340 C1341 1.386 . S
C1340 C1342 1.391 . S
C1341 C1340 1.386 . S
C1341 C1345 1.393 . S
C1342 H1334 0.950 . S
C1342 C1340 1.391 . S
C1342 C1343 1.400 . S
C1343 C1342 1.400 . S
C1343 C1344 1.398 . S
C1343 C1349 1.491 . S
C1344 H1335 0.950 . S
C1344 C1343 1.398 . S
C1344 C1345 1.391 . S
C1345 H1333 0.950 . S
C1345 C1341 1.393 . S
C1345 C1344 1.391 . S
C1346 H1336 0.950 . S
C1346 C1347 1.386 . S
C1346 C1348 1.391 . S
C1347 C1346 1.386 . S
C1347 C1351 1.393 . S
C1348 H1337 0.950 . S
C1348 C1346 1.391 . S
C1348 C1349 1.400 . S
C1349 C1343 1.491 . S
C1349 C1348 1.400 . S
C1349 C1350 1.398 . S
C1350 H1338 0.950 . S
C1350 C1349 1.398 . S
C1350 C1351 1.391 . S
C1351 H1339 0.950 . S
C1351 C1347 1.393 . S
C1351 C1350 1.391 . S
H1352 C1360 0.950 . S
H1353 C1365 0.950 . S
H1354 C1362 0.950 . S
H1355 C1364 0.950 . S
H1356 C1366 0.950 . S
H1357 C1368 0.950 . S
H1358 C1370 0.950 . S
H1359 C1371 0.950 . S
C1360 H1352 0.950 . S
C1360 C1361 1.386 . S
C1360 C1362 1.391 . S
C1361 C1360 1.386 . S
C1361 C1365 1.393 . S
C1362 H1354 0.950 . S
C1362 C1360 1.391 . S
C1362 C1363 1.400 . S
C1363 C1362 1.400 . S
C1363 C1364 1.398 . S
C1363 C1369 1.491 . S
C1364 H1355 0.950 . S
C1364 C1363 1.398 . S
C1364 C1365 1.391 . S
C1365 H1353 0.950 . S
C1365 C1361 1.393 . S
C1365 C1364 1.391 . S
C1366 H1356 0.950 . S
C1366 C1367 1.386 . S
C1366 C1368 1.391 . S
C1367 C1366 1.386 . S
C1367 C1371 1.393 . S
C1368 H1357 0.950 . S
C1368 C1366 1.391 . S
C1368 C1369 1.400 . S
C1369 C1363 1.491 . S
C1369 C1368 1.400 . S
C1369 C1370 1.398 . S
C1370 H1358 0.950 . S
C1370 C1369 1.398 . S
C1370 C1371 1.391 . S
C1371 H1359 0.950 . S
C1371 C1367 1.393 . S
C1371 C1370 1.391 . S
H1372 C1380 0.950 . S
H1373 C1385 0.950 . S
H1374 C1382 0.950 . S
H1375 C1384 0.950 . S
H1376 C1386 0.950 . S
H1377 C1388 0.950 . S
H1378 C1390 0.950 . S
H1379 C1391 0.950 . S
C1380 H1372 0.950 . S
C1380 C1381 1.386 . S
C1380 C1382 1.391 . S
C1381 C1380 1.386 . S
C1381 C1385 1.393 . S
C1382 H1374 0.950 . S
C1382 C1380 1.391 . S
C1382 C1383 1.400 . S
C1383 C1382 1.400 . S
C1383 C1384 1.398 . S
C1383 C1389 1.491 . S
C1384 H1375 0.950 . S
C1384 C1383 1.398 . S
C1384 C1385 1.391 . S
C1385 H1373 0.950 . S
C1385 C1381 1.393 . S
C1385 C1384 1.391 . S
C1386 H1376 0.950 . S
C1386 C1387 1.386 . S
C1386 C1388 1.391 . S
C1387 C1386 1.386 . S
C1387 C1391 1.393 . S
C1388 H1377 0.950 . S
C1388 C1386 1.391 . S
C1388 C1389 1.400 . S
C1389 C1383 1.491 . S
C1389 C1388 1.400 . S
C1389 C1390 1.398 . S
C1390 H1378 0.950 . S
C1390 C1389 1.398 . S
C1390 C1391 1.391 . S
C1391 H1379 0.950 . S
C1391 C1387 1.393 . S
C1391 C1390 1.391 . S
H1392 C1400 0.950 . S
H1393 C1405 0.950 . S
H1394 C1402 0.950 . S
H1395 C1404 0.950 . S
H1396 C1406 0.950 . S
H1397 C1408 0.950 . S
H1398 C1410 0.950 . S
H1399 C1411 0.950 . S
C1400 H1392 0.950 . S
C1400 C1401 1.386 . S
C1400 C1402 1.391 . S
C1401 C1400 1.386 . S
C1401 C1405 1.393 . S
C1402 H1394 0.950 . S
C1402 C1400 1.391 . S
C1402 C1403 1.400 . S
C1403 C1402 1.400 . S
C1403 C1404 1.398 . S
C1403 C1409 1.491 . S
C1404 H1395 0.950 . S
C1404 C1403 1.398 . S
C1404 C1405 1.391 . S
C1405 H1393 0.950 . S
C1405 C1401 1.393 . S
C1405 C1404 1.391 . S
C1406 H1396 0.950 . S
C1406 C1407 1.386 . S
C1406 C1408 1.391 . S
C1407 C1406 1.386 . S
C1407 C1411 1.393 . S
C1408 H1397 0.950 . S
C1408 C1406 1.391 . S
C1408 C1409 1.400 . S
C1409 C1403 1.491 . S
C1409 C1408 1.400 . S
C1409 C1410 1.398 . S
C1410 H1398 0.950 . S
C1410 C1409 1.398 . S
C1410 C1411 1.391 . S
C1411 H1399 0.950 . S
C1411 C1407 1.393 . S
C1411 C1410 1.391 . S
H1412 C1420 0.950 . S
H1413 C1425 0.950 . S
H1414 C1422 0.950 . S
H1415 C1424 0.950 . S
H1416 C1426 0.950 . S
H1417 C1428 0.950 . S
H1418 C1430 0.950 . S
H1419 C1431 0.950 . S
C1420 H1412 0.950 . S
C1420 C1421 1.386 . S
C1420 C1422 1.391 . S
C1421 C1420 1.386 . S
C1421 C1425 1.393 . S
C1422 H1414 0.950 . S
C1422 C1420 1.391 . S
C1422 C1423 1.400 . S
C1423 C1422 1.400 . S
C1423 C1424 1.398 . S
C1423 C1429 1.491 . S
C1424 H1415 0.950 . S
C1424 C1423 1.398 . S
C1424 C1425 1.391 . S
C1425 H1413 0.950 . S
C1425 C1421 1.393 . S
C1425 C1424 1.391 . S
C1426 H1416 0.950 . S
C1426 C1427 1.386 . S
C1426 C1428 1.391 . S
C1427 C1426 1.386 . S
C1427 C1431 1.393 . S
C1428 H1417 0.950 . S
C1428 C1426 1.391 . S
C1428 C1429 1.400 . S
C1429 C1423 1.491 . S
C1429 C1428 1.400 . S
C1429 C1430 1.398 . S
C1430 H1418 0.950 . S
C1430 C1429 1.398 . S
C1430 C1431 1.391 . S
C1431 H1419 0.950 . S
C1431 C1427 1.393 . S
C1431 C1430 1.391 . S
H1432 C1440 0.950 . S
H1433 C1445 0.950 . S
H1434 C1442 0.950 . S
H1435 C1444 0.950 . S
H1436 C1446 0.950 . S
H1437 C1448 0.950 . S
H1438 C1450 0.950 . S
H1439 C1451 0.950 . S
C1440 H1432 0.950 . S
C1440 C1441 1.386 . S
C1440 C1442 1.391 . S
C1441 C1440 1.386 . S
C1441 C1445 1.393 . S
C1442 H1434 0.950 . S
C1442 C1440 1.391 . S
C1442 C1443 1.400 . S
C1443 C1442 1.400 . S
C1443 C1444 1.398 . S
C1443 C1449 1.491 . S
C1444 H1435 0.950 . S
C1444 C1443 1.398 . S
C1444 C1445 1.391 . S
C1445 H1433 0.950 . S
C1445 C1441 1.393 . S
C1445 C1444 1.391 . S
C1446 H1436 0.950 . S
C1446 C1447 1.386 . S
C1446 C1448 1.391 . S
C1447 C1446 1.386 . S
C1447 C1451 1.393 . S
C1448 H1437 0.950 . S
C1448 C1446 1.391 . S
C1448 C1449 1.400 . S
C1449 C1443 1.491 . S
C1449 C1448 1.400 . S
C1449 C1450 1.398 . S
C1450 H1438 0.950 . S
C1450 C1449 1.398 . S
C1450 C1451 1.391 . S
C1451 H1439 0.950 . S
C1451 C1447 1.393 . S
C1451 C1450 1.391 . S
H1452 C1460 0.950 . S
H1453 C1465 0.950 . S
H1454 C1462 0.950 . S
H1455 C1464 0.950 . S
H1456 C1466 0.950 . S
H1457 C1468 0.950 . S
H1458 C1470 0.950 . S
H1459 C1471 0.950 . S
C1460 H1452 0.950 . S
C1460 C1461 1.386 . S
C1460 C1462 1.391 . S
C1461 C1460 1.386 . S
C1461 C1465 1.393 . S
C1462 H1454 0.950 . S
C1462 C1460 1.391 . S
C1462 C1463 1.400 . S
C1463 C1462 1.400 . S
C1463 C1464 1.398 . S
C1463 C1469 1.491 . S
C1464 H1455 0.950 . S
C1464 C1463 1.398 . S
C1464 C1465 1.391 . S
C1465 H1453 0.950 . S
C1465 C1461 1.393 . S
C1465 C1464 1.391 . S
C1466 H1456 0.950 . S
C1466 C1467 1.386 . S
C1466 C1468 1.391 . S
C1467 C1466 1.386 . S
C1467 C1471 1.393 . S
C1468 H1457 0.950 . S
C1468 C1466 1.391 . S
C1468 C1469 1.400 . S
C1469 C1463 1.491 . S
C1469 C1468 1.400 . S
C1469 C1470 1.398 . S
C1470 H1458 0.950 . S
C1470 C1469 1.398 . S
C1470 C1471 1.391 . S
C1471 H1459 0.950 . S
C1471 C1467 1.393 . S
C1471 C1470 1.391 . S
H1472 C1480 0.950 . S
H1473 C1485 0.950 . S
H1474 C1482 0.950 . S
H1475 C1484 0.950 . S
H1476 C1486 0.950 . S
H1477 C1488 0.950 . S
H1478 C1490 0.950 . S
H1479 C1491 0.950 . S
C1480 H1472 0.950 . S
C1480 C1481 1.386 . S
C1480 C1482 1.391 . S
C1481 C1480 1.386 . S
C1481 C1485 1.393 . S
C1482 H1474 0.950 . S
C1482 C1480 1.391 . S
C1482 C1483 1.400 . S
C1483 C1482 1.400 . S
C1483 C1484 1.398 . S
C1483 C1489 1.491 . S
C1484 H1475 0.950 . S
C1484 C1483 1.398 . S
C1484 C1485 1.391 . S
C1485 H1473 0.950 . S
C1485 C1481 1.393 . S
C1485 C1484 1.391 . S
C1486 H1476 0.950 . S
C1486 C1487 1.386 . S
C1486 C1488 1.391 . S
C1487 C1486 1.386 . S
C1487 C1491 1.393 . S
C1488 H1477 0.950 . S
C1488 C1486 1.391 . S
C1488 C1489 1.400 . S
C1489 C1483 1.491 . S
C1489 C1488 1.400 . S
C1489 C1490 1.398 . S
C1490 H1478 0.950 . S
C1490 C1489 1.398 . S
C1490 C1491 1.391 . S
C1491 H1479 0.950 . S
C1491 C1487 1.393 . S
C1491 C1490 1.391 . S
H1492 C1500 0.950 . S
H1493 C1505 0.950 . S
H1494 C1502 0.950 . S
H1495 C1504 0.950 . S
H1496 C1506 0.950 . S
H1497 C1508 0.950 . S
H1498 C1510 0.950 . S
H1499 C1511 0.950 . S
C1500 H1492 0.950 . S
C1500 C1501 1.386 . S
C1500 C1502 1.391 . S
C1501 C1500 1.386 . S
C1501 C1505 1.393 . S
C1502 H1494 0.950 . S
C1502 C1500 1.391 . S
C1502 C1503 1.400 . S
C1503 C1502 1.400 . S
C1503 C1504 1.398 . S
C1503 C1509 1.491 . S
C1504 H1495 0.950 . S
C1504 C1503 1.398 . S
C1504 C1505 1.391 . S
C1505 H1493 0.950 . S
C1505 C1501 1.393 . S
C1505 C1504 1.391 . S
C1506 H1496 0.950 . S
C1506 C1507 1.386 . S
C1506 C1508 1.391 . S
C1507 C1506 1.386 . S
C1507 C1511 1.393 . S
C1508 H1497 0.950 . S
C1508 C1506 1.391 . S
C1508 C1509 1.400 . S
C1509 C1503 1.491 . S
C1509 C1508 1.400 . S
C1509 C1510 1.398 . S
C1510 H1498 0.950 . S
C1510 C1509 1.398 . S
C1510 C1511 1.391 . S
C1511 H1499 0.950 . S
C1511 C1507 1.393 . S
C1511 C1510 1.391 . S
H1512 C1520 0.950 . S
H1513 C1525 0.950 . S
H1514 C1522 0.950 . S
H1515 C1524 0.950 . S
H1516 C1526 0.950 . S
H1517 C1528 0.950 . S
H1518 C1530 0.950 . S
H1519 C1531 0.950 . S
C1520 H1512 0.950 . S
C1520 C1521 1.386 . S
C1520 C1522 1.391 . S
C1521 C1520 1.386 . S
C1521 C1525 1.393 . S
C1522 H1514 0.950 . S
C1522 C1520 1.391 . S
C1522 C1523 1.400 . S
C1523 C1522 1.400 . S
C1523 C1524 1.398 . S
C1523 C1529 1.491 . S
C1524 H1515 0.950 . S
C1524 C1523 1.398 . S
C1524 C1525 1.391 . S
C1525 H1513 0.950 . S
C1525 C1521 1.393 . S
C1525 C1524 1.391 . S
C1526 H1516 0.950 . S
C1526 C1527 1.386 . S
C1526 C1528 1.391 . S
C1527 C1526 1.386 . S
C1527 C1531 1.393 . S
C1528 H1517 0.950 . S
C1528 C1526 1.391 . S
C1528 C1529 1.400 . S
C1529 C1523 1.491 . S
C1529 C1528 1.400 . S
C1529 C1530 1.398 . S
C1530 H1518 0.950 . S
C1530 C1529 1.398 . S
C1530 C1531 1.391 . S
C1531 H1519 0.950 . S
C1531 C1527 1.393 . S
C1531 C1530 1.391 . S
H1532 C1540 0.950 . S
H1533 C1545 0.950 . S
H1534 C1542 0.950 . S
H1535 C1544 0.950 . S
H1536 C1546 0.950 . S
H1537 C1548 0.950 . S
H1538 C1550 0.950 . S
H1539 C1551 0.950 . S
C1540 H1532 0.950 . S
C1540 C1541 1.386 . S
C1540 C1542 1.391 . S
C1541 C1540 1.386 . S
C1541 C1545 1.393 . S
C1542 H1534 0.950 . S
C1542 C1540 1.391 . S
C1542 C1543 1.400 . S
C1543 C1542 1.400 . S
C1543 C1544 1.398 . S
C1543 C1549 1.491 . S
C1544 H1535 0.950 . S
C1544 C1543 1.398 . S
C1544 C1545 1.391 . S
C1545 H1533 0.950 . S
C1545 C1541 1.393 . S
C1545 C1544 1.391 . S
C1546 H1536 0.950 . S
C1546 C1547 1.386 . S
C1546 C1548 1.391 . S
C1547 C1546 1.386 . S
C1547 C1551 1.393 . S
C1548 H1537 0.950 . S
C1548 C1546 1.391 . S
C1548 C1549 1.400 . S
C1549 C1543 1.491 . S
C1549 C1548 1.400 . S
C1549 C1550 1.398 . S
C1550 H1538 0.950 . S
C1550 C1549 1.398 . S
C1550 C1551 1.391 . S
C1551 H1539 0.950 . S
C1551 C1547 1.393 . S
C1551 C1550 1.391 . S
H1552 C1560 0.950 . S
H1553 C1565 0.950 . S
H1554 C1562 0.950 . S
H1555 C1564 0.950 . S
H1556 C1566 0.950 . S
H1557 C1568 0.950 . S
H1558 C1570 0.950 . S
H1559 C1571 0.950 . S
C1560 H1552 0.950 . S
C1560 C1561 1.386 . S
C1560 C1562 1.391 . S
C1561 C1560 1.386 . S
C1561 C1565 1.393 . S
C1562 H1554 0.950 . S
C1562 C1560 1.391 . S
C1562 C1563 1.400 . S
C1563 C1562 1.400 . S
C1563 C1564 1.398 . S
C1563 C1569 1.491 . S
C1564 H1555 0.950 . S
C1564 C1563 1.398 . S
C1564 C1565 1.391 . S
C1565 H1553 0.950 . S
C1565 C1561 1.393 . S
C1565 C1564 1.391 . S
C1566 H1556 0.950 . S
C1566 C1567 1.386 . S
C1566 C1568 1.391 . S
C1567 C1566 1.386 . S
C1567 C1571 1.393 . S
C1568 H1557 0.950 . S
C1568 C1566 1.391 . S
C1568 C1569 1.400 . S
C1569 C1563 1.491 . S
C1569 C1568 1.400 . S
C1569 C1570 1.398 . S
C1570 H1558 0.950 . S
C1570 C1569 1.398 . S
C1570 C1571 1.391 . S
C1571 H1559 0.950 . S
C1571 C1567 1.393 . S
C1571 C1570 1.391 . S
H1572 C1580 0.950 . S
H1573 C1585 0.950 . S
H1574 C1582 0.950 . S
H1575 C1584 0.950 . S
H1576 C1586 0.950 . S
H1577 C1588 0.950 . S
H1578 C1590 0.950 . S
H1579 C1591 0.950 . S
C1580 H1572 0.950 . S
C1580 C1581 1.386 . S
C1580 C1582 1.391 . S
C1581 C1580 1.386 . S
C1581 C1585 1.393 . S
C1582 H1574 0.950 . S
C1582 C1580 1.391 . S
C1582 C1583 1.400 . S
C1583 C1582 1.400 . S
C1583 C1584 1.398 . S
C1583 C1589 1.491 . S
C1584 H1575 0.950 . S
C1584 C1583 1.398 . S
C1584 C1585 1.391 . S
C1585 H1573 0.950 . S
C1585 C1581 1.393 . S
C1585 C1584 1.391 . S
C1586 H1576 0.950 . S
C1586 C1587 1.386 . S
C1586 C1588 1.391 . S
C1587 C1586 1.386 . S
C1587 C1591 1.393 . S
C1588 H1577 0.950 . S
C1588 C1586 1.391 . S
C1588 C1589 1.400 . S
C1589 C1583 1.491 . S
C1589 C1588 1.400 . S
C1589 C1590 1.398 . S
C1590 H1578 0.950 . S
C1590 C1589 1.398 . S
C1590 C1591 1.391 . S
C1591 H1579 0.950 . S
C1591 C1587 1.393 . S
C1591 C1590 1.391 . S
H1592 C1600 0.950 . S
H1593 C1605 0.950 . S
H1594 C1602 0.950 . S
H1595 C1604 0.950 . S
H1596 C1606 0.950 . S
H1597 C1608 0.950 . S
H1598 C1610 0.950 . S
H1599 C1611 0.950 . S
C1600 H1592 0.950 . S
C1600 C1601 1.386 . S
C1600 C1602 1.391 . S
C1601 C1600 1.386 . S
C1601 C1605 1.393 . S
C1602 H1594 0.950 . S
C1602 C1600 1.391 . S
C1602 C1603 1.400 . S
C1603 C1602 1.400 . S
C1603 C1604 1.398 . S
C1603 C1609 1.491 . S
C1604 H1595 0.950 . S
C1604 C1603 1.398 . S
C1604 C1605 1.391 . S
C1605 H1593 0.950 . S
C1605 C1601 1.393 . S
C1605 C1604 1.391 . S
C1606 H1596 0.950 . S
C1606 C1607 1.386 . S
C1606 C1608 1.391 . S
C1607 C1606 1.386 . S
C1607 C1611 1.393 . S
C1608 H1597 0.950 . S
C1608 C1606 1.391 . S
C1608 C1609 1.400 . S
C1609 C1603 1.491 . S
C1609 C1608 1.400 . S
C1609 C1610 1.398 . S
C1610 H1598 0.950 . S
C1610 C1609 1.398 . S
C1610 C1611 1.391 . S
C1611 H1599 0.950 . S
C1611 C1607 1.393 . S
C1611 C1610 1.391 . S
H1612 C1620 0.950 . S
H1613 C1625 0.950 . S
H1614 C1622 0.950 . S
H1615 C1624 0.950 . S
H1616 C1626 0.950 . S
H1617 C1628 0.950 . S
H1618 C1630 0.950 . S
H1619 C1631 0.950 . S
C1620 H1612 0.950 . S
C1620 C1621 1.386 . S
C1620 C1622 1.391 . S
C1621 C1620 1.386 . S
C1621 C1625 1.393 . S
C1622 H1614 0.950 . S
C1622 C1620 1.391 . S
C1622 C1623 1.400 . S
C1623 C1622 1.400 . S
C1623 C1624 1.398 . S
C1623 C1629 1.491 . S
C1624 H1615 0.950 . S
C1624 C1623 1.398 . S
C1624 C1625 1.391 . S
C1625 H1613 0.950 . S
C1625 C1621 1.393 . S
C1625 C1624 1.391 . S
C1626 H1616 0.950 . S
C1626 C1627 1.386 . S
C1626 C1628 1.391 . S
C1627 C1626 1.386 . S
C1627 C1631 1.393 . S
C1628 H1617 0.950 . S
C1628 C1626 1.391 . S
C1628 C1629 1.400 . S
C1629 C1623 1.491 . S
C1629 C1628 1.400 . S
C1629 C1630 1.398 . S
C1630 H1618 0.950 . S
C1630 C1629 1.398 . S
C1630 C1631 1.391 . S
C1631 H1619 0.950 . S
C1631 C1627 1.393 . S
C1631 C1630 1.391 . S
H1632 C1640 0.950 . S
H1633 C1645 0.950 . S
H1634 C1642 0.950 . S
H1635 C1644 0.950 . S
H1636 C1646 0.950 . S
H1637 C1648 0.950 . S
H1638 C1650 0.950 . S
H1639 C1651 0.950 . S
C1640 H1632 0.950 . S
C1640 C1641 1.386 . S
C1640 C1642 1.391 . S
C1641 C1640 1.386 . S
C1641 C1645 1.393 . S
C1642 H1634 0.950 . S
C1642 C1640 1.391 . S
C1642 C1643 1.400 . S
C1643 C1642 1.400 . S
C1643 C1644 1.398 . S
C1643 C1649 1.491 . S
C1644 H1635 0.950 . S
C1644 C1643 1.398 . S
C1644 C1645 1.391 . S
C1645 H1633 0.950 . S
C1645 C1641 1.393 . S
C1645 C1644 1.391 . S
C1646 H1636 0.950 . S
C1646 C1647 1.386 . S
C1646 C1648 1.391 . S
C1647 C1646 1.386 . S
C1647 C1651 1.393 . S
C1648 H1637 0.950 . S
C1648 C1646 1.391 . S
C1648 C1649 1.400 . S
C1649 C1643 1.491 . S
C1649 C1648 1.400 . S
C1649 C1650 1.398 . S
C1650 H1638 0.950 . S
C1650 C1649 1.398 . S
C1650 C1651 1.391 . S
C1651 H1639 0.950 . S
C1651 C1647 1.393 . S
C1651 C1650 1.391 . S
H1652 C1660 0.950 . S
H1653 C1665 0.950 . S
H1654 C1662 0.950 . S
H1655 C1664 0.950 . S
H1656 C1666 0.950 . S
H1657 C1668 0.950 . S
H1658 C1670 0.950 . S
H1659 C1671 0.950 . S
C1660 H1652 0.950 . S
C1660 C1661 1.386 . S
C1660 C1662 1.391 . S
C1661 C1660 1.386 . S
C1661 C1665 1.393 . S
C1662 H1654 0.950 . S
C1662 C1660 1.391 . S
C1662 C1663 1.400 . S
C1663 C1662 1.400 . S
C1663 C1664 1.398 . S
C1663 C1669 1.491 . S
C1664 H1655 0.950 . S
C1664 C1663 1.398 . S
C1664 C1665 1.391 . S
C1665 H1653 0.950 . S
C1665 C1661 1.393 . S
C1665 C1664 1.391 . S
C1666 H1656 0.950 . S
C1666 C1667 1.386 . S
C1666 C1668 1.391 . S
C1667 C1666 1.386 . S
C1667 C1671 1.393 . S
C1668 H1657 0.950 . S
C1668 C1666 1.391 . S
C1668 C1669 1.400 . S
C1669 C1663 1.491 . S
C1669 C1668 1.400 . S
C1669 C1670 1.398 . S
C1670 H1658 0.950 . S
C1670 C1669 1.398 . S
C1670 C1671 1.391 . S
C1671 H1659 0.950 . S
C1671 C1667 1.393 . S
C1671 C1670 1.391 . S
H1672 C1680 0.950 . S
H1673 C1685 0.950 . S
H1674 C1682 0.950 . S
H1675 C1684 0.950 . S
H1676 C1686 0.950 . S
H1677 C1688 0.950 . S
H1678 C1690 0.950 . S
H1679 C1691 0.950 . S
C1680 H1672 0.950 . S
C1680 C1681 1.386 . S
C1680 C1682 1.391 . S
C1681 C1680 1.386 . S
C1681 C1685 1.393 . S
C1682 H1674 0.950 . S
C1682 C1680 1.391 . S
C1682 C1683 1.400 . S
C1683 C1682 1.400 . S
C1683 C1684 1.398 . S
C1683 C1689 1.491 . S
C1684 H1675 0.950 . S
C1684 C1683 1.398 . S
C1684 C1685 1.391 . S
C1685 H1673 0.950 . S
C1685 C1681 1.393 . S
C1685 C1684 1.391 . S
C1686 H1676 0.950 . S
C1686 C1687 1.386 . S
C1686 C1688 1.391 . S
C1687 C1686 1.386 . S
C1687 C1691 1.393 . S
C1688 H1677 0.950 . S
C1688 C1686 1.391 . S
C1688 C1689 1.400 . S
C1689 C1683 1.491 . S
C1689 C1688 1.400 . S
C1689 C1690 1.398 . S
C1690 H1678 0.950 . S
C1690 C1689 1.398 . S
C1690 C1691 1.391 . S
C1691 H1679 0.950 . S
C1691 C1687 1.393 . S
C1691 C1690 1.391 . S
H1692 C1700 0.950 . S
H1693 C1705 0.950 . S
H1694 C1702 0.950 . S
H1695 C1704 0.950 . S
H1696 C1706 0.950 . S
H1697 C1708 0.950 . S
H1698 C1710 0.950 . S
H1699 C1711 0.950 . S
C1700 H1692 0.950 . S
C1700 C1701 1.386 . S
C1700 C1702 1.391 . S
C1701 C1700 1.386 . S
C1701 C1705 1.393 . S
C1702 H1694 0.950 . S
C1702 C1700 1.391 . S
C1702 C1703 1.400 . S
C1703 C1702 1.400 . S
C1703 C1704 1.398 . S
C1703 C1709 1.491 . S
C1704 H1695 0.950 . S
C1704 C1703 1.398 . S
C1704 C1705 1.391 . S
C1705 H1693 0.950 . S
C1705 C1701 1.393 . S
C1705 C1704 1.391 . S
C1706 H1696 0.950 . S
C1706 C1707 1.386 . S
C1706 C1708 1.391 . S
C1707 C1706 1.386 . S
C1707 C1711 1.393 . S
C1708 H1697 0.950 . S
C1708 C1706 1.391 . S
C1708 C1709 1.400 . S
C1709 C1703 1.491 . S
C1709 C1708 1.400 . S
C1709 C1710 1.398 . S
C1710 H1698 0.950 . S
C1710 C1709 1.398 . S
C1710 C1711 1.391 . S
C1711 H1699 0.950 . S
C1711 C1707 1.393 . S
C1711 C1710 1.391 . S
H1712 C1720 0.950 . S
H1713 C1725 0.950 . S
H1714 C1722 0.950 . S
H1715 C1724 0.950 . S
H1716 C1726 0.950 . S
H1717 C1728 0.950 . S
H1718 C1730 0.950 . S
H1719 C1731 0.950 . S
C1720 H1712 0.950 . S
C1720 C1721 1.386 . S
C1720 C1722 1.391 . S
C1721 C1720 1.386 . S
C1721 C1725 1.393 . S
C1722 H1714 0.950 . S
C1722 C1720 1.391 . S
C1722 C1723 1.400 . S
C1723 C1722 1.400 . S
C1723 C1724 1.398 . S
C1723 C1729 1.491 . S
C1724 H1715 0.950 . S
C1724 C1723 1.398 . S
C1724 C1725 1.391 . S
C1725 H1713 0.950 . S
C1725 C1721 1.393 . S
C1725 C1724 1.391 . S
C1726 H1716 0.950 . S
C1726 C1727 1.386 . S
C1726 C1728 1.391 . S
C1727 C1726 1.386 . S
C1727 C1731 1.393 . S
C1728 H1717 0.950 . S
C1728 C1726 1.391 . S
C1728 C1729 1.400 . S
C1729 C1723 1.491 . S
C1729 C1728 1.400 . S
C1729 C1730 1.398 . S
C1730 H1718 0.950 . S
C1730 C1729 1.398 . S
C1730 C1731 1.391 . S
C1731 H1719 0.950 . S
C1731 C1727 1.393 . S
C1731 C1730 1.391 . S
H1732 C1740 0.950 . S
H1733 C1745 0.950 . S
H1734 C1742 0.950 . S
H1735 C1744 0.950 . S
H1736 C1746 0.950 . S
H1737 C1748 0.950 . S
H1738 C1750 0.950 . S
H1739 C1751 0.950 . S
C1740 H1732 0.950 . S
C1740 C1741 1.386 . S
C1740 C1742 1.391 . S
C1741 C1740 1.386 . S
C1741 C1745 1.393 . S
C1742 H1734 0.950 . S
C1742 C1740 1.391 . S
C1742 C1743 1.400 . S
C1743 C1742 1.400 . S
C1743 C1744 1.398 . S
C1743 C1749 1.491 . S
C1744 H1735 0.950 . S
C1744 C1743 1.398 . S
C1744 C1745 1.391 . S
C1745 H1733 0.950 . S
C1745 C1741 1.393 . S
C1745 C1744 1.391 . S
C1746 H1736 0.950 . S
C1746 C1747 1.386 . S
C1746 C1748 1.391 . S
C1747 C1746 1.386 . S
C1747 C1751 1.393 . S
C1748 H1737 0.950 . S
C1748 C1746 1.391 . S
C1748 C1749 1.400 . S
C1749 C1743 1.491 . S
C1749 C1748 1.400 . S
C1749 C1750 1.398 . S
C1750 H1738 0.950 . S
C1750 C1749 1.398 . S
C1750 C1751 1.391 . S
C1751 H1739 0.950 . S
C1751 C1747 1.393 . S
C1751 C1750 1.391 . S
H1752 C1760 0.950 . S
H1753 C1765 0.950 . S
H1754 C1762 0.950 . S
H1755 C1764 0.950 . S
H1756 C1766 0.950 . S
H1757 C1768 0.950 . S
H1758 C1770 0.950 . S
H1759 C1771 0.950 . S
C1760 H1752 0.950 . S
C1760 C1761 1.386 . S
C1760 C1762 1.391 . S
C1761 C1760 1.386 . S
C1761 C1765 1.393 . S
C1762 H1754 0.950 . S
C1762 C1760 1.391 . S
C1762 C1763 1.400 . S
C1763 C1762 1.400 . S
C1763 C1764 1.398 . S
C1763 C1769 1.491 . S
C1764 H1755 0.950 . S
C1764 C1763 1.398 . S
C1764 C1765 1.391 . S
C1765 H1753 0.950 . S
C1765 C1761 1.393 . S
C1765 C1764 1.391 . S
C1766 H1756 0.950 . S
C1766 C1767 1.386 . S
C1766 C1768 1.391 . S
C1767 C1766 1.386 . S
C1767 C1771 1.393 . S
C1768 H1757 0.950 . S
C1768 C1766 1.391 . S
C1768 C1769 1.400 . S
C1769 C1763 1.491 . S
C1769 C1768 1.400 . S
C1769 C1770 1.398 . S
C1770 H1758 0.950 . S
C1770 C1769 1.398 . S
C1770 C1771 1.391 . S
C1771 H1759 0.950 . S
C1771 C1767 1.393 . S
C1771 C1770 1.391 . S
H1772 C1780 0.950 . S
H1773 C1785 0.950 . S
H1774 C1782 0.950 . S
H1775 C1784 0.950 . S
H1776 C1786 0.950 . S
H1777 C1788 0.950 . S
H1778 C1790 0.950 . S
H1779 C1791 0.950 . S
C1780 H1772 0.950 . S
C1780 C1781 1.386 . S
C1780 C1782 1.391 . S
C1781 C1780 1.386 . S
C1781 C1785 1.393 . S
C1782 H1774 0.950 . S
C1782 C1780 1.391 . S
C1782 C1783 1.400 . S
C1783 C1782 1.400 . S
C1783 C1784 1.398 . S
C1783 C1789 1.491 . S
C1784 H1775 0.950 . S
C1784 C1783 1.398 . S
C1784 C1785 1.391 . S
C1785 H1773 0.950 . S
C1785 C1781 1.393 . S
C1785 C1784 1.391 . S
C1786 H1776 0.950 . S
C1786 C1787 1.386 . S
C1786 C1788 1.391 . S
C1787 C1786 1.386 . S
C1787 C1791 1.393 . S
C1788 H1777 0.950 . S
C1788 C1786 1.391 . S
C1788 C1789 1.400 . S
C1789 C1783 1.491 . S
C1789 C1788 1.400 . S
C1789 C1790 1.398 . S
C1790 H1778 0.950 . S
C1790 C1789 1.398 . S
C1790 C1791 1.391 . S
C1791 H1779 0.950 . S
C1791 C1787 1.393 . S
C1791 C1790 1.391 . S
H1792 C1800 0.950 . S
H1793 C1805 0.950 . S
H1794 C1802 0.950 . S
H1795 C1804 0.950 . S
H1796 C1806 0.950 . S
H1797 C1808 0.950 . S
H1798 C1810 0.950 . S
H1799 C1811 0.950 . S
C1800 H1792 0.950 . S
C1800 C1801 1.386 . S
C1800 C1802 1.391 . S
C1801 C1800 1.386 . S
C1801 C1805 1.393 . S
C1802 H1794 0.950 . S
C1802 C1800 1.391 . S
C1802 C1803 1.400 . S
C1803 C1802 1.400 . S
C1803 C1804 1.398 . S
C1803 C1809 1.491 . S
C1804 H1795 0.950 . S
C1804 C1803 1.398 . S
C1804 C1805 1.391 . S
C1805 H1793 0.950 . S
C1805 C1801 1.393 . S
C1805 C1804 1.391 . S
C1806 H1796 0.950 . S
C1806 C1807 1.386 . S
C1806 C1808 1.391 . S
C1807 C1806 1.386 . S
C1807 C1811 1.393 . S
C1808 H1797 0.950 . S
C1808 C1806 1.391 . S
C1808 C1809 1.400 . S
C1809 C1803 1.491 . S
C1809 C1808 1.400 . S
C1809 C1810 1.398 . S
C1810 H1798 0.950 . S
C1810 C1809 1.398 . S
C1810 C1811 1.391 . S
C1811 H1799 0.950 . S
C1811 C1807 1.393 . S
C1811 C1810 1.391 . S
H1812 C1820 0.950 . S
H1813 C1825 0.950 . S
H1814 C1822 0.950 . S
H1815 C1824 0.950 . S
H1816 C1826 0.950 . S
H1817 C1828 0.950 . S
H1818 C1830 0.950 . S
H1819 C1831 0.950 . S
C1820 H1812 0.950 . S
C1820 C1821 1.386 . S
C1820 C1822 1.391 . S
C1821 C1820 1.386 . S
C1821 C1825 1.393 . S
C1822 H1814 0.950 . S
C1822 C1820 1.391 . S
C1822 C1823 1.400 . S
C1823 C1822 1.400 . S
C1823 C1824 1.398 . S
C1823 C1829 1.491 . S
C1824 H1815 0.950 . S
C1824 C1823 1.398 . S
C1824 C1825 1.391 . S
C1825 H1813 0.950 . S
C1825 C1821 1.393 . S
C1825 C1824 1.391 . S
C1826 H1816 0.950 . S
C1826 C1827 1.386 . S
C1826 C1828 1.391 . S
C1827 C1826 1.386 . S
C1827 C1831 1.393 . S
C1828 H1817 0.950 . S
C1828 C1826 1.391 . S
C1828 C1829 1.400 . S
C1829 C1823 1.491 . S
C1829 C1828 1.400 . S
C1829 C1830 1.398 . S
C1830 H1818 0.950 . S
C1830 C1829 1.398 . S
C1830 C1831 1.391 . S
C1831 H1819 0.950 . S
C1831 C1827 1.393 . S
C1831 C1830 1.391 . S
H1832 C1840 0.950 . S
H1833 C1845 0.950 . S
H1834 C1842 0.950 . S
H1835 C1844 0.950 . S
H1836 C1846 0.950 . S
H1837 C1848 0.950 . S
H1838 C1850 0.950 . S
H1839 C1851 0.950 . S
C1840 H1832 0.950 . S
C1840 C1841 1.386 . S
C1840 C1842 1.391 . S
C1841 C1840 1.386 . S
C1841 C1845 1.393 . S
C1842 H1834 0.950 . S
C1842 C1840 1.391 . S
C1842 C1843 1.400 . S
C1843 C1842 1.400 . S
C1843 C1844 1.398 . S
C1843 C1849 1.491 . S
C1844 H1835 0.950 . S
C1844 C1843 1.398 . S
C1844 C1845 1.391 . S
C1845 H1833 0.950 . S
C1845 C1841 1.393 . S
C1845 C1844 1.391 . S
C1846 H1836 0.950 . S
C1846 C1847 1.386 . S
C1846 C1848 1.391 . S
C1847 C1846 1.386 . S
C1847 C1851 1.393 . S
C1848 H1837 0.950 . S
C1848 C1846 1.391 . S
C1848 C1849 1.400 . S
C1849 C1843 1.491 . S
C1849 C1848 1.400 . S
C1849 C1850 1.398 . S
C1850 H1838 0.950 . S
C1850 C1849 1.398 . S
C1850 C1851 1.391 . S
C1851 H1839 0.950 . S
C1851 C1847 1.393 . S
C1851 C1850 1.391 . S
H1852 C1860 0.950 . S
H1853 C1865 0.950 . S
H1854 C1862 0.950 . S
H1855 C1864 0.950 . S
H1856 C1866 0.950 . S
H1857 C1868 0.950 . S
H1858 C1870 0.950 . S
H1859 C1871 0.950 . S
C1860 H1852 0.950 . S
C1860 C1861 1.386 . S
C1860 C1862 1.391 . S
C1861 C1860 1.386 . S
C1861 C1865 1.393 . S
C1862 H1854 0.950 . S
C1862 C1860 1.391 . S
C1862 C1863 1.400 . S
C1863 C1862 1.400 . S
C1863 C1864 1.398 . S
C1863 C1869 1.491 . S
C1864 H1855 0.950 . S
C1864 C1863 1.398 . S
C1864 C1865 1.391 . S
C1865 H1853 0.950 . S
C1865 C1861 1.393 . S
C1865 C1864 1.391 . S
C1866 H1856 0.950 . S
C1866 C1867 1.386 . S
C1866 C1868 1.391 . S
C1867 C1866 1.386 . S
C1867 C1871 1.393 . S
C1868 H1857 0.950 . S
C1868 C1866 1.391 . S
C1868 C1869 1.400 . S
C1869 C1863 1.491 . S
C1869 C1868 1.400 . S
C1869 C1870 1.398 . S
C1870 H1858 0.950 . S
C1870 C1869 1.398 . S
C1870 C1871 1.391 . S
C1871 H1859 0.950 . S
C1871 C1867 1.393 . S
C1871 C1870 1.391 . S
H1872 C1880 0.950 . S
H1873 C1885 0.950 . S
H1874 C1882 0.950 . S
H1875 C1884 0.950 . S
H1876 C1886 0.950 . S
H1877 C1888 0.950 . S
H1878 C1890 0.950 . S
H1879 C1891 0.950 . S
C1880 H1872 0.950 . S
C1880 C1881 1.386 . S
C1880 C1882 1.391 . S
C1881 C1880 1.386 . S
C1881 C1885 1.393 . S
C1882 H1874 0.950 . S
C1882 C1880 1.391 . S
C1882 C1883 1.400 . S
C1883 C1882 1.400 . S
C1883 C1884 1.398 . S
C1883 C1889 1.491 . S
C1884 H1875 0.950 . S
C1884 C1883 1.398 . S
C1884 C1885 1.391 . S
C1885 H1873 0.950 . S
C1885 C1881 1.393 . S
C1885 C1884 1.391 . S
C1886 H1876 0.950 . S
C1886 C1887 1.386 . S
C1886 C1888 1.391 . S
C1887 C1886 1.386 . S
C1887 C1891 1.393 . S
C1888 H1877 0.950 . S
C1888 C1886 1.391 . S
C1888 C1889 1.400 . S
C1889 C1883 1.491 . S
C1889 C1888 1.400 . S
C1889 C1890 1.398 . S
C1890 H1878 0.950 . S
C1890 C1889 1.398 . S
C1890 C1891 1.391 . S
C1891 H1879 0.950 . S
C1891 C1887 1.393 . S
C1891 C1890 1.391 . S
H1892 C1900 0.950 . S
H1893 C1905 0.950 . S
H1894 C1902 0.950 . S
H1895 C1904 0.950 . S
H1896 C1906 0.950 . S
H1897 C1908 0.950 . S
H1898 C1910 0.950 . S
H1899 C1911 0.950 . S
C1900 H1892 0.950 . S
C1900 C1901 1.386 . S
C1900 C1902 1.391 . S
C1901 C1900 1.386 . S
C1901 C1905 1.393 . S
C1902 H1894 0.950 . S
C1902 C1900 1.391 . S
C1902 C1903 1.400 . S
C1903 C1902 1.400 . S
C1903 C1904 1.398 . S
C1903 C1909 1.491 . S
C1904 H1895 0.950 . S
C1904 C1903 1.398 . S
C1904 C1905 1.391 . S
C1905 H1893 0.950 . S
C1905 C1901 1.393 . S
C1905 C1904 1.391 . S
C1906 H1896 0.950 . S
C1906 C1907 1.386 . S
C1906 C1908 1.391 . S
C1907 C1906 1.386 . S
C1907 C1911 1.393 . S
C1908 H1897 0.950 . S
C1908 C1906 1.391 . S
C1908 C1909 1.400 . S
C1909 C1903 1.491 . S
C1909 C1908 1.400 . S
C1909 C1910 1.398 . S
C1910 H1898 0.950 . S
C1910 C1909 1.398 . S
C1910 C1911 1.391 . S
C1911 H1899 0.950 . S
C1911 C1907 1.393 . S
C1911 C1910 1.391 . S
H1912 C1920 0.950 . S
H1913 C1925 0.950 . S
H1914 C1922 0.950 . S
H1915 C1924 0.950 . S
H1916 C1926 0.950 . S
H1917 C1928 0.950 . S
H1918 C1930 0.950 . S
H1919 C1931 0.950 . S
C1920 H1912 0.950 . S
C1920 C1921 1.386 . S
C1920 C1922 1.391 . S
C1921 C1920 1.386 . S
C1921 C1925 1.393 . S
C1922 H1914 0.950 . S
C1922 C1920 1.391 . S
C1922 C1923 1.400 . S
C1923 C1922 1.400 . S
C1923 C1924 1.398 . S
C1923 C1929 1.491 . S
C1924 H1915 0.950 . S
C1924 C1923 1.398 . S
C1924 C1925 1.391 . S
C1925 H1913 0.950 . S
C1925 C1921 1.393 . S
C1925 C1924 1.391 . S
C1926 H1916 0.950 . S
C1926 C1927 1.386 . S
C1926 C1928 1.391 . S
C1927 C1926 1.386 . S
C1927 C1931 1.393 . S
C1928 H1917 0.950 . S
C1928 C1926 1.391 . S
C1928 C1929 1.400 . S
C1929 C1923 1.491 . S
C1929 C1928 1.400 . S
C1929 C1930 1.398 . S
C1930 H1918 0.950 . S
C1930 C1929 1.398 . S
C1930 C1931 1.391 . S
C1931 H1919 0.950 . S
C1931 C1927 1.393 . S
C1931 C1930 1.391 . S
H1932 C1940 0.950 . S
H1933 C1945 0.950 . S
H1934 C1942 0.950 . S
H1935 C1944 0.950 . S
H1936 C1946 0.950 . S
H1937 C1948 0.950 . S
H1938 C1950 0.950 . S
H1939 C1951 0.950 . S
C1940 H1932 0.950 . S
C1940 C1941 1.386 . S
C1940 C1942 1.391 . S
C1941 C1940 1.386 . S
C1941 C1945 1.393 . S
C1942 H1934 0.950 . S
C1942 C1940 1.391 . S
C1942 C1943 1.400 . S
C1943 C1942 1.400 . S
C1943 C1944 1.398 . S
C1943 C1949 1.491 . S
C1944 H1935 0.950 . S
C1944 C1943 1.398 . S
C1944 C1945 1.391 . S
C1945 H1933 0.950 . S
C1945 C1941 1.393 . S
C1945 C1944 1.391 . S
C1946 H1936 0.950 . S
C1946 C1947 1.386 . S
C1946 C1948 1.391 . S
C1947 C1946 1.386 . S
C1947 C1951 1.393 . S
C1948 H1937 0.950 . S
C1948 C1946 1.391 . S
C1948 C1949 1.400 . S
C1949 C1943 1.491 . S
C1949 C1948 1.400 . S
C1949 C1950 1.398 . S
C1950 H1938 0.950 . S
C1950 C1949 1.398 . S
C1950 C1951 1.391 . S
C1951 H1939 0.950 . S
C1951 C1947 1.393 . S
C1951 C1950 1.391 . S
H1952 C1960 0.950 . S
H1953 C1965 0.950 . S
H1954 C1962 0.950 . S
H1955 C1964 0.950 . S
H1956 C1966 0.950 . S
H1957 C1968 0.950 . S
H1958 C1970 0.950 . S
H1959 C1971 0.950 . S
C1960 H1952 0.950 . S
C1960 C1961 1.386 . S
C1960 C1962 1.391 . S
C1961 C1960 1.386 . S
C1961 C1965 1.393 . S
C1962 H1954 0.950 . S
C1962 C1960 1.391 . S
C1962 C1963 1.400 . S
C1963 C1962 1.400 . S
C1963 C1964 1.398 . S
C1963 C1969 1.491 . S
C1964 H1955 0.950 . S
C1964 C1963 1.398 . S
C1964 C1965 1.391 . S
C1965 H1953 0.950 . S
C1965 C1961 1.393 . S
C1965 C1964 1.391 . S
C1966 H1956 0.950 . S
C1966 C1967 1.386 . S
C1966 C1968 1.391 . S
C1967 C1966 1.386 . S
C1967 C1971 1.393 . S
C1968 H1957 0.950 . S
C1968 C1966 1.391 . S
C1968 C1969 1.400 . S
C1969 C1963 1.491 . S
C1969 C1968 1.400 . S
C1969 C1970 1.398 . S
C1970 H1958 0.950 . S
C1970 C1969 1.398 . S
C1970 C1971 1.391 . S
C1971 H1959 0.950 . S
C1971 C1967 1.393 . S
C1971 C1970 1.391 . S
H1972 C1980 0.950 . S
H1973 C1985 0.950 . S
H1974 C1982 0.950 . S
H1975 C1984 0.950 . S
H1976 C1986 0.950 . S
H1977 C1988 0.950 . S
H1978 C1990 0.950 . S
H1979 C1991 0.950 . S
C1980 H1972 0.950 . S
C1980 C1981 1.386 . S
C1980 C1982 1.391 . S
C1981 C1980 1.386 . S
C1981 C1985 1.393 . S
C1982 H1974 0.950 . S
C1982 C1980 1.391 . S
C1982 C1983 1.400 . S
C1983 C1982 1.400 . S
C1983 C1984 1.398 . S
C1983 C1989 1.491 . S
C1984 H1975 0.950 . S
C1984 C1983 1.398 . S
C1984 C1985 1.391 . S
C1985 H1973 0.950 . S
C1985 C1981 1.393 . S
C1985 C1984 1.391 . S
C1986 H1976 0.950 . S
C1986 C1987 1.386 . S
C1986 C1988 1.391 . S
C1987 C1986 1.386 . S
C1987 C1991 1.393 . S
C1988 H1977 0.950 . S
C1988 C1986 1.391 . S
C1988 C1989 1.400 . S
C1989 C1983 1.491 . S
C1989 C1988 1.400 . S
C1989 C1990 1.398 . S
C1990 H1978 0.950 . S
C1990 C1989 1.398 . S
C1990 C1991 1.391 . S
C1991 H1979 0.950 . S
C1991 C1987 1.393 . S
C1991 C1990 1.391 . S
H1992 C2000 0.950 . S
H1993 C2005 0.950 . S
H1994 C2002 0.950 . S
H1995 C2004 0.950 . S
H1996 C2006 0.950 . S
H1997 C2008 0.950 . S
H1998 C2010 0.950 . S
H1999 C2011 0.950 . S
C2000 H1992 0.950 . S
C2000 C2001 1.386 . S
C2000 C2002 1.391 . S
C2001 C2000 1.386 . S
C2001 C2005 1.393 . S
C2002 H1994 0.950 . S
C2002 C2000 1.391 . S
C2002 C2003 1.400 . S
C2003 C2002 1.400 . S
C2003 C2004 1.398 . S
C2003 C2009 1.491 . S
C2004 H1995 0.950 . S
C2004 C2003 1.398 . S
C2004 C2005 1.391 . S
C2005 H1993 0.950 . S
C2005 C2001 1.393 . S
C2005 C2004 1.391 . S
C2006 H1996 0.950 . S
C2006 C2007 1.386 . S
C2006 C2008 1.391 . S
C2007 C2006 1.386 . S
C2007 C2011 1.393 . S
C2008 H1997 0.950 . S
C2008 C2006 1.391 . S
C2008 C2009 1.400 . S
C2009 C2003 1.491 . S
C2009 C2008 1.400 . S
C2009 C2010 1.398 . S
C2010 H1998 0.950 . S
C2010 C2009 1.398 . S
C2010 C2011 1.391 . S
C2011 H1999 0.950 . S
C2011 C2007 1.393 . S
C2011 C2010 1.391 . S
H2012 C2020 0.950 . S
H2013 C2025 0.950 . S
H2014 C2022 0.950 . S
H2015 C2024 0.950 . S
H2016 C2026 0.950 . S
H2017 C2028 0.950 . S
H2018 C2030 0.950 . S
H2019 C2031 0.950 . S
C2020 H2012 0.950 . S
C2020 C2021 1.386 . S
C2020 C2022 1.391 . S
C2021 C2020 1.386 . S
C2021 C2025 1.393 . S
C2022 H2014 0.950 . S
C2022 C2020 1.391 . S
C2022 C2023 1.400 . S
C2023 C2022 1.400 . S
C2023 C2024 1.398 . S
C2023 C2029 1.491 . S
C2024 H2015 0.950 . S
C2024 C2023 1.398 . S
C2024 C2025 1.391 . S
C2025 H2013 0.950 . S
C2025 C2021 1.393 . S
C2025 C2024 1.391 . S
C2026 H2016 0.950 . S
C2026 C2027 1.386 . S
C2026 C2028 1.391 . S
C2027 C2026 1.386 . S
C2027 C2031 1.393 . S
C2028 H2017 0.950 . S
C2028 C2026 1.391 . S
C2028 C2029 1.400 . S
C2029 C2023 1.491 . S
C2029 C2028 1.400 . S
C2029 C2030 1.398 . S
C2030 H2018 0.950 . S
C2030 C2029 1.398 . S
C2030 C2031 1.391 . S
C2031 H2019 0.950 . S
C2031 C2027 1.393 . S
C2031 C2030 1.391 . S
H2032 C2040 0.950 . S
H2033 C2045 0.950 . S
H2034 C2042 0.950 . S
H2035 C2044 0.950 . S
H2036 C2046 0.950 . S
H2037 C2048 0.950 . S
H2038 C2050 0.950 . S
H2039 C2051 0.950 . S
C2040 H2032 0.950 . S
C2040 C2041 1.386 . S
C2040 C2042 1.391 . S
C2041 C2040 1.386 . S
C2041 C2045 1.393 . S
C2042 H2034 0.950 . S
C2042 C2040 1.391 . S
C2042 C2043 1.400 . S
C2043 C2042 1.400 . S
C2043 C2044 1.398 . S
C2043 C2049 1.491 . S
C2044 H2035 0.950 . S
C2044 C2043 1.398 . S
C2044 C2045 1.391 . S
C2045 H2033 0.950 . S
C2045 C2041 1.393 . S
C2045 C2044 1.391 . S
C2046 H2036 0.950 . S
C2046 C2047 1.386 . S
C2046 C2048 1.391 . S
C2047 C2046 1.386 . S
C2047 C2051 1.393 . S
C2048 H2037 0.950 . S
C2048 C2046 1.391 . S
C2048 C2049 1.400 . S
C2049 C2043 1.491 . S
C2049 C2048 1.400 . S
C2049 C2050 1.398 . S
C2050 H2038 0.950 . S
C2050 C2049 1.398 . S
C2050 C2051 1.391 . S
C2051 H2039 0.950 . S
C2051 C2047 1.393 . S
C2051 C2050 1.391 . S
H2052 C2060 0.950 . S
H2053 C2065 0.950 . S
H2054 C2062 0.950 . S
H2055 C2064 0.950 . S
H2056 C2066 0.950 . S
H2057 C2068 0.950 . S
H2058 C2070 0.950 . S
H2059 C2071 0.950 . S
C2060 H2052 0.950 . S
C2060 C2061 1.386 . S
C2060 C2062 1.391 . S
C2061 C2060 1.386 . S
C2061 C2065 1.393 . S
C2062 H2054 0.950 . S
C2062 C2060 1.391 . S
C2062 C2063 1.400 . S
C2063 C2062 1.400 . S
C2063 C2064 1.398 . S
C2063 C2069 1.491 . S
C2064 H2055 0.950 . S
C2064 C2063 1.398 . S
C2064 C2065 1.391 . S
C2065 H2053 0.950 . S
C2065 C2061 1.393 . S
C2065 C2064 1.391 . S
C2066 H2056 0.950 . S
C2066 C2067 1.386 . S
C2066 C2068 1.391 . S
C2067 C2066 1.386 . S
C2067 C2071 1.393 . S
C2068 H2057 0.950 . S
C2068 C2066 1.391 . S
C2068 C2069 1.400 . S
C2069 C2063 1.491 . S
C2069 C2068 1.400 . S
C2069 C2070 1.398 . S
C2070 H2058 0.950 . S
C2070 C2069 1.398 . S
C2070 C2071 1.391 . S
C2071 H2059 0.950 . S
C2071 C2067 1.393 . S
C2071 C2070 1.391 . S
H2072 C2080 0.950 . S
H2073 C2085 0.950 . S
H2074 C2082 0.950 . S
H2075 C2084 0.950 . S
H2076 C2086 0.950 . S
H2077 C2088 0.950 . S
H2078 C2090 0.950 . S
H2079 C2091 0.950 . S
C2080 H2072 0.950 . S
C2080 C2081 1.386 . S
C2080 C2082 1.391 . S
C2081 C2080 1.386 . S
C2081 C2085 1.393 . S
C2082 H2074 0.950 . S
C2082 C2080 1.391 . S
C2082 C2083 1.400 . S
C2083 C2082 1.400 . S
C2083 C2084 1.398 . S
C2083 C2089 1.491 . S
C2084 H2075 0.950 . S
C2084 C2083 1.398 . S
C2084 C2085 1.391 . S
C2085 H2073 0.950 . S
C2085 C2081 1.393 . S
C2085 C2084 1.391 . S
C2086 H2076 0.950 . S
C2086 C2087 1.386 . S
C2086 C2088 1.391 . S
C2087 C2086 1.386 . S
C2087 C2091 1.393 . S
C2088 H2077 0.950 . S
C2088 C2086 1.391 . S
C2088 C2089 1.400 . S
C2089 C2083 1.491 . S
C2089 C2088 1.400 . S
C2089 C2090 1.398 . S
C2090 H2078 0.950 . S
C2090 C2089 1.398 . S
C2090 C2091 1.391 . S
C2091 H2079 0.950 . S
C2091 C2087 1.393 . S
C2091 C2090 1.391 . S
H2092 C2100 0.950 . S
H2093 C2105 0.950 . S
H2094 C2102 0.950 . S
H2095 C2104 0.950 . S
H2096 C2106 0.950 . S
H2097 C2108 0.950 . S
H2098 C2110 0.950 . S
H2099 C2111 0.950 . S
C2100 H2092 0.950 . S
C2100 C2101 1.386 . S
C2100 C2102 1.391 . S
C2101 C2100 1.386 . S
C2101 C2105 1.393 . S
C2102 H2094 0.950 . S
C2102 C2100 1.391 . S
C2102 C2103 1.400 . S
C2103 C2102 1.400 . S
C2103 C2104 1.398 . S
C2103 C2109 1.491 . S
C2104 H2095 0.950 . S
C2104 C2103 1.398 . S
C2104 C2105 1.391 . S
C2105 H2093 0.950 . S
C2105 C2101 1.393 . S
C2105 C2104 1.391 . S
C2106 H2096 0.950 . S
C2106 C2107 1.386 . S
C2106 C2108 1.391 . S
C2107 C2106 1.386 . S
C2107 C2111 1.393 . S
C2108 H2097 0.950 . S
C2108 C2106 1.391 . S
C2108 C2109 1.400 . S
C2109 C2103 1.491 . S
C2109 C2108 1.400 . S
C2109 C2110 1.398 . S
C2110 H2098 0.950 . S
C2110 C2109 1.398 . S
C2110 C2111 1.391 . S
C2111 H2099 0.950 . S
C2111 C2107 1.393 . S
C2111 C2110 1.391 . S
H2112 C2120 0.950 . S
H2113 C2125 0.950 . S
H2114 C2122 0.950 . S
H2115 C2124 0.950 . S
H2116 C2126 0.950 . S
H2117 C2128 0.950 . S
H2118 C2130 0.950 . S
H2119 C2131 0.950 . S
C2120 H2112 0.950 . S
C2120 C2121 1.386 . S
C2120 C2122 1.391 . S
C2121 C2120 1.386 . S
C2121 C2125 1.393 . S
C2122 H2114 0.950 . S
C2122 C2120 1.391 . S
C2122 C2123 1.400 . S
C2123 C2122 1.400 . S
C2123 C2124 1.398 . S
C2123 C2129 1.491 . S
C2124 H2115 0.950 . S
C2124 C2123 1.398 . S
C2124 C2125 1.391 . S
C2125 H2113 0.950 . S
C2125 C2121 1.393 . S
C2125 C2124 1.391 . S
C2126 H2116 0.950 . S
C2126 C2127 1.386 . S
C2126 C2128 1.391 . S
C2127 C2126 1.386 . S
C2127 C2131 1.393 . S
C2128 H2117 0.950 . S
C2128 C2126 1.391 . S
C2128 C2129 1.400 . S
C2129 C2123 1.491 . S
C2129 C2128 1.400 . S
C2129 C2130 1.398 . S
C2130 H2118 0.950 . S
C2130 C2129 1.398 . S
C2130 C2131 1.391 . S
C2131 H2119 0.950 . S
C2131 C2127 1.393 . S
C2131 C2130 1.391 . S
H2132 C2140 0.950 . S
H2133 C2145 0.950 . S
H2134 C2142 0.950 . S
H2135 C2144 0.950 . S
H2136 C2146 0.950 . S
H2137 C2148 0.950 . S
H2138 C2150 0.950 . S
H2139 C2151 0.950 . S
C2140 H2132 0.950 . S
C2140 C2141 1.386 . S
C2140 C2142 1.391 . S
C2141 C2140 1.386 . S
C2141 C2145 1.393 . S
C2142 H2134 0.950 . S
C2142 C2140 1.391 . S
C2142 C2143 1.400 . S
C2143 C2142 1.400 . S
C2143 C2144 1.398 . S
C2143 C2149 1.491 . S
C2144 H2135 0.950 . S
C2144 C2143 1.398 . S
C2144 C2145 1.391 . S
C2145 H2133 0.950 . S
C2145 C2141 1.393 . S
C2145 C2144 1.391 . S
C2146 H2136 0.950 . S
C2146 C2147 1.386 . S
C2146 C2148 1.391 . S
C2147 C2146 1.386 . S
C2147 C2151 1.393 . S
C2148 H2137 0.950 . S
C2148 C2146 1.391 . S
C2148 C2149 1.400 . S
C2149 C2143 1.491 . S
C2149 C2148 1.400 . S
C2149 C2150 1.398 . S
C2150 H2138 0.950 . S
C2150 C2149 1.398 . S
C2150 C2151 1.391 . S
C2151 H2139 0.950 . S
C2151 C2147 1.393 . S
C2151 C2150 1.391 . S
H2152 C2160 0.950 . S
H2153 C2165 0.950 . S
H2154 C2162 0.950 . S
H2155 C2164 0.950 . S
H2156 C2166 0.950 . S
H2157 C2168 0.950 . S
H2158 C2170 0.950 . S
H2159 C2171 0.950 . S
C2160 H2152 0.950 . S
C2160 C2161 1.386 . S
C2160 C2162 1.391 . S
C2161 C2160 1.386 . S
C2161 C2165 1.393 . S
C2162 H2154 0.950 . S
C2162 C2160 1.391 . S
C2162 C2163 1.400 . S
C2163 C2162 1.400 . S
C2163 C2164 1.398 . S
C2163 C2169 1.491 . S
C2164 H2155 0.950 . S
C2164 C2163 1.398 . S
C2164 C2165 1.391 . S
C2165 H2153 0.950 . S
C2165 C2161 1.393 . S
C2165 C2164 1.391 . S
C2166 H2156 0.950 . S
C2166 C2167 1.386 . S
C2166 C2168 1.391 . S
C2167 C2166 1.386 . S
C2167 C2171 1.393 . S
C2168 H2157 0.950 . S
C2168 C2166 1.391 . S
C2168 C2169 1.400 . S
C2169 C2163 1.491 . S
C2169 C2168 1.400 . S
C2169 C2170 1.398 . S
C2170 H2158 0.950 . S
C2170 C2169 1.398 . S
C2170 C2171 1.391 . S
C2171 H2159 0.950 . S
C2171 C2167 1.393 . S
C2171 C2170 1.391 . S
H2172 C2180 0.950 . S
H2173 C2185 0.950 . S
H2174 C2182 0.950 . S
H2175 C2184 0.950 . S
H2176 C2186 0.950 . S
H2177 C2188 0.950 . S
H2178 C2190 0.950 . S
H2179 C2191 0.950 . S
C2180 H2172 0.950 . S
C2180 C2181 1.386 . S
C2180 C2182 1.391 . S
C2181 C2180 1.386 . S
C2181 C2185 1.393 . S
C2182 H2174 0.950 . S
C2182 C2180 1.391 . S
C2182 C2183 1.400 . S
C2183 C2182 1.400 . S
C2183 C2184 1.398 . S
C2183 C2189 1.491 . S
C2184 H2175 0.950 . S
C2184 C2183 1.398 . S
C2184 C2185 1.391 . S
C2185 H2173 0.950 . S
C2185 C2181 1.393 . S
C2185 C2184 1.391 . S
C2186 H2176 0.950 . S
C2186 C2187 1.386 . S
C2186 C2188 1.391 . S
C2187 C2186 1.386 . S
C2187 C2191 1.393 . S
C2188 H2177 0.950 . S
C2188 C2186 1.391 . S
C2188 C2189 1.400 . S
C2189 C2183 1.491 . S
C2189 C2188 1.400 . S
C2189 C2190 1.398 . S
C2190 H2178 0.950 . S
C2190 C2189 1.398 . S
C2190 C2191 1.391 . S
C2191 H2179 0.950 . S
C2191 C2187 1.393 . S
C2191 C2190 1.391 . S
H2192 C2200 0.950 . S
H2193 C2205 0.950 . S
H2194 C2202 0.950 . S
H2195 C2204 0.950 . S
H2196 C2206 0.950 . S
H2197 C2208 0.950 . S
H2198 C2210 0.950 . S
H2199 C2211 0.950 . S
C2200 H2192 0.950 . S
C2200 C2201 1.386 . S
C2200 C2202 1.391 . S
C2201 C2200 1.386 . S
C2201 C2205 1.393 . S
C2202 H2194 0.950 . S
C2202 C2200 1.391 . S
C2202 C2203 1.400 . S
C2203 C2202 1.400 . S
C2203 C2204 1.398 . S
C2203 C2209 1.491 . S
C2204 H2195 0.950 . S
C2204 C2203 1.398 . S
C2204 C2205 1.391 . S
C2205 H2193 0.950 . S
C2205 C2201 1.393 . S
C2205 C2204 1.391 . S
C2206 H2196 0.950 . S
C2206 C2207 1.386 . S
C2206 C2208 1.391 . S
C2207 C2206 1.386 . S
C2207 C2211 1.393 . S
C2208 H2197 0.950 . S
C2208 C2206 1.391 . S
C2208 C2209 1.400 . S
C2209 C2203 1.491 . S
C2209 C2208 1.400 . S
C2209 C2210 1.398 . S
C2210 H2198 0.950 . S
C2210 C2209 1.398 . S
C2210 C2211 1.391 . S
C2211 H2199 0.950 . S
C2211 C2207 1.393 . S
C2211 C2210 1.391 . S
H2212 C2220 0.950 . S
H2213 C2225 0.950 . S
H2214 C2222 0.950 . S
H2215 C2224 0.950 . S
H2216 C2226 0.950 . S
H2217 C2228 0.950 . S
H2218 C2230 0.950 . S
H2219 C2231 0.950 . S
C2220 H2212 0.950 . S
C2220 C2221 1.386 . S
C2220 C2222 1.391 . S
C2221 C2220 1.386 . S
C2221 C2225 1.393 . S
C2222 H2214 0.950 . S
C2222 C2220 1.391 . S
C2222 C2223 1.400 . S
C2223 C2222 1.400 . S
C2223 C2224 1.398 . S
C2223 C2229 1.491 . S
C2224 H2215 0.950 . S
C2224 C2223 1.398 . S
C2224 C2225 1.391 . S
C2225 H2213 0.950 . S
C2225 C2221 1.393 . S
C2225 C2224 1.391 . S
C2226 H2216 0.950 . S
C2226 C2227 1.386 . S
C2226 C2228 1.391 . S
C2227 C2226 1.386 . S
C2227 C2231 1.393 . S
C2228 H2217 0.950 . S
C2228 C2226 1.391 . S
C2228 C2229 1.400 . S
C2229 C2223 1.491 . S
C2229 C2228 1.400 . S
C2229 C2230 1.398 . S
C2230 H2218 0.950 . S
C2230 C2229 1.398 . S
C2230 C2231 1.391 . S
C2231 H2219 0.950 . S
C2231 C2227 1.393 . S
C2231 C2230 1.391 . S
H2232 C2240 0.950 . S
H2233 C2245 0.950 . S
H2234 C2242 0.950 . S
H2235 C2244 0.950 . S
H2236 C2246 0.950 . S
H2237 C2248 0.950 . S
H2238 C2250 0.950 . S
H2239 C2251 0.950 . S
C2240 H2232 0.950 . S
C2240 C2241 1.386 . S
C2240 C2242 1.391 . S
C2241 C2240 1.386 . S
C2241 C2245 1.393 . S
C2242 H2234 0.950 . S
C2242 C2240 1.391 . S
C2242 C2243 1.400 . S
C2243 C2242 1.400 . S
C2243 C2244 1.398 . S
C2243 C2249 1.491 . S
C2244 H2235 0.950 . S
C2244 C2243 1.398 . S
C2244 C2245 1.391 . S
C2245 H2233 0.950 . S
C2245 C2241 1.393 . S
C2245 C2244 1.391 . S
C2246 H2236 0.950 . S
C2246 C2247 1.386 . S
C2246 C2248 1.391 . S
C2247 C2246 1.386 . S
C2247 C2251 1.393 . S
C2248 H2237 0.950 . S
C2248 C2246 1.391 . S
C2248 C2249 1.400 . S
C2249 C2243 1.491 . S
C2249 C2248 1.400 . S
C2249 C2250 1.398 . S
C2250 H2238 0.950 . S
C2250 C2249 1.398 . S
C2250 C2251 1.391 . S
C2251 H2239 0.950 . S
C2251 C2247 1.393 . S
C2251 C2250 1.391 . S
H2252 C2260 0.950 . S
H2253 C2265 0.950 . S
H2254 C2262 0.950 . S
H2255 C2264 0.950 . S
H2256 C2266 0.950 . S
H2257 C2268 0.950 . S
H2258 C2270 0.950 . S
H2259 C2271 0.950 . S
C2260 H2252 0.950 . S
C2260 C2261 1.386 . S
C2260 C2262 1.391 . S
C2261 C2260 1.386 . S
C2261 C2265 1.393 . S
C2262 H2254 0.950 . S
C2262 C2260 1.391 . S
C2262 C2263 1.400 . S
C2263 C2262 1.400 . S
C2263 C2264 1.398 . S
C2263 C2269 1.491 . S
C2264 H2255 0.950 . S
C2264 C2263 1.398 . S
C2264 C2265 1.391 . S
C2265 H2253 0.950 . S
C2265 C2261 1.393 . S
C2265 C2264 1.391 . S
C2266 H2256 0.950 . S
C2266 C2267 1.386 . S
C2266 C2268 1.391 . S
C2267 C2266 1.386 . S
C2267 C2271 1.393 . S
C2268 H2257 0.950 . S
C2268 C2266 1.391 . S
C2268 C2269 1.400 . S
C2269 C2263 1.491 . S
C2269 C2268 1.400 . S
C2269 C2270 1.398 . S
C2270 H2258 0.950 . S
C2270 C2269 1.398 . S
C2270 C2271 1.391 . S
C2271 H2259 0.950 . S
C2271 C2267 1.393 . S
C2271 C2270 1.391 . S
H2272 C2280 0.950 . S
H2273 C2285 0.950 . S
H2274 C2282 0.950 . S
H2275 C2284 0.950 . S
H2276 C2286 0.950 . S
H2277 C2288 0.950 . S
H2278 C2290 0.950 . S
H2279 C2291 0.950 . S
C2280 H2272 0.950 . S
C2280 C2281 1.386 . S
C2280 C2282 1.391 . S
C2281 C2280 1.386 . S
C2281 C2285 1.393 . S
C2282 H2274 0.950 . S
C2282 C2280 1.391 . S
C2282 C2283 1.400 . S
C2283 C2282 1.400 . S
C2283 C2284 1.398 . S
C2283 C2289 1.491 . S
C2284 H2275 0.950 . S
C2284 C2283 1.398 . S
C2284 C2285 1.391 . S
C2285 H2273 0.950 . S
C2285 C2281 1.393 . S
C2285 C2284 1.391 . S
C2286 H2276 0.950 . S
C2286 C2287 1.386 . S
C2286 C2288 1.391 . S
C2287 C2286 1.386 . S
C2287 C2291 1.393 . S
C2288 H2277 0.950 . S
C2288 C2286 1.391 . S
C2288 C2289 1.400 . S
C2289 C2283 1.491 . S
C2289 C2288 1.400 . S
C2289 C2290 1.398 . S
C2290 H2278 0.950 . S
C2290 C2289 1.398 . S
C2290 C2291 1.391 . S
C2291 H2279 0.950 . S
C2291 C2287 1.393 . S
C2291 C2290 1.391 . S
H2292 C2300 0.950 . S
H2293 C2305 0.950 . S
H2294 C2302 0.950 . S
H2295 C2304 0.950 . S
H2296 C2306 0.950 . S
H2297 C2308 0.950 . S
H2298 C2310 0.950 . S
H2299 C2311 0.950 . S
C2300 H2292 0.950 . S
C2300 C2301 1.386 . S
C2300 C2302 1.391 . S
C2301 C2300 1.386 . S
C2301 C2305 1.393 . S
C2302 H2294 0.950 . S
C2302 C2300 1.391 . S
C2302 C2303 1.400 . S
C2303 C2302 1.400 . S
C2303 C2304 1.398 . S
C2303 C2309 1.491 . S
C2304 H2295 0.950 . S
C2304 C2303 1.398 . S
C2304 C2305 1.391 . S
C2305 H2293 0.950 . S
C2305 C2301 1.393 . S
C2305 C2304 1.391 . S
C2306 H2296 0.950 . S
C2306 C2307 1.386 . S
C2306 C2308 1.391 . S
C2307 C2306 1.386 . S
C2307 C2311 1.393 . S
C2308 H2297 0.950 . S
C2308 C2306 1.391 . S
C2308 C2309 1.400 . S
C2309 C2303 1.491 . S
C2309 C2308 1.400 . S
C2309 C2310 1.398 . S
C2310 H2298 0.950 . S
C2310 C2309 1.398 . S
C2310 C2311 1.391 . S
C2311 H2299 0.950 . S
C2311 C2307 1.393 . S
C2311 C2310 1.391 . S
H2312 C2320 0.950 . S
H2313 C2325 0.950 . S
H2314 C2322 0.950 . S
H2315 C2324 0.950 . S
H2316 C2326 0.950 . S
H2317 C2328 0.950 . S
H2318 C2330 0.950 . S
H2319 C2331 0.950 . S
C2320 H2312 0.950 . S
C2320 C2321 1.386 . S
C2320 C2322 1.391 . S
C2321 C2320 1.386 . S
C2321 C2325 1.393 . S
C2322 H2314 0.950 . S
C2322 C2320 1.391 . S
C2322 C2323 1.400 . S
C2323 C2322 1.400 . S
C2323 C2324 1.398 . S
C2323 C2329 1.491 . S
C2324 H2315 0.950 . S
C2324 C2323 1.398 . S
C2324 C2325 1.391 . S
C2325 H2313 0.950 . S
C2325 C2321 1.393 . S
C2325 C2324 1.391 . S
C2326 H2316 0.950 . S
C2326 C2327 1.386 . S
C2326 C2328 1.391 . S
C2327 C2326 1.386 . S
C2327 C2331 1.393 . S
C2328 H2317 0.950 . S
C2328 C2326 1.391 . S
C2328 C2329 1.400 . S
C2329 C2323 1.491 . S
C2329 C2328 1.400 . S
C2329 C2330 1.398 . S
C2330 H2318 0.950 . S
C2330 C2329 1.398 . S
C2330 C2331 1.391 . S
C2331 H2319 0.950 . S
C2331 C2327 1.393 . S
C2331 C2330 1.391 . S
H2332 C2340 0.950 . S
H2333 C2345 0.950 . S
H2334 C2342 0.950 . S
H2335 C2344 0.950 . S
H2336 C2346 0.950 . S
H2337 C2348 0.950 . S
H2338 C2350 0.950 . S
H2339 C2351 0.950 . S
C2340 H2332 0.950 . S
C2340 C2341 1.386 . S
C2340 C2342 1.391 . S
C2341 C2340 1.386 . S
C2341 C2345 1.393 . S
C2342 H2334 0.950 . S
C2342 C2340 1.391 . S
C2342 C2343 1.400 . S
C2343 C2342 1.400 . S
C2343 C2344 1.398 . S
C2343 C2349 1.491 . S
C2344 H2335 0.950 . S
C2344 C2343 1.398 . S
C2344 C2345 1.391 . S
C2345 H2333 0.950 . S
C2345 C2341 1.393 . S
C2345 C2344 1.391 . S
C2346 H2336 0.950 . S
C2346 C2347 1.386 . S
C2346 C2348 1.391 . S
C2347 C2346 1.386 . S
C2347 C2351 1.393 . S
C2348 H2337 0.950 . S
C2348 C2346 1.391 . S
C2348 C2349 1.400 . S
C2349 C2343 1.491 . S
C2349 C2348 1.400 . S
C2349 C2350 1.398 . S
C2350 H2338 0.950 . S
C2350 C2349 1.398 . S
C2350 C2351 1.391 . S
C2351 H2339 0.950 . S
C2351 C2347 1.393 . S
C2351 C2350 1.391 . S
H2352 C2360 0.950 . S
H2353 C2365 0.950 . S
H2354 C2362 0.950 . S
H2355 C2364 0.950 . S
H2356 C2366 0.950 . S
H2357 C2368 0.950 . S
H2358 C2370 0.950 . S
H2359 C2371 0.950 . S
C2360 H2352 0.950 . S
C2360 C2361 1.386 . S
C2360 C2362 1.391 . S
C2361 C2360 1.386 . S
C2361 C2365 1.393 . S
C2362 H2354 0.950 . S
C2362 C2360 1.391 . S
C2362 C2363 1.400 . S
C2363 C2362 1.400 . S
C2363 C2364 1.398 . S
C2363 C2369 1.491 . S
C2364 H2355 0.950 . S
C2364 C2363 1.398 . S
C2364 C2365 1.391 . S
C2365 H2353 0.950 . S
C2365 C2361 1.393 . S
C2365 C2364 1.391 . S
C2366 H2356 0.950 . S
C2366 C2367 1.386 . S
C2366 C2368 1.391 . S
C2367 C2366 1.386 . S
C2367 C2371 1.393 . S
C2368 H2357 0.950 . S
C2368 C2366 1.391 . S
C2368 C2369 1.400 . S
C2369 C2363 1.491 . S
C2369 C2368 1.400 . S
C2369 C2370 1.398 . S
C2370 H2358 0.950 . S
C2370 C2369 1.398 . S
C2370 C2371 1.391 . S
C2371 H2359 0.950 . S
C2371 C2367 1.393 . S
C2371 C2370 1.391 . S
H2372 C2380 0.950 . S
H2373 C2385 0.950 . S
H2374 C2382 0.950 . S
H2375 C2384 0.950 . S
H2376 C2386 0.950 . S
H2377 C2388 0.950 . S
H2378 C2390 0.950 . S
H2379 C2391 0.950 . S
C2380 H2372 0.950 . S
C2380 C2381 1.386 . S
C2380 C2382 1.391 . S
C2381 C2380 1.386 . S
C2381 C2385 1.393 . S
C2382 H2374 0.950 . S
C2382 C2380 1.391 . S
C2382 C2383 1.400 . S
C2383 C2382 1.400 . S
C2383 C2384 1.398 . S
C2383 C2389 1.491 . S
C2384 H2375 0.950 . S
C2384 C2383 1.398 . S
C2384 C2385 1.391 . S
C2385 H2373 0.950 . S
C2385 C2381 1.393 . S
C2385 C2384 1.391 . S
C2386 H2376 0.950 . S
C2386 C2387 1.386 . S
C2386 C2388 1.391 . S
C2387 C2386 1.386 . S
C2387 C2391 1.393 . S
C2388 H2377 0.950 . S
C2388 C2386 1.391 . S
C2388 C2389 1.400 . S
C2389 C2383 1.491 . S
C2389 C2388 1.400 . S
C2389 C2390 1.398 . S
C2390 H2378 0.950 . S
C2390 C2389 1.398 . S
C2390 C2391 1.391 . S
C2391 H2379 0.950 . S
C2391 C2387 1.393 . S
C2391 C2390 1.391 . S
H2392 C2400 0.950 . S
H2393 C2405 0.950 . S
H2394 C2402 0.950 . S
H2395 C2404 0.950 . S
H2396 C2406 0.950 . S
H2397 C2408 0.950 . S
H2398 C2410 0.950 . S
H2399 C2411 0.950 . S
C2400 H2392 0.950 . S
C2400 C2401 1.386 . S
C2400 C2402 1.391 . S
C2401 C2400 1.386 . S
C2401 C2405 1.393 . S
C2402 H2394 0.950 . S
C2402 C2400 1.391 . S
C2402 C2403 1.400 . S
C2403 C2402 1.400 . S
C2403 C2404 1.398 . S
C2403 C2409 1.491 . S
C2404 H2395 0.950 . S
C2404 C2403 1.398 . S
C2404 C2405 1.391 . S
C2405 H2393 0.950 . S
C2405 C2401 1.393 . S
C2405 C2404 1.391 . S
C2406 H2396 0.950 . S
C2406 C2407 1.386 . S
C2406 C2408 1.391 . S
C2407 C2406 1.386 . S
C2407 C2411 1.393 . S
C2408 H2397 0.950 . S
C2408 C2406 1.391 . S
C2408 C2409 1.400 . S
C2409 C2403 1.491 . S
C2409 C2408 1.400 . S
C2409 C2410 1.398 . S
C2410 H2398 0.950 . S
C2410 C2409 1.398 . S
C2410 C2411 1.391 . S
C2411 H2399 0.950 . S
C2411 C2407 1.393 . S
C2411 C2410 1.391 . S
H2412 C2420 0.950 . S
H2413 C2425 0.950 . S
H2414 C2422 0.950 . S
H2415 C2424 0.950 . S
H2416 C2426 0.950 . S
H2417 C2428 0.950 . S
H2418 C2430 0.950 . S
H2419 C2431 0.950 . S
C2420 H2412 0.950 . S
C2420 C2421 1.386 . S
C2420 C2422 1.391 . S
C2421 C2420 1.386 . S
C2421 C2425 1.393 . S
C2422 H2414 0.950 . S
C2422 C2420 1.391 . S
C2422 C2423 1.400 . S
C2423 C2422 1.400 . S
C2423 C2424 1.398 . S
C2423 C2429 1.491 . S
C2424 H2415 0.950 . S
C2424 C2423 1.398 . S
C2424 C2425 1.391 . S
C2425 H2413 0.950 . S
C2425 C2421 1.393 . S
C2425 C2424 1.391 . S
C2426 H2416 0.950 . S
C2426 C2427 1.386 . S
C2426 C2428 1.391 . S
C2427 C2426 1.386 . S
C2427 C2431 1.393 . S
C2428 H2417 0.950 . S
C2428 C2426 1.391 . S
C2428 C2429 1.400 . S
C2429 C2423 1.491 . S
C2429 C2428 1.400 . S
C2429 C2430 1.398 . S
C2430 H2418 0.950 . S
C2430 C2429 1.398 . S
C2430 C2431 1.391 . S
C2431 H2419 0.950 . S
C2431 C2427 1.393 . S
C2431 C2430 1.391 . S
H2432 C2440 0.950 . S
H2433 C2445 0.950 . S
H2434 C2442 0.950 . S
H2435 C2444 0.950 . S
H2436 C2446 0.950 . S
H2437 C2448 0.950 . S
H2438 C2450 0.950 . S
H2439 C2451 0.950 . S
C2440 H2432 0.950 . S
C2440 C2441 1.386 . S
C2440 C2442 1.391 . S
C2441 C2440 1.386 . S
C2441 C2445 1.393 . S
C2442 H2434 0.950 . S
C2442 C2440 1.391 . S
C2442 C2443 1.400 . S
C2443 C2442 1.400 . S
C2443 C2444 1.398 . S
C2443 C2449 1.491 . S
C2444 H2435 0.950 . S
C2444 C2443 1.398 . S
C2444 C2445 1.391 . S
C2445 H2433 0.950 . S
C2445 C2441 1.393 . S
C2445 C2444 1.391 . S
C2446 H2436 0.950 . S
C2446 C2447 1.386 . S
C2446 C2448 1.391 . S
C2447 C2446 1.386 . S
C2447 C2451 1.393 . S
C2448 H2437 0.950 . S
C2448 C2446 1.391 . S
C2448 C2449 1.400 . S
C2449 C2443 1.491 . S
C2449 C2448 1.400 . S
C2449 C2450 1.398 . S
C2450 H2438 0.950 . S
C2450 C2449 1.398 . S
C2450 C2451 1.391 . S
C2451 H2439 0.950 . S
C2451 C2447 1.393 . S
C2451 C2450 1.391 . S
H2452 C2460 0.950 . S
H2453 C2465 0.950 . S
H2454 C2462 0.950 . S
H2455 C2464 0.950 . S
H2456 C2466 0.950 . S
H2457 C2468 0.950 . S
H2458 C2470 0.950 . S
H2459 C2471 0.950 . S
C2460 H2452 0.950 . S
C2460 C2461 1.386 . S
C2460 C2462 1.391 . S
C2461 C2460 1.386 . S
C2461 C2465 1.393 . S
C2462 H2454 0.950 . S
C2462 C2460 1.391 . S
C2462 C2463 1.400 . S
C2463 C2462 1.400 . S
C2463 C2464 1.398 . S
C2463 C2469 1.491 . S
C2464 H2455 0.950 . S
C2464 C2463 1.398 . S
C2464 C2465 1.391 . S
C2465 H2453 0.950 . S
C2465 C2461 1.393 . S
C2465 C2464 1.391 . S
C2466 H2456 0.950 . S
C2466 C2467 1.386 . S
C2466 C2468 1.391 . S
C2467 C2466 1.386 . S
C2467 C2471 1.393 . S
C2468 H2457 0.950 . S
C2468 C2466 1.391 . S
C2468 C2469 1.400 . S
C2469 C2463 1.491 . S
C2469 C2468 1.400 . S
C2469 C2470 1.398 . S
C2470 H2458 0.950 . S
C2470 C2469 1.398 . S
C2470 C2471 1.391 . S
C2471 H2459 0.950 . S
C2471 C2467 1.393 . S
C2471 C2470 1.391 . S
H2472 C2480 0.950 . S
H2473 C2485 0.950 . S
H2474 C2482 0.950 . S
H2475 C2484 0.950 . S
H2476 C2486 0.950 . S
H2477 C2488 0.950 . S
H2478 C2490 0.950 . S
H2479 C2491 0.950 . S
C2480 H2472 0.950 . S
C2480 C2481 1.386 . S
C2480 C2482 1.391 . S
C2481 C2480 1.386 . S
C2481 C2485 1.393 . S
C2482 H2474 0.950 . S
C2482 C2480 1.391 . S
C2482 C2483 1.400 . S
C2483 C2482 1.400 . S
C2483 C2484 1.398 . S
C2483 C2489 1.491 . S
C2484 H2475 0.950 . S
C2484 C2483 1.398 . S
C2484 C2485 1.391 . S
C2485 H2473 0.950 . S
C2485 C2481 1.393 . S
C2485 C2484 1.391 . S
C2486 H2476 0.950 . S
C2486 C2487 1.386 . S
C2486 C2488 1.391 . S
C2487 C2486 1.386 . S
C2487 C2491 1.393 . S
C2488 H2477 0.950 . S
C2488 C2486 1.391 . S
C2488 C2489 1.400 . S
C2489 C2483 1.491 . S
C2489 C2488 1.400 . S
C2489 C2490 1.398 . S
C2490 H2478 0.950 . S
C2490 C2489 1.398 . S
C2490 C2491 1.391 . S
C2491 H2479 0.950 . S
C2491 C2487 1.393 . S
C2491 C2490 1.391 . S
H2492 C2500 0.950 . S
H2493 C2505 0.950 . S
H2494 C2502 0.950 . S
H2495 C2504 0.950 . S
H2496 C2506 0.950 . S
H2497 C2508 0.950 . S
H2498 C2510 0.950 . S
H2499 C2511 0.950 . S
C2500 H2492 0.950 . S
C2500 C2501 1.386 . S
C2500 C2502 1.391 . S
C2501 C2500 1.386 . S
C2501 C2505 1.393 . S
C2502 H2494 0.950 . S
C2502 C2500 1.391 . S
C2502 C2503 1.400 . S
C2503 C2502 1.400 . S
C2503 C2504 1.398 . S
C2503 C2509 1.491 . S
C2504 H2495 0.950 . S
C2504 C2503 1.398 . S
C2504 C2505 1.391 . S
C2505 H2493 0.950 . S
C2505 C2501 1.393 . S
C2505 C2504 1.391 . S
C2506 H2496 0.950 . S
C2506 C2507 1.386 . S
C2506 C2508 1.391 . S
C2507 C2506 1.386 . S
C2507 C2511 1.393 . S
C2508 H2497 0.950 . S
C2508 C2506 1.391 . S
C2508 C2509 1.400 . S
C2509 C2503 1.491 . S
C2509 C2508 1.400 . S
C2509 C2510 1.398 . S
C2510 H2498 0.950 . S
C2510 C2509 1.398 . S
C2510 C2511 1.391 . S
C2511 H2499 0.950 . S
C2511 C2507 1.393 . S
C2511 C2510 1.391 . S
H2512 C2520 0.950 . S
H2513 C2525 0.950 . S
H2514 C2522 0.950 . S
H2515 C2524 0.950 . S
H2516 C2526 0.950 . S
H2517 C2528 0.950 . S
H2518 C2530 0.950 . S
H2519 C2531 0.950 . S
C2520 H2512 0.950 . S
C2520 C2521 1.386 . S
C2520 C2522 1.391 . S
C2521 C2520 1.386 . S
C2521 C2525 1.393 . S
C2522 H2514 0.950 . S
C2522 C2520 1.391 . S
C2522 C2523 1.400 . S
C2523 C2522 1.400 . S
C2523 C2524 1.398 . S
C2523 C2529 1.491 . S
C2524 H2515 0.950 . S
C2524 C2523 1.398 . S
C2524 C2525 1.391 . S
C2525 H2513 0.950 . S
C2525 C2521 1.393 . S
C2525 C2524 1.391 . S
C2526 H2516 0.950 . S
C2526 C2527 1.386 . S
C2526 C2528 1.391 . S
C2527 C2526 1.386 . S
C2527 C2531 1.393 . S
C2528 H2517 0.950 . S
C2528 C2526 1.391 . S
C2528 C2529 1.400 . S
C2529 C2523 1.491 . S
C2529 C2528 1.400 . S
C2529 C2530 1.398 . S
C2530 H2518 0.950 . S
C2530 C2529 1.398 . S
C2530 C2531 1.391 . S
C2531 H2519 0.950 . S
C2531 C2527 1.393 . S
C2531 C2530 1.391 . S
H2532 C2540 0.950 . S
H2533 C2545 0.950 . S
H2534 C2542 0.950 . S
H2535 C2544 0.950 . S
H2536 C2546 0.950 . S
H2537 C2548 0.950 . S
H2538 C2550 0.950 . S
H2539 C2551 0.950 . S
C2540 H2532 0.950 . S
C2540 C2541 1.386 . S
C2540 C2542 1.391 . S
C2541 C2540 1.386 . S
C2541 C2545 1.393 . S
C2542 H2534 0.950 . S
C2542 C2540 1.391 . S
C2542 C2543 1.400 . S
C2543 C2542 1.400 . S
C2543 C2544 1.398 . S
C2543 C2549 1.491 . S
C2544 H2535 0.950 . S
C2544 C2543 1.398 . S
C2544 C2545 1.391 . S
C2545 H2533 0.950 . S
C2545 C2541 1.393 . S
C2545 C2544 1.391 . S
C2546 H2536 0.950 . S
C2546 C2547 1.386 . S
C2546 C2548 1.391 . S
C2547 C2546 1.386 . S
C2547 C2551 1.393 . S
C2548 H2537 0.950 . S
C2548 C2546 1.391 . S
C2548 C2549 1.400 . S
C2549 C2543 1.491 . S
C2549 C2548 1.400 . S
C2549 C2550 1.398 . S
C2550 H2538 0.950 . S
C2550 C2549 1.398 . S
C2550 C2551 1.391 . S
C2551 H2539 0.950 . S
C2551 C2547 1.393 . S
C2551 C2550 1.391 . S
H2552 C2560 0.950 . S
H2553 C2565 0.950 . S
H2554 C2562 0.950 . S
H2555 C2564 0.950 . S
H2556 C2566 0.950 . S
H2557 C2568 0.950 . S
H2558 C2570 0.950 . S
H2559 C2571 0.950 . S
C2560 H2552 0.950 . S
C2560 C2561 1.386 . S
C2560 C2562 1.391 . S
C2561 C2560 1.386 . S
C2561 C2565 1.393 . S
C2562 H2554 0.950 . S
C2562 C2560 1.391 . S
C2562 C2563 1.400 . S
C2563 C2562 1.400 . S
C2563 C2564 1.398 . S
C2563 C2569 1.491 . S
C2564 H2555 0.950 . S
C2564 C2563 1.398 . S
C2564 C2565 1.391 . S
C2565 H2553 0.950 . S
C2565 C2561 1.393 . S
C2565 C2564 1.391 . S
C2566 H2556 0.950 . S
C2566 C2567 1.386 . S
C2566 C2568 1.391 . S
C2567 C2566 1.386 . S
C2567 C2571 1.393 . S
C2568 H2557 0.950 . S
C2568 C2566 1.391 . S
C2568 C2569 1.400 . S
C2569 C2563 1.491 . S
C2569 C2568 1.400 . S
C2569 C2570 1.398 . S
C2570 H2558 0.950 . S
C2570 C2569 1.398 . S
C2570 C2571 1.391 . S
C2571 H2559 0.950 . S
C2571 C2567 1.393 . S
C2571 C2570 1.391 . S
H2572 C2580 0.950 . S
H2573 C2585 0.950 . S
H2574 C2582 0.950 . S
H2575 C2584 0.950 . S
H2576 C2586 0.950 . S
H2577 C2588 0.950 . S
H2578 C2590 0.950 . S
H2579 C2591 0.950 . S
C2580 H2572 0.950 . S
C2580 C2581 1.386 . S
C2580 C2582 1.391 . S
C2581 C2580 1.386 . S
C2581 C2585 1.393 . S
C2582 H2574 0.950 . S
C2582 C2580 1.391 . S
C2582 C2583 1.400 . S
C2583 C2582 1.400 . S
C2583 C2584 1.398 . S
C2583 C2589 1.491 . S
C2584 H2575 0.950 . S
C2584 C2583 1.398 . S
C2584 C2585 1.391 . S
C2585 H2573 0.950 . S
C2585 C2581 1.393 . S
C2585 C2584 1.391 . S
C2586 H2576 0.950 . S
C2586 C2587 1.386 . S
C2586 C2588 1.391 . S
C2587 C2586 1.386 . S
C2587 C2591 1.393 . S
C2588 H2577 0.950 . S
C2588 C2586 1.391 . S
C2588 C2589 1.400 . S
C2589 C2583 1.491 . S
C2589 C2588 1.400 . S
C2589 C2590 1.398 . S
C2590 H2578 0.950 . S
C2590 C2589 1.398 . S
C2590 C2591 1.391 . S
C2591 H2579 0.950 . S
C2591 C2587 1.393 . S
C2591 C2590 1.391 . S
C681 C137 1.482 . S
C687 C11 1.482 . S
C701 C151 1.482 . S
C707 C25 1.482 . S
C721 C165 1.518 . S
C727 C39 1.520 . S
C741 C53 1.486 . S
C747 C123 1.489 . S
C761 C221 1.491 . S
C767 C67 1.488 . S
C781 C81 1.482 . S
C787 C179 1.482 . S
C801 C193 1.520 . S
C807 C95 1.521 . S
C821 C207 1.485 . S
C827 C109 1.483 . S
C841 C235 1.515 . S
C847 C263 1.518 . S
C861 C249 1.484 . S
C867 C319 1.482 . S
C881 C277 1.498 . S
C887 C333 1.503 . S
C901 C291 1.485 . S
C907 C305 1.483 . S
C921 C347 1.484 . S
C927 C473 1.487 . S
C941 C487 1.519 . S
C947 C361 1.521 . S
C961 C375 1.485 . S
C967 C501 1.488 . S
C981 C389 1.487 . S
C987 C459 1.484 . S
C1001 C557 1.500 . S
C1007 C403 1.495 . S
C1021 C515 1.492 . S
C1027 C417 1.488 . S
C1041 C529 1.484 . S
C1047 C431 1.486 . S
C1061 C543 1.519 . S
C1067 C445 1.521 . S
C1081 C571 1.482 . S
C1087 C599 1.483 . S
C1101 C585 1.489 . S
C1107 C655 1.486 . S
C1121 C613 1.513 . S
C1127 C669 1.516 . S
C1141 C641 1.497 . S
C1147 C627 1.501 . S
C1161 C120 0.947 . S
C1167 C7 1.012 . S
C1181 C134 0.934 . S
C1187 C21 1.015 . S
C1201 C35 1.011 . S
C1207 C148 0.952 . S
C1221 C49 1.020 . S
C1227 C162 0.910 . S
C1241 C63 1.013 . S
C1247 C176 0.942 . S
C1261 C77 1.025 . S
C1267 C190 0.886 . S
C1281 C91 1.012 . S
C1287 C204 0.948 . S
C1301 C218 0.909 . S
C1307 C105 1.021 . S
C1321 C119 1.015 . S
C1327 C232 0.934 . S
C1341 C330 0.919 . S
C1347 C133 1.018 . S
C1361 C147 1.023 . S
C1367 C302 0.896 . S
C1381 C161 1.021 . S
C1387 C316 0.907 . S
C1401 C175 1.023 . S
C1407 C246 0.893 . S
C1421 C189 1.019 . S
C1427 C260 0.918 . S
C1441 C203 1.025 . S
C1447 C274 0.887 . S
C1461 C288 0.933 . S
C1467 C217 1.015 . S
C1481 C8 0.910 . S
C1487 C231 1.020 . S
C1501 C245 1.018 . S
C1507 C64 0.918 . S
C1521 C259 1.013 . S
C1527 C78 0.943 . S
C1541 C273 1.013 . S
C1547 C92 0.942 . S
C1561 C106 0.911 . S
C1567 C287 1.020 . S
C1581 C301 1.024 . S
C1587 C36 0.890 . S
C1601 C315 1.015 . S
C1607 C50 0.934 . S
C1621 C22 0.890 . S
C1627 C329 1.024 . S
C1641 C456 0.948 . S
C1647 C343 1.012 . S
C1661 C357 1.024 . S
C1667 C470 0.889 . S
C1681 C371 1.019 . S
C1687 C484 0.917 . S
C1701 C498 0.941 . S
C1707 C385 1.014 . S
C1721 C512 0.954 . S
C1727 C399 1.011 . S
C1741 C413 1.022 . S
C1747 C526 0.902 . S
C1761 C540 0.953 . S
C1767 C427 1.011 . S
C1781 C554 0.899 . S
C1787 C441 1.022 . S
C1801 C455 1.025 . S
C1807 C568 0.888 . S
C1821 C469 1.011 . S
C1827 C666 0.954 . S
C1841 C483 1.021 . S
C1847 C638 0.906 . S
C1861 C652 0.902 . S
C1867 C497 1.022 . S
C1881 C511 1.011 . S
C1887 C582 0.951 . S
C1901 C525 1.014 . S
C1907 C596 0.941 . S
C1921 C610 0.901 . S
C1927 C539 1.022 . S
C1941 C624 0.954 . S
C1947 C553 1.011 . S
C1961 C567 1.022 . S
C1967 C344 0.904 . S
C1981 C581 1.011 . S
C1987 C400 0.953 . S
C2001 C414 0.952 . S
C2007 C595 1.011 . S
C2021 C609 1.025 . S
C2027 C428 0.887 . S
C2041 C623 1.024 . S
C2047 C442 0.890 . S
C2061 C372 0.911 . S
C2067 C637 1.020 . S
C2081 C651 1.020 . S
C2087 C386 0.910 . S
C2101 C358 0.949 . S
C2107 C665 1.012 . S
C2121 C447 1.251 . S
C2127 C13 1.243 . S
C2141 C27 1.266 . S
C2147 C405 1.235 . S
C2161 C419 1.265 . S
C2167 C41 1.236 . S
C2181 C433 1.268 . S
C2187 C55 1.227 . S
C2201 C69 1.275 . S
C2207 C363 1.223 . S
C2221 C377 1.241 . S
C2227 C83 1.253 . S
C2241 C391 1.241 . S
C2247 C97 1.261 . S
C2261 C111 1.236 . S
C2267 C349 1.265 . S
C2281 C629 1.242 . S
C2287 C125 1.259 . S
C2301 C139 1.243 . S
C2307 C587 1.259 . S
C2321 C153 1.243 . S
C2327 C601 1.251 . S
C2341 C615 1.224 . S
C2347 C167 1.272 . S
C2361 C671 1.270 . S
C2367 C181 1.226 . S
C2381 C643 1.238 . S
C2387 C195 1.264 . S
C2401 C209 1.236 . S
C2407 C657 1.265 . S
C2421 C573 1.256 . S
C2427 C223 1.246 . S
C2441 C237 1.269 . S
C2447 C559 1.226 . S
C2461 C475 1.275 . S
C2467 C251 1.223 . S
C2481 C265 1.227 . S
C2487 C489 1.273 . S
C2501 C503 1.273 . S
C2507 C279 1.223 . S
C2521 C461 1.239 . S
C2527 C293 1.255 . S
C2541 C307 1.252 . S
C2547 C531 1.250 . S
C2561 C545 1.257 . S
C2567 C321 1.245 . S
C2581 C517 1.228 . S
C2587 C335 1.267 . S
