# Generated by pormake.
# Topology dei, (4)-cn, num edge types: 1
# Building blocks:
#     Node 0, Type 0, BuildingBlock: ICAMEG_clean_sbu_1, # of connection points: 4
#     Node 1, Type 0, BuildingBlock: ICAMEG_clean_sbu_1, # of connection points: 4
#     Node 2, Type 0, BuildingBlock: ICAMEG_clean_sbu_1, # of connection points: 4
#     Node 3, Type 0, BuildingBlock: ICAMEG_clean_sbu_1, # of connection points: 4
#     Node 4, Type 0, BuildingBlock: ICAMEG_clean_sbu_1, # of connection points: 4
#     Node 5, Type 0, BuildingBlock: ICAMEG_clean_sbu_1, # of connection points: 4
#     Node 6, Type 0, BuildingBlock: ICAMEG_clean_sbu_1, # of connection points: 4
#     Node 7, Type 0, BuildingBlock: ICAMEG_clean_sbu_1, # of connection points: 4
#     Node 8, Type 0, BuildingBlock: ICAMEG_clean_sbu_1, # of connection points: 4
#     Node 9, Type 0, BuildingBlock: ICAMEG_clean_sbu_1, # of connection points: 4
#     Node 10, Type 0, BuildingBlock: ICAMEG_clean_sbu_1, # of connection points: 4
#     Node 11, Type 0, BuildingBlock: ICAMEG_clean_sbu_1, # of connection points: 4
#     Node 12, Type 0, BuildingBlock: ICAMEG_clean_sbu_1, # of connection points: 4
#     Node 13, Type 0, BuildingBlock: ICAMEG_clean_sbu_1, # of connection points: 4
#     Node 14, Type 0, BuildingBlock: ICAMEG_clean_sbu_1, # of connection points: 4
#     Node 15, Type 0, BuildingBlock: ICAMEG_clean_sbu_1, # of connection points: 4
#     Node 16, Type 0, BuildingBlock: ICAMEG_clean_sbu_1, # of connection points: 4
#     Node 17, Type 0, BuildingBlock: ICAMEG_clean_sbu_1, # of connection points: 4
#     Node 18, Type 0, BuildingBlock: ICAMEG_clean_sbu_1, # of connection points: 4
#     Node 19, Type 0, BuildingBlock: ICAMEG_clean_sbu_1, # of connection points: 4
#     Node 20, Type 0, BuildingBlock: ICAMEG_clean_sbu_1, # of connection points: 4
#     Node 21, Type 0, BuildingBlock: ICAMEG_clean_sbu_1, # of connection points: 4
#     Node 22, Type 0, BuildingBlock: ICAMEG_clean_sbu_1, # of connection points: 4
#     Node 23, Type 0, BuildingBlock: ICAMEG_clean_sbu_1, # of connection points: 4
#     Node 24, Type 0, BuildingBlock: ICAMEG_clean_sbu_1, # of connection points: 4
#     Node 25, Type 0, BuildingBlock: ICAMEG_clean_sbu_1, # of connection points: 4
#     Node 26, Type 0, BuildingBlock: ICAMEG_clean_sbu_1, # of connection points: 4
#     Node 27, Type 0, BuildingBlock: ICAMEG_clean_sbu_1, # of connection points: 4
#     Node 28, Type 0, BuildingBlock: ICAMEG_clean_sbu_1, # of connection points: 4
#     Node 29, Type 0, BuildingBlock: ICAMEG_clean_sbu_1, # of connection points: 4
#     Node 30, Type 0, BuildingBlock: ICAMEG_clean_sbu_1, # of connection points: 4
#     Node 31, Type 0, BuildingBlock: ICAMEG_clean_sbu_1, # of connection points: 4
#     Edge 32, Type (0, 0), BuildingBlock: UVAHIK_clean_linker_0, # of connection points: 2
#     Edge 33, Type (0, 0), BuildingBlock: UVAHIK_clean_linker_0, # of connection points: 2
#     Edge 34, Type (0, 0), BuildingBlock: UVAHIK_clean_linker_0, # of connection points: 2
#     Edge 35, Type (0, 0), BuildingBlock: UVAHIK_clean_linker_0, # of connection points: 2
#     Edge 36, Type (0, 0), BuildingBlock: UVAHIK_clean_linker_0, # of connection points: 2
#     Edge 37, Type (0, 0), BuildingBlock: UVAHIK_clean_linker_0, # of connection points: 2
#     Edge 38, Type (0, 0), BuildingBlock: UVAHIK_clean_linker_0, # of connection points: 2
#     Edge 39, Type (0, 0), BuildingBlock: UVAHIK_clean_linker_0, # of connection points: 2
#     Edge 40, Type (0, 0), BuildingBlock: UVAHIK_clean_linker_0, # of connection points: 2
#     Edge 41, Type (0, 0), BuildingBlock: UVAHIK_clean_linker_0, # of connection points: 2
#     Edge 42, Type (0, 0), BuildingBlock: UVAHIK_clean_linker_0, # of connection points: 2
#     Edge 43, Type (0, 0), BuildingBlock: UVAHIK_clean_linker_0, # of connection points: 2
#     Edge 44, Type (0, 0), BuildingBlock: UVAHIK_clean_linker_0, # of connection points: 2
#     Edge 45, Type (0, 0), BuildingBlock: UVAHIK_clean_linker_0, # of connection points: 2
#     Edge 46, Type (0, 0), BuildingBlock: UVAHIK_clean_linker_0, # of connection points: 2
#     Edge 47, Type (0, 0), BuildingBlock: UVAHIK_clean_linker_0, # of connection points: 2
#     Edge 48, Type (0, 0), BuildingBlock: UVAHIK_clean_linker_0, # of connection points: 2
#     Edge 49, Type (0, 0), BuildingBlock: UVAHIK_clean_linker_0, # of connection points: 2
#     Edge 50, Type (0, 0), BuildingBlock: UVAHIK_clean_linker_0, # of connection points: 2
#     Edge 51, Type (0, 0), BuildingBlock: UVAHIK_clean_linker_0, # of connection points: 2
#     Edge 52, Type (0, 0), BuildingBlock: UVAHIK_clean_linker_0, # of connection points: 2
#     Edge 53, Type (0, 0), BuildingBlock: UVAHIK_clean_linker_0, # of connection points: 2
#     Edge 54, Type (0, 0), BuildingBlock: UVAHIK_clean_linker_0, # of connection points: 2
#     Edge 55, Type (0, 0), BuildingBlock: UVAHIK_clean_linker_0, # of connection points: 2
#     Edge 56, Type (0, 0), BuildingBlock: UVAHIK_clean_linker_0, # of connection points: 2
#     Edge 57, Type (0, 0), BuildingBlock: UVAHIK_clean_linker_0, # of connection points: 2
#     Edge 58, Type (0, 0), BuildingBlock: UVAHIK_clean_linker_0, # of connection points: 2
#     Edge 59, Type (0, 0), BuildingBlock: UVAHIK_clean_linker_0, # of connection points: 2
#     Edge 60, Type (0, 0), BuildingBlock: UVAHIK_clean_linker_0, # of connection points: 2
#     Edge 61, Type (0, 0), BuildingBlock: UVAHIK_clean_linker_0, # of connection points: 2
#     Edge 62, Type (0, 0), BuildingBlock: UVAHIK_clean_linker_0, # of connection points: 2
#     Edge 63, Type (0, 0), BuildingBlock: UVAHIK_clean_linker_0, # of connection points: 2
#     Edge 64, Type (0, 0), BuildingBlock: UVAHIK_clean_linker_0, # of connection points: 2
#     Edge 65, Type (0, 0), BuildingBlock: UVAHIK_clean_linker_0, # of connection points: 2
#     Edge 66, Type (0, 0), BuildingBlock: UVAHIK_clean_linker_0, # of connection points: 2
#     Edge 67, Type (0, 0), BuildingBlock: UVAHIK_clean_linker_0, # of connection points: 2
#     Edge 68, Type (0, 0), BuildingBlock: UVAHIK_clean_linker_0, # of connection points: 2
#     Edge 69, Type (0, 0), BuildingBlock: UVAHIK_clean_linker_0, # of connection points: 2
#     Edge 70, Type (0, 0), BuildingBlock: UVAHIK_clean_linker_0, # of connection points: 2
#     Edge 71, Type (0, 0), BuildingBlock: UVAHIK_clean_linker_0, # of connection points: 2
#     Edge 72, Type (0, 0), BuildingBlock: UVAHIK_clean_linker_0, # of connection points: 2
#     Edge 73, Type (0, 0), BuildingBlock: UVAHIK_clean_linker_0, # of connection points: 2
#     Edge 74, Type (0, 0), BuildingBlock: UVAHIK_clean_linker_0, # of connection points: 2
#     Edge 75, Type (0, 0), BuildingBlock: UVAHIK_clean_linker_0, # of connection points: 2
#     Edge 76, Type (0, 0), BuildingBlock: UVAHIK_clean_linker_0, # of connection points: 2
#     Edge 77, Type (0, 0), BuildingBlock: UVAHIK_clean_linker_0, # of connection points: 2
#     Edge 78, Type (0, 0), BuildingBlock: UVAHIK_clean_linker_0, # of connection points: 2
#     Edge 79, Type (0, 0), BuildingBlock: UVAHIK_clean_linker_0, # of connection points: 2
#     Edge 80, Type (0, 0), BuildingBlock: UVAHIK_clean_linker_0, # of connection points: 2
#     Edge 81, Type (0, 0), BuildingBlock: UVAHIK_clean_linker_0, # of connection points: 2
#     Edge 82, Type (0, 0), BuildingBlock: UVAHIK_clean_linker_0, # of connection points: 2
#     Edge 83, Type (0, 0), BuildingBlock: UVAHIK_clean_linker_0, # of connection points: 2
#     Edge 84, Type (0, 0), BuildingBlock: UVAHIK_clean_linker_0, # of connection points: 2
#     Edge 85, Type (0, 0), BuildingBlock: UVAHIK_clean_linker_0, # of connection points: 2
#     Edge 86, Type (0, 0), BuildingBlock: UVAHIK_clean_linker_0, # of connection points: 2
#     Edge 87, Type (0, 0), BuildingBlock: UVAHIK_clean_linker_0, # of connection points: 2
#     Edge 88, Type (0, 0), BuildingBlock: UVAHIK_clean_linker_0, # of connection points: 2
#     Edge 89, Type (0, 0), BuildingBlock: UVAHIK_clean_linker_0, # of connection points: 2
#     Edge 90, Type (0, 0), BuildingBlock: UVAHIK_clean_linker_0, # of connection points: 2
#     Edge 91, Type (0, 0), BuildingBlock: UVAHIK_clean_linker_0, # of connection points: 2
#     Edge 92, Type (0, 0), BuildingBlock: UVAHIK_clean_linker_0, # of connection points: 2
#     Edge 93, Type (0, 0), BuildingBlock: UVAHIK_clean_linker_0, # of connection points: 2
#     Edge 94, Type (0, 0), BuildingBlock: UVAHIK_clean_linker_0, # of connection points: 2
#     Edge 95, Type (0, 0), BuildingBlock: UVAHIK_clean_linker_0, # of connection points: 2
# Relax obj value: 0.301
# Max RMSD: 0.140
# Mean RMSD: 0.140
data_MOF--net-dei--node1-ICAMEG_clean_sbu_1--edge1-UVAHIK_clean_linker_0
_symmetry_space_group_name_H-M    P1
_symmetry_Int_Tables_number       1
_symmetry_cell_setting            triclinic
loop_
_symmetry_equiv_pos_as_xyz
'x, y, z'
_cell_length_a     78.88511
_cell_length_b     78.968076
_cell_length_c     104.66215
_cell_angle_alpha  89.999178
_cell_angle_beta   90.004812
_cell_angle_gamma 89.997118
loop_
_atom_site_label
_atom_site_type_symbol
_atom_site_fract_x
_atom_site_fract_y
_atom_site_fract_z
_atom_type_partial_charge
Co0 Co 0.09731 0.63477 0.03869 0.0
Co1 Co 0.12129 0.62521 0.01246 0.0
O2 O 0.11284 0.61994 0.02955 0.0
C3 C 0.1238 0.62686 0.05803 0.0
O4 O 0.13553 0.6304 0.04954 0.0
C5 C 0.10752 0.5907 0.01062 0.0
O6 O 0.09379 0.59704 0.01583 0.0
O7 O 0.09774 0.62817 0.006 0.0
O8 O 0.0857 0.64165 0.02252 0.0
H9 H 0.12459 0.6581 0.97145 0.0
H10 H 0.10058 0.59898 0.0469 0.0
O11 O 0.10818 0.6282 0.05518 0.0
H12 H 0.04033 0.60627 0.03559 0.0
H13 H 0.05896 0.6509 0.07518 0.0
H14 H 0.08441 0.66961 0.03453 0.0
H15 H 0.06021 0.63026 0.03405 0.0
H16 H 0.07793 0.63194 0.06309 0.0
O17 O 0.12009 0.60035 0.00819 0.0
H18 H 0.11424 0.65181 0.99318 0.0
H19 H 0.14601 0.60847 0.99506 0.0
H20 H 0.06542 0.68893 0.04628 0.0
H21 H 0.08107 0.5747 0.04874 0.0
H22 H 0.05255 0.6796 0.06676 0.0
H23 H 0.05072 0.57824 0.043 0.0
O24 O 0.11342 0.65382 0.03673 0.0
H25 H 0.1676 0.59526 0.03646 0.0
H26 H 0.15313 0.64543 0.01061 0.0
H27 H 0.18218 0.64224 0.01898 0.0
H28 H 0.18958 0.61699 0.03199 0.0
H29 H 0.13866 0.59904 0.028 0.0
H30 H 0.15661 0.61419 0.9733 0.0
H31 H 0.14593 0.63921 0.96137 0.0
O32 O 0.12252 0.65025 0.01656 0.0
C33 C 0.08566 0.63664 0.01094 0.0
C34 C 0.12939 0.6472 0.97657 0.0
C35 C 0.14734 0.62254 0.9776 0.0
N36 N 0.12964 0.62989 0.99541 0.0
C37 C 0.12361 0.64361 0.98889 0.0
C38 C 0.14127 0.61934 0.9899 0.0
C39 C 0.14135 0.63658 0.97091 0.0
C40 C 0.08734 0.60068 0.04454 0.0
N41 N 0.08154 0.61604 0.04041 0.0
C42 C 0.07637 0.58686 0.04554 0.0
C43 C 0.05936 0.58885 0.0423 0.0
C44 C 0.05352 0.60457 0.03813 0.0
C45 C 0.06486 0.6181 0.03724 0.0
C46 C 0.06446 0.6551 0.06626 0.0
C47 C 0.07878 0.66542 0.0434 0.0
C48 C 0.07524 0.64443 0.05938 0.0
N49 N 0.08217 0.64962 0.04807 0.0
C50 C 0.06807 0.67643 0.05003 0.0
C51 C 0.06087 0.6712 0.06152 0.0
C52 C 0.12059 0.65931 0.02662 0.0
C53 C 0.16455 0.60629 0.03077 0.0
C54 C 0.15623 0.63444 0.0163 0.0
C55 C 0.17272 0.63268 0.02099 0.0
C56 C 0.17687 0.6185 0.02828 0.0
N57 N 0.14423 0.62239 0.01878 0.0
C58 C 0.1482 0.60846 0.02591 0.0
Co59 Co 0.62666 0.87136 0.26254 0.0
Co60 Co 0.61492 0.84838 0.2887 0.0
O61 O 0.63078 0.86326 0.2799 0.0
C62 C 0.66119 0.85716 0.26185 0.0
O63 O 0.65456 0.84365 0.26717 0.0
C64 C 0.62275 0.87476 0.30823 0.0
O65 O 0.61974 0.88664 0.29975 0.0
O66 O 0.59654 0.8651 0.28604 0.0
O67 O 0.60144 0.87314 0.26579 0.0
H68 H 0.55932 0.81843 0.29487 0.0
H69 H 0.65215 0.88868 0.27873 0.0
O70 O 0.65172 0.86973 0.25905 0.0
H71 H 0.6103 0.93264 0.26753 0.0
H72 H 0.6404 0.90541 0.22323 0.0
H73 H 0.60108 0.86414 0.24252 0.0
H74 H 0.60712 0.90346 0.25948 0.0
H75 H 0.64474 0.89537 0.24532 0.0
O76 O 0.62107 0.85922 0.30529 0.0
H77 H 0.57988 0.83658 0.28359 0.0
H78 H 0.6158 0.82933 0.31332 0.0
H79 H 0.59617 0.87395 0.22044 0.0
H80 H 0.65591 0.91775 0.2869 0.0
H81 H 0.61592 0.89473 0.21066 0.0
H82 H 0.63486 0.93995 0.28132 0.0
O83 O 0.62375 0.84769 0.25638 0.0
H84 H 0.6739 0.83022 0.30063 0.0
H85 H 0.61834 0.81109 0.28455 0.0
H86 H 0.64155 0.79043 0.28697 0.0
H87 H 0.66956 0.79995 0.29508 0.0
H88 H 0.65042 0.85052 0.2979 0.0
H89 H 0.59558 0.81119 0.32498 0.0
H90 H 0.56713 0.80558 0.31573 0.0
O91 O 0.60848 0.83675 0.27243 0.0
C92 C 0.5918 0.87197 0.2756 0.0
C93 C 0.5717 0.82073 0.29899 0.0
C94 C 0.59204 0.81669 0.31589 0.0
N95 N 0.59907 0.83392 0.29774 0.0
C96 C 0.58341 0.83097 0.29263 0.0
C97 C 0.60342 0.82701 0.30926 0.0
C98 C 0.57608 0.81355 0.31069 0.0
C99 C 0.64303 0.89831 0.27617 0.0
N100 N 0.62948 0.8944 0.26859 0.0
C101 C 0.64518 0.91473 0.28086 0.0
C102 C 0.63336 0.92717 0.27775 0.0
C103 C 0.61957 0.92308 0.27002 0.0
C104 C 0.61781 0.90652 0.26551 0.0
C105 C 0.63168 0.89638 0.2274 0.0
C106 C 0.60965 0.87327 0.23835 0.0
C107 C 0.6341 0.89063 0.23989 0.0
N108 N 0.62308 0.8793 0.24523 0.0
C109 C 0.60684 0.87874 0.22584 0.0
C110 C 0.61794 0.89039 0.22035 0.0
C111 C 0.61455 0.83603 0.26115 0.0
C112 C 0.66173 0.82591 0.29712 0.0
C113 C 0.63052 0.81536 0.28803 0.0
C114 C 0.64359 0.80359 0.28942 0.0
C115 C 0.6593 0.80893 0.29398 0.0
N116 N 0.63301 0.83201 0.2911 0.0
C117 C 0.64836 0.83733 0.29562 0.0
Co118 Co 0.40517 0.36715 0.53849 0.0
Co119 Co 0.38135 0.37733 0.51235 0.0
O120 O 0.38978 0.38229 0.52949 0.0
C121 C 0.37886 0.37517 0.55797 0.0
O122 O 0.36702 0.37179 0.54952 0.0
C123 C 0.39516 0.41185 0.51085 0.0
O124 O 0.40887 0.40543 0.51604 0.0
O125 O 0.40491 0.37443 0.50591 0.0
O126 O 0.41666 0.36034 0.52226 0.0
H127 H 0.3781 0.34514 0.47101 0.0
H128 H 0.40238 0.40288 0.54697 0.0
O129 O 0.39444 0.37367 0.55504 0.0
H130 H 0.46251 0.39497 0.53555 0.0
H131 H 0.44341 0.35009 0.57481 0.0
H132 H 0.41764 0.33222 0.53406 0.0
H133 H 0.44232 0.37126 0.53385 0.0
H134 H 0.42464 0.36943 0.56289 0.0
O135 O 0.3826 0.40224 0.50831 0.0
H136 H 0.3884 0.35105 0.49282 0.0
H137 H 0.3567 0.39442 0.49506 0.0
H138 H 0.43643 0.31252 0.54562 0.0
H139 H 0.4222 0.42688 0.54898 0.0
H140 H 0.44947 0.32143 0.56616 0.0
H141 H 0.45249 0.42303 0.54318 0.0
O142 O 0.3888 0.34835 0.53642 0.0
H143 H 0.33506 0.40699 0.53657 0.0
H144 H 0.34944 0.35725 0.51022 0.0
H145 H 0.32037 0.36038 0.51858 0.0
H146 H 0.31302 0.38542 0.53183 0.0
H147 H 0.36401 0.40327 0.52813 0.0
H148 H 0.34616 0.38908 0.47323 0.0
H149 H 0.35682 0.36424 0.46108 0.0
O150 O 0.38001 0.35223 0.5162 0.0
C151 C 0.41688 0.36572 0.51077 0.0
C152 C 0.37331 0.35597 0.47623 0.0
C153 C 0.3554 0.38064 0.47746 0.0
N154 N 0.37303 0.37296 0.49524 0.0
C155 C 0.37905 0.35934 0.48859 0.0
C156 C 0.36144 0.38362 0.48981 0.0
C157 C 0.36139 0.3667 0.47065 0.0
C158 C 0.41558 0.40104 0.54459 0.0
N159 N 0.42118 0.38566 0.54033 0.0
C160 C 0.42673 0.4147 0.54568 0.0
C161 C 0.44372 0.41254 0.5424 0.0
C162 C 0.44934 0.39681 0.53811 0.0
C163 C 0.43783 0.38344 0.53712 0.0
C164 C 0.43783 0.34607 0.56586 0.0
C165 C 0.42334 0.33622 0.54295 0.0
C166 C 0.42716 0.35696 0.55908 0.0
N167 N 0.42015 0.352 0.54774 0.0
C168 C 0.43393 0.325 0.54947 0.0
C169 C 0.44123 0.33 0.561 0.0
C170 C 0.38171 0.34305 0.52622 0.0
C171 C 0.33809 0.39605 0.53078 0.0
C172 C 0.34635 0.36815 0.51603 0.0
C173 C 0.32986 0.36987 0.5207 0.0
C174 C 0.32574 0.38393 0.52813 0.0
N175 N 0.35839 0.3801 0.51865 0.0
C176 C 0.35445 0.39391 0.52592 0.0
Co177 Co 0.87763 0.12837 0.76156 0.0
Co178 Co 0.889 0.14762 0.78981 0.0
O179 O 0.87378 0.13345 0.77968 0.0
C180 C 0.84309 0.14223 0.76275 0.0
O181 O 0.84983 0.15475 0.76925 0.0
C182 C 0.87743 0.11951 0.80759 0.0
O183 O 0.86864 0.112 0.7986 0.0
O184 O 0.90837 0.13318 0.78483 0.0
O185 O 0.9029 0.12645 0.76436 0.0
H186 H 0.94256 0.18052 0.79749 0.0
H187 H 0.85191 0.10786 0.77535 0.0
O188 O 0.85251 0.13035 0.75854 0.0
H189 H 0.89502 0.06703 0.7607 0.0
H190 H 0.86338 0.10085 0.71954 0.0
H191 H 0.90278 0.13903 0.7421 0.0
H192 H 0.89794 0.09743 0.75583 0.0
H193 H 0.8594 0.10718 0.74243 0.0
O194 O 0.88566 0.13308 0.80535 0.0
H195 H 0.9226 0.16316 0.78495 0.0
H196 H 0.88856 0.16144 0.81637 0.0
H197 H 0.90732 0.13294 0.71923 0.0
H198 H 0.84837 0.07754 0.78028 0.0
H199 H 0.88753 0.11372 0.70781 0.0
H200 H 0.87006 0.05689 0.77299 0.0
O201 O 0.88018 0.15283 0.75747 0.0
H202 H 0.8292 0.159 0.80444 0.0
H203 H 0.88303 0.18486 0.79061 0.0
H204 H 0.85881 0.2032 0.79601 0.0
H205 H 0.83166 0.19029 0.80303 0.0
H206 H 0.85359 0.14116 0.79879 0.0
H207 H 0.90822 0.17867 0.82929 0.0
H208 H 0.93541 0.18839 0.81983 0.0
O209 O 0.89324 0.16286 0.7749 0.0
C210 C 0.91287 0.1273 0.774 0.0
C211 C 0.93072 0.17642 0.80171 0.0
C212 C 0.91146 0.17536 0.81955 0.0
N213 N 0.90435 0.16144 0.79987 0.0
C214 C 0.91934 0.16663 0.79464 0.0
C215 C 0.90039 0.16558 0.8122 0.0
C216 C 0.92671 0.18081 0.81424 0.0
C217 C 0.86135 0.09896 0.77207 0.0
N218 N 0.87516 0.10445 0.76538 0.0
C219 C 0.8593 0.0818 0.77493 0.0
C220 C 0.87149 0.07023 0.77085 0.0
C221 C 0.88551 0.07591 0.76397 0.0
C222 C 0.88714 0.09316 0.7613 0.0
C223 C 0.87211 0.10921 0.72442 0.0
C224 C 0.89419 0.13057 0.73721 0.0
C225 C 0.86991 0.11287 0.73737 0.0
N226 N 0.88094 0.12334 0.74361 0.0
C227 C 0.89679 0.1272 0.72425 0.0
C228 C 0.88567 0.11643 0.71784 0.0
C229 C 0.88803 0.16447 0.76344 0.0
C230 C 0.84101 0.16478 0.8015 0.0
C231 C 0.87129 0.1791 0.79369 0.0
C232 C 0.85761 0.18958 0.79673 0.0
C233 C 0.84238 0.18234 0.80067 0.0
N234 N 0.86991 0.16188 0.7946 0.0
C235 C 0.85497 0.15471 0.7984 0.0
Co236 Co 0.10881 0.3643 0.95914 0.0
Co237 Co 0.12528 0.37581 0.98815 0.0
O238 O 0.12153 0.38001 0.96989 0.0
C239 C 0.13657 0.37861 0.9421 0.0
O240 O 0.14267 0.38837 0.95113 0.0
C241 C 0.11153 0.4104 0.98676 0.0
O242 O 0.0995 0.4038 0.97968 0.0
O243 O 0.1005 0.37323 0.99103 0.0
O244 O 0.0932 0.35852 0.97357 0.0
H245 H 0.11734 0.34551 0.02994 0.0
H246 H 0.11304 0.40044 0.95098 0.0
O247 O 0.12382 0.36905 0.94408 0.0
H248 H 0.05143 0.3905 0.95188 0.0
H249 H 0.08102 0.34425 0.91853 0.0
H250 H 0.09529 0.32963 0.96305 0.0
H251 H 0.07129 0.36759 0.95741 0.0
H252 H 0.09626 0.3646 0.93222 0.0
O253 O 0.12311 0.40088 0.99134 0.0
H254 H 0.11303 0.35043 0.00689 0.0
H255 H 0.14502 0.39364 0.00834 0.0
H256 H 0.07993 0.30896 0.94972 0.0
H257 H 0.09369 0.42355 0.94518 0.0
H258 H 0.07269 0.31623 0.92728 0.0
H259 H 0.06259 0.41872 0.94565 0.0
O260 O 0.12434 0.34589 0.96421 0.0
H261 H 0.17746 0.40499 0.97158 0.0
H262 H 0.15578 0.35551 0.99521 0.0
H263 H 0.18652 0.35839 0.99158 0.0
H264 H 0.19755 0.3833 0.97971 0.0
H265 H 0.14679 0.40151 0.97531 0.0
H266 H 0.14957 0.38928 0.03144 0.0
H267 H 0.13574 0.36502 0.04237 0.0
O268 O 0.12741 0.35049 0.98525 0.0
C269 C 0.09004 0.36428 0.98469 0.0
C270 C 0.12349 0.35608 0.02528 0.0
C271 C 0.14156 0.38066 0.02612 0.0
N272 N 0.1289 0.3722 0.00627 0.0
C273 C 0.12114 0.3589 0.01222 0.0
C274 C 0.13892 0.38309 0.01305 0.0
C275 C 0.1338 0.36705 0.03225 0.0
C276 C 0.09963 0.39801 0.95093 0.0
N277 N 0.09343 0.38248 0.95428 0.0
C278 C 0.08867 0.41126 0.94775 0.0
C279 C 0.07123 0.40856 0.94806 0.0
C280 C 0.06496 0.39274 0.95156 0.0
C281 C 0.0763 0.3798 0.95469 0.0
C282 C 0.08407 0.34095 0.9283 0.0
C283 C 0.09209 0.33294 0.95333 0.0
C284 C 0.09272 0.35241 0.93609 0.0
N285 N 0.09653 0.34837 0.94847 0.0
C286 C 0.08343 0.32116 0.94581 0.0
C287 C 0.07939 0.32523 0.93322 0.0
C288 C 0.12848 0.34096 0.97537 0.0
C289 C 0.17281 0.39407 0.97676 0.0
C290 C 0.16045 0.3663 0.98993 0.0
C291 C 0.17789 0.36791 0.98796 0.0
C292 C 0.18407 0.38189 0.98131 0.0
N293 N 0.14948 0.37829 0.98541 0.0
C294 C 0.15545 0.39205 0.97892 0.0
Co295 Co 0.87644 0.87438 0.24037 0.0
Co296 Co 0.88895 0.85706 0.21185 0.0
O297 O 0.87283 0.87001 0.22211 0.0
C298 C 0.84192 0.86028 0.23877 0.0
O299 O 0.8487 0.84813 0.23191 0.0
C300 C 0.87518 0.88439 0.1942 0.0
O301 O 0.86531 0.89077 0.20305 0.0
O302 O 0.90724 0.87273 0.21699 0.0
O303 O 0.90179 0.87672 0.23782 0.0
H304 H 0.94463 0.82801 0.20383 0.0
H305 H 0.8508 0.89517 0.22678 0.0
O306 O 0.85129 0.87205 0.24323 0.0
H307 H 0.8931 0.93584 0.24296 0.0
H308 H 0.86152 0.89985 0.28299 0.0
H309 H 0.90145 0.86301 0.2597 0.0
H310 H 0.89624 0.90528 0.24717 0.0
H311 H 0.85784 0.89454 0.25992 0.0
O312 O 0.88462 0.87164 0.19646 0.0
H313 H 0.92354 0.8437 0.21656 0.0
H314 H 0.88947 0.8438 0.18512 0.0
H315 H 0.9057 0.86809 0.28274 0.0
H316 H 0.84707 0.92565 0.22247 0.0
H317 H 0.88564 0.88662 0.29454 0.0
H318 H 0.86835 0.94621 0.23055 0.0
O319 O 0.87918 0.84975 0.24374 0.0
H320 H 0.83012 0.84155 0.19703 0.0
H321 H 0.88571 0.81953 0.21067 0.0
H322 H 0.86296 0.79954 0.20504 0.0
H323 H 0.83492 0.81051 0.19809 0.0
H324 H 0.85307 0.86105 0.20295 0.0
H325 H 0.91026 0.82824 0.17202 0.0
H326 H 0.93804 0.82017 0.18138 0.0
O327 O 0.89433 0.84189 0.22662 0.0
C328 C 0.9117 0.87742 0.22814 0.0
C329 C 0.93254 0.83139 0.19965 0.0
C330 C 0.91326 0.83154 0.1818 0.0
N331 N 0.90522 0.84453 0.20164 0.0
C332 C 0.92052 0.84024 0.20683 0.0
C333 C 0.90155 0.84039 0.18926 0.0
C334 C 0.92885 0.82702 0.18706 0.0
C335 C 0.86008 0.90404 0.23037 0.0
N336 N 0.87377 0.89843 0.23715 0.0
C337 C 0.85792 0.92128 0.22788 0.0
C338 C 0.86987 0.93281 0.2324 0.0
C339 C 0.88377 0.927 0.23935 0.0
C340 C 0.88553 0.90966 0.24165 0.0
C341 C 0.87037 0.89178 0.27795 0.0
C342 C 0.89274 0.87118 0.26476 0.0
C343 C 0.86833 0.8887 0.2649 0.0
N344 N 0.87951 0.8786 0.25846 0.0
C345 C 0.89518 0.87397 0.27781 0.0
C346 C 0.88391 0.88436 0.28442 0.0
C347 C 0.88836 0.83915 0.23774 0.0
C348 C 0.84233 0.83661 0.19992 0.0
C349 C 0.87358 0.82446 0.20764 0.0
C350 C 0.86073 0.81305 0.20445 0.0
C351 C 0.84501 0.8192 0.20056 0.0
N352 N 0.87092 0.84155 0.20691 0.0
C353 C 0.85548 0.84765 0.20317 0.0
Co354 Co 0.39662 0.63745 0.46002 0.0
Co355 Co 0.37736 0.62681 0.48839 0.0
O356 O 0.38251 0.62243 0.47034 0.0
C357 C 0.36893 0.62486 0.44219 0.0
O358 O 0.36154 0.61598 0.45119 0.0
C359 C 0.39126 0.59229 0.48773 0.0
O360 O 0.40373 0.59892 0.48111 0.0
O361 O 0.40182 0.62947 0.49249 0.0
O362 O 0.41167 0.64238 0.47494 0.0
H363 H 0.38179 0.65759 0.53027 0.0
H364 H 0.39076 0.60169 0.45165 0.0
O365 O 0.38227 0.63345 0.44447 0.0
H366 H 0.45274 0.60793 0.45465 0.0
H367 H 0.42784 0.6558 0.42037 0.0
H368 H 0.41167 0.67137 0.46435 0.0
H369 H 0.43398 0.632 0.45954 0.0
H370 H 0.41074 0.63634 0.43355 0.0
O371 O 0.37933 0.60177 0.49182 0.0
H372 H 0.38799 0.65243 0.5075 0.0
H373 H 0.35604 0.60915 0.50774 0.0
H374 H 0.4289 0.69114 0.45154 0.0
H375 H 0.40903 0.57744 0.44649 0.0
H376 H 0.4371 0.68339 0.42938 0.0
H377 H 0.4403 0.58041 0.44801 0.0
O378 O 0.38185 0.65674 0.46457 0.0
H379 H 0.32657 0.59716 0.4699 0.0
H380 H 0.34636 0.64724 0.49375 0.0
H381 H 0.31596 0.64423 0.4888 0.0
H382 H 0.30587 0.61901 0.47682 0.0
H383 H 0.3569 0.60078 0.47491 0.0
H384 H 0.34961 0.61374 0.53055 0.0
H385 H 0.36247 0.63816 0.54195 0.0
O386 O 0.37548 0.65203 0.4852 0.0
C387 C 0.41334 0.63741 0.48645 0.0
C388 C 0.37606 0.64695 0.5254 0.0
C389 C 0.35801 0.62232 0.52556 0.0
N390 N 0.37225 0.63061 0.50628 0.0
C391 C 0.37948 0.644 0.5125 0.0
C392 C 0.36172 0.61977 0.51265 0.0
C393 C 0.36523 0.63603 0.53195 0.0
C394 C 0.40429 0.60329 0.45207 0.0
N395 N 0.4112 0.61843 0.45565 0.0
C396 C 0.41462 0.58941 0.44925 0.0
C397 C 0.43215 0.59107 0.45015 0.0
C398 C 0.43914 0.6065 0.45388 0.0
C399 C 0.42842 0.62009 0.45664 0.0
C400 C 0.42438 0.6593 0.43003 0.0
C401 C 0.41529 0.66786 0.45475 0.0
C402 C 0.41468 0.64835 0.43753 0.0
N403 N 0.41035 0.65265 0.44976 0.0
C404 C 0.425 0.67913 0.44752 0.0
C405 C 0.42958 0.67478 0.43509 0.0
C406 C 0.37616 0.66163 0.47535 0.0
C407 C 0.33081 0.6082 0.47512 0.0
C408 C 0.34212 0.63632 0.48841 0.0
C409 C 0.32486 0.63464 0.4857 0.0
C410 C 0.31921 0.62048 0.47899 0.0
N411 N 0.35343 0.62425 0.48455 0.0
C412 C 0.34797 0.6103 0.47802 0.0
Co413 Co 0.62776 0.12737 0.74191 0.0
Co414 Co 0.61894 0.14263 0.71198 0.0
O415 O 0.63314 0.13002 0.7238 0.0
C416 C 0.66227 0.14126 0.74129 0.0
O417 O 0.65589 0.15303 0.73386 0.0
C418 C 0.6156 0.1173 0.69122 0.0
O419 O 0.59931 0.11679 0.69374 0.0
O420 O 0.59928 0.12848 0.71696 0.0
O421 O 0.60274 0.12503 0.73812 0.0
H422 H 0.56581 0.17259 0.69815 0.0
H423 H 0.65377 0.10538 0.72991 0.0
O424 O 0.65263 0.12976 0.74584 0.0
H425 H 0.61047 0.06637 0.74691 0.0
H426 H 0.63863 0.10568 0.78637 0.0
H427 H 0.60111 0.14045 0.7593 0.0
H428 H 0.60738 0.09725 0.74957 0.0
H429 H 0.64441 0.10894 0.76333 0.0
O430 O 0.62545 0.12624 0.69813 0.0
H431 H 0.58441 0.15736 0.71321 0.0
H432 H 0.62278 0.15386 0.68486 0.0
H433 H 0.59476 0.13741 0.78226 0.0
H434 H 0.65744 0.07458 0.72713 0.0
H435 H 0.6136 0.11992 0.79596 0.0
H436 H 0.63568 0.05485 0.73565 0.0
O437 O 0.62488 0.15226 0.74395 0.0
H438 H 0.67968 0.15276 0.69967 0.0
H439 H 0.62495 0.17987 0.70968 0.0
H440 H 0.64975 0.19768 0.70468 0.0
H441 H 0.67735 0.18413 0.6996 0.0
H442 H 0.65462 0.13543 0.70488 0.0
H443 H 0.60456 0.16897 0.66947 0.0
H444 H 0.57586 0.17848 0.6761 0.0
O445 O 0.61245 0.15944 0.72543 0.0
C446 C 0.59369 0.12438 0.72797 0.0
C447 C 0.5783 0.16854 0.69515 0.0
C448 C 0.60005 0.16651 0.67906 0.0
N449 N 0.60469 0.1548 0.69994 0.0
C450 C 0.5889 0.15994 0.70365 0.0
C451 C 0.6103 0.15795 0.68781 0.0
C452 C 0.58395 0.17184 0.68278 0.0
C453 C 0.6443 0.09687 0.73371 0.0
N454 N 0.63043 0.1031 0.73995 0.0
C455 C 0.64642 0.07944 0.73208 0.0
C456 C 0.6342 0.06838 0.73685 0.0
C457 C 0.62005 0.07484 0.74316 0.0
C458 C 0.61835 0.09233 0.74461 0.0
C459 C 0.6303 0.1133 0.78049 0.0
C460 C 0.60929 0.13272 0.76518 0.0
C461 C 0.63354 0.11522 0.76745 0.0
N462 N 0.62302 0.12475 0.75997 0.0
C463 C 0.60567 0.13109 0.77819 0.0
C464 C 0.61626 0.12129 0.78587 0.0
C465 C 0.61692 0.1627 0.73688 0.0
C466 C 0.6677 0.15881 0.70181 0.0
C467 C 0.63693 0.17387 0.70752 0.0
C468 C 0.65092 0.18402 0.70466 0.0
C469 C 0.6664 0.17641 0.7018 0.0
N470 N 0.6383 0.15661 0.70751 0.0
C471 C 0.65344 0.14906 0.7047 0.0
Co472 Co 0.89367 0.36401 0.95894 0.0
Co473 Co 0.87714 0.37552 0.98793 0.0
O474 O 0.88092 0.37971 0.96967 0.0
C475 C 0.86584 0.37823 0.94191 0.0
O476 O 0.85968 0.3879 0.95097 0.0
C477 C 0.89097 0.41005 0.98655 0.0
O478 O 0.90307 0.40341 0.97956 0.0
O479 O 0.90191 0.3729 0.99084 0.0
O480 O 0.90929 0.35827 0.97337 0.0
H481 H 0.88495 0.34523 0.02974 0.0
H482 H 0.88934 0.40013 0.95077 0.0
O483 O 0.87865 0.36874 0.94386 0.0
H484 H 0.95098 0.39037 0.95171 0.0
H485 H 0.92152 0.34402 0.91833 0.0
H486 H 0.90724 0.32938 0.96285 0.0
H487 H 0.93119 0.36739 0.95721 0.0
H488 H 0.90623 0.36434 0.93202 0.0
O489 O 0.87933 0.40058 0.99109 0.0
H490 H 0.88931 0.35012 0.00669 0.0
H491 H 0.8574 0.3934 0.0081 0.0
H492 H 0.92266 0.30873 0.94953 0.0
H493 H 0.90863 0.42331 0.945 0.0
H494 H 0.92991 0.31601 0.9271 0.0
H495 H 0.93974 0.41857 0.94549 0.0
O496 O 0.87817 0.34559 0.964 0.0
H497 H 0.82501 0.4048 0.97134 0.0
H498 H 0.8466 0.35526 0.99496 0.0
H499 H 0.81587 0.3582 0.99131 0.0
H500 H 0.80488 0.38314 0.97944 0.0
H501 H 0.85567 0.40127 0.97508 0.0
H502 H 0.85281 0.38907 0.03119 0.0
H503 H 0.86658 0.36479 0.04214 0.0
O504 O 0.87497 0.35023 0.98503 0.0
C505 C 0.9124 0.364 0.98451 0.0
C506 C 0.87883 0.35582 0.02506 0.0
C507 C 0.8608 0.38043 0.02588 0.0
N508 N 0.87348 0.37193 0.00604 0.0
C509 C 0.88121 0.35862 0.01201 0.0
C510 C 0.86348 0.38284 0.01281 0.0
C511 C 0.86853 0.36681 0.03202 0.0
C512 C 0.90277 0.39775 0.95073 0.0
N513 N 0.90901 0.38223 0.95407 0.0
C514 C 0.91369 0.41103 0.94757 0.0
C515 C 0.93114 0.40838 0.94788 0.0
C516 C 0.93744 0.39257 0.95138 0.0
C517 C 0.92614 0.3796 0.95449 0.0
C518 C 0.91847 0.34072 0.9281 0.0
C519 C 0.91044 0.33268 0.95313 0.0
C520 C 0.90979 0.35216 0.93589 0.0
N521 N 0.90598 0.34811 0.94826 0.0
C522 C 0.91913 0.32092 0.94562 0.0
C523 C 0.92318 0.32501 0.93303 0.0
C524 C 0.87394 0.34069 0.97516 0.0
C525 C 0.82964 0.39387 0.97651 0.0
C526 C 0.84195 0.36607 0.98967 0.0
C527 C 0.82452 0.3677 0.98769 0.0
C528 C 0.81836 0.38171 0.98105 0.0
N529 N 0.85294 0.37804 0.98516 0.0
C530 C 0.84699 0.39182 0.97868 0.0
Co531 Co 0.3885 0.14448 0.71072 0.0
Co532 Co 0.37734 0.12671 0.73942 0.0
O533 O 0.37303 0.13117 0.72126 0.0
C534 C 0.37478 0.11687 0.6933 0.0
O535 O 0.36536 0.11023 0.70232 0.0
C536 C 0.34275 0.14054 0.73849 0.0
O537 O 0.34932 0.15285 0.73168 0.0
O538 O 0.37992 0.15132 0.74288 0.0
O539 O 0.39406 0.15971 0.72542 0.0
H540 H 0.40793 0.13294 0.78126 0.0
H541 H 0.35244 0.13976 0.7025 0.0
O542 O 0.38396 0.12986 0.6954 0.0
H543 H 0.36107 0.20146 0.70456 0.0
H544 H 0.40788 0.17384 0.67056 0.0
H545 H 0.42296 0.15849 0.7148 0.0
H546 H 0.38444 0.18194 0.7097 0.0
H547 H 0.38784 0.15785 0.68403 0.0
O548 O 0.35228 0.12875 0.74273 0.0
H549 H 0.40286 0.13818 0.75834 0.0
H550 H 0.35961 0.10617 0.7592 0.0
H551 H 0.44332 0.1746 0.70169 0.0
H552 H 0.32887 0.15878 0.6971 0.0
H553 H 0.43582 0.18239 0.6794 0.0
H554 H 0.33304 0.18992 0.69814 0.0
O555 O 0.40724 0.12916 0.71547 0.0
H556 H 0.34794 0.07523 0.72188 0.0
H557 H 0.39777 0.096 0.74563 0.0
H558 H 0.39485 0.06545 0.74133 0.0
H559 H 0.36978 0.05487 0.7294 0.0
H560 H 0.35146 0.10571 0.72626 0.0
H561 H 0.36412 0.10069 0.78216 0.0
H562 H 0.38847 0.11407 0.79333 0.0
O563 O 0.40262 0.12473 0.73637 0.0
C564 C 0.38858 0.16218 0.73672 0.0
C565 C 0.39731 0.12699 0.7765 0.0
C566 C 0.37271 0.1089 0.777 0.0
N567 N 0.38106 0.12236 0.75743 0.0
C568 C 0.39441 0.12987 0.76351 0.0
C569 C 0.3702 0.11208 0.76401 0.0
C570 C 0.38638 0.11641 0.78326 0.0
C571 C 0.35457 0.15321 0.70271 0.0
N572 N 0.36999 0.15962 0.70617 0.0
C573 C 0.34107 0.16397 0.69976 0.0
C574 C 0.3434 0.18143 0.70039 0.0
C575 C 0.35911 0.18791 0.70399 0.0
C576 C 0.37231 0.17677 0.70689 0.0
C577 C 0.41128 0.17056 0.68027 0.0
C578 C 0.41956 0.16193 0.70514 0.0
C579 C 0.39999 0.16148 0.68794 0.0
N580 N 0.40416 0.15737 0.70024 0.0
C581 C 0.43116 0.17101 0.69775 0.0
C582 C 0.42695 0.17536 0.68524 0.0
C583 C 0.41218 0.12438 0.72648 0.0
C584 C 0.35893 0.07968 0.72708 0.0
C585 C 0.38691 0.09153 0.74032 0.0
C586 C 0.38528 0.0742 0.73797 0.0
C587 C 0.3712 0.06827 0.73129 0.0
N588 N 0.37484 0.10266 0.73613 0.0
C589 C 0.36098 0.09693 0.72962 0.0
Co590 Co 0.60217 0.63851 0.45933 0.0
Co591 Co 0.62226 0.62846 0.48753 0.0
O592 O 0.61676 0.62383 0.46958 0.0
C593 C 0.63005 0.62678 0.44142 0.0
O594 O 0.6382 0.61895 0.4506 0.0
C595 C 0.6087 0.59379 0.48727 0.0
O596 O 0.59597 0.60022 0.48081 0.0
O597 O 0.59787 0.63095 0.49194 0.0
O598 O 0.58736 0.64334 0.47439 0.0
H599 H 0.61851 0.65975 0.52924 0.0
H600 H 0.60869 0.60298 0.45093 0.0
O601 O 0.61622 0.6346 0.44362 0.0
H602 H 0.54664 0.6076 0.45495 0.0
H603 H 0.56967 0.65582 0.42 0.0
H604 H 0.58667 0.67223 0.46362 0.0
H605 H 0.56492 0.63219 0.45944 0.0
H606 H 0.58742 0.63682 0.43307 0.0
O607 O 0.62061 0.60345 0.49114 0.0
H608 H 0.61185 0.65425 0.50658 0.0
H609 H 0.64415 0.61122 0.50674 0.0
H610 H 0.56879 0.69155 0.45092 0.0
H611 H 0.5909 0.5782 0.44619 0.0
H612 H 0.56017 0.68337 0.42894 0.0
H613 H 0.55961 0.58036 0.44823 0.0
O614 O 0.61668 0.65811 0.46359 0.0
H615 H 0.67296 0.59895 0.46877 0.0
H616 H 0.65316 0.64928 0.49232 0.0
H617 H 0.68349 0.64645 0.48708 0.0
H618 H 0.69359 0.62111 0.47525 0.0
H619 H 0.6427 0.60241 0.47404 0.0
H620 H 0.65105 0.61616 0.52943 0.0
H621 H 0.63824 0.64062 0.54081 0.0
O622 O 0.62384 0.65365 0.48413 0.0
C623 C 0.58607 0.63858 0.48597 0.0
C624 C 0.62422 0.64909 0.52437 0.0
C625 C 0.64246 0.62461 0.52448 0.0
N626 N 0.62773 0.63253 0.50532 0.0
C627 C 0.62054 0.64594 0.51153 0.0
C628 C 0.63849 0.62186 0.51164 0.0
C629 C 0.63528 0.63834 0.53086 0.0
C630 C 0.59512 0.6042 0.4516 0.0
N631 N 0.58791 0.61917 0.45525 0.0
C632 C 0.58508 0.59004 0.449 0.0
C633 C 0.56754 0.59125 0.45019 0.0
C634 C 0.56026 0.60652 0.45396 0.0
C635 C 0.57069 0.62041 0.4565 0.0
C636 C 0.5733 0.6595 0.42958 0.0
C637 C 0.58287 0.66853 0.4541 0.0
C638 C 0.58337 0.64881 0.43702 0.0
N639 N 0.58793 0.65334 0.44915 0.0
C640 C 0.57279 0.67955 0.44694 0.0
C641 C 0.56797 0.67496 0.4346 0.0
C642 C 0.62273 0.66314 0.47423 0.0
C643 C 0.66872 0.61005 0.47393 0.0
C644 C 0.65741 0.63831 0.48704 0.0
C645 C 0.67462 0.63673 0.48417 0.0
C646 C 0.68028 0.6225 0.47755 0.0
N647 N 0.64613 0.62607 0.48342 0.0
C648 C 0.6516 0.61205 0.47698 0.0
Co649 Co 0.11446 0.85831 0.21199 0.0
Co650 Co 0.12684 0.87586 0.24046 0.0
O651 O 0.13047 0.87146 0.22221 0.0
C652 C 0.12796 0.88571 0.1943 0.0
O653 O 0.13779 0.8922 0.20314 0.0
C654 C 0.16152 0.86214 0.23888 0.0
O655 O 0.15486 0.8498 0.23215 0.0
O656 O 0.12438 0.85122 0.24388 0.0
O657 O 0.10925 0.84316 0.22681 0.0
H658 H 0.09774 0.86943 0.28288 0.0
H659 H 0.15031 0.86258 0.20309 0.0
O660 O 0.11864 0.87287 0.19658 0.0
H661 H 0.14096 0.801 0.2053 0.0
H662 H 0.09336 0.82914 0.17225 0.0
H663 H 0.08001 0.84465 0.21676 0.0
H664 H 0.11803 0.82081 0.2109 0.0
H665 H 0.11403 0.84494 0.1853 0.0
O666 O 0.15202 0.87385 0.24328 0.0
H667 H 0.102 0.8643 0.25985 0.0
H668 H 0.14524 0.89633 0.25994 0.0
H669 H 0.05904 0.82873 0.20408 0.0
H670 H 0.17343 0.84326 0.19722 0.0
H671 H 0.06567 0.82086 0.18165 0.0
H672 H 0.1689 0.81218 0.19835 0.0
O673 O 0.09604 0.87384 0.2171 0.0
H674 H 0.15556 0.92741 0.22241 0.0
H675 H 0.10667 0.90656 0.2472 0.0
H676 H 0.10943 0.93713 0.2429 0.0
H677 H 0.13404 0.94775 0.23044 0.0
H678 H 0.15221 0.89691 0.2268 0.0
H679 H 0.14154 0.9017 0.283 0.0
H680 H 0.1176 0.88825 0.2946 0.0
O681 O 0.10144 0.8779 0.23794 0.0
C682 C 0.1153 0.84051 0.23792 0.0
C683 C 0.10818 0.87541 0.27792 0.0
C684 C 0.13278 0.8935 0.27799 0.0
N685 N 0.12376 0.88013 0.25855 0.0
C686 C 0.11063 0.87259 0.26487 0.0
C687 C 0.13483 0.89039 0.26494 0.0
C688 C 0.11934 0.88596 0.28449 0.0
C689 C 0.14801 0.84916 0.20334 0.0
N690 N 0.13263 0.84294 0.20709 0.0
C691 C 0.16126 0.83823 0.20012 0.0
C692 C 0.15873 0.8208 0.20079 0.0
C693 C 0.14307 0.81452 0.2047 0.0
C694 C 0.13012 0.82583 0.20786 0.0
C695 C 0.09035 0.83246 0.18202 0.0
C696 C 0.08304 0.84118 0.20704 0.0
C697 C 0.10198 0.84144 0.18945 0.0
N698 N 0.09829 0.84559 0.20183 0.0
C699 C 0.07109 0.83221 0.19989 0.0
C700 C 0.07481 0.82781 0.1873 0.0
C701 C 0.09153 0.87849 0.22825 0.0
C702 C 0.14477 0.92294 0.22784 0.0
C703 C 0.11733 0.91105 0.24166 0.0
C704 C 0.11887 0.92839 0.23931 0.0
C705 C 0.13269 0.93434 0.23234 0.0
N706 N 0.12922 0.89993 0.23718 0.0
C707 C 0.14283 0.90568 0.23038 0.0
Co708 Co 0.89978 0.63405 0.03791 0.0
Co709 Co 0.87914 0.62511 0.0097 0.0
O710 O 0.88498 0.61986 0.02748 0.0
C711 C 0.87207 0.62158 0.05569 0.0
O712 O 0.86439 0.61327 0.04652 0.0
C713 C 0.89285 0.59054 0.00919 0.0
O714 O 0.90569 0.59686 0.01558 0.0
O715 O 0.90343 0.62784 0.00509 0.0
O716 O 0.91455 0.63914 0.02287 0.0
H717 H 0.88205 0.65782 0.96858 0.0
H718 H 0.89307 0.59812 0.04553 0.0
O719 O 0.88566 0.62986 0.05359 0.0
H720 H 0.95513 0.6027 0.04169 0.0
H721 H 0.93253 0.64986 0.07748 0.0
H722 H 0.91572 0.66767 0.03413 0.0
H723 H 0.93695 0.6275 0.03769 0.0
H724 H 0.91453 0.63145 0.06412 0.0
O725 O 0.8808 0.60023 0.0056 0.0
H726 H 0.88914 0.65157 0.99105 0.0
H727 H 0.85695 0.60847 0.9904 0.0
H728 H 0.93384 0.68641 0.04713 0.0
H729 H 0.91076 0.57314 0.04978 0.0
H730 H 0.94237 0.67753 0.06897 0.0
H731 H 0.94206 0.57527 0.04783 0.0
O732 O 0.8855 0.65396 0.03405 0.0
H733 H 0.82882 0.59484 0.02835 0.0
H734 H 0.84814 0.64606 0.00569 0.0
H735 H 0.81792 0.64301 0.01121 0.0
H736 H 0.80806 0.61723 0.02259 0.0
H737 H 0.85897 0.5985 0.02281 0.0
H738 H 0.84961 0.61417 0.96789 0.0
H739 H 0.86214 0.63904 0.95685 0.0
O740 O 0.8776 0.65016 0.0136 0.0
C741 C 0.91546 0.63501 0.01112 0.0
C742 C 0.87645 0.64698 0.9733 0.0
C743 C 0.85827 0.62247 0.9729 0.0
N744 N 0.87334 0.62977 0.99205 0.0
C745 C 0.88038 0.64341 0.98603 0.0
C746 C 0.86249 0.61929 0.98564 0.0
C747 C 0.8653 0.63643 0.96672 0.0
C748 C 0.90664 0.59935 0.04493 0.0
N749 N 0.9139 0.61444 0.04162 0.0
C750 C 0.91662 0.58506 0.04723 0.0
C751 C 0.93417 0.58625 0.0461 0.0
C752 C 0.94151 0.60163 0.04265 0.0
C753 C 0.93112 0.61564 0.04039 0.0
C754 C 0.92894 0.65385 0.06796 0.0
C755 C 0.91948 0.66366 0.04359 0.0
C756 C 0.91873 0.64349 0.06036 0.0
N757 N 0.91422 0.64841 0.04831 0.0
C758 C 0.9297 0.67435 0.05092 0.0
C759 C 0.93446 0.66937 0.06318 0.0
C760 C 0.87917 0.65936 0.02361 0.0
C761 C 0.83295 0.60613 0.02339 0.0
C762 C 0.844 0.63489 0.01078 0.0
C763 C 0.82685 0.63319 0.01381 0.0
C764 C 0.82132 0.61871 0.02018 0.0
N765 N 0.85535 0.62253 0.01401 0.0
C766 C 0.85001 0.60826 0.02019 0.0
Co767 Co 0.11655 0.14693 0.78942 0.0
Co768 Co 0.12763 0.12799 0.76101 0.0
O769 O 0.13173 0.13291 0.77913 0.0
C770 C 0.12863 0.1189 0.80712 0.0
O771 O 0.13773 0.11166 0.79818 0.0
C772 C 0.16227 0.14172 0.76192 0.0
O773 O 0.15574 0.15419 0.76859 0.0
O774 O 0.12507 0.15249 0.75706 0.0
O775 O 0.11201 0.16222 0.77459 0.0
H776 H 0.0974 0.133 0.71892 0.0
H777 H 0.15218 0.14071 0.79807 0.0
O778 O 0.12015 0.13231 0.80488 0.0
H779 H 0.14634 0.20271 0.79561 0.0
H780 H 0.09763 0.17761 0.82915 0.0
H781 H 0.08278 0.16227 0.78486 0.0
H782 H 0.12222 0.1842 0.79032 0.0
H783 H 0.11724 0.1606 0.81603 0.0
O784 O 0.1527 0.12991 0.75778 0.0
H785 H 0.10227 0.1389 0.74178 0.0
H786 H 0.14552 0.10687 0.74165 0.0
H787 H 0.06286 0.17941 0.79761 0.0
H788 H 0.17648 0.15873 0.80362 0.0
H789 H 0.07025 0.1872 0.81992 0.0
H790 H 0.17371 0.19001 0.80237 0.0
O791 O 0.09721 0.1324 0.78454 0.0
H792 H 0.15692 0.07697 0.77941 0.0
H793 H 0.1072 0.09712 0.75524 0.0
H794 H 0.11009 0.06669 0.76 0.0
H795 H 0.13512 0.05642 0.77214 0.0
H796 H 0.15342 0.10733 0.77459 0.0
H797 H 0.14121 0.10074 0.71876 0.0
H798 H 0.11696 0.11379 0.70726 0.0
O799 O 0.10239 0.12609 0.76397 0.0
C800 C 0.11713 0.16399 0.76313 0.0
C801 C 0.10797 0.12719 0.72384 0.0
C802 C 0.13258 0.1091 0.72375 0.0
N803 N 0.12406 0.12312 0.74306 0.0
C804 C 0.11076 0.13044 0.73679 0.0
C805 C 0.13497 0.11264 0.73669 0.0
C806 C 0.11897 0.11642 0.7173 0.0
C807 C 0.15066 0.15424 0.79776 0.0
N808 N 0.1356 0.1613 0.79412 0.0
C809 C 0.16457 0.16442 0.8008 0.0
C810 C 0.16303 0.18197 0.80006 0.0
C811 C 0.14768 0.1891 0.79627 0.0
C812 C 0.13406 0.17852 0.79328 0.0
C813 C 0.09429 0.17434 0.81942 0.0
C814 C 0.08614 0.16571 0.79453 0.0
C815 C 0.10533 0.16469 0.81196 0.0
N816 N 0.10123 0.16059 0.79964 0.0
C817 C 0.07479 0.17537 0.80172 0.0
C818 C 0.07893 0.17972 0.81424 0.0
C819 C 0.09255 0.12674 0.77369 0.0
C820 C 0.14595 0.08129 0.77412 0.0
C821 C 0.11804 0.0928 0.76065 0.0
C822 C 0.11965 0.07553 0.76325 0.0
C823 C 0.13371 0.06977 0.77005 0.0
N824 N 0.13008 0.10403 0.7647 0.0
C825 C 0.14392 0.09847 0.77133 0.0
Co826 Co 0.60316 0.36905 0.53821 0.0
Co827 Co 0.62358 0.37876 0.51006 0.0
O828 O 0.61777 0.38362 0.52792 0.0
C829 C 0.63073 0.38154 0.55611 0.0
O830 O 0.63833 0.39005 0.54701 0.0
C831 C 0.60964 0.41326 0.50996 0.0
O832 O 0.59689 0.40674 0.51635 0.0
O833 O 0.59929 0.37595 0.50548 0.0
O834 O 0.58843 0.36404 0.52312 0.0
H835 H 0.62071 0.34684 0.46859 0.0
H836 H 0.60941 0.4049 0.54621 0.0
O837 O 0.61723 0.37315 0.55392 0.0
H838 H 0.54741 0.3996 0.54234 0.0
H839 H 0.57066 0.35209 0.57762 0.0
H840 H 0.58767 0.33529 0.53409 0.0
H841 H 0.5659 0.37512 0.53806 0.0
H842 H 0.5884 0.37098 0.56445 0.0
O843 O 0.62172 0.4037 0.50623 0.0
H844 H 0.61368 0.3526 0.49114 0.0
H845 H 0.64556 0.39593 0.4909 0.0
H846 H 0.5698 0.31608 0.54689 0.0
H847 H 0.5914 0.42957 0.55075 0.0
H848 H 0.56118 0.32445 0.56883 0.0
H849 H 0.56014 0.42707 0.54879 0.0
O850 O 0.61771 0.34941 0.53414 0.0
H851 H 0.67374 0.40903 0.52895 0.0
H852 H 0.65472 0.35813 0.50574 0.0
H853 H 0.68494 0.3613 0.51123 0.0
H854 H 0.69465 0.38692 0.52289 0.0
H855 H 0.6436 0.40524 0.52344 0.0
H856 H 0.65284 0.39072 0.46831 0.0
H857 H 0.64043 0.36598 0.45702 0.0
O858 O 0.62533 0.35364 0.51368 0.0
C859 C 0.58738 0.36847 0.51144 0.0
C860 C 0.62625 0.35762 0.47341 0.0
C861 C 0.64427 0.38227 0.47325 0.0
N862 N 0.62934 0.37448 0.49235 0.0
C863 C 0.62236 0.36091 0.48619 0.0
C864 C 0.64008 0.38516 0.48603 0.0
C865 C 0.6373 0.36838 0.46693 0.0
C866 C 0.59586 0.40351 0.5456 0.0
N867 N 0.58879 0.3884 0.54212 0.0
C868 C 0.5857 0.41762 0.54807 0.0
C869 C 0.56816 0.41623 0.54693 0.0
C870 C 0.56102 0.40083 0.54331 0.0
C871 C 0.57158 0.387 0.54089 0.0
C872 C 0.57429 0.34832 0.56806 0.0
C873 C 0.58386 0.33908 0.54359 0.0
C874 C 0.58436 0.35895 0.56057 0.0
N875 N 0.58892 0.35431 0.54846 0.0
C876 C 0.57379 0.32812 0.55081 0.0
C877 C 0.56897 0.33282 0.56312 0.0
C878 C 0.62399 0.34426 0.52362 0.0
C879 C 0.66967 0.3978 0.52388 0.0
C880 C 0.65879 0.36923 0.51095 0.0
C881 C 0.67595 0.371 0.51396 0.0
C882 C 0.68139 0.38539 0.52049 0.0
N883 N 0.64736 0.38144 0.51435 0.0
C884 C 0.65262 0.39561 0.52069 0.0
Co885 Co 0.38728 0.85851 0.29078 0.0
Co886 Co 0.37691 0.87564 0.26168 0.0
O887 O 0.37216 0.87167 0.27984 0.0
C888 C 0.37342 0.88666 0.30763 0.0
O889 O 0.36424 0.89317 0.29841 0.0
C890 C 0.34219 0.86197 0.2623 0.0
O891 O 0.34854 0.84976 0.26933 0.0
O892 O 0.3795 0.85091 0.25858 0.0
O893 O 0.39304 0.84288 0.2764 0.0
H894 H 0.40854 0.86834 0.22038 0.0
H895 H 0.35107 0.86376 0.29841 0.0
O896 O 0.38252 0.87355 0.30581 0.0
H897 H 0.35916 0.80195 0.29733 0.0
H898 H 0.40541 0.82996 0.3316 0.0
H899 H 0.4217 0.84408 0.28738 0.0
H900 H 0.38284 0.82112 0.29229 0.0
H901 H 0.38586 0.84582 0.31764 0.0
O902 O 0.3519 0.87362 0.25805 0.0
H903 H 0.40289 0.86367 0.2433 0.0
H904 H 0.35972 0.89569 0.24135 0.0
H905 H 0.44158 0.82809 0.30098 0.0
H906 H 0.32718 0.84509 0.30372 0.0
H907 H 0.43347 0.82092 0.32327 0.0
H908 H 0.33108 0.8139 0.30316 0.0
O909 O 0.4063 0.87349 0.28606 0.0
H910 H 0.3473 0.92765 0.27807 0.0
H911 H 0.39759 0.90611 0.2553 0.0
H912 H 0.39468 0.93678 0.2591 0.0
H913 H 0.36936 0.94775 0.27053 0.0
H914 H 0.35081 0.89705 0.27419 0.0
H915 H 0.36481 0.9006 0.21839 0.0
H916 H 0.38942 0.88692 0.20777 0.0
O917 O 0.40214 0.87763 0.26507 0.0
C918 C 0.38791 0.84016 0.26505 0.0
C919 C 0.39781 0.87442 0.22491 0.0
C920 C 0.37325 0.8925 0.22379 0.0
N921 N 0.38108 0.87952 0.24367 0.0
C922 C 0.39458 0.87186 0.23789 0.0
C923 C 0.37041 0.88966 0.23678 0.0
C924 C 0.38707 0.88483 0.21784 0.0
C925 C 0.35307 0.85029 0.29842 0.0
N926 N 0.36852 0.84365 0.29529 0.0
C927 C 0.3394 0.83973 0.30132 0.0
C928 C 0.34158 0.82223 0.30096 0.0
C929 C 0.35732 0.81552 0.29769 0.0
C930 C 0.37069 0.82647 0.29484 0.0
C931 C 0.40907 0.83297 0.3219 0.0
C932 C 0.41803 0.84091 0.29704 0.0
C933 C 0.39807 0.84198 0.31395 0.0
N934 N 0.40257 0.84574 0.30166 0.0
C935 C 0.42936 0.8319 0.30471 0.0
C936 C 0.42481 0.8279 0.31722 0.0
C937 C 0.41152 0.87803 0.27506 0.0
C938 C 0.35839 0.92303 0.27308 0.0
C939 C 0.38662 0.91075 0.2604 0.0
C940 C 0.385 0.92815 0.26246 0.0
C941 C 0.37078 0.9343 0.26886 0.0
N942 N 0.37443 0.89978 0.26459 0.0
C943 C 0.36043 0.90572 0.27083 0.0
Co944 Co 0.60235 0.14007 0.53893 0.0
Co945 Co 0.62387 0.12821 0.5121 0.0
O946 O 0.61691 0.12408 0.52983 0.0
C947 C 0.62811 0.129 0.55861 0.0
O948 O 0.63948 0.12548 0.54986 0.0
C949 C 0.61015 0.09354 0.51206 0.0
O950 O 0.59696 0.10003 0.51792 0.0
O951 O 0.59977 0.13057 0.50676 0.0
O952 O 0.5902 0.1465 0.52288 0.0
H953 H 0.62321 0.15849 0.46989 0.0
H954 H 0.6046 0.10471 0.54825 0.0
O955 O 0.61353 0.13454 0.55554 0.0
H956 H 0.54414 0.11379 0.53845 0.0
H957 H 0.56624 0.16013 0.57563 0.0
H958 H 0.59079 0.17518 0.53382 0.0
H959 H 0.56485 0.13682 0.5355 0.0
H960 H 0.58381 0.1396 0.56381 0.0
O961 O 0.6224 0.10313 0.50873 0.0
H962 H 0.61497 0.15357 0.49233 0.0
H963 H 0.64701 0.1104 0.49403 0.0
H964 H 0.5732 0.19603 0.54528 0.0
H965 H 0.58427 0.0814 0.55154 0.0
H966 H 0.56079 0.18856 0.56634 0.0
H967 H 0.5538 0.08584 0.54655 0.0
O968 O 0.6192 0.15809 0.53588 0.0
H969 H 0.67275 0.0992 0.53378 0.0
H970 H 0.65531 0.1485 0.50802 0.0
H971 H 0.6852 0.1456 0.51457 0.0
H972 H 0.6941 0.12077 0.52751 0.0
H973 H 0.64294 0.10273 0.52718 0.0
H974 H 0.65548 0.11476 0.47157 0.0
H975 H 0.6436 0.13899 0.45937 0.0
O976 O 0.62543 0.15355 0.51522 0.0
C977 C 0.58861 0.14008 0.51179 0.0
C978 C 0.62852 0.14792 0.47512 0.0
C979 C 0.64661 0.12336 0.47606 0.0
N980 N 0.63062 0.13181 0.4945 0.0
C981 C 0.62394 0.1451 0.48784 0.0
C982 C 0.64174 0.12094 0.48876 0.0
C983 C 0.63994 0.13696 0.46922 0.0
C984 C 0.59133 0.10682 0.54625 0.0
N985 N 0.58593 0.12214 0.54175 0.0
C986 C 0.57989 0.09354 0.54805 0.0
C987 C 0.56281 0.09603 0.54523 0.0
C988 C 0.55738 0.1117 0.54067 0.0
C989 C 0.56919 0.12468 0.53898 0.0
C990 C 0.57155 0.16352 0.56644 0.0
C991 C 0.58537 0.17178 0.54295 0.0
C992 C 0.58154 0.15196 0.55971 0.0
N993 N 0.58824 0.15614 0.54808 0.0
C994 C 0.57544 0.18367 0.54941 0.0
C995 C 0.56849 0.17947 0.56123 0.0
C996 C 0.62511 0.16303 0.52517 0.0
C997 C 0.66903 0.11006 0.52813 0.0
C998 C 0.65904 0.13774 0.51375 0.0
C999 C 0.67601 0.13613 0.51738 0.0
C1000 C 0.681 0.12218 0.52463 0.0
N1001 N 0.64738 0.12581 0.51724 0.0
C1002 C 0.65218 0.11209 0.52433 0.0
Co1003 Co 0.12585 0.37342 0.76121 0.0
Co1004 Co 0.11575 0.35427 0.78976 0.0
O1005 O 0.13038 0.36861 0.7793 0.0
C1006 C 0.16068 0.36019 0.76191 0.0
O1007 O 0.15429 0.34772 0.76866 0.0
C1008 C 0.12755 0.38259 0.80731 0.0
O1009 O 0.13625 0.39005 0.79826 0.0
O1010 O 0.09601 0.36837 0.78508 0.0
O1011 O 0.10057 0.37486 0.76444 0.0
H1012 H 0.06293 0.32068 0.79858 0.0
H1013 H 0.15156 0.39452 0.77449 0.0
O1014 O 0.15095 0.37187 0.75774 0.0
H1015 H 0.10725 0.43441 0.76038 0.0
H1016 H 0.13827 0.40083 0.71883 0.0
H1017 H 0.10032 0.3621 0.74224 0.0
H1018 H 0.10479 0.40392 0.75567 0.0
H1019 H 0.14307 0.39478 0.74167 0.0
O1020 O 0.11933 0.36898 0.80517 0.0
H1021 H 0.08223 0.33821 0.7856 0.0
H1022 H 0.11727 0.34065 0.81636 0.0
H1023 H 0.09496 0.36791 0.71943 0.0
H1024 H 0.15464 0.42494 0.77925 0.0
H1025 H 0.11402 0.3874 0.70758 0.0
H1026 H 0.13235 0.44511 0.77223 0.0
O1027 O 0.12363 0.34889 0.75728 0.0
H1028 H 0.17617 0.34384 0.80337 0.0
H1029 H 0.12228 0.31714 0.7906 0.0
H1030 H 0.14691 0.29918 0.79566 0.0
H1031 H 0.17409 0.31251 0.80215 0.0
H1032 H 0.15137 0.3613 0.79805 0.0
H1033 H 0.09828 0.32327 0.82972 0.0
H1034 H 0.07093 0.31309 0.82082 0.0
O1035 O 0.11125 0.33885 0.775 0.0
C1036 C 0.09097 0.37394 0.7743 0.0
C1037 C 0.07485 0.32497 0.80255 0.0
C1038 C 0.09468 0.32645 0.82003 0.0
N1039 N 0.10094 0.3403 0.80016 0.0
C1040 C 0.08585 0.33486 0.79523 0.0
C1041 C 0.10536 0.33631 0.81243 0.0
C1042 C 0.07934 0.32074 0.81503 0.0
C1043 C 0.14185 0.40322 0.77133 0.0
N1044 N 0.12797 0.39742 0.76487 0.0
C1045 C 0.14364 0.42043 0.77409 0.0
C1046 C 0.13112 0.43174 0.77016 0.0
C1047 C 0.11703 0.42574 0.76353 0.0
C1048 C 0.11566 0.40844 0.76095 0.0
C1049 C 0.12985 0.39235 0.7239 0.0
C1050 C 0.10859 0.37069 0.73716 0.0
C1051 C 0.13253 0.38885 0.73682 0.0
N1052 N 0.12189 0.37822 0.7433 0.0
C1053 C 0.10553 0.37389 0.72424 0.0
C1054 C 0.11624 0.38481 0.71759 0.0
C1055 C 0.1161 0.33722 0.76345 0.0
C1056 C 0.16434 0.33787 0.80067 0.0
C1057 C 0.13404 0.32308 0.79345 0.0
C1058 C 0.14795 0.31282 0.79631 0.0
C1059 C 0.16319 0.3203 0.79995 0.0
N1060 N 0.1352 0.34033 0.79426 0.0
C1061 C 0.15016 0.34773 0.79776 0.0
Co1062 Co 0.89891 0.86563 0.04085 0.0
Co1063 Co 0.87879 0.87556 0.01266 0.0
O1064 O 0.88426 0.88024 0.03061 0.0
C1065 C 0.8713 0.87774 0.05895 0.0
O1066 O 0.86362 0.88656 0.05006 0.0
C1067 C 0.89211 0.91033 0.01281 0.0
O1068 O 0.90487 0.90405 0.01931 0.0
O1069 O 0.90321 0.87327 0.00825 0.0
O1070 O 0.91377 0.86092 0.02581 0.0
H1071 H 0.88281 0.84433 0.97094 0.0
H1072 H 0.89237 0.90135 0.04906 0.0
O1073 O 0.88475 0.86939 0.05654 0.0
H1074 H 0.95442 0.89648 0.04545 0.0
H1075 H 0.93131 0.84837 0.08025 0.0
H1076 H 0.91466 0.83202 0.03654 0.0
H1077 H 0.93613 0.87194 0.04092 0.0
H1078 H 0.91351 0.86731 0.06716 0.0
O1079 O 0.88023 0.90057 0.00903 0.0
H1080 H 0.88944 0.84988 0.99359 0.0
H1081 H 0.85673 0.8926 0.99347 0.0
H1082 H 0.93259 0.81277 0.04925 0.0
H1083 H 0.91018 0.92607 0.05386 0.0
H1084 H 0.94103 0.82091 0.07128 0.0
H1085 H 0.94148 0.92379 0.05202 0.0
O1086 O 0.88454 0.84594 0.03657 0.0
H1087 H 0.82792 0.90451 0.03162 0.0
H1088 H 0.84805 0.85452 0.00782 0.0
H1089 H 0.81771 0.85706 0.01315 0.0
H1090 H 0.80746 0.88222 0.0251 0.0
H1091 H 0.85819 0.90136 0.02625 0.0
H1092 H 0.84985 0.8876 0.97078 0.0
H1093 H 0.86288 0.86327 0.95938 0.0
O1094 O 0.87744 0.85036 0.01603 0.0
C1095 C 0.91505 0.8657 0.01422 0.0
C1096 C 0.877 0.85493 0.97581 0.0
C1097 C 0.85852 0.87923 0.97572 0.0
N1098 N 0.87335 0.87145 0.99486 0.0
C1099 C 0.88067 0.85811 0.98865 0.0
C1100 C 0.86248 0.88202 0.98855 0.0
C1101 C 0.86584 0.86558 0.96933 0.0
C1102 C 0.90593 0.90005 0.04851 0.0
N1103 N 0.91312 0.88503 0.04497 0.0
C1104 C 0.91598 0.9142 0.05112 0.0
C1105 C 0.93354 0.91293 0.05005 0.0
C1106 C 0.9408 0.89761 0.04636 0.0
C1107 C 0.93035 0.88375 0.04381 0.0
C1108 C 0.92775 0.8447 0.07065 0.0
C1109 C 0.91838 0.83571 0.04608 0.0
C1110 C 0.91765 0.85536 0.0632 0.0
N1111 N 0.91319 0.85085 0.05104 0.0
C1112 C 0.92849 0.82473 0.05325 0.0
C1113 C 0.93321 0.8293 0.06561 0.0
C1114 C 0.87864 0.84084 0.0259 0.0
C1115 C 0.83223 0.89349 0.02641 0.0
C1116 C 0.84373 0.86542 0.01315 0.0
C1117 C 0.82651 0.86683 0.01607 0.0
C1118 C 0.82076 0.88097 0.02277 0.0
N1119 N 0.85491 0.87774 0.01679 0.0
C1120 C 0.84935 0.89165 0.02331 0.0
Co1121 Co 0.3779 0.62742 0.26156 0.0
Co1122 Co 0.38883 0.644 0.29069 0.0
O1123 O 0.3735 0.63101 0.27982 0.0
C1124 C 0.34313 0.64076 0.26286 0.0
O1125 O 0.34959 0.65281 0.26999 0.0
C1126 C 0.37511 0.61573 0.30751 0.0
O1127 O 0.3656 0.60947 0.29838 0.0
O1128 O 0.4077 0.62904 0.28562 0.0
O1129 O 0.40323 0.6256 0.26459 0.0
H1130 H 0.4434 0.67415 0.30052 0.0
H1131 H 0.35229 0.60555 0.27419 0.0
O1132 O 0.35279 0.6293 0.25827 0.0
H1133 H 0.39613 0.56648 0.25811 0.0
H1134 H 0.36503 0.60317 0.21817 0.0
H1135 H 0.40333 0.63999 0.24297 0.0
H1136 H 0.39868 0.59724 0.25458 0.0
H1137 H 0.36043 0.60758 0.24125 0.0
O1138 O 0.38435 0.62874 0.30566 0.0
H1139 H 0.4232 0.65842 0.28702 0.0
H1140 H 0.38799 0.65626 0.31768 0.0
H1141 H 0.40849 0.63582 0.21994 0.0
H1142 H 0.34914 0.57485 0.27781 0.0
H1143 H 0.38926 0.6173 0.20738 0.0
H1144 H 0.3712 0.55509 0.26977 0.0
O1145 O 0.3802 0.65221 0.25872 0.0
H1146 H 0.32904 0.65741 0.3045 0.0
H1147 H 0.38454 0.68137 0.29261 0.0
H1148 H 0.36105 0.70054 0.29815 0.0
H1149 H 0.33306 0.68859 0.30421 0.0
H1150 H 0.35272 0.63875 0.29869 0.0
H1151 H 0.40787 0.67186 0.33155 0.0
H1152 H 0.43577 0.68098 0.32297 0.0
O1153 O 0.39431 0.65987 0.27638 0.0
C1154 C 0.41277 0.62491 0.27449 0.0
C1155 C 0.43125 0.67031 0.30436 0.0
C1156 C 0.41132 0.669 0.32178 0.0
N1157 N 0.40437 0.65657 0.30151 0.0
C1158 C 0.41974 0.66144 0.29674 0.0
C1159 C 0.40013 0.66014 0.31389 0.0
C1160 C 0.42697 0.67411 0.31696 0.0
C1161 C 0.3619 0.59703 0.27062 0.0
N1162 N 0.37569 0.6032 0.26425 0.0
C1163 C 0.36007 0.57966 0.27272 0.0
C1164 C 0.37246 0.56858 0.26822 0.0
C1165 C 0.38646 0.57497 0.26169 0.0
C1166 C 0.38788 0.59241 0.25978 0.0
C1167 C 0.37352 0.61124 0.22354 0.0
C1168 C 0.39498 0.63182 0.23759 0.0
C1169 C 0.37096 0.61381 0.2366 0.0
N1170 N 0.3817 0.62391 0.24346 0.0
C1171 C 0.39793 0.62955 0.22454 0.0
C1172 C 0.38712 0.61917 0.2175 0.0
C1173 C 0.38878 0.66285 0.26516 0.0
C1174 C 0.34123 0.66277 0.302 0.0
C1175 C 0.37243 0.67602 0.29526 0.0
C1176 C 0.35916 0.68697 0.29839 0.0
C1177 C 0.34347 0.68026 0.3018 0.0
N1178 N 0.3702 0.65884 0.29557 0.0
C1179 C 0.35479 0.65221 0.29882 0.0
Co1180 Co 0.60648 0.86842 0.45795 0.0
Co1181 Co 0.62401 0.87896 0.48683 0.0
O1182 O 0.6197 0.88371 0.46871 0.0
C1183 C 0.63396 0.88283 0.44072 0.0
O1184 O 0.64045 0.89212 0.44988 0.0
C1185 C 0.61051 0.9137 0.4863 0.0
O1186 O 0.59817 0.90743 0.47935 0.0
O1187 O 0.59931 0.8765 0.49013 0.0
O1188 O 0.59127 0.86242 0.47256 0.0
H1189 H 0.61721 0.84753 0.52826 0.0
H1190 H 0.6109 0.90471 0.45027 0.0
O1191 O 0.62109 0.87342 0.44269 0.0
H1192 H 0.54922 0.89547 0.45213 0.0
H1193 H 0.57725 0.84975 0.41753 0.0
H1194 H 0.5927 0.83381 0.46157 0.0
H1195 H 0.56896 0.87218 0.45693 0.0
H1196 H 0.59311 0.86959 0.43126 0.0
O1197 O 0.62217 0.90395 0.49046 0.0
H1198 H 0.61216 0.85315 0.50538 0.0
H1199 H 0.64457 0.89605 0.50693 0.0
H1200 H 0.57674 0.81365 0.4482 0.0
H1201 H 0.59165 0.92822 0.4452 0.0
H1202 H 0.5689 0.82158 0.42601 0.0
H1203 H 0.56052 0.92374 0.44615 0.0
O1204 O 0.62195 0.8497 0.46246 0.0
H1205 H 0.67591 0.90822 0.46983 0.0
H1206 H 0.65454 0.85819 0.49296 0.0
H1207 H 0.68518 0.86092 0.48882 0.0
H1208 H 0.69606 0.8861 0.4772 0.0
H1209 H 0.64534 0.90489 0.47406 0.0
H1210 H 0.64986 0.89098 0.52985 0.0
H1211 H 0.63618 0.86652 0.54064 0.0
O1212 O 0.62581 0.85374 0.48349 0.0
C1213 C 0.58858 0.86782 0.48385 0.0
C1214 C 0.62329 0.85819 0.52365 0.0
C1215 C 0.6416 0.88259 0.52455 0.0
N1216 N 0.62819 0.87481 0.50481 0.0
C1217 C 0.62052 0.86141 0.51069 0.0
C1218 C 0.63853 0.88541 0.51158 0.0
C1219 C 0.63392 0.86886 0.5306 0.0
C1220 C 0.59746 0.90245 0.45043 0.0
N1221 N 0.59118 0.8869 0.45364 0.0
C1222 C 0.58657 0.91591 0.44766 0.0
C1223 C 0.56911 0.91341 0.44824 0.0
C1224 C 0.56276 0.89756 0.4516 0.0
C1225 C 0.57403 0.88441 0.45431 0.0
C1226 C 0.58056 0.84617 0.42719 0.0
C1227 C 0.58925 0.83741 0.45195 0.0
C1228 C 0.58957 0.85733 0.43501 0.0
N1229 N 0.5937 0.85292 0.44725 0.0
C1230 C 0.58025 0.82591 0.44441 0.0
C1231 C 0.57587 0.83037 0.43196 0.0
C1232 C 0.62639 0.84444 0.47347 0.0
C1233 C 0.67133 0.89718 0.47489 0.0
C1234 C 0.65914 0.8691 0.48778 0.0
C1235 C 0.67652 0.87062 0.48552 0.0
C1236 C 0.68262 0.88476 0.47902 0.0
N1237 N 0.64813 0.88132 0.48368 0.0
C1238 C 0.65403 0.89524 0.47734 0.0
Co1239 Co 0.37559 0.37243 0.73612 0.0
Co1240 Co 0.38588 0.35002 0.70938 0.0
O1241 O 0.37051 0.36471 0.71881 0.0
C1242 C 0.34113 0.35827 0.73757 0.0
O1243 O 0.34758 0.34483 0.73203 0.0
C1244 C 0.37718 0.37666 0.69033 0.0
O1245 O 0.38094 0.38837 0.69879 0.0
O1246 O 0.40431 0.36678 0.71156 0.0
O1247 O 0.40067 0.37424 0.73209 0.0
H1248 H 0.44116 0.32038 0.70105 0.0
H1249 H 0.34934 0.39016 0.72087 0.0
O1250 O 0.3507 0.37079 0.7403 0.0
H1251 H 0.39182 0.43378 0.73143 0.0
H1252 H 0.364 0.40563 0.77622 0.0
H1253 H 0.40228 0.36485 0.75521 0.0
H1254 H 0.39535 0.40442 0.739 0.0
H1255 H 0.35845 0.39605 0.75417 0.0
O1256 O 0.37869 0.36106 0.69312 0.0
H1257 H 0.42124 0.33825 0.7132 0.0
H1258 H 0.3836 0.33137 0.68464 0.0
H1259 H 0.4084 0.3742 0.77723 0.0
H1260 H 0.34523 0.41942 0.71321 0.0
H1261 H 0.38918 0.39473 0.78788 0.0
H1262 H 0.36659 0.44145 0.71846 0.0
O1263 O 0.37877 0.34861 0.74191 0.0
H1264 H 0.32637 0.33166 0.69929 0.0
H1265 H 0.38288 0.31269 0.71348 0.0
H1266 H 0.35966 0.29194 0.71175 0.0
H1267 H 0.33116 0.30137 0.70459 0.0
H1268 H 0.34989 0.35205 0.70133 0.0
H1269 H 0.40316 0.3135 0.67214 0.0
H1270 H 0.43216 0.30786 0.68036 0.0
O1271 O 0.39342 0.33826 0.72532 0.0
C1272 C 0.40972 0.37332 0.72193 0.0
C1273 C 0.42855 0.3227 0.69739 0.0
C1274 C 0.40722 0.31886 0.68116 0.0
N1275 N 0.40123 0.33576 0.69969 0.0
C1276 C 0.41719 0.33278 0.70424 0.0
C1277 C 0.39622 0.32902 0.68827 0.0
C1278 C 0.42349 0.31569 0.68577 0.0
C1279 C 0.35861 0.39972 0.72329 0.0
N1280 N 0.37252 0.39561 0.73042 0.0
C1281 C 0.35625 0.41624 0.71888 0.0
C1282 C 0.36826 0.4286 0.72182 0.0
C1283 C 0.38242 0.4243 0.72909 0.0
C1284 C 0.38437 0.40764 0.73332 0.0
C1285 C 0.37249 0.3967 0.77168 0.0
C1286 C 0.39392 0.37387 0.75976 0.0
C1287 C 0.36939 0.3912 0.75921 0.0
N1288 N 0.38012 0.38001 0.75339 0.0
C1289 C 0.39743 0.37908 0.77224 0.0
C1290 C 0.38662 0.39059 0.77821 0.0
C1291 C 0.38797 0.33727 0.73675 0.0
C1292 C 0.33874 0.32738 0.70238 0.0
C1293 C 0.3705 0.31693 0.71041 0.0
C1294 C 0.35741 0.3051 0.70941 0.0
C1295 C 0.34143 0.3104 0.70538 0.0
N1296 N 0.36776 0.33358 0.70749 0.0
C1297 C 0.35213 0.33886 0.70349 0.0
Co1298 Co 0.89473 0.13636 0.96005 0.0
Co1299 Co 0.87736 0.12496 0.98877 0.0
O1300 O 0.88169 0.12066 0.97059 0.0
C1301 C 0.86755 0.12195 0.94254 0.0
O1302 O 0.86122 0.11216 0.95146 0.0
C1303 C 0.89107 0.09031 0.98779 0.0
O1304 O 0.90339 0.09679 0.98093 0.0
O1305 O 0.90205 0.12749 0.99207 0.0
O1306 O 0.90984 0.14224 0.97476 0.0
H1307 H 0.88404 0.15544 0.0306 0.0
H1308 H 0.89087 0.10017 0.95191 0.0
O1309 O 0.88023 0.13152 0.94472 0.0
H1310 H 0.9524 0.11028 0.95394 0.0
H1311 H 0.92379 0.15632 0.91992 0.0
H1312 H 0.90804 0.17107 0.96414 0.0
H1313 H 0.93231 0.13316 0.95903 0.0
H1314 H 0.90816 0.13598 0.93337 0.0
O1315 O 0.87935 0.09991 0.99206 0.0
H1316 H 0.88908 0.15039 0.00765 0.0
H1317 H 0.85693 0.10727 0.00864 0.0
H1318 H 0.92378 0.19172 0.95105 0.0
H1319 H 0.91046 0.07708 0.94654 0.0
H1320 H 0.93177 0.1844 0.92877 0.0
H1321 H 0.94152 0.08199 0.94758 0.0
O1322 O 0.87898 0.15473 0.96477 0.0
H1323 H 0.82567 0.09582 0.97129 0.0
H1324 H 0.84668 0.14533 0.99523 0.0
H1325 H 0.81606 0.1425 0.99103 0.0
H1326 H 0.80536 0.11758 0.979 0.0
H1327 H 0.85621 0.09925 0.97558 0.0
H1328 H 0.85165 0.11176 0.03163 0.0
H1329 H 0.8652 0.13604 0.04275 0.0
O1330 O 0.87535 0.15025 0.98577 0.0
C1331 C 0.91268 0.13645 0.98592 0.0
C1332 C 0.87801 0.14485 0.02586 0.0
C1333 C 0.85985 0.12033 0.02644 0.0
N1334 N 0.87317 0.12865 0.0068 0.0
C1335 C 0.88078 0.14196 0.01286 0.0
C1336 C 0.86291 0.11783 0.01343 0.0
C1337 C 0.86746 0.13395 0.03267 0.0
C1338 C 0.90427 0.10263 0.95211 0.0
N1339 N 0.91032 0.1182 0.95553 0.0
C1340 C 0.91536 0.0894 0.94917 0.0
C1341 C 0.93278 0.09214 0.9498 0.0
C1342 C 0.93889 0.108 0.95337 0.0
C1343 C 0.92742 0.12092 0.95625 0.0
C1344 C 0.92042 0.15964 0.92963 0.0
C1345 C 0.91156 0.16773 0.95448 0.0
C1346 C 0.91154 0.14819 0.93728 0.0
N1347 N 0.90732 0.15227 0.94957 0.0
C1348 C 0.92044 0.17951 0.9471 0.0
C1349 C 0.9249 0.17539 0.9346 0.0
C1350 C 0.8745 0.1597 0.97584 0.0
C1351 C 0.83018 0.10674 0.97653 0.0
C1352 C 0.84215 0.13453 0.98988 0.0
C1353 C 0.82478 0.13296 0.98759 0.0
C1354 C 0.81879 0.11896 0.98085 0.0
N1355 N 0.85325 0.12251 0.98559 0.0
C1356 C 0.84746 0.10873 0.97902 0.0
Co1357 Co 0.12835 0.63009 0.23615 0.0
Co1358 Co 0.11912 0.65265 0.20925 0.0
O1359 O 0.13401 0.63777 0.21893 0.0
C1360 C 0.16284 0.64398 0.23812 0.0
O1361 O 0.15658 0.65749 0.23255 0.0
C1362 C 0.12779 0.62584 0.19034 0.0
O1363 O 0.12363 0.61423 0.19876 0.0
O1364 O 0.10044 0.63614 0.21115 0.0
O1365 O 0.10336 0.62857 0.23173 0.0
H1366 H 0.06444 0.68295 0.20004 0.0
H1367 H 0.15484 0.61211 0.22131 0.0
O1368 O 0.15314 0.6315 0.2407 0.0
H1369 H 0.11161 0.56892 0.23113 0.0
H1370 H 0.13853 0.59671 0.27638 0.0
H1371 H 0.10123 0.63792 0.25484 0.0
H1372 H 0.10818 0.59832 0.23867 0.0
H1373 H 0.14476 0.60628 0.25443 0.0
O1374 O 0.12657 0.64148 0.19311 0.0
H1375 H 0.08381 0.66486 0.21251 0.0
H1376 H 0.12232 0.67126 0.18455 0.0
H1377 H 0.09443 0.62859 0.27675 0.0
H1378 H 0.15885 0.58282 0.21368 0.0
H1379 H 0.11316 0.60784 0.28766 0.0
H1380 H 0.13711 0.56101 0.21856 0.0
O1381 O 0.12524 0.65392 0.24192 0.0
H1382 H 0.17914 0.67017 0.20008 0.0
H1383 H 0.12253 0.68994 0.21337 0.0
H1384 H 0.14608 0.71037 0.21199 0.0
H1385 H 0.17463 0.70052 0.20527 0.0
H1386 H 0.15528 0.65011 0.20176 0.0
H1387 H 0.10332 0.68933 0.17173 0.0
H1388 H 0.07417 0.69533 0.17949 0.0
O1389 O 0.11131 0.66454 0.22506 0.0
C1390 C 0.09464 0.62963 0.22142 0.0
C1391 C 0.07713 0.68047 0.19658 0.0
C1392 C 0.09894 0.68404 0.18068 0.0
N1393 N 0.10422 0.6671 0.19932 0.0
C1394 C 0.08818 0.67027 0.20361 0.0
C1395 C 0.10963 0.67376 0.18797 0.0
C1396 C 0.08259 0.6874 0.18504 0.0
C1397 C 0.1454 0.60265 0.22356 0.0
N1398 N 0.13134 0.60689 0.23048 0.0
C1399 C 0.14771 0.58611 0.21918 0.0
C1400 C 0.13549 0.57388 0.22191 0.0
C1401 C 0.12117 0.57831 0.22895 0.0
C1402 C 0.11928 0.59498 0.23317 0.0
C1403 C 0.13025 0.60573 0.27172 0.0
C1404 C 0.10937 0.6288 0.2595 0.0
C1405 C 0.13374 0.61122 0.25931 0.0
N1406 N 0.12328 0.62253 0.25334 0.0
C1407 C 0.10549 0.62361 0.27192 0.0
C1408 C 0.11601 0.61198 0.27804 0.0
C1409 C 0.11637 0.6654 0.2366 0.0
C1410 C 0.16675 0.67462 0.20297 0.0
C1411 C 0.13492 0.68553 0.21049 0.0
C1412 C 0.1482 0.69717 0.20969 0.0
C1413 C 0.16422 0.69164 0.20591 0.0
N1414 N 0.13751 0.66884 0.20762 0.0
C1415 C 0.15317 0.66334 0.20387 0.0
Co1416 Co 0.39316 0.86666 0.45932 0.0
Co1417 Co 0.37605 0.87764 0.48824 0.0
O1418 O 0.38007 0.88209 0.47004 0.0
C1419 C 0.3654 0.88067 0.44215 0.0
O1420 O 0.35892 0.8901 0.45123 0.0
C1421 C 0.3895 0.91239 0.48724 0.0
O1422 O 0.40177 0.90598 0.48029 0.0
O1423 O 0.4008 0.87528 0.49136 0.0
O1424 O 0.40859 0.86091 0.47386 0.0
H1425 H 0.38354 0.84694 0.5299 0.0
H1426 H 0.38854 0.90278 0.45131 0.0
O1427 O 0.37835 0.87139 0.44415 0.0
H1428 H 0.45028 0.89376 0.45282 0.0
H1429 H 0.4219 0.84744 0.41885 0.0
H1430 H 0.40706 0.83212 0.46314 0.0
H1431 H 0.43067 0.87049 0.458 0.0
H1432 H 0.40617 0.86744 0.43253 0.0
O1433 O 0.3779 0.90271 0.49159 0.0
H1434 H 0.38821 0.85216 0.50693 0.0
H1435 H 0.35578 0.89506 0.50834 0.0
H1436 H 0.42291 0.8118 0.44983 0.0
H1437 H 0.40766 0.92625 0.44586 0.0
H1438 H 0.43044 0.81942 0.42751 0.0
H1439 H 0.43881 0.92188 0.44663 0.0
O1440 O 0.3778 0.848 0.46412 0.0
H1441 H 0.32385 0.90651 0.47136 0.0
H1442 H 0.34565 0.85694 0.49484 0.0
H1443 H 0.31494 0.85955 0.49091 0.0
H1444 H 0.30385 0.8845 0.47912 0.0
H1445 H 0.35449 0.9033 0.47537 0.0
H1446 H 0.35087 0.89039 0.53135 0.0
H1447 H 0.36475 0.86614 0.54227 0.0
O1448 O 0.37423 0.85234 0.48515 0.0
C1449 C 0.41146 0.86652 0.48507 0.0
C1450 C 0.37737 0.85751 0.52524 0.0
C1451 C 0.35906 0.88191 0.52606 0.0
N1452 N 0.37215 0.8738 0.50629 0.0
C1453 C 0.37993 0.8605 0.51223 0.0
C1454 C 0.36191 0.88451 0.51304 0.0
C1455 C 0.36684 0.8683 0.53218 0.0
C1456 C 0.402 0.90057 0.4514 0.0
N1457 N 0.40837 0.88509 0.45472 0.0
C1458 C 0.41281 0.91401 0.44841 0.0
C1459 C 0.43029 0.91157 0.44889 0.0
C1460 C 0.43673 0.8958 0.45237 0.0
C1461 C 0.42553 0.88266 0.4553 0.0
C1462 C 0.41873 0.84399 0.42857 0.0
C1463 C 0.41038 0.83558 0.45347 0.0
C1464 C 0.40979 0.85525 0.43635 0.0
N1465 N 0.40583 0.85102 0.44866 0.0
C1466 C 0.41932 0.824 0.44596 0.0
C1467 C 0.42352 0.82827 0.43344 0.0
C1468 C 0.37349 0.8429 0.4752 0.0
C1469 C 0.32853 0.89557 0.4765 0.0
C1470 C 0.34095 0.86775 0.48958 0.0
C1471 C 0.32353 0.8692 0.48745 0.0
C1472 C 0.31732 0.88321 0.48085 0.0
N1473 N 0.35188 0.87991 0.48526 0.0
C1474 C 0.34587 0.8937 0.47882 0.0
Co1475 Co 0.8895 0.65285 0.20827 0.0
Co1476 Co 0.87887 0.62927 0.2343 0.0
O1477 O 0.87396 0.63779 0.21718 0.0
C1478 C 0.88051 0.62733 0.18843 0.0
O1479 O 0.88376 0.61515 0.19662 0.0
C1480 C 0.84438 0.64325 0.23579 0.0
O1481 O 0.85094 0.65694 0.23069 0.0
O1482 O 0.88184 0.65282 0.24071 0.0
O1483 O 0.89702 0.6637 0.2246 0.0
H1484 H 0.9111 0.6258 0.27562 0.0
H1485 H 0.85358 0.6516 0.19999 0.0
O1486 O 0.88238 0.64276 0.19165 0.0
H1487 H 0.86379 0.71101 0.21229 0.0
H1488 H 0.90747 0.69123 0.17231 0.0
H1489 H 0.92495 0.66401 0.21261 0.0
H1490 H 0.88681 0.68997 0.21348 0.0
H1491 H 0.88761 0.67291 0.18415 0.0
O1492 O 0.85391 0.63063 0.23832 0.0
H1493 H 0.90525 0.63611 0.25381 0.0
H1494 H 0.86161 0.60477 0.2516 0.0
H1495 H 0.94517 0.68231 0.20112 0.0
H1496 H 0.83026 0.67231 0.19845 0.0
H1497 H 0.93646 0.69608 0.18082 0.0
H1498 H 0.83527 0.70224 0.2047 0.0
O1499 O 0.90768 0.63579 0.21002 0.0
H1500 H 0.849 0.5832 0.21001 0.0
H1501 H 0.89877 0.59726 0.23649 0.0
H1502 H 0.89546 0.56823 0.22816 0.0
H1503 H 0.87041 0.56104 0.21484 0.0
H1504 H 0.85289 0.61212 0.21844 0.0
H1505 H 0.86689 0.59421 0.27343 0.0
H1506 H 0.89184 0.60469 0.28557 0.0
O1507 O 0.90406 0.62777 0.23043 0.0
C1508 C 0.89117 0.66434 0.23594 0.0
C1509 C 0.90023 0.62109 0.27041 0.0
C1510 C 0.8754 0.60338 0.26919 0.0
N1511 N 0.8832 0.62093 0.25141 0.0
C1512 C 0.89688 0.62685 0.25805 0.0
C1513 C 0.87245 0.60943 0.25685 0.0
C1514 C 0.8894 0.60926 0.27599 0.0
C1515 C 0.85592 0.66465 0.20255 0.0
N1516 N 0.87155 0.66956 0.20679 0.0
C1517 C 0.84264 0.6763 0.20173 0.0
C1518 C 0.84546 0.69308 0.20526 0.0
C1519 C 0.86145 0.69801 0.20953 0.0
C1520 C 0.87442 0.68602 0.21023 0.0
C1521 C 0.9114 0.68532 0.18116 0.0
C1522 C 0.92104 0.67001 0.20381 0.0
C1523 C 0.90023 0.6749 0.18789 0.0
N1524 N 0.90508 0.66747 0.1991 0.0
C1525 C 0.93255 0.68034 0.19734 0.0
C1526 C 0.92766 0.68805 0.18594 0.0
C1527 C 0.9131 0.62896 0.22028 0.0
C1528 C 0.85994 0.58617 0.21584 0.0
C1529 C 0.88787 0.59425 0.23066 0.0
C1530 C 0.88604 0.57778 0.226 0.0
C1531 C 0.87198 0.57375 0.21853 0.0
N1532 N 0.87599 0.60635 0.228 0.0
C1533 C 0.86218 0.6025 0.22068 0.0
Co1534 Co 0.10788 0.1364 0.95975 0.0
Co1535 Co 0.12524 0.1249 0.98845 0.0
O1536 O 0.12098 0.1207 0.97025 0.0
C1537 C 0.13521 0.12228 0.94222 0.0
O1538 O 0.14164 0.11257 0.95115 0.0
C1539 C 0.11175 0.09016 0.98732 0.0
O1540 O 0.09941 0.09661 0.98046 0.0
O1541 O 0.10052 0.12728 0.99173 0.0
O1542 O 0.09271 0.1421 0.97446 0.0
H1543 H 0.11827 0.15508 0.03038 0.0
H1544 H 0.112 0.10031 0.95146 0.0
O1545 O 0.12243 0.13173 0.94441 0.0
H1546 H 0.05039 0.10999 0.95349 0.0
H1547 H 0.07876 0.15643 0.91966 0.0
H1548 H 0.09437 0.17101 0.96394 0.0
H1549 H 0.07032 0.13297 0.95868 0.0
H1550 H 0.09449 0.1361 0.93305 0.0
O1551 O 0.12339 0.0998 0.99165 0.0
H1552 H 0.11333 0.15015 0.00741 0.0
H1553 H 0.14572 0.10721 0.0083 0.0
H1554 H 0.07852 0.19165 0.95091 0.0
H1555 H 0.09256 0.07712 0.94599 0.0
H1556 H 0.0706 0.18441 0.92859 0.0
H1557 H 0.06147 0.08182 0.94703 0.0
O1558 O 0.12351 0.15483 0.96455 0.0
H1559 H 0.17716 0.09618 0.97097 0.0
H1560 H 0.15578 0.14542 0.99504 0.0
H1561 H 0.18643 0.1428 0.99088 0.0
H1562 H 0.19731 0.11801 0.97879 0.0
H1563 H 0.14658 0.0994 0.97522 0.0
H1564 H 0.1509 0.11158 0.03131 0.0
H1565 H 0.13718 0.1357 0.04249 0.0
O1566 O 0.1271 0.15024 0.98554 0.0
C1567 C 0.08987 0.13624 0.9856 0.0
C1568 C 0.12437 0.14456 0.02561 0.0
C1569 C 0.14267 0.12013 0.02613 0.0
N1570 N 0.12935 0.12851 0.0065 0.0
C1571 C 0.12166 0.14174 0.0126 0.0
C1572 C 0.13966 0.1177 0.01311 0.0
C1573 C 0.13497 0.13367 0.0324 0.0
C1574 C 0.09857 0.10267 0.95166 0.0
N1575 N 0.09242 0.11817 0.95514 0.0
C1576 C 0.08757 0.08939 0.94867 0.0
C1577 C 0.07013 0.09201 0.94929 0.0
C1578 C 0.06392 0.1078 0.95292 0.0
C1579 C 0.07529 0.12078 0.95585 0.0
C1580 C 0.0821 0.15972 0.92937 0.0
C1581 C 0.09088 0.16771 0.95426 0.0
C1582 C 0.09104 0.14827 0.937 0.0
N1583 N 0.09522 0.1523 0.94931 0.0
C1584 C 0.08194 0.17948 0.94692 0.0
C1585 C 0.07752 0.17541 0.9344 0.0
C1586 C 0.12791 0.15977 0.97565 0.0
C1587 C 0.17257 0.10704 0.97624 0.0
C1588 C 0.16038 0.13468 0.98966 0.0
C1589 C 0.17777 0.13322 0.98739 0.0
C1590 C 0.18387 0.1193 0.98062 0.0
N1591 N 0.14937 0.12262 0.9853 0.0
C1592 C 0.15527 0.10892 0.9787 0.0
Co1593 Co 0.61344 0.35013 0.70891 0.0
Co1594 Co 0.62468 0.37327 0.73501 0.0
O1595 O 0.62931 0.36491 0.71779 0.0
C1596 C 0.62257 0.37563 0.68906 0.0
O1597 O 0.61959 0.38784 0.69727 0.0
C1598 C 0.65918 0.35908 0.73635 0.0
O1599 O 0.65265 0.34548 0.73109 0.0
O1600 O 0.62161 0.34964 0.74126 0.0
O1601 O 0.60594 0.33928 0.72523 0.0
H1602 H 0.59285 0.37648 0.77651 0.0
H1603 H 0.64931 0.35094 0.70044 0.0
O1604 O 0.62052 0.36022 0.69228 0.0
H1605 H 0.63835 0.29158 0.71254 0.0
H1606 H 0.59458 0.31223 0.67291 0.0
H1607 H 0.57789 0.33939 0.71342 0.0
H1608 H 0.61564 0.31293 0.71392 0.0
H1609 H 0.61479 0.33022 0.68469 0.0
O1610 O 0.64966 0.37169 0.73892 0.0
H1611 H 0.59844 0.36638 0.7546 0.0
H1612 H 0.64228 0.39745 0.75238 0.0
H1613 H 0.55732 0.32141 0.702 0.0
H1614 H 0.67231 0.32991 0.69871 0.0
H1615 H 0.56563 0.30767 0.68158 0.0
H1616 H 0.66693 0.30001 0.70486 0.0
O1617 O 0.59548 0.36742 0.71084 0.0
H1618 H 0.65466 0.41936 0.71083 0.0
H1619 H 0.60508 0.40542 0.73754 0.0
H1620 H 0.60854 0.43452 0.72937 0.0
H1621 H 0.6335 0.44164 0.71594 0.0
H1622 H 0.65062 0.39038 0.71911 0.0
H1623 H 0.63726 0.40779 0.77431 0.0
H1624 H 0.61235 0.39734 0.7865 0.0
O1625 O 0.59949 0.37505 0.73129 0.0
C1626 C 0.61203 0.33832 0.73648 0.0
C1627 C 0.60372 0.38117 0.77128 0.0
C1628 C 0.62866 0.39872 0.77005 0.0
N1629 N 0.62058 0.38143 0.7522 0.0
C1630 C 0.60692 0.37553 0.75886 0.0
C1631 C 0.63145 0.3928 0.75765 0.0
C1632 C 0.61467 0.39286 0.77688 0.0
C1633 C 0.6468 0.3379 0.70297 0.0
N1634 N 0.63114 0.33318 0.70726 0.0
C1635 C 0.6599 0.32607 0.70203 0.0
C1636 C 0.65688 0.3093 0.70551 0.0
C1637 C 0.64086 0.30457 0.70983 0.0
C1638 C 0.62806 0.31674 0.71063 0.0
C1639 C 0.59082 0.31813 0.6818 0.0
C1640 C 0.58163 0.33341 0.70458 0.0
C1641 C 0.6022 0.32836 0.6885 0.0
N1642 N 0.59756 0.33578 0.69977 0.0
C1643 C 0.56992 0.32326 0.69813 0.0
C1644 C 0.57458 0.31557 0.68668 0.0
C1645 C 0.59028 0.37413 0.72121 0.0
C1646 C 0.64376 0.41642 0.71671 0.0
C1647 C 0.61594 0.40841 0.73166 0.0
C1648 C 0.61786 0.42492 0.72709 0.0
C1649 C 0.63187 0.42891 0.71956 0.0
N1650 N 0.62768 0.39624 0.72884 0.0
C1651 C 0.64144 0.40005 0.72146 0.0
Co1652 Co 0.39619 0.13682 0.54083 0.0
Co1653 Co 0.3772 0.12726 0.51222 0.0
O1654 O 0.38215 0.12215 0.53019 0.0
C1655 C 0.36869 0.12323 0.55843 0.0
O1656 O 0.36155 0.11425 0.54936 0.0
C1657 C 0.39048 0.09246 0.51217 0.0
O1658 O 0.40313 0.09863 0.51885 0.0
O1659 O 0.40177 0.12957 0.50833 0.0
O1660 O 0.41113 0.14256 0.52601 0.0
H1661 H 0.38255 0.15942 0.471 0.0
H1662 H 0.39072 0.10064 0.54834 0.0
O1663 O 0.38188 0.1321 0.55628 0.0
H1664 H 0.45262 0.10765 0.54533 0.0
H1665 H 0.42728 0.1538 0.58088 0.0
H1666 H 0.411 0.17102 0.53728 0.0
H1667 H 0.43358 0.13172 0.54109 0.0
H1668 H 0.41035 0.13474 0.56725 0.0
O1669 O 0.37869 0.1023 0.50833 0.0
H1670 H 0.38846 0.15335 0.49369 0.0
H1671 H 0.35574 0.11068 0.49243 0.0
H1672 H 0.42804 0.1904 0.55055 0.0
H1673 H 0.40927 0.07637 0.55285 0.0
H1674 H 0.4363 0.18182 0.57253 0.0
H1675 H 0.4405 0.07973 0.55131 0.0
O1676 O 0.38125 0.15612 0.53677 0.0
H1677 H 0.32571 0.09808 0.53 0.0
H1678 H 0.34665 0.14844 0.50705 0.0
H1679 H 0.31616 0.14587 0.51182 0.0
H1680 H 0.30549 0.12053 0.52335 0.0
H1681 H 0.35614 0.10126 0.52518 0.0
H1682 H 0.34959 0.11619 0.46969 0.0
H1683 H 0.36299 0.14076 0.45885 0.0
O1684 O 0.37577 0.15245 0.5159 0.0
C1685 C 0.41304 0.13765 0.51451 0.0
C1686 C 0.37659 0.14871 0.47563 0.0
C1687 C 0.3581 0.12443 0.47489 0.0
N1688 N 0.37233 0.13177 0.4944 0.0
C1689 C 0.37984 0.14524 0.48848 0.0
C1690 C 0.36166 0.12136 0.48776 0.0
C1691 C 0.36562 0.13822 0.46881 0.0
C1692 C 0.40423 0.1024 0.54793 0.0
N1693 N 0.41097 0.11776 0.54471 0.0
C1694 C 0.41471 0.08852 0.55037 0.0
C1695 C 0.43223 0.09039 0.54947 0.0
C1696 C 0.43903 0.10605 0.54611 0.0
C1697 C 0.42816 0.11964 0.54372 0.0
C1698 C 0.4238 0.15766 0.57131 0.0
C1699 C 0.41464 0.16714 0.5468 0.0
C1700 C 0.41419 0.14694 0.56356 0.0
N1701 N 0.40982 0.1517 0.55143 0.0
C1702 C 0.42425 0.1782 0.55428 0.0
C1703 C 0.42886 0.17338 0.56662 0.0
C1704 C 0.37611 0.16161 0.52601 0.0
C1705 C 0.3302 0.10919 0.52498 0.0
C1706 C 0.34215 0.13746 0.51219 0.0
C1707 C 0.32484 0.13603 0.5148 0.0
C1708 C 0.31887 0.1218 0.52125 0.0
N1709 N 0.35319 0.12505 0.51591 0.0
C1710 C 0.34742 0.11104 0.52219 0.0
Co1711 Co 0.6203 0.64701 0.28705 0.0
Co1712 Co 0.62882 0.62814 0.25821 0.0
O1713 O 0.63411 0.6327 0.2761 0.0
C1714 C 0.61575 0.62474 0.30954 0.0
O1715 O 0.59935 0.62599 0.30764 0.0
C1716 C 0.66354 0.64152 0.25824 0.0
O1717 O 0.65722 0.65403 0.26497 0.0
O1718 O 0.62628 0.65274 0.25455 0.0
O1719 O 0.61464 0.66266 0.27264 0.0
H1720 H 0.59615 0.63406 0.21724 0.0
H1721 H 0.6556 0.6391 0.29484 0.0
O1722 O 0.62603 0.63171 0.30175 0.0
H1723 H 0.65333 0.70133 0.29138 0.0
H1724 H 0.60682 0.67849 0.3277 0.0
H1725 H 0.58636 0.6628 0.28478 0.0
H1726 H 0.62787 0.6841 0.28719 0.0
H1727 H 0.62448 0.66101 0.31342 0.0
O1728 O 0.65379 0.62977 0.25423 0.0
H1729 H 0.60243 0.63957 0.23996 0.0
H1730 H 0.64533 0.60717 0.2381 0.0
H1731 H 0.56831 0.68034 0.29875 0.0
H1732 H 0.68128 0.65588 0.29929 0.0
H1733 H 0.57852 0.6883 0.32038 0.0
H1734 H 0.68027 0.68722 0.29751 0.0
O1735 O 0.60011 0.63314 0.28282 0.0
H1736 H 0.65769 0.57679 0.27641 0.0
H1737 H 0.60805 0.59755 0.25243 0.0
H1738 H 0.61069 0.56704 0.25707 0.0
H1739 H 0.63569 0.55648 0.26911 0.0
H1740 H 0.65447 0.60722 0.27165 0.0
H1741 H 0.63961 0.60142 0.21533 0.0
H1742 H 0.61482 0.61486 0.20477 0.0
O1743 O 0.60375 0.62658 0.26208 0.0
C1744 C 0.61894 0.66434 0.26095 0.0
C1745 C 0.60695 0.62808 0.22175 0.0
C1746 C 0.63136 0.60978 0.22067 0.0
N1747 N 0.62413 0.62357 0.24036 0.0
C1748 C 0.61054 0.63111 0.23461 0.0
C1749 C 0.63455 0.61311 0.23355 0.0
C1750 C 0.61744 0.61732 0.21475 0.0
C1751 C 0.65498 0.65275 0.29423 0.0
N1752 N 0.6402 0.6606 0.29084 0.0
C1753 C 0.6696 0.66218 0.29669 0.0
C1754 C 0.66903 0.67976 0.29566 0.0
C1755 C 0.65392 0.68768 0.29221 0.0
C1756 C 0.63956 0.67784 0.2898 0.0
C1757 C 0.60224 0.67514 0.31829 0.0
C1758 C 0.59092 0.66626 0.29417 0.0
C1759 C 0.61219 0.66525 0.31016 0.0
N1760 N 0.60649 0.66096 0.29825 0.0
C1761 C 0.58063 0.67617 0.30204 0.0
C1762 C 0.58637 0.68063 0.31418 0.0
C1763 C 0.59458 0.62759 0.27215 0.0
C1764 C 0.64677 0.58123 0.27113 0.0
C1765 C 0.61893 0.59306 0.25772 0.0
C1766 C 0.62037 0.57577 0.26029 0.0
C1767 C 0.6344 0.56985 0.26704 0.0
N1768 N 0.63114 0.60414 0.26171 0.0
C1769 C 0.6449 0.59844 0.26838 0.0
Co1770 Co 0.10329 0.8665 0.04126 0.0
Co1771 Co 0.12374 0.8753 0.01296 0.0
O1772 O 0.1182 0.88056 0.03081 0.0
C1773 C 0.13113 0.87857 0.05916 0.0
O1774 O 0.13892 0.88709 0.05016 0.0
C1775 C 0.11056 0.91013 0.01253 0.0
O1776 O 0.09774 0.90402 0.01905 0.0
O1777 O 0.09934 0.87298 0.00848 0.0
O1778 O 0.08838 0.86164 0.02628 0.0
H1779 H 0.11989 0.84279 0.97179 0.0
H1780 H 0.11046 0.90232 0.04892 0.0
O1781 O 0.11752 0.87043 0.05689 0.0
H1782 H 0.04834 0.89848 0.04528 0.0
H1783 H 0.07057 0.85093 0.08089 0.0
H1784 H 0.08698 0.83306 0.03747 0.0
H1785 H 0.0662 0.87348 0.04118 0.0
H1786 H 0.0887 0.86918 0.06752 0.0
O1787 O 0.12243 0.90024 0.00891 0.0
H1788 H 0.11315 0.84906 0.99432 0.0
H1789 H 0.14596 0.89168 0.99356 0.0
H1790 H 0.06871 0.81448 0.05048 0.0
H1791 H 0.09309 0.92749 0.05328 0.0
H1792 H 0.06039 0.82339 0.07236 0.0
H1793 H 0.06176 0.92573 0.05142 0.0
O1794 O 0.11731 0.84645 0.03731 0.0
H1795 H 0.17466 0.90462 0.03155 0.0
H1796 H 0.1544 0.85396 0.00863 0.0
H1797 H 0.18472 0.85653 0.01399 0.0
H1798 H 0.19504 0.88203 0.0255 0.0
H1799 H 0.1444 0.90144 0.02615 0.0
H1800 H 0.15296 0.88596 0.97099 0.0
H1801 H 0.13993 0.86132 0.95998 0.0
O1802 O 0.12495 0.85018 0.01681 0.0
C1803 C 0.08732 0.86588 0.01457 0.0
C1804 C 0.1257 0.85353 0.9765 0.0
C1805 C 0.14424 0.87777 0.97604 0.0
N1806 N 0.12928 0.87062 0.99527 0.0
C1807 C 0.12197 0.85711 0.98926 0.0
C1808 C 0.14021 0.88097 0.98881 0.0
C1809 C 0.13693 0.86394 0.96987 0.0
C1810 C 0.09688 0.90125 0.04837 0.0
N1811 N 0.08943 0.88626 0.04505 0.0
C1812 C 0.08708 0.91565 0.05073 0.0
C1813 C 0.06951 0.91467 0.04965 0.0
C1814 C 0.06197 0.89939 0.04619 0.0
C1815 C 0.07218 0.88526 0.04388 0.0
C1816 C 0.07406 0.84693 0.07136 0.0
C1817 C 0.0833 0.83708 0.04695 0.0
C1818 C 0.08435 0.8572 0.06375 0.0
N1819 N 0.08874 0.85227 0.05167 0.0
C1820 C 0.073 0.82648 0.05429 0.0
C1821 C 0.06836 0.83148 0.06657 0.0
C1822 C 0.1234 0.84097 0.02682 0.0
C1823 C 0.17032 0.89345 0.02653 0.0
C1824 C 0.15875 0.86501 0.01376 0.0
C1825 C 0.17596 0.86644 0.01671 0.0
C1826 C 0.18174 0.88076 0.02315 0.0
N1827 N 0.14761 0.8775 0.01714 0.0
C1828 C 0.1532 0.8916 0.02341 0.0
Co1829 Co 0.88445 0.35482 0.78956 0.0
Co1830 Co 0.87438 0.3737 0.76093 0.0
O1831 O 0.86975 0.36899 0.77902 0.0
C1832 C 0.87224 0.38305 0.80706 0.0
O1833 O 0.86331 0.39032 0.79803 0.0
C1834 C 0.83951 0.36049 0.76153 0.0
O1835 O 0.84582 0.34805 0.76834 0.0
O1836 O 0.87665 0.34914 0.7571 0.0
O1837 O 0.88921 0.33942 0.77485 0.0
H1838 H 0.90548 0.36794 0.71926 0.0
H1839 H 0.84869 0.3615 0.7977 0.0
O1840 O 0.88066 0.36956 0.80493 0.0
H1841 H 0.85386 0.29943 0.79547 0.0
H1842 H 0.90198 0.32414 0.82965 0.0
H1843 H 0.91817 0.3391 0.78556 0.0
H1844 H 0.87831 0.31764 0.79046 0.0
H1845 H 0.8829 0.34128 0.81619 0.0
O1846 O 0.84929 0.37214 0.75738 0.0
H1847 H 0.9 0.36226 0.74207 0.0
H1848 H 0.85727 0.39495 0.74127 0.0
H1849 H 0.93756 0.32181 0.79866 0.0
H1850 H 0.82406 0.3438 0.80297 0.0
H1851 H 0.9295 0.31422 0.82087 0.0
H1852 H 0.82649 0.31248 0.80184 0.0
O1853 O 0.90407 0.3691 0.78493 0.0
H1854 H 0.84553 0.4253 0.77879 0.0
H1855 H 0.89544 0.40418 0.75532 0.0
H1856 H 0.89295 0.43469 0.75995 0.0
H1857 H 0.86783 0.44544 0.77174 0.0
H1858 H 0.84863 0.39486 0.7741 0.0
H1859 H 0.86219 0.40088 0.71842 0.0
H1860 H 0.8865 0.38738 0.70728 0.0
O1861 O 0.89965 0.37518 0.76422 0.0
C1862 C 0.88436 0.33762 0.76332 0.0
C1863 C 0.89489 0.37395 0.72402 0.0
C1864 C 0.87058 0.39242 0.72354 0.0
N1865 N 0.87843 0.3784 0.74301 0.0
C1866 C 0.89176 0.37082 0.73694 0.0
C1867 C 0.86784 0.38899 0.73647 0.0
C1868 C 0.88422 0.38484 0.7173 0.0
C1869 C 0.85006 0.34795 0.79745 0.0
N1870 N 0.86511 0.3407 0.79402 0.0
C1871 C 0.83596 0.33795 0.80033 0.0
C1872 C 0.83732 0.32038 0.79965 0.0
C1873 C 0.85266 0.31306 0.79608 0.0
C1874 C 0.86648 0.32346 0.79324 0.0
C1875 C 0.90561 0.32732 0.81997 0.0
C1876 C 0.91451 0.33574 0.79519 0.0
C1877 C 0.89487 0.33705 0.81231 0.0
N1878 N 0.89934 0.34104 0.80005 0.0
C1879 C 0.92557 0.32599 0.80257 0.0
C1880 C 0.92105 0.32176 0.81504 0.0
C1881 C 0.90919 0.37448 0.77412 0.0
C1882 C 0.85654 0.42077 0.77365 0.0
C1883 C 0.88455 0.40872 0.76057 0.0
C1884 C 0.88317 0.42603 0.76311 0.0
C1885 C 0.86906 0.43206 0.76971 0.0
N1886 N 0.87223 0.39772 0.7645 0.0
C1887 C 0.85834 0.40355 0.77093 0.0
C1888 C 0.13845 0.63394 0.16877 0.0
C1889 C 0.13318 0.62118 0.17725 0.0
C1890 C 0.14207 0.6302 0.15607 0.0
C1891 C 0.13058 0.59964 0.13125 0.0
H1892 H 0.16085 0.62789 0.1113 0.0
C1893 C 0.14534 0.62009 0.07509 0.0
C1894 C 0.12836 0.62153 0.07116 0.0
C1895 C 0.14925 0.61577 0.08775 0.0
C1896 C 0.15257 0.61959 0.11667 0.0
H1897 H 0.12852 0.59425 0.17917 0.0
H1898 H 0.13503 0.58762 0.15684 0.0
H1899 H 0.16312 0.62772 0.13447 0.0
H1900 H 0.1022 0.61905 0.07738 0.0
H1901 H 0.10893 0.61207 0.09924 0.0
H1902 H 0.12 0.59155 0.11346 0.0
C1903 C 0.13609 0.60061 0.16005 0.0
C1904 C 0.15373 0.61966 0.13 0.0
C1905 C 0.13242 0.60438 0.17285 0.0
C1906 C 0.11544 0.61812 0.08004 0.0
C1907 C 0.11932 0.61387 0.09261 0.0
C1908 C 0.12956 0.59942 0.11792 0.0
C1909 C 0.14064 0.61356 0.15144 0.0
C1910 C 0.14218 0.61035 0.13747 0.0
C1911 C 0.13625 0.6128 0.0967 0.0
C1912 C 0.13997 0.61004 0.1105 0.0
H1913 H 0.13933 0.64702 0.17183 0.0
H1914 H 0.14522 0.64059 0.14974 0.0
H1915 H 0.12148 0.59227 0.13664 0.0
H1916 H 0.1556 0.62251 0.06846 0.0
H1917 H 0.16244 0.61492 0.09056 0.0
C1918 C 0.64456 0.90054 0.42253 0.0
C1919 C 0.63994 0.88464 0.42746 0.0
C1920 C 0.64738 0.90256 0.40939 0.0
C1921 C 0.65693 0.87958 0.37977 0.0
H1922 H 0.62487 0.90951 0.36303 0.0
C1923 C 0.63229 0.86584 0.32991 0.0
C1924 C 0.62839 0.879 0.32136 0.0
C1925 C 0.63737 0.86934 0.34236 0.0
C1926 C 0.63422 0.9014 0.3675 0.0
H1927 H 0.63551 0.85829 0.42278 0.0
H1928 H 0.64104 0.86167 0.4 0.0
H1929 H 0.62824 0.91068 0.38624 0.0
H1930 H 0.62704 0.90627 0.31919 0.0
H1931 H 0.636 0.91246 0.34117 0.0
H1932 H 0.66264 0.86993 0.36119 0.0
C1933 C 0.64233 0.87259 0.4062 0.0
C1934 C 0.63613 0.90208 0.3808 0.0
C1935 C 0.63912 0.87066 0.41921 0.0
C1936 C 0.6299 0.89585 0.32556 0.0
C1937 C 0.635 0.89938 0.33814 0.0
C1938 C 0.65518 0.87903 0.36651 0.0
C1939 C 0.64606 0.88862 0.40111 0.0
C1940 C 0.64699 0.89068 0.38707 0.0
C1941 C 0.63878 0.88613 0.34668 0.0
C1942 C 0.64323 0.88938 0.36028 0.0
H1943 H 0.64508 0.91154 0.4287 0.0
H1944 H 0.6502 0.91504 0.40566 0.0
H1945 H 0.66552 0.87079 0.38439 0.0
H1946 H 0.6313 0.85269 0.32705 0.0
H1947 H 0.63976 0.85879 0.34872 0.0
C1948 C 0.36662 0.36832 0.66879 0.0
C1949 C 0.3717 0.3812 0.67724 0.0
C1950 C 0.36276 0.37198 0.65611 0.0
C1951 C 0.37318 0.40269 0.63117 0.0
H1952 H 0.3429 0.37396 0.6116 0.0
C1953 C 0.35756 0.38186 0.57522 0.0
C1954 C 0.37448 0.38055 0.57112 0.0
C1955 C 0.35384 0.38621 0.58791 0.0
C1956 C 0.35116 0.38239 0.61687 0.0
H1957 H 0.37582 0.40822 0.67912 0.0
H1958 H 0.36892 0.4147 0.65682 0.0
H1959 H 0.34114 0.37413 0.6348 0.0
H1960 H 0.40072 0.38333 0.57706 0.0
H1961 H 0.39433 0.39038 0.59897 0.0
H1962 H 0.38326 0.41089 0.61324 0.0
C1963 C 0.36818 0.40169 0.66004 0.0
C1964 C 0.35031 0.38232 0.63021 0.0
C1965 C 0.37208 0.398 0.67282 0.0
C1966 C 0.38753 0.38414 0.57985 0.0
C1967 C 0.38384 0.38843 0.59245 0.0
C1968 C 0.37391 0.4029 0.61783 0.0
C1969 C 0.36376 0.38864 0.65148 0.0
C1970 C 0.36188 0.39182 0.63753 0.0
C1971 C 0.36698 0.38935 0.59671 0.0
C1972 C 0.3635 0.39211 0.61054 0.0
H1973 H 0.36604 0.35523 0.67186 0.0
H1974 H 0.35973 0.36153 0.64981 0.0
H1975 H 0.38227 0.41021 0.63645 0.0
H1976 H 0.34721 0.37929 0.5687 0.0
H1977 H 0.3407 0.38693 0.59086 0.0
C1978 C 0.86158 0.13451 0.92133 0.0
C1979 C 0.86218 0.12012 0.92915 0.0
C1980 C 0.86027 0.13285 0.90811 0.0
C1981 C 0.85433 0.10219 0.88123 0.0
H1982 H 0.88402 0.13409 0.86416 0.0
C1983 C 0.86017 0.10855 0.82588 0.0
C1984 C 0.87578 0.11417 0.82102 0.0
C1985 C 0.85779 0.10698 0.8391 0.0
C1986 C 0.87587 0.12488 0.86874 0.0
H1987 H 0.86105 0.09274 0.92948 0.0
H1988 H 0.85943 0.08972 0.90624 0.0
H1989 H 0.87991 0.13621 0.88692 0.0
H1990 H 0.90153 0.12109 0.82592 0.0
H1991 H 0.89773 0.11748 0.84881 0.0
H1992 H 0.85095 0.09047 0.8629 0.0
C1993 C 0.8595 0.10233 0.9103 0.0
C1994 C 0.87319 0.12634 0.88183 0.0
C1995 C 0.86042 0.10403 0.92361 0.0
C1996 C 0.88931 0.1169 0.82945 0.0
C1997 C 0.88706 0.11501 0.84258 0.0
C1998 C 0.85715 0.10063 0.86805 0.0
C1999 C 0.86009 0.11674 0.90237 0.0
C2000 C 0.86232 0.11511 0.88828 0.0
C2001 C 0.87106 0.11079 0.84763 0.0
C2002 C 0.86804 0.11193 0.86166 0.0
H2003 H 0.86283 0.14705 0.92542 0.0
H2004 H 0.86017 0.14425 0.90236 0.0
H2005 H 0.84583 0.09336 0.88587 0.0
H2006 H 0.8495 0.10649 0.81955 0.0
H2007 H 0.8453 0.10376 0.84263 0.0
C2008 C 0.14278 0.3663 0.92085 0.0
C2009 C 0.14219 0.38058 0.92878 0.0
C2010 C 0.14426 0.36814 0.90765 0.0
C2011 C 0.15072 0.39909 0.88104 0.0
H2012 H 0.12061 0.36789 0.86365 0.0
C2013 C 0.14496 0.3933 0.82561 0.0
C2014 C 0.12925 0.38802 0.82072 0.0
C2015 C 0.14734 0.39478 0.83884 0.0
C2016 C 0.12889 0.37691 0.86832 0.0
H2017 H 0.14358 0.40794 0.92934 0.0
H2018 H 0.14552 0.41128 0.90614 0.0
H2019 H 0.12462 0.36537 0.88639 0.0
H2020 H 0.10335 0.38164 0.82556 0.0
H2021 H 0.10716 0.38509 0.84846 0.0
H2022 H 0.15436 0.411 0.8628 0.0
C2023 C 0.14529 0.39862 0.9101 0.0
C2024 C 0.13151 0.37522 0.8814 0.0
C2025 C 0.14419 0.39673 0.92339 0.0
C2026 C 0.11563 0.38558 0.82912 0.0
C2027 C 0.11789 0.38738 0.84225 0.0
C2028 C 0.14798 0.40088 0.86785 0.0
C2029 C 0.14464 0.38434 0.90204 0.0
C2030 C 0.14251 0.38619 0.88796 0.0
C2031 C 0.13396 0.3912 0.84733 0.0
C2032 C 0.13694 0.38983 0.86135 0.0
H2033 H 0.14135 0.3537 0.92482 0.0
H2034 H 0.1443 0.35683 0.9018 0.0
H2035 H 0.15933 0.40773 0.88577 0.0
H2036 H 0.15569 0.39512 0.8193 0.0
H2037 H 0.15988 0.39771 0.8424 0.0
C2038 C 0.86123 0.89495 0.07756 0.0
C2039 C 0.8662 0.87928 0.07244 0.0
C2040 C 0.85995 0.89707 0.09082 0.0
C2041 C 0.87748 0.87755 0.1201 0.0
H2042 H 0.8473 0.9083 0.13786 0.0
C2043 C 0.88793 0.88984 0.17295 0.0
C2044 C 0.87355 0.88982 0.1808 0.0
C2045 C 0.88629 0.89148 0.15975 0.0
C2046 C 0.85576 0.89959 0.13305 0.0
H2047 H 0.87226 0.85322 0.07693 0.0
H2048 H 0.86911 0.85657 0.0999 0.0
H2049 H 0.84404 0.90398 0.11484 0.0
H2050 H 0.84623 0.89231 0.1812 0.0
H2051 H 0.84321 0.89449 0.15799 0.0
H2052 H 0.88876 0.87249 0.13816 0.0
C2053 C 0.86694 0.86748 0.09384 0.0
C2054 C 0.85398 0.89722 0.11983 0.0
C2055 C 0.86857 0.86548 0.08067 0.0
C2056 C 0.85753 0.89246 0.17532 0.0
C2057 C 0.85583 0.89371 0.16202 0.0
C2058 C 0.87913 0.87976 0.13323 0.0
C2059 C 0.86339 0.88347 0.09914 0.0
C2060 C 0.8648 0.88608 0.11321 0.0
C2061 C 0.87017 0.89259 0.15404 0.0
C2062 C 0.86838 0.89086 0.13992 0.0
H2063 H 0.85947 0.90582 0.07138 0.0
H2064 H 0.85723 0.90957 0.09454 0.0
H2065 H 0.88633 0.86917 0.11535 0.0
H2066 H 0.90044 0.88794 0.177 0.0
H2067 H 0.89768 0.89116 0.15397 0.0
C2068 C 0.36618 0.63652 0.42029 0.0
C2069 C 0.36382 0.62294 0.42873 0.0
C2070 C 0.36469 0.63412 0.40715 0.0
C2071 C 0.35216 0.6037 0.38154 0.0
H2072 H 0.38763 0.62752 0.36328 0.0
C2073 C 0.35693 0.60764 0.32606 0.0
C2074 C 0.37312 0.60995 0.32078 0.0
C2075 C 0.35493 0.60643 0.33934 0.0
C2076 C 0.37781 0.6205 0.3682 0.0
H2077 H 0.35716 0.59641 0.43019 0.0
H2078 H 0.35511 0.592 0.40709 0.0
H2079 H 0.38469 0.63155 0.386 0.0
H2080 H 0.39996 0.61123 0.3249 0.0
H2081 H 0.39665 0.60807 0.34789 0.0
H2082 H 0.34574 0.59222 0.36359 0.0
C2083 C 0.35775 0.60461 0.41062 0.0
C2084 C 0.37587 0.62312 0.38126 0.0
C2085 C 0.35892 0.60712 0.42386 0.0
C2086 C 0.38734 0.60955 0.32879 0.0
C2087 C 0.38539 0.60796 0.34197 0.0
C2088 C 0.3542 0.60095 0.36838 0.0
C2089 C 0.36125 0.61797 0.40211 0.0
C2090 C 0.36294 0.61492 0.38812 0.0
C2091 C 0.36913 0.60728 0.34748 0.0
C2092 C 0.36708 0.60934 0.36155 0.0
H2093 H 0.36982 0.64889 0.42384 0.0
H2094 H 0.36691 0.64484 0.40092 0.0
H2095 H 0.34204 0.59719 0.38652 0.0
H2096 H 0.34577 0.6081 0.32005 0.0
H2097 H 0.34222 0.60596 0.34322 0.0
C2098 C 0.61172 0.09977 0.67155 0.0
C2099 C 0.6217 0.11097 0.67874 0.0
C2100 C 0.6155 0.09667 0.65871 0.0
C2101 C 0.64648 0.10613 0.63237 0.0
H2102 H 0.60519 0.1104 0.61256 0.0
C2103 C 0.62128 0.13397 0.58144 0.0
C2104 C 0.63131 0.12566 0.5723 0.0
C2105 C 0.62226 0.12958 0.59428 0.0
C2106 C 0.61686 0.10916 0.61794 0.0
H2107 H 0.64432 0.12662 0.67842 0.0
H2108 H 0.65053 0.12174 0.65599 0.0
H2109 H 0.60339 0.10588 0.63537 0.0
H2110 H 0.65095 0.10682 0.56955 0.0
H2111 H 0.65265 0.09901 0.59229 0.0
H2112 H 0.65983 0.11046 0.61476 0.0
C2113 C 0.63996 0.11505 0.66024 0.0
C2114 C 0.61585 0.1063 0.63104 0.0
C2115 C 0.63634 0.11793 0.67314 0.0
C2116 C 0.64307 0.11342 0.5764 0.0
C2117 C 0.64402 0.10895 0.58938 0.0
C2118 C 0.64749 0.10906 0.61917 0.0
C2119 C 0.62915 0.10497 0.65272 0.0
C2120 C 0.63061 0.10518 0.63852 0.0
C2121 C 0.63323 0.11667 0.59837 0.0
C2122 C 0.63264 0.11116 0.61192 0.0
H2123 H 0.60051 0.09402 0.67565 0.0
H2124 H 0.60718 0.08844 0.65331 0.0
H2125 H 0.65812 0.1051 0.6378 0.0
H2126 H 0.61232 0.14369 0.57864 0.0
H2127 H 0.61415 0.13613 0.60102 0.0
C2128 C 0.85488 0.39324 0.82554 0.0
C2129 C 0.87067 0.38856 0.82045 0.0
C2130 C 0.85277 0.39468 0.8388 0.0
C2131 C 0.87261 0.37755 0.868 0.0
H2132 H 0.84132 0.40704 0.8859 0.0
C2133 C 0.85994 0.36596 0.92059 0.0
C2134 C 0.86012 0.38016 0.92861 0.0
C2135 C 0.85824 0.36788 0.90741 0.0
C2136 C 0.85017 0.39877 0.88104 0.0
H2137 H 0.89691 0.38325 0.82494 0.0
H2138 H 0.89354 0.38666 0.84789 0.0
H2139 H 0.84567 0.41061 0.86288 0.0
H2140 H 0.85776 0.40745 0.92935 0.0
H2141 H 0.85541 0.41096 0.90617 0.0
H2142 H 0.87769 0.36609 0.88599 0.0
C2143 C 0.88257 0.3885 0.84182 0.0
C2144 C 0.85256 0.40074 0.86783 0.0
C2145 C 0.88458 0.38672 0.82866 0.0
C2146 C 0.85749 0.39629 0.92333 0.0
C2147 C 0.85616 0.39828 0.91006 0.0
C2148 C 0.87033 0.37569 0.88111 0.0
C2149 C 0.86648 0.39168 0.84712 0.0
C2150 C 0.86389 0.39016 0.86117 0.0
C2151 C 0.8572 0.38411 0.90191 0.0
C2152 C 0.85902 0.38617 0.88783 0.0
H2153 H 0.84393 0.39459 0.81938 0.0
H2154 H 0.8402 0.39712 0.84253 0.0
H2155 H 0.88114 0.36889 0.86321 0.0
H2156 H 0.86184 0.35337 0.92447 0.0
H2157 H 0.85852 0.35664 0.90149 0.0
C2158 C 0.35694 0.10788 0.67474 0.0
C2159 C 0.37298 0.11133 0.67994 0.0
C2160 C 0.3549 0.10651 0.66147 0.0
C2161 C 0.37644 0.1219 0.63242 0.0
H2162 H 0.3428 0.09532 0.61434 0.0
C2163 C 0.3644 0.13537 0.58001 0.0
C2164 C 0.3633 0.12137 0.57182 0.0
C2165 C 0.36276 0.1333 0.59317 0.0
C2166 C 0.35231 0.10276 0.61925 0.0
H2167 H 0.39963 0.1145 0.67566 0.0
H2168 H 0.39631 0.11116 0.65269 0.0
H2169 H 0.34675 0.09123 0.63735 0.0
H2170 H 0.35874 0.09438 0.57078 0.0
H2171 H 0.35649 0.09057 0.59394 0.0
H2172 H 0.38253 0.13302 0.61448 0.0
C2173 C 0.38514 0.11025 0.65867 0.0
C2174 C 0.35449 0.10051 0.63245 0.0
C2175 C 0.3871 0.11198 0.67184 0.0
C2176 C 0.3595 0.10538 0.57693 0.0
C2177 C 0.35821 0.10323 0.59019 0.0
C2178 C 0.37438 0.12404 0.61932 0.0
C2179 C 0.36892 0.10835 0.65326 0.0
C2180 C 0.36663 0.11005 0.63918 0.0
C2181 C 0.36049 0.11709 0.59849 0.0
C2182 C 0.36221 0.11463 0.61254 0.0
H2183 H 0.34584 0.10748 0.68082 0.0
H2184 H 0.34222 0.10508 0.65765 0.0
H2185 H 0.38565 0.12979 0.63726 0.0
H2186 H 0.36719 0.14785 0.57625 0.0
H2187 H 0.364 0.14436 0.59921 0.0
C2188 C 0.63094 0.63745 0.41909 0.0
C2189 C 0.63544 0.62494 0.428 0.0
C2190 C 0.63383 0.63497 0.40609 0.0
C2191 C 0.63459 0.6018 0.38259 0.0
H2192 H 0.65008 0.63769 0.36015 0.0
C2193 C 0.61097 0.61191 0.33113 0.0
C2194 C 0.62218 0.61861 0.322 0.0
C2195 C 0.61637 0.60907 0.34367 0.0
C2196 C 0.64601 0.62738 0.36625 0.0
H2197 H 0.64689 0.6002 0.43037 0.0
H2198 H 0.65161 0.59565 0.40742 0.0
H2199 H 0.65366 0.64054 0.38319 0.0
H2200 H 0.64823 0.62636 0.31867 0.0
H2201 H 0.65756 0.62147 0.34056 0.0
H2202 H 0.62616 0.58902 0.36565 0.0
C2203 C 0.64603 0.60745 0.4106 0.0
C2204 C 0.64796 0.62908 0.37945 0.0
C2205 C 0.64343 0.6101 0.4237 0.0
C2206 C 0.63921 0.62129 0.32547 0.0
C2207 C 0.64457 0.61856 0.33803 0.0
C2208 C 0.63246 0.60017 0.36937 0.0
C2209 C 0.64103 0.61979 0.40168 0.0
C2210 C 0.64185 0.61654 0.38776 0.0
C2211 C 0.63306 0.61296 0.34736 0.0
C2212 C 0.63775 0.61316 0.36109 0.0
H2213 H 0.62474 0.64901 0.42215 0.0
H2214 H 0.62968 0.64461 0.39943 0.0
H2215 H 0.62966 0.59199 0.3888 0.0
H2216 H 0.5978 0.60963 0.32877 0.0
H2217 H 0.60717 0.60485 0.35066 0.0
C2218 C 0.14551 0.89384 0.17539 0.0
C2219 C 0.12952 0.89114 0.1809 0.0
C2220 C 0.14716 0.89507 0.16209 0.0
C2221 C 0.12384 0.88088 0.13339 0.0
H2222 H 0.15872 0.9052 0.11486 0.0
C2223 C 0.13418 0.86641 0.08086 0.0
C2224 C 0.13639 0.88019 0.0726 0.0
C2225 C 0.13593 0.86847 0.09402 0.0
C2226 C 0.14884 0.89841 0.11989 0.0
H2227 H 0.10262 0.88912 0.17715 0.0
H2228 H 0.10529 0.89232 0.15412 0.0
H2229 H 0.15552 0.90962 0.13788 0.0
H2230 H 0.14295 0.90677 0.07144 0.0
H2231 H 0.14538 0.91062 0.09458 0.0
H2232 H 0.11664 0.87015 0.11556 0.0
C2233 C 0.11669 0.8927 0.15987 0.0
C2234 C 0.14709 0.90084 0.13311 0.0
C2235 C 0.1151 0.89108 0.17308 0.0
C2236 C 0.14132 0.89591 0.07765 0.0
C2237 C 0.14271 0.89809 0.0909 0.0
C2238 C 0.12546 0.8786 0.12027 0.0
C2239 C 0.13279 0.89386 0.15414 0.0
C2240 C 0.13454 0.89208 0.14002 0.0
C2241 C 0.13942 0.88451 0.09926 0.0
C2242 C 0.13806 0.88718 0.11332 0.0
H2243 H 0.15682 0.89375 0.18125 0.0
H2244 H 0.15976 0.8959 0.15804 0.0
H2245 H 0.11427 0.87357 0.13836 0.0
H2246 H 0.13052 0.85412 0.07717 0.0
H2247 H 0.13388 0.85758 0.10011 0.0
C2248 C 0.86865 0.63352 0.07748 0.0
C2249 C 0.86626 0.61997 0.069 0.0
C2250 C 0.86507 0.63162 0.09044 0.0
C2251 C 0.86785 0.60177 0.11558 0.0
H2252 H 0.84202 0.63477 0.13489 0.0
C2253 C 0.87282 0.60685 0.17084 0.0
C2254 C 0.87472 0.62355 0.17527 0.0
C2255 C 0.86781 0.60374 0.15819 0.0
C2256 C 0.84929 0.62543 0.12966 0.0
H2257 H 0.85809 0.59387 0.06731 0.0
H2258 H 0.85239 0.59034 0.09027 0.0
H2259 H 0.84018 0.6345 0.11162 0.0
H2260 H 0.87254 0.65005 0.16992 0.0
H2261 H 0.86433 0.64469 0.14811 0.0
H2262 H 0.87804 0.59354 0.1335 0.0
C2263 C 0.85668 0.6025 0.08675 0.0
C2264 C 0.84811 0.62522 0.11636 0.0
C2265 C 0.85985 0.60455 0.07366 0.0
C2266 C 0.87123 0.63701 0.16689 0.0
C2267 C 0.86629 0.63392 0.15434 0.0
C2268 C 0.86924 0.60214 0.12891 0.0
C2269 C 0.85942 0.61601 0.09523 0.0
C2270 C 0.85781 0.61377 0.1092 0.0
C2271 C 0.86457 0.61728 0.14978 0.0
C2272 C 0.8605 0.61445 0.13606 0.0
H2273 H 0.87362 0.64552 0.07412 0.0
H2274 H 0.86744 0.64216 0.09683 0.0
H2275 H 0.87553 0.59289 0.11022 0.0
H2276 H 0.87534 0.59621 0.17709 0.0
H2277 H 0.86654 0.59076 0.15499 0.0
C2278 C 0.11617 0.11538 0.82871 0.0
C2279 C 0.13011 0.11345 0.82053 0.0
C2280 C 0.11809 0.11351 0.84187 0.0
C2281 C 0.14794 0.1008 0.86789 0.0
H2282 H 0.12271 0.13513 0.88629 0.0
C2283 C 0.14331 0.10449 0.92342 0.0
C2284 C 0.14065 0.12054 0.92884 0.0
C2285 C 0.14449 0.10269 0.91013 0.0
C2286 C 0.1301 0.12562 0.88134 0.0
H2287 H 0.1568 0.10722 0.81954 0.0
H2288 H 0.16039 0.10456 0.84268 0.0
H2289 H 0.11934 0.13268 0.86348 0.0
H2290 H 0.13867 0.14736 0.92491 0.0
H2291 H 0.14174 0.14442 0.90189 0.0
H2292 H 0.15917 0.09426 0.88591 0.0
C2293 C 0.14786 0.10712 0.83893 0.0
C2294 C 0.12787 0.12395 0.86821 0.0
C2295 C 0.14583 0.10864 0.82567 0.0
C2296 C 0.14059 0.13484 0.92092 0.0
C2297 C 0.14215 0.1331 0.90772 0.0
C2298 C 0.15031 0.10257 0.88111 0.0
C2299 C 0.13412 0.11016 0.84721 0.0
C2300 C 0.13663 0.11146 0.86129 0.0
C2301 C 0.14326 0.11695 0.90209 0.0
C2302 C 0.14142 0.11506 0.88799 0.0
H2303 H 0.10388 0.11894 0.82495 0.0
H2304 H 0.10709 0.11537 0.8479 0.0
H2305 H 0.15486 0.091 0.86287 0.0
H2306 H 0.14322 0.09326 0.92937 0.0
H2307 H 0.1453 0.09006 0.90615 0.0
C2308 C 0.6429 0.39842 0.57419 0.0
C2309 C 0.63649 0.38305 0.56945 0.0
C2310 C 0.64603 0.40037 0.58729 0.0
C2311 C 0.65441 0.37734 0.61683 0.0
H2312 H 0.62497 0.40937 0.63406 0.0
C2313 C 0.63147 0.36583 0.66745 0.0
C2314 C 0.62825 0.37933 0.67586 0.0
C2315 C 0.63631 0.36885 0.65488 0.0
C2316 C 0.63362 0.40067 0.62944 0.0
H2317 H 0.62909 0.35747 0.57445 0.0
H2318 H 0.63519 0.36066 0.59719 0.0
H2319 H 0.62741 0.41005 0.61077 0.0
H2320 H 0.62801 0.40668 0.67767 0.0
H2321 H 0.63666 0.41201 0.65552 0.0
H2322 H 0.66044 0.36767 0.63534 0.0
C2323 C 0.63759 0.37124 0.59085 0.0
C2324 C 0.63499 0.40105 0.61611 0.0
C2325 C 0.63406 0.36944 0.57787 0.0
C2326 C 0.63032 0.39601 0.67141 0.0
C2327 C 0.63523 0.39905 0.65873 0.0
C2328 C 0.65326 0.37711 0.63013 0.0
C2329 C 0.64325 0.38681 0.59571 0.0
C2330 C 0.64485 0.38894 0.60969 0.0
C2331 C 0.63822 0.38547 0.6503 0.0
C2332 C 0.64224 0.38824 0.63656 0.0
H2333 H 0.6447 0.40915 0.56788 0.0
H2334 H 0.65034 0.4125 0.59087 0.0
H2335 H 0.66222 0.36798 0.61207 0.0
H2336 H 0.63002 0.3528 0.67049 0.0
H2337 H 0.63807 0.35806 0.64863 0.0
C2338 C 0.38529 0.89182 0.32919 0.0
C2339 C 0.37135 0.89247 0.3209 0.0
C2340 C 0.38303 0.89364 0.34232 0.0
C2341 C 0.35198 0.9037 0.36814 0.0
H2342 H 0.37901 0.87056 0.38635 0.0
C2343 C 0.35648 0.89872 0.42368 0.0
C2344 C 0.35981 0.88263 0.42881 0.0
C2345 C 0.35523 0.9009 0.41042 0.0
C2346 C 0.37114 0.87972 0.38145 0.0
H2347 H 0.34425 0.89647 0.31964 0.0
H2348 H 0.34013 0.89908 0.34275 0.0
H2349 H 0.38265 0.87383 0.36361 0.0
H2350 H 0.36285 0.85603 0.42439 0.0
H2351 H 0.35976 0.8596 0.40142 0.0
H2352 H 0.34009 0.90909 0.38615 0.0
C2353 C 0.35288 0.89756 0.3391 0.0
C2354 C 0.3735 0.88187 0.36838 0.0
C2355 C 0.35522 0.89607 0.32587 0.0
C2356 C 0.36042 0.86859 0.42063 0.0
C2357 C 0.35883 0.87069 0.40747 0.0
C2358 C 0.34952 0.90146 0.38132 0.0
C2359 C 0.3667 0.89566 0.3475 0.0
C2360 C 0.36407 0.89394 0.36153 0.0
C2361 C 0.35709 0.88696 0.40214 0.0
C2362 C 0.35906 0.88937 0.38811 0.0
H2363 H 0.39788 0.88918 0.32555 0.0
H2364 H 0.39404 0.89267 0.34846 0.0
H2365 H 0.34452 0.91314 0.36317 0.0
H2366 H 0.35612 0.90976 0.42982 0.0
H2367 H 0.35391 0.9136 0.40666 0.0
C2368 C 0.06478 0.62851 0.99393 0.0
C2369 C 0.07006 0.6398 0.00351 0.0
C2370 C 0.04836 0.62962 0.98889 0.0
C2371 C 0.00935 0.65656 0.98864 0.0
H2372 H 0.98586 0.61372 0.9924 0.0
C2373 C 0.94293 0.65037 0.00915 0.0
C2374 C 0.93177 0.63794 0.00454 0.0
C2375 C 0.9592 0.65192 0.0041 0.0
C2376 C 0.99221 0.62573 0.99097 0.0
H2377 H 0.06293 0.66196 0.0145 0.0
H2378 H 0.03454 0.66388 0.00582 0.0
H2379 H 0.01671 0.61421 0.99192 0.0
H2380 H 0.92865 0.6178 0.99065 0.0
H2381 H 0.95742 0.62029 0.98196 0.0
H2382 H 0.98479 0.66814 0.98864 0.0
C2383 C 0.04291 0.65418 0.00211 0.0
C2384 C 0.00993 0.62602 0.99066 0.0
C2385 C 0.05918 0.653 0.00719 0.0
C2386 C 0.93698 0.62753 0.99437 0.0
C2387 C 0.95342 0.62891 0.98943 0.0
C2388 C 0.99165 0.65627 0.98902 0.0
C2389 C 0.03706 0.64215 0.99324 0.0
C2390 C 0.01869 0.64151 0.99011 0.0
C2391 C 0.96478 0.64093 0.99442 0.0
C2392 C 0.98295 0.64092 0.99077 0.0
H2393 H 0.0729 0.61818 0.99093 0.0
H2394 H 0.04426 0.62025 0.98199 0.0
H2395 H 0.01573 0.66866 0.98794 0.0
H2396 H 0.93926 0.65863 0.01694 0.0
H2397 H 0.96772 0.66115 0.00827 0.0
C2398 C 0.60352 0.69187 0.25989 0.0
C2399 C 0.61596 0.68099 0.25491 0.0
C2400 C 0.60181 0.70832 0.25524 0.0
C2401 C 0.62737 0.74211 0.24248 0.0
H2402 H 0.58401 0.76488 0.23934 0.0
C2403 C 0.62347 0.81465 0.24471 0.0
C2404 C 0.61181 0.82013 0.25398 0.0
C2405 C 0.62273 0.79806 0.23999 0.0
C2406 C 0.59624 0.75872 0.24011 0.0
H2407 H 0.636 0.67862 0.24084 0.0
H2408 H 0.63322 0.70769 0.23287 0.0
H2409 H 0.58504 0.734 0.24013 0.0
H2410 H 0.58938 0.81307 0.26473 0.0
H2411 H 0.58814 0.78439 0.25664 0.0
H2412 H 0.6385 0.76676 0.24339 0.0
C2413 C 0.62472 0.70333 0.2403 0.0
C2414 C 0.59681 0.74105 0.24053 0.0
C2415 C 0.62626 0.68671 0.24483 0.0
C2416 C 0.59864 0.8092 0.25766 0.0
C2417 C 0.59784 0.79274 0.25292 0.0
C2418 C 0.62679 0.7598 0.24216 0.0
C2419 C 0.61264 0.71437 0.24561 0.0
C2420 C 0.61232 0.7326 0.24224 0.0
C2421 C 0.61022 0.78675 0.24437 0.0
C2422 C 0.61114 0.76832 0.24153 0.0
H2423 H 0.59534 0.68781 0.26762 0.0
H2424 H 0.59253 0.71659 0.25964 0.0
H2425 H 0.63949 0.73595 0.24388 0.0
H2426 H 0.63378 0.82279 0.24171 0.0
H2427 H 0.63234 0.79388 0.23331 0.0
C2428 C 0.43791 0.37423 0.49397 0.0
C2429 C 0.43256 0.36274 0.50339 0.0
C2430 C 0.4544 0.3733 0.48904 0.0
C2431 C 0.49358 0.34658 0.48882 0.0
H2432 H 0.51675 0.38953 0.49298 0.0
C2433 C 0.56001 0.35295 0.5094 0.0
C2434 C 0.57106 0.36553 0.50488 0.0
C2435 C 0.54373 0.35136 0.50436 0.0
C2436 C 0.51048 0.3775 0.49144 0.0
H2437 H 0.43967 0.3404 0.51419 0.0
H2438 H 0.46817 0.33879 0.50571 0.0
H2439 H 0.48591 0.38883 0.49239 0.0
H2440 H 0.57398 0.38591 0.49116 0.0
H2441 H 0.54521 0.38334 0.4825 0.0
H2442 H 0.51822 0.33517 0.48882 0.0
C2443 C 0.45981 0.34851 0.50204 0.0
C2444 C 0.49277 0.37708 0.49107 0.0
C2445 C 0.44346 0.34952 0.50701 0.0
C2446 C 0.56574 0.37606 0.49481 0.0
C2447 C 0.54929 0.37464 0.48989 0.0
C2448 C 0.51127 0.34699 0.48927 0.0
C2449 C 0.46571 0.36074 0.49335 0.0
C2450 C 0.48411 0.36154 0.49036 0.0
C2451 C 0.53803 0.36246 0.49479 0.0
C2452 C 0.51986 0.36237 0.49115 0.0
H2453 H 0.42978 0.38458 0.49102 0.0
H2454 H 0.45854 0.38281 0.48227 0.0
H2455 H 0.48729 0.33444 0.48799 0.0
H2456 H 0.56376 0.34459 0.5171 0.0
H2457 H 0.53529 0.342 0.50846 0.0
C2458 C 0.8998 0.31014 0.76223 0.0
C2459 C 0.88723 0.32092 0.75731 0.0
C2460 C 0.90135 0.29358 0.7578 0.0
C2461 C 0.87536 0.25959 0.74537 0.0
H2462 H 0.91859 0.23628 0.74382 0.0
C2463 C 0.87952 0.18666 0.74748 0.0
C2464 C 0.89036 0.18118 0.75731 0.0
C2465 C 0.88025 0.20342 0.7431 0.0
C2466 C 0.90641 0.24261 0.74412 0.0
H2467 H 0.86687 0.32302 0.74348 0.0
H2468 H 0.86947 0.29378 0.7358 0.0
H2469 H 0.91786 0.26719 0.74384 0.0
H2470 H 0.91116 0.18861 0.76967 0.0
H2471 H 0.91245 0.21759 0.76206 0.0
H2472 H 0.86396 0.23503 0.74638 0.0
C2473 C 0.87813 0.29827 0.74309 0.0
C2474 C 0.90599 0.26029 0.74413 0.0
C2475 C 0.8767 0.315 0.74743 0.0
C2476 C 0.90257 0.19245 0.76213 0.0
C2477 C 0.90341 0.20905 0.75768 0.0
C2478 C 0.87577 0.24188 0.74537 0.0
C2479 C 0.89029 0.28731 0.7484 0.0
C2480 C 0.89051 0.26896 0.74532 0.0
C2481 C 0.89199 0.21488 0.74836 0.0
C2482 C 0.89135 0.23323 0.74531 0.0
H2483 H 0.90818 0.31433 0.76979 0.0
H2484 H 0.9107 0.28542 0.76223 0.0
H2485 H 0.86324 0.26589 0.74638 0.0
H2486 H 0.86996 0.17827 0.74359 0.0
H2487 H 0.87134 0.20754 0.73587 0.0
C2488 C 0.9378 0.37315 0.99714 0.0
C2489 C 0.92953 0.36091 0.98965 0.0
C2490 C 0.95518 0.37166 -0.00029 0.0
C2491 C 0.99244 0.35272 0.98448 0.0
H2492 H 0.01673 0.36664 0.01493 0.0
C2493 C 0.06395 0.34673 0.98585 0.0
C2494 C 0.07291 0.36116 0.98981 0.0
C2495 C 0.04673 0.34509 0.9885 0.0
C2496 C 0.01008 0.36277 0.00636 0.0
H2497 H 0.93244 0.33678 0.98003 0.0
H2498 H 0.96246 0.33392 0.98481 0.0
H2499 H 0.98559 0.36657 0.01489 0.0
H2500 H 0.07118 0.38468 0.00039 0.0
H2501 H 0.04079 0.38201 0.0048 0.0
H2502 H 0.0166 0.34928 0.97579 0.0
C2503 C 0.95578 0.34495 0.98835 0.0
C2504 C 0.99229 0.36273 0.00634 0.0
C2505 C 0.93856 0.34653 0.98567 0.0
C2506 C 0.06456 0.3734 0.99726 0.0
C2507 C 0.04718 0.37185 -0.00021 0.0
C2508 C 0.01007 0.35276 0.9845 0.0
C2509 C 0.96447 0.35784 0.9949 0.0
C2510 C 0.98329 0.35761 0.99539 0.0
C2511 C 0.03797 0.35798 0.995 0.0
C2512 C 0.01914 0.35768 0.99544 0.0
H2513 H 0.93113 0.3844 0.00028 0.0
H2514 H 0.96151 0.38182 0.00476 0.0
H2515 H 0.98596 0.34922 0.97574 0.0
H2516 H 0.07013 0.33697 0.98025 0.0
H2517 H 0.0401 0.33402 0.98497 0.0
C2518 C 0.90691 0.81403 0.24057 0.0
C2519 C 0.89165 0.82236 0.24336 0.0
C2520 C 0.90905 0.79702 0.24372 0.0
C2521 C 0.89012 0.76 0.2607 0.0
H2522 H 0.90972 0.7358 0.23206 0.0
C2523 C 0.88095 0.6883 0.24946 0.0
C2524 C 0.89427 0.68013 0.24304 0.0
C2525 C 0.88247 0.70539 0.25289 0.0
C2526 C 0.90454 0.74231 0.24029 0.0
H2527 H 0.86701 0.81983 0.25228 0.0
H2528 H 0.87049 0.78978 0.25743 0.0
H2529 H 0.90895 0.76635 0.23174 0.0
H2530 H 0.92015 0.68261 0.23641 0.0
H2531 H 0.92305 0.71211 0.24282 0.0
H2532 H 0.88513 0.73556 0.26894 0.0
C2533 C 0.88096 0.79648 0.25305 0.0
C2534 C 0.9041 0.75992 0.24011 0.0
C2535 C 0.87894 0.81367 0.25009 0.0
C2536 C 0.90966 0.6887 0.24128 0.0
C2537 C 0.91126 0.70562 0.24485 0.0
C2538 C 0.8905 0.74223 0.26085 0.0
C2539 C 0.89582 0.78782 0.24946 0.0
C2540 C 0.8969 0.76903 0.25029 0.0
C2541 C 0.89738 0.71442 0.25003 0.0
C2542 C 0.89774 0.73322 0.25062 0.0
H2543 H 0.91699 0.82052 0.23553 0.0
H2544 H 0.92085 0.79089 0.24115 0.0
H2545 H 0.88451 0.76664 0.2687 0.0
H2546 H 0.8689 0.68198 0.2508 0.0
H2547 H 0.87154 0.71183 0.25684 0.0
C2548 C 0.43571 0.62968 0.50252 0.0
C2549 C 0.42997 0.64025 0.49261 0.0
C2550 C 0.45242 0.63095 0.50696 0.0
C2551 C 0.49083 0.65827 0.506 0.0
H2552 H 0.51546 0.61589 0.50374 0.0
C2553 C 0.5584 0.65364 0.48758 0.0
C2554 C 0.56954 0.64126 0.49231 0.0
C2555 C 0.54189 0.65482 0.4922 0.0
C2556 C 0.50879 0.6278 0.50476 0.0
H2557 H 0.43686 0.66113 0.48018 0.0
H2558 H 0.46575 0.66339 0.48791 0.0
H2559 H 0.48457 0.61564 0.50377 0.0
H2560 H 0.57236 0.62092 0.50606 0.0
H2561 H 0.54322 0.62287 0.51409 0.0
H2562 H 0.51506 0.67047 0.50626 0.0
C2563 C 0.45746 0.65413 0.49229 0.0
C2564 C 0.49106 0.62766 0.50478 0.0
C2565 C 0.44091 0.65273 0.48778 0.0
C2566 C 0.56406 0.63061 0.50225 0.0
C2567 C 0.54738 0.63166 0.50679 0.0
C2568 C 0.50853 0.65841 0.50599 0.0
C2569 C 0.46356 0.64299 0.5017 0.0
C2570 C 0.48192 0.64294 0.50482 0.0
C2571 C 0.53603 0.64356 0.50161 0.0
C2572 C 0.51769 0.64322 0.50479 0.0
H2573 H 0.42757 0.61991 0.50642 0.0
H2574 H 0.45677 0.62225 0.51426 0.0
H2575 H 0.48411 0.67023 0.50628 0.0
H2576 H 0.56226 0.66211 0.47997 0.0
H2577 H 0.53343 0.66398 0.48787 0.0
C2578 C 0.62498 0.18835 0.74957 0.0
C2579 C 0.61332 0.17985 0.74172 0.0
C2580 C 0.62278 0.20558 0.75234 0.0
C2581 C 0.60161 0.24276 0.73812 0.0
H2582 H 0.61673 0.26605 0.7687 0.0
C2583 C 0.59377 0.31358 0.7412 0.0
C2584 C 0.60896 0.32236 0.74338 0.0
C2585 C 0.5924 0.2965 0.74436 0.0
C2586 C 0.61244 0.25966 0.76014 0.0
H2587 H 0.58953 0.18213 0.73153 0.0
H2588 H 0.58524 0.21179 0.73682 0.0
H2589 H 0.61761 0.23499 0.76782 0.0
H2590 H 0.6341 0.32069 0.75159 0.0
H2591 H 0.63178 0.29059 0.75704 0.0
H2592 H 0.5966 0.26721 0.73035 0.0
C2593 C 0.59647 0.20551 0.74041 0.0
C2594 C 0.61299 0.24191 0.7596 0.0
C2595 C 0.59885 0.18847 0.73745 0.0
C2596 C 0.6222 0.31421 0.74991 0.0
C2597 C 0.62088 0.29699 0.753 0.0
C2598 C 0.60091 0.26035 0.73871 0.0
C2599 C 0.60875 0.21448 0.74744 0.0
C2600 C 0.60758 0.23326 0.74855 0.0
C2601 C 0.60627 0.2878 0.74964 0.0
C2602 C 0.60631 0.26902 0.74969 0.0
H2603 H 0.63629 0.18197 0.75294 0.0
H2604 H 0.63254 0.21207 0.75772 0.0
H2605 H 0.59787 0.23668 0.72929 0.0
H2606 H 0.58332 0.31962 0.73624 0.0
H2607 H 0.58086 0.28982 0.7419 0.0
C2608 C 0.40694 0.31305 0.74139 0.0
C2609 C 0.39147 0.32133 0.74354 0.0
C2610 C 0.40892 0.29608 0.7447 0.0
C2611 C 0.38945 0.25879 0.76064 0.0
H2612 H 0.40714 0.23563 0.73082 0.0
C2613 C 0.37914 0.18726 0.74951 0.0
C2614 C 0.39172 0.17899 0.74235 0.0
C2615 C 0.38088 0.20445 0.75256 0.0
C2616 C 0.40252 0.2418 0.73938 0.0
H2617 H 0.36637 0.31889 0.7517 0.0
H2618 H 0.36968 0.28894 0.75729 0.0
H2619 H 0.40728 0.26619 0.73147 0.0
H2620 H 0.4166 0.18158 0.73382 0.0
H2621 H 0.41999 0.21122 0.7396 0.0
H2622 H 0.38436 0.23411 0.76837 0.0
C2623 C 0.38038 0.29565 0.75323 0.0
C2624 C 0.40258 0.2594 0.73975 0.0
C2625 C 0.37848 0.31279 0.75006 0.0
C2626 C 0.40661 0.18775 0.7392 0.0
C2627 C 0.40848 0.20476 0.74244 0.0
C2628 C 0.38946 0.24102 0.7603 0.0
C2629 C 0.39535 0.28694 0.75 0.0
C2630 C 0.39605 0.26815 0.75035 0.0
C2631 C 0.39532 0.21354 0.74863 0.0
C2632 C 0.39599 0.23233 0.74963 0.0
H2633 H 0.41718 0.31943 0.73644 0.0
H2634 H 0.42074 0.28983 0.74237 0.0
H2635 H 0.3843 0.26519 0.76892 0.0
H2636 H 0.36749 0.18078 0.75198 0.0
H2637 H 0.37047 0.21082 0.75729 0.0
C2638 C 0.12566 0.68976 0.25011 0.0
C2639 C 0.11278 0.68131 0.2434 0.0
C2640 C 0.12372 0.70685 0.2534 0.0
C2641 C 0.10144 0.74338 0.24021 0.0
H2642 H 0.11992 0.76809 0.26903 0.0
C2643 C 0.09724 0.81499 0.2406 0.0
C2644 C 0.11226 0.82366 0.24354 0.0
C2645 C 0.09543 0.79794 0.24372 0.0
C2646 C 0.11474 0.76134 0.26091 0.0
H2647 H 0.08722 0.68333 0.23603 0.0
H2648 H 0.08354 0.71283 0.2422 0.0
H2649 H 0.11996 0.737 0.26924 0.0
H2650 H 0.13678 0.82168 0.25273 0.0
H2651 H 0.13387 0.79156 0.25786 0.0
H2652 H 0.09676 0.76735 0.23161 0.0
C2653 C 0.09534 0.70656 0.24457 0.0
C2654 C 0.11475 0.74356 0.26105 0.0
C2655 C 0.09737 0.68964 0.24113 0.0
C2656 C 0.12503 0.81526 0.25042 0.0
C2657 C 0.12334 0.79803 0.25337 0.0
C2658 C 0.10148 0.76099 0.24006 0.0
C2659 C 0.10881 0.71562 0.2501 0.0
C2660 C 0.10807 0.73441 0.25067 0.0
C2661 C 0.10876 0.78904 0.2496 0.0
C2662 C 0.10811 0.77024 0.25039 0.0
H2663 H 0.13773 0.68361 0.25185 0.0
H2664 H 0.13435 0.71349 0.25763 0.0
H2665 H 0.09669 0.73678 0.23187 0.0
H2666 H 0.08711 0.82125 0.23544 0.0
H2667 H 0.08384 0.79153 0.24101 0.0
C2668 C 0.12513 0.18651 0.74726 0.0
C2669 C 0.11443 0.18069 0.75707 0.0
C2670 C 0.12395 0.20327 0.74294 0.0
C2671 C 0.09665 0.2417 0.74405 0.0
H2672 H 0.13912 0.26622 0.74635 0.0
C2673 C 0.10137 0.30934 0.76233 0.0
C2674 C 0.1136 0.32049 0.7574 0.0
C2675 C 0.10026 0.29275 0.75787 0.0
C2676 C 0.12719 0.25957 0.74533 0.0
H2677 H 0.09343 0.18749 0.76943 0.0
H2678 H 0.09135 0.21646 0.76192 0.0
H2679 H 0.13931 0.23535 0.74626 0.0
H2680 H 0.13382 0.32319 0.74351 0.0
H2681 H 0.13201 0.29393 0.73579 0.0
H2682 H 0.08448 0.26593 0.74386 0.0
C2683 C 0.10063 0.2082 0.75752 0.0
C2684 C 0.1273 0.24186 0.74528 0.0
C2685 C 0.10193 0.1916 0.76192 0.0
C2686 C 0.12424 0.31489 0.74748 0.0
C2687 C 0.12327 0.29815 0.7431 0.0
C2688 C 0.09655 0.25938 0.74412 0.0
C2689 C 0.11188 0.21438 0.74822 0.0
C2690 C 0.11198 0.23275 0.7452 0.0
C2691 C 0.11146 0.28683 0.74844 0.0
C2692 C 0.11177 0.26849 0.74532 0.0
H2693 H 0.13491 0.1784 0.74336 0.0
H2694 H 0.13274 0.20767 0.73572 0.0
H2695 H 0.08467 0.23502 0.74374 0.0
H2696 H 0.09293 0.31327 0.76994 0.0
H2697 H 0.09118 0.28431 0.76231 0.0
C2698 C 0.37949 0.68813 0.25247 0.0
C2699 C 0.39175 0.67998 0.26003 0.0
C2700 C 0.38088 0.70549 0.24988 0.0
C2701 C 0.3995 0.74286 0.26512 0.0
H2702 H 0.38578 0.767 0.23456 0.0
C2703 C 0.40556 0.81421 0.26371 0.0
C2704 C 0.3911 0.82315 0.25977 0.0
C2705 C 0.40723 0.79703 0.261 0.0
C2706 C 0.3896 0.76039 0.24316 0.0
H2707 H 0.41582 0.68307 0.26973 0.0
H2708 H 0.41852 0.71306 0.26489 0.0
H2709 H 0.38591 0.73588 0.23466 0.0
H2710 H 0.36757 0.82148 0.24918 0.0
H2711 H 0.37028 0.79113 0.24467 0.0
H2712 H 0.40284 0.76703 0.27379 0.0
C2713 C 0.40754 0.7063 0.26133 0.0
C2714 C 0.38967 0.74261 0.24321 0.0
C2715 C 0.40605 0.6891 0.26404 0.0
C2716 C 0.37888 0.81486 0.25227 0.0
C2717 C 0.38044 0.7975 0.24969 0.0
C2718 C 0.39944 0.76047 0.26507 0.0
C2719 C 0.39462 0.71487 0.25472 0.0
C2720 C 0.39474 0.73368 0.2542 0.0
C2721 C 0.39433 0.78829 0.25449 0.0
C2722 C 0.3946 0.76948 0.25409 0.0
H2723 H 0.3683 0.68137 0.2493 0.0
H2724 H 0.3707 0.71174 0.24478 0.0
H2725 H 0.40295 0.73642 0.27389 0.0
H2726 H 0.41529 0.82036 0.26935 0.0
H2727 H 0.4183 0.79039 0.26453 0.0
C2728 C 0.43785 0.12828 0.50139 0.0
C2729 C 0.42968 0.14085 0.50861 0.0
C2730 C 0.45499 0.13007 0.49813 0.0
C2731 C 0.49253 0.15206 0.51077 0.0
H2732 H 0.51548 0.13391 0.481 0.0
C2733 C 0.56364 0.15819 0.50736 0.0
C2734 C 0.57227 0.14289 0.50532 0.0
C2735 C 0.54649 0.1596 0.50437 0.0
C2736 C 0.50919 0.13904 0.48935 0.0
H2737 H 0.43232 0.16575 0.51704 0.0
H2738 H 0.46184 0.16927 0.51086 0.0
H2739 H 0.48437 0.13356 0.48199 0.0
H2740 H 0.57021 0.1175 0.49766 0.0
H2741 H 0.53995 0.11986 0.4926 0.0
H2742 H 0.51708 0.15726 0.51829 0.0
C2743 C 0.45537 0.15772 0.50815 0.0
C2744 C 0.49142 0.13881 0.48993 0.0
C2745 C 0.43843 0.15578 0.5116 0.0
C2746 C 0.56383 0.12948 0.49922 0.0
C2747 C 0.54653 0.13083 0.49635 0.0
C2748 C 0.51014 0.15237 0.51016 0.0
C2749 C 0.46411 0.14457 0.50191 0.0
C2750 C 0.48289 0.14534 0.50068 0.0
C2751 C 0.53753 0.14565 0.49948 0.0
C2752 C 0.51871 0.1459 0.49946 0.0
H2753 H 0.43136 0.1166 0.49904 0.0
H2754 H 0.46132 0.11968 0.49336 0.0
H2755 H 0.48651 0.15668 0.51939 0.0
H2756 H 0.56991 0.16876 0.51197 0.0
H2757 H 0.53999 0.17132 0.50662 0.0
C2758 C 0.93708 0.87376 0.99798 0.0
C2759 C 0.93157 0.86304 0.00787 0.0
C2760 C 0.95374 0.87267 0.99341 0.0
C2761 C 0.99243 0.84568 0.99402 0.0
H2762 H 0.0167 0.88824 0.99657 0.0
C2763 C 0.05969 0.85081 0.01291 0.0
C2764 C 0.07085 0.86316 0.00817 0.0
C2765 C 0.04323 0.84955 0.00818 0.0
C2766 C 0.01012 0.87629 0.99547 0.0
H2767 H 0.93878 0.84206 0.02011 0.0
H2768 H 0.96758 0.84012 0.01216 0.0
H2769 H 0.98579 0.88823 0.99651 0.0
H2770 H 0.07377 0.88342 0.99436 0.0
H2771 H 0.04469 0.88135 0.98618 0.0
H2772 H 0.01677 0.83369 0.99376 0.0
C2773 C 0.95916 0.84936 0.00788 0.0
C2774 C 0.99239 0.87628 0.99543 0.0
C2775 C 0.94266 0.85058 0.01253 0.0
C2776 C 0.06544 0.87374 0.99816 0.0
C2777 C 0.04881 0.87262 0.99353 0.0
C2778 C 0.01013 0.84569 0.99407 0.0
C2779 C 0.96505 0.86066 0.99851 0.0
C2780 C 0.98338 0.86092 0.99531 0.0
C2781 C 0.03745 0.86071 0.99868 0.0
C2782 C 0.01915 0.86094 0.99538 0.0
H2783 H 0.92881 0.88351 0.99423 0.0
H2784 H 0.95793 0.8815 0.98615 0.0
H2785 H 0.98582 0.83367 0.99367 0.0
H2786 H 0.0635 0.84242 0.02057 0.0
H2787 H 0.03475 0.84039 0.01249 0.0
C2788 C 0.43684 0.87589 0.49763 0.0
C2789 C 0.42852 0.86347 0.49035 0.0
C2790 C 0.45422 0.87441 0.50019 0.0
C2791 C 0.49125 0.85504 0.48506 0.0
H2792 H 0.51596 0.86996 0.51505 0.0
C2793 C 0.56282 0.84991 0.4856 0.0
C2794 C 0.57166 0.86453 0.48929 0.0
C2795 C 0.5457 0.84808 0.48854 0.0
C2796 C 0.50919 0.8658 0.50661 0.0
H2797 H 0.43129 0.83903 0.48115 0.0
H2798 H 0.46131 0.83618 0.48597 0.0
H2799 H 0.48482 0.86973 0.5153 0.0
H2800 H 0.56991 0.8882 0.49966 0.0
H2801 H 0.53967 0.88521 0.50454 0.0
H2802 H 0.51528 0.85151 0.47619 0.0
C2803 C 0.45467 0.84734 0.48933 0.0
C2804 C 0.4914 0.86566 0.50675 0.0
C2805 C 0.43746 0.84892 0.48663 0.0
C2806 C 0.56336 0.87677 0.49675 0.0
C2807 C 0.54607 0.87505 0.49955 0.0
C2808 C 0.50888 0.85518 0.48491 0.0
C2809 C 0.46343 0.86042 0.49561 0.0
C2810 C 0.48226 0.8602 0.49597 0.0
C2811 C 0.53692 0.86097 0.49502 0.0
C2812 C 0.51811 0.86047 0.49568 0.0
H2813 H 0.43022 0.88727 0.50055 0.0
H2814 H 0.46061 0.88472 0.50503 0.0
H2815 H 0.48466 0.85127 0.47644 0.0
H2816 H 0.56899 0.84016 0.47999 0.0
H2817 H 0.53914 0.83686 0.48521 0.0
C2818 C 0.06457 0.12684 0.99823 0.0
C2819 C 0.07289 0.13932 0.991 0.0
C2820 C 0.04724 0.1284 0.00094 0.0
C2821 C 0.01009 0.14839 0.98635 0.0
H2822 H 0.9858 0.13309 0.01642 0.0
C2823 C 0.93858 0.15417 0.98773 0.0
C2824 C 0.92968 0.13953 0.9913 0.0
C2825 C 0.95577 0.1558 0.99051 0.0
C2826 C 0.99245 0.13736 0.00796 0.0
H2827 H 0.07017 0.16391 0.98204 0.0
H2828 H 0.04024 0.1669 0.9871 0.0
H2829 H 0.01694 0.13302 0.01635 0.0
H2830 H 0.93144 0.1156 0.00132 0.0
H2831 H 0.96177 0.11824 0.00595 0.0
H2832 H 0.98592 0.15234 0.97778 0.0
C2833 C 0.04683 0.15564 0.99031 0.0
C2834 C 0.01024 0.13732 0.00792 0.0
C2835 C 0.064 0.15398 0.98747 0.0
C2836 C 0.93801 0.12705 0.99851 0.0
C2837 C 0.95537 0.12858 0.00116 0.0
C2838 C 0.99246 0.14843 0.98639 0.0
C2839 C 0.03806 0.14254 0.99655 0.0
C2840 C 0.01923 0.14292 0.9971 0.0
C2841 C 0.96455 0.14268 0.99672 0.0
C2842 C 0.98338 0.143 0.99719 0.0
H2843 H 0.07115 0.11537 0.00101 0.0
H2844 H 0.04084 0.11808 0.00574 0.0
H2845 H 0.01656 0.15228 0.97771 0.0
H2846 H 0.9324 0.1641 0.9823 0.0
H2847 H 0.96236 0.16703 0.98726 0.0
C2848 C 0.12295 0.43609 0.99807 0.0
C2849 C 0.11175 0.42891 0.98914 0.0
C2850 C 0.12294 0.45359 0.0003 0.0
C2851 C 0.09605 0.49187 0.99599 0.0
H2852 H 0.1379 0.51593 0.00284 0.0
C2853 C 0.12204 0.5653 0.00105 0.0
C2854 C 0.10849 0.57226 0.00802 0.0
C2855 C 0.12279 0.54785 0.99869 0.0
C2856 C 0.12611 0.50945 0.00082 0.0
H2857 H 0.09204 0.43455 0.97532 0.0
H2858 H 0.09228 0.46494 0.97898 0.0
H2859 H 0.13867 0.4856 0.99851 0.0
H2860 H 0.08529 0.56626 0.01821 0.0
H2861 H 0.08678 0.53596 0.01434 0.0
H2862 H 0.08352 0.51572 0.99788 0.0
C2863 C 0.10078 0.45709 0.98453 0.0
C2864 C 0.12652 0.49198 0.99851 0.0
C2865 C 0.10071 0.43963 0.98238 0.0
C2866 C 0.09582 0.56137 0.01267 0.0
C2867 C 0.09663 0.54395 0.0104 0.0
C2868 C 0.09565 0.50931 0.99822 0.0
C2869 C 0.11181 0.46432 0.99358 0.0
C2870 C 0.11148 0.48294 0.99607 0.0
C2871 C 0.11007 0.53694 0.00331 0.0
C2872 C 0.11065 0.51835 0.00072 0.0
H2873 H 0.13161 0.42818 0.00345 0.0
H2874 H 0.13147 0.45865 0.00745 0.0
H2875 H 0.08417 0.48535 0.99433 0.0
H2876 H 0.132 0.57335 0.99732 0.0
H2877 H 0.13322 0.54296 0.99307 0.0
C2878 C 0.81275 0.84907 0.23452 0.0
C2879 C 0.82338 0.8604 0.24109 0.0
C2880 C 0.79525 0.8491 0.23665 0.0
C2881 C 0.76029 0.8447 0.24805 0.0
H2882 H 0.73623 0.88675 0.25407 0.0
C2883 C 0.69044 0.84526 0.26434 0.0
C2884 C 0.6797 0.85787 0.25941 0.0
C2885 C 0.70791 0.84587 0.26215 0.0
C2886 C 0.7427 0.87489 0.25229 0.0
H2887 H 0.82391 0.88068 0.25506 0.0
H2888 H 0.79343 0.88046 0.259 0.0
H2889 H 0.76659 0.88734 0.24983 0.0
H2890 H 0.67892 0.88104 0.2483 0.0
H2891 H 0.70937 0.88189 0.24422 0.0
H2892 H 0.73637 0.83228 0.25009 0.0
C2893 C 0.79856 0.87175 0.25201 0.0
C2894 C 0.7602 0.87521 0.25003 0.0
C2895 C 0.81608 0.87181 0.24982 0.0
C2896 C 0.68685 0.87114 0.25226 0.0
C2897 C 0.70434 0.87168 0.24999 0.0
C2898 C 0.74281 0.84439 0.25023 0.0
C2899 C 0.7879 0.86037 0.24547 0.0
C2900 C 0.76924 0.86011 0.24789 0.0
C2901 C 0.71512 0.85904 0.25489 0.0
C2902 C 0.73376 0.85947 0.25242 0.0
H2903 H 0.81791 0.84023 0.22763 0.0
H2904 H 0.78746 0.84038 0.23124 0.0
H2905 H 0.76681 0.83279 0.24662 0.0
H2906 H 0.68539 0.83495 0.27001 0.0
H2907 H 0.7158 0.83609 0.2663 0.0
C2908 C 0.3808 0.43733 0.5013 0.0
C2909 C 0.39419 0.43032 0.50841 0.0
C2910 C 0.38004 0.45481 0.49908 0.0
C2911 C 0.40707 0.49344 0.49938 0.0
H2912 H 0.36394 0.51696 0.49888 0.0
C2913 C 0.37943 0.56655 0.49874 0.0
C2914 C 0.39098 0.57378 0.49009 0.0
C2915 C 0.37942 0.54905 0.50097 0.0
C2916 C 0.37611 0.51064 0.4991 0.0
H2917 H 0.41707 0.43625 0.51902 0.0
H2918 H 0.41555 0.4666 0.51541 0.0
H2919 H 0.36469 0.48662 0.50311 0.0
H2920 H 0.41127 0.56822 0.47674 0.0
H2921 H 0.41099 0.53785 0.48036 0.0
H2922 H 0.41857 0.51747 0.49582 0.0
C2923 C 0.40585 0.45863 0.51124 0.0
C2924 C 0.37652 0.49316 0.50136 0.0
C2925 C 0.40668 0.44119 0.51337 0.0
C2926 C 0.40233 0.56312 0.48359 0.0
C2927 C 0.40223 0.54566 0.48572 0.0
C2928 C 0.40666 0.5109 0.49721 0.0
C2929 C 0.39259 0.4657 0.50399 0.0
C2930 C 0.39202 0.48432 0.50152 0.0
C2931 C 0.39088 0.53837 0.49452 0.0
C2932 C 0.39119 0.51975 0.497 0.0
H2933 H 0.37099 0.4293 0.49734 0.0
H2934 H 0.36976 0.45974 0.49332 0.0
H2935 H 0.41923 0.48709 0.49925 0.0
H2936 H 0.37052 0.57443 0.50391 0.0
H2937 H 0.37062 0.54395 0.50791 0.0
C2938 C 0.81709 0.12934 0.75285 0.0
C2939 C 0.82452 0.14176 0.76068 0.0
C2940 C 0.79952 0.12898 0.75099 0.0
C2941 C 0.76127 0.12548 0.75419 0.0
H2942 H 0.73727 0.16808 0.75071 0.0
C2943 C 0.68786 0.12936 0.75246 0.0
C2944 C 0.68073 0.14108 0.7439 0.0
C2945 C 0.70536 0.12921 0.75472 0.0
C2946 C 0.74376 0.15605 0.75156 0.0
H2947 H 0.81924 0.16335 0.77289 0.0
H2948 H 0.7887 0.16256 0.7698 0.0
H2949 H 0.7678 0.16817 0.75383 0.0
H2950 H 0.68646 0.16169 0.73087 0.0
H2951 H 0.71684 0.16125 0.73465 0.0
H2952 H 0.73723 0.11337 0.75154 0.0
C2953 C 0.79644 0.1533 0.76487 0.0
C2954 C 0.76128 0.15611 0.75352 0.0
C2955 C 0.81398 0.15371 0.76669 0.0
C2956 C 0.69148 0.15258 0.73762 0.0
C2957 C 0.70894 0.15239 0.73984 0.0
C2958 C 0.74372 0.12542 0.75219 0.0
C2959 C 0.78897 0.14099 0.75695 0.0
C2960 C 0.77028 0.14083 0.75486 0.0
C2961 C 0.71612 0.14074 0.74844 0.0
C2962 C 0.73475 0.14071 0.75082 0.0
H2963 H 0.82486 0.11996 0.74808 0.0
H2964 H 0.79424 0.11945 0.74471 0.0
H2965 H 0.76774 0.11348 0.75531 0.0
H2966 H 0.67993 0.12033 0.75746 0.0
H2967 H 0.71043 0.12019 0.76152 0.0
C2968 C 0.87948 0.56505 0.99885 0.0
C2969 C 0.8922 0.57209 0.00663 0.0
C2970 C 0.87898 0.54758 0.99658 0.0
C2971 C 0.87538 0.50922 0.99901 0.0
H2972 H 0.91781 0.48508 0.99486 0.0
C2973 C 0.87893 0.43588 0.99729 0.0
C2974 C 0.89068 0.42858 0.98883 0.0
C2975 C 0.87878 0.4534 0.99937 0.0
C2976 C 0.90582 0.49161 0.99587 0.0
H2977 H 0.91416 0.5662 0.01831 0.0
H2978 H 0.9131 0.53586 0.01454 0.0
H2979 H 0.91812 0.51552 0.9982 0.0
H2980 H 0.91126 0.43404 0.9757 0.0
H2981 H 0.9108 0.46448 0.97913 0.0
H2982 H 0.86307 0.4853 0.99633 0.0
C2983 C 0.90374 0.54382 0.00993 0.0
C2984 C 0.90601 0.50908 0.99797 0.0
C2985 C 0.90429 0.56125 0.01215 0.0
C2986 C 0.90215 0.4392 0.98239 0.0
C2987 C 0.90194 0.45669 0.98441 0.0
C2988 C 0.87518 0.49172 0.99687 0.0
C2989 C 0.89113 0.53673 0.00207 0.0
C2990 C 0.8908 0.51813 -0.00039 0.0
C2991 C 0.89032 0.46404 0.99297 0.0
C2992 C 0.89041 0.48268 0.99528 0.0
H2993 H 0.86998 0.57306 0.99445 0.0
H2994 H 0.8692 0.5426 0.99036 0.0
H2995 H 0.86342 0.51573 0.00036 0.0
H2996 H 0.86993 0.42804 0.00241 0.0
H2997 H 0.86979 0.45857 0.00614 0.0
C2998 C 0.18789 0.12897 0.75138 0.0
C2999 C 0.18078 0.14123 0.75951 0.0
C3000 C 0.20539 0.1286 0.74917 0.0
C3001 C 0.24389 0.15546 0.75139 0.0
H3002 H 0.26757 0.11263 0.74836 0.0
C3003 C 0.31707 0.1282 0.74924 0.0
C3004 C 0.32425 0.14026 0.74097 0.0
C3005 C 0.29958 0.12806 0.75153 0.0
C3006 C 0.26119 0.12471 0.7493 0.0
H3007 H 0.18654 0.16254 0.77186 0.0
H3008 H 0.21697 0.16172 0.76817 0.0
H3009 H 0.23718 0.11285 0.75259 0.0
H3010 H 0.31863 0.16142 0.72844 0.0
H3011 H 0.28823 0.16099 0.73226 0.0
H3012 H 0.26792 0.16735 0.74845 0.0
C3013 C 0.20904 0.1526 0.76328 0.0
C3014 C 0.2437 0.12483 0.75156 0.0
C3015 C 0.19156 0.15302 0.76544 0.0
C3016 C 0.31355 0.15206 0.73497 0.0
C3017 C 0.29609 0.15187 0.73721 0.0
C3018 C 0.26136 0.15534 0.74918 0.0
C3019 C 0.21619 0.14043 0.75507 0.0
C3020 C 0.23482 0.14022 0.75263 0.0
C3021 C 0.28886 0.13993 0.74557 0.0
C3022 C 0.27025 0.13997 0.74807 0.0
H3023 H 0.17993 0.11971 0.74665 0.0
H3024 H 0.21041 0.11918 0.74266 0.0
H3025 H 0.23747 0.16756 0.75201 0.0
H3026 H 0.32496 0.11894 0.75403 0.0
H3027 H 0.2945 0.11881 0.75814 0.0
C3028 C 0.59817 0.44245 0.51339 0.0
C3029 C 0.61011 0.43175 0.50754 0.0
C3030 C 0.59852 0.45991 0.51127 0.0
C3031 C 0.59541 0.49468 0.49952 0.0
H3032 H 0.63799 0.51889 0.49661 0.0
C3033 C 0.59763 0.56448 0.48367 0.0
C3034 C 0.60936 0.5753 0.48964 0.0
C3035 C 0.59816 0.54702 0.48575 0.0
C3036 C 0.62598 0.51236 0.49751 0.0
H3037 H 0.63186 0.43106 0.49489 0.0
H3038 H 0.63225 0.46155 0.49093 0.0
H3039 H 0.63815 0.48848 0.50069 0.0
H3040 H 0.63092 0.57619 0.50247 0.0
H3041 H 0.63162 0.54569 0.50636 0.0
H3042 H 0.58321 0.51856 0.49674 0.0
C3043 C 0.62277 0.45646 0.49735 0.0
C3044 C 0.62607 0.49486 0.49968 0.0
C3045 C 0.62248 0.43895 0.49954 0.0
C3046 C 0.6217 0.56821 0.49772 0.0
C3047 C 0.62217 0.5507 0.49988 0.0
C3048 C 0.59532 0.51216 0.49741 0.0
C3049 C 0.61075 0.46716 0.50315 0.0
C3050 C 0.61078 0.48578 0.50073 0.0
C3051 C 0.61036 0.53988 0.49395 0.0
C3052 C 0.61059 0.52125 0.49634 0.0
H3053 H 0.58858 0.43737 0.51973 0.0
H3054 H 0.58928 0.46774 0.51612 0.0
H3055 H 0.58338 0.48813 0.50009 0.0
H3056 H 0.58806 0.56948 0.47727 0.0
H3057 H 0.58908 0.53909 0.48081 0.0
C3058 C 0.18739 0.87474 0.24924 0.0
C3059 C 0.18009 0.86255 0.24114 0.0
C3060 C 0.20493 0.87499 0.25134 0.0
C3061 C 0.24323 0.84783 0.24885 0.0
H3062 H 0.26727 0.89043 0.25206 0.0
C3063 C 0.31669 0.8745 0.25137 0.0
C3064 C 0.32372 0.86235 0.25964 0.0
C3065 C 0.29922 0.87477 0.24897 0.0
C3066 C 0.26079 0.87841 0.25107 0.0
H3067 H 0.18559 0.84126 0.2287 0.0
H3068 H 0.21607 0.84187 0.23219 0.0
H3069 H 0.23686 0.8905 0.24786 0.0
H3070 H 0.3178 0.84113 0.27204 0.0
H3071 H 0.28745 0.84177 0.26802 0.0
H3072 H 0.26717 0.83572 0.25174 0.0
C3073 C 0.20826 0.85103 0.23715 0.0
C3074 C 0.24329 0.87845 0.24883 0.0
C3075 C 0.19075 0.85073 0.2351 0.0
C3076 C 0.31286 0.85057 0.26551 0.0
C3077 C 0.29543 0.85088 0.26315 0.0
C3078 C 0.26071 0.84779 0.25106 0.0
C3079 C 0.2156 0.86311 0.24535 0.0
C3080 C 0.23426 0.86315 0.24771 0.0
C3081 C 0.28835 0.86294 0.25482 0.0
C3082 C 0.26974 0.86307 0.25225 0.0
H3083 H 0.17955 0.88401 0.25406 0.0
H3084 H 0.21008 0.88434 0.25783 0.0
H3085 H 0.23671 0.83579 0.2482 0.0
H3086 H 0.32469 0.88375 0.24668 0.0
H3087 H 0.29426 0.88412 0.24238 0.0
C3088 C 0.59852 0.06427 0.51483 0.0
C3089 C 0.61079 0.07508 0.50952 0.0
C3090 C 0.59896 0.04686 0.51246 0.0
C3091 C 0.62708 0.01217 0.50114 0.0
H3092 H 0.58441 0.98864 0.49643 0.0
C3093 C 0.59957 0.94312 0.4829 0.0
C3094 C 0.61101 0.93213 0.489 0.0
C3095 C 0.59995 0.96051 0.48535 0.0
C3096 C 0.59647 0.995 0.4976 0.0
H3097 H 0.63323 0.07602 0.49757 0.0
H3098 H 0.63379 0.04565 0.49319 0.0
H3099 H 0.5844 0.01894 0.5004 0.0
H3100 H 0.63188 0.93083 0.50245 0.0
H3101 H 0.6323 0.96116 0.50695 0.0
H3102 H 0.63914 0.98825 0.49793 0.0
C3103 C 0.62397 0.0506 0.49938 0.0
C3104 C 0.59645 0.01239 0.50006 0.0
C3105 C 0.62359 0.06804 0.50182 0.0
C3106 C 0.6229 0.93895 0.49758 0.0
C3107 C 0.62321 0.95638 0.50009 0.0
C3108 C 0.62709 0.99475 0.49861 0.0
C3109 C 0.61161 0.03978 0.50464 0.0
C3110 C 0.61174 0.02123 0.5019 0.0
C3111 C 0.61169 0.96739 0.49403 0.0
C3112 C 0.61178 0.98593 0.4968 0.0
H3113 H 0.58857 0.06923 0.52091 0.0
H3114 H 0.58943 0.03893 0.51689 0.0
H3115 H 0.6391 0.01849 0.50263 0.0
H3116 H 0.59036 0.93833 0.47613 0.0
H3117 H 0.59111 0.9686 0.4803 0.0
C3118 C 0.19007 0.3495 0.7659 0.0
C3119 C 0.17919 0.36073 0.75947 0.0
C3120 C 0.20753 0.3498 0.76367 0.0
C3121 C 0.24223 0.34574 0.75193 0.0
H3122 H 0.2661 0.38793 0.74604 0.0
C3123 C 0.31182 0.34651 0.73523 0.0
C3124 C 0.32266 0.35902 0.74018 0.0
C3125 C 0.29438 0.34715 0.73751 0.0
C3126 C 0.25968 0.37604 0.74779 0.0
H3127 H 0.17818 0.38119 0.74568 0.0
H3128 H 0.20866 0.38145 0.74153 0.0
H3129 H 0.23575 0.38838 0.75046 0.0
H3130 H 0.32362 0.38208 0.7514 0.0
H3131 H 0.29319 0.38299 0.75566 0.0
H3132 H 0.26616 0.33342 0.74968 0.0
C3133 C 0.20372 0.37259 0.74849 0.0
C3134 C 0.24219 0.37627 0.75015 0.0
C3135 C 0.18622 0.37237 0.7508 0.0
C3136 C 0.31562 0.37224 0.74744 0.0
C3137 C 0.29814 0.37282 0.74981 0.0
C3138 C 0.25969 0.34552 0.74964 0.0
C3139 C 0.21461 0.36124 0.75486 0.0
C3140 C 0.23323 0.36112 0.75226 0.0
C3141 C 0.28728 0.36025 0.74489 0.0
C3142 C 0.26867 0.36064 0.7475 0.0
H3143 H 0.18513 0.34049 0.77277 0.0
H3144 H 0.21549 0.34112 0.76897 0.0
H3145 H 0.23578 0.33379 0.75332 0.0
H3146 H 0.31677 0.33624 0.72947 0.0
H3147 H 0.28643 0.33744 0.73334 0.0
C3148 C 0.90338 0.9397 0.01579 0.0
C3149 C 0.89146 0.92877 0.01017 0.0
C3150 C 0.9029 0.9571 0.01338 0.0
C3151 C 0.87495 0.9915 0.00148 0.0
H3152 H 0.91754 0.01546 0.99769 0.0
C3153 C 0.90233 0.06103 0.98424 0.0
C3154 C 0.89067 0.07183 0.9903 0.0
C3155 C 0.90204 0.0436 0.98652 0.0
C3156 C 0.90551 0.00898 0.9986 0.0
H3157 H 0.86961 0.92758 0.99762 0.0
H3158 H 0.86897 0.95795 0.9932 0.0
H3159 H 0.9177 0.98512 0.00153 0.0
H3160 H 0.8695 0.07274 0.0035 0.0
H3161 H 0.8692 0.04233 0.00768 0.0
H3162 H 0.86277 0.01535 0.99818 0.0
C3163 C 0.87855 0.95309 -0.00036 0.0
C3164 C 0.9056 0.99156 0.00098 0.0
C3165 C 0.87897 0.93566 0.00211 0.0
C3166 C 0.87865 0.06477 0.99866 0.0
C3167 C 0.87841 0.0473 0.00099 0.0
C3168 C 0.87485 0.00894 0.99904 0.0
C3169 C 0.89055 0.96404 0.00522 0.0
C3170 C 0.89034 0.98258 0.0025 0.0
C3171 C 0.89014 0.03649 0.99498 0.0
C3172 C 0.89014 0.01791 0.99758 0.0
H3173 H 0.91306 0.93486 0.02215 0.0
H3174 H 0.91214 0.96513 0.01804 0.0
H3175 H 0.86295 0.98505 0.00271 0.0
H3176 H 0.91166 0.06602 0.97764 0.0
H3177 H 0.91106 0.03566 0.98152 0.0
C3178 C 0.31752 0.62913 0.25152 0.0
C3179 C 0.32461 0.6404 0.26044 0.0
C3180 C 0.30001 0.62904 0.24925 0.0
C3181 C 0.26156 0.62533 0.25095 0.0
H3182 H 0.2377 0.66825 0.25126 0.0
C3183 C 0.18816 0.62969 0.24803 0.0
C3184 C 0.18126 0.64311 0.24089 0.0
C3185 C 0.2056 0.629 0.25051 0.0
C3186 C 0.24414 0.65614 0.25102 0.0
H3187 H 0.31878 0.6601 0.27421 0.0
H3188 H 0.28839 0.6597 0.27047 0.0
H3189 H 0.26807 0.66768 0.25496 0.0
H3190 H 0.18737 0.66614 0.23055 0.0
H3191 H 0.21764 0.66475 0.23464 0.0
H3192 H 0.23763 0.61388 0.24658 0.0
C3193 C 0.29632 0.65121 0.26496 0.0
C3194 C 0.26159 0.6558 0.25332 0.0
C3195 C 0.31379 0.65139 0.26716 0.0
C3196 C 0.1922 0.65571 0.23621 0.0
C3197 C 0.20961 0.65496 0.23862 0.0
C3198 C 0.24408 0.62569 0.24857 0.0
C3199 C 0.28918 0.64014 0.2559 0.0
C3200 C 0.27055 0.64039 0.25335 0.0
C3201 C 0.21656 0.64165 0.24586 0.0
C3202 C 0.23514 0.64112 0.24855 0.0
H3203 H 0.32551 0.62051 0.24618 0.0
H3204 H 0.29501 0.62047 0.2421 0.0
H3205 H 0.26798 0.61321 0.25102 0.0
H3206 H 0.18007 0.61978 0.25178 0.0
H3207 H 0.21045 0.61866 0.25625 0.0
C3208 C 0.40172 0.06306 0.51505 0.0
C3209 C 0.38981 0.07403 0.50945 0.0
C3210 C 0.40122 0.04567 0.51262 0.0
C3211 C 0.40387 0.01121 0.50021 0.0
H3212 H 0.36103 0.98742 0.49753 0.0
C3213 C 0.40062 0.9417 0.48359 0.0
C3214 C 0.38902 0.93088 0.48971 0.0
C3215 C 0.40028 0.95914 0.48584 0.0
C3216 C 0.37312 0.99383 0.49836 0.0
H3217 H 0.36796 0.07527 0.49692 0.0
H3218 H 0.36727 0.0449 0.49247 0.0
H3219 H 0.36122 0.01774 0.502 0.0
H3220 H 0.3679 0.92997 0.50295 0.0
H3221 H 0.36753 0.96041 0.50706 0.0
H3222 H 0.4158 0.9873 0.49694 0.0
C3223 C 0.37686 0.04973 0.4989 0.0
C3224 C 0.37322 0.01129 0.50075 0.0
C3225 C 0.37732 0.06717 0.50139 0.0
C3226 C 0.37701 0.93795 0.49808 0.0
C3227 C 0.37673 0.95543 0.50037 0.0
C3228 C 0.40377 0.99379 0.49786 0.0
C3229 C 0.38885 0.03876 0.50446 0.0
C3230 C 0.38861 0.02021 0.50174 0.0
C3231 C 0.38841 0.96625 0.49431 0.0
C3232 C 0.3884 0.98485 0.49688 0.0
H3233 H 0.41142 0.06786 0.52142 0.0
H3234 H 0.41045 0.03761 0.51727 0.0
H3235 H 0.41597 0.01765 0.50073 0.0
H3236 H 0.40994 0.93672 0.47698 0.0
H3237 H 0.40927 0.96708 0.4808 0.0
C3238 C 0.68911 0.62925 0.24718 0.0
C3239 C 0.68206 0.64092 0.25582 0.0
C3240 C 0.70664 0.62895 0.24497 0.0
C3241 C 0.74522 0.65563 0.24877 0.0
H3242 H 0.76906 0.6134 0.243 0.0
C3243 C 0.81863 0.62902 0.2451 0.0
C3244 C 0.82585 0.64238 0.23808 0.0
C3245 C 0.80109 0.62839 0.2472 0.0
C3246 C 0.76264 0.6253 0.24472 0.0
H3247 H 0.68797 0.66111 0.26916 0.0
H3248 H 0.71834 0.66032 0.26557 0.0
H3249 H 0.73862 0.61304 0.24708 0.0
H3250 H 0.82022 0.66531 0.22748 0.0
H3251 H 0.7898 0.66401 0.23085 0.0
H3252 H 0.76922 0.66788 0.24688 0.0
C3253 C 0.71039 0.65169 0.2602 0.0
C3254 C 0.74511 0.62511 0.24688 0.0
C3255 C 0.69292 0.65209 0.26232 0.0
C3256 C 0.81513 0.65495 0.23307 0.0
C3257 C 0.79763 0.65424 0.23506 0.0
C3258 C 0.76271 0.65581 0.2467 0.0
C3259 C 0.71751 0.64023 0.25142 0.0
C3260 C 0.73616 0.64029 0.24895 0.0
C3261 C 0.79036 0.64104 0.24223 0.0
C3262 C 0.77169 0.64067 0.2446 0.0
H3263 H 0.68107 0.62047 0.24202 0.0
H3264 H 0.71161 0.62007 0.23804 0.0
H3265 H 0.73879 0.66761 0.25014 0.0
H3266 H 0.82655 0.61914 0.2491 0.0
H3267 H 0.796 0.61813 0.25289 0.0
C3268 C 0.09934 0.93956 0.01523 0.0
C3269 C 0.1113 0.92854 0.00975 0.0
C3270 C 0.09989 0.95693 0.01273 0.0
C3271 C 0.09737 0.99131 0.00019 0.0
H3272 H 0.14022 0.01509 0.99765 0.0
C3273 C 0.10067 0.06084 0.9836 0.0
C3274 C 0.11224 0.07165 0.98974 0.0
C3275 C 0.10101 0.04339 0.98582 0.0
C3276 C 0.12813 0.00868 0.99843 0.0
H3277 H 0.13331 0.92719 0.99739 0.0
H3278 H 0.13408 0.95753 0.99281 0.0
H3279 H 0.14 0.98478 0.00219 0.0
H3280 H 0.13335 0.07254 0.003 0.0
H3281 H 0.13372 0.04209 0.00709 0.0
H3282 H 0.08546 0.0152 0.99682 0.0
C3283 C 0.1244 0.95275 0.9992 0.0
C3284 C 0.12801 0.99123 0.00087 0.0
C3285 C 0.12391 0.93533 0.00176 0.0
C3286 C 0.12425 0.06457 0.99811 0.0
C3287 C 0.12454 0.04708 0.00038 0.0
C3288 C 0.09749 0.00872 0.9978 0.0
C3289 C 0.11235 0.96378 0.00462 0.0
C3290 C 0.11261 0.98232 0.00182 0.0
C3291 C 0.11287 0.03626 0.9943 0.0
C3292 C 0.11286 0.01766 0.99688 0.0
H3293 H 0.08956 0.93481 0.02155 0.0
H3294 H 0.0906 0.96503 0.01729 0.0
H3295 H 0.08526 0.98487 0.00068 0.0
H3296 H 0.09135 0.06583 0.97699 0.0
H3297 H 0.09203 0.03546 0.98077 0.0
C3298 C 0.81003 0.34993 0.76539 0.0
C3299 C 0.82102 0.36106 0.75897 0.0
C3300 C 0.7926 0.35028 0.76305 0.0
C3301 C 0.75818 0.37677 0.74913 0.0
H3302 H 0.73398 0.33406 0.74889 0.0
C3303 C 0.68846 0.34715 0.73418 0.0
C3304 C 0.67766 0.35982 0.73895 0.0
C3305 C 0.7059 0.34774 0.73651 0.0
C3306 C 0.74051 0.34611 0.74878 0.0
H3307 H 0.82224 0.38138 0.74507 0.0
H3308 H 0.79181 0.38171 0.74073 0.0
H3309 H 0.76432 0.3343 0.7527 0.0
H3310 H 0.67678 0.38311 0.7499 0.0
H3311 H 0.70719 0.38393 0.75424 0.0
H3312 H 0.73438 0.38851 0.74478 0.0
C3313 C 0.79664 0.3729 0.74777 0.0
C3314 C 0.75795 0.34627 0.75117 0.0
C3315 C 0.81412 0.37265 0.75019 0.0
C3316 C 0.68475 0.37315 0.74607 0.0
C3317 C 0.70222 0.37368 0.74849 0.0
C3318 C 0.74072 0.3766 0.74667 0.0
C3319 C 0.78564 0.36166 0.75413 0.0
C3320 C 0.76704 0.3616 0.75142 0.0
C3321 C 0.71303 0.36094 0.74377 0.0
C3322 C 0.73164 0.36125 0.74646 0.0
H3323 H 0.81487 0.34098 0.77234 0.0
H3324 H 0.78455 0.34168 0.76835 0.0
H3325 H 0.76468 0.38884 0.74938 0.0
H3326 H 0.68347 0.33679 0.72853 0.0
H3327 H 0.71381 0.33788 0.73248 0.0
C3328 C 0.12998 0.8143 0.0144 0.0
C3329 C 0.12754 0.82261 0.02616 0.0
C3330 C 0.13157 0.79659 0.01392 0.0
C3331 C 0.11904 0.75909 0.03264 0.0
H3332 H 0.14993 0.73414 0.01083 0.0
C3333 C 0.12494 0.68723 0.03751 0.0
C3334 C 0.1253 0.67753 0.02625 0.0
C3335 C 0.12713 0.70476 0.0371 0.0
C3336 C 0.14113 0.74094 0.01689 0.0
H3337 H 0.12601 0.8188 0.04669 0.0
H3338 H 0.12897 0.78827 0.04582 0.0
H3339 H 0.15032 0.7652 0.01067 0.0
H3340 H 0.12909 0.67873 0.00573 0.0
H3341 H 0.1327 0.70947 0.00501 0.0
H3342 H 0.10965 0.73509 0.03878 0.0
C3343 C 0.12924 0.79531 0.03694 0.0
C3344 C 0.14136 0.75872 0.0168 0.0
C3345 C 0.12763 0.81288 0.03743 0.0
C3346 C 0.12873 0.68578 0.0146 0.0
C3347 C 0.13084 0.70342 0.01419 0.0
C3348 C 0.11879 0.74142 0.03272 0.0
C3349 C 0.13074 0.78687 0.02518 0.0
C3350 C 0.13044 0.76799 0.0248 0.0
C3351 C 0.12962 0.71318 0.02541 0.0
C3352 C 0.12994 0.73207 0.02497 0.0
H3353 H 0.12998 0.82137 0.00554 0.0
H3354 H 0.1327 0.79047 0.0047 0.0
H3355 H 0.11014 0.7658 0.03868 0.0
H3356 H 0.12253 0.68133 0.04668 0.0
H3357 H 0.12656 0.71179 0.04598 0.0
C3358 C 0.56661 0.88135 0.26259 0.0
C3359 C 0.57383 0.87749 0.27454 0.0
C3360 C 0.54924 0.88482 0.2615 0.0
C3361 C 0.51122 0.89691 0.28026 0.0
H3362 H 0.48628 0.87207 0.25442 0.0
C3363 C 0.44002 0.88341 0.28482 0.0
C3364 C 0.42976 0.88257 0.27384 0.0
C3365 C 0.45749 0.88582 0.28383 0.0
C3366 C 0.49304 0.87938 0.26153 0.0
H3367 H 0.56844 0.87491 0.29479 0.0
H3368 H 0.53834 0.88105 0.29289 0.0
H3369 H 0.51719 0.87092 0.25466 0.0
H3370 H 0.42993 0.88425 0.25315 0.0
H3371 H 0.46056 0.88864 0.25142 0.0
H3372 H 0.48713 0.90516 0.28728 0.0
C3373 C 0.54608 0.88143 0.28435 0.0
C3374 C 0.51078 0.8787 0.26168 0.0
C3375 C 0.56337 0.87782 0.28543 0.0
C3376 C 0.43742 0.88481 0.26182 0.0
C3377 C 0.455 0.88721 0.26082 0.0
C3378 C 0.49351 0.89767 0.28008 0.0
C3379 C 0.53874 0.88471 0.27236 0.0
C3380 C 0.52007 0.88712 0.27124 0.0
C3381 C 0.46529 0.8875 0.27182 0.0
C3382 C 0.48415 0.88856 0.27092 0.0
H3383 H 0.57426 0.88122 0.254 0.0
H3384 H 0.544 0.88744 0.25215 0.0
H3385 H 0.51801 0.90379 0.28761 0.0
H3386 H 0.43465 0.88172 0.29427 0.0
H3387 H 0.46497 0.8857 0.2925 0.0
C3388 C 0.37076 0.18835 0.51335 0.0
C3389 C 0.37197 0.17995 0.52518 0.0
C3390 C 0.36937 0.20607 0.51284 0.0
C3391 C 0.38082 0.24319 0.53223 0.0
H3392 H 0.35209 0.26885 0.50924 0.0
C3393 C 0.37637 0.31519 0.53695 0.0
C3394 C 0.37674 0.3249 0.52569 0.0
C3395 C 0.37385 0.2977 0.53645 0.0
C3396 C 0.3603 0.26186 0.51564 0.0
H3397 H 0.37144 0.18363 0.54575 0.0
H3398 H 0.36888 0.2142 0.54483 0.0
H3399 H 0.35113 0.23781 0.50893 0.0
H3400 H 0.37396 0.32382 0.50508 0.0
H3401 H 0.36984 0.29317 0.5042 0.0
H3402 H 0.39027 0.26695 0.53882 0.0
C3403 C 0.3694 0.2072 0.53594 0.0
C3404 C 0.35974 0.24409 0.51546 0.0
C3405 C 0.37078 0.1896 0.53645 0.0
C3406 C 0.37374 0.31674 0.51395 0.0
C3407 C 0.37134 0.29915 0.51344 0.0
C3408 C 0.38145 0.26084 0.53237 0.0
C3409 C 0.36918 0.21571 0.52416 0.0
C3410 C 0.36986 0.23456 0.52388 0.0
C3411 C 0.37179 0.28935 0.52468 0.0
C3412 C 0.37107 0.27047 0.5242 0.0
H3413 H 0.37162 0.18133 0.50448 0.0
H3414 H 0.36922 0.21226 0.50361 0.0
H3415 H 0.38912 0.23626 0.53861 0.0
H3416 H 0.37842 0.32104 0.54618 0.0
H3417 H 0.37381 0.29067 0.54533 0.0
C3418 C 0.93797 0.11936 0.76032 0.0
C3419 C 0.93089 0.12221 0.77248 0.0
C3420 C 0.95537 0.11619 0.75898 0.0
C3421 C 0.99379 0.10362 0.77726 0.0
H3422 H 0.01814 0.1306 0.75234 0.0
C3423 C 0.06396 0.12073 0.78305 0.0
C3424 C 0.0745 0.12173 0.77223 0.0
C3425 C 0.04664 0.11756 0.78177 0.0
C3426 C 0.01153 0.12271 0.75918 0.0
H3427 H 0.93655 0.12331 0.79277 0.0
H3428 H 0.96662 0.11782 0.79041 0.0
H3429 H 0.98718 0.1307 0.75239 0.0
H3430 H 0.07504 0.11967 0.75156 0.0
H3431 H 0.04464 0.11415 0.74934 0.0
H3432 H 0.01809 0.09604 0.78432 0.0
C3433 C 0.95879 0.11793 0.78191 0.0
C3434 C 0.99377 0.12277 0.75921 0.0
C3435 C 0.9415 0.12121 0.78325 0.0
C3436 C 0.06731 0.11899 0.7601 0.0
C3437 C 0.04988 0.11592 0.75881 0.0
C3438 C 0.0115 0.10356 0.77723 0.0
C3439 C 0.96601 0.11562 0.76976 0.0
C3440 C 0.9847 0.1136 0.76849 0.0
C3441 C 0.03932 0.11536 0.76964 0.0
C3442 C 0.0206 0.11348 0.76843 0.0
H3443 H 0.93018 0.12005 0.75181 0.0
H3444 H 0.96053 0.11434 0.74949 0.0
H3445 H 0.98718 0.09615 0.78437 0.0
H3446 H 0.069 0.12276 0.79255 0.0
H3447 H 0.03887 0.11746 0.7903 0.0
C3448 C 0.13606 0.18767 0.96618 0.0
C3449 C 0.13253 0.17792 0.9771 0.0
C3450 C 0.13798 0.20519 0.96705 0.0
C3451 C 0.14453 0.24145 0.98905 0.0
H3452 H 0.12079 0.26575 0.96228 0.0
C3453 C 0.13225 0.31472 0.98887 0.0
C3454 C 0.13304 0.32281 0.97689 0.0
C3455 C 0.134 0.29706 0.98979 0.0
C3456 C 0.12769 0.25921 0.96974 0.0
H3457 H 0.12917 0.17894 0.99765 0.0
H3458 H 0.13237 0.20974 0.99915 0.0
H3459 H 0.12065 0.23505 0.96232 0.0
H3460 H 0.13757 0.31877 0.95666 0.0
H3461 H 0.14089 0.28831 0.95831 0.0
H3462 H 0.15139 0.26589 0.99649 0.0
C3463 C 0.13374 0.20372 0.98992 0.0
C3464 C 0.12762 0.24155 0.96977 0.0
C3465 C 0.13188 0.18607 0.98905 0.0
C3466 C 0.13663 0.31299 0.96602 0.0
C3467 C 0.13844 0.29546 0.96695 0.0
C3468 C 0.1446 0.25925 0.98903 0.0
C3469 C 0.13631 0.21353 0.97885 0.0
C3470 C 0.13621 0.23241 0.9793 0.0
C3471 C 0.13661 0.28719 0.97876 0.0
C3472 C 0.13636 0.26832 0.97926 0.0
H3473 H 0.13688 0.18184 0.95683 0.0
H3474 H 0.1404 0.21228 0.95838 0.0
H3475 H 0.15127 0.23479 0.99653 0.0
H3476 H 0.12949 0.3219 0.99743 0.0
H3477 H 0.13252 0.29109 0.99903 0.0
C3478 C 0.94019 0.88507 0.21926 0.0
C3479 C 0.92967 0.88257 0.22996 0.0
C3480 C 0.95749 0.8882 0.22075 0.0
C3481 C 0.99271 0.88045 0.24289 0.0
H3482 H 0.01688 0.91022 0.21973 0.0
C3483 C 0.06627 0.88459 0.24232 0.0
C3484 C 0.0735 0.88345 0.23005 0.0
C3485 C 0.04881 0.88741 0.24379 0.0
C3486 C 0.01034 0.90183 0.22626 0.0
H3487 H 0.92917 0.88195 0.25068 0.0
H3488 H 0.95953 0.88742 0.25327 0.0
H3489 H 0.98598 0.91002 0.2197 0.0
H3490 H 0.06805 0.88507 0.20975 0.0
H3491 H 0.0379 0.88995 0.21232 0.0
H3492 H 0.01711 0.8719 0.24917 0.0
C3493 C 0.95429 0.88684 0.24372 0.0
C3494 C 0.99261 0.90172 0.22625 0.0
C3495 C 0.93687 0.88382 0.24223 0.0
C3496 C 0.06298 0.88585 0.21935 0.0
C3497 C 0.04564 0.88877 0.22082 0.0
C3498 C 0.01047 0.88057 0.2429 0.0
C3499 C 0.96484 0.88887 0.23298 0.0
C3500 C 0.98357 0.8907 0.23431 0.0
C3501 C 0.03826 0.88933 0.23303 0.0
C3502 C 0.0195 0.89093 0.23434 0.0
H3503 H 0.93514 0.88421 0.20966 0.0
H3504 H 0.96523 0.88946 0.21226 0.0
H3505 H 0.98616 0.87171 0.24914 0.0
H3506 H 0.07397 0.88279 0.25078 0.0
H3507 H 0.04354 0.88791 0.25333 0.0
C3508 C 0.37071 0.68786 0.48852 0.0
C3509 C 0.37145 0.67978 0.47654 0.0
C3510 C 0.36869 0.7055 0.48932 0.0
C3511 C 0.37651 0.74357 0.46968 0.0
H3512 H 0.34999 0.76742 0.49515 0.0
C3513 C 0.36642 0.8148 0.46556 0.0
C3514 C 0.36915 0.82467 0.47656 0.0
C3515 C 0.36485 0.79725 0.46641 0.0
C3516 C 0.35754 0.76092 0.48805 0.0
H3517 H 0.3694 0.68381 0.45608 0.0
H3518 H 0.36553 0.71422 0.4575 0.0
H3519 H 0.35047 0.73634 0.49508 0.0
H3520 H 0.37137 0.82378 0.49721 0.0
H3521 H 0.36869 0.79291 0.49867 0.0
H3522 H 0.38366 0.76791 0.46263 0.0
C3523 C 0.36703 0.7071 0.46627 0.0
C3524 C 0.35783 0.74312 0.48801 0.0
C3525 C 0.36915 0.68959 0.46546 0.0
C3526 C 0.3693 0.81657 0.48854 0.0
C3527 C 0.36775 0.79889 0.48939 0.0
C3528 C 0.37619 0.76122 0.4697 0.0
C3529 C 0.36731 0.71537 0.47816 0.0
C3530 C 0.36716 0.73425 0.47869 0.0
C3531 C 0.36602 0.789 0.47827 0.0
C3532 C 0.36654 0.77015 0.47876 0.0
H3533 H 0.37245 0.68069 0.49724 0.0
H3534 H 0.36897 0.71146 0.49863 0.0
H3535 H 0.38425 0.73721 0.4626 0.0
H3536 H 0.36601 0.82057 0.45617 0.0
H3537 H 0.36311 0.79007 0.45769 0.0
C3538 C 0.44035 0.11734 0.7169 0.0
C3539 C 0.43036 0.11984 0.72787 0.0
C3540 C 0.45788 0.11554 0.71786 0.0
C3541 C 0.49384 0.1073 0.73975 0.0
H3542 H 0.51831 0.13402 0.71474 0.0
C3543 C 0.56709 0.11968 0.74092 0.0
C3544 C 0.57538 0.12013 0.729 0.0
C3545 C 0.5494 0.11795 0.74159 0.0
C3546 C 0.51172 0.12629 0.7217 0.0
H3547 H 0.43101 0.12143 0.74856 0.0
H3548 H 0.46184 0.11839 0.75021 0.0
H3549 H 0.48757 0.13384 0.71449 0.0
H3550 H 0.57152 0.11799 0.70852 0.0
H3551 H 0.54106 0.11466 0.70972 0.0
H3552 H 0.51824 0.09986 0.74697 0.0
C3553 C 0.45597 0.11777 0.74087 0.0
C3554 C 0.49405 0.1262 0.72156 0.0
C3555 C 0.43831 0.11954 0.73992 0.0
C3556 C 0.56566 0.1179 0.71787 0.0
C3557 C 0.5481 0.1161 0.71854 0.0
C3558 C 0.51164 0.10738 0.73989 0.0
C3559 C 0.46599 0.11626 0.7298 0.0
C3560 C 0.48486 0.11653 0.73045 0.0
C3561 C 0.53967 0.1166 0.73036 0.0
C3562 C 0.52078 0.11672 0.73073 0.0
H3563 H 0.43468 0.11727 0.70747 0.0
H3564 H 0.46516 0.11396 0.70917 0.0
H3565 H 0.48712 0.09972 0.74673 0.0
H3566 H 0.57416 0.12136 0.7497 0.0
H3567 H 0.5433 0.1184 0.75085 0.0
C3568 C 0.86564 0.31277 0.96581 0.0
C3569 C 0.86928 0.32258 0.97668 0.0
C3570 C 0.86372 0.29526 0.96675 0.0
C3571 C 0.85741 0.25913 0.98887 0.0
H3572 H 0.88138 0.2348 0.96224 0.0
C3573 C 0.87034 0.18603 0.98914 0.0
C3574 C 0.86974 0.1778 0.97722 0.0
C3575 C 0.86838 0.20367 0.98994 0.0
C3576 C 0.8744 0.24134 0.96966 0.0
H3577 H 0.87279 0.32169 0.99723 0.0
H3578 H 0.86958 0.2909 0.99885 0.0
H3579 H 0.88127 0.26549 0.96213 0.0
H3580 H 0.86531 0.18155 0.95694 0.0
H3581 H 0.86161 0.21198 0.95838 0.0
H3582 H 0.85071 0.23471 0.99643 0.0
C3583 C 0.86814 0.29687 0.9896 0.0
C3584 C 0.87434 0.25899 0.9696 0.0
C3585 C 0.87 0.31451 0.98866 0.0
C3586 C 0.86611 0.18745 0.96627 0.0
C3587 C 0.86408 0.20496 0.96707 0.0
C3588 C 0.85747 0.24134 0.98894 0.0
C3589 C 0.86549 0.287 0.97858 0.0
C3590 C 0.86568 0.26814 0.97909 0.0
C3591 C 0.86574 0.21338 0.97884 0.0
C3592 C 0.8658 0.23225 0.97922 0.0
H3593 H 0.86476 0.31855 0.95644 0.0
H3594 H 0.86124 0.28811 0.95812 0.0
H3595 H 0.85061 0.2658 0.99632 0.0
H3596 H 0.87312 0.17897 0.99777 0.0
H3597 H 0.86974 0.20976 0.99915 0.0
C3598 C 0.63286 0.81629 0.46363 0.0
C3599 C 0.63069 0.82618 0.47469 0.0
C3600 C 0.63438 0.79873 0.46445 0.0
C3601 C 0.64247 0.7624 0.48596 0.0
H3602 H 0.61449 0.73876 0.46128 0.0
C3603 C 0.62877 0.68949 0.48711 0.0
C3604 C 0.62745 0.68131 0.47521 0.0
C3605 C 0.63093 0.70712 0.48777 0.0
C3606 C 0.62258 0.7451 0.46813 0.0
H3607 H 0.62942 0.82529 0.49539 0.0
H3608 H 0.63201 0.79443 0.4968 0.0
H3609 H 0.61533 0.76945 0.46117 0.0
H3610 H 0.6286 0.68514 0.45468 0.0
H3611 H 0.63271 0.71553 0.45584 0.0
H3612 H 0.64965 0.73782 0.49292 0.0
C3613 C 0.63256 0.80039 0.48749 0.0
C3614 C 0.62305 0.76275 0.46808 0.0
C3615 C 0.63105 0.81808 0.48668 0.0
C3616 C 0.62929 0.69101 0.46403 0.0
C3617 C 0.63155 0.7085 0.46468 0.0
C3618 C 0.64204 0.74462 0.486 0.0
C3619 C 0.63373 0.7905 0.47634 0.0
C3620 C 0.63314 0.77165 0.47687 0.0
C3621 C 0.63189 0.71688 0.47653 0.0
C3622 C 0.63223 0.73576 0.47696 0.0
H3623 H 0.63286 0.82206 0.45424 0.0
H3624 H 0.63568 0.79153 0.4557 0.0
H3625 H 0.65038 0.7689 0.49286 0.0
H3626 H 0.6274 0.68241 0.49591 0.0
H3627 H 0.63112 0.71316 0.49706 0.0
C3628 C 0.87408 0.68723 0.03431 0.0
C3629 C 0.87473 0.67764 0.023 0.0
C3630 C 0.87219 0.70478 0.03388 0.0
C3631 C 0.86048 0.7414 0.01356 0.0
H3632 H 0.89053 0.76521 0.03673 0.0
C3633 C 0.87228 0.81469 0.01286 0.0
C3634 C 0.87434 0.82257 0.02483 0.0
C3635 C 0.87055 0.79703 0.01198 0.0
C3636 C 0.88188 0.7588 0.03031 0.0
H3637 H 0.87299 0.67902 0.00234 0.0
H3638 H 0.86985 0.70988 0.0016 0.0
H3639 H 0.89061 0.73451 0.03634 0.0
H3640 H 0.87502 0.81807 0.04529 0.0
H3641 H 0.87175 0.78761 0.04376 0.0
H3642 H 0.85189 0.76596 0.0075 0.0
C3643 C 0.87073 0.70369 0.01081 0.0
C3644 C 0.88193 0.74115 0.03008 0.0
C3645 C 0.87255 0.68601 0.01123 0.0
C3646 C 0.8737 0.81248 0.03589 0.0
C3647 C 0.87192 0.79495 0.03502 0.0
C3648 C 0.86044 0.75919 0.01378 0.0
C3649 C 0.871 0.71331 0.02213 0.0
C3650 C 0.87108 0.73218 0.02185 0.0
C3651 C 0.87083 0.78693 0.02306 0.0
C3652 C 0.87099 0.76808 0.02231 0.0
H3653 H 0.87547 0.68123 0.04356 0.0
H3654 H 0.87201 0.71172 0.0428 0.0
H3655 H 0.85196 0.73488 0.00711 0.0
H3656 H 0.87271 0.82207 0.00413 0.0
H3657 H 0.86974 0.79125 0.00262 0.0
C3658 C 0.63032 0.31775 0.511 0.0
C3659 C 0.62869 0.32606 0.52283 0.0
C3660 C 0.63236 0.30009 0.51048 0.0
C3661 C 0.62282 0.26244 0.53012 0.0
H3662 H 0.65138 0.23802 0.50624 0.0
C3663 C 0.63151 0.19109 0.53516 0.0
C3664 C 0.62988 0.18118 0.52406 0.0
C3665 C 0.63341 0.20862 0.53434 0.0
C3666 C 0.64325 0.24468 0.5129 0.0
H3667 H 0.62917 0.32243 0.54339 0.0
H3668 H 0.63303 0.29199 0.54248 0.0
H3669 H 0.65105 0.2691 0.50598 0.0
H3670 H 0.62997 0.18194 0.50334 0.0
H3671 H 0.63317 0.21274 0.50193 0.0
H3672 H 0.6149 0.23827 0.53701 0.0
C3673 C 0.63223 0.29894 0.53358 0.0
C3674 C 0.64306 0.26247 0.51275 0.0
C3675 C 0.63012 0.31646 0.5341 0.0
C3676 C 0.63118 0.18918 0.51208 0.0
C3677 C 0.63303 0.20683 0.51127 0.0
C3678 C 0.62303 0.24479 0.53028 0.0
C3679 C 0.63285 0.29044 0.52179 0.0
C3680 C 0.63298 0.27156 0.52148 0.0
C3681 C 0.63365 0.21679 0.52241 0.0
C3682 C 0.63339 0.23565 0.5218 0.0
H3683 H 0.62928 0.32475 0.50213 0.0
H3684 H 0.63278 0.29394 0.50124 0.0
H3685 H 0.61452 0.26897 0.53673 0.0
H3686 H 0.6308 0.18537 0.54455 0.0
H3687 H 0.63428 0.21584 0.54311 0.0
C3688 C 0.93555 0.37979 0.76099 0.0
C3689 C 0.9275 0.37869 0.77297 0.0
C3690 C 0.95326 0.38138 0.76018 0.0
C3691 C 0.9912 0.37128 0.77931 0.0
H3692 H 0.01576 0.39944 0.75525 0.0
C3693 C 0.06268 0.37963 0.7842 0.0
C3694 C 0.07267 0.37821 0.77313 0.0
C3695 C 0.04512 0.38136 0.78336 0.0
C3696 C 0.00906 0.3914 0.76194 0.0
H3697 H 0.93173 0.37962 0.79346 0.0
H3698 H 0.96226 0.38263 0.79203 0.0
H3699 H 0.98463 0.39955 0.75521 0.0
H3700 H 0.07198 0.3784 0.7524 0.0
H3701 H 0.0411 0.3813 0.75094 0.0
H3702 H 0.01536 0.36301 0.78603 0.0
C3703 C 0.95503 0.3818 0.78325 0.0
C3704 C 0.99124 0.39147 0.76192 0.0
C3705 C 0.93746 0.38017 0.78406 0.0
C3706 C 0.06468 0.37945 0.76113 0.0
C3707 C 0.04698 0.38113 0.76029 0.0
C3708 C 0.00887 0.37121 0.77933 0.0
C3709 C 0.96323 0.38192 0.77133 0.0
C3710 C 0.98212 0.38159 0.77076 0.0
C3711 C 0.03697 0.38163 0.77142 0.0
C3712 C 0.01807 0.38145 0.7708 0.0
H3713 H 0.92828 0.3787 0.75225 0.0
H3714 H 0.95918 0.38144 0.75084 0.0
H3715 H 0.98462 0.36314 0.786 0.0
H3716 H 0.06837 0.37896 0.79361 0.0
H3717 H 0.03787 0.38216 0.79212 0.0
C3718 C 0.43892 0.62048 0.26094 0.0
C3719 C 0.43107 0.62081 0.27302 0.0
C3720 C 0.45662 0.6191 0.25991 0.0
C3721 C 0.49469 0.62896 0.27878 0.0
H3722 H 0.51925 0.60171 0.25414 0.0
C3723 C 0.56653 0.62212 0.28258 0.0
C3724 C 0.57623 0.62337 0.27135 0.0
C3725 C 0.54897 0.6202 0.28202 0.0
C3726 C 0.51256 0.60951 0.26099 0.0
H3727 H 0.4357 0.61876 0.29343 0.0
H3728 H 0.46623 0.61621 0.29159 0.0
H3729 H 0.48814 0.60112 0.2544 0.0
H3730 H 0.57496 0.6228 0.25065 0.0
H3731 H 0.54411 0.61969 0.24967 0.0
H3732 H 0.51882 0.63756 0.28532 0.0
C3733 C 0.45882 0.61741 0.28293 0.0
C3734 C 0.49475 0.60916 0.26114 0.0
C3735 C 0.44125 0.61878 0.28396 0.0
C3736 C 0.56791 0.62189 0.2595 0.0
C3737 C 0.55022 0.62006 0.25893 0.0
C3738 C 0.51237 0.62936 0.2786 0.0
C3739 C 0.46679 0.61806 0.27093 0.0
C3740 C 0.48564 0.6187 0.27019 0.0
C3741 C 0.5405 0.61963 0.27021 0.0
C3742 C 0.52158 0.61946 0.26985 0.0
H3743 H 0.43149 0.62201 0.25232 0.0
H3744 H 0.46239 0.61964 0.25053 0.0
H3745 H 0.48809 0.63682 0.28564 0.0
H3746 H 0.57244 0.62299 0.29189 0.0
H3747 H 0.54198 0.61944 0.29091 0.0
C3748 C 0.43553 0.38305 0.73411 0.0
C3749 C 0.42782 0.37856 0.72247 0.0
C3750 C 0.45302 0.38614 0.73474 0.0
C3751 C 0.49098 0.395 0.71462 0.0
H3752 H 0.51566 0.3729 0.74198 0.0
C3753 C 0.56192 0.37865 0.71089 0.0
C3754 C 0.57218 0.37937 0.72188 0.0
C3755 C 0.54449 0.38164 0.71166 0.0
C3756 C 0.50898 0.37943 0.7344 0.0
H3757 H 0.43251 0.37443 0.70226 0.0
H3758 H 0.46278 0.37974 0.70338 0.0
H3759 H 0.48475 0.37268 0.7421 0.0
H3760 H 0.57209 0.38448 0.74226 0.0
H3761 H 0.54161 0.3898 0.74356 0.0
H3762 H 0.51521 0.40139 0.70675 0.0
C3763 C 0.45535 0.38101 0.71203 0.0
C3764 C 0.49122 0.3793 0.73447 0.0
C3765 C 0.43794 0.37787 0.7114 0.0
C3766 C 0.5646 0.38378 0.73359 0.0
C3767 C 0.5471 0.38672 0.73436 0.0
C3768 C 0.50872 0.39513 0.71456 0.0
C3769 C 0.46319 0.38492 0.72373 0.0
C3770 C 0.482 0.38677 0.72443 0.0
C3771 C 0.53678 0.38543 0.72343 0.0
C3772 C 0.51796 0.38703 0.72429 0.0
H3773 H 0.42817 0.38374 0.74283 0.0
H3774 H 0.45861 0.38931 0.74388 0.0
H3775 H 0.48429 0.40116 0.70687 0.0
H3776 H 0.56724 0.37528 0.7017 0.0
H3777 H 0.53695 0.38032 0.70307 0.0
C3778 C 0.94085 0.62369 0.20937 0.0
C3779 C 0.93128 0.62405 0.22071 0.0
C3780 C 0.95841 0.62156 0.20974 0.0
C3781 C 0.99494 0.60903 0.23009 0.0
H3782 H 0.01925 0.63965 0.20766 0.0
C3783 C 0.06781 0.62193 0.23318 0.0
C3784 C 0.07643 0.62478 0.2216 0.0
C3785 C 0.05015 0.61974 0.23332 0.0
C3786 C 0.01271 0.63081 0.21386 0.0
H3787 H 0.93271 0.62154 0.24132 0.0
H3788 H 0.96351 0.61798 0.24196 0.0
H3789 H 0.98851 0.63945 0.20748 0.0
H3790 H 0.07329 0.62642 0.20102 0.0
H3791 H 0.0428 0.62229 0.20128 0.0
H3792 H 0.01937 0.60058 0.23654 0.0
C3793 C 0.95733 0.61925 0.23277 0.0
C3794 C 0.99503 0.6307 0.21375 0.0
C3795 C 0.93967 0.62132 0.2324 0.0
C3796 C 0.0671 0.62446 0.21014 0.0
C3797 C 0.04955 0.62221 0.21029 0.0
C3798 C 0.01274 0.60915 0.23019 0.0
C3799 C 0.96696 0.61983 0.22146 0.0
C3800 C 0.98587 0.61974 0.22178 0.0
C3801 C 0.04076 0.62031 0.22189 0.0
C3802 C 0.02185 0.61997 0.22199 0.0
H3803 H 0.93484 0.62554 0.20017 0.0
H3804 H 0.96535 0.62164 0.20081 0.0
H3805 H 0.9883 0.60039 0.23636 0.0
H3806 H 0.07457 0.6221 0.24218 0.0
H3807 H 0.0438 0.61834 0.24243 0.0
loop_
_geom_bond_atom_site_label_1
_geom_bond_atom_site_label_2
_geom_bond_distance
_geom_bond_site_symmetry_2
_ccdc_geom_bond_type
Co0 O2 2.143 . S
Co0 O8 2.074 . S
Co0 O11 2.093 . S
Co0 O24 2.097 . S
Co0 N41 2.151 . S
Co0 N49 2.214 . S
Co1 O2 2.160 . S
Co1 O7 2.058 . S
Co1 O17 2.057 . S
Co1 O32 2.037 . S
Co1 N36 2.145 1_554 S
Co1 N57 2.257 . S
O2 Co0 2.143 . S
O2 Co1 2.160 . S
C3 O4 1.278 . S
C3 O11 1.224 . S
O4 C3 1.278 . S
C5 O6 1.245 . S
C5 O17 1.232 . S
O6 C5 1.245 . S
O7 Co1 2.058 . S
O7 C33 1.269 . S
O8 Co0 2.074 . S
O8 C33 1.257 . S
H9 C34 0.930 . S
H10 C40 0.930 . S
O11 Co0 2.093 . S
O11 C3 1.224 . S
H12 C44 0.929 . S
H13 C46 0.930 . S
H14 C47 0.930 . S
H15 C45 0.929 . S
H16 C48 0.928 . S
O17 Co1 2.057 . S
O17 C5 1.232 . S
H18 C37 0.929 . S
H19 C38 0.929 . S
H20 C50 0.931 . S
H21 C42 0.929 . S
H22 C51 0.930 . S
H23 C43 0.931 . S
O24 Co0 2.097 . S
O24 C52 1.214 . S
H25 C53 0.929 . S
H26 C54 0.929 . S
H27 C55 0.930 . S
H28 C56 0.929 . S
H29 C58 0.930 . S
H30 C35 0.930 . S
H31 C39 0.930 . S
O32 Co1 2.037 . S
O32 C52 1.234 . S
C33 O7 1.269 . S
C33 O8 1.257 . S
C34 H9 0.930 . S
C34 C37 1.388 . S
C34 C39 1.418 . S
C35 H30 0.930 . S
C35 C38 1.404 . S
C35 C39 1.353 . S
N36 Co1 2.145 1_556 S
N36 C37 1.397 . S
N36 C38 1.334 . S
C37 H18 0.929 . S
C37 C34 1.388 . S
C37 N36 1.397 . S
C38 H19 0.929 . S
C38 C35 1.404 . S
C38 N36 1.334 . S
C39 H31 0.930 . S
C39 C34 1.418 . S
C39 C35 1.353 . S
C40 H10 0.930 . S
C40 N41 1.330 . S
C40 C42 1.446 . S
N41 Co0 2.151 . S
N41 C40 1.330 . S
N41 C45 1.418 . S
C42 H21 0.929 . S
C42 C40 1.446 . S
C42 C43 1.332 . S
C43 H23 0.931 . S
C43 C42 1.332 . S
C43 C44 1.267 . S
C44 H12 0.929 . S
C44 C43 1.267 . S
C44 C45 1.251 . S
C45 H15 0.929 . S
C45 N41 1.418 . S
C45 C44 1.251 . S
C46 H13 0.930 . S
C46 C48 1.406 . S
C46 C51 1.261 . S
C47 H14 0.930 . S
C47 N49 1.325 . S
C47 C50 1.357 . S
C48 H16 0.928 . S
C48 C46 1.406 . S
C48 N49 1.261 . S
N49 Co0 2.214 . S
N49 C47 1.325 . S
N49 C48 1.261 . S
C50 H20 0.931 . S
C50 C47 1.357 . S
C50 C51 1.312 . S
C51 H22 0.930 . S
C51 C46 1.261 . S
C51 C50 1.312 . S
C52 O24 1.214 . S
C52 O32 1.234 . S
C53 H25 0.929 . S
C53 C56 1.391 . S
C53 C58 1.391 . S
C54 H26 0.929 . S
C54 C55 1.390 . S
C54 N57 1.391 . S
C55 H27 0.930 . S
C55 C54 1.390 . S
C55 C56 1.392 . S
C56 H28 0.929 . S
C56 C53 1.391 . S
C56 C55 1.392 . S
N57 Co1 2.257 . S
N57 C54 1.391 . S
N57 C58 1.388 . S
C58 H29 0.930 . S
C58 C53 1.391 . S
C58 N57 1.388 . S
Co59 O61 2.143 . S
Co59 O67 2.074 . S
Co59 O70 2.093 . S
Co59 O83 2.097 . S
Co59 N100 2.151 . S
Co59 N108 2.214 . S
Co60 O61 2.160 . S
Co60 O66 2.058 . S
Co60 O76 2.057 . S
Co60 O91 2.037 . S
Co60 N95 2.145 . S
Co60 N116 2.257 . S
O61 Co59 2.143 . S
O61 Co60 2.160 . S
C62 O63 1.278 . S
C62 O70 1.224 . S
O63 C62 1.278 . S
C64 O65 1.245 . S
C64 O76 1.232 . S
O65 C64 1.245 . S
O66 Co60 2.058 . S
O66 C92 1.269 . S
O67 Co59 2.074 . S
O67 C92 1.257 . S
H68 C93 0.930 . S
H69 C99 0.930 . S
O70 Co59 2.093 . S
O70 C62 1.224 . S
H71 C103 0.929 . S
H72 C105 0.930 . S
H73 C106 0.930 . S
H74 C104 0.929 . S
H75 C107 0.928 . S
O76 Co60 2.057 . S
O76 C64 1.232 . S
H77 C96 0.929 . S
H78 C97 0.929 . S
H79 C109 0.931 . S
H80 C101 0.929 . S
H81 C110 0.930 . S
H82 C102 0.931 . S
O83 Co59 2.097 . S
O83 C111 1.214 . S
H84 C112 0.929 . S
H85 C113 0.929 . S
H86 C114 0.930 . S
H87 C115 0.929 . S
H88 C117 0.930 . S
H89 C94 0.930 . S
H90 C98 0.930 . S
O91 Co60 2.037 . S
O91 C111 1.234 . S
C92 O66 1.269 . S
C92 O67 1.257 . S
C93 H68 0.930 . S
C93 C96 1.388 . S
C93 C98 1.418 . S
C94 H89 0.930 . S
C94 C97 1.404 . S
C94 C98 1.353 . S
N95 Co60 2.145 . S
N95 C96 1.397 . S
N95 C97 1.334 . S
C96 H77 0.929 . S
C96 C93 1.388 . S
C96 N95 1.397 . S
C97 H78 0.929 . S
C97 C94 1.404 . S
C97 N95 1.334 . S
C98 H90 0.930 . S
C98 C93 1.418 . S
C98 C94 1.353 . S
C99 H69 0.930 . S
C99 N100 1.330 . S
C99 C101 1.446 . S
N100 Co59 2.151 . S
N100 C99 1.330 . S
N100 C104 1.418 . S
C101 H80 0.929 . S
C101 C99 1.446 . S
C101 C102 1.332 . S
C102 H82 0.931 . S
C102 C101 1.332 . S
C102 C103 1.267 . S
C103 H71 0.929 . S
C103 C102 1.267 . S
C103 C104 1.251 . S
C104 H74 0.929 . S
C104 N100 1.418 . S
C104 C103 1.251 . S
C105 H72 0.930 . S
C105 C107 1.406 . S
C105 C110 1.261 . S
C106 H73 0.930 . S
C106 N108 1.325 . S
C106 C109 1.357 . S
C107 H75 0.928 . S
C107 C105 1.406 . S
C107 N108 1.261 . S
N108 Co59 2.214 . S
N108 C106 1.325 . S
N108 C107 1.261 . S
C109 H79 0.931 . S
C109 C106 1.357 . S
C109 C110 1.312 . S
C110 H81 0.930 . S
C110 C105 1.261 . S
C110 C109 1.312 . S
C111 O83 1.214 . S
C111 O91 1.234 . S
C112 H84 0.929 . S
C112 C115 1.391 . S
C112 C117 1.391 . S
C113 H85 0.929 . S
C113 C114 1.390 . S
C113 N116 1.391 . S
C114 H86 0.930 . S
C114 C113 1.390 . S
C114 C115 1.392 . S
C115 H87 0.929 . S
C115 C112 1.391 . S
C115 C114 1.392 . S
N116 Co60 2.257 . S
N116 C113 1.391 . S
N116 C117 1.388 . S
C117 H88 0.930 . S
C117 C112 1.391 . S
C117 N116 1.388 . S
Co118 O120 2.143 . S
Co118 O126 2.074 . S
Co118 O129 2.093 . S
Co118 O142 2.097 . S
Co118 N159 2.151 . S
Co118 N167 2.214 . S
Co119 O120 2.160 . S
Co119 O125 2.058 . S
Co119 O135 2.057 . S
Co119 O150 2.037 . S
Co119 N154 2.145 . S
Co119 N175 2.257 . S
O120 Co118 2.143 . S
O120 Co119 2.160 . S
C121 O122 1.278 . S
C121 O129 1.224 . S
O122 C121 1.278 . S
C123 O124 1.245 . S
C123 O135 1.232 . S
O124 C123 1.245 . S
O125 Co119 2.058 . S
O125 C151 1.269 . S
O126 Co118 2.074 . S
O126 C151 1.257 . S
H127 C152 0.930 . S
H128 C158 0.930 . S
O129 Co118 2.093 . S
O129 C121 1.224 . S
H130 C162 0.929 . S
H131 C164 0.930 . S
H132 C165 0.930 . S
H133 C163 0.929 . S
H134 C166 0.928 . S
O135 Co119 2.057 . S
O135 C123 1.232 . S
H136 C155 0.929 . S
H137 C156 0.929 . S
H138 C168 0.931 . S
H139 C160 0.929 . S
H140 C169 0.930 . S
H141 C161 0.931 . S
O142 Co118 2.097 . S
O142 C170 1.214 . S
H143 C171 0.929 . S
H144 C172 0.929 . S
H145 C173 0.930 . S
H146 C174 0.929 . S
H147 C176 0.930 . S
H148 C153 0.930 . S
H149 C157 0.930 . S
O150 Co119 2.037 . S
O150 C170 1.234 . S
C151 O125 1.269 . S
C151 O126 1.257 . S
C152 H127 0.930 . S
C152 C155 1.388 . S
C152 C157 1.418 . S
C153 H148 0.930 . S
C153 C156 1.404 . S
C153 C157 1.353 . S
N154 Co119 2.145 . S
N154 C155 1.397 . S
N154 C156 1.334 . S
C155 H136 0.929 . S
C155 C152 1.388 . S
C155 N154 1.397 . S
C156 H137 0.929 . S
C156 C153 1.404 . S
C156 N154 1.334 . S
C157 H149 0.930 . S
C157 C152 1.418 . S
C157 C153 1.353 . S
C158 H128 0.930 . S
C158 N159 1.330 . S
C158 C160 1.446 . S
N159 Co118 2.151 . S
N159 C158 1.330 . S
N159 C163 1.418 . S
C160 H139 0.929 . S
C160 C158 1.446 . S
C160 C161 1.332 . S
C161 H141 0.931 . S
C161 C160 1.332 . S
C161 C162 1.267 . S
C162 H130 0.929 . S
C162 C161 1.267 . S
C162 C163 1.251 . S
C163 H133 0.929 . S
C163 N159 1.418 . S
C163 C162 1.251 . S
C164 H131 0.930 . S
C164 C166 1.406 . S
C164 C169 1.261 . S
C165 H132 0.930 . S
C165 N167 1.325 . S
C165 C168 1.357 . S
C166 H134 0.928 . S
C166 C164 1.406 . S
C166 N167 1.261 . S
N167 Co118 2.214 . S
N167 C165 1.325 . S
N167 C166 1.261 . S
C168 H138 0.931 . S
C168 C165 1.357 . S
C168 C169 1.312 . S
C169 H140 0.930 . S
C169 C164 1.261 . S
C169 C168 1.312 . S
C170 O142 1.214 . S
C170 O150 1.234 . S
C171 H143 0.929 . S
C171 C174 1.391 . S
C171 C176 1.391 . S
C172 H144 0.929 . S
C172 C173 1.390 . S
C172 N175 1.391 . S
C173 H145 0.930 . S
C173 C172 1.390 . S
C173 C174 1.392 . S
C174 H146 0.929 . S
C174 C171 1.391 . S
C174 C173 1.392 . S
N175 Co119 2.257 . S
N175 C172 1.391 . S
N175 C176 1.388 . S
C176 H147 0.930 . S
C176 C171 1.391 . S
C176 N175 1.388 . S
Co177 O179 2.143 . S
Co177 O185 2.074 . S
Co177 O188 2.093 . S
Co177 O201 2.097 . S
Co177 N218 2.151 . S
Co177 N226 2.214 . S
Co178 O179 2.160 . S
Co178 O184 2.058 . S
Co178 O194 2.057 . S
Co178 O209 2.037 . S
Co178 N213 2.145 . S
Co178 N234 2.257 . S
O179 Co177 2.143 . S
O179 Co178 2.160 . S
C180 O181 1.278 . S
C180 O188 1.224 . S
O181 C180 1.278 . S
C182 O183 1.245 . S
C182 O194 1.232 . S
O183 C182 1.245 . S
O184 Co178 2.058 . S
O184 C210 1.269 . S
O185 Co177 2.074 . S
O185 C210 1.257 . S
H186 C211 0.930 . S
H187 C217 0.930 . S
O188 Co177 2.093 . S
O188 C180 1.224 . S
H189 C221 0.929 . S
H190 C223 0.930 . S
H191 C224 0.930 . S
H192 C222 0.929 . S
H193 C225 0.928 . S
O194 Co178 2.057 . S
O194 C182 1.232 . S
H195 C214 0.929 . S
H196 C215 0.929 . S
H197 C227 0.931 . S
H198 C219 0.929 . S
H199 C228 0.930 . S
H200 C220 0.931 . S
O201 Co177 2.097 . S
O201 C229 1.214 . S
H202 C230 0.929 . S
H203 C231 0.929 . S
H204 C232 0.930 . S
H205 C233 0.929 . S
H206 C235 0.930 . S
H207 C212 0.930 . S
H208 C216 0.930 . S
O209 Co178 2.037 . S
O209 C229 1.234 . S
C210 O184 1.269 . S
C210 O185 1.257 . S
C211 H186 0.930 . S
C211 C214 1.388 . S
C211 C216 1.418 . S
C212 H207 0.930 . S
C212 C215 1.404 . S
C212 C216 1.353 . S
N213 Co178 2.145 . S
N213 C214 1.397 . S
N213 C215 1.334 . S
C214 H195 0.929 . S
C214 C211 1.388 . S
C214 N213 1.397 . S
C215 H196 0.929 . S
C215 C212 1.404 . S
C215 N213 1.334 . S
C216 H208 0.930 . S
C216 C211 1.418 . S
C216 C212 1.353 . S
C217 H187 0.930 . S
C217 N218 1.330 . S
C217 C219 1.446 . S
N218 Co177 2.151 . S
N218 C217 1.330 . S
N218 C222 1.418 . S
C219 H198 0.929 . S
C219 C217 1.446 . S
C219 C220 1.332 . S
C220 H200 0.931 . S
C220 C219 1.332 . S
C220 C221 1.267 . S
C221 H189 0.929 . S
C221 C220 1.267 . S
C221 C222 1.251 . S
C222 H192 0.929 . S
C222 N218 1.418 . S
C222 C221 1.251 . S
C223 H190 0.930 . S
C223 C225 1.406 . S
C223 C228 1.261 . S
C224 H191 0.930 . S
C224 N226 1.325 . S
C224 C227 1.357 . S
C225 H193 0.928 . S
C225 C223 1.406 . S
C225 N226 1.261 . S
N226 Co177 2.214 . S
N226 C224 1.325 . S
N226 C225 1.261 . S
C227 H197 0.931 . S
C227 C224 1.357 . S
C227 C228 1.312 . S
C228 H199 0.930 . S
C228 C223 1.261 . S
C228 C227 1.312 . S
C229 O201 1.214 . S
C229 O209 1.234 . S
C230 H202 0.929 . S
C230 C233 1.391 . S
C230 C235 1.391 . S
C231 H203 0.929 . S
C231 C232 1.390 . S
C231 N234 1.391 . S
C232 H204 0.930 . S
C232 C231 1.390 . S
C232 C233 1.392 . S
C233 H205 0.929 . S
C233 C230 1.391 . S
C233 C232 1.392 . S
N234 Co178 2.257 . S
N234 C231 1.391 . S
N234 C235 1.388 . S
C235 H206 0.930 . S
C235 C230 1.391 . S
C235 N234 1.388 . S
Co236 O238 2.143 . S
Co236 O244 2.074 . S
Co236 O247 2.093 . S
Co236 O260 2.097 . S
Co236 N277 2.151 . S
Co236 N285 2.214 . S
Co237 O238 2.160 . S
Co237 O243 2.058 . S
Co237 O253 2.057 . S
Co237 O268 2.037 . S
Co237 N272 2.145 1_556 S
Co237 N293 2.257 . S
O238 Co236 2.143 . S
O238 Co237 2.160 . S
C239 O240 1.278 . S
C239 O247 1.224 . S
O240 C239 1.278 . S
C241 O242 1.245 . S
C241 O253 1.232 . S
O242 C241 1.245 . S
O243 Co237 2.058 . S
O243 C269 1.269 . S
O244 Co236 2.074 . S
O244 C269 1.257 . S
H245 C270 0.930 . S
H246 C276 0.930 . S
O247 Co236 2.093 . S
O247 C239 1.224 . S
H248 C280 0.929 . S
H249 C282 0.930 . S
H250 C283 0.930 . S
H251 C281 0.929 . S
H252 C284 0.928 . S
O253 Co237 2.057 . S
O253 C241 1.232 . S
H254 C273 0.929 . S
H255 C274 0.929 . S
H256 C286 0.931 . S
H257 C278 0.929 . S
H258 C287 0.930 . S
H259 C279 0.931 . S
O260 Co236 2.097 . S
O260 C288 1.214 . S
H261 C289 0.929 . S
H262 C290 0.930 . S
H263 C291 0.930 . S
H264 C292 0.929 . S
H265 C294 0.930 . S
H266 C271 0.930 . S
H267 C275 0.930 . S
O268 Co237 2.037 . S
O268 C288 1.234 . S
C269 O243 1.269 . S
C269 O244 1.257 . S
C270 H245 0.930 . S
C270 C273 1.388 . S
C270 C275 1.418 . S
C271 H266 0.930 . S
C271 C274 1.404 . S
C271 C275 1.353 . S
N272 Co237 2.145 1_554 S
N272 C273 1.397 . S
N272 C274 1.334 . S
C273 H254 0.929 . S
C273 C270 1.388 . S
C273 N272 1.397 . S
C274 H255 0.929 . S
C274 C271 1.404 . S
C274 N272 1.334 . S
C275 H267 0.930 . S
C275 C270 1.418 . S
C275 C271 1.353 . S
C276 H246 0.930 . S
C276 N277 1.330 . S
C276 C278 1.446 . S
N277 Co236 2.151 . S
N277 C276 1.330 . S
N277 C281 1.418 . S
C278 H257 0.929 . S
C278 C276 1.446 . S
C278 C279 1.332 . S
C279 H259 0.931 . S
C279 C278 1.332 . S
C279 C280 1.267 . S
C280 H248 0.929 . S
C280 C279 1.267 . S
C280 C281 1.251 . S
C281 H251 0.929 . S
C281 N277 1.418 . S
C281 C280 1.251 . S
C282 H249 0.930 . S
C282 C284 1.406 . S
C282 C287 1.261 . S
C283 H250 0.930 . S
C283 N285 1.325 . S
C283 C286 1.357 . S
C284 H252 0.928 . S
C284 C282 1.406 . S
C284 N285 1.261 . S
N285 Co236 2.214 . S
N285 C283 1.325 . S
N285 C284 1.261 . S
C286 H256 0.931 . S
C286 C283 1.357 . S
C286 C287 1.312 . S
C287 H258 0.930 . S
C287 C282 1.261 . S
C287 C286 1.312 . S
C288 O260 1.214 . S
C288 O268 1.234 . S
C289 H261 0.929 . S
C289 C292 1.391 . S
C289 C294 1.391 . S
C290 H262 0.930 . S
C290 C291 1.390 . S
C290 N293 1.391 . S
C291 H263 0.930 . S
C291 C290 1.390 . S
C291 C292 1.392 . S
C292 H264 0.929 . S
C292 C289 1.391 . S
C292 C291 1.392 . S
N293 Co237 2.257 . S
N293 C290 1.391 . S
N293 C294 1.388 . S
C294 H265 0.930 . S
C294 C289 1.391 . S
C294 N293 1.388 . S
Co295 O297 2.143 . S
Co295 O303 2.074 . S
Co295 O306 2.093 . S
Co295 O319 2.097 . S
Co295 N336 2.151 . S
Co295 N344 2.214 . S
Co296 O297 2.160 . S
Co296 O302 2.058 . S
Co296 O312 2.057 . S
Co296 O327 2.037 . S
Co296 N331 2.145 . S
Co296 N352 2.257 . S
O297 Co295 2.143 . S
O297 Co296 2.160 . S
C298 O299 1.278 . S
C298 O306 1.224 . S
O299 C298 1.278 . S
C300 O301 1.245 . S
C300 O312 1.232 . S
O301 C300 1.245 . S
O302 Co296 2.058 . S
O302 C328 1.269 . S
O303 Co295 2.074 . S
O303 C328 1.257 . S
H304 C329 0.930 . S
H305 C335 0.930 . S
O306 Co295 2.093 . S
O306 C298 1.224 . S
H307 C339 0.929 . S
H308 C341 0.930 . S
H309 C342 0.930 . S
H310 C340 0.929 . S
H311 C343 0.928 . S
O312 Co296 2.057 . S
O312 C300 1.232 . S
H313 C332 0.929 . S
H314 C333 0.929 . S
H315 C345 0.931 . S
H316 C337 0.929 . S
H317 C346 0.930 . S
H318 C338 0.931 . S
O319 Co295 2.097 . S
O319 C347 1.214 . S
H320 C348 0.929 . S
H321 C349 0.929 . S
H322 C350 0.930 . S
H323 C351 0.929 . S
H324 C353 0.930 . S
H325 C330 0.930 . S
H326 C334 0.930 . S
O327 Co296 2.037 . S
O327 C347 1.234 . S
C328 O302 1.269 . S
C328 O303 1.257 . S
C329 H304 0.930 . S
C329 C332 1.388 . S
C329 C334 1.418 . S
C330 H325 0.930 . S
C330 C333 1.404 . S
C330 C334 1.353 . S
N331 Co296 2.145 . S
N331 C332 1.397 . S
N331 C333 1.334 . S
C332 H313 0.929 . S
C332 C329 1.388 . S
C332 N331 1.397 . S
C333 H314 0.929 . S
C333 C330 1.404 . S
C333 N331 1.334 . S
C334 H326 0.930 . S
C334 C329 1.418 . S
C334 C330 1.353 . S
C335 H305 0.930 . S
C335 N336 1.330 . S
C335 C337 1.446 . S
N336 Co295 2.151 . S
N336 C335 1.330 . S
N336 C340 1.418 . S
C337 H316 0.929 . S
C337 C335 1.446 . S
C337 C338 1.332 . S
C338 H318 0.931 . S
C338 C337 1.332 . S
C338 C339 1.267 . S
C339 H307 0.929 . S
C339 C338 1.267 . S
C339 C340 1.251 . S
C340 H310 0.929 . S
C340 N336 1.418 . S
C340 C339 1.251 . S
C341 H308 0.930 . S
C341 C343 1.406 . S
C341 C346 1.261 . S
C342 H309 0.930 . S
C342 N344 1.325 . S
C342 C345 1.357 . S
C343 H311 0.928 . S
C343 C341 1.406 . S
C343 N344 1.261 . S
N344 Co295 2.214 . S
N344 C342 1.325 . S
N344 C343 1.261 . S
C345 H315 0.931 . S
C345 C342 1.357 . S
C345 C346 1.312 . S
C346 H317 0.930 . S
C346 C341 1.261 . S
C346 C345 1.312 . S
C347 O319 1.214 . S
C347 O327 1.234 . S
C348 H320 0.929 . S
C348 C351 1.391 . S
C348 C353 1.391 . S
C349 H321 0.929 . S
C349 C350 1.390 . S
C349 N352 1.391 . S
C350 H322 0.930 . S
C350 C349 1.390 . S
C350 C351 1.392 . S
C351 H323 0.929 . S
C351 C348 1.391 . S
C351 C350 1.392 . S
N352 Co296 2.257 . S
N352 C349 1.391 . S
N352 C353 1.388 . S
C353 H324 0.930 . S
C353 C348 1.391 . S
C353 N352 1.388 . S
Co354 O356 2.143 . S
Co354 O362 2.074 . S
Co354 O365 2.093 . S
Co354 O378 2.097 . S
Co354 N395 2.151 . S
Co354 N403 2.214 . S
Co355 O356 2.160 . S
Co355 O361 2.058 . S
Co355 O371 2.057 . S
Co355 O386 2.037 . S
Co355 N390 2.145 . S
Co355 N411 2.257 . S
O356 Co354 2.143 . S
O356 Co355 2.160 . S
C357 O358 1.278 . S
C357 O365 1.224 . S
O358 C357 1.278 . S
C359 O360 1.245 . S
C359 O371 1.232 . S
O360 C359 1.245 . S
O361 Co355 2.058 . S
O361 C387 1.269 . S
O362 Co354 2.074 . S
O362 C387 1.257 . S
H363 C388 0.930 . S
H364 C394 0.930 . S
O365 Co354 2.093 . S
O365 C357 1.224 . S
H366 C398 0.929 . S
H367 C400 0.930 . S
H368 C401 0.930 . S
H369 C399 0.929 . S
H370 C402 0.928 . S
O371 Co355 2.057 . S
O371 C359 1.232 . S
H372 C391 0.929 . S
H373 C392 0.929 . S
H374 C404 0.931 . S
H375 C396 0.929 . S
H376 C405 0.930 . S
H377 C397 0.931 . S
O378 Co354 2.097 . S
O378 C406 1.214 . S
H379 C407 0.929 . S
H380 C408 0.929 . S
H381 C409 0.930 . S
H382 C410 0.929 . S
H383 C412 0.930 . S
H384 C389 0.930 . S
H385 C393 0.930 . S
O386 Co355 2.037 . S
O386 C406 1.234 . S
C387 O361 1.269 . S
C387 O362 1.257 . S
C388 H363 0.930 . S
C388 C391 1.388 . S
C388 C393 1.418 . S
C389 H384 0.930 . S
C389 C392 1.404 . S
C389 C393 1.353 . S
N390 Co355 2.145 . S
N390 C391 1.397 . S
N390 C392 1.334 . S
C391 H372 0.929 . S
C391 C388 1.388 . S
C391 N390 1.397 . S
C392 H373 0.929 . S
C392 C389 1.404 . S
C392 N390 1.334 . S
C393 H385 0.930 . S
C393 C388 1.418 . S
C393 C389 1.353 . S
C394 H364 0.930 . S
C394 N395 1.330 . S
C394 C396 1.446 . S
N395 Co354 2.151 . S
N395 C394 1.330 . S
N395 C399 1.418 . S
C396 H375 0.929 . S
C396 C394 1.446 . S
C396 C397 1.332 . S
C397 H377 0.931 . S
C397 C396 1.332 . S
C397 C398 1.267 . S
C398 H366 0.929 . S
C398 C397 1.267 . S
C398 C399 1.251 . S
C399 H369 0.929 . S
C399 N395 1.418 . S
C399 C398 1.251 . S
C400 H367 0.930 . S
C400 C402 1.406 . S
C400 C405 1.261 . S
C401 H368 0.930 . S
C401 N403 1.325 . S
C401 C404 1.357 . S
C402 H370 0.928 . S
C402 C400 1.406 . S
C402 N403 1.261 . S
N403 Co354 2.214 . S
N403 C401 1.325 . S
N403 C402 1.261 . S
C404 H374 0.931 . S
C404 C401 1.357 . S
C404 C405 1.312 . S
C405 H376 0.930 . S
C405 C400 1.261 . S
C405 C404 1.312 . S
C406 O378 1.214 . S
C406 O386 1.234 . S
C407 H379 0.929 . S
C407 C410 1.391 . S
C407 C412 1.391 . S
C408 H380 0.929 . S
C408 C409 1.390 . S
C408 N411 1.391 . S
C409 H381 0.930 . S
C409 C408 1.390 . S
C409 C410 1.392 . S
C410 H382 0.929 . S
C410 C407 1.391 . S
C410 C409 1.392 . S
N411 Co355 2.257 . S
N411 C408 1.391 . S
N411 C412 1.388 . S
C412 H383 0.930 . S
C412 C407 1.391 . S
C412 N411 1.388 . S
Co413 O415 2.143 . S
Co413 O421 2.074 . S
Co413 O424 2.093 . S
Co413 O437 2.097 . S
Co413 N454 2.151 . S
Co413 N462 2.214 . S
Co414 O415 2.160 . S
Co414 O420 2.058 . S
Co414 O430 2.057 . S
Co414 O445 2.037 . S
Co414 N449 2.145 . S
Co414 N470 2.257 . S
O415 Co413 2.143 . S
O415 Co414 2.160 . S
C416 O417 1.278 . S
C416 O424 1.224 . S
O417 C416 1.278 . S
C418 O419 1.245 . S
C418 O430 1.232 . S
O419 C418 1.245 . S
O420 Co414 2.058 . S
O420 C446 1.269 . S
O421 Co413 2.074 . S
O421 C446 1.257 . S
H422 C447 0.930 . S
H423 C453 0.930 . S
O424 Co413 2.093 . S
O424 C416 1.224 . S
H425 C457 0.929 . S
H426 C459 0.930 . S
H427 C460 0.930 . S
H428 C458 0.929 . S
H429 C461 0.928 . S
O430 Co414 2.057 . S
O430 C418 1.232 . S
H431 C450 0.929 . S
H432 C451 0.929 . S
H433 C463 0.931 . S
H434 C455 0.929 . S
H435 C464 0.930 . S
H436 C456 0.931 . S
O437 Co413 2.097 . S
O437 C465 1.214 . S
H438 C466 0.929 . S
H439 C467 0.929 . S
H440 C468 0.930 . S
H441 C469 0.929 . S
H442 C471 0.930 . S
H443 C448 0.930 . S
H444 C452 0.930 . S
O445 Co414 2.037 . S
O445 C465 1.234 . S
C446 O420 1.269 . S
C446 O421 1.257 . S
C447 H422 0.930 . S
C447 C450 1.388 . S
C447 C452 1.418 . S
C448 H443 0.930 . S
C448 C451 1.404 . S
C448 C452 1.353 . S
N449 Co414 2.145 . S
N449 C450 1.397 . S
N449 C451 1.334 . S
C450 H431 0.929 . S
C450 C447 1.388 . S
C450 N449 1.397 . S
C451 H432 0.929 . S
C451 C448 1.404 . S
C451 N449 1.334 . S
C452 H444 0.930 . S
C452 C447 1.418 . S
C452 C448 1.353 . S
C453 H423 0.930 . S
C453 N454 1.330 . S
C453 C455 1.446 . S
N454 Co413 2.151 . S
N454 C453 1.330 . S
N454 C458 1.418 . S
C455 H434 0.929 . S
C455 C453 1.446 . S
C455 C456 1.332 . S
C456 H436 0.931 . S
C456 C455 1.332 . S
C456 C457 1.267 . S
C457 H425 0.929 . S
C457 C456 1.267 . S
C457 C458 1.251 . S
C458 H428 0.929 . S
C458 N454 1.418 . S
C458 C457 1.251 . S
C459 H426 0.930 . S
C459 C461 1.406 . S
C459 C464 1.261 . S
C460 H427 0.930 . S
C460 N462 1.325 . S
C460 C463 1.357 . S
C461 H429 0.928 . S
C461 C459 1.406 . S
C461 N462 1.261 . S
N462 Co413 2.214 . S
N462 C460 1.325 . S
N462 C461 1.261 . S
C463 H433 0.931 . S
C463 C460 1.357 . S
C463 C464 1.312 . S
C464 H435 0.930 . S
C464 C459 1.261 . S
C464 C463 1.312 . S
C465 O437 1.214 . S
C465 O445 1.234 . S
C466 H438 0.929 . S
C466 C469 1.391 . S
C466 C471 1.391 . S
C467 H439 0.929 . S
C467 C468 1.390 . S
C467 N470 1.391 . S
C468 H440 0.930 . S
C468 C467 1.390 . S
C468 C469 1.392 . S
C469 H441 0.929 . S
C469 C466 1.391 . S
C469 C468 1.392 . S
N470 Co414 2.257 . S
N470 C467 1.391 . S
N470 C471 1.388 . S
C471 H442 0.930 . S
C471 C466 1.391 . S
C471 N470 1.388 . S
Co472 O474 2.143 . S
Co472 O480 2.074 . S
Co472 O483 2.093 . S
Co472 O496 2.097 . S
Co472 N513 2.151 . S
Co472 N521 2.214 . S
Co473 O474 2.160 . S
Co473 O479 2.058 . S
Co473 O489 2.057 . S
Co473 O504 2.037 . S
Co473 N508 2.145 1_556 S
Co473 N529 2.257 . S
O474 Co472 2.143 . S
O474 Co473 2.160 . S
C475 O476 1.278 . S
C475 O483 1.224 . S
O476 C475 1.278 . S
C477 O478 1.245 . S
C477 O489 1.232 . S
O478 C477 1.245 . S
O479 Co473 2.058 . S
O479 C505 1.269 . S
O480 Co472 2.074 . S
O480 C505 1.257 . S
H481 C506 0.930 . S
H482 C512 0.930 . S
O483 Co472 2.093 . S
O483 C475 1.224 . S
H484 C516 0.929 . S
H485 C518 0.930 . S
H486 C519 0.930 . S
H487 C517 0.929 . S
H488 C520 0.928 . S
O489 Co473 2.057 . S
O489 C477 1.232 . S
H490 C509 0.929 . S
H491 C510 0.929 . S
H492 C522 0.931 . S
H493 C514 0.929 . S
H494 C523 0.930 . S
H495 C515 0.931 . S
O496 Co472 2.097 . S
O496 C524 1.214 . S
H497 C525 0.929 . S
H498 C526 0.936 . S
H499 C527 0.930 . S
H500 C528 0.929 . S
H501 C530 0.930 . S
H502 C507 0.930 . S
H503 C511 0.930 . S
O504 Co473 2.037 . S
O504 C524 1.234 . S
C505 O479 1.269 . S
C505 O480 1.257 . S
C506 H481 0.930 . S
C506 C509 1.388 . S
C506 C511 1.418 . S
C507 H502 0.930 . S
C507 C510 1.404 . S
C507 C511 1.353 . S
N508 Co473 2.145 1_554 S
N508 C509 1.397 . S
N508 C510 1.334 . S
C509 H490 0.929 . S
C509 C506 1.388 . S
C509 N508 1.397 . S
C510 H491 0.929 . S
C510 C507 1.404 . S
C510 N508 1.334 . S
C511 H503 0.930 . S
C511 C506 1.418 . S
C511 C507 1.353 . S
C512 H482 0.930 . S
C512 N513 1.330 . S
C512 C514 1.446 . S
N513 Co472 2.151 . S
N513 C512 1.330 . S
N513 C517 1.418 . S
C514 H493 0.929 . S
C514 C512 1.446 . S
C514 C515 1.332 . S
C515 H495 0.931 . S
C515 C514 1.332 . S
C515 C516 1.267 . S
C516 H484 0.929 . S
C516 C515 1.267 . S
C516 C517 1.251 . S
C517 H487 0.929 . S
C517 N513 1.418 . S
C517 C516 1.251 . S
C518 H485 0.930 . S
C518 C520 1.406 . S
C518 C523 1.261 . S
C519 H486 0.930 . S
C519 N521 1.325 . S
C519 C522 1.357 . S
C520 H488 0.928 . S
C520 C518 1.406 . S
C520 N521 1.261 . S
N521 Co472 2.214 . S
N521 C519 1.325 . S
N521 C520 1.261 . S
C522 H492 0.931 . S
C522 C519 1.357 . S
C522 C523 1.312 . S
C523 H494 0.930 . S
C523 C518 1.261 . S
C523 C522 1.312 . S
C524 O496 1.214 . S
C524 O504 1.234 . S
C525 H497 0.929 . S
C525 C528 1.391 . S
C525 C530 1.391 . S
C526 H498 0.936 . S
C526 C527 1.390 . S
C526 N529 1.391 . S
C527 H499 0.930 . S
C527 C526 1.390 . S
C527 C528 1.392 . S
C528 H500 0.929 . S
C528 C525 1.391 . S
C528 C527 1.392 . S
N529 Co473 2.257 . S
N529 C526 1.391 . S
N529 C530 1.388 . S
C530 H501 0.930 . S
C530 C525 1.391 . S
C530 N529 1.388 . S
Co531 O533 2.143 . S
Co531 O539 2.074 . S
Co531 O542 2.093 . S
Co531 O555 2.097 . S
Co531 N572 2.151 . S
Co531 N580 2.214 . S
Co532 O533 2.160 . S
Co532 O538 2.058 . S
Co532 O548 2.057 . S
Co532 O563 2.037 . S
Co532 N567 2.145 . S
Co532 N588 2.257 . S
O533 Co531 2.143 . S
O533 Co532 2.160 . S
C534 O535 1.278 . S
C534 O542 1.224 . S
O535 C534 1.278 . S
C536 O537 1.245 . S
C536 O548 1.232 . S
O537 C536 1.245 . S
O538 Co532 2.058 . S
O538 C564 1.269 . S
O539 Co531 2.074 . S
O539 C564 1.257 . S
H540 C565 0.930 . S
H541 C571 0.930 . S
O542 Co531 2.093 . S
O542 C534 1.224 . S
H543 C575 0.929 . S
H544 C577 0.930 . S
H545 C578 0.930 . S
H546 C576 0.929 . S
H547 C579 0.928 . S
O548 Co532 2.057 . S
O548 C536 1.232 . S
H549 C568 0.929 . S
H550 C569 0.929 . S
H551 C581 0.931 . S
H552 C573 0.929 . S
H553 C582 0.930 . S
H554 C574 0.931 . S
O555 Co531 2.097 . S
O555 C583 1.214 . S
H556 C584 0.929 . S
H557 C585 0.929 . S
H558 C586 0.930 . S
H559 C587 0.929 . S
H560 C589 0.930 . S
H561 C566 0.930 . S
H562 C570 0.930 . S
O563 Co532 2.037 . S
O563 C583 1.234 . S
C564 O538 1.269 . S
C564 O539 1.257 . S
C565 H540 0.930 . S
C565 C568 1.388 . S
C565 C570 1.418 . S
C566 H561 0.930 . S
C566 C569 1.404 . S
C566 C570 1.353 . S
N567 Co532 2.145 . S
N567 C568 1.397 . S
N567 C569 1.334 . S
C568 H549 0.929 . S
C568 C565 1.388 . S
C568 N567 1.397 . S
C569 H550 0.929 . S
C569 C566 1.404 . S
C569 N567 1.334 . S
C570 H562 0.930 . S
C570 C565 1.418 . S
C570 C566 1.353 . S
C571 H541 0.930 . S
C571 N572 1.330 . S
C571 C573 1.446 . S
N572 Co531 2.151 . S
N572 C571 1.330 . S
N572 C576 1.418 . S
C573 H552 0.929 . S
C573 C571 1.446 . S
C573 C574 1.332 . S
C574 H554 0.931 . S
C574 C573 1.332 . S
C574 C575 1.267 . S
C575 H543 0.929 . S
C575 C574 1.267 . S
C575 C576 1.251 . S
C576 H546 0.929 . S
C576 N572 1.418 . S
C576 C575 1.251 . S
C577 H544 0.930 . S
C577 C579 1.406 . S
C577 C582 1.261 . S
C578 H545 0.930 . S
C578 N580 1.325 . S
C578 C581 1.357 . S
C579 H547 0.928 . S
C579 C577 1.406 . S
C579 N580 1.261 . S
N580 Co531 2.214 . S
N580 C578 1.325 . S
N580 C579 1.261 . S
C581 H551 0.931 . S
C581 C578 1.357 . S
C581 C582 1.312 . S
C582 H553 0.930 . S
C582 C577 1.261 . S
C582 C581 1.312 . S
C583 O555 1.214 . S
C583 O563 1.234 . S
C584 H556 0.929 . S
C584 C587 1.391 . S
C584 C589 1.391 . S
C585 H557 0.929 . S
C585 C586 1.390 . S
C585 N588 1.391 . S
C586 H558 0.930 . S
C586 C585 1.390 . S
C586 C587 1.392 . S
C587 H559 0.929 . S
C587 C584 1.391 . S
C587 C586 1.392 . S
N588 Co532 2.257 . S
N588 C585 1.391 . S
N588 C589 1.388 . S
C589 H560 0.930 . S
C589 C584 1.391 . S
C589 N588 1.388 . S
Co590 O592 2.143 . S
Co590 O598 2.074 . S
Co590 O601 2.093 . S
Co590 O614 2.097 . S
Co590 N631 2.151 . S
Co590 N639 2.214 . S
Co591 O592 2.160 . S
Co591 O597 2.058 . S
Co591 O607 2.057 . S
Co591 O622 2.037 . S
Co591 N626 2.145 . S
Co591 N647 2.257 . S
O592 Co590 2.143 . S
O592 Co591 2.160 . S
C593 O594 1.278 . S
C593 O601 1.224 . S
O594 C593 1.278 . S
C595 O596 1.245 . S
C595 O607 1.232 . S
O596 C595 1.245 . S
O597 Co591 2.058 . S
O597 C623 1.269 . S
O598 Co590 2.074 . S
O598 C623 1.257 . S
H599 C624 0.930 . S
H600 C630 0.930 . S
O601 Co590 2.093 . S
O601 C593 1.224 . S
H602 C634 0.929 . S
H603 C636 0.930 . S
H604 C637 0.930 . S
H605 C635 0.929 . S
H606 C638 0.928 . S
O607 Co591 2.057 . S
O607 C595 1.232 . S
H608 C627 0.929 . S
H609 C628 0.929 . S
H610 C640 0.931 . S
H611 C632 0.929 . S
H612 C641 0.930 . S
H613 C633 0.931 . S
O614 Co590 2.097 . S
O614 C642 1.214 . S
H615 C643 0.929 . S
H616 C644 0.929 . S
H617 C645 0.930 . S
H618 C646 0.929 . S
H619 C648 0.930 . S
H620 C625 0.930 . S
H621 C629 0.930 . S
O622 Co591 2.037 . S
O622 C642 1.234 . S
C623 O597 1.269 . S
C623 O598 1.257 . S
C624 H599 0.930 . S
C624 C627 1.388 . S
C624 C629 1.418 . S
C625 H620 0.930 . S
C625 C628 1.404 . S
C625 C629 1.353 . S
N626 Co591 2.145 . S
N626 C627 1.397 . S
N626 C628 1.334 . S
C627 H608 0.929 . S
C627 C624 1.388 . S
C627 N626 1.397 . S
C628 H609 0.929 . S
C628 C625 1.404 . S
C628 N626 1.334 . S
C629 H621 0.930 . S
C629 C624 1.418 . S
C629 C625 1.353 . S
C630 H600 0.930 . S
C630 N631 1.330 . S
C630 C632 1.446 . S
N631 Co590 2.151 . S
N631 C630 1.330 . S
N631 C635 1.418 . S
C632 H611 0.929 . S
C632 C630 1.446 . S
C632 C633 1.332 . S
C633 H613 0.931 . S
C633 C632 1.332 . S
C633 C634 1.267 . S
C634 H602 0.929 . S
C634 C633 1.267 . S
C634 C635 1.251 . S
C635 H605 0.929 . S
C635 N631 1.418 . S
C635 C634 1.251 . S
C636 H603 0.930 . S
C636 C638 1.406 . S
C636 C641 1.261 . S
C637 H604 0.930 . S
C637 N639 1.325 . S
C637 C640 1.357 . S
C638 H606 0.928 . S
C638 C636 1.406 . S
C638 N639 1.261 . S
N639 Co590 2.214 . S
N639 C637 1.325 . S
N639 C638 1.261 . S
C640 H610 0.931 . S
C640 C637 1.357 . S
C640 C641 1.312 . S
C641 H612 0.930 . S
C641 C636 1.261 . S
C641 C640 1.312 . S
C642 O614 1.214 . S
C642 O622 1.234 . S
C643 H615 0.929 . S
C643 C646 1.391 . S
C643 C648 1.391 . S
C644 H616 0.929 . S
C644 C645 1.390 . S
C644 N647 1.391 . S
C645 H617 0.930 . S
C645 C644 1.390 . S
C645 C646 1.392 . S
C646 H618 0.929 . S
C646 C643 1.391 . S
C646 C645 1.392 . S
N647 Co591 2.257 . S
N647 C644 1.391 . S
N647 C648 1.388 . S
C648 H619 0.930 . S
C648 C643 1.391 . S
C648 N647 1.388 . S
Co649 O651 2.143 . S
Co649 O657 2.074 . S
Co649 O660 2.093 . S
Co649 O673 2.097 . S
Co649 N690 2.151 . S
Co649 N698 2.214 . S
Co650 O651 2.160 . S
Co650 O656 2.058 . S
Co650 O666 2.057 . S
Co650 O681 2.037 . S
Co650 N685 2.145 . S
Co650 N706 2.257 . S
O651 Co649 2.143 . S
O651 Co650 2.160 . S
C652 O653 1.278 . S
C652 O660 1.224 . S
O653 C652 1.278 . S
C654 O655 1.245 . S
C654 O666 1.232 . S
O655 C654 1.245 . S
O656 Co650 2.058 . S
O656 C682 1.269 . S
O657 Co649 2.074 . S
O657 C682 1.257 . S
H658 C683 0.930 . S
H659 C689 0.930 . S
O660 Co649 2.093 . S
O660 C652 1.224 . S
H661 C693 0.929 . S
H662 C695 0.930 . S
H663 C696 0.930 . S
H664 C694 0.929 . S
H665 C697 0.928 . S
O666 Co650 2.057 . S
O666 C654 1.232 . S
H667 C686 0.929 . S
H668 C687 0.929 . S
H669 C699 0.931 . S
H670 C691 0.929 . S
H671 C700 0.930 . S
H672 C692 0.931 . S
O673 Co649 2.097 . S
O673 C701 1.214 . S
H674 C702 0.929 . S
H675 C703 0.929 . S
H676 C704 0.930 . S
H677 C705 0.929 . S
H678 C707 0.930 . S
H679 C684 0.930 . S
H680 C688 0.930 . S
O681 Co650 2.037 . S
O681 C701 1.234 . S
C682 O656 1.269 . S
C682 O657 1.257 . S
C683 H658 0.930 . S
C683 C686 1.388 . S
C683 C688 1.418 . S
C684 H679 0.930 . S
C684 C687 1.404 . S
C684 C688 1.353 . S
N685 Co650 2.145 . S
N685 C686 1.397 . S
N685 C687 1.334 . S
C686 H667 0.929 . S
C686 C683 1.388 . S
C686 N685 1.397 . S
C687 H668 0.929 . S
C687 C684 1.404 . S
C687 N685 1.334 . S
C688 H680 0.930 . S
C688 C683 1.418 . S
C688 C684 1.353 . S
C689 H659 0.930 . S
C689 N690 1.330 . S
C689 C691 1.446 . S
N690 Co649 2.151 . S
N690 C689 1.330 . S
N690 C694 1.418 . S
C691 H670 0.929 . S
C691 C689 1.446 . S
C691 C692 1.332 . S
C692 H672 0.931 . S
C692 C691 1.332 . S
C692 C693 1.267 . S
C693 H661 0.929 . S
C693 C692 1.267 . S
C693 C694 1.251 . S
C694 H664 0.929 . S
C694 N690 1.418 . S
C694 C693 1.251 . S
C695 H662 0.930 . S
C695 C697 1.406 . S
C695 C700 1.261 . S
C696 H663 0.930 . S
C696 N698 1.325 . S
C696 C699 1.357 . S
C697 H665 0.928 . S
C697 C695 1.406 . S
C697 N698 1.261 . S
N698 Co649 2.214 . S
N698 C696 1.325 . S
N698 C697 1.261 . S
C699 H669 0.931 . S
C699 C696 1.357 . S
C699 C700 1.312 . S
C700 H671 0.930 . S
C700 C695 1.261 . S
C700 C699 1.312 . S
C701 O673 1.214 . S
C701 O681 1.234 . S
C702 H674 0.929 . S
C702 C705 1.391 . S
C702 C707 1.391 . S
C703 H675 0.929 . S
C703 C704 1.390 . S
C703 N706 1.391 . S
C704 H676 0.930 . S
C704 C703 1.390 . S
C704 C705 1.392 . S
C705 H677 0.929 . S
C705 C702 1.391 . S
C705 C704 1.392 . S
N706 Co650 2.257 . S
N706 C703 1.391 . S
N706 C707 1.388 . S
C707 H678 0.930 . S
C707 C702 1.391 . S
C707 N706 1.388 . S
Co708 O710 2.143 . S
Co708 O716 2.074 . S
Co708 O719 2.093 . S
Co708 O732 2.097 . S
Co708 N749 2.151 . S
Co708 N757 2.214 . S
Co709 O710 2.160 . S
Co709 O715 2.058 . S
Co709 O725 2.057 . S
Co709 O740 2.037 . S
Co709 N744 2.145 1_554 S
Co709 N765 2.257 . S
O710 Co708 2.143 . S
O710 Co709 2.160 . S
C711 O712 1.278 . S
C711 O719 1.224 . S
O712 C711 1.278 . S
C713 O714 1.245 . S
C713 O725 1.232 . S
O714 C713 1.245 . S
O715 Co709 2.058 . S
O715 C741 1.269 . S
O716 Co708 2.074 . S
O716 C741 1.257 . S
H717 C742 0.930 . S
H718 C748 0.930 . S
O719 Co708 2.093 . S
O719 C711 1.224 . S
H720 C752 0.929 . S
H721 C754 0.930 . S
H722 C755 0.930 . S
H723 C753 0.929 . S
H724 C756 0.928 . S
O725 Co709 2.057 . S
O725 C713 1.232 . S
H726 C745 0.929 . S
H727 C746 0.929 . S
H728 C758 0.931 . S
H729 C750 0.929 . S
H730 C759 0.930 . S
H731 C751 0.931 . S
O732 Co708 2.097 . S
O732 C760 1.214 . S
H733 C761 0.929 . S
H734 C762 0.936 . S
H735 C763 0.930 . S
H736 C764 0.929 . S
H737 C766 0.930 . S
H738 C743 0.930 . S
H739 C747 0.930 . S
O740 Co709 2.037 . S
O740 C760 1.234 . S
C741 O715 1.269 . S
C741 O716 1.257 . S
C742 H717 0.930 . S
C742 C745 1.388 . S
C742 C747 1.418 . S
C743 H738 0.930 . S
C743 C746 1.404 . S
C743 C747 1.353 . S
N744 Co709 2.145 1_556 S
N744 C745 1.397 . S
N744 C746 1.334 . S
C745 H726 0.929 . S
C745 C742 1.388 . S
C745 N744 1.397 . S
C746 H727 0.929 . S
C746 C743 1.404 . S
C746 N744 1.334 . S
C747 H739 0.930 . S
C747 C742 1.418 . S
C747 C743 1.353 . S
C748 H718 0.930 . S
C748 N749 1.330 . S
C748 C750 1.446 . S
N749 Co708 2.151 . S
N749 C748 1.330 . S
N749 C753 1.418 . S
C750 H729 0.929 . S
C750 C748 1.446 . S
C750 C751 1.332 . S
C751 H731 0.931 . S
C751 C750 1.332 . S
C751 C752 1.267 . S
C752 H720 0.929 . S
C752 C751 1.267 . S
C752 C753 1.251 . S
C753 H723 0.929 . S
C753 N749 1.418 . S
C753 C752 1.251 . S
C754 H721 0.930 . S
C754 C756 1.406 . S
C754 C759 1.261 . S
C755 H722 0.930 . S
C755 N757 1.325 . S
C755 C758 1.357 . S
C756 H724 0.928 . S
C756 C754 1.406 . S
C756 N757 1.261 . S
N757 Co708 2.214 . S
N757 C755 1.325 . S
N757 C756 1.261 . S
C758 H728 0.931 . S
C758 C755 1.357 . S
C758 C759 1.312 . S
C759 H730 0.930 . S
C759 C754 1.261 . S
C759 C758 1.312 . S
C760 O732 1.214 . S
C760 O740 1.234 . S
C761 H733 0.929 . S
C761 C764 1.391 . S
C761 C766 1.391 . S
C762 H734 0.936 . S
C762 C763 1.390 . S
C762 N765 1.391 . S
C763 H735 0.930 . S
C763 C762 1.390 . S
C763 C764 1.392 . S
C764 H736 0.929 . S
C764 C761 1.391 . S
C764 C763 1.392 . S
N765 Co709 2.257 . S
N765 C762 1.391 . S
N765 C766 1.388 . S
C766 H737 0.930 . S
C766 C761 1.391 . S
C766 N765 1.388 . S
Co767 O769 2.143 . S
Co767 O775 2.074 . S
Co767 O778 2.093 . S
Co767 O791 2.097 . S
Co767 N808 2.151 . S
Co767 N816 2.214 . S
Co768 O769 2.160 . S
Co768 O774 2.058 . S
Co768 O784 2.057 . S
Co768 O799 2.037 . S
Co768 N803 2.145 . S
Co768 N824 2.257 . S
O769 Co767 2.143 . S
O769 Co768 2.160 . S
C770 O771 1.278 . S
C770 O778 1.224 . S
O771 C770 1.278 . S
C772 O773 1.245 . S
C772 O784 1.232 . S
O773 C772 1.245 . S
O774 Co768 2.058 . S
O774 C800 1.269 . S
O775 Co767 2.074 . S
O775 C800 1.257 . S
H776 C801 0.930 . S
H777 C807 0.930 . S
O778 Co767 2.093 . S
O778 C770 1.224 . S
H779 C811 0.929 . S
H780 C813 0.930 . S
H781 C814 0.930 . S
H782 C812 0.929 . S
H783 C815 0.928 . S
O784 Co768 2.057 . S
O784 C772 1.232 . S
H785 C804 0.929 . S
H786 C805 0.929 . S
H787 C817 0.931 . S
H788 C809 0.929 . S
H789 C818 0.930 . S
H790 C810 0.931 . S
O791 Co767 2.097 . S
O791 C819 1.214 . S
H792 C820 0.929 . S
H793 C821 0.929 . S
H794 C822 0.930 . S
H795 C823 0.929 . S
H796 C825 0.930 . S
H797 C802 0.930 . S
H798 C806 0.930 . S
O799 Co768 2.037 . S
O799 C819 1.234 . S
C800 O774 1.269 . S
C800 O775 1.257 . S
C801 H776 0.930 . S
C801 C804 1.388 . S
C801 C806 1.418 . S
C802 H797 0.930 . S
C802 C805 1.404 . S
C802 C806 1.353 . S
N803 Co768 2.145 . S
N803 C804 1.397 . S
N803 C805 1.334 . S
C804 H785 0.929 . S
C804 C801 1.388 . S
C804 N803 1.397 . S
C805 H786 0.929 . S
C805 C802 1.404 . S
C805 N803 1.334 . S
C806 H798 0.930 . S
C806 C801 1.418 . S
C806 C802 1.353 . S
C807 H777 0.930 . S
C807 N808 1.330 . S
C807 C809 1.446 . S
N808 Co767 2.151 . S
N808 C807 1.330 . S
N808 C812 1.418 . S
C809 H788 0.929 . S
C809 C807 1.446 . S
C809 C810 1.332 . S
C810 H790 0.931 . S
C810 C809 1.332 . S
C810 C811 1.267 . S
C811 H779 0.929 . S
C811 C810 1.267 . S
C811 C812 1.251 . S
C812 H782 0.929 . S
C812 N808 1.418 . S
C812 C811 1.251 . S
C813 H780 0.930 . S
C813 C815 1.406 . S
C813 C818 1.261 . S
C814 H781 0.930 . S
C814 N816 1.325 . S
C814 C817 1.357 . S
C815 H783 0.928 . S
C815 C813 1.406 . S
C815 N816 1.261 . S
N816 Co767 2.214 . S
N816 C814 1.325 . S
N816 C815 1.261 . S
C817 H787 0.931 . S
C817 C814 1.357 . S
C817 C818 1.312 . S
C818 H789 0.930 . S
C818 C813 1.261 . S
C818 C817 1.312 . S
C819 O791 1.214 . S
C819 O799 1.234 . S
C820 H792 0.929 . S
C820 C823 1.391 . S
C820 C825 1.391 . S
C821 H793 0.929 . S
C821 C822 1.390 . S
C821 N824 1.391 . S
C822 H794 0.930 . S
C822 C821 1.390 . S
C822 C823 1.392 . S
C823 H795 0.929 . S
C823 C820 1.391 . S
C823 C822 1.392 . S
N824 Co768 2.257 . S
N824 C821 1.391 . S
N824 C825 1.388 . S
C825 H796 0.930 . S
C825 C820 1.391 . S
C825 N824 1.388 . S
Co826 O828 2.143 . S
Co826 O834 2.074 . S
Co826 O837 2.093 . S
Co826 O850 2.097 . S
Co826 N867 2.151 . S
Co826 N875 2.214 . S
Co827 O828 2.160 . S
Co827 O833 2.058 . S
Co827 O843 2.057 . S
Co827 O858 2.037 . S
Co827 N862 2.145 . S
Co827 N883 2.257 . S
O828 Co826 2.143 . S
O828 Co827 2.160 . S
C829 O830 1.278 . S
C829 O837 1.224 . S
O830 C829 1.278 . S
C831 O832 1.245 . S
C831 O843 1.232 . S
O832 C831 1.245 . S
O833 Co827 2.058 . S
O833 C859 1.269 . S
O834 Co826 2.074 . S
O834 C859 1.257 . S
H835 C860 0.930 . S
H836 C866 0.930 . S
O837 Co826 2.093 . S
O837 C829 1.224 . S
H838 C870 0.929 . S
H839 C872 0.930 . S
H840 C873 0.930 . S
H841 C871 0.929 . S
H842 C874 0.928 . S
O843 Co827 2.057 . S
O843 C831 1.232 . S
H844 C863 0.929 . S
H845 C864 0.929 . S
H846 C876 0.931 . S
H847 C868 0.929 . S
H848 C877 0.930 . S
H849 C869 0.931 . S
O850 Co826 2.097 . S
O850 C878 1.214 . S
H851 C879 0.929 . S
H852 C880 0.929 . S
H853 C881 0.930 . S
H854 C882 0.929 . S
H855 C884 0.930 . S
H856 C861 0.930 . S
H857 C865 0.930 . S
O858 Co827 2.037 . S
O858 C878 1.234 . S
C859 O833 1.269 . S
C859 O834 1.257 . S
C860 H835 0.930 . S
C860 C863 1.388 . S
C860 C865 1.418 . S
C861 H856 0.930 . S
C861 C864 1.404 . S
C861 C865 1.353 . S
N862 Co827 2.145 . S
N862 C863 1.397 . S
N862 C864 1.334 . S
C863 H844 0.929 . S
C863 C860 1.388 . S
C863 N862 1.397 . S
C864 H845 0.929 . S
C864 C861 1.404 . S
C864 N862 1.334 . S
C865 H857 0.930 . S
C865 C860 1.418 . S
C865 C861 1.353 . S
C866 H836 0.930 . S
C866 N867 1.330 . S
C866 C868 1.446 . S
N867 Co826 2.151 . S
N867 C866 1.330 . S
N867 C871 1.418 . S
C868 H847 0.929 . S
C868 C866 1.446 . S
C868 C869 1.332 . S
C869 H849 0.931 . S
C869 C868 1.332 . S
C869 C870 1.267 . S
C870 H838 0.929 . S
C870 C869 1.267 . S
C870 C871 1.251 . S
C871 H841 0.929 . S
C871 N867 1.418 . S
C871 C870 1.251 . S
C872 H839 0.930 . S
C872 C874 1.406 . S
C872 C877 1.261 . S
C873 H840 0.930 . S
C873 N875 1.325 . S
C873 C876 1.357 . S
C874 H842 0.928 . S
C874 C872 1.406 . S
C874 N875 1.261 . S
N875 Co826 2.214 . S
N875 C873 1.325 . S
N875 C874 1.261 . S
C876 H846 0.931 . S
C876 C873 1.357 . S
C876 C877 1.312 . S
C877 H848 0.930 . S
C877 C872 1.261 . S
C877 C876 1.312 . S
C878 O850 1.214 . S
C878 O858 1.234 . S
C879 H851 0.929 . S
C879 C882 1.391 . S
C879 C884 1.391 . S
C880 H852 0.929 . S
C880 C881 1.390 . S
C880 N883 1.391 . S
C881 H853 0.930 . S
C881 C880 1.390 . S
C881 C882 1.392 . S
C882 H854 0.929 . S
C882 C879 1.391 . S
C882 C881 1.392 . S
N883 Co827 2.257 . S
N883 C880 1.391 . S
N883 C884 1.388 . S
C884 H855 0.930 . S
C884 C879 1.391 . S
C884 N883 1.388 . S
Co885 O887 2.143 . S
Co885 O893 2.074 . S
Co885 O896 2.093 . S
Co885 O909 2.097 . S
Co885 N926 2.151 . S
Co885 N934 2.214 . S
Co886 O887 2.160 . S
Co886 O892 2.058 . S
Co886 O902 2.057 . S
Co886 O917 2.037 . S
Co886 N921 2.145 . S
Co886 N942 2.257 . S
O887 Co885 2.143 . S
O887 Co886 2.160 . S
C888 O889 1.278 . S
C888 O896 1.224 . S
O889 C888 1.278 . S
C890 O891 1.245 . S
C890 O902 1.232 . S
O891 C890 1.245 . S
O892 Co886 2.058 . S
O892 C918 1.269 . S
O893 Co885 2.074 . S
O893 C918 1.257 . S
H894 C919 0.930 . S
H895 C925 0.930 . S
O896 Co885 2.093 . S
O896 C888 1.224 . S
H897 C929 0.929 . S
H898 C931 0.930 . S
H899 C932 0.930 . S
H900 C930 0.929 . S
H901 C933 0.928 . S
O902 Co886 2.057 . S
O902 C890 1.232 . S
H903 C922 0.929 . S
H904 C923 0.929 . S
H905 C935 0.931 . S
H906 C927 0.929 . S
H907 C936 0.930 . S
H908 C928 0.931 . S
O909 Co885 2.097 . S
O909 C937 1.214 . S
H910 C938 0.929 . S
H911 C939 0.929 . S
H912 C940 0.930 . S
H913 C941 0.929 . S
H914 C943 0.930 . S
H915 C920 0.930 . S
H916 C924 0.930 . S
O917 Co886 2.037 . S
O917 C937 1.234 . S
C918 O892 1.269 . S
C918 O893 1.257 . S
C919 H894 0.930 . S
C919 C922 1.388 . S
C919 C924 1.418 . S
C920 H915 0.930 . S
C920 C923 1.404 . S
C920 C924 1.353 . S
N921 Co886 2.145 . S
N921 C922 1.397 . S
N921 C923 1.334 . S
C922 H903 0.929 . S
C922 C919 1.388 . S
C922 N921 1.397 . S
C923 H904 0.929 . S
C923 C920 1.404 . S
C923 N921 1.334 . S
C924 H916 0.930 . S
C924 C919 1.418 . S
C924 C920 1.353 . S
C925 H895 0.930 . S
C925 N926 1.330 . S
C925 C927 1.446 . S
N926 Co885 2.151 . S
N926 C925 1.330 . S
N926 C930 1.418 . S
C927 H906 0.929 . S
C927 C925 1.446 . S
C927 C928 1.332 . S
C928 H908 0.931 . S
C928 C927 1.332 . S
C928 C929 1.267 . S
C929 H897 0.929 . S
C929 C928 1.267 . S
C929 C930 1.251 . S
C930 H900 0.929 . S
C930 N926 1.418 . S
C930 C929 1.251 . S
C931 H898 0.930 . S
C931 C933 1.406 . S
C931 C936 1.261 . S
C932 H899 0.930 . S
C932 N934 1.325 . S
C932 C935 1.357 . S
C933 H901 0.928 . S
C933 C931 1.406 . S
C933 N934 1.261 . S
N934 Co885 2.214 . S
N934 C932 1.325 . S
N934 C933 1.261 . S
C935 H905 0.931 . S
C935 C932 1.357 . S
C935 C936 1.312 . S
C936 H907 0.930 . S
C936 C931 1.261 . S
C936 C935 1.312 . S
C937 O909 1.214 . S
C937 O917 1.234 . S
C938 H910 0.929 . S
C938 C941 1.391 . S
C938 C943 1.391 . S
C939 H911 0.929 . S
C939 C940 1.390 . S
C939 N942 1.391 . S
C940 H912 0.930 . S
C940 C939 1.390 . S
C940 C941 1.392 . S
C941 H913 0.929 . S
C941 C938 1.391 . S
C941 C940 1.392 . S
N942 Co886 2.257 . S
N942 C939 1.391 . S
N942 C943 1.388 . S
C943 H914 0.930 . S
C943 C938 1.391 . S
C943 N942 1.388 . S
Co944 O946 2.143 . S
Co944 O952 2.074 . S
Co944 O955 2.093 . S
Co944 O968 2.097 . S
Co944 N985 2.151 . S
Co944 N993 2.214 . S
Co945 O946 2.160 . S
Co945 O951 2.058 . S
Co945 O961 2.057 . S
Co945 O976 2.037 . S
Co945 N980 2.145 . S
Co945 N1001 2.257 . S
O946 Co944 2.143 . S
O946 Co945 2.160 . S
C947 O948 1.278 . S
C947 O955 1.224 . S
O948 C947 1.278 . S
C949 O950 1.245 . S
C949 O961 1.232 . S
O950 C949 1.245 . S
O951 Co945 2.058 . S
O951 C977 1.269 . S
O952 Co944 2.074 . S
O952 C977 1.257 . S
H953 C978 0.930 . S
H954 C984 0.930 . S
O955 Co944 2.093 . S
O955 C947 1.224 . S
H956 C988 0.929 . S
H957 C990 0.930 . S
H958 C991 0.930 . S
H959 C989 0.929 . S
H960 C992 0.928 . S
O961 Co945 2.057 . S
O961 C949 1.232 . S
H962 C981 0.929 . S
H963 C982 0.929 . S
H964 C994 0.931 . S
H965 C986 0.929 . S
H966 C995 0.930 . S
H967 C987 0.931 . S
O968 Co944 2.097 . S
O968 C996 1.214 . S
H969 C997 0.929 . S
H970 C998 0.929 . S
H971 C999 0.930 . S
H972 C1000 0.929 . S
H973 C1002 0.930 . S
H974 C979 0.930 . S
H975 C983 0.930 . S
O976 Co945 2.037 . S
O976 C996 1.234 . S
C977 O951 1.269 . S
C977 O952 1.257 . S
C978 H953 0.930 . S
C978 C981 1.388 . S
C978 C983 1.418 . S
C979 H974 0.930 . S
C979 C982 1.404 . S
C979 C983 1.353 . S
N980 Co945 2.145 . S
N980 C981 1.397 . S
N980 C982 1.334 . S
C981 H962 0.929 . S
C981 C978 1.388 . S
C981 N980 1.397 . S
C982 H963 0.929 . S
C982 C979 1.404 . S
C982 N980 1.334 . S
C983 H975 0.930 . S
C983 C978 1.418 . S
C983 C979 1.353 . S
C984 H954 0.930 . S
C984 N985 1.330 . S
C984 C986 1.446 . S
N985 Co944 2.151 . S
N985 C984 1.330 . S
N985 C989 1.418 . S
C986 H965 0.929 . S
C986 C984 1.446 . S
C986 C987 1.332 . S
C987 H967 0.931 . S
C987 C986 1.332 . S
C987 C988 1.267 . S
C988 H956 0.929 . S
C988 C987 1.267 . S
C988 C989 1.251 . S
C989 H959 0.929 . S
C989 N985 1.418 . S
C989 C988 1.251 . S
C990 H957 0.930 . S
C990 C992 1.406 . S
C990 C995 1.261 . S
C991 H958 0.930 . S
C991 N993 1.325 . S
C991 C994 1.357 . S
C992 H960 0.928 . S
C992 C990 1.406 . S
C992 N993 1.261 . S
N993 Co944 2.214 . S
N993 C991 1.325 . S
N993 C992 1.261 . S
C994 H964 0.931 . S
C994 C991 1.357 . S
C994 C995 1.312 . S
C995 H966 0.930 . S
C995 C990 1.261 . S
C995 C994 1.312 . S
C996 O968 1.214 . S
C996 O976 1.234 . S
C997 H969 0.929 . S
C997 C1000 1.391 . S
C997 C1002 1.391 . S
C998 H970 0.929 . S
C998 C999 1.390 . S
C998 N1001 1.391 . S
C999 H971 0.930 . S
C999 C998 1.390 . S
C999 C1000 1.392 . S
C1000 H972 0.929 . S
C1000 C997 1.391 . S
C1000 C999 1.392 . S
N1001 Co945 2.257 . S
N1001 C998 1.391 . S
N1001 C1002 1.388 . S
C1002 H973 0.930 . S
C1002 C997 1.391 . S
C1002 N1001 1.388 . S
Co1003 O1005 2.143 . S
Co1003 O1011 2.074 . S
Co1003 O1014 2.093 . S
Co1003 O1027 2.097 . S
Co1003 N1044 2.151 . S
Co1003 N1052 2.214 . S
Co1004 O1005 2.160 . S
Co1004 O1010 2.058 . S
Co1004 O1020 2.057 . S
Co1004 O1035 2.037 . S
Co1004 N1039 2.145 . S
Co1004 N1060 2.257 . S
O1005 Co1003 2.143 . S
O1005 Co1004 2.160 . S
C1006 O1007 1.278 . S
C1006 O1014 1.224 . S
O1007 C1006 1.278 . S
C1008 O1009 1.245 . S
C1008 O1020 1.232 . S
O1009 C1008 1.245 . S
O1010 Co1004 2.058 . S
O1010 C1036 1.269 . S
O1011 Co1003 2.074 . S
O1011 C1036 1.257 . S
H1012 C1037 0.930 . S
H1013 C1043 0.930 . S
O1014 Co1003 2.093 . S
O1014 C1006 1.224 . S
H1015 C1047 0.929 . S
H1016 C1049 0.930 . S
H1017 C1050 0.930 . S
H1018 C1048 0.929 . S
H1019 C1051 0.928 . S
O1020 Co1004 2.057 . S
O1020 C1008 1.232 . S
H1021 C1040 0.929 . S
H1022 C1041 0.929 . S
H1023 C1053 0.931 . S
H1024 C1045 0.929 . S
H1025 C1054 0.930 . S
H1026 C1046 0.931 . S
O1027 Co1003 2.097 . S
O1027 C1055 1.214 . S
H1028 C1056 0.929 . S
H1029 C1057 0.929 . S
H1030 C1058 0.930 . S
H1031 C1059 0.929 . S
H1032 C1061 0.930 . S
H1033 C1038 0.930 . S
H1034 C1042 0.930 . S
O1035 Co1004 2.037 . S
O1035 C1055 1.234 . S
C1036 O1010 1.269 . S
C1036 O1011 1.257 . S
C1037 H1012 0.930 . S
C1037 C1040 1.388 . S
C1037 C1042 1.418 . S
C1038 H1033 0.930 . S
C1038 C1041 1.404 . S
C1038 C1042 1.353 . S
N1039 Co1004 2.145 . S
N1039 C1040 1.397 . S
N1039 C1041 1.334 . S
C1040 H1021 0.929 . S
C1040 C1037 1.388 . S
C1040 N1039 1.397 . S
C1041 H1022 0.929 . S
C1041 C1038 1.404 . S
C1041 N1039 1.334 . S
C1042 H1034 0.930 . S
C1042 C1037 1.418 . S
C1042 C1038 1.353 . S
C1043 H1013 0.930 . S
C1043 N1044 1.330 . S
C1043 C1045 1.446 . S
N1044 Co1003 2.151 . S
N1044 C1043 1.330 . S
N1044 C1048 1.418 . S
C1045 H1024 0.929 . S
C1045 C1043 1.446 . S
C1045 C1046 1.332 . S
C1046 H1026 0.931 . S
C1046 C1045 1.332 . S
C1046 C1047 1.267 . S
C1047 H1015 0.929 . S
C1047 C1046 1.267 . S
C1047 C1048 1.251 . S
C1048 H1018 0.929 . S
C1048 N1044 1.418 . S
C1048 C1047 1.251 . S
C1049 H1016 0.930 . S
C1049 C1051 1.406 . S
C1049 C1054 1.261 . S
C1050 H1017 0.930 . S
C1050 N1052 1.325 . S
C1050 C1053 1.357 . S
C1051 H1019 0.928 . S
C1051 C1049 1.406 . S
C1051 N1052 1.261 . S
N1052 Co1003 2.214 . S
N1052 C1050 1.325 . S
N1052 C1051 1.261 . S
C1053 H1023 0.931 . S
C1053 C1050 1.357 . S
C1053 C1054 1.312 . S
C1054 H1025 0.930 . S
C1054 C1049 1.261 . S
C1054 C1053 1.312 . S
C1055 O1027 1.214 . S
C1055 O1035 1.234 . S
C1056 H1028 0.929 . S
C1056 C1059 1.391 . S
C1056 C1061 1.391 . S
C1057 H1029 0.929 . S
C1057 C1058 1.390 . S
C1057 N1060 1.391 . S
C1058 H1030 0.930 . S
C1058 C1057 1.390 . S
C1058 C1059 1.392 . S
C1059 H1031 0.929 . S
C1059 C1056 1.391 . S
C1059 C1058 1.392 . S
N1060 Co1004 2.257 . S
N1060 C1057 1.391 . S
N1060 C1061 1.388 . S
C1061 H1032 0.930 . S
C1061 C1056 1.391 . S
C1061 N1060 1.388 . S
Co1062 O1064 2.143 . S
Co1062 O1070 2.074 . S
Co1062 O1073 2.093 . S
Co1062 O1086 2.097 . S
Co1062 N1103 2.151 . S
Co1062 N1111 2.214 . S
Co1063 O1064 2.160 . S
Co1063 O1069 2.058 . S
Co1063 O1079 2.057 . S
Co1063 O1094 2.037 . S
Co1063 N1098 2.145 1_554 S
Co1063 N1119 2.257 . S
O1064 Co1062 2.143 . S
O1064 Co1063 2.160 . S
C1065 O1066 1.278 . S
C1065 O1073 1.224 . S
O1066 C1065 1.278 . S
C1067 O1068 1.245 . S
C1067 O1079 1.232 . S
O1068 C1067 1.245 . S
O1069 Co1063 2.058 . S
O1069 C1095 1.269 . S
O1070 Co1062 2.074 . S
O1070 C1095 1.257 . S
H1071 C1096 0.930 . S
H1072 C1102 0.930 . S
O1073 Co1062 2.093 . S
O1073 C1065 1.224 . S
H1074 C1106 0.929 . S
H1075 C1108 0.930 . S
H1076 C1109 0.930 . S
H1077 C1107 0.929 . S
H1078 C1110 0.928 . S
O1079 Co1063 2.057 . S
O1079 C1067 1.232 . S
H1080 C1099 0.929 . S
H1081 C1100 0.929 . S
H1082 C1112 0.931 . S
H1083 C1104 0.929 . S
H1084 C1113 0.930 . S
H1085 C1105 0.931 . S
O1086 Co1062 2.097 . S
O1086 C1114 1.214 . S
H1087 C1115 0.929 . S
H1088 C1116 0.930 . S
H1089 C1117 0.930 . S
H1090 C1118 0.929 . S
H1091 C1120 0.930 . S
H1092 C1097 0.930 . S
H1093 C1101 0.930 . S
O1094 Co1063 2.037 . S
O1094 C1114 1.234 . S
C1095 O1069 1.269 . S
C1095 O1070 1.257 . S
C1096 H1071 0.930 . S
C1096 C1099 1.388 . S
C1096 C1101 1.418 . S
C1097 H1092 0.930 . S
C1097 C1100 1.404 . S
C1097 C1101 1.353 . S
N1098 Co1063 2.145 1_556 S
N1098 C1099 1.397 . S
N1098 C1100 1.334 . S
C1099 H1080 0.929 . S
C1099 C1096 1.388 . S
C1099 N1098 1.397 . S
C1100 H1081 0.929 . S
C1100 C1097 1.404 . S
C1100 N1098 1.334 . S
C1101 H1093 0.930 . S
C1101 C1096 1.418 . S
C1101 C1097 1.353 . S
C1102 H1072 0.930 . S
C1102 N1103 1.330 . S
C1102 C1104 1.446 . S
N1103 Co1062 2.151 . S
N1103 C1102 1.330 . S
N1103 C1107 1.418 . S
C1104 H1083 0.929 . S
C1104 C1102 1.446 . S
C1104 C1105 1.332 . S
C1105 H1085 0.931 . S
C1105 C1104 1.332 . S
C1105 C1106 1.267 . S
C1106 H1074 0.929 . S
C1106 C1105 1.267 . S
C1106 C1107 1.251 . S
C1107 H1077 0.929 . S
C1107 N1103 1.418 . S
C1107 C1106 1.251 . S
C1108 H1075 0.930 . S
C1108 C1110 1.406 . S
C1108 C1113 1.261 . S
C1109 H1076 0.930 . S
C1109 N1111 1.325 . S
C1109 C1112 1.357 . S
C1110 H1078 0.928 . S
C1110 C1108 1.406 . S
C1110 N1111 1.261 . S
N1111 Co1062 2.214 . S
N1111 C1109 1.325 . S
N1111 C1110 1.261 . S
C1112 H1082 0.931 . S
C1112 C1109 1.357 . S
C1112 C1113 1.312 . S
C1113 H1084 0.930 . S
C1113 C1108 1.261 . S
C1113 C1112 1.312 . S
C1114 O1086 1.214 . S
C1114 O1094 1.234 . S
C1115 H1087 0.929 . S
C1115 C1118 1.391 . S
C1115 C1120 1.391 . S
C1116 H1088 0.930 . S
C1116 C1117 1.390 . S
C1116 N1119 1.391 . S
C1117 H1089 0.930 . S
C1117 C1116 1.390 . S
C1117 C1118 1.392 . S
C1118 H1090 0.929 . S
C1118 C1115 1.391 . S
C1118 C1117 1.392 . S
N1119 Co1063 2.257 . S
N1119 C1116 1.391 . S
N1119 C1120 1.388 . S
C1120 H1091 0.930 . S
C1120 C1115 1.391 . S
C1120 N1119 1.388 . S
Co1121 O1123 2.143 . S
Co1121 O1129 2.074 . S
Co1121 O1132 2.093 . S
Co1121 O1145 2.097 . S
Co1121 N1162 2.151 . S
Co1121 N1170 2.214 . S
Co1122 O1123 2.160 . S
Co1122 O1128 2.058 . S
Co1122 O1138 2.057 . S
Co1122 O1153 2.037 . S
Co1122 N1157 2.145 . S
Co1122 N1178 2.257 . S
O1123 Co1121 2.143 . S
O1123 Co1122 2.160 . S
C1124 O1125 1.278 . S
C1124 O1132 1.224 . S
O1125 C1124 1.278 . S
C1126 O1127 1.245 . S
C1126 O1138 1.232 . S
O1127 C1126 1.245 . S
O1128 Co1122 2.058 . S
O1128 C1154 1.269 . S
O1129 Co1121 2.074 . S
O1129 C1154 1.257 . S
H1130 C1155 0.930 . S
H1131 C1161 0.930 . S
O1132 Co1121 2.093 . S
O1132 C1124 1.224 . S
H1133 C1165 0.929 . S
H1134 C1167 0.930 . S
H1135 C1168 0.930 . S
H1136 C1166 0.929 . S
H1137 C1169 0.928 . S
O1138 Co1122 2.057 . S
O1138 C1126 1.232 . S
H1139 C1158 0.929 . S
H1140 C1159 0.929 . S
H1141 C1171 0.931 . S
H1142 C1163 0.929 . S
H1143 C1172 0.930 . S
H1144 C1164 0.931 . S
O1145 Co1121 2.097 . S
O1145 C1173 1.214 . S
H1146 C1174 0.929 . S
H1147 C1175 0.929 . S
H1148 C1176 0.930 . S
H1149 C1177 0.929 . S
H1150 C1179 0.930 . S
H1151 C1156 0.930 . S
H1152 C1160 0.930 . S
O1153 Co1122 2.037 . S
O1153 C1173 1.234 . S
C1154 O1128 1.269 . S
C1154 O1129 1.257 . S
C1155 H1130 0.930 . S
C1155 C1158 1.388 . S
C1155 C1160 1.418 . S
C1156 H1151 0.930 . S
C1156 C1159 1.404 . S
C1156 C1160 1.353 . S
N1157 Co1122 2.145 . S
N1157 C1158 1.397 . S
N1157 C1159 1.334 . S
C1158 H1139 0.929 . S
C1158 C1155 1.388 . S
C1158 N1157 1.397 . S
C1159 H1140 0.929 . S
C1159 C1156 1.404 . S
C1159 N1157 1.334 . S
C1160 H1152 0.930 . S
C1160 C1155 1.418 . S
C1160 C1156 1.353 . S
C1161 H1131 0.930 . S
C1161 N1162 1.330 . S
C1161 C1163 1.446 . S
N1162 Co1121 2.151 . S
N1162 C1161 1.330 . S
N1162 C1166 1.418 . S
C1163 H1142 0.929 . S
C1163 C1161 1.446 . S
C1163 C1164 1.332 . S
C1164 H1144 0.931 . S
C1164 C1163 1.332 . S
C1164 C1165 1.267 . S
C1165 H1133 0.929 . S
C1165 C1164 1.267 . S
C1165 C1166 1.251 . S
C1166 H1136 0.929 . S
C1166 N1162 1.418 . S
C1166 C1165 1.251 . S
C1167 H1134 0.930 . S
C1167 C1169 1.406 . S
C1167 C1172 1.261 . S
C1168 H1135 0.930 . S
C1168 N1170 1.325 . S
C1168 C1171 1.357 . S
C1169 H1137 0.928 . S
C1169 C1167 1.406 . S
C1169 N1170 1.261 . S
N1170 Co1121 2.214 . S
N1170 C1168 1.325 . S
N1170 C1169 1.261 . S
C1171 H1141 0.931 . S
C1171 C1168 1.357 . S
C1171 C1172 1.312 . S
C1172 H1143 0.930 . S
C1172 C1167 1.261 . S
C1172 C1171 1.312 . S
C1173 O1145 1.214 . S
C1173 O1153 1.234 . S
C1174 H1146 0.929 . S
C1174 C1177 1.391 . S
C1174 C1179 1.391 . S
C1175 H1147 0.929 . S
C1175 C1176 1.390 . S
C1175 N1178 1.391 . S
C1176 H1148 0.930 . S
C1176 C1175 1.390 . S
C1176 C1177 1.392 . S
C1177 H1149 0.929 . S
C1177 C1174 1.391 . S
C1177 C1176 1.392 . S
N1178 Co1122 2.257 . S
N1178 C1175 1.391 . S
N1178 C1179 1.388 . S
C1179 H1150 0.930 . S
C1179 C1174 1.391 . S
C1179 N1178 1.388 . S
Co1180 O1182 2.143 . S
Co1180 O1188 2.074 . S
Co1180 O1191 2.093 . S
Co1180 O1204 2.097 . S
Co1180 N1221 2.151 . S
Co1180 N1229 2.214 . S
Co1181 O1182 2.160 . S
Co1181 O1187 2.058 . S
Co1181 O1197 2.057 . S
Co1181 O1212 2.037 . S
Co1181 N1216 2.145 . S
Co1181 N1237 2.257 . S
O1182 Co1180 2.143 . S
O1182 Co1181 2.160 . S
C1183 O1184 1.278 . S
C1183 O1191 1.224 . S
O1184 C1183 1.278 . S
C1185 O1186 1.245 . S
C1185 O1197 1.232 . S
O1186 C1185 1.245 . S
O1187 Co1181 2.058 . S
O1187 C1213 1.269 . S
O1188 Co1180 2.074 . S
O1188 C1213 1.257 . S
H1189 C1214 0.930 . S
H1190 C1220 0.930 . S
O1191 Co1180 2.093 . S
O1191 C1183 1.224 . S
H1192 C1224 0.929 . S
H1193 C1226 0.930 . S
H1194 C1227 0.930 . S
H1195 C1225 0.929 . S
H1196 C1228 0.928 . S
O1197 Co1181 2.057 . S
O1197 C1185 1.232 . S
H1198 C1217 0.929 . S
H1199 C1218 0.929 . S
H1200 C1230 0.931 . S
H1201 C1222 0.929 . S
H1202 C1231 0.930 . S
H1203 C1223 0.931 . S
O1204 Co1180 2.097 . S
O1204 C1232 1.214 . S
H1205 C1233 0.929 . S
H1206 C1234 0.929 . S
H1207 C1235 0.930 . S
H1208 C1236 0.929 . S
H1209 C1238 0.930 . S
H1210 C1215 0.930 . S
H1211 C1219 0.930 . S
O1212 Co1181 2.037 . S
O1212 C1232 1.234 . S
C1213 O1187 1.269 . S
C1213 O1188 1.257 . S
C1214 H1189 0.930 . S
C1214 C1217 1.388 . S
C1214 C1219 1.418 . S
C1215 H1210 0.930 . S
C1215 C1218 1.404 . S
C1215 C1219 1.353 . S
N1216 Co1181 2.145 . S
N1216 C1217 1.397 . S
N1216 C1218 1.334 . S
C1217 H1198 0.929 . S
C1217 C1214 1.388 . S
C1217 N1216 1.397 . S
C1218 H1199 0.929 . S
C1218 C1215 1.404 . S
C1218 N1216 1.334 . S
C1219 H1211 0.930 . S
C1219 C1214 1.418 . S
C1219 C1215 1.353 . S
C1220 H1190 0.930 . S
C1220 N1221 1.330 . S
C1220 C1222 1.446 . S
N1221 Co1180 2.151 . S
N1221 C1220 1.330 . S
N1221 C1225 1.418 . S
C1222 H1201 0.929 . S
C1222 C1220 1.446 . S
C1222 C1223 1.332 . S
C1223 H1203 0.931 . S
C1223 C1222 1.332 . S
C1223 C1224 1.267 . S
C1224 H1192 0.929 . S
C1224 C1223 1.267 . S
C1224 C1225 1.251 . S
C1225 H1195 0.929 . S
C1225 N1221 1.418 . S
C1225 C1224 1.251 . S
C1226 H1193 0.930 . S
C1226 C1228 1.406 . S
C1226 C1231 1.261 . S
C1227 H1194 0.930 . S
C1227 N1229 1.325 . S
C1227 C1230 1.357 . S
C1228 H1196 0.928 . S
C1228 C1226 1.406 . S
C1228 N1229 1.261 . S
N1229 Co1180 2.214 . S
N1229 C1227 1.325 . S
N1229 C1228 1.261 . S
C1230 H1200 0.931 . S
C1230 C1227 1.357 . S
C1230 C1231 1.312 . S
C1231 H1202 0.930 . S
C1231 C1226 1.261 . S
C1231 C1230 1.312 . S
C1232 O1204 1.214 . S
C1232 O1212 1.234 . S
C1233 H1205 0.929 . S
C1233 C1236 1.391 . S
C1233 C1238 1.391 . S
C1234 H1206 0.929 . S
C1234 C1235 1.390 . S
C1234 N1237 1.391 . S
C1235 H1207 0.930 . S
C1235 C1234 1.390 . S
C1235 C1236 1.392 . S
C1236 H1208 0.929 . S
C1236 C1233 1.391 . S
C1236 C1235 1.392 . S
N1237 Co1181 2.257 . S
N1237 C1234 1.391 . S
N1237 C1238 1.388 . S
C1238 H1209 0.930 . S
C1238 C1233 1.391 . S
C1238 N1237 1.388 . S
Co1239 O1241 2.143 . S
Co1239 O1247 2.074 . S
Co1239 O1250 2.093 . S
Co1239 O1263 2.097 . S
Co1239 N1280 2.151 . S
Co1239 N1288 2.214 . S
Co1240 O1241 2.160 . S
Co1240 O1246 2.058 . S
Co1240 O1256 2.057 . S
Co1240 O1271 2.037 . S
Co1240 N1275 2.145 . S
Co1240 N1296 2.257 . S
O1241 Co1239 2.143 . S
O1241 Co1240 2.160 . S
C1242 O1243 1.278 . S
C1242 O1250 1.224 . S
O1243 C1242 1.278 . S
C1244 O1245 1.245 . S
C1244 O1256 1.232 . S
O1245 C1244 1.245 . S
O1246 Co1240 2.058 . S
O1246 C1272 1.269 . S
O1247 Co1239 2.074 . S
O1247 C1272 1.257 . S
H1248 C1273 0.930 . S
H1249 C1279 0.930 . S
O1250 Co1239 2.093 . S
O1250 C1242 1.224 . S
H1251 C1283 0.929 . S
H1252 C1285 0.930 . S
H1253 C1286 0.930 . S
H1254 C1284 0.929 . S
H1255 C1287 0.928 . S
O1256 Co1240 2.057 . S
O1256 C1244 1.232 . S
H1257 C1276 0.929 . S
H1258 C1277 0.929 . S
H1259 C1289 0.931 . S
H1260 C1281 0.929 . S
H1261 C1290 0.930 . S
H1262 C1282 0.931 . S
O1263 Co1239 2.097 . S
O1263 C1291 1.214 . S
H1264 C1292 0.929 . S
H1265 C1293 0.929 . S
H1266 C1294 0.930 . S
H1267 C1295 0.929 . S
H1268 C1297 0.930 . S
H1269 C1274 0.930 . S
H1270 C1278 0.930 . S
O1271 Co1240 2.037 . S
O1271 C1291 1.234 . S
C1272 O1246 1.269 . S
C1272 O1247 1.257 . S
C1273 H1248 0.930 . S
C1273 C1276 1.388 . S
C1273 C1278 1.418 . S
C1274 H1269 0.930 . S
C1274 C1277 1.404 . S
C1274 C1278 1.353 . S
N1275 Co1240 2.145 . S
N1275 C1276 1.397 . S
N1275 C1277 1.334 . S
C1276 H1257 0.929 . S
C1276 C1273 1.388 . S
C1276 N1275 1.397 . S
C1277 H1258 0.929 . S
C1277 C1274 1.404 . S
C1277 N1275 1.334 . S
C1278 H1270 0.930 . S
C1278 C1273 1.418 . S
C1278 C1274 1.353 . S
C1279 H1249 0.930 . S
C1279 N1280 1.330 . S
C1279 C1281 1.446 . S
N1280 Co1239 2.151 . S
N1280 C1279 1.330 . S
N1280 C1284 1.418 . S
C1281 H1260 0.929 . S
C1281 C1279 1.446 . S
C1281 C1282 1.332 . S
C1282 H1262 0.931 . S
C1282 C1281 1.332 . S
C1282 C1283 1.267 . S
C1283 H1251 0.929 . S
C1283 C1282 1.267 . S
C1283 C1284 1.251 . S
C1284 H1254 0.929 . S
C1284 N1280 1.418 . S
C1284 C1283 1.251 . S
C1285 H1252 0.930 . S
C1285 C1287 1.406 . S
C1285 C1290 1.261 . S
C1286 H1253 0.930 . S
C1286 N1288 1.325 . S
C1286 C1289 1.357 . S
C1287 H1255 0.928 . S
C1287 C1285 1.406 . S
C1287 N1288 1.261 . S
N1288 Co1239 2.214 . S
N1288 C1286 1.325 . S
N1288 C1287 1.261 . S
C1289 H1259 0.931 . S
C1289 C1286 1.357 . S
C1289 C1290 1.312 . S
C1290 H1261 0.930 . S
C1290 C1285 1.261 . S
C1290 C1289 1.312 . S
C1291 O1263 1.214 . S
C1291 O1271 1.234 . S
C1292 H1264 0.929 . S
C1292 C1295 1.391 . S
C1292 C1297 1.391 . S
C1293 H1265 0.929 . S
C1293 C1294 1.390 . S
C1293 N1296 1.391 . S
C1294 H1266 0.930 . S
C1294 C1293 1.390 . S
C1294 C1295 1.392 . S
C1295 H1267 0.929 . S
C1295 C1292 1.391 . S
C1295 C1294 1.392 . S
N1296 Co1240 2.257 . S
N1296 C1293 1.391 . S
N1296 C1297 1.388 . S
C1297 H1268 0.930 . S
C1297 C1292 1.391 . S
C1297 N1296 1.388 . S
Co1298 O1300 2.143 . S
Co1298 O1306 2.074 . S
Co1298 O1309 2.093 . S
Co1298 O1322 2.097 . S
Co1298 N1339 2.151 . S
Co1298 N1347 2.214 . S
Co1299 O1300 2.160 . S
Co1299 O1305 2.058 . S
Co1299 O1315 2.057 . S
Co1299 O1330 2.037 . S
Co1299 N1334 2.145 1_556 S
Co1299 N1355 2.257 . S
O1300 Co1298 2.143 . S
O1300 Co1299 2.160 . S
C1301 O1302 1.278 . S
C1301 O1309 1.224 . S
O1302 C1301 1.278 . S
C1303 O1304 1.245 . S
C1303 O1315 1.232 . S
O1304 C1303 1.245 . S
O1305 Co1299 2.058 . S
O1305 C1331 1.269 . S
O1306 Co1298 2.074 . S
O1306 C1331 1.257 . S
H1307 C1332 0.930 . S
H1308 C1338 0.930 . S
O1309 Co1298 2.093 . S
O1309 C1301 1.224 . S
H1310 C1342 0.929 . S
H1311 C1344 0.930 . S
H1312 C1345 0.930 . S
H1313 C1343 0.929 . S
H1314 C1346 0.928 . S
O1315 Co1299 2.057 . S
O1315 C1303 1.232 . S
H1316 C1335 0.929 . S
H1317 C1336 0.929 . S
H1318 C1348 0.931 . S
H1319 C1340 0.929 . S
H1320 C1349 0.930 . S
H1321 C1341 0.931 . S
O1322 Co1298 2.097 . S
O1322 C1350 1.214 . S
H1323 C1351 0.929 . S
H1324 C1352 0.930 . S
H1325 C1353 0.930 . S
H1326 C1354 0.929 . S
H1327 C1356 0.930 . S
H1328 C1333 0.930 . S
H1329 C1337 0.930 . S
O1330 Co1299 2.037 . S
O1330 C1350 1.234 . S
C1331 O1305 1.269 . S
C1331 O1306 1.257 . S
C1332 H1307 0.930 . S
C1332 C1335 1.388 . S
C1332 C1337 1.418 . S
C1333 H1328 0.930 . S
C1333 C1336 1.404 . S
C1333 C1337 1.353 . S
N1334 Co1299 2.145 1_554 S
N1334 C1335 1.397 . S
N1334 C1336 1.334 . S
C1335 H1316 0.929 . S
C1335 C1332 1.388 . S
C1335 N1334 1.397 . S
C1336 H1317 0.929 . S
C1336 C1333 1.404 . S
C1336 N1334 1.334 . S
C1337 H1329 0.930 . S
C1337 C1332 1.418 . S
C1337 C1333 1.353 . S
C1338 H1308 0.930 . S
C1338 N1339 1.330 . S
C1338 C1340 1.446 . S
N1339 Co1298 2.151 . S
N1339 C1338 1.330 . S
N1339 C1343 1.418 . S
C1340 H1319 0.929 . S
C1340 C1338 1.446 . S
C1340 C1341 1.332 . S
C1341 H1321 0.931 . S
C1341 C1340 1.332 . S
C1341 C1342 1.267 . S
C1342 H1310 0.929 . S
C1342 C1341 1.267 . S
C1342 C1343 1.251 . S
C1343 H1313 0.929 . S
C1343 N1339 1.418 . S
C1343 C1342 1.251 . S
C1344 H1311 0.930 . S
C1344 C1346 1.406 . S
C1344 C1349 1.261 . S
C1345 H1312 0.930 . S
C1345 N1347 1.325 . S
C1345 C1348 1.357 . S
C1346 H1314 0.928 . S
C1346 C1344 1.406 . S
C1346 N1347 1.261 . S
N1347 Co1298 2.214 . S
N1347 C1345 1.325 . S
N1347 C1346 1.261 . S
C1348 H1318 0.931 . S
C1348 C1345 1.357 . S
C1348 C1349 1.312 . S
C1349 H1320 0.930 . S
C1349 C1344 1.261 . S
C1349 C1348 1.312 . S
C1350 O1322 1.214 . S
C1350 O1330 1.234 . S
C1351 H1323 0.929 . S
C1351 C1354 1.391 . S
C1351 C1356 1.391 . S
C1352 H1324 0.930 . S
C1352 C1353 1.390 . S
C1352 N1355 1.391 . S
C1353 H1325 0.930 . S
C1353 C1352 1.390 . S
C1353 C1354 1.392 . S
C1354 H1326 0.929 . S
C1354 C1351 1.391 . S
C1354 C1353 1.392 . S
N1355 Co1299 2.257 . S
N1355 C1352 1.391 . S
N1355 C1356 1.388 . S
C1356 H1327 0.930 . S
C1356 C1351 1.391 . S
C1356 N1355 1.388 . S
Co1357 O1359 2.143 . S
Co1357 O1365 2.074 . S
Co1357 O1368 2.093 . S
Co1357 O1381 2.097 . S
Co1357 N1398 2.151 . S
Co1357 N1406 2.214 . S
Co1358 O1359 2.160 . S
Co1358 O1364 2.058 . S
Co1358 O1374 2.057 . S
Co1358 O1389 2.037 . S
Co1358 N1393 2.145 . S
Co1358 N1414 2.257 . S
O1359 Co1357 2.143 . S
O1359 Co1358 2.160 . S
C1360 O1361 1.278 . S
C1360 O1368 1.224 . S
O1361 C1360 1.278 . S
C1362 O1363 1.245 . S
C1362 O1374 1.232 . S
O1363 C1362 1.245 . S
O1364 Co1358 2.058 . S
O1364 C1390 1.269 . S
O1365 Co1357 2.074 . S
O1365 C1390 1.257 . S
H1366 C1391 0.930 . S
H1367 C1397 0.930 . S
O1368 Co1357 2.093 . S
O1368 C1360 1.224 . S
H1369 C1401 0.929 . S
H1370 C1403 0.930 . S
H1371 C1404 0.930 . S
H1372 C1402 0.929 . S
H1373 C1405 0.928 . S
O1374 Co1358 2.057 . S
O1374 C1362 1.232 . S
H1375 C1394 0.929 . S
H1376 C1395 0.929 . S
H1377 C1407 0.931 . S
H1378 C1399 0.929 . S
H1379 C1408 0.930 . S
H1380 C1400 0.931 . S
O1381 Co1357 2.097 . S
O1381 C1409 1.214 . S
H1382 C1410 0.929 . S
H1383 C1411 0.929 . S
H1384 C1412 0.930 . S
H1385 C1413 0.929 . S
H1386 C1415 0.930 . S
H1387 C1392 0.930 . S
H1388 C1396 0.930 . S
O1389 Co1358 2.037 . S
O1389 C1409 1.234 . S
C1390 O1364 1.269 . S
C1390 O1365 1.257 . S
C1391 H1366 0.930 . S
C1391 C1394 1.388 . S
C1391 C1396 1.418 . S
C1392 H1387 0.930 . S
C1392 C1395 1.404 . S
C1392 C1396 1.353 . S
N1393 Co1358 2.145 . S
N1393 C1394 1.397 . S
N1393 C1395 1.334 . S
C1394 H1375 0.929 . S
C1394 C1391 1.388 . S
C1394 N1393 1.397 . S
C1395 H1376 0.929 . S
C1395 C1392 1.404 . S
C1395 N1393 1.334 . S
C1396 H1388 0.930 . S
C1396 C1391 1.418 . S
C1396 C1392 1.353 . S
C1397 H1367 0.930 . S
C1397 N1398 1.330 . S
C1397 C1399 1.446 . S
N1398 Co1357 2.151 . S
N1398 C1397 1.330 . S
N1398 C1402 1.418 . S
C1399 H1378 0.929 . S
C1399 C1397 1.446 . S
C1399 C1400 1.332 . S
C1400 H1380 0.931 . S
C1400 C1399 1.332 . S
C1400 C1401 1.267 . S
C1401 H1369 0.929 . S
C1401 C1400 1.267 . S
C1401 C1402 1.251 . S
C1402 H1372 0.929 . S
C1402 N1398 1.418 . S
C1402 C1401 1.251 . S
C1403 H1370 0.930 . S
C1403 C1405 1.406 . S
C1403 C1408 1.261 . S
C1404 H1371 0.930 . S
C1404 N1406 1.325 . S
C1404 C1407 1.357 . S
C1405 H1373 0.928 . S
C1405 C1403 1.406 . S
C1405 N1406 1.261 . S
N1406 Co1357 2.214 . S
N1406 C1404 1.325 . S
N1406 C1405 1.261 . S
C1407 H1377 0.931 . S
C1407 C1404 1.357 . S
C1407 C1408 1.312 . S
C1408 H1379 0.930 . S
C1408 C1403 1.261 . S
C1408 C1407 1.312 . S
C1409 O1381 1.214 . S
C1409 O1389 1.234 . S
C1410 H1382 0.929 . S
C1410 C1413 1.391 . S
C1410 C1415 1.391 . S
C1411 H1383 0.929 . S
C1411 C1412 1.390 . S
C1411 N1414 1.391 . S
C1412 H1384 0.930 . S
C1412 C1411 1.390 . S
C1412 C1413 1.392 . S
C1413 H1385 0.929 . S
C1413 C1410 1.391 . S
C1413 C1412 1.392 . S
N1414 Co1358 2.257 . S
N1414 C1411 1.391 . S
N1414 C1415 1.388 . S
C1415 H1386 0.930 . S
C1415 C1410 1.391 . S
C1415 N1414 1.388 . S
Co1416 O1418 2.143 . S
Co1416 O1424 2.074 . S
Co1416 O1427 2.093 . S
Co1416 O1440 2.097 . S
Co1416 N1457 2.151 . S
Co1416 N1465 2.214 . S
Co1417 O1418 2.160 . S
Co1417 O1423 2.058 . S
Co1417 O1433 2.057 . S
Co1417 O1448 2.037 . S
Co1417 N1452 2.145 . S
Co1417 N1473 2.257 . S
O1418 Co1416 2.143 . S
O1418 Co1417 2.160 . S
C1419 O1420 1.278 . S
C1419 O1427 1.224 . S
O1420 C1419 1.278 . S
C1421 O1422 1.245 . S
C1421 O1433 1.232 . S
O1422 C1421 1.245 . S
O1423 Co1417 2.058 . S
O1423 C1449 1.269 . S
O1424 Co1416 2.074 . S
O1424 C1449 1.257 . S
H1425 C1450 0.930 . S
H1426 C1456 0.930 . S
O1427 Co1416 2.093 . S
O1427 C1419 1.224 . S
H1428 C1460 0.929 . S
H1429 C1462 0.930 . S
H1430 C1463 0.930 . S
H1431 C1461 0.929 . S
H1432 C1464 0.928 . S
O1433 Co1417 2.057 . S
O1433 C1421 1.232 . S
H1434 C1453 0.929 . S
H1435 C1454 0.929 . S
H1436 C1466 0.931 . S
H1437 C1458 0.929 . S
H1438 C1467 0.930 . S
H1439 C1459 0.931 . S
O1440 Co1416 2.097 . S
O1440 C1468 1.214 . S
H1441 C1469 0.929 . S
H1442 C1470 0.929 . S
H1443 C1471 0.930 . S
H1444 C1472 0.929 . S
H1445 C1474 0.930 . S
H1446 C1451 0.930 . S
H1447 C1455 0.930 . S
O1448 Co1417 2.037 . S
O1448 C1468 1.234 . S
C1449 O1423 1.269 . S
C1449 O1424 1.257 . S
C1450 H1425 0.930 . S
C1450 C1453 1.388 . S
C1450 C1455 1.418 . S
C1451 H1446 0.930 . S
C1451 C1454 1.404 . S
C1451 C1455 1.353 . S
N1452 Co1417 2.145 . S
N1452 C1453 1.397 . S
N1452 C1454 1.334 . S
C1453 H1434 0.929 . S
C1453 C1450 1.388 . S
C1453 N1452 1.397 . S
C1454 H1435 0.929 . S
C1454 C1451 1.404 . S
C1454 N1452 1.334 . S
C1455 H1447 0.930 . S
C1455 C1450 1.418 . S
C1455 C1451 1.353 . S
C1456 H1426 0.930 . S
C1456 N1457 1.330 . S
C1456 C1458 1.446 . S
N1457 Co1416 2.151 . S
N1457 C1456 1.330 . S
N1457 C1461 1.418 . S
C1458 H1437 0.929 . S
C1458 C1456 1.446 . S
C1458 C1459 1.332 . S
C1459 H1439 0.931 . S
C1459 C1458 1.332 . S
C1459 C1460 1.267 . S
C1460 H1428 0.929 . S
C1460 C1459 1.267 . S
C1460 C1461 1.251 . S
C1461 H1431 0.929 . S
C1461 N1457 1.418 . S
C1461 C1460 1.251 . S
C1462 H1429 0.930 . S
C1462 C1464 1.406 . S
C1462 C1467 1.261 . S
C1463 H1430 0.930 . S
C1463 N1465 1.325 . S
C1463 C1466 1.357 . S
C1464 H1432 0.928 . S
C1464 C1462 1.406 . S
C1464 N1465 1.261 . S
N1465 Co1416 2.214 . S
N1465 C1463 1.325 . S
N1465 C1464 1.261 . S
C1466 H1436 0.931 . S
C1466 C1463 1.357 . S
C1466 C1467 1.312 . S
C1467 H1438 0.930 . S
C1467 C1462 1.261 . S
C1467 C1466 1.312 . S
C1468 O1440 1.214 . S
C1468 O1448 1.234 . S
C1469 H1441 0.929 . S
C1469 C1472 1.391 . S
C1469 C1474 1.391 . S
C1470 H1442 0.929 . S
C1470 C1471 1.390 . S
C1470 N1473 1.391 . S
C1471 H1443 0.930 . S
C1471 C1470 1.390 . S
C1471 C1472 1.392 . S
C1472 H1444 0.929 . S
C1472 C1469 1.391 . S
C1472 C1471 1.392 . S
N1473 Co1417 2.257 . S
N1473 C1470 1.391 . S
N1473 C1474 1.388 . S
C1474 H1445 0.930 . S
C1474 C1469 1.391 . S
C1474 N1473 1.388 . S
Co1475 O1477 2.143 . S
Co1475 O1483 2.074 . S
Co1475 O1486 2.093 . S
Co1475 O1499 2.097 . S
Co1475 N1516 2.151 . S
Co1475 N1524 2.214 . S
Co1476 O1477 2.160 . S
Co1476 O1482 2.058 . S
Co1476 O1492 2.057 . S
Co1476 O1507 2.037 . S
Co1476 N1511 2.145 . S
Co1476 N1532 2.257 . S
O1477 Co1475 2.143 . S
O1477 Co1476 2.160 . S
C1478 O1479 1.278 . S
C1478 O1486 1.224 . S
O1479 C1478 1.278 . S
C1480 O1481 1.245 . S
C1480 O1492 1.232 . S
O1481 C1480 1.245 . S
O1482 Co1476 2.058 . S
O1482 C1508 1.269 . S
O1483 Co1475 2.074 . S
O1483 C1508 1.257 . S
H1484 C1509 0.930 . S
H1485 C1515 0.930 . S
O1486 Co1475 2.093 . S
O1486 C1478 1.224 . S
H1487 C1519 0.929 . S
H1488 C1521 0.930 . S
H1489 C1522 0.930 . S
H1490 C1520 0.929 . S
H1491 C1523 0.928 . S
O1492 Co1476 2.057 . S
O1492 C1480 1.232 . S
H1493 C1512 0.929 . S
H1494 C1513 0.929 . S
H1495 C1525 0.931 . S
H1496 C1517 0.929 . S
H1497 C1526 0.930 . S
H1498 C1518 0.931 . S
O1499 Co1475 2.097 . S
O1499 C1527 1.214 . S
H1500 C1528 0.929 . S
H1501 C1529 0.929 . S
H1502 C1530 0.930 . S
H1503 C1531 0.929 . S
H1504 C1533 0.930 . S
H1505 C1510 0.930 . S
H1506 C1514 0.930 . S
O1507 Co1476 2.037 . S
O1507 C1527 1.234 . S
C1508 O1482 1.269 . S
C1508 O1483 1.257 . S
C1509 H1484 0.930 . S
C1509 C1512 1.388 . S
C1509 C1514 1.418 . S
C1510 H1505 0.930 . S
C1510 C1513 1.404 . S
C1510 C1514 1.353 . S
N1511 Co1476 2.145 . S
N1511 C1512 1.397 . S
N1511 C1513 1.334 . S
C1512 H1493 0.929 . S
C1512 C1509 1.388 . S
C1512 N1511 1.397 . S
C1513 H1494 0.929 . S
C1513 C1510 1.404 . S
C1513 N1511 1.334 . S
C1514 H1506 0.930 . S
C1514 C1509 1.418 . S
C1514 C1510 1.353 . S
C1515 H1485 0.930 . S
C1515 N1516 1.330 . S
C1515 C1517 1.446 . S
N1516 Co1475 2.151 . S
N1516 C1515 1.330 . S
N1516 C1520 1.418 . S
C1517 H1496 0.929 . S
C1517 C1515 1.446 . S
C1517 C1518 1.332 . S
C1518 H1498 0.931 . S
C1518 C1517 1.332 . S
C1518 C1519 1.267 . S
C1519 H1487 0.929 . S
C1519 C1518 1.267 . S
C1519 C1520 1.251 . S
C1520 H1490 0.929 . S
C1520 N1516 1.418 . S
C1520 C1519 1.251 . S
C1521 H1488 0.930 . S
C1521 C1523 1.406 . S
C1521 C1526 1.261 . S
C1522 H1489 0.930 . S
C1522 N1524 1.325 . S
C1522 C1525 1.357 . S
C1523 H1491 0.928 . S
C1523 C1521 1.406 . S
C1523 N1524 1.261 . S
N1524 Co1475 2.214 . S
N1524 C1522 1.325 . S
N1524 C1523 1.261 . S
C1525 H1495 0.931 . S
C1525 C1522 1.357 . S
C1525 C1526 1.312 . S
C1526 H1497 0.930 . S
C1526 C1521 1.261 . S
C1526 C1525 1.312 . S
C1527 O1499 1.214 . S
C1527 O1507 1.234 . S
C1528 H1500 0.929 . S
C1528 C1531 1.391 . S
C1528 C1533 1.391 . S
C1529 H1501 0.929 . S
C1529 C1530 1.390 . S
C1529 N1532 1.391 . S
C1530 H1502 0.930 . S
C1530 C1529 1.390 . S
C1530 C1531 1.392 . S
C1531 H1503 0.929 . S
C1531 C1528 1.391 . S
C1531 C1530 1.392 . S
N1532 Co1476 2.257 . S
N1532 C1529 1.391 . S
N1532 C1533 1.388 . S
C1533 H1504 0.930 . S
C1533 C1528 1.391 . S
C1533 N1532 1.388 . S
Co1534 O1536 2.143 . S
Co1534 O1542 2.074 . S
Co1534 O1545 2.093 . S
Co1534 O1558 2.097 . S
Co1534 N1575 2.151 . S
Co1534 N1583 2.214 . S
Co1535 O1536 2.160 . S
Co1535 O1541 2.058 . S
Co1535 O1551 2.057 . S
Co1535 O1566 2.037 . S
Co1535 N1570 2.145 1_556 S
Co1535 N1591 2.257 . S
O1536 Co1534 2.143 . S
O1536 Co1535 2.160 . S
C1537 O1538 1.278 . S
C1537 O1545 1.224 . S
O1538 C1537 1.278 . S
C1539 O1540 1.245 . S
C1539 O1551 1.232 . S
O1540 C1539 1.245 . S
O1541 Co1535 2.058 . S
O1541 C1567 1.269 . S
O1542 Co1534 2.074 . S
O1542 C1567 1.257 . S
H1543 C1568 0.930 . S
H1544 C1574 0.930 . S
O1545 Co1534 2.093 . S
O1545 C1537 1.224 . S
H1546 C1578 0.929 . S
H1547 C1580 0.930 . S
H1548 C1581 0.930 . S
H1549 C1579 0.929 . S
H1550 C1582 0.928 . S
O1551 Co1535 2.057 . S
O1551 C1539 1.232 . S
H1552 C1571 0.929 . S
H1553 C1572 0.929 . S
H1554 C1584 0.931 . S
H1555 C1576 0.929 . S
H1556 C1585 0.930 . S
H1557 C1577 0.931 . S
O1558 Co1534 2.097 . S
O1558 C1586 1.214 . S
H1559 C1587 0.929 . S
H1560 C1588 0.936 . S
H1561 C1589 0.930 . S
H1562 C1590 0.929 . S
H1563 C1592 0.930 . S
H1564 C1569 0.930 . S
H1565 C1573 0.930 . S
O1566 Co1535 2.037 . S
O1566 C1586 1.234 . S
C1567 O1541 1.269 . S
C1567 O1542 1.257 . S
C1568 H1543 0.930 . S
C1568 C1571 1.388 . S
C1568 C1573 1.418 . S
C1569 H1564 0.930 . S
C1569 C1572 1.404 . S
C1569 C1573 1.353 . S
N1570 Co1535 2.145 1_554 S
N1570 C1571 1.397 . S
N1570 C1572 1.334 . S
C1571 H1552 0.929 . S
C1571 C1568 1.388 . S
C1571 N1570 1.397 . S
C1572 H1553 0.929 . S
C1572 C1569 1.404 . S
C1572 N1570 1.334 . S
C1573 H1565 0.930 . S
C1573 C1568 1.418 . S
C1573 C1569 1.353 . S
C1574 H1544 0.930 . S
C1574 N1575 1.330 . S
C1574 C1576 1.446 . S
N1575 Co1534 2.151 . S
N1575 C1574 1.330 . S
N1575 C1579 1.418 . S
C1576 H1555 0.929 . S
C1576 C1574 1.446 . S
C1576 C1577 1.332 . S
C1577 H1557 0.931 . S
C1577 C1576 1.332 . S
C1577 C1578 1.267 . S
C1578 H1546 0.929 . S
C1578 C1577 1.267 . S
C1578 C1579 1.251 . S
C1579 H1549 0.929 . S
C1579 N1575 1.418 . S
C1579 C1578 1.251 . S
C1580 H1547 0.930 . S
C1580 C1582 1.406 . S
C1580 C1585 1.261 . S
C1581 H1548 0.930 . S
C1581 N1583 1.325 . S
C1581 C1584 1.357 . S
C1582 H1550 0.928 . S
C1582 C1580 1.406 . S
C1582 N1583 1.261 . S
N1583 Co1534 2.214 . S
N1583 C1581 1.325 . S
N1583 C1582 1.261 . S
C1584 H1554 0.931 . S
C1584 C1581 1.357 . S
C1584 C1585 1.312 . S
C1585 H1556 0.930 . S
C1585 C1580 1.261 . S
C1585 C1584 1.312 . S
C1586 O1558 1.214 . S
C1586 O1566 1.234 . S
C1587 H1559 0.929 . S
C1587 C1590 1.391 . S
C1587 C1592 1.391 . S
C1588 H1560 0.936 . S
C1588 C1589 1.390 . S
C1588 N1591 1.391 . S
C1589 H1561 0.930 . S
C1589 C1588 1.390 . S
C1589 C1590 1.392 . S
C1590 H1562 0.929 . S
C1590 C1587 1.391 . S
C1590 C1589 1.392 . S
N1591 Co1535 2.257 . S
N1591 C1588 1.391 . S
N1591 C1592 1.388 . S
C1592 H1563 0.930 . S
C1592 C1587 1.391 . S
C1592 N1591 1.388 . S
Co1593 O1595 2.143 . S
Co1593 O1601 2.074 . S
Co1593 O1604 2.093 . S
Co1593 O1617 2.097 . S
Co1593 N1634 2.151 . S
Co1593 N1642 2.214 . S
Co1594 O1595 2.160 . S
Co1594 O1600 2.058 . S
Co1594 O1610 2.057 . S
Co1594 O1625 2.037 . S
Co1594 N1629 2.145 . S
Co1594 N1650 2.257 . S
O1595 Co1593 2.143 . S
O1595 Co1594 2.160 . S
C1596 O1597 1.278 . S
C1596 O1604 1.224 . S
O1597 C1596 1.278 . S
C1598 O1599 1.245 . S
C1598 O1610 1.232 . S
O1599 C1598 1.245 . S
O1600 Co1594 2.058 . S
O1600 C1626 1.269 . S
O1601 Co1593 2.074 . S
O1601 C1626 1.257 . S
H1602 C1627 0.930 . S
H1603 C1633 0.930 . S
O1604 Co1593 2.093 . S
O1604 C1596 1.224 . S
H1605 C1637 0.929 . S
H1606 C1639 0.930 . S
H1607 C1640 0.930 . S
H1608 C1638 0.929 . S
H1609 C1641 0.928 . S
O1610 Co1594 2.057 . S
O1610 C1598 1.232 . S
H1611 C1630 0.929 . S
H1612 C1631 0.929 . S
H1613 C1643 0.931 . S
H1614 C1635 0.929 . S
H1615 C1644 0.930 . S
H1616 C1636 0.931 . S
O1617 Co1593 2.097 . S
O1617 C1645 1.214 . S
H1618 C1646 0.929 . S
H1619 C1647 0.929 . S
H1620 C1648 0.930 . S
H1621 C1649 0.929 . S
H1622 C1651 0.930 . S
H1623 C1628 0.930 . S
H1624 C1632 0.930 . S
O1625 Co1594 2.037 . S
O1625 C1645 1.234 . S
C1626 O1600 1.269 . S
C1626 O1601 1.257 . S
C1627 H1602 0.930 . S
C1627 C1630 1.388 . S
C1627 C1632 1.418 . S
C1628 H1623 0.930 . S
C1628 C1631 1.404 . S
C1628 C1632 1.353 . S
N1629 Co1594 2.145 . S
N1629 C1630 1.397 . S
N1629 C1631 1.334 . S
C1630 H1611 0.929 . S
C1630 C1627 1.388 . S
C1630 N1629 1.397 . S
C1631 H1612 0.929 . S
C1631 C1628 1.404 . S
C1631 N1629 1.334 . S
C1632 H1624 0.930 . S
C1632 C1627 1.418 . S
C1632 C1628 1.353 . S
C1633 H1603 0.930 . S
C1633 N1634 1.330 . S
C1633 C1635 1.446 . S
N1634 Co1593 2.151 . S
N1634 C1633 1.330 . S
N1634 C1638 1.418 . S
C1635 H1614 0.929 . S
C1635 C1633 1.446 . S
C1635 C1636 1.332 . S
C1636 H1616 0.931 . S
C1636 C1635 1.332 . S
C1636 C1637 1.267 . S
C1637 H1605 0.929 . S
C1637 C1636 1.267 . S
C1637 C1638 1.251 . S
C1638 H1608 0.929 . S
C1638 N1634 1.418 . S
C1638 C1637 1.251 . S
C1639 H1606 0.930 . S
C1639 C1641 1.406 . S
C1639 C1644 1.261 . S
C1640 H1607 0.930 . S
C1640 N1642 1.325 . S
C1640 C1643 1.357 . S
C1641 H1609 0.928 . S
C1641 C1639 1.406 . S
C1641 N1642 1.261 . S
N1642 Co1593 2.214 . S
N1642 C1640 1.325 . S
N1642 C1641 1.261 . S
C1643 H1613 0.931 . S
C1643 C1640 1.357 . S
C1643 C1644 1.312 . S
C1644 H1615 0.930 . S
C1644 C1639 1.261 . S
C1644 C1643 1.312 . S
C1645 O1617 1.214 . S
C1645 O1625 1.234 . S
C1646 H1618 0.929 . S
C1646 C1649 1.391 . S
C1646 C1651 1.391 . S
C1647 H1619 0.929 . S
C1647 C1648 1.390 . S
C1647 N1650 1.391 . S
C1648 H1620 0.930 . S
C1648 C1647 1.390 . S
C1648 C1649 1.392 . S
C1649 H1621 0.929 . S
C1649 C1646 1.391 . S
C1649 C1648 1.392 . S
N1650 Co1594 2.257 . S
N1650 C1647 1.391 . S
N1650 C1651 1.388 . S
C1651 H1622 0.930 . S
C1651 C1646 1.391 . S
C1651 N1650 1.388 . S
Co1652 O1654 2.143 . S
Co1652 O1660 2.074 . S
Co1652 O1663 2.093 . S
Co1652 O1676 2.097 . S
Co1652 N1693 2.151 . S
Co1652 N1701 2.214 . S
Co1653 O1654 2.160 . S
Co1653 O1659 2.058 . S
Co1653 O1669 2.057 . S
Co1653 O1684 2.037 . S
Co1653 N1688 2.145 . S
Co1653 N1709 2.257 . S
O1654 Co1652 2.143 . S
O1654 Co1653 2.160 . S
C1655 O1656 1.278 . S
C1655 O1663 1.224 . S
O1656 C1655 1.278 . S
C1657 O1658 1.245 . S
C1657 O1669 1.232 . S
O1658 C1657 1.245 . S
O1659 Co1653 2.058 . S
O1659 C1685 1.269 . S
O1660 Co1652 2.074 . S
O1660 C1685 1.257 . S
H1661 C1686 0.930 . S
H1662 C1692 0.930 . S
O1663 Co1652 2.093 . S
O1663 C1655 1.224 . S
H1664 C1696 0.929 . S
H1665 C1698 0.930 . S
H1666 C1699 0.930 . S
H1667 C1697 0.929 . S
H1668 C1700 0.928 . S
O1669 Co1653 2.057 . S
O1669 C1657 1.232 . S
H1670 C1689 0.929 . S
H1671 C1690 0.929 . S
H1672 C1702 0.931 . S
H1673 C1694 0.929 . S
H1674 C1703 0.930 . S
H1675 C1695 0.931 . S
O1676 Co1652 2.097 . S
O1676 C1704 1.214 . S
H1677 C1705 0.929 . S
H1678 C1706 0.929 . S
H1679 C1707 0.930 . S
H1680 C1708 0.929 . S
H1681 C1710 0.930 . S
H1682 C1687 0.930 . S
H1683 C1691 0.930 . S
O1684 Co1653 2.037 . S
O1684 C1704 1.234 . S
C1685 O1659 1.269 . S
C1685 O1660 1.257 . S
C1686 H1661 0.930 . S
C1686 C1689 1.388 . S
C1686 C1691 1.418 . S
C1687 H1682 0.930 . S
C1687 C1690 1.404 . S
C1687 C1691 1.353 . S
N1688 Co1653 2.145 . S
N1688 C1689 1.397 . S
N1688 C1690 1.334 . S
C1689 H1670 0.929 . S
C1689 C1686 1.388 . S
C1689 N1688 1.397 . S
C1690 H1671 0.929 . S
C1690 C1687 1.404 . S
C1690 N1688 1.334 . S
C1691 H1683 0.930 . S
C1691 C1686 1.418 . S
C1691 C1687 1.353 . S
C1692 H1662 0.930 . S
C1692 N1693 1.330 . S
C1692 C1694 1.446 . S
N1693 Co1652 2.151 . S
N1693 C1692 1.330 . S
N1693 C1697 1.418 . S
C1694 H1673 0.929 . S
C1694 C1692 1.446 . S
C1694 C1695 1.332 . S
C1695 H1675 0.931 . S
C1695 C1694 1.332 . S
C1695 C1696 1.267 . S
C1696 H1664 0.929 . S
C1696 C1695 1.267 . S
C1696 C1697 1.251 . S
C1697 H1667 0.929 . S
C1697 N1693 1.418 . S
C1697 C1696 1.251 . S
C1698 H1665 0.930 . S
C1698 C1700 1.406 . S
C1698 C1703 1.261 . S
C1699 H1666 0.930 . S
C1699 N1701 1.325 . S
C1699 C1702 1.357 . S
C1700 H1668 0.928 . S
C1700 C1698 1.406 . S
C1700 N1701 1.261 . S
N1701 Co1652 2.214 . S
N1701 C1699 1.325 . S
N1701 C1700 1.261 . S
C1702 H1672 0.931 . S
C1702 C1699 1.357 . S
C1702 C1703 1.312 . S
C1703 H1674 0.930 . S
C1703 C1698 1.261 . S
C1703 C1702 1.312 . S
C1704 O1676 1.214 . S
C1704 O1684 1.234 . S
C1705 H1677 0.929 . S
C1705 C1708 1.391 . S
C1705 C1710 1.391 . S
C1706 H1678 0.929 . S
C1706 C1707 1.390 . S
C1706 N1709 1.391 . S
C1707 H1679 0.930 . S
C1707 C1706 1.390 . S
C1707 C1708 1.392 . S
C1708 H1680 0.929 . S
C1708 C1705 1.391 . S
C1708 C1707 1.392 . S
N1709 Co1653 2.257 . S
N1709 C1706 1.391 . S
N1709 C1710 1.388 . S
C1710 H1681 0.930 . S
C1710 C1705 1.391 . S
C1710 N1709 1.388 . S
Co1711 O1713 2.143 . S
Co1711 O1719 2.074 . S
Co1711 O1722 2.093 . S
Co1711 O1735 2.097 . S
Co1711 N1752 2.151 . S
Co1711 N1760 2.214 . S
Co1712 O1713 2.160 . S
Co1712 O1718 2.058 . S
Co1712 O1728 2.057 . S
Co1712 O1743 2.037 . S
Co1712 N1747 2.145 . S
Co1712 N1768 2.257 . S
O1713 Co1711 2.143 . S
O1713 Co1712 2.160 . S
C1714 O1715 1.278 . S
C1714 O1722 1.224 . S
O1715 C1714 1.278 . S
C1716 O1717 1.245 . S
C1716 O1728 1.232 . S
O1717 C1716 1.245 . S
O1718 Co1712 2.058 . S
O1718 C1744 1.269 . S
O1719 Co1711 2.074 . S
O1719 C1744 1.257 . S
H1720 C1745 0.930 . S
H1721 C1751 0.930 . S
O1722 Co1711 2.093 . S
O1722 C1714 1.224 . S
H1723 C1755 0.929 . S
H1724 C1757 0.930 . S
H1725 C1758 0.930 . S
H1726 C1756 0.929 . S
H1727 C1759 0.928 . S
O1728 Co1712 2.057 . S
O1728 C1716 1.232 . S
H1729 C1748 0.929 . S
H1730 C1749 0.929 . S
H1731 C1761 0.931 . S
H1732 C1753 0.929 . S
H1733 C1762 0.930 . S
H1734 C1754 0.931 . S
O1735 Co1711 2.097 . S
O1735 C1763 1.214 . S
H1736 C1764 0.929 . S
H1737 C1765 0.929 . S
H1738 C1766 0.930 . S
H1739 C1767 0.929 . S
H1740 C1769 0.930 . S
H1741 C1746 0.930 . S
H1742 C1750 0.930 . S
O1743 Co1712 2.037 . S
O1743 C1763 1.234 . S
C1744 O1718 1.269 . S
C1744 O1719 1.257 . S
C1745 H1720 0.930 . S
C1745 C1748 1.388 . S
C1745 C1750 1.418 . S
C1746 H1741 0.930 . S
C1746 C1749 1.404 . S
C1746 C1750 1.353 . S
N1747 Co1712 2.145 . S
N1747 C1748 1.397 . S
N1747 C1749 1.334 . S
C1748 H1729 0.929 . S
C1748 C1745 1.388 . S
C1748 N1747 1.397 . S
C1749 H1730 0.929 . S
C1749 C1746 1.404 . S
C1749 N1747 1.334 . S
C1750 H1742 0.930 . S
C1750 C1745 1.418 . S
C1750 C1746 1.353 . S
C1751 H1721 0.930 . S
C1751 N1752 1.330 . S
C1751 C1753 1.446 . S
N1752 Co1711 2.151 . S
N1752 C1751 1.330 . S
N1752 C1756 1.418 . S
C1753 H1732 0.929 . S
C1753 C1751 1.446 . S
C1753 C1754 1.332 . S
C1754 H1734 0.931 . S
C1754 C1753 1.332 . S
C1754 C1755 1.267 . S
C1755 H1723 0.929 . S
C1755 C1754 1.267 . S
C1755 C1756 1.251 . S
C1756 H1726 0.929 . S
C1756 N1752 1.418 . S
C1756 C1755 1.251 . S
C1757 H1724 0.930 . S
C1757 C1759 1.406 . S
C1757 C1762 1.261 . S
C1758 H1725 0.930 . S
C1758 N1760 1.325 . S
C1758 C1761 1.357 . S
C1759 H1727 0.928 . S
C1759 C1757 1.406 . S
C1759 N1760 1.261 . S
N1760 Co1711 2.214 . S
N1760 C1758 1.325 . S
N1760 C1759 1.261 . S
C1761 H1731 0.931 . S
C1761 C1758 1.357 . S
C1761 C1762 1.312 . S
C1762 H1733 0.930 . S
C1762 C1757 1.261 . S
C1762 C1761 1.312 . S
C1763 O1735 1.214 . S
C1763 O1743 1.234 . S
C1764 H1736 0.929 . S
C1764 C1767 1.391 . S
C1764 C1769 1.391 . S
C1765 H1737 0.929 . S
C1765 C1766 1.390 . S
C1765 N1768 1.391 . S
C1766 H1738 0.930 . S
C1766 C1765 1.390 . S
C1766 C1767 1.392 . S
C1767 H1739 0.929 . S
C1767 C1764 1.391 . S
C1767 C1766 1.392 . S
N1768 Co1712 2.257 . S
N1768 C1765 1.391 . S
N1768 C1769 1.388 . S
C1769 H1740 0.930 . S
C1769 C1764 1.391 . S
C1769 N1768 1.388 . S
Co1770 O1772 2.143 . S
Co1770 O1778 2.074 . S
Co1770 O1781 2.093 . S
Co1770 O1794 2.097 . S
Co1770 N1811 2.151 . S
Co1770 N1819 2.214 . S
Co1771 O1772 2.160 . S
Co1771 O1777 2.058 . S
Co1771 O1787 2.057 . S
Co1771 O1802 2.037 . S
Co1771 N1806 2.145 1_554 S
Co1771 N1827 2.257 . S
O1772 Co1770 2.143 . S
O1772 Co1771 2.160 . S
C1773 O1774 1.278 . S
C1773 O1781 1.224 . S
O1774 C1773 1.278 . S
C1775 O1776 1.245 . S
C1775 O1787 1.232 . S
O1776 C1775 1.245 . S
O1777 Co1771 2.058 . S
O1777 C1803 1.269 . S
O1778 Co1770 2.074 . S
O1778 C1803 1.257 . S
H1779 C1804 0.930 . S
H1780 C1810 0.930 . S
O1781 Co1770 2.093 . S
O1781 C1773 1.224 . S
H1782 C1814 0.929 . S
H1783 C1816 0.930 . S
H1784 C1817 0.930 . S
H1785 C1815 0.929 . S
H1786 C1818 0.928 . S
O1787 Co1771 2.057 . S
O1787 C1775 1.232 . S
H1788 C1807 0.929 . S
H1789 C1808 0.929 . S
H1790 C1820 0.931 . S
H1791 C1812 0.929 . S
H1792 C1821 0.930 . S
H1793 C1813 0.931 . S
O1794 Co1770 2.097 . S
O1794 C1822 1.214 . S
H1795 C1823 0.929 . S
H1796 C1824 0.936 . S
H1797 C1825 0.930 . S
H1798 C1826 0.929 . S
H1799 C1828 0.930 . S
H1800 C1805 0.930 . S
H1801 C1809 0.930 . S
O1802 Co1771 2.037 . S
O1802 C1822 1.234 . S
C1803 O1777 1.269 . S
C1803 O1778 1.257 . S
C1804 H1779 0.930 . S
C1804 C1807 1.388 . S
C1804 C1809 1.418 . S
C1805 H1800 0.930 . S
C1805 C1808 1.404 . S
C1805 C1809 1.353 . S
N1806 Co1771 2.145 1_556 S
N1806 C1807 1.397 . S
N1806 C1808 1.334 . S
C1807 H1788 0.929 . S
C1807 C1804 1.388 . S
C1807 N1806 1.397 . S
C1808 H1789 0.929 . S
C1808 C1805 1.404 . S
C1808 N1806 1.334 . S
C1809 H1801 0.930 . S
C1809 C1804 1.418 . S
C1809 C1805 1.353 . S
C1810 H1780 0.930 . S
C1810 N1811 1.330 . S
C1810 C1812 1.446 . S
N1811 Co1770 2.151 . S
N1811 C1810 1.330 . S
N1811 C1815 1.418 . S
C1812 H1791 0.929 . S
C1812 C1810 1.446 . S
C1812 C1813 1.332 . S
C1813 H1793 0.931 . S
C1813 C1812 1.332 . S
C1813 C1814 1.267 . S
C1814 H1782 0.929 . S
C1814 C1813 1.267 . S
C1814 C1815 1.251 . S
C1815 H1785 0.929 . S
C1815 N1811 1.418 . S
C1815 C1814 1.251 . S
C1816 H1783 0.930 . S
C1816 C1818 1.406 . S
C1816 C1821 1.261 . S
C1817 H1784 0.930 . S
C1817 N1819 1.325 . S
C1817 C1820 1.357 . S
C1818 H1786 0.928 . S
C1818 C1816 1.406 . S
C1818 N1819 1.261 . S
N1819 Co1770 2.214 . S
N1819 C1817 1.325 . S
N1819 C1818 1.261 . S
C1820 H1790 0.931 . S
C1820 C1817 1.357 . S
C1820 C1821 1.312 . S
C1821 H1792 0.930 . S
C1821 C1816 1.261 . S
C1821 C1820 1.312 . S
C1822 O1794 1.214 . S
C1822 O1802 1.234 . S
C1823 H1795 0.929 . S
C1823 C1826 1.391 . S
C1823 C1828 1.391 . S
C1824 H1796 0.936 . S
C1824 C1825 1.390 . S
C1824 N1827 1.391 . S
C1825 H1797 0.930 . S
C1825 C1824 1.390 . S
C1825 C1826 1.392 . S
C1826 H1798 0.929 . S
C1826 C1823 1.391 . S
C1826 C1825 1.392 . S
N1827 Co1771 2.257 . S
N1827 C1824 1.391 . S
N1827 C1828 1.388 . S
C1828 H1799 0.930 . S
C1828 C1823 1.391 . S
C1828 N1827 1.388 . S
Co1829 O1831 2.143 . S
Co1829 O1837 2.074 . S
Co1829 O1840 2.093 . S
Co1829 O1853 2.097 . S
Co1829 N1870 2.151 . S
Co1829 N1878 2.214 . S
Co1830 O1831 2.160 . S
Co1830 O1836 2.058 . S
Co1830 O1846 2.057 . S
Co1830 O1861 2.037 . S
Co1830 N1865 2.145 . S
Co1830 N1886 2.257 . S
O1831 Co1829 2.143 . S
O1831 Co1830 2.160 . S
C1832 O1833 1.278 . S
C1832 O1840 1.224 . S
O1833 C1832 1.278 . S
C1834 O1835 1.245 . S
C1834 O1846 1.232 . S
O1835 C1834 1.245 . S
O1836 Co1830 2.058 . S
O1836 C1862 1.269 . S
O1837 Co1829 2.074 . S
O1837 C1862 1.257 . S
H1838 C1863 0.930 . S
H1839 C1869 0.930 . S
O1840 Co1829 2.093 . S
O1840 C1832 1.224 . S
H1841 C1873 0.929 . S
H1842 C1875 0.930 . S
H1843 C1876 0.930 . S
H1844 C1874 0.929 . S
H1845 C1877 0.928 . S
O1846 Co1830 2.057 . S
O1846 C1834 1.232 . S
H1847 C1866 0.929 . S
H1848 C1867 0.929 . S
H1849 C1879 0.931 . S
H1850 C1871 0.929 . S
H1851 C1880 0.930 . S
H1852 C1872 0.931 . S
O1853 Co1829 2.097 . S
O1853 C1881 1.214 . S
H1854 C1882 0.929 . S
H1855 C1883 0.929 . S
H1856 C1884 0.930 . S
H1857 C1885 0.929 . S
H1858 C1887 0.930 . S
H1859 C1864 0.930 . S
H1860 C1868 0.930 . S
O1861 Co1830 2.037 . S
O1861 C1881 1.234 . S
C1862 O1836 1.269 . S
C1862 O1837 1.257 . S
C1863 H1838 0.930 . S
C1863 C1866 1.388 . S
C1863 C1868 1.418 . S
C1864 H1859 0.930 . S
C1864 C1867 1.404 . S
C1864 C1868 1.353 . S
N1865 Co1830 2.145 . S
N1865 C1866 1.397 . S
N1865 C1867 1.334 . S
C1866 H1847 0.929 . S
C1866 C1863 1.388 . S
C1866 N1865 1.397 . S
C1867 H1848 0.929 . S
C1867 C1864 1.404 . S
C1867 N1865 1.334 . S
C1868 H1860 0.930 . S
C1868 C1863 1.418 . S
C1868 C1864 1.353 . S
C1869 H1839 0.930 . S
C1869 N1870 1.330 . S
C1869 C1871 1.446 . S
N1870 Co1829 2.151 . S
N1870 C1869 1.330 . S
N1870 C1874 1.418 . S
C1871 H1850 0.929 . S
C1871 C1869 1.446 . S
C1871 C1872 1.332 . S
C1872 H1852 0.931 . S
C1872 C1871 1.332 . S
C1872 C1873 1.267 . S
C1873 H1841 0.929 . S
C1873 C1872 1.267 . S
C1873 C1874 1.251 . S
C1874 H1844 0.929 . S
C1874 N1870 1.418 . S
C1874 C1873 1.251 . S
C1875 H1842 0.930 . S
C1875 C1877 1.406 . S
C1875 C1880 1.261 . S
C1876 H1843 0.930 . S
C1876 N1878 1.325 . S
C1876 C1879 1.357 . S
C1877 H1845 0.928 . S
C1877 C1875 1.406 . S
C1877 N1878 1.261 . S
N1878 Co1829 2.214 . S
N1878 C1876 1.325 . S
N1878 C1877 1.261 . S
C1879 H1849 0.931 . S
C1879 C1876 1.357 . S
C1879 C1880 1.312 . S
C1880 H1851 0.930 . S
C1880 C1875 1.261 . S
C1880 C1879 1.312 . S
C1881 O1853 1.214 . S
C1881 O1861 1.234 . S
C1882 H1854 0.929 . S
C1882 C1885 1.391 . S
C1882 C1887 1.391 . S
C1883 H1855 0.929 . S
C1883 C1884 1.390 . S
C1883 N1886 1.391 . S
C1884 H1856 0.930 . S
C1884 C1883 1.390 . S
C1884 C1885 1.392 . S
C1885 H1857 0.929 . S
C1885 C1882 1.391 . S
C1885 C1884 1.392 . S
N1886 Co1830 2.257 . S
N1886 C1883 1.391 . S
N1886 C1887 1.388 . S
C1887 H1858 0.930 . S
C1887 C1882 1.391 . S
C1887 N1886 1.388 . S
C1888 C1889 1.349 . S
C1888 C1890 1.327 . S
C1888 H1913 0.950 . S
C1889 C1888 1.349 . S
C1889 C1905 1.349 . S
C1890 C1888 1.327 . S
C1890 C1909 1.429 . S
C1890 H1914 0.950 . S
C1891 C1908 1.574 . S
C1891 C1910 1.368 . S
C1891 H1915 0.949 . S
H1892 C1896 0.949 . S
C1893 C1894 1.349 . S
C1893 C1895 1.327 . S
C1893 H1916 0.950 . S
C1894 C1893 1.349 . S
C1894 C1906 1.349 . S
C1895 C1893 1.327 . S
C1895 C1911 1.429 . S
C1895 H1917 0.950 . S
C1896 H1892 0.949 . S
C1896 C1904 1.574 . S
C1896 C1912 1.368 . S
H1897 C1905 0.950 . S
H1898 C1903 0.950 . S
H1899 C1904 0.949 . S
H1900 C1906 0.950 . S
H1901 C1907 0.950 . S
H1902 C1908 0.949 . S
C1903 H1898 0.950 . S
C1903 C1905 1.327 . S
C1903 C1909 1.429 . S
C1904 C1896 1.574 . S
C1904 H1899 0.949 . S
C1904 C1910 1.368 . S
C1905 C1889 1.349 . S
C1905 H1897 0.950 . S
C1905 C1903 1.327 . S
C1906 C1894 1.349 . S
C1906 H1900 0.950 . S
C1906 C1907 1.327 . S
C1907 H1901 0.950 . S
C1907 C1906 1.327 . S
C1907 C1911 1.429 . S
C1908 C1891 1.574 . S
C1908 H1902 0.949 . S
C1908 C1912 1.368 . S
C1909 C1890 1.429 . S
C1909 C1903 1.429 . S
C1909 C1910 1.523 . S
C1910 C1891 1.368 . S
C1910 C1904 1.368 . S
C1910 C1909 1.523 . S
C1911 C1895 1.429 . S
C1911 C1907 1.429 . S
C1911 C1912 1.523 . S
C1912 C1896 1.368 . S
C1912 C1908 1.368 . S
C1912 C1911 1.523 . S
H1913 C1888 0.950 . S
H1914 C1890 0.950 . S
H1915 C1891 0.949 . S
H1916 C1893 0.950 . S
H1917 C1895 0.950 . S
C1918 C1919 1.349 . S
C1918 C1920 1.327 . S
C1918 H1943 0.950 . S
C1919 C1918 1.349 . S
C1919 C1935 1.349 . S
C1920 C1918 1.327 . S
C1920 C1939 1.429 . S
C1920 H1944 0.950 . S
C1921 C1938 1.574 . S
C1921 C1940 1.368 . S
C1921 H1945 0.949 . S
H1922 C1926 0.949 . S
C1923 C1924 1.349 . S
C1923 C1925 1.327 . S
C1923 H1946 0.950 . S
C1924 C1923 1.349 . S
C1924 C1936 1.349 . S
C1925 C1923 1.327 . S
C1925 C1941 1.429 . S
C1925 H1947 0.950 . S
C1926 H1922 0.949 . S
C1926 C1934 1.574 . S
C1926 C1942 1.368 . S
H1927 C1935 0.950 . S
H1928 C1933 0.950 . S
H1929 C1934 0.949 . S
H1930 C1936 0.950 . S
H1931 C1937 0.950 . S
H1932 C1938 0.949 . S
C1933 H1928 0.950 . S
C1933 C1935 1.327 . S
C1933 C1939 1.429 . S
C1934 C1926 1.574 . S
C1934 H1929 0.949 . S
C1934 C1940 1.368 . S
C1935 C1919 1.349 . S
C1935 H1927 0.950 . S
C1935 C1933 1.327 . S
C1936 C1924 1.349 . S
C1936 H1930 0.950 . S
C1936 C1937 1.327 . S
C1937 H1931 0.950 . S
C1937 C1936 1.327 . S
C1937 C1941 1.429 . S
C1938 C1921 1.574 . S
C1938 H1932 0.949 . S
C1938 C1942 1.368 . S
C1939 C1920 1.429 . S
C1939 C1933 1.429 . S
C1939 C1940 1.523 . S
C1940 C1921 1.368 . S
C1940 C1934 1.368 . S
C1940 C1939 1.523 . S
C1941 C1925 1.429 . S
C1941 C1937 1.429 . S
C1941 C1942 1.523 . S
C1942 C1926 1.368 . S
C1942 C1938 1.368 . S
C1942 C1941 1.523 . S
H1943 C1918 0.950 . S
H1944 C1920 0.950 . S
H1945 C1921 0.949 . S
H1946 C1923 0.950 . S
H1947 C1925 0.950 . S
C1948 C1949 1.349 . S
C1948 C1950 1.327 . S
C1948 H1973 0.950 . S
C1949 C1948 1.349 . S
C1949 C1965 1.349 . S
C1950 C1948 1.327 . S
C1950 C1969 1.429 . S
C1950 H1974 0.950 . S
C1951 C1968 1.574 . S
C1951 C1970 1.368 . S
C1951 H1975 0.949 . S
H1952 C1956 0.949 . S
C1953 C1954 1.349 . S
C1953 C1955 1.327 . S
C1953 H1976 0.950 . S
C1954 C1953 1.349 . S
C1954 C1966 1.349 . S
C1955 C1953 1.327 . S
C1955 C1971 1.429 . S
C1955 H1977 0.950 . S
C1956 H1952 0.949 . S
C1956 C1964 1.574 . S
C1956 C1972 1.368 . S
H1957 C1965 0.950 . S
H1958 C1963 0.950 . S
H1959 C1964 0.949 . S
H1960 C1966 0.950 . S
H1961 C1967 0.950 . S
H1962 C1968 0.949 . S
C1963 H1958 0.950 . S
C1963 C1965 1.327 . S
C1963 C1969 1.429 . S
C1964 C1956 1.574 . S
C1964 H1959 0.949 . S
C1964 C1970 1.368 . S
C1965 C1949 1.349 . S
C1965 H1957 0.950 . S
C1965 C1963 1.327 . S
C1966 C1954 1.349 . S
C1966 H1960 0.950 . S
C1966 C1967 1.327 . S
C1967 H1961 0.950 . S
C1967 C1966 1.327 . S
C1967 C1971 1.429 . S
C1968 C1951 1.574 . S
C1968 H1962 0.949 . S
C1968 C1972 1.368 . S
C1969 C1950 1.429 . S
C1969 C1963 1.429 . S
C1969 C1970 1.523 . S
C1970 C1951 1.368 . S
C1970 C1964 1.368 . S
C1970 C1969 1.523 . S
C1971 C1955 1.429 . S
C1971 C1967 1.429 . S
C1971 C1972 1.523 . S
C1972 C1956 1.368 . S
C1972 C1968 1.368 . S
C1972 C1971 1.523 . S
H1973 C1948 0.950 . S
H1974 C1950 0.950 . S
H1975 C1951 0.949 . S
H1976 C1953 0.950 . S
H1977 C1955 0.950 . S
C1978 C1979 1.349 . S
C1978 C1980 1.327 . S
C1978 H2003 0.950 . S
C1979 C1978 1.349 . S
C1979 C1995 1.349 . S
C1980 C1978 1.327 . S
C1980 C1999 1.429 . S
C1980 H2004 0.950 . S
C1981 C1998 1.574 . S
C1981 C2000 1.368 . S
C1981 H2005 0.949 . S
H1982 C1986 0.949 . S
C1983 C1984 1.349 . S
C1983 C1985 1.327 . S
C1983 H2006 0.950 . S
C1984 C1983 1.349 . S
C1984 C1996 1.349 . S
C1985 C1983 1.327 . S
C1985 C2001 1.429 . S
C1985 H2007 0.950 . S
C1986 H1982 0.949 . S
C1986 C1994 1.574 . S
C1986 C2002 1.368 . S
H1987 C1995 0.950 . S
H1988 C1993 0.950 . S
H1989 C1994 0.949 . S
H1990 C1996 0.950 . S
H1991 C1997 0.950 . S
H1992 C1998 0.949 . S
C1993 H1988 0.950 . S
C1993 C1995 1.327 . S
C1993 C1999 1.429 . S
C1994 C1986 1.574 . S
C1994 H1989 0.949 . S
C1994 C2000 1.368 . S
C1995 C1979 1.349 . S
C1995 H1987 0.950 . S
C1995 C1993 1.327 . S
C1996 C1984 1.349 . S
C1996 H1990 0.950 . S
C1996 C1997 1.327 . S
C1997 H1991 0.950 . S
C1997 C1996 1.327 . S
C1997 C2001 1.429 . S
C1998 C1981 1.574 . S
C1998 H1992 0.949 . S
C1998 C2002 1.368 . S
C1999 C1980 1.429 . S
C1999 C1993 1.429 . S
C1999 C2000 1.523 . S
C2000 C1981 1.368 . S
C2000 C1994 1.368 . S
C2000 C1999 1.523 . S
C2001 C1985 1.429 . S
C2001 C1997 1.429 . S
C2001 C2002 1.523 . S
C2002 C1986 1.368 . S
C2002 C1998 1.368 . S
C2002 C2001 1.523 . S
H2003 C1978 0.950 . S
H2004 C1980 0.950 . S
H2005 C1981 0.949 . S
H2006 C1983 0.950 . S
H2007 C1985 0.950 . S
C2008 C2009 1.349 . S
C2008 C2010 1.327 . S
C2008 H2033 0.950 . S
C2009 C2008 1.349 . S
C2009 C2025 1.349 . S
C2010 C2008 1.327 . S
C2010 C2029 1.429 . S
C2010 H2034 0.950 . S
C2011 C2028 1.574 . S
C2011 C2030 1.368 . S
C2011 H2035 0.949 . S
H2012 C2016 0.949 . S
C2013 C2014 1.349 . S
C2013 C2015 1.327 . S
C2013 H2036 0.950 . S
C2014 C2013 1.349 . S
C2014 C2026 1.349 . S
C2015 C2013 1.327 . S
C2015 C2031 1.429 . S
C2015 H2037 0.950 . S
C2016 H2012 0.949 . S
C2016 C2024 1.574 . S
C2016 C2032 1.368 . S
H2017 C2025 0.950 . S
H2018 C2023 0.950 . S
H2019 C2024 0.949 . S
H2020 C2026 0.950 . S
H2021 C2027 0.950 . S
H2022 C2028 0.949 . S
C2023 H2018 0.950 . S
C2023 C2025 1.327 . S
C2023 C2029 1.429 . S
C2024 C2016 1.574 . S
C2024 H2019 0.949 . S
C2024 C2030 1.368 . S
C2025 C2009 1.349 . S
C2025 H2017 0.950 . S
C2025 C2023 1.327 . S
C2026 C2014 1.349 . S
C2026 H2020 0.950 . S
C2026 C2027 1.327 . S
C2027 H2021 0.950 . S
C2027 C2026 1.327 . S
C2027 C2031 1.429 . S
C2028 C2011 1.574 . S
C2028 H2022 0.949 . S
C2028 C2032 1.368 . S
C2029 C2010 1.429 . S
C2029 C2023 1.429 . S
C2029 C2030 1.523 . S
C2030 C2011 1.368 . S
C2030 C2024 1.368 . S
C2030 C2029 1.523 . S
C2031 C2015 1.429 . S
C2031 C2027 1.429 . S
C2031 C2032 1.523 . S
C2032 C2016 1.368 . S
C2032 C2028 1.368 . S
C2032 C2031 1.523 . S
H2033 C2008 0.950 . S
H2034 C2010 0.950 . S
H2035 C2011 0.949 . S
H2036 C2013 0.950 . S
H2037 C2015 0.950 . S
C2038 C2039 1.349 . S
C2038 C2040 1.327 . S
C2038 H2063 0.950 . S
C2039 C2038 1.349 . S
C2039 C2055 1.349 . S
C2040 C2038 1.327 . S
C2040 C2059 1.429 . S
C2040 H2064 0.950 . S
C2041 C2058 1.574 . S
C2041 C2060 1.368 . S
C2041 H2065 0.949 . S
H2042 C2046 0.949 . S
C2043 C2044 1.349 . S
C2043 C2045 1.327 . S
C2043 H2066 0.950 . S
C2044 C2043 1.349 . S
C2044 C2056 1.349 . S
C2045 C2043 1.327 . S
C2045 C2061 1.429 . S
C2045 H2067 0.950 . S
C2046 H2042 0.949 . S
C2046 C2054 1.574 . S
C2046 C2062 1.368 . S
H2047 C2055 0.950 . S
H2048 C2053 0.950 . S
H2049 C2054 0.949 . S
H2050 C2056 0.950 . S
H2051 C2057 0.950 . S
H2052 C2058 0.949 . S
C2053 H2048 0.950 . S
C2053 C2055 1.327 . S
C2053 C2059 1.429 . S
C2054 C2046 1.574 . S
C2054 H2049 0.949 . S
C2054 C2060 1.368 . S
C2055 C2039 1.349 . S
C2055 H2047 0.950 . S
C2055 C2053 1.327 . S
C2056 C2044 1.349 . S
C2056 H2050 0.950 . S
C2056 C2057 1.327 . S
C2057 H2051 0.950 . S
C2057 C2056 1.327 . S
C2057 C2061 1.429 . S
C2058 C2041 1.574 . S
C2058 H2052 0.949 . S
C2058 C2062 1.368 . S
C2059 C2040 1.429 . S
C2059 C2053 1.429 . S
C2059 C2060 1.523 . S
C2060 C2041 1.368 . S
C2060 C2054 1.368 . S
C2060 C2059 1.523 . S
C2061 C2045 1.429 . S
C2061 C2057 1.429 . S
C2061 C2062 1.523 . S
C2062 C2046 1.368 . S
C2062 C2058 1.368 . S
C2062 C2061 1.523 . S
H2063 C2038 0.950 . S
H2064 C2040 0.950 . S
H2065 C2041 0.949 . S
H2066 C2043 0.950 . S
H2067 C2045 0.950 . S
C2068 C2069 1.349 . S
C2068 C2070 1.327 . S
C2068 H2093 0.950 . S
C2069 C2068 1.349 . S
C2069 C2085 1.349 . S
C2070 C2068 1.327 . S
C2070 C2089 1.429 . S
C2070 H2094 0.950 . S
C2071 C2088 1.574 . S
C2071 C2090 1.368 . S
C2071 H2095 0.949 . S
H2072 C2076 0.949 . S
C2073 C2074 1.349 . S
C2073 C2075 1.327 . S
C2073 H2096 0.950 . S
C2074 C2073 1.349 . S
C2074 C2086 1.349 . S
C2075 C2073 1.327 . S
C2075 C2091 1.429 . S
C2075 H2097 0.950 . S
C2076 H2072 0.949 . S
C2076 C2084 1.574 . S
C2076 C2092 1.368 . S
H2077 C2085 0.950 . S
H2078 C2083 0.950 . S
H2079 C2084 0.949 . S
H2080 C2086 0.950 . S
H2081 C2087 0.950 . S
H2082 C2088 0.949 . S
C2083 H2078 0.950 . S
C2083 C2085 1.327 . S
C2083 C2089 1.429 . S
C2084 C2076 1.574 . S
C2084 H2079 0.949 . S
C2084 C2090 1.368 . S
C2085 C2069 1.349 . S
C2085 H2077 0.950 . S
C2085 C2083 1.327 . S
C2086 C2074 1.349 . S
C2086 H2080 0.950 . S
C2086 C2087 1.327 . S
C2087 H2081 0.950 . S
C2087 C2086 1.327 . S
C2087 C2091 1.429 . S
C2088 C2071 1.574 . S
C2088 H2082 0.949 . S
C2088 C2092 1.368 . S
C2089 C2070 1.429 . S
C2089 C2083 1.429 . S
C2089 C2090 1.523 . S
C2090 C2071 1.368 . S
C2090 C2084 1.368 . S
C2090 C2089 1.523 . S
C2091 C2075 1.429 . S
C2091 C2087 1.429 . S
C2091 C2092 1.523 . S
C2092 C2076 1.368 . S
C2092 C2088 1.368 . S
C2092 C2091 1.523 . S
H2093 C2068 0.950 . S
H2094 C2070 0.950 . S
H2095 C2071 0.949 . S
H2096 C2073 0.950 . S
H2097 C2075 0.950 . S
C2098 C2099 1.349 . S
C2098 C2100 1.327 . S
C2098 H2123 0.950 . S
C2099 C2098 1.349 . S
C2099 C2115 1.349 . S
C2100 C2098 1.327 . S
C2100 C2119 1.429 . S
C2100 H2124 0.950 . S
C2101 C2118 1.574 . S
C2101 C2120 1.368 . S
C2101 H2125 0.949 . S
H2102 C2106 0.949 . S
C2103 C2104 1.349 . S
C2103 C2105 1.327 . S
C2103 H2126 0.950 . S
C2104 C2103 1.349 . S
C2104 C2116 1.349 . S
C2105 C2103 1.327 . S
C2105 C2121 1.429 . S
C2105 H2127 0.950 . S
C2106 H2102 0.949 . S
C2106 C2114 1.574 . S
C2106 C2122 1.368 . S
H2107 C2115 0.950 . S
H2108 C2113 0.950 . S
H2109 C2114 0.949 . S
H2110 C2116 0.950 . S
H2111 C2117 0.950 . S
H2112 C2118 0.949 . S
C2113 H2108 0.950 . S
C2113 C2115 1.327 . S
C2113 C2119 1.429 . S
C2114 C2106 1.574 . S
C2114 H2109 0.949 . S
C2114 C2120 1.368 . S
C2115 C2099 1.349 . S
C2115 H2107 0.950 . S
C2115 C2113 1.327 . S
C2116 C2104 1.349 . S
C2116 H2110 0.950 . S
C2116 C2117 1.327 . S
C2117 H2111 0.950 . S
C2117 C2116 1.327 . S
C2117 C2121 1.429 . S
C2118 C2101 1.574 . S
C2118 H2112 0.949 . S
C2118 C2122 1.368 . S
C2119 C2100 1.429 . S
C2119 C2113 1.429 . S
C2119 C2120 1.523 . S
C2120 C2101 1.368 . S
C2120 C2114 1.368 . S
C2120 C2119 1.523 . S
C2121 C2105 1.429 . S
C2121 C2117 1.429 . S
C2121 C2122 1.523 . S
C2122 C2106 1.368 . S
C2122 C2118 1.368 . S
C2122 C2121 1.523 . S
H2123 C2098 0.950 . S
H2124 C2100 0.950 . S
H2125 C2101 0.949 . S
H2126 C2103 0.950 . S
H2127 C2105 0.950 . S
C2128 C2129 1.349 . S
C2128 C2130 1.327 . S
C2128 H2153 0.950 . S
C2129 C2128 1.349 . S
C2129 C2145 1.349 . S
C2130 C2128 1.327 . S
C2130 C2149 1.429 . S
C2130 H2154 0.950 . S
C2131 C2148 1.574 . S
C2131 C2150 1.368 . S
C2131 H2155 0.949 . S
H2132 C2136 0.949 . S
C2133 C2134 1.349 . S
C2133 C2135 1.327 . S
C2133 H2156 0.950 . S
C2134 C2133 1.349 . S
C2134 C2146 1.349 . S
C2135 C2133 1.327 . S
C2135 C2151 1.429 . S
C2135 H2157 0.950 . S
C2136 H2132 0.949 . S
C2136 C2144 1.574 . S
C2136 C2152 1.368 . S
H2137 C2145 0.950 . S
H2138 C2143 0.950 . S
H2139 C2144 0.949 . S
H2140 C2146 0.950 . S
H2141 C2147 0.950 . S
H2142 C2148 0.949 . S
C2143 H2138 0.950 . S
C2143 C2145 1.327 . S
C2143 C2149 1.429 . S
C2144 C2136 1.574 . S
C2144 H2139 0.949 . S
C2144 C2150 1.368 . S
C2145 C2129 1.349 . S
C2145 H2137 0.950 . S
C2145 C2143 1.327 . S
C2146 C2134 1.349 . S
C2146 H2140 0.950 . S
C2146 C2147 1.327 . S
C2147 H2141 0.950 . S
C2147 C2146 1.327 . S
C2147 C2151 1.429 . S
C2148 C2131 1.574 . S
C2148 H2142 0.949 . S
C2148 C2152 1.368 . S
C2149 C2130 1.429 . S
C2149 C2143 1.429 . S
C2149 C2150 1.523 . S
C2150 C2131 1.368 . S
C2150 C2144 1.368 . S
C2150 C2149 1.523 . S
C2151 C2135 1.429 . S
C2151 C2147 1.429 . S
C2151 C2152 1.523 . S
C2152 C2136 1.368 . S
C2152 C2148 1.368 . S
C2152 C2151 1.523 . S
H2153 C2128 0.950 . S
H2154 C2130 0.950 . S
H2155 C2131 0.949 . S
H2156 C2133 0.950 . S
H2157 C2135 0.950 . S
C2158 C2159 1.349 . S
C2158 C2160 1.327 . S
C2158 H2183 0.950 . S
C2159 C2158 1.349 . S
C2159 C2175 1.349 . S
C2160 C2158 1.327 . S
C2160 C2179 1.429 . S
C2160 H2184 0.950 . S
C2161 C2178 1.574 . S
C2161 C2180 1.368 . S
C2161 H2185 0.949 . S
H2162 C2166 0.949 . S
C2163 C2164 1.349 . S
C2163 C2165 1.327 . S
C2163 H2186 0.950 . S
C2164 C2163 1.349 . S
C2164 C2176 1.349 . S
C2165 C2163 1.327 . S
C2165 C2181 1.429 . S
C2165 H2187 0.950 . S
C2166 H2162 0.949 . S
C2166 C2174 1.574 . S
C2166 C2182 1.368 . S
H2167 C2175 0.950 . S
H2168 C2173 0.950 . S
H2169 C2174 0.949 . S
H2170 C2176 0.950 . S
H2171 C2177 0.950 . S
H2172 C2178 0.949 . S
C2173 H2168 0.950 . S
C2173 C2175 1.327 . S
C2173 C2179 1.429 . S
C2174 C2166 1.574 . S
C2174 H2169 0.949 . S
C2174 C2180 1.368 . S
C2175 C2159 1.349 . S
C2175 H2167 0.950 . S
C2175 C2173 1.327 . S
C2176 C2164 1.349 . S
C2176 H2170 0.950 . S
C2176 C2177 1.327 . S
C2177 H2171 0.950 . S
C2177 C2176 1.327 . S
C2177 C2181 1.429 . S
C2178 C2161 1.574 . S
C2178 H2172 0.949 . S
C2178 C2182 1.368 . S
C2179 C2160 1.429 . S
C2179 C2173 1.429 . S
C2179 C2180 1.523 . S
C2180 C2161 1.368 . S
C2180 C2174 1.368 . S
C2180 C2179 1.523 . S
C2181 C2165 1.429 . S
C2181 C2177 1.429 . S
C2181 C2182 1.523 . S
C2182 C2166 1.368 . S
C2182 C2178 1.368 . S
C2182 C2181 1.523 . S
H2183 C2158 0.950 . S
H2184 C2160 0.950 . S
H2185 C2161 0.949 . S
H2186 C2163 0.950 . S
H2187 C2165 0.950 . S
C2188 C2189 1.349 . S
C2188 C2190 1.327 . S
C2188 H2213 0.950 . S
C2189 C2188 1.349 . S
C2189 C2205 1.349 . S
C2190 C2188 1.327 . S
C2190 C2209 1.429 . S
C2190 H2214 0.950 . S
C2191 C2208 1.574 . S
C2191 C2210 1.368 . S
C2191 H2215 0.949 . S
H2192 C2196 0.949 . S
C2193 C2194 1.349 . S
C2193 C2195 1.327 . S
C2193 H2216 0.950 . S
C2194 C2193 1.349 . S
C2194 C2206 1.349 . S
C2195 C2193 1.327 . S
C2195 C2211 1.429 . S
C2195 H2217 0.950 . S
C2196 H2192 0.949 . S
C2196 C2204 1.574 . S
C2196 C2212 1.368 . S
H2197 C2205 0.950 . S
H2198 C2203 0.950 . S
H2199 C2204 0.949 . S
H2200 C2206 0.950 . S
H2201 C2207 0.950 . S
H2202 C2208 0.949 . S
C2203 H2198 0.950 . S
C2203 C2205 1.327 . S
C2203 C2209 1.429 . S
C2204 C2196 1.574 . S
C2204 H2199 0.949 . S
C2204 C2210 1.368 . S
C2205 C2189 1.349 . S
C2205 H2197 0.950 . S
C2205 C2203 1.327 . S
C2206 C2194 1.349 . S
C2206 H2200 0.950 . S
C2206 C2207 1.327 . S
C2207 H2201 0.950 . S
C2207 C2206 1.327 . S
C2207 C2211 1.429 . S
C2208 C2191 1.574 . S
C2208 H2202 0.949 . S
C2208 C2212 1.368 . S
C2209 C2190 1.429 . S
C2209 C2203 1.429 . S
C2209 C2210 1.523 . S
C2210 C2191 1.368 . S
C2210 C2204 1.368 . S
C2210 C2209 1.523 . S
C2211 C2195 1.429 . S
C2211 C2207 1.429 . S
C2211 C2212 1.523 . S
C2212 C2196 1.368 . S
C2212 C2208 1.368 . S
C2212 C2211 1.523 . S
H2213 C2188 0.950 . S
H2214 C2190 0.950 . S
H2215 C2191 0.949 . S
H2216 C2193 0.950 . S
H2217 C2195 0.950 . S
C2218 C2219 1.349 . S
C2218 C2220 1.327 . S
C2218 H2243 0.950 . S
C2219 C2218 1.349 . S
C2219 C2235 1.349 . S
C2220 C2218 1.327 . S
C2220 C2239 1.429 . S
C2220 H2244 0.950 . S
C2221 C2238 1.574 . S
C2221 C2240 1.368 . S
C2221 H2245 0.949 . S
H2222 C2226 0.949 . S
C2223 C2224 1.349 . S
C2223 C2225 1.327 . S
C2223 H2246 0.950 . S
C2224 C2223 1.349 . S
C2224 C2236 1.349 . S
C2225 C2223 1.327 . S
C2225 C2241 1.429 . S
C2225 H2247 0.950 . S
C2226 H2222 0.949 . S
C2226 C2234 1.574 . S
C2226 C2242 1.368 . S
H2227 C2235 0.950 . S
H2228 C2233 0.950 . S
H2229 C2234 0.949 . S
H2230 C2236 0.950 . S
H2231 C2237 0.950 . S
H2232 C2238 0.949 . S
C2233 H2228 0.950 . S
C2233 C2235 1.327 . S
C2233 C2239 1.429 . S
C2234 C2226 1.574 . S
C2234 H2229 0.949 . S
C2234 C2240 1.368 . S
C2235 C2219 1.349 . S
C2235 H2227 0.950 . S
C2235 C2233 1.327 . S
C2236 C2224 1.349 . S
C2236 H2230 0.950 . S
C2236 C2237 1.327 . S
C2237 H2231 0.950 . S
C2237 C2236 1.327 . S
C2237 C2241 1.429 . S
C2238 C2221 1.574 . S
C2238 H2232 0.949 . S
C2238 C2242 1.368 . S
C2239 C2220 1.429 . S
C2239 C2233 1.429 . S
C2239 C2240 1.523 . S
C2240 C2221 1.368 . S
C2240 C2234 1.368 . S
C2240 C2239 1.523 . S
C2241 C2225 1.429 . S
C2241 C2237 1.429 . S
C2241 C2242 1.523 . S
C2242 C2226 1.368 . S
C2242 C2238 1.368 . S
C2242 C2241 1.523 . S
H2243 C2218 0.950 . S
H2244 C2220 0.950 . S
H2245 C2221 0.949 . S
H2246 C2223 0.950 . S
H2247 C2225 0.950 . S
C2248 C2249 1.349 . S
C2248 C2250 1.327 . S
C2248 H2273 0.950 . S
C2249 C2248 1.349 . S
C2249 C2265 1.349 . S
C2250 C2248 1.327 . S
C2250 C2269 1.429 . S
C2250 H2274 0.950 . S
C2251 C2268 1.574 . S
C2251 C2270 1.368 . S
C2251 H2275 0.949 . S
H2252 C2256 0.949 . S
C2253 C2254 1.349 . S
C2253 C2255 1.327 . S
C2253 H2276 0.950 . S
C2254 C2253 1.349 . S
C2254 C2266 1.349 . S
C2255 C2253 1.327 . S
C2255 C2271 1.429 . S
C2255 H2277 0.950 . S
C2256 H2252 0.949 . S
C2256 C2264 1.574 . S
C2256 C2272 1.368 . S
H2257 C2265 0.950 . S
H2258 C2263 0.950 . S
H2259 C2264 0.949 . S
H2260 C2266 0.950 . S
H2261 C2267 0.950 . S
H2262 C2268 0.949 . S
C2263 H2258 0.950 . S
C2263 C2265 1.327 . S
C2263 C2269 1.429 . S
C2264 C2256 1.574 . S
C2264 H2259 0.949 . S
C2264 C2270 1.368 . S
C2265 C2249 1.349 . S
C2265 H2257 0.950 . S
C2265 C2263 1.327 . S
C2266 C2254 1.349 . S
C2266 H2260 0.950 . S
C2266 C2267 1.327 . S
C2267 H2261 0.950 . S
C2267 C2266 1.327 . S
C2267 C2271 1.429 . S
C2268 C2251 1.574 . S
C2268 H2262 0.949 . S
C2268 C2272 1.368 . S
C2269 C2250 1.429 . S
C2269 C2263 1.429 . S
C2269 C2270 1.523 . S
C2270 C2251 1.368 . S
C2270 C2264 1.368 . S
C2270 C2269 1.523 . S
C2271 C2255 1.429 . S
C2271 C2267 1.429 . S
C2271 C2272 1.523 . S
C2272 C2256 1.368 . S
C2272 C2268 1.368 . S
C2272 C2271 1.523 . S
H2273 C2248 0.950 . S
H2274 C2250 0.950 . S
H2275 C2251 0.949 . S
H2276 C2253 0.950 . S
H2277 C2255 0.950 . S
C2278 C2279 1.349 . S
C2278 C2280 1.327 . S
C2278 H2303 0.950 . S
C2279 C2278 1.349 . S
C2279 C2295 1.349 . S
C2280 C2278 1.327 . S
C2280 C2299 1.429 . S
C2280 H2304 0.950 . S
C2281 C2298 1.574 . S
C2281 C2300 1.368 . S
C2281 H2305 0.949 . S
H2282 C2286 0.949 . S
C2283 C2284 1.349 . S
C2283 C2285 1.327 . S
C2283 H2306 0.950 . S
C2284 C2283 1.349 . S
C2284 C2296 1.349 . S
C2285 C2283 1.327 . S
C2285 C2301 1.429 . S
C2285 H2307 0.950 . S
C2286 H2282 0.949 . S
C2286 C2294 1.574 . S
C2286 C2302 1.368 . S
H2287 C2295 0.950 . S
H2288 C2293 0.950 . S
H2289 C2294 0.949 . S
H2290 C2296 0.950 . S
H2291 C2297 0.950 . S
H2292 C2298 0.949 . S
C2293 H2288 0.950 . S
C2293 C2295 1.327 . S
C2293 C2299 1.429 . S
C2294 C2286 1.574 . S
C2294 H2289 0.949 . S
C2294 C2300 1.368 . S
C2295 C2279 1.349 . S
C2295 H2287 0.950 . S
C2295 C2293 1.327 . S
C2296 C2284 1.349 . S
C2296 H2290 0.950 . S
C2296 C2297 1.327 . S
C2297 H2291 0.950 . S
C2297 C2296 1.327 . S
C2297 C2301 1.429 . S
C2298 C2281 1.574 . S
C2298 H2292 0.949 . S
C2298 C2302 1.368 . S
C2299 C2280 1.429 . S
C2299 C2293 1.429 . S
C2299 C2300 1.523 . S
C2300 C2281 1.368 . S
C2300 C2294 1.368 . S
C2300 C2299 1.523 . S
C2301 C2285 1.429 . S
C2301 C2297 1.429 . S
C2301 C2302 1.523 . S
C2302 C2286 1.368 . S
C2302 C2298 1.368 . S
C2302 C2301 1.523 . S
H2303 C2278 0.950 . S
H2304 C2280 0.950 . S
H2305 C2281 0.949 . S
H2306 C2283 0.950 . S
H2307 C2285 0.950 . S
C2308 C2309 1.349 . S
C2308 C2310 1.327 . S
C2308 H2333 0.950 . S
C2309 C2308 1.349 . S
C2309 C2325 1.349 . S
C2310 C2308 1.327 . S
C2310 C2329 1.429 . S
C2310 H2334 0.950 . S
C2311 C2328 1.574 . S
C2311 C2330 1.368 . S
C2311 H2335 0.949 . S
H2312 C2316 0.949 . S
C2313 C2314 1.349 . S
C2313 C2315 1.327 . S
C2313 H2336 0.950 . S
C2314 C2313 1.349 . S
C2314 C2326 1.349 . S
C2315 C2313 1.327 . S
C2315 C2331 1.429 . S
C2315 H2337 0.950 . S
C2316 H2312 0.949 . S
C2316 C2324 1.574 . S
C2316 C2332 1.368 . S
H2317 C2325 0.950 . S
H2318 C2323 0.950 . S
H2319 C2324 0.949 . S
H2320 C2326 0.950 . S
H2321 C2327 0.950 . S
H2322 C2328 0.949 . S
C2323 H2318 0.950 . S
C2323 C2325 1.327 . S
C2323 C2329 1.429 . S
C2324 C2316 1.574 . S
C2324 H2319 0.949 . S
C2324 C2330 1.368 . S
C2325 C2309 1.349 . S
C2325 H2317 0.950 . S
C2325 C2323 1.327 . S
C2326 C2314 1.349 . S
C2326 H2320 0.950 . S
C2326 C2327 1.327 . S
C2327 H2321 0.950 . S
C2327 C2326 1.327 . S
C2327 C2331 1.429 . S
C2328 C2311 1.574 . S
C2328 H2322 0.949 . S
C2328 C2332 1.368 . S
C2329 C2310 1.429 . S
C2329 C2323 1.429 . S
C2329 C2330 1.523 . S
C2330 C2311 1.368 . S
C2330 C2324 1.368 . S
C2330 C2329 1.523 . S
C2331 C2315 1.429 . S
C2331 C2327 1.429 . S
C2331 C2332 1.523 . S
C2332 C2316 1.368 . S
C2332 C2328 1.368 . S
C2332 C2331 1.523 . S
H2333 C2308 0.950 . S
H2334 C2310 0.950 . S
H2335 C2311 0.949 . S
H2336 C2313 0.950 . S
H2337 C2315 0.950 . S
C2338 C2339 1.349 . S
C2338 C2340 1.327 . S
C2338 H2363 0.950 . S
C2339 C2338 1.349 . S
C2339 C2355 1.349 . S
C2340 C2338 1.327 . S
C2340 C2359 1.429 . S
C2340 H2364 0.950 . S
C2341 C2358 1.574 . S
C2341 C2360 1.368 . S
C2341 H2365 0.949 . S
H2342 C2346 0.949 . S
C2343 C2344 1.349 . S
C2343 C2345 1.327 . S
C2343 H2366 0.950 . S
C2344 C2343 1.349 . S
C2344 C2356 1.349 . S
C2345 C2343 1.327 . S
C2345 C2361 1.429 . S
C2345 H2367 0.950 . S
C2346 H2342 0.949 . S
C2346 C2354 1.574 . S
C2346 C2362 1.368 . S
H2347 C2355 0.950 . S
H2348 C2353 0.950 . S
H2349 C2354 0.949 . S
H2350 C2356 0.950 . S
H2351 C2357 0.950 . S
H2352 C2358 0.949 . S
C2353 H2348 0.950 . S
C2353 C2355 1.327 . S
C2353 C2359 1.429 . S
C2354 C2346 1.574 . S
C2354 H2349 0.949 . S
C2354 C2360 1.368 . S
C2355 C2339 1.349 . S
C2355 H2347 0.950 . S
C2355 C2353 1.327 . S
C2356 C2344 1.349 . S
C2356 H2350 0.950 . S
C2356 C2357 1.327 . S
C2357 H2351 0.950 . S
C2357 C2356 1.327 . S
C2357 C2361 1.429 . S
C2358 C2341 1.574 . S
C2358 H2352 0.949 . S
C2358 C2362 1.368 . S
C2359 C2340 1.429 . S
C2359 C2353 1.429 . S
C2359 C2360 1.523 . S
C2360 C2341 1.368 . S
C2360 C2354 1.368 . S
C2360 C2359 1.523 . S
C2361 C2345 1.429 . S
C2361 C2357 1.429 . S
C2361 C2362 1.523 . S
C2362 C2346 1.368 . S
C2362 C2358 1.368 . S
C2362 C2361 1.523 . S
H2363 C2338 0.950 . S
H2364 C2340 0.950 . S
H2365 C2341 0.949 . S
H2366 C2343 0.950 . S
H2367 C2345 0.950 . S
C2368 C2369 1.349 . S
C2368 C2370 1.327 . S
C2368 H2393 0.950 . S
C2369 C2368 1.349 . S
C2369 C2385 1.349 . S
C2370 C2368 1.327 . S
C2370 C2389 1.429 . S
C2370 H2394 0.950 . S
C2371 C2388 1.574 1_455 S
C2371 C2390 1.368 . S
C2371 H2395 0.949 . S
H2372 C2376 0.949 . S
C2373 C2374 1.349 . S
C2373 C2375 1.327 . S
C2373 H2396 0.950 . S
C2374 C2373 1.349 . S
C2374 C2386 1.349 . S
C2375 C2373 1.327 . S
C2375 C2391 1.429 . S
C2375 H2397 0.950 . S
C2376 H2372 0.949 . S
C2376 C2384 1.574 1_655 S
C2376 C2392 1.368 . S
H2377 C2385 0.950 . S
H2378 C2383 0.950 . S
H2379 C2384 0.949 . S
H2380 C2386 0.950 . S
H2381 C2387 0.950 . S
H2382 C2388 0.949 . S
C2383 H2378 0.950 . S
C2383 C2385 1.327 . S
C2383 C2389 1.429 . S
C2384 C2376 1.574 1_455 S
C2384 H2379 0.949 . S
C2384 C2390 1.368 . S
C2385 C2369 1.349 . S
C2385 H2377 0.950 . S
C2385 C2383 1.327 . S
C2386 C2374 1.349 . S
C2386 H2380 0.950 . S
C2386 C2387 1.327 . S
C2387 H2381 0.950 . S
C2387 C2386 1.327 . S
C2387 C2391 1.429 . S
C2388 C2371 1.574 1_655 S
C2388 H2382 0.949 . S
C2388 C2392 1.368 . S
C2389 C2370 1.429 . S
C2389 C2383 1.429 . S
C2389 C2390 1.523 . S
C2390 C2371 1.368 . S
C2390 C2384 1.368 . S
C2390 C2389 1.523 . S
C2391 C2375 1.429 . S
C2391 C2387 1.429 . S
C2391 C2392 1.523 . S
C2392 C2376 1.368 . S
C2392 C2388 1.368 . S
C2392 C2391 1.523 . S
H2393 C2368 0.950 . S
H2394 C2370 0.950 . S
H2395 C2371 0.949 . S
H2396 C2373 0.950 . S
H2397 C2375 0.950 . S
C2398 C2399 1.349 . S
C2398 C2400 1.327 . S
C2398 H2423 0.950 . S
C2399 C2398 1.349 . S
C2399 C2415 1.349 . S
C2400 C2398 1.327 . S
C2400 C2419 1.429 . S
C2400 H2424 0.950 . S
C2401 C2418 1.574 . S
C2401 C2420 1.368 . S
C2401 H2425 0.949 . S
H2402 C2406 0.949 . S
C2403 C2404 1.349 . S
C2403 C2405 1.327 . S
C2403 H2426 0.950 . S
C2404 C2403 1.349 . S
C2404 C2416 1.349 . S
C2405 C2403 1.327 . S
C2405 C2421 1.429 . S
C2405 H2427 0.950 . S
C2406 H2402 0.949 . S
C2406 C2414 1.574 . S
C2406 C2422 1.368 . S
H2407 C2415 0.950 . S
H2408 C2413 0.950 . S
H2409 C2414 0.949 . S
H2410 C2416 0.950 . S
H2411 C2417 0.950 . S
H2412 C2418 0.949 . S
C2413 H2408 0.950 . S
C2413 C2415 1.327 . S
C2413 C2419 1.429 . S
C2414 C2406 1.574 . S
C2414 H2409 0.949 . S
C2414 C2420 1.368 . S
C2415 C2399 1.349 . S
C2415 H2407 0.950 . S
C2415 C2413 1.327 . S
C2416 C2404 1.349 . S
C2416 H2410 0.950 . S
C2416 C2417 1.327 . S
C2417 H2411 0.950 . S
C2417 C2416 1.327 . S
C2417 C2421 1.429 . S
C2418 C2401 1.574 . S
C2418 H2412 0.949 . S
C2418 C2422 1.368 . S
C2419 C2400 1.429 . S
C2419 C2413 1.429 . S
C2419 C2420 1.523 . S
C2420 C2401 1.368 . S
C2420 C2414 1.368 . S
C2420 C2419 1.523 . S
C2421 C2405 1.429 . S
C2421 C2417 1.429 . S
C2421 C2422 1.523 . S
C2422 C2406 1.368 . S
C2422 C2418 1.368 . S
C2422 C2421 1.523 . S
H2423 C2398 0.950 . S
H2424 C2400 0.950 . S
H2425 C2401 0.949 . S
H2426 C2403 0.950 . S
H2427 C2405 0.950 . S
C2428 C2429 1.349 . S
C2428 C2430 1.327 . S
C2428 H2453 0.950 . S
C2429 C2428 1.349 . S
C2429 C2445 1.349 . S
C2430 C2428 1.327 . S
C2430 C2449 1.429 . S
C2430 H2454 0.950 . S
C2431 C2448 1.574 . S
C2431 C2450 1.368 . S
C2431 H2455 0.949 . S
H2432 C2436 0.949 . S
C2433 C2434 1.349 . S
C2433 C2435 1.327 . S
C2433 H2456 0.950 . S
C2434 C2433 1.349 . S
C2434 C2446 1.349 . S
C2435 C2433 1.327 . S
C2435 C2451 1.429 . S
C2435 H2457 0.950 . S
C2436 H2432 0.949 . S
C2436 C2444 1.574 . S
C2436 C2452 1.368 . S
H2437 C2445 0.950 . S
H2438 C2443 0.950 . S
H2439 C2444 0.949 . S
H2440 C2446 0.950 . S
H2441 C2447 0.950 . S
H2442 C2448 0.949 . S
C2443 H2438 0.950 . S
C2443 C2445 1.327 . S
C2443 C2449 1.429 . S
C2444 C2436 1.574 . S
C2444 H2439 0.949 . S
C2444 C2450 1.368 . S
C2445 C2429 1.349 . S
C2445 H2437 0.950 . S
C2445 C2443 1.327 . S
C2446 C2434 1.349 . S
C2446 H2440 0.950 . S
C2446 C2447 1.327 . S
C2447 H2441 0.950 . S
C2447 C2446 1.327 . S
C2447 C2451 1.429 . S
C2448 C2431 1.574 . S
C2448 H2442 0.949 . S
C2448 C2452 1.368 . S
C2449 C2430 1.429 . S
C2449 C2443 1.429 . S
C2449 C2450 1.523 . S
C2450 C2431 1.368 . S
C2450 C2444 1.368 . S
C2450 C2449 1.523 . S
C2451 C2435 1.429 . S
C2451 C2447 1.429 . S
C2451 C2452 1.523 . S
C2452 C2436 1.368 . S
C2452 C2448 1.368 . S
C2452 C2451 1.523 . S
H2453 C2428 0.950 . S
H2454 C2430 0.950 . S
H2455 C2431 0.949 . S
H2456 C2433 0.950 . S
H2457 C2435 0.950 . S
C2458 C2459 1.349 . S
C2458 C2460 1.327 . S
C2458 H2483 0.950 . S
C2459 C2458 1.349 . S
C2459 C2475 1.349 . S
C2460 C2458 1.327 . S
C2460 C2479 1.429 . S
C2460 H2484 0.950 . S
C2461 C2478 1.574 . S
C2461 C2480 1.368 . S
C2461 H2485 0.949 . S
H2462 C2466 0.949 . S
C2463 C2464 1.349 . S
C2463 C2465 1.327 . S
C2463 H2486 0.950 . S
C2464 C2463 1.349 . S
C2464 C2476 1.349 . S
C2465 C2463 1.327 . S
C2465 C2481 1.429 . S
C2465 H2487 0.950 . S
C2466 H2462 0.949 . S
C2466 C2474 1.574 . S
C2466 C2482 1.368 . S
H2467 C2475 0.950 . S
H2468 C2473 0.950 . S
H2469 C2474 0.949 . S
H2470 C2476 0.950 . S
H2471 C2477 0.950 . S
H2472 C2478 0.949 . S
C2473 H2468 0.950 . S
C2473 C2475 1.327 . S
C2473 C2479 1.429 . S
C2474 C2466 1.574 . S
C2474 H2469 0.949 . S
C2474 C2480 1.368 . S
C2475 C2459 1.349 . S
C2475 H2467 0.950 . S
C2475 C2473 1.327 . S
C2476 C2464 1.349 . S
C2476 H2470 0.950 . S
C2476 C2477 1.327 . S
C2477 H2471 0.950 . S
C2477 C2476 1.327 . S
C2477 C2481 1.429 . S
C2478 C2461 1.574 . S
C2478 H2472 0.949 . S
C2478 C2482 1.368 . S
C2479 C2460 1.429 . S
C2479 C2473 1.429 . S
C2479 C2480 1.523 . S
C2480 C2461 1.368 . S
C2480 C2474 1.368 . S
C2480 C2479 1.523 . S
C2481 C2465 1.429 . S
C2481 C2477 1.429 . S
C2481 C2482 1.523 . S
C2482 C2466 1.368 . S
C2482 C2478 1.368 . S
C2482 C2481 1.523 . S
H2483 C2458 0.950 . S
H2484 C2460 0.950 . S
H2485 C2461 0.949 . S
H2486 C2463 0.950 . S
H2487 C2465 0.950 . S
C2488 C2489 1.349 . S
C2488 C2490 1.327 . S
C2488 H2513 0.950 1_556 S
C2489 C2488 1.349 . S
C2489 C2505 1.349 . S
C2490 C2488 1.327 . S
C2490 C2509 1.429 . S
C2490 H2514 0.950 1_556 S
C2491 C2508 1.574 1_655 S
C2491 C2510 1.368 . S
C2491 H2515 0.949 . S
H2492 C2496 0.949 1_554 S
C2493 C2494 1.349 . S
C2493 C2495 1.327 . S
C2493 H2516 0.950 . S
C2494 C2493 1.349 . S
C2494 C2506 1.349 . S
C2495 C2493 1.327 . S
C2495 C2511 1.429 . S
C2495 H2517 0.950 . S
C2496 H2492 0.949 1_556 S
C2496 C2504 1.574 1_455 S
C2496 C2512 1.368 . S
H2497 C2505 0.950 . S
H2498 C2503 0.950 . S
H2499 C2504 0.949 1_554 S
H2500 C2506 0.950 1_554 S
H2501 C2507 0.950 1_554 S
H2502 C2508 0.949 . S
C2503 H2498 0.950 . S
C2503 C2505 1.327 . S
C2503 C2509 1.429 . S
C2504 C2496 1.574 1_655 S
C2504 H2499 0.949 1_556 S
C2504 C2510 1.368 . S
C2505 C2489 1.349 . S
C2505 H2497 0.950 . S
C2505 C2503 1.327 . S
C2506 C2494 1.349 . S
C2506 H2500 0.950 1_556 S
C2506 C2507 1.327 . S
C2507 H2501 0.950 1_556 S
C2507 C2506 1.327 . S
C2507 C2511 1.429 . S
C2508 C2491 1.574 1_455 S
C2508 H2502 0.949 . S
C2508 C2512 1.368 . S
C2509 C2490 1.429 . S
C2509 C2503 1.429 . S
C2509 C2510 1.523 . S
C2510 C2491 1.368 . S
C2510 C2504 1.368 . S
C2510 C2509 1.523 . S
C2511 C2495 1.429 . S
C2511 C2507 1.429 . S
C2511 C2512 1.523 . S
C2512 C2496 1.368 . S
C2512 C2508 1.368 . S
C2512 C2511 1.523 . S
H2513 C2488 0.950 1_554 S
H2514 C2490 0.950 1_554 S
H2515 C2491 0.949 . S
H2516 C2493 0.950 . S
H2517 C2495 0.950 . S
C2518 C2519 1.349 . S
C2518 C2520 1.327 . S
C2518 H2543 0.950 . S
C2519 C2518 1.349 . S
C2519 C2535 1.349 . S
C2520 C2518 1.327 . S
C2520 C2539 1.429 . S
C2520 H2544 0.950 . S
C2521 C2538 1.574 . S
C2521 C2540 1.368 . S
C2521 H2545 0.949 . S
H2522 C2526 0.949 . S
C2523 C2524 1.349 . S
C2523 C2525 1.327 . S
C2523 H2546 0.950 . S
C2524 C2523 1.349 . S
C2524 C2536 1.349 . S
C2525 C2523 1.327 . S
C2525 C2541 1.429 . S
C2525 H2547 0.950 . S
C2526 H2522 0.949 . S
C2526 C2534 1.574 . S
C2526 C2542 1.368 . S
H2527 C2535 0.950 . S
H2528 C2533 0.950 . S
H2529 C2534 0.949 . S
H2530 C2536 0.950 . S
H2531 C2537 0.950 . S
H2532 C2538 0.949 . S
C2533 H2528 0.950 . S
C2533 C2535 1.327 . S
C2533 C2539 1.429 . S
C2534 C2526 1.574 . S
C2534 H2529 0.949 . S
C2534 C2540 1.368 . S
C2535 C2519 1.349 . S
C2535 H2527 0.950 . S
C2535 C2533 1.327 . S
C2536 C2524 1.349 . S
C2536 H2530 0.950 . S
C2536 C2537 1.327 . S
C2537 H2531 0.950 . S
C2537 C2536 1.327 . S
C2537 C2541 1.429 . S
C2538 C2521 1.574 . S
C2538 H2532 0.949 . S
C2538 C2542 1.368 . S
C2539 C2520 1.429 . S
C2539 C2533 1.429 . S
C2539 C2540 1.523 . S
C2540 C2521 1.368 . S
C2540 C2534 1.368 . S
C2540 C2539 1.523 . S
C2541 C2525 1.429 . S
C2541 C2537 1.429 . S
C2541 C2542 1.523 . S
C2542 C2526 1.368 . S
C2542 C2538 1.368 . S
C2542 C2541 1.523 . S
H2543 C2518 0.950 . S
H2544 C2520 0.950 . S
H2545 C2521 0.949 . S
H2546 C2523 0.950 . S
H2547 C2525 0.950 . S
C2548 C2549 1.349 . S
C2548 C2550 1.327 . S
C2548 H2573 0.950 . S
C2549 C2548 1.349 . S
C2549 C2565 1.349 . S
C2550 C2548 1.327 . S
C2550 C2569 1.429 . S
C2550 H2574 0.950 . S
C2551 C2568 1.574 . S
C2551 C2570 1.368 . S
C2551 H2575 0.949 . S
H2552 C2556 0.949 . S
C2553 C2554 1.349 . S
C2553 C2555 1.327 . S
C2553 H2576 0.950 . S
C2554 C2553 1.349 . S
C2554 C2566 1.349 . S
C2555 C2553 1.327 . S
C2555 C2571 1.429 . S
C2555 H2577 0.950 . S
C2556 H2552 0.949 . S
C2556 C2564 1.574 . S
C2556 C2572 1.368 . S
H2557 C2565 0.950 . S
H2558 C2563 0.950 . S
H2559 C2564 0.949 . S
H2560 C2566 0.950 . S
H2561 C2567 0.950 . S
H2562 C2568 0.949 . S
C2563 H2558 0.950 . S
C2563 C2565 1.327 . S
C2563 C2569 1.429 . S
C2564 C2556 1.574 . S
C2564 H2559 0.949 . S
C2564 C2570 1.368 . S
C2565 C2549 1.349 . S
C2565 H2557 0.950 . S
C2565 C2563 1.327 . S
C2566 C2554 1.349 . S
C2566 H2560 0.950 . S
C2566 C2567 1.327 . S
C2567 H2561 0.950 . S
C2567 C2566 1.327 . S
C2567 C2571 1.429 . S
C2568 C2551 1.574 . S
C2568 H2562 0.949 . S
C2568 C2572 1.368 . S
C2569 C2550 1.429 . S
C2569 C2563 1.429 . S
C2569 C2570 1.523 . S
C2570 C2551 1.368 . S
C2570 C2564 1.368 . S
C2570 C2569 1.523 . S
C2571 C2555 1.429 . S
C2571 C2567 1.429 . S
C2571 C2572 1.523 . S
C2572 C2556 1.368 . S
C2572 C2568 1.368 . S
C2572 C2571 1.523 . S
H2573 C2548 0.950 . S
H2574 C2550 0.950 . S
H2575 C2551 0.949 . S
H2576 C2553 0.950 . S
H2577 C2555 0.950 . S
C2578 C2579 1.349 . S
C2578 C2580 1.327 . S
C2578 H2603 0.950 . S
C2579 C2578 1.349 . S
C2579 C2595 1.349 . S
C2580 C2578 1.327 . S
C2580 C2599 1.429 . S
C2580 H2604 0.950 . S
C2581 C2598 1.574 . S
C2581 C2600 1.368 . S
C2581 H2605 0.949 . S
H2582 C2586 0.949 . S
C2583 C2584 1.349 . S
C2583 C2585 1.327 . S
C2583 H2606 0.950 . S
C2584 C2583 1.349 . S
C2584 C2596 1.349 . S
C2585 C2583 1.327 . S
C2585 C2601 1.429 . S
C2585 H2607 0.950 . S
C2586 H2582 0.949 . S
C2586 C2594 1.574 . S
C2586 C2602 1.368 . S
H2587 C2595 0.950 . S
H2588 C2593 0.950 . S
H2589 C2594 0.949 . S
H2590 C2596 0.950 . S
H2591 C2597 0.950 . S
H2592 C2598 0.949 . S
C2593 H2588 0.950 . S
C2593 C2595 1.327 . S
C2593 C2599 1.429 . S
C2594 C2586 1.574 . S
C2594 H2589 0.949 . S
C2594 C2600 1.368 . S
C2595 C2579 1.349 . S
C2595 H2587 0.950 . S
C2595 C2593 1.327 . S
C2596 C2584 1.349 . S
C2596 H2590 0.950 . S
C2596 C2597 1.327 . S
C2597 H2591 0.950 . S
C2597 C2596 1.327 . S
C2597 C2601 1.429 . S
C2598 C2581 1.574 . S
C2598 H2592 0.949 . S
C2598 C2602 1.368 . S
C2599 C2580 1.429 . S
C2599 C2593 1.429 . S
C2599 C2600 1.523 . S
C2600 C2581 1.368 . S
C2600 C2594 1.368 . S
C2600 C2599 1.523 . S
C2601 C2585 1.429 . S
C2601 C2597 1.429 . S
C2601 C2602 1.523 . S
C2602 C2586 1.368 . S
C2602 C2598 1.368 . S
C2602 C2601 1.523 . S
H2603 C2578 0.950 . S
H2604 C2580 0.950 . S
H2605 C2581 0.949 . S
H2606 C2583 0.950 . S
H2607 C2585 0.950 . S
C2608 C2609 1.349 . S
C2608 C2610 1.327 . S
C2608 H2633 0.950 . S
C2609 C2608 1.349 . S
C2609 C2625 1.349 . S
C2610 C2608 1.327 . S
C2610 C2629 1.429 . S
C2610 H2634 0.950 . S
C2611 C2628 1.574 . S
C2611 C2630 1.368 . S
C2611 H2635 0.949 . S
H2612 C2616 0.949 . S
C2613 C2614 1.349 . S
C2613 C2615 1.327 . S
C2613 H2636 0.950 . S
C2614 C2613 1.349 . S
C2614 C2626 1.349 . S
C2615 C2613 1.327 . S
C2615 C2631 1.429 . S
C2615 H2637 0.950 . S
C2616 H2612 0.949 . S
C2616 C2624 1.574 . S
C2616 C2632 1.368 . S
H2617 C2625 0.950 . S
H2618 C2623 0.950 . S
H2619 C2624 0.949 . S
H2620 C2626 0.950 . S
H2621 C2627 0.950 . S
H2622 C2628 0.949 . S
C2623 H2618 0.950 . S
C2623 C2625 1.327 . S
C2623 C2629 1.429 . S
C2624 C2616 1.574 . S
C2624 H2619 0.949 . S
C2624 C2630 1.368 . S
C2625 C2609 1.349 . S
C2625 H2617 0.950 . S
C2625 C2623 1.327 . S
C2626 C2614 1.349 . S
C2626 H2620 0.950 . S
C2626 C2627 1.327 . S
C2627 H2621 0.950 . S
C2627 C2626 1.327 . S
C2627 C2631 1.429 . S
C2628 C2611 1.574 . S
C2628 H2622 0.949 . S
C2628 C2632 1.368 . S
C2629 C2610 1.429 . S
C2629 C2623 1.429 . S
C2629 C2630 1.523 . S
C2630 C2611 1.368 . S
C2630 C2624 1.368 . S
C2630 C2629 1.523 . S
C2631 C2615 1.429 . S
C2631 C2627 1.429 . S
C2631 C2632 1.523 . S
C2632 C2616 1.368 . S
C2632 C2628 1.368 . S
C2632 C2631 1.523 . S
H2633 C2608 0.950 . S
H2634 C2610 0.950 . S
H2635 C2611 0.949 . S
H2636 C2613 0.950 . S
H2637 C2615 0.950 . S
C2638 C2639 1.349 . S
C2638 C2640 1.327 . S
C2638 H2663 0.950 . S
C2639 C2638 1.349 . S
C2639 C2655 1.349 . S
C2640 C2638 1.327 . S
C2640 C2659 1.429 . S
C2640 H2664 0.950 . S
C2641 C2658 1.574 . S
C2641 C2660 1.368 . S
C2641 H2665 0.949 . S
H2642 C2646 0.949 . S
C2643 C2644 1.349 . S
C2643 C2645 1.327 . S
C2643 H2666 0.950 . S
C2644 C2643 1.349 . S
C2644 C2656 1.349 . S
C2645 C2643 1.327 . S
C2645 C2661 1.429 . S
C2645 H2667 0.950 . S
C2646 H2642 0.949 . S
C2646 C2654 1.574 . S
C2646 C2662 1.368 . S
H2647 C2655 0.950 . S
H2648 C2653 0.950 . S
H2649 C2654 0.949 . S
H2650 C2656 0.950 . S
H2651 C2657 0.950 . S
H2652 C2658 0.949 . S
C2653 H2648 0.950 . S
C2653 C2655 1.327 . S
C2653 C2659 1.429 . S
C2654 C2646 1.574 . S
C2654 H2649 0.949 . S
C2654 C2660 1.368 . S
C2655 C2639 1.349 . S
C2655 H2647 0.950 . S
C2655 C2653 1.327 . S
C2656 C2644 1.349 . S
C2656 H2650 0.950 . S
C2656 C2657 1.327 . S
C2657 H2651 0.950 . S
C2657 C2656 1.327 . S
C2657 C2661 1.429 . S
C2658 C2641 1.574 . S
C2658 H2652 0.949 . S
C2658 C2662 1.368 . S
C2659 C2640 1.429 . S
C2659 C2653 1.429 . S
C2659 C2660 1.523 . S
C2660 C2641 1.368 . S
C2660 C2654 1.368 . S
C2660 C2659 1.523 . S
C2661 C2645 1.429 . S
C2661 C2657 1.429 . S
C2661 C2662 1.523 . S
C2662 C2646 1.368 . S
C2662 C2658 1.368 . S
C2662 C2661 1.523 . S
H2663 C2638 0.950 . S
H2664 C2640 0.950 . S
H2665 C2641 0.949 . S
H2666 C2643 0.950 . S
H2667 C2645 0.950 . S
C2668 C2669 1.349 . S
C2668 C2670 1.327 . S
C2668 H2693 0.950 . S
C2669 C2668 1.349 . S
C2669 C2685 1.349 . S
C2670 C2668 1.327 . S
C2670 C2689 1.429 . S
C2670 H2694 0.950 . S
C2671 C2688 1.574 . S
C2671 C2690 1.368 . S
C2671 H2695 0.949 . S
H2672 C2676 0.949 . S
C2673 C2674 1.349 . S
C2673 C2675 1.327 . S
C2673 H2696 0.950 . S
C2674 C2673 1.349 . S
C2674 C2686 1.349 . S
C2675 C2673 1.327 . S
C2675 C2691 1.429 . S
C2675 H2697 0.950 . S
C2676 H2672 0.949 . S
C2676 C2684 1.574 . S
C2676 C2692 1.368 . S
H2677 C2685 0.950 . S
H2678 C2683 0.950 . S
H2679 C2684 0.949 . S
H2680 C2686 0.950 . S
H2681 C2687 0.950 . S
H2682 C2688 0.949 . S
C2683 H2678 0.950 . S
C2683 C2685 1.327 . S
C2683 C2689 1.429 . S
C2684 C2676 1.574 . S
C2684 H2679 0.949 . S
C2684 C2690 1.368 . S
C2685 C2669 1.349 . S
C2685 H2677 0.950 . S
C2685 C2683 1.327 . S
C2686 C2674 1.349 . S
C2686 H2680 0.950 . S
C2686 C2687 1.327 . S
C2687 H2681 0.950 . S
C2687 C2686 1.327 . S
C2687 C2691 1.429 . S
C2688 C2671 1.574 . S
C2688 H2682 0.949 . S
C2688 C2692 1.368 . S
C2689 C2670 1.429 . S
C2689 C2683 1.429 . S
C2689 C2690 1.523 . S
C2690 C2671 1.368 . S
C2690 C2684 1.368 . S
C2690 C2689 1.523 . S
C2691 C2675 1.429 . S
C2691 C2687 1.429 . S
C2691 C2692 1.523 . S
C2692 C2676 1.368 . S
C2692 C2688 1.368 . S
C2692 C2691 1.523 . S
H2693 C2668 0.950 . S
H2694 C2670 0.950 . S
H2695 C2671 0.949 . S
H2696 C2673 0.950 . S
H2697 C2675 0.950 . S
C2698 C2699 1.349 . S
C2698 C2700 1.327 . S
C2698 H2723 0.950 . S
C2699 C2698 1.349 . S
C2699 C2715 1.349 . S
C2700 C2698 1.327 . S
C2700 C2719 1.429 . S
C2700 H2724 0.950 . S
C2701 C2718 1.574 . S
C2701 C2720 1.368 . S
C2701 H2725 0.949 . S
H2702 C2706 0.949 . S
C2703 C2704 1.349 . S
C2703 C2705 1.327 . S
C2703 H2726 0.950 . S
C2704 C2703 1.349 . S
C2704 C2716 1.349 . S
C2705 C2703 1.327 . S
C2705 C2721 1.429 . S
C2705 H2727 0.950 . S
C2706 H2702 0.949 . S
C2706 C2714 1.574 . S
C2706 C2722 1.368 . S
H2707 C2715 0.950 . S
H2708 C2713 0.950 . S
H2709 C2714 0.949 . S
H2710 C2716 0.950 . S
H2711 C2717 0.950 . S
H2712 C2718 0.949 . S
C2713 H2708 0.950 . S
C2713 C2715 1.327 . S
C2713 C2719 1.429 . S
C2714 C2706 1.574 . S
C2714 H2709 0.949 . S
C2714 C2720 1.368 . S
C2715 C2699 1.349 . S
C2715 H2707 0.950 . S
C2715 C2713 1.327 . S
C2716 C2704 1.349 . S
C2716 H2710 0.950 . S
C2716 C2717 1.327 . S
C2717 H2711 0.950 . S
C2717 C2716 1.327 . S
C2717 C2721 1.429 . S
C2718 C2701 1.574 . S
C2718 H2712 0.949 . S
C2718 C2722 1.368 . S
C2719 C2700 1.429 . S
C2719 C2713 1.429 . S
C2719 C2720 1.523 . S
C2720 C2701 1.368 . S
C2720 C2714 1.368 . S
C2720 C2719 1.523 . S
C2721 C2705 1.429 . S
C2721 C2717 1.429 . S
C2721 C2722 1.523 . S
C2722 C2706 1.368 . S
C2722 C2718 1.368 . S
C2722 C2721 1.523 . S
H2723 C2698 0.950 . S
H2724 C2700 0.950 . S
H2725 C2701 0.949 . S
H2726 C2703 0.950 . S
H2727 C2705 0.950 . S
C2728 C2729 1.349 . S
C2728 C2730 1.327 . S
C2728 H2753 0.950 . S
C2729 C2728 1.349 . S
C2729 C2745 1.349 . S
C2730 C2728 1.327 . S
C2730 C2749 1.429 . S
C2730 H2754 0.950 . S
C2731 C2748 1.574 . S
C2731 C2750 1.368 . S
C2731 H2755 0.949 . S
H2732 C2736 0.949 . S
C2733 C2734 1.349 . S
C2733 C2735 1.327 . S
C2733 H2756 0.950 . S
C2734 C2733 1.349 . S
C2734 C2746 1.349 . S
C2735 C2733 1.327 . S
C2735 C2751 1.429 . S
C2735 H2757 0.950 . S
C2736 H2732 0.949 . S
C2736 C2744 1.574 . S
C2736 C2752 1.368 . S
H2737 C2745 0.950 . S
H2738 C2743 0.950 . S
H2739 C2744 0.949 . S
H2740 C2746 0.950 . S
H2741 C2747 0.950 . S
H2742 C2748 0.949 . S
C2743 H2738 0.950 . S
C2743 C2745 1.327 . S
C2743 C2749 1.429 . S
C2744 C2736 1.574 . S
C2744 H2739 0.949 . S
C2744 C2750 1.368 . S
C2745 C2729 1.349 . S
C2745 H2737 0.950 . S
C2745 C2743 1.327 . S
C2746 C2734 1.349 . S
C2746 H2740 0.950 . S
C2746 C2747 1.327 . S
C2747 H2741 0.950 . S
C2747 C2746 1.327 . S
C2747 C2751 1.429 . S
C2748 C2731 1.574 . S
C2748 H2742 0.949 . S
C2748 C2752 1.368 . S
C2749 C2730 1.429 . S
C2749 C2743 1.429 . S
C2749 C2750 1.523 . S
C2750 C2731 1.368 . S
C2750 C2744 1.368 . S
C2750 C2749 1.523 . S
C2751 C2735 1.429 . S
C2751 C2747 1.429 . S
C2751 C2752 1.523 . S
C2752 C2736 1.368 . S
C2752 C2748 1.368 . S
C2752 C2751 1.523 . S
H2753 C2728 0.950 . S
H2754 C2730 0.950 . S
H2755 C2731 0.949 . S
H2756 C2733 0.950 . S
H2757 C2735 0.950 . S
C2758 C2759 1.349 . S
C2758 C2760 1.327 . S
C2758 H2783 0.950 . S
C2759 C2758 1.349 . S
C2759 C2775 1.349 . S
C2760 C2758 1.327 . S
C2760 C2779 1.429 . S
C2760 H2784 0.950 . S
C2761 C2778 1.574 1_655 S
C2761 C2780 1.368 . S
C2761 H2785 0.949 1_554 S
H2762 C2766 0.949 . S
C2763 C2764 1.349 . S
C2763 C2765 1.327 . S
C2763 H2786 0.950 1_554 S
C2764 C2763 1.349 . S
C2764 C2776 1.349 . S
C2765 C2763 1.327 . S
C2765 C2781 1.429 . S
C2765 H2787 0.950 1_554 S
C2766 H2762 0.949 . S
C2766 C2774 1.574 1_455 S
C2766 C2782 1.368 . S
H2767 C2775 0.950 1_556 S
H2768 C2773 0.950 1_556 S
H2769 C2774 0.949 . S
H2770 C2776 0.950 . S
H2771 C2777 0.950 . S
H2772 C2778 0.949 1_556 S
C2773 H2768 0.950 1_554 S
C2773 C2775 1.327 . S
C2773 C2779 1.429 . S
C2774 C2766 1.574 1_655 S
C2774 H2769 0.949 . S
C2774 C2780 1.368 . S
C2775 C2759 1.349 . S
C2775 H2767 0.950 1_554 S
C2775 C2773 1.327 . S
C2776 C2764 1.349 . S
C2776 H2770 0.950 . S
C2776 C2777 1.327 . S
C2777 H2771 0.950 . S
C2777 C2776 1.327 . S
C2777 C2781 1.429 . S
C2778 C2761 1.574 1_455 S
C2778 H2772 0.949 1_554 S
C2778 C2782 1.368 . S
C2779 C2760 1.429 . S
C2779 C2773 1.429 . S
C2779 C2780 1.523 . S
C2780 C2761 1.368 . S
C2780 C2774 1.368 . S
C2780 C2779 1.523 . S
C2781 C2765 1.429 . S
C2781 C2777 1.429 . S
C2781 C2782 1.523 . S
C2782 C2766 1.368 . S
C2782 C2778 1.368 . S
C2782 C2781 1.523 . S
H2783 C2758 0.950 . S
H2784 C2760 0.950 . S
H2785 C2761 0.949 1_556 S
H2786 C2763 0.950 1_556 S
H2787 C2765 0.950 1_556 S
C2788 C2789 1.349 . S
C2788 C2790 1.327 . S
C2788 H2813 0.950 . S
C2789 C2788 1.349 . S
C2789 C2805 1.349 . S
C2790 C2788 1.327 . S
C2790 C2809 1.429 . S
C2790 H2814 0.950 . S
C2791 C2808 1.574 . S
C2791 C2810 1.368 . S
C2791 H2815 0.949 . S
H2792 C2796 0.949 . S
C2793 C2794 1.349 . S
C2793 C2795 1.327 . S
C2793 H2816 0.950 . S
C2794 C2793 1.349 . S
C2794 C2806 1.349 . S
C2795 C2793 1.327 . S
C2795 C2811 1.429 . S
C2795 H2817 0.950 . S
C2796 H2792 0.949 . S
C2796 C2804 1.574 . S
C2796 C2812 1.368 . S
H2797 C2805 0.950 . S
H2798 C2803 0.950 . S
H2799 C2804 0.949 . S
H2800 C2806 0.950 . S
H2801 C2807 0.950 . S
H2802 C2808 0.949 . S
C2803 H2798 0.950 . S
C2803 C2805 1.327 . S
C2803 C2809 1.429 . S
C2804 C2796 1.574 . S
C2804 H2799 0.949 . S
C2804 C2810 1.368 . S
C2805 C2789 1.349 . S
C2805 H2797 0.950 . S
C2805 C2803 1.327 . S
C2806 C2794 1.349 . S
C2806 H2800 0.950 . S
C2806 C2807 1.327 . S
C2807 H2801 0.950 . S
C2807 C2806 1.327 . S
C2807 C2811 1.429 . S
C2808 C2791 1.574 . S
C2808 H2802 0.949 . S
C2808 C2812 1.368 . S
C2809 C2790 1.429 . S
C2809 C2803 1.429 . S
C2809 C2810 1.523 . S
C2810 C2791 1.368 . S
C2810 C2804 1.368 . S
C2810 C2809 1.523 . S
C2811 C2795 1.429 . S
C2811 C2807 1.429 . S
C2811 C2812 1.523 . S
C2812 C2796 1.368 . S
C2812 C2808 1.368 . S
C2812 C2811 1.523 . S
H2813 C2788 0.950 . S
H2814 C2790 0.950 . S
H2815 C2791 0.949 . S
H2816 C2793 0.950 . S
H2817 C2795 0.950 . S
C2818 C2819 1.349 . S
C2818 C2820 1.327 . S
C2818 H2843 0.950 . S
C2819 C2818 1.349 . S
C2819 C2835 1.349 . S
C2820 C2818 1.327 . S
C2820 C2839 1.429 . S
C2820 H2844 0.950 . S
C2821 C2838 1.574 1_455 S
C2821 C2840 1.368 . S
C2821 H2845 0.949 . S
H2822 C2826 0.949 . S
C2823 C2824 1.349 . S
C2823 C2825 1.327 . S
C2823 H2846 0.950 . S
C2824 C2823 1.349 . S
C2824 C2836 1.349 . S
C2825 C2823 1.327 . S
C2825 C2841 1.429 . S
C2825 H2847 0.950 . S
C2826 H2822 0.949 . S
C2826 C2834 1.574 1_655 S
C2826 C2842 1.368 . S
H2827 C2835 0.950 . S
H2828 C2833 0.950 . S
H2829 C2834 0.949 . S
H2830 C2836 0.950 . S
H2831 C2837 0.950 . S
H2832 C2838 0.949 . S
C2833 H2828 0.950 . S
C2833 C2835 1.327 . S
C2833 C2839 1.429 . S
C2834 C2826 1.574 1_455 S
C2834 H2829 0.949 . S
C2834 C2840 1.368 . S
C2835 C2819 1.349 . S
C2835 H2827 0.950 . S
C2835 C2833 1.327 . S
C2836 C2824 1.349 . S
C2836 H2830 0.950 . S
C2836 C2837 1.327 . S
C2837 H2831 0.950 . S
C2837 C2836 1.327 . S
C2837 C2841 1.429 . S
C2838 C2821 1.574 1_655 S
C2838 H2832 0.949 . S
C2838 C2842 1.368 . S
C2839 C2820 1.429 . S
C2839 C2833 1.429 . S
C2839 C2840 1.523 . S
C2840 C2821 1.368 . S
C2840 C2834 1.368 . S
C2840 C2839 1.523 . S
C2841 C2825 1.429 . S
C2841 C2837 1.429 . S
C2841 C2842 1.523 . S
C2842 C2826 1.368 . S
C2842 C2838 1.368 . S
C2842 C2841 1.523 . S
H2843 C2818 0.950 . S
H2844 C2820 0.950 . S
H2845 C2821 0.949 . S
H2846 C2823 0.950 . S
H2847 C2825 0.950 . S
C2848 C2849 1.349 1_554 S
C2848 C2850 1.327 . S
C2848 H2873 0.950 . S
C2849 C2848 1.349 1_556 S
C2849 C2865 1.349 . S
C2850 C2848 1.327 . S
C2850 C2869 1.429 1_554 S
C2850 H2874 0.950 . S
C2851 C2868 1.574 . S
C2851 C2870 1.368 . S
C2851 H2875 0.949 . S
H2852 C2856 0.949 . S
C2853 C2854 1.349 1_556 S
C2853 C2855 1.327 . S
C2853 H2876 0.950 . S
C2854 C2853 1.349 1_554 S
C2854 C2866 1.349 . S
C2855 C2853 1.327 . S
C2855 C2871 1.429 1_556 S
C2855 H2877 0.950 . S
C2856 H2852 0.949 . S
C2856 C2864 1.574 . S
C2856 C2872 1.368 . S
H2857 C2865 0.950 . S
H2858 C2863 0.950 . S
H2859 C2864 0.949 . S
H2860 C2866 0.950 . S
H2861 C2867 0.950 . S
H2862 C2868 0.949 . S
C2863 H2858 0.950 . S
C2863 C2865 1.327 . S
C2863 C2869 1.429 . S
C2864 C2856 1.574 . S
C2864 H2859 0.949 . S
C2864 C2870 1.368 1_554 S
C2865 C2849 1.349 . S
C2865 H2857 0.950 . S
C2865 C2863 1.327 . S
C2866 C2854 1.349 . S
C2866 H2860 0.950 . S
C2866 C2867 1.327 . S
C2867 H2861 0.950 . S
C2867 C2866 1.327 . S
C2867 C2871 1.429 . S
C2868 C2851 1.574 . S
C2868 H2862 0.949 . S
C2868 C2872 1.368 1_556 S
C2869 C2850 1.429 1_556 S
C2869 C2863 1.429 . S
C2869 C2870 1.523 . S
C2870 C2851 1.368 . S
C2870 C2864 1.368 1_556 S
C2870 C2869 1.523 . S
C2871 C2855 1.429 1_554 S
C2871 C2867 1.429 . S
C2871 C2872 1.523 . S
C2872 C2856 1.368 . S
C2872 C2868 1.368 1_554 S
C2872 C2871 1.523 . S
H2873 C2848 0.950 . S
H2874 C2850 0.950 . S
H2875 C2851 0.949 . S
H2876 C2853 0.950 . S
H2877 C2855 0.950 . S
C2878 C2879 1.349 . S
C2878 C2880 1.327 . S
C2878 H2903 0.950 . S
C2879 C2878 1.349 . S
C2879 C2895 1.349 . S
C2880 C2878 1.327 . S
C2880 C2899 1.429 . S
C2880 H2904 0.950 . S
C2881 C2898 1.574 . S
C2881 C2900 1.368 . S
C2881 H2905 0.949 . S
H2882 C2886 0.949 . S
C2883 C2884 1.349 . S
C2883 C2885 1.327 . S
C2883 H2906 0.950 . S
C2884 C2883 1.349 . S
C2884 C2896 1.349 . S
C2885 C2883 1.327 . S
C2885 C2901 1.429 . S
C2885 H2907 0.950 . S
C2886 H2882 0.949 . S
C2886 C2894 1.574 . S
C2886 C2902 1.368 . S
H2887 C2895 0.950 . S
H2888 C2893 0.950 . S
H2889 C2894 0.949 . S
H2890 C2896 0.950 . S
H2891 C2897 0.950 . S
H2892 C2898 0.949 . S
C2893 H2888 0.950 . S
C2893 C2895 1.327 . S
C2893 C2899 1.429 . S
C2894 C2886 1.574 . S
C2894 H2889 0.949 . S
C2894 C2900 1.368 . S
C2895 C2879 1.349 . S
C2895 H2887 0.950 . S
C2895 C2893 1.327 . S
C2896 C2884 1.349 . S
C2896 H2890 0.950 . S
C2896 C2897 1.327 . S
C2897 H2891 0.950 . S
C2897 C2896 1.327 . S
C2897 C2901 1.429 . S
C2898 C2881 1.574 . S
C2898 H2892 0.949 . S
C2898 C2902 1.368 . S
C2899 C2880 1.429 . S
C2899 C2893 1.429 . S
C2899 C2900 1.523 . S
C2900 C2881 1.368 . S
C2900 C2894 1.368 . S
C2900 C2899 1.523 . S
C2901 C2885 1.429 . S
C2901 C2897 1.429 . S
C2901 C2902 1.523 . S
C2902 C2886 1.368 . S
C2902 C2898 1.368 . S
C2902 C2901 1.523 . S
H2903 C2878 0.950 . S
H2904 C2880 0.950 . S
H2905 C2881 0.949 . S
H2906 C2883 0.950 . S
H2907 C2885 0.950 . S
C2908 C2909 1.349 . S
C2908 C2910 1.327 . S
C2908 H2933 0.950 . S
C2909 C2908 1.349 . S
C2909 C2925 1.349 . S
C2910 C2908 1.327 . S
C2910 C2929 1.429 . S
C2910 H2934 0.950 . S
C2911 C2928 1.574 . S
C2911 C2930 1.368 . S
C2911 H2935 0.949 . S
H2912 C2916 0.949 . S
C2913 C2914 1.349 . S
C2913 C2915 1.327 . S
C2913 H2936 0.950 . S
C2914 C2913 1.349 . S
C2914 C2926 1.349 . S
C2915 C2913 1.327 . S
C2915 C2931 1.429 . S
C2915 H2937 0.950 . S
C2916 H2912 0.949 . S
C2916 C2924 1.574 . S
C2916 C2932 1.368 . S
H2917 C2925 0.950 . S
H2918 C2923 0.950 . S
H2919 C2924 0.949 . S
H2920 C2926 0.950 . S
H2921 C2927 0.950 . S
H2922 C2928 0.949 . S
C2923 H2918 0.950 . S
C2923 C2925 1.327 . S
C2923 C2929 1.429 . S
C2924 C2916 1.574 . S
C2924 H2919 0.949 . S
C2924 C2930 1.368 . S
C2925 C2909 1.349 . S
C2925 H2917 0.950 . S
C2925 C2923 1.327 . S
C2926 C2914 1.349 . S
C2926 H2920 0.950 . S
C2926 C2927 1.327 . S
C2927 H2921 0.950 . S
C2927 C2926 1.327 . S
C2927 C2931 1.429 . S
C2928 C2911 1.574 . S
C2928 H2922 0.949 . S
C2928 C2932 1.368 . S
C2929 C2910 1.429 . S
C2929 C2923 1.429 . S
C2929 C2930 1.523 . S
C2930 C2911 1.368 . S
C2930 C2924 1.368 . S
C2930 C2929 1.523 . S
C2931 C2915 1.429 . S
C2931 C2927 1.429 . S
C2931 C2932 1.523 . S
C2932 C2916 1.368 . S
C2932 C2928 1.368 . S
C2932 C2931 1.523 . S
H2933 C2908 0.950 . S
H2934 C2910 0.950 . S
H2935 C2911 0.949 . S
H2936 C2913 0.950 . S
H2937 C2915 0.950 . S
C2938 C2939 1.349 . S
C2938 C2940 1.327 . S
C2938 H2963 0.950 . S
C2939 C2938 1.349 . S
C2939 C2955 1.349 . S
C2940 C2938 1.327 . S
C2940 C2959 1.429 . S
C2940 H2964 0.950 . S
C2941 C2958 1.574 . S
C2941 C2960 1.368 . S
C2941 H2965 0.949 . S
H2942 C2946 0.949 . S
C2943 C2944 1.349 . S
C2943 C2945 1.327 . S
C2943 H2966 0.950 . S
C2944 C2943 1.349 . S
C2944 C2956 1.349 . S
C2945 C2943 1.327 . S
C2945 C2961 1.429 . S
C2945 H2967 0.950 . S
C2946 H2942 0.949 . S
C2946 C2954 1.574 . S
C2946 C2962 1.368 . S
H2947 C2955 0.950 . S
H2948 C2953 0.950 . S
H2949 C2954 0.949 . S
H2950 C2956 0.950 . S
H2951 C2957 0.950 . S
H2952 C2958 0.949 . S
C2953 H2948 0.950 . S
C2953 C2955 1.327 . S
C2953 C2959 1.429 . S
C2954 C2946 1.574 . S
C2954 H2949 0.949 . S
C2954 C2960 1.368 . S
C2955 C2939 1.349 . S
C2955 H2947 0.950 . S
C2955 C2953 1.327 . S
C2956 C2944 1.349 . S
C2956 H2950 0.950 . S
C2956 C2957 1.327 . S
C2957 H2951 0.950 . S
C2957 C2956 1.327 . S
C2957 C2961 1.429 . S
C2958 C2941 1.574 . S
C2958 H2952 0.949 . S
C2958 C2962 1.368 . S
C2959 C2940 1.429 . S
C2959 C2953 1.429 . S
C2959 C2960 1.523 . S
C2960 C2941 1.368 . S
C2960 C2954 1.368 . S
C2960 C2959 1.523 . S
C2961 C2945 1.429 . S
C2961 C2957 1.429 . S
C2961 C2962 1.523 . S
C2962 C2946 1.368 . S
C2962 C2958 1.368 . S
C2962 C2961 1.523 . S
H2963 C2938 0.950 . S
H2964 C2940 0.950 . S
H2965 C2941 0.949 . S
H2966 C2943 0.950 . S
H2967 C2945 0.950 . S
C2968 C2969 1.349 1_556 S
C2968 C2970 1.327 . S
C2968 H2993 0.950 . S
C2969 C2968 1.349 1_554 S
C2969 C2985 1.349 . S
C2970 C2968 1.327 . S
C2970 C2989 1.429 1_556 S
C2970 H2994 0.950 . S
C2971 C2988 1.574 . S
C2971 C2990 1.368 . S
C2971 H2995 0.949 . S
H2972 C2976 0.949 . S
C2973 C2974 1.349 1_554 S
C2973 C2975 1.327 . S
C2973 H2996 0.950 . S
C2974 C2973 1.349 1_556 S
C2974 C2986 1.349 . S
C2975 C2973 1.327 . S
C2975 C2991 1.429 1_554 S
C2975 H2997 0.950 . S
C2976 H2972 0.949 . S
C2976 C2984 1.574 . S
C2976 C2992 1.368 . S
H2977 C2985 0.950 . S
H2978 C2983 0.950 . S
H2979 C2984 0.949 . S
H2980 C2986 0.950 . S
H2981 C2987 0.950 . S
H2982 C2988 0.949 . S
C2983 H2978 0.950 . S
C2983 C2985 1.327 . S
C2983 C2989 1.429 . S
C2984 C2976 1.574 . S
C2984 H2979 0.949 . S
C2984 C2990 1.368 1_556 S
C2985 C2969 1.349 . S
C2985 H2977 0.950 . S
C2985 C2983 1.327 . S
C2986 C2974 1.349 . S
C2986 H2980 0.950 . S
C2986 C2987 1.327 . S
C2987 H2981 0.950 . S
C2987 C2986 1.327 . S
C2987 C2991 1.429 . S
C2988 C2971 1.574 . S
C2988 H2982 0.949 . S
C2988 C2992 1.368 1_554 S
C2989 C2970 1.429 1_554 S
C2989 C2983 1.429 . S
C2989 C2990 1.523 . S
C2990 C2971 1.368 . S
C2990 C2984 1.368 1_554 S
C2990 C2989 1.523 . S
C2991 C2975 1.429 1_556 S
C2991 C2987 1.429 . S
C2991 C2992 1.523 . S
C2992 C2976 1.368 . S
C2992 C2988 1.368 1_556 S
C2992 C2991 1.523 . S
H2993 C2968 0.950 . S
H2994 C2970 0.950 . S
H2995 C2971 0.949 . S
H2996 C2973 0.950 . S
H2997 C2975 0.950 . S
C2998 C2999 1.349 . S
C2998 C3000 1.327 . S
C2998 H3023 0.950 . S
C2999 C2998 1.349 . S
C2999 C3015 1.349 . S
C3000 C2998 1.327 . S
C3000 C3019 1.429 . S
C3000 H3024 0.950 . S
C3001 C3018 1.574 . S
C3001 C3020 1.368 . S
C3001 H3025 0.949 . S
H3002 C3006 0.949 . S
C3003 C3004 1.349 . S
C3003 C3005 1.327 . S
C3003 H3026 0.950 . S
C3004 C3003 1.349 . S
C3004 C3016 1.349 . S
C3005 C3003 1.327 . S
C3005 C3021 1.429 . S
C3005 H3027 0.950 . S
C3006 H3002 0.949 . S
C3006 C3014 1.574 . S
C3006 C3022 1.368 . S
H3007 C3015 0.950 . S
H3008 C3013 0.950 . S
H3009 C3014 0.949 . S
H3010 C3016 0.950 . S
H3011 C3017 0.950 . S
H3012 C3018 0.949 . S
C3013 H3008 0.950 . S
C3013 C3015 1.327 . S
C3013 C3019 1.429 . S
C3014 C3006 1.574 . S
C3014 H3009 0.949 . S
C3014 C3020 1.368 . S
C3015 C2999 1.349 . S
C3015 H3007 0.950 . S
C3015 C3013 1.327 . S
C3016 C3004 1.349 . S
C3016 H3010 0.950 . S
C3016 C3017 1.327 . S
C3017 H3011 0.950 . S
C3017 C3016 1.327 . S
C3017 C3021 1.429 . S
C3018 C3001 1.574 . S
C3018 H3012 0.949 . S
C3018 C3022 1.368 . S
C3019 C3000 1.429 . S
C3019 C3013 1.429 . S
C3019 C3020 1.523 . S
C3020 C3001 1.368 . S
C3020 C3014 1.368 . S
C3020 C3019 1.523 . S
C3021 C3005 1.429 . S
C3021 C3017 1.429 . S
C3021 C3022 1.523 . S
C3022 C3006 1.368 . S
C3022 C3018 1.368 . S
C3022 C3021 1.523 . S
H3023 C2998 0.950 . S
H3024 C3000 0.950 . S
H3025 C3001 0.949 . S
H3026 C3003 0.950 . S
H3027 C3005 0.950 . S
C3028 C3029 1.349 . S
C3028 C3030 1.327 . S
C3028 H3053 0.950 . S
C3029 C3028 1.349 . S
C3029 C3045 1.349 . S
C3030 C3028 1.327 . S
C3030 C3049 1.429 . S
C3030 H3054 0.950 . S
C3031 C3048 1.574 . S
C3031 C3050 1.368 . S
C3031 H3055 0.949 . S
H3032 C3036 0.949 . S
C3033 C3034 1.349 . S
C3033 C3035 1.327 . S
C3033 H3056 0.950 . S
C3034 C3033 1.349 . S
C3034 C3046 1.349 . S
C3035 C3033 1.327 . S
C3035 C3051 1.429 . S
C3035 H3057 0.950 . S
C3036 H3032 0.949 . S
C3036 C3044 1.574 . S
C3036 C3052 1.368 . S
H3037 C3045 0.950 . S
H3038 C3043 0.950 . S
H3039 C3044 0.949 . S
H3040 C3046 0.950 . S
H3041 C3047 0.950 . S
H3042 C3048 0.949 . S
C3043 H3038 0.950 . S
C3043 C3045 1.327 . S
C3043 C3049 1.429 . S
C3044 C3036 1.574 . S
C3044 H3039 0.949 . S
C3044 C3050 1.368 . S
C3045 C3029 1.349 . S
C3045 H3037 0.950 . S
C3045 C3043 1.327 . S
C3046 C3034 1.349 . S
C3046 H3040 0.950 . S
C3046 C3047 1.327 . S
C3047 H3041 0.950 . S
C3047 C3046 1.327 . S
C3047 C3051 1.429 . S
C3048 C3031 1.574 . S
C3048 H3042 0.949 . S
C3048 C3052 1.368 . S
C3049 C3030 1.429 . S
C3049 C3043 1.429 . S
C3049 C3050 1.523 . S
C3050 C3031 1.368 . S
C3050 C3044 1.368 . S
C3050 C3049 1.523 . S
C3051 C3035 1.429 . S
C3051 C3047 1.429 . S
C3051 C3052 1.523 . S
C3052 C3036 1.368 . S
C3052 C3048 1.368 . S
C3052 C3051 1.523 . S
H3053 C3028 0.950 . S
H3054 C3030 0.950 . S
H3055 C3031 0.949 . S
H3056 C3033 0.950 . S
H3057 C3035 0.950 . S
C3058 C3059 1.349 . S
C3058 C3060 1.327 . S
C3058 H3083 0.950 . S
C3059 C3058 1.349 . S
C3059 C3075 1.349 . S
C3060 C3058 1.327 . S
C3060 C3079 1.429 . S
C3060 H3084 0.950 . S
C3061 C3078 1.574 . S
C3061 C3080 1.368 . S
C3061 H3085 0.949 . S
H3062 C3066 0.949 . S
C3063 C3064 1.349 . S
C3063 C3065 1.327 . S
C3063 H3086 0.950 . S
C3064 C3063 1.349 . S
C3064 C3076 1.349 . S
C3065 C3063 1.327 . S
C3065 C3081 1.429 . S
C3065 H3087 0.950 . S
C3066 H3062 0.949 . S
C3066 C3074 1.574 . S
C3066 C3082 1.368 . S
H3067 C3075 0.950 . S
H3068 C3073 0.950 . S
H3069 C3074 0.949 . S
H3070 C3076 0.950 . S
H3071 C3077 0.950 . S
H3072 C3078 0.949 . S
C3073 H3068 0.950 . S
C3073 C3075 1.327 . S
C3073 C3079 1.429 . S
C3074 C3066 1.574 . S
C3074 H3069 0.949 . S
C3074 C3080 1.368 . S
C3075 C3059 1.349 . S
C3075 H3067 0.950 . S
C3075 C3073 1.327 . S
C3076 C3064 1.349 . S
C3076 H3070 0.950 . S
C3076 C3077 1.327 . S
C3077 H3071 0.950 . S
C3077 C3076 1.327 . S
C3077 C3081 1.429 . S
C3078 C3061 1.574 . S
C3078 H3072 0.949 . S
C3078 C3082 1.368 . S
C3079 C3060 1.429 . S
C3079 C3073 1.429 . S
C3079 C3080 1.523 . S
C3080 C3061 1.368 . S
C3080 C3074 1.368 . S
C3080 C3079 1.523 . S
C3081 C3065 1.429 . S
C3081 C3077 1.429 . S
C3081 C3082 1.523 . S
C3082 C3066 1.368 . S
C3082 C3078 1.368 . S
C3082 C3081 1.523 . S
H3083 C3058 0.950 . S
H3084 C3060 0.950 . S
H3085 C3061 0.949 . S
H3086 C3063 0.950 . S
H3087 C3065 0.950 . S
C3088 C3089 1.349 . S
C3088 C3090 1.327 . S
C3088 H3113 0.950 . S
C3089 C3088 1.349 . S
C3089 C3105 1.349 . S
C3090 C3088 1.327 . S
C3090 C3109 1.429 . S
C3090 H3114 0.950 . S
C3091 C3108 1.574 1_545 S
C3091 C3110 1.368 . S
C3091 H3115 0.949 . S
H3092 C3096 0.949 . S
C3093 C3094 1.349 . S
C3093 C3095 1.327 . S
C3093 H3116 0.950 . S
C3094 C3093 1.349 . S
C3094 C3106 1.349 . S
C3095 C3093 1.327 . S
C3095 C3111 1.429 . S
C3095 H3117 0.950 . S
C3096 H3092 0.949 . S
C3096 C3104 1.574 1_565 S
C3096 C3112 1.368 . S
H3097 C3105 0.950 . S
H3098 C3103 0.950 . S
H3099 C3104 0.949 . S
H3100 C3106 0.950 . S
H3101 C3107 0.950 . S
H3102 C3108 0.949 . S
C3103 H3098 0.950 . S
C3103 C3105 1.327 . S
C3103 C3109 1.429 . S
C3104 C3096 1.574 1_545 S
C3104 H3099 0.949 . S
C3104 C3110 1.368 . S
C3105 C3089 1.349 . S
C3105 H3097 0.950 . S
C3105 C3103 1.327 . S
C3106 C3094 1.349 . S
C3106 H3100 0.950 . S
C3106 C3107 1.327 . S
C3107 H3101 0.950 . S
C3107 C3106 1.327 . S
C3107 C3111 1.429 . S
C3108 C3091 1.574 1_565 S
C3108 H3102 0.949 . S
C3108 C3112 1.368 . S
C3109 C3090 1.429 . S
C3109 C3103 1.429 . S
C3109 C3110 1.523 . S
C3110 C3091 1.368 . S
C3110 C3104 1.368 . S
C3110 C3109 1.523 . S
C3111 C3095 1.429 . S
C3111 C3107 1.429 . S
C3111 C3112 1.523 . S
C3112 C3096 1.368 . S
C3112 C3108 1.368 . S
C3112 C3111 1.523 . S
H3113 C3088 0.950 . S
H3114 C3090 0.950 . S
H3115 C3091 0.949 . S
H3116 C3093 0.950 . S
H3117 C3095 0.950 . S
C3118 C3119 1.349 . S
C3118 C3120 1.327 . S
C3118 H3143 0.950 . S
C3119 C3118 1.349 . S
C3119 C3135 1.349 . S
C3120 C3118 1.327 . S
C3120 C3139 1.429 . S
C3120 H3144 0.950 . S
C3121 C3138 1.574 . S
C3121 C3140 1.368 . S
C3121 H3145 0.949 . S
H3122 C3126 0.949 . S
C3123 C3124 1.349 . S
C3123 C3125 1.327 . S
C3123 H3146 0.950 . S
C3124 C3123 1.349 . S
C3124 C3136 1.349 . S
C3125 C3123 1.327 . S
C3125 C3141 1.429 . S
C3125 H3147 0.950 . S
C3126 H3122 0.949 . S
C3126 C3134 1.574 . S
C3126 C3142 1.368 . S
H3127 C3135 0.950 . S
H3128 C3133 0.950 . S
H3129 C3134 0.949 . S
H3130 C3136 0.950 . S
H3131 C3137 0.950 . S
H3132 C3138 0.949 . S
C3133 H3128 0.950 . S
C3133 C3135 1.327 . S
C3133 C3139 1.429 . S
C3134 C3126 1.574 . S
C3134 H3129 0.949 . S
C3134 C3140 1.368 . S
C3135 C3119 1.349 . S
C3135 H3127 0.950 . S
C3135 C3133 1.327 . S
C3136 C3124 1.349 . S
C3136 H3130 0.950 . S
C3136 C3137 1.327 . S
C3137 H3131 0.950 . S
C3137 C3136 1.327 . S
C3137 C3141 1.429 . S
C3138 C3121 1.574 . S
C3138 H3132 0.949 . S
C3138 C3142 1.368 . S
C3139 C3120 1.429 . S
C3139 C3133 1.429 . S
C3139 C3140 1.523 . S
C3140 C3121 1.368 . S
C3140 C3134 1.368 . S
C3140 C3139 1.523 . S
C3141 C3125 1.429 . S
C3141 C3137 1.429 . S
C3141 C3142 1.523 . S
C3142 C3126 1.368 . S
C3142 C3138 1.368 . S
C3142 C3141 1.523 . S
H3143 C3118 0.950 . S
H3144 C3120 0.950 . S
H3145 C3121 0.949 . S
H3146 C3123 0.950 . S
H3147 C3125 0.950 . S
C3148 C3149 1.349 . S
C3148 C3150 1.327 . S
C3148 H3173 0.950 . S
C3149 C3148 1.349 . S
C3149 C3165 1.349 . S
C3150 C3148 1.327 . S
C3150 C3169 1.429 . S
C3150 H3174 0.950 . S
C3151 C3168 1.574 1_565 S
C3151 C3170 1.368 1_556 S
C3151 H3175 0.949 . S
H3152 C3156 0.949 . S
C3153 C3154 1.349 . S
C3153 C3155 1.327 . S
C3153 H3176 0.950 . S
C3154 C3153 1.349 . S
C3154 C3166 1.349 . S
C3155 C3153 1.327 . S
C3155 C3171 1.429 . S
C3155 H3177 0.950 . S
C3156 H3152 0.949 . S
C3156 C3164 1.574 1_545 S
C3156 C3172 1.368 1_554 S
H3157 C3165 0.950 1_556 S
H3158 C3163 0.951 . S
H3159 C3164 0.949 . S
H3160 C3166 0.950 1_554 S
H3161 C3167 0.951 . S
H3162 C3168 0.949 . S
C3163 H3158 0.951 . S
C3163 C3165 1.327 1_556 S
C3163 C3169 1.428 1_556 S
C3164 C3156 1.574 1_565 S
C3164 H3159 0.949 . S
C3164 C3170 1.368 . S
C3165 C3149 1.349 . S
C3165 H3157 0.950 1_554 S
C3165 C3163 1.327 1_554 S
C3166 C3154 1.349 . S
C3166 H3160 0.950 1_556 S
C3166 C3167 1.327 1_556 S
C3167 H3161 0.951 . S
C3167 C3166 1.327 1_554 S
C3167 C3171 1.428 1_554 S
C3168 C3151 1.574 1_545 S
C3168 H3162 0.949 . S
C3168 C3172 1.368 . S
C3169 C3150 1.429 . S
C3169 C3163 1.428 1_554 S
C3169 C3170 1.523 . S
C3170 C3151 1.368 1_554 S
C3170 C3164 1.368 . S
C3170 C3169 1.523 . S
C3171 C3155 1.429 . S
C3171 C3167 1.428 1_556 S
C3171 C3172 1.523 . S
C3172 C3156 1.368 1_556 S
C3172 C3168 1.368 . S
C3172 C3171 1.523 . S
H3173 C3148 0.950 . S
H3174 C3150 0.950 . S
H3175 C3151 0.949 . S
H3176 C3153 0.950 . S
H3177 C3155 0.950 . S
C3178 C3179 1.349 . S
C3178 C3180 1.327 . S
C3178 H3203 0.950 . S
C3179 C3178 1.349 . S
C3179 C3195 1.349 . S
C3180 C3178 1.327 . S
C3180 C3199 1.429 . S
C3180 H3204 0.950 . S
C3181 C3198 1.574 . S
C3181 C3200 1.368 . S
C3181 H3205 0.949 . S
H3182 C3186 0.949 . S
C3183 C3184 1.349 . S
C3183 C3185 1.327 . S
C3183 H3206 0.950 . S
C3184 C3183 1.349 . S
C3184 C3196 1.349 . S
C3185 C3183 1.327 . S
C3185 C3201 1.429 . S
C3185 H3207 0.950 . S
C3186 H3182 0.949 . S
C3186 C3194 1.574 . S
C3186 C3202 1.368 . S
H3187 C3195 0.950 . S
H3188 C3193 0.950 . S
H3189 C3194 0.949 . S
H3190 C3196 0.950 . S
H3191 C3197 0.950 . S
H3192 C3198 0.949 . S
C3193 H3188 0.950 . S
C3193 C3195 1.327 . S
C3193 C3199 1.429 . S
C3194 C3186 1.574 . S
C3194 H3189 0.949 . S
C3194 C3200 1.368 . S
C3195 C3179 1.349 . S
C3195 H3187 0.950 . S
C3195 C3193 1.327 . S
C3196 C3184 1.349 . S
C3196 H3190 0.950 . S
C3196 C3197 1.327 . S
C3197 H3191 0.950 . S
C3197 C3196 1.327 . S
C3197 C3201 1.429 . S
C3198 C3181 1.574 . S
C3198 H3192 0.949 . S
C3198 C3202 1.368 . S
C3199 C3180 1.429 . S
C3199 C3193 1.429 . S
C3199 C3200 1.523 . S
C3200 C3181 1.368 . S
C3200 C3194 1.368 . S
C3200 C3199 1.523 . S
C3201 C3185 1.429 . S
C3201 C3197 1.429 . S
C3201 C3202 1.523 . S
C3202 C3186 1.368 . S
C3202 C3198 1.368 . S
C3202 C3201 1.523 . S
H3203 C3178 0.950 . S
H3204 C3180 0.950 . S
H3205 C3181 0.949 . S
H3206 C3183 0.950 . S
H3207 C3185 0.950 . S
C3208 C3209 1.349 . S
C3208 C3210 1.327 . S
C3208 H3233 0.950 . S
C3209 C3208 1.349 . S
C3209 C3225 1.349 . S
C3210 C3208 1.327 . S
C3210 C3229 1.429 . S
C3210 H3234 0.950 . S
C3211 C3228 1.574 1_545 S
C3211 C3230 1.368 . S
C3211 H3235 0.949 . S
H3212 C3216 0.949 . S
C3213 C3214 1.349 . S
C3213 C3215 1.327 . S
C3213 H3236 0.950 . S
C3214 C3213 1.349 . S
C3214 C3226 1.349 . S
C3215 C3213 1.327 . S
C3215 C3231 1.429 . S
C3215 H3237 0.950 . S
C3216 H3212 0.949 . S
C3216 C3224 1.574 1_565 S
C3216 C3232 1.368 . S
H3217 C3225 0.950 . S
H3218 C3223 0.950 . S
H3219 C3224 0.949 . S
H3220 C3226 0.950 . S
H3221 C3227 0.950 . S
H3222 C3228 0.949 . S
C3223 H3218 0.950 . S
C3223 C3225 1.327 . S
C3223 C3229 1.429 . S
C3224 C3216 1.574 1_545 S
C3224 H3219 0.949 . S
C3224 C3230 1.368 . S
C3225 C3209 1.349 . S
C3225 H3217 0.950 . S
C3225 C3223 1.327 . S
C3226 C3214 1.349 . S
C3226 H3220 0.950 . S
C3226 C3227 1.327 . S
C3227 H3221 0.950 . S
C3227 C3226 1.327 . S
C3227 C3231 1.429 . S
C3228 C3211 1.574 1_565 S
C3228 H3222 0.949 . S
C3228 C3232 1.368 . S
C3229 C3210 1.429 . S
C3229 C3223 1.429 . S
C3229 C3230 1.523 . S
C3230 C3211 1.368 . S
C3230 C3224 1.368 . S
C3230 C3229 1.523 . S
C3231 C3215 1.429 . S
C3231 C3227 1.429 . S
C3231 C3232 1.523 . S
C3232 C3216 1.368 . S
C3232 C3228 1.368 . S
C3232 C3231 1.523 . S
H3233 C3208 0.950 . S
H3234 C3210 0.950 . S
H3235 C3211 0.949 . S
H3236 C3213 0.950 . S
H3237 C3215 0.950 . S
C3238 C3239 1.349 . S
C3238 C3240 1.327 . S
C3238 H3263 0.950 . S
C3239 C3238 1.349 . S
C3239 C3255 1.349 . S
C3240 C3238 1.327 . S
C3240 C3259 1.429 . S
C3240 H3264 0.950 . S
C3241 C3258 1.574 . S
C3241 C3260 1.368 . S
C3241 H3265 0.949 . S
H3242 C3246 0.949 . S
C3243 C3244 1.349 . S
C3243 C3245 1.327 . S
C3243 H3266 0.950 . S
C3244 C3243 1.349 . S
C3244 C3256 1.349 . S
C3245 C3243 1.327 . S
C3245 C3261 1.429 . S
C3245 H3267 0.950 . S
C3246 H3242 0.949 . S
C3246 C3254 1.574 . S
C3246 C3262 1.368 . S
H3247 C3255 0.950 . S
H3248 C3253 0.950 . S
H3249 C3254 0.949 . S
H3250 C3256 0.950 . S
H3251 C3257 0.950 . S
H3252 C3258 0.949 . S
C3253 H3248 0.950 . S
C3253 C3255 1.327 . S
C3253 C3259 1.429 . S
C3254 C3246 1.574 . S
C3254 H3249 0.949 . S
C3254 C3260 1.368 . S
C3255 C3239 1.349 . S
C3255 H3247 0.950 . S
C3255 C3253 1.327 . S
C3256 C3244 1.349 . S
C3256 H3250 0.950 . S
C3256 C3257 1.327 . S
C3257 H3251 0.950 . S
C3257 C3256 1.327 . S
C3257 C3261 1.429 . S
C3258 C3241 1.574 . S
C3258 H3252 0.949 . S
C3258 C3262 1.368 . S
C3259 C3240 1.429 . S
C3259 C3253 1.429 . S
C3259 C3260 1.523 . S
C3260 C3241 1.368 . S
C3260 C3254 1.368 . S
C3260 C3259 1.523 . S
C3261 C3245 1.429 . S
C3261 C3257 1.429 . S
C3261 C3262 1.523 . S
C3262 C3246 1.368 . S
C3262 C3258 1.368 . S
C3262 C3261 1.523 . S
H3263 C3238 0.950 . S
H3264 C3240 0.950 . S
H3265 C3241 0.949 . S
H3266 C3243 0.950 . S
H3267 C3245 0.950 . S
C3268 C3269 1.349 . S
C3268 C3270 1.327 . S
C3268 H3293 0.950 . S
C3269 C3268 1.349 . S
C3269 C3285 1.349 1_554 S
C3270 C3268 1.327 . S
C3270 C3289 1.429 . S
C3270 H3294 0.950 . S
C3271 C3288 1.574 1_565 S
C3271 C3290 1.368 1_556 S
C3271 H3295 0.949 . S
H3272 C3276 0.949 . S
C3273 C3274 1.349 . S
C3273 C3275 1.327 . S
C3273 H3296 0.950 . S
C3274 C3273 1.349 . S
C3274 C3286 1.349 1_556 S
C3275 C3273 1.327 . S
C3275 C3291 1.429 . S
C3275 H3297 0.950 . S
C3276 H3272 0.949 . S
C3276 C3284 1.574 1_545 S
C3276 C3292 1.368 1_554 S
H3277 C3285 0.950 . S
H3278 C3283 0.950 . S
H3279 C3284 0.949 . S
H3280 C3286 0.950 . S
H3281 C3287 0.950 . S
H3282 C3288 0.949 . S
C3283 H3278 0.950 . S
C3283 C3285 1.327 . S
C3283 C3289 1.429 1_556 S
C3284 C3276 1.574 1_565 S
C3284 H3279 0.949 . S
C3284 C3290 1.368 . S
C3285 C3269 1.349 1_556 S
C3285 H3277 0.950 . S
C3285 C3283 1.327 . S
C3286 C3274 1.349 1_554 S
C3286 H3280 0.950 . S
C3286 C3287 1.327 . S
C3287 H3281 0.950 . S
C3287 C3286 1.327 . S
C3287 C3291 1.429 1_554 S
C3288 C3271 1.574 1_545 S
C3288 H3282 0.949 . S
C3288 C3292 1.368 . S
C3289 C3270 1.429 . S
C3289 C3283 1.429 1_554 S
C3289 C3290 1.523 . S
C3290 C3271 1.368 1_554 S
C3290 C3284 1.368 . S
C3290 C3289 1.523 . S
C3291 C3275 1.429 . S
C3291 C3287 1.429 1_556 S
C3291 C3292 1.523 . S
C3292 C3276 1.368 1_556 S
C3292 C3288 1.368 . S
C3292 C3291 1.523 . S
H3293 C3268 0.950 . S
H3294 C3270 0.950 . S
H3295 C3271 0.949 . S
H3296 C3273 0.950 . S
H3297 C3275 0.950 . S
C3298 C3299 1.349 . S
C3298 C3300 1.327 . S
C3298 H3323 0.950 . S
C3299 C3298 1.349 . S
C3299 C3315 1.349 . S
C3300 C3298 1.327 . S
C3300 C3319 1.429 . S
C3300 H3324 0.950 . S
C3301 C3318 1.574 . S
C3301 C3320 1.368 . S
C3301 H3325 0.949 . S
H3302 C3306 0.949 . S
C3303 C3304 1.349 . S
C3303 C3305 1.327 . S
C3303 H3326 0.950 . S
C3304 C3303 1.349 . S
C3304 C3316 1.349 . S
C3305 C3303 1.327 . S
C3305 C3321 1.429 . S
C3305 H3327 0.950 . S
C3306 H3302 0.949 . S
C3306 C3314 1.574 . S
C3306 C3322 1.368 . S
H3307 C3315 0.950 . S
H3308 C3313 0.950 . S
H3309 C3314 0.949 . S
H3310 C3316 0.950 . S
H3311 C3317 0.950 . S
H3312 C3318 0.949 . S
C3313 H3308 0.950 . S
C3313 C3315 1.327 . S
C3313 C3319 1.429 . S
C3314 C3306 1.574 . S
C3314 H3309 0.949 . S
C3314 C3320 1.368 . S
C3315 C3299 1.349 . S
C3315 H3307 0.950 . S
C3315 C3313 1.327 . S
C3316 C3304 1.349 . S
C3316 H3310 0.950 . S
C3316 C3317 1.327 . S
C3317 H3311 0.950 . S
C3317 C3316 1.327 . S
C3317 C3321 1.429 . S
C3318 C3301 1.574 . S
C3318 H3312 0.949 . S
C3318 C3322 1.368 . S
C3319 C3300 1.429 . S
C3319 C3313 1.429 . S
C3319 C3320 1.523 . S
C3320 C3301 1.368 . S
C3320 C3314 1.368 . S
C3320 C3319 1.523 . S
C3321 C3305 1.429 . S
C3321 C3317 1.429 . S
C3321 C3322 1.523 . S
C3322 C3306 1.368 . S
C3322 C3318 1.368 . S
C3322 C3321 1.523 . S
H3323 C3298 0.950 . S
H3324 C3300 0.950 . S
H3325 C3301 0.949 . S
H3326 C3303 0.950 . S
H3327 C3305 0.950 . S
C3328 C3329 1.349 . S
C3328 C3330 1.327 . S
C3328 H3353 0.950 . S
C3329 C3328 1.349 . S
C3329 C3345 1.349 . S
C3330 C3328 1.327 . S
C3330 C3349 1.429 . S
C3330 H3354 0.950 . S
C3331 C3348 1.574 . S
C3331 C3350 1.368 . S
C3331 H3355 0.949 . S
H3332 C3336 0.949 . S
C3333 C3334 1.349 . S
C3333 C3335 1.327 . S
C3333 H3356 0.950 . S
C3334 C3333 1.349 . S
C3334 C3346 1.349 . S
C3335 C3333 1.327 . S
C3335 C3351 1.429 . S
C3335 H3357 0.950 . S
C3336 H3332 0.949 . S
C3336 C3344 1.574 . S
C3336 C3352 1.368 . S
H3337 C3345 0.950 . S
H3338 C3343 0.950 . S
H3339 C3344 0.949 . S
H3340 C3346 0.950 . S
H3341 C3347 0.950 . S
H3342 C3348 0.949 . S
C3343 H3338 0.950 . S
C3343 C3345 1.327 . S
C3343 C3349 1.429 . S
C3344 C3336 1.574 . S
C3344 H3339 0.949 . S
C3344 C3350 1.368 . S
C3345 C3329 1.349 . S
C3345 H3337 0.950 . S
C3345 C3343 1.327 . S
C3346 C3334 1.349 . S
C3346 H3340 0.950 . S
C3346 C3347 1.327 . S
C3347 H3341 0.950 . S
C3347 C3346 1.327 . S
C3347 C3351 1.429 . S
C3348 C3331 1.574 . S
C3348 H3342 0.949 . S
C3348 C3352 1.368 . S
C3349 C3330 1.429 . S
C3349 C3343 1.429 . S
C3349 C3350 1.523 . S
C3350 C3331 1.368 . S
C3350 C3344 1.368 . S
C3350 C3349 1.523 . S
C3351 C3335 1.429 . S
C3351 C3347 1.429 . S
C3351 C3352 1.523 . S
C3352 C3336 1.368 . S
C3352 C3348 1.368 . S
C3352 C3351 1.523 . S
H3353 C3328 0.950 . S
H3354 C3330 0.950 . S
H3355 C3331 0.949 . S
H3356 C3333 0.950 . S
H3357 C3335 0.950 . S
C3358 C3359 1.349 . S
C3358 C3360 1.327 . S
C3358 H3383 0.950 . S
C3359 C3358 1.349 . S
C3359 C3375 1.349 . S
C3360 C3358 1.327 . S
C3360 C3379 1.429 . S
C3360 H3384 0.950 . S
C3361 C3378 1.574 . S
C3361 C3380 1.368 . S
C3361 H3385 0.949 . S
H3362 C3366 0.949 . S
C3363 C3364 1.349 . S
C3363 C3365 1.327 . S
C3363 H3386 0.950 . S
C3364 C3363 1.349 . S
C3364 C3376 1.349 . S
C3365 C3363 1.327 . S
C3365 C3381 1.429 . S
C3365 H3387 0.950 . S
C3366 H3362 0.949 . S
C3366 C3374 1.574 . S
C3366 C3382 1.368 . S
H3367 C3375 0.950 . S
H3368 C3373 0.950 . S
H3369 C3374 0.949 . S
H3370 C3376 0.950 . S
H3371 C3377 0.950 . S
H3372 C3378 0.949 . S
C3373 H3368 0.950 . S
C3373 C3375 1.327 . S
C3373 C3379 1.429 . S
C3374 C3366 1.574 . S
C3374 H3369 0.949 . S
C3374 C3380 1.368 . S
C3375 C3359 1.349 . S
C3375 H3367 0.950 . S
C3375 C3373 1.327 . S
C3376 C3364 1.349 . S
C3376 H3370 0.950 . S
C3376 C3377 1.327 . S
C3377 H3371 0.950 . S
C3377 C3376 1.327 . S
C3377 C3381 1.429 . S
C3378 C3361 1.574 . S
C3378 H3372 0.949 . S
C3378 C3382 1.368 . S
C3379 C3360 1.429 . S
C3379 C3373 1.429 . S
C3379 C3380 1.523 . S
C3380 C3361 1.368 . S
C3380 C3374 1.368 . S
C3380 C3379 1.523 . S
C3381 C3365 1.429 . S
C3381 C3377 1.429 . S
C3381 C3382 1.523 . S
C3382 C3366 1.368 . S
C3382 C3378 1.368 . S
C3382 C3381 1.523 . S
H3383 C3358 0.950 . S
H3384 C3360 0.950 . S
H3385 C3361 0.949 . S
H3386 C3363 0.950 . S
H3387 C3365 0.950 . S
C3388 C3389 1.349 . S
C3388 C3390 1.327 . S
C3388 H3413 0.950 . S
C3389 C3388 1.349 . S
C3389 C3405 1.349 . S
C3390 C3388 1.327 . S
C3390 C3409 1.429 . S
C3390 H3414 0.950 . S
C3391 C3408 1.574 . S
C3391 C3410 1.368 . S
C3391 H3415 0.949 . S
H3392 C3396 0.949 . S
C3393 C3394 1.349 . S
C3393 C3395 1.327 . S
C3393 H3416 0.950 . S
C3394 C3393 1.349 . S
C3394 C3406 1.349 . S
C3395 C3393 1.327 . S
C3395 C3411 1.429 . S
C3395 H3417 0.950 . S
C3396 H3392 0.949 . S
C3396 C3404 1.574 . S
C3396 C3412 1.368 . S
H3397 C3405 0.950 . S
H3398 C3403 0.950 . S
H3399 C3404 0.949 . S
H3400 C3406 0.950 . S
H3401 C3407 0.950 . S
H3402 C3408 0.949 . S
C3403 H3398 0.950 . S
C3403 C3405 1.327 . S
C3403 C3409 1.429 . S
C3404 C3396 1.574 . S
C3404 H3399 0.949 . S
C3404 C3410 1.368 . S
C3405 C3389 1.349 . S
C3405 H3397 0.950 . S
C3405 C3403 1.327 . S
C3406 C3394 1.349 . S
C3406 H3400 0.950 . S
C3406 C3407 1.327 . S
C3407 H3401 0.950 . S
C3407 C3406 1.327 . S
C3407 C3411 1.429 . S
C3408 C3391 1.574 . S
C3408 H3402 0.949 . S
C3408 C3412 1.368 . S
C3409 C3390 1.429 . S
C3409 C3403 1.429 . S
C3409 C3410 1.523 . S
C3410 C3391 1.368 . S
C3410 C3404 1.368 . S
C3410 C3409 1.523 . S
C3411 C3395 1.429 . S
C3411 C3407 1.429 . S
C3411 C3412 1.523 . S
C3412 C3396 1.368 . S
C3412 C3408 1.368 . S
C3412 C3411 1.523 . S
H3413 C3388 0.950 . S
H3414 C3390 0.950 . S
H3415 C3391 0.949 . S
H3416 C3393 0.950 . S
H3417 C3395 0.950 . S
C3418 C3419 1.349 . S
C3418 C3420 1.327 . S
C3418 H3443 0.950 . S
C3419 C3418 1.349 . S
C3419 C3435 1.349 . S
C3420 C3418 1.327 . S
C3420 C3439 1.429 . S
C3420 H3444 0.950 . S
C3421 C3438 1.574 1_655 S
C3421 C3440 1.368 . S
C3421 H3445 0.949 . S
H3422 C3426 0.949 . S
C3423 C3424 1.349 . S
C3423 C3425 1.327 . S
C3423 H3446 0.950 . S
C3424 C3423 1.349 . S
C3424 C3436 1.349 . S
C3425 C3423 1.327 . S
C3425 C3441 1.429 . S
C3425 H3447 0.950 . S
C3426 H3422 0.949 . S
C3426 C3434 1.574 1_455 S
C3426 C3442 1.368 . S
H3427 C3435 0.950 . S
H3428 C3433 0.950 . S
H3429 C3434 0.949 . S
H3430 C3436 0.950 . S
H3431 C3437 0.950 . S
H3432 C3438 0.949 . S
C3433 H3428 0.950 . S
C3433 C3435 1.327 . S
C3433 C3439 1.429 . S
C3434 C3426 1.574 1_655 S
C3434 H3429 0.949 . S
C3434 C3440 1.368 . S
C3435 C3419 1.349 . S
C3435 H3427 0.950 . S
C3435 C3433 1.327 . S
C3436 C3424 1.349 . S
C3436 H3430 0.950 . S
C3436 C3437 1.327 . S
C3437 H3431 0.950 . S
C3437 C3436 1.327 . S
C3437 C3441 1.429 . S
C3438 C3421 1.574 1_455 S
C3438 H3432 0.949 . S
C3438 C3442 1.368 . S
C3439 C3420 1.429 . S
C3439 C3433 1.429 . S
C3439 C3440 1.523 . S
C3440 C3421 1.368 . S
C3440 C3434 1.368 . S
C3440 C3439 1.523 . S
C3441 C3425 1.429 . S
C3441 C3437 1.429 . S
C3441 C3442 1.523 . S
C3442 C3426 1.368 . S
C3442 C3438 1.368 . S
C3442 C3441 1.523 . S
H3443 C3418 0.950 . S
H3444 C3420 0.950 . S
H3445 C3421 0.949 . S
H3446 C3423 0.950 . S
H3447 C3425 0.950 . S
C3448 C3449 1.349 . S
C3448 C3450 1.327 . S
C3448 H3473 0.950 . S
C3449 C3448 1.349 . S
C3449 C3465 1.349 . S
C3450 C3448 1.327 . S
C3450 C3469 1.429 . S
C3450 H3474 0.950 . S
C3451 C3468 1.574 . S
C3451 C3470 1.368 . S
C3451 H3475 0.949 . S
H3452 C3456 0.949 . S
C3453 C3454 1.349 . S
C3453 C3455 1.327 . S
C3453 H3476 0.950 . S
C3454 C3453 1.349 . S
C3454 C3466 1.349 . S
C3455 C3453 1.327 . S
C3455 C3471 1.429 . S
C3455 H3477 0.950 . S
C3456 H3452 0.949 . S
C3456 C3464 1.574 . S
C3456 C3472 1.368 . S
H3457 C3465 0.950 . S
H3458 C3463 0.950 . S
H3459 C3464 0.949 . S
H3460 C3466 0.950 . S
H3461 C3467 0.950 . S
H3462 C3468 0.949 . S
C3463 H3458 0.950 . S
C3463 C3465 1.327 . S
C3463 C3469 1.429 . S
C3464 C3456 1.574 . S
C3464 H3459 0.949 . S
C3464 C3470 1.368 . S
C3465 C3449 1.349 . S
C3465 H3457 0.950 . S
C3465 C3463 1.327 . S
C3466 C3454 1.349 . S
C3466 H3460 0.950 . S
C3466 C3467 1.327 . S
C3467 H3461 0.950 . S
C3467 C3466 1.327 . S
C3467 C3471 1.429 . S
C3468 C3451 1.574 . S
C3468 H3462 0.949 . S
C3468 C3472 1.368 . S
C3469 C3450 1.429 . S
C3469 C3463 1.429 . S
C3469 C3470 1.523 . S
C3470 C3451 1.368 . S
C3470 C3464 1.368 . S
C3470 C3469 1.523 . S
C3471 C3455 1.429 . S
C3471 C3467 1.429 . S
C3471 C3472 1.523 . S
C3472 C3456 1.368 . S
C3472 C3468 1.368 . S
C3472 C3471 1.523 . S
H3473 C3448 0.950 . S
H3474 C3450 0.950 . S
H3475 C3451 0.949 . S
H3476 C3453 0.950 . S
H3477 C3455 0.950 . S
C3478 C3479 1.349 . S
C3478 C3480 1.327 . S
C3478 H3503 0.950 . S
C3479 C3478 1.349 . S
C3479 C3495 1.349 . S
C3480 C3478 1.327 . S
C3480 C3499 1.429 . S
C3480 H3504 0.950 . S
C3481 C3498 1.574 1_655 S
C3481 C3500 1.368 . S
C3481 H3505 0.949 . S
H3482 C3486 0.949 . S
C3483 C3484 1.349 . S
C3483 C3485 1.327 . S
C3483 H3506 0.950 . S
C3484 C3483 1.349 . S
C3484 C3496 1.349 . S
C3485 C3483 1.327 . S
C3485 C3501 1.429 . S
C3485 H3507 0.950 . S
C3486 H3482 0.949 . S
C3486 C3494 1.574 1_455 S
C3486 C3502 1.368 . S
H3487 C3495 0.950 . S
H3488 C3493 0.950 . S
H3489 C3494 0.949 . S
H3490 C3496 0.950 . S
H3491 C3497 0.950 . S
H3492 C3498 0.949 . S
C3493 H3488 0.950 . S
C3493 C3495 1.327 . S
C3493 C3499 1.429 . S
C3494 C3486 1.574 1_655 S
C3494 H3489 0.949 . S
C3494 C3500 1.368 . S
C3495 C3479 1.349 . S
C3495 H3487 0.950 . S
C3495 C3493 1.327 . S
C3496 C3484 1.349 . S
C3496 H3490 0.950 . S
C3496 C3497 1.327 . S
C3497 H3491 0.950 . S
C3497 C3496 1.327 . S
C3497 C3501 1.429 . S
C3498 C3481 1.574 1_455 S
C3498 H3492 0.949 . S
C3498 C3502 1.368 . S
C3499 C3480 1.429 . S
C3499 C3493 1.429 . S
C3499 C3500 1.523 . S
C3500 C3481 1.368 . S
C3500 C3494 1.368 . S
C3500 C3499 1.523 . S
C3501 C3485 1.429 . S
C3501 C3497 1.429 . S
C3501 C3502 1.523 . S
C3502 C3486 1.368 . S
C3502 C3498 1.368 . S
C3502 C3501 1.523 . S
H3503 C3478 0.950 . S
H3504 C3480 0.950 . S
H3505 C3481 0.949 . S
H3506 C3483 0.950 . S
H3507 C3485 0.950 . S
C3508 C3509 1.349 . S
C3508 C3510 1.327 . S
C3508 H3533 0.950 . S
C3509 C3508 1.349 . S
C3509 C3525 1.349 . S
C3510 C3508 1.327 . S
C3510 C3529 1.429 . S
C3510 H3534 0.950 . S
C3511 C3528 1.574 . S
C3511 C3530 1.368 . S
C3511 H3535 0.949 . S
H3512 C3516 0.949 . S
C3513 C3514 1.349 . S
C3513 C3515 1.327 . S
C3513 H3536 0.950 . S
C3514 C3513 1.349 . S
C3514 C3526 1.349 . S
C3515 C3513 1.327 . S
C3515 C3531 1.429 . S
C3515 H3537 0.950 . S
C3516 H3512 0.949 . S
C3516 C3524 1.574 . S
C3516 C3532 1.368 . S
H3517 C3525 0.950 . S
H3518 C3523 0.950 . S
H3519 C3524 0.949 . S
H3520 C3526 0.950 . S
H3521 C3527 0.950 . S
H3522 C3528 0.949 . S
C3523 H3518 0.950 . S
C3523 C3525 1.327 . S
C3523 C3529 1.429 . S
C3524 C3516 1.574 . S
C3524 H3519 0.949 . S
C3524 C3530 1.368 . S
C3525 C3509 1.349 . S
C3525 H3517 0.950 . S
C3525 C3523 1.327 . S
C3526 C3514 1.349 . S
C3526 H3520 0.950 . S
C3526 C3527 1.327 . S
C3527 H3521 0.950 . S
C3527 C3526 1.327 . S
C3527 C3531 1.429 . S
C3528 C3511 1.574 . S
C3528 H3522 0.949 . S
C3528 C3532 1.368 . S
C3529 C3510 1.429 . S
C3529 C3523 1.429 . S
C3529 C3530 1.523 . S
C3530 C3511 1.368 . S
C3530 C3524 1.368 . S
C3530 C3529 1.523 . S
C3531 C3515 1.429 . S
C3531 C3527 1.429 . S
C3531 C3532 1.523 . S
C3532 C3516 1.368 . S
C3532 C3528 1.368 . S
C3532 C3531 1.523 . S
H3533 C3508 0.950 . S
H3534 C3510 0.950 . S
H3535 C3511 0.949 . S
H3536 C3513 0.950 . S
H3537 C3515 0.950 . S
C3538 C3539 1.349 . S
C3538 C3540 1.327 . S
C3538 H3563 0.950 . S
C3539 C3538 1.349 . S
C3539 C3555 1.349 . S
C3540 C3538 1.327 . S
C3540 C3559 1.429 . S
C3540 H3564 0.950 . S
C3541 C3558 1.574 . S
C3541 C3560 1.368 . S
C3541 H3565 0.949 . S
H3542 C3546 0.949 . S
C3543 C3544 1.349 . S
C3543 C3545 1.327 . S
C3543 H3566 0.950 . S
C3544 C3543 1.349 . S
C3544 C3556 1.349 . S
C3545 C3543 1.327 . S
C3545 C3561 1.429 . S
C3545 H3567 0.950 . S
C3546 H3542 0.949 . S
C3546 C3554 1.574 . S
C3546 C3562 1.368 . S
H3547 C3555 0.950 . S
H3548 C3553 0.950 . S
H3549 C3554 0.949 . S
H3550 C3556 0.950 . S
H3551 C3557 0.950 . S
H3552 C3558 0.949 . S
C3553 H3548 0.950 . S
C3553 C3555 1.327 . S
C3553 C3559 1.429 . S
C3554 C3546 1.574 . S
C3554 H3549 0.949 . S
C3554 C3560 1.368 . S
C3555 C3539 1.349 . S
C3555 H3547 0.950 . S
C3555 C3553 1.327 . S
C3556 C3544 1.349 . S
C3556 H3550 0.950 . S
C3556 C3557 1.327 . S
C3557 H3551 0.950 . S
C3557 C3556 1.327 . S
C3557 C3561 1.429 . S
C3558 C3541 1.574 . S
C3558 H3552 0.949 . S
C3558 C3562 1.368 . S
C3559 C3540 1.429 . S
C3559 C3553 1.429 . S
C3559 C3560 1.523 . S
C3560 C3541 1.368 . S
C3560 C3554 1.368 . S
C3560 C3559 1.523 . S
C3561 C3545 1.429 . S
C3561 C3557 1.429 . S
C3561 C3562 1.523 . S
C3562 C3546 1.368 . S
C3562 C3558 1.368 . S
C3562 C3561 1.523 . S
H3563 C3538 0.950 . S
H3564 C3540 0.950 . S
H3565 C3541 0.949 . S
H3566 C3543 0.950 . S
H3567 C3545 0.950 . S
C3568 C3569 1.349 . S
C3568 C3570 1.327 . S
C3568 H3593 0.950 . S
C3569 C3568 1.349 . S
C3569 C3585 1.349 . S
C3570 C3568 1.327 . S
C3570 C3589 1.429 . S
C3570 H3594 0.950 . S
C3571 C3588 1.574 . S
C3571 C3590 1.368 . S
C3571 H3595 0.949 . S
H3572 C3576 0.949 . S
C3573 C3574 1.349 . S
C3573 C3575 1.327 . S
C3573 H3596 0.950 . S
C3574 C3573 1.349 . S
C3574 C3586 1.349 . S
C3575 C3573 1.327 . S
C3575 C3591 1.429 . S
C3575 H3597 0.950 . S
C3576 H3572 0.949 . S
C3576 C3584 1.574 . S
C3576 C3592 1.368 . S
H3577 C3585 0.950 . S
H3578 C3583 0.950 . S
H3579 C3584 0.949 . S
H3580 C3586 0.950 . S
H3581 C3587 0.950 . S
H3582 C3588 0.949 . S
C3583 H3578 0.950 . S
C3583 C3585 1.327 . S
C3583 C3589 1.429 . S
C3584 C3576 1.574 . S
C3584 H3579 0.949 . S
C3584 C3590 1.368 . S
C3585 C3569 1.349 . S
C3585 H3577 0.950 . S
C3585 C3583 1.327 . S
C3586 C3574 1.349 . S
C3586 H3580 0.950 . S
C3586 C3587 1.327 . S
C3587 H3581 0.950 . S
C3587 C3586 1.327 . S
C3587 C3591 1.429 . S
C3588 C3571 1.574 . S
C3588 H3582 0.949 . S
C3588 C3592 1.368 . S
C3589 C3570 1.429 . S
C3589 C3583 1.429 . S
C3589 C3590 1.523 . S
C3590 C3571 1.368 . S
C3590 C3584 1.368 . S
C3590 C3589 1.523 . S
C3591 C3575 1.429 . S
C3591 C3587 1.429 . S
C3591 C3592 1.523 . S
C3592 C3576 1.368 . S
C3592 C3588 1.368 . S
C3592 C3591 1.523 . S
H3593 C3568 0.950 . S
H3594 C3570 0.950 . S
H3595 C3571 0.949 . S
H3596 C3573 0.950 . S
H3597 C3575 0.950 . S
C3598 C3599 1.349 . S
C3598 C3600 1.327 . S
C3598 H3623 0.950 . S
C3599 C3598 1.349 . S
C3599 C3615 1.349 . S
C3600 C3598 1.327 . S
C3600 C3619 1.429 . S
C3600 H3624 0.950 . S
C3601 C3618 1.574 . S
C3601 C3620 1.368 . S
C3601 H3625 0.949 . S
H3602 C3606 0.949 . S
C3603 C3604 1.349 . S
C3603 C3605 1.327 . S
C3603 H3626 0.950 . S
C3604 C3603 1.349 . S
C3604 C3616 1.349 . S
C3605 C3603 1.327 . S
C3605 C3621 1.429 . S
C3605 H3627 0.950 . S
C3606 H3602 0.949 . S
C3606 C3614 1.574 . S
C3606 C3622 1.368 . S
H3607 C3615 0.950 . S
H3608 C3613 0.950 . S
H3609 C3614 0.949 . S
H3610 C3616 0.950 . S
H3611 C3617 0.950 . S
H3612 C3618 0.949 . S
C3613 H3608 0.950 . S
C3613 C3615 1.327 . S
C3613 C3619 1.429 . S
C3614 C3606 1.574 . S
C3614 H3609 0.949 . S
C3614 C3620 1.368 . S
C3615 C3599 1.349 . S
C3615 H3607 0.950 . S
C3615 C3613 1.327 . S
C3616 C3604 1.349 . S
C3616 H3610 0.950 . S
C3616 C3617 1.327 . S
C3617 H3611 0.950 . S
C3617 C3616 1.327 . S
C3617 C3621 1.429 . S
C3618 C3601 1.574 . S
C3618 H3612 0.949 . S
C3618 C3622 1.368 . S
C3619 C3600 1.429 . S
C3619 C3613 1.429 . S
C3619 C3620 1.523 . S
C3620 C3601 1.368 . S
C3620 C3614 1.368 . S
C3620 C3619 1.523 . S
C3621 C3605 1.429 . S
C3621 C3617 1.429 . S
C3621 C3622 1.523 . S
C3622 C3606 1.368 . S
C3622 C3618 1.368 . S
C3622 C3621 1.523 . S
H3623 C3598 0.950 . S
H3624 C3600 0.950 . S
H3625 C3601 0.949 . S
H3626 C3603 0.950 . S
H3627 C3605 0.950 . S
C3628 C3629 1.349 . S
C3628 C3630 1.327 . S
C3628 H3653 0.950 . S
C3629 C3628 1.349 . S
C3629 C3645 1.349 . S
C3630 C3628 1.327 . S
C3630 C3649 1.429 . S
C3630 H3654 0.950 . S
C3631 C3648 1.574 . S
C3631 C3650 1.368 . S
C3631 H3655 0.949 . S
H3632 C3636 0.949 . S
C3633 C3634 1.349 . S
C3633 C3635 1.327 . S
C3633 H3656 0.950 . S
C3634 C3633 1.349 . S
C3634 C3646 1.349 . S
C3635 C3633 1.327 . S
C3635 C3651 1.429 . S
C3635 H3657 0.950 . S
C3636 H3632 0.949 . S
C3636 C3644 1.574 . S
C3636 C3652 1.368 . S
H3637 C3645 0.950 . S
H3638 C3643 0.950 . S
H3639 C3644 0.949 . S
H3640 C3646 0.950 . S
H3641 C3647 0.950 . S
H3642 C3648 0.949 . S
C3643 H3638 0.950 . S
C3643 C3645 1.327 . S
C3643 C3649 1.429 . S
C3644 C3636 1.574 . S
C3644 H3639 0.949 . S
C3644 C3650 1.368 . S
C3645 C3629 1.349 . S
C3645 H3637 0.950 . S
C3645 C3643 1.327 . S
C3646 C3634 1.349 . S
C3646 H3640 0.950 . S
C3646 C3647 1.327 . S
C3647 H3641 0.950 . S
C3647 C3646 1.327 . S
C3647 C3651 1.429 . S
C3648 C3631 1.574 . S
C3648 H3642 0.949 . S
C3648 C3652 1.368 . S
C3649 C3630 1.429 . S
C3649 C3643 1.429 . S
C3649 C3650 1.523 . S
C3650 C3631 1.368 . S
C3650 C3644 1.368 . S
C3650 C3649 1.523 . S
C3651 C3635 1.429 . S
C3651 C3647 1.429 . S
C3651 C3652 1.523 . S
C3652 C3636 1.368 . S
C3652 C3648 1.368 . S
C3652 C3651 1.523 . S
H3653 C3628 0.950 . S
H3654 C3630 0.950 . S
H3655 C3631 0.949 . S
H3656 C3633 0.950 . S
H3657 C3635 0.950 . S
C3658 C3659 1.349 . S
C3658 C3660 1.327 . S
C3658 H3683 0.950 . S
C3659 C3658 1.349 . S
C3659 C3675 1.349 . S
C3660 C3658 1.327 . S
C3660 C3679 1.429 . S
C3660 H3684 0.950 . S
C3661 C3678 1.574 . S
C3661 C3680 1.368 . S
C3661 H3685 0.949 . S
H3662 C3666 0.949 . S
C3663 C3664 1.349 . S
C3663 C3665 1.327 . S
C3663 H3686 0.950 . S
C3664 C3663 1.349 . S
C3664 C3676 1.349 . S
C3665 C3663 1.327 . S
C3665 C3681 1.429 . S
C3665 H3687 0.950 . S
C3666 H3662 0.949 . S
C3666 C3674 1.574 . S
C3666 C3682 1.368 . S
H3667 C3675 0.950 . S
H3668 C3673 0.950 . S
H3669 C3674 0.949 . S
H3670 C3676 0.950 . S
H3671 C3677 0.950 . S
H3672 C3678 0.949 . S
C3673 H3668 0.950 . S
C3673 C3675 1.327 . S
C3673 C3679 1.429 . S
C3674 C3666 1.574 . S
C3674 H3669 0.949 . S
C3674 C3680 1.368 . S
C3675 C3659 1.349 . S
C3675 H3667 0.950 . S
C3675 C3673 1.327 . S
C3676 C3664 1.349 . S
C3676 H3670 0.950 . S
C3676 C3677 1.327 . S
C3677 H3671 0.950 . S
C3677 C3676 1.327 . S
C3677 C3681 1.429 . S
C3678 C3661 1.574 . S
C3678 H3672 0.949 . S
C3678 C3682 1.368 . S
C3679 C3660 1.429 . S
C3679 C3673 1.429 . S
C3679 C3680 1.523 . S
C3680 C3661 1.368 . S
C3680 C3674 1.368 . S
C3680 C3679 1.523 . S
C3681 C3665 1.429 . S
C3681 C3677 1.429 . S
C3681 C3682 1.523 . S
C3682 C3666 1.368 . S
C3682 C3678 1.368 . S
C3682 C3681 1.523 . S
H3683 C3658 0.950 . S
H3684 C3660 0.950 . S
H3685 C3661 0.949 . S
H3686 C3663 0.950 . S
H3687 C3665 0.950 . S
C3688 C3689 1.349 . S
C3688 C3690 1.327 . S
C3688 H3713 0.950 . S
C3689 C3688 1.349 . S
C3689 C3705 1.349 . S
C3690 C3688 1.327 . S
C3690 C3709 1.429 . S
C3690 H3714 0.950 . S
C3691 C3708 1.574 1_655 S
C3691 C3710 1.368 . S
C3691 H3715 0.949 . S
H3692 C3696 0.949 . S
C3693 C3694 1.349 . S
C3693 C3695 1.327 . S
C3693 H3716 0.950 . S
C3694 C3693 1.349 . S
C3694 C3706 1.349 . S
C3695 C3693 1.327 . S
C3695 C3711 1.429 . S
C3695 H3717 0.950 . S
C3696 H3692 0.949 . S
C3696 C3704 1.574 1_455 S
C3696 C3712 1.368 . S
H3697 C3705 0.950 . S
H3698 C3703 0.950 . S
H3699 C3704 0.949 . S
H3700 C3706 0.950 . S
H3701 C3707 0.950 . S
H3702 C3708 0.949 . S
C3703 H3698 0.950 . S
C3703 C3705 1.327 . S
C3703 C3709 1.429 . S
C3704 C3696 1.574 1_655 S
C3704 H3699 0.949 . S
C3704 C3710 1.368 . S
C3705 C3689 1.349 . S
C3705 H3697 0.950 . S
C3705 C3703 1.327 . S
C3706 C3694 1.349 . S
C3706 H3700 0.950 . S
C3706 C3707 1.327 . S
C3707 H3701 0.950 . S
C3707 C3706 1.327 . S
C3707 C3711 1.429 . S
C3708 C3691 1.574 1_455 S
C3708 H3702 0.949 . S
C3708 C3712 1.368 . S
C3709 C3690 1.429 . S
C3709 C3703 1.429 . S
C3709 C3710 1.523 . S
C3710 C3691 1.368 . S
C3710 C3704 1.368 . S
C3710 C3709 1.523 . S
C3711 C3695 1.429 . S
C3711 C3707 1.429 . S
C3711 C3712 1.523 . S
C3712 C3696 1.368 . S
C3712 C3708 1.368 . S
C3712 C3711 1.523 . S
H3713 C3688 0.950 . S
H3714 C3690 0.950 . S
H3715 C3691 0.949 . S
H3716 C3693 0.950 . S
H3717 C3695 0.950 . S
C3718 C3719 1.349 . S
C3718 C3720 1.327 . S
C3718 H3743 0.950 . S
C3719 C3718 1.349 . S
C3719 C3735 1.349 . S
C3720 C3718 1.327 . S
C3720 C3739 1.429 . S
C3720 H3744 0.950 . S
C3721 C3738 1.574 . S
C3721 C3740 1.368 . S
C3721 H3745 0.949 . S
H3722 C3726 0.949 . S
C3723 C3724 1.349 . S
C3723 C3725 1.327 . S
C3723 H3746 0.950 . S
C3724 C3723 1.349 . S
C3724 C3736 1.349 . S
C3725 C3723 1.327 . S
C3725 C3741 1.429 . S
C3725 H3747 0.950 . S
C3726 H3722 0.949 . S
C3726 C3734 1.574 . S
C3726 C3742 1.368 . S
H3727 C3735 0.950 . S
H3728 C3733 0.950 . S
H3729 C3734 0.949 . S
H3730 C3736 0.950 . S
H3731 C3737 0.950 . S
H3732 C3738 0.949 . S
C3733 H3728 0.950 . S
C3733 C3735 1.327 . S
C3733 C3739 1.429 . S
C3734 C3726 1.574 . S
C3734 H3729 0.949 . S
C3734 C3740 1.368 . S
C3735 C3719 1.349 . S
C3735 H3727 0.950 . S
C3735 C3733 1.327 . S
C3736 C3724 1.349 . S
C3736 H3730 0.950 . S
C3736 C3737 1.327 . S
C3737 H3731 0.950 . S
C3737 C3736 1.327 . S
C3737 C3741 1.429 . S
C3738 C3721 1.574 . S
C3738 H3732 0.949 . S
C3738 C3742 1.368 . S
C3739 C3720 1.429 . S
C3739 C3733 1.429 . S
C3739 C3740 1.523 . S
C3740 C3721 1.368 . S
C3740 C3734 1.368 . S
C3740 C3739 1.523 . S
C3741 C3725 1.429 . S
C3741 C3737 1.429 . S
C3741 C3742 1.523 . S
C3742 C3726 1.368 . S
C3742 C3738 1.368 . S
C3742 C3741 1.523 . S
H3743 C3718 0.950 . S
H3744 C3720 0.950 . S
H3745 C3721 0.949 . S
H3746 C3723 0.950 . S
H3747 C3725 0.950 . S
C3748 C3749 1.349 . S
C3748 C3750 1.327 . S
C3748 H3773 0.950 . S
C3749 C3748 1.349 . S
C3749 C3765 1.349 . S
C3750 C3748 1.327 . S
C3750 C3769 1.429 . S
C3750 H3774 0.950 . S
C3751 C3768 1.574 . S
C3751 C3770 1.368 . S
C3751 H3775 0.949 . S
H3752 C3756 0.949 . S
C3753 C3754 1.349 . S
C3753 C3755 1.327 . S
C3753 H3776 0.950 . S
C3754 C3753 1.349 . S
C3754 C3766 1.349 . S
C3755 C3753 1.327 . S
C3755 C3771 1.429 . S
C3755 H3777 0.950 . S
C3756 H3752 0.949 . S
C3756 C3764 1.574 . S
C3756 C3772 1.368 . S
H3757 C3765 0.950 . S
H3758 C3763 0.950 . S
H3759 C3764 0.949 . S
H3760 C3766 0.950 . S
H3761 C3767 0.950 . S
H3762 C3768 0.949 . S
C3763 H3758 0.950 . S
C3763 C3765 1.327 . S
C3763 C3769 1.429 . S
C3764 C3756 1.574 . S
C3764 H3759 0.949 . S
C3764 C3770 1.368 . S
C3765 C3749 1.349 . S
C3765 H3757 0.950 . S
C3765 C3763 1.327 . S
C3766 C3754 1.349 . S
C3766 H3760 0.950 . S
C3766 C3767 1.327 . S
C3767 H3761 0.950 . S
C3767 C3766 1.327 . S
C3767 C3771 1.429 . S
C3768 C3751 1.574 . S
C3768 H3762 0.949 . S
C3768 C3772 1.368 . S
C3769 C3750 1.429 . S
C3769 C3763 1.429 . S
C3769 C3770 1.523 . S
C3770 C3751 1.368 . S
C3770 C3764 1.368 . S
C3770 C3769 1.523 . S
C3771 C3755 1.429 . S
C3771 C3767 1.429 . S
C3771 C3772 1.523 . S
C3772 C3756 1.368 . S
C3772 C3768 1.368 . S
C3772 C3771 1.523 . S
H3773 C3748 0.950 . S
H3774 C3750 0.950 . S
H3775 C3751 0.949 . S
H3776 C3753 0.950 . S
H3777 C3755 0.950 . S
C3778 C3779 1.349 . S
C3778 C3780 1.327 . S
C3778 H3803 0.950 . S
C3779 C3778 1.349 . S
C3779 C3795 1.349 . S
C3780 C3778 1.327 . S
C3780 C3799 1.429 . S
C3780 H3804 0.950 . S
C3781 C3798 1.574 1_655 S
C3781 C3800 1.368 . S
C3781 H3805 0.949 . S
H3782 C3786 0.949 . S
C3783 C3784 1.349 . S
C3783 C3785 1.327 . S
C3783 H3806 0.950 . S
C3784 C3783 1.349 . S
C3784 C3796 1.349 . S
C3785 C3783 1.327 . S
C3785 C3801 1.429 . S
C3785 H3807 0.950 . S
C3786 H3782 0.949 . S
C3786 C3794 1.574 1_455 S
C3786 C3802 1.368 . S
H3787 C3795 0.950 . S
H3788 C3793 0.950 . S
H3789 C3794 0.949 . S
H3790 C3796 0.950 . S
H3791 C3797 0.950 . S
H3792 C3798 0.949 . S
C3793 H3788 0.950 . S
C3793 C3795 1.327 . S
C3793 C3799 1.429 . S
C3794 C3786 1.574 1_655 S
C3794 H3789 0.949 . S
C3794 C3800 1.368 . S
C3795 C3779 1.349 . S
C3795 H3787 0.950 . S
C3795 C3793 1.327 . S
C3796 C3784 1.349 . S
C3796 H3790 0.950 . S
C3796 C3797 1.327 . S
C3797 H3791 0.950 . S
C3797 C3796 1.327 . S
C3797 C3801 1.429 . S
C3798 C3781 1.574 1_455 S
C3798 H3792 0.949 . S
C3798 C3802 1.368 . S
C3799 C3780 1.429 . S
C3799 C3793 1.429 . S
C3799 C3800 1.523 . S
C3800 C3781 1.368 . S
C3800 C3794 1.368 . S
C3800 C3799 1.523 . S
C3801 C3785 1.429 . S
C3801 C3797 1.429 . S
C3801 C3802 1.523 . S
C3802 C3786 1.368 . S
C3802 C3798 1.368 . S
C3802 C3801 1.523 . S
H3803 C3778 0.950 . S
H3804 C3780 0.950 . S
H3805 C3781 0.949 . S
H3806 C3783 0.950 . S
H3807 C3785 0.950 . S
C1889 C1362 1.859 . S
C1894 C3 1.849 . S
C1919 C1183 1.849 . S
C1924 C64 1.859 . S
C1949 C1244 1.859 . S
C1954 C121 1.849 . S
C1979 C1301 1.849 . S
C1984 C182 1.859 . S
C2009 C239 1.849 . S
C2014 C1008 1.859 . S
C2039 C1065 1.849 . S
C2044 C300 1.859 . S
C2069 C357 1.849 . S
C2074 C1126 1.859 . S
C2099 C418 1.859 . S
C2104 C947 1.849 . S
C2129 C1832 1.856 . S
C2134 C475 1.856 . S
C2159 C534 1.856 . S
C2164 C1655 1.856 . S
C2189 C593 1.856 . S
C2194 C1714 1.856 . S
C2219 C652 1.856 . S
C2224 C1773 1.856 . S
C2249 C711 1.856 . S
C2254 C1478 1.856 . S
C2279 C770 1.856 . S
C2284 C1537 1.856 . S
C2309 C829 1.856 . S
C2314 C1596 1.856 . S
C2339 C888 1.856 . S
C2344 C1419 1.856 . S
C2369 C33 1.225 . S
C2374 C741 1.225 . S
C2399 C1744 1.223 . S
C2404 C111 1.215 . S
C2429 C151 1.225 . S
C2434 C859 1.225 . S
C2459 C1862 1.223 . S
C2464 C229 1.215 . S
C2489 C505 1.225 . S
C2494 C269 1.225 . S
C2519 C347 1.215 . S
C2524 C1508 1.223 . S
C2549 C387 1.225 . S
C2554 C623 1.225 . S
C2579 C465 1.215 . S
C2584 C1626 1.223 . S
C2609 C1291 1.215 . S
C2614 C564 1.223 . S
C2639 C1409 1.215 . S
C2644 C682 1.223 . S
C2669 C800 1.223 . S
C2674 C1055 1.215 . S
C2699 C1173 1.215 . S
C2704 C918 1.223 . S
C2729 C1685 1.225 . S
C2734 C977 1.225 . S
C2759 C1095 1.225 . S
C2764 C1803 1.225 . S
C2789 C1449 1.225 . S
C2794 C1213 1.225 . S
C2819 C1567 1.225 . S
C2824 C1331 1.225 . S
C2849 C241 1.207 . S
C2854 C5 1.207 . S
C2879 C298 1.200 . S
C2884 C62 1.200 . S
C2909 C123 1.207 . S
C2914 C359 1.207 . S
C2939 C180 1.200 . S
C2944 C416 1.200 . S
C2969 C713 1.204 . S
C2974 C477 1.204 . S
C2999 C772 1.201 . S
C3004 C536 1.201 . S
C3029 C831 1.204 . S
C3034 C595 1.204 . S
C3059 C654 1.201 . S
C3064 C890 1.201 . S
C3089 C949 1.207 . S
C3094 C1185 1.207 . S
C3119 C1006 1.200 . S
C3124 C1242 1.200 . S
C3149 C1067 1.207 . S
C3154 C1303 1.207 . S
C3179 C1124 1.200 . S
C3184 C1360 1.200 . S
C3209 C1657 1.204 . S
C3214 C1421 1.204 . S
C3239 C1716 1.201 . S
C3244 C1480 1.201 . S
C3269 C1775 1.204 . S
C3274 C1539 1.204 . S
C3299 C1834 1.201 . S
C3304 C1598 1.201 . S
C3329 C1822 1.738 . S
C3334 C52 1.737 . S
C3359 C92 1.731 . S
C3364 C937 1.735 . S
C3389 C1704 1.738 . S
C3394 C170 1.737 . S
C3419 C210 1.731 . S
C3424 C819 1.735 . S
C3449 C1586 1.738 . S
C3454 C288 1.737 . S
C3479 C328 1.731 . S
C3484 C701 1.735 . S
C3509 C406 1.737 . S
C3514 C1468 1.738 . S
C3539 C583 1.735 . S
C3544 C446 1.731 . S
C3569 C524 1.738 . S
C3574 C1350 1.737 . S
C3599 C1232 1.737 . S
C3604 C642 1.738 . S
C3629 C760 1.738 . S
C3634 C1114 1.737 . S
C3659 C878 1.738 . S
C3664 C996 1.737 . S
C3689 C1881 1.735 . S
C3694 C1036 1.731 . S
C3719 C1154 1.731 . S
C3724 C1763 1.735 . S
C3749 C1272 1.731 . S
C3754 C1645 1.735 . S
C3779 C1527 1.735 . S
C3784 C1390 1.731 . S
