# Generated by pormake.
# Topology yfk, (5)-cn, num edge types: 1
# Building blocks:
#     Node 0, Type 0, BuildingBlock: BEQFEK_clean_sbu_0, # of connection points: 5
#     Node 1, Type 0, BuildingBlock: BEQFEK_clean_sbu_0, # of connection points: 5
#     Node 2, Type 0, BuildingBlock: BEQFEK_clean_sbu_0, # of connection points: 5
#     Node 3, Type 0, BuildingBlock: BEQFEK_clean_sbu_0, # of connection points: 5
#     Node 4, Type 0, BuildingBlock: BEQFEK_clean_sbu_0, # of connection points: 5
#     Node 5, Type 0, BuildingBlock: BEQFEK_clean_sbu_0, # of connection points: 5
#     Node 6, Type 0, BuildingBlock: BEQFEK_clean_sbu_0, # of connection points: 5
#     Node 7, Type 0, BuildingBlock: BEQFEK_clean_sbu_0, # of connection points: 5
#     Node 8, Type 0, BuildingBlock: BEQFEK_clean_sbu_0, # of connection points: 5
#     Node 9, Type 0, BuildingBlock: BEQFEK_clean_sbu_0, # of connection points: 5
#     Node 10, Type 0, BuildingBlock: BEQFEK_clean_sbu_0, # of connection points: 5
#     Node 11, Type 0, BuildingBlock: BEQFEK_clean_sbu_0, # of connection points: 5
#     Node 12, Type 0, BuildingBlock: BEQFEK_clean_sbu_0, # of connection points: 5
#     Node 13, Type 0, BuildingBlock: BEQFEK_clean_sbu_0, # of connection points: 5
#     Node 14, Type 0, BuildingBlock: BEQFEK_clean_sbu_0, # of connection points: 5
#     Node 15, Type 0, BuildingBlock: BEQFEK_clean_sbu_0, # of connection points: 5
#     Edge 16, Type (0, 0), BuildingBlock: KIFKEQ_clean_linker_1, # of connection points: 2
#     Edge 17, Type (0, 0), BuildingBlock: KIFKEQ_clean_linker_1, # of connection points: 2
#     Edge 18, Type (0, 0), BuildingBlock: KIFKEQ_clean_linker_1, # of connection points: 2
#     Edge 19, Type (0, 0), BuildingBlock: KIFKEQ_clean_linker_1, # of connection points: 2
#     Edge 20, Type (0, 0), BuildingBlock: KIFKEQ_clean_linker_1, # of connection points: 2
#     Edge 21, Type (0, 0), BuildingBlock: KIFKEQ_clean_linker_1, # of connection points: 2
#     Edge 22, Type (0, 0), BuildingBlock: KIFKEQ_clean_linker_1, # of connection points: 2
#     Edge 23, Type (0, 0), BuildingBlock: KIFKEQ_clean_linker_1, # of connection points: 2
#     Edge 24, Type (0, 0), BuildingBlock: KIFKEQ_clean_linker_1, # of connection points: 2
#     Edge 25, Type (0, 0), BuildingBlock: KIFKEQ_clean_linker_1, # of connection points: 2
#     Edge 26, Type (0, 0), BuildingBlock: KIFKEQ_clean_linker_1, # of connection points: 2
#     Edge 27, Type (0, 0), BuildingBlock: KIFKEQ_clean_linker_1, # of connection points: 2
#     Edge 28, Type (0, 0), BuildingBlock: KIFKEQ_clean_linker_1, # of connection points: 2
#     Edge 29, Type (0, 0), BuildingBlock: KIFKEQ_clean_linker_1, # of connection points: 2
#     Edge 30, Type (0, 0), BuildingBlock: KIFKEQ_clean_linker_1, # of connection points: 2
#     Edge 31, Type (0, 0), BuildingBlock: KIFKEQ_clean_linker_1, # of connection points: 2
#     Edge 32, Type (0, 0), BuildingBlock: KIFKEQ_clean_linker_1, # of connection points: 2
#     Edge 33, Type (0, 0), BuildingBlock: KIFKEQ_clean_linker_1, # of connection points: 2
#     Edge 34, Type (0, 0), BuildingBlock: KIFKEQ_clean_linker_1, # of connection points: 2
#     Edge 35, Type (0, 0), BuildingBlock: KIFKEQ_clean_linker_1, # of connection points: 2
#     Edge 36, Type (0, 0), BuildingBlock: KIFKEQ_clean_linker_1, # of connection points: 2
#     Edge 37, Type (0, 0), BuildingBlock: KIFKEQ_clean_linker_1, # of connection points: 2
#     Edge 38, Type (0, 0), BuildingBlock: KIFKEQ_clean_linker_1, # of connection points: 2
#     Edge 39, Type (0, 0), BuildingBlock: KIFKEQ_clean_linker_1, # of connection points: 2
#     Edge 40, Type (0, 0), BuildingBlock: KIFKEQ_clean_linker_1, # of connection points: 2
#     Edge 41, Type (0, 0), BuildingBlock: KIFKEQ_clean_linker_1, # of connection points: 2
#     Edge 42, Type (0, 0), BuildingBlock: KIFKEQ_clean_linker_1, # of connection points: 2
#     Edge 43, Type (0, 0), BuildingBlock: KIFKEQ_clean_linker_1, # of connection points: 2
#     Edge 44, Type (0, 0), BuildingBlock: KIFKEQ_clean_linker_1, # of connection points: 2
#     Edge 45, Type (0, 0), BuildingBlock: KIFKEQ_clean_linker_1, # of connection points: 2
#     Edge 46, Type (0, 0), BuildingBlock: KIFKEQ_clean_linker_1, # of connection points: 2
#     Edge 47, Type (0, 0), BuildingBlock: KIFKEQ_clean_linker_1, # of connection points: 2
#     Edge 48, Type (0, 0), BuildingBlock: KIFKEQ_clean_linker_1, # of connection points: 2
#     Edge 49, Type (0, 0), BuildingBlock: KIFKEQ_clean_linker_1, # of connection points: 2
#     Edge 50, Type (0, 0), BuildingBlock: KIFKEQ_clean_linker_1, # of connection points: 2
#     Edge 51, Type (0, 0), BuildingBlock: KIFKEQ_clean_linker_1, # of connection points: 2
#     Edge 52, Type (0, 0), BuildingBlock: KIFKEQ_clean_linker_1, # of connection points: 2
#     Edge 53, Type (0, 0), BuildingBlock: KIFKEQ_clean_linker_1, # of connection points: 2
#     Edge 54, Type (0, 0), BuildingBlock: KIFKEQ_clean_linker_1, # of connection points: 2
#     Edge 55, Type (0, 0), BuildingBlock: KIFKEQ_clean_linker_1, # of connection points: 2
# Relax obj value: 0.355
# Max RMSD: 0.207
# Mean RMSD: 0.207
data_MOF--net-yfk--node1-BEQFEK_clean_sbu_0--edge1-KIFKEQ_clean_linker_1
_symmetry_space_group_name_H-M    P1
_symmetry_Int_Tables_number       1
_symmetry_cell_setting            triclinic
loop_
_symmetry_equiv_pos_as_xyz
'x, y, z'
_cell_length_a     53.438572
_cell_length_b     53.451319
_cell_length_c     29.910965
_cell_angle_alpha  90.045043
_cell_angle_beta   89.981671
_cell_angle_gamma 90.032719
loop_
_atom_site_label
_atom_site_type_symbol
_atom_site_fract_x
_atom_site_fract_y
_atom_site_fract_z
_atom_type_partial_charge
Co0 Co 0.11694 0.05444 0.31057 0.0
Co1 Co 0.10109 0.10781 0.27696 0.0
C2 C 0.07725 0.06037 0.2412 0.0
O3 O 0.09187 0.04709 0.26476 0.0
O4 O 0.07809 0.0843 0.24252 0.0
C5 C 0.11767 1.00294 0.33429 0.0
O6 O 0.09804 1.00184 0.30795 0.0
C7 C 0.09534 0.15343 0.21949 0.0
C8 C 0.09425 0.18229 0.27231 0.0
C9 C 0.09368 0.17938 0.22625 0.0
N10 N 0.09701 0.14215 0.25967 0.0
N11 N 0.09617 0.15958 0.29092 0.0
C12 C 0.0951 0.13916 0.1765 0.0
H13 H 0.09239 0.1189 0.18286 0.0
H14 H 0.11332 0.14165 0.15927 0.0
H15 H 0.07989 0.14609 0.15451 0.0
C16 C 0.16681 0.07471 0.2965 0.0
N17 N 0.14205 0.07585 0.28894 0.0
N18 N 0.13591 0.0986 0.27616 0.0
C19 C 0.15682 0.11283 0.27624 0.0
C20 C 0.17708 0.0982 0.28926 0.0
C21 C 0.17916 0.05316 0.31962 0.0
H22 H 0.17398 0.03547 0.30255 0.0
H23 H 0.19982 0.05505 0.31989 0.0
H24 H 0.17232 0.05216 0.35462 0.0
O25 O 0.10101 0.07006 0.36328 0.0
O26 O 0.09036 0.10785 0.33993 0.0
H27 H 0.14682 0.1491 0.30028 0.0
H28 H 0.17623 0.1482 0.27048 0.0
C29 C 0.15687 0.14068 0.27153 0.0
H30 H 0.14699 0.146 0.24039 0.0
H31 H 0.09734 0.15602 0.32514 0.0
O32 O 0.13033 0.02305 0.33586 0.0
C33 C 0.09165 0.09152 0.37064 0.0
Co34 Co 0.05309 0.89436 0.68608 0.0
Co35 Co 0.10673 0.90896 0.71979 0.0
C36 C 0.05992 0.93362 0.75611 0.0
O37 O 0.04641 0.91944 0.73202 0.0
O38 O 0.08385 0.93231 0.75508 0.0
C39 C 1.00159 0.89477 0.66236 0.0
O40 O 1.0011 0.91494 0.68746 0.0
C41 C 0.15274 0.91391 0.77645 0.0
C42 C 0.18157 0.91121 0.72362 0.0
C43 C 0.17847 0.91333 0.76934 0.0
N44 N 0.14123 0.91203 0.73653 0.0
N45 N 0.15866 0.91075 0.70522 0.0
C46 C 0.13934 0.9142 0.8203 0.0
H47 H 0.11999 0.90693 0.81633 0.0
H48 H 0.14969 0.90291 0.84534 0.0
H49 H 0.13833 0.93374 0.83268 0.0
C50 C 0.07186 0.84403 0.70041 0.0
N51 N 0.07378 0.86877 0.70764 0.0
N52 N 0.09672 0.87429 0.72034 0.0
C53 C 0.11028 0.85294 0.7205 0.0
C54 C 0.09499 0.83309 0.70778 0.0
C55 C 0.0499 0.83216 0.67764 0.0
H56 H 0.04892 0.83892 0.6426 0.0
H57 H 0.03241 0.8378 0.69491 0.0
H58 H 0.05129 0.81146 0.67753 0.0
O59 O 0.06896 0.90995 0.63327 0.0
O60 O 0.10688 0.91997 0.65693 0.0
H61 H 0.14682 0.86104 0.69554 0.0
H62 H 0.14488 0.83239 0.72729 0.0
C63 C 0.13812 0.85198 0.72505 0.0
H64 H 0.14393 0.8623 0.75548 0.0
H65 H 0.15491 0.9088 0.67116 0.0
O66 O 0.02135 0.88158 0.66141 0.0
C67 C 0.09059 0.919 0.62609 0.0
Co68 Co 0.89347 0.95323 0.30656 0.0
Co69 Co 0.91199 0.90038 0.27486 0.0
C70 C 0.93421 0.94874 0.23917 0.0
O71 O 0.91875 0.96163 0.26172 0.0
O72 O 0.9342 0.92482 0.24101 0.0
C73 C 0.8906 0.00462 0.3304 0.0
O74 O 0.91019 0.00649 0.30408 0.0
C75 C 0.91465 0.85457 0.21765 0.0
C76 C 0.92717 0.82705 0.268 0.0
C77 C 0.9199 0.82925 0.22378 0.0
N78 N 0.91841 0.86653 0.25674 0.0
N79 N 0.92619 0.84995 0.28639 0.0
C80 C 0.90415 0.86694 0.17695 0.0
H81 H 0.89523 0.88501 0.18594 0.0
H82 H 0.89033 0.8545 0.16035 0.0
H83 H 0.91956 0.87074 0.15304 0.0
C84 C 0.84472 0.93072 0.29169 0.0
N85 N 0.86952 0.93059 0.28432 0.0
N86 N 0.87677 0.90784 0.27343 0.0
C87 C 0.85666 0.89254 0.27536 0.0
C88 C 0.83565 0.90656 0.28681 0.0
C89 C 0.83129 0.95223 0.313 0.0
H90 H 0.83717 0.95378 0.34848 0.0
H91 H 0.83643 0.96985 0.29571 0.0
H92 H 0.8107 0.94977 0.3117 0.0
O93 O 0.90945 0.93843 0.36005 0.0
O94 O 0.92184 0.90087 0.33814 0.0
H95 H 0.87277 0.85826 0.29866 0.0
H96 H 0.84008 0.85574 0.28322 0.0
C97 C 0.85826 0.86458 0.2747 0.0
H98 H 0.86377 0.85831 0.24081 0.0
H99 H 0.93019 0.85408 0.31971 0.0
O100 O 0.87862 0.98409 0.33162 0.0
C101 C 0.91948 0.91738 0.36835 0.0
Co102 Co 0.95341 0.11452 0.68245 0.0
Co103 Co 0.90021 0.09866 0.71682 0.0
C104 C 0.94787 0.07533 0.75273 0.0
O105 O 0.96098 0.08976 0.72846 0.0
O106 O 0.92393 0.07607 0.75185 0.0
C107 C 0.00531 0.11633 0.66031 0.0
O108 O 0.00686 0.09719 0.68768 0.0
C109 C 0.85463 0.09393 0.77488 0.0
C110 C 0.82576 0.09064 0.72234 0.0
C111 C 0.82878 0.09155 0.76831 0.0
N112 N 0.8659 0.09458 0.73457 0.0
N113 N 0.84846 0.09247 0.70351 0.0
C114 C 0.86871 0.09499 0.81801 0.0
H115 H 0.88867 0.09017 0.81258 0.0
H116 H 0.86785 0.11431 0.83152 0.0
H117 H 0.86035 0.08198 0.84275 0.0
C118 C 0.93341 0.1644 0.69699 0.0
N119 N 0.9321 0.13963 0.70418 0.0
N120 N 0.90928 0.13355 0.71676 0.0
C121 C 0.89513 0.15451 0.71659 0.0
C122 C 0.90998 0.17476 0.70412 0.0
C123 C 0.95516 0.17684 0.67458 0.0
H124 H 0.9563 0.17035 0.63938 0.0
H125 H 0.97274 0.17142 0.69175 0.0
H126 H 0.95336 0.19751 0.67497 0.0
O127 O 0.9377 0.09833 0.62997 0.0
O128 O 0.90011 0.08741 0.65405 0.0
H129 H 0.85908 0.14366 0.69261 0.0
H130 H 0.85965 0.1739 0.71979 0.0
C131 C 0.86724 0.15458 0.72058 0.0
H132 H 0.86171 0.14552 0.75241 0.0
H133 H 0.852 0.09264 0.66921 0.0
O134 O 0.98472 0.12807 0.65721 0.0
C135 C 0.9163 0.08869 0.62306 0.0
Co136 Co 0.11779 0.45386 0.93599 0.0
Co137 Co 0.10068 0.40081 0.96942 0.0
C138 C 0.07694 0.44825 0.00406 0.0
O139 O 0.09171 0.46127 0.98023 0.0
O140 O 0.07786 0.42432 0.00384 0.0
C141 C 0.1182 0.50491 0.91031 0.0
O142 O 0.09817 0.50587 0.93571 0.0
C143 C 0.09516 0.35514 0.02647 0.0
C144 C 0.09496 0.32618 0.97363 0.0
C145 C 0.09446 0.32941 0.01946 0.0
N146 N 0.09623 0.36651 0.98635 0.0
N147 N 0.09573 0.34903 0.95506 0.0
C148 C 0.09709 0.36855 0.07018 0.0
H149 H 0.10444 0.38778 0.06515 0.0
H150 H 0.10936 0.35802 0.09346 0.0
H151 H 0.07821 0.3698 0.08544 0.0
C152 C 0.16715 0.43336 0.95212 0.0
N153 N 0.14232 0.43244 0.95906 0.0
N154 N 0.13575 0.40964 0.97096 0.0
C155 C 0.1565 0.39518 0.97096 0.0
C156 C 0.17705 0.40967 0.95881 0.0
C157 C 0.17987 0.45488 0.92953 0.0
H158 H 0.17375 0.45571 0.8941 0.0
H159 H 0.1743 0.47262 0.94605 0.0
H160 H 0.20053 0.45309 0.93059 0.0
O161 O 0.10327 0.43784 0.88264 0.0
O162 O 0.08978 0.40103 0.90647 0.0
H163 H 0.14601 0.35924 0.94593 0.0
H164 H 0.17545 0.35953 0.97565 0.0
C165 C 0.15619 0.36729 0.97487 0.0
H166 H 0.1463 0.36182 0.00592 0.0
H167 H 0.09679 0.35264 0.92084 0.0
O168 O 0.13143 0.48517 0.91052 0.0
C169 C 0.09277 0.41691 0.87541 0.0
Co170 Co 0.45391 0.8951 0.06085 0.0
Co171 Co 0.40089 0.91084 0.02532 0.0
C172 C 0.44871 0.93307 0.98819 0.0
O173 O 0.46161 0.91902 0.01347 0.0
O174 O 0.42476 0.93264 0.98903 0.0
C175 C 0.50566 0.89372 0.08364 0.0
O176 O 0.50701 0.91307 0.0567 0.0
C177 C 0.35516 0.91601 0.9676 0.0
C178 C 0.32639 0.91753 0.02054 0.0
C179 C 0.32923 0.91768 0.97448 0.0
N180 N 0.36653 0.91473 0.00777 0.0
N181 N 0.34915 0.91581 0.03907 0.0
C182 C 0.36927 0.91599 0.92445 0.0
H183 H 0.38944 0.91955 0.93042 0.0
H184 H 0.3674 0.89738 0.90833 0.0
H185 H 0.3617 0.93049 0.90163 0.0
C186 C 0.43351 0.84514 0.04808 0.0
N187 N 0.43241 0.86985 0.04024 0.0
N188 N 0.40976 0.87592 0.02672 0.0
C189 C 0.39555 0.85499 0.02668 0.0
C190 C 0.41013 0.83481 0.04019 0.0
C191 C 0.45498 0.83279 0.07146 0.0
H192 H 0.45609 0.8399 0.10628 0.0
H193 H 0.4727 0.83768 0.05422 0.0
H194 H 0.45289 0.81215 0.0722 0.0
O195 O 0.43829 0.91206 0.11257 0.0
O196 O 0.40088 0.92293 0.08768 0.0
H197 H 0.35902 0.86513 0.04921 0.0
H198 H 0.36028 0.83546 0.02028 0.0
C199 C 0.36775 0.85484 0.02103 0.0
H200 H 0.36274 0.86444 0.98945 0.0
H201 H 0.35278 0.91495 0.0733 0.0
O202 O 0.4852 0.88171 0.08649 0.0
C203 C 0.41695 0.92193 0.11889 0.0
Co204 Co 0.89131 0.55468 0.93768 0.0
Co205 Co 0.91029 0.60745 0.96939 0.0
C206 C 0.93275 0.55934 0.00441 0.0
O207 O 0.91737 0.54653 0.98148 0.0
O208 O 0.93251 0.58326 0.00346 0.0
C209 C 0.88945 0.50368 0.91216 0.0
O210 O 0.90933 0.5022 0.93781 0.0
C211 C 0.91374 0.65331 0.02628 0.0
C212 C 0.92364 0.68118 0.97463 0.0
C213 C 0.91804 0.67877 0.01959 0.0
N214 N 0.91645 0.64146 0.98682 0.0
N215 N 0.92267 0.65825 0.95636 0.0
C216 C 0.90491 0.64071 0.068 0.0
H217 H 0.89602 0.62247 0.05991 0.0
H218 H 0.89148 0.65285 0.0862 0.0
H219 H 0.9212 0.63718 0.0901 0.0
C220 C 0.84275 0.57695 0.95396 0.0
N221 N 0.86759 0.57711 0.9608 0.0
N222 N 0.87497 0.5999 0.97128 0.0
C223 C 0.85483 0.61516 0.96992 0.0
C224 C 0.83373 0.60113 0.95893 0.0
C225 C 0.82924 0.55545 0.93277 0.0
H226 H 0.83474 0.55414 0.89705 0.0
H227 H 0.8347 0.53778 0.94955 0.0
H228 H 0.80865 0.55772 0.93485 0.0
O229 O 0.90614 0.56995 0.88383 0.0
O230 O 0.92068 0.60665 0.90626 0.0
H231 H 0.87 0.64962 0.94556 0.0
H232 H 0.83791 0.6519 0.96468 0.0
C233 C 0.85637 0.64311 0.971 0.0
H234 H 0.86307 0.64918 0.00432 0.0
H235 H 0.92553 0.65423 0.92261 0.0
O236 O 0.87666 0.52372 0.91246 0.0
C237 C 0.9171 0.59054 0.87573 0.0
Co238 Co 0.5531 0.1034 0.06562 0.0
Co239 Co 0.60657 0.09754 0.02428 0.0
C240 C 0.56236 0.07035 0.98622 0.0
O241 O 0.54848 0.08126 0.01458 0.0
O242 O 0.58604 0.07382 0.98563 0.0
C243 C 0.50001 0.12069 0.08507 0.0
O244 O 0.49902 0.13726 0.05273 0.0
C245 C 0.65247 0.09611 0.96639 0.0
C246 C 0.68059 0.10783 0.01644 0.0
C247 C 0.67786 0.10105 0.97209 0.0
N248 N 0.64081 0.09997 0.00574 0.0
N249 N 0.65785 0.10671 0.03544 0.0
C250 C 0.63931 0.08908 0.92413 0.0
H251 H 0.61963 0.09569 0.92504 0.0
H252 H 0.64911 0.09704 0.89467 0.0
H253 H 0.63919 0.06839 0.92096 0.0
C254 C 0.56703 0.15644 0.06394 0.0
N255 N 0.5704 0.13272 0.05026 0.0
N256 N 0.59226 0.13068 0.03017 0.0
C257 C 0.60299 0.15359 0.02886 0.0
C258 C 0.58744 0.17062 0.05047 0.0
C259 C 0.54775 0.164 0.09778 0.0
H260 H 0.54162 0.14763 0.11759 0.0
H261 H 0.5314 0.17218 0.08028 0.0
H262 H 0.55524 0.17827 0.1212 0.0
O263 O 0.57166 0.08688 0.11333 0.0
O264 O 0.60983 0.08324 0.08554 0.0
H265 H 0.64275 0.15476 0.03569 0.0
H266 H 0.63006 0.17895 0.00069 0.0
C267 C 0.62837 0.15893 0.01008 0.0
H268 H 0.63183 0.1471 0.98026 0.0
H269 H 0.65386 0.11086 0.06879 0.0
O270 O 0.51973 0.10807 0.09197 0.0
C271 C 0.59437 0.08039 0.11747 0.0
Co272 Co 0.61987 0.5549 0.81007 0.0
Co273 Co 0.60045 0.6063 0.77283 0.0
C274 C 0.57973 0.55659 0.74035 0.0
O275 O 0.59468 0.54503 0.76612 0.0
O276 O 0.57973 0.58053 0.73844 0.0
C277 C 0.62589 0.50345 0.83439 0.0
O278 O 0.60822 0.49959 0.80469 0.0
C279 C 0.59802 0.65166 0.71405 0.0
C280 C 0.58403 0.67922 0.76316 0.0
C281 C 0.59229 0.67694 0.71954 0.0
N282 N 0.59361 0.63981 0.75303 0.0
N283 N 0.58493 0.65643 0.78187 0.0
C284 C 0.60952 0.63933 0.67414 0.0
H285 H 0.61845 0.62138 0.68381 0.0
H286 H 0.6235 0.65191 0.65839 0.0
H287 H 0.59466 0.63532 0.64924 0.0
C288 C 0.66821 0.57765 0.79351 0.0
N289 N 0.64342 0.57734 0.78613 0.0
N290 N 0.63589 0.59975 0.7738 0.0
C291 C 0.65581 0.61536 0.7751 0.0
C292 C 0.67698 0.60181 0.78732 0.0
C293 C 0.68195 0.55668 0.81582 0.0
H294 H 0.6763 0.55577 0.85149 0.0
H295 H 0.67692 0.53869 0.79964 0.0
H296 H 0.70251 0.55931 0.81399 0.0
O297 O 0.60336 0.57064 0.86195 0.0
O298 O 0.58924 0.60663 0.8357 0.0
H299 H 0.63856 0.64975 0.79529 0.0
H300 H 0.67164 0.65248 0.78283 0.0
C301 C 0.65385 0.64327 0.77303 0.0
H302 H 0.64928 0.64894 0.73838 0.0
H303 H 0.5803 0.65244 0.81497 0.0
O304 O 0.63542 0.52514 0.83772 0.0
C305 C 0.59209 0.59131 0.86769 0.0
Co306 Co 0.55327 0.39831 0.18147 0.0
Co307 Co 0.60671 0.40918 0.22013 0.0
C308 C 0.56071 0.43545 0.25515 0.0
O309 O 0.54709 0.4227 0.2288 0.0
O310 O 0.58454 0.43297 0.25582 0.0
C311 C 0.50179 0.40075 0.15575 0.0
O312 O 0.50138 0.42087 0.18101 0.0
C313 C 0.65259 0.41292 0.27772 0.0
C314 C 0.68126 0.40482 0.22637 0.0
C315 C 0.67822 0.40982 0.27138 0.0
N316 N 0.6411 0.4097 0.23805 0.0
N317 N 0.65845 0.40517 0.20759 0.0
C318 C 0.63913 0.41711 0.32087 0.0
H319 H 0.61948 0.4105 0.3183 0.0
H320 H 0.64887 0.40738 0.34863 0.0
H321 H 0.63894 0.43745 0.32836 0.0
C322 C 0.56873 0.34682 0.19432 0.0
N323 N 0.57211 0.3713 0.20238 0.0
N324 N 0.59469 0.37517 0.21852 0.0
C325 C 0.60649 0.35284 0.22118 0.0
C326 C 0.59048 0.33416 0.20575 0.0
C327 C 0.54709 0.33697 0.16768 0.0
H328 H 0.54663 0.34652 0.13476 0.0
H329 H 0.5294 0.3414 0.18541 0.0
H330 H 0.54808 0.31655 0.1619 0.0
O331 O 0.57083 0.41387 0.13077 0.0
O332 O 0.6086 0.42138 0.15778 0.0
H333 H 0.6453 0.35568 0.20513 0.0
H334 H 0.63765 0.32971 0.24102 0.0
C335 C 0.6334 0.34959 0.23348 0.0
H336 H 0.63791 0.36124 0.26306 0.0
H337 H 0.65465 0.4017 0.17394 0.0
O338 O 0.52139 0.38735 0.15492 0.0
C339 C 0.59303 0.42187 0.12573 0.0
Co340 Co 0.39012 0.45605 0.80264 0.0
Co341 Co 0.40926 0.40358 0.76952 0.0
C342 C 0.43084 0.4524 0.73447 0.0
O343 O 0.41551 0.46465 0.75845 0.0
O344 O 0.43081 0.42844 0.73459 0.0
C345 C 0.3873 0.50704 0.82839 0.0
O346 O 0.40701 0.50903 0.80243 0.0
C347 C 0.41193 0.35749 0.71257 0.0
C348 C 0.42473 0.33025 0.76319 0.0
C349 C 0.41729 0.3322 0.71904 0.0
N350 N 0.41581 0.36967 0.75144 0.0
N351 N 0.42375 0.35323 0.78123 0.0
C352 C 0.4012 0.36957 0.67181 0.0
H353 H 0.39217 0.38762 0.68063 0.0
H354 H 0.38744 0.35694 0.65554 0.0
H355 H 0.41651 0.37337 0.64768 0.0
C356 C 0.34169 0.43319 0.7878 0.0
N357 N 0.36645 0.43329 0.78005 0.0
N358 N 0.37389 0.4106 0.76916 0.0
C359 C 0.35395 0.39509 0.77166 0.0
C360 C 0.33285 0.40893 0.78335 0.0
C361 C 0.32814 0.45457 0.80926 0.0
H362 H 0.33392 0.45602 0.8448 0.0
H363 H 0.33321 0.47228 0.79217 0.0
H364 H 0.30756 0.452 0.80779 0.0
O365 O 0.40624 0.44121 0.85553 0.0
O366 O 0.41981 0.40423 0.83276 0.0
H367 H 0.37064 0.36116 0.79524 0.0
H368 H 0.33785 0.35819 0.78075 0.0
C369 C 0.35586 0.36716 0.77154 0.0
H370 H 0.36119 0.36074 0.73763 0.0
H371 H 0.42785 0.35752 0.81445 0.0
O372 O 0.37509 0.48663 0.82854 0.0
C373 C 0.41702 0.4205 0.86331 0.0
Co374 Co 0.45346 0.61486 0.18059 0.0
Co375 Co 0.40062 0.59895 0.2167 0.0
C376 C 0.44857 0.57607 0.25189 0.0
O377 O 0.46145 0.59034 0.2269 0.0
O378 O 0.42462 0.5767 0.25162 0.0
C379 C 0.5052 0.61698 0.15707 0.0
O380 O 0.50719 0.59802 0.18475 0.0
C381 C 0.35519 0.59322 0.27501 0.0
C382 C 0.32617 0.59231 0.22247 0.0
C383 C 0.32925 0.59165 0.26845 0.0
N384 N 0.36638 0.59495 0.23472 0.0
N385 N 0.34885 0.59423 0.20366 0.0
C386 C 0.36946 0.59266 0.31797 0.0
H387 H 0.3895 0.58859 0.31166 0.0
H388 H 0.36818 0.61124 0.33435 0.0
H389 H 0.36156 0.57829 0.34072 0.0
C390 C 0.43336 0.66474 0.19527 0.0
N391 N 0.43221 0.63997 0.20251 0.0
N392 N 0.4096 0.63384 0.21618 0.0
C393 C 0.39544 0.65479 0.21692 0.0
C394 C 0.41003 0.67505 0.20369 0.0
C395 C 0.45475 0.67722 0.17185 0.0
H396 H 0.45557 0.6705 0.13676 0.0
H397 H 0.47255 0.67206 0.1885 0.0
H398 H 0.45279 0.69788 0.17187 0.0
O399 O 0.43744 0.59841 0.12871 0.0
O400 O 0.40016 0.58741 0.1541 0.0
H401 H 0.35883 0.64494 0.19441 0.0
H402 H 0.36025 0.67431 0.22427 0.0
C403 C 0.36766 0.65492 0.22283 0.0
H404 H 0.3627 0.64502 0.25415 0.0
H405 H 0.35232 0.59546 0.16941 0.0
O406 O 0.48447 0.62849 0.15432 0.0
C407 C 0.41603 0.58863 0.1226 0.0
Co408 Co 0.62111 0.95105 0.43299 0.0
Co409 Co 0.60145 0.8988 0.46553 0.0
C410 C 0.5794 0.94802 0.49864 0.0
O411 O 0.59529 0.9605 0.47623 0.0
O412 O 0.57925 0.92406 0.49784 0.0
C413 C 0.6277 1.00269 0.41048 0.0
O414 O 0.60936 0.00639 0.43899 0.0
C415 C 0.59796 0.85322 0.52332 0.0
C416 C 0.58621 0.8255 0.47261 0.0
C417 C 0.59301 0.82784 0.51703 0.0
N418 N 0.59452 0.86509 0.48407 0.0
N419 N 0.58716 0.84838 0.45423 0.0
C420 C 0.60803 0.86564 0.56434 0.0
H421 H 0.61685 0.88382 0.55569 0.0
H422 H 0.6218 0.85332 0.58123 0.0
H423 H 0.59239 0.86923 0.58789 0.0
C424 C 0.66929 0.92841 0.45144 0.0
N425 N 0.64436 0.92842 0.45721 0.0
N426 N 0.63675 0.90577 0.4679 0.0
C427 C 0.65678 0.89034 0.46719 0.0
C428 C 0.6781 0.90421 0.45691 0.0
C429 C 0.68332 0.94982 0.43104 0.0
H430 H 0.67842 0.9512 0.39506 0.0
H431 H 0.6778 0.96751 0.44772 0.0
H432 H 0.70384 0.94737 0.43412 0.0
O433 O 0.60536 0.93598 0.37934 0.0
O434 O 0.59203 0.89892 0.40206 0.0
H435 H 0.64059 0.85611 0.44364 0.0
H436 H 0.67315 0.85345 0.45986 0.0
C437 C 0.65497 0.8624 0.46791 0.0
H438 H 0.64916 0.85625 0.5017 0.0
H439 H 0.58356 0.8524 0.42074 0.0
O440 O 0.63726 0.98102 0.40744 0.0
C441 C 0.5949 0.91508 0.37143 0.0
Co442 Co 0.95506 0.39657 0.55803 0.0
Co443 Co 0.90148 0.41073 0.52353 0.0
C444 C 0.94825 0.43409 0.48485 0.0
O445 O 0.9616 0.42019 0.50956 0.0
O446 O 0.92434 0.43329 0.48659 0.0
C447 C 1.00279 0.40288 0.58868 0.0
O448 O 0.99706 0.4252 0.57347 0.0
C449 C 0.8553 0.41512 0.46691 0.0
C450 C 0.8268 0.41579 0.52044 0.0
C451 C 0.82945 0.41636 0.47437 0.0
N452 N 0.86694 0.41368 0.5068 0.0
N453 N 0.84972 0.41423 0.53847 0.0
C454 C 0.86901 0.41595 0.42337 0.0
H455 H 0.88885 0.42124 0.42869 0.0
H456 H 0.86862 0.39709 0.40783 0.0
H457 H 0.86003 0.42949 0.40029 0.0
C458 C 0.93583 0.34596 0.54756 0.0
N459 N 0.93415 0.37055 0.53884 0.0
N460 N 0.91133 0.37599 0.52532 0.0
C461 C 0.89761 0.35474 0.52597 0.0
C462 C 0.91267 0.33503 0.54009 0.0
C463 C 0.9576 0.33443 0.57133 0.0
H464 H 0.95865 0.34211 0.60577 0.0
H465 H 0.97518 0.33948 0.55377 0.0
H466 H 0.95596 0.31377 0.57309 0.0
O467 O 0.93945 0.41346 0.60989 0.0
O468 O 0.90155 0.42308 0.58571 0.0
H469 H 0.86081 0.36375 0.54856 0.0
H470 H 0.8629 0.3343 0.5191 0.0
C471 C 0.86984 0.35388 0.5202 0.0
H472 H 0.86459 0.36352 0.48879 0.0
H473 H 0.85357 0.41322 0.5726 0.0
O474 O 0.98744 0.38507 0.58226 0.0
C475 C 0.91787 0.42274 0.61655 0.0
Co476 Co 0.3923 0.05584 0.43686 0.0
Co477 Co 0.41114 0.10883 0.46759 0.0
C478 C 0.43513 0.06066 0.50017 0.0
O479 O 0.41932 0.04772 0.47848 0.0
O480 O 0.43464 0.08459 0.49928 0.0
C481 C 0.38948 0.00433 0.41307 0.0
O482 O 0.40904 1.00238 0.43941 0.0
C483 C 0.4138 0.15484 0.52468 0.0
C484 C 0.42511 0.18247 0.47359 0.0
C485 C 0.4184 0.18027 0.51808 0.0
N486 N 0.41737 0.14282 0.48556 0.0
N487 N 0.42445 0.15949 0.45548 0.0
C488 C 0.40399 0.14244 0.56591 0.0
H489 H 0.39541 0.12411 0.55751 0.0
H490 H 0.39007 0.15464 0.58276 0.0
H491 H 0.41972 0.13916 0.58938 0.0
C492 C 0.34388 0.07727 0.45649 0.0
N493 N 0.36881 0.07779 0.46224 0.0
N494 N 0.37602 0.10075 0.47181 0.0
C495 C 0.3557 0.11578 0.47042 0.0
C496 C 0.33464 0.10139 0.46075 0.0
C497 C 0.33035 0.05545 0.43642 0.0
H498 H 0.33497 0.05422 0.4003 0.0
H499 H 0.33652 0.03791 0.45287 0.0
H500 H 0.30978 0.05736 0.4401 0.0
O501 O 0.40572 0.07159 0.3821 0.0
O502 O 0.41952 0.10873 0.40351 0.0
H503 H 0.37126 0.14972 0.44433 0.0
H504 H 0.33871 0.15223 0.46074 0.0
C505 C 0.35705 0.14375 0.46919 0.0
H506 H 0.36287 0.15076 0.50245 0.0
H507 H 0.4281 0.15536 0.42203 0.0
O508 O 0.37745 0.02483 0.41226 0.0
C509 C 0.4157 0.09258 0.37313 0.0
Co510 Co 0.05278 0.61125 0.55625 0.0
Co511 Co 0.1068 0.59849 0.52257 0.0
C512 C 0.06097 0.57392 0.48306 0.0
O513 O 0.04717 0.58743 0.50775 0.0
O514 O 0.08485 0.57535 0.48499 0.0
C515 C 0.00511 0.60378 0.58659 0.0
O516 O 0.01138 0.58155 0.57157 0.0
C517 C 0.15315 0.59451 0.46679 0.0
C518 C 0.18168 0.59845 0.51988 0.0
C519 C 0.17883 0.59575 0.4742 0.0
N520 N 0.14144 0.59656 0.50648 0.0
N521 N 0.15868 0.5986 0.53797 0.0
C522 C 0.13994 0.59326 0.42283 0.0
H523 H 0.12061 0.60067 0.42604 0.0
H524 H 0.15042 0.60392 0.39707 0.0
H525 H 0.13885 0.57344 0.41192 0.0
C526 C 0.07069 0.66232 0.54633 0.0
N527 N 0.07305 0.6378 0.53742 0.0
N528 N 0.09603 0.63298 0.52404 0.0
C529 C 0.10914 0.65462 0.52478 0.0
C530 C 0.09355 0.67388 0.53905 0.0
C531 C 0.04861 0.67322 0.57021 0.0
H532 H 0.03119 0.66785 0.55246 0.0
H533 H 0.04977 0.69391 0.57231 0.0
H534 H 0.04768 0.66537 0.60451 0.0
O535 O 0.06855 0.59485 0.6083 0.0
O536 O 0.10681 0.58616 0.58475 0.0
H537 H 0.14618 0.64786 0.54847 0.0
H538 H 0.143 0.67616 0.51619 0.0
C539 C 0.13687 0.65638 0.51907 0.0
H540 H 0.14264 0.64604 0.48864 0.0
H541 H 0.15473 0.60073 0.57192 0.0
O542 O 0.02003 0.62194 0.57999 0.0
C543 C 0.09031 0.58612 0.61532 0.0
H544 H 0.06546 0.32326 0.09406 0.0
H545 H 0.12436 0.2887 0.01731 0.0
H546 H 0.06375 0.28663 0.1427 0.0
H547 H 0.12394 0.25276 0.06707 0.0
H548 H 0.10334 0.18117 0.13399 0.0
H549 H 0.10201 0.21717 0.08577 0.0
H550 H 0.08301 0.26399 0.19864 0.0
H551 H 0.08203 0.22761 0.24627 0.0
C552 C 0.07844 0.30803 0.08836 0.0
C553 C 0.09509 0.30876 0.05218 0.0
C554 C 0.07752 0.28698 0.11619 0.0
C555 C 0.09359 0.26643 0.10885 0.0
C556 C 0.11076 0.26774 0.07324 0.0
C557 C 0.11126 0.28849 0.04497 0.0
C558 C 0.09808 0.19876 0.14874 0.0
C559 C 0.09238 0.20093 0.19448 0.0
C560 C 0.09788 0.2198 0.12089 0.0
C561 C 0.09257 0.24377 0.13808 0.0
C562 C 0.08679 0.24593 0.18371 0.0
C563 C 0.08651 0.22488 0.21129 0.0
H564 H 0.21865 0.88267 0.76992 0.0
H565 H 0.18545 0.94458 0.8408 0.0
H566 H 0.25481 0.88409 0.81913 0.0
H567 H 0.22231 0.94722 0.88879 0.0
H568 H 0.28139 0.93118 0.9936 0.0
H569 H 0.24481 0.92945 0.94639 0.0
H570 H 0.29089 0.90584 0.83532 0.0
H571 H 0.32704 0.90523 0.88349 0.0
C572 C 0.21919 0.89664 0.79617 0.0
C573 C 0.19922 0.91336 0.80193 0.0
C574 C 0.24009 0.89771 0.82411 0.0
C575 C 0.24185 0.91598 0.85787 0.0
C576 C 0.2216 0.93261 0.86375 0.0
C577 C 0.20041 0.93115 0.8363 0.0
C578 C 0.28389 0.92556 0.9591 0.0
C579 C 0.30765 0.91863 0.94275 0.0
C580 C 0.26275 0.92484 0.93173 0.0
C581 C 0.26464 0.91753 0.88675 0.0
C582 C 0.28846 0.91118 0.86996 0.0
C583 C 0.30959 0.91142 0.89766 0.0
H584 H 0.92913 0.82743 0.13318 0.0
H585 H 0.90522 0.78219 0.24484 0.0
H586 H 0.92712 0.79082 0.08459 0.0
H587 H 0.90291 0.74569 0.19637 0.0
H588 H 0.93113 0.68094 0.10851 0.0
H589 H 0.93009 0.7175 0.15735 0.0
H590 H 0.89922 0.76162 0.04965 0.0
H591 H 0.90064 0.72519 0.00087 0.0
C592 C 0.92287 0.80984 0.14714 0.0
C593 C 0.91707 0.8078 0.19275 0.0
C594 C 0.92181 0.78878 0.11933 0.0
C595 C 0.9149 0.76523 0.13655 0.0
C596 C 0.90872 0.76338 0.18207 0.0
C597 C 0.9099 0.78436 0.20981 0.0
C598 C 0.92365 0.69829 0.09559 0.0
C599 C 0.91574 0.7001 0.05098 0.0
C600 C 0.92312 0.71933 0.12352 0.0
C601 C 0.91462 0.7426 0.10743 0.0
C602 C 0.9063 0.74418 0.06298 0.0
C603 C 0.90697 0.72324 0.03509 0.0
H604 H 0.78241 0.07251 0.75366 0.0
H605 H 0.82589 0.11036 0.85509 0.0
H606 H 0.74572 0.075 0.80086 0.0
H607 H 0.78976 0.11085 0.90385 0.0
H608 H 0.71548 0.13442 0.96195 0.0
H609 H 0.75191 0.13135 0.91353 0.0
H610 H 0.72485 0.06029 0.86371 0.0
H611 H 0.68776 0.06423 0.91082 0.0
C612 C 0.78438 0.08092 0.78643 0.0
C613 C 0.80748 0.09091 0.80047 0.0
C614 C 0.76325 0.08212 0.81381 0.0
C615 C 0.76456 0.09313 0.8564 0.0
C616 C 0.78781 0.10255 0.87101 0.0
C617 C 0.8089 0.10171 0.84324 0.0
C618 C 0.71724 0.1183 0.94018 0.0
C619 C 0.69868 0.09972 0.93965 0.0
C620 C 0.73831 0.11634 0.91277 0.0
C621 C 0.74166 0.09542 0.88482 0.0
C622 C 0.72285 0.07688 0.88415 0.0
C623 C 0.70151 0.07911 0.91106 0.0
H624 H 0.58377 0.67872 0.62882 0.0
H625 H 0.60732 0.72381 0.74095 0.0
H626 H 0.58567 0.71546 0.58056 0.0
H627 H 0.60979 0.76038 0.69282 0.0
H628 H 0.58146 0.82551 0.60656 0.0
H629 H 0.58306 0.78879 0.65486 0.0
H630 H 0.61244 0.74497 0.54524 0.0
H631 H 0.61025 0.78153 0.49698 0.0
C632 C 0.58995 0.69632 0.64291 0.0
C633 C 0.59557 0.69831 0.68859 0.0
C634 C 0.59099 0.71746 0.6153 0.0
C635 C 0.5978 0.74102 0.63277 0.0
C636 C 0.604 0.74274 0.67831 0.0
C637 C 0.60275 0.72171 0.70586 0.0
C638 C 0.58871 0.80817 0.5931 0.0
C639 C 0.59591 0.80647 0.5481 0.0
C640 C 0.58958 0.78704 0.62072 0.0
C641 C 0.59782 0.76379 0.60397 0.0
C642 C 0.60555 0.76236 0.55914 0.0
C643 C 0.60445 0.78339 0.53153 0.0
H644 H 0.78258 0.43323 0.49217 0.0
H645 H 0.82651 0.40053 0.38575 0.0
H646 H 0.74568 0.4313 0.44541 0.0
H647 H 0.79016 0.40075 0.33768 0.0
H648 H 0.71665 0.37722 0.27757 0.0
H649 H 0.75299 0.37947 0.32623 0.0
H650 H 0.72395 0.4476 0.38478 0.0
H651 H 0.68689 0.44435 0.33734 0.0
C652 C 0.78459 0.42609 0.45845 0.0
C653 C 0.80789 0.41738 0.44285 0.0
C654 C 0.76333 0.42523 0.43137 0.0
C655 C 0.76472 0.41586 0.38755 0.0
C656 C 0.78815 0.40774 0.37147 0.0
C657 C 0.80936 0.4082 0.3989 0.0
C658 C 0.71796 0.3925 0.30129 0.0
C659 C 0.6989 0.41047 0.30407 0.0
C660 C 0.73897 0.39401 0.32885 0.0
C661 C 0.74176 0.41392 0.35925 0.0
C662 C 0.72241 0.43178 0.36233 0.0
C663 C 0.7011 0.42996 0.33523 0.0
H664 H 0.4295 0.18298 0.60787 0.0
H665 H 0.40129 0.22653 0.49739 0.0
H666 H 0.42755 0.21988 0.65582 0.0
H667 H 0.39884 0.26327 0.54526 0.0
H668 H 0.42698 0.32983 0.62867 0.0
H669 H 0.42557 0.29286 0.58088 0.0
H670 H 0.40038 0.24848 0.69295 0.0
H671 H 0.40226 0.28532 0.74066 0.0
C672 C 0.42231 0.20025 0.59411 0.0
C673 C 0.41536 0.20176 0.54896 0.0
C674 C 0.42124 0.22149 0.62154 0.0
C675 C 0.41311 0.24468 0.60443 0.0
C676 C 0.40566 0.24592 0.55945 0.0
C677 C 0.40691 0.22479 0.53206 0.0
C678 C 0.42065 0.31232 0.64283 0.0
C679 C 0.41451 0.31058 0.68834 0.0
C680 C 0.41991 0.29104 0.61548 0.0
C681 C 0.41293 0.26757 0.63302 0.0
C682 C 0.4063 0.26606 0.6784 0.0
C683 C 0.40721 0.28725 0.7057 0.0
H684 H 0.28165 0.57704 0.25028 0.0
H685 H 0.32733 0.60457 0.35907 0.0
H686 H 0.24522 0.57855 0.29793 0.0
H687 H 0.29136 0.60372 0.40784 0.0
H688 H 0.21881 0.62672 0.47286 0.0
H689 H 0.25503 0.62516 0.42372 0.0
H690 H 0.22318 0.56093 0.35627 0.0
H691 H 0.18628 0.56369 0.40411 0.0
C692 C 0.28418 0.58294 0.28463 0.0
C693 C 0.30787 0.59038 0.30051 0.0
C694 C 0.26314 0.58353 0.31226 0.0
C695 C 0.2651 0.59123 0.35703 0.0
C696 C 0.28888 0.59806 0.37337 0.0
C697 C 0.3099 0.59795 0.34538 0.0
C698 C 0.21952 0.61247 0.44711 0.0
C699 C 0.1997 0.5955 0.44186 0.0
C700 C 0.24044 0.61133 0.41923 0.0
C701 C 0.24238 0.59274 0.38606 0.0
C702 C 0.22232 0.5758 0.3808 0.0
C703 C 0.20111 0.57732 0.40817 0.0
H704 H 0.22464 0.08902 0.26162 0.0
H705 H 0.18195 0.1257 0.36487 0.0
H706 H 0.26315 0.09634 0.30406 0.0
H707 H 0.22038 0.13306 0.40762 0.0
H708 H 0.28689 0.09695 0.49108 0.0
H709 H 0.24851 0.10248 0.4474 0.0
H710 H 0.29234 0.12881 0.33554 0.0
H711 H 0.3306 0.12323 0.37949 0.0
C712 C 0.22371 0.09932 0.29279 0.0
C713 C 0.20057 0.10702 0.30994 0.0
C714 C 0.24567 0.10353 0.3171 0.0
C715 C 0.24476 0.11522 0.35927 0.0
C716 C 0.22163 0.1239 0.37538 0.0
C717 C 0.19973 0.11991 0.35081 0.0
C718 C 0.2881 0.10471 0.4577 0.0
C719 C 0.31147 0.10997 0.43868 0.0
C720 C 0.26622 0.10786 0.43266 0.0
C721 C 0.26744 0.11599 0.38794 0.0
C722 C 0.29084 0.12239 0.36977 0.0
C723 C 0.31266 0.11945 0.39498 0.0
H724 H 0.08735 0.78581 0.73828 0.0
H725 H 0.11895 0.82759 0.62876 0.0
H726 H 0.09279 0.74688 0.69592 0.0
H727 H 0.12419 0.7888 0.58598 0.0
H728 H 0.08413 0.72123 0.51064 0.0
H729 H 0.09054 0.76004 0.55292 0.0
H730 H 0.1252 0.71796 0.6594 0.0
H731 H 0.11898 0.67927 0.61666 0.0
C732 C 0.09617 0.78646 0.70567 0.0
C733 C 0.10303 0.80944 0.6868 0.0
C734 C 0.09925 0.76429 0.6814 0.0
C735 C 0.10884 0.76486 0.63758 0.0
C736 C 0.11667 0.78784 0.61957 0.0
C737 C 0.1139 0.80994 0.6441 0.0
C738 C 0.09376 0.72051 0.54248 0.0
C739 C 0.10133 0.69753 0.56038 0.0
C740 C 0.09743 0.74262 0.56668 0.0
C741 C 0.10834 0.74197 0.60949 0.0
C742 C 0.11669 0.71897 0.62659 0.0
C743 C 0.11332 0.69694 0.60209 0.0
H744 H 0.78787 0.91242 0.25779 0.0
H745 H 0.83173 0.88164 0.36537 0.0
H746 H 0.74956 0.9049 0.30063 0.0
H747 H 0.79349 0.87391 0.40843 0.0
H748 H 0.72558 0.9098 0.48773 0.0
H749 H 0.76419 0.90373 0.44506 0.0
H750 H 0.72131 0.87338 0.33523 0.0
H751 H 0.68277 0.87967 0.37811 0.0
C752 C 0.78913 0.90331 0.29006 0.0
C753 C 0.81252 0.89735 0.30825 0.0
C754 C 0.76728 0.89897 0.3146 0.0
C755 C 0.76851 0.88885 0.35801 0.0
C756 C 0.79195 0.88185 0.37523 0.0
C757 C 0.81377 0.88603 0.35051 0.0
C758 C 0.72463 0.90103 0.4551 0.0
C759 C 0.70142 0.89494 0.43624 0.0
C760 C 0.74666 0.89756 0.43061 0.0
C761 C 0.74577 0.8882 0.38662 0.0
C762 C 0.72256 0.8808 0.36886 0.0
C763 C 0.70058 0.88413 0.3935 0.0
H764 H 0.88606 0.32914 0.61644 0.0
H765 H 0.9221 0.28787 0.51069 0.0
H766 H 0.87915 0.29014 0.65784 0.0
H767 H 0.91505 0.24877 0.55161 0.0
H768 H 0.88673 0.18053 0.62449 0.0
H769 H 0.88148 0.2196 0.58261 0.0
H770 H 0.91079 0.26103 0.69503 0.0
H771 H 0.9162 0.22186 0.73647 0.0
C772 C 0.89182 0.31157 0.6016 0.0
C773 C 0.90437 0.31127 0.56037 0.0
C774 C 0.88806 0.28934 0.62534 0.0
C775 C 0.89657 0.26644 0.60797 0.0
C776 C 0.908 0.2661 0.56557 0.0
C777 C 0.91205 0.28838 0.54214 0.0
C778 C 0.89127 0.19813 0.64056 0.0
C779 C 0.90157 0.19842 0.68371 0.0
C780 C 0.88851 0.22039 0.61655 0.0
C781 C 0.8958 0.24333 0.6355 0.0
C782 C 0.90474 0.24368 0.67976 0.0
C783 C 0.9078 0.22135 0.70352 0.0
H784 H 0.28479 0.41253 0.75462 0.0
H785 H 0.33006 0.38636 0.8642 0.0
H786 H 0.24697 0.40604 0.7994 0.0
H787 H 0.29233 0.37982 0.9093 0.0
H788 H 0.2248 0.41855 0.98585 0.0
H789 H 0.26303 0.41151 0.94246 0.0
H790 H 0.21962 0.3751 0.8394 0.0
H791 H 0.18148 0.38225 0.88303 0.0
C792 C 0.28647 0.40457 0.78778 0.0
C793 C 0.31011 0.39965 0.80595 0.0
C794 C 0.26491 0.40087 0.81346 0.0
C795 C 0.2667 0.3925 0.85797 0.0
C796 C 0.29039 0.38641 0.87524 0.0
C797 C 0.31191 0.38989 0.84938 0.0
C798 C 0.22368 0.40835 0.9546 0.0
C799 C 0.20042 0.40074 0.9378 0.0
C800 C 0.24548 0.4043 0.92974 0.0
C801 C 0.2443 0.39283 0.8874 0.0
C802 C 0.22108 0.38411 0.87175 0.0
C803 C 0.19933 0.38797 0.89683 0.0
H804 H 0.41732 0.78761 0.00914 0.0
H805 H 0.38483 0.82936 0.11792 0.0
H806 H 0.41059 0.74858 0.05043 0.0
H807 H 0.37826 0.79043 0.15968 0.0
H808 H 0.38431 0.68071 0.1265 0.0
H809 H 0.3778 0.7197 0.08496 0.0
H810 H 0.41093 0.76129 0.19378 0.0
H811 H 0.41757 0.72219 0.23487 0.0
C812 C 0.40801 0.78824 0.04132 0.0
C813 C 0.4013 0.81123 0.06033 0.0
C814 C 0.40417 0.766 0.06498 0.0
C815 C 0.39395 0.76651 0.10835 0.0
C816 C 0.38624 0.78952 0.12642 0.0
C817 C 0.38978 0.8117 0.10248 0.0
C818 C 0.38944 0.69833 0.14192 0.0
C819 C 0.40117 0.6987 0.18388 0.0
C820 C 0.38593 0.72055 0.1181 0.0
C821 C 0.39391 0.7435 0.13609 0.0
C822 C 0.40432 0.74391 0.17931 0.0
C823 C 0.40811 0.72164 0.20286 0.0
H824 H 0.78593 0.59452 0.98756 0.0
H825 H 0.82968 0.6268 0.88116 0.0
H826 H 0.74765 0.60178 0.94455 0.0
H827 H 0.79148 0.63428 0.83796 0.0
H828 H 0.68076 0.62623 0.86637 0.0
H829 H 0.71896 0.63306 0.90999 0.0
H830 H 0.76295 0.60389 0.80052 0.0
H831 H 0.72467 0.59721 0.75721 0.0
C832 C 0.78716 0.60392 0.95556 0.0
C833 C 0.81054 0.61033 0.9377 0.0
C834 C 0.76533 0.60811 0.93091 0.0
C835 C 0.76656 0.61854 0.88775 0.0
C836 C 0.78995 0.62608 0.87096 0.0
C837 C 0.81175 0.62204 0.89577 0.0
C838 C 0.69873 0.62216 0.85125 0.0
C839 C 0.69999 0.6115 0.80841 0.0
C840 C 0.72052 0.62579 0.87629 0.0
C841 C 0.74395 0.6189 0.85881 0.0
C842 C 0.74524 0.60969 0.81475 0.0
C843 C 0.7234 0.60588 0.78989 0.0
H844 H 0.63013 0.18659 0.09273 0.0
H845 H 0.5576 0.21149 0.04748 0.0
H846 H 0.63584 0.22622 0.13303 0.0
H847 H 0.56294 0.25052 0.08922 0.0
H848 H 0.56741 0.29062 0.22709 0.0
H849 H 0.57068 0.25094 0.1864 0.0
H850 H 0.63127 0.28098 0.10769 0.0
H851 H 0.62748 0.32104 0.14748 0.0
C852 C 0.61579 0.20081 0.09023 0.0
C853 C 0.59343 0.19608 0.06686 0.0
C854 C 0.61896 0.22329 0.11367 0.0
C855 C 0.59966 0.24105 0.11452 0.0
C856 C 0.57794 0.23689 0.08926 0.0
C857 C 0.57495 0.21469 0.06532 0.0
C858 C 0.58188 0.28846 0.20199 0.0
C859 C 0.59711 0.30877 0.1902 0.0
C860 C 0.58365 0.26591 0.17864 0.0
C861 C 0.60104 0.26321 0.1438 0.0
C862 C 0.61776 0.28276 0.13453 0.0
C863 C 0.61572 0.30551 0.15747 0.0
H864 H 0.02806 0.07368 0.23679 0.0
H865 H 0.07987 0.0161 0.19669 0.0
H866 H 0.9932 0.04572 0.22151 0.0
H867 H 0.0451 0.98843 0.17851 0.0
H868 H 0.98351 0.93581 0.2343 0.0
H869 H 0.01826 0.96401 0.21991 0.0
H870 H 0.96616 0.02169 0.17966 0.0
H871 H 0.93147 0.99372 0.19688 0.0
C872 C 0.03193 0.05542 0.22261 0.0
C873 C 0.05666 0.04704 0.21817 0.0
C874 C 0.01188 0.03922 0.21381 0.0
C875 C 0.01612 0.01436 0.19956 0.0
C876 C 0.04094 0.00702 0.19079 0.0
C877 C 0.06094 0.02303 0.20053 0.0
C878 C 0.97956 0.95422 0.22096 0.0
C879 C 0.95479 0.96258 0.21701 0.0
C880 C 0.99955 0.97057 0.21265 0.0
C881 C 0.99523 0.99557 0.19937 0.0
C882 C 0.97037 1.00296 0.19117 0.0
C883 C 0.95042 0.98679 0.2004 0.0
H884 H 0.07311 0.98287 0.75947 0.0
H885 H 0.01609 0.93098 0.80182 0.0
H886 H 0.04487 0.01762 0.77384 0.0
H887 H 0.98811 0.96567 0.81888 0.0
H888 H 0.93507 0.02604 0.75947 0.0
H889 H 0.9635 0.99171 0.77572 0.0
H890 H 0.0205 0.04482 0.81522 0.0
H891 H 0.99232 0.07901 0.7963 0.0
C892 C 0.05495 0.97899 0.77404 0.0
C893 C 0.04679 0.95424 0.77938 0.0
C894 C 0.03857 0.99897 0.78226 0.0
C895 C 0.01376 0.99464 0.79672 0.0
C896 C 0.00668 0.96986 0.80646 0.0
C897 C 0.02287 0.94993 0.79739 0.0
C898 C 0.95335 0.0303 0.77314 0.0
C899 C 0.96149 0.05518 0.77641 0.0
C900 C 0.96984 0.01057 0.78248 0.0
C901 C 0.99473 0.01529 0.79603 0.0
C902 C 1.00186 0.0403 0.80358 0.0
C903 C 0.98556 0.05996 0.79339 0.0
H904 H 0.07907 0.49313 0.04676 0.0
H905 H 0.0278 0.43472 0.00812 0.0
H906 H 0.04405 0.52063 0.06399 0.0
H907 H 0.99269 0.46251 0.02226 0.0
H908 H 0.9304 0.51409 0.04588 0.0
H909 H 0.9653 0.48642 0.06299 0.0
H910 H 0.01695 0.54466 0.02308 0.0
H911 H 0.98198 0.57258 0.009 0.0
C912 C 0.0602 0.486 0.04297 0.0
C913 C 0.05615 0.46178 0.02614 0.0
C914 C 0.04005 0.50191 0.05215 0.0
C915 C 0.01529 0.49427 0.04352 0.0
C916 C 0.01129 0.46926 0.02988 0.0
C917 C 0.03149 0.45315 0.02172 0.0
C918 C 0.9493 0.52119 0.04239 0.0
C919 C 0.95347 0.5455 0.02609 0.0
C920 C 0.96938 0.50519 0.05154 0.0
C921 C 0.9942 0.51284 0.04346 0.0
C922 C 0.9983 0.5379 0.03029 0.0
C923 C 0.97817 0.55408 0.02214 0.0
H924 H 0.43708 0.98247 0.9787 0.0
H925 H 0.49269 0.92744 0.94383 0.0
H926 H 0.46638 0.01575 0.96037 0.0
H927 H 0.52174 0.96055 0.92284 0.0
H928 H 0.57546 0.02137 0.98048 0.0
H929 H 0.54674 0.9873 0.96404 0.0
H930 H 0.492 0.04064 0.91662 0.0
H931 H 0.52045 0.07465 0.93582 0.0
C932 C 0.45517 0.97752 0.96497 0.0
C933 C 0.46264 0.9524 0.96297 0.0
C934 C 0.47215 0.99664 0.95441 0.0
C935 C 0.49687 0.99103 0.9409 0.0
C936 C 0.50325 0.96575 0.9344 0.0
C937 C 0.48646 0.9467 0.94581 0.0
C938 C 0.55774 0.02567 0.96464 0.0
C939 C 0.55019 0.0506 0.9594 0.0
C940 C 0.54105 0.0061 0.95532 0.0
C941 C 0.51656 0.01107 0.93992 0.0
C942 C 0.51029 0.036 0.92975 0.0
C943 C 0.52678 0.05553 0.93993 0.0
H944 H 0.47475 0.43537 0.69593 0.0
H945 H 0.43313 0.50289 0.72314 0.0
H946 H 0.51141 0.46057 0.67742 0.0
H947 H 0.46972 0.52774 0.70877 0.0
H948 H 0.53751 0.57252 0.69485 0.0
H949 H 0.50169 0.54688 0.67317 0.0
H950 H 0.54129 0.48065 0.71691 0.0
H951 H 0.57718 0.5058 0.73456 0.0
C952 C 0.47327 0.45556 0.69732 0.0
C953 C 0.45113 0.46697 0.71228 0.0
C954 C 0.49446 0.47013 0.68737 0.0
C955 C 0.49416 0.49641 0.69305 0.0
C956 C 0.47117 0.50775 0.7038 0.0
C957 C 0.45 0.4933 0.71273 0.0
C958 C 0.53875 0.5524 0.69846 0.0
C959 C 0.56006 0.5414 0.71764 0.0
C960 C 0.51803 0.53759 0.6866 0.0
C961 C 0.51793 0.5115 0.69448 0.0
C962 C 0.5402 0.50047 0.70996 0.0
C963 C 0.56094 0.51513 0.72083 0.0
H964 H 0.49318 0.58042 0.29474 0.0
H965 H 0.43604 0.52682 0.26033 0.0
H966 H 0.52156 0.54656 0.31459 0.0
H967 H 0.46468 0.4928 0.27735 0.0
H968 H 0.5175 0.43253 0.30245 0.0
H969 H 0.4896 0.46716 0.32029 0.0
H970 H 0.54594 0.51922 0.27396 0.0
H971 H 0.57414 0.48452 0.25904 0.0
C972 C 0.4865 0.56131 0.29253 0.0
C973 C 0.46241 0.55624 0.27595 0.0
C974 C 0.50291 0.54183 0.30327 0.0
C975 C 0.49588 0.51672 0.2966 0.0
C976 C 0.47096 0.51175 0.28346 0.0
C977 C 0.45436 0.5313 0.27364 0.0
C978 C 0.52424 0.4515 0.29807 0.0
C979 C 0.548 0.45588 0.27953 0.0
C980 C 0.50807 0.4714 0.30753 0.0
C981 C 0.51502 0.49618 0.29748 0.0
C982 C 0.53974 0.50057 0.28261 0.0
C983 C 0.55611 0.48063 0.27409 0.0
H984 H 0.58199 0.99379 0.53838 0.0
H985 H 0.52997 0.93529 0.50342 0.0
H986 H 0.5473 0.02189 0.55468 0.0
H987 H 0.4952 0.96361 0.5169 0.0
H988 H 0.43349 0.01579 0.54287 0.0
H989 H 0.46855 0.98807 0.55851 0.0
H990 H 0.5197 0.0456 0.51364 0.0
H991 H 0.48457 0.07362 0.50085 0.0
C992 C 0.56305 0.98679 0.5351 0.0
C993 C 0.55871 0.96232 0.51961 0.0
C994 C 0.54308 1.00303 0.5438 0.0
C995 C 0.5182 0.99546 0.53619 0.0
C996 C 0.51392 0.97031 0.52373 0.0
C997 C 0.53392 0.9539 0.51594 0.0
C998 C 0.45234 0.02275 0.53791 0.0
C999 C 0.45629 0.04689 0.52067 0.0
C1000 C 0.4725 0.0067 0.54622 0.0
C1001 C 0.49719 0.01413 0.5364 0.0
C1002 C 0.50115 0.03903 0.52216 0.0
C1003 C 0.48095 0.05527 0.51478 0.0
H1004 H 0.93575 0.48341 0.47753 0.0
H1005 H 0.99206 0.42976 0.43946 0.0
H1006 H 0.96455 0.51739 0.4607 0.0
H1007 H 0.02061 0.46362 0.42016 0.0
H1008 H 0.07387 0.52465 0.47842 0.0
H1009 H 0.04531 0.4903 0.46267 0.0
H1010 H 0.98962 0.54314 0.4171 0.0
H1011 H 0.01793 0.57741 0.43533 0.0
C1012 C 0.95386 0.47893 0.46338 0.0
C1013 C 0.96166 0.45395 0.45999 0.0
C1014 C 0.97057 0.49846 0.45375 0.0
C1015 C 0.99534 0.49343 0.43986 0.0
C1016 C 1.00207 0.46836 0.43203 0.0
C1017 C 0.98554 0.44889 0.44242 0.0
C1018 C 0.05593 0.52881 0.46332 0.0
C1019 C 0.04812 0.55369 0.45822 0.0
C1020 C 0.03935 0.50907 0.45435 0.0
C1021 C 0.0147 0.51379 0.43945 0.0
C1022 C 0.00805 0.53868 0.4298 0.0
C1023 C 0.02444 0.55837 0.43953 0.0
H1024 H 0.05907 0.92714 0.55573 0.0
H1025 H 0.13704 0.93056 0.59373 0.0
H1026 H 0.06971 0.94265 0.48179 0.0
H1027 H 0.14783 0.94522 0.51909 0.0
H1028 H 0.1477 0.00615 0.40799 0.0
H1029 H 0.14343 0.98234 0.47652 0.0
H1030 H 0.08959 0.93382 0.41223 0.0
H1031 H 0.09314 0.95838 0.34391 0.0
C1032 C 0.07853 0.93095 0.54814 0.0
C1033 C 0.09716 0.92788 0.58078 0.0
C1034 C 0.0847 0.93958 0.5055 0.0
C1035 C 0.10968 0.94511 0.49431 0.0
C1036 C 0.12838 0.94146 0.5267 0.0
C1037 C 0.12218 0.93305 0.56951 0.0
C1038 C 0.13538 0.99004 0.40804 0.0
C1039 C 0.12034 0.98448 0.37077 0.0
C1040 C 0.13298 0.97629 0.44745 0.0
C1041 C 0.11571 0.95649 0.45027 0.0
C1042 C 0.10251 0.94943 0.41158 0.0
C1043 C 0.10473 0.96335 0.37226 0.0
H1044 H 0.95778 0.92041 0.65105 0.0
H1045 H 1.00368 0.86286 0.59118 0.0
H1046 H 0.93324 0.92302 0.58254 0.0
H1047 H 0.98002 0.86622 0.52242 0.0
H1048 H 0.92958 0.87151 0.40406 0.0
H1049 H 0.94329 0.862 0.47976 0.0
H1050 H 0.94226 0.94091 0.5118 0.0
H1051 H 0.92754 0.95025 0.43676 0.0
C1052 C 0.96233 0.90798 0.62361 0.0
C1053 C 0.98296 0.89179 0.62625 0.0
C1054 C 0.94844 0.90966 0.58417 0.0
C1055 C 0.95506 0.89533 0.54651 0.0
C1056 C 0.97429 0.87754 0.55066 0.0
C1057 C 0.98798 0.87566 0.59021 0.0
C1058 C 0.93222 0.88681 0.42736 0.0
C1059 C 0.92775 0.91167 0.41432 0.0
C1060 C 0.94007 0.88135 0.47078 0.0
C1061 C 0.94393 0.90066 0.50199 0.0
C1062 C 0.93902 0.92549 0.48904 0.0
C1063 C 0.93086 0.93091 0.44579 0.0
H1064 H 0.94773 0.08168 0.55208 0.0
H1065 H 0.87017 0.07523 0.59153 0.0
H1066 H 0.93727 0.06584 0.47825 0.0
H1067 H 0.85953 0.0602 0.51703 0.0
H1068 H 0.86126 0.99982 0.40476 0.0
H1069 H 0.86512 0.02338 0.47374 0.0
H1070 H 0.91659 0.0743 0.40924 0.0
H1071 H 0.91345 0.05004 0.34045 0.0
C1072 C 0.92839 0.07712 0.54486 0.0
C1073 C 0.90984 0.07948 0.57786 0.0
C1074 C 0.92232 0.06829 0.50228 0.0
C1075 C 0.8975 0.06184 0.49151 0.0
C1076 C 0.87886 0.06471 0.5243 0.0
C1077 C 0.88498 0.07333 0.56703 0.0
C1078 C 0.87294 0.01639 0.40487 0.0
C1079 C 0.88746 0.02275 0.36736 0.0
C1080 C 0.87512 0.02999 0.44455 0.0
C1081 C 0.89163 0.05042 0.44739 0.0
C1082 C 0.90427 0.0582 0.40855 0.0
C1083 C 0.90227 0.04446 0.36897 0.0
H1084 H 0.05031 0.0924 0.65201 0.0
H1085 H 1.00272 0.14674 0.58715 0.0
H1086 H 0.07573 0.08954 0.58454 0.0
H1087 H 0.02738 0.14314 0.51948 0.0
H1088 H 0.0799 0.13775 0.40361 0.0
H1089 H 0.06488 0.14813 0.47823 0.0
H1090 H 0.06771 0.06987 0.51442 0.0
H1091 H 0.08359 0.05967 0.44051 0.0
C1092 C 0.04556 0.1041 0.62371 0.0
C1093 C 0.02421 0.11941 0.62465 0.0
C1094 C 0.05998 0.10227 0.58488 0.0
C1095 C 0.05322 0.1156 0.54618 0.0
C1096 C 0.03321 0.13261 0.54858 0.0
C1097 C 0.01895 0.13461 0.58749 0.0
C1098 C 0.07741 0.12278 0.42759 0.0
C1099 C 0.08271 0.09784 0.41601 0.0
C1100 C 0.0688 0.12874 0.47038 0.0
C1101 C 0.06507 0.10987 0.50241 0.0
C1102 C 0.07082 0.08498 0.49097 0.0
C1103 C 0.07966 0.07906 0.44836 0.0
H1104 H 0.13676 0.57432 0.64747 0.0
H1105 H 0.05874 0.57719 0.68535 0.0
H1106 H 0.14758 0.55981 0.72222 0.0
H1107 H 0.06943 0.56192 0.75941 0.0
H1108 H 0.0933 0.549 0.89819 0.0
H1109 H 0.08934 0.57222 0.82848 0.0
H1110 H 0.1434 0.52305 0.76651 0.0
H1111 H 0.14803 0.50052 0.83643 0.0
C1112 C 0.12189 0.5717 0.67165 0.0
C1113 C 0.09686 0.57677 0.66036 0.0
C1114 C 0.12811 0.56339 0.71452 0.0
C1115 C 0.10942 0.55979 0.74698 0.0
C1116 C 0.0844 0.565 0.73564 0.0
C1117 C 0.07821 0.57348 0.69294 0.0
C1118 C 0.10484 0.5436 0.87003 0.0
C1119 C 0.12065 0.52267 0.87266 0.0
C1120 C 0.10238 0.55674 0.82991 0.0
C1121 C 0.11555 0.54909 0.79153 0.0
C1122 C 0.13297 0.52951 0.79534 0.0
C1123 C 0.13561 0.51652 0.83555 0.0
H1124 H 0.55095 0.91725 0.09095 0.0
H1125 H 0.50333 0.8632 0.15667 0.0
H1126 H 0.57726 0.91934 0.15741 0.0
H1127 H 0.52886 0.86604 0.22338 0.0
H1128 H 0.58787 0.94763 0.3022 0.0
H1129 H 0.57115 0.93842 0.22841 0.0
H1130 H 0.56661 0.85997 0.26272 0.0
H1131 H 0.58239 0.86939 0.33718 0.0
C1132 C 0.54635 0.90547 0.11924 0.0
C1133 C 0.5248 0.89041 0.11881 0.0
C1134 C 0.56129 0.90685 0.1575 0.0
C1135 C 0.55485 0.89333 0.19617 0.0
C1136 C 0.5345 0.87667 0.19427 0.0
C1137 C 0.51973 0.87511 0.15592 0.0
C1138 C 0.58343 0.9284 0.2939 0.0
C1139 C 0.5861 0.90931 0.32574 0.0
C1140 C 0.57408 0.92305 0.25136 0.0
C1141 C 0.56749 0.89842 0.23951 0.0
C1142 C 0.57109 0.87919 0.27091 0.0
C1143 C 0.58015 0.8846 0.31362 0.0
H1144 H 0.91338 0.45907 0.89986 0.0
H1145 H 0.86048 0.50922 0.83746 0.0
H1146 H 0.9175 0.43616 0.82978 0.0
H1147 H 0.86528 0.48697 0.76721 0.0
H1148 H 0.94915 0.43077 0.68739 0.0
H1149 H 0.93829 0.4462 0.76135 0.0
H1150 H 0.86053 0.45049 0.72227 0.0
H1151 H 0.87154 0.43583 0.64769 0.0
C1152 C 0.90225 0.4649 0.87145 0.0
C1153 C 0.88691 0.48619 0.87407 0.0
C1154 C 0.90482 0.45195 0.83114 0.0
C1155 C 0.89223 0.46011 0.79252 0.0
C1156 C 0.87526 0.4801 0.79621 0.0
C1157 C 0.87251 0.49292 0.83662 0.0
C1158 C 0.92973 0.435 0.69454 0.0
C1159 C 0.91126 0.43226 0.66149 0.0
C1160 C 0.92343 0.44358 0.73718 0.0
C1161 C 0.89847 0.44943 0.74796 0.0
C1162 C 0.87996 0.44641 0.71501 0.0
C1163 C 0.88629 0.438 0.67223 0.0
H1164 H 0.48501 0.07742 0.12191 0.0
H1165 H 0.46954 0.15665 0.12131 0.0
H1166 H 0.45885 0.07216 0.18742 0.0
H1167 H 0.44275 0.15142 0.18746 0.0
H1168 H 0.44102 0.13354 0.34201 0.0
H1169 H 0.45433 0.14184 0.26558 0.0
H1170 H 0.41798 0.0739 0.22168 0.0
H1171 H 0.40519 0.06522 0.29824 0.0
C1172 C 0.47532 0.09361 0.13518 0.0
C1173 C 0.47936 0.11745 0.11696 0.0
C1174 C 0.46019 0.0906 0.17261 0.0
C1175 C 0.44889 0.11141 0.19289 0.0
C1176 C 0.45148 0.13509 0.17274 0.0
C1177 C 0.46654 0.13807 0.13473 0.0
C1178 C 0.43571 0.12045 0.31602 0.0
C1179 C 0.42249 0.09846 0.32638 0.0
C1180 C 0.44306 0.12539 0.27209 0.0
C1181 C 0.43726 0.10849 0.2376 0.0
C1182 C 0.42299 0.08712 0.24765 0.0
C1183 C 0.41575 0.08212 0.29156 0.0
H1184 H 0.65297 0.51007 0.91105 0.0
H1185 H 0.60519 0.45692 0.84325 0.0
H1186 H 0.64803 0.48692 0.98028 0.0
H1187 H 0.60091 0.43326 0.91241 0.0
H1188 H 0.56416 0.42843 0.05143 0.0
H1189 H 0.57712 0.44343 0.97845 0.0
H1190 H 0.65331 0.45 0.02546 0.0
H1191 H 0.6402 0.43551 0.09919 0.0
C1192 C 0.64206 0.49299 0.91051 0.0
C1193 C 0.62896 0.48568 0.87187 0.0
C1194 C 0.63929 0.47964 0.95031 0.0
C1195 C 0.62355 0.45859 0.95213 0.0
C1196 C 0.61258 0.44983 0.91235 0.0
C1197 C 0.61523 0.46326 0.8726 0.0
C1198 C 0.5837 0.43301 0.04628 0.0
C1199 C 0.60109 0.43097 0.0813 0.0
C1200 C 0.59121 0.44133 0.00419 0.0
C1201 C 0.61632 0.44772 0.99595 0.0
C1202 C 0.63381 0.44538 0.0308 0.0
C1203 C 0.62627 0.43712 0.07305 0.0
H1204 H 0.42825 0.37492 0.8994 0.0
H1205 H 0.42511 0.45378 0.93083 0.0
H1206 H 0.44264 0.36608 0.97505 0.0
H1207 H 0.44055 0.44517 0.00555 0.0
H1208 H 0.45788 0.42631 0.14456 0.0
H1209 H 0.43265 0.42798 0.07676 0.0
H1210 H 0.47932 0.37092 0.0171 0.0
H1211 H 0.50356 0.3684 0.08525 0.0
C1212 C 0.4308 0.39038 0.9224 0.0
C1213 C 0.4258 0.41507 0.90906 0.0
C1214 C 0.43904 0.38532 0.96578 0.0
C1215 C 0.44279 0.40488 -0.00345 0.0
C1216 C 0.43739 0.42954 0.98322 0.0
C1217 C 0.42882 0.43454 0.94011 0.0
C1218 C 0.46227 0.41365 0.11738 0.0
C1219 C 0.48301 0.3976 0.11995 0.0
C1220 C 0.44798 0.41477 0.07832 0.0
C1221 C 0.45434 0.40008 0.04094 0.0
C1222 C 0.47376 0.38249 0.0451 0.0
C1223 C 0.4878 0.38113 0.0843 0.0
H1224 H 0.35907 0.50081 0.90381 0.0
H1225 H 0.40962 0.5526 0.83931 0.0
H1226 H 0.36365 0.52351 0.97363 0.0
H1227 H 0.41348 0.57595 0.90896 0.0
H1228 H 0.4466 0.58219 0.05028 0.0
H1229 H 0.43532 0.56673 0.97658 0.0
H1230 H 0.35822 0.55982 0.01863 0.0
H1231 H 0.36969 0.5745 0.09297 0.0
C1232 C 0.3705 0.51755 0.9041 0.0
C1233 C 0.38438 0.52463 0.86621 0.0
C1234 C 0.37312 0.53063 0.94426 0.0
C1235 C 0.38942 0.55123 0.94722 0.0
C1236 C 0.40136 0.55971 0.90815 0.0
C1237 C 0.39894 0.54649 0.86809 0.0
C1238 C 0.42723 0.57741 0.04382 0.0
C1239 C 0.40911 0.57937 0.07765 0.0
C1240 C 0.42068 0.5688 0.00134 0.0
C1241 C 0.3958 0.56217 0.99149 0.0
C1242 C 0.37759 0.56451 0.02517 0.0
C1243 C 0.38419 0.57293 0.06781 0.0
H1244 H 0.5012 0.6461 0.08247 0.0
H1245 H 0.55094 0.59444 0.14913 0.0
H1246 H 0.5257 0.6424 0.01466 0.0
H1247 H 0.57624 0.59157 0.08152 0.0
H1248 H 0.57793 0.63738 0.89826 0.0
H1249 H 0.56251 0.64819 0.97244 0.0
H1250 H 0.56929 0.57077 0.01253 0.0
H1251 H 0.58562 0.56023 0.93911 0.0
C1252 C 0.51786 0.63456 0.08313 0.0
C1253 C 0.5238 0.62011 0.12091 0.0
C1254 C 0.53202 0.63251 0.04413 0.0
C1255 C 0.55265 0.61623 0.04223 0.0
C1256 C 0.56001 0.6037 0.08144 0.0
C1257 C 0.54566 0.60554 0.12035 0.0
C1258 C 0.57619 0.6227 0.923 0.0
C1259 C 0.58276 0.5979 0.91269 0.0
C1260 C 0.56736 0.6289 0.96555 0.0
C1261 C 0.56463 0.61039 -0.00142 0.0
C1262 C 0.57161 0.58565 0.98833 0.0
C1263 C 0.58071 0.57952 0.94599 0.0
H1264 H 0.56586 0.07095 0.19093 0.0
H1265 H 0.64239 0.06921 0.14389 0.0
H1266 H 0.57952 0.05745 0.26415 0.0
H1267 H 0.65618 0.0559 0.21822 0.0
H1268 H 0.65687 0.99644 0.33611 0.0
H1269 H 0.65241 0.01873 0.26579 0.0
H1270 H 0.60269 0.07158 0.32944 0.0
H1271 H 0.60653 0.04884 0.39964 0.0
C1272 C 0.58566 0.06777 0.19621 0.0
C1273 C 0.60301 0.07107 0.1614 0.0
C1274 C 0.59354 0.06034 0.2385 0.0
C1275 C 0.619 0.05602 0.24726 0.0
C1276 C 0.63644 0.05913 0.21247 0.0
C1277 C 0.62852 0.06665 0.16992 0.0
C1278 C 0.64552 0.01322 0.33552 0.0
C1279 C 0.63144 0.02044 0.37316 0.0
C1280 C 0.64304 0.02606 0.29512 0.0
C1281 C 0.62661 0.04646 0.29178 0.0
C1282 C 0.61492 0.05544 0.33075 0.0
C1283 C 0.61727 0.04253 0.37107 0.0
H1284 H 0.01587 0.36156 0.63795 0.0
H1285 H 0.03556 0.43889 0.61457 0.0
H1286 H 0.04307 0.36101 0.70349 0.0
H1287 H 0.0614 0.43882 0.68067 0.0
H1288 H 0.11112 0.43508 0.7971 0.0
H1289 H 0.09597 0.42671 0.72186 0.0
H1290 H 0.0393 0.37747 0.77614 0.0
H1291 H 0.05557 0.38475 0.851 0.0
C1292 C 0.02634 0.37828 0.6463 0.0
C1293 C 0.02322 0.4004 0.62159 0.0
C1294 C 0.04172 0.37807 0.68414 0.0
C1295 C 0.05406 0.40001 0.69809 0.0
C1296 C 0.05243 0.42147 0.67106 0.0
C1297 C 0.03736 0.42158 0.63312 0.0
C1298 C 0.09556 0.4223 0.79278 0.0
C1299 C 0.08423 0.41087 0.82984 0.0
C1300 C 0.08684 0.41751 0.74967 0.0
C1301 C 0.06617 0.40165 0.74276 0.0
C1302 C 0.05547 0.3895 0.7799 0.0
C1303 C 0.06458 0.39388 0.82296 0.0
H1304 H 0.36064 0.00987 0.33826 0.0
H1305 H 0.41244 0.95907 0.40193 0.0
H1306 H 0.36503 0.98707 0.26856 0.0
H1307 H 0.4161 0.93558 0.33239 0.0
H1308 H 0.44805 0.9291 0.19025 0.0
H1309 H 0.43722 0.94472 0.26406 0.0
H1310 H 0.35972 0.95067 0.22396 0.0
H1311 H 0.37075 0.93584 0.14949 0.0
C1312 C 0.37234 0.99332 0.33783 0.0
C1313 C 0.3866 0.98658 0.37545 0.0
C1314 C 0.37483 0.98017 0.29773 0.0
C1315 C 0.39139 0.95982 0.29452 0.0
C1316 C 0.40376 0.95164 0.33336 0.0
C1317 C 0.40145 0.96494 0.37338 0.0
C1318 C 0.42869 0.93372 0.19715 0.0
C1319 C 0.41032 0.93144 0.16383 0.0
C1320 C 0.4224 0.94242 0.23971 0.0
C1321 C 0.39753 0.94882 0.25016 0.0
C1322 C 0.37909 0.94618 0.21697 0.0
C1323 C 0.38542 0.93767 0.17425 0.0
H1324 H 0.97372 0.56694 0.61423 0.0
H1325 H 0.99087 0.64514 0.63478 0.0
H1326 H 0.9483 0.56685 0.68093 0.0
H1327 H 0.96413 0.64545 0.70093 0.0
H1328 H 0.9536 0.62301 0.84933 0.0
H1329 H 0.96925 0.62971 0.77392 0.0
H1330 H 0.91353 0.57842 0.72261 0.0
H1331 H 0.89893 0.57071 0.79843 0.0
C1332 C 0.97143 0.58437 0.63227 0.0
C1333 C 0.98477 0.6059 0.61978 0.0
C1334 C 0.95662 0.58438 0.67057 0.0
C1335 C 0.95447 0.60605 0.69697 0.0
C1336 C 0.96594 0.62825 0.68206 0.0
C1337 C 0.98105 0.62816 0.64388 0.0
C1338 C 0.94466 0.61328 0.82185 0.0
C1339 C 0.92542 0.59597 0.82977 0.0
C1340 C 0.95341 0.61733 0.77847 0.0
C1341 C 0.94277 0.6045 0.742 0.0
C1342 C 0.92257 0.5882 0.74991 0.0
C1343 C 0.91418 0.58377 0.79336 0.0
loop_
_geom_bond_atom_site_label_1
_geom_bond_atom_site_label_2
_geom_bond_distance
_geom_bond_site_symmetry_2
_ccdc_geom_bond_type
Co0 O3 1.970 . S
Co0 N17 1.989 . S
Co0 O25 1.967 . S
Co0 O32 1.920 . S
Co1 O4 1.966 . S
Co1 N10 2.022 . S
Co1 N18 1.993 . S
Co1 O26 1.941 . S
C2 O3 1.258 . S
C2 O4 1.263 . S
O3 Co0 1.970 . S
O3 C2 1.258 . S
O4 Co1 1.966 . S
O4 C2 1.263 . S
C5 O6 1.239 . S
C5 O32 1.289 . S
O6 C5 1.239 . S
C7 C9 1.400 . S
C7 N10 1.351 . S
C7 C12 1.501 . S
C8 C9 1.387 . S
C8 N11 1.341 . S
C9 C7 1.400 . S
C9 C8 1.387 . S
N10 Co1 2.022 . S
N10 C7 1.351 . S
N10 N11 1.365 . S
N11 C8 1.341 . S
N11 N10 1.365 . S
N11 H31 0.862 . S
C12 C7 1.501 . S
C12 H13 0.961 . S
C12 H14 0.961 . S
C12 H15 0.960 . S
H13 C12 0.961 . S
H14 C12 0.961 . S
H15 C12 0.960 . S
C16 N17 1.342 . S
C16 C20 1.401 . S
C16 C21 1.499 . S
N17 Co0 1.989 . S
N17 C16 1.342 . S
N17 N18 1.388 . S
N18 Co1 1.993 . S
N18 N17 1.388 . S
N18 C19 1.346 . S
C19 N18 1.346 . S
C19 C20 1.396 . S
C19 C29 1.510 . S
C20 C16 1.401 . S
C20 C19 1.396 . S
C21 C16 1.499 . S
C21 H22 0.959 . S
C21 H23 0.960 . S
C21 H24 0.961 . S
H22 C21 0.959 . S
H23 C21 0.960 . S
H24 C21 0.961 . S
O25 Co0 1.967 . S
O25 C33 1.258 . S
O26 Co1 1.941 . S
O26 C33 1.266 . S
H27 C29 0.959 . S
H28 C29 0.961 . S
C29 C19 1.510 . S
C29 H27 0.959 . S
C29 H28 0.961 . S
C29 H30 0.960 . S
H30 C29 0.960 . S
H31 N11 0.862 . S
O32 Co0 1.920 . S
O32 C5 1.289 . S
C33 O25 1.258 . S
C33 O26 1.266 . S
Co34 O37 1.970 . S
Co34 N51 1.989 . S
Co34 O59 1.967 . S
Co34 O66 1.920 . S
Co35 O38 1.966 . S
Co35 N44 2.022 . S
Co35 N52 1.993 . S
Co35 O60 1.941 . S
C36 O37 1.258 . S
C36 O38 1.263 . S
O37 Co34 1.970 . S
O37 C36 1.258 . S
O38 Co35 1.966 . S
O38 C36 1.263 . S
C39 O40 1.239 . S
C39 O66 1.289 . S
O40 C39 1.239 . S
C41 C43 1.400 . S
C41 N44 1.351 . S
C41 C46 1.501 . S
C42 C43 1.387 . S
C42 N45 1.341 . S
C43 C41 1.400 . S
C43 C42 1.387 . S
N44 Co35 2.022 . S
N44 C41 1.351 . S
N44 N45 1.365 . S
N45 C42 1.341 . S
N45 N44 1.365 . S
N45 H65 0.862 . S
C46 C41 1.501 . S
C46 H47 0.961 . S
C46 H48 0.961 . S
C46 H49 0.960 . S
H47 C46 0.961 . S
H48 C46 0.961 . S
H49 C46 0.960 . S
C50 N51 1.342 . S
C50 C54 1.401 . S
C50 C55 1.499 . S
N51 Co34 1.989 . S
N51 C50 1.342 . S
N51 N52 1.388 . S
N52 Co35 1.993 . S
N52 N51 1.388 . S
N52 C53 1.346 . S
C53 N52 1.346 . S
C53 C54 1.396 . S
C53 C63 1.510 . S
C54 C50 1.401 . S
C54 C53 1.396 . S
C55 C50 1.499 . S
C55 H56 0.959 . S
C55 H57 0.960 . S
C55 H58 0.961 . S
H56 C55 0.959 . S
H57 C55 0.960 . S
H58 C55 0.961 . S
O59 Co34 1.967 . S
O59 C67 1.258 . S
O60 Co35 1.941 . S
O60 C67 1.266 . S
H61 C63 0.959 . S
H62 C63 0.961 . S
C63 C53 1.510 . S
C63 H61 0.959 . S
C63 H62 0.961 . S
C63 H64 0.960 . S
H64 C63 0.960 . S
H65 N45 0.862 . S
O66 Co34 1.920 . S
O66 C39 1.289 . S
C67 O59 1.258 . S
C67 O60 1.266 . S
Co68 O71 1.970 . S
Co68 N85 1.989 . S
Co68 O93 1.967 . S
Co68 O100 1.920 . S
Co69 O72 1.966 . S
Co69 N78 2.022 . S
Co69 N86 1.993 . S
Co69 O94 1.941 . S
C70 O71 1.258 . S
C70 O72 1.263 . S
O71 Co68 1.970 . S
O71 C70 1.258 . S
O72 Co69 1.966 . S
O72 C70 1.263 . S
C73 O74 1.239 . S
C73 O100 1.289 . S
O74 C73 1.239 . S
C75 C77 1.400 . S
C75 N78 1.351 . S
C75 C80 1.501 . S
C76 C77 1.387 . S
C76 N79 1.341 . S
C77 C75 1.400 . S
C77 C76 1.387 . S
N78 Co69 2.022 . S
N78 C75 1.351 . S
N78 N79 1.365 . S
N79 C76 1.341 . S
N79 N78 1.365 . S
N79 H99 0.862 . S
C80 C75 1.501 . S
C80 H81 0.961 . S
C80 H82 0.961 . S
C80 H83 0.960 . S
H81 C80 0.961 . S
H82 C80 0.961 . S
H83 C80 0.960 . S
C84 N85 1.342 . S
C84 C88 1.401 . S
C84 C89 1.499 . S
N85 Co68 1.989 . S
N85 C84 1.342 . S
N85 N86 1.388 . S
N86 Co69 1.993 . S
N86 N85 1.388 . S
N86 C87 1.346 . S
C87 N86 1.346 . S
C87 C88 1.396 . S
C87 C97 1.510 . S
C88 C84 1.401 . S
C88 C87 1.396 . S
C89 C84 1.499 . S
C89 H90 0.959 . S
C89 H91 0.960 . S
C89 H92 0.961 . S
H90 C89 0.959 . S
H91 C89 0.960 . S
H92 C89 0.961 . S
O93 Co68 1.967 . S
O93 C101 1.258 . S
O94 Co69 1.941 . S
O94 C101 1.266 . S
H95 C97 0.959 . S
H96 C97 0.961 . S
C97 C87 1.510 . S
C97 H95 0.959 . S
C97 H96 0.961 . S
C97 H98 0.960 . S
H98 C97 0.960 . S
H99 N79 0.862 . S
O100 Co68 1.920 . S
O100 C73 1.289 . S
C101 O93 1.258 . S
C101 O94 1.266 . S
Co102 O105 1.970 . S
Co102 N119 1.989 . S
Co102 O127 1.967 . S
Co102 O134 1.920 . S
Co103 O106 1.966 . S
Co103 N112 2.022 . S
Co103 N120 1.993 . S
Co103 O128 1.941 . S
C104 O105 1.258 . S
C104 O106 1.263 . S
O105 Co102 1.970 . S
O105 C104 1.258 . S
O106 Co103 1.966 . S
O106 C104 1.263 . S
C107 O108 1.239 . S
C107 O134 1.289 . S
O108 C107 1.239 . S
C109 C111 1.400 . S
C109 N112 1.351 . S
C109 C114 1.501 . S
C110 C111 1.387 . S
C110 N113 1.341 . S
C111 C109 1.400 . S
C111 C110 1.387 . S
N112 Co103 2.022 . S
N112 C109 1.351 . S
N112 N113 1.365 . S
N113 C110 1.341 . S
N113 N112 1.365 . S
N113 H133 0.862 . S
C114 C109 1.501 . S
C114 H115 0.961 . S
C114 H116 0.961 . S
C114 H117 0.960 . S
H115 C114 0.961 . S
H116 C114 0.961 . S
H117 C114 0.960 . S
C118 N119 1.342 . S
C118 C122 1.401 . S
C118 C123 1.499 . S
N119 Co102 1.989 . S
N119 C118 1.342 . S
N119 N120 1.388 . S
N120 Co103 1.993 . S
N120 N119 1.388 . S
N120 C121 1.346 . S
C121 N120 1.346 . S
C121 C122 1.396 . S
C121 C131 1.510 . S
C122 C118 1.401 . S
C122 C121 1.396 . S
C123 C118 1.499 . S
C123 H124 0.959 . S
C123 H125 0.960 . S
C123 H126 0.961 . S
H124 C123 0.959 . S
H125 C123 0.960 . S
H126 C123 0.961 . S
O127 Co102 1.967 . S
O127 C135 1.258 . S
O128 Co103 1.941 . S
O128 C135 1.266 . S
H129 C131 0.959 . S
H130 C131 0.961 . S
C131 C121 1.510 . S
C131 H129 0.959 . S
C131 H130 0.961 . S
C131 H132 0.960 . S
H132 C131 0.960 . S
H133 N113 0.862 . S
O134 Co102 1.920 . S
O134 C107 1.289 . S
C135 O127 1.258 . S
C135 O128 1.266 . S
Co136 O139 1.970 . S
Co136 N153 1.989 . S
Co136 O161 1.967 . S
Co136 O168 1.920 . S
Co137 O140 1.966 . S
Co137 N146 2.022 1_556 S
Co137 N154 1.993 . S
Co137 O162 1.941 . S
C138 O139 1.258 . S
C138 O140 1.263 . S
O139 Co136 1.970 . S
O139 C138 1.258 . S
O140 Co137 1.966 . S
O140 C138 1.263 . S
C141 O142 1.235 . S
C141 O168 1.289 . S
O142 C141 1.235 . S
C143 C145 1.400 . S
C143 N146 1.351 . S
C143 C148 1.501 . S
C144 C145 1.387 . S
C144 N147 1.341 1_554 S
C145 C143 1.400 . S
C145 C144 1.387 . S
N146 Co137 2.022 1_554 S
N146 C143 1.351 . S
N146 N147 1.365 1_554 S
N147 C144 1.341 1_556 S
N147 N146 1.365 1_556 S
N147 H167 0.862 . S
C148 C143 1.501 . S
C148 H149 0.961 . S
C148 H150 0.961 . S
C148 H151 0.960 . S
H149 C148 0.961 . S
H150 C148 0.961 . S
H151 C148 0.960 . S
C152 N153 1.342 . S
C152 C156 1.401 . S
C152 C157 1.499 . S
N153 Co136 1.989 . S
N153 C152 1.342 . S
N153 N154 1.388 . S
N154 Co137 1.993 . S
N154 N153 1.388 . S
N154 C155 1.346 . S
C155 N154 1.346 . S
C155 C156 1.396 . S
C155 C165 1.510 . S
C156 C152 1.401 . S
C156 C155 1.396 . S
C157 C152 1.499 . S
C157 H158 0.959 . S
C157 H159 0.960 . S
C157 H160 0.961 . S
H158 C157 0.959 . S
H159 C157 0.960 . S
H160 C157 0.961 . S
O161 Co136 1.967 . S
O161 C169 1.258 . S
O162 Co137 1.941 . S
O162 C169 1.266 . S
H163 C165 0.959 . S
H164 C165 0.961 1_554 S
C165 C155 1.510 . S
C165 H163 0.959 . S
C165 H164 0.961 1_556 S
C165 H166 0.960 1_556 S
H166 C165 0.960 1_554 S
H167 N147 0.862 . S
O168 Co136 1.920 . S
O168 C141 1.289 . S
C169 O161 1.258 . S
C169 O162 1.266 . S
Co170 O173 1.970 . S
Co170 N187 1.989 . S
Co170 O195 1.967 . S
Co170 O202 1.920 . S
Co171 O174 1.966 . S
Co171 N180 2.022 1_554 S
Co171 N188 1.993 . S
Co171 O196 1.941 . S
C172 O173 1.258 . S
C172 O174 1.263 . S
O173 Co170 1.970 . S
O173 C172 1.258 . S
O174 Co171 1.966 . S
O174 C172 1.263 . S
C175 O176 1.235 . S
C175 O202 1.289 . S
O176 C175 1.235 . S
C177 C179 1.400 . S
C177 N180 1.351 . S
C177 C182 1.501 . S
C178 C179 1.387 . S
C178 N181 1.341 1_556 S
C179 C177 1.400 . S
C179 C178 1.387 . S
N180 Co171 2.022 1_556 S
N180 C177 1.351 . S
N180 N181 1.365 1_556 S
N181 C178 1.341 1_554 S
N181 N180 1.365 1_554 S
N181 H201 0.862 . S
C182 C177 1.501 . S
C182 H183 0.961 . S
C182 H184 0.961 . S
C182 H185 0.960 . S
H183 C182 0.961 . S
H184 C182 0.961 . S
H185 C182 0.960 . S
C186 N187 1.342 . S
C186 C190 1.401 . S
C186 C191 1.499 . S
N187 Co170 1.989 . S
N187 C186 1.342 . S
N187 N188 1.388 . S
N188 Co171 1.993 . S
N188 N187 1.388 . S
N188 C189 1.346 . S
C189 N188 1.346 . S
C189 C190 1.396 . S
C189 C199 1.510 . S
C190 C186 1.401 . S
C190 C189 1.396 . S
C191 C186 1.499 . S
C191 H192 0.959 . S
C191 H193 0.960 . S
C191 H194 0.961 . S
H192 C191 0.959 . S
H193 C191 0.960 . S
H194 C191 0.961 . S
O195 Co170 1.967 . S
O195 C203 1.258 . S
O196 Co171 1.941 . S
O196 C203 1.266 . S
H197 C199 0.959 . S
H198 C199 0.961 1_556 S
C199 C189 1.510 . S
C199 H197 0.959 . S
C199 H198 0.961 1_554 S
C199 H200 0.960 1_554 S
H200 C199 0.960 1_556 S
H201 N181 0.862 . S
O202 Co170 1.920 . S
O202 C175 1.289 . S
C203 O195 1.258 . S
C203 O196 1.266 . S
Co204 O207 1.970 . S
Co204 N221 1.989 . S
Co204 O229 1.967 . S
Co204 O236 1.920 . S
Co205 O208 1.966 . S
Co205 N214 2.022 1_556 S
Co205 N222 1.993 . S
Co205 O230 1.941 . S
C206 O207 1.258 . S
C206 O208 1.263 . S
O207 Co204 1.970 . S
O207 C206 1.258 . S
O208 Co205 1.966 . S
O208 C206 1.263 . S
C209 O210 1.235 . S
C209 O236 1.289 . S
O210 C209 1.235 . S
C211 C213 1.400 . S
C211 N214 1.351 . S
C211 C216 1.501 . S
C212 C213 1.387 . S
C212 N215 1.341 1_554 S
C213 C211 1.400 . S
C213 C212 1.387 . S
N214 Co205 2.022 1_554 S
N214 C211 1.351 . S
N214 N215 1.365 1_554 S
N215 C212 1.341 1_556 S
N215 N214 1.365 1_556 S
N215 H235 0.862 . S
C216 C211 1.501 . S
C216 H217 0.961 . S
C216 H218 0.961 . S
C216 H219 0.960 . S
H217 C216 0.961 . S
H218 C216 0.961 . S
H219 C216 0.960 . S
C220 N221 1.342 . S
C220 C224 1.401 . S
C220 C225 1.499 . S
N221 Co204 1.989 . S
N221 C220 1.342 . S
N221 N222 1.388 . S
N222 Co205 1.993 . S
N222 N221 1.388 . S
N222 C223 1.346 . S
C223 N222 1.346 . S
C223 C224 1.396 . S
C223 C233 1.510 . S
C224 C220 1.401 . S
C224 C223 1.396 . S
C225 C220 1.499 . S
C225 H226 0.959 . S
C225 H227 0.960 . S
C225 H228 0.961 . S
H226 C225 0.959 . S
H227 C225 0.960 . S
H228 C225 0.961 . S
O229 Co204 1.967 . S
O229 C237 1.258 . S
O230 Co205 1.941 . S
O230 C237 1.266 . S
H231 C233 0.959 . S
H232 C233 0.961 1_554 S
C233 C223 1.510 . S
C233 H231 0.959 . S
C233 H232 0.961 1_556 S
C233 H234 0.960 1_556 S
H234 C233 0.960 1_554 S
H235 N215 0.862 . S
O236 Co204 1.920 . S
O236 C209 1.289 . S
C237 O229 1.258 . S
C237 O230 1.266 . S
Co238 O241 1.970 . S
Co238 N255 1.989 . S
Co238 O263 1.967 . S
Co238 O270 1.920 . S
Co239 O242 1.966 . S
Co239 N248 2.022 1_554 S
Co239 N256 1.993 . S
Co239 O264 1.941 . S
C240 O241 1.258 . S
C240 O242 1.263 . S
O241 Co238 1.970 . S
O241 C240 1.258 . S
O242 Co239 1.966 . S
O242 C240 1.263 . S
C243 O244 1.235 . S
C243 O270 1.289 . S
O244 C243 1.235 . S
C245 C247 1.400 . S
C245 N248 1.351 . S
C245 C250 1.501 . S
C246 C247 1.387 . S
C246 N249 1.341 1_556 S
C247 C245 1.400 . S
C247 C246 1.387 . S
N248 Co239 2.022 1_556 S
N248 C245 1.351 . S
N248 N249 1.365 1_556 S
N249 C246 1.341 1_554 S
N249 N248 1.365 1_554 S
N249 H269 0.862 . S
C250 C245 1.501 . S
C250 H251 0.961 . S
C250 H252 0.961 . S
C250 H253 0.960 . S
H251 C250 0.961 . S
H252 C250 0.961 . S
H253 C250 0.960 . S
C254 N255 1.342 . S
C254 C258 1.401 . S
C254 C259 1.499 . S
N255 Co238 1.989 . S
N255 C254 1.342 . S
N255 N256 1.388 . S
N256 Co239 1.993 . S
N256 N255 1.388 . S
N256 C257 1.346 . S
C257 N256 1.346 . S
C257 C258 1.396 . S
C257 C267 1.510 . S
C258 C254 1.401 . S
C258 C257 1.396 . S
C259 C254 1.499 . S
C259 H260 0.959 . S
C259 H261 0.960 . S
C259 H262 0.961 . S
H260 C259 0.959 . S
H261 C259 0.960 . S
H262 C259 0.961 . S
O263 Co238 1.967 . S
O263 C271 1.258 . S
O264 Co239 1.941 . S
O264 C271 1.266 . S
H265 C267 0.959 . S
H266 C267 0.961 1_556 S
C267 C257 1.510 . S
C267 H265 0.959 . S
C267 H266 0.961 1_554 S
C267 H268 0.960 1_554 S
H268 C267 0.960 1_556 S
H269 N249 0.862 . S
O270 Co238 1.920 . S
O270 C243 1.289 . S
C271 O263 1.258 . S
C271 O264 1.266 . S
Co272 O275 1.970 . S
Co272 N289 1.989 . S
Co272 O297 1.967 . S
Co272 O304 1.920 . S
Co273 O276 1.966 . S
Co273 N282 2.022 . S
Co273 N290 1.993 . S
Co273 O298 1.941 . S
C274 O275 1.258 . S
C274 O276 1.263 . S
O275 Co272 1.970 . S
O275 C274 1.258 . S
O276 Co273 1.966 . S
O276 C274 1.263 . S
C277 O278 1.235 . S
C277 O304 1.289 . S
O278 C277 1.235 . S
C279 C281 1.400 . S
C279 N282 1.351 . S
C279 C284 1.501 . S
C280 C281 1.387 . S
C280 N283 1.341 . S
C281 C279 1.400 . S
C281 C280 1.387 . S
N282 Co273 2.022 . S
N282 C279 1.351 . S
N282 N283 1.365 . S
N283 C280 1.341 . S
N283 N282 1.365 . S
N283 H303 0.862 . S
C284 C279 1.501 . S
C284 H285 0.961 . S
C284 H286 0.961 . S
C284 H287 0.960 . S
H285 C284 0.961 . S
H286 C284 0.961 . S
H287 C284 0.960 . S
C288 N289 1.342 . S
C288 C292 1.401 . S
C288 C293 1.499 . S
N289 Co272 1.989 . S
N289 C288 1.342 . S
N289 N290 1.388 . S
N290 Co273 1.993 . S
N290 N289 1.388 . S
N290 C291 1.346 . S
C291 N290 1.346 . S
C291 C292 1.396 . S
C291 C301 1.510 . S
C292 C288 1.401 . S
C292 C291 1.396 . S
C293 C288 1.499 . S
C293 H294 0.959 . S
C293 H295 0.960 . S
C293 H296 0.961 . S
H294 C293 0.959 . S
H295 C293 0.960 . S
H296 C293 0.961 . S
O297 Co272 1.967 . S
O297 C305 1.258 . S
O298 Co273 1.941 . S
O298 C305 1.266 . S
H299 C301 0.959 . S
H300 C301 0.961 . S
C301 C291 1.510 . S
C301 H299 0.959 . S
C301 H300 0.961 . S
C301 H302 0.960 . S
H302 C301 0.960 . S
H303 N283 0.862 . S
O304 Co272 1.920 . S
O304 C277 1.289 . S
C305 O297 1.258 . S
C305 O298 1.266 . S
Co306 O309 1.970 . S
Co306 N323 1.989 . S
Co306 O331 1.967 . S
Co306 O338 1.920 . S
Co307 O310 1.966 . S
Co307 N316 2.022 . S
Co307 N324 1.993 . S
Co307 O332 1.941 . S
C308 O309 1.258 . S
C308 O310 1.263 . S
O309 Co306 1.970 . S
O309 C308 1.258 . S
O310 Co307 1.966 . S
O310 C308 1.263 . S
C311 O312 1.235 . S
C311 O338 1.289 . S
O312 C311 1.235 . S
C313 C315 1.400 . S
C313 N316 1.351 . S
C313 C318 1.501 . S
C314 C315 1.387 . S
C314 N317 1.341 . S
C315 C313 1.400 . S
C315 C314 1.387 . S
N316 Co307 2.022 . S
N316 C313 1.351 . S
N316 N317 1.365 . S
N317 C314 1.341 . S
N317 N316 1.365 . S
N317 H337 0.862 . S
C318 C313 1.501 . S
C318 H319 0.961 . S
C318 H320 0.961 . S
C318 H321 0.960 . S
H319 C318 0.961 . S
H320 C318 0.961 . S
H321 C318 0.960 . S
C322 N323 1.342 . S
C322 C326 1.401 . S
C322 C327 1.499 . S
N323 Co306 1.989 . S
N323 C322 1.342 . S
N323 N324 1.388 . S
N324 Co307 1.993 . S
N324 N323 1.388 . S
N324 C325 1.346 . S
C325 N324 1.346 . S
C325 C326 1.396 . S
C325 C335 1.510 . S
C326 C322 1.401 . S
C326 C325 1.396 . S
C327 C322 1.499 . S
C327 H328 0.959 . S
C327 H329 0.960 . S
C327 H330 0.961 . S
H328 C327 0.959 . S
H329 C327 0.960 . S
H330 C327 0.961 . S
O331 Co306 1.967 . S
O331 C339 1.258 . S
O332 Co307 1.941 . S
O332 C339 1.266 . S
H333 C335 0.959 . S
H334 C335 0.961 . S
C335 C325 1.510 . S
C335 H333 0.959 . S
C335 H334 0.961 . S
C335 H336 0.960 . S
H336 C335 0.960 . S
H337 N317 0.862 . S
O338 Co306 1.920 . S
O338 C311 1.289 . S
C339 O331 1.258 . S
C339 O332 1.266 . S
Co340 O343 1.970 . S
Co340 N357 1.989 . S
Co340 O365 1.967 . S
Co340 O372 1.920 . S
Co341 O344 1.966 . S
Co341 N350 2.022 . S
Co341 N358 1.993 . S
Co341 O366 1.941 . S
C342 O343 1.258 . S
C342 O344 1.263 . S
O343 Co340 1.970 . S
O343 C342 1.258 . S
O344 Co341 1.966 . S
O344 C342 1.263 . S
C345 O346 1.235 . S
C345 O372 1.289 . S
O346 C345 1.235 . S
C347 C349 1.400 . S
C347 N350 1.351 . S
C347 C352 1.501 . S
C348 C349 1.387 . S
C348 N351 1.341 . S
C349 C347 1.400 . S
C349 C348 1.387 . S
N350 Co341 2.022 . S
N350 C347 1.351 . S
N350 N351 1.365 . S
N351 C348 1.341 . S
N351 N350 1.365 . S
N351 H371 0.862 . S
C352 C347 1.501 . S
C352 H353 0.961 . S
C352 H354 0.961 . S
C352 H355 0.960 . S
H353 C352 0.961 . S
H354 C352 0.961 . S
H355 C352 0.960 . S
C356 N357 1.342 . S
C356 C360 1.401 . S
C356 C361 1.499 . S
N357 Co340 1.989 . S
N357 C356 1.342 . S
N357 N358 1.388 . S
N358 Co341 1.993 . S
N358 N357 1.388 . S
N358 C359 1.346 . S
C359 N358 1.346 . S
C359 C360 1.396 . S
C359 C369 1.510 . S
C360 C356 1.401 . S
C360 C359 1.396 . S
C361 C356 1.499 . S
C361 H362 0.959 . S
C361 H363 0.960 . S
C361 H364 0.961 . S
H362 C361 0.959 . S
H363 C361 0.960 . S
H364 C361 0.961 . S
O365 Co340 1.967 . S
O365 C373 1.258 . S
O366 Co341 1.941 . S
O366 C373 1.266 . S
H367 C369 0.959 . S
H368 C369 0.961 . S
C369 C359 1.510 . S
C369 H367 0.959 . S
C369 H368 0.961 . S
C369 H370 0.960 . S
H370 C369 0.960 . S
H371 N351 0.862 . S
O372 Co340 1.920 . S
O372 C345 1.289 . S
C373 O365 1.258 . S
C373 O366 1.266 . S
Co374 O377 1.970 . S
Co374 N391 1.989 . S
Co374 O399 1.967 . S
Co374 O406 1.920 . S
Co375 O378 1.966 . S
Co375 N384 2.022 . S
Co375 N392 1.993 . S
Co375 O400 1.941 . S
C376 O377 1.258 . S
C376 O378 1.263 . S
O377 Co374 1.970 . S
O377 C376 1.258 . S
O378 Co375 1.966 . S
O378 C376 1.263 . S
C379 O380 1.235 . S
C379 O406 1.289 . S
O380 C379 1.235 . S
C381 C383 1.400 . S
C381 N384 1.351 . S
C381 C386 1.501 . S
C382 C383 1.387 . S
C382 N385 1.341 . S
C383 C381 1.400 . S
C383 C382 1.387 . S
N384 Co375 2.022 . S
N384 C381 1.351 . S
N384 N385 1.365 . S
N385 C382 1.341 . S
N385 N384 1.365 . S
N385 H405 0.862 . S
C386 C381 1.501 . S
C386 H387 0.961 . S
C386 H388 0.961 . S
C386 H389 0.960 . S
H387 C386 0.961 . S
H388 C386 0.961 . S
H389 C386 0.960 . S
C390 N391 1.342 . S
C390 C394 1.401 . S
C390 C395 1.499 . S
N391 Co374 1.989 . S
N391 C390 1.342 . S
N391 N392 1.388 . S
N392 Co375 1.993 . S
N392 N391 1.388 . S
N392 C393 1.346 . S
C393 N392 1.346 . S
C393 C394 1.396 . S
C393 C403 1.510 . S
C394 C390 1.401 . S
C394 C393 1.396 . S
C395 C390 1.499 . S
C395 H396 0.959 . S
C395 H397 0.960 . S
C395 H398 0.961 . S
H396 C395 0.959 . S
H397 C395 0.960 . S
H398 C395 0.961 . S
O399 Co374 1.967 . S
O399 C407 1.258 . S
O400 Co375 1.941 . S
O400 C407 1.266 . S
H401 C403 0.959 . S
H402 C403 0.961 . S
C403 C393 1.510 . S
C403 H401 0.959 . S
C403 H402 0.961 . S
C403 H404 0.960 . S
H404 C403 0.960 . S
H405 N385 0.862 . S
O406 Co374 1.920 . S
O406 C379 1.289 . S
C407 O399 1.258 . S
C407 O400 1.266 . S
Co408 O411 1.970 . S
Co408 N425 1.989 . S
Co408 O433 1.967 . S
Co408 O440 1.920 . S
Co409 O412 1.966 . S
Co409 N418 2.022 . S
Co409 N426 1.993 . S
Co409 O434 1.941 . S
C410 O411 1.258 . S
C410 O412 1.263 . S
O411 Co408 1.970 . S
O411 C410 1.258 . S
O412 Co409 1.966 . S
O412 C410 1.263 . S
C413 O414 1.239 . S
C413 O440 1.289 . S
O414 C413 1.239 . S
C415 C417 1.400 . S
C415 N418 1.351 . S
C415 C420 1.501 . S
C416 C417 1.387 . S
C416 N419 1.341 . S
C417 C415 1.400 . S
C417 C416 1.387 . S
N418 Co409 2.022 . S
N418 C415 1.351 . S
N418 N419 1.365 . S
N419 C416 1.341 . S
N419 N418 1.365 . S
N419 H439 0.862 . S
C420 C415 1.501 . S
C420 H421 0.961 . S
C420 H422 0.961 . S
C420 H423 0.960 . S
H421 C420 0.961 . S
H422 C420 0.961 . S
H423 C420 0.960 . S
C424 N425 1.342 . S
C424 C428 1.401 . S
C424 C429 1.499 . S
N425 Co408 1.989 . S
N425 C424 1.342 . S
N425 N426 1.388 . S
N426 Co409 1.993 . S
N426 N425 1.388 . S
N426 C427 1.346 . S
C427 N426 1.346 . S
C427 C428 1.396 . S
C427 C437 1.510 . S
C428 C424 1.401 . S
C428 C427 1.396 . S
C429 C424 1.499 . S
C429 H430 0.959 . S
C429 H431 0.960 . S
C429 H432 0.961 . S
H430 C429 0.959 . S
H431 C429 0.960 . S
H432 C429 0.961 . S
O433 Co408 1.967 . S
O433 C441 1.258 . S
O434 Co409 1.941 . S
O434 C441 1.266 . S
H435 C437 0.959 . S
H436 C437 0.961 . S
C437 C427 1.510 . S
C437 H435 0.959 . S
C437 H436 0.961 . S
C437 H438 0.960 . S
H438 C437 0.960 . S
H439 N419 0.862 . S
O440 Co408 1.920 . S
O440 C413 1.289 . S
C441 O433 1.258 . S
C441 O434 1.266 . S
Co442 O445 1.970 . S
Co442 N459 1.989 . S
Co442 O467 1.967 . S
Co442 O474 1.920 . S
Co443 O446 1.966 . S
Co443 N452 2.022 . S
Co443 N460 1.993 . S
Co443 O468 1.941 . S
C444 O445 1.258 . S
C444 O446 1.263 . S
O445 Co442 1.970 . S
O445 C444 1.258 . S
O446 Co443 1.966 . S
O446 C444 1.263 . S
C447 O448 1.239 . S
C447 O474 1.289 . S
O448 C447 1.239 . S
C449 C451 1.400 . S
C449 N452 1.351 . S
C449 C454 1.501 . S
C450 C451 1.387 . S
C450 N453 1.341 . S
C451 C449 1.400 . S
C451 C450 1.387 . S
N452 Co443 2.022 . S
N452 C449 1.351 . S
N452 N453 1.365 . S
N453 C450 1.341 . S
N453 N452 1.365 . S
N453 H473 0.862 . S
C454 C449 1.501 . S
C454 H455 0.961 . S
C454 H456 0.961 . S
C454 H457 0.960 . S
H455 C454 0.961 . S
H456 C454 0.961 . S
H457 C454 0.960 . S
C458 N459 1.342 . S
C458 C462 1.401 . S
C458 C463 1.499 . S
N459 Co442 1.989 . S
N459 C458 1.342 . S
N459 N460 1.388 . S
N460 Co443 1.993 . S
N460 N459 1.388 . S
N460 C461 1.346 . S
C461 N460 1.346 . S
C461 C462 1.396 . S
C461 C471 1.510 . S
C462 C458 1.401 . S
C462 C461 1.396 . S
C463 C458 1.499 . S
C463 H464 0.959 . S
C463 H465 0.960 . S
C463 H466 0.961 . S
H464 C463 0.959 . S
H465 C463 0.960 . S
H466 C463 0.961 . S
O467 Co442 1.967 . S
O467 C475 1.258 . S
O468 Co443 1.941 . S
O468 C475 1.266 . S
H469 C471 0.959 . S
H470 C471 0.961 . S
C471 C461 1.510 . S
C471 H469 0.959 . S
C471 H470 0.961 . S
C471 H472 0.960 . S
H472 C471 0.960 . S
H473 N453 0.862 . S
O474 Co442 1.920 . S
O474 C447 1.289 . S
C475 O467 1.258 . S
C475 O468 1.266 . S
Co476 O479 1.970 . S
Co476 N493 1.989 . S
Co476 O501 1.967 . S
Co476 O508 1.920 . S
Co477 O480 1.966 . S
Co477 N486 2.022 . S
Co477 N494 1.993 . S
Co477 O502 1.941 . S
C478 O479 1.258 . S
C478 O480 1.263 . S
O479 Co476 1.970 . S
O479 C478 1.258 . S
O480 Co477 1.966 . S
O480 C478 1.263 . S
C481 O482 1.239 . S
C481 O508 1.289 . S
O482 C481 1.239 . S
C483 C485 1.400 . S
C483 N486 1.351 . S
C483 C488 1.501 . S
C484 C485 1.387 . S
C484 N487 1.341 . S
C485 C483 1.400 . S
C485 C484 1.387 . S
N486 Co477 2.022 . S
N486 C483 1.351 . S
N486 N487 1.365 . S
N487 C484 1.341 . S
N487 N486 1.365 . S
N487 H507 0.862 . S
C488 C483 1.501 . S
C488 H489 0.961 . S
C488 H490 0.961 . S
C488 H491 0.960 . S
H489 C488 0.961 . S
H490 C488 0.961 . S
H491 C488 0.960 . S
C492 N493 1.342 . S
C492 C496 1.401 . S
C492 C497 1.499 . S
N493 Co476 1.989 . S
N493 C492 1.342 . S
N493 N494 1.388 . S
N494 Co477 1.993 . S
N494 N493 1.388 . S
N494 C495 1.346 . S
C495 N494 1.346 . S
C495 C496 1.396 . S
C495 C505 1.510 . S
C496 C492 1.401 . S
C496 C495 1.396 . S
C497 C492 1.499 . S
C497 H498 0.959 . S
C497 H499 0.960 . S
C497 H500 0.961 . S
H498 C497 0.959 . S
H499 C497 0.960 . S
H500 C497 0.961 . S
O501 Co476 1.967 . S
O501 C509 1.258 . S
O502 Co477 1.941 . S
O502 C509 1.266 . S
H503 C505 0.959 . S
H504 C505 0.961 . S
C505 C495 1.510 . S
C505 H503 0.959 . S
C505 H504 0.961 . S
C505 H506 0.960 . S
H506 C505 0.960 . S
H507 N487 0.862 . S
O508 Co476 1.920 . S
O508 C481 1.289 . S
C509 O501 1.258 . S
C509 O502 1.266 . S
Co510 O513 1.970 . S
Co510 N527 1.989 . S
Co510 O535 1.967 . S
Co510 O542 1.920 . S
Co511 O514 1.966 . S
Co511 N520 2.022 . S
Co511 N528 1.993 . S
Co511 O536 1.941 . S
C512 O513 1.258 . S
C512 O514 1.263 . S
O513 Co510 1.970 . S
O513 C512 1.258 . S
O514 Co511 1.966 . S
O514 C512 1.263 . S
C515 O516 1.239 . S
C515 O542 1.289 . S
O516 C515 1.239 . S
C517 C519 1.400 . S
C517 N520 1.351 . S
C517 C522 1.501 . S
C518 C519 1.387 . S
C518 N521 1.341 . S
C519 C517 1.400 . S
C519 C518 1.387 . S
N520 Co511 2.022 . S
N520 C517 1.351 . S
N520 N521 1.365 . S
N521 C518 1.341 . S
N521 N520 1.365 . S
N521 H541 0.862 . S
C522 C517 1.501 . S
C522 H523 0.961 . S
C522 H524 0.961 . S
C522 H525 0.960 . S
H523 C522 0.961 . S
H524 C522 0.961 . S
H525 C522 0.960 . S
C526 N527 1.342 . S
C526 C530 1.401 . S
C526 C531 1.499 . S
N527 Co510 1.989 . S
N527 C526 1.342 . S
N527 N528 1.388 . S
N528 Co511 1.993 . S
N528 N527 1.388 . S
N528 C529 1.346 . S
C529 N528 1.346 . S
C529 C530 1.396 . S
C529 C539 1.510 . S
C530 C526 1.401 . S
C530 C529 1.396 . S
C531 C526 1.499 . S
C531 H532 0.959 . S
C531 H533 0.960 . S
C531 H534 0.961 . S
H532 C531 0.959 . S
H533 C531 0.960 . S
H534 C531 0.961 . S
O535 Co510 1.967 . S
O535 C543 1.258 . S
O536 Co511 1.941 . S
O536 C543 1.266 . S
H537 C539 0.959 . S
H538 C539 0.961 . S
C539 C529 1.510 . S
C539 H537 0.959 . S
C539 H538 0.961 . S
C539 H540 0.960 . S
H540 C539 0.960 . S
H541 N521 0.862 . S
O542 Co510 1.920 . S
O542 C515 1.289 . S
C543 O535 1.258 . S
C543 O536 1.266 . S
H544 C552 0.950 . S
H545 C557 0.950 . S
H546 C554 0.950 . S
H547 C556 0.950 . S
H548 C558 0.950 . S
H549 C560 0.950 . S
H550 C562 0.950 . S
H551 C563 0.950 . S
C552 H544 0.950 . S
C552 C553 1.386 . S
C552 C554 1.391 . S
C553 C552 1.386 . S
C553 C557 1.393 . S
C554 H546 0.950 . S
C554 C552 1.391 . S
C554 C555 1.400 . S
C555 C554 1.400 . S
C555 C556 1.398 . S
C555 C561 1.491 . S
C556 H547 0.950 . S
C556 C555 1.398 . S
C556 C557 1.391 . S
C557 H545 0.950 . S
C557 C553 1.393 . S
C557 C556 1.391 . S
C558 H548 0.950 . S
C558 C559 1.386 . S
C558 C560 1.391 . S
C559 C558 1.386 . S
C559 C563 1.393 . S
C560 H549 0.950 . S
C560 C558 1.391 . S
C560 C561 1.400 . S
C561 C555 1.491 . S
C561 C560 1.400 . S
C561 C562 1.398 . S
C562 H550 0.950 . S
C562 C561 1.398 . S
C562 C563 1.391 . S
C563 H551 0.950 . S
C563 C559 1.393 . S
C563 C562 1.391 . S
H564 C572 0.950 . S
H565 C577 0.950 . S
H566 C574 0.950 . S
H567 C576 0.950 . S
H568 C578 0.950 . S
H569 C580 0.950 . S
H570 C582 0.950 . S
H571 C583 0.950 . S
C572 H564 0.950 . S
C572 C573 1.386 . S
C572 C574 1.391 . S
C573 C572 1.386 . S
C573 C577 1.393 . S
C574 H566 0.950 . S
C574 C572 1.391 . S
C574 C575 1.400 . S
C575 C574 1.400 . S
C575 C576 1.398 . S
C575 C581 1.491 . S
C576 H567 0.950 . S
C576 C575 1.398 . S
C576 C577 1.391 . S
C577 H565 0.950 . S
C577 C573 1.393 . S
C577 C576 1.391 . S
C578 H568 0.950 . S
C578 C579 1.386 . S
C578 C580 1.391 . S
C579 C578 1.386 . S
C579 C583 1.393 . S
C580 H569 0.950 . S
C580 C578 1.391 . S
C580 C581 1.400 . S
C581 C575 1.491 . S
C581 C580 1.400 . S
C581 C582 1.398 . S
C582 H570 0.950 . S
C582 C581 1.398 . S
C582 C583 1.391 . S
C583 H571 0.950 . S
C583 C579 1.393 . S
C583 C582 1.391 . S
H584 C592 0.950 . S
H585 C597 0.950 . S
H586 C594 0.950 . S
H587 C596 0.950 . S
H588 C598 0.950 . S
H589 C600 0.950 . S
H590 C602 0.950 . S
H591 C603 0.950 . S
C592 H584 0.950 . S
C592 C593 1.386 . S
C592 C594 1.391 . S
C593 C592 1.386 . S
C593 C597 1.393 . S
C594 H586 0.950 . S
C594 C592 1.391 . S
C594 C595 1.400 . S
C595 C594 1.400 . S
C595 C596 1.398 . S
C595 C601 1.491 . S
C596 H587 0.950 . S
C596 C595 1.398 . S
C596 C597 1.391 . S
C597 H585 0.950 . S
C597 C593 1.393 . S
C597 C596 1.391 . S
C598 H588 0.950 . S
C598 C599 1.386 . S
C598 C600 1.391 . S
C599 C598 1.386 . S
C599 C603 1.393 . S
C600 H589 0.950 . S
C600 C598 1.391 . S
C600 C601 1.400 . S
C601 C595 1.491 . S
C601 C600 1.400 . S
C601 C602 1.398 . S
C602 H590 0.950 . S
C602 C601 1.398 . S
C602 C603 1.391 . S
C603 H591 0.950 . S
C603 C599 1.393 . S
C603 C602 1.391 . S
H604 C612 0.950 . S
H605 C617 0.950 . S
H606 C614 0.950 . S
H607 C616 0.950 . S
H608 C618 0.950 . S
H609 C620 0.950 . S
H610 C622 0.950 . S
H611 C623 0.950 . S
C612 H604 0.950 . S
C612 C613 1.386 . S
C612 C614 1.391 . S
C613 C612 1.386 . S
C613 C617 1.393 . S
C614 H606 0.950 . S
C614 C612 1.391 . S
C614 C615 1.400 . S
C615 C614 1.400 . S
C615 C616 1.398 . S
C615 C621 1.491 . S
C616 H607 0.950 . S
C616 C615 1.398 . S
C616 C617 1.391 . S
C617 H605 0.950 . S
C617 C613 1.393 . S
C617 C616 1.391 . S
C618 H608 0.950 . S
C618 C619 1.386 . S
C618 C620 1.391 . S
C619 C618 1.386 . S
C619 C623 1.393 . S
C620 H609 0.950 . S
C620 C618 1.391 . S
C620 C621 1.400 . S
C621 C615 1.491 . S
C621 C620 1.400 . S
C621 C622 1.398 . S
C622 H610 0.950 . S
C622 C621 1.398 . S
C622 C623 1.391 . S
C623 H611 0.950 . S
C623 C619 1.393 . S
C623 C622 1.391 . S
H624 C632 0.950 . S
H625 C637 0.950 . S
H626 C634 0.950 . S
H627 C636 0.950 . S
H628 C638 0.950 . S
H629 C640 0.950 . S
H630 C642 0.950 . S
H631 C643 0.950 . S
C632 H624 0.950 . S
C632 C633 1.386 . S
C632 C634 1.391 . S
C633 C632 1.386 . S
C633 C637 1.393 . S
C634 H626 0.950 . S
C634 C632 1.391 . S
C634 C635 1.400 . S
C635 C634 1.400 . S
C635 C636 1.398 . S
C635 C641 1.491 . S
C636 H627 0.950 . S
C636 C635 1.398 . S
C636 C637 1.391 . S
C637 H625 0.950 . S
C637 C633 1.393 . S
C637 C636 1.391 . S
C638 H628 0.950 . S
C638 C639 1.386 . S
C638 C640 1.391 . S
C639 C638 1.386 . S
C639 C643 1.393 . S
C640 H629 0.950 . S
C640 C638 1.391 . S
C640 C641 1.400 . S
C641 C635 1.491 . S
C641 C640 1.400 . S
C641 C642 1.398 . S
C642 H630 0.950 . S
C642 C641 1.398 . S
C642 C643 1.391 . S
C643 H631 0.950 . S
C643 C639 1.393 . S
C643 C642 1.391 . S
H644 C652 0.950 . S
H645 C657 0.950 . S
H646 C654 0.950 . S
H647 C656 0.950 . S
H648 C658 0.950 . S
H649 C660 0.950 . S
H650 C662 0.950 . S
H651 C663 0.950 . S
C652 H644 0.950 . S
C652 C653 1.386 . S
C652 C654 1.391 . S
C653 C652 1.386 . S
C653 C657 1.393 . S
C654 H646 0.950 . S
C654 C652 1.391 . S
C654 C655 1.400 . S
C655 C654 1.400 . S
C655 C656 1.398 . S
C655 C661 1.491 . S
C656 H647 0.950 . S
C656 C655 1.398 . S
C656 C657 1.391 . S
C657 H645 0.950 . S
C657 C653 1.393 . S
C657 C656 1.391 . S
C658 H648 0.950 . S
C658 C659 1.386 . S
C658 C660 1.391 . S
C659 C658 1.386 . S
C659 C663 1.393 . S
C660 H649 0.950 . S
C660 C658 1.391 . S
C660 C661 1.400 . S
C661 C655 1.491 . S
C661 C660 1.400 . S
C661 C662 1.398 . S
C662 H650 0.950 . S
C662 C661 1.398 . S
C662 C663 1.391 . S
C663 H651 0.950 . S
C663 C659 1.393 . S
C663 C662 1.391 . S
H664 C672 0.950 . S
H665 C677 0.950 . S
H666 C674 0.950 . S
H667 C676 0.950 . S
H668 C678 0.950 . S
H669 C680 0.950 . S
H670 C682 0.950 . S
H671 C683 0.950 . S
C672 H664 0.950 . S
C672 C673 1.386 . S
C672 C674 1.391 . S
C673 C672 1.386 . S
C673 C677 1.393 . S
C674 H666 0.950 . S
C674 C672 1.391 . S
C674 C675 1.400 . S
C675 C674 1.400 . S
C675 C676 1.398 . S
C675 C681 1.491 . S
C676 H667 0.950 . S
C676 C675 1.398 . S
C676 C677 1.391 . S
C677 H665 0.950 . S
C677 C673 1.393 . S
C677 C676 1.391 . S
C678 H668 0.950 . S
C678 C679 1.386 . S
C678 C680 1.391 . S
C679 C678 1.386 . S
C679 C683 1.393 . S
C680 H669 0.950 . S
C680 C678 1.391 . S
C680 C681 1.400 . S
C681 C675 1.491 . S
C681 C680 1.400 . S
C681 C682 1.398 . S
C682 H670 0.950 . S
C682 C681 1.398 . S
C682 C683 1.391 . S
C683 H671 0.950 . S
C683 C679 1.393 . S
C683 C682 1.391 . S
H684 C692 0.950 . S
H685 C697 0.950 . S
H686 C694 0.950 . S
H687 C696 0.950 . S
H688 C698 0.950 . S
H689 C700 0.950 . S
H690 C702 0.950 . S
H691 C703 0.950 . S
C692 H684 0.950 . S
C692 C693 1.386 . S
C692 C694 1.391 . S
C693 C692 1.386 . S
C693 C697 1.393 . S
C694 H686 0.950 . S
C694 C692 1.391 . S
C694 C695 1.400 . S
C695 C694 1.400 . S
C695 C696 1.398 . S
C695 C701 1.491 . S
C696 H687 0.950 . S
C696 C695 1.398 . S
C696 C697 1.391 . S
C697 H685 0.950 . S
C697 C693 1.393 . S
C697 C696 1.391 . S
C698 H688 0.950 . S
C698 C699 1.386 . S
C698 C700 1.391 . S
C699 C698 1.386 . S
C699 C703 1.393 . S
C700 H689 0.950 . S
C700 C698 1.391 . S
C700 C701 1.400 . S
C701 C695 1.491 . S
C701 C700 1.400 . S
C701 C702 1.398 . S
C702 H690 0.950 . S
C702 C701 1.398 . S
C702 C703 1.391 . S
C703 H691 0.950 . S
C703 C699 1.393 . S
C703 C702 1.391 . S
H704 C712 0.950 . S
H705 C717 0.950 . S
H706 C714 0.950 . S
H707 C716 0.950 . S
H708 C718 0.950 . S
H709 C720 0.950 . S
H710 C722 0.950 . S
H711 C723 0.950 . S
C712 H704 0.950 . S
C712 C713 1.386 . S
C712 C714 1.391 . S
C713 C712 1.386 . S
C713 C717 1.393 . S
C714 H706 0.950 . S
C714 C712 1.391 . S
C714 C715 1.400 . S
C715 C714 1.400 . S
C715 C716 1.398 . S
C715 C721 1.491 . S
C716 H707 0.950 . S
C716 C715 1.398 . S
C716 C717 1.391 . S
C717 H705 0.950 . S
C717 C713 1.393 . S
C717 C716 1.391 . S
C718 H708 0.950 . S
C718 C719 1.386 . S
C718 C720 1.391 . S
C719 C718 1.386 . S
C719 C723 1.393 . S
C720 H709 0.950 . S
C720 C718 1.391 . S
C720 C721 1.400 . S
C721 C715 1.491 . S
C721 C720 1.400 . S
C721 C722 1.398 . S
C722 H710 0.950 . S
C722 C721 1.398 . S
C722 C723 1.391 . S
C723 H711 0.950 . S
C723 C719 1.393 . S
C723 C722 1.391 . S
H724 C732 0.950 . S
H725 C737 0.950 . S
H726 C734 0.950 . S
H727 C736 0.950 . S
H728 C738 0.950 . S
H729 C740 0.950 . S
H730 C742 0.950 . S
H731 C743 0.950 . S
C732 H724 0.950 . S
C732 C733 1.386 . S
C732 C734 1.391 . S
C733 C732 1.386 . S
C733 C737 1.393 . S
C734 H726 0.950 . S
C734 C732 1.391 . S
C734 C735 1.400 . S
C735 C734 1.400 . S
C735 C736 1.398 . S
C735 C741 1.491 . S
C736 H727 0.950 . S
C736 C735 1.398 . S
C736 C737 1.391 . S
C737 H725 0.950 . S
C737 C733 1.393 . S
C737 C736 1.391 . S
C738 H728 0.950 . S
C738 C739 1.386 . S
C738 C740 1.391 . S
C739 C738 1.386 . S
C739 C743 1.393 . S
C740 H729 0.950 . S
C740 C738 1.391 . S
C740 C741 1.400 . S
C741 C735 1.491 . S
C741 C740 1.400 . S
C741 C742 1.398 . S
C742 H730 0.950 . S
C742 C741 1.398 . S
C742 C743 1.391 . S
C743 H731 0.950 . S
C743 C739 1.393 . S
C743 C742 1.391 . S
H744 C752 0.950 . S
H745 C757 0.950 . S
H746 C754 0.950 . S
H747 C756 0.950 . S
H748 C758 0.950 . S
H749 C760 0.950 . S
H750 C762 0.950 . S
H751 C763 0.950 . S
C752 H744 0.950 . S
C752 C753 1.386 . S
C752 C754 1.391 . S
C753 C752 1.386 . S
C753 C757 1.393 . S
C754 H746 0.950 . S
C754 C752 1.391 . S
C754 C755 1.400 . S
C755 C754 1.400 . S
C755 C756 1.398 . S
C755 C761 1.491 . S
C756 H747 0.950 . S
C756 C755 1.398 . S
C756 C757 1.391 . S
C757 H745 0.950 . S
C757 C753 1.393 . S
C757 C756 1.391 . S
C758 H748 0.950 . S
C758 C759 1.386 . S
C758 C760 1.391 . S
C759 C758 1.386 . S
C759 C763 1.393 . S
C760 H749 0.950 . S
C760 C758 1.391 . S
C760 C761 1.400 . S
C761 C755 1.491 . S
C761 C760 1.400 . S
C761 C762 1.398 . S
C762 H750 0.950 . S
C762 C761 1.398 . S
C762 C763 1.391 . S
C763 H751 0.950 . S
C763 C759 1.393 . S
C763 C762 1.391 . S
H764 C772 0.950 . S
H765 C777 0.950 . S
H766 C774 0.950 . S
H767 C776 0.950 . S
H768 C778 0.950 . S
H769 C780 0.950 . S
H770 C782 0.950 . S
H771 C783 0.950 . S
C772 H764 0.950 . S
C772 C773 1.386 . S
C772 C774 1.391 . S
C773 C772 1.386 . S
C773 C777 1.393 . S
C774 H766 0.950 . S
C774 C772 1.391 . S
C774 C775 1.400 . S
C775 C774 1.400 . S
C775 C776 1.398 . S
C775 C781 1.491 . S
C776 H767 0.950 . S
C776 C775 1.398 . S
C776 C777 1.391 . S
C777 H765 0.950 . S
C777 C773 1.393 . S
C777 C776 1.391 . S
C778 H768 0.950 . S
C778 C779 1.386 . S
C778 C780 1.391 . S
C779 C778 1.386 . S
C779 C783 1.393 . S
C780 H769 0.950 . S
C780 C778 1.391 . S
C780 C781 1.400 . S
C781 C775 1.491 . S
C781 C780 1.400 . S
C781 C782 1.398 . S
C782 H770 0.950 . S
C782 C781 1.398 . S
C782 C783 1.391 . S
C783 H771 0.950 . S
C783 C779 1.393 . S
C783 C782 1.391 . S
H784 C792 0.950 . S
H785 C797 0.950 . S
H786 C794 0.950 . S
H787 C796 0.950 . S
H788 C798 0.950 . S
H789 C800 0.950 . S
H790 C802 0.950 . S
H791 C803 0.950 . S
C792 H784 0.950 . S
C792 C793 1.386 . S
C792 C794 1.391 . S
C793 C792 1.386 . S
C793 C797 1.393 . S
C794 H786 0.950 . S
C794 C792 1.391 . S
C794 C795 1.400 . S
C795 C794 1.400 . S
C795 C796 1.398 . S
C795 C801 1.491 . S
C796 H787 0.950 . S
C796 C795 1.398 . S
C796 C797 1.391 . S
C797 H785 0.950 . S
C797 C793 1.393 . S
C797 C796 1.391 . S
C798 H788 0.950 . S
C798 C799 1.386 . S
C798 C800 1.391 . S
C799 C798 1.386 . S
C799 C803 1.393 . S
C800 H789 0.950 . S
C800 C798 1.391 . S
C800 C801 1.400 . S
C801 C795 1.491 . S
C801 C800 1.400 . S
C801 C802 1.398 . S
C802 H790 0.950 . S
C802 C801 1.398 . S
C802 C803 1.391 . S
C803 H791 0.950 . S
C803 C799 1.393 . S
C803 C802 1.391 . S
H804 C812 0.950 . S
H805 C817 0.950 . S
H806 C814 0.950 . S
H807 C816 0.950 . S
H808 C818 0.950 . S
H809 C820 0.950 . S
H810 C822 0.950 . S
H811 C823 0.950 . S
C812 H804 0.950 . S
C812 C813 1.386 . S
C812 C814 1.391 . S
C813 C812 1.386 . S
C813 C817 1.393 . S
C814 H806 0.950 . S
C814 C812 1.391 . S
C814 C815 1.400 . S
C815 C814 1.400 . S
C815 C816 1.398 . S
C815 C821 1.491 . S
C816 H807 0.950 . S
C816 C815 1.398 . S
C816 C817 1.391 . S
C817 H805 0.950 . S
C817 C813 1.393 . S
C817 C816 1.391 . S
C818 H808 0.950 . S
C818 C819 1.386 . S
C818 C820 1.391 . S
C819 C818 1.386 . S
C819 C823 1.393 . S
C820 H809 0.950 . S
C820 C818 1.391 . S
C820 C821 1.400 . S
C821 C815 1.491 . S
C821 C820 1.400 . S
C821 C822 1.398 . S
C822 H810 0.950 . S
C822 C821 1.398 . S
C822 C823 1.391 . S
C823 H811 0.950 . S
C823 C819 1.393 . S
C823 C822 1.391 . S
H824 C832 0.950 . S
H825 C837 0.950 . S
H826 C834 0.950 . S
H827 C836 0.950 . S
H828 C838 0.950 . S
H829 C840 0.950 . S
H830 C842 0.950 . S
H831 C843 0.950 . S
C832 H824 0.950 . S
C832 C833 1.386 . S
C832 C834 1.391 . S
C833 C832 1.386 . S
C833 C837 1.393 . S
C834 H826 0.950 . S
C834 C832 1.391 . S
C834 C835 1.400 . S
C835 C834 1.400 . S
C835 C836 1.398 . S
C835 C841 1.491 . S
C836 H827 0.950 . S
C836 C835 1.398 . S
C836 C837 1.391 . S
C837 H825 0.950 . S
C837 C833 1.393 . S
C837 C836 1.391 . S
C838 H828 0.950 . S
C838 C839 1.386 . S
C838 C840 1.391 . S
C839 C838 1.386 . S
C839 C843 1.393 . S
C840 H829 0.950 . S
C840 C838 1.391 . S
C840 C841 1.400 . S
C841 C835 1.491 . S
C841 C840 1.400 . S
C841 C842 1.398 . S
C842 H830 0.950 . S
C842 C841 1.398 . S
C842 C843 1.391 . S
C843 H831 0.950 . S
C843 C839 1.393 . S
C843 C842 1.391 . S
H844 C852 0.950 . S
H845 C857 0.950 . S
H846 C854 0.950 . S
H847 C856 0.950 . S
H848 C858 0.950 . S
H849 C860 0.950 . S
H850 C862 0.950 . S
H851 C863 0.950 . S
C852 H844 0.950 . S
C852 C853 1.386 . S
C852 C854 1.391 . S
C853 C852 1.386 . S
C853 C857 1.393 . S
C854 H846 0.950 . S
C854 C852 1.391 . S
C854 C855 1.400 . S
C855 C854 1.400 . S
C855 C856 1.398 . S
C855 C861 1.491 . S
C856 H847 0.950 . S
C856 C855 1.398 . S
C856 C857 1.391 . S
C857 H845 0.950 . S
C857 C853 1.393 . S
C857 C856 1.391 . S
C858 H848 0.950 . S
C858 C859 1.386 . S
C858 C860 1.391 . S
C859 C858 1.386 . S
C859 C863 1.393 . S
C860 H849 0.950 . S
C860 C858 1.391 . S
C860 C861 1.400 . S
C861 C855 1.491 . S
C861 C860 1.400 . S
C861 C862 1.398 . S
C862 H850 0.950 . S
C862 C861 1.398 . S
C862 C863 1.391 . S
C863 H851 0.950 . S
C863 C859 1.393 . S
C863 C862 1.391 . S
H864 C872 0.950 . S
H865 C877 0.950 . S
H866 C874 0.950 1_655 S
H867 C876 0.955 . S
H868 C878 0.950 . S
H869 C880 0.950 1_455 S
H870 C882 0.955 . S
H871 C883 0.950 . S
C872 H864 0.950 . S
C872 C873 1.386 . S
C872 C874 1.391 . S
C873 C872 1.386 . S
C873 C877 1.393 . S
C874 H866 0.950 1_455 S
C874 C872 1.391 . S
C874 C875 1.400 . S
C875 C874 1.400 . S
C875 C876 1.397 1_545 S
C875 C881 1.491 1_445 S
C876 H867 0.955 . S
C876 C875 1.397 1_565 S
C876 C877 1.387 1_565 S
C877 H865 0.950 . S
C877 C873 1.393 . S
C877 C876 1.387 1_545 S
C878 H868 0.950 . S
C878 C879 1.386 . S
C878 C880 1.391 . S
C879 C878 1.386 . S
C879 C883 1.393 . S
C880 H869 0.950 1_655 S
C880 C878 1.391 . S
C880 C881 1.400 . S
C881 C875 1.491 1_665 S
C881 C880 1.400 . S
C881 C882 1.397 1_565 S
C882 H870 0.955 . S
C882 C881 1.397 1_545 S
C882 C883 1.387 1_545 S
C883 H871 0.950 . S
C883 C879 1.393 . S
C883 C882 1.387 1_565 S
H884 C892 0.950 . S
H885 C897 0.950 . S
H886 C894 0.950 1_545 S
H887 C896 0.942 1_655 S
H888 C898 0.950 . S
H889 C900 0.950 1_565 S
H890 C902 0.942 1_455 S
H891 C903 0.950 . S
C892 H884 0.950 . S
C892 C893 1.386 . S
C892 C894 1.391 . S
C893 C892 1.386 . S
C893 C897 1.393 . S
C894 H886 0.950 1_565 S
C894 C892 1.391 . S
C894 C895 1.400 . S
C895 C894 1.400 . S
C895 C896 1.401 . S
C895 C901 1.491 1_465 S
C896 H887 0.942 1_455 S
C896 C895 1.401 . S
C896 C897 1.396 . S
C897 H885 0.950 . S
C897 C893 1.393 . S
C897 C896 1.396 . S
C898 H888 0.950 . S
C898 C899 1.386 . S
C898 C900 1.391 . S
C899 C898 1.386 . S
C899 C903 1.393 . S
C900 H889 0.950 1_545 S
C900 C898 1.391 . S
C900 C901 1.400 . S
C901 C895 1.491 1_645 S
C901 C900 1.400 . S
C901 C902 1.401 . S
C902 H890 0.942 1_655 S
C902 C901 1.401 . S
C902 C903 1.396 . S
C903 H891 0.950 . S
C903 C899 1.393 . S
C903 C902 1.396 . S
H904 C912 0.950 . S
H905 C917 0.950 . S
H906 C914 0.950 . S
H907 C916 0.950 1_655 S
H908 C918 0.950 . S
H909 C920 0.950 . S
H910 C922 0.950 1_455 S
H911 C923 0.950 . S
C912 H904 0.950 . S
C912 C913 1.386 1_554 S
C912 C914 1.391 . S
C913 C912 1.386 1_556 S
C913 C917 1.393 . S
C914 H906 0.950 . S
C914 C912 1.391 . S
C914 C915 1.400 1_554 S
C915 C914 1.400 1_556 S
C915 C916 1.398 . S
C915 C921 1.491 1_455 S
C916 H907 0.950 1_455 S
C916 C915 1.398 . S
C916 C917 1.391 . S
C917 H905 0.950 . S
C917 C913 1.393 . S
C917 C916 1.391 . S
C918 H908 0.950 . S
C918 C919 1.391 . S
C918 C920 1.391 . S
C919 C918 1.391 . S
C919 C923 1.387 1_556 S
C920 H909 0.950 . S
C920 C918 1.391 . S
C920 C921 1.400 . S
C921 C915 1.491 1_655 S
C921 C920 1.400 . S
C921 C922 1.398 1_556 S
C922 H910 0.950 1_655 S
C922 C921 1.398 1_554 S
C922 C923 1.391 . S
C923 H911 0.950 . S
C923 C919 1.387 1_554 S
C923 C922 1.391 . S
H924 C932 0.950 . S
H925 C937 0.950 . S
H926 C934 0.950 1_545 S
H927 C936 0.950 . S
H928 C938 0.950 . S
H929 C940 0.950 1_565 S
H930 C942 0.950 . S
H931 C943 0.950 . S
C932 H924 0.950 . S
C932 C933 1.386 . S
C932 C934 1.391 . S
C933 C932 1.386 . S
C933 C937 1.393 1_554 S
C934 H926 0.950 1_565 S
C934 C932 1.391 . S
C934 C935 1.400 . S
C935 C934 1.400 . S
C935 C936 1.398 1_554 S
C935 C941 1.491 1_565 S
C936 H927 0.950 . S
C936 C935 1.398 1_556 S
C936 C937 1.391 . S
C937 H925 0.950 . S
C937 C933 1.393 1_556 S
C937 C936 1.391 . S
C938 H928 0.950 . S
C938 C939 1.378 1_556 S
C938 C940 1.391 . S
C939 C938 1.378 1_554 S
C939 C943 1.400 . S
C940 H929 0.950 1_545 S
C940 C938 1.391 . S
C940 C941 1.400 1_556 S
C941 C935 1.491 1_545 S
C941 C940 1.400 1_554 S
C941 C942 1.398 . S
C942 H930 0.950 . S
C942 C941 1.398 . S
C942 C943 1.391 . S
C943 H931 0.950 . S
C943 C939 1.400 . S
C943 C942 1.391 . S
H944 C952 0.950 . S
H945 C957 0.950 . S
H946 C954 0.950 . S
H947 C956 0.950 . S
H948 C958 0.950 . S
H949 C960 0.950 . S
H950 C962 0.950 . S
H951 C963 0.950 . S
C952 H944 0.950 . S
C952 C953 1.386 . S
C952 C954 1.391 . S
C953 C952 1.386 . S
C953 C957 1.393 . S
C954 H946 0.950 . S
C954 C952 1.391 . S
C954 C955 1.400 . S
C955 C954 1.400 . S
C955 C956 1.398 . S
C955 C961 1.491 . S
C956 H947 0.950 . S
C956 C955 1.398 . S
C956 C957 1.391 . S
C957 H945 0.950 . S
C957 C953 1.393 . S
C957 C956 1.391 . S
C958 H948 0.950 . S
C958 C959 1.386 . S
C958 C960 1.391 . S
C959 C958 1.386 . S
C959 C963 1.393 . S
C960 H949 0.950 . S
C960 C958 1.391 . S
C960 C961 1.400 . S
C961 C955 1.491 . S
C961 C960 1.400 . S
C961 C962 1.398 . S
C962 H950 0.950 . S
C962 C961 1.398 . S
C962 C963 1.391 . S
C963 H951 0.950 . S
C963 C959 1.393 . S
C963 C962 1.391 . S
H964 C972 0.950 . S
H965 C977 0.950 . S
H966 C974 0.950 . S
H967 C976 0.950 . S
H968 C978 0.950 . S
H969 C980 0.950 . S
H970 C982 0.950 . S
H971 C983 0.950 . S
C972 H964 0.950 . S
C972 C973 1.386 . S
C972 C974 1.391 . S
C973 C972 1.386 . S
C973 C977 1.393 . S
C974 H966 0.950 . S
C974 C972 1.391 . S
C974 C975 1.400 . S
C975 C974 1.400 . S
C975 C976 1.398 . S
C975 C981 1.491 . S
C976 H967 0.950 . S
C976 C975 1.398 . S
C976 C977 1.391 . S
C977 H965 0.950 . S
C977 C973 1.393 . S
C977 C976 1.391 . S
C978 H968 0.950 . S
C978 C979 1.386 . S
C978 C980 1.391 . S
C979 C978 1.386 . S
C979 C983 1.393 . S
C980 H969 0.950 . S
C980 C978 1.391 . S
C980 C981 1.400 . S
C981 C975 1.491 . S
C981 C980 1.400 . S
C981 C982 1.398 . S
C982 H970 0.950 . S
C982 C981 1.398 . S
C982 C983 1.391 . S
C983 H971 0.950 . S
C983 C979 1.393 . S
C983 C982 1.391 . S
H984 C992 0.950 . S
H985 C997 0.950 . S
H986 C994 0.950 1_545 S
H987 C996 0.950 . S
H988 C998 0.950 . S
H989 C1000 0.950 1_565 S
H990 C1002 0.950 . S
H991 C1003 0.950 . S
C992 H984 0.950 . S
C992 C993 1.386 . S
C992 C994 1.391 . S
C993 C992 1.386 . S
C993 C997 1.393 . S
C994 H986 0.950 1_565 S
C994 C992 1.391 . S
C994 C995 1.400 . S
C995 C994 1.400 . S
C995 C996 1.398 . S
C995 C1001 1.491 1_565 S
C996 H987 0.950 . S
C996 C995 1.398 . S
C996 C997 1.391 . S
C997 H985 0.950 . S
C997 C993 1.393 . S
C997 C996 1.391 . S
C998 H988 0.950 . S
C998 C999 1.386 . S
C998 C1000 1.391 . S
C999 C998 1.386 . S
C999 C1003 1.393 . S
C1000 H989 0.950 1_545 S
C1000 C998 1.391 . S
C1000 C1001 1.400 . S
C1001 C995 1.491 1_545 S
C1001 C1000 1.400 . S
C1001 C1002 1.398 . S
C1002 H990 0.950 . S
C1002 C1001 1.398 . S
C1002 C1003 1.391 . S
C1003 H991 0.950 . S
C1003 C999 1.393 . S
C1003 C1002 1.391 . S
H1004 C1012 0.950 . S
H1005 C1017 0.950 . S
H1006 C1014 0.950 . S
H1007 C1016 0.951 . S
H1008 C1018 0.950 . S
H1009 C1020 0.950 . S
H1010 C1022 0.951 . S
H1011 C1023 0.950 . S
C1012 H1004 0.950 . S
C1012 C1013 1.386 . S
C1012 C1014 1.391 . S
C1013 C1012 1.386 . S
C1013 C1017 1.393 . S
C1014 H1006 0.950 . S
C1014 C1012 1.391 . S
C1014 C1015 1.400 . S
C1015 C1014 1.400 . S
C1015 C1016 1.398 1_655 S
C1015 C1021 1.491 1_655 S
C1016 H1007 0.951 . S
C1016 C1015 1.398 1_455 S
C1016 C1017 1.390 1_455 S
C1017 H1005 0.950 . S
C1017 C1013 1.393 . S
C1017 C1016 1.390 1_655 S
C1018 H1008 0.950 . S
C1018 C1019 1.386 . S
C1018 C1020 1.391 . S
C1019 C1018 1.386 . S
C1019 C1023 1.393 . S
C1020 H1009 0.950 . S
C1020 C1018 1.391 . S
C1020 C1021 1.400 . S
C1021 C1015 1.491 1_455 S
C1021 C1020 1.400 . S
C1021 C1022 1.398 1_455 S
C1022 H1010 0.951 . S
C1022 C1021 1.398 1_655 S
C1022 C1023 1.390 1_655 S
C1023 H1011 0.950 . S
C1023 C1019 1.393 . S
C1023 C1022 1.390 1_455 S
H1024 C1032 0.950 . S
H1025 C1037 0.950 . S
H1026 C1034 0.950 . S
H1027 C1036 0.950 . S
H1028 C1038 0.944 1_545 S
H1029 C1040 0.950 . S
H1030 C1042 0.950 . S
H1031 C1043 0.950 . S
C1032 H1024 0.950 . S
C1032 C1033 1.386 . S
C1032 C1034 1.391 . S
C1033 C1032 1.386 . S
C1033 C1037 1.393 . S
C1034 H1026 0.950 . S
C1034 C1032 1.391 . S
C1034 C1035 1.400 . S
C1035 C1034 1.400 . S
C1035 C1036 1.398 . S
C1035 C1041 1.491 . S
C1036 H1027 0.950 . S
C1036 C1035 1.398 . S
C1036 C1037 1.391 . S
C1037 H1025 0.950 . S
C1037 C1033 1.393 . S
C1037 C1036 1.391 . S
C1038 H1028 0.944 1_565 S
C1038 C1039 1.386 . S
C1038 C1040 1.391 . S
C1039 C1038 1.386 . S
C1039 C1043 1.393 . S
C1040 H1029 0.950 . S
C1040 C1038 1.391 . S
C1040 C1041 1.400 . S
C1041 C1035 1.491 . S
C1041 C1040 1.400 . S
C1041 C1042 1.398 . S
C1042 H1030 0.950 . S
C1042 C1041 1.398 . S
C1042 C1043 1.391 . S
C1043 H1031 0.950 . S
C1043 C1039 1.393 . S
C1043 C1042 1.391 . S
H1044 C1052 0.950 . S
H1045 C1057 0.950 . S
H1046 C1054 0.950 . S
H1047 C1056 0.950 . S
H1048 C1058 0.950 . S
H1049 C1060 0.950 . S
H1050 C1062 0.950 . S
H1051 C1063 0.950 . S
C1052 H1044 0.950 . S
C1052 C1053 1.386 . S
C1052 C1054 1.391 . S
C1053 C1052 1.386 . S
C1053 C1057 1.393 . S
C1054 H1046 0.950 . S
C1054 C1052 1.391 . S
C1054 C1055 1.400 . S
C1055 C1054 1.400 . S
C1055 C1056 1.398 . S
C1055 C1061 1.491 . S
C1056 H1047 0.950 . S
C1056 C1055 1.398 . S
C1056 C1057 1.391 . S
C1057 H1045 0.950 . S
C1057 C1053 1.393 . S
C1057 C1056 1.391 . S
C1058 H1048 0.950 . S
C1058 C1059 1.386 . S
C1058 C1060 1.391 . S
C1059 C1058 1.386 . S
C1059 C1063 1.393 . S
C1060 H1049 0.950 . S
C1060 C1058 1.391 . S
C1060 C1061 1.400 . S
C1061 C1055 1.491 . S
C1061 C1060 1.400 . S
C1061 C1062 1.398 . S
C1062 H1050 0.950 . S
C1062 C1061 1.398 . S
C1062 C1063 1.391 . S
C1063 H1051 0.950 . S
C1063 C1059 1.393 . S
C1063 C1062 1.391 . S
H1064 C1072 0.950 . S
H1065 C1077 0.950 . S
H1066 C1074 0.950 . S
H1067 C1076 0.950 . S
H1068 C1078 0.950 . S
H1069 C1080 0.950 . S
H1070 C1082 0.936 1_565 S
H1071 C1083 0.950 . S
C1072 H1064 0.950 . S
C1072 C1073 1.386 . S
C1072 C1074 1.391 . S
C1073 C1072 1.386 . S
C1073 C1077 1.393 . S
C1074 H1066 0.950 . S
C1074 C1072 1.391 . S
C1074 C1075 1.400 . S
C1075 C1074 1.400 . S
C1075 C1076 1.398 . S
C1075 C1081 1.491 . S
C1076 H1067 0.950 . S
C1076 C1075 1.398 . S
C1076 C1077 1.391 . S
C1077 H1065 0.950 . S
C1077 C1073 1.393 . S
C1077 C1076 1.391 . S
C1078 H1068 0.950 . S
C1078 C1079 1.386 . S
C1078 C1080 1.391 . S
C1079 C1078 1.386 . S
C1079 C1083 1.393 1_545 S
C1080 H1069 0.950 . S
C1080 C1078 1.391 . S
C1080 C1081 1.400 . S
C1081 C1075 1.491 . S
C1081 C1080 1.400 . S
C1081 C1082 1.398 . S
C1082 H1070 0.936 1_545 S
C1082 C1081 1.398 . S
C1082 C1083 1.391 1_545 S
C1083 H1071 0.950 . S
C1083 C1079 1.393 1_565 S
C1083 C1082 1.391 1_565 S
H1084 C1092 0.939 1_655 S
H1085 C1097 0.950 . S
H1086 C1094 0.950 . S
H1087 C1096 0.950 . S
H1088 C1098 0.950 . S
H1089 C1100 0.950 . S
H1090 C1102 0.950 . S
H1091 C1103 0.950 . S
C1092 H1084 0.939 1_455 S
C1092 C1093 1.388 . S
C1092 C1094 1.399 . S
C1093 C1092 1.388 . S
C1093 C1097 1.393 . S
C1094 H1086 0.950 . S
C1094 C1092 1.399 . S
C1094 C1095 1.400 . S
C1095 C1094 1.400 . S
C1095 C1096 1.398 . S
C1095 C1101 1.491 . S
C1096 H1087 0.950 . S
C1096 C1095 1.398 . S
C1096 C1097 1.391 . S
C1097 H1085 0.950 . S
C1097 C1093 1.393 . S
C1097 C1096 1.391 . S
C1098 H1088 0.950 . S
C1098 C1099 1.386 . S
C1098 C1100 1.391 . S
C1099 C1098 1.386 . S
C1099 C1103 1.393 . S
C1100 H1089 0.950 . S
C1100 C1098 1.391 . S
C1100 C1101 1.400 . S
C1101 C1095 1.491 . S
C1101 C1100 1.400 . S
C1101 C1102 1.398 . S
C1102 H1090 0.950 . S
C1102 C1101 1.398 . S
C1102 C1103 1.391 . S
C1103 H1091 0.950 . S
C1103 C1099 1.393 . S
C1103 C1102 1.391 . S
H1104 C1112 0.950 . S
H1105 C1117 0.950 . S
H1106 C1114 0.950 . S
H1107 C1116 0.950 . S
H1108 C1118 0.950 . S
H1109 C1120 0.950 . S
H1110 C1122 0.950 . S
H1111 C1123 0.950 . S
C1112 H1104 0.950 . S
C1112 C1113 1.386 . S
C1112 C1114 1.391 . S
C1113 C1112 1.386 . S
C1113 C1117 1.393 . S
C1114 H1106 0.950 . S
C1114 C1112 1.391 . S
C1114 C1115 1.400 . S
C1115 C1114 1.400 . S
C1115 C1116 1.398 . S
C1115 C1121 1.491 . S
C1116 H1107 0.950 . S
C1116 C1115 1.398 . S
C1116 C1117 1.391 . S
C1117 H1105 0.950 . S
C1117 C1113 1.393 . S
C1117 C1116 1.391 . S
C1118 H1108 0.950 . S
C1118 C1119 1.386 . S
C1118 C1120 1.391 . S
C1119 C1118 1.386 . S
C1119 C1123 1.393 . S
C1120 H1109 0.950 . S
C1120 C1118 1.391 . S
C1120 C1121 1.400 . S
C1121 C1115 1.491 . S
C1121 C1120 1.400 . S
C1121 C1122 1.398 . S
C1122 H1110 0.950 . S
C1122 C1121 1.398 . S
C1122 C1123 1.391 . S
C1123 H1111 0.950 . S
C1123 C1119 1.393 . S
C1123 C1122 1.391 . S
H1124 C1132 0.950 . S
H1125 C1137 0.950 . S
H1126 C1134 0.950 . S
H1127 C1136 0.950 . S
H1128 C1138 0.950 . S
H1129 C1140 0.950 . S
H1130 C1142 0.950 . S
H1131 C1143 0.950 . S
C1132 H1124 0.950 . S
C1132 C1133 1.386 . S
C1132 C1134 1.391 . S
C1133 C1132 1.386 . S
C1133 C1137 1.393 . S
C1134 H1126 0.950 . S
C1134 C1132 1.391 . S
C1134 C1135 1.400 . S
C1135 C1134 1.400 . S
C1135 C1136 1.398 . S
C1135 C1141 1.491 . S
C1136 H1127 0.950 . S
C1136 C1135 1.398 . S
C1136 C1137 1.391 . S
C1137 H1125 0.950 . S
C1137 C1133 1.393 . S
C1137 C1136 1.391 . S
C1138 H1128 0.950 . S
C1138 C1139 1.386 . S
C1138 C1140 1.391 . S
C1139 C1138 1.386 . S
C1139 C1143 1.393 . S
C1140 H1129 0.950 . S
C1140 C1138 1.391 . S
C1140 C1141 1.400 . S
C1141 C1135 1.491 . S
C1141 C1140 1.400 . S
C1141 C1142 1.398 . S
C1142 H1130 0.950 . S
C1142 C1141 1.398 . S
C1142 C1143 1.391 . S
C1143 H1131 0.950 . S
C1143 C1139 1.393 . S
C1143 C1142 1.391 . S
H1144 C1152 0.950 . S
H1145 C1157 0.950 . S
H1146 C1154 0.950 . S
H1147 C1156 0.950 . S
H1148 C1158 0.950 . S
H1149 C1160 0.950 . S
H1150 C1162 0.950 . S
H1151 C1163 0.950 . S
C1152 H1144 0.950 . S
C1152 C1153 1.386 . S
C1152 C1154 1.391 . S
C1153 C1152 1.386 . S
C1153 C1157 1.393 . S
C1154 H1146 0.950 . S
C1154 C1152 1.391 . S
C1154 C1155 1.400 . S
C1155 C1154 1.400 . S
C1155 C1156 1.398 . S
C1155 C1161 1.491 . S
C1156 H1147 0.950 . S
C1156 C1155 1.398 . S
C1156 C1157 1.391 . S
C1157 H1145 0.950 . S
C1157 C1153 1.393 . S
C1157 C1156 1.391 . S
C1158 H1148 0.950 . S
C1158 C1159 1.386 . S
C1158 C1160 1.391 . S
C1159 C1158 1.386 . S
C1159 C1163 1.393 . S
C1160 H1149 0.950 . S
C1160 C1158 1.391 . S
C1160 C1161 1.400 . S
C1161 C1155 1.491 . S
C1161 C1160 1.400 . S
C1161 C1162 1.398 . S
C1162 H1150 0.950 . S
C1162 C1161 1.398 . S
C1162 C1163 1.391 . S
C1163 H1151 0.950 . S
C1163 C1159 1.393 . S
C1163 C1162 1.391 . S
H1164 C1172 0.950 . S
H1165 C1177 0.950 . S
H1166 C1174 0.950 . S
H1167 C1176 0.950 . S
H1168 C1178 0.950 . S
H1169 C1180 0.950 . S
H1170 C1182 0.950 . S
H1171 C1183 0.950 . S
C1172 H1164 0.950 . S
C1172 C1173 1.386 . S
C1172 C1174 1.391 . S
C1173 C1172 1.386 . S
C1173 C1177 1.393 . S
C1174 H1166 0.950 . S
C1174 C1172 1.391 . S
C1174 C1175 1.400 . S
C1175 C1174 1.400 . S
C1175 C1176 1.398 . S
C1175 C1181 1.491 . S
C1176 H1167 0.950 . S
C1176 C1175 1.398 . S
C1176 C1177 1.391 . S
C1177 H1165 0.950 . S
C1177 C1173 1.393 . S
C1177 C1176 1.391 . S
C1178 H1168 0.950 . S
C1178 C1179 1.386 . S
C1178 C1180 1.391 . S
C1179 C1178 1.386 . S
C1179 C1183 1.393 . S
C1180 H1169 0.950 . S
C1180 C1178 1.391 . S
C1180 C1181 1.400 . S
C1181 C1175 1.491 . S
C1181 C1180 1.400 . S
C1181 C1182 1.398 . S
C1182 H1170 0.950 . S
C1182 C1181 1.398 . S
C1182 C1183 1.391 . S
C1183 H1171 0.950 . S
C1183 C1179 1.393 . S
C1183 C1182 1.391 . S
H1184 C1192 0.950 . S
H1185 C1197 0.950 . S
H1186 C1194 0.950 . S
H1187 C1196 0.950 . S
H1188 C1198 0.950 . S
H1189 C1200 0.950 . S
H1190 C1202 0.950 . S
H1191 C1203 0.950 . S
C1192 H1184 0.950 . S
C1192 C1193 1.386 . S
C1192 C1194 1.391 . S
C1193 C1192 1.386 . S
C1193 C1197 1.393 . S
C1194 H1186 0.950 . S
C1194 C1192 1.391 . S
C1194 C1195 1.400 . S
C1195 C1194 1.400 . S
C1195 C1196 1.398 . S
C1195 C1201 1.491 1_556 S
C1196 H1187 0.950 . S
C1196 C1195 1.398 . S
C1196 C1197 1.391 . S
C1197 H1185 0.950 . S
C1197 C1193 1.393 . S
C1197 C1196 1.391 . S
C1198 H1188 0.950 . S
C1198 C1199 1.386 . S
C1198 C1200 1.391 . S
C1199 C1198 1.386 . S
C1199 C1203 1.393 . S
C1200 H1189 0.950 . S
C1200 C1198 1.391 . S
C1200 C1201 1.400 . S
C1201 C1195 1.491 1_554 S
C1201 C1200 1.400 . S
C1201 C1202 1.398 . S
C1202 H1190 0.950 . S
C1202 C1201 1.398 . S
C1202 C1203 1.391 . S
C1203 H1191 0.950 . S
C1203 C1199 1.393 . S
C1203 C1202 1.391 . S
H1204 C1212 0.950 . S
H1205 C1217 0.950 . S
H1206 C1214 0.950 . S
H1207 C1216 0.950 . S
H1208 C1218 0.950 . S
H1209 C1220 0.950 . S
H1210 C1222 0.950 . S
H1211 C1223 0.950 . S
C1212 H1204 0.950 . S
C1212 C1213 1.386 . S
C1212 C1214 1.391 . S
C1213 C1212 1.386 . S
C1213 C1217 1.393 . S
C1214 H1206 0.950 . S
C1214 C1212 1.391 . S
C1214 C1215 1.400 . S
C1215 C1214 1.400 . S
C1215 C1216 1.398 . S
C1215 C1221 1.491 1_556 S
C1216 H1207 0.950 . S
C1216 C1215 1.398 . S
C1216 C1217 1.391 . S
C1217 H1205 0.950 . S
C1217 C1213 1.393 . S
C1217 C1216 1.391 . S
C1218 H1208 0.950 . S
C1218 C1219 1.386 . S
C1218 C1220 1.391 . S
C1219 C1218 1.386 . S
C1219 C1223 1.393 . S
C1220 H1209 0.950 . S
C1220 C1218 1.391 . S
C1220 C1221 1.400 . S
C1221 C1215 1.491 1_554 S
C1221 C1220 1.400 . S
C1221 C1222 1.398 . S
C1222 H1210 0.950 . S
C1222 C1221 1.398 . S
C1222 C1223 1.391 . S
C1223 H1211 0.950 . S
C1223 C1219 1.393 . S
C1223 C1222 1.391 . S
H1224 C1232 0.950 . S
H1225 C1237 0.950 . S
H1226 C1234 0.950 . S
H1227 C1236 0.950 . S
H1228 C1238 0.950 . S
H1229 C1240 0.950 . S
H1230 C1242 0.950 . S
H1231 C1243 0.950 . S
C1232 H1224 0.950 . S
C1232 C1233 1.386 . S
C1232 C1234 1.391 . S
C1233 C1232 1.386 . S
C1233 C1237 1.393 . S
C1234 H1226 0.950 . S
C1234 C1232 1.391 . S
C1234 C1235 1.400 . S
C1235 C1234 1.400 . S
C1235 C1236 1.398 . S
C1235 C1241 1.491 1_556 S
C1236 H1227 0.950 . S
C1236 C1235 1.398 . S
C1236 C1237 1.391 . S
C1237 H1225 0.950 . S
C1237 C1233 1.393 . S
C1237 C1236 1.391 . S
C1238 H1228 0.950 . S
C1238 C1239 1.386 . S
C1238 C1240 1.391 . S
C1239 C1238 1.386 . S
C1239 C1243 1.393 . S
C1240 H1229 0.950 . S
C1240 C1238 1.391 . S
C1240 C1241 1.400 . S
C1241 C1235 1.491 1_554 S
C1241 C1240 1.400 . S
C1241 C1242 1.398 . S
C1242 H1230 0.950 . S
C1242 C1241 1.398 . S
C1242 C1243 1.391 . S
C1243 H1231 0.950 . S
C1243 C1239 1.393 . S
C1243 C1242 1.391 . S
H1244 C1252 0.950 . S
H1245 C1257 0.950 . S
H1246 C1254 0.950 . S
H1247 C1256 0.950 . S
H1248 C1258 0.950 . S
H1249 C1260 0.950 . S
H1250 C1262 0.950 . S
H1251 C1263 0.950 . S
C1252 H1244 0.950 . S
C1252 C1253 1.386 . S
C1252 C1254 1.391 . S
C1253 C1252 1.386 . S
C1253 C1257 1.393 . S
C1254 H1246 0.950 . S
C1254 C1252 1.391 . S
C1254 C1255 1.400 . S
C1255 C1254 1.400 . S
C1255 C1256 1.398 . S
C1255 C1261 1.491 1_554 S
C1256 H1247 0.950 . S
C1256 C1255 1.398 . S
C1256 C1257 1.391 . S
C1257 H1245 0.950 . S
C1257 C1253 1.393 . S
C1257 C1256 1.391 . S
C1258 H1248 0.950 . S
C1258 C1259 1.386 . S
C1258 C1260 1.391 . S
C1259 C1258 1.386 . S
C1259 C1263 1.393 . S
C1260 H1249 0.950 . S
C1260 C1258 1.391 . S
C1260 C1261 1.400 . S
C1261 C1255 1.491 1_556 S
C1261 C1260 1.400 . S
C1261 C1262 1.398 . S
C1262 H1250 0.950 . S
C1262 C1261 1.398 . S
C1262 C1263 1.391 . S
C1263 H1251 0.950 . S
C1263 C1259 1.393 . S
C1263 C1262 1.391 . S
H1264 C1272 0.950 . S
H1265 C1277 0.950 . S
H1266 C1274 0.950 . S
H1267 C1276 0.950 . S
H1268 C1278 0.950 . S
H1269 C1280 0.950 . S
H1270 C1282 0.950 . S
H1271 C1283 0.950 . S
C1272 H1264 0.950 . S
C1272 C1273 1.386 . S
C1272 C1274 1.391 . S
C1273 C1272 1.386 . S
C1273 C1277 1.393 . S
C1274 H1266 0.950 . S
C1274 C1272 1.391 . S
C1274 C1275 1.400 . S
C1275 C1274 1.400 . S
C1275 C1276 1.398 . S
C1275 C1281 1.491 . S
C1276 H1267 0.950 . S
C1276 C1275 1.398 . S
C1276 C1277 1.391 . S
C1277 H1265 0.950 . S
C1277 C1273 1.393 . S
C1277 C1276 1.391 . S
C1278 H1268 0.950 . S
C1278 C1279 1.386 . S
C1278 C1280 1.391 . S
C1279 C1278 1.386 . S
C1279 C1283 1.393 1_545 S
C1280 H1269 0.950 . S
C1280 C1278 1.391 . S
C1280 C1281 1.400 . S
C1281 C1275 1.491 . S
C1281 C1280 1.400 . S
C1281 C1282 1.398 . S
C1282 H1270 0.950 . S
C1282 C1281 1.398 . S
C1282 C1283 1.391 1_545 S
C1283 H1271 0.950 . S
C1283 C1279 1.393 1_565 S
C1283 C1282 1.391 1_565 S
H1284 C1292 0.950 . S
H1285 C1297 0.950 . S
H1286 C1294 0.950 1_655 S
H1287 C1296 0.950 . S
H1288 C1298 0.950 . S
H1289 C1300 0.950 . S
H1290 C1302 0.950 . S
H1291 C1303 0.950 . S
C1292 H1284 0.950 . S
C1292 C1293 1.386 1_655 S
C1292 C1294 1.391 1_655 S
C1293 C1292 1.386 1_455 S
C1293 C1297 1.393 . S
C1294 H1286 0.950 1_455 S
C1294 C1292 1.391 1_455 S
C1294 C1295 1.400 . S
C1295 C1294 1.400 . S
C1295 C1296 1.398 . S
C1295 C1301 1.491 . S
C1296 H1287 0.950 . S
C1296 C1295 1.398 . S
C1296 C1297 1.391 . S
C1297 H1285 0.950 . S
C1297 C1293 1.393 . S
C1297 C1296 1.391 . S
C1298 H1288 0.950 . S
C1298 C1299 1.386 . S
C1298 C1300 1.391 . S
C1299 C1298 1.386 . S
C1299 C1303 1.393 . S
C1300 H1289 0.950 . S
C1300 C1298 1.391 . S
C1300 C1301 1.400 . S
C1301 C1295 1.491 . S
C1301 C1300 1.400 . S
C1301 C1302 1.398 . S
C1302 H1290 0.950 . S
C1302 C1301 1.398 . S
C1302 C1303 1.391 . S
C1303 H1291 0.950 . S
C1303 C1299 1.393 . S
C1303 C1302 1.391 . S
H1304 C1312 0.950 . S
H1305 C1317 0.950 . S
H1306 C1314 0.950 1_545 S
H1307 C1316 0.950 . S
H1308 C1318 0.950 . S
H1309 C1320 0.950 . S
H1310 C1322 0.950 . S
H1311 C1323 0.950 . S
C1312 H1304 0.950 . S
C1312 C1313 1.386 1_545 S
C1312 C1314 1.391 1_545 S
C1313 C1312 1.386 1_565 S
C1313 C1317 1.393 . S
C1314 H1306 0.950 1_565 S
C1314 C1312 1.391 1_565 S
C1314 C1315 1.400 . S
C1315 C1314 1.400 . S
C1315 C1316 1.398 . S
C1315 C1321 1.491 . S
C1316 H1307 0.950 . S
C1316 C1315 1.398 . S
C1316 C1317 1.391 . S
C1317 H1305 0.950 . S
C1317 C1313 1.393 . S
C1317 C1316 1.391 . S
C1318 H1308 0.950 . S
C1318 C1319 1.386 . S
C1318 C1320 1.391 . S
C1319 C1318 1.386 . S
C1319 C1323 1.393 . S
C1320 H1309 0.950 . S
C1320 C1318 1.391 . S
C1320 C1321 1.400 . S
C1321 C1315 1.491 . S
C1321 C1320 1.400 . S
C1321 C1322 1.398 . S
C1322 H1310 0.950 . S
C1322 C1321 1.398 . S
C1322 C1323 1.391 . S
C1323 H1311 0.950 . S
C1323 C1319 1.393 . S
C1323 C1322 1.391 . S
H1324 C1332 0.950 . S
H1325 C1337 0.950 . S
H1326 C1334 0.950 . S
H1327 C1336 0.950 . S
H1328 C1338 0.950 . S
H1329 C1340 0.950 . S
H1330 C1342 0.950 . S
H1331 C1343 0.950 . S
C1332 H1324 0.950 . S
C1332 C1333 1.386 . S
C1332 C1334 1.391 . S
C1333 C1332 1.386 . S
C1333 C1337 1.393 1_655 S
C1334 H1326 0.950 . S
C1334 C1332 1.391 . S
C1334 C1335 1.400 . S
C1335 C1334 1.400 . S
C1335 C1336 1.398 . S
C1335 C1341 1.491 . S
C1336 H1327 0.950 . S
C1336 C1335 1.398 . S
C1336 C1337 1.391 1_655 S
C1337 H1325 0.950 . S
C1337 C1333 1.393 1_455 S
C1337 C1336 1.391 1_455 S
C1338 H1328 0.950 . S
C1338 C1339 1.386 . S
C1338 C1340 1.391 . S
C1339 C1338 1.386 . S
C1339 C1343 1.393 . S
C1340 H1329 0.950 . S
C1340 C1338 1.391 . S
C1340 C1341 1.400 . S
C1341 C1335 1.491 . S
C1341 C1340 1.400 . S
C1341 C1342 1.398 . S
C1342 H1330 0.950 . S
C1342 C1341 1.398 . S
C1342 C1343 1.391 . S
C1343 H1331 0.950 . S
C1343 C1339 1.393 . S
C1343 C1342 1.391 . S
C553 C145 1.976 . S
C559 C9 1.976 . S
C573 C43 1.979 . S
C579 C179 1.981 . S
C593 C77 2.006 . S
C599 C213 2.008 . S
C613 C111 2.002 . S
C619 C247 2.004 . S
C633 C281 2.002 . S
C639 C417 2.004 . S
C653 C451 2.006 . S
C659 C315 2.007 . S
C673 C485 1.979 . S
C679 C349 1.981 . S
C693 C383 2.007 . S
C699 C519 2.008 . S
C713 C20 1.166 . S
C719 C496 1.157 . S
C733 C54 1.157 . S
C739 C530 1.167 . S
C753 C88 1.172 . S
C759 C428 1.158 . S
C773 C462 1.180 . S
C779 C122 1.167 . S
C793 C360 1.173 . S
C799 C156 1.159 . S
C813 C190 1.164 . S
C819 C394 1.157 . S
C833 C224 1.181 . S
C839 C292 1.176 . S
C853 C258 1.170 . S
C859 C326 1.181 . S
C873 C2 1.245 . S
C879 C70 1.213 . S
C893 C36 1.213 . S
C899 C104 1.244 . S
C913 C138 1.213 . S
C919 C206 1.249 . S
C933 C172 1.214 . S
C939 C240 1.248 . S
C953 C342 1.236 . S
C959 C274 1.219 . S
C973 C376 1.244 . S
C979 C308 1.214 . S
C993 C410 1.219 . S
C999 C478 1.245 . S
C1013 C444 1.213 . S
C1019 C512 1.245 . S
C1033 C67 0.737 . S
C1039 C5 0.747 1_565 S
C1053 C39 0.717 1_655 S
C1059 C101 0.724 . S
C1073 C135 0.745 . S
C1079 C73 0.732 1_545 S
C1093 C107 0.723 1_455 S
C1099 C33 0.719 . S
C1113 C543 0.726 . S
C1119 C141 0.716 . S
C1133 C175 0.723 . S
C1139 C441 0.742 . S
C1153 C209 0.728 . S
C1159 C475 0.717 . S
C1173 C243 0.715 . S
C1179 C509 0.729 . S
C1193 C277 0.715 . S
C1199 C339 0.728 . S
C1213 C373 0.745 . S
C1219 C311 0.737 . S
C1233 C345 0.725 . S
C1239 C407 0.718 . S
C1253 C379 0.736 . S
C1259 C305 0.718 . S
C1273 C271 0.745 . S
C1279 C413 0.737 1_545 S
C1293 C447 0.740 1_455 S
C1299 C169 0.720 . S
C1313 C481 0.733 1_565 S
C1319 C203 0.745 . S
C1333 C515 0.715 1_655 S
C1339 C237 0.731 . S
