# Generated by pormake.
# Topology sra, (4)-cn, num edge types: 1
# Building blocks:
#     Node 0, Type 0, BuildingBlock: CEKHIL_clean_sbu_0, # of connection points: 4
#     Node 1, Type 0, BuildingBlock: CEKHIL_clean_sbu_0, # of connection points: 4
#     Node 2, Type 0, BuildingBlock: CEKHIL_clean_sbu_0, # of connection points: 4
#     Node 3, Type 0, BuildingBlock: CEKHIL_clean_sbu_0, # of connection points: 4
#     Node 4, Type 0, BuildingBlock: CEKHIL_clean_sbu_0, # of connection points: 4
#     Node 5, Type 0, BuildingBlock: CEKHIL_clean_sbu_0, # of connection points: 4
#     Node 6, Type 0, BuildingBlock: CEKHIL_clean_sbu_0, # of connection points: 4
#     Node 7, Type 0, BuildingBlock: CEKHIL_clean_sbu_0, # of connection points: 4
#     Edge 8, Type (0, 0), BuildingBlock: CIFDUS_clean_linker_0, # of connection points: 2
#     Edge 9, Type (0, 0), BuildingBlock: CIFDUS_clean_linker_0, # of connection points: 2
#     Edge 10, Type (0, 0), BuildingBlock: CIFDUS_clean_linker_0, # of connection points: 2
#     Edge 11, Type (0, 0), BuildingBlock: CIFDUS_clean_linker_0, # of connection points: 2
#     Edge 12, Type (0, 0), BuildingBlock: CIFDUS_clean_linker_0, # of connection points: 2
#     Edge 13, Type (0, 0), BuildingBlock: CIFDUS_clean_linker_0, # of connection points: 2
#     Edge 14, Type (0, 0), BuildingBlock: CIFDUS_clean_linker_0, # of connection points: 2
#     Edge 15, Type (0, 0), BuildingBlock: CIFDUS_clean_linker_0, # of connection points: 2
#     Edge 16, Type (0, 0), BuildingBlock: CIFDUS_clean_linker_0, # of connection points: 2
#     Edge 17, Type (0, 0), BuildingBlock: CIFDUS_clean_linker_0, # of connection points: 2
#     Edge 18, Type (0, 0), BuildingBlock: CIFDUS_clean_linker_0, # of connection points: 2
#     Edge 19, Type (0, 0), BuildingBlock: CIFDUS_clean_linker_0, # of connection points: 2
#     Edge 20, Type (0, 0), BuildingBlock: CIFDUS_clean_linker_0, # of connection points: 2
#     Edge 21, Type (0, 0), BuildingBlock: CIFDUS_clean_linker_0, # of connection points: 2
#     Edge 22, Type (0, 0), BuildingBlock: CIFDUS_clean_linker_0, # of connection points: 2
#     Edge 23, Type (0, 0), BuildingBlock: CIFDUS_clean_linker_0, # of connection points: 2
# Relax obj value: 0.033
# Max RMSD: 0.069
# Mean RMSD: 0.069
data_MOF--net-sra--node1-CEKHIL_clean_sbu_0--edge1-CIFDUS_clean_linker_0
_symmetry_space_group_name_H-M    P1
_symmetry_Int_Tables_number       1
_symmetry_cell_setting            triclinic
loop_
_symmetry_equiv_pos_as_xyz
'x, y, z'
_cell_length_a     23.71383
_cell_length_b     46.001337
_cell_length_c     27.37833
_cell_angle_alpha  90.021876
_cell_angle_beta   90.028582
_cell_angle_gamma 89.998978
loop_
_atom_site_label
_atom_site_type_symbol
_atom_site_fract_x
_atom_site_fract_y
_atom_site_fract_z
_atom_type_partial_charge
Co0 Co 0.02672 0.11105 0.14917 0.0
O1 O 0.03316 0.07077 0.12959 0.0
O2 O 0.00636 0.1064 0.08077 0.0
C3 C 0.11011 0.11337 0.18959 0.0
O4 O 0.01558 0.15523 0.15589 0.0
Co5 Co 0.02325 0.12711 0.26019 0.0
O6 O 0.021 0.16758 0.23552 0.0
C7 C 0.92342 0.10116 0.21278 0.0
C8 C 0.01667 0.07881 0.08647 0.0
C9 C 0.01496 0.17423 0.19061 0.0
O10 O 0.94616 0.10422 0.17031 0.0
O11 O 0.94977 0.10612 0.25276 0.0
O12 O 0.10874 0.11649 0.14237 0.0
O13 O 0.06274 0.10665 0.2094 0.0
Co14 Co -0.00142 0.4105 0.14829 0.0
O15 O -0.00185 0.45198 0.13874 0.0
O16 O 0.02596 0.42037 0.08308 0.0
C17 C 0.90994 0.4076 0.17987 0.0
O18 O 0.00325 0.36584 0.14577 0.0
Co19 Co 0.99178 0.38697 0.25367 0.0
O20 O 0.97637 0.34969 0.2198 0.0
C21 C 0.10055 0.4092 0.21777 0.0
C22 C 0.01722 0.44741 0.09512 0.0
C23 C 0.98942 0.34512 0.17528 0.0
O24 O 0.07806 0.41257 0.17531 0.0
O25 O 0.07218 0.40116 0.25522 0.0
O26 O 0.91826 0.40835 0.13306 0.0
O27 O 0.95475 0.41158 0.20612 0.0
Co28 Co 0.01341 0.90863 0.84418 0.0
O29 O 0.0188 0.94974 0.85933 0.0
O30 O 0.98719 0.9162 0.91007 0.0
C31 C 0.09954 0.90525 0.81043 0.0
O32 O 0.00306 0.86424 0.84319 0.0
Co33 Co 0.02364 0.88417 0.73788 0.0
O34 O 0.0321 0.84609 0.77107 0.0
C35 C 0.92059 0.91529 0.76996 0.0
C36 C -0.0002 0.94335 0.90247 0.0
C37 C 0.0159 0.84273 0.81504 0.0
O38 O 0.93617 0.91448 0.81514 0.0
O39 O 0.95194 0.90702 0.73449 0.0
O40 O 0.09423 0.90399 0.8577 0.0
O41 O 0.05408 0.91004 0.78634 0.0
Co42 Co 0.00258 0.60601 0.83285 0.0
O43 O 0.99767 0.56436 0.83992 0.0
O44 O 0.02941 0.59403 0.89707 0.0
C45 C 0.91645 0.61145 0.80015 0.0
O46 O 0.01232 0.65037 0.83862 0.0
Co47 Co 0.99286 0.63509 0.72961 0.0
O48 O 0.98168 0.67096 0.76872 0.0
C49 C 0.09568 0.60293 0.7583 0.0
C50 C 0.01759 0.56754 0.88369 0.0
C51 C -0.00194 0.67278 0.81296 0.0
O52 O 0.07964 0.602 0.80326 0.0
O53 O 0.06473 0.61254 0.72351 0.0
O54 O 0.92186 0.60978 0.84738 0.0
O55 O 0.96176 0.6078 0.77533 0.0
Co56 Co 0.51961 0.61246 0.6633 0.0
O57 O 0.52158 0.57066 0.65794 0.0
O58 O 0.49457 0.60007 0.59867 0.0
C59 C 0.60482 0.61659 0.69816 0.0
O60 O 0.51428 0.65697 0.65552 0.0
Co61 Co 0.52679 0.64219 0.76622 0.0
O62 O 0.5394 0.67779 0.72704 0.0
C63 C 0.42486 0.61007 0.73577 0.0
C64 C 0.50388 0.57357 0.61343 0.0
C65 C 0.5273 0.67937 0.68177 0.0
O66 O 0.44124 0.61007 0.69088 0.0
O67 O 0.45552 0.61912 0.77115 0.0
O68 O 0.60083 0.61442 0.65089 0.0
O69 O 0.55847 0.61414 0.72197 0.0
Co70 Co 0.49569 0.91211 0.66904 0.0
O71 O 0.49665 0.95387 0.66155 0.0
O72 O 0.52117 0.92289 0.60377 0.0
C73 C 0.41017 0.91025 0.70423 0.0
O74 O 0.49767 0.8674 0.66283 0.0
Co75 Co 0.48502 0.88329 0.77244 0.0
O76 O 0.46572 0.84837 0.73353 0.0
C77 C 0.59048 0.9126 0.74205 0.0
C78 C 0.51341 0.94979 0.61701 0.0
C79 C 0.4797 0.84584 0.68881 0.0
O80 O 0.5744 0.91335 0.69698 0.0
O81 O 0.55876 0.9041 0.77707 0.0
O82 O 0.41411 0.91157 0.65687 0.0
O83 O 0.45681 0.91203 0.72777 0.0
Co84 Co 0.52953 0.41039 0.35902 0.0
O85 O 0.53271 0.45212 0.36528 0.0
O86 O 0.50186 0.42265 0.42295 0.0
C87 C 0.61829 0.40544 0.32836 0.0
O88 O 0.5211 0.36604 0.36549 0.0
Co89 Co 0.53644 0.38226 0.25723 0.0
O90 O 0.54897 0.34586 0.29463 0.0
C91 C 0.42846 0.40789 0.28903 0.0
C92 C 0.5125 0.44915 0.40893 0.0
C93 C 0.53396 0.34372 0.33913 0.0
O94 O 0.45075 0.41305 0.33105 0.0
O95 O 0.45664 0.39741 0.25317 0.0
O96 O 0.60954 0.40736 0.37504 0.0
O97 O 0.57387 0.40895 0.30143 0.0
Co98 Co 0.49846 0.10776 0.35133 0.0
O99 O 0.49146 0.06614 0.35909 0.0
O100 O 0.51889 0.09606 0.41744 0.0
C101 C 0.41505 0.11384 0.31224 0.0
O102 O 0.50998 0.15198 0.35742 0.0
Co103 Co 0.50119 0.13631 0.24798 0.0
O104 O 0.49303 0.17324 0.28475 0.0
C105 C 0.60102 0.10466 0.2854 0.0
C106 C 0.50792 0.06952 0.40392 0.0
C107 C 0.50327 0.17471 0.33035 0.0
O108 O 0.57864 0.10284 0.32819 0.0
O109 O 0.57488 0.11485 0.24818 0.0
O110 O 0.41655 0.1124 0.35969 0.0
O111 O 0.46253 0.10967 0.29065 0.0
H112 H 0.92306 0.30129 0.20527 0.0
H113 H 0.06539 0.31939 0.11249 0.0
H114 H 0.08333 0.267 0.10373 0.0
H115 H 0.06536 0.21599 0.1323 0.0
H116 H 0.92427 0.20017 0.22799 0.0
H117 H 0.89876 0.25141 0.22545 0.0
C118 C 0.9574 0.29378 0.18232 0.0
C119 C 0.99309 0.31419 0.15993 0.0
C120 C 0.96803 0.26387 0.17844 0.0
C121 C 0.03707 0.30412 0.12993 0.0
C122 C 0.04767 0.27414 0.12536 0.0
C123 C 0.02844 0.22382 0.15159 0.0
C124 C 0.99686 0.20443 0.1806 0.0
C125 C 0.01452 0.25377 0.15084 0.0
C126 C 0.94934 0.21477 0.20576 0.0
C127 C 0.93475 0.24407 0.20439 0.0
H128 H 0.08896 0.79936 0.83928 0.0
H129 H 0.91255 0.81891 0.82156 0.0
H130 H 0.88949 0.76709 0.82553 0.0
H131 H 0.92153 0.71609 0.82139 0.0
H132 H 0.09709 0.69614 0.84344 0.0
H133 H 0.11867 0.74806 0.85154 0.0
C134 C 0.04541 0.7922 0.83792 0.0
C135 C 0.00238 0.81275 0.83026 0.0
C136 C 0.03249 0.76231 0.8406 0.0
C137 C 0.94613 0.8034 0.82799 0.0
C138 C 0.93304 0.77378 0.82986 0.0
C139 C 0.96414 0.72315 0.82964 0.0
C140 C 0.00771 0.70245 0.83188 0.0
C141 C 0.97606 0.75299 0.83441 0.0
C142 C 0.06285 0.71172 0.84219 0.0
C143 C 0.07524 0.74142 0.84626 0.0
H144 H 0.43535 0.71293 0.66844 0.0
H145 H 0.61598 0.71252 0.654 0.0
H146 H 0.61642 0.76552 0.64495 0.0
H147 H 0.56677 0.81237 0.65676 0.0
H148 H 0.38711 0.81231 0.67938 0.0
H149 H 0.38431 0.75956 0.66863 0.0
C150 C 0.47441 0.72444 0.66124 0.0
C151 C 0.52545 0.70894 0.66092 0.0
C152 C 0.47442 0.75503 0.65831 0.0
C153 C 0.57614 0.72404 0.65333 0.0
C154 C 0.57639 0.75438 0.64874 0.0
C155 C 0.52688 0.80083 0.65739 0.0
C156 C 0.4771 0.81613 0.6683 0.0
C157 C 0.52604 0.77023 0.65331 0.0
C158 C 0.4258 0.80094 0.67049 0.0
C159 C 0.42428 0.77074 0.66477 0.0
H160 H 0.60736 0.29872 0.34607 0.0
H161 H 0.43343 0.32193 0.36853 0.0
H162 H 0.40771 0.27042 0.37393 0.0
H163 H 0.43327 0.21878 0.35857 0.0
H164 H 0.60808 0.19591 0.34038 0.0
H165 H 0.63527 0.24702 0.34788 0.0
C166 C 0.56422 0.29243 0.35394 0.0
C167 C 0.52234 0.31399 0.35705 0.0
C168 C 0.54989 0.26277 0.3572 0.0
C169 C 0.46645 0.30568 0.36671 0.0
C170 C 0.45167 0.27621 0.36923 0.0
C171 C 0.47739 0.22499 0.35812 0.0
C172 C 0.51876 0.20371 0.34925 0.0
C173 C 0.49272 0.25453 0.36266 0.0
C174 C 0.57572 0.21194 0.34786 0.0
C175 C 0.59121 0.24119 0.35167 0.0
H176 H 0.30653 0.11403 0.34529 0.0
H177 H 0.40642 0.12353 0.2146 0.0
H178 H 0.32112 0.12614 0.16516 0.0
H179 H 0.21791 0.12234 0.15807 0.0
H180 H 0.11819 0.11149 0.28858 0.0
H181 H 0.20308 0.11296 0.33865 0.0
C182 C 0.30953 0.11703 0.30609 0.0
C183 C 0.36274 0.11843 0.28374 0.0
C184 C 0.26017 0.11807 0.27759 0.0
C185 C 0.36597 0.12224 0.23281 0.0
C186 C 0.31716 0.12369 0.20438 0.0
C187 C 0.21479 0.12058 0.19747 0.0
C188 C 0.16182 0.11665 0.21941 0.0
C189 C 0.264 0.12109 0.22622 0.0
C190 C 0.15846 0.1144 0.2706 0.0
C191 C 0.20705 0.11522 0.29939 0.0
H192 H 0.64997 0.4025 0.23236 0.0
H193 H 0.71738 0.40291 0.37872 0.0
H194 H 0.81328 0.40266 0.34637 0.0
H195 H 0.87876 0.40462 0.27625 0.0
H196 H 0.81098 0.4038 0.12999 0.0
H197 H 0.71533 0.4018 0.16241 0.0
C198 C 0.68563 0.40232 0.25717 0.0
C199 C 0.67626 0.4029 0.30792 0.0
C200 C 0.74099 0.40224 0.23829 0.0
C201 C 0.72314 0.40255 0.33948 0.0
C202 C 0.77818 0.40246 0.32101 0.0
C203 C 0.84306 0.40385 0.25152 0.0
C204 C 0.85227 0.40457 0.20073 0.0
C205 C 0.78773 0.40269 0.27045 0.0
C206 C 0.80537 0.40338 0.16924 0.0
C207 C 0.75045 0.40227 0.18775 0.0
H208 H 0.20507 0.90213 0.84912 0.0
H209 H 0.11405 0.90054 0.71255 0.0
H210 H 0.20209 0.90007 0.6673 0.0
H211 H 0.3051 0.90397 0.66599 0.0
H212 H 0.39633 0.90665 0.80238 0.0
H213 H 0.30857 0.90272 0.84781 0.0
C214 C 0.20467 0.9013 0.80952 0.0
C215 C 0.15328 0.90159 0.78435 0.0
C216 C 0.25559 0.90149 0.78346 0.0
C217 C 0.15317 0.9005 0.73295 0.0
C218 C 0.20352 0.9003 0.70687 0.0
C219 C 0.30567 0.90347 0.7056 0.0
C220 C 0.35689 0.90586 0.73067 0.0
C221 C 0.25497 0.90145 0.73169 0.0
C222 C 0.35725 0.90501 0.78208 0.0
C223 C 0.30709 0.90277 0.80823 0.0
H224 H 0.70924 0.62144 0.65888 0.0
H225 H 0.62004 0.62051 0.79624 0.0
H226 H 0.70896 0.6213 0.84071 0.0
H227 H 0.81233 0.61776 0.84054 0.0
H228 H 0.90087 0.61796 0.70277 0.0
H229 H 0.81231 0.62224 0.65884 0.0
C230 C 0.70937 0.62175 0.69851 0.0
C231 C 0.65844 0.62054 0.72417 0.0
C232 C 0.7606 0.6219 0.72394 0.0
C233 C 0.65895 0.62119 0.77556 0.0
C234 C 0.70974 0.62159 0.80112 0.0
C235 C 0.81212 0.61908 0.80099 0.0
C236 C 0.86285 0.6172 0.77503 0.0
C237 C 0.76087 0.62123 0.77569 0.0
C238 C 0.86222 0.61912 0.72372 0.0
C239 C 0.81159 0.62154 0.69841 0.0
H240 H 0.67843 0.92327 0.68035 0.0
H241 H 0.63458 0.91901 0.83338 0.0
H242 H 0.73315 0.92372 0.85588 0.0
H243 H 0.83238 0.92238 0.83228 0.0
H244 H 0.87681 0.92576 0.67939 0.0
H245 H 0.77769 0.92863 0.6571 0.0
C246 C 0.69032 0.92381 0.71861 0.0
C247 C 0.64924 0.92003 0.75491 0.0
C248 C 0.74737 0.92619 0.73154 0.0
C249 C 0.66539 0.92122 0.80443 0.0
C250 C 0.72185 0.92397 0.81751 0.0
C251 C 0.82051 0.92433 0.79415 0.0
C252 C 0.8619 0.92314 0.75766 0.0
C253 C 0.76334 0.92543 0.78136 0.0
C254 C 0.84573 0.92603 0.70836 0.0
C255 C 0.78898 0.92764 0.69544 0.0
H256 H 0.3392 0.59903 0.6723 0.0
H257 H 0.37989 0.60096 0.82614 0.0
H258 H 0.28109 0.59414 0.8467 0.0
H259 H 0.18249 0.59479 0.82139 0.0
H260 H 0.14119 0.59487 0.66769 0.0
H261 H 0.24093 0.59313 0.64693 0.0
C262 C 0.32662 0.5975 0.7103 0.0
C263 C 0.36666 0.60126 0.74752 0.0
C264 C 0.26954 0.59412 0.72204 0.0
C265 C 0.34974 0.59879 0.79664 0.0
C266 C 0.29322 0.59484 0.80855 0.0
C267 C 0.19519 0.59383 0.78336 0.0
C268 C 0.15457 0.59567 0.74624 0.0
C269 C 0.25258 0.59359 0.77157 0.0
C270 C 0.17174 0.59407 0.69709 0.0
C271 C 0.22878 0.59312 0.6851 0.0
H272 H 0.65943 0.10049 0.20015 0.0
H273 H 0.67826 0.09119 0.35637 0.0
H274 H 0.77987 0.08534 0.34647 0.0
H275 H 0.86364 0.08863 0.29479 0.0
H276 H 0.84525 0.09987 0.13892 0.0
H277 H 0.74281 0.09865 0.1475 0.0
C278 C 0.68556 0.09689 0.23211 0.0
C279 C 0.66119 0.09683 0.27906 0.0
C280 C 0.74402 0.094 0.22626 0.0
C281 C 0.69577 0.09161 0.31984 0.0
C282 C 0.75396 0.08833 0.31424 0.0
C283 C 0.83739 0.09045 0.26249 0.0
C284 C 0.86227 0.09487 0.21635 0.0
C285 C 0.77862 0.09038 0.26779 0.0
C286 C 0.8274 0.09666 0.17492 0.0
C287 C 0.76875 0.09612 0.17983 0.0
H288 H 0.16237 0.41487 0.30168 0.0
H289 H 0.17937 0.411 0.14483 0.0
H290 H 0.28187 0.41152 0.15269 0.0
H291 H 0.36708 0.41 0.20422 0.0
H292 H 0.34983 0.41526 0.36096 0.0
H293 H 0.24756 0.41744 0.3528 0.0
C294 C 0.18841 0.41437 0.26914 0.0
C295 C 0.16282 0.41265 0.22275 0.0
C296 C 0.24758 0.41479 0.27384 0.0
C297 C 0.19757 0.41233 0.18106 0.0
C298 C 0.25638 0.4125 0.18549 0.0
C299 C 0.34104 0.41185 0.23661 0.0
C300 C 0.3665 0.41222 0.28316 0.0
C301 C 0.28191 0.41325 0.23173 0.0
C302 C 0.33177 0.41493 0.32462 0.0
C303 C 0.27306 0.41607 0.32004 0.0
H304 H 0.00366 0.02027 0.09417 0.0
H305 H 0.01521 0.08925 0.98806 0.0
H306 H 0.00969 0.05363 0.92166 0.0
H307 H 0.00496 1.00252 0.89376 0.0
H308 H 0.98866 0.93399 1.00036 0.0
H309 H 0.99219 0.96971 0.06634 0.0
C310 C 0.00484 0.02753 0.0565 0.0
C311 C 0.01039 0.05739 0.04612 0.0
C312 C 0.00071 1.00695 0.01853 0.0
C313 C 0.01105 0.06642 0.9971 0.0
C314 C 0.00799 0.04604 0.9591 0.0
C315 C 0.00177 0.99543 0.93142 0.0
C316 C 0.99684 0.96553 0.942 0.0
C317 C 0.00328 0.0162 0.96935 0.0
C318 C 0.99235 0.95679 0.99105 0.0
C319 C 0.99461 0.97723 0.02889 0.0
H320 H 0.0336 0.56722 0.9827 0.0
H321 H 0.01495 0.51029 0.85854 0.0
H322 H 0.0179 0.46791 0.91207 0.0
H323 H 0.01989 0.4468 0.99504 0.0
H324 H 0.03323 0.50402 0.11931 0.0
H325 H 0.03875 0.54608 0.06528 0.0
C326 C 0.03082 0.54553 0.96734 0.0
C327 C 0.02399 0.54203 0.91663 0.0
C328 C 0.03139 0.52112 0.99854 0.0
C329 C 0.02002 0.51371 0.89744 0.0
C330 C 0.0217 0.48938 0.92807 0.0
C331 C 0.02478 0.46844 0.01018 0.0
C332 C 0.02612 0.4722 0.06116 0.0
C333 C 0.02654 0.49278 0.97879 0.0
C334 C 0.03184 0.50047 0.0802 0.0
C335 C 0.03496 0.52461 0.04931 0.0
H336 H 0.49911 0.45093 0.50833 0.0
H337 H 0.50772 0.50575 0.38079 0.0
H338 H 0.50127 0.54903 0.43197 0.0
H339 H 0.49903 0.57175 0.51357 0.0
H340 H 0.49561 0.51701 0.64136 0.0
H341 H 0.49377 0.47368 0.58991 0.0
C342 C 0.49895 0.47234 0.49177 0.0
C343 C 0.50401 0.475 0.44076 0.0
C344 C 0.4964 0.49734 0.52162 0.0
C345 C 0.50416 0.50298 0.41995 0.0
C346 C 0.50047 0.52783 0.44923 0.0
C347 C 0.49717 0.55035 0.53009 0.0
C348 C 0.4975 0.54771 0.58128 0.0
C349 C 0.49742 0.52535 0.50019 0.0
C350 C 0.49562 0.51974 0.60207 0.0
C351 C 0.4946 0.49487 0.57264 0.0
H352 H 0.51438 0.94918 0.51696 0.0
H353 H 0.52537 1.0069 0.64075 0.0
H354 H 0.52755 0.0489 0.58628 0.0
H355 H 0.52153 0.06969 0.50335 0.0
H356 H 0.50569 0.01206 0.37979 0.0
H357 H 0.51026 0.96996 0.43387 0.0
C358 C 0.51795 0.97093 0.53194 0.0
C359 C 0.51983 0.9748 0.58294 0.0
C360 C 0.51785 0.99518 0.50032 0.0
C361 C 0.52377 1.00322 0.60169 0.0
C362 C 0.52493 0.02732 0.57053 0.0
C363 C 0.51946 0.04792 0.48824 0.0
C364 C 0.51316 0.04416 0.43748 0.0
C365 C 0.52121 0.02364 0.51976 0.0
C366 C 0.51027 0.01571 0.41867 0.0
C367 C 0.51295 0.99153 0.44962 0.0
loop_
_geom_bond_atom_site_label_1
_geom_bond_atom_site_label_2
_geom_bond_distance
_geom_bond_site_symmetry_2
_ccdc_geom_bond_type
Co0 O1 2.216 . S
Co0 O2 2.091 . S
Co0 O4 2.004 . S
Co0 O10 2.021 1_455 S
Co0 O12 2.137 . S
Co0 O13 2.244 . S
O1 Co0 2.216 . S
O1 C8 1.247 . S
O2 Co0 2.091 . S
O2 C8 1.261 . S
C3 O12 1.247 . S
C3 O13 1.272 . S
O4 Co0 2.004 . S
O4 C9 1.259 . S
Co5 O6 2.061 . S
Co5 O11 2.052 1_455 S
Co5 O13 2.135 . S
O6 Co5 2.061 . S
O6 C9 1.235 . S
C7 O10 1.238 . S
C7 O11 1.241 . S
C8 O1 1.247 . S
C8 O2 1.261 . S
C9 O4 1.259 . S
C9 O6 1.235 . S
O10 Co0 2.021 1_655 S
O10 C7 1.238 . S
O11 Co5 2.052 1_655 S
O11 C7 1.241 . S
O12 Co0 2.137 . S
O12 C3 1.247 . S
O13 Co0 2.244 . S
O13 C3 1.272 . S
O13 Co5 2.135 . S
Co14 O15 2.216 . S
Co14 O16 2.091 . S
Co14 O18 2.004 . S
Co14 O24 2.021 . S
Co14 O26 2.137 1_455 S
Co14 O27 2.244 1_455 S
O15 Co14 2.216 . S
O15 C22 1.247 . S
O16 Co14 2.091 . S
O16 C22 1.261 . S
C17 O26 1.247 . S
C17 O27 1.272 . S
O18 Co14 2.004 . S
O18 C23 1.259 . S
Co19 O20 2.061 . S
Co19 O25 2.052 . S
Co19 O27 2.135 1_455 S
O20 Co19 2.061 . S
O20 C23 1.235 . S
C21 O24 1.238 . S
C21 O25 1.241 . S
C22 O15 1.247 . S
C22 O16 1.261 . S
C23 O18 1.259 . S
C23 O20 1.235 . S
O24 Co14 2.021 . S
O24 C21 1.238 . S
O25 Co19 2.052 . S
O25 C21 1.241 . S
O26 Co14 2.137 1_655 S
O26 C17 1.247 . S
O27 Co14 2.244 1_655 S
O27 C17 1.272 . S
O27 Co19 2.135 1_655 S
Co28 O29 2.216 . S
Co28 O30 2.091 . S
Co28 O32 2.004 . S
Co28 O38 2.021 1_455 S
Co28 O40 2.137 . S
Co28 O41 2.244 . S
O29 Co28 2.216 . S
O29 C36 1.247 . S
O30 Co28 2.091 . S
O30 C36 1.261 . S
C31 O40 1.247 . S
C31 O41 1.272 . S
O32 Co28 2.004 . S
O32 C37 1.259 . S
Co33 O34 2.061 . S
Co33 O39 2.052 1_455 S
Co33 O41 2.135 . S
O34 Co33 2.061 . S
O34 C37 1.235 . S
C35 O38 1.238 . S
C35 O39 1.241 . S
C36 O29 1.247 . S
C36 O30 1.261 . S
C37 O32 1.259 . S
C37 O34 1.235 . S
O38 Co28 2.021 1_655 S
O38 C35 1.238 . S
O39 Co33 2.052 1_655 S
O39 C35 1.241 . S
O40 Co28 2.137 . S
O40 C31 1.247 . S
O41 Co28 2.244 . S
O41 C31 1.272 . S
O41 Co33 2.135 . S
Co42 O43 2.216 . S
Co42 O44 2.091 . S
Co42 O46 2.004 . S
Co42 O52 2.021 . S
Co42 O54 2.137 1_455 S
Co42 O55 2.244 1_455 S
O43 Co42 2.216 . S
O43 C50 1.247 . S
O44 Co42 2.091 . S
O44 C50 1.261 . S
C45 O54 1.247 . S
C45 O55 1.272 . S
O46 Co42 2.004 . S
O46 C51 1.259 . S
Co47 O48 2.061 . S
Co47 O53 2.052 . S
Co47 O55 2.135 1_455 S
O48 Co47 2.061 . S
O48 C51 1.235 . S
C49 O52 1.238 . S
C49 O53 1.241 . S
C50 O43 1.247 . S
C50 O44 1.261 . S
C51 O46 1.259 . S
C51 O48 1.235 . S
O52 Co42 2.021 . S
O52 C49 1.238 . S
O53 Co47 2.052 . S
O53 C49 1.241 . S
O54 Co42 2.137 1_655 S
O54 C45 1.247 . S
O55 Co42 2.244 1_655 S
O55 C45 1.272 . S
O55 Co47 2.135 1_655 S
Co56 O57 2.216 . S
Co56 O58 2.091 . S
Co56 O60 2.004 . S
Co56 O66 2.021 . S
Co56 O68 2.137 . S
Co56 O69 2.244 . S
O57 Co56 2.216 . S
O57 C64 1.247 . S
O58 Co56 2.091 . S
O58 C64 1.261 . S
C59 O68 1.247 . S
C59 O69 1.272 . S
O60 Co56 2.004 . S
O60 C65 1.259 . S
Co61 O62 2.061 . S
Co61 O67 2.052 . S
Co61 O69 2.135 . S
O62 Co61 2.061 . S
O62 C65 1.235 . S
C63 O66 1.238 . S
C63 O67 1.241 . S
C64 O57 1.247 . S
C64 O58 1.261 . S
C65 O60 1.259 . S
C65 O62 1.235 . S
O66 Co56 2.021 . S
O66 C63 1.238 . S
O67 Co61 2.052 . S
O67 C63 1.241 . S
O68 Co56 2.137 . S
O68 C59 1.247 . S
O69 Co56 2.244 . S
O69 C59 1.272 . S
O69 Co61 2.135 . S
Co70 O71 2.216 . S
Co70 O72 2.091 . S
Co70 O74 2.004 . S
Co70 O80 2.021 . S
Co70 O82 2.137 . S
Co70 O83 2.244 . S
O71 Co70 2.216 . S
O71 C78 1.247 . S
O72 Co70 2.091 . S
O72 C78 1.261 . S
C73 O82 1.247 . S
C73 O83 1.272 . S
O74 Co70 2.004 . S
O74 C79 1.259 . S
Co75 O76 2.061 . S
Co75 O81 2.052 . S
Co75 O83 2.135 . S
O76 Co75 2.061 . S
O76 C79 1.235 . S
C77 O80 1.238 . S
C77 O81 1.241 . S
C78 O71 1.247 . S
C78 O72 1.261 . S
C79 O74 1.259 . S
C79 O76 1.235 . S
O80 Co70 2.021 . S
O80 C77 1.238 . S
O81 Co75 2.052 . S
O81 C77 1.241 . S
O82 Co70 2.137 . S
O82 C73 1.247 . S
O83 Co70 2.244 . S
O83 C73 1.272 . S
O83 Co75 2.135 . S
Co84 O85 2.216 . S
Co84 O86 2.091 . S
Co84 O88 2.004 . S
Co84 O94 2.021 . S
Co84 O96 2.137 . S
Co84 O97 2.244 . S
O85 Co84 2.216 . S
O85 C92 1.247 . S
O86 Co84 2.091 . S
O86 C92 1.261 . S
C87 O96 1.247 . S
C87 O97 1.272 . S
O88 Co84 2.004 . S
O88 C93 1.259 . S
Co89 O90 2.061 . S
Co89 O95 2.052 . S
Co89 O97 2.135 . S
O90 Co89 2.061 . S
O90 C93 1.235 . S
C91 O94 1.238 . S
C91 O95 1.241 . S
C92 O85 1.247 . S
C92 O86 1.261 . S
C93 O88 1.259 . S
C93 O90 1.235 . S
O94 Co84 2.021 . S
O94 C91 1.238 . S
O95 Co89 2.052 . S
O95 C91 1.241 . S
O96 Co84 2.137 . S
O96 C87 1.247 . S
O97 Co84 2.244 . S
O97 C87 1.272 . S
O97 Co89 2.135 . S
Co98 O99 2.216 . S
Co98 O100 2.091 . S
Co98 O102 2.004 . S
Co98 O108 2.021 . S
Co98 O110 2.137 . S
Co98 O111 2.244 . S
O99 Co98 2.216 . S
O99 C106 1.247 . S
O100 Co98 2.091 . S
O100 C106 1.261 . S
C101 O110 1.247 . S
C101 O111 1.272 . S
O102 Co98 2.004 . S
O102 C107 1.259 . S
Co103 O104 2.061 . S
Co103 O109 2.052 . S
Co103 O111 2.135 . S
O104 Co103 2.061 . S
O104 C107 1.235 . S
C105 O108 1.238 . S
C105 O109 1.241 . S
C106 O99 1.247 . S
C106 O100 1.261 . S
C107 O102 1.259 . S
C107 O104 1.235 . S
O108 Co98 2.021 . S
O108 C105 1.238 . S
O109 Co103 2.052 . S
O109 C105 1.241 . S
O110 Co98 2.137 . S
O110 C101 1.247 . S
O111 Co98 2.244 . S
O111 C101 1.272 . S
O111 Co103 2.135 . S
H112 C118 0.930 . S
H113 C121 0.930 . S
H114 C122 0.930 . S
H115 C123 0.930 . S
H116 C126 0.930 . S
H117 C127 0.930 . S
C118 H112 0.930 . S
C118 C119 1.355 1_655 S
C118 C120 1.415 . S
C119 C118 1.355 1_455 S
C119 C121 1.419 . S
C120 C118 1.415 . S
C120 C125 1.425 1_655 S
C120 C127 1.409 . S
C121 H113 0.930 . S
C121 C119 1.419 . S
C121 C122 1.362 . S
C122 H114 0.930 . S
C122 C121 1.362 . S
C122 C125 1.409 . S
C123 H115 0.930 . S
C123 C124 1.355 . S
C123 C125 1.415 . S
C124 C123 1.355 . S
C124 C126 1.419 1_455 S
C125 C120 1.425 1_455 S
C125 C122 1.409 . S
C125 C123 1.415 . S
C126 H116 0.930 . S
C126 C124 1.419 1_655 S
C126 C127 1.362 . S
C127 H117 0.930 . S
C127 C120 1.409 . S
C127 C126 1.362 . S
H128 C134 0.930 . S
H129 C137 0.930 . S
H130 C138 0.930 . S
H131 C139 0.930 . S
H132 C142 0.930 . S
H133 C143 0.930 . S
C134 H128 0.930 . S
C134 C135 1.355 . S
C134 C136 1.415 . S
C135 C134 1.355 . S
C135 C137 1.419 1_455 S
C136 C134 1.415 . S
C136 C141 1.425 1_455 S
C136 C143 1.409 . S
C137 H129 0.930 . S
C137 C135 1.419 1_655 S
C137 C138 1.362 . S
C138 H130 0.930 . S
C138 C137 1.362 . S
C138 C141 1.409 . S
C139 H131 0.930 . S
C139 C140 1.355 1_655 S
C139 C141 1.415 . S
C140 C139 1.355 1_455 S
C140 C142 1.419 . S
C141 C136 1.425 1_655 S
C141 C138 1.409 . S
C141 C139 1.415 . S
C142 H132 0.930 . S
C142 C140 1.419 . S
C142 C143 1.362 . S
C143 H133 0.930 . S
C143 C136 1.409 . S
C143 C142 1.362 . S
H144 C150 0.930 . S
H145 C153 0.930 . S
H146 C154 0.930 . S
H147 C155 0.930 . S
H148 C158 0.930 . S
H149 C159 0.930 . S
C150 H144 0.930 . S
C150 C151 1.355 . S
C150 C152 1.415 . S
C151 C150 1.355 . S
C151 C153 1.419 . S
C152 C150 1.415 . S
C152 C157 1.425 . S
C152 C159 1.409 . S
C153 H145 0.930 . S
C153 C151 1.419 . S
C153 C154 1.362 . S
C154 H146 0.930 . S
C154 C153 1.362 . S
C154 C157 1.409 . S
C155 H147 0.930 . S
C155 C156 1.355 . S
C155 C157 1.415 . S
C156 C155 1.355 . S
C156 C158 1.419 . S
C157 C152 1.425 . S
C157 C154 1.409 . S
C157 C155 1.415 . S
C158 H148 0.930 . S
C158 C156 1.419 . S
C158 C159 1.362 . S
C159 H149 0.930 . S
C159 C152 1.409 . S
C159 C158 1.362 . S
H160 C166 0.930 . S
H161 C169 0.930 . S
H162 C170 0.930 . S
H163 C171 0.930 . S
H164 C174 0.930 . S
H165 C175 0.930 . S
C166 H160 0.930 . S
C166 C167 1.355 . S
C166 C168 1.415 . S
C167 C166 1.355 . S
C167 C169 1.419 . S
C168 C166 1.415 . S
C168 C173 1.425 . S
C168 C175 1.409 . S
C169 H161 0.930 . S
C169 C167 1.419 . S
C169 C170 1.362 . S
C170 H162 0.930 . S
C170 C169 1.362 . S
C170 C173 1.409 . S
C171 H163 0.930 . S
C171 C172 1.355 . S
C171 C173 1.415 . S
C172 C171 1.355 . S
C172 C174 1.419 . S
C173 C168 1.425 . S
C173 C170 1.409 . S
C173 C171 1.415 . S
C174 H164 0.930 . S
C174 C172 1.419 . S
C174 C175 1.362 . S
C175 H165 0.930 . S
C175 C168 1.409 . S
C175 C174 1.362 . S
H176 C182 0.930 . S
H177 C185 0.930 . S
H178 C186 0.930 . S
H179 C187 0.930 . S
H180 C190 0.930 . S
H181 C191 0.930 . S
C182 H176 0.930 . S
C182 C183 1.355 . S
C182 C184 1.415 . S
C183 C182 1.355 . S
C183 C185 1.419 . S
C184 C182 1.415 . S
C184 C189 1.425 . S
C184 C191 1.409 . S
C185 H177 0.930 . S
C185 C183 1.419 . S
C185 C186 1.362 . S
C186 H178 0.930 . S
C186 C185 1.362 . S
C186 C189 1.409 . S
C187 H179 0.930 . S
C187 C188 1.355 . S
C187 C189 1.415 . S
C188 C187 1.355 . S
C188 C190 1.419 . S
C189 C184 1.425 . S
C189 C186 1.409 . S
C189 C187 1.415 . S
C190 H180 0.930 . S
C190 C188 1.419 . S
C190 C191 1.362 . S
C191 H181 0.930 . S
C191 C184 1.409 . S
C191 C190 1.362 . S
H192 C198 0.930 . S
H193 C201 0.930 . S
H194 C202 0.930 . S
H195 C203 0.930 . S
H196 C206 0.930 . S
H197 C207 0.930 . S
C198 H192 0.930 . S
C198 C199 1.355 . S
C198 C200 1.415 . S
C199 C198 1.355 . S
C199 C201 1.419 . S
C200 C198 1.415 . S
C200 C205 1.425 . S
C200 C207 1.409 . S
C201 H193 0.930 . S
C201 C199 1.419 . S
C201 C202 1.362 . S
C202 H194 0.930 . S
C202 C201 1.362 . S
C202 C205 1.409 . S
C203 H195 0.930 . S
C203 C204 1.355 . S
C203 C205 1.415 . S
C204 C203 1.355 . S
C204 C206 1.419 . S
C205 C200 1.425 . S
C205 C202 1.409 . S
C205 C203 1.415 . S
C206 H196 0.930 . S
C206 C204 1.419 . S
C206 C207 1.362 . S
C207 H197 0.930 . S
C207 C200 1.409 . S
C207 C206 1.362 . S
H208 C214 0.930 . S
H209 C217 0.930 . S
H210 C218 0.930 . S
H211 C219 0.930 . S
H212 C222 0.930 . S
H213 C223 0.930 . S
C214 H208 0.930 . S
C214 C215 1.355 . S
C214 C216 1.415 . S
C215 C214 1.355 . S
C215 C217 1.419 . S
C216 C214 1.415 . S
C216 C221 1.425 . S
C216 C223 1.409 . S
C217 H209 0.930 . S
C217 C215 1.419 . S
C217 C218 1.362 . S
C218 H210 0.930 . S
C218 C217 1.362 . S
C218 C221 1.409 . S
C219 H211 0.930 . S
C219 C220 1.355 . S
C219 C221 1.415 . S
C220 C219 1.355 . S
C220 C222 1.419 . S
C221 C216 1.425 . S
C221 C218 1.409 . S
C221 C219 1.415 . S
C222 H212 0.930 . S
C222 C220 1.419 . S
C222 C223 1.362 . S
C223 H213 0.930 . S
C223 C216 1.409 . S
C223 C222 1.362 . S
H224 C230 0.930 . S
H225 C233 0.930 . S
H226 C234 0.930 . S
H227 C235 0.930 . S
H228 C238 0.930 . S
H229 C239 0.930 . S
C230 H224 0.930 . S
C230 C231 1.355 . S
C230 C232 1.415 . S
C231 C230 1.355 . S
C231 C233 1.419 . S
C232 C230 1.415 . S
C232 C237 1.425 . S
C232 C239 1.409 . S
C233 H225 0.930 . S
C233 C231 1.419 . S
C233 C234 1.362 . S
C234 H226 0.930 . S
C234 C233 1.362 . S
C234 C237 1.409 . S
C235 H227 0.930 . S
C235 C236 1.355 . S
C235 C237 1.415 . S
C236 C235 1.355 . S
C236 C238 1.419 . S
C237 C232 1.425 . S
C237 C234 1.409 . S
C237 C235 1.415 . S
C238 H228 0.930 . S
C238 C236 1.419 . S
C238 C239 1.362 . S
C239 H229 0.930 . S
C239 C232 1.409 . S
C239 C238 1.362 . S
H240 C246 0.930 . S
H241 C249 0.930 . S
H242 C250 0.930 . S
H243 C251 0.930 . S
H244 C254 0.930 . S
H245 C255 0.930 . S
C246 H240 0.930 . S
C246 C247 1.355 . S
C246 C248 1.415 . S
C247 C246 1.355 . S
C247 C249 1.419 . S
C248 C246 1.415 . S
C248 C253 1.425 . S
C248 C255 1.409 . S
C249 H241 0.930 . S
C249 C247 1.419 . S
C249 C250 1.362 . S
C250 H242 0.930 . S
C250 C249 1.362 . S
C250 C253 1.409 . S
C251 H243 0.930 . S
C251 C252 1.355 . S
C251 C253 1.415 . S
C252 C251 1.355 . S
C252 C254 1.419 . S
C253 C248 1.425 . S
C253 C250 1.409 . S
C253 C251 1.415 . S
C254 H244 0.930 . S
C254 C252 1.419 . S
C254 C255 1.362 . S
C255 H245 0.930 . S
C255 C248 1.409 . S
C255 C254 1.362 . S
H256 C262 0.930 . S
H257 C265 0.930 . S
H258 C266 0.930 . S
H259 C267 0.930 . S
H260 C270 0.930 . S
H261 C271 0.930 . S
C262 H256 0.930 . S
C262 C263 1.355 . S
C262 C264 1.415 . S
C263 C262 1.355 . S
C263 C265 1.419 . S
C264 C262 1.415 . S
C264 C269 1.425 . S
C264 C271 1.409 . S
C265 H257 0.930 . S
C265 C263 1.419 . S
C265 C266 1.362 . S
C266 H258 0.930 . S
C266 C265 1.362 . S
C266 C269 1.409 . S
C267 H259 0.930 . S
C267 C268 1.355 . S
C267 C269 1.415 . S
C268 C267 1.355 . S
C268 C270 1.419 . S
C269 C264 1.425 . S
C269 C266 1.409 . S
C269 C267 1.415 . S
C270 H260 0.930 . S
C270 C268 1.419 . S
C270 C271 1.362 . S
C271 H261 0.930 . S
C271 C264 1.409 . S
C271 C270 1.362 . S
H272 C278 0.930 . S
H273 C281 0.930 . S
H274 C282 0.930 . S
H275 C283 0.930 . S
H276 C286 0.930 . S
H277 C287 0.930 . S
C278 H272 0.930 . S
C278 C279 1.355 . S
C278 C280 1.415 . S
C279 C278 1.355 . S
C279 C281 1.419 . S
C280 C278 1.415 . S
C280 C285 1.425 . S
C280 C287 1.409 . S
C281 H273 0.930 . S
C281 C279 1.419 . S
C281 C282 1.362 . S
C282 H274 0.930 . S
C282 C281 1.362 . S
C282 C285 1.409 . S
C283 H275 0.930 . S
C283 C284 1.355 . S
C283 C285 1.415 . S
C284 C283 1.355 . S
C284 C286 1.419 . S
C285 C280 1.425 . S
C285 C282 1.409 . S
C285 C283 1.415 . S
C286 H276 0.930 . S
C286 C284 1.419 . S
C286 C287 1.362 . S
C287 H277 0.930 . S
C287 C280 1.409 . S
C287 C286 1.362 . S
H288 C294 0.930 . S
H289 C297 0.930 . S
H290 C298 0.930 . S
H291 C299 0.930 . S
H292 C302 0.930 . S
H293 C303 0.930 . S
C294 H288 0.930 . S
C294 C295 1.355 . S
C294 C296 1.415 . S
C295 C294 1.355 . S
C295 C297 1.419 . S
C296 C294 1.415 . S
C296 C301 1.425 . S
C296 C303 1.409 . S
C297 H289 0.930 . S
C297 C295 1.419 . S
C297 C298 1.362 . S
C298 H290 0.930 . S
C298 C297 1.362 . S
C298 C301 1.409 . S
C299 H291 0.930 . S
C299 C300 1.355 . S
C299 C301 1.415 . S
C300 C299 1.355 . S
C300 C302 1.419 . S
C301 C296 1.425 . S
C301 C298 1.409 . S
C301 C299 1.415 . S
C302 H292 0.930 . S
C302 C300 1.419 . S
C302 C303 1.362 . S
C303 H293 0.930 . S
C303 C296 1.409 . S
C303 C302 1.362 . S
H304 C310 0.930 . S
H305 C313 0.930 . S
H306 C314 0.930 . S
H307 C315 0.930 . S
H308 C318 0.930 . S
H309 C319 0.930 . S
C310 H304 0.930 . S
C310 C311 1.355 1_655 S
C310 C312 1.417 1_545 S
C311 C310 1.355 1_455 S
C311 C313 1.419 . S
C312 C310 1.417 1_565 S
C312 C317 1.425 1_664 S
C312 C319 1.407 . S
C313 H305 0.930 . S
C313 C311 1.419 . S
C313 C314 1.362 1_554 S
C314 H306 0.930 . S
C314 C313 1.362 1_556 S
C314 C317 1.407 . S
C315 H307 0.930 . S
C315 C316 1.355 . S
C315 C317 1.417 1_565 S
C316 C315 1.355 . S
C316 C318 1.419 1_455 S
C317 C312 1.425 1_446 S
C317 C314 1.407 . S
C317 C315 1.417 1_545 S
C318 H308 0.930 . S
C318 C316 1.419 1_655 S
C318 C319 1.362 1_556 S
C319 H309 0.930 . S
C319 C312 1.407 . S
C319 C318 1.362 1_554 S
H320 C326 0.930 . S
H321 C329 0.930 . S
H322 C330 0.930 . S
H323 C331 0.930 . S
H324 C334 0.930 . S
H325 C335 0.930 . S
C326 H320 0.930 . S
C326 C327 1.355 . S
C326 C328 1.415 . S
C327 C326 1.355 . S
C327 C329 1.419 1_455 S
C328 C326 1.415 . S
C328 C333 1.425 1_456 S
C328 C335 1.409 1_556 S
C329 H321 0.930 . S
C329 C327 1.419 1_655 S
C329 C330 1.362 . S
C330 H322 0.930 . S
C330 C329 1.362 . S
C330 C333 1.409 1_556 S
C331 H323 0.930 . S
C331 C332 1.355 1_655 S
C331 C333 1.415 . S
C332 C331 1.355 1_455 S
C332 C334 1.419 . S
C333 C328 1.425 1_654 S
C333 C330 1.409 1_554 S
C333 C331 1.415 . S
C334 H324 0.930 . S
C334 C332 1.419 . S
C334 C335 1.362 . S
C335 H325 0.930 . S
C335 C328 1.409 1_554 S
C335 C334 1.362 . S
H336 C342 0.930 . S
H337 C345 0.930 . S
H338 C346 0.930 . S
H339 C347 0.930 . S
H340 C350 0.930 . S
H341 C351 0.930 . S
C342 H336 0.930 . S
C342 C343 1.355 . S
C342 C344 1.415 . S
C343 C342 1.355 . S
C343 C345 1.419 . S
C344 C342 1.415 . S
C344 C349 1.425 . S
C344 C351 1.409 . S
C345 H337 0.930 . S
C345 C343 1.419 . S
C345 C346 1.362 . S
C346 H338 0.930 . S
C346 C345 1.362 . S
C346 C349 1.409 . S
C347 H339 0.930 . S
C347 C348 1.355 . S
C347 C349 1.415 . S
C348 C347 1.355 . S
C348 C350 1.419 . S
C349 C344 1.425 . S
C349 C346 1.409 . S
C349 C347 1.415 . S
C350 H340 0.930 . S
C350 C348 1.419 . S
C350 C351 1.362 . S
C351 H341 0.930 . S
C351 C344 1.409 . S
C351 C350 1.362 . S
H352 C358 0.930 . S
H353 C361 0.930 . S
H354 C362 0.930 1_545 S
H355 C363 0.930 . S
H356 C366 0.930 . S
H357 C367 0.930 1_565 S
C358 H352 0.930 . S
C358 C359 1.355 . S
C358 C360 1.415 . S
C359 C358 1.355 . S
C359 C361 1.419 . S
C360 C358 1.415 . S
C360 C365 1.425 1_565 S
C360 C367 1.409 1_565 S
C361 H353 0.930 . S
C361 C359 1.419 . S
C361 C362 1.362 . S
C362 H354 0.930 1_565 S
C362 C361 1.362 . S
C362 C365 1.409 1_565 S
C363 H355 0.930 . S
C363 C364 1.355 . S
C363 C365 1.415 . S
C364 C363 1.355 . S
C364 C366 1.419 . S
C365 C360 1.425 1_545 S
C365 C362 1.409 1_545 S
C365 C363 1.415 . S
C366 H356 0.930 . S
C366 C364 1.419 . S
C366 C367 1.362 . S
C367 H357 0.930 1_545 S
C367 C360 1.409 1_545 S
C367 C366 1.362 . S
C119 C23 1.426 . S
C124 C9 1.418 . S
C135 C37 1.396 . S
C140 C51 1.445 . S
C151 C65 1.445 . S
C156 C79 1.393 . S
C167 C93 1.424 . S
C172 C107 1.420 . S
C183 C101 1.458 . S
C188 C3 1.452 . S
C199 C87 1.429 . S
C204 C17 1.427 . S
C215 C31 1.453 . S
C220 C73 1.458 . S
C231 C59 1.457 . S
C236 C45 1.453 . S
C247 C77 1.345 . S
C252 C35 1.375 . S
C263 C63 1.347 . S
C268 C49 1.371 . S
C279 C105 1.404 . S
C284 C7 1.378 . S
C295 C21 1.388 . S
C300 C91 1.344 . S
C311 C8 1.379 . S
C316 C36 1.390 . S
C327 C50 1.381 . S
C332 C22 1.391 . S
C343 C92 1.387 . S
C348 C64 1.387 . S
C359 C78 1.382 . S
C364 C106 1.390 . S
