# Generated by pormake.
# Topology bcg, (8)-cn, num edge types: 1
# Building blocks:
#     Node 0, Type 0, BuildingBlock: HISSIN_clean_sbu_1, # of connection points: 8
#     Node 1, Type 0, BuildingBlock: HISSIN_clean_sbu_1, # of connection points: 8
#     Node 2, Type 0, BuildingBlock: HISSIN_clean_sbu_1, # of connection points: 8
#     Node 3, Type 0, BuildingBlock: HISSIN_clean_sbu_1, # of connection points: 8
#     Edge 4, Type (0, 0), BuildingBlock: AJUNOK_clean_linker_0, # of connection points: 2
#     Edge 5, Type (0, 0), BuildingBlock: AJUNOK_clean_linker_0, # of connection points: 2
#     Edge 6, Type (0, 0), BuildingBlock: AJUNOK_clean_linker_0, # of connection points: 2
#     Edge 7, Type (0, 0), BuildingBlock: AJUNOK_clean_linker_0, # of connection points: 2
#     Edge 8, Type (0, 0), BuildingBlock: AJUNOK_clean_linker_0, # of connection points: 2
#     Edge 9, Type (0, 0), BuildingBlock: AJUNOK_clean_linker_0, # of connection points: 2
#     Edge 10, Type (0, 0), BuildingBlock: AJUNOK_clean_linker_0, # of connection points: 2
#     Edge 11, Type (0, 0), BuildingBlock: AJUNOK_clean_linker_0, # of connection points: 2
#     Edge 12, Type (0, 0), BuildingBlock: AJUNOK_clean_linker_0, # of connection points: 2
#     Edge 13, Type (0, 0), BuildingBlock: AJUNOK_clean_linker_0, # of connection points: 2
#     Edge 14, Type (0, 0), BuildingBlock: AJUNOK_clean_linker_0, # of connection points: 2
#     Edge 15, Type (0, 0), BuildingBlock: AJUNOK_clean_linker_0, # of connection points: 2
#     Edge 16, Type (0, 0), BuildingBlock: AJUNOK_clean_linker_0, # of connection points: 2
#     Edge 17, Type (0, 0), BuildingBlock: AJUNOK_clean_linker_0, # of connection points: 2
#     Edge 18, Type (0, 0), BuildingBlock: AJUNOK_clean_linker_0, # of connection points: 2
#     Edge 19, Type (0, 0), BuildingBlock: AJUNOK_clean_linker_0, # of connection points: 2
# Relax obj value: 0.197
# Max RMSD: 0.288
# Mean RMSD: 0.288
data_MOF--net-bcg--node1-HISSIN_clean_sbu_1--edge1-AJUNOK_clean_linker_0
_symmetry_space_group_name_H-M    P1
_symmetry_Int_Tables_number       1
_symmetry_cell_setting            triclinic
loop_
_symmetry_equiv_pos_as_xyz
'x, y, z'
_cell_length_a     17.307122
_cell_length_b     11.675303
_cell_length_c     26.14682
_cell_angle_alpha  80.684844
_cell_angle_beta   90.257696
_cell_angle_gamma 89.249309
loop_
_atom_site_label
_atom_site_type_symbol
_atom_site_fract_x
_atom_site_fract_y
_atom_site_fract_z
_atom_type_partial_charge
Eu0 Eu 0.35005 0.09567 0.0518 0.0
C1 C 0.38675 0.34473 1.00901 0.0
O2 O 0.38655 0.04632 0.13438 0.0
C3 C 0.0709 0.26674 0.06384 0.0
C4 C 0.92861 0.20876 0.11094 0.0
C5 C 1.0113 0.22398 0.03586 0.0
C6 C 0.93887 0.19865 0.05868 0.0
C7 C 0.05938 0.27657 0.11646 0.0
C8 C 0.98789 0.24684 0.14039 0.0
Eu9 Eu 0.23505 0.25217 0.96603 0.0
O10 O 0.23774 0.00465 0.05364 0.0
O11 O 0.18476 0.27074 0.88486 0.0
O12 O 0.35258 0.33789 0.96447 0.0
O13 O 0.22533 0.06028 0.96738 0.0
C14 C 0.22963 0.24506 0.84761 0.0
O15 O 0.3031 0.22218 0.858 0.0
O16 O 0.20346 0.23531 0.04771 0.0
C17 C 0.14388 0.30601 0.03779 0.0
C18 C 0.35634 0.10388 0.16879 0.0
O19 O 0.30331 0.18407 0.15403 0.0
O20 O 0.13953 0.355 0.98874 0.0
O21 O 0.35687 0.28633 0.05083 0.0
C22 C 0.44522 0.04154 0.98331 0.0
O23 O 0.38071 0.09981 0.97078 0.0
C24 C 0.5149 0.08173 0.95386 0.0
C25 C 0.65269 0.11633 0.89936 0.0
C26 C 0.58303 0.10423 0.97966 0.0
C27 C 0.65249 0.12231 0.95236 0.0
C28 C 0.51468 0.08993 0.89939 0.0
C29 C 0.5839 0.10907 0.87144 0.0
C30 C 0.20202 -0.00344 1.01024 0.0
O31 O 0.45283 0.00286 0.03331 0.0
H32 H 0.87275 0.19039 0.12873 0.0
H33 H 1.02091 0.21334 0.99598 0.0
H34 H 0.10489 0.31062 0.13808 0.0
H35 H 0.70747 0.11835 0.87936 0.0
H36 H 0.58242 0.1044 0.02109 0.0
H37 H 0.46081 0.08107 0.87937 0.0
Eu38 Eu 0.85881 0.58764 0.05652 0.0
C39 C 0.88634 0.84282 1.00954 0.0
O40 O 0.91669 0.5668 0.13528 0.0
C41 C 0.57754 0.77057 0.06946 0.0
C42 C 0.43375 0.73237 0.11507 0.0
C43 C 0.51575 0.73554 0.04072 0.0
C44 C 0.44265 0.71763 0.06336 0.0
C45 C 0.56885 0.77618 0.12227 0.0
C46 C 0.49725 0.7533 0.14581 0.0
Eu47 Eu 0.7365 0.75027 0.97163 0.0
O48 O 0.7432 0.49767 0.05742 0.0
O49 O 0.6772 0.7864 0.89499 0.0
O50 O 0.85133 0.83653 0.96568 0.0
O51 O 0.73196 0.5594 0.97125 0.0
C52 C 0.72094 0.80883 0.85411 0.0
O53 O 0.79581 0.817 0.86085 0.0
O54 O 0.70772 0.72876 0.05364 0.0
C55 C 0.65092 0.8049 0.04475 0.0
C56 C 0.89334 0.63449 0.16793 0.0
O57 O 0.8339 0.70422 0.15451 0.0
O58 O 0.64711 0.85877 0.99655 0.0
O59 O 0.85955 0.78106 0.05174 0.0
C60 C 0.95 0.53387 0.98564 0.0
O61 O 0.89013 0.60378 0.97513 0.0
C62 C 1.02202 0.56994 0.95845 0.0
C63 C 0.16169 0.61165 0.90664 0.0
C64 C 0.0873 0.6015 0.98513 0.0
C65 C 0.15794 0.62253 0.95906 0.0
C66 C 1.02588 0.56903 0.90475 0.0
C67 C 0.09557 0.59296 0.87854 0.0
C68 C 0.70689 0.49427 0.01317 0.0
O69 O 0.9549 0.48511 0.03462 0.0
H70 H 0.37621 0.72857 0.13136 0.0
H71 H 0.52456 0.72476 1.00078 0.0
H72 H 0.61754 0.79876 0.14473 0.0
H73 H 0.21685 0.61786 0.88698 0.0
H74 H 0.08357 0.6068 0.02605 0.0
H75 H 0.97508 0.54967 0.88352 0.0
Eu76 Eu 0.34523 0.70814 0.49369 0.0
C77 C 0.39044 0.45414 0.5215 0.0
O78 O 0.37303 0.77636 0.41262 0.0
C79 C 0.07277 0.54054 0.46249 0.0
C80 C 0.92738 0.57613 0.4162 0.0
C81 C 1.00783 0.55696 0.49281 0.0
C82 C 0.93413 0.57416 0.46973 0.0
C83 C 0.06548 0.55726 0.40797 0.0
C84 C 0.99224 0.57733 0.38406 0.0
Eu85 Eu 0.23485 0.53873 0.56367 0.0
O86 O 0.23198 0.80166 0.49074 0.0
O87 O 0.17601 0.50587 0.64091 0.0
O88 O 0.35519 0.45492 0.56605 0.0
O89 O 0.21243 0.72415 0.57362 0.0
C90 C 0.20531 0.56259 0.67569 0.0
O91 O 0.27212 0.61347 0.66593 0.0
O92 O 0.20337 0.57938 0.4818 0.0
C93 C 0.14798 0.50275 0.48706 0.0
C94 C 0.3405 0.73309 0.37473 0.0
O95 O 0.28789 0.65279 0.38489 0.0
O96 O 0.14698 0.43692 0.53312 0.0
O97 O 0.36386 0.52528 0.48163 0.0
C98 C 0.44558 0.76408 0.55882 0.0
O99 O 0.38409 0.70243 0.57373 0.0
C100 C 0.51994 0.72425 0.58358 0.0
C101 C 0.66551 0.67031 0.62834 0.0
C102 C 0.5771 0.67182 0.55646 0.0
C103 C 0.65053 0.64549 0.57883 0.0
C104 C 0.53689 0.75018 0.63307 0.0
C105 C 0.61062 0.72548 0.65499 0.0
C106 C 0.19156 0.79828 0.53286 0.0
O107 O 0.44728 0.80225 0.50863 0.0
H108 H 0.87012 0.57885 0.39911 0.0
H109 H 1.01508 0.55463 0.5341 0.0
H110 H 0.117 0.55564 0.3849 0.0
H111 H 0.72249 0.65312 0.64535 0.0
H112 H 0.56549 0.65528 0.51755 0.0
H113 H 0.49405 0.79409 0.65333 0.0
Eu114 Eu 0.86584 0.21036 0.47085 0.0
C115 C 0.87176 -0.04814 0.52314 0.0
O116 O 0.9232 0.21814 0.39278 0.0
C117 C 0.584 0.05867 0.43736 0.0
C118 C 0.45297 0.13271 0.37854 0.0
C119 C 0.51682 0.08891 0.46156 0.0
C120 C 0.44921 0.12039 0.43285 0.0
C121 C 0.58778 0.07333 0.383 0.0
C122 C 0.52269 0.11378 0.35308 0.0
Eu123 Eu 0.71725 0.04675 0.55435 0.0
O124 O 0.75338 0.31479 0.46711 0.0
O125 O 0.64192 0.04968 0.62481 0.0
O126 O 0.83048 -0.04971 0.56529 0.0
O127 O 0.7406 0.23626 0.55016 0.0
C128 C 0.67035 0.11029 0.65863 0.0
O129 O 0.73927 0.15447 0.6495 0.0
O130 O 0.70495 0.08957 0.47082 0.0
C131 C 0.65081 0.01357 0.46895 0.0
C132 C 0.89319 0.28345 0.35163 0.0
O133 O 0.83145 0.34658 0.35758 0.0
O134 O 0.63733 -0.05111 0.51422 0.0
O135 O 0.84761 0.01766 0.4804 0.0
C136 C 0.96115 0.25072 0.54266 0.0
O137 O 0.90309 0.17966 0.55212 0.0
C138 C 1.03654 0.2109 0.56564 0.0
C139 C 0.18555 0.16103 0.60532 0.0
C140 C 0.09414 0.17448 0.53424 0.0
C141 C 0.16973 0.15475 0.553 0.0
C142 C 0.05344 0.22003 0.61768 0.0
C143 C 0.12827 0.19371 0.63834 0.0
C144 C 0.71354 0.30729 0.51024 0.0
O145 O 0.96145 0.30721 0.49483 0.0
H146 H 0.40064 0.14921 0.35561 0.0
H147 H 0.51697 0.08406 0.50331 0.0
H148 H 0.64047 0.05161 0.36422 0.0
H149 H 0.24389 0.14426 0.62002 0.0
H150 H 0.08062 0.1662 0.49449 0.0
H151 H 1.00926 0.25207 0.64117 0.0
C152 C 0.74496 0.07864 0.02744 0.0
C153 C 0.72612 0.14286 0.97872 0.0
C154 C 0.81602 0.09156 0.05124 0.0
C155 C 0.87067 0.17177 0.02806 0.0
H156 H 0.70475 0.01781 0.04767 0.0
H157 H 0.82756 0.03941 0.08872 0.0
S158 S 0.84744 0.36697 0.90165 0.0
N159 N 0.76616 0.29437 0.90913 0.0
N160 N 0.90047 0.31674 0.95317 0.0
C161 C 0.85274 0.23632 0.9791 0.0
C162 C 0.78011 0.22334 0.95492 0.0
C163 C 0.24932 0.58948 0.035 0.0
C164 C 0.22954 0.65065 0.98581 0.0
C165 C 0.31978 0.60823 0.05866 0.0
C166 C 0.37364 0.68827 0.034 0.0
H167 H 0.21075 0.52539 0.05514 0.0
H168 H 0.33215 0.55949 0.09678 0.0
S169 S 0.35012 0.86836 0.90403 0.0
N170 N 0.26838 0.79769 0.91389 0.0
N171 N 0.40363 0.82323 0.95592 0.0
C172 C 0.35551 0.74697 0.98406 0.0
C173 C 0.28262 0.73134 0.96081 0.0
C174 C 0.73305 0.67807 0.50042 0.0
C175 C 0.71695 0.61175 0.54875 0.0
C176 C 0.80422 0.66767 0.47646 0.0
C177 C 0.8624 0.58994 0.49955 0.0
H178 H 0.69191 0.74267 0.48202 0.0
H179 H 0.81415 0.72307 0.43973 0.0
S180 S 0.84858 0.39866 0.62736 0.0
N181 N 0.76318 0.46321 0.61859 0.0
N182 N 0.89923 0.45088 0.57573 0.0
C183 C 0.84707 0.52436 0.54841 0.0
C184 C 0.77359 0.5324 0.57209 0.0
C185 C 0.2939 0.05877 0.53565 0.0
C186 C 0.23449 0.13788 0.5177 0.0
C187 C 0.36213 0.05491 0.50798 0.0
C188 C 0.37441 0.12848 0.46047 0.0
H189 H 0.28855 0.00085 0.57225 0.0
H190 H 0.406 -0.00564 0.525 0.0
S191 S 0.2344 0.34838 0.39464 0.0
N192 N 0.18967 0.28763 0.44754 0.0
N193 N 0.31967 0.28326 0.3964 0.0
C194 C 0.31428 0.20601 0.44106 0.0
C195 C 0.2439 0.20933 0.46922 0.0
C196 C 0.57817 0.48795 0.96931 0.0
C197 C 0.62729 0.44852 0.01207 0.0
C198 C 0.50043 0.45546 0.96883 0.0
C199 C 0.46842 0.38221 1.01103 0.0
H200 H 0.59923 0.54675 0.93614 0.0
H201 H 0.46504 0.48884 0.9353 0.0
S202 S 0.57455 0.24506 0.13012 0.0
N203 N 0.6396 0.32594 0.09595 0.0
N204 N 0.49401 0.26445 0.0956 0.0
C205 C 0.51748 0.33985 0.05358 0.0
C206 C 0.59669 0.37286 0.05389 0.0
C207 C 0.5943 0.34484 0.55938 0.0
C208 C 0.63111 0.34587 0.51122 0.0
C209 C 0.51559 0.37374 0.56271 0.0
C210 C 0.47012 0.40573 0.51791 0.0
H211 H 0.62689 0.32314 0.59511 0.0
H212 H 0.49106 0.37469 0.60067 0.0
S213 S 0.53718 0.41846 0.38202 0.0
N214 N 0.61489 0.37861 0.41764 0.0
N215 N 0.46751 0.43319 0.42346 0.0
C216 C 0.5059 0.40547 0.46937 0.0
C217 C 0.58615 0.37612 0.46609 0.0
C218 C 0.08626 -0.06297 0.96494 0.0
C219 C 0.12367 -0.05128 0.01164 0.0
C220 C 1.00848 0.90661 0.96421 0.0
C221 C 0.9655 0.88676 1.0102 0.0
H222 H 0.11703 -0.04746 0.92852 0.0
H223 H 0.98244 0.89683 0.92744 0.0
S224 S 1.03535 0.91012 0.14256 0.0
N225 N 0.11127 -0.06028 0.10509 0.0
N226 N 0.96502 0.884 0.10347 0.0
C227 C 1.00204 0.8986 0.05714 0.0
C228 C 0.08127 -0.07132 0.05798 0.0
C229 C 0.99297 0.88893 0.57314 0.0
C230 C 0.95241 0.90924 0.52574 0.0
C231 C 0.07148 0.85719 0.57503 0.0
C232 C 0.11198 0.84568 0.52955 0.0
H233 H 0.96433 0.89903 0.60892 0.0
H234 H 0.10055 0.84098 0.61235 0.0
S235 S 1.0301 0.8817 0.39614 0.0
N236 N 0.95718 0.90964 0.43276 0.0
N237 N 0.1045 0.85279 0.43596 0.0
C238 C 0.07177 0.86556 0.48194 0.0
C239 C 0.99195 0.89627 0.48017 0.0
C240 C 0.48306 0.21677 0.26725 0.0
C241 C 0.5199 0.11804 0.29596 0.0
C242 C 0.4284 0.21083 0.22768 0.0
C243 C 0.39985 0.10528 0.21658 0.0
H244 H 0.49188 0.30066 0.27887 0.0
H245 H 0.40633 0.29175 0.20609 0.0
S246 S 0.52166 0.73842 0.30056 0.0
N247 N 0.55882 0.89895 0.30495 0.0
N248 N 0.40173 0.87471 0.24127 0.0
C249 C 0.43097 0.0036 0.24341 0.0
C250 C 0.51292 0.0119 0.27829 0.0
C251 C 0.51673 0.8623 0.22558 0.0
C252 C 0.48508 0.75701 0.20152 0.0
C253 C 0.43025 0.86467 0.31768 0.0
C254 C 0.3756 0.76115 0.32361 0.0
H255 H 0.55943 -0.0781 0.20592 0.0
H256 H 0.43215 -0.07874 0.34702 0.0
S257 S 0.34195 0.50702 0.248 0.0
N258 N 0.40677 0.57708 0.20956 0.0
N259 N 0.32726 0.5834 0.29473 0.0
C260 C 0.37466 0.67574 0.28342 0.0
C261 C 0.42292 0.67288 0.23093 0.0
C262 C 0.59082 0.72767 0.7494 0.0
C263 C 0.63411 0.76143 0.70441 0.0
C264 C 0.61734 0.74923 0.7976 0.0
C265 C 0.68879 0.8032 0.80237 0.0
H266 H 0.5373 0.68136 0.74757 0.0
H267 H 0.58305 0.71891 0.83153 0.0
S268 S 0.82349 0.90983 0.69597 0.0
N269 N 0.75075 0.85497 0.66732 0.0
N270 N 0.80104 0.89304 0.75792 0.0
C271 C 0.73162 0.83993 0.75747 0.0
C272 C 0.70435 0.81921 0.7085 0.0
C273 C 0.64327 0.20233 0.78873 0.0
C274 C 0.58872 0.12399 0.81353 0.0
C275 C 0.66537 0.20087 0.73774 0.0
C276 C 0.63222 0.12385 0.70812 0.0
H277 H 0.67264 0.26181 0.80978 0.0
H278 H 0.71136 0.25819 0.72226 0.0
S279 S 0.46288 -0.06137 0.74658 0.0
N280 N 0.48708 -0.01071 0.7998 0.0
N281 N 0.52543 -0.0067 0.70185 0.0
C282 C 0.5688 0.05852 0.72922 0.0
C283 C 0.54751 0.05735 0.78236 0.0
C284 C 0.91735 0.67809 0.30721 0.0
C285 C 0.9792 0.60295 0.32636 0.0
C286 C 0.89178 0.68895 0.25599 0.0
C287 C 0.92862 0.62922 0.22029 0.0
H288 H 0.8861 0.72705 0.33248 0.0
H289 H 0.84124 0.74312 0.24486 0.0
S290 S 0.1111 0.45779 0.24418 0.0
N291 N 0.08728 0.48777 0.30171 0.0
N292 N 1.04262 0.51706 0.20379 0.0
C293 C 0.99686 0.56631 0.23654 0.0
C294 C 1.0217 0.55173 0.28976 0.0
C295 C 0.87865 0.32875 0.25533 0.0
C296 C 0.92303 0.27851 0.29859 0.0
C297 C 0.90142 0.32012 0.2048 0.0
C298 C 0.9703 0.26234 0.19476 0.0
H299 H 0.8247 0.37358 0.26033 0.0
H300 H 0.86393 0.35827 0.17314 0.0
S301 S 0.10984 0.11997 0.29381 0.0
N302 N 1.0412 0.17167 0.32783 0.0
N303 N 0.08368 0.15545 0.23237 0.0
C304 C 1.01626 0.21332 0.2374 0.0
C305 C 0.99278 0.22149 0.28931 0.0
C306 C 0.24619 0.2704 0.75178 0.0
C307 C 0.19924 0.23652 0.79512 0.0
C308 C 0.22191 0.25816 0.70175 0.0
C309 C 0.15003 0.20899 0.69256 0.0
H310 H 0.30217 0.30801 0.75646 0.0
H311 H 0.26 0.2889 0.66987 0.0
S312 S 1.00806 0.09692 0.79407 0.0
N313 N 0.07858 0.14785 0.8264 0.0
N314 N 1.0338 0.1205 0.73251 0.0
C315 C 0.10277 0.17306 0.73591 0.0
C316 C 0.12718 0.1876 0.78704 0.0
C317 C 0.11349 0.49501 0.74813 0.0
C318 C 0.16205 0.58086 0.72226 0.0
C319 C 0.08574 0.50225 0.79801 0.0
C320 C 0.10312 0.59851 0.82187 0.0
H321 H 0.10092 0.41891 0.73119 0.0
H322 H 0.0551 0.42931 0.81913 0.0
S323 S 0.20378 0.86504 0.76198 0.0
N324 N 0.2108 0.77658 0.71887 0.0
N325 N 0.15469 0.79362 0.81072 0.0
C326 C 0.14149 0.69245 0.79283 0.0
C327 C 0.17191 0.68308 0.74332 0.0
loop_
_geom_bond_atom_site_label_1
_geom_bond_atom_site_label_2
_geom_bond_distance
_geom_bond_site_symmetry_2
_ccdc_geom_bond_type
Eu0 O2 2.323 . S
Eu0 O10 2.328 1_545 S
Eu0 O21 2.316 . S
Eu0 C22 2.837 1_554 S
Eu0 O23 2.488 1_554 S
Eu0 O31 2.461 . S
C1 O12 1.253 . S
C1 O21 1.236 1_556 S
O2 Eu0 2.323 . S
O2 C18 1.279 . S
C3 C5 1.383 1_455 S
C3 C7 1.388 . S
C3 C17 1.491 . S
C4 C6 1.403 . S
C4 C8 1.385 . S
C4 H32 0.931 . S
C5 C3 1.383 1_655 S
C5 C6 1.393 . S
C5 H33 0.930 . S
C6 C4 1.403 . S
C6 C5 1.393 . S
C7 C3 1.388 . S
C7 C8 1.394 1_455 S
C7 H34 0.930 . S
C8 C4 1.385 . S
C8 C7 1.394 1_655 S
Eu9 O11 2.323 . S
Eu9 O12 2.328 . S
Eu9 O13 2.316 . S
Eu9 O16 2.488 1_556 S
Eu9 C17 2.837 1_556 S
Eu9 O20 2.461 . S
O10 Eu0 2.328 1_565 S
O10 C30 1.255 1_565 S
O11 Eu9 2.323 . S
O11 C14 1.279 . S
O12 C1 1.253 . S
O12 Eu9 2.328 . S
O13 Eu9 2.316 . S
O13 C30 1.235 1_556 S
C14 O11 1.279 . S
C14 O15 1.244 . S
O15 C14 1.244 . S
O16 Eu9 2.488 1_554 S
O16 C17 1.271 . S
C17 C3 1.491 . S
C17 Eu9 2.837 1_554 S
C17 O16 1.271 . S
C17 O20 1.261 1_554 S
C18 O2 1.279 . S
C18 O19 1.244 . S
O19 C18 1.244 . S
O20 Eu9 2.461 . S
O20 C17 1.261 1_556 S
O21 Eu0 2.316 . S
O21 C1 1.236 1_554 S
C22 Eu0 2.837 1_556 S
C22 O23 1.271 . S
C22 C24 1.491 . S
C22 O31 1.261 1_556 S
O23 Eu0 2.488 1_556 S
O23 C22 1.271 . S
C24 C22 1.491 . S
C24 C26 1.383 . S
C24 C28 1.388 . S
C25 C27 1.403 . S
C25 C29 1.385 . S
C25 H35 0.931 . S
C26 C24 1.383 . S
C26 C27 1.393 . S
C26 H36 0.930 . S
C27 C25 1.403 . S
C27 C26 1.393 . S
C28 C24 1.388 . S
C28 C29 1.394 . S
C28 H37 0.930 . S
C29 C25 1.385 . S
C29 C28 1.394 . S
C30 O10 1.255 1_545 S
C30 O13 1.235 1_554 S
O31 Eu0 2.461 . S
O31 C22 1.261 1_554 S
H32 C4 0.931 . S
H33 C5 0.930 . S
H34 C7 0.930 . S
H35 C25 0.931 . S
H36 C26 0.930 . S
H37 C28 0.930 . S
Eu38 O40 2.323 . S
Eu38 O48 2.328 . S
Eu38 O59 2.316 . S
Eu38 C60 2.837 1_554 S
Eu38 O61 2.488 1_554 S
Eu38 O69 2.461 . S
C39 O50 1.253 1_565 S
C39 O59 1.236 1_556 S
O40 Eu38 2.323 . S
O40 C56 1.279 . S
C41 C43 1.383 . S
C41 C45 1.388 . S
C41 C55 1.491 . S
C42 C44 1.403 . S
C42 C46 1.385 . S
C42 H70 0.931 . S
C43 C41 1.383 . S
C43 C44 1.393 . S
C43 H71 0.930 . S
C44 C42 1.403 . S
C44 C43 1.393 . S
C45 C41 1.388 . S
C45 C46 1.394 . S
C45 H72 0.930 . S
C46 C42 1.385 . S
C46 C45 1.394 . S
Eu47 O49 2.323 . S
Eu47 O50 2.328 1_565 S
Eu47 O51 2.316 . S
Eu47 O54 2.488 1_556 S
Eu47 C55 2.837 1_556 S
Eu47 O58 2.461 . S
O48 Eu38 2.328 . S
O48 C68 1.255 . S
O49 Eu47 2.323 . S
O49 C52 1.279 . S
O50 C39 1.253 1_545 S
O50 Eu47 2.328 1_545 S
O51 Eu47 2.316 . S
O51 C68 1.235 1_556 S
C52 O49 1.279 . S
C52 O53 1.244 . S
O53 C52 1.244 . S
O54 Eu47 2.488 1_554 S
O54 C55 1.271 . S
C55 C41 1.491 . S
C55 Eu47 2.837 1_554 S
C55 O54 1.271 . S
C55 O58 1.261 1_554 S
C56 O40 1.279 . S
C56 O57 1.244 . S
O57 C56 1.244 . S
O58 Eu47 2.461 . S
O58 C55 1.261 1_556 S
O59 Eu38 2.316 . S
O59 C39 1.236 1_554 S
C60 Eu38 2.837 1_556 S
C60 O61 1.271 . S
C60 C62 1.491 . S
C60 O69 1.261 1_556 S
O61 Eu38 2.488 1_556 S
O61 C60 1.271 . S
C62 C60 1.491 . S
C62 C64 1.383 1_655 S
C62 C66 1.388 . S
C63 C65 1.403 . S
C63 C67 1.385 . S
C63 H73 0.931 . S
C64 C62 1.383 1_455 S
C64 C65 1.393 . S
C64 H74 0.930 . S
C65 C63 1.403 . S
C65 C64 1.393 . S
C66 C62 1.388 . S
C66 C67 1.394 1_655 S
C66 H75 0.930 . S
C67 C63 1.385 . S
C67 C66 1.394 1_455 S
C68 O48 1.255 . S
C68 O51 1.235 1_554 S
O69 Eu38 2.461 . S
O69 C60 1.261 1_554 S
H70 C42 0.931 . S
H71 C43 0.930 . S
H72 C45 0.930 . S
H73 C63 0.931 . S
H74 C64 0.930 . S
H75 C66 0.930 . S
Eu76 O78 2.323 . S
Eu76 O86 2.328 1_565 S
Eu76 O97 2.316 . S
Eu76 C98 2.837 . S
Eu76 O99 2.488 . S
Eu76 O107 2.461 . S
C77 O88 1.251 . S
C77 O97 1.237 . S
O78 Eu76 2.323 . S
O78 C94 1.279 . S
C79 C81 1.383 1_455 S
C79 C83 1.388 . S
C79 C93 1.491 . S
C80 C82 1.403 . S
C80 C84 1.385 . S
C80 H108 0.931 . S
C81 C79 1.383 1_655 S
C81 C82 1.393 . S
C81 H109 0.930 . S
C82 C80 1.403 . S
C82 C81 1.393 . S
C83 C79 1.388 . S
C83 C84 1.394 1_455 S
C83 H110 0.930 . S
C84 C80 1.385 . S
C84 C83 1.394 1_655 S
Eu85 O87 2.323 . S
Eu85 O88 2.328 . S
Eu85 O89 2.316 . S
Eu85 O92 2.488 . S
Eu85 C93 2.837 . S
Eu85 O96 2.461 . S
O86 Eu76 2.328 1_545 S
O86 C106 1.251 1_545 S
O87 Eu85 2.323 . S
O87 C90 1.279 . S
O88 C77 1.251 . S
O88 Eu85 2.328 . S
O89 Eu85 2.316 . S
O89 C106 1.237 . S
C90 O87 1.279 . S
C90 O91 1.244 . S
O91 C90 1.244 . S
O92 Eu85 2.488 . S
O92 C93 1.271 . S
C93 C79 1.491 . S
C93 Eu85 2.837 . S
C93 O92 1.271 . S
C93 O96 1.261 . S
C94 O78 1.279 . S
C94 O95 1.244 . S
O95 C94 1.244 . S
O96 Eu85 2.461 . S
O96 C93 1.261 . S
O97 Eu76 2.316 . S
O97 C77 1.237 . S
C98 Eu76 2.837 . S
C98 O99 1.271 . S
C98 C100 1.491 . S
C98 O107 1.261 . S
O99 Eu76 2.488 . S
O99 C98 1.271 . S
C100 C98 1.491 . S
C100 C102 1.383 . S
C100 C104 1.388 . S
C101 C103 1.403 . S
C101 C105 1.385 . S
C101 H111 0.931 . S
C102 C100 1.383 . S
C102 C103 1.393 . S
C102 H112 0.930 . S
C103 C101 1.403 . S
C103 C102 1.393 . S
C104 C100 1.388 . S
C104 C105 1.394 . S
C104 H113 0.930 . S
C105 C101 1.385 . S
C105 C104 1.394 . S
C106 O86 1.251 1_565 S
C106 O89 1.237 . S
O107 Eu76 2.461 . S
O107 C98 1.261 . S
H108 C80 0.931 . S
H109 C81 0.930 . S
H110 C83 0.930 . S
H111 C101 0.931 . S
H112 C102 0.930 . S
H113 C104 0.930 . S
Eu114 O116 2.323 . S
Eu114 O124 2.328 . S
Eu114 O135 2.316 . S
Eu114 C136 2.837 . S
Eu114 O137 2.488 . S
Eu114 O145 2.461 . S
C115 O126 1.251 1_545 S
C115 O135 1.237 . S
O116 Eu114 2.323 . S
O116 C132 1.279 . S
C117 C119 1.383 . S
C117 C121 1.388 . S
C117 C131 1.491 . S
C118 C120 1.403 . S
C118 C122 1.385 . S
C118 H146 0.931 . S
C119 C117 1.383 . S
C119 C120 1.393 . S
C119 H147 0.930 . S
C120 C118 1.403 . S
C120 C119 1.393 . S
C121 C117 1.388 . S
C121 C122 1.394 . S
C121 H148 0.930 . S
C122 C118 1.385 . S
C122 C121 1.394 . S
Eu123 O125 2.323 . S
Eu123 O126 2.328 1_545 S
Eu123 O127 2.316 . S
Eu123 O130 2.488 . S
Eu123 C131 2.837 . S
Eu123 O134 2.461 . S
O124 Eu114 2.328 . S
O124 C144 1.251 . S
O125 Eu123 2.323 . S
O125 C128 1.279 . S
O126 C115 1.251 1_565 S
O126 Eu123 2.328 1_565 S
O127 Eu123 2.316 . S
O127 C144 1.237 . S
C128 O125 1.279 . S
C128 O129 1.244 . S
O129 C128 1.244 . S
O130 Eu123 2.488 . S
O130 C131 1.271 . S
C131 C117 1.491 . S
C131 Eu123 2.837 . S
C131 O130 1.271 . S
C131 O134 1.261 . S
C132 O116 1.279 . S
C132 O133 1.244 . S
O133 C132 1.244 . S
O134 Eu123 2.461 . S
O134 C131 1.261 . S
O135 Eu114 2.316 . S
O135 C115 1.237 . S
C136 Eu114 2.837 . S
C136 O137 1.271 . S
C136 C138 1.491 . S
C136 O145 1.261 . S
O137 Eu114 2.488 . S
O137 C136 1.271 . S
C138 C136 1.491 . S
C138 C140 1.383 1_655 S
C138 C142 1.388 . S
C139 C141 1.403 . S
C139 C143 1.385 . S
C139 H149 0.931 . S
C140 C138 1.383 1_455 S
C140 C141 1.393 . S
C140 H150 0.930 . S
C141 C139 1.403 . S
C141 C140 1.393 . S
C142 C138 1.388 . S
C142 C143 1.394 1_655 S
C142 H151 0.930 . S
C143 C139 1.385 . S
C143 C142 1.394 1_455 S
C144 O124 1.251 . S
C144 O127 1.237 . S
O145 Eu114 2.461 . S
O145 C136 1.261 . S
H146 C118 0.931 . S
H147 C119 0.930 . S
H148 C121 0.930 . S
H149 C139 0.931 . S
H150 C140 0.930 . S
H151 C142 0.930 . S
C152 C153 1.369 1_554 S
C152 C154 1.419 . S
C152 H156 0.930 . S
C153 C152 1.369 1_556 S
C153 C162 1.429 . S
C154 C152 1.419 . S
C154 C155 1.363 . S
C154 H157 0.929 . S
C155 C154 1.363 . S
C155 C161 1.428 1_554 S
H156 C152 0.930 . S
H157 C154 0.929 . S
S158 N159 1.613 . S
S158 N160 1.610 . S
N159 S158 1.613 . S
N159 C162 1.350 . S
N160 S158 1.610 . S
N160 C161 1.351 . S
C161 C155 1.428 1_556 S
C161 N160 1.351 . S
C161 C162 1.434 . S
C162 C153 1.429 . S
C162 N159 1.350 . S
C162 C161 1.434 . S
C163 C164 1.369 1_554 S
C163 C165 1.419 . S
C163 H167 0.930 . S
C164 C163 1.369 1_556 S
C164 C173 1.429 . S
C165 C163 1.419 . S
C165 C166 1.363 . S
C165 H168 0.929 . S
C166 C165 1.363 . S
C166 C172 1.428 1_554 S
H167 C163 0.930 . S
H168 C165 0.929 . S
S169 N170 1.613 . S
S169 N171 1.610 . S
N170 S169 1.613 . S
N170 C173 1.350 . S
N171 S169 1.610 . S
N171 C172 1.351 . S
C172 C166 1.428 1_556 S
C172 N171 1.351 . S
C172 C173 1.434 . S
C173 C164 1.429 . S
C173 N170 1.350 . S
C173 C172 1.434 . S
C174 C175 1.369 . S
C174 C176 1.419 . S
C174 H178 0.930 . S
C175 C174 1.369 . S
C175 C184 1.429 . S
C176 C174 1.419 . S
C176 C177 1.363 . S
C176 H179 0.929 . S
C177 C176 1.363 . S
C177 C183 1.428 . S
H178 C174 0.930 . S
H179 C176 0.929 . S
S180 N181 1.613 . S
S180 N182 1.610 . S
N181 S180 1.613 . S
N181 C184 1.350 . S
N182 S180 1.610 . S
N182 C183 1.351 . S
C183 C177 1.428 . S
C183 N182 1.351 . S
C183 C184 1.434 . S
C184 C175 1.429 . S
C184 N181 1.350 . S
C184 C183 1.434 . S
C185 C186 1.369 . S
C185 C187 1.419 . S
C185 H189 0.930 . S
C186 C185 1.369 . S
C186 C195 1.429 . S
C187 C185 1.419 . S
C187 C188 1.363 . S
C187 H190 0.929 . S
C188 C187 1.363 . S
C188 C194 1.428 . S
H189 C185 0.930 . S
H190 C187 0.929 . S
S191 N192 1.613 . S
S191 N193 1.610 . S
N192 S191 1.613 . S
N192 C195 1.350 . S
N193 S191 1.610 . S
N193 C194 1.351 . S
C194 C188 1.428 . S
C194 N193 1.351 . S
C194 C195 1.434 . S
C195 C186 1.429 . S
C195 N192 1.350 . S
C195 C194 1.434 . S
C196 C197 1.369 1_556 S
C196 C198 1.419 . S
C196 H200 0.930 . S
C197 C196 1.369 1_554 S
C197 C206 1.429 . S
C198 C196 1.419 . S
C198 C199 1.360 1_556 S
C198 H201 0.929 . S
C199 C198 1.360 1_554 S
C199 C205 1.432 . S
H200 C196 0.930 . S
H201 C198 0.929 . S
S202 N203 1.613 . S
S202 N204 1.610 . S
N203 S202 1.613 . S
N203 C206 1.350 . S
N204 S202 1.610 . S
N204 C205 1.351 . S
C205 C199 1.432 . S
C205 N204 1.351 . S
C205 C206 1.434 . S
C206 C197 1.429 . S
C206 N203 1.350 . S
C206 C205 1.434 . S
C207 C208 1.369 . S
C207 C209 1.419 . S
C207 H211 0.930 . S
C208 C207 1.369 . S
C208 C217 1.429 . S
C209 C207 1.419 . S
C209 C210 1.363 . S
C209 H212 0.929 . S
C210 C209 1.363 . S
C210 C216 1.428 . S
H211 C207 0.930 . S
H212 C209 0.929 . S
S213 N214 1.613 . S
S213 N215 1.610 . S
N214 S213 1.613 . S
N214 C217 1.350 . S
N215 S213 1.610 . S
N215 C216 1.351 . S
C216 C210 1.428 . S
C216 N215 1.351 . S
C216 C217 1.434 . S
C217 C208 1.429 . S
C217 N214 1.350 . S
C217 C216 1.434 . S
C218 C219 1.359 1_556 S
C218 C220 1.419 1_455 S
C218 H222 0.930 . S
C219 C218 1.359 1_554 S
C219 C228 1.439 1_545 S
C220 C218 1.419 1_655 S
C220 C221 1.348 1_546 S
C220 H223 0.929 . S
C221 C220 1.348 1_564 S
C221 C227 1.444 . S
H222 C218 0.930 . S
H223 C220 0.929 . S
S224 N225 1.614 . S
S224 N226 1.610 1_455 S
N225 S224 1.614 . S
N225 C228 1.350 . S
N226 S224 1.610 1_655 S
N226 C227 1.351 . S
C227 C221 1.444 . S
C227 N226 1.351 . S
C227 C228 1.434 1_655 S
C228 C219 1.439 1_565 S
C228 N225 1.350 . S
C228 C227 1.434 1_455 S
C229 C230 1.369 . S
C229 C231 1.419 1_645 S
C229 H233 0.930 . S
C230 C229 1.369 . S
C230 C239 1.427 1_545 S
C231 C229 1.419 1_465 S
C231 C232 1.363 . S
C231 H234 0.929 . S
C232 C231 1.363 . S
C232 C238 1.428 . S
H233 C229 0.930 . S
H234 C231 0.929 . S
S235 N236 1.613 . S
S235 N237 1.610 1_655 S
N236 S235 1.613 . S
N236 C239 1.351 . S
N237 S235 1.610 1_455 S
N237 C238 1.351 . S
C238 C232 1.428 . S
C238 N237 1.351 . S
C238 C239 1.434 1_455 S
C239 C230 1.427 1_565 S
C239 N236 1.351 . S
C239 C238 1.434 1_655 S
C240 C241 1.369 . S
C240 C242 1.419 . S
C240 H244 0.930 . S
C241 C240 1.369 . S
C241 C250 1.429 . S
C242 C240 1.419 . S
C242 C243 1.363 . S
C242 H245 0.929 . S
C243 C242 1.363 . S
C243 C249 1.428 . S
H244 C240 0.930 . S
H245 C242 0.929 . S
S246 N247 1.613 . S
S246 N248 1.610 . S
N247 S246 1.613 . S
N247 C250 1.350 1_565 S
N248 S246 1.610 . S
N248 C249 1.351 1_565 S
C249 C243 1.428 . S
C249 N248 1.351 1_545 S
C249 C250 1.434 . S
C250 C241 1.429 . S
C250 N247 1.350 1_545 S
C250 C249 1.434 . S
C251 C252 1.369 . S
C251 C253 1.419 . S
C251 H255 0.930 . S
C252 C251 1.369 . S
C252 C261 1.429 . S
C253 C251 1.419 . S
C253 C254 1.363 . S
C253 H256 0.929 . S
C254 C253 1.363 . S
C254 C260 1.428 . S
H255 C251 0.930 . S
H256 C253 0.929 . S
S257 N258 1.613 . S
S257 N259 1.610 . S
N258 S257 1.613 . S
N258 C261 1.350 . S
N259 S257 1.610 . S
N259 C260 1.351 . S
C260 C254 1.428 . S
C260 N259 1.351 . S
C260 C261 1.434 . S
C261 C252 1.429 . S
C261 N258 1.350 . S
C261 C260 1.434 . S
C262 C263 1.369 . S
C262 C264 1.419 . S
C262 H266 0.930 . S
C263 C262 1.369 . S
C263 C272 1.429 . S
C264 C262 1.419 . S
C264 C265 1.363 . S
C264 H267 0.929 . S
C265 C264 1.363 . S
C265 C271 1.428 . S
H266 C262 0.930 . S
H267 C264 0.929 . S
S268 N269 1.613 . S
S268 N270 1.610 . S
N269 S268 1.613 . S
N269 C272 1.350 1_545 S
N270 S268 1.610 . S
N270 C271 1.351 1_545 S
C271 C265 1.428 . S
C271 N270 1.351 1_565 S
C271 C272 1.434 . S
C272 C263 1.429 . S
C272 N269 1.350 1_565 S
C272 C271 1.434 . S
C273 C274 1.369 . S
C273 C275 1.419 . S
C273 H277 0.930 . S
C274 C273 1.369 . S
C274 C283 1.429 . S
C275 C273 1.419 . S
C275 C276 1.363 . S
C275 H278 0.929 . S
C276 C275 1.363 . S
C276 C282 1.428 . S
H277 C273 0.930 . S
H278 C275 0.929 . S
S279 N280 1.613 . S
S279 N281 1.610 . S
N280 S279 1.613 . S
N280 C283 1.350 . S
N281 S279 1.610 . S
N281 C282 1.351 . S
C282 C276 1.428 . S
C282 N281 1.351 . S
C282 C283 1.434 . S
C283 C274 1.429 . S
C283 N280 1.350 . S
C283 C282 1.434 . S
C284 C285 1.369 . S
C284 C286 1.419 . S
C284 H288 0.930 . S
C285 C284 1.369 . S
C285 C294 1.429 1_655 S
C286 C284 1.419 . S
C286 C287 1.363 . S
C286 H289 0.929 . S
C287 C286 1.363 . S
C287 C293 1.428 . S
H288 C284 0.930 . S
H289 C286 0.929 . S
S290 N291 1.613 . S
S290 N292 1.610 . S
N291 S290 1.613 . S
N291 C294 1.350 . S
N292 S290 1.610 . S
N292 C293 1.351 1_455 S
C293 C287 1.428 . S
C293 N292 1.351 1_655 S
C293 C294 1.434 1_655 S
C294 C285 1.429 1_455 S
C294 N291 1.350 . S
C294 C293 1.434 1_455 S
C295 C296 1.369 . S
C295 C297 1.419 . S
C295 H299 0.930 . S
C296 C295 1.369 . S
C296 C305 1.429 . S
C297 C295 1.419 . S
C297 C298 1.363 . S
C297 H300 0.929 . S
C298 C297 1.363 . S
C298 C304 1.428 1_655 S
H299 C295 0.930 . S
H300 C297 0.929 . S
S301 N302 1.613 . S
S301 N303 1.610 . S
N302 S301 1.613 . S
N302 C305 1.350 1_455 S
N303 S301 1.610 . S
N303 C304 1.351 . S
C304 C298 1.428 1_455 S
C304 N303 1.351 . S
C304 C305 1.434 1_455 S
C305 C296 1.429 . S
C305 N302 1.350 1_655 S
C305 C304 1.434 1_655 S
C306 C307 1.369 . S
C306 C308 1.419 . S
C306 H310 0.930 . S
C307 C306 1.369 . S
C307 C316 1.429 . S
C308 C306 1.419 . S
C308 C309 1.363 . S
C308 H311 0.929 . S
C309 C308 1.363 . S
C309 C315 1.428 1_455 S
H310 C306 0.930 . S
H311 C308 0.929 . S
S312 N313 1.613 . S
S312 N314 1.610 . S
N313 S312 1.613 . S
N313 C316 1.350 1_655 S
N314 S312 1.610 . S
N314 C315 1.351 . S
C315 C309 1.428 1_655 S
C315 N314 1.351 . S
C315 C316 1.434 1_655 S
C316 C307 1.429 . S
C316 N313 1.350 1_455 S
C316 C315 1.434 1_455 S
C317 C318 1.369 . S
C317 C319 1.419 . S
C317 H321 0.930 . S
C318 C317 1.369 . S
C318 C327 1.429 . S
C319 C317 1.419 . S
C319 C320 1.363 . S
C319 H322 0.929 . S
C320 C319 1.363 . S
C320 C326 1.428 . S
H321 C317 0.930 . S
H322 C319 0.929 . S
S323 N324 1.613 1_545 S
S323 N325 1.610 1_545 S
N324 S323 1.613 1_565 S
N324 C327 1.350 . S
N325 S323 1.610 1_565 S
N325 C326 1.351 . S
C326 C320 1.428 . S
C326 N325 1.351 . S
C326 C327 1.434 . S
C327 C318 1.429 . S
C327 N324 1.350 . S
C327 C326 1.434 . S
C153 C27 2.585 . S
C155 C6 2.579 . S
C164 C65 2.585 . S
C166 C44 2.579 . S
C175 C103 2.581 . S
C177 C82 2.582 . S
C186 C141 2.580 . S
C188 C120 2.583 . S
C197 C68 1.878 . S
C199 C1 1.872 1_554 S
C208 C144 1.872 . S
C210 C77 1.877 . S
C219 C30 1.876 . S
C221 C39 1.873 1_554 S
C230 C115 1.877 . S
C232 C106 1.873 . S
C241 C122 1.307 . S
C243 C18 1.332 . S
C252 C46 1.296 . S
C254 C94 1.328 . S
C263 C105 1.295 . S
C265 C52 1.331 . S
C274 C29 1.308 . S
C276 C128 1.337 . S
C285 C84 1.309 . S
C287 C56 1.334 . S
C296 C132 1.338 . S
C298 C8 1.305 . S
C307 C14 1.338 . S
C309 C143 1.310 . S
C318 C90 1.334 . S
C320 C67 1.303 . S
