# Generated by pormake.
# Topology wiq, (6)-cn, num edge types: 1
# Building blocks:
#     Node 0, Type 0, BuildingBlock: IZENUY_clean_sbu_0, # of connection points: 6
#     Node 1, Type 0, BuildingBlock: IZENUY_clean_sbu_0, # of connection points: 6
#     Node 2, Type 0, BuildingBlock: IZENUY_clean_sbu_0, # of connection points: 6
#     Node 3, Type 0, BuildingBlock: IZENUY_clean_sbu_0, # of connection points: 6
#     Node 4, Type 0, BuildingBlock: IZENUY_clean_sbu_0, # of connection points: 6
#     Node 5, Type 0, BuildingBlock: IZENUY_clean_sbu_0, # of connection points: 6
#     Node 6, Type 0, BuildingBlock: IZENUY_clean_sbu_0, # of connection points: 6
#     Node 7, Type 0, BuildingBlock: IZENUY_clean_sbu_0, # of connection points: 6
#     Node 8, Type 0, BuildingBlock: IZENUY_clean_sbu_0, # of connection points: 6
#     Node 9, Type 0, BuildingBlock: IZENUY_clean_sbu_0, # of connection points: 6
#     Node 10, Type 0, BuildingBlock: IZENUY_clean_sbu_0, # of connection points: 6
#     Node 11, Type 0, BuildingBlock: IZENUY_clean_sbu_0, # of connection points: 6
#     Node 12, Type 0, BuildingBlock: IZENUY_clean_sbu_0, # of connection points: 6
#     Node 13, Type 0, BuildingBlock: IZENUY_clean_sbu_0, # of connection points: 6
#     Node 14, Type 0, BuildingBlock: IZENUY_clean_sbu_0, # of connection points: 6
#     Node 15, Type 0, BuildingBlock: IZENUY_clean_sbu_0, # of connection points: 6
#     Node 16, Type 0, BuildingBlock: IZENUY_clean_sbu_0, # of connection points: 6
#     Node 17, Type 0, BuildingBlock: IZENUY_clean_sbu_0, # of connection points: 6
#     Node 18, Type 0, BuildingBlock: IZENUY_clean_sbu_0, # of connection points: 6
#     Node 19, Type 0, BuildingBlock: IZENUY_clean_sbu_0, # of connection points: 6
#     Node 20, Type 0, BuildingBlock: IZENUY_clean_sbu_0, # of connection points: 6
#     Node 21, Type 0, BuildingBlock: IZENUY_clean_sbu_0, # of connection points: 6
#     Node 22, Type 0, BuildingBlock: IZENUY_clean_sbu_0, # of connection points: 6
#     Node 23, Type 0, BuildingBlock: IZENUY_clean_sbu_0, # of connection points: 6
#     Node 24, Type 0, BuildingBlock: IZENUY_clean_sbu_0, # of connection points: 6
#     Node 25, Type 0, BuildingBlock: IZENUY_clean_sbu_0, # of connection points: 6
#     Node 26, Type 0, BuildingBlock: IZENUY_clean_sbu_0, # of connection points: 6
#     Node 27, Type 0, BuildingBlock: IZENUY_clean_sbu_0, # of connection points: 6
#     Node 28, Type 0, BuildingBlock: IZENUY_clean_sbu_0, # of connection points: 6
#     Node 29, Type 0, BuildingBlock: IZENUY_clean_sbu_0, # of connection points: 6
#     Node 30, Type 0, BuildingBlock: IZENUY_clean_sbu_0, # of connection points: 6
#     Node 31, Type 0, BuildingBlock: IZENUY_clean_sbu_0, # of connection points: 6
#     Edge 32, Type (0, 0), BuildingBlock: XIVTED_clean_linker_0, # of connection points: 2
#     Edge 33, Type (0, 0), BuildingBlock: XIVTED_clean_linker_0, # of connection points: 2
#     Edge 34, Type (0, 0), BuildingBlock: XIVTED_clean_linker_0, # of connection points: 2
#     Edge 35, Type (0, 0), BuildingBlock: XIVTED_clean_linker_0, # of connection points: 2
#     Edge 36, Type (0, 0), BuildingBlock: XIVTED_clean_linker_0, # of connection points: 2
#     Edge 37, Type (0, 0), BuildingBlock: XIVTED_clean_linker_0, # of connection points: 2
#     Edge 38, Type (0, 0), BuildingBlock: XIVTED_clean_linker_0, # of connection points: 2
#     Edge 39, Type (0, 0), BuildingBlock: XIVTED_clean_linker_0, # of connection points: 2
#     Edge 40, Type (0, 0), BuildingBlock: XIVTED_clean_linker_0, # of connection points: 2
#     Edge 41, Type (0, 0), BuildingBlock: XIVTED_clean_linker_0, # of connection points: 2
#     Edge 42, Type (0, 0), BuildingBlock: XIVTED_clean_linker_0, # of connection points: 2
#     Edge 43, Type (0, 0), BuildingBlock: XIVTED_clean_linker_0, # of connection points: 2
#     Edge 44, Type (0, 0), BuildingBlock: XIVTED_clean_linker_0, # of connection points: 2
#     Edge 45, Type (0, 0), BuildingBlock: XIVTED_clean_linker_0, # of connection points: 2
#     Edge 46, Type (0, 0), BuildingBlock: XIVTED_clean_linker_0, # of connection points: 2
#     Edge 47, Type (0, 0), BuildingBlock: XIVTED_clean_linker_0, # of connection points: 2
#     Edge 48, Type (0, 0), BuildingBlock: XIVTED_clean_linker_0, # of connection points: 2
#     Edge 49, Type (0, 0), BuildingBlock: XIVTED_clean_linker_0, # of connection points: 2
#     Edge 50, Type (0, 0), BuildingBlock: XIVTED_clean_linker_0, # of connection points: 2
#     Edge 51, Type (0, 0), BuildingBlock: XIVTED_clean_linker_0, # of connection points: 2
#     Edge 52, Type (0, 0), BuildingBlock: XIVTED_clean_linker_0, # of connection points: 2
#     Edge 53, Type (0, 0), BuildingBlock: XIVTED_clean_linker_0, # of connection points: 2
#     Edge 54, Type (0, 0), BuildingBlock: XIVTED_clean_linker_0, # of connection points: 2
#     Edge 55, Type (0, 0), BuildingBlock: XIVTED_clean_linker_0, # of connection points: 2
#     Edge 56, Type (0, 0), BuildingBlock: XIVTED_clean_linker_0, # of connection points: 2
#     Edge 57, Type (0, 0), BuildingBlock: XIVTED_clean_linker_0, # of connection points: 2
#     Edge 58, Type (0, 0), BuildingBlock: XIVTED_clean_linker_0, # of connection points: 2
#     Edge 59, Type (0, 0), BuildingBlock: XIVTED_clean_linker_0, # of connection points: 2
#     Edge 60, Type (0, 0), BuildingBlock: XIVTED_clean_linker_0, # of connection points: 2
#     Edge 61, Type (0, 0), BuildingBlock: XIVTED_clean_linker_0, # of connection points: 2
#     Edge 62, Type (0, 0), BuildingBlock: XIVTED_clean_linker_0, # of connection points: 2
#     Edge 63, Type (0, 0), BuildingBlock: XIVTED_clean_linker_0, # of connection points: 2
#     Edge 64, Type (0, 0), BuildingBlock: XIVTED_clean_linker_0, # of connection points: 2
#     Edge 65, Type (0, 0), BuildingBlock: XIVTED_clean_linker_0, # of connection points: 2
#     Edge 66, Type (0, 0), BuildingBlock: XIVTED_clean_linker_0, # of connection points: 2
#     Edge 67, Type (0, 0), BuildingBlock: XIVTED_clean_linker_0, # of connection points: 2
#     Edge 68, Type (0, 0), BuildingBlock: XIVTED_clean_linker_0, # of connection points: 2
#     Edge 69, Type (0, 0), BuildingBlock: XIVTED_clean_linker_0, # of connection points: 2
#     Edge 70, Type (0, 0), BuildingBlock: XIVTED_clean_linker_0, # of connection points: 2
#     Edge 71, Type (0, 0), BuildingBlock: XIVTED_clean_linker_0, # of connection points: 2
#     Edge 72, Type (0, 0), BuildingBlock: XIVTED_clean_linker_0, # of connection points: 2
#     Edge 73, Type (0, 0), BuildingBlock: XIVTED_clean_linker_0, # of connection points: 2
#     Edge 74, Type (0, 0), BuildingBlock: XIVTED_clean_linker_0, # of connection points: 2
#     Edge 75, Type (0, 0), BuildingBlock: XIVTED_clean_linker_0, # of connection points: 2
#     Edge 76, Type (0, 0), BuildingBlock: XIVTED_clean_linker_0, # of connection points: 2
#     Edge 77, Type (0, 0), BuildingBlock: XIVTED_clean_linker_0, # of connection points: 2
#     Edge 78, Type (0, 0), BuildingBlock: XIVTED_clean_linker_0, # of connection points: 2
#     Edge 79, Type (0, 0), BuildingBlock: XIVTED_clean_linker_0, # of connection points: 2
#     Edge 80, Type (0, 0), BuildingBlock: XIVTED_clean_linker_0, # of connection points: 2
#     Edge 81, Type (0, 0), BuildingBlock: XIVTED_clean_linker_0, # of connection points: 2
#     Edge 82, Type (0, 0), BuildingBlock: XIVTED_clean_linker_0, # of connection points: 2
#     Edge 83, Type (0, 0), BuildingBlock: XIVTED_clean_linker_0, # of connection points: 2
#     Edge 84, Type (0, 0), BuildingBlock: XIVTED_clean_linker_0, # of connection points: 2
#     Edge 85, Type (0, 0), BuildingBlock: XIVTED_clean_linker_0, # of connection points: 2
#     Edge 86, Type (0, 0), BuildingBlock: XIVTED_clean_linker_0, # of connection points: 2
#     Edge 87, Type (0, 0), BuildingBlock: XIVTED_clean_linker_0, # of connection points: 2
#     Edge 88, Type (0, 0), BuildingBlock: XIVTED_clean_linker_0, # of connection points: 2
#     Edge 89, Type (0, 0), BuildingBlock: XIVTED_clean_linker_0, # of connection points: 2
#     Edge 90, Type (0, 0), BuildingBlock: XIVTED_clean_linker_0, # of connection points: 2
#     Edge 91, Type (0, 0), BuildingBlock: XIVTED_clean_linker_0, # of connection points: 2
#     Edge 92, Type (0, 0), BuildingBlock: XIVTED_clean_linker_0, # of connection points: 2
#     Edge 93, Type (0, 0), BuildingBlock: XIVTED_clean_linker_0, # of connection points: 2
#     Edge 94, Type (0, 0), BuildingBlock: XIVTED_clean_linker_0, # of connection points: 2
#     Edge 95, Type (0, 0), BuildingBlock: XIVTED_clean_linker_0, # of connection points: 2
#     Edge 96, Type (0, 0), BuildingBlock: XIVTED_clean_linker_0, # of connection points: 2
#     Edge 97, Type (0, 0), BuildingBlock: XIVTED_clean_linker_0, # of connection points: 2
#     Edge 98, Type (0, 0), BuildingBlock: XIVTED_clean_linker_0, # of connection points: 2
#     Edge 99, Type (0, 0), BuildingBlock: XIVTED_clean_linker_0, # of connection points: 2
#     Edge 100, Type (0, 0), BuildingBlock: XIVTED_clean_linker_0, # of connection points: 2
#     Edge 101, Type (0, 0), BuildingBlock: XIVTED_clean_linker_0, # of connection points: 2
#     Edge 102, Type (0, 0), BuildingBlock: XIVTED_clean_linker_0, # of connection points: 2
#     Edge 103, Type (0, 0), BuildingBlock: XIVTED_clean_linker_0, # of connection points: 2
#     Edge 104, Type (0, 0), BuildingBlock: XIVTED_clean_linker_0, # of connection points: 2
#     Edge 105, Type (0, 0), BuildingBlock: XIVTED_clean_linker_0, # of connection points: 2
#     Edge 106, Type (0, 0), BuildingBlock: XIVTED_clean_linker_0, # of connection points: 2
#     Edge 107, Type (0, 0), BuildingBlock: XIVTED_clean_linker_0, # of connection points: 2
#     Edge 108, Type (0, 0), BuildingBlock: XIVTED_clean_linker_0, # of connection points: 2
#     Edge 109, Type (0, 0), BuildingBlock: XIVTED_clean_linker_0, # of connection points: 2
#     Edge 110, Type (0, 0), BuildingBlock: XIVTED_clean_linker_0, # of connection points: 2
#     Edge 111, Type (0, 0), BuildingBlock: XIVTED_clean_linker_0, # of connection points: 2
#     Edge 112, Type (0, 0), BuildingBlock: XIVTED_clean_linker_0, # of connection points: 2
#     Edge 113, Type (0, 0), BuildingBlock: XIVTED_clean_linker_0, # of connection points: 2
#     Edge 114, Type (0, 0), BuildingBlock: XIVTED_clean_linker_0, # of connection points: 2
#     Edge 115, Type (0, 0), BuildingBlock: XIVTED_clean_linker_0, # of connection points: 2
#     Edge 116, Type (0, 0), BuildingBlock: XIVTED_clean_linker_0, # of connection points: 2
#     Edge 117, Type (0, 0), BuildingBlock: XIVTED_clean_linker_0, # of connection points: 2
#     Edge 118, Type (0, 0), BuildingBlock: XIVTED_clean_linker_0, # of connection points: 2
#     Edge 119, Type (0, 0), BuildingBlock: XIVTED_clean_linker_0, # of connection points: 2
#     Edge 120, Type (0, 0), BuildingBlock: XIVTED_clean_linker_0, # of connection points: 2
#     Edge 121, Type (0, 0), BuildingBlock: XIVTED_clean_linker_0, # of connection points: 2
#     Edge 122, Type (0, 0), BuildingBlock: XIVTED_clean_linker_0, # of connection points: 2
#     Edge 123, Type (0, 0), BuildingBlock: XIVTED_clean_linker_0, # of connection points: 2
#     Edge 124, Type (0, 0), BuildingBlock: XIVTED_clean_linker_0, # of connection points: 2
#     Edge 125, Type (0, 0), BuildingBlock: XIVTED_clean_linker_0, # of connection points: 2
#     Edge 126, Type (0, 0), BuildingBlock: XIVTED_clean_linker_0, # of connection points: 2
#     Edge 127, Type (0, 0), BuildingBlock: XIVTED_clean_linker_0, # of connection points: 2
# Relax obj value: 0.285
# Max RMSD: 0.209
# Mean RMSD: 0.209
data_MOF--net-wiq--node1-IZENUY_clean_sbu_0--edge1-XIVTED_clean_linker_0
_symmetry_space_group_name_H-M    P1
_symmetry_Int_Tables_number       1
_symmetry_cell_setting            triclinic
loop_
_symmetry_equiv_pos_as_xyz
'x, y, z'
_cell_length_a     49.085334
_cell_length_b     49.10698
_cell_length_c     53.60268
_cell_angle_alpha  90.00998
_cell_angle_beta   90.018052
_cell_angle_gamma 89.971357
loop_
_atom_site_label
_atom_site_type_symbol
_atom_site_fract_x
_atom_site_fract_y
_atom_site_fract_z
_atom_type_partial_charge
Fe0 Fe 0.15752 0.15601 0.2996 0.0
Fe1 Fe 0.14526 0.19679 0.25791 0.0
O2 O 0.13785 0.16608 0.27344 0.0
Fe3 Fe 0.11105 0.14536 0.26263 0.0
O4 O 0.09363 0.14848 0.29198 0.0
O5 O 0.12877 0.13821 0.31564 0.0
O6 O 0.1473 0.18615 0.31661 0.0
C7 C 0.15073 0.21029 0.30913 0.0
C8 C 0.15213 0.10732 0.27541 0.0
O9 O 0.15627 0.2151 0.28641 0.0
C10 C 0.13278 0.16064 0.21825 0.0
O11 O 0.18931 0.17335 0.28884 0.0
O12 O 0.17888 0.18466 0.25067 0.0
O13 O 0.1273 0.11332 0.27203 0.0
O14 O 0.1687 0.12483 0.28381 0.0
C15 C 0.09028 0.19893 0.25737 0.0
O16 O 0.135 0.18457 0.22683 0.0
O17 O 0.12706 0.14103 0.23243 0.0
C18 C 0.19651 0.18191 0.26739 0.0
O19 O 0.11203 0.21015 0.26417 0.0
O20 O 0.08975 0.17389 0.25156 0.0
C21 C 0.10315 0.1414 0.31281 0.0
Fe22 Fe 0.113 0.90826 0.54955 0.0
Fe23 Fe 0.07055 0.8929 0.51009 0.0
O24 O 0.10205 0.88688 0.52485 0.0
Fe25 Fe 0.12255 0.85958 0.51459 0.0
O26 O 0.12105 0.8438 0.54482 0.0
O27 O 0.13123 0.8806 0.5665 0.0
O28 O 0.08336 0.89925 0.56812 0.0
C29 C 0.05892 0.90194 0.56112 0.0
C30 C 0.16053 0.90147 0.52309 0.0
O31 O 0.05339 0.90601 0.53831 0.0
C32 C 0.10516 0.87882 0.46997 0.0
O33 O 0.09526 0.93919 0.53735 0.0
O34 O 0.08186 0.92604 0.50036 0.0
O35 O 0.15472 0.87642 0.5219 0.0
O36 O 0.14373 0.91838 0.53223 0.0
C37 C 0.06951 0.8381 0.51359 0.0
O38 O 0.08146 0.88049 0.47918 0.0
O39 O 0.12538 0.87404 0.48369 0.0
C40 C 0.08556 0.94481 0.51588 0.0
O41 O 0.05808 0.86009 0.51925 0.0
O42 O 0.09375 0.83758 0.50554 0.0
C43 C 0.12826 0.85485 0.56498 0.0
Fe44 Fe 0.37269 0.81937 0.75882 0.0
Fe45 Fe 0.4069 0.87072 0.76402 0.0
O46 O 0.37948 0.85036 0.77409 0.0
Fe47 Fe 0.35871 0.86113 0.79937 0.0
O48 O 0.36834 0.83139 0.81743 0.0
O49 O 0.36099 0.80166 0.78739 0.0
O50 O 0.40576 0.80616 0.76637 0.0
C51 C 0.42777 0.81751 0.76067 0.0
C52 C 0.32109 0.83361 0.76676 0.0
O53 O 0.4285 0.84216 0.75392 0.0
C54 C 0.36519 0.90871 0.77317 0.0
O55 O 0.38364 0.83125 0.72769 0.0
O56 O 0.39251 0.87465 0.73337 0.0
O57 O 0.32739 0.84317 0.7881 0.0
O58 O 0.33926 0.83124 0.75052 0.0
C59 C 0.41243 0.87589 0.8142 0.0
O60 O 0.39028 0.90282 0.77222 0.0
O61 O 0.34819 0.89193 0.78226 0.0
C62 C 0.38684 0.85513 0.71911 0.0
O63 O 0.42283 0.86792 0.79403 0.0
O64 O 0.38675 0.87949 0.81591 0.0
C65 C 0.36565 0.80701 0.81021 0.0
Fe66 Fe 0.39469 0.15836 0.0152 0.0
Fe67 Fe 0.40282 0.10946 0.05008 0.0
O68 O 0.41423 0.13025 0.02509 0.0
Fe69 Fe 0.44514 0.12275 0.0099 0.0
O70 O 0.45928 0.15523 0.01806 0.0
O71 O 0.42407 0.17937 0.00575 0.0
O72 O 0.39743 0.17379 0.04543 0.0
C73 C 0.38893 0.16331 0.06538 0.0
C74 C 0.41018 0.13836 0.97022 0.0
O75 O 0.38508 0.13768 0.06689 0.0
C76 C 0.42896 0.07152 0.01687 0.0
O77 O 0.36201 0.14239 0.02277 0.0
O78 O 0.37183 0.10003 0.03284 0.0
O79 O 0.43392 0.13463 0.97892 0.0
O80 O 0.39073 0.14455 0.98435 0.0
C81 C 0.45708 0.11467 0.0611 0.0
O82 O 0.41987 0.07782 0.03838 0.0
O83 O 0.43231 0.08989 1.00097 0.0
C84 C 0.35546 0.11745 0.02379 0.0
O85 O 0.43278 0.11803 0.06832 0.0
O86 O 0.46227 0.10991 0.0383 0.0
C87 C 0.44868 0.17771 0.01266 0.0
Fe88 Fe 0.11003 0.87243 0.2419 0.0
Fe89 Fe 0.15804 0.86416 0.20602 0.0
O90 O 0.1377 0.85274 0.23133 0.0
Fe91 Fe 0.14537 0.82176 0.24632 0.0
O92 O 0.11275 0.80772 0.23874 0.0
O93 O 0.08908 0.84311 0.25137 0.0
O94 O 0.09378 0.87004 0.21194 0.0
C95 C 0.10382 0.87806 0.19162 0.0
C96 C 0.13046 0.85614 0.28652 0.0
O97 O 0.12945 0.88193 0.18966 0.0
C98 C 0.1965 0.8379 0.23866 0.0
O99 O 0.12595 0.90498 0.23419 0.0
O100 O 0.16798 0.89502 0.2231 0.0
O101 O 0.13371 0.83259 0.27739 0.0
O102 O 0.12471 0.87603 0.27271 0.0
C103 C 0.15275 0.81003 0.195 0.0
O104 O 0.18986 0.84704 0.21724 0.0
O105 O 0.17838 0.83462 0.25483 0.0
C106 C 0.15089 0.91133 0.23267 0.0
O107 O 0.14909 0.83431 0.18789 0.0
O108 O 0.15781 0.80477 0.21773 0.0
C109 C 0.09047 0.81828 0.24499 0.0
Fe110 Fe 0.39495 0.86023 0.49025 0.0
Fe111 Fe 0.40511 0.90773 0.45437 0.0
O112 O 0.41538 0.88763 0.48023 0.0
Fe113 Fe 0.4459 0.89521 0.49606 0.0
O114 O 0.45981 0.86217 0.48987 0.0
O115 O 0.42358 0.83898 0.50104 0.0
O116 O 0.39856 0.84382 0.46056 0.0
C117 C 0.39088 0.85375 0.44012 0.0
C118 C 0.40936 0.88109 0.53526 0.0
O119 O 0.38731 0.87934 0.43792 0.0
C120 C 0.43101 0.94642 0.48678 0.0
O121 O 0.36272 0.87652 0.48115 0.0
O122 O 0.37392 0.91838 0.47048 0.0
O123 O 0.4333 0.8849 0.52705 0.0
O124 O 0.39019 0.87493 0.52074 0.0
C125 C 0.45948 0.90122 0.44471 0.0
O126 O 0.42238 0.93942 0.46534 0.0
O127 O 0.4334 0.92867 0.50338 0.0
C128 C 0.35653 0.90144 0.47851 0.0
O129 O 0.43529 0.89797 0.43718 0.0
O130 O 0.46435 0.90633 0.46756 0.0
C131 C 0.44875 0.84008 0.49587 0.0
Fe132 Fe 0.3717 0.19441 0.74712 0.0
Fe133 Fe 0.40726 0.14387 0.74128 0.0
O134 O 0.37967 0.16405 0.73124 0.0
Fe135 Fe 0.35967 0.15366 0.70534 0.0
O136 O 0.36926 0.18394 0.68821 0.0
O137 O 0.36044 0.21275 0.71868 0.0
O138 O 0.40461 0.20872 0.74105 0.0
C139 C 0.42683 0.19786 0.747 0.0
C140 C 0.32068 0.17935 0.73767 0.0
O141 O 0.42823 0.17269 0.75208 0.0
C142 C 0.3664 0.10509 0.72946 0.0
O143 O 0.38209 0.18191 0.77804 0.0
O144 O 0.39257 0.13894 0.77175 0.0
O145 O 0.32778 0.17076 0.71623 0.0
O146 O 0.33839 0.18145 0.75434 0.0
C147 C 0.41387 0.13973 0.69119 0.0
O148 O 0.39126 0.11152 0.73216 0.0
O149 O 0.34927 0.12236 0.72147 0.0
C150 C 0.386 0.15801 0.78622 0.0
O151 O 0.42368 0.14763 0.71161 0.0
O152 O 0.38828 0.13605 0.68892 0.0
C153 C 0.36578 0.20805 0.69586 0.0
Fe154 Fe 0.11058 0.1088 0.95367 0.0
Fe155 Fe 0.07055 0.12107 0.996 0.0
O156 O 0.10113 0.1283 0.98017 0.0
Fe157 Fe 0.12233 0.15472 0.99104 0.0
O158 O 0.11915 0.17245 0.9619 0.0
O159 O 0.12858 0.1375 0.93773 0.0
O160 O 0.08021 0.11952 0.93699 0.0
C161 C 0.05614 0.11653 0.9449 0.0
C162 C 0.15972 0.11331 0.97764 0.0
O163 O 0.05174 0.11068 0.96763 0.0
C164 C 0.10728 0.13281 0.03542 0.0
O165 O 0.09295 0.07708 0.96438 0.0
O166 O 0.08239 0.08724 0.00278 0.0
O167 O 0.15408 0.13816 0.9813 0.0
O168 O 0.14195 0.09711 0.969 0.0
C169 C 0.06904 0.17602 0.99691 0.0
O170 O 0.08324 0.13086 0.02704 0.0
O171 O 0.12679 0.13841 0.02109 0.0
C172 C 0.08458 0.06977 0.98587 0.0
O173 O 0.05749 0.15444 0.99021 0.0
O174 O 0.09417 0.17632 1.00246 0.0
C175 C 0.12595 0.16313 0.94092 0.0
Fe176 Fe 0.85697 0.86466 0.70396 0.0
Fe177 Fe 0.9054 0.87128 0.73972 0.0
O178 O 0.87668 0.85286 0.72962 0.0
Fe179 Fe 0.86718 0.82269 0.74518 0.0
O180 O 0.85454 0.80564 0.71649 0.0
O181 O 0.86518 0.83425 0.68639 0.0
O182 O 0.88601 0.88152 0.68757 0.0
C183 C 0.91147 0.87697 0.68959 0.0
C184 C 0.81711 0.84056 0.73649 0.0
O185 O 0.92108 0.86809 0.7097 0.0
C186 C 0.88479 0.85688 0.78491 0.0
O187 O 0.84813 0.896 0.72052 0.0
O188 O 0.89037 0.90464 0.73245 0.0
O189 O 0.8349 0.83774 0.75299 0.0
O190 O 0.82443 0.84874 0.71496 0.0
C191 C 0.92202 0.81608 0.74275 0.0
O192 O 0.8919 0.87579 0.77059 0.0
O193 O 0.8789 0.83356 0.77634 0.0
C194 C 0.86567 0.91191 0.73002 0.0
O195 O 0.9252 0.84089 0.74872 0.0
O196 O 0.89885 0.80656 0.73823 0.0
C197 C 0.86053 0.81025 0.69378 0.0
Fe198 Fe 0.94407 0.12024 0.49558 0.0
Fe199 Fe 0.904 0.10822 0.45322 0.0
O200 O 0.91379 0.12798 0.47946 0.0
Fe201 Fe 0.89311 0.15517 0.48956 0.0
O202 O 0.92144 0.17636 0.50097 0.0
O203 O 0.95792 0.15339 0.49002 0.0
O204 O 0.96302 0.10964 0.46714 0.0
C205 C 0.95848 0.11515 0.4443 0.0
C206 C 0.90686 0.13381 0.53454 0.0
O207 O 0.93438 0.11837 0.43651 0.0
C208 C 0.8551 0.11406 0.47691 0.0
O209 O 0.93159 0.08663 0.50228 0.0
O210 O 0.92128 0.07645 0.46396 0.0
O211 O 0.88788 0.14002 0.51982 0.0
O212 O 0.93091 0.13012 0.52653 0.0
C213 C 0.88977 0.16234 0.43948 0.0
O214 O 0.87263 0.09723 0.46888 0.0
O215 O 0.86116 0.13895 0.47982 0.0
C216 C 0.92967 0.06915 0.4854 0.0
O217 O 0.8863 0.13677 0.43693 0.0
O218 O 0.89714 0.172 0.46012 0.0
C219 C 0.94668 0.17535 0.49614 0.0
Fe220 Fe 0.64576 0.19514 0.24674 0.0
Fe221 Fe 0.65653 0.15323 0.20546 0.0
O222 O 0.63692 0.16476 0.23127 0.0
Fe223 Fe 0.60888 0.14557 0.24171 0.0
O224 O 0.58876 0.17504 0.25217 0.0
O225 O 0.61318 0.21031 0.24068 0.0
O226 O 0.65725 0.21259 0.21793 0.0
C227 C 0.65175 0.20757 0.19518 0.0
C228 C 0.63081 0.15973 0.28638 0.0
O229 O 0.64766 0.18342 0.18788 0.0
C230 C 0.64891 0.10597 0.23168 0.0
O231 O 0.67877 0.18137 0.25396 0.0
O232 O 0.6889 0.16974 0.21595 0.0
O233 O 0.6236 0.14075 0.27211 0.0
O234 O 0.6353 0.18343 0.27796 0.0
C235 C 0.60191 0.14061 0.19173 0.0
O236 O 0.66626 0.12208 0.2222 0.0
O237 O 0.62406 0.11279 0.23319 0.0
C238 C 0.69633 0.17836 0.23729 0.0
O239 O 0.62737 0.13602 0.1895 0.0
O240 O 0.59244 0.14925 0.21204 0.0
C241 C 0.59073 0.20008 0.24682 0.0
Fe242 Fe 0.57033 0.89513 0.99656 0.0
Fe243 Fe 0.61131 0.90752 0.95504 0.0
O244 O 0.60128 0.88798 0.98126 0.0
Fe245 Fe 0.62229 0.86153 0.99242 0.0
O246 O 0.59394 0.84002 0.00353 0.0
O247 O 0.55748 0.86169 0.99043 0.0
O248 O 0.55203 0.90569 0.96788 0.0
C249 C 0.5571 0.90025 0.94518 0.0
C250 C 0.60645 0.88357 0.03648 0.0
O251 O 0.58134 0.89695 0.93791 0.0
C252 C 0.65999 0.90282 0.97961 0.0
O253 O 0.5819 0.92896 0.00365 0.0
O254 O 0.59353 0.93927 0.96554 0.0
O255 O 0.62622 0.87796 0.02244 0.0
O256 O 0.58251 0.8853 0.02779 0.0
C257 C 0.62653 0.85314 0.94233 0.0
O258 O 0.64238 0.9191 0.97086 0.0
O259 O 0.65424 0.87798 0.98308 0.0
C260 C 0.58459 0.94649 0.98686 0.0
O261 O 0.62945 0.87876 0.93929 0.0
O262 O 0.61955 0.84376 0.96324 0.0
C263 C 0.56893 0.84018 0.99751 0.0
Fe264 Fe 0.90749 0.14341 0.76481 0.0
Fe265 Fe 0.87915 0.19796 0.75721 0.0
O266 O 0.88152 0.16669 0.77348 0.0
Fe267 Fe 0.85898 0.15887 0.79836 0.0
O268 O 0.88736 0.15398 0.82017 0.0
O269 O 0.91183 0.12834 0.79564 0.0
O270 O 0.93393 0.16788 0.77312 0.0
C271 C 0.93485 0.1915 0.76387 0.0
C272 C 0.86436 0.1089 0.77074 0.0
O273 O 0.91536 0.20032 0.75088 0.0
C274 C 0.82394 0.18549 0.76629 0.0
O275 O 0.90812 0.15351 0.73203 0.0
O276 O 0.87278 0.18033 0.72776 0.0
O277 O 0.8573 0.1219 0.79036 0.0
O278 O 0.88247 0.1181 0.7563 0.0
C279 C 0.87217 0.21498 0.80583 0.0
O280 O 0.84286 0.20161 0.76078 0.0
O281 O 0.82836 0.16425 0.77914 0.0
C282 C 0.88943 0.16343 0.7186 0.0
O283 O 0.88519 0.21746 0.78557 0.0
O284 O 0.85749 0.19414 0.81006 0.0
C285 C 0.90766 0.13866 0.81679 0.0
Fe286 Fe 0.61262 0.10865 0.55022 0.0
Fe287 Fe 0.62065 0.15746 0.51538 0.0
O288 O 0.60128 0.12917 0.52493 0.0
Fe289 Fe 0.57093 0.12096 0.5091 0.0
O290 O 0.5533 0.10878 0.53756 0.0
O291 O 0.58239 0.11721 0.56798 0.0
O292 O 0.63004 0.13705 0.56698 0.0
C293 C 0.62555 0.16256 0.56552 0.0
C294 C 0.58731 0.07005 0.51742 0.0
O295 O 0.61693 0.17282 0.54554 0.0
C296 C 0.60664 0.13696 0.47004 0.0
O297 O 0.64373 0.09927 0.5332 0.0
O298 O 0.6533 0.14179 0.52357 0.0
O299 O 0.58456 0.0881 0.50116 0.0
O300 O 0.59594 0.0768 0.53892 0.0
C301 C 0.56622 0.17602 0.5104 0.0
O302 O 0.62553 0.14386 0.48455 0.0
O303 O 0.58288 0.13222 0.47822 0.0
C304 C 0.6599 0.11684 0.52416 0.0
O305 O 0.59134 0.17808 0.50538 0.0
O306 O 0.55584 0.15344 0.51585 0.0
C307 C 0.55821 0.11372 0.56043 0.0
Fe308 Fe 0.61177 0.8724 0.26395 0.0
Fe309 Fe 0.64513 0.82042 0.25891 0.0
O310 O 0.63854 0.85137 0.27439 0.0
Fe311 Fe 0.65892 0.86135 0.3001 0.0
O312 O 0.63075 0.87957 0.31659 0.0
O313 O 0.59496 0.8697 0.2936 0.0
O314 O 0.58985 0.84415 0.25339 0.0
C315 C 0.59012 0.81917 0.25941 0.0
C316 C 0.65351 0.91002 0.27581 0.0
O317 O 0.61184 0.80766 0.26589 0.0
C318 C 0.69682 0.83459 0.26731 0.0
O319 O 0.62721 0.87632 0.23349 0.0
O320 O 0.63436 0.83261 0.22796 0.0
O321 O 0.67009 0.89236 0.28398 0.0
O322 O 0.62857 0.90427 0.2729 0.0
C323 C 0.65168 0.80718 0.31011 0.0
O324 O 0.67878 0.8319 0.25096 0.0
O325 O 0.69025 0.84353 0.28881 0.0
C326 C 0.63235 0.85653 0.21931 0.0
O327 O 0.65652 0.80212 0.28729 0.0
O328 O 0.64879 0.83143 0.3175 0.0
C329 C 0.60504 0.87674 0.31422 0.0
Fe330 Fe 0.94528 0.89362 0.00864 0.0
Fe331 Fe 0.90386 0.90578 0.05003 0.0
O332 O 0.91476 0.88568 0.02432 0.0
Fe333 Fe 0.89487 0.85795 0.01422 0.0
O334 O 0.92378 0.83709 0.00375 0.0
O335 O 0.95964 0.86078 0.015 0.0
O336 O 0.9633 0.90505 0.03733 0.0
C337 C 0.95829 0.89998 0.06019 0.0
C338 C 0.90921 0.87878 0.96922 0.0
O339 O 0.93405 0.89652 0.06755 0.0
C340 C 0.85607 0.89878 0.02427 0.0
O341 O 0.93237 0.92686 1.00114 0.0
O342 O 0.92091 0.93768 0.03907 0.0
O343 O 0.89014 0.87244 0.98372 0.0
O344 O 0.93307 0.88303 0.9775 0.0
C345 C 0.89024 0.85158 0.06428 0.0
O346 O 0.87265 0.91592 0.03345 0.0
O347 O 0.86246 0.87383 0.02283 0.0
C348 C 0.92956 0.94467 0.01762 0.0
O349 O 0.88624 0.87715 0.0664 0.0
O350 O 0.89845 0.84176 0.04398 0.0
C351 C 0.94886 0.83854 0.00908 0.0
Fe352 Fe 0.61115 0.64499 0.76428 0.0
Fe353 Fe 0.65936 0.65451 0.79968 0.0
O354 O 0.63859 0.6653 0.77442 0.0
Fe355 Fe 0.64536 0.69634 0.75921 0.0
O356 O 0.61234 0.70953 0.76698 0.0
O357 O 0.58958 0.67363 0.75429 0.0
O358 O 0.59522 0.64768 0.79427 0.0
C359 C 0.60562 0.63973 0.81445 0.0
C360 C 0.63112 0.66073 0.71942 0.0
O361 O 0.63131 0.63625 0.81624 0.0
C362 C 0.69697 0.6816 0.76681 0.0
O363 O 0.62772 0.61283 0.77238 0.0
O364 O 0.66977 0.62364 0.78264 0.0
O365 O 0.6342 0.68459 0.72808 0.0
O366 O 0.62555 0.64115 0.73363 0.0
C367 C 0.65259 0.70869 0.81057 0.0
O368 O 0.69069 0.6723 0.78825 0.0
O369 O 0.67871 0.68443 0.75071 0.0
C370 C 0.65278 0.60687 0.77352 0.0
O371 O 0.64984 0.68431 0.81777 0.0
O372 O 0.65732 0.71398 0.78776 0.0
C373 C 0.59032 0.69819 0.76132 0.0
Fe374 Fe 0.61454 0.40611 0.04992 0.0
Fe375 Fe 0.57368 0.39165 0.00884 0.0
O376 O 0.6047 0.38545 0.02437 0.0
Fe377 Fe 0.62587 0.35858 0.01431 0.0
O378 O 0.62295 0.34216 0.04406 0.0
O379 O 0.63287 0.37822 0.06665 0.0
O380 O 0.58465 0.39599 0.0674 0.0
C381 C 0.56036 0.39856 0.06 0.0
C382 C 0.6633 0.40062 0.02586 0.0
O383 O 0.55523 0.40307 0.03714 0.0
C384 C 0.61035 0.37879 0.9695 0.0
O385 O 0.59661 0.4372 0.03839 0.0
O386 O 0.58471 0.42538 1.00068 0.0
O387 O 0.65766 0.3756 0.0233 0.0
O388 O 0.64549 0.41724 0.03368 0.0
C389 C 0.57316 0.33656 0.01049 0.0
O390 O 0.58626 0.38102 0.97788 0.0
O391 O 0.62992 0.37354 0.98388 0.0
C392 C 0.58744 0.44353 0.01692 0.0
O393 O 0.56126 0.35826 0.01628 0.0
O394 O 0.59781 0.33648 0.00361 0.0
C395 C 0.63006 0.3525 0.06453 0.0
Fe396 Fe 0.85874 0.36092 0.29918 0.0
Fe397 Fe 0.87189 0.32041 0.25749 0.0
O398 O 0.87886 0.3511 0.27325 0.0
Fe399 Fe 0.90567 0.37206 0.26287 0.0
O400 O 0.92268 0.36896 0.29242 0.0
O401 O 0.88712 0.37887 0.31567 0.0
O402 O 0.86892 0.33077 0.31621 0.0
C403 C 0.86573 0.30665 0.30857 0.0
C404 C 0.86413 0.40973 0.27519 0.0
O405 O 0.86058 0.30193 0.28575 0.0
C406 C 0.88477 0.35678 0.21817 0.0
O407 O 0.82722 0.34336 0.28794 0.0
O408 O 0.83827 0.33233 0.24987 0.0
O409 O 0.88906 0.40394 0.27215 0.0
O410 O 0.84757 0.39209 0.28336 0.0
C411 C 0.92688 0.31864 0.25765 0.0
O412 O 0.88256 0.33281 0.22662 0.0
O413 O 0.89009 0.37638 0.23249 0.0
C414 C 0.8204 0.33471 0.26641 0.0
O415 O 0.90512 0.30725 0.26414 0.0
O416 O 0.92735 0.34371 0.25198 0.0
C417 C 0.91282 0.37596 0.31314 0.0
Fe418 Fe 0.89289 0.65719 0.51474 0.0
Fe419 Fe 0.90326 0.61003 0.55125 0.0
O420 O 0.91374 0.63055 0.52575 0.0
Fe421 Fe 0.94516 0.62438 0.51098 0.0
O422 O 0.95735 0.65761 0.51908 0.0
O423 O 0.92136 0.67926 0.50495 0.0
O424 O 0.89446 0.67397 0.54445 0.0
C425 C 0.88701 0.66384 0.56492 0.0
C426 C 0.91024 0.63681 0.47058 0.0
O427 O 0.88456 0.6381 0.56738 0.0
C428 C 0.93078 0.57255 0.51845 0.0
O429 O 0.86097 0.64021 0.52266 0.0
O430 O 0.87254 0.59884 0.53439 0.0
O431 O 0.93397 0.63557 0.47979 0.0
O432 O 0.89003 0.64168 0.48426 0.0
C433 C 0.95738 0.61769 0.56215 0.0
O434 O 0.92139 0.57886 0.5399 0.0
O435 O 0.93413 0.59078 0.50235 0.0
C436 C 0.85549 0.61515 0.5247 0.0
O437 O 0.93299 0.62015 0.56944 0.0
O438 O 0.96257 0.61256 0.53946 0.0
C439 C 0.94565 0.67929 0.51288 0.0
Fe440 Fe 0.60987 0.37316 0.7397 0.0
Fe441 Fe 0.65775 0.36213 0.70441 0.0
O442 O 0.63724 0.35236 0.73017 0.0
Fe443 Fe 0.64446 0.32202 0.74639 0.0
O444 O 0.61134 0.30831 0.74026 0.0
O445 O 0.58818 0.34489 0.75055 0.0
O446 O 0.59379 0.36935 0.70984 0.0
C447 C 0.60403 0.37677 0.68944 0.0
C448 C 0.63042 0.3592 0.78504 0.0
O449 O 0.6297 0.38013 0.68753 0.0
C450 C 0.69587 0.33565 0.73714 0.0
O451 O 0.62664 0.40509 0.73048 0.0
O452 O 0.66857 0.39333 0.72044 0.0
O453 O 0.63414 0.33514 0.77715 0.0
O454 O 0.62421 0.37816 0.77031 0.0
C455 C 0.65074 0.30785 0.69521 0.0
O456 O 0.6892 0.34441 0.71565 0.0
O457 O 0.67801 0.33429 0.75371 0.0
C458 C 0.65168 0.41096 0.72818 0.0
O459 O 0.6478 0.33196 0.68742 0.0
O460 O 0.65548 0.30312 0.71814 0.0
C461 C 0.58925 0.3196 0.7459 0.0
Fe462 Fe 0.89785 0.36135 0.99038 0.0
Fe463 Fe 0.90666 0.41027 0.95568 0.0
O464 O 0.91784 0.38913 0.98052 0.0
Fe465 Fe 0.94881 0.39615 0.99584 0.0
O466 O 0.96263 0.36356 0.98775 0.0
O467 O 0.92697 0.33999 0.99976 0.0
O468 O 0.90028 0.34575 0.96008 0.0
C469 C 0.89266 0.35665 0.93999 0.0
C470 C 0.9138 0.38105 0.03544 0.0
O471 O 0.88893 0.38231 0.93867 0.0
C472 C 0.93296 0.44762 0.9892 0.0
O473 O 0.86542 0.37763 0.98272 0.0
O474 O 0.87572 0.41991 0.97289 0.0
O475 O 0.93755 0.38399 0.02665 0.0
O476 O 0.89407 0.37545 0.02137 0.0
C477 C 0.96087 0.40465 0.94472 0.0
O478 O 0.92386 0.44161 0.96764 0.0
O479 O 0.93627 0.42908 0.00495 0.0
C480 C 0.8592 0.40263 0.98186 0.0
O481 O 0.93655 0.40162 0.93746 0.0
O482 O 0.96614 0.40903 0.96757 0.0
C483 C 0.9519 0.34128 0.99367 0.0
Fe484 Fe 0.90755 0.64489 0.24312 0.0
Fe485 Fe 0.86062 0.65305 0.206 0.0
O486 O 0.88011 0.66445 0.2319 0.0
Fe487 Fe 0.87176 0.69529 0.24683 0.0
O488 O 0.90447 0.70962 0.24013 0.0
O489 O 0.92805 0.67432 0.25316 0.0
O490 O 0.92467 0.64745 0.21363 0.0
C491 C 0.91532 0.63939 0.19305 0.0
C492 C 0.88574 0.66087 0.28726 0.0
O493 O 0.88978 0.6355 0.19034 0.0
C494 C 0.82103 0.67867 0.23784 0.0
O495 O 0.89204 0.61225 0.23494 0.0
O496 O 0.85035 0.62204 0.22268 0.0
O497 O 0.88261 0.68443 0.27815 0.0
O498 O 0.89198 0.64108 0.27352 0.0
C499 C 0.86587 0.70731 0.19539 0.0
O500 O 0.82838 0.66987 0.2165 0.0
O501 O 0.83865 0.68209 0.25445 0.0
C502 C 0.8672 0.60577 0.23267 0.0
O503 O 0.86994 0.6831 0.18825 0.0
O504 O 0.86001 0.71235 0.218 0.0
C505 C 0.92665 0.69914 0.24677 0.0
Fe506 Fe 0.62248 0.65566 0.49036 0.0
Fe507 Fe 0.61126 0.60813 0.45471 0.0
O508 O 0.60154 0.6285 0.48057 0.0
Fe509 Fe 0.57105 0.62142 0.49663 0.0
O510 O 0.55759 0.65464 0.49045 0.0
O511 O 0.59426 0.67744 0.50115 0.0
O512 O 0.61896 0.67196 0.46061 0.0
C513 C 0.62626 0.66182 0.44014 0.0
C514 C 0.60807 0.63523 0.53556 0.0
O515 O 0.62938 0.63615 0.43801 0.0
C516 C 0.58501 0.56995 0.48742 0.0
O517 O 0.6544 0.63877 0.48122 0.0
O518 O 0.64242 0.59707 0.47068 0.0
O519 O 0.58404 0.63167 0.5275 0.0
O520 O 0.62721 0.64112 0.52093 0.0
C521 C 0.55691 0.61543 0.44539 0.0
O522 O 0.59358 0.57674 0.4659 0.0
O523 O 0.58307 0.58779 0.50398 0.0
C524 C 0.66008 0.61372 0.47876 0.0
O525 O 0.58106 0.61829 0.43767 0.0
O526 O 0.5522 0.61047 0.46829 0.0
C527 C 0.56901 0.6766 0.49625 0.0
Fe528 Fe 0.37156 0.32292 0.2473 0.0
Fe529 Fe 0.35982 0.36227 0.20432 0.0
O530 O 0.37961 0.35274 0.23062 0.0
Fe531 Fe 0.40712 0.37329 0.24025 0.0
O532 O 0.42806 0.34492 0.25202 0.0
O533 O 0.40455 0.30851 0.24191 0.0
O534 O 0.36064 0.30357 0.21924 0.0
C535 C 0.3659 0.30762 0.19628 0.0
C536 C 0.38542 0.36074 0.28547 0.0
O537 O 0.36949 0.33147 0.18808 0.0
C538 C 0.36624 0.41147 0.2273 0.0
O539 O 0.33809 0.33595 0.25389 0.0
O540 O 0.32787 0.34558 0.21544 0.0
O541 O 0.39219 0.37926 0.27049 0.0
O542 O 0.38158 0.33655 0.27797 0.0
C543 C 0.41408 0.3754 0.19002 0.0
O544 O 0.34925 0.39399 0.21954 0.0
O545 O 0.39114 0.40527 0.23009 0.0
C546 C 0.32055 0.33777 0.23704 0.0
O547 O 0.38853 0.3793 0.18759 0.0
O548 O 0.42376 0.36846 0.21079 0.0
C549 C 0.42671 0.3196 0.24764 0.0
Fe550 Fe 0.44802 0.62144 0.99639 0.0
Fe551 Fe 0.40661 0.60895 0.95523 0.0
O552 O 0.41705 0.62871 0.98118 0.0
Fe553 Fe 0.3964 0.65549 0.99217 0.0
O554 O 0.42502 0.67681 0.00296 0.0
O555 O 0.46119 0.65469 0.98987 0.0
O556 O 0.46596 0.61034 0.96774 0.0
C557 C 0.46081 0.61561 0.94502 0.0
C558 C 0.41231 0.63395 0.03636 0.0
O559 O 0.43655 0.61902 0.9378 0.0
C560 C 0.35821 0.61443 0.97998 0.0
O561 O 0.43612 0.58782 0.00386 0.0
O562 O 0.42408 0.57721 0.96591 0.0
O563 O 0.39249 0.63947 0.02235 0.0
O564 O 0.43617 0.6318 0.02757 0.0
C565 C 0.39176 0.66328 0.94211 0.0
O566 O 0.37563 0.59784 0.97143 0.0
O567 O 0.36423 0.63927 0.98312 0.0
C568 C 0.43309 0.57013 0.98724 0.0
O569 O 0.3886 0.63766 0.93933 0.0
O570 O 0.39914 0.67285 0.96283 0.0
C571 C 0.44998 0.67639 0.99683 0.0
Fe572 Fe 0.15664 0.6576 0.70708 0.0
Fe573 Fe 0.10841 0.64241 0.74106 0.0
O574 O 0.13444 0.66554 0.73218 0.0
Fe575 Fe 0.13713 0.69679 0.74844 0.0
O576 O 0.13099 0.71636 0.72018 0.0
O577 O 0.15821 0.69286 0.69537 0.0
O578 O 0.12789 0.65293 0.68559 0.0
C579 C 0.1075 0.63782 0.68922 0.0
C580 C 0.19219 0.68403 0.73883 0.0
O581 O 0.10379 0.62727 0.71032 0.0
C582 C 0.12693 0.66239 0.78708 0.0
O583 O 0.15826 0.62063 0.71513 0.0
O584 O 0.13343 0.617 0.74943 0.0
O585 O 0.1734 0.70018 0.74465 0.0
O586 O 0.18754 0.66284 0.72597 0.0
C587 C 0.08145 0.69076 0.74192 0.0
O588 O 0.10806 0.6526 0.7738 0.0
O589 O 0.14363 0.67912 0.7778 0.0
C590 C 0.15142 0.60773 0.73488 0.0
O591 O 0.08204 0.66704 0.73286 0.0
O592 O 0.10097 0.69938 0.75497 0.0
C593 C 0.14386 0.71387 0.69986 0.0
Fe594 Fe 0.11051 0.40714 0.45604 0.0
Fe595 Fe 0.11894 0.3587 0.49119 0.0
O596 O 0.09941 0.38687 0.48157 0.0
Fe597 Fe 0.06912 0.39511 0.4975 0.0
O598 O 0.05113 0.40685 0.46891 0.0
O599 O 0.08021 0.39834 0.4385 0.0
O600 O 0.12789 0.37857 0.43939 0.0
C601 C 0.12343 0.35307 0.44108 0.0
C602 C 0.08523 0.44603 0.48866 0.0
O603 O 0.11491 0.34305 0.4612 0.0
C604 C 0.1053 0.37923 0.53656 0.0
O605 O 0.14181 0.41673 0.47278 0.0
O606 O 0.15148 0.37429 0.4826 0.0
O607 O 0.08254 0.42815 0.50508 0.0
O608 O 0.09377 0.43909 0.46718 0.0
C609 C 0.06469 0.34007 0.49672 0.0
O610 O 0.1241 0.3726 0.52185 0.0
O611 O 0.08147 0.38418 0.52852 0.0
C612 C 0.15814 0.39919 0.48172 0.0
O613 O 0.08984 0.33813 0.50161 0.0
O614 O 0.05418 0.36255 0.49113 0.0
C615 C 0.05601 0.40176 0.44603 0.0
Fe616 Fe 0.40643 0.64585 0.26311 0.0
Fe617 Fe 0.37141 0.69671 0.25875 0.0
O618 O 0.379 0.66574 0.2738 0.0
Fe619 Fe 0.35883 0.65443 0.29925 0.0
O620 O 0.38752 0.63655 0.31536 0.0
O621 O 0.42302 0.64852 0.29286 0.0
O622 O 0.4274 0.67491 0.25302 0.0
C623 C 0.42637 0.69978 0.25928 0.0
C624 C 0.36561 0.60714 0.27272 0.0
O625 O 0.4043 0.71056 0.26581 0.0
C626 C 0.32019 0.681 0.26704 0.0
O627 O 0.39119 0.64197 0.23263 0.0
O628 O 0.3824 0.68543 0.22755 0.0
O629 O 0.34857 0.62357 0.28222 0.0
O630 O 0.39056 0.61342 0.27132 0.0
C631 C 0.36471 0.70855 0.31022 0.0
O632 O 0.33814 0.68419 0.25071 0.0
O633 O 0.327 0.67175 0.28837 0.0
C634 C 0.38506 0.66164 0.21872 0.0
O635 O 0.35962 0.71396 0.2875 0.0
O636 O 0.36811 0.68422 0.31728 0.0
C637 C 0.41313 0.6404 0.31321 0.0
Fe638 Fe 0.12437 0.65692 0.01624 0.0
Fe639 Fe 0.07402 0.62124 0.01075 0.0
O640 O 0.10447 0.62926 0.02644 0.0
Fe641 Fe 0.11532 0.60925 0.05223 0.0
O642 O 0.13301 0.63789 0.06843 0.0
O643 O 0.12076 0.67323 0.04595 0.0
O644 O 0.09546 0.67772 0.00565 0.0
C645 C 0.07037 0.6763 0.01095 0.0
C646 C 0.16294 0.61604 0.02625 0.0
O647 O 0.05959 0.65408 0.01697 0.0
C648 C 0.08969 0.57027 0.01998 0.0
O649 O 0.12915 0.64229 0.98576 0.0
O650 O 0.08622 0.63174 0.97967 0.0
O651 O 0.14644 0.59897 0.0356 0.0
O652 O 0.15671 0.64103 0.02499 0.0
C653 C 0.06089 0.61523 0.0622 0.0
O654 O 0.08709 0.588 0.0034 0.0
O655 O 0.09823 0.57736 0.04143 0.0
C656 C 0.11006 0.63577 0.97133 0.0
O657 O 0.05604 0.60988 0.03938 0.0
O658 O 0.0851 0.61868 0.06971 0.0
C659 C 0.12895 0.66343 0.06628 0.0
Fe660 Fe 0.16113 0.36334 0.80134 0.0
Fe661 Fe 0.11261 0.37126 0.76589 0.0
O662 O 0.14096 0.3521 0.77577 0.0
Fe663 Fe 0.14955 0.32168 0.76012 0.0
O664 O 0.16202 0.30428 0.78868 0.0
O665 O 0.15228 0.33305 0.81891 0.0
O666 O 0.13267 0.38088 0.81793 0.0
C667 C 0.10712 0.37702 0.81606 0.0
C668 C 0.20014 0.3383 0.76852 0.0
O669 O 0.09709 0.3684 0.79602 0.0
C670 C 0.13244 0.35641 0.72054 0.0
O671 O 0.17058 0.39456 0.7848 0.0
O672 O 0.12844 0.40419 0.77315 0.0
O673 O 0.18217 0.3358 0.75211 0.0
O674 O 0.19316 0.3467 0.79008 0.0
C675 C 0.09455 0.31657 0.76288 0.0
O676 O 0.126 0.37549 0.73495 0.0
O677 O 0.13784 0.33293 0.72904 0.0
C678 C 0.1533 0.41088 0.77544 0.0
O679 O 0.09202 0.34144 0.75691 0.0
O680 O 0.11749 0.30641 0.76728 0.0
C681 C 0.15617 0.30893 0.81142 0.0
Fe682 Fe 0.4435 0.39546 0.5084 0.0
Fe683 Fe 0.40332 0.40698 0.55083 0.0
O684 O 0.41337 0.38732 0.52461 0.0
Fe685 Fe 0.39305 0.35984 0.51459 0.0
O686 O 0.42165 0.339 0.50313 0.0
O687 O 0.45786 0.36247 0.5139 0.0
O688 O 0.46238 0.40626 0.53679 0.0
C689 C 0.4579 0.4009 0.55966 0.0
C690 C 0.40629 0.38178 0.46965 0.0
O691 O 0.43387 0.39732 0.56747 0.0
C692 C 0.35442 0.40045 0.52725 0.0
O693 O 0.43056 0.42891 0.50174 0.0
O694 O 0.42013 0.43901 0.54004 0.0
O695 O 0.38755 0.37495 0.48438 0.0
O696 O 0.43038 0.38556 0.47748 0.0
C697 C 0.38997 0.35263 0.56471 0.0
O698 O 0.37174 0.41751 0.53523 0.0
O699 O 0.36085 0.37564 0.52436 0.0
C700 C 0.42844 0.44639 0.5186 0.0
O701 O 0.3861 0.37815 0.56722 0.0
O702 O 0.39741 0.34307 0.54404 0.0
C703 C 0.44688 0.34032 0.50797 0.0
H704 H 0.19311 0.08359 0.24755 0.0
H705 H 0.1319 0.9351 0.27428 0.0
H706 H 0.12721 0.06508 0.29779 0.0
H707 H 0.18711 0.94955 0.21319 0.0
H708 H 0.13802 0.98175 0.28802 0.0
H709 H 0.19857 0.0343 0.23924 0.0
C710 C 0.18033 0.0691 0.25729 0.0
C711 C 0.15975 0.07827 0.27345 0.0
C712 C 0.14904 0.9749 0.27168 0.0
C713 C 0.16566 0.02234 0.264 0.0
C714 C 0.14558 0.94814 0.26384 0.0
C715 C 0.15875 0.93851 0.24238 0.0
C716 C 0.16553 0.99268 0.25782 0.0
C717 C 0.17654 0.95624 0.22982 0.0
C718 C 0.18327 0.04108 0.2524 0.0
C719 C 0.14334 0.05884 0.28524 0.0
N720 N 0.17911 0.9827 0.2375 0.0
N721 N 0.14661 0.03196 0.28025 0.0
H722 H 0.31467 0.87791 0.4543 0.0
H723 H 0.19797 0.9386 0.54253 0.0
H724 H 0.33216 0.94037 0.50837 0.0
H725 H 0.18535 0.88201 0.48215 0.0
H726 H 0.24582 0.94409 0.52883 0.0
H727 H 0.26621 0.88354 0.4623 0.0
C728 C 0.30815 0.89321 0.46761 0.0
C729 C 0.32737 0.9088 0.48056 0.0
C730 C 0.23238 0.93083 0.51841 0.0
C731 C 0.27156 0.91491 0.49063 0.0
C732 C 0.20507 0.92783 0.52614 0.0
C733 C 0.18777 0.90959 0.51361 0.0
C734 C 0.24216 0.91558 0.49799 0.0
C735 C 0.19805 0.89599 0.49259 0.0
C736 C 0.28042 0.89639 0.4723 0.0
C737 C 0.31787 0.92818 0.49779 0.0
N738 N 0.22441 0.89911 0.48564 0.0
N739 N 0.29059 0.93045 0.50263 0.0
H740 H 0.32319 0.08151 0.75481 0.0
H741 H 0.38374 0.93191 0.7312 0.0
H742 H 0.39419 0.06222 0.71098 0.0
H743 H 0.32947 0.9476 0.79275 0.0
H744 H 0.3787 0.97878 0.71765 0.0
H745 H 0.3172 0.03234 0.7636 0.0
C746 C 0.3371 0.06691 0.74661 0.0
C747 C 0.3592 0.07588 0.7321 0.0
C748 C 0.36762 0.97212 0.73402 0.0
C749 C 0.35252 0.02002 0.74198 0.0
C750 C 0.37041 0.94523 0.74173 0.0
C751 C 0.35722 0.93584 0.76328 0.0
C752 C 0.35174 0.9903 0.74804 0.0
C753 C 0.33998 0.95402 0.77601 0.0
C754 C 0.33382 0.03896 0.75179 0.0
C755 C 0.37691 0.05623 0.72227 0.0
N756 N 0.33802 0.9806 0.7684 0.0
N757 N 0.37318 0.02942 0.72737 0.0
H758 H 0.31962 0.07729 0.04055 0.0
H759 H 0.20124 0.13298 0.95025 0.0
H760 H 0.32826 0.14105 0.98583 0.0
H761 H 0.18415 0.07766 0.01054 0.0
H762 H 0.24982 0.1288 0.95893 0.0
H763 H 0.27204 0.07054 0.0265 0.0
C764 C 0.31168 0.08955 0.02541 0.0
C765 C 0.32784 0.10999 0.01456 0.0
C766 C 0.23565 0.11715 0.97013 0.0
C767 C 0.2738 0.10231 0.99833 0.0
C768 C 0.20788 0.11937 0.96497 0.0
C769 C 0.18875 0.10539 0.97948 0.0
C770 C 0.24458 0.10125 0.99038 0.0
C771 C 0.19838 0.08841 0.99866 0.0
C772 C 0.28454 0.08578 0.01747 0.0
C773 C 0.3165 0.12534 0.99504 0.0
N774 N 0.22565 0.08704 0.00379 0.0
N775 N 0.29037 0.12124 0.98769 0.0
H776 H 0.83383 0.94928 0.70493 0.0
H777 H 0.85694 0.06834 0.8053 0.0
H778 H 0.88154 0.93876 0.77175 0.0
H779 H 0.85325 0.08427 0.7263 0.0
H780 H 0.85189 0.01938 0.7966 0.0
H781 H 0.82733 0.99768 0.71599 0.0
C782 C 0.84246 0.95703 0.72212 0.0
C783 C 0.85837 0.94011 0.73739 0.0
C784 C 0.85163 0.03371 0.78124 0.0
C785 C 0.85066 0.99499 0.75031 0.0
C786 C 0.85424 0.06162 0.78621 0.0
C787 C 0.85551 0.08037 0.76649 0.0
C788 C 0.84969 0.02455 0.75644 0.0
C789 C 0.8524 0.07046 0.74203 0.0
C790 C 0.83888 0.98459 0.72835 0.0
C791 C 0.86931 0.95121 0.75938 0.0
N792 N 0.84969 0.04327 0.73768 0.0
N793 N 0.86522 0.97787 0.76521 0.0
H794 H 0.83149 0.07309 0.50492 0.0
H795 H 0.68385 0.13901 0.48398 0.0
H796 H 0.81262 0.13941 0.45526 0.0
H797 H 0.69785 0.07855 0.54086 0.0
H798 H 0.73 0.13275 0.46907 0.0
H799 H 0.78236 0.06844 0.51435 0.0
C800 C 0.81694 0.08611 0.49551 0.0
C801 C 0.826 0.10661 0.47922 0.0
C802 C 0.72319 0.12063 0.48475 0.0
C803 C 0.77021 0.10169 0.49003 0.0
C804 C 0.6967 0.12421 0.49329 0.0
C805 C 0.68705 0.10955 0.51392 0.0
C806 C 0.74075 0.10248 0.49706 0.0
C807 C 0.70455 0.09033 0.52494 0.0
C808 C 0.789 0.08364 0.50106 0.0
C809 C 0.80648 0.12334 0.4679 0.0
N810 N 0.73079 0.08761 0.51661 0.0
N811 N 0.7797 0.12058 0.47358 0.0
H812 H 0.62766 0.08096 0.27179 0.0
H813 H 0.69207 0.9339 0.24532 0.0
H814 H 0.68675 0.06849 0.21342 0.0
H815 H 0.63087 0.95205 0.30042 0.0
H816 H 0.69627 0.98317 0.2365 0.0
H817 H 0.63451 0.03453 0.28572 0.0
C818 C 0.64227 0.06838 0.26193 0.0
C819 C 0.65639 0.07856 0.2412 0.0
C820 C 0.68235 0.97635 0.25085 0.0
C821 C 0.66417 0.02456 0.25696 0.0
C822 C 0.68015 0.94832 0.25604 0.0
C823 C 0.66122 0.93904 0.27374 0.0
C824 C 0.66551 0.99499 0.26356 0.0
C825 C 0.64578 0.95839 0.28671 0.0
C826 C 0.64621 0.04174 0.26993 0.0
C827 C 0.67539 0.06139 0.22945 0.0
N828 N 0.64818 0.98527 0.28129 0.0
N829 N 0.67846 0.03502 0.23726 0.0
H830 H 0.81998 0.93801 0.04248 0.0
H831 H 0.70143 0.88356 0.95185 0.0
H832 H 0.8291 0.87672 0.98549 0.0
H833 H 0.68448 0.93793 0.01292 0.0
H834 H 0.75005 0.88797 0.96019 0.0
H835 H 0.77223 0.94477 0.02891 0.0
C836 C 0.81212 0.92633 0.02693 0.0
C837 C 0.82845 0.90654 0.0153 0.0
C838 C 0.7359 0.89935 0.97164 0.0
C839 C 0.77422 0.91419 0.99964 0.0
C840 C 0.70811 0.89699 0.9667 0.0
C841 C 0.68902 0.91065 0.98152 0.0
C842 C 0.7449 0.91507 0.992 0.0
C843 C 0.69868 0.92742 1.00083 0.0
C844 C 0.78488 0.93009 0.01927 0.0
C845 C 0.8172 0.89191 0.99528 0.0
N846 N 0.72599 0.92893 0.00575 0.0
N847 N 0.79097 0.89595 0.98824 0.0
H848 H 0.68978 0.56915 0.79289 0.0
H849 H 0.62902 0.45315 0.70372 0.0
H850 H 0.63302 0.5821 0.73268 0.0
H851 H 0.69034 0.43486 0.75869 0.0
H852 H 0.63488 0.5015 0.71202 0.0
H853 H 0.69501 0.52128 0.77912 0.0
C854 C 0.67892 0.56212 0.77653 0.0
C855 C 0.66073 0.57954 0.76405 0.0
C856 C 0.64744 0.48714 0.72216 0.0
C857 C 0.66642 0.52513 0.74834 0.0
C858 C 0.64413 0.45947 0.71728 0.0
C859 C 0.65934 0.44005 0.73039 0.0
C860 C 0.66568 0.49575 0.74082 0.0
C861 C 0.67847 0.44931 0.74797 0.0
C862 C 0.68176 0.5348 0.76876 0.0
C863 C 0.64699 0.56934 0.74308 0.0
N864 N 0.68086 0.47654 0.75297 0.0
N865 N 0.64998 0.54298 0.73607 0.0
H866 H 0.83611 0.38351 0.02368 0.0
H867 H 0.6862 0.44244 0.99831 0.0
H868 H 0.82026 0.43835 0.9626 0.0
H869 H 0.70631 0.37577 0.0472 0.0
H870 H 0.73534 0.44875 0.98965 0.0
H871 H 0.78941 0.38881 0.03763 0.0
C872 C 0.82276 0.39699 0.01332 0.0
C873 C 0.83205 0.4103 0.99181 0.0
C874 C 0.72893 0.43307 1.00257 0.0
C875 C 0.77776 0.41604 0.00744 0.0
C876 C 0.70098 0.42963 0.00766 0.0
C877 C 0.69229 0.40859 0.02354 0.0
C878 C 0.7481 0.41553 0.01372 0.0
C879 C 0.71214 0.39222 0.03484 0.0
C880 C 0.79596 0.39994 0.02126 0.0
C881 C 0.81388 0.42772 0.97929 0.0
N882 N 0.73893 0.396 0.02969 0.0
N883 N 0.78737 0.42979 0.98707 0.0
H884 H 0.82504 0.43343 0.24516 0.0
H885 H 0.88521 0.58172 0.27454 0.0
H886 H 0.88698 0.45188 0.2995 0.0
H887 H 0.83145 0.56766 0.21226 0.0
H888 H 0.8785 0.53509 0.28807 0.0
H889 H 0.82003 0.48271 0.23674 0.0
C890 C 0.83698 0.44791 0.25578 0.0
C891 C 0.85633 0.43873 0.27316 0.0
C892 C 0.86792 0.54201 0.27151 0.0
C893 C 0.85103 0.49469 0.26352 0.0
C894 C 0.87174 0.56876 0.26377 0.0
C895 C 0.85914 0.57852 0.24206 0.0
C896 C 0.85166 0.52435 0.25729 0.0
C897 C 0.84159 0.56089 0.22909 0.0
C898 C 0.83432 0.47594 0.25082 0.0
C899 C 0.87177 0.45815 0.28603 0.0
N900 N 0.83866 0.53443 0.23668 0.0
N901 N 0.86884 0.48505 0.2809 0.0
H902 H 0.70236 0.63285 0.45194 0.0
H903 H 0.81766 0.57976 0.54606 0.0
H904 H 0.68359 0.57812 0.51226 0.0
H905 H 0.83129 0.63142 0.48229 0.0
H906 H 0.76991 0.57352 0.5323 0.0
H907 H 0.75077 0.62715 0.46057 0.0
C908 C 0.70858 0.61914 0.46673 0.0
C909 C 0.68904 0.60572 0.48122 0.0
C910 C 0.78356 0.58584 0.52116 0.0
C911 C 0.74473 0.59974 0.49204 0.0
C912 C 0.81081 0.58924 0.52893 0.0
C913 C 0.82838 0.60631 0.51539 0.0
C914 C 0.77408 0.59949 0.49969 0.0
C915 C 0.8184 0.61832 0.49346 0.0
C916 C 0.73627 0.61597 0.47182 0.0
C917 C 0.69814 0.5885 0.50044 0.0
N918 N 0.79208 0.61484 0.48646 0.0
N919 N 0.72536 0.58626 0.50554 0.0
H920 H 0.39033 0.45339 0.20364 0.0
H921 H 0.32821 0.56957 0.29154 0.0
H922 H 0.32668 0.4357 0.25648 0.0
H923 H 0.38597 0.58238 0.23212 0.0
H924 H 0.32287 0.52183 0.2775 0.0
H925 H 0.38464 0.50177 0.21183 0.0
C926 C 0.37476 0.45985 0.21671 0.0
C927 C 0.35885 0.44061 0.22928 0.0
C928 C 0.33637 0.5353 0.26738 0.0
C929 C 0.35268 0.4963 0.23958 0.0
C930 C 0.3393 0.56253 0.27531 0.0
C931 C 0.35782 0.57984 0.26316 0.0
C932 C 0.35197 0.52562 0.24713 0.0
C933 C 0.37179 0.56967 0.24231 0.0
C934 C 0.37154 0.48754 0.22151 0.0
C935 C 0.33912 0.45003 0.24621 0.0
N936 N 0.36872 0.54338 0.23515 0.0
N937 N 0.33683 0.47726 0.25118 0.0
H938 H 0.33515 0.57381 0.00875 0.0
H939 H 0.18607 0.63505 0.9844 0.0
H940 H 0.31539 0.63896 0.95808 0.0
H941 H 0.20157 0.57973 0.0452 0.0
H942 H 0.23241 0.62885 0.96993 0.0
H943 H 0.28605 0.56849 0.01808 0.0
C944 C 0.32042 0.58645 0.99912 0.0
C945 C 0.3292 0.60677 0.98253 0.0
C946 C 0.22587 0.61782 0.98636 0.0
C947 C 0.27346 0.60104 0.99317 0.0
C948 C 0.19926 0.62131 0.99462 0.0
C949 C 0.18998 0.60812 0.0162 0.0
C950 C 0.24391 0.60128 0.99991 0.0
C951 C 0.20796 0.59031 0.02848 0.0
C952 C 0.29251 0.58359 0.00461 0.0
C953 C 0.30946 0.62301 0.97094 0.0
N954 N 0.2343 0.58769 0.02038 0.0
N955 N 0.28269 0.61984 0.97651 0.0
H956 H 0.16114 0.56738 0.70046 0.0
H957 H 0.18267 0.44901 0.802 0.0
H958 H 0.16132 0.58311 0.77958 0.0
H959 H 0.14039 0.43677 0.73244 0.0
H960 H 0.18847 0.49753 0.79114 0.0
H961 H 0.16747 0.51857 0.7092 0.0
C962 C 0.16327 0.56068 0.71961 0.0
C963 C 0.16064 0.57931 0.73932 0.0
C964 C 0.17834 0.48404 0.77812 0.0
C965 C 0.16795 0.52365 0.74943 0.0
C966 C 0.1752 0.4564 0.78424 0.0
C967 C 0.16099 0.43896 0.7681 0.0
C968 C 0.16777 0.49403 0.75547 0.0
C969 C 0.15138 0.44962 0.74543 0.0
C970 C 0.16664 0.53284 0.7246 0.0
C971 C 0.16315 0.5694 0.76384 0.0
N972 N 0.15495 0.47639 0.73977 0.0
N973 N 0.16659 0.54229 0.76821 0.0
H974 H 0.19471 0.4389 0.46512 0.0
H975 H 0.3129 0.37573 0.55088 0.0
H976 H 0.1846 0.37533 0.51982 0.0
H977 H 0.32949 0.43981 0.49821 0.0
H978 H 0.26443 0.38046 0.54257 0.0
H979 H 0.24249 0.44446 0.47913 0.0
C980 C 0.20236 0.42646 0.48026 0.0
C981 C 0.18576 0.40636 0.49108 0.0
C982 C 0.27843 0.39384 0.53293 0.0
C983 C 0.24001 0.41258 0.50717 0.0
C984 C 0.30617 0.39121 0.53784 0.0
C985 C 0.32516 0.40749 0.52534 0.0
C986 C 0.26933 0.41254 0.51487 0.0
C987 C 0.31538 0.42708 0.50843 0.0
C988 C 0.22961 0.42955 0.48818 0.0
C989 C 0.19672 0.39077 0.51061 0.0
N990 N 0.28809 0.42884 0.50339 0.0
N991 N 0.22296 0.39412 0.51784 0.0
H992 H 0.29253 0.32748 0.27982 0.0
H993 H 0.22518 0.19159 0.2249 0.0
H994 H 0.29636 0.30474 0.2022 0.0
H995 H 0.22082 0.2145 0.30244 0.0
H996 H 0.25313 0.23176 0.21664 0.0
H997 H 0.26495 0.28709 0.28822 0.0
C998 C 0.28678 0.31445 0.26438 0.0
C999 C 0.29666 0.31966 0.24024 0.0
C1000 C 0.24648 0.22782 0.23555 0.0
C1001 C 0.26598 0.27263 0.24991 0.0
C1002 C 0.23092 0.2046 0.24037 0.0
C1003 C 0.22077 0.19953 0.26443 0.0
C1004 C 0.25184 0.24632 0.25491 0.0
C1005 C 0.2285 0.21733 0.28369 0.0
C1006 C 0.27143 0.29111 0.26927 0.0
C1007 C 0.28891 0.30182 0.22102 0.0
N1008 N 0.24324 0.24012 0.27844 0.0
N1009 N 0.27434 0.27893 0.22634 0.0
H1010 H 0.96003 0.04351 0.44931 0.0
H1011 H 0.05733 0.97365 0.55122 0.0
H1012 H 0.94319 0.04268 0.52828 0.0
H1013 H 0.07174 0.96911 0.47196 0.0
H1014 H 0.0172 1.00187 0.54321 0.0
H1015 H 1.00069 0.01582 0.45689 0.0
C1016 C 0.9643 0.0367 0.46813 0.0
C1017 C 0.94807 0.04539 0.48818 0.0
C1018 C 0.02938 0.99508 0.52757 0.0
C1019 C 0.99528 0.01467 0.49715 0.0
C1020 C 0.05268 0.97943 0.53219 0.0
C1021 C 0.06802 0.96905 0.51224 0.0
C1022 C 0.02136 1.00042 0.50283 0.0
C1023 C 0.06053 0.97673 0.4879 0.0
C1024 C 0.98786 0.02133 0.47253 0.0
C1025 C 0.95508 0.03641 0.51226 0.0
N1026 N 0.03761 0.99166 0.48387 0.0
N1027 N 0.97827 0.02187 0.51609 0.0
H1028 H 0.29529 0.81961 0.72374 0.0
H1029 H 0.21753 0.69212 0.78298 0.0
H1030 H 0.29615 0.80213 0.80256 0.0
H1031 H 0.22607 0.70528 0.70401 0.0
H1032 H 0.24838 0.73033 0.79084 0.0
H1033 H 0.26862 0.77838 0.71665 0.0
C1034 C 0.28912 0.80752 0.73968 0.0
C1035 C 0.29781 0.81457 0.76382 0.0
C1036 C 0.2442 0.72442 0.77176 0.0
C1037 C 0.26805 0.76649 0.75569 0.0
C1038 C 0.22715 0.70213 0.76725 0.0
C1039 C 0.21971 0.6951 0.74278 0.0
C1040 C 0.25355 0.74013 0.75161 0.0
C1041 C 0.23183 0.70952 0.72312 0.0
C1042 C 0.27431 0.78366 0.73555 0.0
C1043 C 0.28955 0.79783 0.78369 0.0
N1044 N 0.24771 0.73166 0.72796 0.0
N1045 N 0.27535 0.77446 0.77917 0.0
H1046 H 0.4398 0.04471 0.97353 0.0
H1047 H 0.57441 0.97524 0.02922 0.0
H1048 H 0.46063 0.04549 0.05166 0.0
H1049 H 0.55186 0.97048 0.95161 0.0
H1050 H 0.53415 1.00318 0.03723 0.0
H1051 H 0.47996 0.01668 0.96516 0.0
C1052 C 0.45233 0.03817 0.98906 0.0
C1053 C 0.44664 0.0473 0.01338 0.0
C1054 C 0.53817 0.99643 0.01835 0.0
C1055 C 0.49347 0.01613 0.00376 0.0
C1056 C 0.56146 0.98087 0.01368 0.0
C1057 C 0.5667 0.97064 0.98966 0.0
C1058 C 0.51976 1.00178 0.99891 0.0
C1059 C 0.54893 0.97824 0.97032 0.0
C1060 C 0.47554 0.02255 0.98421 0.0
C1061 C 0.46389 0.0386 0.03271 0.0
N1062 N 0.52609 0.99305 0.97543 0.0
N1063 N 0.4867 0.02384 0.02743 0.0
H1064 H 0.22393 0.82658 0.28156 0.0
H1065 H 0.2923 0.69219 0.22439 0.0
H1066 H 0.22169 0.80624 0.20335 0.0
H1067 H 0.29553 0.71292 0.30249 0.0
H1068 H 0.26469 0.73276 0.21668 0.0
H1069 H 0.25156 0.78603 0.28937 0.0
C1070 C 0.23007 0.81407 0.26588 0.0
C1071 C 0.22062 0.82 0.24172 0.0
C1072 C 0.27102 0.72825 0.23558 0.0
C1073 C 0.25133 0.77274 0.25071 0.0
C1074 C 0.28638 0.70479 0.24008 0.0
C1075 C 0.2961 0.69896 0.26416 0.0
C1076 C 0.2654 0.74625 0.25528 0.0
C1077 C 0.28817 0.71631 0.2837 0.0
C1078 C 0.24545 0.79063 0.27043 0.0
C1079 C 0.22882 0.80277 0.22219 0.0
N1080 N 0.27361 0.73934 0.27878 0.0
N1081 N 0.24338 0.77976 0.22717 0.0
H1082 H 0.46127 0.97242 0.45092 0.0
H1083 H 0.55741 0.04339 0.55311 0.0
H1084 H 0.44404 0.97284 0.52982 0.0
H1085 H 0.57413 0.04419 0.47412 0.0
H1086 H 0.51696 0.01563 0.54514 0.0
H1087 H 0.50179 1.00016 0.45878 0.0
C1088 C 0.46541 0.97918 0.46978 0.0
C1089 C 0.44913 0.97034 0.48973 0.0
C1090 C 0.52971 0.0215 0.52957 0.0
C1091 C 0.49619 1.00112 0.49902 0.0
C1092 C 0.55318 0.03689 0.53419 0.0
C1093 C 0.56929 0.04608 0.51426 0.0
C1094 C 0.52229 0.01525 0.50486 0.0
C1095 C 0.56232 0.0375 0.49005 0.0
C1096 C 0.4889 0.99456 0.47434 0.0
C1097 C 0.45598 0.97924 0.51387 0.0
N1098 N 0.53923 0.02288 0.486 0.0
N1099 N 0.4791 0.99382 0.51787 0.0
H1100 H 0.22565 0.3073 0.80421 0.0
H1101 H 0.29595 0.21078 0.70182 0.0
H1102 H 0.22645 0.32511 0.72543 0.0
H1103 H 0.29389 0.1925 0.78049 0.0
H1104 H 0.26911 0.2519 0.7098 0.0
H1105 H 0.2526 0.2663 0.79612 0.0
C1106 C 0.23235 0.30318 0.78533 0.0
C1107 C 0.22383 0.3198 0.76548 0.0
C1108 C 0.27414 0.23866 0.72528 0.0
C1109 C 0.25374 0.27217 0.75592 0.0
C1110 C 0.28899 0.21483 0.72064 0.0
C1111 C 0.29711 0.19803 0.7405 0.0
C1112 C 0.26735 0.24579 0.74995 0.0
C1113 C 0.28802 0.2048 0.76461 0.0
C1114 C 0.24727 0.27941 0.78063 0.0
C1115 C 0.23263 0.31294 0.7413 0.0
N1116 N 0.27395 0.22825 0.76869 0.0
N1117 N 0.24679 0.28955 0.73718 0.0
H1118 H 0.93886 0.97307 0.9749 0.0
H1119 H 0.07534 0.0409 0.02834 0.0
H1120 H 0.96267 0.96916 0.05223 0.0
H1121 H 0.051 0.04599 0.9512 0.0
H1122 H 0.03528 0.01294 0.03702 0.0
H1123 H 0.97884 1.00115 0.96614 0.0
C1124 C 0.95202 0.97894 0.99022 0.0
C1125 C 0.94721 0.96892 0.01439 0.0
C1126 C 0.03887 0.01976 0.0181 0.0
C1127 C 0.99384 1.00015 0.00427 0.0
C1128 C 0.06203 0.03533 0.01303 0.0
C1129 C 0.06672 0.04565 0.98895 0.0
C1130 C 0.02001 0.01452 0.999 0.0
C1131 C 0.0485 0.03816 0.96994 0.0
C1132 C 0.97513 0.99458 0.98512 0.0
C1133 C 0.96525 0.97676 0.03342 0.0
N1134 N 0.02579 0.02336 0.97544 0.0
N1135 N 0.98794 0.99159 0.02789 0.0
H1136 H 0.72424 0.69276 0.72384 0.0
H1137 H 0.78891 0.82987 0.77907 0.0
H1138 H 0.72124 0.71447 0.80172 0.0
H1139 H 0.79315 0.80762 0.70136 0.0
H1140 H 0.76218 0.78888 0.78731 0.0
H1141 H 0.75081 0.73385 0.71546 0.0
C1142 C 0.73002 0.7057 0.73934 0.0
C1143 C 0.72067 0.69997 0.76356 0.0
C1144 C 0.76854 0.79314 0.76837 0.0
C1145 C 0.75012 0.74784 0.75391 0.0
C1146 C 0.78338 0.81684 0.76356 0.0
C1147 C 0.7932 0.82236 0.73945 0.0
C1148 C 0.76351 0.7746 0.74896 0.0
C1149 C 0.78575 0.80446 0.72016 0.0
C1150 C 0.74477 0.72945 0.73447 0.0
C1151 C 0.72835 0.71776 0.78284 0.0
N1152 N 0.7717 0.78122 0.7254 0.0
N1153 N 0.74229 0.74106 0.77754 0.0
H1154 H 0.72517 0.18856 0.2796 0.0
H1155 H 0.79279 0.32375 0.22351 0.0
H1156 H 0.72047 0.21073 0.2019 0.0
H1157 H 0.79583 0.30225 0.30144 0.0
H1158 H 0.76519 0.28328 0.21539 0.0
H1159 H 0.75307 0.22885 0.28749 0.0
C1160 C 0.73082 0.20142 0.26402 0.0
C1161 C 0.72059 0.19609 0.24001 0.0
C1162 C 0.77149 0.2876 0.23435 0.0
C1163 C 0.75163 0.24306 0.24912 0.0
C1164 C 0.78686 0.31098 0.23907 0.0
C1165 C 0.7965 0.31658 0.26323 0.0
C1166 C 0.7658 0.26943 0.25389 0.0
C1167 C 0.78854 0.29904 0.2826 0.0
C1168 C 0.74635 0.22472 0.26862 0.0
C1169 C 0.72821 0.21374 0.22061 0.0
N1170 N 0.77398 0.2761 0.27745 0.0
N1171 N 0.74295 0.23661 0.22566 0.0
H1172 H 0.79919 0.1936 0.72187 0.0
H1173 H 0.72158 0.32164 0.78022 0.0
H1174 H 0.78965 0.20682 0.80073 0.0
H1175 H 0.7203 0.30341 0.70153 0.0
H1176 H 0.74795 0.28025 0.78755 0.0
H1177 H 0.76839 0.23179 0.71366 0.0
C1178 C 0.78937 0.20362 0.73748 0.0
C1179 C 0.7965 0.19662 0.76203 0.0
C1180 C 0.7422 0.28539 0.76862 0.0
C1181 C 0.76272 0.24162 0.75283 0.0
C1182 C 0.72756 0.30933 0.76436 0.0
C1183 C 0.71884 0.31623 0.74019 0.0
C1184 C 0.74831 0.268 0.74859 0.0
C1185 C 0.72691 0.29922 0.72041 0.0
C1186 C 0.77233 0.2259 0.73279 0.0
C1187 C 0.78412 0.21105 0.78156 0.0
N1188 N 0.74097 0.2758 0.72508 0.0
N1189 N 0.76829 0.23318 0.77655 0.0
H1190 H 0.79199 0.68844 0.2801 0.0
H1191 H 0.72426 0.82378 0.22433 0.0
H1192 H 0.79671 0.71087 0.20247 0.0
H1193 H 0.72166 0.80225 0.30226 0.0
H1194 H 0.75182 0.78329 0.21609 0.0
H1195 H 0.76403 0.72869 0.28806 0.0
C1196 C 0.7863 0.70134 0.26454 0.0
C1197 C 0.79658 0.69612 0.24054 0.0
C1198 C 0.74564 0.78761 0.23507 0.0
C1199 C 0.7655 0.74303 0.24974 0.0
C1200 C 0.7303 0.811 0.23986 0.0
C1201 C 0.72079 0.81658 0.26406 0.0
C1202 C 0.7514 0.76942 0.25458 0.0
C1203 C 0.72886 0.79905 0.28339 0.0
C1204 C 0.77075 0.72462 0.26919 0.0
C1205 C 0.78893 0.7138 0.22117 0.0
N1206 N 0.74337 0.77608 0.27818 0.0
N1207 N 0.77418 0.73666 0.22626 0.0
H1208 H 0.55846 0.47118 0.05262 0.0
H1209 H 0.46244 0.54354 0.95109 0.0
H1210 H 0.57373 0.46876 0.97341 0.0
H1211 H 0.4459 0.54331 0.03011 0.0
H1212 H 0.50243 0.51487 0.9586 0.0
H1213 H 0.5184 0.49964 0.04486 0.0
C1214 C 0.55399 0.47743 0.03368 0.0
C1215 C 0.56958 0.46762 0.01364 0.0
C1216 C 0.48979 0.52071 0.97426 0.0
C1217 C 0.52303 0.49927 0.00451 0.0
C1218 C 0.4666 0.53663 0.96991 0.0
C1219 C 0.4507 0.54579 0.99 0.0
C1220 C 0.49717 0.51394 0.99888 0.0
C1221 C 0.45756 0.53668 0.01407 0.0
C1222 C 0.53075 0.49323 0.02919 0.0
C1223 C 0.56233 0.47591 0.98942 0.0
N1224 N 0.48041 0.52159 0.01786 0.0
N1225 N 0.53947 0.49097 0.98551 0.0
H1226 H 0.07435 0.47337 0.53168 0.0
H1227 H 0.94162 0.54561 0.47521 0.0
H1228 H 0.05351 0.47158 0.45355 0.0
H1229 H 0.96189 0.54625 0.55347 0.0
H1230 H 0.98148 0.51709 0.46712 0.0
H1231 H 0.03434 0.50168 0.5397 0.0
C1232 C 0.06183 0.47971 0.51606 0.0
C1233 C 0.06746 0.47021 0.49187 0.0
C1234 C 0.97701 0.52306 0.48613 0.0
C1235 C 0.02084 0.50177 0.50109 0.0
C1236 C 0.95397 0.53896 0.49083 0.0
C1237 C 0.94824 0.54819 0.51509 0.0
C1238 C 0.99471 0.51643 0.5058 0.0
C1239 C 0.96522 0.5393 0.53454 0.0
C1240 C 0.0387 0.49549 0.52073 0.0
C1241 C 0.05026 0.47872 0.47242 0.0
N1242 N 0.98787 0.52423 0.52943 0.0
N1243 N 0.02756 0.49372 0.47751 0.0
H1244 H 0.07912 0.5422 0.97734 0.0
H1245 H 0.94397 0.47392 0.03275 0.0
H1246 H 0.05705 0.54606 0.05511 0.0
H1247 H 0.96445 0.47386 0.95454 0.0
H1248 H 0.98446 0.50138 0.04126 0.0
H1249 H 0.03847 0.51495 0.96915 0.0
C1250 C 0.06619 0.53649 0.99286 0.0
C1251 C 0.07165 0.54631 0.01697 0.0
C1252 C 0.97989 0.49579 0.02217 0.0
C1253 C 0.02431 0.51601 0.00754 0.0
C1254 C 0.9565 0.48051 0.01724 0.0
C1255 C 0.95066 0.47171 0.99286 0.0
C1256 C 0.99781 0.50218 1.00263 0.0
C1257 C 0.96787 0.48049 0.97355 0.0
C1258 C 0.04269 0.52135 0.98809 0.0
C1259 C 0.05392 0.53864 0.0363 0.0
N1260 N 0.99086 0.49489 0.9789 0.0
N1261 N 0.03087 0.52425 0.03111 0.0
H1262 H 0.55412 0.5441 0.45187 0.0
H1263 H 0.45943 0.47172 0.55441 0.0
H1264 H 0.57197 0.5439 0.53066 0.0
H1265 H 0.44083 0.47352 0.47578 0.0
H1266 H 0.49982 0.4996 0.54639 0.0
H1267 H 0.51361 0.51644 0.46005 0.0
C1268 C 0.5501 0.53742 0.47078 0.0
C1269 C 0.5666 0.54626 0.4906 0.0
C1270 C 0.48666 0.49427 0.53093 0.0
C1271 C 0.51955 0.51552 0.50026 0.0
C1272 C 0.46324 0.47881 0.53559 0.0
C1273 C 0.44659 0.47033 0.51575 0.0
C1274 C 0.49353 0.50129 0.50625 0.0
C1275 C 0.45304 0.47964 0.49165 0.0
C1276 C 0.52662 0.52208 0.47552 0.0
C1277 C 0.55989 0.53748 0.51481 0.0
N1278 N 0.47611 0.4943 0.48755 0.0
N1279 N 0.53679 0.52289 0.51898 0.0
H1280 H 0.15283 0.26588 0.30087 0.0
H1281 H 0.13085 0.29866 0.44573 0.0
H1282 H 0.14578 0.20619 0.35965 0.0
H1283 H 0.13269 0.36267 0.39053 0.0
H1284 H 0.13972 0.26553 0.41357 0.0
H1285 H 0.14858 0.30222 0.33228 0.0
C1286 C 0.15058 0.26039 0.32032 0.0
C1287 C 0.14961 0.23285 0.32758 0.0
C1288 C 0.13827 0.28676 0.40826 0.0
C1289 C 0.14475 0.27427 0.36346 0.0
C1290 C 0.13315 0.30587 0.42674 0.0
C1291 C 0.13074 0.33365 0.42089 0.0
C1292 C 0.14095 0.29511 0.38337 0.0
C1293 C 0.13434 0.34148 0.39588 0.0
C1294 C 0.14811 0.28115 0.3382 0.0
C1295 C 0.14658 0.22701 0.35303 0.0
N1296 N 0.13909 0.32225 0.37793 0.0
N1297 N 0.14424 0.24745 0.3699 0.0
H1298 H 0.06335 0.89673 0.61177 0.0
H1299 H 0.90254 0.88817 0.63921 0.0
H1300 H 1.00341 0.90495 0.55329 0.0
H1301 H 0.96629 0.88134 0.6944 0.0
H1302 H 0.93781 0.89644 0.6072 0.0
H1303 H 0.0268 0.8931 0.64215 0.0
C1304 C 0.04248 0.89793 0.60528 0.0
C1305 C 0.03657 0.90116 0.57986 0.0
C1306 C 0.9439 0.89324 0.6264 0.0
C1307 C 0.99416 0.89675 0.61482 0.0
C1308 C 0.92379 0.8886 0.64465 0.0
C1309 C 0.93134 0.88385 0.66956 0.0
C1310 C 0.97164 0.89322 0.63323 0.0
C1311 C 0.95927 0.8846 0.67549 0.0
C1312 C 0.0215 0.89581 0.6227 0.0
C1313 C 0.00897 0.9025 0.5727 0.0
N1314 N 0.97818 0.88907 0.65757 0.0
N1315 N 0.98878 0.90017 0.59007 0.0
H1316 H 0.36312 0.75145 0.80234 0.0
H1317 H 0.386 0.71803 0.94704 0.0
H1318 H 0.37127 0.81135 0.86082 0.0
H1319 H 0.3822 0.65446 0.89148 0.0
H1320 H 0.37776 0.75162 0.91503 0.0
H1321 H 0.36741 0.71524 0.83376 0.0
C1322 C 0.36563 0.75704 0.82175 0.0
C1323 C 0.36684 0.78461 0.82888 0.0
C1324 C 0.37863 0.73038 0.90965 0.0
C1325 C 0.37179 0.74323 0.86487 0.0
C1326 C 0.38337 0.711 0.92804 0.0
C1327 C 0.38499 0.68317 0.92205 0.0
C1328 C 0.37551 0.72225 0.88474 0.0
C1329 C 0.38113 0.67564 0.89698 0.0
C1330 C 0.36813 0.73632 0.83965 0.0
C1331 C 0.37021 0.79051 0.85431 0.0
N1332 N 0.3767 0.6951 0.87918 0.0
N1333 N 0.37259 0.77008 0.87124 0.0
H1334 H 0.54722 0.13536 0.19705 0.0
H1335 H 0.51249 0.11129 0.05288 0.0
H1336 H 0.61042 0.12995 0.14124 0.0
H1337 H 0.45312 0.12017 0.11173 0.0
H1338 H 0.54902 0.11529 0.08404 0.0
H1339 H 0.51335 0.12685 0.16539 0.0
C1340 C 0.5541 0.13234 0.17805 0.0
C1341 C 0.5819 0.13361 0.17188 0.0
C1342 C 0.52799 0.1162 0.09007 0.0
C1343 C 0.54249 0.1238 0.13497 0.0
C1344 C 0.50709 0.11387 0.07233 0.0
C1345 C 0.47959 0.11541 0.07965 0.0
C1346 C 0.52132 0.12005 0.11531 0.0
C1347 C 0.47391 0.11887 0.1051 0.0
C1348 C 0.53456 0.12743 0.15987 0.0
C1349 C 0.58926 0.12917 0.14686 0.0
N1350 N 0.49452 0.12111 0.12187 0.0
N1351 N 0.56962 0.12462 0.12923 0.0
H1352 H 0.13792 0.65423 0.11686 0.0
H1353 H 0.14906 0.81452 0.14434 0.0
H1354 H 0.13595 0.7179 0.06131 0.0
H1355 H 0.1552 0.7546 0.20302 0.0
H1356 H 0.14603 0.77806 0.1139 0.0
H1357 H 0.14621 0.68925 0.14906 0.0
C1358 C 0.13945 0.67541 0.1114 0.0
C1359 C 0.13599 0.68307 0.08635 0.0
C1360 C 0.14815 0.77273 0.13341 0.0
C1361 C 0.14535 0.72302 0.12285 0.0
C1362 C 0.1499 0.79366 0.15086 0.0
C1363 C 0.15235 0.78771 0.17633 0.0
C1364 C 0.14865 0.74542 0.14132 0.0
C1365 C 0.15335 0.76015 0.18355 0.0
C1366 C 0.14409 0.69537 0.12975 0.0
C1367 C 0.13813 0.71086 0.08035 0.0
N1368 N 0.15134 0.73999 0.16614 0.0
N1369 N 0.14254 0.72964 0.09837 0.0
H1370 H 0.45502 0.89813 0.39409 0.0
H1371 H 0.61496 0.88488 0.3649 0.0
H1372 H 0.5153 0.90217 0.45264 0.0
H1373 H 0.55035 0.8838 0.31022 0.0
H1374 H 0.58048 0.89297 0.39767 0.0
H1375 H 0.49117 0.89456 0.36352 0.0
C1376 C 0.47592 0.89837 0.40058 0.0
C1377 C 0.48199 0.90041 0.4261 0.0
C1378 C 0.57404 0.89108 0.37843 0.0
C1379 C 0.52407 0.8961 0.39075 0.0
C1380 C 0.59369 0.88655 0.35974 0.0
C1381 C 0.58565 0.88347 0.3347 0.0
C1382 C 0.54626 0.89262 0.37195 0.0
C1383 C 0.55774 0.88575 0.32916 0.0
C1384 C 0.4967 0.89631 0.38301 0.0
C1385 C 0.50963 0.90066 0.43317 0.0
N1386 N 0.53927 0.89008 0.34751 0.0
N1387 N 0.52968 0.89838 0.4156 0.0
H1388 H 0.38511 0.29787 0.55985 0.0
H1389 H 0.36245 0.26356 0.70436 0.0
H1390 H 0.38034 0.36146 0.61536 0.0
H1391 H 0.37146 0.2044 0.64534 0.0
H1392 H 0.36629 0.30017 0.67319 0.0
H1393 H 0.37726 0.26426 0.5918 0.0
C1394 C 0.38237 0.3049 0.57885 0.0
C1395 C 0.38359 0.33274 0.58483 0.0
C1396 C 0.36729 0.27915 0.66715 0.0
C1397 C 0.37455 0.29359 0.62211 0.0
C1398 C 0.36505 0.25823 0.6849 0.0
C1399 C 0.36667 0.23076 0.67752 0.0
C1400 C 0.37108 0.27251 0.64188 0.0
C1401 C 0.37013 0.22514 0.65205 0.0
C1402 C 0.37784 0.2855 0.59721 0.0
C1403 C 0.37958 0.34026 0.60988 0.0
N1404 N 0.37224 0.24574 0.63531 0.0
N1405 N 0.37538 0.32075 0.62769 0.0
H1406 H 0.95603 0.11181 0.81266 0.0
H1407 H 1.00173 0.12405 0.9552 0.0
H1408 H 0.9057 0.15299 0.86693 0.0
H1409 H 0.0577 0.11344 0.8939 0.0
H1410 H 0.96417 0.12845 0.92507 0.0
H1411 H 0.99091 0.10546 0.84427 0.0
C1412 C 0.9521 0.11933 0.83132 0.0
C1413 C 0.9277 0.13301 0.83703 0.0
C1414 C 0.98469 0.12511 0.9183 0.0
C1415 C 0.96811 0.12573 0.87359 0.0
C1416 C 1.00612 0.12245 0.93545 0.0
C1417 C 0.03297 0.11831 0.92709 0.0
C1418 C 0.99007 0.12315 0.89263 0.0
C1419 C 0.03742 0.11665 0.90126 0.0
C1420 C 0.97222 0.11579 0.84936 0.0
C1421 C 0.92412 0.14233 0.86163 0.0
N1422 N 0.01624 0.11893 0.88504 0.0
N1423 N 0.94411 0.13849 0.87904 0.0
H1424 H 0.87963 0.65445 0.61575 0.0
H1425 H 0.86285 0.8143 0.64309 0.0
H1426 H 0.87713 0.71794 0.56007 0.0
H1427 H 0.85956 0.75468 0.70217 0.0
H1428 H 0.86648 0.7778 0.6128 0.0
H1429 H 0.87056 0.68917 0.64808 0.0
C1430 C 0.87694 0.67551 0.61028 0.0
C1431 C 0.87938 0.68322 0.58512 0.0
C1432 C 0.86483 0.7725 0.63235 0.0
C1433 C 0.86913 0.72287 0.62183 0.0
C1434 C 0.86275 0.79347 0.64974 0.0
C1435 C 0.86092 0.78766 0.6753 0.0
C1436 C 0.86536 0.74524 0.64036 0.0
C1437 C 0.86085 0.76012 0.68264 0.0
C1438 C 0.87185 0.69531 0.62872 0.0
C1439 C 0.87577 0.71087 0.57916 0.0
N1440 N 0.86323 0.7399 0.66527 0.0
N1441 N 0.87097 0.72949 0.59727 0.0
H1442 H 0.0142 0.1123 0.45272 0.0
H1443 H 0.04818 0.13733 0.30826 0.0
H1444 H 0.9549 0.12159 0.39384 0.0
H1445 H 0.11202 0.13106 0.3634 0.0
H1446 H 0.01464 0.12928 0.34029 0.0
H1447 H 0.05079 0.11692 0.42152 0.0
C1448 C 0.00883 0.11514 0.4333 0.0
C1449 C 0.9813 0.11657 0.42599 0.0
C1450 C 0.03592 0.12957 0.3456 0.0
C1451 C 0.02306 0.1219 0.39028 0.0
C1452 C 0.05529 0.13421 0.32718 0.0
C1453 C 0.0832 0.13502 0.333 0.0
C1454 C 0.0441 0.12574 0.37043 0.0
C1455 C 0.09078 0.1306 0.358 0.0
C1456 C 0.02974 0.11782 0.41552 0.0
C1457 C 0.97567 0.12036 0.40054 0.0
N1458 N 0.07132 0.12626 0.37586 0.0
N1459 N 0.99624 0.12291 0.38379 0.0
H1460 H 0.63555 0.36245 0.11541 0.0
H1461 H 0.64985 0.2029 0.14452 0.0
H1462 H 0.6404 0.29848 0.06032 0.0
H1463 H 0.65304 0.26319 0.20308 0.0
H1464 H 0.6474 0.23907 0.11385 0.0
H1465 H 0.64329 0.32804 0.14829 0.0
C1466 C 0.6385 0.34135 0.11021 0.0
C1467 C 0.63707 0.33339 0.08505 0.0
C1468 C 0.64875 0.24458 0.13337 0.0
C1469 C 0.64575 0.29411 0.12233 0.0
C1470 C 0.65014 0.2238 0.15098 0.0
C1471 C 0.65161 0.22991 0.1765 0.0
C1472 C 0.6486 0.27193 0.14112 0.0
C1473 C 0.65197 0.25753 0.18359 0.0
C1474 C 0.64282 0.32173 0.12894 0.0
C1475 C 0.64097 0.30572 0.07939 0.0
N1476 N 0.6503 0.27756 0.16599 0.0
N1477 N 0.64497 0.28726 0.09778 0.0
H1478 H 0.40214 0.88345 0.86487 0.0
H1479 H 0.56186 0.89648 0.89463 0.0
H1480 H 0.4668 0.88445 0.81028 0.0
H1481 H 0.50133 0.90162 0.95286 0.0
H1482 H 0.52582 0.89316 0.86391 0.0
H1483 H 0.43645 0.89153 0.89782 0.0
C1484 C 0.42337 0.88561 0.85978 0.0
C1485 C 0.43153 0.88304 0.83475 0.0
C1486 C 0.52022 0.89511 0.88337 0.0
C1487 C 0.4707 0.89211 0.87213 0.0
C1488 C 0.54093 0.897 0.90102 0.0
C1489 C 0.53474 0.8993 0.92647 0.0
C1490 C 0.49281 0.89531 0.89099 0.0
C1491 C 0.50707 0.8999 0.93343 0.0
C1492 C 0.44293 0.89012 0.87856 0.0
C1493 C 0.45938 0.88594 0.82925 0.0
N1494 N 0.48709 0.89777 0.9158 0.0
N1495 N 0.47775 0.89018 0.84768 0.0
H1496 H 0.89575 0.36682 0.88927 0.0
H1497 H 0.85153 0.21445 0.85322 0.0
H1498 H 0.87534 0.30424 0.94253 0.0
H1499 H 0.8948 0.26634 0.8017 0.0
H1500 H 0.85391 0.25032 0.88454 0.0
H1501 H 0.88925 0.33344 0.85533 0.0
C1502 C 0.88953 0.34625 0.89379 0.0
C1503 C 0.88615 0.3383 0.91877 0.0
C1504 C 0.86284 0.25395 0.86637 0.0
C1505 C 0.87869 0.30019 0.88025 0.0
C1506 C 0.86145 0.23343 0.8484 0.0
C1507 C 0.87306 0.23723 0.82472 0.0
C1508 C 0.87579 0.27872 0.86076 0.0
C1509 C 0.88565 0.26241 0.81972 0.0
C1510 C 0.88604 0.32718 0.87447 0.0
C1511 C 0.87836 0.31128 0.92359 0.0
N1512 N 0.88668 0.2822 0.83758 0.0
N1513 N 0.8749 0.29333 0.9046 0.0
H1514 H 0.50275 0.11196 0.55176 0.0
H1515 H 0.46804 0.13084 0.69661 0.0
H1516 H 0.56192 0.11722 0.61117 0.0
H1517 H 0.40509 0.13184 0.64032 0.0
H1518 H 0.50165 0.12208 0.66477 0.0
H1519 H 0.46612 0.11574 0.58288 0.0
C1520 C 0.50807 0.11368 0.57131 0.0
C1521 C 0.53555 0.11431 0.57881 0.0
C1522 C 0.48055 0.12412 0.65917 0.0
C1523 C 0.49375 0.11867 0.6144 0.0
C1524 C 0.46117 0.12919 0.67745 0.0
C1525 C 0.43355 0.13237 0.6712 0.0
C1526 C 0.47263 0.12229 0.6341 0.0
C1527 C 0.42614 0.12957 0.64599 0.0
C1528 C 0.48713 0.11591 0.58902 0.0
C1529 C 0.54116 0.1167 0.60438 0.0
N1530 N 0.44563 0.12488 0.62827 0.0
N1531 N 0.52053 0.11882 0.62111 0.0
H1532 H 0.6488 0.81169 0.36074 0.0
H1533 H 0.63395 0.65193 0.38943 0.0
H1534 H 0.65213 0.75151 0.30209 0.0
H1535 H 0.6344 0.71622 0.4444 0.0
H1536 H 0.64234 0.68642 0.35676 0.0
H1537 H 0.64512 0.77549 0.39126 0.0
C1538 C 0.64886 0.7908 0.35422 0.0
C1539 C 0.65074 0.78475 0.32871 0.0
C1540 C 0.64073 0.69279 0.37604 0.0
C1541 C 0.6463 0.74268 0.36395 0.0
C1542 C 0.63602 0.67312 0.39466 0.0
C1543 C 0.63324 0.68111 0.41972 0.0
C1544 C 0.64274 0.72049 0.38265 0.0
C1545 C 0.63606 0.70892 0.4254 0.0
C1546 C 0.64674 0.77001 0.37175 0.0
C1547 C 0.65075 0.75714 0.32157 0.0
N1548 N 0.64053 0.7274 0.40712 0.0
N1549 N 0.64841 0.73709 0.33909 0.0
H1550 H 0.11383 0.88731 0.14105 0.0
H1551 H 0.95364 0.89587 0.11078 0.0
H1552 H 0.04888 0.88329 0.19522 0.0
H1553 H 0.01418 0.90249 0.05271 0.0
H1554 H 0.98969 0.89287 0.14156 0.0
H1555 H 0.07933 0.89464 0.10809 0.0
C1556 C 0.09248 0.88819 0.14607 0.0
C1557 C 0.08438 0.88452 0.17102 0.0
C1558 C 0.9953 0.89507 0.12213 0.0
C1559 C 0.04492 0.89277 0.13354 0.0
C1560 C 0.97457 0.8968 0.10443 0.0
C1561 C 0.98072 0.89942 0.07897 0.0
C1562 C 0.02273 0.89578 0.11459 0.0
C1563 C 1.00842 0.90052 0.07211 0.0
C1564 C 0.0728 0.89228 0.12726 0.0
C1565 C 0.05634 0.88575 0.17635 0.0
N1566 N 0.02842 0.89857 0.0898 0.0
N1567 N 0.03786 0.88966 0.1579 0.0
H1568 H 0.65582 0.76426 0.80279 0.0
H1569 H 0.63038 0.79815 0.94713 0.0
H1570 H 0.6459 0.70449 0.86111 0.0
H1571 H 0.63711 0.86167 0.89178 0.0
H1572 H 0.63838 0.76439 0.9152 0.0
H1573 H 0.65126 0.80055 0.83414 0.0
C1574 C 0.65286 0.75872 0.82215 0.0
C1575 C 0.65126 0.73115 0.82924 0.0
C1576 C 0.63821 0.78565 0.90985 0.0
C1577 C 0.64597 0.77265 0.86518 0.0
C1578 C 0.63361 0.80514 0.9282 0.0
C1579 C 0.63293 0.83304 0.92228 0.0
C1580 C 0.64215 0.79371 0.88502 0.0
C1581 C 0.63747 0.84046 0.89727 0.0
C1582 C 0.65021 0.77948 0.84002 0.0
C1583 C 0.64731 0.72532 0.85462 0.0
N1584 N 0.64177 0.8209 0.8795 0.0
N1585 N 0.64478 0.74579 0.87152 0.0
H1586 H 0.56489 0.39294 0.11045 0.0
H1587 H 0.40451 0.38674 0.13979 0.0
H1588 H 0.50464 0.40133 0.05224 0.0
H1589 H 0.46922 0.3768 0.19365 0.0
H1590 H 0.43931 0.39412 0.10718 0.0
H1591 H 0.52868 0.38914 0.14094 0.0
C1592 C 0.54399 0.39409 0.10402 0.0
C1593 C 0.53793 0.39744 0.07863 0.0
C1594 C 0.44571 0.3904 0.12621 0.0
C1595 C 0.49581 0.39288 0.11385 0.0
C1596 C 0.42588 0.38624 0.1448 0.0
C1597 C 0.43382 0.38105 0.16956 0.0
C1598 C 0.47355 0.38943 0.13253 0.0
C1599 C 0.46186 0.38058 0.17493 0.0
C1600 C 0.52318 0.39188 0.12154 0.0
C1601 C 0.51029 0.39878 0.07162 0.0
N1602 N 0.48049 0.38465 0.15669 0.0
N1603 N 0.49022 0.3964 0.08913 0.0
H1604 H 0.88146 0.21659 0.44478 0.0
H1605 H 0.86366 0.25122 0.29983 0.0
H1606 H 0.88248 0.15356 0.38859 0.0
H1607 H 0.86996 0.31033 0.35919 0.0
H1608 H 0.86714 0.21458 0.33098 0.0
H1609 H 0.87344 0.2502 0.41282 0.0
C1610 C 0.87996 0.2097 0.42562 0.0
C1611 C 0.88292 0.18207 0.41943 0.0
C1612 C 0.86764 0.23559 0.33709 0.0
C1613 C 0.87373 0.22112 0.38219 0.0
C1614 C 0.8656 0.25652 0.31936 0.0
C1615 C 0.86656 0.28397 0.32687 0.0
C1616 C 0.87052 0.24222 0.36245 0.0
C1617 C 0.86918 0.28958 0.35241 0.0
C1618 C 0.87534 0.22908 0.40727 0.0
C1619 C 0.88037 0.17463 0.39421 0.0
N1620 N 0.87108 0.26897 0.36915 0.0
N1621 N 0.8761 0.19412 0.37641 0.0
H1622 H 0.01165 0.62516 0.55224 0.0
H1623 H 0.05818 0.61301 0.69447 0.0
H1624 H 0.95541 0.61509 0.6134 0.0
H1625 H 0.10879 0.6518 0.63902 0.0
H1626 H 0.0224 0.60763 0.66349 0.0
H1627 H 0.04909 0.62938 0.58229 0.0
C1628 C 1.00716 0.62366 0.57198 0.0
C1629 C 0.98027 0.61964 0.58028 0.0
C1630 C 0.04134 0.61724 0.65802 0.0
C1631 C 0.02317 0.62436 0.61474 0.0
C1632 C 0.06198 0.62019 0.67568 0.0
C1633 C 0.08676 0.63285 0.66942 0.0
C1634 C 0.04534 0.62672 0.63363 0.0
C1635 C 0.09012 0.64187 0.64472 0.0
C1636 C 0.02856 0.62623 0.58909 0.0
C1637 C 0.97574 0.61815 0.6061 0.0
N1638 N 0.06967 0.63856 0.6277 0.0
N1639 N 0.99695 0.62035 0.62236 0.0
H1640 H 0.63358 0.1524 0.61611 0.0
H1641 H 0.64985 0.31198 0.64457 0.0
H1642 H 0.63418 0.2168 0.56127 0.0
H1643 H 0.6503 0.25222 0.70364 0.0
H1644 H 0.64668 0.27569 0.61419 0.0
H1645 H 0.64229 0.18679 0.64885 0.0
C1646 C 0.63577 0.1736 0.61092 0.0
C1647 C 0.63289 0.18169 0.58591 0.0
C1648 C 0.64755 0.2703 0.63376 0.0
C1649 C 0.64277 0.22088 0.623 0.0
C1650 C 0.64936 0.29115 0.65121 0.0
C1651 C 0.65023 0.28525 0.67679 0.0
C1652 C 0.64637 0.24304 0.64169 0.0
C1653 C 0.64966 0.25771 0.6841 0.0
C1654 C 0.64064 0.19319 0.62958 0.0
C1655 C 0.63587 0.20946 0.58025 0.0
N1656 N 0.64759 0.23758 0.66662 0.0
N1657 N 0.64053 0.22786 0.59855 0.0
H1658 H 0.95648 0.40172 0.89401 0.0
H1659 H 0.11664 0.38665 0.86656 0.0
H1660 H 0.01642 0.40561 0.95286 0.0
H1661 H 0.0527 0.38468 0.81123 0.0
H1662 H 0.08182 0.39598 0.89875 0.0
H1663 H 0.99291 0.39781 0.86364 0.0
C1664 C 0.97735 0.4019 0.90058 0.0
C1665 C 0.98329 0.40396 0.9261 0.0
C1666 C 0.0756 0.39363 0.87949 0.0
C1667 C 0.02558 0.39921 0.89112 0.0
C1668 C 0.09545 0.38839 0.86114 0.0
C1669 C 0.08765 0.38463 0.83615 0.0
C1670 C 0.04792 0.39521 0.87265 0.0
C1671 C 0.05985 0.38707 0.83021 0.0
C1672 C 0.99827 0.39964 0.88316 0.0
C1673 C 0.01087 0.4041 0.93336 0.0
N1674 N 0.04119 0.39208 0.84823 0.0
N1675 N 0.03102 0.40159 0.91597 0.0
H1676 H 0.88214 0.79732 0.05895 0.0
H1677 H 0.86217 0.76267 0.20363 0.0
H1678 H 0.88204 0.86034 0.11514 0.0
H1679 H 0.87162 0.70337 0.14479 0.0
H1680 H 0.86564 0.7992 0.17243 0.0
H1681 H 0.87405 0.76362 0.09083 0.0
C1682 C 0.88037 0.8042 0.07809 0.0
C1683 C 0.88307 0.83187 0.0843 0.0
C1684 C 0.86683 0.77818 0.16642 0.0
C1685 C 0.87377 0.79268 0.12144 0.0
C1686 C 0.86479 0.75729 0.18418 0.0
C1687 C 0.86661 0.72981 0.17686 0.0
C1688 C 0.87058 0.77152 0.14117 0.0
C1689 C 0.87012 0.72414 0.15142 0.0
C1690 C 0.87572 0.78476 0.09639 0.0
C1691 C 0.88014 0.83927 0.10949 0.0
N1692 N 0.87199 0.74474 0.13462 0.0
N1693 N 0.87582 0.81972 0.12724 0.0
H1694 H 0.50121 0.61362 0.45378 0.0
H1695 H 0.46766 0.63301 0.30855 0.0
H1696 H 0.56069 0.61989 0.39476 0.0
H1697 H 0.40389 0.63203 0.36401 0.0
H1698 H 0.50101 0.62499 0.3408 0.0
H1699 H 0.46472 0.61746 0.4224 0.0
C1700 C 0.50664 0.61563 0.43429 0.0
C1701 C 0.53418 0.61646 0.42698 0.0
C1702 C 0.47979 0.62643 0.34614 0.0
C1703 C 0.49255 0.62085 0.39108 0.0
C1704 C 0.46054 0.63105 0.3276 0.0
C1705 C 0.43274 0.63342 0.33347 0.0
C1706 C 0.47157 0.62422 0.37111 0.0
C1707 C 0.42507 0.63034 0.3586 0.0
C1708 C 0.48578 0.61786 0.41642 0.0
C1709 C 0.5399 0.61918 0.40145 0.0
N1710 N 0.44442 0.62607 0.37658 0.0
N1711 N 0.51938 0.62129 0.38459 0.0
H1712 H 0.37444 0.21613 0.06026 0.0
H1713 H 0.3659 0.25217 0.2058 0.0
H1714 H 0.3855 0.15435 0.11661 0.0
H1715 H 0.36669 0.31043 0.14551 0.0
H1716 H 0.36849 0.21509 0.17488 0.0
H1717 H 0.36617 0.2495 0.0925 0.0
C1718 C 0.37505 0.20949 0.07953 0.0
C1719 C 0.38101 0.18235 0.08568 0.0
C1720 C 0.36796 0.23602 0.16854 0.0
C1721 C 0.37165 0.22108 0.12322 0.0
C1722 C 0.36642 0.25719 0.18614 0.0
C1723 C 0.36615 0.28455 0.1783 0.0
C1724 C 0.369 0.24232 0.14297 0.0
C1725 C 0.36696 0.28979 0.15258 0.0
C1726 C 0.37031 0.2287 0.09804 0.0
C1727 C 0.38101 0.17506 0.11105 0.0
N1728 N 0.36835 0.26898 0.136 0.0
N1729 N 0.37667 0.19442 0.12899 0.0
H1730 H 0.45605 0.61859 0.89441 0.0
H1731 H 0.61574 0.63273 0.86519 0.0
H1732 H 0.5165 0.61449 0.95281 0.0
H1733 H 0.55144 0.63028 0.81025 0.0
H1734 H 0.58135 0.62455 0.89801 0.0
H1735 H 0.49216 0.6217 0.86373 0.0
C1736 C 0.47697 0.61825 0.90083 0.0
C1737 C 0.48314 0.61631 0.92631 0.0
C1738 C 0.57496 0.62565 0.8787 0.0
C1739 C 0.52511 0.62007 0.89092 0.0
C1740 C 0.59457 0.63022 0.86 0.0
C1741 C 0.58651 0.63245 0.83491 0.0
C1742 C 0.54726 0.62325 0.87213 0.0
C1743 C 0.55875 0.62909 0.82927 0.0
C1744 C 0.49772 0.62002 0.88322 0.0
C1745 C 0.51078 0.61593 0.93335 0.0
N1746 N 0.54031 0.62481 0.84763 0.0
N1747 N 0.53079 0.61795 0.91575 0.0
H1748 H 0.12009 0.76466 0.70408 0.0
H1749 H 0.14963 0.80405 0.56229 0.0
H1750 H 0.16646 0.71469 0.65318 0.0
H1751 H 0.12124 0.86345 0.61555 0.0
H1752 H 0.15525 0.77122 0.59586 0.0
H1753 H 0.11916 0.80094 0.67257 0.0
C1754 C 0.13015 0.7613 0.68636 0.0
C1755 C 0.14334 0.73645 0.68132 0.0
C1756 C 0.14805 0.79147 0.60039 0.0
C1757 C 0.14224 0.77793 0.64519 0.0
C1758 C 0.14483 0.81028 0.58118 0.0
C1759 C 0.13496 0.83656 0.58613 0.0
C1760 C 0.14092 0.79864 0.62488 0.0
C1761 C 0.12913 0.84347 0.61099 0.0
C1762 C 0.12968 0.78209 0.66843 0.0
C1763 C 0.15602 0.73338 0.658 0.0
N1764 N 0.13188 0.82449 0.62945 0.0
N1765 N 0.15501 0.75374 0.64085 0.0
H1766 H 0.96757 0.38239 0.30881 0.0
H1767 H 1.00024 0.40354 0.45406 0.0
H1768 H 0.90345 0.38473 0.3639 0.0
H1769 H 0.06013 0.39751 0.39537 0.0
H1770 H 0.96398 0.3993 0.4225 0.0
H1771 H 1.00077 0.39065 0.34115 0.0
C1772 C 0.96033 0.38469 0.32778 0.0
C1773 C 0.93246 0.38267 0.3335 0.0
C1774 C 0.98507 0.39905 0.41662 0.0
C1775 C 0.97114 0.39219 0.37128 0.0
C1776 C 1.00581 0.40154 0.4346 0.0
C1777 C 0.03341 0.40087 0.42745 0.0
C1778 C 0.992 0.39594 0.39132 0.0
C1779 C 0.03929 0.39811 0.40194 0.0
C1780 C 0.9795 0.38945 0.34638 0.0
C1781 C 0.92467 0.38613 0.35857 0.0
N1782 N 0.01888 0.39573 0.38498 0.0
N1783 N 0.94394 0.39057 0.3766 0.0
H1784 H 0.38122 0.86354 0.38974 0.0
H1785 H 0.36852 0.70363 0.36081 0.0
H1786 H 0.38463 0.79908 0.44445 0.0
H1787 H 0.36307 0.76416 0.3026 0.0
H1788 H 0.37233 0.73973 0.3915 0.0
H1789 H 0.37245 0.82895 0.35725 0.0
C1790 C 0.37994 0.84228 0.39496 0.0
C1791 C 0.38388 0.83428 0.41987 0.0
C1792 C 0.3702 0.74529 0.37205 0.0
C1793 C 0.37393 0.79481 0.38303 0.0
C1794 C 0.368 0.72456 0.35444 0.0
C1795 C 0.36552 0.73077 0.32901 0.0
C1796 C 0.37013 0.77266 0.36436 0.0
C1797 C 0.36493 0.75841 0.32202 0.0
C1798 C 0.37501 0.82257 0.37644 0.0
C1799 C 0.38204 0.80639 0.42555 0.0
N1800 N 0.36737 0.77837 0.33959 0.0
N1801 N 0.3773 0.78786 0.40737 0.0
H1802 H 0.97017 0.63482 0.19821 0.0
H1803 H 1.00538 0.61139 0.05385 0.0
H1804 H 0.907 0.62918 0.14237 0.0
H1805 H 0.06446 0.62159 0.11277 0.0
H1806 H 0.96871 0.61521 0.08495 0.0
H1807 H 1.00413 0.62712 0.16643 0.0
C1808 C 0.9633 0.6319 0.17919 0.0
C1809 C 0.93546 0.63283 0.17308 0.0
C1810 C 0.98971 0.61648 0.091 0.0
C1811 C 0.97502 0.62398 0.13598 0.0
C1812 C 0.01069 0.61426 0.07328 0.0
C1813 C 0.03818 0.61618 0.08063 0.0
C1814 C 0.99627 0.62058 0.11625 0.0
C1815 C 0.04372 0.61999 0.10608 0.0
C1816 C 0.98291 0.62747 0.16092 0.0
C1817 C 0.92817 0.62861 0.14799 0.0
N1818 N 0.02305 0.62208 0.12282 0.0
N1819 N 0.94786 0.62451 0.13029 0.0
H1820 H 0.15903 0.25344 0.80275 0.0
H1821 H 0.13004 0.21801 0.94618 0.0
H1822 H 0.1494 0.31229 0.86192 0.0
H1823 H 0.13743 0.15491 0.89044 0.0
H1824 H 0.13931 0.25192 0.91478 0.0
H1825 H 0.15345 0.21665 0.83353 0.0
C1826 C 0.15598 0.25867 0.82218 0.0
C1827 C 0.1547 0.28612 0.82969 0.0
C1828 C 0.13901 0.23072 0.90921 0.0
C1829 C 0.14819 0.24411 0.86491 0.0
C1830 C 0.13365 0.21113 0.92726 0.0
C1831 C 0.1328 0.18331 0.92108 0.0
C1832 C 0.14353 0.22286 0.88441 0.0
C1833 C 0.13787 0.17606 0.89611 0.0
C1834 C 0.15272 0.23763 0.83971 0.0
C1835 C 0.15055 0.29157 0.85511 0.0
N1836 N 0.14291 0.19574 0.87862 0.0
N1837 N 0.14742 0.27086 0.87165 0.0
H1838 H 0.61392 0.38377 0.63859 0.0
H1839 H 0.45402 0.39893 0.61031 0.0
H1840 H 0.54971 0.38554 0.69361 0.0
H1841 H 0.51364 0.40127 0.55116 0.0
H1842 H 0.49043 0.39566 0.64059 0.0
H1843 H 0.57938 0.39195 0.60583 0.0
C1844 C 0.59274 0.3861 0.64382 0.0
C1845 C 0.58478 0.38373 0.66893 0.0
C1846 C 0.49578 0.39698 0.62103 0.0
C1847 C 0.54536 0.39297 0.63175 0.0
C1848 C 0.47484 0.39885 0.60362 0.0
C1849 C 0.48064 0.40031 0.57803 0.0
C1850 C 0.52306 0.39635 0.61306 0.0
C1851 C 0.5082 0.40021 0.5707 0.0
C1852 C 0.57305 0.39067 0.62514 0.0
C1853 C 0.557 0.38686 0.67459 0.0
N1854 N 0.52843 0.39808 0.58813 0.0
N1855 N 0.53851 0.39119 0.65627 0.0
H1856 H 0.03762 0.18274 0.24912 0.0
H1857 H 0.97961 0.33505 0.25007 0.0
H1858 H 0.08784 0.25431 0.25828 0.0
H1859 H 0.92944 0.26327 0.25791 0.0
H1860 H 0.01974 0.30567 0.24662 0.0
H1861 H 0.99756 0.21222 0.24583 0.0
C1862 C 0.04022 0.20461 0.25028 0.0
C1863 C 0.06599 0.21608 0.25419 0.0
C1864 C 0.99988 0.29644 0.249 0.0
C1865 C 0.02055 0.24977 0.25042 0.0
C1866 C 0.97703 0.31317 0.25092 0.0
C1867 C 0.95125 0.30159 0.25449 0.0
C1868 C 0.99677 0.26803 0.25051 0.0
C1869 C 0.94899 0.2731 0.25543 0.0
C1870 C 0.01741 0.2214 0.24846 0.0
C1871 C 0.06829 0.24456 0.25552 0.0
N1872 N 0.97148 0.2573 0.25351 0.0
N1873 N 0.04583 0.26042 0.25371 0.0
H1874 H 0.04036 0.81934 0.55231 0.0
H1875 H 0.95041 0.71704 0.47577 0.0
H1876 H 0.06051 0.80246 0.47555 0.0
H1877 H 0.97793 0.69692 0.54995 0.0
H1878 H 0.98217 0.75598 0.47544 0.0
H1879 H 0.00876 0.78069 0.55207 0.0
C1880 C 0.03821 0.80722 0.53552 0.0
C1881 C 0.05304 0.81351 0.51402 0.0
C1882 C 0.98099 0.74301 0.49175 0.0
C1883 C 0.01662 0.77054 0.51332 0.0
C1884 C 0.96282 0.72119 0.49205 0.0
C1885 C 0.96177 0.70416 0.51296 0.0
C1886 C 0.99734 0.7479 0.51274 0.0
C1887 C 0.97835 0.7098 0.53355 0.0
C1888 C 0.02025 0.78541 0.53537 0.0
C1889 C 0.04957 0.7977 0.49254 0.0
N1890 N 0.9954 0.73143 0.53303 0.0
N1891 N 0.03131 0.77693 0.49259 0.0
H1892 H 0.46678 0.81526 0.72452 0.0
H1893 H 0.57191 0.72905 0.79917 0.0
H1894 H 0.44396 0.78217 0.79608 0.0
H1895 H 0.55377 0.7049 0.72361 0.0
H1896 H 0.53171 0.75883 0.79881 0.0
H1897 H 0.50663 0.78462 0.72399 0.0
C1898 C 0.47041 0.80175 0.74015 0.0
C1899 C 0.45242 0.80099 0.76039 0.0
C1900 C 0.5366 0.74692 0.78239 0.0
C1901 C 0.49731 0.76686 0.76003 0.0
C1902 C 0.55932 0.73006 0.78258 0.0
C1903 C 0.56565 0.71459 0.76145 0.0
C1904 C 0.52091 0.74883 0.76066 0.0
C1905 C 0.54908 0.71645 0.74027 0.0
C1906 C 0.4928 0.78427 0.73973 0.0
C1907 C 0.45754 0.78311 0.78017 0.0
N1908 N 0.52744 0.73368 0.74025 0.0
N1909 N 0.47981 0.76686 0.77966 0.0
H1910 H 0.48377 0.19245 0.04882 0.0
H1911 H 0.56495 0.30134 0.97185 0.0
H1912 H 0.45385 0.21644 0.97642 0.0
H1913 H 0.54463 0.31616 0.04892 0.0
H1914 H 0.53343 0.26215 0.97182 0.0
H1915 H 0.51563 0.23089 0.04803 0.0
C1916 C 0.48393 0.20596 0.03283 0.0
C1917 C 0.4662 0.20171 0.01275 0.0
C1918 C 0.53615 0.27399 0.98869 0.0
C1919 C 0.50286 0.24461 0.01139 0.0
C1920 C 0.55418 0.29596 0.98879 0.0
C1921 C 0.55721 0.31155 0.01047 0.0
C1922 C 0.52196 0.26747 0.0106 0.0
C1923 C 0.5427 0.30436 0.03193 0.0
C1924 C 0.50202 0.22769 0.03239 0.0
C1925 C 0.46709 0.21948 0.99234 0.0
N1926 N 0.52579 0.28259 0.03156 0.0
N1927 N 0.48548 0.24016 0.992 0.0
H1928 H 0.92781 0.75456 0.24521 0.0
H1929 H 0.08908 0.7629 0.24225 0.0
H1930 H 0.97985 0.68409 0.25318 0.0
H1931 H 0.03747 0.83331 0.25274 0.0
H1932 H 0.04922 0.73371 0.24507 0.0
H1933 H 0.96774 0.78376 0.24694 0.0
C1934 C 0.94766 0.74521 0.2474 0.0
C1935 C 0.9506 0.71683 0.24893 0.0
C1936 C 0.04663 0.75552 0.24692 0.0
C1937 C 0.9963 0.75018 0.25085 0.0
C1938 C 0.06934 0.77224 0.24519 0.0
C1939 C 0.06651 0.8006 0.24718 0.0
C1940 C 0.02089 0.76725 0.25039 0.0
C1941 C 0.0405 0.81154 0.25111 0.0
C1942 C 0.97042 0.76193 0.24849 0.0
C1943 C 0.97674 0.70587 0.25193 0.0
N1944 N 0.01859 0.7948 0.25244 0.0
N1945 N 0.99869 0.72261 0.25261 0.0
H1946 H 0.58547 0.72966 0.50148 0.0
H1947 H 0.43298 0.78737 0.50448 0.0
H1948 H 0.5136 0.67908 0.49722 0.0
H1949 H 0.50417 0.83767 0.49336 0.0
H1950 H 0.46262 0.74745 0.50738 0.0
H1951 H 0.55608 0.76986 0.50407 0.0
C1952 C 0.56356 0.72701 0.50124 0.0
C1953 C 0.55196 0.70107 0.49896 0.0
C1954 C 0.4717 0.76728 0.50438 0.0
C1955 C 0.51838 0.7467 0.50194 0.0
C1956 C 0.4548 0.79003 0.50276 0.0
C1957 C 0.4661 0.81581 0.49853 0.0
C1958 C 0.50001 0.77044 0.50185 0.0
C1959 C 0.49454 0.81814 0.49648 0.0
C1960 C 0.54682 0.74991 0.50266 0.0
C1961 C 0.52344 0.69874 0.49874 0.0
N1962 N 0.51051 0.79572 0.49811 0.0
N1963 N 0.50763 0.72128 0.50016 0.0
H1964 H 0.47993 0.18253 0.75447 0.0
H1965 H 0.53606 0.33555 0.75203 0.0
H1966 H 0.42856 0.25333 0.74538 0.0
H1967 H 0.58722 0.26419 0.74625 0.0
H1968 H 0.49618 0.3058 0.75502 0.0
H1969 H 0.5196 0.21251 0.75694 0.0
C1970 C 0.47698 0.20434 0.75313 0.0
C1971 C 0.45097 0.21543 0.74956 0.0
C1972 C 0.51619 0.29673 0.75318 0.0
C1973 C 0.49607 0.24975 0.75237 0.0
C1974 C 0.53891 0.31368 0.75152 0.0
C1975 C 0.56494 0.30234 0.74872 0.0
C1976 C 0.51964 0.26834 0.75217 0.0
C1977 C 0.56751 0.27386 0.74819 0.0
C1978 C 0.4996 0.22143 0.75449 0.0
C1979 C 0.44829 0.24386 0.74796 0.0
N1980 N 0.54514 0.25785 0.74985 0.0
N1981 N 0.47058 0.26004 0.74933 0.0
H1982 H 1.00721 0.33917 0.98892 0.0
H1983 H 0.0139 0.17826 1.00041 0.0
H1984 H 0.93694 0.28884 0.00415 0.0
H1985 H 0.08563 0.22921 1.00011 0.0
H1986 H 0.98552 0.2187 1.00207 0.0
H1987 H 0.03631 0.29928 0.99284 0.0
C1988 C 0.99787 0.31971 0.99312 0.0
C1989 C 0.96955 0.31726 0.99612 0.0
C1990 C 1.00745 0.2211 1.00185 0.0
C1991 C 1.00283 0.27162 1.00063 0.0
C1992 C 0.02371 0.19802 1.00082 0.0
C1993 C 0.05217 0.20047 0.99992 0.0
C1994 C 0.0197 0.24685 1.0017 0.0
C1995 C 0.06375 0.22651 1.00076 0.0
C1996 C 0.01455 0.297 0.99547 0.0
C1997 C 0.95865 0.29161 1.00164 0.0
N1998 N 0.0474 0.24881 1.00136 0.0
N1999 N 0.97534 0.26971 0.0036 0.0
H2000 H 0.08167 0.74538 0.74585 0.0
H2001 H 0.92118 0.76185 0.73176 0.0
H2002 H 0.02813 0.6776 0.73068 0.0
H2003 H 0.97598 0.82763 0.75054 0.0
H2004 H 0.95989 0.7311 0.72882 0.0
H2005 H 0.04312 0.77603 0.74434 0.0
C2006 C 0.06166 0.73692 0.74224 0.0
C2007 C 0.0579 0.70883 0.7389 0.0
C2008 C 0.96344 0.75223 0.73358 0.0
C2009 C 0.01356 0.74401 0.73712 0.0
C2010 C 0.94137 0.76985 0.73537 0.0
C2011 C 0.94538 0.79737 0.74163 0.0
C2012 C 0.9897 0.76219 0.73804 0.0
C2013 C 0.97195 0.80656 0.74586 0.0
C2014 C 0.03966 0.7545 0.74132 0.0
C2015 C 0.03174 0.69911 0.7336 0.0
N2016 N 0.99313 0.78895 0.74402 0.0
N2017 N 0.01037 0.71674 0.73311 0.0
H2018 H 0.00916 0.33871 0.49429 0.0
H2019 H 1.00205 0.17721 0.49779 0.0
H2020 H 0.0796 0.2871 0.50463 0.0
H2021 H 0.9306 0.22852 0.50129 0.0
H2022 H 0.03065 0.21742 0.50052 0.0
H2023 H 0.97995 0.29877 0.49695 0.0
C2024 C 0.0185 0.31898 0.4972 0.0
C2025 C 0.04689 0.31617 0.49913 0.0
C2026 C 0.00874 0.21992 0.50087 0.0
C2027 C 0.01354 0.27046 0.50214 0.0
C2028 C 0.99235 0.19698 0.49922 0.0
C2029 C 0.96388 0.19959 0.49916 0.0
C2030 C 0.99661 0.24571 0.50221 0.0
C2031 C 0.95247 0.22565 0.50126 0.0
C2032 C 1.00178 0.29621 0.49881 0.0
C2033 C 0.05783 0.29016 0.50301 0.0
N2034 N 0.96893 0.24781 0.5025 0.0
N2035 N 0.0411 0.26824 0.50423 0.0
H2036 H 0.42818 0.26425 0.25001 0.0
H2037 H 0.58967 0.25557 0.24369 0.0
H2038 H 0.48017 0.3352 0.25169 0.0
H2039 H 0.53774 0.18576 0.25572 0.0
H2040 H 0.54996 0.28514 0.24663 0.0
H2041 H 0.46823 0.2353 0.25229 0.0
C2042 C 0.44806 0.27377 0.25096 0.0
C2043 C 0.45089 0.30221 0.25052 0.0
C2044 C 0.54729 0.26338 0.24879 0.0
C2045 C 0.49686 0.26907 0.25304 0.0
C2046 C 0.56991 0.24644 0.24703 0.0
C2047 C 0.56696 0.21812 0.24936 0.0
C2048 C 0.5215 0.2519 0.2527 0.0
C2049 C 0.54093 0.20747 0.25378 0.0
C2050 C 0.47092 0.25719 0.25234 0.0
C2051 C 0.47711 0.31337 0.25198 0.0
N2052 N 0.51914 0.2244 0.25515 0.0
N2053 N 0.49918 0.29672 0.25298 0.0
H2054 H 0.58572 0.78752 0.00482 0.0
H2055 H 0.43368 0.72882 0.00595 0.0
H2056 H 0.51358 0.8374 0.99775 0.0
H2057 H 0.50538 0.6791 0.99515 0.0
H2058 H 0.46301 0.76889 0.00961 0.0
H2059 H 0.55657 0.7472 0.00799 0.0
C2060 C 0.5638 0.78999 0.00411 0.0
C2061 C 0.55205 0.81574 1.00079 0.0
C2062 C 0.47225 0.74915 0.00653 0.0
C2063 C 0.51877 0.77003 0.00444 0.0
C2064 C 0.45555 0.72633 0.00448 0.0
C2065 C 0.4671 0.70069 1.00004 0.0
C2066 C 0.50062 0.74618 0.00426 0.0
C2067 C 0.49557 0.69854 0.99834 0.0
C2068 C 0.5472 0.76704 0.00586 0.0
C2069 C 0.52353 0.81788 1.00002 0.0
N2070 N 0.51136 0.72102 1.0004 0.0
N2071 N 0.50786 0.79529 1.00176 0.0
H2072 H 0.98714 0.17781 0.77831 0.0
H2073 H 0.04112 0.32951 0.75415 0.0
H2074 H 0.93671 0.24561 0.75571 0.0
H2075 H 0.09376 0.26254 0.7746 0.0
H2076 H 1.00211 0.29894 0.75681 0.0
H2077 H 0.02649 0.20875 0.77974 0.0
C2078 C 0.98437 0.19912 0.77374 0.0
C2079 C 0.95886 0.20908 0.76643 0.0
C2080 C 0.02222 0.29093 0.76071 0.0
C2081 C 1.00323 0.24431 0.76808 0.0
C2082 C 0.04447 0.30839 0.75911 0.0
C2083 C 0.0707 0.29853 0.76392 0.0
C2084 C 0.02628 0.26346 0.76716 0.0
C2085 C 0.07388 0.27098 0.77051 0.0
C2086 C 1.00673 0.21673 0.77451 0.0
C2087 C 0.95617 0.23691 0.76093 0.0
N2088 N 0.05191 0.25438 0.77188 0.0
N2089 N 0.97808 0.25347 0.76177 0.0
H2090 H 0.5023 0.33876 0.50659 0.0
H2091 H 0.51067 0.17726 0.51341 0.0
H2092 H 0.43129 0.28688 0.50393 0.0
H2093 H 0.58075 0.22906 0.50215 0.0
H2094 H 0.48121 0.21704 0.51033 0.0
H2095 H 0.53125 0.29866 0.50511 0.0
C2096 C 0.49277 0.3189 0.50558 0.0
C2097 C 0.46431 0.31611 0.5055 0.0
C2098 C 0.50301 0.21967 0.50839 0.0
C2099 C 0.49745 0.27009 0.50391 0.0
C2100 C 0.51989 0.197 0.51023 0.0
C2101 C 0.54825 0.19989 0.5081 0.0
C2102 C 0.51459 0.24543 0.5046 0.0
C2103 C 0.559 0.22592 0.50392 0.0
C2104 C 0.50936 0.296 0.50467 0.0
C2105 C 0.45314 0.2899 0.50401 0.0
N2106 N 0.54213 0.24774 0.50243 0.0
N2107 N 0.46978 0.26781 0.50347 0.0
H2108 H 0.4789 0.68412 0.24998 0.0
H2109 H 0.53727 0.83609 0.25347 0.0
H2110 H 0.4288 0.75514 0.26288 0.0
H2111 H 0.58725 0.76388 0.25909 0.0
H2112 H 0.49684 0.80699 0.25075 0.0
H2113 H 0.5188 0.71368 0.24713 0.0
C2114 C 0.47628 0.7059 0.25211 0.0
C2115 C 0.45058 0.71718 0.25682 0.0
C2116 C 0.51672 0.79761 0.25249 0.0
C2117 C 0.49593 0.75099 0.25354 0.0
C2118 C 0.53973 0.81417 0.25398 0.0
C2119 C 0.56555 0.80237 0.25669 0.0
C2120 C 0.51973 0.76918 0.25353 0.0
C2121 C 0.56768 0.77387 0.25726 0.0
C2122 C 0.49902 0.72274 0.25051 0.0
C2123 C 0.4483 0.74555 0.2594 0.0
N2124 N 0.54505 0.75825 0.25572 0.0
N2125 N 0.47073 0.7615 0.25776 0.0
H2126 H 0.9332 0.78552 0.00265 0.0
H2127 H 0.08595 0.72912 0.00318 0.0
H2128 H 1.00432 0.83669 0.01032 0.0
H2129 H 0.0149 0.6782 0.01265 0.0
H2130 H 0.05614 0.76884 1.00008 0.0
H2131 H 0.96298 0.74568 1.00055 0.0
C2132 C 0.95505 0.78838 0.00375 0.0
C2133 C 0.96632 0.81437 0.00681 0.0
C2134 C 0.04713 0.74893 0.00277 0.0
C2135 C 1.00034 0.76912 0.00442 0.0
C2136 C 0.06411 0.72629 0.00449 0.0
C2137 C 0.05288 0.7004 0.00831 0.0
C2138 C 0.01881 0.74554 0.00475 0.0
C2139 C 0.02445 0.69784 0.00987 0.0
C2140 C 0.972 0.76567 1.00262 0.0
C2141 C 0.99475 0.81697 0.00815 0.0
N2142 N 1.00837 0.72017 0.00812 0.0
N2143 N 0.0108 0.79458 0.00698 0.0
H2144 H 0.15199 0.11622 0.06197 0.0
H2145 H 0.11342 0.196 0.18354 0.0
H2146 H 0.07276 0.1532 0.07031 0.0
H2147 H 0.14849 0.11586 0.19138 0.0
H2148 H 0.10755 0.18765 0.1388 0.0
H2149 H 0.15963 0.12201 0.10715 0.0
C2150 C 0.13622 0.12539 0.07334 0.0
C2151 C 0.11167 0.13413 0.06256 0.0
C2152 C 0.1167 0.17202 0.15036 0.0
C2153 C 0.12059 0.1415 0.11348 0.0
C2154 C 0.12025 0.17681 0.17575 0.0
C2155 C 0.13143 0.15654 0.19107 0.0
C2156 C 0.12505 0.14712 0.14013 0.0
C2157 C 0.13969 0.13191 0.18011 0.0
C2158 C 0.14056 0.12862 0.09895 0.0
C2159 C 0.09184 0.14596 0.07798 0.0
N2160 N 0.13653 0.12791 0.15515 0.0
N2161 N 0.09691 0.14969 0.10263 0.0
H2162 H 0.14812 0.89778 0.44286 0.0
H2163 H 0.11103 0.81943 0.32005 0.0
H2164 H 0.07073 0.85693 0.43554 0.0
H2165 H 0.14444 0.90048 0.31459 0.0
H2166 H 0.10439 0.82636 0.36494 0.0
H2167 H 0.15496 0.8932 0.39756 0.0
C2168 C 0.13257 0.88798 0.43166 0.0
C2169 C 0.10878 0.87781 0.44276 0.0
C2170 C 0.11328 0.84251 0.35385 0.0
C2171 C 0.11684 0.87188 0.39161 0.0
C2172 C 0.11729 0.83853 0.32838 0.0
C2173 C 0.12833 0.85944 0.31373 0.0
C2174 C 0.12105 0.86725 0.36477 0.0
C2175 C 0.13581 0.88393 0.32534 0.0
C2176 C 0.13646 0.88545 0.40597 0.0
C2177 C 0.08922 0.86524 0.42758 0.0
N2178 N 0.13227 0.88712 0.35034 0.0
N2179 N 0.09386 0.86225 0.40276 0.0
H2180 H 0.3666 0.82277 0.6817 0.0
H2181 H 0.44 0.90351 0.57268 0.0
H2182 H 0.40978 0.89808 0.69462 0.0
H2183 H 0.3681 0.85493 0.5596 0.0
H2184 H 0.43305 0.89818 0.61771 0.0
H2185 H 0.37065 0.83049 0.6366 0.0
C2186 C 0.37684 0.84091 0.67507 0.0
C2187 C 0.38788 0.85977 0.69191 0.0
C2188 C 0.41872 0.88888 0.60492 0.0
C2189 C 0.39286 0.86849 0.64063 0.0
C2190 C 0.42271 0.89185 0.57928 0.0
C2191 C 0.40459 0.87968 0.56241 0.0
C2192 C 0.39682 0.87316 0.61366 0.0
C2193 C 0.38248 0.86479 0.57196 0.0
C2194 C 0.37906 0.84534 0.6494 0.0
C2195 C 0.40089 0.88301 0.68232 0.0
N2196 N 0.37937 0.8617 0.59696 0.0
N2197 N 0.40326 0.88658 0.65732 0.0
H2198 H 0.36241 0.18846 0.82301 0.0
H2199 H 0.44262 0.11716 0.93339 0.0
H2200 H 0.41202 0.11699 0.8111 0.0
H2201 H 0.36739 0.16097 0.94521 0.0
H2202 H 0.43505 0.12011 0.88823 0.0
H2203 H 0.36707 0.18198 0.8681 0.0
C2204 C 0.37414 0.17135 0.82989 0.0
C2205 C 0.38687 0.15327 0.81335 0.0
C2206 C 0.42017 0.12889 0.9008 0.0
C2207 C 0.39259 0.146 0.86467 0.0
C2208 C 0.42453 0.12734 0.92649 0.0
C2209 C 0.40567 0.13892 0.94303 0.0
C2210 C 0.39708 0.14255 0.89169 0.0
C2211 C 0.38247 0.15174 0.93313 0.0
C2212 C 0.37673 0.16762 0.85556 0.0
C2213 C 0.40179 0.13136 0.82322 0.0
N2214 N 0.37897 0.15345 0.90809 0.0
N2215 N 0.4045 0.1285 0.84829 0.0
H2216 H 0.86632 0.85472 0.94544 0.0
H2217 H 0.91156 0.89794 0.80886 0.0
H2218 H 0.94066 0.89907 0.93115 0.0
H2219 H 0.86302 0.82622 0.82289 0.0
H2220 H 0.91679 0.90436 0.85373 0.0
H2221 H 0.85934 0.85001 0.90056 0.0
C2222 C 0.8811 0.86367 0.93287 0.0
C2223 C 0.90421 0.87727 0.94207 0.0
C2224 C 0.90498 0.88725 0.84697 0.0
C2225 C 0.89613 0.872 0.89071 0.0
C2226 C 0.90183 0.88361 0.82137 0.0
C2227 C 0.88686 0.86141 0.8121 0.0
C2228 C 0.89272 0.86888 0.86348 0.0
C2229 C 0.87482 0.8435 0.82924 0.0
C2230 C 0.87714 0.8608 0.90728 0.0
C2231 C 0.92267 0.88833 0.92487 0.0
N2232 N 0.87792 0.84769 0.85416 0.0
N2233 N 0.91817 0.88554 0.89996 0.0
H2234 H 0.86136 0.15288 0.55866 0.0
H2235 H 0.92463 0.13 0.6942 0.0
H2236 H 0.94081 0.11815 0.57243 0.0
H2237 H 0.85521 0.18225 0.6813 0.0
H2238 H 0.927 0.12057 0.64989 0.0
H2239 H 0.85518 0.15871 0.60363 0.0
C2240 C 0.87742 0.14622 0.57111 0.0
C2241 C 0.90176 0.13512 0.56171 0.0
C2242 C 0.91122 0.13411 0.65666 0.0
C2243 C 0.89471 0.1418 0.61315 0.0
C2244 C 0.9098 0.13955 0.68206 0.0
C2245 C 0.88983 0.15725 0.69156 0.0
C2246 C 0.89248 0.14628 0.64041 0.0
C2247 C 0.87106 0.16868 0.67478 0.0
C2248 C 0.87388 0.14971 0.59677 0.0
C2249 C 0.92181 0.12693 0.57878 0.0
N2250 N 0.87289 0.16304 0.64994 0.0
N2251 N 0.91784 0.13048 0.60363 0.0
H2252 H 0.57602 0.11436 0.4327 0.0
H2253 H 0.65277 0.19124 0.32349 0.0
H2254 H 0.64865 0.1619 0.44576 0.0
H2255 H 0.60696 0.11739 0.31104 0.0
H2256 H 0.6485 0.18402 0.36858 0.0
H2257 H 0.58382 0.11838 0.38771 0.0
C2258 C 0.59362 0.12555 0.42611 0.0
C2259 C 0.61166 0.13787 0.44295 0.0
C2260 C 0.63959 0.16934 0.35589 0.0
C2261 C 0.62049 0.14278 0.39175 0.0
C2262 C 0.64195 0.17349 0.33023 0.0
C2263 C 0.63013 0.15496 0.31353 0.0
C2264 C 0.62491 0.14682 0.3648 0.0
C2265 C 0.61641 0.1322 0.32324 0.0
C2266 C 0.59811 0.12775 0.4005 0.0
C2267 C 0.63424 0.15204 0.43343 0.0
N2268 N 0.61392 0.12893 0.34826 0.0
N2269 N 0.63786 0.15435 0.40843 0.0
H2270 H 0.61185 0.82139 0.18495 0.0
H2271 H 0.65079 0.90059 0.06317 0.0
H2272 H 0.64835 0.90093 0.19217 0.0
H2273 H 0.57166 0.86341 0.07129 0.0
H2274 H 0.65824 0.89504 0.10836 0.0
H2275 H 0.60552 0.82969 0.14025 0.0
C2276 C 0.61887 0.84044 0.17703 0.0
C2277 C 0.63063 0.86055 0.19215 0.0
C2278 C 0.63922 0.88835 0.10013 0.0
C2279 C 0.62371 0.86992 0.14128 0.0
C2280 C 0.63498 0.89145 0.07451 0.0
C2281 C 0.61054 0.88255 0.06366 0.0
C2282 C 0.61925 0.87545 0.11462 0.0
C2283 C 0.59067 0.87076 0.07903 0.0
C2284 C 0.61505 0.8452 0.15167 0.0
C2285 C 0.63912 0.885 0.18105 0.0
N2286 N 0.59563 0.86716 0.10371 0.0
N2287 N 0.6357 0.88897 0.15612 0.0
H2288 H 0.57768 0.61269 0.57302 0.0
H2289 H 0.65119 0.69328 0.68207 0.0
H2290 H 0.64948 0.66134 0.5598 0.0
H2291 H 0.60836 0.61775 0.69483 0.0
H2292 H 0.64712 0.68565 0.63695 0.0
H2293 H 0.58484 0.61788 0.61803 0.0
C2294 C 0.59499 0.62433 0.57959 0.0
C2295 C 0.61301 0.63657 0.56269 0.0
C2296 C 0.63879 0.67073 0.64972 0.0
C2297 C 0.62103 0.64294 0.61393 0.0
C2298 C 0.64101 0.67511 0.6754 0.0
C2299 C 0.63007 0.65616 0.6922 0.0
C2300 C 0.62507 0.64755 0.6409 0.0
C2301 C 0.61716 0.63288 0.68256 0.0
C2302 C 0.5991 0.62723 0.60521 0.0
C2303 C 0.63517 0.65143 0.57219 0.0
N2304 N 0.61478 0.62937 0.65755 0.0
N2305 N 0.6384 0.65446 0.5972 0.0
H2306 H 0.6049 0.40096 0.80933 0.0
H2307 H 0.6537 0.35669 0.94484 0.0
H2308 H 0.65389 0.32929 0.82235 0.0
H2309 H 0.578 0.39944 0.93235 0.0
H2310 H 0.66024 0.35355 0.89977 0.0
H2311 H 0.6012 0.40759 0.85443 0.0
C2312 C 0.61511 0.38677 0.82167 0.0
C2313 C 0.62965 0.36445 0.81212 0.0
C2314 C 0.64227 0.36369 0.90694 0.0
C2315 C 0.62559 0.37209 0.86356 0.0
C2316 C 0.63855 0.36563 0.93263 0.0
C2317 C 0.61516 0.37825 0.94234 0.0
C2318 C 0.62274 0.37484 0.89084 0.0
C2319 C 0.5962 0.38938 0.92561 0.0
C2320 C 0.61283 0.3905 0.84735 0.0
C2321 C 0.64234 0.34665 0.82896 0.0
N2322 N 0.60044 0.38749 0.90061 0.0
N2323 N 0.64009 0.3509 0.85392 0.0
H2324 H 0.94934 0.36168 0.0701 0.0
H2325 H 0.86819 0.401 0.19106 0.0
H2326 H 0.86917 0.39675 0.06227 0.0
H2327 H 0.90659 0.32233 0.18398 0.0
H2328 H 0.87467 0.40826 0.14594 0.0
H2329 H 0.94107 0.35609 0.11494 0.0
C2330 C 0.93016 0.36852 0.07791 0.0
C2331 C 0.90984 0.37962 0.0626 0.0
C2332 C 0.88147 0.38941 0.15439 0.0
C2333 C 0.90054 0.37363 0.11355 0.0
C2334 C 0.87784 0.38528 0.17997 0.0
C2335 C 0.88672 0.36098 0.19106 0.0
C2336 C 0.89489 0.36949 0.14023 0.0
C2337 C 0.8992 0.34121 0.17603 0.0
C2338 C 0.92543 0.36516 0.10334 0.0
C2339 C 0.88524 0.38796 0.07354 0.0
N2340 N 0.90328 0.34606 0.15139 0.0
N2341 N 0.88129 0.38499 0.09851 0.0
H2342 H 0.86746 0.61751 0.44333 0.0
H2343 H 0.90399 0.69761 0.32133 0.0
H2344 H 0.94447 0.6591 0.43631 0.0
H2345 H 0.87167 0.61621 0.31484 0.0
H2346 H 0.91024 0.6903 0.36621 0.0
H2347 H 0.86049 0.62252 0.39806 0.0
C2348 C 0.88291 0.62753 0.4322 0.0
C2349 C 0.90663 0.63779 0.44337 0.0
C2350 C 0.90164 0.67416 0.3549 0.0
C2351 C 0.89841 0.64425 0.3923 0.0
C2352 C 0.89785 0.67836 0.32944 0.0
C2353 C 0.88729 0.65745 0.31449 0.0
C2354 C 0.89413 0.64919 0.36552 0.0
C2355 C 0.87994 0.63276 0.32582 0.0
C2356 C 0.87894 0.63032 0.40654 0.0
C2357 C 0.92605 0.65069 0.42829 0.0
N2358 N 0.88329 0.62934 0.35082 0.0
N2359 N 0.92133 0.65393 0.40351 0.0
H2360 H 0.36313 0.35853 0.4455 0.0
H2361 H 0.40988 0.40345 0.30934 0.0
H2362 H 0.4368 0.40431 0.43213 0.0
H2363 H 0.36202 0.33124 0.32311 0.0
H2364 H 0.4132 0.41089 0.35435 0.0
H2365 H 0.35589 0.35542 0.4005 0.0
C2366 C 0.37766 0.36817 0.43312 0.0
C2367 C 0.40073 0.38157 0.44257 0.0
C2368 C 0.40187 0.39352 0.34746 0.0
C2369 C 0.39238 0.37817 0.39114 0.0
C2370 C 0.39982 0.38931 0.32181 0.0
C2371 C 0.38576 0.36658 0.31249 0.0
C2372 C 0.3894 0.37514 0.36387 0.0
C2373 C 0.37322 0.3489 0.32952 0.0
C2374 C 0.37355 0.36624 0.40747 0.0
C2375 C 0.41887 0.39361 0.42562 0.0
N2376 N 0.3753 0.35357 0.35444 0.0
N2377 N 0.41429 0.39165 0.40067 0.0
H2378 H 0.36838 0.61716 0.19238 0.0
H2379 H 0.44751 0.65496 0.07041 0.0
H2380 H 0.40488 0.69651 0.18373 0.0
H2381 H 0.36816 0.61787 0.06369 0.0
H2382 H 0.43914 0.66201 0.11503 0.0
H2383 H 0.37411 0.60931 0.14732 0.0
C2384 C 0.3774 0.63294 0.18093 0.0
C2385 C 0.38606 0.65756 0.19158 0.0
C2386 C 0.42369 0.65219 0.10373 0.0
C2387 C 0.39339 0.64837 0.14078 0.0
C2388 C 0.42851 0.64792 0.07844 0.0
C2389 C 0.40846 0.63579 0.0635 0.0
C2390 C 0.399 0.6436 0.1142 0.0
C2391 C 0.38405 0.62735 0.07469 0.0
C2392 C 0.38061 0.62846 0.15539 0.0
C2393 C 0.39771 0.67738 0.17611 0.0
N2394 N 0.38003 0.63121 0.09954 0.0
N2395 N 0.40144 0.67219 0.15147 0.0
H2396 H 0.15548 0.65411 0.94678 0.0
H2397 H 0.09167 0.6294 0.81184 0.0
H2398 H 0.07558 0.62007 0.93386 0.0
H2399 H 0.16139 0.68143 0.824 0.0
H2400 H 0.08933 0.62067 0.85629 0.0
H2401 H 0.16152 0.65902 0.90176 0.0
C2402 C 0.13928 0.64744 0.9345 0.0
C2403 C 0.11486 0.63679 0.94414 0.0
C2404 C 0.10516 0.634 0.84931 0.0
C2405 C 0.12177 0.6424 0.89265 0.0
C2406 C 0.10657 0.63903 0.82385 0.0
C2407 C 0.12661 0.65648 0.81413 0.0
C2408 C 0.12398 0.64634 0.86536 0.0
C2409 C 0.14548 0.66804 0.83071 0.0
C2410 C 0.14274 0.65039 0.90882 0.0
C2411 C 0.09464 0.62853 0.9273 0.0
N2412 N 0.14366 0.66282 0.85561 0.0
N2413 N 0.09854 0.63156 0.90239 0.0
H2414 H 0.14786 0.35388 0.55973 0.0
H2415 H 0.10634 0.39819 0.69699 0.0
H2416 H 0.07488 0.4001 0.57513 0.0
H2417 H 0.15265 0.32514 0.6822 0.0
H2418 H 0.10034 0.4047 0.65221 0.0
H2419 H 0.15544 0.34886 0.60448 0.0
C2420 C 0.1335 0.36316 0.57251 0.0
C2421 C 0.1106 0.37741 0.56366 0.0
C2422 C 0.11183 0.38728 0.65879 0.0
C2423 C 0.1194 0.37178 0.6149 0.0
C2424 C 0.11543 0.38358 0.68433 0.0
C2425 C 0.13 0.36099 0.69338 0.0
C2426 C 0.12325 0.36856 0.64209 0.0
C2427 C 0.14119 0.34274 0.67604 0.0
C2428 C 0.13781 0.36011 0.59804 0.0
C2429 C 0.0927 0.38886 0.58114 0.0
N2430 N 0.13768 0.34699 0.65117 0.0
N2431 N 0.09754 0.3859 0.60598 0.0
loop_
_geom_bond_atom_site_label_1
_geom_bond_atom_site_label_2
_geom_bond_distance
_geom_bond_site_symmetry_2
_ccdc_geom_bond_type
Fe0 O2 1.918 . S
Fe0 O5 1.997 . S
Fe0 O6 2.002 . S
Fe0 O11 1.976 . S
Fe0 O14 1.996 . S
Fe1 O2 1.918 . S
Fe1 O9 1.997 . S
Fe1 O12 1.996 . S
Fe1 O16 1.976 . S
Fe1 O19 2.002 . S
O2 Fe0 1.918 . S
O2 Fe1 1.918 . S
O2 Fe3 1.918 . S
Fe3 O2 1.918 . S
Fe3 O4 2.002 . S
Fe3 O13 1.976 . S
Fe3 O17 1.996 . S
Fe3 O20 1.997 . S
O4 Fe3 2.002 . S
O4 C21 1.295 . S
O5 Fe0 1.997 . S
O5 C21 1.235 . S
O6 Fe0 2.002 . S
O6 C7 1.295 . S
C7 O6 1.295 . S
C7 O9 1.235 . S
C8 O13 1.287 . S
C8 O14 1.255 . S
O9 Fe1 1.997 . S
O9 C7 1.235 . S
C10 O16 1.287 . S
C10 O17 1.255 . S
O11 Fe0 1.976 . S
O11 C18 1.287 . S
O12 Fe1 1.996 . S
O12 C18 1.255 . S
O13 Fe3 1.976 . S
O13 C8 1.287 . S
O14 Fe0 1.996 . S
O14 C8 1.255 . S
C15 O19 1.295 . S
C15 O20 1.235 . S
O16 Fe1 1.976 . S
O16 C10 1.287 . S
O17 Fe3 1.996 . S
O17 C10 1.255 . S
C18 O11 1.287 . S
C18 O12 1.255 . S
O19 Fe1 2.002 . S
O19 C15 1.295 . S
O20 Fe3 1.997 . S
O20 C15 1.235 . S
C21 O4 1.295 . S
C21 O5 1.235 . S
Fe22 O24 1.918 . S
Fe22 O27 1.997 . S
Fe22 O28 2.002 . S
Fe22 O33 1.976 . S
Fe22 O36 1.996 . S
Fe23 O24 1.918 . S
Fe23 O31 1.997 . S
Fe23 O34 1.996 . S
Fe23 O38 1.976 . S
Fe23 O41 2.002 . S
O24 Fe22 1.918 . S
O24 Fe23 1.918 . S
O24 Fe25 1.918 . S
Fe25 O24 1.918 . S
Fe25 O26 2.002 . S
Fe25 O35 1.976 . S
Fe25 O39 1.996 . S
Fe25 O42 1.997 . S
O26 Fe25 2.002 . S
O26 C43 1.295 . S
O27 Fe22 1.997 . S
O27 C43 1.235 . S
O28 Fe22 2.002 . S
O28 C29 1.295 . S
C29 O28 1.295 . S
C29 O31 1.235 . S
C30 O35 1.287 . S
C30 O36 1.255 . S
O31 Fe23 1.997 . S
O31 C29 1.235 . S
C32 O38 1.287 . S
C32 O39 1.255 . S
O33 Fe22 1.976 . S
O33 C40 1.287 . S
O34 Fe23 1.996 . S
O34 C40 1.255 . S
O35 Fe25 1.976 . S
O35 C30 1.287 . S
O36 Fe22 1.996 . S
O36 C30 1.255 . S
C37 O41 1.295 . S
C37 O42 1.235 . S
O38 Fe23 1.976 . S
O38 C32 1.287 . S
O39 Fe25 1.996 . S
O39 C32 1.255 . S
C40 O33 1.287 . S
C40 O34 1.255 . S
O41 Fe23 2.002 . S
O41 C37 1.295 . S
O42 Fe25 1.997 . S
O42 C37 1.235 . S
C43 O26 1.295 . S
C43 O27 1.235 . S
Fe44 O46 1.918 . S
Fe44 O49 1.997 . S
Fe44 O50 2.002 . S
Fe44 O55 1.976 . S
Fe44 O58 1.996 . S
Fe45 O46 1.918 . S
Fe45 O53 1.997 . S
Fe45 O56 1.996 . S
Fe45 O60 1.976 . S
Fe45 O63 2.002 . S
O46 Fe44 1.918 . S
O46 Fe45 1.918 . S
O46 Fe47 1.918 . S
Fe47 O46 1.918 . S
Fe47 O48 2.002 . S
Fe47 O57 1.976 . S
Fe47 O61 1.996 . S
Fe47 O64 1.997 . S
O48 Fe47 2.002 . S
O48 C65 1.295 . S
O49 Fe44 1.997 . S
O49 C65 1.235 . S
O50 Fe44 2.002 . S
O50 C51 1.295 . S
C51 O50 1.295 . S
C51 O53 1.235 . S
C52 O57 1.287 . S
C52 O58 1.255 . S
O53 Fe45 1.997 . S
O53 C51 1.235 . S
C54 O60 1.287 . S
C54 O61 1.255 . S
O55 Fe44 1.976 . S
O55 C62 1.287 . S
O56 Fe45 1.996 . S
O56 C62 1.255 . S
O57 Fe47 1.976 . S
O57 C52 1.287 . S
O58 Fe44 1.996 . S
O58 C52 1.255 . S
C59 O63 1.295 . S
C59 O64 1.235 . S
O60 Fe45 1.976 . S
O60 C54 1.287 . S
O61 Fe47 1.996 . S
O61 C54 1.255 . S
C62 O55 1.287 . S
C62 O56 1.255 . S
O63 Fe45 2.002 . S
O63 C59 1.295 . S
O64 Fe47 1.997 . S
O64 C59 1.235 . S
C65 O48 1.295 . S
C65 O49 1.235 . S
Fe66 O68 1.918 . S
Fe66 O71 1.997 . S
Fe66 O72 2.002 . S
Fe66 O77 1.976 . S
Fe66 O80 1.996 1_554 S
Fe67 O68 1.918 . S
Fe67 O75 1.997 . S
Fe67 O78 1.996 . S
Fe67 O82 1.976 . S
Fe67 O85 2.002 . S
O68 Fe66 1.918 . S
O68 Fe67 1.918 . S
O68 Fe69 1.918 . S
Fe69 O68 1.918 . S
Fe69 O70 2.002 . S
Fe69 O79 1.976 1_554 S
Fe69 O83 1.996 . S
Fe69 O86 1.997 . S
O70 Fe69 2.002 . S
O70 C87 1.295 . S
O71 Fe66 1.997 . S
O71 C87 1.235 . S
O72 Fe66 2.002 . S
O72 C73 1.295 . S
C73 O72 1.295 . S
C73 O75 1.235 . S
C74 O79 1.287 . S
C74 O80 1.255 . S
O75 Fe67 1.997 . S
O75 C73 1.235 . S
C76 O82 1.287 . S
C76 O83 1.255 . S
O77 Fe66 1.976 . S
O77 C84 1.287 . S
O78 Fe67 1.996 . S
O78 C84 1.255 . S
O79 Fe69 1.976 1_556 S
O79 C74 1.287 . S
O80 Fe66 1.996 1_556 S
O80 C74 1.255 . S
C81 O85 1.295 . S
C81 O86 1.235 . S
O82 Fe67 1.976 . S
O82 C76 1.287 . S
O83 Fe69 1.996 . S
O83 C76 1.255 . S
C84 O77 1.287 . S
C84 O78 1.255 . S
O85 Fe67 2.002 . S
O85 C81 1.295 . S
O86 Fe69 1.997 . S
O86 C81 1.235 . S
C87 O70 1.295 . S
C87 O71 1.235 . S
Fe88 O90 1.918 . S
Fe88 O93 1.997 . S
Fe88 O94 2.002 . S
Fe88 O99 1.976 . S
Fe88 O102 1.996 . S
Fe89 O90 1.918 . S
Fe89 O97 1.997 . S
Fe89 O100 1.996 . S
Fe89 O104 1.976 . S
Fe89 O107 2.002 . S
O90 Fe88 1.918 . S
O90 Fe89 1.918 . S
O90 Fe91 1.918 . S
Fe91 O90 1.918 . S
Fe91 O92 2.002 . S
Fe91 O101 1.976 . S
Fe91 O105 1.996 . S
Fe91 O108 1.997 . S
O92 Fe91 2.002 . S
O92 C109 1.295 . S
O93 Fe88 1.997 . S
O93 C109 1.235 . S
O94 Fe88 2.002 . S
O94 C95 1.295 . S
C95 O94 1.295 . S
C95 O97 1.235 . S
C96 O101 1.287 . S
C96 O102 1.255 . S
O97 Fe89 1.997 . S
O97 C95 1.235 . S
C98 O104 1.287 . S
C98 O105 1.255 . S
O99 Fe88 1.976 . S
O99 C106 1.287 . S
O100 Fe89 1.996 . S
O100 C106 1.255 . S
O101 Fe91 1.976 . S
O101 C96 1.287 . S
O102 Fe88 1.996 . S
O102 C96 1.255 . S
C103 O107 1.295 . S
C103 O108 1.235 . S
O104 Fe89 1.976 . S
O104 C98 1.287 . S
O105 Fe91 1.996 . S
O105 C98 1.255 . S
C106 O99 1.287 . S
C106 O100 1.255 . S
O107 Fe89 2.002 . S
O107 C103 1.295 . S
O108 Fe91 1.997 . S
O108 C103 1.235 . S
C109 O92 1.295 . S
C109 O93 1.235 . S
Fe110 O112 1.918 . S
Fe110 O115 1.997 . S
Fe110 O116 2.002 . S
Fe110 O121 1.976 . S
Fe110 O124 1.996 . S
Fe111 O112 1.918 . S
Fe111 O119 1.997 . S
Fe111 O122 1.996 . S
Fe111 O126 1.976 . S
Fe111 O129 2.002 . S
O112 Fe110 1.918 . S
O112 Fe111 1.918 . S
O112 Fe113 1.918 . S
Fe113 O112 1.918 . S
Fe113 O114 2.002 . S
Fe113 O123 1.976 . S
Fe113 O127 1.996 . S
Fe113 O130 1.997 . S
O114 Fe113 2.002 . S
O114 C131 1.295 . S
O115 Fe110 1.997 . S
O115 C131 1.235 . S
O116 Fe110 2.002 . S
O116 C117 1.295 . S
C117 O116 1.295 . S
C117 O119 1.235 . S
C118 O123 1.287 . S
C118 O124 1.255 . S
O119 Fe111 1.997 . S
O119 C117 1.235 . S
C120 O126 1.287 . S
C120 O127 1.255 . S
O121 Fe110 1.976 . S
O121 C128 1.287 . S
O122 Fe111 1.996 . S
O122 C128 1.255 . S
O123 Fe113 1.976 . S
O123 C118 1.287 . S
O124 Fe110 1.996 . S
O124 C118 1.255 . S
C125 O129 1.295 . S
C125 O130 1.235 . S
O126 Fe111 1.976 . S
O126 C120 1.287 . S
O127 Fe113 1.996 . S
O127 C120 1.255 . S
C128 O121 1.287 . S
C128 O122 1.255 . S
O129 Fe111 2.002 . S
O129 C125 1.295 . S
O130 Fe113 1.997 . S
O130 C125 1.235 . S
C131 O114 1.295 . S
C131 O115 1.235 . S
Fe132 O134 1.918 . S
Fe132 O137 1.997 . S
Fe132 O138 2.002 . S
Fe132 O143 1.976 . S
Fe132 O146 1.996 . S
Fe133 O134 1.918 . S
Fe133 O141 1.997 . S
Fe133 O144 1.996 . S
Fe133 O148 1.976 . S
Fe133 O151 2.002 . S
O134 Fe132 1.918 . S
O134 Fe133 1.918 . S
O134 Fe135 1.918 . S
Fe135 O134 1.918 . S
Fe135 O136 2.002 . S
Fe135 O145 1.976 . S
Fe135 O149 1.996 . S
Fe135 O152 1.997 . S
O136 Fe135 2.002 . S
O136 C153 1.295 . S
O137 Fe132 1.997 . S
O137 C153 1.235 . S
O138 Fe132 2.002 . S
O138 C139 1.295 . S
C139 O138 1.295 . S
C139 O141 1.235 . S
C140 O145 1.287 . S
C140 O146 1.255 . S
O141 Fe133 1.997 . S
O141 C139 1.235 . S
C142 O148 1.287 . S
C142 O149 1.255 . S
O143 Fe132 1.976 . S
O143 C150 1.287 . S
O144 Fe133 1.996 . S
O144 C150 1.255 . S
O145 Fe135 1.976 . S
O145 C140 1.287 . S
O146 Fe132 1.996 . S
O146 C140 1.255 . S
C147 O151 1.295 . S
C147 O152 1.235 . S
O148 Fe133 1.976 . S
O148 C142 1.287 . S
O149 Fe135 1.996 . S
O149 C142 1.255 . S
C150 O143 1.287 . S
C150 O144 1.255 . S
O151 Fe133 2.002 . S
O151 C147 1.295 . S
O152 Fe135 1.997 . S
O152 C147 1.235 . S
C153 O136 1.295 . S
C153 O137 1.235 . S
Fe154 O156 1.918 . S
Fe154 O159 1.997 . S
Fe154 O160 2.002 . S
Fe154 O165 1.976 . S
Fe154 O168 1.996 . S
Fe155 O156 1.918 . S
Fe155 O163 1.997 . S
Fe155 O166 1.996 . S
Fe155 O170 1.976 1_556 S
Fe155 O173 2.002 . S
O156 Fe154 1.918 . S
O156 Fe155 1.918 . S
O156 Fe157 1.918 . S
Fe157 O156 1.918 . S
Fe157 O158 2.002 . S
Fe157 O167 1.976 . S
Fe157 O171 1.996 1_556 S
Fe157 O174 1.997 . S
O158 Fe157 2.002 . S
O158 C175 1.295 . S
O159 Fe154 1.997 . S
O159 C175 1.235 . S
O160 Fe154 2.002 . S
O160 C161 1.295 . S
C161 O160 1.295 . S
C161 O163 1.235 . S
C162 O167 1.287 . S
C162 O168 1.255 . S
O163 Fe155 1.997 . S
O163 C161 1.235 . S
C164 O170 1.287 . S
C164 O171 1.255 . S
O165 Fe154 1.976 . S
O165 C172 1.287 . S
O166 Fe155 1.996 . S
O166 C172 1.255 . S
O167 Fe157 1.976 . S
O167 C162 1.287 . S
O168 Fe154 1.996 . S
O168 C162 1.255 . S
C169 O173 1.295 . S
C169 O174 1.235 . S
O170 Fe155 1.976 1_554 S
O170 C164 1.287 . S
O171 Fe157 1.996 1_554 S
O171 C164 1.255 . S
C172 O165 1.287 . S
C172 O166 1.255 . S
O173 Fe155 2.002 . S
O173 C169 1.295 . S
O174 Fe157 1.997 . S
O174 C169 1.235 . S
C175 O158 1.295 . S
C175 O159 1.235 . S
Fe176 O178 1.918 . S
Fe176 O181 1.997 . S
Fe176 O182 2.002 . S
Fe176 O187 1.976 . S
Fe176 O190 1.996 . S
Fe177 O178 1.918 . S
Fe177 O185 1.997 . S
Fe177 O188 1.996 . S
Fe177 O192 1.976 . S
Fe177 O195 2.002 . S
O178 Fe176 1.918 . S
O178 Fe177 1.918 . S
O178 Fe179 1.918 . S
Fe179 O178 1.918 . S
Fe179 O180 2.002 . S
Fe179 O189 1.976 . S
Fe179 O193 1.996 . S
Fe179 O196 1.997 . S
O180 Fe179 2.002 . S
O180 C197 1.295 . S
O181 Fe176 1.997 . S
O181 C197 1.235 . S
O182 Fe176 2.002 . S
O182 C183 1.295 . S
C183 O182 1.295 . S
C183 O185 1.235 . S
C184 O189 1.287 . S
C184 O190 1.255 . S
O185 Fe177 1.997 . S
O185 C183 1.235 . S
C186 O192 1.287 . S
C186 O193 1.255 . S
O187 Fe176 1.976 . S
O187 C194 1.287 . S
O188 Fe177 1.996 . S
O188 C194 1.255 . S
O189 Fe179 1.976 . S
O189 C184 1.287 . S
O190 Fe176 1.996 . S
O190 C184 1.255 . S
C191 O195 1.295 . S
C191 O196 1.235 . S
O192 Fe177 1.976 . S
O192 C186 1.287 . S
O193 Fe179 1.996 . S
O193 C186 1.255 . S
C194 O187 1.287 . S
C194 O188 1.255 . S
O195 Fe177 2.002 . S
O195 C191 1.295 . S
O196 Fe179 1.997 . S
O196 C191 1.235 . S
C197 O180 1.295 . S
C197 O181 1.235 . S
Fe198 O200 1.918 . S
Fe198 O203 1.997 . S
Fe198 O204 2.002 . S
Fe198 O209 1.976 . S
Fe198 O212 1.996 . S
Fe199 O200 1.918 . S
Fe199 O207 1.997 . S
Fe199 O210 1.996 . S
Fe199 O214 1.976 . S
Fe199 O217 2.002 . S
O200 Fe198 1.918 . S
O200 Fe199 1.918 . S
O200 Fe201 1.918 . S
Fe201 O200 1.918 . S
Fe201 O202 2.002 . S
Fe201 O211 1.976 . S
Fe201 O215 1.996 . S
Fe201 O218 1.997 . S
O202 Fe201 2.002 . S
O202 C219 1.295 . S
O203 Fe198 1.997 . S
O203 C219 1.235 . S
O204 Fe198 2.002 . S
O204 C205 1.295 . S
C205 O204 1.295 . S
C205 O207 1.235 . S
C206 O211 1.287 . S
C206 O212 1.255 . S
O207 Fe199 1.997 . S
O207 C205 1.235 . S
C208 O214 1.287 . S
C208 O215 1.255 . S
O209 Fe198 1.976 . S
O209 C216 1.287 . S
O210 Fe199 1.996 . S
O210 C216 1.255 . S
O211 Fe201 1.976 . S
O211 C206 1.287 . S
O212 Fe198 1.996 . S
O212 C206 1.255 . S
C213 O217 1.295 . S
C213 O218 1.235 . S
O214 Fe199 1.976 . S
O214 C208 1.287 . S
O215 Fe201 1.996 . S
O215 C208 1.255 . S
C216 O209 1.287 . S
C216 O210 1.255 . S
O217 Fe199 2.002 . S
O217 C213 1.295 . S
O218 Fe201 1.997 . S
O218 C213 1.235 . S
C219 O202 1.295 . S
C219 O203 1.235 . S
Fe220 O222 1.918 . S
Fe220 O225 1.997 . S
Fe220 O226 2.002 . S
Fe220 O231 1.976 . S
Fe220 O234 1.996 . S
Fe221 O222 1.918 . S
Fe221 O229 1.997 . S
Fe221 O232 1.996 . S
Fe221 O236 1.976 . S
Fe221 O239 2.002 . S
O222 Fe220 1.918 . S
O222 Fe221 1.918 . S
O222 Fe223 1.918 . S
Fe223 O222 1.918 . S
Fe223 O224 2.002 . S
Fe223 O233 1.976 . S
Fe223 O237 1.996 . S
Fe223 O240 1.997 . S
O224 Fe223 2.002 . S
O224 C241 1.295 . S
O225 Fe220 1.997 . S
O225 C241 1.235 . S
O226 Fe220 2.002 . S
O226 C227 1.295 . S
C227 O226 1.295 . S
C227 O229 1.235 . S
C228 O233 1.287 . S
C228 O234 1.255 . S
O229 Fe221 1.997 . S
O229 C227 1.235 . S
C230 O236 1.287 . S
C230 O237 1.255 . S
O231 Fe220 1.976 . S
O231 C238 1.287 . S
O232 Fe221 1.996 . S
O232 C238 1.255 . S
O233 Fe223 1.976 . S
O233 C228 1.287 . S
O234 Fe220 1.996 . S
O234 C228 1.255 . S
C235 O239 1.295 . S
C235 O240 1.235 . S
O236 Fe221 1.976 . S
O236 C230 1.287 . S
O237 Fe223 1.996 . S
O237 C230 1.255 . S
C238 O231 1.287 . S
C238 O232 1.255 . S
O239 Fe221 2.002 . S
O239 C235 1.295 . S
O240 Fe223 1.997 . S
O240 C235 1.235 . S
C241 O224 1.295 . S
C241 O225 1.235 . S
Fe242 O244 1.918 . S
Fe242 O247 1.997 . S
Fe242 O248 2.002 . S
Fe242 O253 1.976 . S
Fe242 O256 1.996 1_556 S
Fe243 O244 1.918 . S
Fe243 O251 1.997 . S
Fe243 O254 1.996 . S
Fe243 O258 1.976 . S
Fe243 O261 2.002 . S
O244 Fe242 1.918 . S
O244 Fe243 1.918 . S
O244 Fe245 1.918 . S
Fe245 O244 1.918 . S
Fe245 O246 2.002 . S
Fe245 O255 1.976 1_556 S
Fe245 O259 1.996 . S
Fe245 O262 1.997 . S
O246 Fe245 2.002 . S
O246 C263 1.295 . S
O247 Fe242 1.997 . S
O247 C263 1.235 . S
O248 Fe242 2.002 . S
O248 C249 1.295 . S
C249 O248 1.295 . S
C249 O251 1.235 . S
C250 O255 1.287 . S
C250 O256 1.255 . S
O251 Fe243 1.997 . S
O251 C249 1.235 . S
C252 O258 1.287 . S
C252 O259 1.255 . S
O253 Fe242 1.976 . S
O253 C260 1.287 . S
O254 Fe243 1.996 . S
O254 C260 1.255 . S
O255 Fe245 1.976 1_554 S
O255 C250 1.287 . S
O256 Fe242 1.996 1_554 S
O256 C250 1.255 . S
C257 O261 1.295 . S
C257 O262 1.235 . S
O258 Fe243 1.976 . S
O258 C252 1.287 . S
O259 Fe245 1.996 . S
O259 C252 1.255 . S
C260 O253 1.287 . S
C260 O254 1.255 . S
O261 Fe243 2.002 . S
O261 C257 1.295 . S
O262 Fe245 1.997 . S
O262 C257 1.235 . S
C263 O246 1.295 . S
C263 O247 1.235 . S
Fe264 O266 1.918 . S
Fe264 O269 1.997 . S
Fe264 O270 2.002 . S
Fe264 O275 1.976 . S
Fe264 O278 1.996 . S
Fe265 O266 1.918 . S
Fe265 O273 1.997 . S
Fe265 O276 1.996 . S
Fe265 O280 1.976 . S
Fe265 O283 2.002 . S
O266 Fe264 1.918 . S
O266 Fe265 1.918 . S
O266 Fe267 1.918 . S
Fe267 O266 1.918 . S
Fe267 O268 2.002 . S
Fe267 O277 1.976 . S
Fe267 O281 1.996 . S
Fe267 O284 1.997 . S
O268 Fe267 2.002 . S
O268 C285 1.295 . S
O269 Fe264 1.997 . S
O269 C285 1.235 . S
O270 Fe264 2.002 . S
O270 C271 1.295 . S
C271 O270 1.295 . S
C271 O273 1.235 . S
C272 O277 1.287 . S
C272 O278 1.255 . S
O273 Fe265 1.997 . S
O273 C271 1.235 . S
C274 O280 1.287 . S
C274 O281 1.255 . S
O275 Fe264 1.976 . S
O275 C282 1.287 . S
O276 Fe265 1.996 . S
O276 C282 1.255 . S
O277 Fe267 1.976 . S
O277 C272 1.287 . S
O278 Fe264 1.996 . S
O278 C272 1.255 . S
C279 O283 1.295 . S
C279 O284 1.235 . S
O280 Fe265 1.976 . S
O280 C274 1.287 . S
O281 Fe267 1.996 . S
O281 C274 1.255 . S
C282 O275 1.287 . S
C282 O276 1.255 . S
O283 Fe265 2.002 . S
O283 C279 1.295 . S
O284 Fe267 1.997 . S
O284 C279 1.235 . S
C285 O268 1.295 . S
C285 O269 1.235 . S
Fe286 O288 1.918 . S
Fe286 O291 1.997 . S
Fe286 O292 2.002 . S
Fe286 O297 1.976 . S
Fe286 O300 1.996 . S
Fe287 O288 1.918 . S
Fe287 O295 1.997 . S
Fe287 O298 1.996 . S
Fe287 O302 1.976 . S
Fe287 O305 2.002 . S
O288 Fe286 1.918 . S
O288 Fe287 1.918 . S
O288 Fe289 1.918 . S
Fe289 O288 1.918 . S
Fe289 O290 2.002 . S
Fe289 O299 1.976 . S
Fe289 O303 1.996 . S
Fe289 O306 1.997 . S
O290 Fe289 2.002 . S
O290 C307 1.295 . S
O291 Fe286 1.997 . S
O291 C307 1.235 . S
O292 Fe286 2.002 . S
O292 C293 1.295 . S
C293 O292 1.295 . S
C293 O295 1.235 . S
C294 O299 1.287 . S
C294 O300 1.255 . S
O295 Fe287 1.997 . S
O295 C293 1.235 . S
C296 O302 1.287 . S
C296 O303 1.255 . S
O297 Fe286 1.976 . S
O297 C304 1.287 . S
O298 Fe287 1.996 . S
O298 C304 1.255 . S
O299 Fe289 1.976 . S
O299 C294 1.287 . S
O300 Fe286 1.996 . S
O300 C294 1.255 . S
C301 O305 1.295 . S
C301 O306 1.235 . S
O302 Fe287 1.976 . S
O302 C296 1.287 . S
O303 Fe289 1.996 . S
O303 C296 1.255 . S
C304 O297 1.287 . S
C304 O298 1.255 . S
O305 Fe287 2.002 . S
O305 C301 1.295 . S
O306 Fe289 1.997 . S
O306 C301 1.235 . S
C307 O290 1.295 . S
C307 O291 1.235 . S
Fe308 O310 1.918 . S
Fe308 O313 1.997 . S
Fe308 O314 2.002 . S
Fe308 O319 1.976 . S
Fe308 O322 1.996 . S
Fe309 O310 1.918 . S
Fe309 O317 1.997 . S
Fe309 O320 1.996 . S
Fe309 O324 1.976 . S
Fe309 O327 2.002 . S
O310 Fe308 1.918 . S
O310 Fe309 1.918 . S
O310 Fe311 1.918 . S
Fe311 O310 1.918 . S
Fe311 O312 2.002 . S
Fe311 O321 1.976 . S
Fe311 O325 1.996 . S
Fe311 O328 1.997 . S
O312 Fe311 2.002 . S
O312 C329 1.295 . S
O313 Fe308 1.997 . S
O313 C329 1.235 . S
O314 Fe308 2.002 . S
O314 C315 1.295 . S
C315 O314 1.295 . S
C315 O317 1.235 . S
C316 O321 1.287 . S
C316 O322 1.255 . S
O317 Fe309 1.997 . S
O317 C315 1.235 . S
C318 O324 1.287 . S
C318 O325 1.255 . S
O319 Fe308 1.976 . S
O319 C326 1.287 . S
O320 Fe309 1.996 . S
O320 C326 1.255 . S
O321 Fe311 1.976 . S
O321 C316 1.287 . S
O322 Fe308 1.996 . S
O322 C316 1.255 . S
C323 O327 1.295 . S
C323 O328 1.235 . S
O324 Fe309 1.976 . S
O324 C318 1.287 . S
O325 Fe311 1.996 . S
O325 C318 1.255 . S
C326 O319 1.287 . S
C326 O320 1.255 . S
O327 Fe309 2.002 . S
O327 C323 1.295 . S
O328 Fe311 1.997 . S
O328 C323 1.235 . S
C329 O312 1.295 . S
C329 O313 1.235 . S
Fe330 O332 1.918 . S
Fe330 O335 1.997 . S
Fe330 O336 2.002 . S
Fe330 O341 1.976 . S
Fe330 O344 1.996 1_554 S
Fe331 O332 1.918 . S
Fe331 O339 1.997 . S
Fe331 O342 1.996 . S
Fe331 O346 1.976 . S
Fe331 O349 2.002 . S
O332 Fe330 1.918 . S
O332 Fe331 1.918 . S
O332 Fe333 1.918 . S
Fe333 O332 1.918 . S
Fe333 O334 2.002 . S
Fe333 O343 1.976 1_554 S
Fe333 O347 1.996 . S
Fe333 O350 1.997 . S
O334 Fe333 2.002 . S
O334 C351 1.295 . S
O335 Fe330 1.997 . S
O335 C351 1.235 . S
O336 Fe330 2.002 . S
O336 C337 1.295 . S
C337 O336 1.295 . S
C337 O339 1.235 . S
C338 O343 1.287 . S
C338 O344 1.255 . S
O339 Fe331 1.997 . S
O339 C337 1.235 . S
C340 O346 1.287 . S
C340 O347 1.255 . S
O341 Fe330 1.976 . S
O341 C348 1.287 . S
O342 Fe331 1.996 . S
O342 C348 1.255 . S
O343 Fe333 1.976 1_556 S
O343 C338 1.287 . S
O344 Fe330 1.996 1_556 S
O344 C338 1.255 . S
C345 O349 1.295 . S
C345 O350 1.235 . S
O346 Fe331 1.976 . S
O346 C340 1.287 . S
O347 Fe333 1.996 . S
O347 C340 1.255 . S
C348 O341 1.287 . S
C348 O342 1.255 . S
O349 Fe331 2.002 . S
O349 C345 1.295 . S
O350 Fe333 1.997 . S
O350 C345 1.235 . S
C351 O334 1.295 . S
C351 O335 1.235 . S
Fe352 O354 1.918 . S
Fe352 O357 1.997 . S
Fe352 O358 2.002 . S
Fe352 O363 1.976 . S
Fe352 O366 1.996 . S
Fe353 O354 1.918 . S
Fe353 O361 1.997 . S
Fe353 O364 1.996 . S
Fe353 O368 1.976 . S
Fe353 O371 2.002 . S
O354 Fe352 1.918 . S
O354 Fe353 1.918 . S
O354 Fe355 1.918 . S
Fe355 O354 1.918 . S
Fe355 O356 2.002 . S
Fe355 O365 1.976 . S
Fe355 O369 1.996 . S
Fe355 O372 1.997 . S
O356 Fe355 2.002 . S
O356 C373 1.295 . S
O357 Fe352 1.997 . S
O357 C373 1.235 . S
O358 Fe352 2.002 . S
O358 C359 1.295 . S
C359 O358 1.295 . S
C359 O361 1.235 . S
C360 O365 1.287 . S
C360 O366 1.255 . S
O361 Fe353 1.997 . S
O361 C359 1.235 . S
C362 O368 1.287 . S
C362 O369 1.255 . S
O363 Fe352 1.976 . S
O363 C370 1.287 . S
O364 Fe353 1.996 . S
O364 C370 1.255 . S
O365 Fe355 1.976 . S
O365 C360 1.287 . S
O366 Fe352 1.996 . S
O366 C360 1.255 . S
C367 O371 1.295 . S
C367 O372 1.235 . S
O368 Fe353 1.976 . S
O368 C362 1.287 . S
O369 Fe355 1.996 . S
O369 C362 1.255 . S
C370 O363 1.287 . S
C370 O364 1.255 . S
O371 Fe353 2.002 . S
O371 C367 1.295 . S
O372 Fe355 1.997 . S
O372 C367 1.235 . S
C373 O356 1.295 . S
C373 O357 1.235 . S
Fe374 O376 1.918 . S
Fe374 O379 1.997 . S
Fe374 O380 2.002 . S
Fe374 O385 1.976 . S
Fe374 O388 1.996 . S
Fe375 O376 1.918 . S
Fe375 O383 1.997 . S
Fe375 O386 1.996 . S
Fe375 O390 1.976 1_554 S
Fe375 O393 2.002 . S
O376 Fe374 1.918 . S
O376 Fe375 1.918 . S
O376 Fe377 1.918 . S
Fe377 O376 1.918 . S
Fe377 O378 2.002 . S
Fe377 O387 1.976 . S
Fe377 O391 1.996 1_554 S
Fe377 O394 1.997 . S
O378 Fe377 2.002 . S
O378 C395 1.295 . S
O379 Fe374 1.997 . S
O379 C395 1.235 . S
O380 Fe374 2.002 . S
O380 C381 1.295 . S
C381 O380 1.295 . S
C381 O383 1.235 . S
C382 O387 1.287 . S
C382 O388 1.255 . S
O383 Fe375 1.997 . S
O383 C381 1.235 . S
C384 O390 1.287 . S
C384 O391 1.255 . S
O385 Fe374 1.976 . S
O385 C392 1.287 . S
O386 Fe375 1.996 . S
O386 C392 1.255 . S
O387 Fe377 1.976 . S
O387 C382 1.287 . S
O388 Fe374 1.996 . S
O388 C382 1.255 . S
C389 O393 1.295 . S
C389 O394 1.235 . S
O390 Fe375 1.976 1_556 S
O390 C384 1.287 . S
O391 Fe377 1.996 1_556 S
O391 C384 1.255 . S
C392 O385 1.287 . S
C392 O386 1.255 . S
O393 Fe375 2.002 . S
O393 C389 1.295 . S
O394 Fe377 1.997 . S
O394 C389 1.235 . S
C395 O378 1.295 . S
C395 O379 1.235 . S
Fe396 O398 1.918 . S
Fe396 O401 1.997 . S
Fe396 O402 2.002 . S
Fe396 O407 1.976 . S
Fe396 O410 1.996 . S
Fe397 O398 1.918 . S
Fe397 O405 1.997 . S
Fe397 O408 1.996 . S
Fe397 O412 1.976 . S
Fe397 O415 2.002 . S
O398 Fe396 1.918 . S
O398 Fe397 1.918 . S
O398 Fe399 1.918 . S
Fe399 O398 1.918 . S
Fe399 O400 2.002 . S
Fe399 O409 1.976 . S
Fe399 O413 1.996 . S
Fe399 O416 1.997 . S
O400 Fe399 2.002 . S
O400 C417 1.295 . S
O401 Fe396 1.997 . S
O401 C417 1.235 . S
O402 Fe396 2.002 . S
O402 C403 1.295 . S
C403 O402 1.295 . S
C403 O405 1.235 . S
C404 O409 1.287 . S
C404 O410 1.255 . S
O405 Fe397 1.997 . S
O405 C403 1.235 . S
C406 O412 1.287 . S
C406 O413 1.255 . S
O407 Fe396 1.976 . S
O407 C414 1.287 . S
O408 Fe397 1.996 . S
O408 C414 1.255 . S
O409 Fe399 1.976 . S
O409 C404 1.287 . S
O410 Fe396 1.996 . S
O410 C404 1.255 . S
C411 O415 1.295 . S
C411 O416 1.235 . S
O412 Fe397 1.976 . S
O412 C406 1.287 . S
O413 Fe399 1.996 . S
O413 C406 1.255 . S
C414 O407 1.287 . S
C414 O408 1.255 . S
O415 Fe397 2.002 . S
O415 C411 1.295 . S
O416 Fe399 1.997 . S
O416 C411 1.235 . S
C417 O400 1.295 . S
C417 O401 1.235 . S
Fe418 O420 1.918 . S
Fe418 O423 1.997 . S
Fe418 O424 2.002 . S
Fe418 O429 1.976 . S
Fe418 O432 1.996 . S
Fe419 O420 1.918 . S
Fe419 O427 1.997 . S
Fe419 O430 1.996 . S
Fe419 O434 1.976 . S
Fe419 O437 2.002 . S
O420 Fe418 1.918 . S
O420 Fe419 1.918 . S
O420 Fe421 1.918 . S
Fe421 O420 1.918 . S
Fe421 O422 2.002 . S
Fe421 O431 1.976 . S
Fe421 O435 1.996 . S
Fe421 O438 1.997 . S
O422 Fe421 2.002 . S
O422 C439 1.295 . S
O423 Fe418 1.997 . S
O423 C439 1.235 . S
O424 Fe418 2.002 . S
O424 C425 1.295 . S
C425 O424 1.295 . S
C425 O427 1.235 . S
C426 O431 1.287 . S
C426 O432 1.255 . S
O427 Fe419 1.997 . S
O427 C425 1.235 . S
C428 O434 1.287 . S
C428 O435 1.255 . S
O429 Fe418 1.976 . S
O429 C436 1.287 . S
O430 Fe419 1.996 . S
O430 C436 1.255 . S
O431 Fe421 1.976 . S
O431 C426 1.287 . S
O432 Fe418 1.996 . S
O432 C426 1.255 . S
C433 O437 1.295 . S
C433 O438 1.235 . S
O434 Fe419 1.976 . S
O434 C428 1.287 . S
O435 Fe421 1.996 . S
O435 C428 1.255 . S
C436 O429 1.287 . S
C436 O430 1.255 . S
O437 Fe419 2.002 . S
O437 C433 1.295 . S
O438 Fe421 1.997 . S
O438 C433 1.235 . S
C439 O422 1.295 . S
C439 O423 1.235 . S
Fe440 O442 1.918 . S
Fe440 O445 1.997 . S
Fe440 O446 2.002 . S
Fe440 O451 1.976 . S
Fe440 O454 1.996 . S
Fe441 O442 1.918 . S
Fe441 O449 1.997 . S
Fe441 O452 1.996 . S
Fe441 O456 1.976 . S
Fe441 O459 2.002 . S
O442 Fe440 1.918 . S
O442 Fe441 1.918 . S
O442 Fe443 1.918 . S
Fe443 O442 1.918 . S
Fe443 O444 2.002 . S
Fe443 O453 1.976 . S
Fe443 O457 1.996 . S
Fe443 O460 1.997 . S
O444 Fe443 2.002 . S
O444 C461 1.295 . S
O445 Fe440 1.997 . S
O445 C461 1.235 . S
O446 Fe440 2.002 . S
O446 C447 1.295 . S
C447 O446 1.295 . S
C447 O449 1.235 . S
C448 O453 1.287 . S
C448 O454 1.255 . S
O449 Fe441 1.997 . S
O449 C447 1.235 . S
C450 O456 1.287 . S
C450 O457 1.255 . S
O451 Fe440 1.976 . S
O451 C458 1.287 . S
O452 Fe441 1.996 . S
O452 C458 1.255 . S
O453 Fe443 1.976 . S
O453 C448 1.287 . S
O454 Fe440 1.996 . S
O454 C448 1.255 . S
C455 O459 1.295 . S
C455 O460 1.235 . S
O456 Fe441 1.976 . S
O456 C450 1.287 . S
O457 Fe443 1.996 . S
O457 C450 1.255 . S
C458 O451 1.287 . S
C458 O452 1.255 . S
O459 Fe441 2.002 . S
O459 C455 1.295 . S
O460 Fe443 1.997 . S
O460 C455 1.235 . S
C461 O444 1.295 . S
C461 O445 1.235 . S
Fe462 O464 1.918 . S
Fe462 O467 1.997 . S
Fe462 O468 2.002 . S
Fe462 O473 1.976 . S
Fe462 O476 1.996 1_556 S
Fe463 O464 1.918 . S
Fe463 O471 1.997 . S
Fe463 O474 1.996 . S
Fe463 O478 1.976 . S
Fe463 O481 2.002 . S
O464 Fe462 1.918 . S
O464 Fe463 1.918 . S
O464 Fe465 1.918 . S
Fe465 O464 1.918 . S
Fe465 O466 2.002 . S
Fe465 O475 1.976 1_556 S
Fe465 O479 1.996 . S
Fe465 O482 1.997 . S
O466 Fe465 2.002 . S
O466 C483 1.295 . S
O467 Fe462 1.997 . S
O467 C483 1.235 . S
O468 Fe462 2.002 . S
O468 C469 1.295 . S
C469 O468 1.295 . S
C469 O471 1.235 . S
C470 O475 1.287 . S
C470 O476 1.255 . S
O471 Fe463 1.997 . S
O471 C469 1.235 . S
C472 O478 1.287 . S
C472 O479 1.255 . S
O473 Fe462 1.976 . S
O473 C480 1.287 . S
O474 Fe463 1.996 . S
O474 C480 1.255 . S
O475 Fe465 1.976 1_554 S
O475 C470 1.287 . S
O476 Fe462 1.996 1_554 S
O476 C470 1.255 . S
C477 O481 1.295 . S
C477 O482 1.235 . S
O478 Fe463 1.976 . S
O478 C472 1.287 . S
O479 Fe465 1.996 . S
O479 C472 1.255 . S
C480 O473 1.287 . S
C480 O474 1.255 . S
O481 Fe463 2.002 . S
O481 C477 1.295 . S
O482 Fe465 1.997 . S
O482 C477 1.235 . S
C483 O466 1.295 . S
C483 O467 1.235 . S
Fe484 O486 1.918 . S
Fe484 O489 1.997 . S
Fe484 O490 2.002 . S
Fe484 O495 1.976 . S
Fe484 O498 1.996 . S
Fe485 O486 1.918 . S
Fe485 O493 1.997 . S
Fe485 O496 1.996 . S
Fe485 O500 1.976 . S
Fe485 O503 2.002 . S
O486 Fe484 1.918 . S
O486 Fe485 1.918 . S
O486 Fe487 1.918 . S
Fe487 O486 1.918 . S
Fe487 O488 2.002 . S
Fe487 O497 1.976 . S
Fe487 O501 1.996 . S
Fe487 O504 1.997 . S
O488 Fe487 2.002 . S
O488 C505 1.295 . S
O489 Fe484 1.997 . S
O489 C505 1.235 . S
O490 Fe484 2.002 . S
O490 C491 1.295 . S
C491 O490 1.295 . S
C491 O493 1.235 . S
C492 O497 1.287 . S
C492 O498 1.255 . S
O493 Fe485 1.997 . S
O493 C491 1.235 . S
C494 O500 1.287 . S
C494 O501 1.255 . S
O495 Fe484 1.976 . S
O495 C502 1.287 . S
O496 Fe485 1.996 . S
O496 C502 1.255 . S
O497 Fe487 1.976 . S
O497 C492 1.287 . S
O498 Fe484 1.996 . S
O498 C492 1.255 . S
C499 O503 1.295 . S
C499 O504 1.235 . S
O500 Fe485 1.976 . S
O500 C494 1.287 . S
O501 Fe487 1.996 . S
O501 C494 1.255 . S
C502 O495 1.287 . S
C502 O496 1.255 . S
O503 Fe485 2.002 . S
O503 C499 1.295 . S
O504 Fe487 1.997 . S
O504 C499 1.235 . S
C505 O488 1.295 . S
C505 O489 1.235 . S
Fe506 O508 1.918 . S
Fe506 O511 1.997 . S
Fe506 O512 2.002 . S
Fe506 O517 1.976 . S
Fe506 O520 1.996 . S
Fe507 O508 1.918 . S
Fe507 O515 1.997 . S
Fe507 O518 1.996 . S
Fe507 O522 1.976 . S
Fe507 O525 2.002 . S
O508 Fe506 1.918 . S
O508 Fe507 1.918 . S
O508 Fe509 1.918 . S
Fe509 O508 1.918 . S
Fe509 O510 2.002 . S
Fe509 O519 1.976 . S
Fe509 O523 1.996 . S
Fe509 O526 1.997 . S
O510 Fe509 2.002 . S
O510 C527 1.295 . S
O511 Fe506 1.997 . S
O511 C527 1.235 . S
O512 Fe506 2.002 . S
O512 C513 1.295 . S
C513 O512 1.295 . S
C513 O515 1.235 . S
C514 O519 1.287 . S
C514 O520 1.255 . S
O515 Fe507 1.997 . S
O515 C513 1.235 . S
C516 O522 1.287 . S
C516 O523 1.255 . S
O517 Fe506 1.976 . S
O517 C524 1.287 . S
O518 Fe507 1.996 . S
O518 C524 1.255 . S
O519 Fe509 1.976 . S
O519 C514 1.287 . S
O520 Fe506 1.996 . S
O520 C514 1.255 . S
C521 O525 1.295 . S
C521 O526 1.235 . S
O522 Fe507 1.976 . S
O522 C516 1.287 . S
O523 Fe509 1.996 . S
O523 C516 1.255 . S
C524 O517 1.287 . S
C524 O518 1.255 . S
O525 Fe507 2.002 . S
O525 C521 1.295 . S
O526 Fe509 1.997 . S
O526 C521 1.235 . S
C527 O510 1.295 . S
C527 O511 1.235 . S
Fe528 O530 1.918 . S
Fe528 O533 1.997 . S
Fe528 O534 2.002 . S
Fe528 O539 1.976 . S
Fe528 O542 1.996 . S
Fe529 O530 1.918 . S
Fe529 O537 1.997 . S
Fe529 O540 1.996 . S
Fe529 O544 1.976 . S
Fe529 O547 2.002 . S
O530 Fe528 1.918 . S
O530 Fe529 1.918 . S
O530 Fe531 1.918 . S
Fe531 O530 1.918 . S
Fe531 O532 2.002 . S
Fe531 O541 1.976 . S
Fe531 O545 1.996 . S
Fe531 O548 1.997 . S
O532 Fe531 2.002 . S
O532 C549 1.295 . S
O533 Fe528 1.997 . S
O533 C549 1.235 . S
O534 Fe528 2.002 . S
O534 C535 1.295 . S
C535 O534 1.295 . S
C535 O537 1.235 . S
C536 O541 1.287 . S
C536 O542 1.255 . S
O537 Fe529 1.997 . S
O537 C535 1.235 . S
C538 O544 1.287 . S
C538 O545 1.255 . S
O539 Fe528 1.976 . S
O539 C546 1.287 . S
O540 Fe529 1.996 . S
O540 C546 1.255 . S
O541 Fe531 1.976 . S
O541 C536 1.287 . S
O542 Fe528 1.996 . S
O542 C536 1.255 . S
C543 O547 1.295 . S
C543 O548 1.235 . S
O544 Fe529 1.976 . S
O544 C538 1.287 . S
O545 Fe531 1.996 . S
O545 C538 1.255 . S
C546 O539 1.287 . S
C546 O540 1.255 . S
O547 Fe529 2.002 . S
O547 C543 1.295 . S
O548 Fe531 1.997 . S
O548 C543 1.235 . S
C549 O532 1.295 . S
C549 O533 1.235 . S
Fe550 O552 1.918 . S
Fe550 O555 1.997 . S
Fe550 O556 2.002 . S
Fe550 O561 1.976 . S
Fe550 O564 1.996 1_556 S
Fe551 O552 1.918 . S
Fe551 O559 1.997 . S
Fe551 O562 1.996 . S
Fe551 O566 1.976 . S
Fe551 O569 2.002 . S
O552 Fe550 1.918 . S
O552 Fe551 1.918 . S
O552 Fe553 1.918 . S
Fe553 O552 1.918 . S
Fe553 O554 2.002 . S
Fe553 O563 1.976 1_556 S
Fe553 O567 1.996 . S
Fe553 O570 1.997 . S
O554 Fe553 2.002 . S
O554 C571 1.295 . S
O555 Fe550 1.997 . S
O555 C571 1.235 . S
O556 Fe550 2.002 . S
O556 C557 1.295 . S
C557 O556 1.295 . S
C557 O559 1.235 . S
C558 O563 1.287 . S
C558 O564 1.255 . S
O559 Fe551 1.997 . S
O559 C557 1.235 . S
C560 O566 1.287 . S
C560 O567 1.255 . S
O561 Fe550 1.976 . S
O561 C568 1.287 . S
O562 Fe551 1.996 . S
O562 C568 1.255 . S
O563 Fe553 1.976 1_554 S
O563 C558 1.287 . S
O564 Fe550 1.996 1_554 S
O564 C558 1.255 . S
C565 O569 1.295 . S
C565 O570 1.235 . S
O566 Fe551 1.976 . S
O566 C560 1.287 . S
O567 Fe553 1.996 . S
O567 C560 1.255 . S
C568 O561 1.287 . S
C568 O562 1.255 . S
O569 Fe551 2.002 . S
O569 C565 1.295 . S
O570 Fe553 1.997 . S
O570 C565 1.235 . S
C571 O554 1.295 . S
C571 O555 1.235 . S
Fe572 O574 1.918 . S
Fe572 O577 1.997 . S
Fe572 O578 2.002 . S
Fe572 O583 1.976 . S
Fe572 O586 1.996 . S
Fe573 O574 1.918 . S
Fe573 O581 1.997 . S
Fe573 O584 1.996 . S
Fe573 O588 1.976 . S
Fe573 O591 2.002 . S
O574 Fe572 1.918 . S
O574 Fe573 1.918 . S
O574 Fe575 1.918 . S
Fe575 O574 1.918 . S
Fe575 O576 2.002 . S
Fe575 O585 1.976 . S
Fe575 O589 1.996 . S
Fe575 O592 1.997 . S
O576 Fe575 2.002 . S
O576 C593 1.295 . S
O577 Fe572 1.997 . S
O577 C593 1.235 . S
O578 Fe572 2.002 . S
O578 C579 1.295 . S
C579 O578 1.295 . S
C579 O581 1.235 . S
C580 O585 1.287 . S
C580 O586 1.255 . S
O581 Fe573 1.997 . S
O581 C579 1.235 . S
C582 O588 1.287 . S
C582 O589 1.255 . S
O583 Fe572 1.976 . S
O583 C590 1.287 . S
O584 Fe573 1.996 . S
O584 C590 1.255 . S
O585 Fe575 1.976 . S
O585 C580 1.287 . S
O586 Fe572 1.996 . S
O586 C580 1.255 . S
C587 O591 1.295 . S
C587 O592 1.235 . S
O588 Fe573 1.976 . S
O588 C582 1.287 . S
O589 Fe575 1.996 . S
O589 C582 1.255 . S
C590 O583 1.287 . S
C590 O584 1.255 . S
O591 Fe573 2.002 . S
O591 C587 1.295 . S
O592 Fe575 1.997 . S
O592 C587 1.235 . S
C593 O576 1.295 . S
C593 O577 1.235 . S
Fe594 O596 1.918 . S
Fe594 O599 1.997 . S
Fe594 O600 2.002 . S
Fe594 O605 1.976 . S
Fe594 O608 1.996 . S
Fe595 O596 1.918 . S
Fe595 O603 1.997 . S
Fe595 O606 1.996 . S
Fe595 O610 1.976 . S
Fe595 O613 2.002 . S
O596 Fe594 1.918 . S
O596 Fe595 1.918 . S
O596 Fe597 1.918 . S
Fe597 O596 1.918 . S
Fe597 O598 2.002 . S
Fe597 O607 1.976 . S
Fe597 O611 1.996 . S
Fe597 O614 1.997 . S
O598 Fe597 2.002 . S
O598 C615 1.295 . S
O599 Fe594 1.997 . S
O599 C615 1.235 . S
O600 Fe594 2.002 . S
O600 C601 1.295 . S
C601 O600 1.295 . S
C601 O603 1.235 . S
C602 O607 1.287 . S
C602 O608 1.255 . S
O603 Fe595 1.997 . S
O603 C601 1.235 . S
C604 O610 1.287 . S
C604 O611 1.255 . S
O605 Fe594 1.976 . S
O605 C612 1.287 . S
O606 Fe595 1.996 . S
O606 C612 1.255 . S
O607 Fe597 1.976 . S
O607 C602 1.287 . S
O608 Fe594 1.996 . S
O608 C602 1.255 . S
C609 O613 1.295 . S
C609 O614 1.235 . S
O610 Fe595 1.976 . S
O610 C604 1.287 . S
O611 Fe597 1.996 . S
O611 C604 1.255 . S
C612 O605 1.287 . S
C612 O606 1.255 . S
O613 Fe595 2.002 . S
O613 C609 1.295 . S
O614 Fe597 1.997 . S
O614 C609 1.235 . S
C615 O598 1.295 . S
C615 O599 1.235 . S
Fe616 O618 1.918 . S
Fe616 O621 1.997 . S
Fe616 O622 2.002 . S
Fe616 O627 1.976 . S
Fe616 O630 1.996 . S
Fe617 O618 1.918 . S
Fe617 O625 1.997 . S
Fe617 O628 1.996 . S
Fe617 O632 1.976 . S
Fe617 O635 2.002 . S
O618 Fe616 1.918 . S
O618 Fe617 1.918 . S
O618 Fe619 1.918 . S
Fe619 O618 1.918 . S
Fe619 O620 2.002 . S
Fe619 O629 1.976 . S
Fe619 O633 1.996 . S
Fe619 O636 1.997 . S
O620 Fe619 2.002 . S
O620 C637 1.295 . S
O621 Fe616 1.997 . S
O621 C637 1.235 . S
O622 Fe616 2.002 . S
O622 C623 1.295 . S
C623 O622 1.295 . S
C623 O625 1.235 . S
C624 O629 1.287 . S
C624 O630 1.255 . S
O625 Fe617 1.997 . S
O625 C623 1.235 . S
C626 O632 1.287 . S
C626 O633 1.255 . S
O627 Fe616 1.976 . S
O627 C634 1.287 . S
O628 Fe617 1.996 . S
O628 C634 1.255 . S
O629 Fe619 1.976 . S
O629 C624 1.287 . S
O630 Fe616 1.996 . S
O630 C624 1.255 . S
C631 O635 1.295 . S
C631 O636 1.235 . S
O632 Fe617 1.976 . S
O632 C626 1.287 . S
O633 Fe619 1.996 . S
O633 C626 1.255 . S
C634 O627 1.287 . S
C634 O628 1.255 . S
O635 Fe617 2.002 . S
O635 C631 1.295 . S
O636 Fe619 1.997 . S
O636 C631 1.235 . S
C637 O620 1.295 . S
C637 O621 1.235 . S
Fe638 O640 1.918 . S
Fe638 O643 1.997 . S
Fe638 O644 2.002 . S
Fe638 O649 1.976 1_554 S
Fe638 O652 1.996 . S
Fe639 O640 1.918 . S
Fe639 O647 1.997 . S
Fe639 O650 1.996 1_554 S
Fe639 O654 1.976 . S
Fe639 O657 2.002 . S
O640 Fe638 1.918 . S
O640 Fe639 1.918 . S
O640 Fe641 1.918 . S
Fe641 O640 1.918 . S
Fe641 O642 2.002 . S
Fe641 O651 1.976 . S
Fe641 O655 1.996 . S
Fe641 O658 1.997 . S
O642 Fe641 2.002 . S
O642 C659 1.295 . S
O643 Fe638 1.997 . S
O643 C659 1.235 . S
O644 Fe638 2.002 . S
O644 C645 1.295 . S
C645 O644 1.295 . S
C645 O647 1.235 . S
C646 O651 1.287 . S
C646 O652 1.255 . S
O647 Fe639 1.997 . S
O647 C645 1.235 . S
C648 O654 1.287 . S
C648 O655 1.255 . S
O649 Fe638 1.976 1_556 S
O649 C656 1.287 . S
O650 Fe639 1.996 1_556 S
O650 C656 1.255 . S
O651 Fe641 1.976 . S
O651 C646 1.287 . S
O652 Fe638 1.996 . S
O652 C646 1.255 . S
C653 O657 1.295 . S
C653 O658 1.235 . S
O654 Fe639 1.976 . S
O654 C648 1.287 . S
O655 Fe641 1.996 . S
O655 C648 1.255 . S
C656 O649 1.287 . S
C656 O650 1.255 . S
O657 Fe639 2.002 . S
O657 C653 1.295 . S
O658 Fe641 1.997 . S
O658 C653 1.235 . S
C659 O642 1.295 . S
C659 O643 1.235 . S
Fe660 O662 1.918 . S
Fe660 O665 1.997 . S
Fe660 O666 2.002 . S
Fe660 O671 1.976 . S
Fe660 O674 1.996 . S
Fe661 O662 1.918 . S
Fe661 O669 1.997 . S
Fe661 O672 1.996 . S
Fe661 O676 1.976 . S
Fe661 O679 2.002 . S
O662 Fe660 1.918 . S
O662 Fe661 1.918 . S
O662 Fe663 1.918 . S
Fe663 O662 1.918 . S
Fe663 O664 2.002 . S
Fe663 O673 1.976 . S
Fe663 O677 1.996 . S
Fe663 O680 1.997 . S
O664 Fe663 2.002 . S
O664 C681 1.295 . S
O665 Fe660 1.997 . S
O665 C681 1.235 . S
O666 Fe660 2.002 . S
O666 C667 1.295 . S
C667 O666 1.295 . S
C667 O669 1.235 . S
C668 O673 1.287 . S
C668 O674 1.255 . S
O669 Fe661 1.997 . S
O669 C667 1.235 . S
C670 O676 1.287 . S
C670 O677 1.255 . S
O671 Fe660 1.976 . S
O671 C678 1.287 . S
O672 Fe661 1.996 . S
O672 C678 1.255 . S
O673 Fe663 1.976 . S
O673 C668 1.287 . S
O674 Fe660 1.996 . S
O674 C668 1.255 . S
C675 O679 1.295 . S
C675 O680 1.235 . S
O676 Fe661 1.976 . S
O676 C670 1.287 . S
O677 Fe663 1.996 . S
O677 C670 1.255 . S
C678 O671 1.287 . S
C678 O672 1.255 . S
O679 Fe661 2.002 . S
O679 C675 1.295 . S
O680 Fe663 1.997 . S
O680 C675 1.235 . S
C681 O664 1.295 . S
C681 O665 1.235 . S
Fe682 O684 1.918 . S
Fe682 O687 1.997 . S
Fe682 O688 2.002 . S
Fe682 O693 1.976 . S
Fe682 O696 1.996 . S
Fe683 O684 1.918 . S
Fe683 O691 1.997 . S
Fe683 O694 1.996 . S
Fe683 O698 1.976 . S
Fe683 O701 2.002 . S
O684 Fe682 1.918 . S
O684 Fe683 1.918 . S
O684 Fe685 1.918 . S
Fe685 O684 1.918 . S
Fe685 O686 2.002 . S
Fe685 O695 1.976 . S
Fe685 O699 1.996 . S
Fe685 O702 1.997 . S
O686 Fe685 2.002 . S
O686 C703 1.295 . S
O687 Fe682 1.997 . S
O687 C703 1.235 . S
O688 Fe682 2.002 . S
O688 C689 1.295 . S
C689 O688 1.295 . S
C689 O691 1.235 . S
C690 O695 1.287 . S
C690 O696 1.255 . S
O691 Fe683 1.997 . S
O691 C689 1.235 . S
C692 O698 1.287 . S
C692 O699 1.255 . S
O693 Fe682 1.976 . S
O693 C700 1.287 . S
O694 Fe683 1.996 . S
O694 C700 1.255 . S
O695 Fe685 1.976 . S
O695 C690 1.287 . S
O696 Fe682 1.996 . S
O696 C690 1.255 . S
C697 O701 1.295 . S
C697 O702 1.235 . S
O698 Fe683 1.976 . S
O698 C692 1.287 . S
O699 Fe685 1.996 . S
O699 C692 1.255 . S
C700 O693 1.287 . S
C700 O694 1.255 . S
O701 Fe683 2.002 . S
O701 C697 1.295 . S
O702 Fe685 1.997 . S
O702 C697 1.235 . S
C703 O686 1.295 . S
C703 O687 1.235 . S
H704 C710 0.930 . S
H705 C714 0.930 . S
H706 C719 0.929 . S
H707 C717 0.929 . S
H708 C712 0.929 . S
H709 C718 0.929 . S
C710 H704 0.930 . S
C710 C711 1.367 . S
C710 C718 1.378 . S
C711 C710 1.367 . S
C711 C719 1.433 . S
C712 H708 0.929 . S
C712 C714 1.378 . S
C712 C716 1.350 . S
C713 C716 1.463 1_545 S
C713 C718 1.350 . S
C713 N721 1.427 . S
C714 H705 0.930 . S
C714 C712 1.378 . S
C714 C715 1.367 . S
C715 C714 1.367 . S
C715 C717 1.433 . S
C716 C712 1.350 . S
C716 C713 1.463 1_565 S
C716 N720 1.427 . S
C717 H707 0.929 . S
C717 C715 1.433 . S
C717 N720 1.384 . S
C718 H709 0.929 . S
C718 C710 1.378 . S
C718 C713 1.350 . S
C719 H706 0.929 . S
C719 C711 1.433 . S
C719 N721 1.384 . S
N720 C716 1.427 . S
N720 C717 1.384 . S
N721 C713 1.427 . S
N721 C719 1.384 . S
H722 C728 0.930 . S
H723 C732 0.930 . S
H724 C737 0.929 . S
H725 C735 0.929 . S
H726 C730 0.929 . S
H727 C736 0.929 . S
C728 H722 0.930 . S
C728 C729 1.367 . S
C728 C736 1.378 . S
C729 C728 1.367 . S
C729 C737 1.433 . S
C730 H726 0.929 . S
C730 C732 1.378 . S
C730 C734 1.350 . S
C731 C734 1.463 . S
C731 C736 1.350 . S
C731 N739 1.427 . S
C732 H723 0.930 . S
C732 C730 1.378 . S
C732 C733 1.367 . S
C733 C732 1.367 . S
C733 C735 1.433 . S
C734 C730 1.350 . S
C734 C731 1.463 . S
C734 N738 1.427 . S
C735 H725 0.929 . S
C735 C733 1.433 . S
C735 N738 1.384 . S
C736 H727 0.929 . S
C736 C728 1.378 . S
C736 C731 1.350 . S
C737 H724 0.929 . S
C737 C729 1.433 . S
C737 N739 1.384 . S
N738 C734 1.427 . S
N738 C735 1.384 . S
N739 C731 1.427 . S
N739 C737 1.384 . S
H740 C746 0.930 . S
H741 C750 0.930 . S
H742 C755 0.929 . S
H743 C753 0.929 . S
H744 C748 0.929 . S
H745 C754 0.929 . S
C746 H740 0.930 . S
C746 C747 1.367 . S
C746 C754 1.378 . S
C747 C746 1.367 . S
C747 C755 1.433 . S
C748 H744 0.929 . S
C748 C750 1.378 . S
C748 C752 1.350 . S
C749 C752 1.463 1_545 S
C749 C754 1.350 . S
C749 N757 1.427 . S
C750 H741 0.930 . S
C750 C748 1.378 . S
C750 C751 1.367 . S
C751 C750 1.367 . S
C751 C753 1.433 . S
C752 C748 1.350 . S
C752 C749 1.463 1_565 S
C752 N756 1.427 . S
C753 H743 0.929 . S
C753 C751 1.433 . S
C753 N756 1.384 . S
C754 H745 0.929 . S
C754 C746 1.378 . S
C754 C749 1.350 . S
C755 H742 0.929 . S
C755 C747 1.433 . S
C755 N757 1.384 . S
N756 C752 1.427 . S
N756 C753 1.384 . S
N757 C749 1.427 . S
N757 C755 1.384 . S
H758 C764 0.930 . S
H759 C768 0.930 . S
H760 C773 0.929 . S
H761 C771 0.929 . S
H762 C766 0.929 . S
H763 C772 0.929 . S
C764 H758 0.930 . S
C764 C765 1.367 . S
C764 C772 1.378 . S
C765 C764 1.367 . S
C765 C773 1.433 1_554 S
C766 H762 0.929 . S
C766 C768 1.378 . S
C766 C770 1.350 . S
C767 C770 1.463 1_554 S
C767 C772 1.350 . S
C767 N775 1.427 1_554 S
C768 H759 0.930 . S
C768 C766 1.378 . S
C768 C769 1.367 . S
C769 C768 1.367 . S
C769 C771 1.433 1_556 S
C770 C766 1.350 . S
C770 C767 1.463 1_556 S
C770 N774 1.427 1_556 S
C771 H761 0.929 . S
C771 C769 1.433 1_554 S
C771 N774 1.384 . S
C772 H763 0.929 . S
C772 C764 1.378 . S
C772 C767 1.350 . S
C773 H760 0.929 . S
C773 C765 1.433 1_556 S
C773 N775 1.384 . S
N774 C770 1.427 1_554 S
N774 C771 1.384 . S
N775 C767 1.427 1_556 S
N775 C773 1.384 . S
H776 C782 0.930 . S
H777 C786 0.930 . S
H778 C791 0.929 . S
H779 C789 0.929 . S
H780 C784 0.929 . S
H781 C790 0.929 . S
C782 H776 0.930 . S
C782 C783 1.367 . S
C782 C790 1.378 . S
C783 C782 1.367 . S
C783 C791 1.433 . S
C784 H780 0.929 . S
C784 C786 1.378 . S
C784 C788 1.350 . S
C785 C788 1.463 1_565 S
C785 C790 1.350 . S
C785 N793 1.427 . S
C786 H777 0.930 . S
C786 C784 1.378 . S
C786 C787 1.367 . S
C787 C786 1.367 . S
C787 C789 1.433 . S
C788 C784 1.350 . S
C788 C785 1.463 1_545 S
C788 N792 1.427 . S
C789 H779 0.929 . S
C789 C787 1.433 . S
C789 N792 1.384 . S
C790 H781 0.929 . S
C790 C782 1.378 . S
C790 C785 1.350 . S
C791 H778 0.929 . S
C791 C783 1.433 . S
C791 N793 1.384 . S
N792 C788 1.427 . S
N792 C789 1.384 . S
N793 C785 1.427 . S
N793 C791 1.384 . S
H794 C800 0.930 . S
H795 C804 0.930 . S
H796 C809 0.929 . S
H797 C807 0.929 . S
H798 C802 0.929 . S
H799 C808 0.929 . S
C800 H794 0.930 . S
C800 C801 1.367 . S
C800 C808 1.378 . S
C801 C800 1.367 . S
C801 C809 1.433 . S
C802 H798 0.929 . S
C802 C804 1.378 . S
C802 C806 1.350 . S
C803 C806 1.463 . S
C803 C808 1.350 . S
C803 N811 1.427 . S
C804 H795 0.930 . S
C804 C802 1.378 . S
C804 C805 1.367 . S
C805 C804 1.367 . S
C805 C807 1.433 . S
C806 C802 1.350 . S
C806 C803 1.463 . S
C806 N810 1.427 . S
C807 H797 0.929 . S
C807 C805 1.433 . S
C807 N810 1.384 . S
C808 H799 0.929 . S
C808 C800 1.378 . S
C808 C803 1.350 . S
C809 H796 0.929 . S
C809 C801 1.433 . S
C809 N811 1.384 . S
N810 C806 1.427 . S
N810 C807 1.384 . S
N811 C803 1.427 . S
N811 C809 1.384 . S
H812 C818 0.930 . S
H813 C822 0.930 . S
H814 C827 0.929 . S
H815 C825 0.929 . S
H816 C820 0.929 . S
H817 C826 0.929 . S
C818 H812 0.930 . S
C818 C819 1.367 . S
C818 C826 1.378 . S
C819 C818 1.367 . S
C819 C827 1.433 . S
C820 H816 0.929 . S
C820 C822 1.378 . S
C820 C824 1.350 . S
C821 C824 1.463 1_545 S
C821 C826 1.350 . S
C821 N829 1.427 . S
C822 H813 0.930 . S
C822 C820 1.378 . S
C822 C823 1.367 . S
C823 C822 1.367 . S
C823 C825 1.433 . S
C824 C820 1.350 . S
C824 C821 1.463 1_565 S
C824 N828 1.427 . S
C825 H815 0.929 . S
C825 C823 1.433 . S
C825 N828 1.384 . S
C826 H817 0.929 . S
C826 C818 1.378 . S
C826 C821 1.350 . S
C827 H814 0.929 . S
C827 C819 1.433 . S
C827 N829 1.384 . S
N828 C824 1.427 . S
N828 C825 1.384 . S
N829 C821 1.427 . S
N829 C827 1.384 . S
H830 C836 0.930 . S
H831 C840 0.930 . S
H832 C845 0.929 . S
H833 C843 0.929 . S
H834 C838 0.929 . S
H835 C844 0.929 . S
C836 H830 0.930 . S
C836 C837 1.367 . S
C836 C844 1.378 . S
C837 C836 1.367 . S
C837 C845 1.433 1_554 S
C838 H834 0.929 . S
C838 C840 1.378 . S
C838 C842 1.350 . S
C839 C842 1.463 1_554 S
C839 C844 1.350 . S
C839 N847 1.427 1_554 S
C840 H831 0.930 . S
C840 C838 1.378 . S
C840 C841 1.367 . S
C841 C840 1.367 . S
C841 C843 1.433 1_556 S
C842 C838 1.350 . S
C842 C839 1.463 1_556 S
C842 N846 1.427 1_556 S
C843 H833 0.929 . S
C843 C841 1.433 1_554 S
C843 N846 1.384 . S
C844 H835 0.929 . S
C844 C836 1.378 . S
C844 C839 1.350 . S
C845 H832 0.929 . S
C845 C837 1.433 1_556 S
C845 N847 1.384 . S
N846 C842 1.427 1_554 S
N846 C843 1.384 . S
N847 C839 1.427 1_556 S
N847 C845 1.384 . S
H848 C854 0.930 . S
H849 C858 0.930 . S
H850 C863 0.929 . S
H851 C861 0.929 . S
H852 C856 0.929 . S
H853 C862 0.929 . S
C854 H848 0.930 . S
C854 C855 1.367 . S
C854 C862 1.378 . S
C855 C854 1.367 . S
C855 C863 1.433 . S
C856 H852 0.929 . S
C856 C858 1.378 . S
C856 C860 1.350 . S
C857 C860 1.463 . S
C857 C862 1.350 . S
C857 N865 1.427 . S
C858 H849 0.930 . S
C858 C856 1.378 . S
C858 C859 1.367 . S
C859 C858 1.367 . S
C859 C861 1.433 . S
C860 C856 1.350 . S
C860 C857 1.463 . S
C860 N864 1.427 . S
C861 H851 0.929 . S
C861 C859 1.433 . S
C861 N864 1.384 . S
C862 H853 0.929 . S
C862 C854 1.378 . S
C862 C857 1.350 . S
C863 H850 0.929 . S
C863 C855 1.433 . S
C863 N865 1.384 . S
N864 C860 1.427 . S
N864 C861 1.384 . S
N865 C857 1.427 . S
N865 C863 1.384 . S
H866 C872 0.930 . S
H867 C876 0.930 . S
H868 C881 0.929 . S
H869 C879 0.929 . S
H870 C874 0.929 . S
H871 C880 0.929 . S
C872 H866 0.930 . S
C872 C873 1.367 1_554 S
C872 C880 1.378 . S
C873 C872 1.367 1_556 S
C873 C881 1.433 . S
C874 H870 0.929 . S
C874 C876 1.378 . S
C874 C878 1.350 1_556 S
C875 C878 1.463 1_556 S
C875 C880 1.350 1_556 S
C875 N883 1.427 . S
C876 H867 0.930 . S
C876 C874 1.378 . S
C876 C877 1.367 1_556 S
C877 C876 1.367 1_554 S
C877 C879 1.433 . S
C878 C874 1.350 1_554 S
C878 C875 1.463 1_554 S
C878 N882 1.427 . S
C879 H869 0.929 . S
C879 C877 1.433 . S
C879 N882 1.384 . S
C880 H871 0.929 . S
C880 C872 1.378 . S
C880 C875 1.350 1_554 S
C881 H868 0.929 . S
C881 C873 1.433 . S
C881 N883 1.384 . S
N882 C878 1.427 . S
N882 C879 1.384 . S
N883 C875 1.427 . S
N883 C881 1.384 . S
H884 C890 0.930 . S
H885 C894 0.930 . S
H886 C899 0.929 . S
H887 C897 0.929 . S
H888 C892 0.929 . S
H889 C898 0.929 . S
C890 H884 0.930 . S
C890 C891 1.367 . S
C890 C898 1.378 . S
C891 C890 1.367 . S
C891 C899 1.433 . S
C892 H888 0.929 . S
C892 C894 1.378 . S
C892 C896 1.350 . S
C893 C896 1.463 . S
C893 C898 1.350 . S
C893 N901 1.427 . S
C894 H885 0.930 . S
C894 C892 1.378 . S
C894 C895 1.367 . S
C895 C894 1.367 . S
C895 C897 1.433 . S
C896 C892 1.350 . S
C896 C893 1.463 . S
C896 N900 1.427 . S
C897 H887 0.929 . S
C897 C895 1.433 . S
C897 N900 1.384 . S
C898 H889 0.929 . S
C898 C890 1.378 . S
C898 C893 1.350 . S
C899 H886 0.929 . S
C899 C891 1.433 . S
C899 N901 1.384 . S
N900 C896 1.427 . S
N900 C897 1.384 . S
N901 C893 1.427 . S
N901 C899 1.384 . S
H902 C908 0.930 . S
H903 C912 0.930 . S
H904 C917 0.929 . S
H905 C915 0.929 . S
H906 C910 0.929 . S
H907 C916 0.929 . S
C908 H902 0.930 . S
C908 C909 1.367 . S
C908 C916 1.378 . S
C909 C908 1.367 . S
C909 C917 1.433 . S
C910 H906 0.929 . S
C910 C912 1.378 . S
C910 C914 1.350 . S
C911 C914 1.463 . S
C911 C916 1.350 . S
C911 N919 1.427 . S
C912 H903 0.930 . S
C912 C910 1.378 . S
C912 C913 1.367 . S
C913 C912 1.367 . S
C913 C915 1.433 . S
C914 C910 1.350 . S
C914 C911 1.463 . S
C914 N918 1.427 . S
C915 H905 0.929 . S
C915 C913 1.433 . S
C915 N918 1.384 . S
C916 H907 0.929 . S
C916 C908 1.378 . S
C916 C911 1.350 . S
C917 H904 0.929 . S
C917 C909 1.433 . S
C917 N919 1.384 . S
N918 C914 1.427 . S
N918 C915 1.384 . S
N919 C911 1.427 . S
N919 C917 1.384 . S
H920 C926 0.930 . S
H921 C930 0.930 . S
H922 C935 0.929 . S
H923 C933 0.929 . S
H924 C928 0.929 . S
H925 C934 0.929 . S
C926 H920 0.930 . S
C926 C927 1.367 . S
C926 C934 1.378 . S
C927 C926 1.367 . S
C927 C935 1.433 . S
C928 H924 0.929 . S
C928 C930 1.378 . S
C928 C932 1.350 . S
C929 C932 1.463 . S
C929 C934 1.350 . S
C929 N937 1.427 . S
C930 H921 0.930 . S
C930 C928 1.378 . S
C930 C931 1.367 . S
C931 C930 1.367 . S
C931 C933 1.433 . S
C932 C928 1.350 . S
C932 C929 1.463 . S
C932 N936 1.427 . S
C933 H923 0.929 . S
C933 C931 1.433 . S
C933 N936 1.384 . S
C934 H925 0.929 . S
C934 C926 1.378 . S
C934 C929 1.350 . S
C935 H922 0.929 . S
C935 C927 1.433 . S
C935 N937 1.384 . S
N936 C932 1.427 . S
N936 C933 1.384 . S
N937 C929 1.427 . S
N937 C935 1.384 . S
H938 C944 0.930 . S
H939 C948 0.930 . S
H940 C953 0.929 . S
H941 C951 0.929 . S
H942 C946 0.929 . S
H943 C952 0.929 . S
C944 H938 0.930 . S
C944 C945 1.367 1_554 S
C944 C952 1.378 . S
C945 C944 1.367 1_556 S
C945 C953 1.433 . S
C946 H942 0.929 . S
C946 C948 1.378 . S
C946 C950 1.350 1_556 S
C947 C950 1.463 1_556 S
C947 C952 1.350 1_556 S
C947 N955 1.427 . S
C948 H939 0.930 . S
C948 C946 1.378 . S
C948 C949 1.367 1_556 S
C949 C948 1.367 1_554 S
C949 C951 1.433 . S
C950 C946 1.350 1_554 S
C950 C947 1.463 1_554 S
C950 N954 1.427 . S
C951 H941 0.929 . S
C951 C949 1.433 . S
C951 N954 1.384 . S
C952 H943 0.929 . S
C952 C944 1.378 . S
C952 C947 1.350 1_554 S
C953 H940 0.929 . S
C953 C945 1.433 . S
C953 N955 1.384 . S
N954 C950 1.427 . S
N954 C951 1.384 . S
N955 C947 1.427 . S
N955 C953 1.384 . S
H956 C962 0.930 . S
H957 C966 0.930 . S
H958 C971 0.929 . S
H959 C969 0.929 . S
H960 C964 0.929 . S
H961 C970 0.929 . S
C962 H956 0.930 . S
C962 C963 1.367 . S
C962 C970 1.378 . S
C963 C962 1.367 . S
C963 C971 1.433 . S
C964 H960 0.929 . S
C964 C966 1.378 . S
C964 C968 1.350 . S
C965 C968 1.463 . S
C965 C970 1.350 . S
C965 N973 1.427 . S
C966 H957 0.930 . S
C966 C964 1.378 . S
C966 C967 1.367 . S
C967 C966 1.367 . S
C967 C969 1.433 . S
C968 C964 1.350 . S
C968 C965 1.463 . S
C968 N972 1.427 . S
C969 H959 0.929 . S
C969 C967 1.433 . S
C969 N972 1.384 . S
C970 H961 0.929 . S
C970 C962 1.378 . S
C970 C965 1.350 . S
C971 H958 0.929 . S
C971 C963 1.433 . S
C971 N973 1.384 . S
N972 C968 1.427 . S
N972 C969 1.384 . S
N973 C965 1.427 . S
N973 C971 1.384 . S
H974 C980 0.930 . S
H975 C984 0.930 . S
H976 C989 0.929 . S
H977 C987 0.929 . S
H978 C982 0.929 . S
H979 C988 0.929 . S
C980 H974 0.930 . S
C980 C981 1.367 . S
C980 C988 1.378 . S
C981 C980 1.367 . S
C981 C989 1.433 . S
C982 H978 0.929 . S
C982 C984 1.378 . S
C982 C986 1.350 . S
C983 C986 1.463 . S
C983 C988 1.350 . S
C983 N991 1.427 . S
C984 H975 0.930 . S
C984 C982 1.378 . S
C984 C985 1.367 . S
C985 C984 1.367 . S
C985 C987 1.433 . S
C986 C982 1.350 . S
C986 C983 1.463 . S
C986 N990 1.427 . S
C987 H977 0.929 . S
C987 C985 1.433 . S
C987 N990 1.384 . S
C988 H979 0.929 . S
C988 C980 1.378 . S
C988 C983 1.350 . S
C989 H976 0.929 . S
C989 C981 1.433 . S
C989 N991 1.384 . S
N990 C986 1.427 . S
N990 C987 1.384 . S
N991 C983 1.427 . S
N991 C989 1.384 . S
H992 C998 0.930 . S
H993 C1002 0.930 . S
H994 C1007 0.929 . S
H995 C1005 0.929 . S
H996 C1000 0.929 . S
H997 C1006 0.929 . S
C998 H992 0.930 . S
C998 C999 1.367 . S
C998 C1006 1.378 . S
C999 C998 1.367 . S
C999 C1007 1.433 . S
C1000 H996 0.929 . S
C1000 C1002 1.378 . S
C1000 C1004 1.350 . S
C1001 C1004 1.463 . S
C1001 C1006 1.350 . S
C1001 N1009 1.427 . S
C1002 H993 0.930 . S
C1002 C1000 1.378 . S
C1002 C1003 1.367 . S
C1003 C1002 1.367 . S
C1003 C1005 1.433 . S
C1004 C1000 1.350 . S
C1004 C1001 1.463 . S
C1004 N1008 1.427 . S
C1005 H995 0.929 . S
C1005 C1003 1.433 . S
C1005 N1008 1.384 . S
C1006 H997 0.929 . S
C1006 C998 1.378 . S
C1006 C1001 1.350 . S
C1007 H994 0.929 . S
C1007 C999 1.433 . S
C1007 N1009 1.384 . S
N1008 C1004 1.427 . S
N1008 C1005 1.384 . S
N1009 C1001 1.427 . S
N1009 C1007 1.384 . S
H1010 C1016 0.930 . S
H1011 C1020 0.930 . S
H1012 C1025 0.929 . S
H1013 C1023 0.929 . S
H1014 C1018 0.929 1_655 S
H1015 C1024 0.929 1_455 S
C1016 H1010 0.930 . S
C1016 C1017 1.367 . S
C1016 C1024 1.378 . S
C1017 C1016 1.367 . S
C1017 C1025 1.433 . S
C1018 H1014 0.929 1_455 S
C1018 C1020 1.378 . S
C1018 C1022 1.350 . S
C1019 C1022 1.463 1_645 S
C1019 C1024 1.350 . S
C1019 N1027 1.427 . S
C1020 H1011 0.930 . S
C1020 C1018 1.378 . S
C1020 C1021 1.367 . S
C1021 C1020 1.367 . S
C1021 C1023 1.433 . S
C1022 C1018 1.350 . S
C1022 C1019 1.463 1_465 S
C1022 N1026 1.427 . S
C1023 H1013 0.929 . S
C1023 C1021 1.433 . S
C1023 N1026 1.384 . S
C1024 H1015 0.929 1_655 S
C1024 C1016 1.378 . S
C1024 C1019 1.350 . S
C1025 H1012 0.929 . S
C1025 C1017 1.433 . S
C1025 N1027 1.384 . S
N1026 C1022 1.427 . S
N1026 C1023 1.384 . S
N1027 C1019 1.427 . S
N1027 C1025 1.384 . S
H1028 C1034 0.930 . S
H1029 C1038 0.930 . S
H1030 C1043 0.929 . S
H1031 C1041 0.929 . S
H1032 C1036 0.929 . S
H1033 C1042 0.929 . S
C1034 H1028 0.930 . S
C1034 C1035 1.367 . S
C1034 C1042 1.378 . S
C1035 C1034 1.367 . S
C1035 C1043 1.433 . S
C1036 H1032 0.929 . S
C1036 C1038 1.378 . S
C1036 C1040 1.350 . S
C1037 C1040 1.463 . S
C1037 C1042 1.350 . S
C1037 N1045 1.427 . S
C1038 H1029 0.930 . S
C1038 C1036 1.378 . S
C1038 C1039 1.367 . S
C1039 C1038 1.367 . S
C1039 C1041 1.433 . S
C1040 C1036 1.350 . S
C1040 C1037 1.463 . S
C1040 N1044 1.427 . S
C1041 H1031 0.929 . S
C1041 C1039 1.433 . S
C1041 N1044 1.384 . S
C1042 H1033 0.929 . S
C1042 C1034 1.378 . S
C1042 C1037 1.350 . S
C1043 H1030 0.929 . S
C1043 C1035 1.433 . S
C1043 N1045 1.384 . S
N1044 C1040 1.427 . S
N1044 C1041 1.384 . S
N1045 C1037 1.427 . S
N1045 C1043 1.384 . S
H1046 C1052 0.930 . S
H1047 C1056 0.930 . S
H1048 C1061 0.929 . S
H1049 C1059 0.929 . S
H1050 C1054 0.929 . S
H1051 C1060 0.929 . S
C1052 H1046 0.930 . S
C1052 C1053 1.367 1_556 S
C1052 C1060 1.378 . S
C1053 C1052 1.367 1_554 S
C1053 C1061 1.433 . S
C1054 H1050 0.929 . S
C1054 C1056 1.378 . S
C1054 C1058 1.350 1_554 S
C1055 C1058 1.463 1_544 S
C1055 C1060 1.350 1_554 S
C1055 N1063 1.427 . S
C1056 H1047 0.930 . S
C1056 C1054 1.378 . S
C1056 C1057 1.367 1_554 S
C1057 C1056 1.367 1_556 S
C1057 C1059 1.433 . S
C1058 C1054 1.350 1_556 S
C1058 C1055 1.463 1_566 S
C1058 N1062 1.427 . S
C1059 H1049 0.929 . S
C1059 C1057 1.433 . S
C1059 N1062 1.384 . S
C1060 H1051 0.929 . S
C1060 C1052 1.378 . S
C1060 C1055 1.350 1_556 S
C1061 H1048 0.929 . S
C1061 C1053 1.433 . S
C1061 N1063 1.384 . S
N1062 C1058 1.427 . S
N1062 C1059 1.384 . S
N1063 C1055 1.427 . S
N1063 C1061 1.384 . S
H1064 C1070 0.930 . S
H1065 C1074 0.930 . S
H1066 C1079 0.929 . S
H1067 C1077 0.929 . S
H1068 C1072 0.929 . S
H1069 C1078 0.929 . S
C1070 H1064 0.930 . S
C1070 C1071 1.367 . S
C1070 C1078 1.378 . S
C1071 C1070 1.367 . S
C1071 C1079 1.433 . S
C1072 H1068 0.929 . S
C1072 C1074 1.378 . S
C1072 C1076 1.350 . S
C1073 C1076 1.463 . S
C1073 C1078 1.350 . S
C1073 N1081 1.427 . S
C1074 H1065 0.930 . S
C1074 C1072 1.378 . S
C1074 C1075 1.367 . S
C1075 C1074 1.367 . S
C1075 C1077 1.433 . S
C1076 C1072 1.350 . S
C1076 C1073 1.463 . S
C1076 N1080 1.427 . S
C1077 H1067 0.929 . S
C1077 C1075 1.433 . S
C1077 N1080 1.384 . S
C1078 H1069 0.929 . S
C1078 C1070 1.378 . S
C1078 C1073 1.350 . S
C1079 H1066 0.929 . S
C1079 C1071 1.433 . S
C1079 N1081 1.384 . S
N1080 C1076 1.427 . S
N1080 C1077 1.384 . S
N1081 C1073 1.427 . S
N1081 C1079 1.384 . S
H1082 C1088 0.930 . S
H1083 C1092 0.930 . S
H1084 C1097 0.929 . S
H1085 C1095 0.929 . S
H1086 C1090 0.909 1_565 S
H1087 C1096 0.909 1_545 S
C1088 H1082 0.930 . S
C1088 C1089 1.367 . S
C1088 C1096 1.391 . S
C1089 C1088 1.367 . S
C1089 C1097 1.433 . S
C1090 H1086 0.909 1_545 S
C1090 C1092 1.391 . S
C1090 C1094 1.356 . S
C1091 C1094 1.463 1_565 S
C1091 C1096 1.356 . S
C1091 N1099 1.427 . S
C1092 H1083 0.930 . S
C1092 C1090 1.391 . S
C1092 C1093 1.367 . S
C1093 C1092 1.367 . S
C1093 C1095 1.433 . S
C1094 C1090 1.356 . S
C1094 C1091 1.463 1_545 S
C1094 N1098 1.427 . S
C1095 H1085 0.929 . S
C1095 C1093 1.433 . S
C1095 N1098 1.384 . S
C1096 H1087 0.909 1_565 S
C1096 C1088 1.391 . S
C1096 C1091 1.356 . S
C1097 H1084 0.929 . S
C1097 C1089 1.433 . S
C1097 N1099 1.384 . S
N1098 C1094 1.427 . S
N1098 C1095 1.384 . S
N1099 C1091 1.427 . S
N1099 C1097 1.384 . S
H1100 C1106 0.930 . S
H1101 C1110 0.930 . S
H1102 C1115 0.929 . S
H1103 C1113 0.929 . S
H1104 C1108 0.929 . S
H1105 C1114 0.929 . S
C1106 H1100 0.930 . S
C1106 C1107 1.367 . S
C1106 C1114 1.378 . S
C1107 C1106 1.367 . S
C1107 C1115 1.433 . S
C1108 H1104 0.929 . S
C1108 C1110 1.378 . S
C1108 C1112 1.350 . S
C1109 C1112 1.463 . S
C1109 C1114 1.350 . S
C1109 N1117 1.427 . S
C1110 H1101 0.930 . S
C1110 C1108 1.378 . S
C1110 C1111 1.367 . S
C1111 C1110 1.367 . S
C1111 C1113 1.433 . S
C1112 C1108 1.350 . S
C1112 C1109 1.463 . S
C1112 N1116 1.427 . S
C1113 H1103 0.929 . S
C1113 C1111 1.433 . S
C1113 N1116 1.384 . S
C1114 H1105 0.929 . S
C1114 C1106 1.378 . S
C1114 C1109 1.350 . S
C1115 H1102 0.929 . S
C1115 C1107 1.433 . S
C1115 N1117 1.384 . S
N1116 C1112 1.427 . S
N1116 C1113 1.384 . S
N1117 C1109 1.427 . S
N1117 C1115 1.384 . S
H1118 C1124 0.930 . S
H1119 C1128 0.930 . S
H1120 C1133 0.929 . S
H1121 C1131 0.929 . S
H1122 C1126 0.929 . S
H1123 C1132 0.929 . S
C1124 H1118 0.930 . S
C1124 C1125 1.367 1_556 S
C1124 C1132 1.378 . S
C1125 C1124 1.367 1_554 S
C1125 C1133 1.433 . S
C1126 H1122 0.929 . S
C1126 C1128 1.378 . S
C1126 C1130 1.350 1_554 S
C1127 C1130 1.463 1_664 S
C1127 C1132 1.350 1_554 S
C1127 N1135 1.427 . S
C1128 H1119 0.930 . S
C1128 C1126 1.378 . S
C1128 C1129 1.367 1_554 S
C1129 C1128 1.367 1_556 S
C1129 C1131 1.433 . S
C1130 C1126 1.350 1_556 S
C1130 C1127 1.463 1_446 S
C1130 N1134 1.427 . S
C1131 H1121 0.929 . S
C1131 C1129 1.433 . S
C1131 N1134 1.384 . S
C1132 H1123 0.929 . S
C1132 C1124 1.378 . S
C1132 C1127 1.350 1_556 S
C1133 H1120 0.929 . S
C1133 C1125 1.433 . S
C1133 N1135 1.384 . S
N1134 C1130 1.427 . S
N1134 C1131 1.384 . S
N1135 C1127 1.427 . S
N1135 C1133 1.384 . S
H1136 C1142 0.930 . S
H1137 C1146 0.930 . S
H1138 C1151 0.929 . S
H1139 C1149 0.929 . S
H1140 C1144 0.929 . S
H1141 C1150 0.929 . S
C1142 H1136 0.930 . S
C1142 C1143 1.367 . S
C1142 C1150 1.378 . S
C1143 C1142 1.367 . S
C1143 C1151 1.433 . S
C1144 H1140 0.929 . S
C1144 C1146 1.378 . S
C1144 C1148 1.350 . S
C1145 C1148 1.463 . S
C1145 C1150 1.350 . S
C1145 N1153 1.427 . S
C1146 H1137 0.930 . S
C1146 C1144 1.378 . S
C1146 C1147 1.367 . S
C1147 C1146 1.367 . S
C1147 C1149 1.433 . S
C1148 C1144 1.350 . S
C1148 C1145 1.463 . S
C1148 N1152 1.427 . S
C1149 H1139 0.929 . S
C1149 C1147 1.433 . S
C1149 N1152 1.384 . S
C1150 H1141 0.929 . S
C1150 C1142 1.378 . S
C1150 C1145 1.350 . S
C1151 H1138 0.929 . S
C1151 C1143 1.433 . S
C1151 N1153 1.384 . S
N1152 C1148 1.427 . S
N1152 C1149 1.384 . S
N1153 C1145 1.427 . S
N1153 C1151 1.384 . S
H1154 C1160 0.930 . S
H1155 C1164 0.930 . S
H1156 C1169 0.929 . S
H1157 C1167 0.929 . S
H1158 C1162 0.929 . S
H1159 C1168 0.929 . S
C1160 H1154 0.930 . S
C1160 C1161 1.367 . S
C1160 C1168 1.378 . S
C1161 C1160 1.367 . S
C1161 C1169 1.433 . S
C1162 H1158 0.929 . S
C1162 C1164 1.378 . S
C1162 C1166 1.350 . S
C1163 C1166 1.463 . S
C1163 C1168 1.350 . S
C1163 N1171 1.427 . S
C1164 H1155 0.930 . S
C1164 C1162 1.378 . S
C1164 C1165 1.367 . S
C1165 C1164 1.367 . S
C1165 C1167 1.433 . S
C1166 C1162 1.350 . S
C1166 C1163 1.463 . S
C1166 N1170 1.427 . S
C1167 H1157 0.929 . S
C1167 C1165 1.433 . S
C1167 N1170 1.384 . S
C1168 H1159 0.929 . S
C1168 C1160 1.378 . S
C1168 C1163 1.350 . S
C1169 H1156 0.929 . S
C1169 C1161 1.433 . S
C1169 N1171 1.384 . S
N1170 C1166 1.427 . S
N1170 C1167 1.384 . S
N1171 C1163 1.427 . S
N1171 C1169 1.384 . S
H1172 C1178 0.930 . S
H1173 C1182 0.930 . S
H1174 C1187 0.929 . S
H1175 C1185 0.929 . S
H1176 C1180 0.929 . S
H1177 C1186 0.929 . S
C1178 H1172 0.930 . S
C1178 C1179 1.367 . S
C1178 C1186 1.378 . S
C1179 C1178 1.367 . S
C1179 C1187 1.433 . S
C1180 H1176 0.929 . S
C1180 C1182 1.378 . S
C1180 C1184 1.350 . S
C1181 C1184 1.463 . S
C1181 C1186 1.350 . S
C1181 N1189 1.427 . S
C1182 H1173 0.930 . S
C1182 C1180 1.378 . S
C1182 C1183 1.367 . S
C1183 C1182 1.367 . S
C1183 C1185 1.433 . S
C1184 C1180 1.350 . S
C1184 C1181 1.463 . S
C1184 N1188 1.427 . S
C1185 H1175 0.929 . S
C1185 C1183 1.433 . S
C1185 N1188 1.384 . S
C1186 H1177 0.929 . S
C1186 C1178 1.378 . S
C1186 C1181 1.350 . S
C1187 H1174 0.929 . S
C1187 C1179 1.433 . S
C1187 N1189 1.384 . S
N1188 C1184 1.427 . S
N1188 C1185 1.384 . S
N1189 C1181 1.427 . S
N1189 C1187 1.384 . S
H1190 C1196 0.930 . S
H1191 C1200 0.930 . S
H1192 C1205 0.929 . S
H1193 C1203 0.929 . S
H1194 C1198 0.929 . S
H1195 C1204 0.929 . S
C1196 H1190 0.930 . S
C1196 C1197 1.367 . S
C1196 C1204 1.378 . S
C1197 C1196 1.367 . S
C1197 C1205 1.433 . S
C1198 H1194 0.929 . S
C1198 C1200 1.378 . S
C1198 C1202 1.350 . S
C1199 C1202 1.463 . S
C1199 C1204 1.350 . S
C1199 N1207 1.427 . S
C1200 H1191 0.930 . S
C1200 C1198 1.378 . S
C1200 C1201 1.367 . S
C1201 C1200 1.367 . S
C1201 C1203 1.433 . S
C1202 C1198 1.350 . S
C1202 C1199 1.463 . S
C1202 N1206 1.427 . S
C1203 H1193 0.929 . S
C1203 C1201 1.433 . S
C1203 N1206 1.384 . S
C1204 H1195 0.929 . S
C1204 C1196 1.378 . S
C1204 C1199 1.350 . S
C1205 H1192 0.929 . S
C1205 C1197 1.433 . S
C1205 N1207 1.384 . S
N1206 C1202 1.427 . S
N1206 C1203 1.384 . S
N1207 C1199 1.427 . S
N1207 C1205 1.384 . S
H1208 C1214 0.930 . S
H1209 C1218 0.930 . S
H1210 C1223 0.929 . S
H1211 C1221 0.929 . S
H1212 C1216 0.933 . S
H1213 C1222 0.941 . S
C1214 H1208 0.930 . S
C1214 C1215 1.367 . S
C1214 C1222 1.372 1_554 S
C1215 C1214 1.367 . S
C1215 C1223 1.433 . S
C1216 H1212 0.933 . S
C1216 C1218 1.375 1_554 S
C1216 C1220 1.348 1_554 S
C1217 C1220 1.463 1_554 S
C1217 C1222 1.346 1_554 S
C1217 N1225 1.427 . S
C1218 H1209 0.930 . S
C1218 C1216 1.375 1_556 S
C1218 C1219 1.367 . S
C1219 C1218 1.367 . S
C1219 C1221 1.433 . S
C1220 C1216 1.348 1_556 S
C1220 C1217 1.463 1_556 S
C1220 N1224 1.427 . S
C1221 H1211 0.929 . S
C1221 C1219 1.433 . S
C1221 N1224 1.384 . S
C1222 H1213 0.941 . S
C1222 C1214 1.372 1_556 S
C1222 C1217 1.346 1_556 S
C1223 H1210 0.929 . S
C1223 C1215 1.433 . S
C1223 N1225 1.384 . S
N1224 C1220 1.427 . S
N1224 C1221 1.384 . S
N1225 C1217 1.427 . S
N1225 C1223 1.384 . S
H1226 C1232 0.930 . S
H1227 C1236 0.930 . S
H1228 C1241 0.929 . S
H1229 C1239 0.929 . S
H1230 C1234 0.929 . S
H1231 C1240 0.929 . S
C1232 H1226 0.930 . S
C1232 C1233 1.367 . S
C1232 C1240 1.378 . S
C1233 C1232 1.367 . S
C1233 C1241 1.433 . S
C1234 H1230 0.929 . S
C1234 C1236 1.378 . S
C1234 C1238 1.350 . S
C1235 C1238 1.463 1_455 S
C1235 C1240 1.350 . S
C1235 N1243 1.427 . S
C1236 H1227 0.930 . S
C1236 C1234 1.378 . S
C1236 C1237 1.367 . S
C1237 C1236 1.367 . S
C1237 C1239 1.433 . S
C1238 C1234 1.350 . S
C1238 C1235 1.463 1_655 S
C1238 N1242 1.427 . S
C1239 H1229 0.929 . S
C1239 C1237 1.433 . S
C1239 N1242 1.384 . S
C1240 H1231 0.929 . S
C1240 C1232 1.378 . S
C1240 C1235 1.350 . S
C1241 H1228 0.929 . S
C1241 C1233 1.433 . S
C1241 N1243 1.384 . S
N1242 C1238 1.427 . S
N1242 C1239 1.384 . S
N1243 C1235 1.427 . S
N1243 C1241 1.384 . S
H1244 C1250 0.930 . S
H1245 C1254 0.930 . S
H1246 C1259 0.929 . S
H1247 C1257 0.929 . S
H1248 C1252 0.929 . S
H1249 C1258 0.929 . S
C1250 H1244 0.930 . S
C1250 C1251 1.367 1_556 S
C1250 C1258 1.378 . S
C1251 C1250 1.367 1_554 S
C1251 C1259 1.433 . S
C1252 H1248 0.929 . S
C1252 C1254 1.378 . S
C1252 C1256 1.350 1_554 S
C1253 C1256 1.463 1_454 S
C1253 C1258 1.350 1_554 S
C1253 N1261 1.427 . S
C1254 H1245 0.930 . S
C1254 C1252 1.378 . S
C1254 C1255 1.367 1_554 S
C1255 C1254 1.367 1_556 S
C1255 C1257 1.433 . S
C1256 C1252 1.350 1_556 S
C1256 C1253 1.463 1_656 S
C1256 N1260 1.427 . S
C1257 H1247 0.929 . S
C1257 C1255 1.433 . S
C1257 N1260 1.384 . S
C1258 H1249 0.929 . S
C1258 C1250 1.378 . S
C1258 C1253 1.350 1_556 S
C1259 H1246 0.929 . S
C1259 C1251 1.433 . S
C1259 N1261 1.384 . S
N1260 C1256 1.427 . S
N1260 C1257 1.384 . S
N1261 C1253 1.427 . S
N1261 C1259 1.384 . S
H1262 C1268 0.930 . S
H1263 C1272 0.930 . S
H1264 C1277 0.929 . S
H1265 C1275 0.929 . S
H1266 C1270 0.929 . S
H1267 C1276 0.929 . S
C1268 H1262 0.930 . S
C1268 C1269 1.367 . S
C1268 C1276 1.378 . S
C1269 C1268 1.367 . S
C1269 C1277 1.433 . S
C1270 H1266 0.929 . S
C1270 C1272 1.378 . S
C1270 C1274 1.350 . S
C1271 C1274 1.463 . S
C1271 C1276 1.350 . S
C1271 N1279 1.427 . S
C1272 H1263 0.930 . S
C1272 C1270 1.378 . S
C1272 C1273 1.367 . S
C1273 C1272 1.367 . S
C1273 C1275 1.433 . S
C1274 C1270 1.350 . S
C1274 C1271 1.463 . S
C1274 N1278 1.427 . S
C1275 H1265 0.929 . S
C1275 C1273 1.433 . S
C1275 N1278 1.384 . S
C1276 H1267 0.929 . S
C1276 C1268 1.378 . S
C1276 C1271 1.350 . S
C1277 H1264 0.929 . S
C1277 C1269 1.433 . S
C1277 N1279 1.384 . S
N1278 C1274 1.427 . S
N1278 C1275 1.384 . S
N1279 C1271 1.427 . S
N1279 C1277 1.384 . S
H1280 C1286 0.930 . S
H1281 C1290 0.930 . S
H1282 C1295 0.929 . S
H1283 C1293 0.929 . S
H1284 C1288 0.929 . S
H1285 C1294 0.929 . S
C1286 H1280 0.930 . S
C1286 C1287 1.367 . S
C1286 C1294 1.378 . S
C1287 C1286 1.367 . S
C1287 C1295 1.433 . S
C1288 H1284 0.929 . S
C1288 C1290 1.378 . S
C1288 C1292 1.350 . S
C1289 C1292 1.463 . S
C1289 C1294 1.350 . S
C1289 N1297 1.427 . S
C1290 H1281 0.930 . S
C1290 C1288 1.378 . S
C1290 C1291 1.367 . S
C1291 C1290 1.367 . S
C1291 C1293 1.433 . S
C1292 C1288 1.350 . S
C1292 C1289 1.463 . S
C1292 N1296 1.427 . S
C1293 H1283 0.929 . S
C1293 C1291 1.433 . S
C1293 N1296 1.384 . S
C1294 H1285 0.929 . S
C1294 C1286 1.378 . S
C1294 C1289 1.350 . S
C1295 H1282 0.929 . S
C1295 C1287 1.433 . S
C1295 N1297 1.384 . S
N1296 C1292 1.427 . S
N1296 C1293 1.384 . S
N1297 C1289 1.427 . S
N1297 C1295 1.384 . S
H1298 C1304 0.930 . S
H1299 C1308 0.930 . S
H1300 C1313 0.929 . S
H1301 C1311 0.929 . S
H1302 C1306 0.929 . S
H1303 C1312 0.929 . S
C1304 H1298 0.930 . S
C1304 C1305 1.367 . S
C1304 C1312 1.378 1_455 S
C1305 C1304 1.367 . S
C1305 C1313 1.433 . S
C1306 H1302 0.929 . S
C1306 C1308 1.378 . S
C1306 C1310 1.350 . S
C1307 C1310 1.463 . S
C1307 C1312 1.350 . S
C1307 N1315 1.427 . S
C1308 H1299 0.930 . S
C1308 C1306 1.378 . S
C1308 C1309 1.367 . S
C1309 C1308 1.367 . S
C1309 C1311 1.433 . S
C1310 C1306 1.350 . S
C1310 C1307 1.463 . S
C1310 N1314 1.427 . S
C1311 H1301 0.929 . S
C1311 C1309 1.433 . S
C1311 N1314 1.384 . S
C1312 H1303 0.929 . S
C1312 C1304 1.378 1_655 S
C1312 C1307 1.350 . S
C1313 H1300 0.929 . S
C1313 C1305 1.433 . S
C1313 N1315 1.384 1_455 S
N1314 C1310 1.427 . S
N1314 C1311 1.384 . S
N1315 C1307 1.427 . S
N1315 C1313 1.384 1_655 S
H1316 C1322 0.930 . S
H1317 C1326 0.930 . S
H1318 C1331 0.929 . S
H1319 C1329 0.929 . S
H1320 C1324 0.929 . S
H1321 C1330 0.929 . S
C1322 H1316 0.930 . S
C1322 C1323 1.367 . S
C1322 C1330 1.378 . S
C1323 C1322 1.367 . S
C1323 C1331 1.433 . S
C1324 H1320 0.929 . S
C1324 C1326 1.378 . S
C1324 C1328 1.350 . S
C1325 C1328 1.463 . S
C1325 C1330 1.350 . S
C1325 N1333 1.427 . S
C1326 H1317 0.930 . S
C1326 C1324 1.378 . S
C1326 C1327 1.367 . S
C1327 C1326 1.367 . S
C1327 C1329 1.433 . S
C1328 C1324 1.350 . S
C1328 C1325 1.463 . S
C1328 N1332 1.427 . S
C1329 H1319 0.929 . S
C1329 C1327 1.433 . S
C1329 N1332 1.384 . S
C1330 H1321 0.929 . S
C1330 C1322 1.378 . S
C1330 C1325 1.350 . S
C1331 H1318 0.929 . S
C1331 C1323 1.433 . S
C1331 N1333 1.384 . S
N1332 C1328 1.427 . S
N1332 C1329 1.384 . S
N1333 C1325 1.427 . S
N1333 C1331 1.384 . S
H1334 C1340 0.930 . S
H1335 C1344 0.930 . S
H1336 C1349 0.929 . S
H1337 C1347 0.929 . S
H1338 C1342 0.929 . S
H1339 C1348 0.929 . S
C1340 H1334 0.930 . S
C1340 C1341 1.367 . S
C1340 C1348 1.378 . S
C1341 C1340 1.367 . S
C1341 C1349 1.433 . S
C1342 H1338 0.929 . S
C1342 C1344 1.378 . S
C1342 C1346 1.350 . S
C1343 C1346 1.463 . S
C1343 C1348 1.350 . S
C1343 N1351 1.427 . S
C1344 H1335 0.930 . S
C1344 C1342 1.378 . S
C1344 C1345 1.367 . S
C1345 C1344 1.367 . S
C1345 C1347 1.433 . S
C1346 C1342 1.350 . S
C1346 C1343 1.463 . S
C1346 N1350 1.427 . S
C1347 H1337 0.929 . S
C1347 C1345 1.433 . S
C1347 N1350 1.384 . S
C1348 H1339 0.929 . S
C1348 C1340 1.378 . S
C1348 C1343 1.350 . S
C1349 H1336 0.929 . S
C1349 C1341 1.433 . S
C1349 N1351 1.384 . S
N1350 C1346 1.427 . S
N1350 C1347 1.384 . S
N1351 C1343 1.427 . S
N1351 C1349 1.384 . S
H1352 C1358 0.930 . S
H1353 C1362 0.930 . S
H1354 C1367 0.929 . S
H1355 C1365 0.929 . S
H1356 C1360 0.929 . S
H1357 C1366 0.929 . S
C1358 H1352 0.930 . S
C1358 C1359 1.367 . S
C1358 C1366 1.378 . S
C1359 C1358 1.367 . S
C1359 C1367 1.433 . S
C1360 H1356 0.929 . S
C1360 C1362 1.378 . S
C1360 C1364 1.350 . S
C1361 C1364 1.463 . S
C1361 C1366 1.350 . S
C1361 N1369 1.427 . S
C1362 H1353 0.930 . S
C1362 C1360 1.378 . S
C1362 C1363 1.367 . S
C1363 C1362 1.367 . S
C1363 C1365 1.433 . S
C1364 C1360 1.350 . S
C1364 C1361 1.463 . S
C1364 N1368 1.427 . S
C1365 H1355 0.929 . S
C1365 C1363 1.433 . S
C1365 N1368 1.384 . S
C1366 H1357 0.929 . S
C1366 C1358 1.378 . S
C1366 C1361 1.350 . S
C1367 H1354 0.929 . S
C1367 C1359 1.433 . S
C1367 N1369 1.384 . S
N1368 C1364 1.427 . S
N1368 C1365 1.384 . S
N1369 C1361 1.427 . S
N1369 C1367 1.384 . S
H1370 C1376 0.930 . S
H1371 C1380 0.930 . S
H1372 C1385 0.929 . S
H1373 C1383 0.929 . S
H1374 C1378 0.929 . S
H1375 C1384 0.929 . S
C1376 H1370 0.930 . S
C1376 C1377 1.367 . S
C1376 C1384 1.378 . S
C1377 C1376 1.367 . S
C1377 C1385 1.433 . S
C1378 H1374 0.929 . S
C1378 C1380 1.378 . S
C1378 C1382 1.350 . S
C1379 C1382 1.463 . S
C1379 C1384 1.350 . S
C1379 N1387 1.427 . S
C1380 H1371 0.930 . S
C1380 C1378 1.378 . S
C1380 C1381 1.367 . S
C1381 C1380 1.367 . S
C1381 C1383 1.433 . S
C1382 C1378 1.350 . S
C1382 C1379 1.463 . S
C1382 N1386 1.427 . S
C1383 H1373 0.929 . S
C1383 C1381 1.433 . S
C1383 N1386 1.384 . S
C1384 H1375 0.929 . S
C1384 C1376 1.378 . S
C1384 C1379 1.350 . S
C1385 H1372 0.929 . S
C1385 C1377 1.433 . S
C1385 N1387 1.384 . S
N1386 C1382 1.427 . S
N1386 C1383 1.384 . S
N1387 C1379 1.427 . S
N1387 C1385 1.384 . S
H1388 C1394 0.930 . S
H1389 C1398 0.930 . S
H1390 C1403 0.929 . S
H1391 C1401 0.929 . S
H1392 C1396 0.929 . S
H1393 C1402 0.929 . S
C1394 H1388 0.930 . S
C1394 C1395 1.367 . S
C1394 C1402 1.378 . S
C1395 C1394 1.367 . S
C1395 C1403 1.433 . S
C1396 H1392 0.929 . S
C1396 C1398 1.378 . S
C1396 C1400 1.350 . S
C1397 C1400 1.463 . S
C1397 C1402 1.350 . S
C1397 N1405 1.427 . S
C1398 H1389 0.930 . S
C1398 C1396 1.378 . S
C1398 C1399 1.367 . S
C1399 C1398 1.367 . S
C1399 C1401 1.433 . S
C1400 C1396 1.350 . S
C1400 C1397 1.463 . S
C1400 N1404 1.427 . S
C1401 H1391 0.929 . S
C1401 C1399 1.433 . S
C1401 N1404 1.384 . S
C1402 H1393 0.929 . S
C1402 C1394 1.378 . S
C1402 C1397 1.350 . S
C1403 H1390 0.929 . S
C1403 C1395 1.433 . S
C1403 N1405 1.384 . S
N1404 C1400 1.427 . S
N1404 C1401 1.384 . S
N1405 C1397 1.427 . S
N1405 C1403 1.384 . S
H1406 C1412 0.930 . S
H1407 C1416 0.930 . S
H1408 C1421 0.929 . S
H1409 C1419 0.929 . S
H1410 C1414 0.929 . S
H1411 C1420 0.929 . S
C1412 H1406 0.930 . S
C1412 C1413 1.367 . S
C1412 C1420 1.378 . S
C1413 C1412 1.367 . S
C1413 C1421 1.433 . S
C1414 H1410 0.929 . S
C1414 C1416 1.378 1_655 S
C1414 C1418 1.350 . S
C1415 C1418 1.463 . S
C1415 C1420 1.350 . S
C1415 N1423 1.427 . S
C1416 H1407 0.930 . S
C1416 C1414 1.378 1_455 S
C1416 C1417 1.367 . S
C1417 C1416 1.367 . S
C1417 C1419 1.433 . S
C1418 C1414 1.350 . S
C1418 C1415 1.463 . S
C1418 N1422 1.408 1_655 S
C1419 H1409 0.929 . S
C1419 C1417 1.433 . S
C1419 N1422 1.405 . S
C1420 H1411 0.929 . S
C1420 C1412 1.378 . S
C1420 C1415 1.350 . S
C1421 H1408 0.929 . S
C1421 C1413 1.433 . S
C1421 N1423 1.384 . S
N1422 C1418 1.408 1_455 S
N1422 C1419 1.405 . S
N1423 C1415 1.427 . S
N1423 C1421 1.384 . S
H1424 C1430 0.930 . S
H1425 C1434 0.930 . S
H1426 C1439 0.929 . S
H1427 C1437 0.929 . S
H1428 C1432 0.929 . S
H1429 C1438 0.929 . S
C1430 H1424 0.930 . S
C1430 C1431 1.367 . S
C1430 C1438 1.378 . S
C1431 C1430 1.367 . S
C1431 C1439 1.433 . S
C1432 H1428 0.929 . S
C1432 C1434 1.378 . S
C1432 C1436 1.350 . S
C1433 C1436 1.463 . S
C1433 C1438 1.350 . S
C1433 N1441 1.427 . S
C1434 H1425 0.930 . S
C1434 C1432 1.378 . S
C1434 C1435 1.367 . S
C1435 C1434 1.367 . S
C1435 C1437 1.433 . S
C1436 C1432 1.350 . S
C1436 C1433 1.463 . S
C1436 N1440 1.427 . S
C1437 H1427 0.929 . S
C1437 C1435 1.433 . S
C1437 N1440 1.384 . S
C1438 H1429 0.929 . S
C1438 C1430 1.378 . S
C1438 C1433 1.350 . S
C1439 H1426 0.929 . S
C1439 C1431 1.433 . S
C1439 N1441 1.384 . S
N1440 C1436 1.427 . S
N1440 C1437 1.384 . S
N1441 C1433 1.427 . S
N1441 C1439 1.384 . S
H1442 C1448 0.930 . S
H1443 C1452 0.930 . S
H1444 C1457 0.929 . S
H1445 C1455 0.929 . S
H1446 C1450 0.929 . S
H1447 C1456 0.929 . S
C1448 H1442 0.930 . S
C1448 C1449 1.367 1_455 S
C1448 C1456 1.378 . S
C1449 C1448 1.367 1_655 S
C1449 C1457 1.433 . S
C1450 H1446 0.929 . S
C1450 C1452 1.378 . S
C1450 C1454 1.350 . S
C1451 C1454 1.463 . S
C1451 C1456 1.350 . S
C1451 N1459 1.427 1_455 S
C1452 H1443 0.930 . S
C1452 C1450 1.378 . S
C1452 C1453 1.367 . S
C1453 C1452 1.367 . S
C1453 C1455 1.433 . S
C1454 C1450 1.350 . S
C1454 C1451 1.463 . S
C1454 N1458 1.427 . S
C1455 H1445 0.929 . S
C1455 C1453 1.433 . S
C1455 N1458 1.384 . S
C1456 H1447 0.929 . S
C1456 C1448 1.378 . S
C1456 C1451 1.350 . S
C1457 H1444 0.929 . S
C1457 C1449 1.433 . S
C1457 N1459 1.384 . S
N1458 C1454 1.427 . S
N1458 C1455 1.384 . S
N1459 C1451 1.427 1_655 S
N1459 C1457 1.384 . S
H1460 C1466 0.930 . S
H1461 C1470 0.930 . S
H1462 C1475 0.929 . S
H1463 C1473 0.929 . S
H1464 C1468 0.929 . S
H1465 C1474 0.929 . S
C1466 H1460 0.930 . S
C1466 C1467 1.367 . S
C1466 C1474 1.378 . S
C1467 C1466 1.367 . S
C1467 C1475 1.433 . S
C1468 H1464 0.929 . S
C1468 C1470 1.378 . S
C1468 C1472 1.350 . S
C1469 C1472 1.463 . S
C1469 C1474 1.350 . S
C1469 N1477 1.427 . S
C1470 H1461 0.930 . S
C1470 C1468 1.378 . S
C1470 C1471 1.367 . S
C1471 C1470 1.367 . S
C1471 C1473 1.433 . S
C1472 C1468 1.350 . S
C1472 C1469 1.463 . S
C1472 N1476 1.427 . S
C1473 H1463 0.929 . S
C1473 C1471 1.433 . S
C1473 N1476 1.384 . S
C1474 H1465 0.929 . S
C1474 C1466 1.378 . S
C1474 C1469 1.350 . S
C1475 H1462 0.929 . S
C1475 C1467 1.433 . S
C1475 N1477 1.384 . S
N1476 C1472 1.427 . S
N1476 C1473 1.384 . S
N1477 C1469 1.427 . S
N1477 C1475 1.384 . S
H1478 C1484 0.930 . S
H1479 C1488 0.930 . S
H1480 C1493 0.929 . S
H1481 C1491 0.929 . S
H1482 C1486 0.929 . S
H1483 C1492 0.929 . S
C1484 H1478 0.930 . S
C1484 C1485 1.367 . S
C1484 C1492 1.378 . S
C1485 C1484 1.367 . S
C1485 C1493 1.433 . S
C1486 H1482 0.929 . S
C1486 C1488 1.378 . S
C1486 C1490 1.350 . S
C1487 C1490 1.463 . S
C1487 C1492 1.350 . S
C1487 N1495 1.427 . S
C1488 H1479 0.930 . S
C1488 C1486 1.378 . S
C1488 C1489 1.367 . S
C1489 C1488 1.367 . S
C1489 C1491 1.433 . S
C1490 C1486 1.350 . S
C1490 C1487 1.463 . S
C1490 N1494 1.427 . S
C1491 H1481 0.929 . S
C1491 C1489 1.433 . S
C1491 N1494 1.384 . S
C1492 H1483 0.929 . S
C1492 C1484 1.378 . S
C1492 C1487 1.350 . S
C1493 H1480 0.929 . S
C1493 C1485 1.433 . S
C1493 N1495 1.384 . S
N1494 C1490 1.427 . S
N1494 C1491 1.384 . S
N1495 C1487 1.427 . S
N1495 C1493 1.384 . S
H1496 C1502 0.930 . S
H1497 C1506 0.930 . S
H1498 C1511 0.929 . S
H1499 C1509 0.929 . S
H1500 C1504 0.929 . S
H1501 C1510 0.929 . S
C1502 H1496 0.930 . S
C1502 C1503 1.367 . S
C1502 C1510 1.378 . S
C1503 C1502 1.367 . S
C1503 C1511 1.433 . S
C1504 H1500 0.929 . S
C1504 C1506 1.378 . S
C1504 C1508 1.350 . S
C1505 C1508 1.463 . S
C1505 C1510 1.350 . S
C1505 N1513 1.427 . S
C1506 H1497 0.930 . S
C1506 C1504 1.378 . S
C1506 C1507 1.367 . S
C1507 C1506 1.367 . S
C1507 C1509 1.433 . S
C1508 C1504 1.350 . S
C1508 C1505 1.463 . S
C1508 N1512 1.427 . S
C1509 H1499 0.929 . S
C1509 C1507 1.433 . S
C1509 N1512 1.384 . S
C1510 H1501 0.929 . S
C1510 C1502 1.378 . S
C1510 C1505 1.350 . S
C1511 H1498 0.929 . S
C1511 C1503 1.433 . S
C1511 N1513 1.384 . S
N1512 C1508 1.427 . S
N1512 C1509 1.384 . S
N1513 C1505 1.427 . S
N1513 C1511 1.384 . S
H1514 C1520 0.930 . S
H1515 C1524 0.930 . S
H1516 C1529 0.929 . S
H1517 C1527 0.929 . S
H1518 C1522 0.929 . S
H1519 C1528 0.929 . S
C1520 H1514 0.930 . S
C1520 C1521 1.367 . S
C1520 C1528 1.378 . S
C1521 C1520 1.367 . S
C1521 C1529 1.433 . S
C1522 H1518 0.929 . S
C1522 C1524 1.378 . S
C1522 C1526 1.350 . S
C1523 C1526 1.463 . S
C1523 C1528 1.350 . S
C1523 N1531 1.427 . S
C1524 H1515 0.930 . S
C1524 C1522 1.378 . S
C1524 C1525 1.367 . S
C1525 C1524 1.367 . S
C1525 C1527 1.433 . S
C1526 C1522 1.350 . S
C1526 C1523 1.463 . S
C1526 N1530 1.427 . S
C1527 H1517 0.929 . S
C1527 C1525 1.433 . S
C1527 N1530 1.384 . S
C1528 H1519 0.929 . S
C1528 C1520 1.378 . S
C1528 C1523 1.350 . S
C1529 H1516 0.929 . S
C1529 C1521 1.433 . S
C1529 N1531 1.384 . S
N1530 C1526 1.427 . S
N1530 C1527 1.384 . S
N1531 C1523 1.427 . S
N1531 C1529 1.384 . S
H1532 C1538 0.930 . S
H1533 C1542 0.930 . S
H1534 C1547 0.929 . S
H1535 C1545 0.929 . S
H1536 C1540 0.929 . S
H1537 C1546 0.929 . S
C1538 H1532 0.930 . S
C1538 C1539 1.367 . S
C1538 C1546 1.378 . S
C1539 C1538 1.367 . S
C1539 C1547 1.433 . S
C1540 H1536 0.929 . S
C1540 C1542 1.378 . S
C1540 C1544 1.350 . S
C1541 C1544 1.463 . S
C1541 C1546 1.350 . S
C1541 N1549 1.427 . S
C1542 H1533 0.930 . S
C1542 C1540 1.378 . S
C1542 C1543 1.367 . S
C1543 C1542 1.367 . S
C1543 C1545 1.433 . S
C1544 C1540 1.350 . S
C1544 C1541 1.463 . S
C1544 N1548 1.427 . S
C1545 H1535 0.929 . S
C1545 C1543 1.433 . S
C1545 N1548 1.384 . S
C1546 H1537 0.929 . S
C1546 C1538 1.378 . S
C1546 C1541 1.350 . S
C1547 H1534 0.929 . S
C1547 C1539 1.433 . S
C1547 N1549 1.384 . S
N1548 C1544 1.427 . S
N1548 C1545 1.384 . S
N1549 C1541 1.427 . S
N1549 C1547 1.384 . S
H1550 C1556 0.930 . S
H1551 C1560 0.930 . S
H1552 C1565 0.929 . S
H1553 C1563 0.929 . S
H1554 C1558 0.929 . S
H1555 C1564 0.929 . S
C1556 H1550 0.930 . S
C1556 C1557 1.367 . S
C1556 C1564 1.378 . S
C1557 C1556 1.367 . S
C1557 C1565 1.433 . S
C1558 H1554 0.929 . S
C1558 C1560 1.378 . S
C1558 C1562 1.350 1_655 S
C1559 C1562 1.463 . S
C1559 C1564 1.350 . S
C1559 N1567 1.427 . S
C1560 H1551 0.930 . S
C1560 C1558 1.378 . S
C1560 C1561 1.367 . S
C1561 C1560 1.367 . S
C1561 C1563 1.433 1_655 S
C1562 C1558 1.350 1_455 S
C1562 C1559 1.463 . S
C1562 N1566 1.427 . S
C1563 H1553 0.929 . S
C1563 C1561 1.433 1_455 S
C1563 N1566 1.384 . S
C1564 H1555 0.929 . S
C1564 C1556 1.378 . S
C1564 C1559 1.350 . S
C1565 H1552 0.929 . S
C1565 C1557 1.433 . S
C1565 N1567 1.384 . S
N1566 C1562 1.427 . S
N1566 C1563 1.384 . S
N1567 C1559 1.427 . S
N1567 C1565 1.384 . S
H1568 C1574 0.930 . S
H1569 C1578 0.930 . S
H1570 C1583 0.929 . S
H1571 C1581 0.929 . S
H1572 C1576 0.929 . S
H1573 C1582 0.929 . S
C1574 H1568 0.930 . S
C1574 C1575 1.367 . S
C1574 C1582 1.378 . S
C1575 C1574 1.367 . S
C1575 C1583 1.433 . S
C1576 H1572 0.929 . S
C1576 C1578 1.378 . S
C1576 C1580 1.350 . S
C1577 C1580 1.463 . S
C1577 C1582 1.350 . S
C1577 N1585 1.427 . S
C1578 H1569 0.930 . S
C1578 C1576 1.378 . S
C1578 C1579 1.367 . S
C1579 C1578 1.367 . S
C1579 C1581 1.433 . S
C1580 C1576 1.350 . S
C1580 C1577 1.463 . S
C1580 N1584 1.427 . S
C1581 H1571 0.929 . S
C1581 C1579 1.433 . S
C1581 N1584 1.384 . S
C1582 H1573 0.929 . S
C1582 C1574 1.378 . S
C1582 C1577 1.350 . S
C1583 H1570 0.929 . S
C1583 C1575 1.433 . S
C1583 N1585 1.384 . S
N1584 C1580 1.427 . S
N1584 C1581 1.384 . S
N1585 C1577 1.427 . S
N1585 C1583 1.384 . S
H1586 C1592 0.930 . S
H1587 C1596 0.930 . S
H1588 C1601 0.929 . S
H1589 C1599 0.929 . S
H1590 C1594 0.929 . S
H1591 C1600 0.929 . S
C1592 H1586 0.930 . S
C1592 C1593 1.367 . S
C1592 C1600 1.378 . S
C1593 C1592 1.367 . S
C1593 C1601 1.433 . S
C1594 H1590 0.929 . S
C1594 C1596 1.378 . S
C1594 C1598 1.350 . S
C1595 C1598 1.463 . S
C1595 C1600 1.350 . S
C1595 N1603 1.427 . S
C1596 H1587 0.930 . S
C1596 C1594 1.378 . S
C1596 C1597 1.367 . S
C1597 C1596 1.367 . S
C1597 C1599 1.433 . S
C1598 C1594 1.350 . S
C1598 C1595 1.463 . S
C1598 N1602 1.427 . S
C1599 H1589 0.929 . S
C1599 C1597 1.433 . S
C1599 N1602 1.384 . S
C1600 H1591 0.929 . S
C1600 C1592 1.378 . S
C1600 C1595 1.350 . S
C1601 H1588 0.929 . S
C1601 C1593 1.433 . S
C1601 N1603 1.384 . S
N1602 C1598 1.427 . S
N1602 C1599 1.384 . S
N1603 C1595 1.427 . S
N1603 C1601 1.384 . S
H1604 C1610 0.930 . S
H1605 C1614 0.930 . S
H1606 C1619 0.929 . S
H1607 C1617 0.929 . S
H1608 C1612 0.929 . S
H1609 C1618 0.929 . S
C1610 H1604 0.930 . S
C1610 C1611 1.367 . S
C1610 C1618 1.378 . S
C1611 C1610 1.367 . S
C1611 C1619 1.433 . S
C1612 H1608 0.929 . S
C1612 C1614 1.378 . S
C1612 C1616 1.350 . S
C1613 C1616 1.463 . S
C1613 C1618 1.350 . S
C1613 N1621 1.427 . S
C1614 H1605 0.930 . S
C1614 C1612 1.378 . S
C1614 C1615 1.367 . S
C1615 C1614 1.367 . S
C1615 C1617 1.433 . S
C1616 C1612 1.350 . S
C1616 C1613 1.463 . S
C1616 N1620 1.427 . S
C1617 H1607 0.929 . S
C1617 C1615 1.433 . S
C1617 N1620 1.384 . S
C1618 H1609 0.929 . S
C1618 C1610 1.378 . S
C1618 C1613 1.350 . S
C1619 H1606 0.929 . S
C1619 C1611 1.433 . S
C1619 N1621 1.384 . S
N1620 C1616 1.427 . S
N1620 C1617 1.384 . S
N1621 C1613 1.427 . S
N1621 C1619 1.384 . S
H1622 C1628 0.930 . S
H1623 C1632 0.930 . S
H1624 C1637 0.929 . S
H1625 C1635 0.929 . S
H1626 C1630 0.929 . S
H1627 C1636 0.929 . S
C1628 H1622 0.930 . S
C1628 C1629 1.367 . S
C1628 C1636 1.378 1_655 S
C1629 C1628 1.367 . S
C1629 C1637 1.433 . S
C1630 H1626 0.929 . S
C1630 C1632 1.378 . S
C1630 C1634 1.350 . S
C1631 C1634 1.463 . S
C1631 C1636 1.350 . S
C1631 N1639 1.427 1_455 S
C1632 H1623 0.930 . S
C1632 C1630 1.378 . S
C1632 C1633 1.367 . S
C1633 C1632 1.367 . S
C1633 C1635 1.433 . S
C1634 C1630 1.350 . S
C1634 C1631 1.463 . S
C1634 N1638 1.427 . S
C1635 H1625 0.929 . S
C1635 C1633 1.433 . S
C1635 N1638 1.384 . S
C1636 H1627 0.929 . S
C1636 C1628 1.378 1_455 S
C1636 C1631 1.350 . S
C1637 H1624 0.929 . S
C1637 C1629 1.433 . S
C1637 N1639 1.384 . S
N1638 C1634 1.427 . S
N1638 C1635 1.384 . S
N1639 C1631 1.427 1_655 S
N1639 C1637 1.384 . S
H1640 C1646 0.930 . S
H1641 C1650 0.930 . S
H1642 C1655 0.929 . S
H1643 C1653 0.929 . S
H1644 C1648 0.929 . S
H1645 C1654 0.929 . S
C1646 H1640 0.930 . S
C1646 C1647 1.367 . S
C1646 C1654 1.378 . S
C1647 C1646 1.367 . S
C1647 C1655 1.433 . S
C1648 H1644 0.929 . S
C1648 C1650 1.378 . S
C1648 C1652 1.350 . S
C1649 C1652 1.463 . S
C1649 C1654 1.350 . S
C1649 N1657 1.427 . S
C1650 H1641 0.930 . S
C1650 C1648 1.378 . S
C1650 C1651 1.367 . S
C1651 C1650 1.367 . S
C1651 C1653 1.433 . S
C1652 C1648 1.350 . S
C1652 C1649 1.463 . S
C1652 N1656 1.427 . S
C1653 H1643 0.929 . S
C1653 C1651 1.433 . S
C1653 N1656 1.384 . S
C1654 H1645 0.929 . S
C1654 C1646 1.378 . S
C1654 C1649 1.350 . S
C1655 H1642 0.929 . S
C1655 C1647 1.433 . S
C1655 N1657 1.384 . S
N1656 C1652 1.427 . S
N1656 C1653 1.384 . S
N1657 C1649 1.427 . S
N1657 C1655 1.384 . S
H1658 C1664 0.930 . S
H1659 C1668 0.930 . S
H1660 C1673 0.928 . S
H1661 C1671 0.929 . S
H1662 C1666 0.929 . S
H1663 C1672 0.929 . S
C1664 H1658 0.930 . S
C1664 C1665 1.367 . S
C1664 C1672 1.378 . S
C1665 C1664 1.367 . S
C1665 C1673 1.434 1_655 S
C1666 H1662 0.929 . S
C1666 C1668 1.378 . S
C1666 C1670 1.350 . S
C1667 C1670 1.463 . S
C1667 C1672 1.350 1_455 S
C1667 N1675 1.427 . S
C1668 H1659 0.930 . S
C1668 C1666 1.378 . S
C1668 C1669 1.367 . S
C1669 C1668 1.367 . S
C1669 C1671 1.433 . S
C1670 C1666 1.350 . S
C1670 C1667 1.463 . S
C1670 N1674 1.427 . S
C1671 H1661 0.929 . S
C1671 C1669 1.433 . S
C1671 N1674 1.384 . S
C1672 H1663 0.929 . S
C1672 C1664 1.378 . S
C1672 C1667 1.350 1_655 S
C1673 H1660 0.928 . S
C1673 C1665 1.434 1_455 S
C1673 N1675 1.382 . S
N1674 C1670 1.427 . S
N1674 C1671 1.384 . S
N1675 C1667 1.427 . S
N1675 C1673 1.382 . S
H1676 C1682 0.930 . S
H1677 C1686 0.930 . S
H1678 C1691 0.929 . S
H1679 C1689 0.929 . S
H1680 C1684 0.929 . S
H1681 C1690 0.929 . S
C1682 H1676 0.930 . S
C1682 C1683 1.367 . S
C1682 C1690 1.378 . S
C1683 C1682 1.367 . S
C1683 C1691 1.433 . S
C1684 H1680 0.929 . S
C1684 C1686 1.378 . S
C1684 C1688 1.350 . S
C1685 C1688 1.463 . S
C1685 C1690 1.350 . S
C1685 N1693 1.427 . S
C1686 H1677 0.930 . S
C1686 C1684 1.378 . S
C1686 C1687 1.367 . S
C1687 C1686 1.367 . S
C1687 C1689 1.433 . S
C1688 C1684 1.350 . S
C1688 C1685 1.463 . S
C1688 N1692 1.427 . S
C1689 H1679 0.929 . S
C1689 C1687 1.433 . S
C1689 N1692 1.384 . S
C1690 H1681 0.929 . S
C1690 C1682 1.378 . S
C1690 C1685 1.350 . S
C1691 H1678 0.929 . S
C1691 C1683 1.433 . S
C1691 N1693 1.384 . S
N1692 C1688 1.427 . S
N1692 C1689 1.384 . S
N1693 C1685 1.427 . S
N1693 C1691 1.384 . S
H1694 C1700 0.930 . S
H1695 C1704 0.930 . S
H1696 C1709 0.929 . S
H1697 C1707 0.929 . S
H1698 C1702 0.929 . S
H1699 C1708 0.929 . S
C1700 H1694 0.930 . S
C1700 C1701 1.367 . S
C1700 C1708 1.378 . S
C1701 C1700 1.367 . S
C1701 C1709 1.433 . S
C1702 H1698 0.929 . S
C1702 C1704 1.378 . S
C1702 C1706 1.350 . S
C1703 C1706 1.463 . S
C1703 C1708 1.350 . S
C1703 N1711 1.427 . S
C1704 H1695 0.930 . S
C1704 C1702 1.378 . S
C1704 C1705 1.367 . S
C1705 C1704 1.367 . S
C1705 C1707 1.433 . S
C1706 C1702 1.350 . S
C1706 C1703 1.463 . S
C1706 N1710 1.427 . S
C1707 H1697 0.929 . S
C1707 C1705 1.433 . S
C1707 N1710 1.384 . S
C1708 H1699 0.929 . S
C1708 C1700 1.378 . S
C1708 C1703 1.350 . S
C1709 H1696 0.929 . S
C1709 C1701 1.433 . S
C1709 N1711 1.384 . S
N1710 C1706 1.427 . S
N1710 C1707 1.384 . S
N1711 C1703 1.427 . S
N1711 C1709 1.384 . S
H1712 C1718 0.930 . S
H1713 C1722 0.930 . S
H1714 C1727 0.929 . S
H1715 C1725 0.929 . S
H1716 C1720 0.929 . S
H1717 C1726 0.929 . S
C1718 H1712 0.930 . S
C1718 C1719 1.367 . S
C1718 C1726 1.378 . S
C1719 C1718 1.367 . S
C1719 C1727 1.433 . S
C1720 H1716 0.929 . S
C1720 C1722 1.378 . S
C1720 C1724 1.350 . S
C1721 C1724 1.463 . S
C1721 C1726 1.350 . S
C1721 N1729 1.427 . S
C1722 H1713 0.930 . S
C1722 C1720 1.378 . S
C1722 C1723 1.367 . S
C1723 C1722 1.367 . S
C1723 C1725 1.433 . S
C1724 C1720 1.350 . S
C1724 C1721 1.463 . S
C1724 N1728 1.427 . S
C1725 H1715 0.929 . S
C1725 C1723 1.433 . S
C1725 N1728 1.384 . S
C1726 H1717 0.929 . S
C1726 C1718 1.378 . S
C1726 C1721 1.350 . S
C1727 H1714 0.929 . S
C1727 C1719 1.433 . S
C1727 N1729 1.384 . S
N1728 C1724 1.427 . S
N1728 C1725 1.384 . S
N1729 C1721 1.427 . S
N1729 C1727 1.384 . S
H1730 C1736 0.930 . S
H1731 C1740 0.930 . S
H1732 C1745 0.929 . S
H1733 C1743 0.929 . S
H1734 C1738 0.929 . S
H1735 C1744 0.929 . S
C1736 H1730 0.930 . S
C1736 C1737 1.367 . S
C1736 C1744 1.378 . S
C1737 C1736 1.367 . S
C1737 C1745 1.433 . S
C1738 H1734 0.929 . S
C1738 C1740 1.378 . S
C1738 C1742 1.350 . S
C1739 C1742 1.463 . S
C1739 C1744 1.350 . S
C1739 N1747 1.427 . S
C1740 H1731 0.930 . S
C1740 C1738 1.378 . S
C1740 C1741 1.367 . S
C1741 C1740 1.367 . S
C1741 C1743 1.433 . S
C1742 C1738 1.350 . S
C1742 C1739 1.463 . S
C1742 N1746 1.427 . S
C1743 H1733 0.929 . S
C1743 C1741 1.433 . S
C1743 N1746 1.384 . S
C1744 H1735 0.929 . S
C1744 C1736 1.378 . S
C1744 C1739 1.350 . S
C1745 H1732 0.929 . S
C1745 C1737 1.433 . S
C1745 N1747 1.384 . S
N1746 C1742 1.427 . S
N1746 C1743 1.384 . S
N1747 C1739 1.427 . S
N1747 C1745 1.384 . S
H1748 C1754 0.930 . S
H1749 C1758 0.930 . S
H1750 C1763 0.929 . S
H1751 C1761 0.929 . S
H1752 C1756 0.929 . S
H1753 C1762 0.929 . S
C1754 H1748 0.930 . S
C1754 C1755 1.367 . S
C1754 C1762 1.378 . S
C1755 C1754 1.367 . S
C1755 C1763 1.433 . S
C1756 H1752 0.929 . S
C1756 C1758 1.378 . S
C1756 C1760 1.350 . S
C1757 C1760 1.463 . S
C1757 C1762 1.350 . S
C1757 N1765 1.427 . S
C1758 H1749 0.930 . S
C1758 C1756 1.378 . S
C1758 C1759 1.367 . S
C1759 C1758 1.367 . S
C1759 C1761 1.433 . S
C1760 C1756 1.350 . S
C1760 C1757 1.463 . S
C1760 N1764 1.427 . S
C1761 H1751 0.929 . S
C1761 C1759 1.433 . S
C1761 N1764 1.384 . S
C1762 H1753 0.929 . S
C1762 C1754 1.378 . S
C1762 C1757 1.350 . S
C1763 H1750 0.929 . S
C1763 C1755 1.433 . S
C1763 N1765 1.384 . S
N1764 C1760 1.427 . S
N1764 C1761 1.384 . S
N1765 C1757 1.427 . S
N1765 C1763 1.384 . S
H1766 C1772 0.930 . S
H1767 C1776 0.930 . S
H1768 C1781 0.929 . S
H1769 C1779 0.929 . S
H1770 C1774 0.929 . S
H1771 C1780 0.929 . S
C1772 H1766 0.930 . S
C1772 C1773 1.367 . S
C1772 C1780 1.378 . S
C1773 C1772 1.367 . S
C1773 C1781 1.433 . S
C1774 H1770 0.929 . S
C1774 C1776 1.378 1_655 S
C1774 C1778 1.350 . S
C1775 C1778 1.463 . S
C1775 C1780 1.350 . S
C1775 N1783 1.427 . S
C1776 H1767 0.930 . S
C1776 C1774 1.378 1_455 S
C1776 C1777 1.367 . S
C1777 C1776 1.367 . S
C1777 C1779 1.433 . S
C1778 C1774 1.350 . S
C1778 C1775 1.463 . S
C1778 N1782 1.427 1_655 S
C1779 H1769 0.929 . S
C1779 C1777 1.433 . S
C1779 N1782 1.384 . S
C1780 H1771 0.929 . S
C1780 C1772 1.378 . S
C1780 C1775 1.350 . S
C1781 H1768 0.929 . S
C1781 C1773 1.433 . S
C1781 N1783 1.384 . S
N1782 C1778 1.427 1_455 S
N1782 C1779 1.384 . S
N1783 C1775 1.427 . S
N1783 C1781 1.384 . S
H1784 C1790 0.930 . S
H1785 C1794 0.930 . S
H1786 C1799 0.929 . S
H1787 C1797 0.929 . S
H1788 C1792 0.929 . S
H1789 C1798 0.929 . S
C1790 H1784 0.930 . S
C1790 C1791 1.367 . S
C1790 C1798 1.378 . S
C1791 C1790 1.367 . S
C1791 C1799 1.433 . S
C1792 H1788 0.929 . S
C1792 C1794 1.378 . S
C1792 C1796 1.350 . S
C1793 C1796 1.463 . S
C1793 C1798 1.350 . S
C1793 N1801 1.427 . S
C1794 H1785 0.930 . S
C1794 C1792 1.378 . S
C1794 C1795 1.367 . S
C1795 C1794 1.367 . S
C1795 C1797 1.433 . S
C1796 C1792 1.350 . S
C1796 C1793 1.463 . S
C1796 N1800 1.427 . S
C1797 H1787 0.929 . S
C1797 C1795 1.433 . S
C1797 N1800 1.384 . S
C1798 H1789 0.929 . S
C1798 C1790 1.378 . S
C1798 C1793 1.350 . S
C1799 H1786 0.929 . S
C1799 C1791 1.433 . S
C1799 N1801 1.384 . S
N1800 C1796 1.427 . S
N1800 C1797 1.384 . S
N1801 C1793 1.427 . S
N1801 C1799 1.384 . S
H1802 C1808 0.930 . S
H1803 C1812 0.930 . S
H1804 C1817 0.929 . S
H1805 C1815 0.929 . S
H1806 C1810 0.929 . S
H1807 C1816 0.929 . S
C1808 H1802 0.930 . S
C1808 C1809 1.367 . S
C1808 C1816 1.378 . S
C1809 C1808 1.367 . S
C1809 C1817 1.433 . S
C1810 H1806 0.929 . S
C1810 C1812 1.378 . S
C1810 C1814 1.350 . S
C1811 C1814 1.463 . S
C1811 C1816 1.350 . S
C1811 N1819 1.427 . S
C1812 H1803 0.930 . S
C1812 C1810 1.378 . S
C1812 C1813 1.367 1_655 S
C1813 C1812 1.367 1_455 S
C1813 C1815 1.433 . S
C1814 C1810 1.350 . S
C1814 C1811 1.463 . S
C1814 N1818 1.427 1_655 S
C1815 H1805 0.929 . S
C1815 C1813 1.433 . S
C1815 N1818 1.384 . S
C1816 H1807 0.929 . S
C1816 C1808 1.378 . S
C1816 C1811 1.350 . S
C1817 H1804 0.929 . S
C1817 C1809 1.433 . S
C1817 N1819 1.384 . S
N1818 C1814 1.427 1_455 S
N1818 C1815 1.384 . S
N1819 C1811 1.427 . S
N1819 C1817 1.384 . S
H1820 C1826 0.930 . S
H1821 C1830 0.930 . S
H1822 C1835 0.929 . S
H1823 C1833 0.929 . S
H1824 C1828 0.929 . S
H1825 C1834 0.929 . S
C1826 H1820 0.930 . S
C1826 C1827 1.367 . S
C1826 C1834 1.378 . S
C1827 C1826 1.367 . S
C1827 C1835 1.433 . S
C1828 H1824 0.929 . S
C1828 C1830 1.378 . S
C1828 C1832 1.350 . S
C1829 C1832 1.463 . S
C1829 C1834 1.350 . S
C1829 N1837 1.427 . S
C1830 H1821 0.930 . S
C1830 C1828 1.378 . S
C1830 C1831 1.367 . S
C1831 C1830 1.367 . S
C1831 C1833 1.433 . S
C1832 C1828 1.350 . S
C1832 C1829 1.463 . S
C1832 N1836 1.427 . S
C1833 H1823 0.929 . S
C1833 C1831 1.433 . S
C1833 N1836 1.384 . S
C1834 H1825 0.929 . S
C1834 C1826 1.378 . S
C1834 C1829 1.350 . S
C1835 H1822 0.929 . S
C1835 C1827 1.433 . S
C1835 N1837 1.384 . S
N1836 C1832 1.427 . S
N1836 C1833 1.384 . S
N1837 C1829 1.427 . S
N1837 C1835 1.384 . S
H1838 C1844 0.930 . S
H1839 C1848 0.930 . S
H1840 C1853 0.929 . S
H1841 C1851 0.929 . S
H1842 C1846 0.929 . S
H1843 C1852 0.929 . S
C1844 H1838 0.930 . S
C1844 C1845 1.367 . S
C1844 C1852 1.378 . S
C1845 C1844 1.367 . S
C1845 C1853 1.433 . S
C1846 H1842 0.929 . S
C1846 C1848 1.378 . S
C1846 C1850 1.350 . S
C1847 C1850 1.463 . S
C1847 C1852 1.350 . S
C1847 N1855 1.427 . S
C1848 H1839 0.930 . S
C1848 C1846 1.378 . S
C1848 C1849 1.367 . S
C1849 C1848 1.367 . S
C1849 C1851 1.433 . S
C1850 C1846 1.350 . S
C1850 C1847 1.463 . S
C1850 N1854 1.427 . S
C1851 H1841 0.929 . S
C1851 C1849 1.433 . S
C1851 N1854 1.384 . S
C1852 H1843 0.929 . S
C1852 C1844 1.378 . S
C1852 C1847 1.350 . S
C1853 H1840 0.929 . S
C1853 C1845 1.433 . S
C1853 N1855 1.384 . S
N1854 C1850 1.427 . S
N1854 C1851 1.384 . S
N1855 C1847 1.427 . S
N1855 C1853 1.384 . S
H1856 C1862 0.930 . S
H1857 C1866 0.930 . S
H1858 C1871 0.929 . S
H1859 C1869 0.929 . S
H1860 C1864 0.929 1_455 S
H1861 C1870 0.929 1_655 S
C1862 H1856 0.930 . S
C1862 C1863 1.367 . S
C1862 C1870 1.378 . S
C1863 C1862 1.367 . S
C1863 C1871 1.433 . S
C1864 H1860 0.929 1_655 S
C1864 C1866 1.378 . S
C1864 C1868 1.350 . S
C1865 C1868 1.463 1_455 S
C1865 C1870 1.350 . S
C1865 N1873 1.427 . S
C1866 H1857 0.930 . S
C1866 C1864 1.378 . S
C1866 C1867 1.367 . S
C1867 C1866 1.367 . S
C1867 C1869 1.433 . S
C1868 C1864 1.350 . S
C1868 C1865 1.463 1_655 S
C1868 N1872 1.427 . S
C1869 H1859 0.929 . S
C1869 C1867 1.433 . S
C1869 N1872 1.384 . S
C1870 H1861 0.929 1_455 S
C1870 C1862 1.378 . S
C1870 C1865 1.350 . S
C1871 H1858 0.929 . S
C1871 C1863 1.433 . S
C1871 N1873 1.384 . S
N1872 C1868 1.427 . S
N1872 C1869 1.384 . S
N1873 C1865 1.427 . S
N1873 C1871 1.384 . S
H1874 C1880 0.930 . S
H1875 C1884 0.930 . S
H1876 C1889 0.929 . S
H1877 C1887 0.929 . S
H1878 C1882 0.929 . S
H1879 C1888 0.929 . S
C1880 H1874 0.930 . S
C1880 C1881 1.367 . S
C1880 C1888 1.378 . S
C1881 C1880 1.367 . S
C1881 C1889 1.433 . S
C1882 H1878 0.929 . S
C1882 C1884 1.378 . S
C1882 C1886 1.350 . S
C1883 C1886 1.463 1_455 S
C1883 C1888 1.350 . S
C1883 N1891 1.427 . S
C1884 H1875 0.930 . S
C1884 C1882 1.378 . S
C1884 C1885 1.367 . S
C1885 C1884 1.367 . S
C1885 C1887 1.433 . S
C1886 C1882 1.350 . S
C1886 C1883 1.463 1_655 S
C1886 N1890 1.427 . S
C1887 H1877 0.929 . S
C1887 C1885 1.433 . S
C1887 N1890 1.384 . S
C1888 H1879 0.929 . S
C1888 C1880 1.378 . S
C1888 C1883 1.350 . S
C1889 H1876 0.929 . S
C1889 C1881 1.433 . S
C1889 N1891 1.384 . S
N1890 C1886 1.427 . S
N1890 C1887 1.384 . S
N1891 C1883 1.427 . S
N1891 C1889 1.384 . S
H1892 C1898 0.930 . S
H1893 C1902 0.930 . S
H1894 C1907 0.929 . S
H1895 C1905 0.929 . S
H1896 C1900 0.929 . S
H1897 C1906 0.929 . S
C1898 H1892 0.930 . S
C1898 C1899 1.367 . S
C1898 C1906 1.378 . S
C1899 C1898 1.367 . S
C1899 C1907 1.433 . S
C1900 H1896 0.929 . S
C1900 C1902 1.378 . S
C1900 C1904 1.350 . S
C1901 C1904 1.463 . S
C1901 C1906 1.350 . S
C1901 N1909 1.427 . S
C1902 H1893 0.930 . S
C1902 C1900 1.378 . S
C1902 C1903 1.367 . S
C1903 C1902 1.367 . S
C1903 C1905 1.433 . S
C1904 C1900 1.350 . S
C1904 C1901 1.463 . S
C1904 N1908 1.427 . S
C1905 H1895 0.929 . S
C1905 C1903 1.433 . S
C1905 N1908 1.384 . S
C1906 H1897 0.929 . S
C1906 C1898 1.378 . S
C1906 C1901 1.350 . S
C1907 H1894 0.929 . S
C1907 C1899 1.433 . S
C1907 N1909 1.384 . S
N1908 C1904 1.427 . S
N1908 C1905 1.384 . S
N1909 C1901 1.427 . S
N1909 C1907 1.384 . S
H1910 C1916 0.930 . S
H1911 C1920 0.930 . S
H1912 C1925 0.929 . S
H1913 C1923 0.929 . S
H1914 C1918 0.929 . S
H1915 C1924 0.929 . S
C1916 H1910 0.930 . S
C1916 C1917 1.367 . S
C1916 C1924 1.378 . S
C1917 C1916 1.367 . S
C1917 C1925 1.433 1_554 S
C1918 H1914 0.929 . S
C1918 C1920 1.378 . S
C1918 C1922 1.350 1_556 S
C1919 C1922 1.463 . S
C1919 C1924 1.350 . S
C1919 N1927 1.427 1_554 S
C1920 H1911 0.930 . S
C1920 C1918 1.378 . S
C1920 C1921 1.367 1_556 S
C1921 C1920 1.367 1_554 S
C1921 C1923 1.433 . S
C1922 C1918 1.350 1_554 S
C1922 C1919 1.463 . S
C1922 N1926 1.427 . S
C1923 H1913 0.929 . S
C1923 C1921 1.433 . S
C1923 N1926 1.384 . S
C1924 H1915 0.929 . S
C1924 C1916 1.378 . S
C1924 C1919 1.350 . S
C1925 H1912 0.929 . S
C1925 C1917 1.433 1_556 S
C1925 N1927 1.384 . S
N1926 C1922 1.427 . S
N1926 C1923 1.384 . S
N1927 C1919 1.427 1_556 S
N1927 C1925 1.384 . S
H1928 C1934 0.930 . S
H1929 C1938 0.930 . S
H1930 C1943 0.929 . S
H1931 C1941 0.929 . S
H1932 C1936 0.929 . S
H1933 C1942 0.929 . S
C1934 H1928 0.930 . S
C1934 C1935 1.367 . S
C1934 C1942 1.378 . S
C1935 C1934 1.367 . S
C1935 C1943 1.433 . S
C1936 H1932 0.929 . S
C1936 C1938 1.378 . S
C1936 C1940 1.350 . S
C1937 C1940 1.463 1_655 S
C1937 C1942 1.350 . S
C1937 N1945 1.427 . S
C1938 H1929 0.930 . S
C1938 C1936 1.378 . S
C1938 C1939 1.367 . S
C1939 C1938 1.367 . S
C1939 C1941 1.433 . S
C1940 C1936 1.350 . S
C1940 C1937 1.463 1_455 S
C1940 N1944 1.427 . S
C1941 H1931 0.929 . S
C1941 C1939 1.433 . S
C1941 N1944 1.384 . S
C1942 H1933 0.929 . S
C1942 C1934 1.378 . S
C1942 C1937 1.350 . S
C1943 H1930 0.929 . S
C1943 C1935 1.433 . S
C1943 N1945 1.384 . S
N1944 C1940 1.427 . S
N1944 C1941 1.384 . S
N1945 C1937 1.427 . S
N1945 C1943 1.384 . S
H1946 C1952 0.930 . S
H1947 C1956 0.930 . S
H1948 C1961 0.929 . S
H1949 C1959 0.929 . S
H1950 C1954 0.929 . S
H1951 C1960 0.929 . S
C1952 H1946 0.930 . S
C1952 C1953 1.367 . S
C1952 C1960 1.378 . S
C1953 C1952 1.367 . S
C1953 C1961 1.433 . S
C1954 H1950 0.929 . S
C1954 C1956 1.378 . S
C1954 C1958 1.350 . S
C1955 C1958 1.463 . S
C1955 C1960 1.350 . S
C1955 N1963 1.427 . S
C1956 H1947 0.930 . S
C1956 C1954 1.378 . S
C1956 C1957 1.367 . S
C1957 C1956 1.367 . S
C1957 C1959 1.433 . S
C1958 C1954 1.350 . S
C1958 C1955 1.463 . S
C1958 N1962 1.427 . S
C1959 H1949 0.929 . S
C1959 C1957 1.433 . S
C1959 N1962 1.384 . S
C1960 H1951 0.929 . S
C1960 C1952 1.378 . S
C1960 C1955 1.350 . S
C1961 H1948 0.929 . S
C1961 C1953 1.433 . S
C1961 N1963 1.384 . S
N1962 C1958 1.427 . S
N1962 C1959 1.384 . S
N1963 C1955 1.427 . S
N1963 C1961 1.384 . S
H1964 C1970 0.930 . S
H1965 C1974 0.930 . S
H1966 C1979 0.929 . S
H1967 C1977 0.929 . S
H1968 C1972 0.929 . S
H1969 C1978 0.929 . S
C1970 H1964 0.930 . S
C1970 C1971 1.367 . S
C1970 C1978 1.378 . S
C1971 C1970 1.367 . S
C1971 C1979 1.433 . S
C1972 H1968 0.929 . S
C1972 C1974 1.378 . S
C1972 C1976 1.350 . S
C1973 C1976 1.463 . S
C1973 C1978 1.350 . S
C1973 N1981 1.427 . S
C1974 H1965 0.930 . S
C1974 C1972 1.378 . S
C1974 C1975 1.367 . S
C1975 C1974 1.367 . S
C1975 C1977 1.433 . S
C1976 C1972 1.350 . S
C1976 C1973 1.463 . S
C1976 N1980 1.427 . S
C1977 H1967 0.929 . S
C1977 C1975 1.433 . S
C1977 N1980 1.384 . S
C1978 H1969 0.929 . S
C1978 C1970 1.378 . S
C1978 C1973 1.350 . S
C1979 H1966 0.929 . S
C1979 C1971 1.433 . S
C1979 N1981 1.384 . S
N1980 C1976 1.427 . S
N1980 C1977 1.384 . S
N1981 C1973 1.427 . S
N1981 C1979 1.384 . S
H1982 C1988 0.930 . S
H1983 C1992 0.930 . S
H1984 C1997 0.929 . S
H1985 C1995 0.929 . S
H1986 C1990 0.929 . S
H1987 C1996 0.929 . S
C1988 H1982 0.930 . S
C1988 C1989 1.367 . S
C1988 C1996 1.378 . S
C1989 C1988 1.367 . S
C1989 C1997 1.433 1_556 S
C1990 H1986 0.929 . S
C1990 C1992 1.378 . S
C1990 C1994 1.350 1_554 S
C1991 C1994 1.463 1_655 S
C1991 C1996 1.350 . S
C1991 N1999 1.427 1_556 S
C1992 H1983 0.930 . S
C1992 C1990 1.378 . S
C1992 C1993 1.367 1_554 S
C1993 C1992 1.367 1_556 S
C1993 C1995 1.433 . S
C1994 C1990 1.350 1_556 S
C1994 C1991 1.463 1_455 S
C1994 N1998 1.427 . S
C1995 H1985 0.929 . S
C1995 C1993 1.433 . S
C1995 N1998 1.384 . S
C1996 H1987 0.929 . S
C1996 C1988 1.378 . S
C1996 C1991 1.350 . S
C1997 H1984 0.929 . S
C1997 C1989 1.433 1_554 S
C1997 N1999 1.384 . S
N1998 C1994 1.427 . S
N1998 C1995 1.384 . S
N1999 C1991 1.427 1_554 S
N1999 C1997 1.384 . S
H2000 C2006 0.930 . S
H2001 C2010 0.930 . S
H2002 C2015 0.929 . S
H2003 C2013 0.929 . S
H2004 C2008 0.929 . S
H2005 C2014 0.929 . S
C2006 H2000 0.930 . S
C2006 C2007 1.367 . S
C2006 C2014 1.378 . S
C2007 C2006 1.367 . S
C2007 C2015 1.433 . S
C2008 H2004 0.929 . S
C2008 C2010 1.378 . S
C2008 C2012 1.350 . S
C2009 C2012 1.463 1_455 S
C2009 C2014 1.350 . S
C2009 N2017 1.427 . S
C2010 H2001 0.930 . S
C2010 C2008 1.378 . S
C2010 C2011 1.367 . S
C2011 C2010 1.367 . S
C2011 C2013 1.433 . S
C2012 C2008 1.350 . S
C2012 C2009 1.463 1_655 S
C2012 N2016 1.427 . S
C2013 H2003 0.929 . S
C2013 C2011 1.433 . S
C2013 N2016 1.384 . S
C2014 H2005 0.929 . S
C2014 C2006 1.378 . S
C2014 C2009 1.350 . S
C2015 H2002 0.929 . S
C2015 C2007 1.433 . S
C2015 N2017 1.384 . S
N2016 C2012 1.427 . S
N2016 C2013 1.384 . S
N2017 C2009 1.427 . S
N2017 C2015 1.384 . S
H2018 C2024 0.930 . S
H2019 C2028 0.930 . S
H2020 C2033 0.929 . S
H2021 C2031 0.929 . S
H2022 C2026 0.929 1_455 S
H2023 C2032 0.929 1_655 S
C2024 H2018 0.930 . S
C2024 C2025 1.367 . S
C2024 C2032 1.378 . S
C2025 C2024 1.367 . S
C2025 C2033 1.433 . S
C2026 H2022 0.929 1_655 S
C2026 C2028 1.378 . S
C2026 C2030 1.350 . S
C2027 C2030 1.463 1_455 S
C2027 C2032 1.350 . S
C2027 N2035 1.427 . S
C2028 H2019 0.930 . S
C2028 C2026 1.378 . S
C2028 C2029 1.367 . S
C2029 C2028 1.367 . S
C2029 C2031 1.433 . S
C2030 C2026 1.350 . S
C2030 C2027 1.463 1_655 S
C2030 N2034 1.427 . S
C2031 H2021 0.929 . S
C2031 C2029 1.433 . S
C2031 N2034 1.384 . S
C2032 H2023 0.929 1_455 S
C2032 C2024 1.378 . S
C2032 C2027 1.350 . S
C2033 H2020 0.929 . S
C2033 C2025 1.433 . S
C2033 N2035 1.384 . S
N2034 C2030 1.427 . S
N2034 C2031 1.384 . S
N2035 C2027 1.427 . S
N2035 C2033 1.384 . S
H2036 C2042 0.930 . S
H2037 C2046 0.930 . S
H2038 C2051 0.929 . S
H2039 C2049 0.929 . S
H2040 C2044 0.929 . S
H2041 C2050 0.929 . S
C2042 H2036 0.930 . S
C2042 C2043 1.367 . S
C2042 C2050 1.378 . S
C2043 C2042 1.367 . S
C2043 C2051 1.433 . S
C2044 H2040 0.929 . S
C2044 C2046 1.378 . S
C2044 C2048 1.350 . S
C2045 C2048 1.463 . S
C2045 C2050 1.350 . S
C2045 N2053 1.427 . S
C2046 H2037 0.930 . S
C2046 C2044 1.378 . S
C2046 C2047 1.367 . S
C2047 C2046 1.367 . S
C2047 C2049 1.433 . S
C2048 C2044 1.350 . S
C2048 C2045 1.463 . S
C2048 N2052 1.427 . S
C2049 H2039 0.929 . S
C2049 C2047 1.433 . S
C2049 N2052 1.384 . S
C2050 H2041 0.929 . S
C2050 C2042 1.378 . S
C2050 C2045 1.350 . S
C2051 H2038 0.929 . S
C2051 C2043 1.433 . S
C2051 N2053 1.384 . S
N2052 C2048 1.427 . S
N2052 C2049 1.384 . S
N2053 C2045 1.427 . S
N2053 C2051 1.384 . S
H2054 C2060 0.930 . S
H2055 C2064 0.930 . S
H2056 C2069 0.929 . S
H2057 C2067 0.929 . S
H2058 C2062 0.929 . S
H2059 C2068 0.929 . S
C2060 H2054 0.930 . S
C2060 C2061 1.367 . S
C2060 C2068 1.378 . S
C2061 C2060 1.367 . S
C2061 C2069 1.433 1_556 S
C2062 H2058 0.929 . S
C2062 C2064 1.378 . S
C2062 C2066 1.350 1_554 S
C2063 C2066 1.463 . S
C2063 C2068 1.350 . S
C2063 N2071 1.427 1_556 S
C2064 H2055 0.930 . S
C2064 C2062 1.378 . S
C2064 C2065 1.367 1_554 S
C2065 C2064 1.367 1_556 S
C2065 C2067 1.433 . S
C2066 C2062 1.350 1_556 S
C2066 C2063 1.463 . S
C2066 N2070 1.427 . S
C2067 H2057 0.929 . S
C2067 C2065 1.433 . S
C2067 N2070 1.384 . S
C2068 H2059 0.929 . S
C2068 C2060 1.378 . S
C2068 C2063 1.350 . S
C2069 H2056 0.929 . S
C2069 C2061 1.433 1_554 S
C2069 N2071 1.384 . S
N2070 C2066 1.427 . S
N2070 C2067 1.384 . S
N2071 C2063 1.427 1_554 S
N2071 C2069 1.384 . S
H2072 C2078 0.930 . S
H2073 C2082 0.930 . S
H2074 C2087 0.929 . S
H2075 C2085 0.929 . S
H2076 C2080 0.929 1_655 S
H2077 C2086 0.929 1_455 S
C2078 H2072 0.930 . S
C2078 C2079 1.367 . S
C2078 C2086 1.378 . S
C2079 C2078 1.367 . S
C2079 C2087 1.433 . S
C2080 H2076 0.929 1_455 S
C2080 C2082 1.378 . S
C2080 C2084 1.350 . S
C2081 C2084 1.463 1_655 S
C2081 C2086 1.350 . S
C2081 N2089 1.427 . S
C2082 H2073 0.930 . S
C2082 C2080 1.378 . S
C2082 C2083 1.367 . S
C2083 C2082 1.367 . S
C2083 C2085 1.433 . S
C2084 C2080 1.350 . S
C2084 C2081 1.463 1_455 S
C2084 N2088 1.427 . S
C2085 H2075 0.929 . S
C2085 C2083 1.433 . S
C2085 N2088 1.384 . S
C2086 H2077 0.929 1_655 S
C2086 C2078 1.378 . S
C2086 C2081 1.350 . S
C2087 H2074 0.929 . S
C2087 C2079 1.433 . S
C2087 N2089 1.384 . S
N2088 C2084 1.427 . S
N2088 C2085 1.384 . S
N2089 C2081 1.427 . S
N2089 C2087 1.384 . S
H2090 C2096 0.930 . S
H2091 C2100 0.930 . S
H2092 C2105 0.929 . S
H2093 C2103 0.929 . S
H2094 C2098 0.929 . S
H2095 C2104 0.929 . S
C2096 H2090 0.930 . S
C2096 C2097 1.367 . S
C2096 C2104 1.378 . S
C2097 C2096 1.367 . S
C2097 C2105 1.433 . S
C2098 H2094 0.929 . S
C2098 C2100 1.378 . S
C2098 C2102 1.350 . S
C2099 C2102 1.463 . S
C2099 C2104 1.350 . S
C2099 N2107 1.427 . S
C2100 H2091 0.930 . S
C2100 C2098 1.378 . S
C2100 C2101 1.367 . S
C2101 C2100 1.367 . S
C2101 C2103 1.433 . S
C2102 C2098 1.350 . S
C2102 C2099 1.463 . S
C2102 N2106 1.427 . S
C2103 H2093 0.929 . S
C2103 C2101 1.433 . S
C2103 N2106 1.384 . S
C2104 H2095 0.929 . S
C2104 C2096 1.378 . S
C2104 C2099 1.350 . S
C2105 H2092 0.929 . S
C2105 C2097 1.433 . S
C2105 N2107 1.384 . S
N2106 C2102 1.427 . S
N2106 C2103 1.384 . S
N2107 C2099 1.427 . S
N2107 C2105 1.384 . S
H2108 C2114 0.930 . S
H2109 C2118 0.930 . S
H2110 C2123 0.929 . S
H2111 C2121 0.929 . S
H2112 C2116 0.929 . S
H2113 C2122 0.929 . S
C2114 H2108 0.930 . S
C2114 C2115 1.367 . S
C2114 C2122 1.378 . S
C2115 C2114 1.367 . S
C2115 C2123 1.433 . S
C2116 H2112 0.929 . S
C2116 C2118 1.378 . S
C2116 C2120 1.350 . S
C2117 C2120 1.463 . S
C2117 C2122 1.350 . S
C2117 N2125 1.427 . S
C2118 H2109 0.930 . S
C2118 C2116 1.378 . S
C2118 C2119 1.367 . S
C2119 C2118 1.367 . S
C2119 C2121 1.433 . S
C2120 C2116 1.350 . S
C2120 C2117 1.463 . S
C2120 N2124 1.427 . S
C2121 H2111 0.929 . S
C2121 C2119 1.433 . S
C2121 N2124 1.384 . S
C2122 H2113 0.929 . S
C2122 C2114 1.378 . S
C2122 C2117 1.350 . S
C2123 H2110 0.929 . S
C2123 C2115 1.433 . S
C2123 N2125 1.384 . S
N2124 C2120 1.427 . S
N2124 C2121 1.384 . S
N2125 C2117 1.427 . S
N2125 C2123 1.384 . S
H2126 C2132 0.930 . S
H2127 C2136 0.930 . S
H2128 C2141 0.929 . S
H2129 C2139 0.929 . S
H2130 C2134 0.929 . S
H2131 C2140 0.929 . S
C2132 H2126 0.930 . S
C2132 C2133 1.367 1_556 S
C2132 C2140 1.378 . S
C2133 C2132 1.367 1_554 S
C2133 C2141 1.433 . S
C2134 H2130 0.929 . S
C2134 C2136 1.378 . S
C2134 C2138 1.350 . S
C2135 C2138 1.463 1_655 S
C2135 C2140 1.350 1_554 S
C2135 N2143 1.427 . S
C2136 H2127 0.930 . S
C2136 C2134 1.378 . S
C2136 C2137 1.367 . S
C2137 C2136 1.367 . S
C2137 C2139 1.433 1_554 S
C2138 C2134 1.350 . S
C2138 C2135 1.463 1_455 S
C2138 N2142 1.427 1_554 S
C2139 H2129 0.929 . S
C2139 C2137 1.433 1_556 S
C2139 N2142 1.384 . S
C2140 H2131 0.929 . S
C2140 C2132 1.378 . S
C2140 C2135 1.350 1_556 S
C2141 H2128 0.929 . S
C2141 C2133 1.433 . S
C2141 N2143 1.384 . S
N2142 C2138 1.427 1_556 S
N2142 C2139 1.384 . S
N2143 C2135 1.427 . S
N2143 C2141 1.384 . S
H2144 C2150 0.930 . S
H2145 C2154 0.930 . S
H2146 C2159 0.929 . S
H2147 C2157 0.929 . S
H2148 C2152 0.929 . S
H2149 C2158 0.929 . S
C2150 H2144 0.930 . S
C2150 C2151 1.367 . S
C2150 C2158 1.378 . S
C2151 C2150 1.367 . S
C2151 C2159 1.433 . S
C2152 H2148 0.929 . S
C2152 C2154 1.378 . S
C2152 C2156 1.350 . S
C2153 C2156 1.463 . S
C2153 C2158 1.350 . S
C2153 N2161 1.427 . S
C2154 H2145 0.930 . S
C2154 C2152 1.378 . S
C2154 C2155 1.367 . S
C2155 C2154 1.367 . S
C2155 C2157 1.433 . S
C2156 C2152 1.350 . S
C2156 C2153 1.463 . S
C2156 N2160 1.427 . S
C2157 H2147 0.929 . S
C2157 C2155 1.433 . S
C2157 N2160 1.384 . S
C2158 H2149 0.929 . S
C2158 C2150 1.378 . S
C2158 C2153 1.350 . S
C2159 H2146 0.929 . S
C2159 C2151 1.433 . S
C2159 N2161 1.384 . S
N2160 C2156 1.427 . S
N2160 C2157 1.384 . S
N2161 C2153 1.427 . S
N2161 C2159 1.384 . S
H2162 C2168 0.930 . S
H2163 C2172 0.930 . S
H2164 C2177 0.929 . S
H2165 C2175 0.929 . S
H2166 C2170 0.929 . S
H2167 C2176 0.929 . S
C2168 H2162 0.930 . S
C2168 C2169 1.367 . S
C2168 C2176 1.378 . S
C2169 C2168 1.367 . S
C2169 C2177 1.433 . S
C2170 H2166 0.929 . S
C2170 C2172 1.378 . S
C2170 C2174 1.350 . S
C2171 C2174 1.463 . S
C2171 C2176 1.350 . S
C2171 N2179 1.427 . S
C2172 H2163 0.930 . S
C2172 C2170 1.378 . S
C2172 C2173 1.367 . S
C2173 C2172 1.367 . S
C2173 C2175 1.433 . S
C2174 C2170 1.350 . S
C2174 C2171 1.463 . S
C2174 N2178 1.427 . S
C2175 H2165 0.929 . S
C2175 C2173 1.433 . S
C2175 N2178 1.384 . S
C2176 H2167 0.929 . S
C2176 C2168 1.378 . S
C2176 C2171 1.350 . S
C2177 H2164 0.929 . S
C2177 C2169 1.433 . S
C2177 N2179 1.384 . S
N2178 C2174 1.427 . S
N2178 C2175 1.384 . S
N2179 C2171 1.427 . S
N2179 C2177 1.384 . S
H2180 C2186 0.930 . S
H2181 C2190 0.930 . S
H2182 C2195 0.929 . S
H2183 C2193 0.929 . S
H2184 C2188 0.929 . S
H2185 C2194 0.929 . S
C2186 H2180 0.930 . S
C2186 C2187 1.367 . S
C2186 C2194 1.378 . S
C2187 C2186 1.367 . S
C2187 C2195 1.433 . S
C2188 H2184 0.929 . S
C2188 C2190 1.378 . S
C2188 C2192 1.350 . S
C2189 C2192 1.463 . S
C2189 C2194 1.350 . S
C2189 N2197 1.427 . S
C2190 H2181 0.930 . S
C2190 C2188 1.378 . S
C2190 C2191 1.367 . S
C2191 C2190 1.367 . S
C2191 C2193 1.433 . S
C2192 C2188 1.350 . S
C2192 C2189 1.463 . S
C2192 N2196 1.427 . S
C2193 H2183 0.929 . S
C2193 C2191 1.433 . S
C2193 N2196 1.384 . S
C2194 H2185 0.929 . S
C2194 C2186 1.378 . S
C2194 C2189 1.350 . S
C2195 H2182 0.929 . S
C2195 C2187 1.433 . S
C2195 N2197 1.384 . S
N2196 C2192 1.427 . S
N2196 C2193 1.384 . S
N2197 C2189 1.427 . S
N2197 C2195 1.384 . S
H2198 C2204 0.930 . S
H2199 C2208 0.930 . S
H2200 C2213 0.929 . S
H2201 C2211 0.929 . S
H2202 C2206 0.929 . S
H2203 C2212 0.929 . S
C2204 H2198 0.930 . S
C2204 C2205 1.367 . S
C2204 C2212 1.378 . S
C2205 C2204 1.367 . S
C2205 C2213 1.433 . S
C2206 H2202 0.929 . S
C2206 C2208 1.378 . S
C2206 C2210 1.350 . S
C2207 C2210 1.463 . S
C2207 C2212 1.350 . S
C2207 N2215 1.427 . S
C2208 H2199 0.930 . S
C2208 C2206 1.378 . S
C2208 C2209 1.367 . S
C2209 C2208 1.367 . S
C2209 C2211 1.433 . S
C2210 C2206 1.350 . S
C2210 C2207 1.463 . S
C2210 N2214 1.427 . S
C2211 H2201 0.929 . S
C2211 C2209 1.433 . S
C2211 N2214 1.384 . S
C2212 H2203 0.929 . S
C2212 C2204 1.378 . S
C2212 C2207 1.350 . S
C2213 H2200 0.929 . S
C2213 C2205 1.433 . S
C2213 N2215 1.384 . S
N2214 C2210 1.427 . S
N2214 C2211 1.384 . S
N2215 C2207 1.427 . S
N2215 C2213 1.384 . S
H2216 C2222 0.930 . S
H2217 C2226 0.930 . S
H2218 C2231 0.929 . S
H2219 C2229 0.929 . S
H2220 C2224 0.929 . S
H2221 C2230 0.929 . S
C2222 H2216 0.930 . S
C2222 C2223 1.367 . S
C2222 C2230 1.378 . S
C2223 C2222 1.367 . S
C2223 C2231 1.433 . S
C2224 H2220 0.929 . S
C2224 C2226 1.378 . S
C2224 C2228 1.350 . S
C2225 C2228 1.463 . S
C2225 C2230 1.350 . S
C2225 N2233 1.427 . S
C2226 H2217 0.930 . S
C2226 C2224 1.378 . S
C2226 C2227 1.367 . S
C2227 C2226 1.367 . S
C2227 C2229 1.433 . S
C2228 C2224 1.350 . S
C2228 C2225 1.463 . S
C2228 N2232 1.427 . S
C2229 H2219 0.929 . S
C2229 C2227 1.433 . S
C2229 N2232 1.384 . S
C2230 H2221 0.929 . S
C2230 C2222 1.378 . S
C2230 C2225 1.350 . S
C2231 H2218 0.929 . S
C2231 C2223 1.433 . S
C2231 N2233 1.384 . S
N2232 C2228 1.427 . S
N2232 C2229 1.384 . S
N2233 C2225 1.427 . S
N2233 C2231 1.384 . S
H2234 C2240 0.930 . S
H2235 C2244 0.930 . S
H2236 C2249 0.929 . S
H2237 C2247 0.929 . S
H2238 C2242 0.929 . S
H2239 C2248 0.929 . S
C2240 H2234 0.930 . S
C2240 C2241 1.367 . S
C2240 C2248 1.378 . S
C2241 C2240 1.367 . S
C2241 C2249 1.433 . S
C2242 H2238 0.929 . S
C2242 C2244 1.378 . S
C2242 C2246 1.350 . S
C2243 C2246 1.463 . S
C2243 C2248 1.350 . S
C2243 N2251 1.427 . S
C2244 H2235 0.930 . S
C2244 C2242 1.378 . S
C2244 C2245 1.367 . S
C2245 C2244 1.367 . S
C2245 C2247 1.433 . S
C2246 C2242 1.350 . S
C2246 C2243 1.463 . S
C2246 N2250 1.427 . S
C2247 H2237 0.929 . S
C2247 C2245 1.433 . S
C2247 N2250 1.384 . S
C2248 H2239 0.929 . S
C2248 C2240 1.378 . S
C2248 C2243 1.350 . S
C2249 H2236 0.929 . S
C2249 C2241 1.433 . S
C2249 N2251 1.384 . S
N2250 C2246 1.427 . S
N2250 C2247 1.384 . S
N2251 C2243 1.427 . S
N2251 C2249 1.384 . S
H2252 C2258 0.930 . S
H2253 C2262 0.930 . S
H2254 C2267 0.929 . S
H2255 C2265 0.929 . S
H2256 C2260 0.929 . S
H2257 C2266 0.929 . S
C2258 H2252 0.930 . S
C2258 C2259 1.367 . S
C2258 C2266 1.378 . S
C2259 C2258 1.367 . S
C2259 C2267 1.433 . S
C2260 H2256 0.929 . S
C2260 C2262 1.378 . S
C2260 C2264 1.350 . S
C2261 C2264 1.463 . S
C2261 C2266 1.350 . S
C2261 N2269 1.427 . S
C2262 H2253 0.930 . S
C2262 C2260 1.378 . S
C2262 C2263 1.367 . S
C2263 C2262 1.367 . S
C2263 C2265 1.433 . S
C2264 C2260 1.350 . S
C2264 C2261 1.463 . S
C2264 N2268 1.427 . S
C2265 H2255 0.929 . S
C2265 C2263 1.433 . S
C2265 N2268 1.384 . S
C2266 H2257 0.929 . S
C2266 C2258 1.378 . S
C2266 C2261 1.350 . S
C2267 H2254 0.929 . S
C2267 C2259 1.433 . S
C2267 N2269 1.384 . S
N2268 C2264 1.427 . S
N2268 C2265 1.384 . S
N2269 C2261 1.427 . S
N2269 C2267 1.384 . S
H2270 C2276 0.930 . S
H2271 C2280 0.930 . S
H2272 C2285 0.929 . S
H2273 C2283 0.929 . S
H2274 C2278 0.929 . S
H2275 C2284 0.929 . S
C2276 H2270 0.930 . S
C2276 C2277 1.367 . S
C2276 C2284 1.378 . S
C2277 C2276 1.367 . S
C2277 C2285 1.433 . S
C2278 H2274 0.929 . S
C2278 C2280 1.378 . S
C2278 C2282 1.350 . S
C2279 C2282 1.463 . S
C2279 C2284 1.350 . S
C2279 N2287 1.427 . S
C2280 H2271 0.930 . S
C2280 C2278 1.378 . S
C2280 C2281 1.367 . S
C2281 C2280 1.367 . S
C2281 C2283 1.433 . S
C2282 C2278 1.350 . S
C2282 C2279 1.463 . S
C2282 N2286 1.427 . S
C2283 H2273 0.929 . S
C2283 C2281 1.433 . S
C2283 N2286 1.384 . S
C2284 H2275 0.929 . S
C2284 C2276 1.378 . S
C2284 C2279 1.350 . S
C2285 H2272 0.929 . S
C2285 C2277 1.433 . S
C2285 N2287 1.384 . S
N2286 C2282 1.427 . S
N2286 C2283 1.384 . S
N2287 C2279 1.427 . S
N2287 C2285 1.384 . S
H2288 C2294 0.930 . S
H2289 C2298 0.930 . S
H2290 C2303 0.929 . S
H2291 C2301 0.929 . S
H2292 C2296 0.929 . S
H2293 C2302 0.929 . S
C2294 H2288 0.930 . S
C2294 C2295 1.367 . S
C2294 C2302 1.378 . S
C2295 C2294 1.367 . S
C2295 C2303 1.433 . S
C2296 H2292 0.929 . S
C2296 C2298 1.378 . S
C2296 C2300 1.350 . S
C2297 C2300 1.463 . S
C2297 C2302 1.350 . S
C2297 N2305 1.427 . S
C2298 H2289 0.930 . S
C2298 C2296 1.378 . S
C2298 C2299 1.367 . S
C2299 C2298 1.367 . S
C2299 C2301 1.433 . S
C2300 C2296 1.350 . S
C2300 C2297 1.463 . S
C2300 N2304 1.427 . S
C2301 H2291 0.929 . S
C2301 C2299 1.433 . S
C2301 N2304 1.384 . S
C2302 H2293 0.929 . S
C2302 C2294 1.378 . S
C2302 C2297 1.350 . S
C2303 H2290 0.929 . S
C2303 C2295 1.433 . S
C2303 N2305 1.384 . S
N2304 C2300 1.427 . S
N2304 C2301 1.384 . S
N2305 C2297 1.427 . S
N2305 C2303 1.384 . S
H2306 C2312 0.930 . S
H2307 C2316 0.930 . S
H2308 C2321 0.929 . S
H2309 C2319 0.929 . S
H2310 C2314 0.929 . S
H2311 C2320 0.929 . S
C2312 H2306 0.930 . S
C2312 C2313 1.367 . S
C2312 C2320 1.378 . S
C2313 C2312 1.367 . S
C2313 C2321 1.433 . S
C2314 H2310 0.929 . S
C2314 C2316 1.378 . S
C2314 C2318 1.350 . S
C2315 C2318 1.463 . S
C2315 C2320 1.350 . S
C2315 N2323 1.427 . S
C2316 H2307 0.930 . S
C2316 C2314 1.378 . S
C2316 C2317 1.367 . S
C2317 C2316 1.367 . S
C2317 C2319 1.433 . S
C2318 C2314 1.350 . S
C2318 C2315 1.463 . S
C2318 N2322 1.427 . S
C2319 H2309 0.929 . S
C2319 C2317 1.433 . S
C2319 N2322 1.384 . S
C2320 H2311 0.929 . S
C2320 C2312 1.378 . S
C2320 C2315 1.350 . S
C2321 H2308 0.929 . S
C2321 C2313 1.433 . S
C2321 N2323 1.384 . S
N2322 C2318 1.427 . S
N2322 C2319 1.384 . S
N2323 C2315 1.427 . S
N2323 C2321 1.384 . S
H2324 C2330 0.930 . S
H2325 C2334 0.930 . S
H2326 C2339 0.929 . S
H2327 C2337 0.929 . S
H2328 C2332 0.929 . S
H2329 C2338 0.929 . S
C2330 H2324 0.930 . S
C2330 C2331 1.367 . S
C2330 C2338 1.378 . S
C2331 C2330 1.367 . S
C2331 C2339 1.433 . S
C2332 H2328 0.929 . S
C2332 C2334 1.378 . S
C2332 C2336 1.350 . S
C2333 C2336 1.463 . S
C2333 C2338 1.350 . S
C2333 N2341 1.427 . S
C2334 H2325 0.930 . S
C2334 C2332 1.378 . S
C2334 C2335 1.367 . S
C2335 C2334 1.367 . S
C2335 C2337 1.433 . S
C2336 C2332 1.350 . S
C2336 C2333 1.463 . S
C2336 N2340 1.427 . S
C2337 H2327 0.929 . S
C2337 C2335 1.433 . S
C2337 N2340 1.384 . S
C2338 H2329 0.929 . S
C2338 C2330 1.378 . S
C2338 C2333 1.350 . S
C2339 H2326 0.929 . S
C2339 C2331 1.433 . S
C2339 N2341 1.384 . S
N2340 C2336 1.427 . S
N2340 C2337 1.384 . S
N2341 C2333 1.427 . S
N2341 C2339 1.384 . S
H2342 C2348 0.930 . S
H2343 C2352 0.930 . S
H2344 C2357 0.929 . S
H2345 C2355 0.929 . S
H2346 C2350 0.929 . S
H2347 C2356 0.929 . S
C2348 H2342 0.930 . S
C2348 C2349 1.367 . S
C2348 C2356 1.378 . S
C2349 C2348 1.367 . S
C2349 C2357 1.433 . S
C2350 H2346 0.929 . S
C2350 C2352 1.378 . S
C2350 C2354 1.350 . S
C2351 C2354 1.463 . S
C2351 C2356 1.350 . S
C2351 N2359 1.427 . S
C2352 H2343 0.930 . S
C2352 C2350 1.378 . S
C2352 C2353 1.367 . S
C2353 C2352 1.367 . S
C2353 C2355 1.433 . S
C2354 C2350 1.350 . S
C2354 C2351 1.463 . S
C2354 N2358 1.427 . S
C2355 H2345 0.929 . S
C2355 C2353 1.433 . S
C2355 N2358 1.384 . S
C2356 H2347 0.929 . S
C2356 C2348 1.378 . S
C2356 C2351 1.350 . S
C2357 H2344 0.929 . S
C2357 C2349 1.433 . S
C2357 N2359 1.384 . S
N2358 C2354 1.427 . S
N2358 C2355 1.384 . S
N2359 C2351 1.427 . S
N2359 C2357 1.384 . S
H2360 C2366 0.930 . S
H2361 C2370 0.930 . S
H2362 C2375 0.929 . S
H2363 C2373 0.929 . S
H2364 C2368 0.929 . S
H2365 C2374 0.929 . S
C2366 H2360 0.930 . S
C2366 C2367 1.367 . S
C2366 C2374 1.378 . S
C2367 C2366 1.367 . S
C2367 C2375 1.433 . S
C2368 H2364 0.929 . S
C2368 C2370 1.378 . S
C2368 C2372 1.350 . S
C2369 C2372 1.463 . S
C2369 C2374 1.350 . S
C2369 N2377 1.427 . S
C2370 H2361 0.930 . S
C2370 C2368 1.378 . S
C2370 C2371 1.367 . S
C2371 C2370 1.367 . S
C2371 C2373 1.433 . S
C2372 C2368 1.350 . S
C2372 C2369 1.463 . S
C2372 N2376 1.427 . S
C2373 H2363 0.929 . S
C2373 C2371 1.433 . S
C2373 N2376 1.384 . S
C2374 H2365 0.929 . S
C2374 C2366 1.378 . S
C2374 C2369 1.350 . S
C2375 H2362 0.929 . S
C2375 C2367 1.433 . S
C2375 N2377 1.384 . S
N2376 C2372 1.427 . S
N2376 C2373 1.384 . S
N2377 C2369 1.427 . S
N2377 C2375 1.384 . S
H2378 C2384 0.930 . S
H2379 C2388 0.930 . S
H2380 C2393 0.929 . S
H2381 C2391 0.929 . S
H2382 C2386 0.929 . S
H2383 C2392 0.929 . S
C2384 H2378 0.930 . S
C2384 C2385 1.367 . S
C2384 C2392 1.378 . S
C2385 C2384 1.367 . S
C2385 C2393 1.433 . S
C2386 H2382 0.929 . S
C2386 C2388 1.378 . S
C2386 C2390 1.350 . S
C2387 C2390 1.463 . S
C2387 C2392 1.350 . S
C2387 N2395 1.427 . S
C2388 H2379 0.930 . S
C2388 C2386 1.378 . S
C2388 C2389 1.367 . S
C2389 C2388 1.367 . S
C2389 C2391 1.433 . S
C2390 C2386 1.350 . S
C2390 C2387 1.463 . S
C2390 N2394 1.427 . S
C2391 H2381 0.929 . S
C2391 C2389 1.433 . S
C2391 N2394 1.384 . S
C2392 H2383 0.929 . S
C2392 C2384 1.378 . S
C2392 C2387 1.350 . S
C2393 H2380 0.929 . S
C2393 C2385 1.433 . S
C2393 N2395 1.384 . S
N2394 C2390 1.427 . S
N2394 C2391 1.384 . S
N2395 C2387 1.427 . S
N2395 C2393 1.384 . S
H2396 C2402 0.930 . S
H2397 C2406 0.930 . S
H2398 C2411 0.929 . S
H2399 C2409 0.929 . S
H2400 C2404 0.929 . S
H2401 C2410 0.929 . S
C2402 H2396 0.930 . S
C2402 C2403 1.367 . S
C2402 C2410 1.378 . S
C2403 C2402 1.367 . S
C2403 C2411 1.433 . S
C2404 H2400 0.929 . S
C2404 C2406 1.378 . S
C2404 C2408 1.350 . S
C2405 C2408 1.463 . S
C2405 C2410 1.350 . S
C2405 N2413 1.427 . S
C2406 H2397 0.930 . S
C2406 C2404 1.378 . S
C2406 C2407 1.367 . S
C2407 C2406 1.367 . S
C2407 C2409 1.433 . S
C2408 C2404 1.350 . S
C2408 C2405 1.463 . S
C2408 N2412 1.427 . S
C2409 H2399 0.929 . S
C2409 C2407 1.433 . S
C2409 N2412 1.384 . S
C2410 H2401 0.929 . S
C2410 C2402 1.378 . S
C2410 C2405 1.350 . S
C2411 H2398 0.929 . S
C2411 C2403 1.433 . S
C2411 N2413 1.384 . S
N2412 C2408 1.427 . S
N2412 C2409 1.384 . S
N2413 C2405 1.427 . S
N2413 C2411 1.384 . S
H2414 C2420 0.930 . S
H2415 C2424 0.930 . S
H2416 C2429 0.929 . S
H2417 C2427 0.929 . S
H2418 C2422 0.929 . S
H2419 C2428 0.929 . S
C2420 H2414 0.930 . S
C2420 C2421 1.367 . S
C2420 C2428 1.378 . S
C2421 C2420 1.367 . S
C2421 C2429 1.433 . S
C2422 H2418 0.929 . S
C2422 C2424 1.378 . S
C2422 C2426 1.350 . S
C2423 C2426 1.463 . S
C2423 C2428 1.350 . S
C2423 N2431 1.427 . S
C2424 H2415 0.930 . S
C2424 C2422 1.378 . S
C2424 C2425 1.367 . S
C2425 C2424 1.367 . S
C2425 C2427 1.433 . S
C2426 C2422 1.350 . S
C2426 C2423 1.463 . S
C2426 N2430 1.427 . S
C2427 H2417 0.929 . S
C2427 C2425 1.433 . S
C2427 N2430 1.384 . S
C2428 H2419 0.929 . S
C2428 C2420 1.378 . S
C2428 C2423 1.350 . S
C2429 H2416 0.929 . S
C2429 C2421 1.433 . S
C2429 N2431 1.384 . S
N2430 C2426 1.427 . S
N2430 C2427 1.384 . S
N2431 C2423 1.427 . S
N2431 C2429 1.384 . S
C711 C8 1.978 . S
C715 C106 1.975 . S
C729 C128 1.975 . S
C733 C30 1.980 . S
C747 C142 1.979 . S
C751 C54 1.975 . S
C765 C84 1.978 . S
C769 C162 1.977 . S
C783 C194 1.964 . S
C787 C272 1.958 . S
C801 C208 1.964 . S
C805 C304 1.957 . S
C819 C230 1.959 . S
C823 C316 1.961 . S
C837 C340 1.964 . S
C841 C252 1.959 . S
C855 C370 1.980 . S
C859 C458 1.975 . S
C873 C480 1.976 . S
C877 C382 1.977 . S
C891 C404 1.977 . S
C895 C502 1.977 . S
C909 C524 1.975 . S
C913 C436 1.980 . S
C927 C538 1.959 . S
C931 C624 1.964 . S
C945 C560 1.962 . S
C949 C646 1.958 . S
C963 C590 1.964 . S
C967 C678 1.958 . S
C981 C612 1.964 . S
C985 C692 1.957 . S
C999 C546 1.512 . S
C1003 C18 1.498 . S
C1017 C216 1.501 . S
C1021 C40 1.488 . S
C1035 C52 1.492 . S
C1039 C580 1.507 . S
C1053 C76 1.495 . S
C1057 C260 1.510 . S
C1071 C98 1.503 . S
C1075 C626 1.517 . S
C1089 C120 1.504 . S
C1093 C294 1.517 . S
C1107 C668 1.504 . S
C1111 C140 1.490 . S
C1125 C348 1.510 . S
C1129 C172 1.496 . S
C1143 C362 1.493 . S
C1147 C184 1.507 . S
C1161 C238 1.511 . S
C1165 C414 1.497 . S
C1179 C274 1.506 . S
C1183 C450 1.492 . S
C1197 C494 1.498 . S
C1201 C318 1.512 . S
C1215 C392 1.504 . S
C1219 C568 1.517 . S
C1233 C602 1.514 . S
C1237 C428 1.500 . S
C1251 C648 1.512 . S
C1255 C472 1.498 . S
C1269 C516 1.498 . S
C1273 C700 1.511 . S
C1287 C7 1.097 . S
C1291 C601 1.096 . S
C1305 C29 1.094 . S
C1309 C183 1.098 . S
C1323 C65 1.097 . S
C1327 C565 1.094 . S
C1341 C235 1.094 . S
C1345 C81 1.098 . S
C1359 C659 1.094 . S
C1363 C103 1.096 . S
C1377 C125 1.095 . S
C1381 C329 1.095 . S
C1395 C697 1.094 . S
C1399 C153 1.098 . S
C1413 C285 1.097 . S
C1417 C161 1.095 . S
C1431 C425 1.098 . S
C1435 C197 1.099 . S
C1449 C205 1.100 . S
C1453 C21 1.096 . S
C1467 C395 1.098 . S
C1471 C227 1.099 . S
C1485 C59 1.100 . S
C1489 C249 1.097 . S
C1503 C469 1.098 . S
C1507 C279 1.099 . S
C1521 C307 1.099 . S
C1525 C147 1.098 . S
C1539 C323 1.097 . S
C1543 C513 1.100 . S
C1557 C95 1.100 . S
C1561 C337 1.097 . S
C1575 C367 1.097 . S
C1579 C257 1.094 . S
C1593 C381 1.094 . S
C1597 C543 1.098 . S
C1611 C213 1.095 . S
C1615 C403 1.098 . S
C1629 C433 1.095 . S
C1633 C579 1.097 . S
C1647 C293 1.095 . S
C1651 C455 1.095 . S
C1665 C477 1.094 . S
C1669 C667 1.098 . S
C1683 C345 1.095 . S
C1687 C499 1.098 . S
C1701 C521 1.097 . S
C1705 C637 1.094 . S
C1719 C73 1.097 . S
C1723 C535 1.100 . S
C1737 C557 1.099 . S
C1741 C359 1.098 . S
C1755 C593 1.100 . S
C1759 C43 1.097 . S
C1773 C417 1.099 . S
C1777 C615 1.098 . S
C1791 C117 1.100 . S
C1795 C631 1.097 . S
C1809 C491 1.096 . S
C1813 C653 1.100 . S
C1827 C681 1.097 . S
C1831 C175 1.100 . S
C1845 C447 1.100 . S
C1849 C689 1.097 . S
C1863 C15 0.543 . S
C1867 C411 0.543 . S
C1881 C37 0.539 . S
C1885 C439 0.536 . S
C1899 C51 0.537 . S
C1903 C373 0.540 . S
C1917 C87 0.540 . S
C1921 C389 0.537 . S
C1935 C505 0.538 . S
C1939 C109 0.535 . S
C1953 C527 0.540 . S
C1957 C131 0.537 . S
C1971 C139 0.541 . S
C1975 C461 0.539 . S
C1989 C483 0.539 . S
C1993 C169 0.536 . S
C2007 C587 0.537 . S
C2011 C191 0.534 . S
C2025 C609 0.535 . S
C2029 C219 0.537 . S
C2043 C549 0.536 . S
C2047 C241 0.534 . S
C2061 C263 0.540 . S
C2065 C571 0.538 . S
C2079 C271 0.538 . S
C2083 C675 0.540 . S
C2097 C703 0.534 . S
C2101 C301 0.535 . S
C2115 C623 0.536 . S
C2119 C315 0.539 . S
C2133 C351 0.537 . S
C2137 C645 0.539 . S
C2151 C164 1.311 . S
C2155 C10 1.309 . S
C2169 C32 1.311 . S
C2173 C96 1.310 . S
C2187 C62 1.313 . S
C2191 C118 1.312 . S
C2205 C150 1.311 . S
C2209 C74 1.313 . S
C2223 C338 1.321 . S
C2227 C186 1.322 . S
C2241 C206 1.325 . S
C2245 C282 1.323 . S
C2259 C296 1.328 . S
C2263 C228 1.328 . S
C2277 C326 1.324 . S
C2281 C250 1.326 . S
C2295 C514 1.311 . S
C2299 C360 1.312 . S
C2313 C448 1.306 . S
C2317 C384 1.305 . S
C2331 C470 1.307 . S
C2335 C406 1.308 . S
C2349 C426 1.309 . S
C2353 C492 1.307 . S
C2367 C690 1.321 . S
C2371 C536 1.321 . S
C2385 C634 1.327 . S
C2389 C558 1.324 . S
C2403 C656 1.324 . S
C2407 C582 1.322 . S
C2421 C604 1.321 . S
C2425 C670 1.321 . S
