# Generated by pormake.
# Topology lcv-e, (6)-cn, num edge types: 1
# Building blocks:
#     Node 0, Type 0, BuildingBlock: KUMJIN_clean_sbu_1, # of connection points: 6
#     Node 1, Type 0, BuildingBlock: KUMJIN_clean_sbu_1, # of connection points: 6
#     Node 2, Type 0, BuildingBlock: KUMJIN_clean_sbu_1, # of connection points: 6
#     Node 3, Type 0, BuildingBlock: KUMJIN_clean_sbu_1, # of connection points: 6
#     Node 4, Type 0, BuildingBlock: KUMJIN_clean_sbu_1, # of connection points: 6
#     Node 5, Type 0, BuildingBlock: KUMJIN_clean_sbu_1, # of connection points: 6
#     Node 6, Type 0, BuildingBlock: KUMJIN_clean_sbu_1, # of connection points: 6
#     Node 7, Type 0, BuildingBlock: KUMJIN_clean_sbu_1, # of connection points: 6
#     Node 8, Type 0, BuildingBlock: KUMJIN_clean_sbu_1, # of connection points: 6
#     Node 9, Type 0, BuildingBlock: KUMJIN_clean_sbu_1, # of connection points: 6
#     Node 10, Type 0, BuildingBlock: KUMJIN_clean_sbu_1, # of connection points: 6
#     Node 11, Type 0, BuildingBlock: KUMJIN_clean_sbu_1, # of connection points: 6
#     Node 12, Type 0, BuildingBlock: KUMJIN_clean_sbu_1, # of connection points: 6
#     Node 13, Type 0, BuildingBlock: KUMJIN_clean_sbu_1, # of connection points: 6
#     Node 14, Type 0, BuildingBlock: KUMJIN_clean_sbu_1, # of connection points: 6
#     Node 15, Type 0, BuildingBlock: KUMJIN_clean_sbu_1, # of connection points: 6
#     Node 16, Type 0, BuildingBlock: KUMJIN_clean_sbu_1, # of connection points: 6
#     Node 17, Type 0, BuildingBlock: KUMJIN_clean_sbu_1, # of connection points: 6
#     Node 18, Type 0, BuildingBlock: KUMJIN_clean_sbu_1, # of connection points: 6
#     Node 19, Type 0, BuildingBlock: KUMJIN_clean_sbu_1, # of connection points: 6
#     Node 20, Type 0, BuildingBlock: KUMJIN_clean_sbu_1, # of connection points: 6
#     Node 21, Type 0, BuildingBlock: KUMJIN_clean_sbu_1, # of connection points: 6
#     Node 22, Type 0, BuildingBlock: KUMJIN_clean_sbu_1, # of connection points: 6
#     Node 23, Type 0, BuildingBlock: KUMJIN_clean_sbu_1, # of connection points: 6
#     Edge 24, Type (0, 0), BuildingBlock: XUDNAN_clean_linker_2, # of connection points: 2
#     Edge 25, Type (0, 0), BuildingBlock: XUDNAN_clean_linker_2, # of connection points: 2
#     Edge 26, Type (0, 0), BuildingBlock: XUDNAN_clean_linker_2, # of connection points: 2
#     Edge 27, Type (0, 0), BuildingBlock: XUDNAN_clean_linker_2, # of connection points: 2
#     Edge 28, Type (0, 0), BuildingBlock: XUDNAN_clean_linker_2, # of connection points: 2
#     Edge 29, Type (0, 0), BuildingBlock: XUDNAN_clean_linker_2, # of connection points: 2
#     Edge 30, Type (0, 0), BuildingBlock: XUDNAN_clean_linker_2, # of connection points: 2
#     Edge 31, Type (0, 0), BuildingBlock: XUDNAN_clean_linker_2, # of connection points: 2
#     Edge 32, Type (0, 0), BuildingBlock: XUDNAN_clean_linker_2, # of connection points: 2
#     Edge 33, Type (0, 0), BuildingBlock: XUDNAN_clean_linker_2, # of connection points: 2
#     Edge 34, Type (0, 0), BuildingBlock: XUDNAN_clean_linker_2, # of connection points: 2
#     Edge 35, Type (0, 0), BuildingBlock: XUDNAN_clean_linker_2, # of connection points: 2
#     Edge 36, Type (0, 0), BuildingBlock: XUDNAN_clean_linker_2, # of connection points: 2
#     Edge 37, Type (0, 0), BuildingBlock: XUDNAN_clean_linker_2, # of connection points: 2
#     Edge 38, Type (0, 0), BuildingBlock: XUDNAN_clean_linker_2, # of connection points: 2
#     Edge 39, Type (0, 0), BuildingBlock: XUDNAN_clean_linker_2, # of connection points: 2
#     Edge 40, Type (0, 0), BuildingBlock: XUDNAN_clean_linker_2, # of connection points: 2
#     Edge 41, Type (0, 0), BuildingBlock: XUDNAN_clean_linker_2, # of connection points: 2
#     Edge 42, Type (0, 0), BuildingBlock: XUDNAN_clean_linker_2, # of connection points: 2
#     Edge 43, Type (0, 0), BuildingBlock: XUDNAN_clean_linker_2, # of connection points: 2
#     Edge 44, Type (0, 0), BuildingBlock: XUDNAN_clean_linker_2, # of connection points: 2
#     Edge 45, Type (0, 0), BuildingBlock: XUDNAN_clean_linker_2, # of connection points: 2
#     Edge 46, Type (0, 0), BuildingBlock: XUDNAN_clean_linker_2, # of connection points: 2
#     Edge 47, Type (0, 0), BuildingBlock: XUDNAN_clean_linker_2, # of connection points: 2
#     Edge 48, Type (0, 0), BuildingBlock: XUDNAN_clean_linker_2, # of connection points: 2
#     Edge 49, Type (0, 0), BuildingBlock: XUDNAN_clean_linker_2, # of connection points: 2
#     Edge 50, Type (0, 0), BuildingBlock: XUDNAN_clean_linker_2, # of connection points: 2
#     Edge 51, Type (0, 0), BuildingBlock: XUDNAN_clean_linker_2, # of connection points: 2
#     Edge 52, Type (0, 0), BuildingBlock: XUDNAN_clean_linker_2, # of connection points: 2
#     Edge 53, Type (0, 0), BuildingBlock: XUDNAN_clean_linker_2, # of connection points: 2
#     Edge 54, Type (0, 0), BuildingBlock: XUDNAN_clean_linker_2, # of connection points: 2
#     Edge 55, Type (0, 0), BuildingBlock: XUDNAN_clean_linker_2, # of connection points: 2
#     Edge 56, Type (0, 0), BuildingBlock: XUDNAN_clean_linker_2, # of connection points: 2
#     Edge 57, Type (0, 0), BuildingBlock: XUDNAN_clean_linker_2, # of connection points: 2
#     Edge 58, Type (0, 0), BuildingBlock: XUDNAN_clean_linker_2, # of connection points: 2
#     Edge 59, Type (0, 0), BuildingBlock: XUDNAN_clean_linker_2, # of connection points: 2
#     Edge 60, Type (0, 0), BuildingBlock: XUDNAN_clean_linker_2, # of connection points: 2
#     Edge 61, Type (0, 0), BuildingBlock: XUDNAN_clean_linker_2, # of connection points: 2
#     Edge 62, Type (0, 0), BuildingBlock: XUDNAN_clean_linker_2, # of connection points: 2
#     Edge 63, Type (0, 0), BuildingBlock: XUDNAN_clean_linker_2, # of connection points: 2
#     Edge 64, Type (0, 0), BuildingBlock: XUDNAN_clean_linker_2, # of connection points: 2
#     Edge 65, Type (0, 0), BuildingBlock: XUDNAN_clean_linker_2, # of connection points: 2
#     Edge 66, Type (0, 0), BuildingBlock: XUDNAN_clean_linker_2, # of connection points: 2
#     Edge 67, Type (0, 0), BuildingBlock: XUDNAN_clean_linker_2, # of connection points: 2
#     Edge 68, Type (0, 0), BuildingBlock: XUDNAN_clean_linker_2, # of connection points: 2
#     Edge 69, Type (0, 0), BuildingBlock: XUDNAN_clean_linker_2, # of connection points: 2
#     Edge 70, Type (0, 0), BuildingBlock: XUDNAN_clean_linker_2, # of connection points: 2
#     Edge 71, Type (0, 0), BuildingBlock: XUDNAN_clean_linker_2, # of connection points: 2
#     Edge 72, Type (0, 0), BuildingBlock: XUDNAN_clean_linker_2, # of connection points: 2
#     Edge 73, Type (0, 0), BuildingBlock: XUDNAN_clean_linker_2, # of connection points: 2
#     Edge 74, Type (0, 0), BuildingBlock: XUDNAN_clean_linker_2, # of connection points: 2
#     Edge 75, Type (0, 0), BuildingBlock: XUDNAN_clean_linker_2, # of connection points: 2
#     Edge 76, Type (0, 0), BuildingBlock: XUDNAN_clean_linker_2, # of connection points: 2
#     Edge 77, Type (0, 0), BuildingBlock: XUDNAN_clean_linker_2, # of connection points: 2
#     Edge 78, Type (0, 0), BuildingBlock: XUDNAN_clean_linker_2, # of connection points: 2
#     Edge 79, Type (0, 0), BuildingBlock: XUDNAN_clean_linker_2, # of connection points: 2
#     Edge 80, Type (0, 0), BuildingBlock: XUDNAN_clean_linker_2, # of connection points: 2
#     Edge 81, Type (0, 0), BuildingBlock: XUDNAN_clean_linker_2, # of connection points: 2
#     Edge 82, Type (0, 0), BuildingBlock: XUDNAN_clean_linker_2, # of connection points: 2
#     Edge 83, Type (0, 0), BuildingBlock: XUDNAN_clean_linker_2, # of connection points: 2
#     Edge 84, Type (0, 0), BuildingBlock: XUDNAN_clean_linker_2, # of connection points: 2
#     Edge 85, Type (0, 0), BuildingBlock: XUDNAN_clean_linker_2, # of connection points: 2
#     Edge 86, Type (0, 0), BuildingBlock: XUDNAN_clean_linker_2, # of connection points: 2
#     Edge 87, Type (0, 0), BuildingBlock: XUDNAN_clean_linker_2, # of connection points: 2
#     Edge 88, Type (0, 0), BuildingBlock: XUDNAN_clean_linker_2, # of connection points: 2
#     Edge 89, Type (0, 0), BuildingBlock: XUDNAN_clean_linker_2, # of connection points: 2
#     Edge 90, Type (0, 0), BuildingBlock: XUDNAN_clean_linker_2, # of connection points: 2
#     Edge 91, Type (0, 0), BuildingBlock: XUDNAN_clean_linker_2, # of connection points: 2
#     Edge 92, Type (0, 0), BuildingBlock: XUDNAN_clean_linker_2, # of connection points: 2
#     Edge 93, Type (0, 0), BuildingBlock: XUDNAN_clean_linker_2, # of connection points: 2
#     Edge 94, Type (0, 0), BuildingBlock: XUDNAN_clean_linker_2, # of connection points: 2
#     Edge 95, Type (0, 0), BuildingBlock: XUDNAN_clean_linker_2, # of connection points: 2
# Relax obj value: 0.484
# Max RMSD: 0.305
# Mean RMSD: 0.290
data_MOF--net-lcv-e--node1-KUMJIN_clean_sbu_1--edge1-XUDNAN_clean_linker_2
_symmetry_space_group_name_H-M    P1
_symmetry_Int_Tables_number       1
_symmetry_cell_setting            triclinic
loop_
_symmetry_equiv_pos_as_xyz
'x, y, z'
_cell_length_a     61.425684
_cell_length_b     61.857911
_cell_length_c     61.83081
_cell_angle_alpha  90.05926
_cell_angle_beta   89.968083
_cell_angle_gamma 89.930706
loop_
_atom_site_label
_atom_site_type_symbol
_atom_site_fract_x
_atom_site_fract_y
_atom_site_fract_z
_atom_type_partial_charge
Eu0 Eu 0.10527 0.26302 0.31166 0.0
C1 C 0.04302 0.2218 0.25475 0.0
N2 N 0.0635 0.21939 0.2471 0.0
C3 C 0.05281 0.18741 0.22781 0.0
C4 C 0.0263 0.2074 0.24864 0.0
C5 C 0.06881 0.20203 0.23443 0.0
C6 C 0.03136 0.1903 0.23468 0.0
C7 C 1.01859 0.23919 0.28003 0.0
C8 C 0.03934 0.2374 0.27027 0.0
C9 C 1.0015 0.22584 0.27304 0.0
C10 C 1.00537 0.20992 0.2574 0.0
Eu11 Eu 0.09006 0.24479 0.25808 0.0
N12 N 0.05653 0.24931 0.27733 0.0
C13 C 1.01593 0.25348 0.29733 0.0
C14 C 0.05421 0.26179 0.2953 0.0
C15 C 0.03396 0.2645 0.30529 0.0
H16 H 0.08547 0.19938 0.22951 0.0
H17 H 0.03238 0.27466 0.31946 0.0
H18 H 0.06453 0.29612 0.32814 0.0
H19 H 0.19292 0.27098 0.32819 0.0
H20 H 0.06804 0.26887 0.30256 0.0
H21 H 1.00033 0.25527 0.30532 0.0
H22 H 0.15938 0.25144 0.31909 0.0
H23 H 0.05707 0.17384 0.2176 0.0
H24 H 0.98547 0.22712 0.28026 0.0
H25 H 0.99227 0.19915 0.25277 0.0
H26 H 0.06032 0.3327 0.34345 0.0
H27 H 1.01901 0.17882 0.22973 0.0
H28 H 0.19144 0.30985 0.3372 0.0
N29 N 0.09887 0.29866 0.32421 0.0
C30 C 0.1171 0.31024 0.32914 0.0
C31 C 0.07632 0.32672 0.33918 0.0
C32 C 0.11535 0.33134 0.33779 0.0
C33 C 0.07875 0.30605 0.33036 0.0
C34 C 0.09465 0.33961 0.34246 0.0
N35 N 0.13886 0.27911 0.32182 0.0
C36 C 0.15837 0.2684 0.32281 0.0
C37 C 0.15647 0.31204 0.33324 0.0
C38 C 0.13755 0.30041 0.32741 0.0
C39 C 0.17659 0.30141 0.33293 0.0
C40 C 0.17749 0.27945 0.32795 0.0
H41 H 0.0927 0.35565 0.34928 0.0
H42 H 0.13315 0.3595 0.34878 0.0
H43 H 0.16912 0.34278 0.34439 0.0
O44 O 0.11587 0.2618 0.34499 0.0
O45 O 0.13362 0.26523 0.28705 0.0
O46 O 0.11345 0.27302 0.25793 0.0
O47 O 0.08121 0.25741 0.33763 0.0
O48 O 0.12621 0.23352 0.30643 0.0
O49 O 0.12072 0.22585 0.27024 0.0
O50 O 0.08046 0.24609 0.22415 0.0
O51 O 0.08747 0.21298 0.27784 0.0
O52 O 0.08657 0.22781 0.31186 0.0
O53 O 0.11196 0.2332 0.23289 0.0
O54 O 0.07966 0.28298 0.25766 0.0
O55 O 0.09191 0.29373 0.2911 0.0
C56 C 0.13248 0.27235 0.26706 0.0
C57 C 0.09363 0.24928 0.37389 0.0
C58 C 0.1072 0.22618 0.40284 0.0
C59 C 0.09183 0.23534 0.41699 0.0
C60 C 0.07824 0.25805 0.38818 0.0
C61 C 0.07734 0.25108 0.40962 0.0
C62 C 0.10798 0.23318 0.38119 0.0
C63 C 0.13111 0.22255 0.28886 0.0
C64 C 0.0962 0.2594 0.35259 0.0
C65 C 0.13424 0.34317 0.34252 0.0
C66 C 0.15473 0.33361 0.34006 0.0
C67 C 0.08389 0.21027 0.29874 0.0
C68 C 0.10972 0.25218 0.20065 0.0
C69 C 0.11383 0.288 0.18563 0.0
C70 C 0.12099 0.27852 0.16603 0.0
C71 C 0.11704 0.24285 0.18137 0.0
C72 C 0.11033 0.27452 0.20338 0.0
C73 C 0.12341 0.25613 0.16429 0.0
C74 C 0.08271 0.29924 0.27211 0.0
C75 C 0.09929 0.23911 0.21719 0.0
H76 H 0.09089 0.23018 0.43371 0.0
H77 H 0.06733 0.27078 0.38291 0.0
H78 H 0.06558 0.25811 0.42062 0.0
H79 H 0.12019 0.22667 0.3703 0.0
H80 H 0.12381 0.28813 0.15173 0.0
H81 H 0.11714 0.22545 0.17932 0.0
H82 H 0.10541 0.28137 0.21872 0.0
H83 H 0.12877 0.24903 0.14919 0.0
Eu84 Eu 0.04346 0.84846 0.54598 0.0
C85 C 0.08408 0.77595 0.50769 0.0
N86 N 0.08719 0.7934 0.4948 0.0
C87 C 0.11923 0.77719 0.47965 0.0
C88 C 0.09858 0.75825 0.50697 0.0
C89 C 0.1045 0.79438 0.48099 0.0
C90 C 0.1162 0.75899 0.49262 0.0
C91 C 0.06418 0.75877 0.53679 0.0
C92 C 0.06707 0.77632 0.52243 0.0
C93 C 0.07817 0.74084 0.53568 0.0
C94 C 0.09536 0.7406 0.52084 0.0
Eu95 Eu 0.06159 0.82173 0.49721 0.0
N96 N 0.05417 0.79424 0.52355 0.0
C97 C 0.04769 0.75996 0.55231 0.0
C98 C 0.03886 0.79565 0.53942 0.0
C99 C 0.0351 0.77861 0.55375 0.0
H100 H 0.10705 0.80858 0.47115 0.0
H101 H 1.02272 0.78005 0.56613 0.0
H102 H 1.00083 0.81708 0.56274 0.0
H103 H 0.05239 0.9363 0.55528 0.0
H104 H 0.02982 0.81003 0.54152 0.0
H105 H 0.04495 0.74686 0.56361 0.0
H106 H 0.06554 0.899 0.55127 0.0
H107 H 0.13297 0.77805 0.46873 0.0
H108 H 0.07609 0.72726 0.54655 0.0
H109 H 0.10629 0.72684 0.52046 0.0
H110 H 0.962 0.82191 0.5715 0.0
H111 H 0.12772 0.74574 0.49167 0.0
H112 H 1.01307 0.94357 0.55952 0.0
N113 N 1.00614 0.85041 0.5557 0.0
C114 C 0.99802 0.87087 0.55731 0.0
C115 C 0.97186 0.83576 0.56725 0.0
C116 C 0.97587 0.87431 0.5625 0.0
C117 C 0.99387 0.83309 0.56222 0.0
C118 C 0.96269 0.8564 0.5669 0.0
N119 N 0.03382 0.88498 0.55237 0.0
C120 C 0.0483 0.90179 0.55293 0.0
C121 C 1.00404 0.90976 0.55808 0.0
C122 C 1.01212 0.88852 0.55542 0.0
C123 C 1.0187 0.92707 0.55757 0.0
C124 C 0.04092 0.92303 0.55526 0.0
H125 H 0.94565 0.85842 0.57096 0.0
H126 H 0.95073 0.89834 0.5678 0.0
H127 H 0.9753 0.92932 0.56371 0.0
O128 O 0.04695 0.86189 0.57817 0.0
O129 O 0.04368 0.87341 0.5184 0.0
O130 O 0.03922 0.85024 0.4901 0.0
O131 O 0.04226 0.82665 0.57431 0.0
O132 O 0.07556 0.86382 0.53804 0.0
O133 O 0.08245 0.8533 0.50269 0.0
O134 O 0.05794 0.80136 0.46855 0.0
O135 O 0.09304 0.82181 0.51715 0.0
O136 O 0.07667 0.8269 0.55014 0.0
O137 O 0.07232 0.8328 0.46536 0.0
O138 O 1.02375 0.81295 0.49968 0.0
O139 O 1.01268 0.83821 0.52431 0.0
C140 C 0.04012 0.87003 0.49765 0.0
C141 C 0.04627 0.84101 0.61107 0.0
C142 C 0.06068 0.85503 0.6452 0.0
C143 C 0.04624 0.84131 0.6564 0.0
C144 C 0.03233 0.82724 0.62247 0.0
C145 C 0.03239 0.82737 0.64507 0.0
C146 C 0.06071 0.85435 0.62242 0.0
C147 C 0.08634 0.86591 0.51983 0.0
C148 C 0.04462 0.8431 0.58747 0.0
C149 C 0.96774 0.89546 0.56411 0.0
C150 C 0.98176 0.91312 0.56183 0.0
C151 C 0.09444 0.82104 0.53837 0.0
C152 C 0.04692 0.8227 0.43954 0.0
C153 C 1.00882 0.83105 0.43325 0.0
C154 C 1.01346 0.83389 0.4111 0.0
C155 C 0.05162 0.826 0.41765 0.0
C156 C 0.02572 0.82578 0.4471 0.0
C157 C 0.03484 0.83176 0.40346 0.0
C158 C 1.00739 0.82348 0.50938 0.0
C159 C 0.0636 0.81661 0.45522 0.0
H160 H 0.04523 0.84158 0.67387 0.0
H161 H 1.02096 0.81691 0.61394 0.0
H162 H 1.02131 0.817 0.65385 0.0
H163 H 0.07193 0.86427 0.61326 0.0
H164 H 1.00057 0.83714 0.39962 0.0
H165 H 0.06806 0.82407 0.41161 0.0
H166 H 1.02197 0.82321 0.46379 0.0
H167 H 0.03829 0.8341 0.38646 0.0
Eu168 Eu 0.47278 0.80103 0.74896 0.0
C169 C 0.48148 0.74444 0.82418 0.0
N170 N 0.46107 0.74839 0.81675 0.0
C171 C 0.44869 0.71425 0.83031 0.0
C172 C 0.4862 0.72508 0.83526 0.0
C173 C 0.44475 0.73361 0.81935 0.0
C174 C 0.46945 0.71005 0.83849 0.0
C175 C 0.5195 0.7548 0.82591 0.0
C176 C 0.49796 0.75919 0.81932 0.0
C177 C 0.52409 0.73592 0.83772 0.0
C178 C 0.50751 0.7211 0.84234 0.0
Eu179 Eu 0.45551 0.7829 0.80168 0.0
N180 N 0.49313 0.77731 0.80756 0.0
C181 C 0.53589 0.7694 0.82022 0.0
C182 C 0.50912 0.79133 0.80177 0.0
C183 C 0.5307 0.78763 0.80796 0.0
H184 H 0.42868 0.73678 0.81295 0.0
H185 H 0.54332 0.79892 0.80336 0.0
H186 H 0.52329 0.81779 0.76386 0.0
H187 H 0.42534 0.82898 0.6796 0.0
H188 H 0.50535 0.80538 0.79251 0.0
H189 H 0.55263 0.76662 0.825 0.0
H190 H 0.43952 0.80115 0.70548 0.0
H191 H 0.43572 0.70262 0.83245 0.0
H192 H 0.54053 0.73244 0.84304 0.0
H193 H 0.51142 0.70642 0.85107 0.0
H194 H 0.54547 0.85098 0.76076 0.0
H195 H 0.47246 0.695 0.84692 0.0
H196 H 0.44225 0.86472 0.67797 0.0
N197 N 0.49728 0.83019 0.74484 0.0
C198 C 0.49096 0.84566 0.73063 0.0
C199 C 0.53 0.84984 0.75248 0.0
C200 C 0.50303 0.86488 0.72831 0.0
C201 C 0.51736 0.83115 0.75435 0.0
C202 C 0.5225 0.86705 0.73988 0.0
N203 N 0.463 0.82215 0.71878 0.0
C204 C 0.4466 0.81703 0.70495 0.0
C205 C 0.46599 0.85759 0.70279 0.0
C206 C 0.47299 0.84175 0.71763 0.0
C207 C 0.44832 0.85289 0.68939 0.0
C208 C 0.43877 0.83248 0.69027 0.0
H209 H 0.53224 0.88157 0.73855 0.0
H210 H 0.50435 0.89611 0.71253 0.0
H211 H 0.47162 0.8899 0.69047 0.0
O212 O 0.49309 0.79489 0.72122 0.0
O213 O 0.43916 0.81748 0.75547 0.0
O214 O 0.43461 0.81081 0.7919 0.0
O215 O 0.5011 0.78002 0.75294 0.0
O216 O 0.44121 0.78493 0.74184 0.0
O217 O 0.42912 0.77249 0.7754 0.0
O218 O 0.45563 0.78835 0.83681 0.0
O219 O 0.46673 0.75105 0.78334 0.0
O220 O 0.46866 0.76227 0.74847 0.0
O221 O 0.4262 0.77638 0.82088 0.0
O222 O 0.46902 0.81983 0.80732 0.0
O223 O 0.47825 0.82926 0.77303 0.0
C224 C 0.42864 0.82041 0.77405 0.0
C225 C 0.50447 0.75867 0.72084 0.0
C226 C 0.48466 0.73164 0.69948 0.0
C227 C 0.50233 0.71732 0.70231 0.0
C228 C 0.52165 0.74412 0.72371 0.0
C229 C 0.52064 0.72362 0.71424 0.0
C230 C 0.48624 0.75235 0.70856 0.0
C231 C 0.42668 0.77504 0.75391 0.0
C232 C 0.50433 0.77998 0.73167 0.0
C233 C 0.49559 0.88102 0.71418 0.0
C234 C 0.47699 0.87745 0.70158 0.0
C235 C 0.46994 0.746 0.76276 0.0
C236 C 0.42448 0.78072 0.85983 0.0
C237 C 0.41613 0.79679 0.89487 0.0
C238 C 0.40491 0.77787 0.90068 0.0
C239 C 0.41287 0.76212 0.86569 0.0
C240 C 0.42607 0.79803 0.87443 0.0
C241 C 0.40327 0.76067 0.88611 0.0
C242 C 0.47604 0.83519 0.79341 0.0
C243 C 0.43571 0.78165 0.83891 0.0
H244 H 0.50235 0.70144 0.69497 0.0
H245 H 0.53572 0.74858 0.73327 0.0
H246 H 0.53418 0.7126 0.7161 0.0
H247 H 0.47269 0.76344 0.70703 0.0
H248 H 0.39688 0.77663 0.91623 0.0
H249 H 0.41156 0.74858 0.85464 0.0
H250 H 0.43488 0.8125 0.86984 0.0
H251 H 0.39441 0.74625 0.89063 0.0
Eu252 Eu 0.51149 0.20157 0.03903 0.0
C253 C 0.46945 0.27659 1.0004 0.0
N254 N 0.46338 0.25789 0.99073 0.0
C255 C 0.43068 0.27488 0.97775 0.0
C256 C 0.45653 0.29543 0.99867 0.0
C257 C 0.44395 0.25666 0.97998 0.0
C258 C 0.43714 0.29445 0.98689 0.0
C259 C 0.49393 0.29545 0.0245 0.0
C260 C 0.48784 0.27649 1.01318 0.0
C261 C 0.48167 0.31445 1.02212 0.0
C262 C 0.46299 0.31444 1.00923 0.0
Eu263 Eu 0.48797 0.22827 0.99232 0.0
N264 N 0.49913 0.25767 1.0154 0.0
C265 C 0.51187 0.29467 0.03831 0.0
C266 C 0.51612 0.25697 0.02952 0.0
C267 C 0.52287 0.27523 0.041 0.0
H268 H 0.43838 0.24157 0.97321 0.0
H269 H 0.53655 0.27422 0.05199 0.0
H270 H 0.55464 0.23337 0.05313 0.0
H271 H 0.50587 0.11402 0.05274 0.0
H272 H 0.5246 0.24244 0.03221 0.0
H273 H 0.51705 0.30881 0.04728 0.0
H274 H 0.49186 0.1513 0.05168 0.0
H275 H 0.41542 0.27378 0.96908 0.0
H276 H 0.48624 0.32912 0.03057 0.0
H277 H 0.45338 0.32908 1.00794 0.0
H278 H 0.59427 0.22937 0.05854 0.0
H279 H 0.42677 0.30853 0.98525 0.0
H280 H 0.54521 0.10717 0.04982 0.0
N281 N 0.54968 0.20015 0.04541 0.0
C282 C 0.55849 0.17996 0.04565 0.0
C283 C 0.58445 0.2154 0.05459 0.0
C284 C 0.58112 0.17699 0.04846 0.0
C285 C 0.56202 0.2176 0.0515 0.0
C286 C 0.59413 0.19508 0.0525 0.0
N287 N 0.52272 0.1655 0.04596 0.0
C288 C 0.50892 0.14859 0.04945 0.0
C289 C 0.5534 0.14107 0.04695 0.0
C290 C 0.54466 0.16216 0.04551 0.0
C291 C 0.53914 0.1236 0.04876 0.0
C292 C 0.51685 0.12742 0.05044 0.0
H293 H 0.6115 0.19338 0.05505 0.0
H294 H 0.60726 0.15348 0.05015 0.0
H295 H 0.58299 0.122 0.04835 0.0
O296 O 0.51671 0.19291 0.07254 0.0
O297 O 0.5116 0.17699 1.01066 0.0
O298 O 0.512 0.20177 0.98338 0.0
O299 O 0.51204 0.227 0.06372 0.0
O300 O 0.47989 0.18366 0.03444 0.0
O301 O 0.47123 0.19493 0.99985 0.0
O302 O 0.4912 0.244 0.96067 0.0
O303 O 0.45915 0.22928 1.01592 0.0
O304 O 0.47479 0.21705 0.04739 0.0
O305 O 0.4683 0.21816 0.96496 0.0
O306 O 0.52575 0.23598 0.98911 0.0
O307 O 0.54028 0.21415 1.01534 0.0
C308 C 0.51313 0.18162 0.98987 0.0
C309 C 0.50786 0.21739 0.10075 0.0
C310 C 0.48583 0.20719 0.1316 0.0
C311 C 0.4964 0.22295 0.14416 0.0
C312 C 0.51817 0.23323 0.11333 0.0
C313 C 0.51237 0.23604 0.13496 0.0
C314 C 0.49141 0.20461 0.10978 0.0
C315 C 0.46881 0.18127 1.01645 0.0
C316 C 0.51627 0.21307 0.0791 0.0
C317 C 0.58988 0.15602 0.04849 0.0
C318 C 0.57605 0.1381 0.04754 0.0
C319 C 0.45716 0.22564 0.03684 0.0
C320 C 0.48538 0.21956 0.93163 0.0
C321 C 0.51416 0.20135 0.91156 0.0
C322 C 0.49848 0.19343 0.89698 0.0
C323 C 0.46999 0.21176 0.91683 0.0
C324 C 0.50741 0.21434 0.92895 0.0
C325 C 0.47655 0.19873 0.89958 0.0
C326 C 0.54347 0.22768 0.99871 0.0
C327 C 0.47786 0.2307 0.95117 0.0
H328 H 0.49222 0.22516 0.16104 0.0
H329 H 0.53108 0.24305 0.10655 0.0
H330 H 0.5205 0.24815 0.14468 0.0
H331 H 0.48358 0.19218 0.10016 0.0
H332 H 0.50321 0.18327 0.88348 0.0
H333 H 0.45284 0.21533 0.91894 0.0
H334 H 0.5193 0.2206 0.94028 0.0
H335 H 0.46459 0.19257 0.88831 0.0
Eu336 Eu 0.05811 0.99173 0.32484 0.0
C337 C 0.98847 0.05203 0.3292 0.0
N338 N 0.99551 0.04557 0.34893 0.0
C339 C 0.98607 0.08015 0.3641 0.0
C340 C 0.97952 0.07289 0.32629 0.0
C341 C 0.99471 0.05938 0.36628 0.0
C342 C 0.97821 0.08687 0.34407 0.0
C343 C 0.98523 0.04524 0.29076 0.0
C344 C 0.99152 0.03829 0.31162 0.0
C345 C 0.97545 0.0656 0.28799 0.0
C346 C 0.97268 0.07941 0.30569 0.0
Eu347 Eu 1.00844 1.00957 0.35157 0.0
N348 N 1.00155 1.01875 0.31465 0.0
C349 C 0.98942 0.03178 0.27311 0.0
C350 C 1.00644 1.00616 0.2972 0.0
C351 C 1.0003 1.0123 0.27633 0.0
H352 H 1.00129 0.05463 0.38176 0.0
H353 H 1.00413 1.00201 0.26268 0.0
H354 H 0.0446 0.97619 0.27416 0.0
H355 H 0.12144 0.95763 0.37763 0.0
H356 H 1.01528 0.99155 0.29892 0.0
H357 H 0.98481 0.03653 0.25688 0.0
H358 H 0.09824 0.98695 0.36337 0.0
H359 H 0.9856 0.09099 0.37785 0.0
H360 H 0.97042 0.07104 0.2721 0.0
H361 H 0.9656 0.09527 0.3032 0.0
H362 H 0.05186 0.94521 0.24986 0.0
H363 H 0.97159 0.10302 0.3424 0.0
H364 H 0.12161 0.9219 0.36021 0.0
N365 N 0.06117 0.9622 0.30099 0.0
C366 C 0.07416 0.94582 0.30811 0.0
C367 C 0.05794 0.94506 0.26628 0.0
C368 C 0.07758 0.9273 0.29518 0.0
C369 C 0.05391 0.96259 0.28006 0.0
C370 C 0.06924 0.92706 0.27409 0.0
N371 N 0.08481 0.96754 0.33818 0.0
C372 C 0.09822 0.97141 0.35544 0.0
C373 C 0.09895 0.93128 0.3351 0.0
C374 C 0.08554 0.94821 0.32755 0.0
C375 C 0.11131 0.9346 0.35379 0.0
C376 C 0.11128 0.95485 0.3637 0.0
H377 H 0.07187 0.91329 0.26356 0.0
H378 H 0.09221 0.89543 0.29385 0.0
H379 H 0.11028 0.89863 0.32914 0.0
O380 O 0.09084 0.99329 0.31204 0.0
O381 O 0.05473 0.97449 0.35829 0.0
O382 O 1.01948 0.98014 0.36968 0.0
O383 O 0.06352 1.00672 0.29349 0.0
O384 O 0.06922 1.01245 0.35234 0.0
O385 O 0.03853 1.01525 0.37418 0.0
O386 O 0.97295 1.00582 0.35692 0.0
O387 O 0.03047 0.04044 0.34701 0.0
O388 O 0.05084 0.02992 0.31827 0.0
O389 O 0.99389 1.01643 0.38258 0.0
O390 O 1.0001 0.97398 0.33666 0.0
O391 O 0.0316 0.96502 0.3189 0.0
C392 C 0.03828 0.97047 0.37161 0.0
C393 C 0.09839 1.02152 0.2883 0.0
C394 C 0.11706 0.05486 0.2975 0.0
C395 C 0.12866 0.05324 0.27778 0.0
C396 C 0.10968 1.02038 0.2687 0.0
C397 C 0.12473 0.0363 0.26343 0.0
C398 C 0.10177 0.03883 0.30252 0.0
C399 C 0.05991 1.01719 0.37081 0.0
C400 C 0.08466 1.0035 0.29455 0.0
C401 C 0.08997 0.91004 0.30329 0.0
C402 C 0.10033 0.91189 0.32336 0.0
C403 C 0.04348 0.04617 0.33083 0.0
C404 C 0.96165 0.99919 0.39383 0.0
C405 C 0.92912 0.97936 0.40548 0.0
C406 C 0.93632 0.98121 0.42705 0.0
C407 C 0.96847 1.00025 0.41555 0.0
C408 C 0.94192 0.98863 0.38886 0.0
C409 C 0.9559 0.99131 0.43193 0.0
C410 C 1.01166 0.95931 0.32516 0.0
C411 C 0.9742 1.01122 0.37724 0.0
H412 H 0.14141 0.06456 0.27363 0.0
H413 H 0.10726 1.00689 0.25777 0.0
H414 H 0.13385 0.03517 0.24848 0.0
H415 H 0.09301 0.03938 0.31772 0.0
H416 H 0.92666 0.97517 0.44038 0.0
H417 H 0.98333 1.00851 0.42007 0.0
H418 H 0.93658 0.98772 0.37219 0.0
H419 H 0.96119 0.99258 0.44859 0.0
Eu420 Eu 0.28497 0.73697 0.6042 0.0
C421 C 0.33312 0.79118 0.5414 0.0
N422 N 0.33643 0.79782 0.56206 0.0
C423 C 0.36919 0.81601 0.55146 0.0
C424 C 0.34774 0.79699 0.5248 0.0
C425 C 0.35428 0.80985 0.56738 0.0
C426 C 0.36578 0.80977 0.53003 0.0
C427 C 0.3135 0.76827 0.51628 0.0
C428 C 0.3161 0.77706 0.53723 0.0
C429 C 0.32722 0.77503 0.49944 0.0
C430 C 0.34433 0.78933 0.5037 0.0
Eu431 Eu 0.30878 0.78936 0.58715 0.0
N432 N 0.3035 0.7703 0.55403 0.0
C433 C 0.29796 0.75209 0.51312 0.0
C434 C 0.29011 0.75307 0.55128 0.0
C435 C 0.28661 0.74404 0.53086 0.0
H436 H 0.35717 0.81459 0.58394 0.0
H437 H 0.27556 0.73056 0.52896 0.0
H438 H 0.24527 0.71981 0.57021 0.0
H439 H 0.28429 0.74063 0.69366 0.0
H440 H 0.28291 0.74566 0.56479 0.0
H441 H 0.2955 0.74487 0.49733 0.0
H442 H 0.29979 0.74559 0.65802 0.0
H443 H 0.38331 0.82554 0.55574 0.0
H444 H 0.32527 0.76862 0.48324 0.0
H445 H 0.35526 0.79382 0.4907 0.0
H446 H 0.20729 0.70714 0.57238 0.0
H447 H 0.37744 0.81446 0.51775 0.0
H448 H 0.2467 0.72733 0.69771 0.0
N449 N 0.24841 0.72467 0.6042 0.0
C450 C 0.23902 0.72235 0.62402 0.0
C451 C 0.21597 0.71144 0.58699 0.0
C452 C 0.21729 0.71503 0.62585 0.0
C453 C 0.23748 0.71859 0.58585 0.0
C454 C 0.20576 0.70984 0.60704 0.0
N455 N 0.27246 0.7332 0.64071 0.0
C456 C 0.28397 0.73861 0.65889 0.0
C457 C 0.24147 0.72422 0.66323 0.0
C458 C 0.25125 0.72664 0.64263 0.0
C459 C 0.25367 0.72896 0.68168 0.0
C460 C 0.27492 0.73633 0.67947 0.0
H461 H 0.18908 0.70421 0.60787 0.0
H462 H 0.1911 0.70722 0.64797 0.0
H463 H 0.21215 0.71545 0.68062 0.0
O464 O 0.28194 0.70372 0.614 0.0
O465 O 0.26967 0.76658 0.62188 0.0
O466 O 0.29976 0.78719 0.62182 0.0
O467 O 0.2853 0.7112 0.5795 0.0
O468 O 0.31553 0.73985 0.62405 0.0
O469 O 0.32677 0.77521 0.61779 0.0
O470 O 0.30153 0.82198 0.57547 0.0
O471 O 0.33846 0.76794 0.5818 0.0
O472 O 0.32196 0.7348 0.58781 0.0
O473 O 0.3223 0.81815 0.60288 0.0
O474 O 0.27007 0.79064 0.57991 0.0
O475 O 0.25714 0.75664 0.58714 0.0
C476 C 0.28051 0.78336 0.62924 0.0
C477 C 0.29319 0.67514 0.59132 0.0
C478 C 0.31481 0.64564 0.60592 0.0
C479 C 0.30756 0.63225 0.58898 0.0
C480 C 0.28608 0.66164 0.57452 0.0
C481 C 0.29336 0.6403 0.57332 0.0
C482 C 0.30778 0.66717 0.60681 0.0
C483 C 0.3282 0.75639 0.62851 0.0
C484 C 0.28271 0.69619 0.59424 0.0
C485 C 0.20776 0.71272 0.64633 0.0
C486 C 0.21979 0.71733 0.66492 0.0
C487 C 0.33981 0.7467 0.5817 0.0
C488 C 0.29797 0.84722 0.60392 0.0
C489 C 0.2618 0.85791 0.61706 0.0
C490 C 0.27133 0.87621 0.62683 0.0
C491 C 0.30693 0.86596 0.6129 0.0
C492 C 0.27585 0.84304 0.60675 0.0
C493 C 0.29367 0.88019 0.62465 0.0
C494 C 0.25343 0.77642 0.58001 0.0
C495 C 0.31124 0.83174 0.59142 0.0
H496 H 0.31297 0.61562 0.58777 0.0
H497 H 0.27443 0.66744 0.56272 0.0
H498 H 0.28771 0.62988 0.56042 0.0
H499 H 0.31294 0.67742 0.62008 0.0
H500 H 0.26162 0.88782 0.63567 0.0
H501 H 0.32409 0.86947 0.611 0.0
H502 H 0.26976 0.82857 0.59927 0.0
H503 H 0.30068 0.89455 0.63183 0.0
Eu504 Eu 0.55315 0.03771 0.84781 0.0
C505 C 0.51092 0.07421 0.77391 0.0
N506 N 0.49763 0.07691 0.7912 0.0
C507 C 0.48135 0.10791 0.77426 0.0
C508 C 0.50973 0.08816 0.75587 0.0
C509 C 0.48321 0.09375 0.79176 0.0
C510 C 0.49457 0.10503 0.75615 0.0
C511 C 0.54145 0.05569 0.75749 0.0
C512 C 0.52669 0.05839 0.77488 0.0
C513 C 0.53989 0.06904 0.73922 0.0
C514 C 0.52412 0.08533 0.73846 0.0
Eu515 Eu 0.50248 0.05391 0.82153 0.0
N516 N 0.52842 0.04649 0.79329 0.0
C517 C 0.55781 0.04013 0.75921 0.0
C518 C 0.54504 0.03206 0.79511 0.0
C519 C 0.55967 0.02831 0.7782 0.0
H520 H 0.47343 0.09675 0.80593 0.0
H521 H 0.57271 1.01669 0.78008 0.0
H522 H 0.57191 0.99638 0.81535 0.0
H523 H 0.5681 0.04396 0.93497 0.0
H524 H 0.54774 0.02397 0.8098 0.0
H525 H 0.56943 0.03755 0.74626 0.0
H526 H 0.56535 0.0578 0.89762 0.0
H527 H 0.46992 0.12123 0.77488 0.0
H528 H 0.55114 0.06722 0.72583 0.0
H529 H 0.52344 0.09589 0.7245 0.0
H530 H 0.57856 0.95716 0.81875 0.0
H531 H 0.49328 0.11619 0.74271 0.0
H532 H 0.56785 1.00452 0.94156 0.0
N533 N 0.56306 1.00043 0.84847 0.0
C534 C 0.56378 0.99152 0.86859 0.0
C535 C 0.57408 0.96657 0.83284 0.0
C536 C 0.5677 0.96919 0.8713 0.0
C537 C 0.57031 0.98879 0.83097 0.0
C538 C 0.57207 0.95659 0.85298 0.0
N539 N 0.56148 0.02679 0.88354 0.0
C540 C 0.56431 0.0407 0.90047 0.0
C541 C 0.56498 0.99636 0.9076 0.0
C542 C 0.56274 1.00504 0.8866 0.0
C543 C 0.56613 1.01057 0.9252 0.0
C544 C 0.56628 0.03284 0.92156 0.0
H545 H 0.57509 0.93939 0.85439 0.0
H546 H 0.57089 0.94318 0.89456 0.0
H547 H 0.56831 0.96695 0.92633 0.0
O548 O 0.58646 0.04067 0.8598 0.0
O549 O 0.5266 0.03702 0.87352 0.0
O550 O 0.49973 0.03036 0.84932 0.0
O551 O 0.58011 0.03919 0.82462 0.0
O552 O 0.54237 0.06772 0.86663 0.0
O553 O 0.50865 0.07514 0.85163 0.0
O554 O 0.47381 0.06955 0.83499 0.0
O555 O 0.52245 0.08504 0.82007 0.0
O556 O 0.55667 0.07301 0.82896 0.0
O557 O 0.46982 0.04731 0.80856 0.0
O558 O 0.50408 1.01607 0.8144 0.0
O559 O 0.53217 1.0057 0.83671 0.0
C560 C 0.5063 0.03227 0.86925 0.0
C561 C 0.6179 0.04134 0.83599 0.0
C562 C 0.65382 0.05483 0.84563 0.0
C563 C 0.66274 0.04342 0.82806 0.0
C564 C 0.627 0.03012 0.81846 0.0
C565 C 0.64938 0.03102 0.81465 0.0
C566 C 0.6314 0.05342 0.84974 0.0
C567 C 0.52408 0.07896 0.86614 0.0
C568 C 0.59447 0.04001 0.84025 0.0
C569 C 0.56834 0.96036 0.89221 0.0
C570 C 0.56692 0.97391 0.91031 0.0
C571 C 0.54349 0.08911 0.82141 0.0
C572 C 0.44359 0.04751 0.83688 0.0
C573 C 0.43264 1.01551 0.8572 0.0
C574 C 0.41283 0.02572 0.86233 0.0
C575 C 0.42367 0.05738 0.84175 0.0
C576 C 0.44839 0.02737 0.84581 0.0
C577 C 0.40847 0.04659 0.85471 0.0
C578 C 0.51567 1.00001 0.82348 0.0
C579 C 0.46004 0.05853 0.82363 0.0
H580 H 0.68004 0.04411 0.8247 0.0
H581 H 0.61684 1.02046 0.80788 0.0
H582 H 0.65637 1.02221 0.8012 0.0
H583 H 0.62435 0.0623 0.86317 0.0
H584 H 0.40007 1.01715 0.87081 0.0
H585 H 0.4199 0.07333 0.83559 0.0
H586 H 0.46372 1.01987 0.84191 0.0
H587 H 0.39303 0.05419 0.8584 0.0
Eu588 Eu 0.24114 0.25191 0.08844 0.0
C589 C 0.30187 0.32471 0.09273 0.0
N590 N 0.29428 0.3129 0.10968 0.0
C591 C 0.32917 0.31463 0.12696 0.0
C592 C 0.32378 0.33152 0.0921 0.0
C593 C 0.30744 0.30796 0.12679 0.0
C594 C 0.33741 0.32639 0.10952 0.0
C595 C 0.2956 0.34081 0.05753 0.0
C596 C 0.28794 0.32896 0.07548 0.0
C597 C 0.31744 0.34754 0.05682 0.0
C598 C 0.33148 0.34289 0.07403 0.0
Eu599 Eu 0.25736 0.3023 0.10812 0.0
N600 N 0.26696 0.32174 0.07629 0.0
C601 C 0.28102 0.34585 0.04093 0.0
C602 C 0.25235 0.32802 0.06088 0.0
C603 C 0.25923 0.33976 0.0428 0.0
H604 H 0.30114 0.29875 0.14025 0.0
H605 H 0.24772 0.34405 0.03027 0.0
H606 H 0.20234 0.26016 0.05177 0.0
H607 H 0.23811 0.18273 0.14286 0.0
H608 H 0.23544 0.32359 0.06208 0.0
H609 H 0.28629 0.35486 0.02685 0.0
H610 H 0.24403 0.21998 0.1317 0.0
H611 H 0.33959 0.31061 0.14049 0.0
H612 H 0.3236 0.35648 0.04306 0.0
H613 H 0.34828 0.34816 0.07321 0.0
H614 H 0.17762 0.23983 0.02792 0.0
H615 H 0.35432 0.33136 0.10962 0.0
H616 H 0.22397 0.15602 0.11665 0.0
N617 N 0.21636 0.23207 0.06604 0.0
C618 C 0.2151 0.21037 0.06796 0.0
C619 C 0.18825 0.23125 0.03892 0.0
C620 C 0.2007 0.19804 0.05512 0.0
C621 C 0.20234 0.2427 0.05247 0.0
C622 C 0.1877 0.20874 0.03997 0.0
N623 N 0.23602 0.21486 0.0987 0.0
C624 C 0.23963 0.20847 0.11955 0.0
C625 C 0.22125 0.17954 0.09087 0.0
C626 C 0.22545 0.20127 0.08518 0.0
C627 C 0.22744 0.17236 0.11138 0.0
C628 C 0.2357 0.18725 0.12613 0.0
H629 H 0.17636 0.1999 0.02987 0.0
H630 H 0.18759 0.16602 0.04934 0.0
H631 H 0.20546 0.14978 0.08102 0.0
O632 O 0.24416 0.25443 0.05346 0.0
O633 O 0.22158 0.25737 0.12001 0.0
O634 O 0.23611 0.28847 0.13441 0.0
O635 O 0.24818 0.28287 0.07354 0.0
O636 O 0.26752 0.24432 0.11261 0.0
O637 O 0.26635 0.27534 0.13305 0.0
O638 O 0.244 0.33497 0.11152 0.0
O639 O 0.28861 0.28374 0.09264 0.0
O640 O 0.28026 0.24808 0.08628 0.0
O641 O 0.26382 0.32146 0.13707 0.0
O642 O 0.2203 0.30433 0.09255 0.0
O643 O 0.20824 0.26934 0.09408 0.0
C644 C 0.22297 0.2719 0.13571 0.0
C645 C 0.25724 0.2855 0.03587 0.0
C646 C 0.29108 0.28033 1.01781 0.0
C647 C 0.28116 0.28364 0.99765 0.0
C648 C 0.2467 0.28852 1.01596 0.0
C649 C 0.25899 0.28887 0.99685 0.0
C650 C 0.27971 0.28572 0.03653 0.0
C651 C 0.27126 0.25451 0.13083 0.0
C652 C 0.24548 0.27555 0.05387 0.0
C653 C 0.19842 0.17581 0.0591 0.0
C654 C 0.20867 0.16654 0.07707 0.0
C655 C 0.2956 0.26377 0.08714 0.0
C656 C 0.25917 0.35973 0.13689 0.0
C657 C 0.24695 0.39533 0.14814 0.0
C658 C 0.26784 0.39989 0.15607 0.0
C659 C 0.28018 0.36442 0.14452 0.0
C660 C 0.24282 0.37544 0.13831 0.0
C661 C 0.28449 0.38457 0.15393 0.0
C662 C 0.20362 0.29008 0.09068 0.0
C663 C 0.25252 0.3379 0.13052 0.0
H664 H 0.28969 0.27968 0.98283 0.0
H665 H 0.22909 0.28889 1.01505 0.0
H666 H 0.25092 0.29049 0.98138 0.0
H667 H 0.28741 0.28324 0.05183 0.0
H668 H 0.27112 0.41508 0.16416 0.0
H669 H 0.29299 0.3524 0.14383 0.0
H670 H 0.2264 0.37165 0.13304 0.0
H671 H 0.30056 0.38805 0.16018 0.0
Eu672 Eu 0.25871 0.07677 0.24255 0.0
C673 C 0.32715 0.07764 0.3021 0.0
N674 N 0.32026 0.09775 0.29681 0.0
C675 C 0.33054 0.11116 0.33175 0.0
C676 C 0.33622 0.07354 0.32268 0.0
C677 C 0.32166 0.11446 0.31124 0.0
C678 C 0.33798 0.09063 0.33747 0.0
C679 C 0.33108 0.03983 0.2927 0.0
C680 C 0.32449 0.06101 0.28715 0.0
C681 C 0.34051 0.03579 0.31301 0.0
C682 C 0.34307 0.05259 0.32794 0.0
Eu683 Eu 0.30755 0.10274 0.26128 0.0
N684 N 0.31517 0.06535 0.26751 0.0
C685 C 0.32791 0.0232 0.27776 0.0
C686 C 0.31205 0.049 0.25308 0.0
C687 C 0.31827 0.02781 0.25792 0.0
H688 H 0.31579 0.13035 0.30687 0.0
H689 H 0.31568 1.01502 0.24625 0.0
H690 H 0.27687 0.02689 0.22791 0.0
H691 H 0.1925 0.12305 0.20572 0.0
H692 H 0.30488 0.05186 0.23781 0.0
H693 H 0.33274 1.00676 0.28141 0.0
H694 H 0.21494 0.10966 0.23616 0.0
H695 H 0.33167 0.12444 0.34311 0.0
H696 H 0.34574 1.01964 0.31739 0.0
H697 H 0.3502 0.04916 0.3436 0.0
H698 H 0.27643 1.0036 0.19529 0.0
H699 H 0.34487 0.08809 0.35339 0.0
H700 H 0.19594 0.10622 0.16968 0.0
N701 N 0.25884 0.05223 0.21304 0.0
C702 C 0.24642 0.05823 0.19581 0.0
C703 C 0.26824 1.0191 0.19514 0.0
C704 C 0.24627 0.04582 0.1767 0.0
C705 C 0.26847 0.03226 0.21355 0.0
C706 C 0.25752 0.02614 0.17649 0.0
N707 N 0.23185 0.08663 0.21705 0.0
C708 C 0.21687 0.10262 0.22036 0.0
C709 C 0.22022 0.08302 0.18003 0.0
C710 C 0.23312 0.07633 0.19767 0.0
C711 C 0.20599 0.10048 0.18288 0.0
C712 C 0.204 0.11003 0.20325 0.0
H713 H 0.25733 1.0159 0.16228 0.0
H714 H 0.23447 0.04403 0.14372 0.0
H715 H 0.21199 0.07689 0.14651 0.0
O716 O 0.22539 0.06638 0.24857 0.0
O717 O 0.26114 0.11212 0.22904 0.0
O718 O 0.29753 0.12066 0.23112 0.0
O719 O 0.25278 0.04621 0.25877 0.0
O720 O 0.24739 0.10657 0.26065 0.0
O721 O 0.27847 0.12512 0.27128 0.0
O722 O 0.34291 0.10536 0.26235 0.0
O723 O 0.28472 0.097 0.29133 0.0
O724 O 0.26976 0.06644 0.27889 0.0
O725 O 0.32324 0.13435 0.26634 0.0
O726 O 0.31408 0.09174 0.22395 0.0
O727 O 0.28402 0.07215 0.21417 0.0
C728 C 0.27799 0.12455 0.2237 0.0
C729 C 0.2225 0.04759 0.28167 0.0
C730 C 0.21334 0.06348 0.31687 0.0
C731 C 0.20552 0.04298 0.3233 0.0
C732 C 0.21528 0.02741 0.28877 0.0
C733 C 0.20684 0.02515 0.30953 0.0
C734 C 0.22184 0.06545 0.29577 0.0
C735 C 0.25686 0.12319 0.27005 0.0
C736 C 0.23174 0.04964 0.25989 0.0
C737 C 0.23432 0.05306 0.15874 0.0
C738 C 0.22149 0.07175 0.16034 0.0
C739 C 0.27422 0.07895 0.2961 0.0
C740 C 0.36199 0.13888 0.26283 0.0
C741 C 0.3917 0.15068 0.23975 0.0
C742 C 0.40086 0.16171 0.25749 0.0
C743 C 0.3713 0.14996 0.28031 0.0
C744 C 0.37214 0.13923 0.24255 0.0
C745 C 0.39068 0.16131 0.27763 0.0
C746 C 0.30322 0.08025 0.20871 0.0
C747 C 0.34261 0.12586 0.26688 0.0
H748 H 0.19739 0.04069 0.33862 0.0
H749 H 0.21604 1.01345 0.2782 0.0
H750 H 0.20083 1.00959 0.31485 0.0
H751 H 0.22787 0.08084 0.2901 0.0
H752 H 0.41571 0.17097 0.25571 0.0
H753 H 0.3637 0.14956 0.29614 0.0
H754 H 0.36501 0.13041 0.22915 0.0
H755 H 0.39783 0.16982 0.29118 0.0
Eu756 Eu 0.20799 0.03975 0.50889 0.0
C757 C 0.27852 0.98119 0.47387 0.0
N758 N 0.25849 0.97448 0.46778 0.0
C759 C 0.27444 0.95363 0.439 0.0
C760 C 0.29748 0.97373 0.46331 0.0
C761 C 0.25618 0.96167 0.44988 0.0
C762 C 0.29522 0.95933 0.44601 0.0
C763 C 0.30014 1.00658 0.49434 0.0
C764 C 0.2798 0.99735 0.48904 0.0
C765 C 0.31925 0.99814 0.48514 0.0
C766 C 0.31791 0.98174 0.46957 0.0
Eu767 Eu 0.22811 0.98663 0.48853 0.0
N768 N 0.26091 1.00571 0.49671 0.0
C769 C 0.30053 0.02482 0.50771 0.0
C770 C 0.26129 0.02459 0.50785 0.0
C771 C 0.2809 0.03418 0.5141 0.0
H772 H 0.24028 0.9576 0.44373 0.0
H773 H 0.28082 0.04898 0.52345 0.0
H774 H 0.23428 0.0566 0.55406 0.0
H775 H 0.1207 0.05175 0.49263 0.0
H776 H 0.24646 0.03231 0.51146 0.0
H777 H 0.31576 0.03243 0.51218 0.0
H778 H 0.15938 0.04972 0.48308 0.0
H779 H 0.27244 0.94321 0.42507 0.0
H780 H 0.33502 1.00486 0.48918 0.0
H781 H 0.33267 0.97602 0.46182 0.0
H782 H 0.2261 0.06234 0.59281 0.0
H783 H 0.30935 0.95331 0.43739 0.0
H784 H 0.10941 0.05092 0.53098 0.0
N785 N 0.2019 0.04733 0.54608 0.0
C786 C 0.18075 0.04751 0.55252 0.0
C787 C 0.21323 0.05781 0.58176 0.0
C788 C 0.17525 0.05102 0.57444 0.0
C789 C 0.21781 0.05445 0.55987 0.0
C790 C 0.19193 0.05543 0.58921 0.0
N791 N 0.17028 0.04586 0.51561 0.0
C792 C 0.15488 0.04866 0.49985 0.0
C793 C 0.1424 0.04847 0.54305 0.0
C794 C 0.16448 0.04669 0.53689 0.0
C795 C 0.12651 0.04958 0.52689 0.0
C796 C 0.13282 0.05008 0.50522 0.0
H797 H 0.18837 0.05825 0.60615 0.0
H798 H 0.1488 0.05368 0.5975 0.0
H799 H 0.12002 0.05113 0.57005 0.0
O800 O 0.19738 0.07326 0.51005 0.0
O801 O 0.1812 1.01297 0.51 0.0
O802 O 0.20395 0.98486 0.51578 0.0
O803 O 0.23196 0.06602 0.51204 0.0
O804 O 0.19479 0.03565 0.47547 0.0
O805 O 0.19663 0.99869 0.47083 0.0
O806 O 0.23332 0.95161 0.49324 0.0
O807 O 0.2344 1.0093 0.45878 0.0
O808 O 0.2274 0.04282 0.474 0.0
O809 O 0.21047 0.96321 0.46933 0.0
O810 O 0.23576 0.9854 0.52705 0.0
O811 O 0.22468 1.01936 0.53759 0.0
C812 C 0.18421 0.99249 0.51507 0.0
C813 C 0.22202 0.10157 0.50085 0.0
C814 C 0.21082 0.13243 0.47901 0.0
C815 C 0.22984 0.14341 0.48516 0.0
C816 C 0.24103 0.11272 0.50668 0.0
C817 C 0.24494 0.13348 0.49878 0.0
C818 C 0.20706 0.11141 0.48676 0.0
C819 C 0.18828 1.01789 0.46592 0.0
C820 C 0.21703 0.08103 0.51177 0.0
C821 C 0.15329 0.05138 0.5807 0.0
C822 C 0.1369 0.05001 0.56504 0.0
C823 C 0.23446 0.03073 0.45678 0.0
C824 C 0.20244 0.92915 0.48388 0.0
C825 C 0.18666 0.90133 0.50706 0.0
C826 C 0.1727 0.89522 0.49019 0.0
C827 C 0.18842 0.92255 0.46716 0.0
C828 C 0.20142 0.91853 0.50395 0.0
C829 C 0.17375 0.90568 0.47031 0.0
C830 C 0.2333 1.00021 0.54302 0.0
C831 C 0.21838 0.9464 0.47916 0.0
H832 H 0.23306 0.1596 0.47933 0.0
H833 H 0.25261 0.10556 0.51779 0.0
H834 H 0.25956 0.14203 0.5035 0.0
H835 H 0.19215 0.10313 0.48242 0.0
H836 H 0.16112 0.8822 0.49235 0.0
H837 H 0.18897 0.93035 0.45148 0.0
H838 H 0.21249 0.92311 0.51679 0.0
H839 H 0.16307 0.90075 0.45728 0.0
Eu840 Eu 0.25554 0.94099 0.76 0.0
C841 C 0.317 0.99997 0.71939 0.0
N842 N 0.32185 0.97916 0.71434 0.0
C843 C 0.34205 0.99105 0.68325 0.0
C844 C 0.32513 1.01723 0.70681 0.0
C845 C 0.33352 0.97449 0.69603 0.0
C846 C 0.3382 1.01252 0.68889 0.0
C847 C 0.29444 0.02521 0.73935 0.0
C848 C 0.30189 1.00387 0.73559 0.0
C849 C 0.30377 0.04253 0.72803 0.0
C850 C 0.31908 0.03854 0.71177 0.0
Eu851 Eu 0.30981 0.95257 0.73934 0.0
N852 N 0.29243 0.98668 0.74557 0.0
C853 C 0.27674 0.02838 0.75318 0.0
C854 C 0.27347 0.98975 0.75654 0.0
C855 C 0.26574 1.01047 0.76124 0.0
H856 H 0.33612 0.95801 0.69089 0.0
H857 H 0.2509 1.01256 0.77047 0.0
H858 H 0.23918 0.98012 0.79558 0.0
H859 H 0.24886 0.85254 0.76655 0.0
H860 H 0.26361 0.97642 0.76066 0.0
H861 H 0.27046 0.04444 0.75641 0.0
H862 H 0.25594 0.88664 0.74778 0.0
H863 H 0.35146 0.98721 0.66894 0.0
H864 H 0.29841 0.05897 0.73094 0.0
H865 H 0.32537 0.05198 0.70244 0.0
H866 H 0.22513 0.98203 0.83292 0.0
H867 H 0.34464 0.02532 0.6788 0.0
H868 H 0.23718 0.85269 0.80475 0.0
N869 N 0.24242 0.9458 0.79569 0.0
C870 C 0.23861 0.927 0.80659 0.0
C871 C 0.22898 0.96651 0.82577 0.0
C872 C 0.23056 0.92754 0.82802 0.0
C873 C 0.23686 0.96535 0.80462 0.0
C874 C 0.22605 0.94757 0.8376 0.0
N875 N 0.24862 0.9065 0.7751 0.0
C876 C 0.25074 0.88723 0.76438 0.0
C877 C 0.23751 0.8876 0.8074 0.0
C878 C 0.24185 0.90703 0.79619 0.0
C879 C 0.24029 0.86789 0.79662 0.0
C880 C 0.24682 0.86773 0.77503 0.0
H881 H 0.21984 0.94855 0.85398 0.0
H882 H 0.22071 0.90834 0.85562 0.0
H883 H 0.22695 0.87351 0.83771 0.0
O884 O 0.22283 0.92768 0.75734 0.0
O885 O 0.28232 0.91865 0.77485 0.0
O886 O 0.30626 0.91752 0.74711 0.0
O887 O 0.22735 0.96311 0.75956 0.0
O888 O 0.25841 0.9209 0.72988 0.0
O889 O 0.29482 0.92325 0.72068 0.0
O890 O 0.3426 0.9572 0.75245 0.0
O891 O 0.29031 0.95994 0.70865 0.0
O892 O 0.25592 0.95888 0.72387 0.0
O893 O 0.33815 0.93878 0.72336 0.0
O894 O 0.31136 0.95911 0.77793 0.0
O895 O 0.27578 0.95754 0.78874 0.0
C896 C 0.29886 0.90936 0.7649 0.0
C897 C 0.19016 0.94949 0.7577 0.0
C898 C 0.15532 0.93886 0.74234 0.0
C899 C 0.14452 0.95029 0.75876 0.0
C900 C 0.17923 0.96118 0.77385 0.0
C901 C 0.15647 0.96146 0.77441 0.0
C902 C 0.17815 0.93837 0.74193 0.0
C903 C 0.27501 0.91485 0.71807 0.0
C904 C 0.21382 0.94673 0.75893 0.0
C905 C 0.22674 0.90815 0.83914 0.0
C906 C 0.23026 0.8883 0.82892 0.0
C907 C 0.26913 0.96268 0.70637 0.0
C908 C 0.36408 0.92555 0.74727 0.0
C909 C 0.37872 0.90548 0.77779 0.0
C910 C 0.39129 0.89304 0.7634 0.0
C911 C 0.37738 0.91356 0.73322 0.0
C912 C 0.36363 0.9203 0.76936 0.0
C913 C 0.39059 0.89706 0.74125 0.0
C914 C 0.29657 0.96101 0.79391 0.0
C915 C 0.35145 0.94387 0.73868 0.0
H916 H 0.1269 0.95082 0.75924 0.0
H917 H 0.18827 0.96948 0.78639 0.0
H918 H 0.14809 0.97026 0.78706 0.0
H919 H 0.18651 0.92928 0.72942 0.0
H920 H 0.40381 0.88234 0.76953 0.0
H921 H 0.37779 0.91718 0.71608 0.0
H922 H 0.35428 0.93023 0.78047 0.0
H923 H 0.40109 0.88808 0.73042 0.0
Eu924 Eu 0.35731 1.00254 1.00833 0.0
C925 C 0.28831 0.05162 0.96918 0.0
N926 N 0.30796 0.06058 0.96493 0.0
C927 C 0.29321 0.07848 0.93373 0.0
C928 C 0.27011 0.05612 0.95595 0.0
C929 C 0.31077 0.07348 0.94718 0.0
C930 C 0.27273 0.06993 0.93825 0.0
C931 C 0.26653 0.02676 0.99024 0.0
C932 C 0.28665 0.03709 0.98612 0.0
C933 C 0.24823 0.03175 0.97759 0.0
C934 C 0.25002 0.04638 0.96048 0.0
Eu935 Eu 0.33646 0.05348 0.98966 0.0
N936 N 0.30479 0.03233 0.99791 0.0
C937 C 0.26542 1.01135 1.00667 0.0
C938 C 0.30366 1.01672 1.01338 0.0
C939 C 0.28415 1.00616 1.01814 0.0
H940 H 0.3266 0.07978 0.94308 0.0
H941 H 0.28368 0.99386 0.03057 0.0
H942 H 0.32692 0.98666 0.05146 0.0
H943 H 0.44399 0.9839 0.99614 0.0
H944 H 0.31765 1.01188 1.02196 0.0
H945 H 0.25032 1.00306 1.0103 0.0
H946 H 0.40603 0.98855 0.98463 0.0
H947 H 0.29554 0.08879 0.91979 0.0
H948 H 0.23269 0.02405 0.98067 0.0
H949 H 0.23586 0.04976 0.95059 0.0
H950 H 0.33268 0.97861 0.09028 0.0
H951 H 0.25916 0.07373 0.92771 0.0
H952 H 0.45323 0.98378 0.03504 0.0
N953 N 0.36042 0.99302 0.04536 0.0
C954 C 0.38112 0.99117 0.05288 0.0
C955 C 0.34641 0.98245 0.08001 0.0
C956 C 0.38514 0.987 0.07496 0.0
C957 C 0.34321 0.98694 0.05807 0.0
C958 C 0.36739 0.98328 0.08867 0.0
N959 N 0.39369 0.99238 1.01661 0.0
C960 C 0.40969 0.98888 1.00162 0.0
C961 C 0.41982 0.98801 0.04542 0.0
C962 C 0.39826 0.99113 0.03814 0.0
C963 C 0.43647 0.98609 0.03008 0.0
C964 C 0.43131 0.98609 1.00811 0.0
H965 H 0.3698 0.97992 0.1057 0.0
H966 H 0.41007 0.98268 0.09937 0.0
H967 H 0.44048 0.98399 0.07354 0.0
O968 O 0.36429 0.96825 1.01018 0.0
O969 O 0.38551 0.02684 1.00847 0.0
O970 O 0.36565 0.05752 1.01284 0.0
O971 O 0.33063 0.97922 1.00721 0.0
O972 O 0.37409 1.00897 0.97658 0.0
O973 O 0.36719 0.04491 0.96897 0.0
O974 O 0.32153 0.08499 0.99646 0.0
O975 O 0.3321 0.03202 0.95908 0.0
O976 O 0.34091 0.99822 0.97177 0.0
O977 O 0.34876 0.0827 0.97465 0.0
O978 O 0.32999 0.05544 0.02744 0.0
O979 O 0.34662 0.02463 0.03935 0.0
C980 C 0.38449 0.0474 1.01374 0.0
C981 C 0.33963 0.94475 0.99245 0.0
C982 C 0.3524 0.91395 0.97137 0.0
C983 C 0.33107 0.91041 0.96404 0.0
C984 C 0.3183 0.94074 0.98526 0.0
C985 C 0.31411 0.92367 0.97111 0.0
C986 C 0.35659 0.93097 0.98572 0.0
C987 C 0.37784 0.02653 0.96516 0.0
C988 C 0.34393 0.96261 1.00766 0.0
C989 C 0.40668 0.98538 0.08239 0.0
C990 C 0.42399 0.98604 0.06766 0.0
C991 C 0.33342 1.01092 0.95528 0.0
C992 C 0.34983 0.1098 1.00084 0.0
C993 C 0.35271 0.13868 0.02697 0.0
C994 C 0.37355 0.13184 0.0324 0.0
C995 C 0.37216 0.10609 1.00348 0.0
C996 C 0.34 0.12656 1.01249 0.0
C997 C 0.38365 0.11685 1.0194 0.0
C998 C 0.33617 0.04313 0.04412 0.0
C999 C 0.33718 0.09539 0.98688 0.0
H1000 H 0.32752 0.89718 0.95311 0.0
H1001 H 0.30486 0.95076 0.99062 0.0
H1002 H 0.29765 0.92066 0.96565 0.0
H1003 H 0.37309 0.9335 0.9914 0.0
H1004 H 0.38332 0.14128 0.04353 0.0
H1005 H 0.3807 0.09503 0.99313 0.0
H1006 H 0.32343 0.13137 1.0088 0.0
H1007 H 0.40071 0.11524 1.02054 0.0
Eu1008 Eu 0.74127 0.30664 0.95868 0.0
C1009 C 0.8036 0.23349 0.96254 0.0
N1010 N 0.79673 0.24358 0.94427 0.0
C1011 C 0.83168 0.23864 0.92777 0.0
C1012 C 0.82511 0.22559 0.96407 0.0
C1013 C 0.81026 0.24622 0.92694 0.0
C1014 C 0.83912 0.22821 0.94638 0.0
C1015 C 0.79646 0.22192 0.99935 0.0
C1016 C 0.7894 0.23202 0.98012 0.0
C1017 C 0.81781 0.21386 1.00082 0.0
C1018 C 0.83209 0.21573 0.98327 0.0
Eu1019 Eu 0.75998 0.25406 0.94365 0.0
N1020 N 0.76887 0.2404 0.97849 0.0
C1021 C 0.78182 0.22006 1.01657 0.0
C1022 C 0.75444 0.23823 0.99518 0.0
C1023 C 0.76071 0.22811 1.01441 0.0
H1024 H 0.80441 0.25411 0.91247 0.0
H1025 H 0.74927 0.22665 0.02764 0.0
H1026 H 0.70703 0.29269 0.9985 0.0
H1027 H 0.74624 0.38571 0.91845 0.0
H1028 H 0.73809 0.2444 0.99402 0.0
H1029 H 0.78662 0.21236 0.03156 0.0
H1030 H 0.76061 0.35082 0.93149 0.0
H1031 H 0.84239 0.24074 0.91403 0.0
H1032 H 0.82346 0.20614 1.01551 0.0
H1033 H 0.84855 0.20957 0.98475 0.0
H1034 H 0.6706 0.3031 1.01189 0.0
H1035 H 0.85576 0.22239 0.94698 0.0
H1036 H 0.70904 0.39677 0.92648 0.0
N1037 N 0.70961 0.31932 0.9769 0.0
C1038 C 0.7002 0.3375 0.96936 0.0
C1039 C 0.67872 0.31298 0.99993 0.0
C1040 C 0.67914 0.34376 0.97599 0.0
C1041 C 0.69947 0.3073 0.99251 0.0
C1042 C 0.66833 0.33111 0.99135 0.0
N1043 N 0.73243 0.34338 0.95001 0.0
C1044 C 0.74458 0.35578 0.93634 0.0
C1045 C 0.70279 0.36912 0.94688 0.0
C1046 C 0.71197 0.34996 0.95531 0.0
C1047 C 0.71534 0.38183 0.93317 0.0
C1048 C 0.73643 0.37537 0.92833 0.0
H1049 H 0.65212 0.33533 0.99684 0.0
H1050 H 0.65327 0.36722 0.9716 0.0
H1051 H 0.67402 0.38946 0.94582 0.0
O1052 O 0.74483 0.31273 0.99292 0.0
O1053 O 0.72211 0.29647 0.92804 0.0
O1054 O 0.73675 0.2637 0.91803 0.0
O1055 O 0.75521 0.28182 0.97955 0.0
O1056 O 0.76296 0.31305 0.93043 0.0
O1057 O 0.7689 0.27885 0.91624 0.0
O1058 O 0.75191 0.21934 0.94381 0.0
O1059 O 0.78996 0.27547 0.95535 0.0
O1060 O 0.78045 0.3116 0.95686 0.0
O1061 O 0.76534 0.23411 0.91512 0.0
O1062 O 0.72355 0.25179 0.95948 0.0
O1063 O 0.71027 0.2859 0.95514 0.0
C1064 C 0.72358 0.2798 0.9147 0.0
C1065 C 0.77759 0.29902 1.00626 0.0
C1066 C 0.8086 0.32357 1.00954 0.0
C1067 C 0.82035 0.30737 1.02036 0.0
C1068 C 0.78952 0.28287 1.01682 0.0
C1069 C 0.81067 0.2872 0.02422 0.0
C1070 C 0.78693 0.31955 1.00394 0.0
C1071 C 0.76993 0.30037 0.91491 0.0
C1072 C 0.75606 0.29502 0.99624 0.0
C1073 C 0.66961 0.36236 0.9671 0.0
C1074 C 0.68142 0.37501 0.95248 0.0
C1075 C 0.79617 0.29612 0.9577 0.0
C1076 C 0.7665 0.19571 0.91656 0.0
C1077 C 0.75806 0.15938 0.90396 0.0
C1078 C 0.77921 0.15749 0.89556 0.0
C1079 C 0.78771 0.19357 0.90831 0.0
C1080 C 0.75194 0.17837 0.91475 0.0
C1081 C 0.79405 0.17443 0.89804 0.0
C1082 C 0.70635 0.26542 0.95967 0.0
C1083 C 0.75777 0.21661 0.92381 0.0
H1084 H 0.83712 0.30997 0.02508 0.0
H1085 H 0.78262 0.26705 1.01926 0.0
H1086 H 0.81987 0.27463 0.03225 0.0
H1087 H 0.7775 0.33244 0.99669 0.0
H1088 H 0.78413 0.14303 0.88694 0.0
H1089 H 0.79909 0.20684 0.90912 0.0
H1090 H 0.73534 0.18017 0.9205 0.0
H1091 H 0.8103 0.17296 0.89142 0.0
Eu1092 Eu 0.04168 0.51349 0.20564 0.0
C1093 C 1.00549 0.46715 0.27465 0.0
N1094 N 0.99337 0.46391 0.25662 0.0
C1095 C 0.98049 0.43013 0.2706 0.0
C1096 C 1.00556 0.4518 0.29152 0.0
C1097 C 0.98099 0.44573 0.25428 0.0
C1098 C 0.99277 0.4332 0.28934 0.0
C1099 C 0.03187 0.48876 0.29413 0.0
C1100 C 1.0185 0.48542 0.27582 0.0
C1101 C 0.03166 0.47375 0.31115 0.0
C1102 C 1.01856 0.4553 0.30983 0.0
Eu1103 Eu 0.99437 0.49109 0.22993 0.0
N1104 N 1.01873 0.49947 0.25884 0.0
C1105 C 0.04537 0.50691 0.29467 0.0
C1106 C 0.03228 0.51678 0.25928 0.0
C1107 C 0.04565 0.52093 0.27709 0.0
H1108 H 0.97165 0.44325 0.23968 0.0
H1109 H 0.05635 0.53481 0.27712 0.0
H1110 H 0.05385 0.55481 0.24118 0.0
H1111 H 0.05093 0.51408 0.11709 0.0
H1112 H 0.03321 0.52709 0.24573 0.0
H1113 H 0.05587 0.51004 0.3084 0.0
H1114 H 0.0459 0.4978 0.1527 0.0
H1115 H 0.97068 0.41573 0.2687 0.0
H1116 H 0.04179 0.47612 0.32529 0.0
H1117 H 1.01878 0.44373 0.32297 0.0
H1118 H 0.05976 0.5939 0.23998 0.0
H1119 H 0.99243 0.42104 0.30194 0.0
H1120 H 0.05492 0.55363 0.11381 0.0
N1121 N 0.04826 0.55157 0.20718 0.0
C1122 C 0.05038 0.56148 0.18758 0.0
C1123 C 0.05677 0.58506 0.22517 0.0
C1124 C 0.05423 0.58399 0.18628 0.0
C1125 C 0.05315 0.56279 0.22575 0.0
C1126 C 0.05682 0.59579 0.20539 0.0
N1127 N 0.04796 0.52714 0.17014 0.0
C1128 C 0.04856 0.51475 0.15183 0.0
C1129 C 0.05274 0.55917 0.14834 0.0
C1130 C 0.05003 0.54905 0.1687 0.0
C1131 C 0.05301 0.54642 0.12967 0.0
C1132 C 0.05094 0.52411 0.13145 0.0
H1133 H 0.05983 0.61305 0.205 0.0
H1134 H 0.05904 0.61125 0.16482 0.0
H1135 H 0.05744 0.58958 0.13165 0.0
O1136 O 0.07518 0.51553 0.19451 0.0
O1137 O 1.01479 0.51033 0.17936 0.0
O1138 O 0.98519 0.51201 0.20117 0.0
O1139 O 0.06776 0.51669 0.22928 0.0
O1140 O 0.0389 0.48189 0.18885 0.0
O1141 O 1.00441 0.47021 0.19879 0.0
O1142 O 0.96233 0.48004 0.21919 0.0
O1143 O 1.01607 0.46071 0.22881 0.0
O1144 O 0.04802 0.47962 0.22682 0.0
O1145 O 0.9664 0.49162 0.25167 0.0
O1146 O 0.9925 0.52936 0.23831 0.0
O1147 O 1.01736 0.54193 0.21424 0.0
C1148 C 0.99359 0.51261 0.18181 0.0
C1149 C 0.10451 0.50983 0.21932 0.0
C1150 C 0.13724 0.48984 0.21 0.0
C1151 C 0.14753 0.49821 0.22852 0.0
C1152 C 0.11499 0.51802 0.23775 0.0
C1153 C 0.13641 0.51222 0.24231 0.0
C1154 C 0.1157 0.49578 0.20539 0.0
C1155 C 1.02254 0.46846 0.18655 0.0
C1156 C 0.08272 0.51788 0.21421 0.0
C1157 C 0.05627 0.59399 0.16603 0.0
C1158 C 0.05545 0.58164 0.14714 0.0
C1159 C 0.03739 0.46054 0.23094 0.0
C1160 C 0.93504 0.50191 0.23377 0.0
C1161 C 0.9242 0.53782 0.22269 0.0
C1162 C 0.90271 0.53326 0.22909 0.0
C1163 C 0.91368 0.49732 0.24018 0.0
C1164 C 0.94015 0.52229 0.22532 0.0
C1165 C 0.89751 0.51309 0.23789 0.0
C1166 C 1.00149 0.54634 0.22812 0.0
C1167 C 0.95256 0.48629 0.23678 0.0
H1168 H 0.16428 0.49412 0.23218 0.0
H1169 H 0.10669 0.52924 0.24843 0.0
H1170 H 0.14447 0.51875 0.25643 0.0
H1171 H 0.10773 0.48947 0.19107 0.0
H1172 H 0.89005 0.5453 0.22727 0.0
H1173 H 0.9096 0.48175 0.24709 0.0
H1174 H 0.95651 0.52641 0.22105 0.0
H1175 H 0.88099 0.5097 0.24294 0.0
Eu1176 Eu 0.80918 0.74876 0.47175 0.0
C1177 C 0.74496 0.81905 0.46067 0.0
N1178 N 0.75336 0.80618 0.4449 0.0
C1179 C 0.71915 0.80616 0.42623 0.0
C1180 C 0.72303 0.82578 0.45987 0.0
C1181 C 0.74092 0.79977 0.42772 0.0
C1182 C 0.71015 0.81921 0.44237 0.0
C1183 C 0.74982 0.83826 0.49453 0.0
C1184 C 0.75822 0.82497 0.47793 0.0
C1185 C 0.72795 0.84495 0.49381 0.0
C1186 C 0.71461 0.83873 0.47654 0.0
Eu1187 Eu 0.79055 0.79698 0.44809 0.0
N1188 N 0.77935 0.81816 0.47832 0.0
C1189 C 0.76373 0.84478 0.51119 0.0
C1190 C 0.79328 0.82569 0.49378 0.0
C1191 C 0.7856 0.83866 0.51068 0.0
H1192 H 0.74789 0.78971 0.41519 0.0
H1193 H 0.7966 0.84407 0.52322 0.0
H1194 H 0.84548 0.74631 0.51474 0.0
H1195 H 0.82347 0.68785 0.40943 0.0
H1196 H 0.81031 0.82151 0.4934 0.0
H1197 H 0.75787 0.85493 0.52426 0.0
H1198 H 0.81666 0.72369 0.42425 0.0
H1199 H 0.70933 0.80105 0.41262 0.0
H1200 H 0.72125 0.85511 0.50646 0.0
H1201 H 0.6978 0.84406 0.47621 0.0
H1202 H 0.85871 0.71976 0.54088 0.0
H1203 H 0.69325 0.8241 0.44118 0.0
H1204 H 0.82688 0.65632 0.43389 0.0
N1205 N 0.82697 0.72345 0.49617 0.0
C1206 C 0.82546 0.7021 0.49149 0.0
C1207 C 0.84876 0.71452 0.52743 0.0
C1208 C 0.83401 0.68608 0.50542 0.0
C1209 C 0.84067 0.72962 0.51267 0.0
C1210 C 0.84463 0.69262 0.52427 0.0
N1211 N 0.81629 0.71355 0.45716 0.0
C1212 C 0.8181 0.71039 0.43533 0.0
C1213 C 0.82349 0.67566 0.4629 0.0
C1214 C 0.82015 0.69691 0.47071 0.0
C1215 C 0.82378 0.67223 0.44057 0.0
C1216 C 0.82189 0.68989 0.42674 0.0
H1217 H 0.85158 0.68089 0.53529 0.0
H1218 H 0.84028 0.6518 0.50943 0.0
H1219 H 0.83114 0.64265 0.47183 0.0
O1220 O 0.81134 0.7585 0.5052 0.0
O1221 O 0.83124 0.75651 0.44253 0.0
O1222 O 0.81121 0.78097 0.42294 0.0
O1223 O 0.79545 0.77952 0.48324 0.0
O1224 O 0.78457 0.73801 0.44669 0.0
O1225 O 0.78362 0.76819 0.42494 0.0
O1226 O 0.80501 0.82879 0.4424 0.0
O1227 O 0.75952 0.77776 0.46271 0.0
O1228 O 0.77011 0.74323 0.47248 0.0
O1229 O 0.78346 0.8152 0.41856 0.0
O1230 O 0.82701 0.80024 0.46481 0.0
O1231 O 0.84215 0.76631 0.46815 0.0
C1232 C 0.82786 0.76799 0.42481 0.0
C1233 C 0.7874 0.78191 0.52154 0.0
C1234 C 0.76255 0.75828 0.53945 0.0
C1235 C 0.77211 0.7627 0.55951 0.0
C1236 C 0.797 0.78719 0.54151 0.0
C1237 C 0.78854 0.77838 0.5607 0.0
C1238 C 0.76749 0.7715 0.52187 0.0
C1239 C 0.78023 0.7472 0.42803 0.0
C1240 C 0.80192 0.777 0.50318 0.0
C1241 C 0.83418 0.66435 0.49882 0.0
C1242 C 0.829 0.65913 0.47741 0.0
C1243 C 0.7538 0.75774 0.46915 0.0
C1244 C 0.78734 0.8535 0.419 0.0
C1245 C 0.79657 0.89061 0.40911 0.0
C1246 C 0.77427 0.89558 0.40792 0.0
C1247 C 0.76513 0.85869 0.41791 0.0
C1248 C 0.80284 0.86942 0.41447 0.0
C1249 C 0.75867 0.87967 0.41234 0.0
C1250 C 0.84472 0.78761 0.46921 0.0
C1251 C 0.79531 0.83164 0.42396 0.0
H1252 H 0.76845 0.75282 0.5735 0.0
H1253 H 0.81235 0.79577 0.54204 0.0
H1254 H 0.79655 0.78151 0.57596 0.0
H1255 H 0.76013 0.76781 0.50678 0.0
H1256 H 0.7689 0.91177 0.40393 0.0
H1257 H 0.75284 0.84661 0.42117 0.0
H1258 H 0.81997 0.86512 0.41485 0.0
H1259 H 0.74153 0.88363 0.41148 0.0
Eu1260 Eu 0.96049 0.74541 0.30182 0.0
C1261 C 0.9636 0.8056 0.22694 0.0
N1262 N 0.94486 0.79947 0.23699 0.0
C1263 C 0.92907 0.83435 0.23085 0.0
C1264 C 0.96568 0.82665 0.21846 0.0
C1265 C 0.92773 0.81342 0.23921 0.0
C1266 C 0.94804 0.84093 0.22027 0.0
C1267 C 1.00151 0.79824 0.21843 0.0
C1268 C 0.98146 0.79146 0.22723 0.0
C1269 C 1.00328 0.81886 0.20904 0.0
C1270 C 0.98546 0.83301 0.2091 0.0
Eu1271 Eu 0.9435 0.7628 0.24702 0.0
N1272 N 0.97957 0.7717 0.23708 0.0
C1273 C 1.01938 0.78427 0.21967 0.0
C1274 C 0.99702 0.7581 0.23836 0.0
C1275 C 1.01715 0.76422 0.22977 0.0
H1276 H 0.91302 0.80821 0.2473 0.0
H1277 H 0.03097 0.75341 0.23088 0.0
H1278 H 0.98822 0.6992 0.3057 0.0
H1279 H 0.91924 0.78755 0.36952 0.0
H1280 H 0.99569 0.74257 0.24608 0.0
H1281 H 0.03505 0.78891 0.21309 0.0
H1282 H 0.94026 0.78551 0.3363 0.0
H1283 H 0.91547 0.84537 0.23253 0.0
H1284 H 1.01854 0.82422 0.20209 0.0
H1285 H 0.9873 0.84905 0.2023 0.0
H1286 H 0.98829 0.666 0.32765 0.0
H1287 H 0.94905 0.85723 0.21395 0.0
H1288 H 0.91337 0.755 0.39179 0.0
N1289 N 0.96556 0.71578 0.32585 0.0
C1290 C 0.9538 0.71511 0.34429 0.0
C1291 C 0.97842 0.67966 0.33253 0.0
C1292 C 0.95337 0.6965 0.35746 0.0
C1293 C 0.97825 0.69853 0.32008 0.0
C1294 C 0.96566 0.67852 0.35117 0.0
N1295 N 0.94532 0.75118 0.33766 0.0
C1296 C 0.93766 0.77071 0.34508 0.0
C1297 C 0.93171 0.73424 0.37025 0.0
C1298 C 0.94323 0.73354 0.35047 0.0
C1299 C 0.92245 0.75378 0.37682 0.0
C1300 C 0.9257 0.77215 0.36427 0.0
H1301 H 0.96577 0.66389 0.36079 0.0
H1302 H 0.94023 0.68242 0.38679 0.0
H1303 H 0.92112 0.71563 0.39802 0.0
O1304 O 0.99408 0.74169 0.31294 0.0
O1305 O 0.93447 0.72152 0.28775 0.0
O1306 O 0.91872 0.73855 0.2584 0.0
O1307 O 0.98752 0.76097 0.28456 0.0
O1308 O 0.93441 0.7707 0.30151 0.0
O1309 O 0.91458 0.76541 0.27148 0.0
O1310 O 0.94367 0.75329 0.21239 0.0
O1311 O 0.95761 0.79286 0.26689 0.0
O1312 O 0.96013 0.78456 0.30281 0.0
O1313 O 0.91672 0.77186 0.22599 0.0
O1314 O 0.9598 0.72725 0.244 0.0
O1315 O 0.96376 0.71498 0.27893 0.0
C1316 C 0.91918 0.72285 0.27255 0.0
C1317 C 1.00543 0.77758 0.31433 0.0
C1318 C 0.99268 0.79959 0.34498 0.0
C1319 C 1.00458 0.81722 0.33697 0.0
C1320 C 1.0173 0.79524 0.30652 0.0
C1321 C 1.01725 0.81482 0.31814 0.0
C1322 C 0.99402 0.77993 0.33392 0.0
C1323 C 0.91555 0.76956 0.29241 0.0
C1324 C 1.00039 0.75807 0.30124 0.0
C1325 C 0.94105 0.69663 0.3766 0.0
C1326 C 0.93019 0.71552 0.38298 0.0
C1327 C 0.96161 0.7995 0.28702 0.0
C1328 C 0.91429 0.76461 0.18784 0.0
C1329 C 0.90619 0.74984 0.15218 0.0
C1330 C 0.89145 0.76687 0.14864 0.0
C1331 C 0.89955 0.78156 0.18395 0.0
C1332 C 0.9178 0.74893 0.17177 0.0
C1333 C 0.88829 0.7827 0.16441 0.0
C1334 C 0.96473 0.71098 0.25778 0.0
C1335 C 0.92526 0.76314 0.20894 0.0
H1336 H 1.00424 0.83265 0.34525 0.0
H1337 H 0.02585 0.79416 0.29123 0.0
H1338 H 0.02638 0.82848 0.31205 0.0
H1339 H 0.98441 0.76659 0.3398 0.0
H1340 H 0.88248 0.768 0.1336 0.0
H1341 H 0.8967 0.79394 0.19604 0.0
H1342 H 0.92896 0.73567 0.17477 0.0
H1343 H 0.87697 0.79581 0.16153 0.0
Eu1344 Eu 0.61104 0.28379 0.73965 0.0
C1345 C 0.54426 0.32245 0.7973 0.0
N1346 N 0.56448 0.32665 0.80487 0.0
C1347 C 0.55063 0.35628 0.82583 0.0
C1348 C 0.52615 0.33465 0.80427 0.0
C1349 C 0.56805 0.34381 0.81832 0.0
C1350 C 0.52951 0.35147 0.81905 0.0
C1351 C 0.52153 0.30362 0.77153 0.0
C1352 C 0.54206 0.30721 0.78117 0.0
C1353 C 0.50317 0.31474 0.7793 0.0
C1354 C 0.50549 0.33028 0.79563 0.0
Eu1355 Eu 0.59305 0.30376 0.79332 0.0
N1356 N 0.56029 0.29736 0.77358 0.0
C1357 C 0.52025 0.28974 0.75373 0.0
C1358 C 0.55921 0.28529 0.75522 0.0
C1359 C 0.53929 0.28085 0.74527 0.0
H1360 H 0.58436 0.34797 0.82329 0.0
H1361 H 0.53871 0.27085 0.7309 0.0
H1362 H 0.577 0.24354 0.72364 0.0
H1363 H 0.69927 0.28844 0.72515 0.0
H1364 H 0.57368 0.27936 0.74805 0.0
H1365 H 0.50483 0.28655 0.74585 0.0
H1366 H 0.66258 0.30326 0.73095 0.0
H1367 H 0.55351 0.36967 0.83674 0.0
H1368 H 0.48727 0.31204 0.77224 0.0
H1369 H 0.49134 0.33931 0.80094 0.0
H1370 H 0.57945 0.20463 0.71459 0.0
H1371 H 0.51604 0.36126 0.82475 0.0
H1372 H 0.70461 0.24902 0.72158 0.0
N1373 N 0.61095 0.24673 0.7298 0.0
C1374 C 0.63101 0.23758 0.72765 0.0
C1375 C 0.59402 0.21363 0.7185 0.0
C1376 C 0.63313 0.21544 0.72237 0.0
C1377 C 0.59271 0.23562 0.72354 0.0
C1378 C 0.61427 0.20336 0.71846 0.0
N1379 N 0.64708 0.2724 0.73166 0.0
C1380 C 0.66456 0.28599 0.72961 0.0
C1381 C 0.67033 0.24164 0.72507 0.0
C1382 C 0.64951 0.25067 0.72872 0.0
C1383 C 0.6884 0.25538 0.72434 0.0
C1384 C 0.68545 0.27766 0.72628 0.0
H1385 H 0.61525 0.18634 0.7144 0.0
H1386 H 0.65581 0.18926 0.71633 0.0
H1387 H 0.68834 0.21212 0.71887 0.0
O1388 O 0.62246 0.28553 0.70667 0.0
O1389 O 0.63842 0.28231 0.7649 0.0
O1390 O 0.61645 0.27595 0.79351 0.0
O1391 O 0.58705 0.28433 0.71276 0.0
O1392 O 0.62782 0.31567 0.74474 0.0
O1393 O 0.62408 0.32211 0.78143 0.0
O1394 O 0.5851 0.29939 0.82767 0.0
O1395 O 0.58759 0.33409 0.77193 0.0
O1396 O 0.59286 0.31907 0.73805 0.0
O1397 O 0.61308 0.31836 0.81852 0.0
O1398 O 0.58252 0.26641 0.79302 0.0
O1399 O 0.59691 0.25393 0.76091 0.0
C1400 C 0.63574 0.27606 0.78494 0.0
C1401 C 0.59972 0.2866 0.67511 0.0
C1402 C 0.61407 0.29833 0.64013 0.0
C1403 C 0.59827 0.28542 0.62983 0.0
C1404 C 0.5839 0.27419 0.66459 0.0
C1405 C 0.58317 0.27368 0.64201 0.0
C1406 C 0.61432 0.29899 0.66289 0.0
C1407 C 0.63328 0.32613 0.76239 0.0
C1408 C 0.6029 0.28487 0.69857 0.0
C1409 C 0.65392 0.20628 0.72005 0.0
C1410 C 0.67246 0.21933 0.72145 0.0
C1411 C 0.58692 0.33623 0.75061 0.0
C1412 C 0.61579 0.29979 0.85148 0.0
C1413 C 0.63106 0.26769 0.86944 0.0
C1414 C 0.64178 0.28167 0.88405 0.0
C1415 C 0.62559 0.31302 0.86701 0.0
C1416 C 0.61895 0.2774 0.85241 0.0
C1417 C 0.63883 0.304 0.88294 0.0
C1418 C 0.58653 0.24969 0.77954 0.0
C1419 C 0.60233 0.30973 0.83441 0.0
H1420 H 0.59775 0.28401 0.61239 0.0
H1421 H 0.57265 0.26432 0.67379 0.0
H1422 H 0.5712 0.26373 0.63391 0.0
H1423 H 0.62597 0.30904 0.67133 0.0
H1424 H 0.65198 0.27569 0.89692 0.0
H1425 H 0.62335 0.33039 0.86655 0.0
H1426 H 0.61078 0.26798 0.84023 0.0
H1427 H 0.64675 0.31438 0.89464 0.0
Eu1428 Eu 0.55828 0.55363 0.71537 0.0
C1429 C 0.4918 0.4861 0.72408 0.0
N1430 N 0.5013 0.49304 0.7054 0.0
C1431 C 0.50095 0.45701 0.69104 0.0
C1432 C 0.48665 0.46407 0.72687 0.0
C1433 C 0.50588 0.47894 0.68892 0.0
C1434 C 0.49115 0.44956 0.71001 0.0
C1435 C 0.48098 0.4935 0.76115 0.0
C1436 C 0.4893 0.50082 0.74119 0.0
C1437 C 0.47493 0.47172 0.7636 0.0
C1438 C 0.47779 0.45707 0.74655 0.0
Eu1439 Eu 0.50528 0.53093 0.70264 0.0
N1440 N 0.49576 0.52189 0.73864 0.0
C1441 C 0.47918 0.50821 0.77825 0.0
C1442 C 0.49393 0.53625 0.75532 0.0
C1443 C 0.48576 0.52959 0.77534 0.0
H1444 H 0.5133 0.48478 0.67417 0.0
H1445 H 0.48446 0.54102 0.78854 0.0
H1446 H 0.55652 0.59264 0.75251 0.0
H1447 H 0.62903 0.53343 0.66417 0.0
H1448 H 0.49881 0.55284 0.75348 0.0
H1449 H 0.47287 0.50318 0.79382 0.0
H1450 H 0.597 0.52546 0.68603 0.0
H1451 H 0.50463 0.44587 0.67802 0.0
H1452 H 0.46838 0.46593 0.7788 0.0
H1453 H 0.47352 0.44024 0.74891 0.0
H1454 H 0.57219 0.629 0.75846 0.0
H1455 H 0.48747 0.43251 0.71162 0.0
H1456 H 0.64466 0.57017 0.66396 0.0
N1457 N 0.57733 0.58528 0.72605 0.0
C1458 C 0.59426 0.59179 0.7138 0.0
C1459 C 0.57855 0.61873 0.74576 0.0
C1460 C 0.60365 0.61241 0.71636 0.0
C1461 C 0.5698 0.5981 0.74242 0.0
C1462 C 0.5953 0.6261 0.73238 0.0
N1463 N 0.59375 0.55728 0.69893 0.0
C1464 C 0.60349 0.54152 0.68674 0.0
C1465 C 0.62128 0.58259 0.68708 0.0
C1466 C 0.60284 0.57719 0.6996 0.0
C1467 C 0.63056 0.56672 0.67392 0.0
C1468 C 0.62185 0.54598 0.67409 0.0
H1469 H 0.60198 0.64211 0.73485 0.0
H1470 H 0.62845 0.63436 0.70451 0.0
H1471 H 0.64394 0.60811 0.6787 0.0
O1472 O 0.57214 0.55031 0.74743 0.0
O1473 O 0.54337 0.57508 0.68844 0.0
O1474 O 0.51171 0.55763 0.67845 0.0
O1475 O 0.53888 0.53949 0.74132 0.0
O1476 O 0.56055 0.52996 0.68794 0.0
O1477 O 0.52728 0.52966 0.67194 0.0
O1478 O 0.46966 0.53489 0.70335 0.0
O1479 O 0.52931 0.50415 0.71702 0.0
O1480 O 0.56415 0.51529 0.71121 0.0
O1481 O 0.48497 0.51664 0.67788 0.0
O1482 O 0.49946 0.56684 0.71758 0.0
O1483 O 0.53342 0.58252 0.71991 0.0
C1484 C 0.52598 0.57326 0.67585 0.0
C1485 C 0.56139 0.51784 0.76413 0.0
C1486 C 0.58539 0.48594 0.76448 0.0
C1487 C 0.57201 0.47682 0.78051 0.0
C1488 C 0.54777 0.50788 0.77926 0.0
C1489 C 0.55331 0.48764 0.78769 0.0
C1490 C 0.58044 0.50705 0.75739 0.0
C1491 C 0.54867 0.52784 0.67072 0.0
C1492 C 0.55558 0.53904 0.75462 0.0
C1493 C 0.62124 0.61844 0.70314 0.0
C1494 C 0.63005 0.60352 0.68846 0.0
C1495 C 0.55025 0.49899 0.71566 0.0
C1496 C 0.44977 0.52904 0.67033 0.0
C1497 C 0.41838 0.55026 0.65951 0.0
C1498 C 0.41537 0.53654 0.64161 0.0
C1499 C 0.44645 0.51537 0.65243 0.0
C1500 C 0.43573 0.54659 0.67376 0.0
C1501 C 0.42942 0.51922 0.6381 0.0
C1502 C 0.51188 0.58445 0.72191 0.0
C1503 C 0.46676 0.52331 0.68598 0.0
H1504 H 0.57564 0.46118 0.78728 0.0
H1505 H 0.533 0.5158 0.78465 0.0
H1506 H 0.5429 0.48014 0.79964 0.0
H1507 H 0.59123 0.51513 0.74619 0.0
H1508 H 0.40228 0.53936 0.63022 0.0
H1509 H 0.45689 0.5015 0.64969 0.0
H1510 H 0.43795 0.55707 0.68765 0.0
H1511 H 0.427 0.50866 0.62433 0.0
Eu1512 Eu 0.98404 0.32508 0.05194 0.0
C1513 C 0.0529 0.3322 0.98567 0.0
N1514 N 0.04701 0.35127 0.99488 0.0
C1515 C 0.08232 0.36616 0.98726 0.0
C1516 C 0.07389 0.32952 0.97666 0.0
C1517 C 0.06146 0.36812 0.99603 0.0
C1518 C 0.08851 0.34686 0.97735 0.0
C1519 C 0.04477 0.29463 0.97795 0.0
C1520 C 0.03843 0.31487 0.98658 0.0
C1521 C 0.06535 0.29218 0.96833 0.0
C1522 C 0.07987 0.30955 0.96773 0.0
Eu1523 Eu 1.01059 0.35365 1.00743 0.0
N1524 N 1.01862 0.31751 0.9964 0.0
C1525 C 0.03036 0.27727 0.97943 0.0
C1526 C 1.0047 0.30044 0.9978 0.0
C1527 C 1.0103 0.28018 0.98948 0.0
H1528 H 0.05709 0.38297 1.00417 0.0
H1529 H 0.99907 0.26678 0.99083 0.0
H1530 H 0.95627 0.28082 0.03828 0.0
H1531 H 0.95327 0.39262 0.10138 0.0
H1532 H 0.98935 0.30196 1.00549 0.0
H1533 H 0.03464 0.26151 0.97302 0.0
H1534 H 0.97702 0.37467 0.07579 0.0
H1535 H 0.09366 0.37951 0.98825 0.0
H1536 H 0.07034 0.27678 0.96158 0.0
H1537 H 0.09584 0.30727 0.96061 0.0
H1538 H 0.92346 0.26061 0.04944 0.0
H1539 H 0.10475 0.34536 0.97066 0.0
H1540 H 0.9248 0.37202 0.12048 0.0
N1541 N 0.95185 0.30586 0.06143 0.0
C1542 C 0.93966 0.31348 0.07807 0.0
C1543 C 0.92776 0.2755 0.05759 0.0
C1544 C 0.92095 0.30231 0.08518 0.0
C1545 C 0.94609 0.28714 0.05108 0.0
C1546 C 0.91518 0.28305 0.0748 0.0
N1547 N 0.96341 0.34336 0.07971 0.0
C1548 C 0.96548 0.36493 0.08415 0.0
C1549 C 0.93178 0.3424 0.10314 0.0
C1550 C 0.94561 0.33281 0.08751 0.0
C1551 C 0.93541 0.36384 0.10909 0.0
C1552 C 0.95163 0.37543 0.09864 0.0
H1553 H 0.90095 0.27401 0.07981 0.0
H1554 H 0.89406 0.30245 0.1079 0.0
H1555 H 0.90318 0.33799 0.12319 0.0
O1556 O 0.98172 0.2985 0.07435 0.0
O1557 O 0.96394 0.35416 0.03843 0.0
O1558 O 0.99113 0.37635 0.02728 0.0
O1559 O 1.00026 0.29447 0.04425 0.0
O1560 O 1.00559 0.34836 0.06947 0.0
O1561 O 1.01691 0.37073 0.04127 0.0
O1562 O 1.00486 0.36241 0.97347 0.0
O1563 O 0.04122 0.34326 0.02709 0.0
O1564 O 1.02395 0.32242 0.05242 0.0
O1565 O 1.01902 0.38549 0.99509 0.0
O1566 O 0.97419 0.34171 0.99546 0.0
O1567 O 0.96144 0.32025 1.02282 0.0
C1568 C 0.97098 0.3735 0.03267 0.0
C1569 C 1.01458 0.28117 0.07715 0.0
C1570 C 0.03953 0.29361 0.10463 0.0
C1571 C 0.05059 0.27375 0.10385 0.0
C1572 C 1.02536 0.26122 0.07616 0.0
C1573 C 0.0434 0.25753 0.08962 0.0
C1574 C 1.02169 0.29701 0.09159 0.0
C1575 C 1.01527 0.36597 0.06247 0.0
C1576 C 0.99591 0.28675 0.06368 0.0
C1577 C 0.90837 0.31087 0.1021 0.0
C1578 C 0.91368 0.33099 0.11095 0.0
C1579 C 0.0428 0.32971 0.04346 0.0
C1580 C 0.99786 0.3996 0.9665 0.0
C1581 C 0.97808 0.41411 0.9354 0.0
C1582 C 0.97471 0.43348 0.94693 0.0
C1583 C 0.99398 0.41898 0.97779 0.0
C1584 C 0.98972 0.39725 0.94544 0.0
C1585 C 0.98247 0.43577 0.968 0.0
C1586 C 0.95821 0.32893 1.00364 0.0
C1587 C 1.0114 0.38223 0.97588 0.0
H1588 H 0.06455 0.27086 0.11414 0.0
H1589 H 1.02001 0.24877 0.06504 0.0
H1590 H 0.05192 0.24222 0.08891 0.0
H1591 H 1.01343 0.3125 0.0926 0.0
H1592 H 0.96622 0.44698 0.93965 0.0
H1593 H 1.00004 0.42133 0.99407 0.0
H1594 H 0.99235 0.38211 0.937 0.0
H1595 H 0.97971 0.45071 0.97673 0.0
Eu1596 Eu 0.53911 0.69218 0.50032 0.0
C1597 C 0.57654 0.7656 0.54505 0.0
N1598 N 0.58061 0.74718 0.55616 0.0
C1599 C 0.61067 0.7641 0.57418 0.0
C1600 C 0.5893 0.78427 0.54832 0.0
C1601 C 0.59768 0.74598 0.57025 0.0
C1602 C 0.60631 0.78343 0.56336 0.0
C1603 C 0.55752 0.78339 0.51581 0.0
C1604 C 0.56081 0.76513 0.52911 0.0
C1605 C 0.56942 0.80238 0.51965 0.0
C1606 C 0.58527 0.80283 0.5359 0.0
Eu1607 Eu 0.55629 0.71818 0.55093 0.0
N1608 N 0.54993 0.74633 0.52553 0.0
C1609 C 0.54305 0.78173 0.49848 0.0
C1610 C 0.53682 0.7444 0.50803 0.0
C1611 C 0.533 0.762 0.4943 0.0
H1612 H 0.60125 0.73102 0.57853 0.0
H1613 H 0.52258 0.76036 0.48031 0.0
H1614 H 0.5011 0.73047 0.48403 0.0
H1615 H 0.53438 0.6042 0.49058 0.0
H1616 H 0.52989 0.72916 0.5045 0.0
H1617 H 0.54018 0.7953 0.48777 0.0
H1618 H 0.55263 0.63907 0.49647 0.0
H1619 H 0.62409 0.76312 0.58548 0.0
H1620 H 0.56695 0.81659 0.50971 0.0
H1621 H 0.5948 0.81737 0.53827 0.0
H1622 H 0.46262 0.73157 0.47401 0.0
H1623 H 0.61653 0.79739 0.56627 0.0
H1624 H 0.49497 0.60322 0.48287 0.0
N1625 N 0.50209 0.69633 0.48884 0.0
C1626 C 0.49116 0.67735 0.48583 0.0
C1627 C 0.47036 0.71625 0.47755 0.0
C1628 C 0.46896 0.67737 0.47973 0.0
C1629 C 0.49229 0.71554 0.48342 0.0
C1630 C 0.45854 0.69712 0.47607 0.0
N1631 N 0.52396 0.65783 0.4926 0.0
C1632 C 0.53549 0.63892 0.49319 0.0
C1633 C 0.49124 0.63801 0.48427 0.0
C1634 C 0.50229 0.65773 0.4879 0.0
C1635 C 0.50292 0.61862 0.48553 0.0
C1636 C 0.52517 0.61911 0.48983 0.0
H1637 H 0.44155 0.69774 0.4714 0.0
H1638 H 0.44086 0.65754 0.47237 0.0
H1639 H 0.4603 0.62314 0.47646 0.0
O1640 O 0.54685 0.67698 0.46959 0.0
O1641 O 0.53537 0.66745 0.52796 0.0
O1642 O 0.53329 0.69041 0.55714 0.0
O1643 O 0.54138 0.71192 0.47094 0.0
O1644 O 0.56805 0.67294 0.51154 0.0
O1645 O 0.57529 0.68593 0.546 0.0
O1646 O 0.55005 0.73695 0.58022 0.0
O1647 O 0.58834 0.7173 0.53148 0.0
O1648 O 0.57395 0.71202 0.49763 0.0
O1649 O 0.56808 0.70716 0.58233 0.0
O1650 O 0.51827 0.72532 0.54908 0.0
O1651 O 0.50791 0.7034 0.52099 0.0
C1652 C 0.53168 0.6711 0.5487 0.0
C1653 C 0.53568 0.6936 0.43707 0.0
C1654 C 0.53931 0.68121 0.39985 0.0
C1655 C 0.51968 0.69151 0.39458 0.0
C1656 C 0.51607 0.70392 0.43164 0.0
C1657 C 0.508 0.70263 0.41052 0.0
C1658 C 0.54706 0.68207 0.42113 0.0
C1659 C 0.57835 0.67168 0.53009 0.0
C1660 C 0.5455 0.69502 0.45874 0.0
C1661 C 0.45792 0.65774 0.47684 0.0
C1662 C 0.469 0.63814 0.47914 0.0
C1663 C 0.59137 0.71718 0.51029 0.0
C1664 C 0.54272 0.71399 0.60934 0.0
C1665 C 0.50703 0.69966 0.61847 0.0
C1666 C 0.51429 0.69663 0.63989 0.0
C1667 C 0.54984 0.71054 0.63054 0.0
C1668 C 0.52134 0.70859 0.60342 0.0
C1669 C 0.53554 0.70201 0.64583 0.0
C1670 C 0.5023 0.71626 0.53751 0.0
C1671 C 0.55776 0.7221 0.59297 0.0
H1672 H 0.51353 0.69107 0.37817 0.0
H1673 H 0.50717 0.71322 0.44345 0.0
H1674 H 0.49287 0.71061 0.40641 0.0
H1675 H 0.56243 0.67437 0.42511 0.0
H1676 H 0.50335 0.69087 0.6523 0.0
H1677 H 0.56637 0.71445 0.63522 0.0
H1678 H 0.51562 0.71164 0.58721 0.0
H1679 H 0.54088 0.69965 0.66234 0.0
Eu1680 Eu 0.6953 0.49661 0.53437 0.0
C1681 C 0.76844 0.55009 0.56409 0.0
N1682 N 0.74926 0.55963 0.56912 0.0
C1683 C 0.76673 0.58096 0.59645 0.0
C1684 C 0.78782 0.55604 0.57478 0.0
C1685 C 0.74797 0.57445 0.58545 0.0
C1686 C 0.7868 0.57191 0.59091 0.0
C1687 C 0.78782 0.52189 0.54493 0.0
C1688 C 0.76836 0.53326 0.54939 0.0
C1689 C 0.80739 0.52847 0.55464 0.0
C1690 C 0.80738 0.5455 0.56958 0.0
Eu1691 Eu 0.71838 0.54919 0.54913 0.0
N1692 N 0.749 0.52686 0.54087 0.0
C1693 C 0.78688 0.50364 0.53164 0.0
C1694 C 0.74794 0.50812 0.52942 0.0
C1695 C 0.76674 0.49647 0.5242 0.0
H1696 H 0.73245 0.5813 0.58999 0.0
H1697 H 0.76564 0.48173 0.51484 0.0
H1698 H 0.72997 0.47711 0.49635 0.0
H1699 H 0.60672 0.48431 0.53786 0.0
H1700 H 0.73263 0.50172 0.52495 0.0
H1701 H 0.80141 0.49443 0.52786 0.0
H1702 H 0.64314 0.4907 0.5529 0.0
H1703 H 0.76567 0.59288 0.60923 0.0
H1704 H 0.82248 0.52003 0.55127 0.0
H1705 H 0.82246 0.54997 0.57748 0.0
H1706 H 0.72833 0.46247 0.45922 0.0
H1707 H 0.80131 0.57687 0.59955 0.0
H1708 H 0.60227 0.47683 0.49885 0.0
N1709 N 0.69599 0.48347 0.49824 0.0
C1710 C 0.6762 0.48034 0.48883 0.0
C1711 C 0.71358 0.46779 0.46721 0.0
C1712 C 0.6746 0.4725 0.46741 0.0
C1713 C 0.71447 0.4762 0.4882 0.0
C1714 C 0.69366 0.46665 0.45649 0.0
N1715 N 0.65946 0.488 0.52255 0.0
C1716 C 0.64156 0.4877 0.53581 0.0
C1717 C 0.6368 0.4788 0.49206 0.0
C1718 C 0.65746 0.483 0.50121 0.0
C1719 C 0.61837 0.47989 0.50532 0.0
C1720 C 0.62081 0.48403 0.52735 0.0
H1721 H 0.69307 0.46033 0.44015 0.0
H1722 H 0.65257 0.46388 0.44143 0.0
H1723 H 0.61946 0.46977 0.46291 0.0
O1724 O 0.68241 0.46496 0.54253 0.0
O1725 O 0.66843 0.52232 0.53578 0.0
O1726 O 0.68942 0.5503 0.52575 0.0
O1727 O 0.71746 0.4689 0.53865 0.0
O1728 O 0.67718 0.50681 0.56483 0.0
O1729 O 0.69138 0.54028 0.5737 0.0
O1730 O 0.73049 0.58152 0.54135 0.0
O1731 O 0.72367 0.52972 0.581 0.0
O1732 O 0.71728 0.49567 0.56735 0.0
O1733 O 0.70234 0.57783 0.56193 0.0
O1734 O 0.72387 0.54853 0.51112 0.0
O1735 O 0.708 0.51607 0.50213 0.0
C1736 C 0.66997 0.54228 0.52893 0.0
C1737 C 0.70245 0.43303 0.5358 0.0
C1738 C 0.69467 0.39533 0.54395 0.0
C1739 C 0.70083 0.38948 0.52292 0.0
C1740 C 0.70934 0.4269 0.51504 0.0
C1741 C 0.70834 0.40524 0.50859 0.0
C1742 C 0.69543 0.41708 0.55026 0.0
C1743 C 0.67782 0.52397 0.57744 0.0
C1744 C 0.70144 0.45567 0.54309 0.0
C1745 C 0.65405 0.46952 0.45797 0.0
C1746 C 0.63519 0.47281 0.47022 0.0
C1747 C 0.72401 0.50847 0.58395 0.0
C1748 C 0.6997 0.60333 0.53405 0.0
C1749 C 0.69547 0.62399 0.50103 0.0
C1750 C 0.67285 0.62332 0.5034 0.0
C1751 C 0.67771 0.60741 0.53868 0.0
C1752 C 0.7084 0.61109 0.51457 0.0
C1753 C 0.66423 0.61655 0.52304 0.0
C1754 C 0.71792 0.53456 0.49573 0.0
C1755 C 0.71314 0.59076 0.54928 0.0
H1756 H 0.7002 0.37274 0.51778 0.0
H1757 H 0.71551 0.43857 0.50382 0.0
H1758 H 0.71346 0.40067 0.49246 0.0
H1759 H 0.69025 0.42161 0.56642 0.0
H1760 H 0.66279 0.63324 0.49297 0.0
H1761 H 0.67111 0.60374 0.55443 0.0
H1762 H 0.72586 0.61048 0.512 0.0
H1763 H 0.64758 0.62035 0.52679 0.0
Eu1764 Eu 0.75515 0.46809 0.80195 0.0
C1765 C 0.8291 0.47635 0.74053 0.0
N1766 N 0.8204 0.45641 0.74361 0.0
C1767 C 0.82965 0.44619 0.70724 0.0
C1768 C 0.83879 0.48181 0.72055 0.0
C1769 C 0.8201 0.4415 0.72718 0.0
C1770 C 0.83928 0.46633 0.70399 0.0
C1771 C 0.83445 0.51304 0.75328 0.0
C1772 C 0.82665 0.49185 0.75678 0.0
C1773 C 0.84495 0.51822 0.73375 0.0
C1774 C 0.84708 0.50267 0.71745 0.0
Eu1775 Eu 0.80737 0.44928 0.77898 0.0
N1776 N 0.81595 0.48658 0.77549 0.0
C1777 C 0.83123 0.52858 0.76937 0.0
C1778 C 0.81285 0.50182 0.79113 0.0
C1779 C 0.82028 0.52297 0.78829 0.0
H1780 H 0.81235 0.42597 0.72948 0.0
H1781 H 0.81756 0.53497 0.80076 0.0
H1782 H 0.75911 0.50568 0.84176 0.0
H1783 H 0.67932 0.42125 0.78896 0.0
H1784 H 0.80431 0.49808 0.80571 0.0
H1785 H 0.83694 0.54501 0.76726 0.0
H1786 H 0.70929 0.44455 0.77768 0.0
H1787 H 0.82952 0.4343 0.69438 0.0
H1788 H 0.85113 0.53437 0.73094 0.0
H1789 H 0.85476 0.50708 0.7023 0.0
H1790 H 0.74872 0.50884 0.88028 0.0
H1791 H 0.84658 0.46997 0.68845 0.0
H1792 H 0.67222 0.41528 0.82786 0.0
N1793 N 0.74082 0.47693 0.83664 0.0
C1794 C 0.72607 0.46307 0.84495 0.0
C1795 C 0.74248 0.49567 0.87062 0.0
C1796 C 0.71996 0.46395 0.86691 0.0
C1797 C 0.74813 0.49395 0.84876 0.0
C1798 C 0.72888 0.48018 0.87994 0.0
N1799 N 0.72031 0.45154 0.80948 0.0
C1800 C 0.70661 0.44243 0.79458 0.0
C1801 C 0.69819 0.43653 0.83816 0.0
C1802 C 0.71539 0.44973 0.83079 0.0
C1803 C 0.68555 0.42562 0.82291 0.0
C1804 C 0.68942 0.42908 0.80098 0.0
H1805 H 0.72458 0.48149 0.89689 0.0
H1806 H 0.69987 0.4493 0.89174 0.0
H1807 H 0.68075 0.42509 0.86643 0.0
O1808 O 0.73528 0.49709 0.803 0.0
O1809 O 0.77026 0.43867 0.82079 0.0
O1810 O 0.7916 0.4216 0.79558 0.0
O1811 O 0.76684 0.49771 0.78659 0.0
O1812 O 0.74694 0.44089 0.77986 0.0
O1813 O 0.7793 0.42559 0.76807 0.0
O1814 O 0.8414 0.44463 0.78937 0.0
O1815 O 0.78801 0.46337 0.74925 0.0
O1816 O 0.7536 0.46905 0.76236 0.0
O1817 O 0.82716 0.42304 0.76639 0.0
O1818 O 0.81311 0.45915 0.8171 0.0
O1819 O 0.78109 0.47359 0.82937 0.0
C1820 C 0.78124 0.42144 0.8139 0.0
C1821 C 0.73645 0.51372 0.76911 0.0
C1822 C 0.7133 0.50172 0.73911 0.0
C1823 C 0.71744 0.5214 0.72858 0.0
C1824 C 0.74162 0.53256 0.75777 0.0
C1825 C 0.73146 0.53673 0.7379 0.0
C1826 C 0.72119 0.49936 0.76028 0.0
C1827 C 0.75755 0.42599 0.76933 0.0
C1828 C 0.74782 0.50727 0.78917 0.0
C1829 C 0.70437 0.44934 0.87479 0.0
C1830 C 0.6935 0.43557 0.86039 0.0
C1831 C 0.76764 0.46931 0.74539 0.0
C1832 C 0.85389 0.40806 0.78909 0.0
C1833 C 0.88307 0.39286 0.81103 0.0
C1834 C 0.87479 0.37203 0.80743 0.0
C1835 C 0.84562 0.38705 0.78589 0.0
C1836 C 0.8726 0.41081 0.80179 0.0
C1837 C 0.85607 0.3692 0.79501 0.0
C1838 C 0.80158 0.46837 0.83349 0.0
C1839 C 0.84395 0.42694 0.77827 0.0
H1840 H 0.71014 0.52494 0.71317 0.0
H1841 H 0.75329 0.54396 0.76424 0.0
H1842 H 0.73494 0.55161 0.7294 0.0
H1843 H 0.71631 0.48553 0.76981 0.0
H1844 H 0.88253 0.35803 0.81462 0.0
H1845 H 0.83121 0.38431 0.7762 0.0
H1846 H 0.87917 0.42688 0.80431 0.0
H1847 H 0.84962 0.35312 0.79244 0.0
Eu1848 Eu 0.82472 0.49789 0.05386 0.0
C1849 C 0.83699 0.56784 0.99023 0.0
N1850 N 0.85381 0.55689 0.99948 0.0
C1851 C 0.87454 0.55928 0.96673 0.0
C1852 C 0.83843 0.5749 0.9686 0.0
C1853 C 0.87242 0.55247 0.98817 0.0
C1854 C 0.85754 0.57065 0.95693 0.0
C1855 C 0.79977 0.58087 0.99227 0.0
C1856 C 0.81771 0.57043 1.00197 0.0
C1857 C 0.8014 0.58851 0.97092 0.0
C1858 C 0.82063 0.58548 0.95911 0.0
Eu1859 Eu 0.8493 0.5476 0.03612 0.0
N1860 N 0.81631 0.56236 1.02253 0.0
C1861 C 0.7806 0.58327 1.00424 0.0
C1862 C 0.79777 0.56521 0.03441 0.0
C1863 C 0.77963 0.57544 0.02537 0.0
H1864 H 0.88558 0.54373 0.99581 0.0
H1865 H 0.76487 0.57735 0.03476 0.0
H1866 H 0.78397 0.51525 0.08541 0.0
H1867 H 0.8609 0.41621 0.05103 0.0
H1868 H 0.79662 0.55931 0.05076 0.0
H1869 H 0.76647 0.59117 0.99733 0.0
H1870 H 0.85337 0.45231 0.03767 0.0
H1871 H 0.88929 0.55581 0.95779 0.0
H1872 H 0.78777 0.59658 0.96328 0.0
H1873 H 0.82147 0.59114 0.94255 0.0
H1874 H 0.76309 0.50344 0.11734 0.0
H1875 H 0.85921 0.57581 0.94027 0.0
H1876 H 0.84185 0.402 0.08278 0.0
N1877 N 0.80175 0.48578 0.08249 0.0
C1878 C 0.80474 0.4656 0.09024 0.0
C1879 C 0.77479 0.49262 0.10996 0.0
C1880 C 0.79336 0.45828 0.1087 0.0
C1881 C 0.78667 0.49921 0.09187 0.0
C1882 C 0.77836 0.47213 0.11861 0.0
N1883 N 0.8295 0.45997 0.06175 0.0
C1884 C 0.84455 0.44707 0.05166 0.0
C1885 C 0.82311 0.43123 0.08765 0.0
C1886 C 0.81914 0.45229 0.07963 0.0
C1887 C 0.83824 0.41818 0.07709 0.0
C1888 C 0.84904 0.4262 0.05912 0.0
H1889 H 0.76934 0.46711 0.13281 0.0
H1890 H 0.78891 0.43161 0.13097 0.0
H1891 H 0.81523 0.40791 0.1126 0.0
O1892 O 0.79006 0.49396 0.04849 0.0
O1893 O 0.85285 0.50526 0.07724 0.0
O1894 O 0.87188 0.53356 0.06213 0.0
O1895 O 0.80673 0.52086 0.03369 0.0
O1896 O 0.85539 0.4886 0.03594 0.0
O1897 O 0.87482 0.52043 0.03241 0.0
O1898 O 0.85097 0.58164 0.04609 0.0
O1899 O 0.83833 0.52736 1.00429 0.0
O1900 O 0.83195 0.49263 1.01567 0.0
O1901 O 0.87917 0.56636 0.03207 0.0
O1902 O 0.82996 0.55343 0.06982 0.0
O1903 O 0.82536 0.52001 0.08464 0.0
C1904 C 0.86997 0.51821 0.07677 0.0
C1905 C 0.78287 0.49898 1.01201 0.0
C1906 C 0.78931 0.46801 0.98825 0.0
C1907 C 0.78214 0.48021 0.97049 0.0
C1908 C 0.77655 0.51143 0.99418 0.0
C1909 C 0.7749 0.50161 0.97371 0.0
C1910 C 0.78642 0.47676 1.00891 0.0
C1911 C 0.87338 0.49908 0.03135 0.0
C1912 C 0.78941 0.50839 0.03317 0.0
C1913 C 0.7973 0.43744 0.1167 0.0
C1914 C 0.81221 0.42395 0.10622 0.0
C1915 C 0.83411 0.50672 0.99901 0.0
C1916 C 0.87806 0.60477 0.03118 0.0
C1917 C 0.89268 0.64066 0.03816 0.0
C1918 C 0.89586 0.64365 1.01591 0.0
C1919 C 0.88096 0.60803 1.0089 0.0
C1920 C 0.88361 0.62129 0.04567 0.0
C1921 C 0.88976 0.62746 1.00133 0.0
C1922 C 0.82456 0.54124 0.0871 0.0
C1923 C 0.87113 0.58394 0.04025 0.0
H1924 H 0.78337 0.47385 0.95421 0.0
H1925 H 0.77337 0.52856 0.99597 0.0
H1926 H 0.76963 0.51115 0.96006 0.0
H1927 H 0.78987 0.46654 1.0227 0.0
H1928 H 0.90291 0.65851 1.00986 0.0
H1929 H 0.87681 0.5956 0.99741 0.0
H1930 H 0.88159 0.61879 0.06292 0.0
H1931 H 0.89212 0.62984 0.98415 0.0
Eu1932 Eu 0.79597 0.58165 0.30273 0.0
C1933 C 0.71847 0.58999 0.24215 0.0
N1934 N 0.72951 0.60783 0.24876 0.0
C1935 C 0.72116 0.62601 0.2156 0.0
C1936 C 0.70783 0.58976 0.22195 0.0
C1937 C 0.73154 0.62551 0.2357 0.0
C1938 C 0.70896 0.6082 0.20884 0.0
C1939 C 0.70956 0.55217 0.2474 0.0
C1940 C 0.71965 0.57129 0.25477 0.0
C1941 C 0.69793 0.55224 0.22782 0.0
C1942 C 0.6971 0.57096 0.21513 0.0
Eu1943 Eu 0.74363 0.60631 0.28404 0.0
N1944 N 0.73155 0.57149 0.2735 0.0
C1945 C 0.7118 0.53335 0.25971 0.0
C1946 C 0.73387 0.55309 0.28534 0.0
C1947 C 0.72412 0.53379 0.27864 0.0
H1948 H 0.74089 0.63933 0.24104 0.0
H1949 H 0.72602 0.51926 0.28819 0.0
H1950 H 0.79138 0.55062 0.34796 0.0
H1951 H 0.86889 0.63105 0.28486 0.0
H1952 H 0.74298 0.55303 0.30001 0.0
H1953 H 0.7043 0.51835 0.25459 0.0
H1954 H 0.8398 0.60569 0.27595 0.0
H1955 H 0.72248 0.64016 0.2054 0.0
H1956 H 0.68995 0.53772 0.22208 0.0
H1957 H 0.6886 0.57055 0.19978 0.0
H1958 H 0.79922 0.55453 0.3868 0.0
H1959 H 0.70098 0.60862 0.19322 0.0
H1960 H 0.87651 0.64043 0.32288 0.0
N1961 N 0.80875 0.57903 0.33891 0.0
C1962 C 0.82332 0.59409 0.34534 0.0
C1963 C 0.80591 0.56598 0.37536 0.0
C1964 C 0.8288 0.59662 0.36735 0.0
C1965 C 0.80123 0.56403 0.35332 0.0
C1966 C 0.81929 0.58275 0.38251 0.0
N1967 N 0.82912 0.60161 0.30855 0.0
C1968 C 0.84234 0.60969 0.29266 0.0
C1969 C 0.85085 0.62008 0.33544 0.0
C1970 C 0.83397 0.60575 0.3296 0.0
C1971 C 0.8633 0.62947 0.31909 0.0
C1972 C 0.85916 0.62406 0.29762 0.0
H1973 H 0.82297 0.58421 0.39958 0.0
H1974 H 0.84828 0.6148 0.39022 0.0
H1975 H 0.8678 0.6353 0.36217 0.0
O1976 O 0.82193 0.5578 0.3049 0.0
O1977 O 0.78278 0.6088 0.32588 0.0
O1978 O 0.76368 0.62998 0.30243 0.0
O1979 O 0.79011 0.54837 0.29239 0.0
O1980 O 0.80193 0.60608 0.27626 0.0
O1981 O 0.77264 0.62938 0.27615 0.0
O1982 O 0.71044 0.6096 0.29693 0.0
O1983 O 0.76109 0.59396 0.2519 0.0
O1984 O 0.79268 0.57833 0.26382 0.0
O1985 O 0.72516 0.63624 0.27995 0.0
O1986 O 0.73996 0.59314 0.321 0.0
O1987 O 0.76766 0.56905 0.32412 0.0
C1988 C 0.77314 0.62735 0.32107 0.0
C1989 C 0.82109 0.53819 0.27254 0.0
C1990 C 0.83853 0.55194 0.23971 0.0
C1991 C 0.83736 0.53106 0.23076 0.0
C1992 C 0.81934 0.51768 0.26317 0.0
C1993 C 0.82772 0.51411 0.24238 0.0
C1994 C 0.83088 0.55491 0.26079 0.0
C1995 C 0.79341 0.62497 0.27193 0.0
C1996 C 0.81096 0.5437 0.29343 0.0
C1997 C 0.84418 0.61227 0.37337 0.0
C1998 C 0.85528 0.62393 0.3574 0.0
C1999 C 0.77913 0.58283 0.24729 0.0
C2000 C 0.68634 0.63601 0.28191 0.0
C2001 C 0.64845 0.64425 0.29065 0.0
C2002 C 0.6459 0.65381 0.27022 0.0
C2003 C 0.68353 0.64581 0.2616 0.0
C2004 C 0.66862 0.6351 0.29624 0.0
C2005 C 0.66332 0.65438 0.25572 0.0
C2006 C 0.75064 0.57854 0.33316 0.0
C2007 C 0.70795 0.62923 0.28984 0.0
H2008 H 0.84445 0.52765 0.21514 0.0
H2009 H 0.8115 0.5046 0.27179 0.0
H2010 H 0.82677 0.49816 0.23523 0.0
H2011 H 0.83169 0.57074 0.26801 0.0
H2012 H 0.63049 0.66096 0.26557 0.0
H2013 H 0.69697 0.64749 0.2505 0.0
H2014 H 0.67086 0.62825 0.31223 0.0
H2015 H 0.66132 0.66197 0.24008 0.0
H2016 H 0.1476 0.30364 0.23764 0.0
H2017 H 0.16233 0.24046 0.26344 0.0
H2018 H 0.18703 0.23335 0.233 0.0
H2019 H 0.15489 0.30003 0.18011 0.0
H2020 H 0.1708 0.32403 0.17971 0.0
H2021 H 0.15185 0.3198 0.20153 0.0
H2022 H 0.18811 0.32706 0.22482 0.0
H2023 H 0.20508 0.32611 0.20102 0.0
H2024 H 0.20996 0.30766 0.223 0.0
H2025 H 0.20143 0.22956 0.19466 0.0
H2026 H 0.21718 0.23424 0.15813 0.0
H2027 H 0.20308 0.30287 0.16122 0.0
C2028 C 0.15639 0.28848 0.23704 0.0
C2029 C 0.15199 0.27191 0.25244 0.0
C2030 C 0.16446 0.25277 0.25146 0.0
C2031 C 0.17861 0.24862 0.23415 0.0
C2032 C 0.18153 0.26448 0.21852 0.0
C2033 C 0.17216 0.2847 0.22064 0.0
C2034 C 0.18132 0.29979 0.20327 0.0
C2035 C 0.16356 0.31163 0.19053 0.0
C2036 C 0.19705 0.31611 0.21364 0.0
C2037 C 0.19368 0.28374 0.189 0.0
C2038 C 0.19383 0.26351 0.19838 0.0
C2039 C 0.20203 0.24547 0.18742 0.0
C2040 C 0.2106 0.24818 0.16647 0.0
C2041 C 0.21135 0.26883 0.15671 0.0
C2042 C 0.20288 0.28686 0.16831 0.0
H2043 H 0.039 0.86854 0.45286 0.0
H2044 H 0.03943 0.914 0.50625 0.0
H2045 H 0.04029 0.94429 0.4801 0.0
H2046 H 0.07544 0.89627 0.41816 0.0
H2047 H 0.0609 0.88968 0.3937 0.0
H2048 H 0.05924 0.87207 0.41682 0.0
H2049 H 1.01609 0.87617 0.41743 0.0
H2050 H 1.01931 0.89176 0.39303 0.0
H2051 H 1.0048 0.9028 0.41588 0.0
H2052 H 0.0388 0.96989 0.44721 0.0
H2053 H 0.03762 0.98801 0.41167 0.0
H2054 H 0.04253 0.92611 0.37937 0.0
C2055 C 0.03899 0.88481 0.45917 0.0
C2056 C 0.03891 0.88863 0.48188 0.0
C2057 C 0.03928 0.91041 0.48912 0.0
C2058 C 0.03982 0.92779 0.47429 0.0
C2059 C 0.04014 0.92335 0.45207 0.0
C2060 C 0.03969 0.90235 0.44458 0.0
C2061 C 0.04028 0.90187 0.41991 0.0
C2062 C 0.06015 0.88921 0.41165 0.0
C2063 C 1.01888 0.89259 0.41098 0.0
C2064 C 0.04206 0.92578 0.41456 0.0
C2065 C 0.04127 0.93793 0.43337 0.0
C2066 C 0.04013 0.96043 0.43253 0.0
C2067 C 0.03971 0.97063 0.41217 0.0
C2068 C 0.04153 0.9587 0.39261 0.0
C2069 C 0.04253 0.93584 0.39394 0.0
H2070 H 0.40669 0.7982 0.7228 0.0
H2071 H 0.40299 0.73594 0.75433 0.0
H2072 H 0.3766 0.72376 0.72606 0.0
H2073 H 0.35485 0.80617 0.70149 0.0
H2074 H 0.36443 0.81574 0.67571 0.0
H2075 H 0.38116 0.81904 0.69932 0.0
H2076 H 0.41369 0.79573 0.68063 0.0
H2077 H 0.39633 0.79745 0.65729 0.0
H2078 H 0.40614 0.77171 0.66692 0.0
H2079 H 0.35351 0.71791 0.68955 0.0
H2080 H 0.33417 0.72044 0.65461 0.0
H2081 H 0.35443 0.78721 0.64813 0.0
C2082 C 0.40014 0.78207 0.72413 0.0
C2083 C 0.40684 0.76824 0.74121 0.0
C2084 C 0.39779 0.74717 0.74194 0.0
C2085 C 0.38303 0.74004 0.72563 0.0
C2086 C 0.37769 0.75403 0.70846 0.0
C2087 C 0.38623 0.7746 0.70776 0.0
C2088 C 0.38021 0.78602 0.68686 0.0
C2089 C 0.3695 0.80806 0.69113 0.0
C2090 C 0.40022 0.78793 0.67203 0.0
C2091 C 0.36468 0.7701 0.6769 0.0
C2092 C 0.3643 0.7511 0.68877 0.0
C2093 C 0.35351 0.73298 0.68067 0.0
C2094 C 0.34267 0.73459 0.66053 0.0
C2095 C 0.34223 0.75429 0.64849 0.0
C2096 C 0.35381 0.77208 0.6569 0.0
H2097 H 0.53688 0.14274 0.98114 0.0
H2098 H 0.48329 0.18227 0.95869 0.0
H2099 H 0.47984 0.16013 0.92626 0.0
H2100 H 0.56249 0.13305 0.9312 0.0
H2101 H 0.56815 0.10467 0.93488 0.0
H2102 H 0.56563 0.12214 0.95807 0.0
H2103 H 0.53557 0.09746 0.97382 0.0
H2104 H 0.53819 0.07977 0.95074 0.0
H2105 H 0.51206 0.09112 0.9576 0.0
H2106 H 0.48471 0.1377 0.89374 0.0
H2107 H 0.49397 0.11141 0.86524 0.0
H2108 H 0.54349 0.08396 0.90708 0.0
C2109 C 0.52429 0.1465 0.96948 0.0
C2110 C 0.51056 0.16484 0.97244 0.0
C2111 C 0.49435 0.16894 0.95671 0.0
C2112 C 0.49221 0.15635 0.9381 0.0
C2113 C 0.5065 0.1393 0.93497 0.0
C2114 C 0.52188 0.1338 0.95037 0.0
C2115 C 0.53467 0.11405 0.94253 0.0
C2116 C 0.5592 0.11877 0.94161 0.0
C2117 C 0.52985 0.09444 0.95704 0.0
C2118 C 0.52511 0.1107 0.91988 0.0
C2119 C 0.50861 0.12531 0.91617 0.0
C2120 C 0.49739 0.12589 0.89656 0.0
C2121 C 0.50285 0.11088 0.88036 0.0
C2122 C 0.51958 0.09542 0.88355 0.0
C2123 C 0.53084 0.09551 0.90373 0.0
H2124 H 0.15179 0.19906 0.25592 0.0
H2125 H 0.15593 0.21302 0.32461 0.0
H2126 H 0.1905 0.19311 0.32666 0.0
H2127 H 0.1671 0.14831 0.25876 0.0
H2128 H 0.18565 0.14464 0.23647 0.0
H2129 H 0.16432 0.16457 0.23506 0.0
H2130 H 0.18812 0.19607 0.22876 0.0
H2131 H 0.21147 0.17864 0.22683 0.0
H2132 H 0.21173 0.2011 0.24543 0.0
H2133 H 0.22542 0.17027 0.32148 0.0
H2134 H 0.25384 0.1439 0.30986 0.0
H2135 H 0.22512 0.14253 0.246 0.0
C2136 C 0.15996 0.19801 0.2714 0.0
C2137 C 0.15098 0.20816 0.28999 0.0
C2138 C 0.16237 0.20597 0.30991 0.0
C2139 C 0.18231 0.19481 0.31126 0.0
C2140 C 0.19094 0.18547 0.2926 0.0
C2141 C 0.18001 0.18686 0.27304 0.0
C2142 C 0.1917 0.17364 0.25587 0.0
C2143 C 0.17635 0.15674 0.24595 0.0
C2144 C 0.20133 0.18827 0.23821 0.0
C2145 C 0.20983 0.16341 0.26918 0.0
C2146 C 0.20979 0.17107 0.2901 0.0
C2147 C 0.22563 0.16433 0.30502 0.0
C2148 C 0.24183 0.14942 0.2983 0.0
C2149 C 0.2418 0.14101 0.27701 0.0
C2150 C 0.22543 0.14821 0.2625 0.0
H2151 H 0.14567 0.98048 0.4933 0.0
H2152 H 0.18258 0.96938 0.55195 0.0
H2153 H 0.1599 0.93755 0.55999 0.0
H2154 H 0.09216 0.95594 0.52052 0.0
H2155 H 0.08284 0.94688 0.49445 0.0
H2156 H 0.09838 0.97148 0.4968 0.0
H2157 H 0.12665 0.95517 0.46865 0.0
H2158 H 0.1095 0.9316 0.46717 0.0
H2159 H 0.13783 0.92901 0.47398 0.0
H2160 H 0.14151 0.90149 0.55655 0.0
H2161 H 0.11864 0.86976 0.54882 0.0
H2162 H 0.09103 0.90265 0.49334 0.0
C2163 C 0.14869 0.97151 0.50798 0.0
C2164 C 0.16623 0.97746 0.5219 0.0
C2165 C 0.16947 0.96525 0.54098 0.0
C2166 C 0.15692 0.94682 0.54547 0.0
C2167 C 0.14145 0.94009 0.53044 0.0
C2168 C 0.1363 0.95262 0.51269 0.0
C2169 C 0.11773 0.94185 0.50006 0.0
C2170 C 0.09653 0.9548 0.5031 0.0
C2171 C 0.12323 0.93925 0.47602 0.0
C2172 C 0.11593 0.91997 0.51145 0.0
C2173 C 0.12935 0.91976 0.52938 0.0
C2174 C 0.13086 0.9016 0.54263 0.0
C2175 C 0.11795 0.88346 0.53793 0.0
C2176 C 0.10344 0.88323 0.5201 0.0
C2177 C 0.10252 0.90186 0.50658 0.0
H2178 H 0.31503 0.87501 0.74196 0.0
H2179 H 0.31176 0.90112 0.80683 0.0
H2180 H 0.34166 0.87656 0.8178 0.0
H2181 H 0.33961 0.81585 0.76638 0.0
H2182 H 0.3503 0.81264 0.7395 0.0
H2183 H 0.32378 0.82447 0.74397 0.0
H2184 H 0.34254 0.85198 0.71757 0.0
H2185 H 0.37101 0.84843 0.72191 0.0
H2186 H 0.35767 0.87315 0.72958 0.0
H2187 H 0.38003 0.85897 0.81765 0.0
H2188 H 0.41556 0.84242 0.80979 0.0
H2189 H 0.3943 0.8271 0.74476 0.0
C2190 C 0.32007 0.87496 0.7587 0.0
C2191 C 0.31109 0.89022 0.7735 0.0
C2192 C 0.31823 0.88969 0.79521 0.0
C2193 C 0.33562 0.87606 0.80143 0.0
C2194 C 0.34565 0.86293 0.78582 0.0
C2195 C 0.3371 0.8611 0.76527 0.0
C2196 C 0.35119 0.84604 0.75149 0.0
C2197 C 0.34062 0.82349 0.75013 0.0
C2198 C 0.35595 0.85541 0.72891 0.0
C2199 C 0.37139 0.8442 0.76543 0.0
C2200 C 0.36716 0.85248 0.78585 0.0
C2201 C 0.38313 0.85219 0.80181 0.0
C2202 C 0.40348 0.84284 0.79704 0.0
C2203 C 0.40818 0.83368 0.7764 0.0
C2204 C 0.39171 0.83447 0.7604 0.0
H2205 H 0.45574 0.15023 0.04732 0.0
H2206 H 0.4548 0.16335 0.97842 0.0
H2207 H 0.4424 0.12629 0.97164 0.0
H2208 H 0.47347 0.09028 0.03811 0.0
H2209 H 0.458 0.08005 0.06066 0.0
H2210 H 0.47022 0.10643 0.06223 0.0
H2211 H 0.43544 0.12334 0.07175 0.0
H2212 H 0.42044 0.09846 0.07016 0.0
H2213 H 0.4122 0.12163 0.0547 0.0
H2214 H 0.42646 0.09112 0.97185 0.0
H2215 H 0.40369 0.05976 0.97814 0.0
H2216 H 0.40961 0.06835 0.04684 0.0
C2217 C 0.45356 0.1451 0.03074 0.0
C2218 C 0.4574 0.15982 1.01325 0.0
C2219 C 0.4528 0.15261 0.99205 0.0
C2220 C 0.44595 0.13133 0.98803 0.0
C2221 C 0.44363 0.11699 1.00534 0.0
C2222 C 0.44693 0.12353 0.02641 0.0
C2223 C 0.44111 0.10495 0.04196 0.0
C2224 C 0.46197 0.09484 0.05125 0.0
C2225 C 0.42635 0.11248 0.06064 0.0
C2226 C 0.43029 0.08872 0.02645 0.0
C2227 C 0.43415 0.09537 1.00536 0.0
C2228 C 0.42503 0.08463 0.98793 0.0
C2229 C 0.41153 0.06691 0.99168 0.0
C2230 C 0.40478 0.06111 1.01258 0.0
C2231 C 0.41474 0.07194 0.0305 0.0
H2232 H 0.07541 0.99321 0.40485 0.0
H2233 H 0.08215 0.05498 0.37301 0.0
H2234 H 0.11553 0.06214 0.39428 0.0
H2235 H 0.09564 1.01291 0.45855 0.0
H2236 H 0.11015 0.98864 0.46507 0.0
H2237 H 0.08536 0.98714 0.44947 0.0
H2238 H 0.10373 0.96775 0.41738 0.0
H2239 H 0.12845 0.96652 0.43296 0.0
H2240 H 0.12884 0.97866 0.40669 0.0
H2241 H 0.151 0.06008 0.41543 0.0
H2242 H 0.18276 0.05158 0.43833 0.0
H2243 H 0.15283 0.99106 0.45723 0.0
C2244 C 0.0829 1.00887 0.40348 0.0
C2245 C 0.07526 0.02408 0.38813 0.0
C2246 C 0.08707 0.04353 0.38533 0.0
C2247 C 0.10625 0.04758 0.39716 0.0
C2248 C 0.11358 0.03199 0.41179 0.0
C2249 C 0.10196 1.01324 0.41538 0.0
C2250 C 0.11378 0.99875 0.43144 0.0
C2251 C 0.10041 0.9967 0.45235 0.0
C2252 C 0.11892 0.97656 0.42154 0.0
C2253 C 0.13452 1.01155 0.43533 0.0
C2254 C 0.13393 0.03082 0.42401 0.0
C2255 C 0.1514 0.04516 0.42456 0.0
C2256 C 0.16953 0.04005 0.43747 0.0
C2257 C 0.17046 1.02058 0.44961 0.0
C2258 C 0.15277 1.00598 0.44813 0.0
H2259 H 0.30411 0.88312 0.70564 0.0
H2260 H 0.23695 0.90306 0.69802 0.0
H2261 H 0.22921 0.86958 0.6774 0.0
H2262 H 0.31463 0.85722 0.65678 0.0
H2263 H 0.32871 0.83461 0.66844 0.0
H2264 H 0.32825 0.86021 0.68227 0.0
H2265 H 0.30784 0.84253 0.71749 0.0
H2266 H 0.31506 0.81799 0.70305 0.0
H2267 H 0.28752 0.8228 0.71192 0.0
H2268 H 0.22903 0.83156 0.65818 0.0
H2269 H 0.23833 0.79803 0.63804 0.0
H2270 H 0.30517 0.80384 0.65916 0.0
C2271 C 0.28787 0.88065 0.69934 0.0
C2272 C 0.27129 0.89598 0.70329 0.0
C2273 C 0.25006 0.8917 0.69514 0.0
C2274 C 0.24543 0.87258 0.68352 0.0
C2275 C 0.26206 0.85749 0.68047 0.0
C2276 C 0.28283 0.86143 0.68817 0.0
C2277 C 0.29753 0.84226 0.68393 0.0
C2278 C 0.31852 0.84897 0.67217 0.0
C2279 C 0.30239 0.83063 0.70529 0.0
C2280 C 0.28291 0.8283 0.6701 0.0
C2281 C 0.26204 0.83652 0.66931 0.0
C2282 C 0.24548 0.82528 0.65853 0.0
C2283 C 0.25083 0.80611 0.64716 0.0
C2284 C 0.27259 0.79864 0.64626 0.0
C2285 C 0.28844 0.8094 0.65894 0.0
H2286 H 0.48259 0.06072 0.89328 0.0
H2287 H 0.49281 0.99241 0.8819 0.0
H2288 H 0.4607 0.98394 0.90469 0.0
H2289 H 0.46167 0.05373 0.95105 0.0
H2290 H 0.44556 0.07758 0.94611 0.0
H2291 H 0.47085 0.07419 0.93235 0.0
H2292 H 0.44717 0.08103 0.89726 0.0
H2293 H 0.42238 0.08104 0.91286 0.0
H2294 H 0.42577 0.06219 0.89103 0.0
H2295 H 0.42589 0.98324 0.92598 0.0
H2296 H 0.39282 0.98929 0.94721 0.0
H2297 H 0.4029 0.05872 0.94318 0.0
C2298 C 0.47837 0.04397 0.89617 0.0
C2299 C 0.4905 0.02713 0.88648 0.0
C2300 C 0.48411 1.00544 0.88983 0.0
C2301 C 0.46576 1.00055 0.90253 0.0
C2302 C 0.45374 1.01757 0.91143 0.0
C2303 C 0.4599 0.03882 0.90859 0.0
C2304 C 0.44425 0.05404 0.92002 0.0
C2305 C 0.45629 0.06548 0.93853 0.0
C2306 C 0.43432 0.07056 0.90433 0.0
C2307 C 0.42724 0.03815 0.92845 0.0
C2308 C 0.4335 1.01718 0.92369 0.0
C2309 C 0.42099 0.99957 0.92998 0.0
C2310 C 0.40207 1.00328 0.9421 0.0
C2311 C 0.39553 0.02447 0.94827 0.0
C2312 C 0.40779 0.04222 0.9401 0.0
H2313 H 0.29475 0.21619 0.1317 0.0
H2314 H 0.25844 0.25991 0.17304 0.0
H2315 H 0.25668 0.23163 0.20121 0.0
H2316 H 0.2705 0.16514 0.14353 0.0
H2317 H 0.29631 0.15188 0.14358 0.0
H2318 H 0.29289 0.17647 0.12841 0.0
H2319 H 0.32739 0.18932 0.15092 0.0
H2320 H 0.3268 0.1651 0.16712 0.0
H2321 H 0.32516 0.19121 0.17993 0.0
H2322 H 0.25507 0.19688 0.22333 0.0
H2323 H 0.258 0.16058 0.2393 0.0
H2324 H 0.29477 0.13844 0.18414 0.0
C2325 C 0.28707 0.22005 0.14699 0.0
C2326 C 0.27661 0.24045 0.15 0.0
C2327 C 0.26671 0.24469 0.17026 0.0
C2328 C 0.26544 0.22854 0.18632 0.0
C2329 C 0.27472 0.20824 0.1823 0.0
C2330 C 0.28602 0.20415 0.16341 0.0
C2331 C 0.29513 0.18109 0.16356 0.0
C2332 C 0.28827 0.16798 0.14355 0.0
C2333 C 0.32009 0.18172 0.1655 0.0
C2334 C 0.28494 0.17211 0.18419 0.0
C2335 C 0.27379 0.18827 0.19503 0.0
C2336 C 0.2634 0.18411 0.21466 0.0
C2337 C 0.26443 0.16309 0.22338 0.0
C2338 C 0.27499 0.14594 0.21242 0.0
C2339 C 0.28578 0.15082 0.19265 0.0
H2340 H 0.79233 0.33856 0.91302 0.0
H2341 H 0.76345 0.28966 0.8719 0.0
H2342 H 0.76754 0.31417 0.84034 0.0
H2343 H 0.76642 0.38569 0.89025 0.0
H2344 H 0.79059 0.40075 0.89604 0.0
H2345 H 0.78447 0.37689 0.9116 0.0
H2346 H 0.8258 0.36583 0.89742 0.0
H2347 H 0.82602 0.38924 0.88003 0.0
H2348 H 0.82924 0.36259 0.86874 0.0
H2349 H 0.77287 0.34616 0.81347 0.0
H2350 H 0.77556 0.38176 0.79573 0.0
H2351 H 0.7922 0.41177 0.85655 0.0
C2352 C 0.78726 0.3328 0.89727 0.0
C2353 C 0.77763 0.312 0.89501 0.0
C2354 C 0.77135 0.30516 0.87407 0.0
C2355 C 0.77342 0.31915 0.85607 0.0
C2356 C 0.78188 0.33998 0.85917 0.0
C2357 C 0.78888 0.34668 0.87929 0.0
C2358 C 0.79584 0.37035 0.87872 0.0
C2359 C 0.78367 0.38418 0.89529 0.0
C2360 C 0.82068 0.37214 0.88142 0.0
C2361 C 0.78911 0.37673 0.85609 0.0
C2362 C 0.78244 0.3587 0.84461 0.0
C2363 C 0.77698 0.36037 0.82284 0.0
C2364 C 0.77763 0.3809 0.81305 0.0
C2365 C 0.78111 0.40005 0.82532 0.0
C2366 C 0.78771 0.39773 0.84708 0.0
H2367 H 0.97572 0.54344 0.15289 0.0
H2368 H 0.97417 0.47548 0.16986 0.0
H2369 H 0.94374 0.46975 0.14469 0.0
H2370 H 0.91649 0.55195 0.14468 0.0
H2371 H 0.92167 0.56971 0.12243 0.0
H2372 H 0.94188 0.56675 0.14334 0.0
H2373 H 0.96836 0.55723 0.11067 0.0
H2374 H 0.94605 0.55776 0.09174 0.0
H2375 H 0.96243 0.53374 0.09441 0.0
H2376 H 0.91065 0.47162 0.12096 0.0
H2377 H 0.87995 0.48013 0.09677 0.0
H2378 H 0.90294 0.54621 0.09134 0.0
C2379 C 0.9693 0.52728 0.15085 0.0
C2380 C 0.97786 0.50976 0.16326 0.0
C2381 C 0.96844 0.48906 0.16042 0.0
C2382 C 0.95091 0.48566 0.14619 0.0
C2383 C 0.94264 0.50309 0.13449 0.0
C2384 C 0.9517 0.52349 0.13626 0.0
C2385 C 0.93964 0.53914 0.12116 0.0
C2386 C 0.9294 0.55802 0.13371 0.0
C2387 C 0.95504 0.54746 0.10344 0.0
C2388 C 0.92193 0.52458 0.11162 0.0
C2389 C 0.92404 0.50386 0.11965 0.0
C2390 C 0.909 0.48776 0.11444 0.0
C2391 C 0.89138 0.49284 0.10077 0.0
C2392 C 0.88868 0.51387 0.09205 0.0
C2393 C 0.90444 0.52991 0.09753 0.0
H2394 H 0.76887 0.70343 0.42835 0.0
H2395 H 0.7803 0.7574 0.38491 0.0
H2396 H 0.77817 0.73258 0.35379 0.0
H2397 H 0.7989 0.66068 0.40135 0.0
H2398 H 0.7781 0.64127 0.40683 0.0
H2399 H 0.78085 0.66429 0.42439 0.0
H2400 H 0.73916 0.67033 0.41617 0.0
H2401 H 0.73916 0.64868 0.39659 0.0
H2402 H 0.7309 0.67546 0.38868 0.0
H2403 H 0.77551 0.70238 0.32734 0.0
H2404 H 0.77391 0.66862 0.30701 0.0
H2405 H 0.76989 0.63195 0.36653 0.0
C2406 C 0.77058 0.7101 0.41225 0.0
C2407 C 0.77481 0.73263 0.40924 0.0
C2408 C 0.77687 0.74048 0.38784 0.0
C2409 C 0.77582 0.7264 0.37 0.0
C2410 C 0.77254 0.70435 0.37359 0.0
C2411 C 0.76972 0.69612 0.39413 0.0
C2412 C 0.76616 0.67157 0.39303 0.0
C2413 C 0.78199 0.65881 0.40732 0.0
C2414 C 0.74245 0.66619 0.39897 0.0
C2415 C 0.77032 0.66711 0.36913 0.0
C2416 C 0.7727 0.68648 0.35822 0.0
C2417 C 0.77458 0.68714 0.33588 0.0
C2418 C 0.77439 0.66762 0.32443 0.0
C2419 C 0.77407 0.64725 0.33505 0.0
C2420 C 0.77162 0.64707 0.3579 0.0
H2421 H 0.80438 0.66388 0.29067 0.0
H2422 H 0.82095 0.62169 0.23753 0.0
H2423 H 0.8538 0.64349 0.23039 0.0
H2424 H 0.82804 0.71535 0.26375 0.0
H2425 H 0.83641 0.72575 0.28967 0.0
H2426 H 0.81202 0.70969 0.28751 0.0
H2427 H 0.82704 0.68319 0.31653 0.0
H2428 H 0.85091 0.69989 0.31862 0.0
H2429 H 0.8537 0.67163 0.31265 0.0
H2430 H 0.88675 0.66913 0.2309 0.0
H2431 H 0.91782 0.69229 0.24134 0.0
H2432 H 0.87951 0.71783 0.29426 0.0
C2433 C 0.81392 0.66014 0.27665 0.0
C2434 C 0.8091 0.64169 0.26394 0.0
C2435 C 0.8235 0.63631 0.24681 0.0
C2436 C 0.84243 0.64852 0.2428 0.0
C2437 C 0.84696 0.66624 0.25606 0.0
C2438 C 0.83289 0.67227 0.27247 0.0
C2439 C 0.84229 0.69105 0.2854 0.0
C2440 C 0.8289 0.71168 0.28133 0.0
C2441 C 0.84353 0.6861 0.30973 0.0
C2442 C 0.86482 0.69291 0.27532 0.0
C2443 C 0.86681 0.6792 0.25781 0.0
C2444 C 0.88574 0.67895 0.2453 0.0
C2445 C 0.90336 0.6922 0.25138 0.0
C2446 C 0.90203 0.70595 0.26965 0.0
C2447 C 0.88213 0.70656 0.28134 0.0
H2448 H 0.74206 0.39111 0.79091 0.0
H2449 H 0.73476 0.42588 0.73131 0.0
H2450 H 0.70285 0.40383 0.72212 0.0
H2451 H 0.72707 0.33944 0.76377 0.0
H2452 H 0.71082 0.3271 0.78407 0.0
H2453 H 0.73485 0.34228 0.79172 0.0
H2454 H 0.71822 0.37236 0.8143 0.0
H2455 H 0.69479 0.35527 0.81488 0.0
H2456 H 0.69186 0.38292 0.80684 0.0
H2457 H 0.669 0.37909 0.72154 0.0
H2458 H 0.63875 0.35375 0.72854 0.0
H2459 H 0.66804 0.33585 0.78959 0.0
C2460 C 0.73545 0.39252 0.77491 0.0
C2461 C 0.74315 0.40861 0.7606 0.0
C2462 C 0.73108 0.41229 0.74141 0.0
C2463 C 0.71237 0.40008 0.73636 0.0
C2464 C 0.70558 0.38415 0.75081 0.0
C2465 C 0.71717 0.38004 0.76944 0.0
C2466 C 0.70662 0.36205 0.78233 0.0
C2467 C 0.72074 0.34157 0.78051 0.0
C2468 C 0.70267 0.36859 0.80597 0.0
C2469 C 0.68552 0.35896 0.76995 0.0
C2470 C 0.68575 0.37103 0.75115 0.0
C2471 C 0.66875 0.36968 0.73629 0.0
C2472 C 0.65146 0.35536 0.74053 0.0
C2473 C 0.65064 0.34298 0.75986 0.0
C2474 C 0.66788 0.34518 0.77487 0.0
H2475 H 0.55386 0.60449 0.65802 0.0
H2476 H 0.49025 0.57517 0.64939 0.0
H2477 H 0.4853 0.59547 0.6156 0.0
H2478 H 0.53957 0.6568 0.63738 0.0
H2479 H 0.56492 0.66142 0.62337 0.0
H2480 H 0.5643 0.64457 0.64712 0.0
H2481 H 0.5811 0.61248 0.62619 0.0
H2482 H 0.58275 0.62936 0.60253 0.0
H2483 H 0.5688 0.60376 0.60119 0.0
H2484 H 0.48786 0.61789 0.58082 0.0
H2485 H 0.49648 0.64354 0.55103 0.0
H2486 H 0.55734 0.65931 0.58254 0.0
C2487 C 0.5388 0.60247 0.64917 0.0
C2488 C 0.52259 0.5879 0.65661 0.0
C2489 C 0.50314 0.58594 0.64426 0.0
C2490 C 0.50014 0.5974 0.62483 0.0
C2491 C 0.51669 0.61096 0.61759 0.0
C2492 C 0.53557 0.6137 0.6295 0.0
C2493 C 0.55078 0.62937 0.61809 0.0
C2494 C 0.55517 0.64924 0.63233 0.0
C2495 C 0.57212 0.61805 0.61162 0.0
C2496 C 0.53739 0.63526 0.59821 0.0
C2497 C 0.51791 0.62417 0.59797 0.0
C2498 C 0.50309 0.62666 0.58091 0.0
C2499 C 0.50815 0.64111 0.56393 0.0
C2500 C 0.5277 0.65315 0.56427 0.0
C2501 C 0.54242 0.65006 0.58167 0.0
H2502 H 0.71548 0.30686 0.87993 0.0
H2503 H 0.69939 0.24446 0.90743 0.0
H2504 H 0.68054 0.23416 0.87379 0.0
H2505 H 0.66699 0.31605 0.85191 0.0
H2506 H 0.67767 0.32625 0.8272 0.0
H2507 H 0.6925 0.33021 0.8521 0.0
H2508 H 0.72628 0.31252 0.83814 0.0
H2509 H 0.71461 0.30705 0.81206 0.0
H2510 H 0.72576 0.28534 0.82753 0.0
H2511 H 0.66193 0.23113 0.83819 0.0
H2512 H 0.64058 0.23766 0.80502 0.0
H2513 H 0.66991 0.30079 0.79867 0.0
C2514 C 0.70736 0.29135 0.87904 0.0
C2515 C 0.70848 0.27662 0.8964 0.0
C2516 C 0.69844 0.25608 0.89436 0.0
C2517 C 0.68795 0.24996 0.87523 0.0
C2518 C 0.68763 0.26452 0.85813 0.0
C2519 C 0.69675 0.28488 0.85992 0.0
C2520 C 0.69412 0.29726 0.83899 0.0
C2521 C 0.6822 0.31875 0.8428 0.0
C2522 C 0.71653 0.30078 0.82859 0.0
C2523 C 0.68043 0.2815 0.82584 0.0
C2524 C 0.67756 0.26239 0.83701 0.0
C2525 C 0.66427 0.24591 0.82914 0.0
C2526 C 0.65235 0.24965 0.81017 0.0
C2527 C 0.65396 0.26958 0.79911 0.0
C2528 C 0.66891 0.28528 0.80652 0.0
H2529 H 1.00266 0.36686 0.10563 0.0
H2530 H 0.04291 0.40132 0.05932 0.0
H2531 H 0.05146 0.42836 0.08779 0.0
H2532 H 0.97619 0.41307 0.12543 0.0
H2533 H 0.97464 0.40601 0.15366 0.0
H2534 H 0.97477 0.38498 0.13379 0.0
H2535 H 1.00759 0.36608 0.14888 0.0
H2536 H 1.00756 0.38513 0.17094 0.0
H2537 H 0.0319 0.38121 0.15513 0.0
H2538 H 0.0596 0.44738 0.12408 0.0
H2539 H 0.05706 0.46605 0.15851 0.0
H2540 H 0.99903 0.4301 0.17528 0.0
C2541 C 1.01293 0.38026 0.10108 0.0
C2542 C 1.02186 0.38192 0.07976 0.0
C2543 C 0.03586 0.3995 0.07527 0.0
C2544 C 0.0408 0.41491 0.09141 0.0
C2545 C 0.03094 0.41311 0.11179 0.0
C2546 C 1.01665 0.39666 0.11642 0.0
C2547 C 1.00638 0.39992 0.1388 0.0
C2548 C 0.98149 0.40111 0.13776 0.0
C2549 C 1.01382 0.38202 0.15436 0.0
C2550 C 1.01605 0.4215 0.14544 0.0
C2551 C 0.03147 0.42768 0.13033 0.0
C2552 C 0.04617 0.44396 0.13489 0.0
C2553 C 0.04402 0.45511 0.15446 0.0
C2554 C 0.0257 0.45225 0.1684 0.0
C2555 C 1.012 0.43427 0.1642 0.0
H2556 H 0.8837 0.79724 0.30996 0.0
H2557 H 0.90987 0.73242 0.31372 0.0
H2558 H 0.88835 0.72478 0.34506 0.0
H2559 H 0.88609 0.8071 0.36545 0.0
H2560 H 0.86091 0.82175 0.368 0.0
H2561 H 0.87519 0.82149 0.34255 0.0
H2562 H 0.8404 0.80697 0.32372 0.0
H2563 H 0.82631 0.80726 0.34931 0.0
H2564 H 0.82772 0.78267 0.3337 0.0
H2565 H 0.87203 0.72575 0.38031 0.0
H2566 H 0.85327 0.73303 0.41469 0.0
H2567 H 0.83423 0.79632 0.39084 0.0
C2568 C 0.88386 0.78111 0.31673 0.0
C2569 C 0.89739 0.76474 0.30769 0.0
C2570 C 0.89848 0.7446 0.31844 0.0
C2571 C 0.88651 0.74017 0.33695 0.0
C2572 C 0.87392 0.75647 0.34567 0.0
C2573 C 0.87198 0.77648 0.3359 0.0
C2574 C 0.85813 0.7913 0.35011 0.0
C2575 C 0.87085 0.8116 0.35691 0.0
C2576 C 0.83687 0.79741 0.33852 0.0
C2577 C 0.85373 0.77657 0.36948 0.0
C2578 C 0.8633 0.75667 0.36648 0.0
C2579 C 0.86363 0.74096 0.38264 0.0
C2580 C 0.85301 0.74526 0.40221 0.0
C2581 C 0.84164 0.76487 0.40529 0.0
C2582 C 0.84233 0.78089 0.38876 0.0
H2583 H 0.64752 0.4935 0.59255 0.0
H2584 H 0.66778 0.56007 0.60176 0.0
H2585 H 0.6327 0.56816 0.61919 0.0
H2586 H 0.59024 0.49901 0.58677 0.0
H2587 H 0.58275 0.47746 0.60491 0.0
H2588 H 0.60848 0.47654 0.59088 0.0
H2589 H 0.62912 0.47307 0.6273 0.0
H2590 H 0.60339 0.47328 0.64132 0.0
H2591 H 0.6241 0.4927 0.64831 0.0
H2592 H 0.59355 0.57043 0.63024 0.0
H2593 H 0.56108 0.56465 0.65194 0.0
H2594 H 0.5685 0.4954 0.64576 0.0
C2595 C 0.64464 0.5098 0.59827 0.0
C2596 C 0.65986 0.52665 0.5939 0.0
C2597 C 0.65599 0.54718 0.60339 0.0
C2598 C 0.63597 0.55201 0.61326 0.0
C2599 C 0.62052 0.53566 0.61531 0.0
C2600 C 0.62527 0.5146 0.60974 0.0
C2601 C 0.60735 0.4995 0.61787 0.0
C2602 C 0.59657 0.48741 0.59898 0.0
C2603 C 0.61653 0.48368 0.6347 0.0
C2604 C 0.59154 0.51555 0.62827 0.0
C2605 C 0.59917 0.53636 0.62544 0.0
C2606 C 0.58751 0.55418 0.63272 0.0
C2607 C 0.56852 0.55072 0.64473 0.0
C2608 C 0.56131 0.52968 0.65014 0.0
C2609 C 0.57289 0.51175 0.64131 0.0
H2610 H 0.93415 0.38643 1.01016 0.0
H2611 H 0.9806 0.40733 0.05856 0.0
H2612 H 0.96322 0.44314 0.05994 0.0
H2613 H 0.93437 0.44162 0.98335 0.0
H2614 H 0.90636 0.43909 0.97512 0.0
H2615 H 0.92331 0.41536 0.97727 0.0
H2616 H 0.89527 0.39834 1.00277 0.0
H2617 H 0.87851 0.42209 1.00144 0.0
H2618 H 0.88787 0.41204 0.02731 0.0
H2619 H 0.94096 0.47693 0.05634 0.0
H2620 H 0.91215 0.5044 0.05174 0.0
H2621 H 0.87905 0.46237 1.00631 0.0
C2622 C 0.9402 0.39841 1.02143 0.0
C2623 C 0.95788 0.39357 0.03529 0.0
C2624 C 0.96629 0.41016 0.04875 0.0
C2625 C 0.95683 0.4308 0.04928 0.0
C2626 C 0.93944 0.43511 0.03553 0.0
C2627 C 0.93129 0.4195 1.02169 0.0
C2628 C 0.91263 0.42872 1.00841 0.0
C2629 C 0.91958 0.43134 0.98463 0.0
C2630 C 0.8923 0.41447 1.01014 0.0
C2631 C 0.90973 0.45083 1.01907 0.0
C2632 C 0.92633 0.45464 0.03364 0.0
C2633 C 0.92785 0.47411 0.045 0.0
C2634 C 0.91146 0.48974 0.04219 0.0
C2635 C 0.8933 0.48556 0.02879 0.0
C2636 C 0.89278 0.46604 1.01663 0.0
H2637 H 0.58879 0.63888 0.50093 0.0
H2638 H 0.59611 0.65729 0.5683 0.0
H2639 H 0.61311 0.62196 0.57568 0.0
H2640 H 0.57789 0.5775 0.51717 0.0
H2641 H 0.59003 0.56834 0.49225 0.0
H2642 H 0.5745 0.5931 0.49284 0.0
H2643 H 0.60628 0.61236 0.47604 0.0
H2644 H 0.62371 0.589 0.47664 0.0
H2645 H 0.63188 0.61369 0.48967 0.0
H2646 H 0.63332 0.58854 0.57516 0.0
H2647 H 0.66079 0.56219 0.56568 0.0
H2648 H 0.63889 0.56015 0.4998 0.0
C2649 C 0.5931 0.63521 0.51746 0.0
C2650 C 0.5905 0.65099 0.53417 0.0
C2651 C 0.59766 0.64572 0.55524 0.0
C2652 C 0.60692 0.62542 0.55969 0.0
C2653 C 0.60835 0.61006 0.54313 0.0
C2654 C 0.60158 0.61458 0.52237 0.0
C2655 C 0.60697 0.59565 0.50725 0.0
C2656 C 0.58611 0.58289 0.50208 0.0
C2657 C 0.61792 0.60309 0.4862 0.0
C2658 C 0.62187 0.58214 0.52175 0.0
C2659 C 0.62053 0.58987 0.54279 0.0
C2660 C 0.63355 0.58162 0.55908 0.0
C2661 C 0.649 0.56596 0.55377 0.0
C2662 C 0.65134 0.55762 0.53275 0.0
C2663 C 0.63724 0.56569 0.51632 0.0
H2664 H 0.05812 0.0747 0.29376 0.0
H2665 H 0.04335 0.07815 0.36217 0.0
H2666 H 0.05155 0.11708 0.3619 0.0
H2667 H 0.10225 0.12023 0.29195 0.0
H2668 H 0.09225 0.12755 0.26581 0.0
H2669 H 0.08917 0.10005 0.27513 0.0
H2670 H 0.04738 0.10766 0.2657 0.0
H2671 H 0.05262 0.13595 0.26086 0.0
H2672 H 0.03318 0.128 0.28117 0.0
H2673 H 0.06322 0.15912 0.35464 0.0
H2674 H 0.07333 0.19543 0.34092 0.0
H2675 H 0.0787 0.16873 0.27639 0.0
C2676 C 0.05673 0.08341 0.30887 0.0
C2677 C 0.04992 0.07156 0.3283 0.0
C2678 C 0.04834 0.08525 0.34697 0.0
C2679 C 0.05314 0.10805 0.34699 0.0
C2680 C 0.05957 0.11895 0.328 0.0
C2681 C 0.06117 0.10697 0.30908 0.0
C2682 C 0.06716 0.12331 0.29061 0.0
C2683 C 0.08898 0.11729 0.2802 0.0
C2684 C 0.04901 0.12375 0.27356 0.0
C2685 C 0.0692 0.14585 0.30198 0.0
C2686 C 0.06488 0.14285 0.3237 0.0
C2687 C 0.06643 0.16109 0.33755 0.0
C2688 C 0.07235 0.18222 0.32946 0.0
C2689 C 0.07705 0.18649 0.30721 0.0
C2690 C 0.07526 0.16723 0.29349 0.0
H2691 H 0.22546 0.78053 0.54102 0.0
H2692 H 0.22163 0.78243 0.61064 0.0
H2693 H 0.1831 0.79365 0.60845 0.0
H2694 H 0.18264 0.81904 0.51793 0.0
H2695 H 0.17423 0.79721 0.5015 0.0
H2696 H 0.2016 0.79756 0.51187 0.0
H2697 H 0.18739 0.75756 0.52322 0.0
H2698 H 0.15939 0.76413 0.51729 0.0
H2699 H 0.16699 0.75581 0.5441 0.0
H2700 H 0.14398 0.81101 0.598 0.0
H2701 H 0.10858 0.82156 0.58178 0.0
H2702 H 0.13324 0.80321 0.51874 0.0
C2703 C 0.21682 0.78412 0.55584 0.0
C2704 C 0.22851 0.78295 0.57635 0.0
C2705 C 0.21475 0.78517 0.59484 0.0
C2706 C 0.19224 0.79124 0.59367 0.0
C2707 C 0.18191 0.79414 0.57355 0.0
C2708 C 0.1935 0.78938 0.55487 0.0
C2709 C 0.17673 0.78896 0.53587 0.0
C2710 C 0.18438 0.80144 0.51576 0.0
C2711 C 0.17238 0.76522 0.52975 0.0
C2712 C 0.15568 0.79888 0.54588 0.0
C2713 C 0.1588 0.80085 0.56793 0.0
C2714 C 0.14163 0.80909 0.58076 0.0
C2715 C 0.12116 0.8152 0.57127 0.0
C2716 C 0.11694 0.81355 0.54865 0.0
C2717 C 0.13505 0.80502 0.53603 0.0
H2718 H 0.48997 0.86316 0.83249 0.0
H2719 H 0.4726 0.86839 0.76475 0.0
H2720 H 0.48274 0.90645 0.765 0.0
H2721 H 0.46783 0.9189 0.8461 0.0
H2722 H 0.48848 0.92535 0.86577 0.0
H2723 H 0.48104 0.89754 0.86099 0.0
H2724 H 0.52116 0.88839 0.85289 0.0
H2725 H 0.52866 0.91623 0.85745 0.0
H2726 H 0.53546 0.90324 0.83223 0.0
H2727 H 0.49645 0.94615 0.77096 0.0
H2728 H 0.50557 0.98289 0.78349 0.0
H2729 H 0.51345 0.95836 0.84862 0.0
C2730 C 0.4882 0.87212 0.81758 0.0
C2731 C 0.48095 0.86065 0.79801 0.0
C2732 C 0.47893 0.87478 0.77974 0.0
C2733 C 0.48461 0.8972 0.77974 0.0
C2734 C 0.49235 0.90748 0.79846 0.0
C2735 C 0.49357 0.89558 0.81739 0.0
C2736 C 0.50109 0.91189 0.83547 0.0
C2737 C 0.48358 0.91351 0.85315 0.0
C2738 C 0.52288 0.90449 0.84511 0.0
C2739 C 0.5039 0.93434 0.82378 0.0
C2740 C 0.49911 0.93091 0.80223 0.0
C2741 C 0.5003 0.9486 0.78786 0.0
C2742 C 0.50552 0.96999 0.79531 0.0
C2743 C 0.51053 0.9751 0.81726 0.0
C2744 C 0.50988 0.95617 0.83163 0.0
H2745 H 0.42438 0.20912 0.07084 0.0
H2746 H 0.43437 0.26171 0.02571 0.0
H2747 H 0.39799 0.27547 0.03356 0.0
H2748 H 0.36728 0.19927 0.0624 0.0
H2749 H 0.35809 0.1973 0.08991 0.0
H2750 H 0.38597 0.19104 0.08308 0.0
H2751 H 0.40019 0.2185 0.11019 0.0
H2752 H 0.37255 0.22457 0.11808 0.0
H2753 H 0.39043 0.24596 0.10946 0.0
H2754 H 0.359 0.2864 0.04739 0.0
H2755 H 0.32198 0.29011 0.06172 0.0
H2756 H 0.33066 0.23113 0.09827 0.0
C2757 C 0.41925 0.22375 0.06273 0.0
C2758 C 0.43408 0.23387 0.04697 0.0
C2759 C 0.42487 0.25287 0.03738 0.0
C2760 C 0.40356 0.26114 0.04193 0.0
C2761 C 0.38968 0.25094 0.0568 0.0
C2762 C 0.39717 0.23262 0.06734 0.0
C2763 C 0.37828 0.22559 0.08311 0.0
C2764 C 0.37202 0.20189 0.07941 0.0
C2765 C 0.38581 0.22882 0.10661 0.0
C2766 C 0.35865 0.24132 0.07811 0.0
C2767 C 0.36641 0.25642 0.0636 0.0
C2768 C 0.35286 0.27401 0.05813 0.0
C2769 C 0.3311 0.27594 0.06645 0.0
C2770 C 0.32092 0.2602 0.08004 0.0
C2771 C 0.33606 0.24288 0.08651 0.0
H2772 H 0.32544 1.02126 0.0859 0.0
H2773 H 0.33747 0.08524 0.06047 0.0
H2774 H 0.33261 0.10045 0.09717 0.0
H2775 H 0.28304 0.03686 0.12595 0.0
H2776 H 0.29252 1.0175 0.14565 0.0
H2777 H 0.29719 1.01275 0.11732 0.0
H2778 H 0.33813 1.00846 0.12681 0.0
H2779 H 0.33279 1.01485 0.1548 0.0
H2780 H 0.35221 0.03055 0.13966 0.0
H2781 H 0.32832 0.10953 0.14068 0.0
H2782 H 0.32021 0.11104 0.17991 0.0
H2783 H 0.30567 0.04269 0.17903 0.0
C2784 C 0.32743 0.03846 0.08782 0.0
C2785 C 0.3325 0.05153 0.06873 0.0
C2786 C 0.33389 0.07416 0.07354 0.0
C2787 C 0.33114 0.08316 0.09493 0.0
C2788 C 0.32635 0.06997 0.11301 0.0
C2789 C 0.32418 0.04796 0.1095 0.0
C2790 C 0.31817 0.03744 0.13171 0.0
C2791 C 0.2964 0.02544 0.13003 0.0
C2792 C 0.33639 1.02188 0.13865 0.0
C2793 C 0.3165 0.05673 0.14806 0.0
C2794 C 0.32212 0.07533 0.13695 0.0
C2795 C 0.32349 0.09485 0.14888 0.0
C2796 C 0.31873 0.09564 0.17177 0.0
C2797 C 0.3115 0.0774 0.184 0.0
C2798 C 0.3106 0.05749 0.17117 0.0
H2799 H 0.26629 0.03827 0.32215 0.0
H2800 H 0.26823 0.10782 0.32984 0.0
H2801 H 0.25895 0.10375 0.36839 0.0
H2802 H 0.22176 0.02588 0.36332 0.0
H2803 H 0.23557 1.00193 0.37216 0.0
H2804 H 0.23979 1.01172 0.34501 0.0
H2805 H 0.2814 1.01098 0.3544 0.0
H2806 H 0.27557 1.00332 0.38196 0.0
H2807 H 0.29113 0.02738 0.37649 0.0
H2808 H 0.24717 0.09199 0.4094 0.0
H2809 H 0.23814 0.07465 0.44438 0.0
H2810 H 0.2454 1.01186 0.41422 0.0
C2811 C 0.26471 0.05282 0.33175 0.0
C2812 C 0.26811 0.07381 0.32121 0.0
C2813 C 0.26592 0.09159 0.33595 0.0
C2814 C 0.26048 0.08938 0.35852 0.0
C2815 C 0.25722 0.06892 0.36812 0.0
C2816 C 0.25952 0.05081 0.35508 0.0
C2817 C 0.25625 0.03062 0.37009 0.0
C2818 C 0.23723 1.0167 0.36209 0.0
C2819 C 0.27733 1.01726 0.37077 0.0
C2820 C 0.25101 0.04002 0.39308 0.0
C2821 C 0.25165 0.0623 0.39146 0.0
C2822 C 0.24694 0.07453 0.41031 0.0
C2823 C 0.24168 0.0643 0.43068 0.0
C2824 C 0.24087 0.04137 0.43365 0.0
C2825 C 0.24578 0.02934 0.41376 0.0
H2826 H 0.22808 0.96396 0.57497 0.0
H2827 H 0.25514 0.02833 0.57056 0.0
H2828 H 0.26461 0.027 0.60929 0.0
H2829 H 0.20681 0.97026 0.63433 0.0
H2830 H 0.2117 0.94172 0.63711 0.0
H2831 H 0.20584 0.95358 0.61093 0.0
H2832 H 0.24822 0.93445 0.59986 0.0
H2833 H 0.24743 0.92577 0.62786 0.0
H2834 H 0.26938 0.94216 0.61789 0.0
H2835 H 0.27264 1.018 0.65208 0.0
H2836 H 0.27752 1.00307 0.68887 0.0
H2837 H 0.24592 0.94397 0.66869 0.0
C2838 C 0.23625 0.97783 0.58186 0.0
C2839 C 0.24049 0.99657 0.56802 0.0
C2840 C 0.25099 1.01385 0.57941 0.0
C2841 C 0.25671 1.01316 0.60202 0.0
C2842 C 0.25218 0.99488 0.61491 0.0
C2843 C 0.24214 0.97745 0.60507 0.0
C2844 C 0.23892 0.95986 0.62293 0.0
C2845 C 0.21445 0.95594 0.62649 0.0
C2846 C 0.25156 0.93928 0.61678 0.0
C2847 C 0.24882 0.96956 0.64396 0.0
C2848 C 0.25634 0.99 0.63893 0.0
C2849 C 0.26641 1.00203 0.65559 0.0
C2850 C 0.26903 0.99329 0.67705 0.0
C2851 C 0.26159 0.9723 0.6834 0.0
C2852 C 0.25131 0.96037 0.66579 0.0
H2853 H 0.34202 0.97156 0.92585 0.0
H2854 H 0.30799 0.03299 0.92629 0.0
H2855 H 0.29699 0.02731 0.88885 0.0
H2856 H 0.36096 0.97427 0.86862 0.0
H2857 H 0.35617 0.94629 0.86204 0.0
H2858 H 0.36172 0.95408 0.88961 0.0
H2859 H 0.32619 0.93606 0.90202 0.0
H2860 H 0.32055 0.9281 0.87451 0.0
H2861 H 0.30082 0.94365 0.88951 0.0
H2862 H 0.28779 1.01543 0.84879 0.0
H2863 H 0.28274 0.99919 0.81266 0.0
H2864 H 0.32219 0.94453 0.83222 0.0
C2865 C 0.3321 0.9839 0.91833 0.0
C2866 C 0.32633 1.00331 0.93096 0.0
C2867 C 0.31334 1.0182 0.9187 0.0
C2868 C 0.30672 1.01502 0.89669 0.0
C2869 C 0.31268 0.9964 0.88502 0.0
C2870 C 0.32513 0.98089 0.89544 0.0
C2871 C 0.32892 0.96229 0.87838 0.0
C2872 C 0.3534 0.95903 0.87444 0.0
C2873 C 0.31852 0.94127 0.88659 0.0
C2874 C 0.31724 0.97001 0.857 0.0
C2875 C 0.30777 0.98976 0.86166 0.0
C2876 C 0.29547 1.00006 0.84532 0.0
C2877 C 0.29266 0.99053 0.82425 0.0
C2878 C 0.30217 0.97045 0.8178 0.0
C2879 C 0.31479 0.96013 0.83525 0.0
H2880 H 0.08688 0.35008 0.04269 0.0
H2881 H 0.05546 0.29035 0.06026 0.0
H2882 H 0.09018 0.27663 0.07494 0.0
H2883 H 0.138 0.32013 0.02544 0.0
H2884 H 0.15665 0.34133 0.03284 0.0
H2885 H 0.12918 0.34792 0.02487 0.0
H2886 H 0.12284 0.36827 0.06093 0.0
H2887 H 0.15088 0.36248 0.06736 0.0
H2888 H 0.12983 0.35525 0.08598 0.0
H2889 H 0.12906 0.26875 0.08982 0.0
H2890 H 0.16773 0.26512 0.09848 0.0
H2891 H 0.18015 0.32783 0.06961 0.0
C2892 C 0.08704 0.33423 0.05006 0.0
C2893 C 0.06653 0.32211 0.05164 0.0
C2894 C 0.06925 0.30102 0.06033 0.0
C2895 C 0.08952 0.29284 0.06841 0.0
C2896 C 0.10868 0.30531 0.06764 0.0
C2897 C 0.10789 0.32551 0.05814 0.0
C2898 C 0.13198 0.3342 0.0574 0.0
C2899 C 0.13939 0.33602 0.03373 0.0
C2900 C 0.13393 0.35632 0.06859 0.0
C2901 C 0.1459 0.31657 0.0694 0.0
C2902 C 0.13174 0.30002 0.07477 0.0
C2903 C 0.14 0.28172 0.08541 0.0
C2904 C 0.16264 0.2798 0.0904 0.0
C2905 C 0.17858 0.29585 0.08528 0.0
C2906 C 0.16938 0.31487 0.07444 0.0
H2907 H 0.58804 0.21092 1.00792 0.0
H2908 H 0.55539 0.26024 0.97021 0.0
H2909 H 0.59097 0.27289 0.95687 0.0
H2910 H 0.63658 0.24377 1.02261 0.0
H2911 H 0.65617 0.22221 1.01985 0.0
H2912 H 0.62836 0.21615 0.02679 0.0
H2913 H 0.62554 0.19033 0.99433 0.0
H2914 H 0.65341 0.19619 0.98723 0.0
H2915 H 0.63206 0.20008 0.96763 0.0
H2916 H 0.63165 0.28189 0.94719 0.0
H2917 H 0.67101 0.28589 0.94236 0.0
H2918 H 0.68202 0.23145 0.98517 0.0
C2919 C 0.58818 0.22456 0.99703 0.0
C2920 C 0.56745 0.23442 0.99071 0.0
C2921 C 0.56983 0.25193 0.97585 0.0
C2922 C 0.59047 0.25942 0.96802 0.0
C2923 C 0.61011 0.24962 0.9746 0.0
C2924 C 0.60922 0.23241 0.9888 0.0
C2925 C 0.63325 0.22485 0.99289 0.0
C2926 C 0.63893 0.22686 1.01698 0.0
C2927 C 0.63625 0.20146 0.98507 0.0
C2928 C 0.64767 0.24055 0.97917 0.0
C2929 C 0.63361 0.25463 0.96877 0.0
C2930 C 0.64243 0.27076 0.95542 0.0
C2931 C 0.66544 0.27292 0.95273 0.0
C2932 C 0.68117 0.25921 0.96294 0.0
C2933 C 0.67146 0.24243 0.97648 0.0
H2934 H 0.06184 0.32515 0.23562 0.0
H2935 H 0.09237 0.3351 0.29762 0.0
H2936 H 0.08463 0.37395 0.29534 0.0
H2937 H 0.08294 0.38782 0.21183 0.0
H2938 H 0.06284 0.37682 0.19398 0.0
H2939 H 0.08118 0.35968 0.20942 0.0
H2940 H 0.03273 0.34899 0.21549 0.0
H2941 H 0.02554 0.37626 0.20819 0.0
H2942 H 1.02033 0.36651 0.23514 0.0
H2943 H 0.0737 0.41653 0.28498 0.0
H2944 H 0.06105 0.45133 0.26926 0.0
H2945 H 0.03768 0.41681 0.21309 0.0
C2946 C 0.06711 0.33526 0.24884 0.0
C2947 C 0.0774 0.32492 0.26766 0.0
C2948 C 0.08365 0.34061 0.28362 0.0
C2949 C 0.0795 0.36355 0.28221 0.0
C2950 C 0.06927 0.37284 0.26401 0.0
C2951 C 0.06359 0.35901 0.24728 0.0
C2952 C 0.05451 0.37371 0.22866 0.0
C2953 C 0.07104 0.37442 0.20982 0.0
C2954 C 0.03197 0.36588 0.22139 0.0
C2955 C 0.05312 0.39693 0.23836 0.0
C2956 C 0.06304 0.39638 0.2584 0.0
C2957 C 0.06597 0.41641 0.26927 0.0
C2958 C 0.05881 0.4367 0.2599 0.0
C2959 C 0.04822 0.43828 0.23934 0.0
C2960 C 0.04549 0.41732 0.22877 0.0
H2961 H 0.97678 0.78636 0.50834 0.0
H2962 H 0.97896 0.85487 0.49447 0.0
H2963 H 0.94039 0.85365 0.48301 0.0
H2964 H 0.93525 0.76718 0.46573 0.0
H2965 H 0.92424 0.74938 0.4856 0.0
H2966 H 0.95234 0.75759 0.48751 0.0
H2967 H 0.94011 0.76861 0.52743 0.0
H2968 H 0.91184 0.76346 0.52145 0.0
H2969 H 0.92021 0.78984 0.53052 0.0
H2970 H 0.89849 0.84469 0.47171 0.0
H2971 H 0.86163 0.82991 0.46456 0.0
H2972 H 0.88359 0.76715 0.48653 0.0
C2973 C 0.96936 0.80117 0.50265 0.0
C2974 C 0.98241 0.82087 0.50216 0.0
C2975 C 0.97059 0.83949 0.49511 0.0
C2976 C 0.94817 0.8389 0.4884 0.0
C2977 C 0.93605 0.81953 0.48894 0.0
C2978 C 0.94631 0.80093 0.49621 0.0
C2979 C 0.92884 0.78261 0.4969 0.0
C2980 C 0.93568 0.76307 0.48314 0.0
C2981 C 0.92503 0.7757 0.52047 0.0
C2982 C 0.90783 0.79321 0.48754 0.0
C2983 C 0.9123 0.81471 0.48336 0.0
C2984 C 0.89533 0.82781 0.47507 0.0
C2985 C 0.87394 0.81914 0.47097 0.0
C2986 C 0.8684 0.79701 0.47461 0.0
C2987 C 0.88631 0.7841 0.48318 0.0
H2988 H 0.46974 0.75143 0.53848 0.0
H2989 H 0.47615 0.68354 0.55388 0.0
H2990 H 0.43778 0.68296 0.56627 0.0
H2991 H 0.43291 0.76724 0.58235 0.0
H2992 H 0.41624 0.7849 0.5661 0.0
H2993 H 0.44426 0.78019 0.55879 0.0
H2994 H 0.43214 0.76778 0.52078 0.0
H2995 H 0.40409 0.77245 0.52809 0.0
H2996 H 0.4125 0.7463 0.51829 0.0
H2997 H 0.39508 0.69044 0.57858 0.0
H2998 H 0.35786 0.70427 0.58667 0.0
H2999 H 0.37717 0.76704 0.56253 0.0
C3000 C 0.46327 0.73636 0.54455 0.0
C3001 C 0.47737 0.71743 0.5451 0.0
C3002 C 0.46684 0.69838 0.55298 0.0
C3003 C 0.44453 0.69792 0.56019 0.0
C3004 C 0.43131 0.71661 0.55949 0.0
C3005 C 0.44045 0.73551 0.55154 0.0
C3006 C 0.42242 0.7532 0.5516 0.0
C3007 C 0.42938 0.77254 0.56554 0.0
C3008 C 0.41751 0.76038 0.52831 0.0
C3009 C 0.40217 0.74185 0.56152 0.0
C3010 C 0.40752 0.72059 0.56585 0.0
C3011 C 0.39121 0.70711 0.57492 0.0
C3012 C 0.36958 0.7152 0.57951 0.0
C3013 C 0.3632 0.73705 0.57544 0.0
C3014 C 0.38047 0.75026 0.56615 0.0
H3015 H 0.97354 0.92898 0.33598 0.0
H3016 H 0.03122 0.93194 0.29652 0.0
H3017 H 1.02439 0.89608 0.28248 0.0
H3018 H 0.97923 0.87169 0.3498 0.0
H3019 H 0.95094 0.86438 0.3467 0.0
H3020 H 0.95824 0.89179 0.35411 0.0
H3021 H 0.93622 0.90582 0.32199 0.0
H3022 H 0.92824 0.87846 0.31568 0.0
H3023 H 0.94123 0.8949 0.2954 0.0
H3024 H 1.01069 0.85732 0.27049 0.0
H3025 H 0.99492 0.82088 0.26634 0.0
H3026 H 0.94719 0.83607 0.31563 0.0
C3027 C 0.98474 0.92243 0.32415 0.0
C3028 C 1.00345 0.93551 0.31734 0.0
C3029 C 1.01688 0.92429 0.30213 0.0
C3030 C 1.01301 0.90307 0.29389 0.0
C3031 C 0.99503 0.89103 0.30069 0.0
C3032 C 0.98103 0.90028 0.31564 0.0
C3033 C 0.96331 0.88279 0.32039 0.0
C3034 C 0.96299 0.87745 0.34434 0.0
C3035 C 0.94091 0.89098 0.31294 0.0
C3036 C 0.97013 0.86227 0.30704 0.0
C3037 C 0.98819 0.86802 0.29511 0.0
C3038 C 0.99684 0.85287 0.28035 0.0
C3039 C 0.98758 0.83169 0.27804 0.0
C3040 C 0.9699 0.8239 0.29088 0.0
C3041 C 0.96105 0.84022 0.30567 0.0
H3042 H 0.58449 0.11308 0.80587 0.0
H3043 H 0.51674 0.12419 0.82282 0.0
H3044 H 0.52048 0.1621 0.8131 0.0
H3045 H 0.6058 0.16523 0.82472 0.0
H3046 H 0.6236 0.17162 0.80256 0.0
H3047 H 0.61763 0.14384 0.80917 0.0
H3048 H 0.6042 0.13569 0.77146 0.0
H3049 H 0.61107 0.16289 0.76348 0.0
H3050 H 0.58395 0.15272 0.75902 0.0
H3051 H 0.53043 0.20141 0.80303 0.0
H3052 H 0.54589 0.2369 0.79343 0.0
H3053 H 0.60767 0.206 0.77945 0.0
C3054 C 0.57037 0.12337 0.8078 0.0
C3055 C 0.54992 0.11386 0.81569 0.0
C3056 C 0.53257 0.12934 0.81712 0.0
C3057 C 0.53451 0.15163 0.81149 0.0
C3058 C 0.55417 0.16017 0.8038 0.0
C3059 C 0.57201 0.14657 0.80187 0.0
C3060 C 0.59109 0.16088 0.79272 0.0
C3061 C 0.61067 0.1604 0.80819 0.0
C3062 C 0.59799 0.15254 0.77034 0.0
C3063 C 0.58132 0.18439 0.79072 0.0
C3064 C 0.55978 0.18312 0.79707 0.0
C3065 C 0.54721 0.20223 0.79778 0.0
C3066 C 0.55634 0.22283 0.79231 0.0
C3067 C 0.57825 0.22567 0.78529 0.0
C3068 C 0.59078 0.20542 0.78439 0.0
H3069 H 0.55916 0.3716 0.76556 0.0
H3070 H 0.60303 0.3563 0.71297 0.0
H3071 H 0.59942 0.39388 0.69949 0.0
H3072 H 0.52302 0.40729 0.72989 0.0
H3073 H 0.51619 0.42508 0.75197 0.0
H3074 H 0.52234 0.39704 0.75716 0.0
H3075 H 0.5516 0.40857 0.78413 0.0
H3076 H 0.54622 0.43665 0.77879 0.0
H3077 H 0.57347 0.4258 0.77546 0.0
H3078 H 0.59155 0.43686 0.69185 0.0
H3079 H 0.5794 0.47506 0.69014 0.0
H3080 H 0.5373 0.46393 0.74513 0.0
C3081 C 0.56796 0.37592 0.75103 0.0
C3082 C 0.5819 0.35974 0.74086 0.0
C3083 C 0.59247 0.36728 0.7217 0.0
C3084 C 0.59044 0.38912 0.71377 0.0
C3085 C 0.57693 0.40445 0.72425 0.0
C3086 C 0.56529 0.39775 0.7422 0.0
C3087 C 0.55083 0.41702 0.74979 0.0
C3088 C 0.52666 0.41125 0.74706 0.0
C3089 C 0.55583 0.42239 0.77346 0.0
C3090 C 0.55699 0.43609 0.73441 0.0
C3091 C 0.57199 0.42828 0.71958 0.0
C3092 C 0.57986 0.44264 0.70361 0.0
C3093 C 0.57276 0.46485 0.70273 0.0
C3094 C 0.55758 0.47408 0.71767 0.0
C3095 C 0.54929 0.45857 0.73347 0.0
H3096 H 0.924 0.3507 0.9753 0.0
H3097 H 0.93856 0.28977 1.00666 0.0
H3098 H 0.90162 0.27723 0.99952 0.0
H3099 H 0.86899 0.35647 0.98916 0.0
H3100 H 0.85745 0.36414 0.96332 0.0
H3101 H 0.88565 0.3694 0.96912 0.0
H3102 H 0.89779 0.34843 0.93591 0.0
H3103 H 0.86967 0.34364 0.92898 0.0
H3104 H 0.88825 0.32123 0.93165 0.0
H3105 H 0.8611 0.27048 0.99116 0.0
H3106 H 0.82289 0.26928 0.98042 0.0
H3107 H 0.82988 0.3313 0.94865 0.0
C3108 C 0.91979 0.33447 0.98027 0.0
C3109 C 0.93562 0.32176 0.99262 0.0
C3110 C 0.92783 0.30072 0.99826 0.0
C3111 C 0.90636 0.29313 0.99397 0.0
C3112 C 0.89132 0.30598 0.98278 0.0
C3113 C 0.89788 0.32595 0.97517 0.0
C3114 C 0.87802 0.33553 0.96242 0.0
C3115 C 0.87211 0.35775 0.97156 0.0
C3116 C 0.88378 0.33734 0.93831 0.0
C3117 C 0.85901 0.31873 0.96562 0.0
C3118 C 0.86773 0.30167 0.97716 0.0
C3119 C 0.85445 0.28387 0.98203 0.0
C3120 C 0.83218 0.28321 0.97546 0.0
C3121 C 0.8215 0.30004 0.96372 0.0
C3122 C 0.83605 0.31812 0.95836 0.0
H3123 H 0.99088 0.5759 0.26536 0.0
H3124 H 0.99605 0.57614 0.19553 0.0
H3125 H 0.98748 0.61509 0.19517 0.0
H3126 H 0.94691 0.61968 0.27106 0.0
H3127 H 0.95972 0.63026 0.29485 0.0
H3128 H 0.96307 0.60207 0.28792 0.0
H3129 H 1.00507 0.60986 0.29006 0.0
H3130 H 1.00016 0.63827 0.29453 0.0
H3131 H 1.01665 0.62963 0.272 0.0
H3132 H 0.97739 0.65726 0.20214 0.0
H3133 H 0.96957 0.69426 0.21551 0.0
H3134 H 0.97204 0.67035 0.28123 0.0
C3135 C 0.98981 0.58388 0.24984 0.0
C3136 C 0.99389 0.57127 0.2302 0.0
C3137 C 0.99286 0.58398 0.21088 0.0
C3138 C 0.98793 0.6067 0.21051 0.0
C3139 C 0.98411 0.61839 0.22974 0.0
C3140 C 0.98518 0.60731 0.2492 0.0
C3141 C 0.98172 0.62438 0.26762 0.0
C3142 C 0.96168 0.61868 0.28123 0.0
C3143 C 1.00211 0.6256 0.28192 0.0
C3144 C 0.97797 0.64633 0.25566 0.0
C3145 C 0.97943 0.6424 0.23371 0.0
C3146 C 0.97636 0.66001 0.2194 0.0
C3147 C 0.9718 0.68151 0.22728 0.0
C3148 C 0.97007 0.68675 0.24974 0.0
C3149 C 0.97329 0.66811 0.26394 0.0
H3150 H 0.62519 0.70302 0.47718 0.0
H3151 H 0.61368 0.75212 0.52573 0.0
H3152 H 0.65002 0.76684 0.51955 0.0
H3153 H 0.67829 0.69198 0.48873 0.0
H3154 H 0.69273 0.69134 0.46331 0.0
H3155 H 0.66405 0.68513 0.46455 0.0
H3156 H 0.65143 0.71404 0.43935 0.0
H3157 H 0.67971 0.71945 0.43355 0.0
H3158 H 0.66188 0.74113 0.44172 0.0
H3159 H 0.68934 0.77843 0.50771 0.0
H3160 H 0.72711 0.78241 0.4953 0.0
H3161 H 0.72039 0.72417 0.45686 0.0
C3162 C 0.62993 0.71723 0.48622 0.0
C3163 C 0.61465 0.72633 0.50211 0.0
C3164 C 0.62341 0.74449 0.51345 0.0
C3165 C 0.64468 0.75322 0.50992 0.0
C3166 C 0.65894 0.74412 0.49465 0.0
C3167 C 0.65197 0.72638 0.48286 0.0
C3168 C 0.67164 0.71953 0.46805 0.0
C3169 C 0.67709 0.69558 0.47131 0.0
C3170 C 0.66582 0.72377 0.44425 0.0
C3171 C 0.69106 0.73471 0.47492 0.0
C3172 C 0.68255 0.74954 0.4894 0.0
C3173 C 0.69596 0.76648 0.49673 0.0
C3174 C 0.71807 0.76854 0.48958 0.0
C3175 C 0.72869 0.75333 0.4757 0.0
C3176 C 0.71415 0.73602 0.46816 0.0
H3177 H 0.71871 0.57452 0.46818 0.0
H3178 H 0.73108 0.50601 0.4635 0.0
H3179 H 0.73723 0.50953 0.42447 0.0
H3180 H 0.69271 0.58161 0.41401 0.0
H3181 H 0.70573 0.60694 0.40771 0.0
H3182 H 0.70105 0.59946 0.43553 0.0
H3183 H 0.74183 0.6043 0.44363 0.0
H3184 H 0.74657 0.61178 0.41583 0.0
H3185 H 0.76164 0.58979 0.42769 0.0
H3186 H 0.74349 0.52033 0.38351 0.0
H3187 H 0.74983 0.53657 0.34773 0.0
H3188 H 0.73585 0.59989 0.37436 0.0
C3189 C 0.7226 0.56007 0.45908 0.0
C3190 C 0.72297 0.53918 0.47038 0.0
C3191 C 0.72878 0.52167 0.4565 0.0
C3192 C 0.73293 0.52376 0.43375 0.0
C3193 C 0.73192 0.54398 0.42333 0.0
C3194 C 0.72707 0.56204 0.43564 0.0
C3195 C 0.72781 0.58198 0.41991 0.0
C3196 C 0.70549 0.59318 0.41926 0.0
C3197 C 0.74551 0.59792 0.42721 0.0
C3198 C 0.73361 0.57236 0.39711 0.0
C3199 C 0.73591 0.55026 0.3998 0.0
C3200 C 0.74155 0.53762 0.38166 0.0
C3201 C 0.74511 0.54721 0.36085 0.0
C3202 C 0.74315 0.56984 0.35659 0.0
C3203 C 0.73712 0.5825 0.37575 0.0
H3204 H 0.73895 0.52913 0.62401 0.0
H3205 H 0.7253 0.46528 0.59885 0.0
H3206 H 0.73463 0.44963 0.63457 0.0
H3207 H 0.78538 0.51069 0.66039 0.0
H3208 H 0.77899 0.53015 0.68116 0.0
H3209 H 0.77274 0.536 0.65326 0.0
H3210 H 0.73286 0.54274 0.66297 0.0
H3211 H 0.73901 0.5374 0.69081 0.0
H3212 H 0.7177 0.52232 0.67708 0.0
H3213 H 0.74962 0.43991 0.67532 0.0
H3214 H 0.76204 0.43824 0.71321 0.0
H3215 H 0.76157 0.50777 0.71659 0.0
C3216 C 0.73796 0.51176 0.62575 0.0
C3217 C 0.73107 0.49886 0.60717 0.0
C3218 C 0.73035 0.47617 0.61161 0.0
C3219 C 0.73577 0.46695 0.63239 0.0
C3220 C 0.74228 0.48004 0.65005 0.0
C3221 C 0.74344 0.50211 0.64678 0.0
C3222 C 0.75074 0.51268 0.66854 0.0
C3223 C 0.7733 0.52301 0.66566 0.0
C3224 C 0.73405 0.52977 0.67535 0.0
C3225 C 0.75215 0.49353 0.68514 0.0
C3226 C 0.74812 0.47472 0.67361 0.0
C3227 C 0.75137 0.45482 0.68433 0.0
C3228 C 0.75796 0.45391 0.70669 0.0
C3229 C 0.76026 0.47244 0.72034 0.0
C3230 C 0.7581 0.49278 0.70832 0.0
H3231 H 0.81583 0.52662 0.95864 0.0
H3232 H 0.84966 0.46878 0.97892 0.0
H3233 H 0.84618 0.45398 0.94194 0.0
H3234 H 0.7769 0.50098 0.92066 0.0
H3235 H 0.77855 0.5221 0.90066 0.0
H3236 H 0.78398 0.52826 0.92853 0.0
H3237 H 0.82107 0.54386 0.91742 0.0
H3238 H 0.81551 0.53724 0.88953 0.0
H3239 H 0.83987 0.52727 0.90235 0.0
H3240 H 0.83915 0.44445 0.89847 0.0
H3241 H 0.828 0.44166 0.86 0.0
H3242 H 0.79587 0.5037 0.86547 0.0
C3243 C 0.82261 0.51076 0.95557 0.0
C3244 C 0.83256 0.49895 0.97371 0.0
C3245 C 0.84118 0.47845 0.96706 0.0
C3246 C 0.83939 0.46978 0.94536 0.0
C3247 C 0.82892 0.48128 0.92849 0.0
C3248 C 0.82061 0.50154 0.93348 0.0
C3249 C 0.81006 0.51058 0.91218 0.0
C3250 C 0.78591 0.51575 0.91577 0.0
C3251 C 0.82234 0.53096 0.90494 0.0
C3252 C 0.81277 0.49222 0.89483 0.0
C3253 C 0.82439 0.47566 0.90451 0.0
C3254 C 0.82989 0.45756 0.8914 0.0
C3255 C 0.82345 0.45608 0.86887 0.0
C3256 C 0.81069 0.47214 0.85799 0.0
C3257 C 0.80544 0.49059 0.87209 0.0
H3258 H 0.78526 0.54399 0.21919 0.0
H3259 H 0.7887 0.61377 0.21611 0.0
H3260 H 0.80041 0.61129 0.17791 0.0
H3261 H 0.82985 0.52838 0.18015 0.0
H3262 H 0.81372 0.50735 0.1684 0.0
H3263 H 0.80859 0.51558 0.19588 0.0
H3264 H 0.76819 0.52133 0.18378 0.0
H3265 H 0.77533 0.51459 0.15629 0.0
H3266 H 0.7625 0.54012 0.16223 0.0
H3267 H 0.81356 0.60089 0.13686 0.0
H3268 H 0.82327 0.5847 0.10144 0.0
H3269 H 0.81 0.5212 0.12762 0.0
C3270 C 0.78861 0.55889 0.21068 0.0
C3271 C 0.78633 0.57941 0.22234 0.0
C3272 C 0.79052 0.59785 0.20905 0.0
C3273 C 0.79723 0.59654 0.18674 0.0
C3274 C 0.79944 0.57645 0.17602 0.0
C3275 C 0.79482 0.55783 0.18762 0.0
C3276 C 0.79687 0.53836 0.17149 0.0
C3277 C 0.81323 0.52145 0.17955 0.0
C3278 C 0.77439 0.52797 0.16826 0.0
C3279 C 0.8049 0.54856 0.1498 0.0
C3280 C 0.80592 0.57071 0.15273 0.0
C3281 C 0.81262 0.58353 0.13495 0.0
C3282 C 0.81827 0.57399 0.11436 0.0
C3283 C 0.81778 0.55123 0.11028 0.0
C3284 C 0.8108 0.5386 0.12903 0.0
H3285 H 0.52833 0.62208 0.74627 0.0
H3286 H 0.47108 0.60246 0.71062 0.0
H3287 H 0.455 0.63871 0.71688 0.0
H3288 H 0.49638 0.65539 0.78689 0.0
H3289 H 0.5176 0.67523 0.79003 0.0
H3290 H 0.52442 0.64771 0.78303 0.0
H3291 H 0.5453 0.66159 0.75035 0.0
H3292 H 0.53778 0.68933 0.75549 0.0
H3293 H 0.53146 0.67688 0.72981 0.0
H3294 H 0.44488 0.6814 0.72624 0.0
H3295 H 0.44241 0.71973 0.73775 0.0
H3296 H 0.50424 0.71325 0.77055 0.0
C3297 C 0.51237 0.62516 0.73962 0.0
C3298 C 0.50154 0.60793 0.72746 0.0
C3299 C 0.48041 0.61409 0.71985 0.0
C3300 C 0.471 0.63527 0.72331 0.0
C3301 C 0.48214 0.6516 0.73499 0.0
C3302 C 0.50235 0.64646 0.74345 0.0
C3303 C 0.51055 0.66659 0.7564 0.0
C3304 C 0.51237 0.66089 0.78052 0.0
C3305 C 0.5326 0.67408 0.7475 0.0
C3306 C 0.49267 0.68431 0.75304 0.0
C3307 C 0.47623 0.67512 0.74077 0.0
C3308 C 0.45799 0.68821 0.73574 0.0
C3309 C 0.45663 0.71055 0.74252 0.0
C3310 C 0.47286 0.72104 0.75535 0.0
C3311 C 0.49115 0.70684 0.76076 0.0
H3312 H 0.13204 0.22726 0.43965 0.0
H3313 H 0.11673 0.18749 0.38386 0.0
H3314 H 0.14125 0.15889 0.39762 0.0
H3315 H 0.18888 0.21277 0.4427 0.0
H3316 H 0.18953 0.2129 0.47184 0.0
H3317 H 0.17068 0.23011 0.45766 0.0
H3318 H 0.13874 0.2132 0.47912 0.0
H3319 H 0.15749 0.19582 0.49323 0.0
H3320 H 0.1349 0.18432 0.47863 0.0
H3321 H 0.16622 0.13421 0.41799 0.0
H3322 H 0.19261 0.11616 0.44225 0.0
H3323 H 0.19262 0.17249 0.48409 0.0
C3324 C 0.13382 0.21248 0.4304 0.0
C3325 C 0.12246 0.20944 0.41076 0.0
C3326 C 0.12541 0.19009 0.39889 0.0
C3327 C 0.13917 0.17376 0.40662 0.0
C3328 C 0.14999 0.17716 0.42613 0.0
C3329 C 0.14768 0.19612 0.43776 0.0
C3330 C 0.16155 0.19587 0.45802 0.0
C3331 C 0.17867 0.21399 0.45751 0.0
C3332 C 0.14731 0.19738 0.47845 0.0
C3333 C 0.17202 0.1738 0.45592 0.0
C3334 C 0.16495 0.16318 0.43754 0.0
C3335 C 0.172 0.14239 0.43236 0.0
C3336 C 0.18689 0.13226 0.44621 0.0
C3337 C 0.1947 0.14306 0.46483 0.0
C3338 C 0.18709 0.16404 0.46976 0.0
H3339 H 0.07907 0.85072 0.68609 0.0
H3340 H 0.07497 0.89504 0.63158 0.0
H3341 H 0.1005 0.91941 0.64962 0.0
H3342 H 0.07798 0.89359 0.72607 0.0
H3343 H 0.09584 0.87958 0.74447 0.0
H3344 H 0.07849 0.86445 0.72652 0.0
H3345 H 0.11219 0.84418 0.71153 0.0
H3346 H 0.12968 0.85938 0.72929 0.0
H3347 H 0.13462 0.85941 0.70054 0.0
H3348 H 0.12699 0.93888 0.67278 0.0
H3349 H 0.14943 0.95453 0.70211 0.0
H3350 H 0.13321 0.90038 0.74349 0.0
C3351 C 0.08328 0.8656 0.67792 0.0
C3352 C 0.07529 0.87039 0.65695 0.0
C3353 C 0.08144 0.89023 0.64711 0.0
C3354 C 0.09583 0.90442 0.65735 0.0
C3355 C 0.10356 0.899 0.67775 0.0
C3356 C 0.09717 0.88033 0.68817 0.0
C3357 C 0.10678 0.87918 0.71075 0.0
C3358 C 0.0887 0.87921 0.72797 0.0
C3359 C 0.12171 0.85936 0.71315 0.0
C3360 C 0.11969 0.90007 0.71121 0.0
C3361 C 0.1178 0.91106 0.69185 0.0
C3362 C 0.12847 0.93056 0.6881 0.0
C3363 C 0.14115 0.93929 0.70474 0.0
C3364 C 0.14278 0.92865 0.72486 0.0
C3365 C 0.13203 0.90877 0.72816 0.0
H3366 H 0.40412 0.83775 0.8847 0.0
H3367 H 0.42605 0.798 0.93804 0.0
H3368 H 0.41913 0.8282 0.96338 0.0
H3369 H 0.42207 0.89256 0.90819 0.0
H3370 H 0.39791 0.90533 0.89766 0.0
H3371 H 0.41039 0.8833 0.8831 0.0
H3372 H 0.37374 0.86263 0.8835 0.0
H3373 H 0.36123 0.88444 0.89804 0.0
H3374 H 0.36046 0.85745 0.90901 0.0
H3375 H 0.40345 0.85963 0.9834 0.0
H3376 H 0.37849 0.88839 0.99631 0.0
H3377 H 0.36525 0.90679 0.93009 0.0
C3378 C 0.40839 0.83581 0.90158 0.0
C3379 C 0.41585 0.81575 0.90946 0.0
C3380 C 0.42044 0.81336 0.93175 0.0
C3381 C 0.41673 0.83048 0.94619 0.0
C3382 C 0.40847 0.84984 0.93805 0.0
C3383 C 0.40449 0.85264 0.91619 0.0
C3384 C 0.39222 0.87345 0.91192 0.0
C3385 C 0.40651 0.88961 0.89949 0.0
C3386 C 0.37064 0.86921 0.89993 0.0
C3387 C 0.38836 0.88099 0.93487 0.0
C3388 C 0.39861 0.8677 0.9497 0.0
C3389 C 0.39574 0.8704 0.97194 0.0
C3390 C 0.38154 0.88669 0.97914 0.0
C3391 C 0.3701 0.89958 0.96408 0.0
C3392 C 0.37403 0.89711 0.94179 0.0
H3393 H 0.43505 0.14732 0.23076 0.0
H3394 H 0.3722 0.158 0.20068 0.0
H3395 H 0.39046 0.16676 0.16625 0.0
H3396 H 0.45935 0.19083 0.21098 0.0
H3397 H 0.48594 0.17931 0.20647 0.0
H3398 H 0.46837 0.16789 0.2266 0.0
H3399 H 0.47126 0.13037 0.20814 0.0
H3400 H 0.48909 0.14171 0.18794 0.0
H3401 H 0.46473 0.12765 0.17985 0.0
H3402 H 0.41503 0.18141 0.1379 0.0
H3403 H 0.444 0.2011 0.11828 0.0
H3404 H 0.49066 0.18236 0.16734 0.0
C3405 C 0.42515 0.15089 0.21672 0.0
C3406 C 0.40227 0.15198 0.21831 0.0
C3407 C 0.38977 0.15676 0.19969 0.0
C3408 C 0.4 0.16173 0.18007 0.0
C3409 C 0.42268 0.16155 0.17932 0.0
C3410 C 0.43512 0.15598 0.19712 0.0
C3411 C 0.45906 0.16008 0.19318 0.0
C3412 C 0.46871 0.17545 0.21031 0.0
C3413 C 0.47178 0.13867 0.19221 0.0
C3414 C 0.45793 0.17057 0.17117 0.0
C3415 C 0.43694 0.17054 0.16305 0.0
C3416 C 0.4316 0.18107 0.14383 0.0
C3417 C 0.44806 0.19225 0.13285 0.0
C3418 C 0.46934 0.19315 0.14149 0.0
C3419 C 0.47443 0.18176 0.16052 0.0
H3420 H 0.12981 0.0955 0.28912 0.0
H3421 H 0.11836 0.05189 0.3422 0.0
H3422 H 0.14093 0.07421 0.36554 0.0
H3423 H 0.17311 0.09536 0.28436 0.0
H3424 H 0.18373 0.12245 0.28191 0.0
H3425 H 0.15573 0.11731 0.27612 0.0
H3426 H 0.1448 0.14636 0.30285 0.0
H3427 H 0.17268 0.15108 0.31063 0.0
H3428 H 0.15278 0.14488 0.33088 0.0
H3429 H 0.1769 0.08449 0.37528 0.0
H3430 H 0.20984 0.06722 0.36194 0.0
H3431 H 0.20737 0.10599 0.30444 0.0
C3432 C 0.13128 0.09151 0.30604 0.0
C3433 C 0.12291 0.07183 0.31353 0.0
C3434 C 0.12462 0.06692 0.33577 0.0
C3435 C 0.13745 0.07979 0.34934 0.0
C3436 C 0.14894 0.09721 0.34042 0.0
C3437 C 0.14505 0.10369 0.31924 0.0
C3438 C 0.16357 0.11732 0.31095 0.0
C3439 C 0.16938 0.11277 0.28695 0.0
C3440 C 0.15805 0.14134 0.31403 0.0
C3441 C 0.18109 0.11048 0.32684 0.0
C3442 C 0.17154 0.10246 0.34575 0.0
C3443 C 0.18387 0.09006 0.3602 0.0
C3444 C 0.20275 0.08011 0.35243 0.0
C3445 C 0.20872 0.083 0.33059 0.0
C3446 C 0.20121 0.10185 0.32022 0.0
H3447 H 0.18781 0.91659 0.54814 0.0
H3448 H 0.18907 0.85764 0.51104 0.0
H3449 H 0.19608 0.83719 0.54466 0.0
H3450 H 0.22483 0.9116 0.57764 0.0
H3451 H 0.21495 0.91907 0.60408 0.0
H3452 H 0.20134 0.9291 0.5806 0.0
H3453 H 0.16529 0.91338 0.59437 0.0
H3454 H 0.17886 0.90442 0.61865 0.0
H3455 H 0.16383 0.88544 0.60237 0.0
H3456 H 0.21151 0.82548 0.57655 0.0
H3457 H 0.23732 0.82171 0.60582 0.0
H3458 H 0.22967 0.88986 0.61977 0.0
C3459 C 0.18744 0.89921 0.54743 0.0
C3460 C 0.18685 0.88869 0.5273 0.0
C3461 C 0.18855 0.86595 0.52645 0.0
C3462 C 0.19195 0.85409 0.5454 0.0
C3463 C 0.19229 0.86492 0.56511 0.0
C3464 C 0.18947 0.887 0.56636 0.0
C3465 C 0.19535 0.89514 0.58863 0.0
C3466 C 0.21006 0.91497 0.58749 0.0
C3467 C 0.1746 0.89988 0.60177 0.0
C3468 C 0.20687 0.87548 0.5977 0.0
C3469 C 0.2027 0.85777 0.5848 0.0
C3470 C 0.21345 0.83842 0.58789 0.0
C3471 C 0.22934 0.83708 0.60381 0.0
C3472 C 0.23766 0.85618 0.6133 0.0
C3473 C 0.22458 0.87504 0.61216 0.0
H3474 H 0.41017 0.93261 0.77677 0.0
H3475 H 0.37067 0.89705 0.82223 0.0
H3476 H 0.38878 0.91621 0.85274 0.0
H3477 H 0.45745 0.93912 0.80135 0.0
H3478 H 0.4605 0.96772 0.79518 0.0
H3479 H 0.4453 0.95039 0.77744 0.0
H3480 H 0.41015 0.97281 0.78097 0.0
H3481 H 0.42577 0.99203 0.79614 0.0
H3482 H 0.40112 0.98108 0.80743 0.0
H3483 H 0.4047 0.94826 0.87582 0.0
H3484 H 0.41569 0.98526 0.88651 0.0
H3485 H 0.45094 0.99138 0.82607 0.0
C3486 C 0.40598 0.92805 0.7932 0.0
C3487 C 0.38991 0.91276 0.7973 0.0
C3488 C 0.38355 0.90828 0.81884 0.0
C3489 C 0.3937 0.91919 0.8362 0.0
C3490 C 0.40956 0.93465 0.83129 0.0
C3491 C 0.41508 0.93906 0.81012 0.0
C3492 C 0.42895 0.9585 0.8078 0.0
C3493 C 0.44938 0.95363 0.79465 0.0
C3494 C 0.41572 0.97717 0.79749 0.0
C3495 C 0.43351 0.96292 0.83118 0.0
C3496 C 0.42075 0.95038 0.84476 0.0
C3497 C 0.4156 0.95746 0.86562 0.0
C3498 C 0.42203 0.97849 0.87168 0.0
C3499 C 0.43422 0.99151 0.8572 0.0
C3500 C 0.44232 0.9821 0.83814 0.0
H3501 H 0.28182 0.24272 0.03711 0.0
H3502 H 0.33327 0.27657 1.00303 0.0
H3503 H 0.35695 0.24425 1.0072 0.0
H3504 H 0.31612 0.20649 0.07515 0.0
H3505 H 0.29709 0.18528 0.07056 0.0
H3506 H 0.2876 0.21261 0.07079 0.0
H3507 H 0.27075 0.20482 0.03301 0.0
H3508 H 0.28216 0.17809 0.03306 0.0
H3509 H 0.2883 0.19631 1.01116 0.0
H3510 H 0.37275 0.20855 1.01143 0.0
H3511 H 0.37969 0.16961 1.01278 0.0
H3512 H 0.31696 0.15891 0.04331 0.0
C3513 C 0.29842 0.24373 0.03136 0.0
C3514 C 0.3062 0.26224 1.02035 0.0
C3515 C 0.32738 0.26258 1.01175 0.0
C3516 C 0.34086 0.24452 1.01433 0.0
C3517 C 0.33266 0.22669 0.02554 0.0
C3518 C 0.31191 0.22612 0.03407 0.0
C3519 C 0.3054 0.20367 0.04149 0.0
C3520 C 0.30135 0.20212 0.06596 0.0
C3521 C 0.2855 0.19524 0.02889 0.0
C3522 C 0.32572 0.19172 0.03551 0.0
C3523 C 0.34129 0.20534 0.02671 0.0
C3524 C 0.36091 0.19783 1.01868 0.0
C3525 C 0.36471 0.17578 1.01972 0.0
C3526 C 0.34891 0.16168 0.02873 0.0
C3527 C 0.32928 0.16963 0.03684 0.0
H3528 H 0.22676 0.4015 0.1864 0.0
H3529 H 0.22561 0.42096 0.11918 0.0
H3530 H 0.19391 0.44486 0.12663 0.0
H3531 H 0.16656 0.40192 0.19351 0.0
H3532 H 0.16862 0.41143 0.22098 0.0
H3533 H 0.18976 0.39456 0.20976 0.0
H3534 H 0.21856 0.42372 0.21943 0.0
H3535 H 0.19754 0.44056 0.23067 0.0
H3536 H 0.21498 0.45096 0.20966 0.0
H3537 H 0.16467 0.46907 0.14261 0.0
H3538 H 0.14092 0.49179 0.1658 0.0
H3539 H 0.16076 0.45481 0.22196 0.0
C3540 C 0.21975 0.41085 0.17333 0.0
C3541 C 0.22863 0.40998 0.15239 0.0
C3542 C 0.21901 0.42189 0.13541 0.0
C3543 C 0.20098 0.43526 0.13946 0.0
C3544 C 0.19263 0.43597 0.16044 0.0
C3545 C 0.20159 0.42388 0.17702 0.0
C3546 C 0.19024 0.42806 0.19828 0.0
C3547 C 0.17808 0.40778 0.20608 0.0
C3548 C 0.20629 0.43633 0.21551 0.0
C3549 C 0.17446 0.44543 0.19141 0.0
C3550 C 0.17564 0.44948 0.16945 0.0
C3551 C 0.16338 0.4658 0.15976 0.0
C3552 C 0.14995 0.47858 0.173 0.0
C3553 C 0.1492 0.475 0.1956 0.0
C3554 C 0.16119 0.4579 0.20472 0.0
H3555 H 0.68204 0.0853 0.83111 0.0
H3556 H 0.65651 0.05685 0.88992 0.0
H3557 H 0.68009 0.08104 0.91171 0.0
H3558 H 0.73658 0.09129 0.84746 0.0
H3559 H 0.74029 0.11708 0.8344 0.0
H3560 H 0.7208 0.09812 0.82385 0.0
H3561 H 0.69035 0.12706 0.82688 0.0
H3562 H 0.70979 0.14617 0.83738 0.0
H3563 H 0.68546 0.14011 0.8525 0.0
H3564 H 0.70712 0.10826 0.92679 0.0
H3565 H 0.73545 0.13597 0.93385 0.0
H3566 H 0.74336 0.14556 0.86491 0.0
C3567 C 0.68154 0.08408 0.84858 0.0
C3568 C 0.66772 0.06913 0.8589 0.0
C3569 C 0.66706 0.06826 0.88178 0.0
C3570 C 0.68037 0.0819 0.89423 0.0
C3571 C 0.69397 0.0964 0.88349 0.0
C3572 C 0.69449 0.09764 0.86118 0.0
C3573 C 0.71035 0.11462 0.85347 0.0
C3574 C 0.72806 0.10467 0.83894 0.0
C3575 C 0.69827 0.13308 0.84188 0.0
C3576 C 0.71951 0.12209 0.87489 0.0
C3577 C 0.70957 0.11173 0.89207 0.0
C3578 C 0.71506 0.11639 0.91346 0.0
C3579 C 0.73113 0.13204 0.91733 0.0
C3580 C 0.7417 0.14245 0.89989 0.0
C3581 C 0.73577 0.13743 0.87846 0.0
H3582 H 0.91213 0.94433 0.42675 0.0
H3583 H 0.89829 0.98856 0.37397 0.0
H3584 H 0.86264 0.97076 0.36861 0.0
H3585 H 0.88612 0.89744 0.40648 0.0
H3586 H 0.8755 0.88957 0.43248 0.0
H3587 H 0.90034 0.90487 0.43087 0.0
H3588 H 0.88377 0.93412 0.45615 0.0
H3589 H 0.85885 0.91891 0.45779 0.0
H3590 H 0.85827 0.94666 0.44897 0.0
H3591 H 0.82761 0.94783 0.36989 0.0
H3592 H 0.79761 0.92209 0.37744 0.0
H3593 H 0.83413 0.89657 0.43178 0.0
C3594 C 0.90165 0.95058 0.41415 0.0
C3595 C 0.90817 0.96803 0.40088 0.0
C3596 C 0.89394 0.97507 0.38422 0.0
C3597 C 0.87353 0.96518 0.38117 0.0
C3598 C 0.86748 0.94846 0.39506 0.0
C3599 C 0.88119 0.94135 0.41127 0.0
C3600 C 0.87079 0.92383 0.42475 0.0
C3601 C 0.88397 0.90268 0.42355 0.0
C3602 C 0.86774 0.93134 0.4483 0.0
C3603 C 0.8492 0.92177 0.41335 0.0
C3604 C 0.84743 0.93605 0.39626 0.0
C3605 C 0.82884 0.93668 0.3833 0.0
C3606 C 0.81182 0.92212 0.3878 0.0
C3607 C 0.81358 0.90721 0.40512 0.0
C3608 C 0.8324 0.90746 0.41818 0.0
H3609 H 0.07481 0.31936 0.10258 0.0
H3610 H 1.01584 0.3079 0.13828 0.0
H3611 H 0.02802 0.33254 0.16673 0.0
H3612 H 0.10947 0.31311 0.12579 0.0
H3613 H 0.12818 0.33565 0.12706 0.0
H3614 H 0.10858 0.33396 0.10575 0.0
H3615 H 0.09569 0.37231 0.11602 0.0
H3616 H 0.11449 0.37301 0.13843 0.0
H3617 H 0.08593 0.37777 0.14294 0.0
H3618 H 0.05258 0.32637 0.19395 0.0
H3619 H 0.07855 0.30223 0.20876 0.0
H3620 H 0.12677 0.32365 0.16265 0.0
C3621 C 0.0645 0.323 0.11623 0.0
C3622 C 0.04541 0.31105 0.1194 0.0
C3623 C 0.03122 0.31627 0.13642 0.0
C3624 C 0.03783 0.33071 0.1523 0.0
C3625 C 0.05884 0.33931 0.15108 0.0
C3626 C 0.07119 0.3376 0.13227 0.0
C3627 C 0.0946 0.34368 0.13683 0.0
C3628 C 0.11123 0.33077 0.12314 0.0
C3629 C 0.09784 0.36813 0.13337 0.0
C3630 C 0.09516 0.33853 0.16074 0.0
C3631 C 0.074 0.33853 0.16904 0.0
C3632 C 0.06905 0.32723 0.18792 0.0
C3633 C 0.08435 0.31321 0.19646 0.0
C3634 C 0.10455 0.31021 0.18596 0.0
C3635 C 0.11107 0.32539 0.17034 0.0
H3636 H 0.37431 0.54954 0.65928 0.0
H3637 H 0.42959 0.59239 0.66584 0.0
H3638 H 0.4052 0.62384 0.66241 0.0
H3639 H 0.35162 0.572 0.61877 0.0
H3640 H 0.32333 0.5697 0.62623 0.0
H3641 H 0.34282 0.55129 0.63735 0.0
H3642 H 0.3314 0.56209 0.6762 0.0
H3643 H 0.31145 0.58046 0.66518 0.0
H3644 H 0.33153 0.59014 0.68409 0.0
H3645 H 0.37853 0.64877 0.64644 0.0
H3646 H 0.35108 0.66513 0.62247 0.0
H3647 H 0.31223 0.60682 0.62656 0.0
C3648 C 0.38102 0.56565 0.66083 0.0
C3649 C 0.40364 0.56873 0.6627 0.0
C3650 C 0.41219 0.58982 0.66458 0.0
C3651 C 0.39846 0.60776 0.66263 0.0
C3652 C 0.37633 0.60427 0.65914 0.0
C3653 C 0.36752 0.58367 0.65888 0.0
C3654 C 0.34409 0.58394 0.65142 0.0
C3655 C 0.34029 0.56834 0.6323 0.0
C3656 C 0.32871 0.57886 0.67035 0.0
C3657 C 0.34209 0.60733 0.64468 0.0
C3658 C 0.36048 0.61902 0.65015 0.0
C3659 C 0.36373 0.64007 0.64278 0.0
C3660 C 0.3481 0.64919 0.62908 0.0
C3661 C 0.32963 0.63714 0.62268 0.0
C3662 C 0.32627 0.6163 0.63123 0.0
H3663 H 0.97425 0.85768 0.42721 0.0
H3664 H 0.99228 0.798 0.45728 0.0
H3665 H 0.96014 0.781 0.4436 0.0
H3666 H 0.91139 0.82091 0.40629 0.0
H3667 H 0.91155 0.83923 0.38384 0.0
H3668 H 0.91102 0.84957 0.41113 0.0
H3669 H 0.94761 0.87222 0.40594 0.0
H3670 H 0.94027 0.86535 0.37941 0.0
H3671 H 0.96795 0.86017 0.38854 0.0
H3672 H 0.96697 0.7691 0.40836 0.0
H3673 H 0.9889 0.76888 0.37603 0.0
H3674 H 0.96529 0.83257 0.35909 0.0
C3675 C 0.96977 0.84149 0.43201 0.0
C3676 C 0.98617 0.82851 0.44098 0.0
C3677 C 0.98046 0.80806 0.44905 0.0
C3678 C 0.96164 0.79824 0.44144 0.0
C3679 C 0.95052 0.80858 0.42468 0.0
C3680 C 0.9514 0.83117 0.42287 0.0
C3681 C 0.943 0.83746 0.40071 0.0
C3682 C 0.9178 0.83669 0.40052 0.0
C3683 C 0.95046 0.85998 0.39307 0.0
C3684 C 0.95207 0.8183 0.38833 0.0
C3685 C 0.95323 0.80078 0.40244 0.0
C3686 C 0.9655 0.7825 0.39722 0.0
C3687 C 0.97837 0.78267 0.37877 0.0
C3688 C 0.97864 0.80065 0.36471 0.0
C3689 C 0.96499 0.81853 0.36938 0.0
H3690 H 0.53399 0.2047 0.87288 0.0
H3691 H 0.54732 0.19312 0.94069 0.0
H3692 H 0.58673 0.19777 0.93371 0.0
H3693 H 0.58483 0.17983 0.85152 0.0
H3694 H 0.58737 0.20044 0.83095 0.0
H3695 H 0.5607 0.19164 0.84019 0.0
H3696 H 0.54957 0.23055 0.84961 0.0
H3697 H 0.57511 0.23985 0.83942 0.0
H3698 H 0.56721 0.24634 0.86674 0.0
H3699 H 0.62135 0.21531 0.92135 0.0
H3700 H 0.64411 0.24365 0.90639 0.0
H3701 H 0.61313 0.23473 0.84388 0.0
C3702 C 0.54522 0.20199 0.8861 0.0
C3703 C 0.53765 0.19849 0.90723 0.0
C3704 C 0.55285 0.19589 0.92429 0.0
C3705 C 0.57526 0.19833 0.92044 0.0
C3706 C 0.58211 0.20294 0.89942 0.0
C3707 C 0.56741 0.20448 0.88258 0.0
C3708 C 0.57795 0.21265 0.86227 0.0
C3709 C 0.57773 0.19504 0.84509 0.0
C3710 C 0.5668 0.23356 0.85408 0.0
C3711 C 0.60072 0.21687 0.87037 0.0
C3712 C 0.60288 0.21122 0.89192 0.0
C3713 C 0.61987 0.2194 0.90439 0.0
C3714 C 0.6328 0.23587 0.89556 0.0
C3715 C 0.62854 0.24393 0.8744 0.0
C3716 C 0.61532 0.23113 0.8608 0.0
H3717 H 0.6814 0.50355 0.70713 0.0
H3718 H 0.71621 0.4578 0.74623 0.0
H3719 H 0.68271 0.43592 0.75029 0.0
H3720 H 0.64048 0.51192 0.71555 0.0
H3721 H 0.62174 0.50314 0.69484 0.0
H3722 H 0.64952 0.50753 0.68791 0.0
H3723 H 0.64908 0.46891 0.67207 0.0
H3724 H 0.62105 0.46577 0.68029 0.0
H3725 H 0.64115 0.44645 0.68878 0.0
H3726 H 0.6455 0.43894 0.76769 0.0
H3727 H 0.61182 0.45412 0.78282 0.0
H3728 H 0.60203 0.49018 0.72362 0.0
C3729 C 0.68267 0.48807 0.71506 0.0
C3730 C 0.69995 0.48385 0.72941 0.0
C3731 C 0.70155 0.46278 0.73811 0.0
C3732 C 0.68299 0.4498 0.73968 0.0
C3733 C 0.66431 0.45662 0.72907 0.0
C3734 C 0.6652 0.47334 0.71413 0.0
C3735 C 0.64263 0.47781 0.70582 0.0
C3736 C 0.63849 0.5017 0.70089 0.0
C3737 C 0.63824 0.46391 0.68556 0.0
C3738 C 0.62957 0.46922 0.72466 0.0
C3739 C 0.64192 0.45506 0.73688 0.0
C3740 C 0.6352 0.44895 0.75763 0.0
C3741 C 0.61607 0.45805 0.76631 0.0
C3742 C 0.60397 0.4736 0.75452 0.0
C3743 C 0.61063 0.47838 0.73318 0.0
H3744 H 0.78683 0.43343 0.95889 0.0
H3745 H 0.82336 0.45673 1.01396 0.0
H3746 H 0.84333 0.42354 1.01567 0.0
H3747 H 0.77355 0.39035 0.97613 0.0
H3748 H 0.77892 0.37039 0.9558 0.0
H3749 H 0.77498 0.39804 0.94793 0.0
H3750 H 0.81225 0.4004 0.92913 0.0
H3751 H 0.81585 0.37175 0.93436 0.0
H3752 H 0.83619 0.39091 0.94271 0.0
H3753 H 0.84693 0.38682 0.02415 0.0
H3754 H 0.83739 0.34905 0.03226 0.0
H3755 H 0.80107 0.34595 0.97224 0.0
C3756 C 0.79971 0.43186 0.97072 0.0
C3757 C 0.80316 0.44817 0.98632 0.0
C3758 C 0.81998 0.44507 1.00172 0.0
C3759 C 0.83182 0.42614 1.0029 0.0
C3760 C 0.82673 0.40969 0.989 0.0
C3761 C 0.81171 0.41242 0.97251 0.0
C3762 C 0.80659 0.39074 0.96267 0.0
C3763 C 0.78198 0.38728 0.96051 0.0
C3764 C 0.81837 0.38828 0.94089 0.0
C3765 C 0.81676 0.37583 0.97932 0.0
C3766 C 0.8296 0.38705 0.99359 0.0
C3767 C 0.83769 0.37755 1.01251 0.0
C3768 C 0.83216 0.35606 1.01709 0.0
C3769 C 0.81836 0.34453 1.003 0.0
C3770 C 0.8115 0.35438 0.98346 0.0
H3771 H 0.86294 0.58351 0.25745 0.0
H3772 H 0.83949 0.56114 0.1959 0.0
H3773 H 0.86685 0.58291 0.17765 0.0
H3774 H 0.90035 0.63477 0.2248 0.0
H3775 H 0.91927 0.63179 0.24672 0.0
H3776 H 0.8906 0.63439 0.25232 0.0
H3777 H 0.89165 0.60029 0.27464 0.0
H3778 H 0.91978 0.59625 0.26919 0.0
H3779 H 0.90078 0.5752 0.26291 0.0
H3780 H 0.90444 0.58109 0.17013 0.0
H3781 H 0.92489 0.54873 0.18035 0.0
H3782 H 0.9354 0.57408 0.2436 0.0
C3783 C 0.86247 0.58469 0.24011 0.0
C3784 C 0.84944 0.57021 0.22824 0.0
C3785 C 0.84973 0.57149 0.20553 0.0
C3786 C 0.86516 0.58434 0.19501 0.0
C3787 C 0.88095 0.59511 0.20738 0.0
C3788 C 0.87854 0.59692 0.22971 0.0
C3789 C 0.90007 0.60271 0.24003 0.0
C3790 C 0.90272 0.62738 0.24101 0.0
C3791 C 0.90325 0.59301 0.26298 0.0
C3792 C 0.91503 0.59362 0.22284 0.0
C3793 C 0.90436 0.59374 0.20271 0.0
C3794 C 0.91199 0.5805 0.18591 0.0
C3795 C 0.92388 0.56211 0.19158 0.0
C3796 C 0.9296 0.55893 0.21324 0.0
C3797 C 0.92955 0.57663 0.2273 0.0
H3798 H 0.68454 0.65859 0.52387 0.0
H3799 H 0.72799 0.63665 0.47295 0.0
H3800 H 0.74985 0.67014 0.47767 0.0
H3801 H 0.68623 0.71668 0.51707 0.0
H3802 H 0.68682 0.72082 0.54576 0.0
H3803 H 0.67323 0.69752 0.53459 0.0
H3804 H 0.69735 0.67342 0.55916 0.0
H3805 H 0.71181 0.69665 0.56921 0.0
H3806 H 0.72655 0.67475 0.55668 0.0
H3807 H 0.77103 0.69943 0.49494 0.0
H3808 H 0.78523 0.73064 0.51466 0.0
H3809 H 0.72554 0.73567 0.55167 0.0
C3810 C 0.69794 0.66127 0.51279 0.0
C3811 C 0.70431 0.64555 0.49747 0.0
C3812 C 0.72265 0.64899 0.48422 0.0
C3813 C 0.73518 0.66769 0.48705 0.0
C3814 C 0.72906 0.68213 0.50339 0.0
C3815 C 0.71067 0.6793 0.51576 0.0
C3816 C 0.70884 0.69558 0.53391 0.0
C3817 C 0.68749 0.70841 0.53278 0.0
C3818 C 0.71129 0.68443 0.55603 0.0
C3819 C 0.72846 0.70919 0.52895 0.0
C3820 C 0.74048 0.70029 0.51212 0.0
C3821 C 0.76123 0.70729 0.5072 0.0
C3822 C 0.76916 0.72494 0.5186 0.0
C3823 C 0.75588 0.73624 0.53364 0.0
C3824 C 0.73561 0.72778 0.53963 0.0
H3825 H 0.6575 0.37141 0.5424 0.0
H3826 H 0.7151 0.3835 0.58092 0.0
H3827 H 0.70186 0.35785 0.6087 0.0
H3828 H 0.62085 0.37057 0.58628 0.0
H3829 H 0.60366 0.34966 0.57534 0.0
H3830 H 0.61881 0.36692 0.55742 0.0
H3831 H 0.6366 0.33329 0.53962 0.0
H3832 H 0.62149 0.31589 0.55752 0.0
H3833 H 0.65074 0.31396 0.55629 0.0
H3834 H 0.68229 0.33125 0.63206 0.0
H3835 H 0.65645 0.3081 0.65145 0.0
H3836 H 0.60938 0.3168 0.59959 0.0
C3837 C 0.66743 0.36823 0.55652 0.0
C3838 C 0.68743 0.37893 0.55955 0.0
C3839 C 0.69986 0.37508 0.57838 0.0
C3840 C 0.69249 0.36058 0.59414 0.0
C3841 C 0.67258 0.35033 0.59082 0.0
C3842 C 0.66011 0.3541 0.57259 0.0
C3843 C 0.63854 0.34235 0.57382 0.0
C3844 C 0.61934 0.35833 0.57319 0.0
C3845 C 0.63674 0.32536 0.55574 0.0
C3846 C 0.64065 0.33173 0.59577 0.0
C3847 C 0.66059 0.33616 0.60505 0.0
C3848 C 0.66649 0.32787 0.62509 0.0
C3849 C 0.65148 0.31492 0.63612 0.0
C3850 C 0.63045 0.31086 0.62744 0.0
C3851 C 0.62522 0.3193 0.6068 0.0
H3852 H 0.93962 0.43016 0.91931 0.0
H3853 H 0.99578 0.39134 0.90118 0.0
H3854 H 0.97866 0.38351 0.86602 0.0
H3855 H 0.89962 0.39899 0.89665 0.0
H3856 H 0.88323 0.4211 0.88687 0.0
H3857 H 0.9006 0.42493 0.90994 0.0
H3858 H 0.91956 0.45709 0.89073 0.0
H3859 H 0.90211 0.45339 0.86759 0.0
H3860 H 0.93127 0.45319 0.86427 0.0
H3861 H 0.95334 0.37638 0.83474 0.0
H3862 H 0.92282 0.37293 0.80873 0.0
H3863 H 0.88524 0.41906 0.84612 0.0
C3864 C 0.94872 0.42054 0.9078 0.0
C3865 C 0.969 0.41121 0.91327 0.0
C3866 C 0.97998 0.39828 0.89771 0.0
C3867 C 0.97052 0.39392 0.87755 0.0
C3868 C 0.95032 0.40305 0.87295 0.0
C3869 C 0.93976 0.41642 0.88748 0.0
C3870 C 0.91792 0.42374 0.8789 0.0
C3871 C 0.89925 0.41676 0.89399 0.0
C3872 C 0.91771 0.44831 0.87515 0.0
C3873 C 0.91738 0.41157 0.85773 0.0
C3874 C 0.93626 0.3998 0.85447 0.0
C3875 C 0.93869 0.3859 0.83686 0.0
C3876 C 0.92131 0.38394 0.82228 0.0
C3877 C 0.90195 0.39596 0.8254 0.0
C3878 C 0.90013 0.41012 0.84316 0.0
H3879 H 0.86628 0.66391 0.0647 0.0
H3880 H 0.93384 0.65437 0.04697 0.0
H3881 H 0.9451 0.68055 0.07527 0.0
H3882 H 0.87067 0.72143 0.07414 0.0
H3883 H 0.85165 0.72128 0.09635 0.0
H3884 H 0.84927 0.70154 0.07506 0.0
H3885 H 0.85113 0.67077 0.10346 0.0
H3886 H 0.85367 0.69042 0.12481 0.0
H3887 H 0.87392 0.66952 0.12178 0.0
H3888 H 0.94874 0.70688 0.10643 0.0
H3889 H 0.94437 0.73407 0.13559 0.0
H3890 H 0.87423 0.72738 0.13143 0.0
C3891 C 0.88341 0.6675 0.06678 0.0
C3892 C 0.89928 0.65733 0.05383 0.0
C3893 C 0.92155 0.66226 0.05677 0.0
C3894 C 0.92804 0.67695 0.07283 0.0
C3895 C 0.91199 0.68666 0.08551 0.0
C3896 C 0.89011 0.68235 0.08245 0.0
C3897 C 0.87604 0.69544 0.09768 0.0
C3898 C 0.86103 0.71084 0.08505 0.0
C3899 C 0.86292 0.68065 0.11283 0.0
C3900 C 0.89339 0.70774 0.10988 0.0
C3901 C 0.91404 0.7023 0.10283 0.0
C3902 C 0.93265 0.71137 0.11199 0.0
C3903 C 0.93004 0.72669 0.12856 0.0
C3904 C 0.90899 0.73287 0.13555 0.0
C3905 C 0.8905 0.72312 0.12617 0.0
H3906 H 0.56077 0.70104 0.36708 0.0
H3907 H 0.549 0.6384 0.39597 0.0
H3908 H 0.5746 0.62153 0.36986 0.0
H3909 H 0.56712 0.68401 0.31124 0.0
H3910 H 0.58911 0.70258 0.30607 0.0
H3911 H 0.56869 0.70916 0.32593 0.0
H3912 H 0.59881 0.71436 0.3548 0.0
H3913 H 0.61932 0.7077 0.33506 0.0
H3914 H 0.61774 0.69269 0.35998 0.0
H3915 H 0.60302 0.6121 0.34197 0.0
H3916 H 0.63191 0.6106 0.31403 0.0
H3917 H 0.62533 0.67963 0.30381 0.0
C3918 C 0.56326 0.68371 0.36748 0.0
C3919 C 0.55273 0.67082 0.38306 0.0
C3920 C 0.5568 0.64834 0.38382 0.0
C3921 C 0.5713 0.6387 0.36914 0.0
C3922 C 0.5817 0.6519 0.35406 0.0
C3923 C 0.5779 0.67393 0.35318 0.0
C3924 C 0.59221 0.68471 0.33645 0.0
C3925 C 0.57846 0.69576 0.31888 0.0
C3926 C 0.60795 0.70081 0.34722 0.0
C3927 C 0.60428 0.66526 0.32765 0.0
C3928 C 0.59814 0.6465 0.33815 0.0
C3929 C 0.60781 0.62663 0.3335 0.0
C3930 C 0.62419 0.62593 0.31769 0.0
C3931 C 0.63056 0.64493 0.30665 0.0
C3932 C 0.6204 0.66479 0.31169 0.0
H3933 H 0.46656 0.6916 0.69304 0.0
H3934 H 0.45898 0.75859 0.67456 0.0
H3935 H 0.43637 0.74794 0.64462 0.0
H3936 H 0.47875 0.66621 0.66612 0.0
H3937 H 0.46251 0.6447 0.65495 0.0
H3938 H 0.45655 0.6552 0.68136 0.0
H3939 H 0.41785 0.66159 0.6709 0.0
H3940 H 0.42288 0.65187 0.64373 0.0
H3941 H 0.41065 0.67789 0.64797 0.0
H3942 H 0.44318 0.73372 0.60959 0.0
H3943 H 0.48005 0.72768 0.59687 0.0
H3944 H 0.48125 0.66549 0.62766 0.0
C3945 C 0.45894 0.70399 0.6834 0.0
C3946 C 0.46532 0.72576 0.68596 0.0
C3947 C 0.4549 0.74165 0.67318 0.0
C3948 C 0.44153 0.73566 0.65598 0.0
C3949 C 0.43914 0.71372 0.65113 0.0
C3950 C 0.44542 0.69801 0.66602 0.0
C3951 C 0.44602 0.67631 0.65483 0.0
C3952 C 0.46199 0.6597 0.66486 0.0
C3953 C 0.423 0.66638 0.65434 0.0
C3954 C 0.45187 0.68423 0.63239 0.0
C3955 C 0.44287 0.7049 0.62934 0.0
C3956 C 0.45074 0.71824 0.61279 0.0
C3957 C 0.47194 0.71473 0.60545 0.0
C3958 C 0.48368 0.69676 0.61312 0.0
C3959 C 0.47222 0.67974 0.62291 0.0
loop_
_geom_bond_atom_site_label_1
_geom_bond_atom_site_label_2
_geom_bond_distance
_geom_bond_site_symmetry_2
_ccdc_geom_bond_type
Eu0 N29 2.600 . S
Eu0 N35 2.562 . S
Eu0 O44 2.462 . S
Eu0 O45 2.373 . S
Eu0 O47 2.432 . S
Eu0 O48 2.291 . S
Eu0 O52 2.335 . S
Eu0 O55 2.372 . S
Eu0 C64 2.787 . S
C1 N2 1.365 . S
C1 C4 1.405 . S
C1 C8 1.448 . S
N2 C1 1.365 . S
N2 C5 1.319 . S
N2 Eu11 2.600 . S
C3 C5 1.397 . S
C3 C6 1.367 . S
C3 H23 0.931 . S
C4 C1 1.405 . S
C4 C6 1.403 . S
C4 C10 1.439 . S
C5 N2 1.319 . S
C5 C3 1.397 . S
C5 H16 0.930 . S
C6 C3 1.367 . S
C6 C4 1.403 . S
C6 H27 0.929 . S
C7 C8 1.430 . S
C7 C9 1.387 . S
C7 C13 1.404 . S
C8 C1 1.448 . S
C8 C7 1.430 . S
C8 N12 1.351 . S
C9 C7 1.387 . S
C9 C10 1.374 . S
C9 H24 0.931 . S
C10 C4 1.439 . S
C10 C9 1.374 . S
C10 H25 0.931 . S
Eu11 N2 2.600 . S
Eu11 N12 2.562 . S
Eu11 O46 2.335 . S
Eu11 O49 2.372 . S
Eu11 O50 2.462 . S
Eu11 O51 2.373 . S
Eu11 O53 2.432 . S
Eu11 O54 2.291 . S
Eu11 C75 2.787 . S
N12 C8 1.351 . S
N12 Eu11 2.562 . S
N12 C14 1.325 . S
C13 C7 1.404 . S
C13 C15 1.366 . S
C13 H21 0.930 1_455 S
C14 N12 1.325 . S
C14 C15 1.416 . S
C14 H20 0.929 . S
C15 C13 1.366 . S
C15 C14 1.416 . S
C15 H17 0.944 . S
H16 C5 0.930 . S
H17 C15 0.944 . S
H18 C33 0.930 . S
H19 C40 0.930 . S
H20 C14 0.929 . S
H21 C13 0.930 1_655 S
H22 C36 0.929 . S
H23 C3 0.931 . S
H24 C9 0.931 . S
H25 C10 0.931 . S
H26 C31 0.931 . S
H27 C6 0.929 . S
H28 C39 0.930 . S
N29 Eu0 2.600 . S
N29 C30 1.365 . S
N29 C33 1.319 . S
C30 N29 1.365 . S
C30 C32 1.405 . S
C30 C38 1.448 . S
C31 H26 0.931 . S
C31 C33 1.397 . S
C31 C34 1.367 . S
C32 C30 1.405 . S
C32 C34 1.403 . S
C32 C65 1.439 . S
C33 H18 0.930 . S
C33 N29 1.319 . S
C33 C31 1.397 . S
C34 C31 1.367 . S
C34 C32 1.403 . S
C34 H41 0.929 . S
N35 Eu0 2.562 . S
N35 C36 1.325 . S
N35 C38 1.351 . S
C36 H22 0.929 . S
C36 N35 1.325 . S
C36 C40 1.416 . S
C37 C38 1.430 . S
C37 C39 1.404 . S
C37 C66 1.387 . S
C38 C30 1.448 . S
C38 N35 1.351 . S
C38 C37 1.430 . S
C39 H28 0.930 . S
C39 C37 1.404 . S
C39 C40 1.366 . S
C40 H19 0.930 . S
C40 C36 1.416 . S
C40 C39 1.366 . S
H41 C34 0.929 . S
H42 C65 0.931 . S
H43 C66 0.931 . S
O44 Eu0 2.462 . S
O44 C64 1.252 . S
O45 Eu0 2.373 . S
O45 C56 1.249 . S
O46 Eu11 2.335 . S
O46 C56 1.264 . S
O47 Eu0 2.432 . S
O47 C64 1.268 . S
O48 Eu0 2.291 . S
O48 C63 1.255 . S
O49 Eu11 2.372 . S
O49 C63 1.257 . S
O50 Eu11 2.462 . S
O50 C75 1.252 . S
O51 Eu11 2.373 . S
O51 C67 1.249 . S
O52 Eu0 2.335 . S
O52 C67 1.264 . S
O53 Eu11 2.432 . S
O53 C75 1.268 . S
O54 Eu11 2.291 . S
O54 C74 1.255 . S
O55 Eu0 2.372 . S
O55 C74 1.257 . S
C56 O45 1.249 . S
C56 O46 1.264 . S
C57 C60 1.382 . S
C57 C62 1.390 . S
C57 C64 1.506 . S
C58 C59 1.398 . S
C58 C62 1.392 . S
C59 C58 1.398 . S
C59 C61 1.372 . S
C59 H76 0.931 . S
C60 C57 1.382 . S
C60 C61 1.390 . S
C60 H77 0.931 . S
C61 C59 1.372 . S
C61 C60 1.390 . S
C61 H78 0.929 . S
C62 C57 1.390 . S
C62 C58 1.392 . S
C62 H79 0.930 . S
C63 O48 1.255 . S
C63 O49 1.257 . S
C64 Eu0 2.787 . S
C64 O44 1.252 . S
C64 O47 1.268 . S
C64 C57 1.506 . S
C65 C32 1.439 . S
C65 H42 0.931 . S
C65 C66 1.374 . S
C66 C37 1.387 . S
C66 H43 0.931 . S
C66 C65 1.374 . S
C67 O51 1.249 . S
C67 O52 1.264 . S
C68 C71 1.382 . S
C68 C72 1.390 . S
C68 C75 1.506 . S
C69 C70 1.398 . S
C69 C72 1.392 . S
C70 C69 1.398 . S
C70 C73 1.372 . S
C70 H80 0.931 . S
C71 C68 1.382 . S
C71 C73 1.390 . S
C71 H81 0.931 . S
C72 C68 1.390 . S
C72 C69 1.392 . S
C72 H82 0.930 . S
C73 C70 1.372 . S
C73 C71 1.390 . S
C73 H83 0.929 . S
C74 O54 1.255 . S
C74 O55 1.257 . S
C75 Eu11 2.787 . S
C75 O50 1.252 . S
C75 O53 1.268 . S
C75 C68 1.506 . S
H76 C59 0.931 . S
H77 C60 0.931 . S
H78 C61 0.929 . S
H79 C62 0.930 . S
H80 C70 0.931 . S
H81 C71 0.931 . S
H82 C72 0.930 . S
H83 C73 0.929 . S
Eu84 N113 2.600 . S
Eu84 N119 2.562 . S
Eu84 O128 2.462 1_655 S
Eu84 O129 2.373 . S
Eu84 O131 2.432 . S
Eu84 O132 2.291 1_655 S
Eu84 O136 2.335 1_655 S
Eu84 O139 2.372 . S
Eu84 C148 2.787 1_655 S
C85 N86 1.365 . S
C85 C88 1.405 . S
C85 C92 1.448 . S
N86 C85 1.365 . S
N86 C89 1.319 . S
N86 Eu95 2.600 . S
C87 C89 1.397 . S
C87 C90 1.367 . S
C87 H107 0.931 . S
C88 C85 1.405 . S
C88 C90 1.403 . S
C88 C94 1.439 . S
C89 N86 1.319 . S
C89 C87 1.397 . S
C89 H100 0.930 . S
C90 C87 1.367 . S
C90 C88 1.403 . S
C90 H111 0.929 . S
C91 C92 1.430 . S
C91 C93 1.387 . S
C91 C97 1.404 . S
C92 C85 1.448 . S
C92 C91 1.430 . S
C92 N96 1.351 . S
C93 C91 1.387 . S
C93 C94 1.374 . S
C93 H108 0.931 . S
C94 C88 1.439 . S
C94 C93 1.374 . S
C94 H109 0.931 . S
Eu95 N86 2.600 . S
Eu95 N96 2.562 . S
Eu95 O130 2.335 1_455 S
Eu95 O133 2.372 . S
Eu95 O134 2.462 1_455 S
Eu95 O135 2.373 . S
Eu95 O137 2.432 . S
Eu95 O138 2.291 1_455 S
Eu95 C159 2.787 1_455 S
N96 C92 1.351 . S
N96 Eu95 2.562 . S
N96 C98 1.325 1_455 S
C97 C91 1.404 . S
C97 C99 1.334 1_455 S
C97 H105 0.930 . S
C98 N96 1.325 1_655 S
C98 C99 1.419 . S
C98 H104 0.929 . S
C99 C97 1.334 1_655 S
C99 C98 1.419 . S
C99 H101 0.958 . S
H100 C89 0.930 . S
H101 C99 0.958 . S
H102 C117 0.930 . S
H103 C124 0.968 . S
H104 C98 0.929 . S
H105 C97 0.930 . S
H106 C120 0.929 . S
H107 C87 0.931 . S
H108 C93 0.931 . S
H109 C94 0.931 . S
H110 C115 0.931 . S
H111 C90 0.929 . S
H112 C123 0.930 . S
N113 Eu84 2.600 . S
N113 C114 1.365 . S
N113 C117 1.319 . S
C114 N113 1.365 . S
C114 C116 1.405 . S
C114 C122 1.448 . S
C115 H110 0.931 . S
C115 C117 1.397 . S
C115 C118 1.367 . S
C116 C114 1.405 . S
C116 C118 1.403 . S
C116 C149 1.439 . S
C117 H102 0.930 . S
C117 N113 1.319 . S
C117 C115 1.397 . S
C118 C115 1.367 . S
C118 C116 1.403 . S
C118 H125 0.929 . S
N119 Eu84 2.562 . S
N119 C120 1.325 1_655 S
N119 C122 1.351 . S
C120 H106 0.929 . S
C120 N119 1.325 1_455 S
C120 C124 1.420 . S
C121 C122 1.430 . S
C121 C123 1.404 . S
C121 C150 1.387 . S
C122 C114 1.448 . S
C122 N119 1.351 . S
C122 C121 1.430 . S
C123 H112 0.930 . S
C123 C121 1.404 . S
C123 C124 1.323 1_655 S
C124 H103 0.968 . S
C124 C120 1.420 . S
C124 C123 1.323 1_455 S
H125 C118 0.929 . S
H126 C149 0.931 . S
H127 C150 0.931 . S
O128 Eu84 2.462 1_455 S
O128 C148 1.252 . S
O129 Eu84 2.373 . S
O129 C140 1.249 . S
O130 Eu95 2.335 1_655 S
O130 C140 1.264 . S
O131 Eu84 2.432 . S
O131 C148 1.268 1_655 S
O132 Eu84 2.291 1_455 S
O132 C147 1.255 . S
O133 Eu95 2.372 . S
O133 C147 1.257 . S
O134 Eu95 2.462 1_655 S
O134 C159 1.252 . S
O135 Eu95 2.373 . S
O135 C151 1.249 . S
O136 Eu84 2.335 1_455 S
O136 C151 1.264 . S
O137 Eu95 2.432 . S
O137 C159 1.268 1_455 S
O138 Eu95 2.291 1_655 S
O138 C158 1.255 . S
O139 Eu84 2.372 . S
O139 C158 1.257 . S
C140 O129 1.249 . S
C140 O130 1.264 . S
C141 C144 1.382 1_455 S
C141 C146 1.390 . S
C141 C148 1.506 . S
C142 C143 1.398 . S
C142 C146 1.392 . S
C143 C142 1.398 . S
C143 C145 1.372 . S
C143 H160 0.931 . S
C144 C141 1.382 1_655 S
C144 C145 1.390 1_655 S
C144 H161 0.931 . S
C145 C143 1.372 . S
C145 C144 1.390 1_455 S
C145 H162 0.929 1_455 S
C146 C141 1.390 . S
C146 C142 1.392 . S
C146 H163 0.930 . S
C147 O132 1.255 . S
C147 O133 1.257 . S
C148 Eu84 2.787 1_455 S
C148 O128 1.252 . S
C148 O131 1.268 1_455 S
C148 C141 1.506 . S
C149 C116 1.439 . S
C149 H126 0.931 . S
C149 C150 1.374 . S
C150 C121 1.387 . S
C150 H127 0.931 . S
C150 C149 1.374 . S
C151 O135 1.249 . S
C151 O136 1.264 . S
C152 C155 1.382 1_655 S
C152 C156 1.390 . S
C152 C159 1.506 . S
C153 C154 1.398 . S
C153 C156 1.392 . S
C154 C153 1.398 . S
C154 C157 1.372 . S
C154 H164 0.931 . S
C155 C152 1.382 1_455 S
C155 C157 1.390 1_455 S
C155 H165 0.931 . S
C156 C152 1.390 . S
C156 C153 1.392 . S
C156 H166 0.930 . S
C157 C154 1.372 . S
C157 C155 1.390 1_655 S
C157 H167 0.929 1_655 S
C158 O138 1.255 . S
C158 O139 1.257 . S
C159 Eu95 2.787 1_655 S
C159 O134 1.252 . S
C159 O137 1.268 1_655 S
C159 C152 1.506 . S
H160 C143 0.931 . S
H161 C144 0.931 . S
H162 C145 0.929 1_655 S
H163 C146 0.930 . S
H164 C154 0.931 . S
H165 C155 0.931 . S
H166 C156 0.930 . S
H167 C157 0.929 1_455 S
Eu168 N197 2.600 . S
Eu168 N203 2.562 . S
Eu168 O212 2.462 . S
Eu168 O213 2.373 . S
Eu168 O215 2.432 . S
Eu168 O216 2.291 . S
Eu168 O220 2.335 . S
Eu168 O223 2.372 . S
Eu168 C232 2.787 . S
C169 N170 1.365 . S
C169 C172 1.405 . S
C169 C176 1.448 . S
N170 C169 1.365 . S
N170 C173 1.319 . S
N170 Eu179 2.600 . S
C171 C173 1.397 . S
C171 C174 1.367 . S
C171 H191 0.931 . S
C172 C169 1.405 . S
C172 C174 1.403 . S
C172 C178 1.439 . S
C173 N170 1.319 . S
C173 C171 1.397 . S
C173 H184 0.930 . S
C174 C171 1.367 . S
C174 C172 1.403 . S
C174 H195 0.929 . S
C175 C176 1.430 . S
C175 C177 1.387 . S
C175 C181 1.404 . S
C176 C169 1.448 . S
C176 C175 1.430 . S
C176 N180 1.351 . S
C177 C175 1.387 . S
C177 C178 1.374 . S
C177 H192 0.931 . S
C178 C172 1.439 . S
C178 C177 1.374 . S
C178 H193 0.931 . S
Eu179 N170 2.600 . S
Eu179 N180 2.562 . S
Eu179 O214 2.335 . S
Eu179 O217 2.372 . S
Eu179 O218 2.462 . S
Eu179 O219 2.373 . S
Eu179 O221 2.432 . S
Eu179 O222 2.291 . S
Eu179 C243 2.787 . S
N180 C176 1.351 . S
N180 Eu179 2.562 . S
N180 C182 1.325 . S
C181 C175 1.404 . S
C181 C183 1.366 . S
C181 H189 0.930 . S
C182 N180 1.325 . S
C182 C183 1.416 . S
C182 H188 0.929 . S
C183 C181 1.366 . S
C183 C182 1.416 . S
C183 H185 0.930 . S
H184 C173 0.930 . S
H185 C183 0.930 . S
H186 C201 0.930 . S
H187 C208 0.930 . S
H188 C182 0.929 . S
H189 C181 0.930 . S
H190 C204 0.929 . S
H191 C171 0.931 . S
H192 C177 0.931 . S
H193 C178 0.931 . S
H194 C199 0.931 . S
H195 C174 0.929 . S
H196 C207 0.930 . S
N197 Eu168 2.600 . S
N197 C198 1.365 . S
N197 C201 1.319 . S
C198 N197 1.365 . S
C198 C200 1.405 . S
C198 C206 1.448 . S
C199 H194 0.931 . S
C199 C201 1.397 . S
C199 C202 1.367 . S
C200 C198 1.405 . S
C200 C202 1.403 . S
C200 C233 1.439 . S
C201 H186 0.930 . S
C201 N197 1.319 . S
C201 C199 1.397 . S
C202 C199 1.367 . S
C202 C200 1.403 . S
C202 H209 0.929 . S
N203 Eu168 2.562 . S
N203 C204 1.325 . S
N203 C206 1.351 . S
C204 H190 0.929 . S
C204 N203 1.325 . S
C204 C208 1.416 . S
C205 C206 1.430 . S
C205 C207 1.404 . S
C205 C234 1.387 . S
C206 C198 1.448 . S
C206 N203 1.351 . S
C206 C205 1.430 . S
C207 H196 0.930 . S
C207 C205 1.404 . S
C207 C208 1.366 . S
C208 H187 0.930 . S
C208 C204 1.416 . S
C208 C207 1.366 . S
H209 C202 0.929 . S
H210 C233 0.931 . S
H211 C234 0.931 . S
O212 Eu168 2.462 . S
O212 C232 1.252 . S
O213 Eu168 2.373 . S
O213 C224 1.249 . S
O214 Eu179 2.335 . S
O214 C224 1.264 . S
O215 Eu168 2.432 . S
O215 C232 1.268 . S
O216 Eu168 2.291 . S
O216 C231 1.255 . S
O217 Eu179 2.372 . S
O217 C231 1.257 . S
O218 Eu179 2.462 . S
O218 C243 1.252 . S
O219 Eu179 2.373 . S
O219 C235 1.249 . S
O220 Eu168 2.335 . S
O220 C235 1.264 . S
O221 Eu179 2.432 . S
O221 C243 1.268 . S
O222 Eu179 2.291 . S
O222 C242 1.255 . S
O223 Eu168 2.372 . S
O223 C242 1.257 . S
C224 O213 1.249 . S
C224 O214 1.264 . S
C225 C228 1.382 . S
C225 C230 1.390 . S
C225 C232 1.506 . S
C226 C227 1.398 . S
C226 C230 1.392 . S
C227 C226 1.398 . S
C227 C229 1.372 . S
C227 H244 0.931 . S
C228 C225 1.382 . S
C228 C229 1.390 . S
C228 H245 0.931 . S
C229 C227 1.372 . S
C229 C228 1.390 . S
C229 H246 0.929 . S
C230 C225 1.390 . S
C230 C226 1.392 . S
C230 H247 0.930 . S
C231 O216 1.255 . S
C231 O217 1.257 . S
C232 Eu168 2.787 . S
C232 O212 1.252 . S
C232 O215 1.268 . S
C232 C225 1.506 . S
C233 C200 1.439 . S
C233 H210 0.931 . S
C233 C234 1.374 . S
C234 C205 1.387 . S
C234 H211 0.931 . S
C234 C233 1.374 . S
C235 O219 1.249 . S
C235 O220 1.264 . S
C236 C239 1.382 . S
C236 C240 1.390 . S
C236 C243 1.506 . S
C237 C238 1.398 . S
C237 C240 1.392 . S
C238 C237 1.398 . S
C238 C241 1.372 . S
C238 H248 0.931 . S
C239 C236 1.382 . S
C239 C241 1.390 . S
C239 H249 0.931 . S
C240 C236 1.390 . S
C240 C237 1.392 . S
C240 H250 0.930 . S
C241 C238 1.372 . S
C241 C239 1.390 . S
C241 H251 0.929 . S
C242 O222 1.255 . S
C242 O223 1.257 . S
C243 Eu179 2.787 . S
C243 O218 1.252 . S
C243 O221 1.268 . S
C243 C236 1.506 . S
H244 C227 0.931 . S
H245 C228 0.931 . S
H246 C229 0.929 . S
H247 C230 0.930 . S
H248 C238 0.931 . S
H249 C239 0.931 . S
H250 C240 0.930 . S
H251 C241 0.929 . S
Eu252 N281 2.600 . S
Eu252 N287 2.562 . S
Eu252 O296 2.462 . S
Eu252 O297 2.373 1_554 S
Eu252 O299 2.432 . S
Eu252 O300 2.291 . S
Eu252 O304 2.335 . S
Eu252 O307 2.372 . S
Eu252 C316 2.787 . S
C253 N254 1.365 . S
C253 C256 1.405 . S
C253 C260 1.448 . S
N254 C253 1.365 . S
N254 C257 1.319 . S
N254 Eu263 2.600 . S
C255 C257 1.397 . S
C255 C258 1.367 . S
C255 H275 0.931 . S
C256 C253 1.405 . S
C256 C258 1.403 . S
C256 C262 1.439 . S
C257 N254 1.319 . S
C257 C255 1.397 . S
C257 H268 0.930 . S
C258 C255 1.367 . S
C258 C256 1.403 . S
C258 H279 0.929 . S
C259 C260 1.430 . S
C259 C261 1.387 . S
C259 C265 1.404 . S
C260 C253 1.448 . S
C260 C259 1.430 . S
C260 N264 1.351 . S
C261 C259 1.387 . S
C261 C262 1.374 . S
C261 H276 0.931 . S
C262 C256 1.439 . S
C262 C261 1.374 . S
C262 H277 0.931 . S
Eu263 N254 2.600 . S
Eu263 N264 2.562 . S
Eu263 O298 2.335 . S
Eu263 O301 2.372 . S
Eu263 O302 2.462 . S
Eu263 O303 2.373 1_556 S
Eu263 O305 2.432 . S
Eu263 O306 2.291 . S
Eu263 C327 2.787 . S
N264 C260 1.351 . S
N264 Eu263 2.562 . S
N264 C266 1.325 . S
C265 C259 1.404 . S
C265 C267 1.366 . S
C265 H273 0.930 . S
C266 N264 1.325 . S
C266 C267 1.416 . S
C266 H272 0.929 . S
C267 C265 1.366 . S
C267 C266 1.416 . S
C267 H269 0.930 . S
H268 C257 0.930 . S
H269 C267 0.930 . S
H270 C285 0.930 . S
H271 C292 0.930 . S
H272 C266 0.929 . S
H273 C265 0.930 . S
H274 C288 0.929 . S
H275 C255 0.931 . S
H276 C261 0.931 . S
H277 C262 0.931 . S
H278 C283 0.931 . S
H279 C258 0.929 . S
H280 C291 0.930 . S
N281 Eu252 2.600 . S
N281 C282 1.365 . S
N281 C285 1.319 . S
C282 N281 1.365 . S
C282 C284 1.405 . S
C282 C290 1.448 . S
C283 H278 0.931 . S
C283 C285 1.397 . S
C283 C286 1.367 . S
C284 C282 1.405 . S
C284 C286 1.403 . S
C284 C317 1.439 . S
C285 H270 0.930 . S
C285 N281 1.319 . S
C285 C283 1.397 . S
C286 C283 1.367 . S
C286 C284 1.403 . S
C286 H293 0.929 . S
N287 Eu252 2.562 . S
N287 C288 1.325 . S
N287 C290 1.351 . S
C288 H274 0.929 . S
C288 N287 1.325 . S
C288 C292 1.416 . S
C289 C290 1.430 . S
C289 C291 1.404 . S
C289 C318 1.387 . S
C290 C282 1.448 . S
C290 N287 1.351 . S
C290 C289 1.430 . S
C291 H280 0.930 . S
C291 C289 1.404 . S
C291 C292 1.366 . S
C292 H271 0.930 . S
C292 C288 1.416 . S
C292 C291 1.366 . S
H293 C286 0.929 . S
H294 C317 0.931 . S
H295 C318 0.931 . S
O296 Eu252 2.462 . S
O296 C316 1.252 . S
O297 Eu252 2.373 1_556 S
O297 C308 1.249 . S
O298 Eu263 2.335 . S
O298 C308 1.264 . S
O299 Eu252 2.432 . S
O299 C316 1.268 . S
O300 Eu252 2.291 . S
O300 C315 1.255 1_554 S
O301 Eu263 2.372 . S
O301 C315 1.257 . S
O302 Eu263 2.462 . S
O302 C327 1.252 . S
O303 Eu263 2.373 1_554 S
O303 C319 1.249 . S
O304 Eu252 2.335 . S
O304 C319 1.264 . S
O305 Eu263 2.432 . S
O305 C327 1.268 . S
O306 Eu263 2.291 . S
O306 C326 1.255 1_556 S
O307 Eu252 2.372 . S
O307 C326 1.257 . S
C308 O297 1.249 . S
C308 O298 1.264 . S
C309 C312 1.382 . S
C309 C314 1.390 . S
C309 C316 1.506 . S
C310 C311 1.398 . S
C310 C314 1.392 . S
C311 C310 1.398 . S
C311 C313 1.372 . S
C311 H328 0.931 . S
C312 C309 1.382 . S
C312 C313 1.390 . S
C312 H329 0.931 . S
C313 C311 1.372 . S
C313 C312 1.390 . S
C313 H330 0.929 . S
C314 C309 1.390 . S
C314 C310 1.392 . S
C314 H331 0.930 . S
C315 O300 1.255 1_556 S
C315 O301 1.257 . S
C316 Eu252 2.787 . S
C316 O296 1.252 . S
C316 O299 1.268 . S
C316 C309 1.506 . S
C317 C284 1.439 . S
C317 H294 0.931 . S
C317 C318 1.374 . S
C318 C289 1.387 . S
C318 H295 0.931 . S
C318 C317 1.374 . S
C319 O303 1.249 . S
C319 O304 1.264 . S
C320 C323 1.382 . S
C320 C324 1.390 . S
C320 C327 1.506 . S
C321 C322 1.398 . S
C321 C324 1.392 . S
C322 C321 1.398 . S
C322 C325 1.372 . S
C322 H332 0.931 . S
C323 C320 1.382 . S
C323 C325 1.390 . S
C323 H333 0.931 . S
C324 C320 1.390 . S
C324 C321 1.392 . S
C324 H334 0.930 . S
C325 C322 1.372 . S
C325 C323 1.390 . S
C325 H335 0.929 . S
C326 O306 1.255 1_554 S
C326 O307 1.257 . S
C327 Eu263 2.787 . S
C327 O302 1.252 . S
C327 O305 1.268 . S
C327 C320 1.506 . S
H328 C311 0.931 . S
H329 C312 0.931 . S
H330 C313 0.929 . S
H331 C314 0.930 . S
H332 C322 0.931 . S
H333 C323 0.931 . S
H334 C324 0.930 . S
H335 C325 0.929 . S
Eu336 N365 2.600 . S
Eu336 N371 2.562 . S
Eu336 O380 2.471 . S
Eu336 O381 2.373 . S
Eu336 O383 2.432 . S
Eu336 O384 2.291 . S
Eu336 O388 2.335 1_565 S
Eu336 O391 2.356 1_455 S
Eu336 C400 2.787 . S
C337 N338 1.365 . S
C337 C340 1.405 . S
C337 C344 1.448 . S
N338 C337 1.365 . S
N338 C341 1.319 . S
N338 Eu347 2.609 . S
C339 C341 1.397 . S
C339 C342 1.367 . S
C339 H359 0.931 . S
C340 C337 1.405 . S
C340 C342 1.403 . S
C340 C346 1.439 . S
C341 N338 1.319 . S
C341 C339 1.397 . S
C341 H352 0.930 . S
C342 C339 1.367 . S
C342 C340 1.403 . S
C342 H363 0.929 . S
C343 C344 1.430 . S
C343 C345 1.387 . S
C343 C349 1.404 . S
C344 C337 1.448 . S
C344 C343 1.430 . S
C344 N348 1.351 . S
C345 C343 1.387 . S
C345 C346 1.374 . S
C345 H360 0.931 . S
C346 C340 1.439 . S
C346 C345 1.374 . S
C346 H361 0.931 . S
Eu347 N338 2.609 . S
Eu347 N348 2.567 . S
Eu347 O382 2.326 1_545 S
Eu347 O385 2.348 1_655 S
Eu347 O386 2.456 1_545 S
Eu347 O387 2.379 . S
Eu347 O389 2.430 1_545 S
Eu347 O390 2.287 1_545 S
Eu347 C411 2.783 1_545 S
N348 C344 1.351 . S
N348 Eu347 2.567 . S
N348 C350 1.325 . S
C349 C343 1.404 . S
C349 C351 1.366 . S
C349 H357 0.930 . S
C350 N348 1.325 . S
C350 C351 1.416 . S
C350 H356 0.929 . S
C351 C349 1.366 . S
C351 C350 1.416 . S
C351 H353 0.930 . S
H352 C341 0.930 . S
H353 C351 0.930 . S
H354 C369 0.930 . S
H355 C376 0.930 . S
H356 C350 0.929 . S
H357 C349 0.930 . S
H358 C372 0.929 . S
H359 C339 0.931 . S
H360 C345 0.931 . S
H361 C346 0.931 . S
H362 C367 0.931 . S
H363 C342 0.929 . S
H364 C375 0.930 . S
N365 Eu336 2.600 . S
N365 C366 1.365 . S
N365 C369 1.319 . S
C366 N365 1.365 . S
C366 C368 1.405 . S
C366 C374 1.448 . S
C367 H362 0.931 . S
C367 C369 1.397 . S
C367 C370 1.367 . S
C368 C366 1.405 . S
C368 C370 1.403 . S
C368 C401 1.439 . S
C369 H354 0.930 . S
C369 N365 1.319 . S
C369 C367 1.397 . S
C370 C367 1.367 . S
C370 C368 1.403 . S
C370 H377 0.929 . S
N371 Eu336 2.562 . S
N371 C372 1.325 . S
N371 C374 1.351 . S
C372 H358 0.929 . S
C372 N371 1.325 . S
C372 C376 1.416 . S
C373 C374 1.430 . S
C373 C375 1.404 . S
C373 C402 1.387 . S
C374 C366 1.448 . S
C374 N371 1.351 . S
C374 C373 1.430 . S
C375 H364 0.930 . S
C375 C373 1.404 . S
C375 C376 1.366 . S
C376 H355 0.930 . S
C376 C372 1.416 . S
C376 C375 1.366 . S
H377 C370 0.929 . S
H378 C401 0.931 . S
H379 C402 0.931 . S
O380 Eu336 2.471 . S
O380 C400 1.256 . S
O381 Eu336 2.373 . S
O381 C392 1.249 1_455 S
O382 Eu347 2.326 1_565 S
O382 C392 1.264 . S
O383 Eu336 2.432 . S
O383 C400 1.268 . S
O384 Eu336 2.291 . S
O384 C399 1.255 1_565 S
O385 Eu347 2.348 1_455 S
O385 C399 1.289 . S
O386 Eu347 2.456 1_565 S
O386 C411 1.252 . S
O387 Eu347 2.379 . S
O387 C403 1.249 1_655 S
O388 Eu336 2.335 1_545 S
O388 C403 1.264 . S
O389 Eu347 2.430 1_565 S
O389 C411 1.268 . S
O390 Eu347 2.287 1_565 S
O390 C410 1.255 . S
O391 Eu336 2.356 1_655 S
O391 C410 1.277 . S
C392 O381 1.249 1_655 S
C392 O382 1.264 . S
C393 C396 1.382 1_545 S
C393 C398 1.390 . S
C393 C400 1.506 1_545 S
C394 C395 1.398 . S
C394 C398 1.392 . S
C395 C394 1.398 . S
C395 C397 1.372 . S
C395 H412 0.931 . S
C396 C393 1.382 1_565 S
C396 C397 1.390 1_565 S
C396 H413 0.931 . S
C397 C395 1.372 . S
C397 C396 1.390 1_545 S
C397 H414 0.929 . S
C398 C393 1.390 . S
C398 C394 1.392 . S
C398 H415 0.930 . S
C399 O384 1.255 1_545 S
C399 O385 1.289 . S
C400 Eu336 2.787 . S
C400 O380 1.256 . S
C400 O383 1.268 . S
C400 C393 1.506 1_565 S
C401 C368 1.439 . S
C401 H378 0.931 . S
C401 C402 1.374 . S
C402 C373 1.387 . S
C402 H379 0.931 . S
C402 C401 1.374 . S
C403 O387 1.249 1_455 S
C403 O388 1.264 . S
C404 C407 1.382 . S
C404 C408 1.390 . S
C404 C411 1.506 . S
C405 C406 1.398 . S
C405 C408 1.392 . S
C406 C405 1.398 . S
C406 C409 1.372 . S
C406 H416 0.931 . S
C407 C404 1.382 . S
C407 C409 1.390 . S
C407 H417 0.931 . S
C408 C404 1.390 . S
C408 C405 1.392 . S
C408 H418 0.930 . S
C409 C406 1.372 . S
C409 C407 1.390 . S
C409 H419 0.929 . S
C410 O390 1.255 . S
C410 O391 1.277 . S
C411 Eu347 2.783 1_565 S
C411 O386 1.252 . S
C411 O389 1.268 . S
C411 C404 1.506 . S
H412 C395 0.931 . S
H413 C396 0.931 . S
H414 C397 0.929 . S
H415 C398 0.930 . S
H416 C406 0.931 . S
H417 C407 0.931 . S
H418 C408 0.930 . S
H419 C409 0.929 . S
Eu420 N449 2.600 . S
Eu420 N455 2.562 . S
Eu420 O464 2.462 . S
Eu420 O465 2.373 . S
Eu420 O467 2.432 . S
Eu420 O468 2.291 . S
Eu420 O472 2.335 . S
Eu420 O475 2.372 . S
Eu420 C484 2.787 . S
C421 N422 1.365 . S
C421 C424 1.405 . S
C421 C428 1.448 . S
N422 C421 1.365 . S
N422 C425 1.319 . S
N422 Eu431 2.600 . S
C423 C425 1.397 . S
C423 C426 1.367 . S
C423 H443 0.931 . S
C424 C421 1.405 . S
C424 C426 1.403 . S
C424 C430 1.439 . S
C425 N422 1.319 . S
C425 C423 1.397 . S
C425 H436 0.930 . S
C426 C423 1.367 . S
C426 C424 1.403 . S
C426 H447 0.929 . S
C427 C428 1.430 . S
C427 C429 1.387 . S
C427 C433 1.404 . S
C428 C421 1.448 . S
C428 C427 1.430 . S
C428 N432 1.351 . S
C429 C427 1.387 . S
C429 C430 1.374 . S
C429 H444 0.931 . S
C430 C424 1.439 . S
C430 C429 1.374 . S
C430 H445 0.931 . S
Eu431 N422 2.600 . S
Eu431 N432 2.562 . S
Eu431 O466 2.335 . S
Eu431 O469 2.372 . S
Eu431 O470 2.462 . S
Eu431 O471 2.373 . S
Eu431 O473 2.432 . S
Eu431 O474 2.291 . S
Eu431 C495 2.787 . S
N432 C428 1.351 . S
N432 Eu431 2.562 . S
N432 C434 1.325 . S
C433 C427 1.404 . S
C433 C435 1.366 . S
C433 H441 0.930 . S
C434 N432 1.325 . S
C434 C435 1.416 . S
C434 H440 0.929 . S
C435 C433 1.366 . S
C435 C434 1.416 . S
C435 H437 0.930 . S
H436 C425 0.930 . S
H437 C435 0.930 . S
H438 C453 0.930 . S
H439 C460 0.930 . S
H440 C434 0.929 . S
H441 C433 0.930 . S
H442 C456 0.929 . S
H443 C423 0.931 . S
H444 C429 0.931 . S
H445 C430 0.931 . S
H446 C451 0.931 . S
H447 C426 0.929 . S
H448 C459 0.930 . S
N449 Eu420 2.600 . S
N449 C450 1.365 . S
N449 C453 1.319 . S
C450 N449 1.365 . S
C450 C452 1.405 . S
C450 C458 1.448 . S
C451 H446 0.931 . S
C451 C453 1.397 . S
C451 C454 1.367 . S
C452 C450 1.405 . S
C452 C454 1.403 . S
C452 C485 1.439 . S
C453 H438 0.930 . S
C453 N449 1.319 . S
C453 C451 1.397 . S
C454 C451 1.367 . S
C454 C452 1.403 . S
C454 H461 0.929 . S
N455 Eu420 2.562 . S
N455 C456 1.325 . S
N455 C458 1.351 . S
C456 H442 0.929 . S
C456 N455 1.325 . S
C456 C460 1.416 . S
C457 C458 1.430 . S
C457 C459 1.404 . S
C457 C486 1.387 . S
C458 C450 1.448 . S
C458 N455 1.351 . S
C458 C457 1.430 . S
C459 H448 0.930 . S
C459 C457 1.404 . S
C459 C460 1.366 . S
C460 H439 0.930 . S
C460 C456 1.416 . S
C460 C459 1.366 . S
H461 C454 0.929 . S
H462 C485 0.931 . S
H463 C486 0.931 . S
O464 Eu420 2.462 . S
O464 C484 1.252 . S
O465 Eu420 2.373 . S
O465 C476 1.249 . S
O466 Eu431 2.335 . S
O466 C476 1.264 . S
O467 Eu420 2.432 . S
O467 C484 1.268 . S
O468 Eu420 2.291 . S
O468 C483 1.255 . S
O469 Eu431 2.372 . S
O469 C483 1.257 . S
O470 Eu431 2.462 . S
O470 C495 1.252 . S
O471 Eu431 2.373 . S
O471 C487 1.249 . S
O472 Eu420 2.335 . S
O472 C487 1.264 . S
O473 Eu431 2.432 . S
O473 C495 1.268 . S
O474 Eu431 2.291 . S
O474 C494 1.255 . S
O475 Eu420 2.372 . S
O475 C494 1.257 . S
C476 O465 1.249 . S
C476 O466 1.264 . S
C477 C480 1.382 . S
C477 C482 1.390 . S
C477 C484 1.506 . S
C478 C479 1.398 . S
C478 C482 1.392 . S
C479 C478 1.398 . S
C479 C481 1.372 . S
C479 H496 0.931 . S
C480 C477 1.382 . S
C480 C481 1.390 . S
C480 H497 0.931 . S
C481 C479 1.372 . S
C481 C480 1.390 . S
C481 H498 0.929 . S
C482 C477 1.390 . S
C482 C478 1.392 . S
C482 H499 0.930 . S
C483 O468 1.255 . S
C483 O469 1.257 . S
C484 Eu420 2.787 . S
C484 O464 1.252 . S
C484 O467 1.268 . S
C484 C477 1.506 . S
C485 C452 1.439 . S
C485 H462 0.931 . S
C485 C486 1.374 . S
C486 C457 1.387 . S
C486 H463 0.931 . S
C486 C485 1.374 . S
C487 O471 1.249 . S
C487 O472 1.264 . S
C488 C491 1.382 . S
C488 C492 1.390 . S
C488 C495 1.506 . S
C489 C490 1.398 . S
C489 C492 1.392 . S
C490 C489 1.398 . S
C490 C493 1.372 . S
C490 H500 0.931 . S
C491 C488 1.382 . S
C491 C493 1.390 . S
C491 H501 0.931 . S
C492 C488 1.390 . S
C492 C489 1.392 . S
C492 H502 0.930 . S
C493 C490 1.372 . S
C493 C491 1.390 . S
C493 H503 0.929 . S
C494 O474 1.255 . S
C494 O475 1.257 . S
C495 Eu431 2.787 . S
C495 O470 1.252 . S
C495 O473 1.268 . S
C495 C488 1.506 . S
H496 C479 0.931 . S
H497 C480 0.931 . S
H498 C481 0.929 . S
H499 C482 0.930 . S
H500 C490 0.931 . S
H501 C491 0.931 . S
H502 C492 0.930 . S
H503 C493 0.929 . S
Eu504 N533 2.600 . S
Eu504 N539 2.562 . S
Eu504 O548 2.462 1_565 S
Eu504 O549 2.373 . S
Eu504 O551 2.432 . S
Eu504 O552 2.291 1_565 S
Eu504 O556 2.335 1_565 S
Eu504 O559 2.372 . S
Eu504 C568 2.787 1_565 S
C505 N506 1.365 . S
C505 C508 1.405 . S
C505 C512 1.448 . S
N506 C505 1.365 . S
N506 C509 1.319 . S
N506 Eu515 2.600 . S
C507 C509 1.397 . S
C507 C510 1.367 . S
C507 H527 0.931 . S
C508 C505 1.405 . S
C508 C510 1.403 . S
C508 C514 1.439 . S
C509 N506 1.319 . S
C509 C507 1.397 . S
C509 H520 0.930 . S
C510 C507 1.367 . S
C510 C508 1.403 . S
C510 H531 0.929 . S
C511 C512 1.430 . S
C511 C513 1.387 . S
C511 C517 1.404 . S
C512 C505 1.448 . S
C512 C511 1.430 . S
C512 N516 1.351 . S
C513 C511 1.387 . S
C513 C514 1.374 . S
C513 H528 0.931 . S
C514 C508 1.439 . S
C514 C513 1.374 . S
C514 H529 0.931 . S
Eu515 N506 2.600 . S
Eu515 N516 2.562 . S
Eu515 O550 2.335 1_545 S
Eu515 O553 2.372 . S
Eu515 O554 2.462 1_545 S
Eu515 O555 2.373 . S
Eu515 O557 2.432 . S
Eu515 O558 2.291 1_545 S
Eu515 C579 2.787 1_545 S
N516 C512 1.351 . S
N516 Eu515 2.562 . S
N516 C518 1.325 1_545 S
C517 C511 1.404 . S
C517 C519 1.316 1_545 S
C517 H525 0.930 . S
C518 N516 1.325 1_565 S
C518 C519 1.421 . S
C518 H524 0.929 . S
C519 C517 1.316 1_565 S
C519 C518 1.421 . S
C519 H521 0.975 . S
H520 C509 0.930 . S
H521 C519 0.975 . S
H522 C537 0.930 . S
H523 C544 0.930 . S
H524 C518 0.929 . S
H525 C517 0.930 . S
H526 C540 0.929 . S
H527 C507 0.931 . S
H528 C513 0.931 . S
H529 C514 0.931 . S
H530 C535 0.931 . S
H531 C510 0.929 . S
H532 C543 0.930 . S
N533 Eu504 2.600 . S
N533 C534 1.365 . S
N533 C537 1.319 . S
C534 N533 1.365 . S
C534 C536 1.405 . S
C534 C542 1.448 . S
C535 H530 0.931 . S
C535 C537 1.397 . S
C535 C538 1.367 . S
C536 C534 1.405 . S
C536 C538 1.403 . S
C536 C569 1.439 . S
C537 H522 0.930 . S
C537 N533 1.319 . S
C537 C535 1.397 . S
C538 C535 1.367 . S
C538 C536 1.403 . S
C538 H545 0.929 . S
N539 Eu504 2.562 . S
N539 C540 1.325 1_565 S
N539 C542 1.351 . S
C540 H526 0.929 . S
C540 N539 1.325 1_545 S
C540 C544 1.416 . S
C541 C542 1.430 . S
C541 C543 1.404 . S
C541 C570 1.387 . S
C542 C534 1.448 . S
C542 N539 1.351 . S
C542 C541 1.430 . S
C543 H532 0.930 . S
C543 C541 1.404 . S
C543 C544 1.366 1_565 S
C544 H523 0.930 . S
C544 C540 1.416 . S
C544 C543 1.366 1_545 S
H545 C538 0.929 . S
H546 C569 0.931 . S
H547 C570 0.931 . S
O548 Eu504 2.462 1_545 S
O548 C568 1.252 . S
O549 Eu504 2.373 . S
O549 C560 1.249 . S
O550 Eu515 2.335 1_565 S
O550 C560 1.264 . S
O551 Eu504 2.432 . S
O551 C568 1.268 1_565 S
O552 Eu504 2.291 1_545 S
O552 C567 1.255 . S
O553 Eu515 2.372 . S
O553 C567 1.257 . S
O554 Eu515 2.462 1_565 S
O554 C579 1.252 . S
O555 Eu515 2.373 . S
O555 C571 1.249 . S
O556 Eu504 2.335 1_545 S
O556 C571 1.264 . S
O557 Eu515 2.432 . S
O557 C579 1.268 1_545 S
O558 Eu515 2.291 1_565 S
O558 C578 1.255 . S
O559 Eu504 2.372 . S
O559 C578 1.257 . S
C560 O549 1.249 . S
C560 O550 1.264 . S
C561 C564 1.382 1_545 S
C561 C566 1.390 . S
C561 C568 1.506 . S
C562 C563 1.398 . S
C562 C566 1.392 . S
C563 C562 1.398 . S
C563 C565 1.372 . S
C563 H580 0.931 . S
C564 C561 1.382 1_565 S
C564 C565 1.390 1_565 S
C564 H581 0.931 . S
C565 C563 1.372 . S
C565 C564 1.390 1_545 S
C565 H582 0.929 1_545 S
C566 C561 1.390 . S
C566 C562 1.392 . S
C566 H583 0.930 . S
C567 O552 1.255 . S
C567 O553 1.257 . S
C568 Eu504 2.787 1_545 S
C568 O548 1.252 . S
C568 O551 1.268 1_545 S
C568 C561 1.506 . S
C569 C536 1.439 . S
C569 H546 0.931 . S
C569 C570 1.374 . S
C570 C541 1.387 . S
C570 H547 0.931 . S
C570 C569 1.374 . S
C571 O555 1.249 . S
C571 O556 1.264 . S
C572 C575 1.382 1_565 S
C572 C576 1.390 . S
C572 C579 1.506 . S
C573 C574 1.398 . S
C573 C576 1.392 . S
C574 C573 1.398 . S
C574 C577 1.372 . S
C574 H584 0.931 . S
C575 C572 1.382 1_545 S
C575 C577 1.390 1_545 S
C575 H585 0.931 . S
C576 C572 1.390 . S
C576 C573 1.392 . S
C576 H586 0.930 . S
C577 C574 1.372 . S
C577 C575 1.390 1_565 S
C577 H587 0.929 1_565 S
C578 O558 1.255 . S
C578 O559 1.257 . S
C579 Eu515 2.787 1_565 S
C579 O554 1.252 . S
C579 O557 1.268 1_565 S
C579 C572 1.506 . S
H580 C563 0.931 . S
H581 C564 0.931 . S
H582 C565 0.929 1_565 S
H583 C566 0.930 . S
H584 C574 0.931 . S
H585 C575 0.931 . S
H586 C576 0.930 . S
H587 C577 0.929 1_545 S
Eu588 N617 2.600 . S
Eu588 N623 2.562 . S
Eu588 O632 2.462 . S
Eu588 O633 2.373 . S
Eu588 O635 2.432 . S
Eu588 O636 2.291 . S
Eu588 O640 2.335 . S
Eu588 O643 2.372 . S
Eu588 C652 2.787 . S
C589 N590 1.365 . S
C589 C592 1.405 . S
C589 C596 1.448 . S
N590 C589 1.365 . S
N590 C593 1.319 . S
N590 Eu599 2.600 . S
C591 C593 1.397 . S
C591 C594 1.367 . S
C591 H611 0.931 . S
C592 C589 1.405 . S
C592 C594 1.403 . S
C592 C598 1.439 . S
C593 N590 1.319 . S
C593 C591 1.397 . S
C593 H604 0.930 . S
C594 C591 1.367 . S
C594 C592 1.403 . S
C594 H615 0.929 . S
C595 C596 1.430 . S
C595 C597 1.387 . S
C595 C601 1.404 . S
C596 C589 1.448 . S
C596 C595 1.430 . S
C596 N600 1.351 . S
C597 C595 1.387 . S
C597 C598 1.374 . S
C597 H612 0.931 . S
C598 C592 1.439 . S
C598 C597 1.374 . S
C598 H613 0.931 . S
Eu599 N590 2.600 . S
Eu599 N600 2.562 . S
Eu599 O634 2.335 . S
Eu599 O637 2.372 . S
Eu599 O638 2.462 . S
Eu599 O639 2.373 . S
Eu599 O641 2.432 . S
Eu599 O642 2.291 . S
Eu599 C663 2.787 . S
N600 C596 1.351 . S
N600 Eu599 2.562 . S
N600 C602 1.325 . S
C601 C595 1.404 . S
C601 C603 1.366 . S
C601 H609 0.930 . S
C602 N600 1.325 . S
C602 C603 1.416 . S
C602 H608 0.929 . S
C603 C601 1.366 . S
C603 C602 1.416 . S
C603 H605 0.930 . S
H604 C593 0.930 . S
H605 C603 0.930 . S
H606 C621 0.930 . S
H607 C628 0.930 . S
H608 C602 0.929 . S
H609 C601 0.930 . S
H610 C624 0.929 . S
H611 C591 0.931 . S
H612 C597 0.931 . S
H613 C598 0.931 . S
H614 C619 0.931 . S
H615 C594 0.929 . S
H616 C627 0.930 . S
N617 Eu588 2.600 . S
N617 C618 1.365 . S
N617 C621 1.319 . S
C618 N617 1.365 . S
C618 C620 1.405 . S
C618 C626 1.448 . S
C619 H614 0.931 . S
C619 C621 1.397 . S
C619 C622 1.367 . S
C620 C618 1.405 . S
C620 C622 1.403 . S
C620 C653 1.439 . S
C621 H606 0.930 . S
C621 N617 1.319 . S
C621 C619 1.397 . S
C622 C619 1.367 . S
C622 C620 1.403 . S
C622 H629 0.929 . S
N623 Eu588 2.562 . S
N623 C624 1.325 . S
N623 C626 1.351 . S
C624 H610 0.929 . S
C624 N623 1.325 . S
C624 C628 1.416 . S
C625 C626 1.430 . S
C625 C627 1.404 . S
C625 C654 1.387 . S
C626 C618 1.448 . S
C626 N623 1.351 . S
C626 C625 1.430 . S
C627 H616 0.930 . S
C627 C625 1.404 . S
C627 C628 1.366 . S
C628 H607 0.930 . S
C628 C624 1.416 . S
C628 C627 1.366 . S
H629 C622 0.929 . S
H630 C653 0.931 . S
H631 C654 0.931 . S
O632 Eu588 2.462 . S
O632 C652 1.252 . S
O633 Eu588 2.373 . S
O633 C644 1.249 . S
O634 Eu599 2.335 . S
O634 C644 1.264 . S
O635 Eu588 2.432 . S
O635 C652 1.268 . S
O636 Eu588 2.291 . S
O636 C651 1.255 . S
O637 Eu599 2.372 . S
O637 C651 1.257 . S
O638 Eu599 2.462 . S
O638 C663 1.252 . S
O639 Eu599 2.373 . S
O639 C655 1.249 . S
O640 Eu588 2.335 . S
O640 C655 1.264 . S
O641 Eu599 2.432 . S
O641 C663 1.268 . S
O642 Eu599 2.291 . S
O642 C662 1.255 . S
O643 Eu588 2.372 . S
O643 C662 1.257 . S
C644 O633 1.249 . S
C644 O634 1.264 . S
C645 C648 1.382 . S
C645 C650 1.390 . S
C645 C652 1.506 . S
C646 C647 1.398 . S
C646 C650 1.392 . S
C647 C646 1.398 . S
C647 C649 1.372 . S
C647 H664 0.931 . S
C648 C645 1.382 . S
C648 C649 1.390 . S
C648 H665 0.931 . S
C649 C647 1.372 . S
C649 C648 1.390 . S
C649 H666 0.929 . S
C650 C645 1.390 . S
C650 C646 1.392 . S
C650 H667 0.930 . S
C651 O636 1.255 . S
C651 O637 1.257 . S
C652 Eu588 2.787 . S
C652 O632 1.252 . S
C652 O635 1.268 . S
C652 C645 1.506 . S
C653 C620 1.439 . S
C653 H630 0.931 . S
C653 C654 1.374 . S
C654 C625 1.387 . S
C654 H631 0.931 . S
C654 C653 1.374 . S
C655 O639 1.249 . S
C655 O640 1.264 . S
C656 C659 1.382 . S
C656 C660 1.390 . S
C656 C663 1.506 . S
C657 C658 1.398 . S
C657 C660 1.392 . S
C658 C657 1.398 . S
C658 C661 1.372 . S
C658 H668 0.931 . S
C659 C656 1.382 . S
C659 C661 1.390 . S
C659 H669 0.931 . S
C660 C656 1.390 . S
C660 C657 1.392 . S
C660 H670 0.930 . S
C661 C658 1.372 . S
C661 C659 1.390 . S
C661 H671 0.929 . S
C662 O642 1.255 . S
C662 O643 1.257 . S
C663 Eu599 2.787 . S
C663 O638 1.252 . S
C663 O641 1.268 . S
C663 C656 1.506 . S
H664 C647 0.931 . S
H665 C648 0.931 . S
H666 C649 0.929 . S
H667 C650 0.930 . S
H668 C658 0.931 . S
H669 C659 0.931 . S
H670 C660 0.930 . S
H671 C661 0.929 . S
Eu672 N701 2.600 . S
Eu672 N707 2.562 . S
Eu672 O716 2.462 . S
Eu672 O717 2.373 . S
Eu672 O719 2.432 . S
Eu672 O720 2.291 . S
Eu672 O724 2.335 . S
Eu672 O727 2.372 . S
Eu672 C736 2.787 . S
C673 N674 1.365 . S
C673 C676 1.405 . S
C673 C680 1.448 . S
N674 C673 1.365 . S
N674 C677 1.319 . S
N674 Eu683 2.600 . S
C675 C677 1.397 . S
C675 C678 1.367 . S
C675 H695 0.931 . S
C676 C673 1.405 . S
C676 C678 1.403 . S
C676 C682 1.439 . S
C677 N674 1.319 . S
C677 C675 1.397 . S
C677 H688 0.930 . S
C678 C675 1.367 . S
C678 C676 1.403 . S
C678 H699 0.929 . S
C679 C680 1.430 . S
C679 C681 1.387 . S
C679 C685 1.404 . S
C680 C673 1.448 . S
C680 C679 1.430 . S
C680 N684 1.351 . S
C681 C679 1.387 . S
C681 C682 1.374 . S
C681 H696 0.931 . S
C682 C676 1.439 . S
C682 C681 1.374 . S
C682 H697 0.931 . S
Eu683 N674 2.600 . S
Eu683 N684 2.562 . S
Eu683 O718 2.335 . S
Eu683 O721 2.372 . S
Eu683 O722 2.462 . S
Eu683 O723 2.373 . S
Eu683 O725 2.432 . S
Eu683 O726 2.291 . S
Eu683 C747 2.787 . S
N684 C680 1.351 . S
N684 Eu683 2.562 . S
N684 C686 1.325 . S
C685 C679 1.404 . S
C685 C687 1.366 . S
C685 H693 0.930 . S
C686 N684 1.325 . S
C686 C687 1.416 . S
C686 H692 0.929 . S
C687 C685 1.366 . S
C687 C686 1.416 . S
C687 H689 0.930 . S
H688 C677 0.930 . S
H689 C687 0.930 . S
H690 C705 0.930 . S
H691 C712 0.930 . S
H692 C686 0.929 . S
H693 C685 0.930 . S
H694 C708 0.929 . S
H695 C675 0.931 . S
H696 C681 0.931 . S
H697 C682 0.931 . S
H698 C703 0.931 . S
H699 C678 0.929 . S
H700 C711 0.930 . S
N701 Eu672 2.600 . S
N701 C702 1.365 . S
N701 C705 1.319 . S
C702 N701 1.365 . S
C702 C704 1.405 . S
C702 C710 1.448 . S
C703 H698 0.931 . S
C703 C705 1.397 . S
C703 C706 1.367 . S
C704 C702 1.405 . S
C704 C706 1.403 . S
C704 C737 1.439 . S
C705 H690 0.930 . S
C705 N701 1.319 . S
C705 C703 1.397 . S
C706 C703 1.367 . S
C706 C704 1.403 . S
C706 H713 0.929 . S
N707 Eu672 2.562 . S
N707 C708 1.325 . S
N707 C710 1.351 . S
C708 H694 0.929 . S
C708 N707 1.325 . S
C708 C712 1.416 . S
C709 C710 1.430 . S
C709 C711 1.404 . S
C709 C738 1.387 . S
C710 C702 1.448 . S
C710 N707 1.351 . S
C710 C709 1.430 . S
C711 H700 0.930 . S
C711 C709 1.404 . S
C711 C712 1.366 . S
C712 H691 0.930 . S
C712 C708 1.416 . S
C712 C711 1.366 . S
H713 C706 0.929 . S
H714 C737 0.931 . S
H715 C738 0.931 . S
O716 Eu672 2.462 . S
O716 C736 1.252 . S
O717 Eu672 2.373 . S
O717 C728 1.249 . S
O718 Eu683 2.335 . S
O718 C728 1.264 . S
O719 Eu672 2.432 . S
O719 C736 1.268 . S
O720 Eu672 2.291 . S
O720 C735 1.255 . S
O721 Eu683 2.372 . S
O721 C735 1.257 . S
O722 Eu683 2.462 . S
O722 C747 1.252 . S
O723 Eu683 2.373 . S
O723 C739 1.249 . S
O724 Eu672 2.335 . S
O724 C739 1.264 . S
O725 Eu683 2.432 . S
O725 C747 1.268 . S
O726 Eu683 2.291 . S
O726 C746 1.255 . S
O727 Eu672 2.372 . S
O727 C746 1.257 . S
C728 O717 1.249 . S
C728 O718 1.264 . S
C729 C732 1.382 . S
C729 C734 1.390 . S
C729 C736 1.506 . S
C730 C731 1.398 . S
C730 C734 1.392 . S
C731 C730 1.398 . S
C731 C733 1.372 . S
C731 H748 0.931 . S
C732 C729 1.382 . S
C732 C733 1.390 . S
C732 H749 0.931 . S
C733 C731 1.372 . S
C733 C732 1.390 . S
C733 H750 0.929 . S
C734 C729 1.390 . S
C734 C730 1.392 . S
C734 H751 0.930 . S
C735 O720 1.255 . S
C735 O721 1.257 . S
C736 Eu672 2.787 . S
C736 O716 1.252 . S
C736 O719 1.268 . S
C736 C729 1.506 . S
C737 C704 1.439 . S
C737 H714 0.931 . S
C737 C738 1.374 . S
C738 C709 1.387 . S
C738 H715 0.931 . S
C738 C737 1.374 . S
C739 O723 1.249 . S
C739 O724 1.264 . S
C740 C743 1.382 . S
C740 C744 1.390 . S
C740 C747 1.506 . S
C741 C742 1.398 . S
C741 C744 1.392 . S
C742 C741 1.398 . S
C742 C745 1.372 . S
C742 H752 0.931 . S
C743 C740 1.382 . S
C743 C745 1.390 . S
C743 H753 0.931 . S
C744 C740 1.390 . S
C744 C741 1.392 . S
C744 H754 0.930 . S
C745 C742 1.372 . S
C745 C743 1.390 . S
C745 H755 0.929 . S
C746 O726 1.255 . S
C746 O727 1.257 . S
C747 Eu683 2.787 . S
C747 O722 1.252 . S
C747 O725 1.268 . S
C747 C740 1.506 . S
H748 C731 0.931 . S
H749 C732 0.931 . S
H750 C733 0.929 . S
H751 C734 0.930 . S
H752 C742 0.931 . S
H753 C743 0.931 . S
H754 C744 0.930 . S
H755 C745 0.929 . S
Eu756 N785 2.600 . S
Eu756 N791 2.562 . S
Eu756 O800 2.462 . S
Eu756 O801 2.373 1_545 S
Eu756 O803 2.432 . S
Eu756 O804 2.291 . S
Eu756 O808 2.335 . S
Eu756 O811 2.372 . S
Eu756 C820 2.787 . S
C757 N758 1.365 . S
C757 C760 1.405 . S
C757 C764 1.448 . S
N758 C757 1.365 . S
N758 C761 1.319 . S
N758 Eu767 2.600 . S
C759 C761 1.397 . S
C759 C762 1.367 . S
C759 H779 0.931 . S
C760 C757 1.405 . S
C760 C762 1.403 . S
C760 C766 1.439 . S
C761 N758 1.319 . S
C761 C759 1.397 . S
C761 H772 0.930 . S
C762 C759 1.367 . S
C762 C760 1.403 . S
C762 H783 0.929 . S
C763 C764 1.430 . S
C763 C765 1.387 . S
C763 C769 1.404 . S
C764 C757 1.448 . S
C764 C763 1.430 . S
C764 N768 1.351 . S
C765 C763 1.387 . S
C765 C766 1.374 . S
C765 H780 0.931 . S
C766 C760 1.439 . S
C766 C765 1.374 . S
C766 H781 0.931 . S
Eu767 N758 2.600 . S
Eu767 N768 2.562 . S
Eu767 O802 2.335 . S
Eu767 O805 2.372 . S
Eu767 O806 2.462 . S
Eu767 O807 2.373 1_565 S
Eu767 O809 2.432 . S
Eu767 O810 2.291 . S
Eu767 C831 2.787 . S
N768 C764 1.351 . S
N768 Eu767 2.562 . S
N768 C770 1.325 . S
C769 C763 1.404 . S
C769 C771 1.366 . S
C769 H777 0.930 . S
C770 N768 1.325 . S
C770 C771 1.416 . S
C770 H776 0.929 . S
C771 C769 1.366 . S
C771 C770 1.416 . S
C771 H773 0.930 . S
H772 C761 0.930 . S
H773 C771 0.930 . S
H774 C789 0.930 . S
H775 C796 0.930 . S
H776 C770 0.929 . S
H777 C769 0.930 . S
H778 C792 0.929 . S
H779 C759 0.931 . S
H780 C765 0.931 . S
H781 C766 0.931 . S
H782 C787 0.931 . S
H783 C762 0.929 . S
H784 C795 0.930 . S
N785 Eu756 2.600 . S
N785 C786 1.365 . S
N785 C789 1.319 . S
C786 N785 1.365 . S
C786 C788 1.405 . S
C786 C794 1.448 . S
C787 H782 0.931 . S
C787 C789 1.397 . S
C787 C790 1.367 . S
C788 C786 1.405 . S
C788 C790 1.403 . S
C788 C821 1.439 . S
C789 H774 0.930 . S
C789 N785 1.319 . S
C789 C787 1.397 . S
C790 C787 1.367 . S
C790 C788 1.403 . S
C790 H797 0.929 . S
N791 Eu756 2.562 . S
N791 C792 1.325 . S
N791 C794 1.351 . S
C792 H778 0.929 . S
C792 N791 1.325 . S
C792 C796 1.416 . S
C793 C794 1.430 . S
C793 C795 1.404 . S
C793 C822 1.387 . S
C794 C786 1.448 . S
C794 N791 1.351 . S
C794 C793 1.430 . S
C795 H784 0.930 . S
C795 C793 1.404 . S
C795 C796 1.366 . S
C796 H775 0.930 . S
C796 C792 1.416 . S
C796 C795 1.366 . S
H797 C790 0.929 . S
H798 C821 0.931 . S
H799 C822 0.931 . S
O800 Eu756 2.462 . S
O800 C820 1.252 . S
O801 Eu756 2.373 1_565 S
O801 C812 1.249 . S
O802 Eu767 2.335 . S
O802 C812 1.264 . S
O803 Eu756 2.432 . S
O803 C820 1.268 . S
O804 Eu756 2.291 . S
O804 C819 1.255 1_545 S
O805 Eu767 2.372 . S
O805 C819 1.257 . S
O806 Eu767 2.462 . S
O806 C831 1.252 . S
O807 Eu767 2.373 1_545 S
O807 C823 1.249 . S
O808 Eu756 2.335 . S
O808 C823 1.264 . S
O809 Eu767 2.432 . S
O809 C831 1.268 . S
O810 Eu767 2.291 . S
O810 C830 1.255 1_565 S
O811 Eu756 2.372 . S
O811 C830 1.257 . S
C812 O801 1.249 . S
C812 O802 1.264 . S
C813 C816 1.382 . S
C813 C818 1.390 . S
C813 C820 1.506 . S
C814 C815 1.398 . S
C814 C818 1.392 . S
C815 C814 1.398 . S
C815 C817 1.372 . S
C815 H832 0.931 . S
C816 C813 1.382 . S
C816 C817 1.390 . S
C816 H833 0.931 . S
C817 C815 1.372 . S
C817 C816 1.390 . S
C817 H834 0.929 . S
C818 C813 1.390 . S
C818 C814 1.392 . S
C818 H835 0.930 . S
C819 O804 1.255 1_565 S
C819 O805 1.257 . S
C820 Eu756 2.787 . S
C820 O800 1.252 . S
C820 O803 1.268 . S
C820 C813 1.506 . S
C821 C788 1.439 . S
C821 H798 0.931 . S
C821 C822 1.374 . S
C822 C793 1.387 . S
C822 H799 0.931 . S
C822 C821 1.374 . S
C823 O807 1.249 . S
C823 O808 1.264 . S
C824 C827 1.382 . S
C824 C828 1.390 . S
C824 C831 1.506 . S
C825 C826 1.398 . S
C825 C828 1.392 . S
C826 C825 1.398 . S
C826 C829 1.372 . S
C826 H836 0.931 . S
C827 C824 1.382 . S
C827 C829 1.390 . S
C827 H837 0.931 . S
C828 C824 1.390 . S
C828 C825 1.392 . S
C828 H838 0.930 . S
C829 C826 1.372 . S
C829 C827 1.390 . S
C829 H839 0.929 . S
C830 O810 1.255 1_545 S
C830 O811 1.257 . S
C831 Eu767 2.787 . S
C831 O806 1.252 . S
C831 O809 1.268 . S
C831 C824 1.506 . S
H832 C815 0.931 . S
H833 C816 0.931 . S
H834 C817 0.929 . S
H835 C818 0.930 . S
H836 C826 0.931 . S
H837 C827 0.931 . S
H838 C828 0.930 . S
H839 C829 0.929 . S
Eu840 N869 2.600 . S
Eu840 N875 2.562 . S
Eu840 O884 2.462 . S
Eu840 O885 2.373 . S
Eu840 O887 2.432 . S
Eu840 O888 2.291 . S
Eu840 O892 2.335 . S
Eu840 O895 2.372 . S
Eu840 C904 2.787 . S
C841 N842 1.365 . S
C841 C844 1.405 . S
C841 C848 1.448 . S
N842 C841 1.365 . S
N842 C845 1.319 . S
N842 Eu851 2.600 . S
C843 C845 1.397 . S
C843 C846 1.367 . S
C843 H863 0.931 . S
C844 C841 1.405 . S
C844 C846 1.403 . S
C844 C850 1.439 . S
C845 N842 1.319 . S
C845 C843 1.397 . S
C845 H856 0.930 . S
C846 C843 1.367 . S
C846 C844 1.403 . S
C846 H867 0.929 . S
C847 C848 1.430 . S
C847 C849 1.387 . S
C847 C853 1.404 . S
C848 C841 1.448 . S
C848 C847 1.430 . S
C848 N852 1.351 . S
C849 C847 1.387 . S
C849 C850 1.374 . S
C849 H864 0.931 . S
C850 C844 1.439 . S
C850 C849 1.374 . S
C850 H865 0.931 . S
Eu851 N842 2.600 . S
Eu851 N852 2.562 . S
Eu851 O886 2.335 . S
Eu851 O889 2.372 . S
Eu851 O890 2.462 . S
Eu851 O891 2.373 . S
Eu851 O893 2.432 . S
Eu851 O894 2.291 . S
Eu851 C915 2.787 . S
N852 C848 1.351 . S
N852 Eu851 2.562 . S
N852 C854 1.325 . S
C853 C847 1.404 . S
C853 C855 1.366 . S
C853 H861 0.930 1_565 S
C854 N852 1.325 . S
C854 C855 1.416 . S
C854 H860 0.929 . S
C855 C853 1.366 . S
C855 C854 1.416 . S
C855 H857 0.930 1_565 S
H856 C845 0.930 . S
H857 C855 0.930 1_545 S
H858 C873 0.930 . S
H859 C880 0.930 . S
H860 C854 0.929 . S
H861 C853 0.930 1_545 S
H862 C876 0.929 . S
H863 C843 0.931 . S
H864 C849 0.931 . S
H865 C850 0.931 . S
H866 C871 0.931 . S
H867 C846 0.929 . S
H868 C879 0.930 . S
N869 Eu840 2.600 . S
N869 C870 1.365 . S
N869 C873 1.319 . S
C870 N869 1.365 . S
C870 C872 1.405 . S
C870 C878 1.448 . S
C871 H866 0.931 . S
C871 C873 1.397 . S
C871 C874 1.367 . S
C872 C870 1.405 . S
C872 C874 1.403 . S
C872 C905 1.439 . S
C873 H858 0.930 . S
C873 N869 1.319 . S
C873 C871 1.397 . S
C874 C871 1.367 . S
C874 C872 1.403 . S
C874 H881 0.929 . S
N875 Eu840 2.562 . S
N875 C876 1.325 . S
N875 C878 1.351 . S
C876 H862 0.929 . S
C876 N875 1.325 . S
C876 C880 1.416 . S
C877 C878 1.430 . S
C877 C879 1.404 . S
C877 C906 1.387 . S
C878 C870 1.448 . S
C878 N875 1.351 . S
C878 C877 1.430 . S
C879 H868 0.930 . S
C879 C877 1.404 . S
C879 C880 1.366 . S
C880 H859 0.930 . S
C880 C876 1.416 . S
C880 C879 1.366 . S
H881 C874 0.929 . S
H882 C905 0.931 . S
H883 C906 0.931 . S
O884 Eu840 2.462 . S
O884 C904 1.252 . S
O885 Eu840 2.373 . S
O885 C896 1.249 . S
O886 Eu851 2.335 . S
O886 C896 1.264 . S
O887 Eu840 2.432 . S
O887 C904 1.268 . S
O888 Eu840 2.291 . S
O888 C903 1.255 . S
O889 Eu851 2.372 . S
O889 C903 1.257 . S
O890 Eu851 2.462 . S
O890 C915 1.252 . S
O891 Eu851 2.373 . S
O891 C907 1.249 . S
O892 Eu840 2.335 . S
O892 C907 1.264 . S
O893 Eu851 2.432 . S
O893 C915 1.268 . S
O894 Eu851 2.291 . S
O894 C914 1.255 . S
O895 Eu840 2.372 . S
O895 C914 1.257 . S
C896 O885 1.249 . S
C896 O886 1.264 . S
C897 C900 1.382 . S
C897 C902 1.390 . S
C897 C904 1.506 . S
C898 C899 1.398 . S
C898 C902 1.392 . S
C899 C898 1.398 . S
C899 C901 1.372 . S
C899 H916 0.931 . S
C900 C897 1.382 . S
C900 C901 1.390 . S
C900 H917 0.931 . S
C901 C899 1.372 . S
C901 C900 1.390 . S
C901 H918 0.929 . S
C902 C897 1.390 . S
C902 C898 1.392 . S
C902 H919 0.930 . S
C903 O888 1.255 . S
C903 O889 1.257 . S
C904 Eu840 2.787 . S
C904 O884 1.252 . S
C904 O887 1.268 . S
C904 C897 1.506 . S
C905 C872 1.439 . S
C905 H882 0.931 . S
C905 C906 1.374 . S
C906 C877 1.387 . S
C906 H883 0.931 . S
C906 C905 1.374 . S
C907 O891 1.249 . S
C907 O892 1.264 . S
C908 C911 1.382 . S
C908 C912 1.390 . S
C908 C915 1.506 . S
C909 C910 1.398 . S
C909 C912 1.392 . S
C910 C909 1.398 . S
C910 C913 1.372 . S
C910 H920 0.931 . S
C911 C908 1.382 . S
C911 C913 1.390 . S
C911 H921 0.931 . S
C912 C908 1.390 . S
C912 C909 1.392 . S
C912 H922 0.930 . S
C913 C910 1.372 . S
C913 C911 1.390 . S
C913 H923 0.929 . S
C914 O894 1.255 . S
C914 O895 1.257 . S
C915 Eu851 2.787 . S
C915 O890 1.252 . S
C915 O893 1.268 . S
C915 C908 1.506 . S
H916 C899 0.931 . S
H917 C900 0.931 . S
H918 C901 0.929 . S
H919 C902 0.930 . S
H920 C910 0.931 . S
H921 C911 0.931 . S
H922 C912 0.930 . S
H923 C913 0.929 . S
Eu924 N953 2.613 . S
Eu924 N959 2.564 . S
Eu924 O968 2.452 1_554 S
Eu924 O969 2.379 1_565 S
Eu924 O971 2.433 . S
Eu924 O972 2.279 1_554 S
Eu924 O976 2.326 1_554 S
Eu924 O979 2.381 . S
Eu924 C988 2.782 1_554 S
C925 N926 1.365 . S
C925 C928 1.405 . S
C925 C932 1.448 . S
N926 C925 1.365 . S
N926 C929 1.319 . S
N926 Eu935 2.600 . S
C927 C929 1.397 . S
C927 C930 1.367 . S
C927 H947 0.931 . S
C928 C925 1.405 . S
C928 C930 1.403 . S
C928 C934 1.439 . S
C929 N926 1.319 . S
C929 C927 1.397 . S
C929 H940 0.930 . S
C930 C927 1.367 . S
C930 C928 1.403 . S
C930 H951 0.929 . S
C931 C932 1.430 . S
C931 C933 1.387 . S
C931 C937 1.404 . S
C932 C925 1.448 . S
C932 C931 1.430 . S
C932 N936 1.351 . S
C933 C931 1.387 . S
C933 C934 1.374 . S
C933 H948 0.931 . S
C934 C928 1.439 . S
C934 C933 1.374 . S
C934 H949 0.931 . S
Eu935 N926 2.600 . S
Eu935 N936 2.562 . S
Eu935 O970 2.334 . S
Eu935 O973 2.372 . S
Eu935 O974 2.462 1_556 S
Eu935 O975 2.373 1_545 S
Eu935 O977 2.432 . S
Eu935 O978 2.291 1_556 S
Eu935 C999 2.787 . S
N936 C932 1.351 . S
N936 Eu935 2.562 . S
N936 C938 1.325 . S
C937 C931 1.404 . S
C937 C939 1.366 . S
C937 H945 0.930 . S
C938 N936 1.325 . S
C938 C939 1.416 . S
C938 H944 0.929 1_556 S
C939 C937 1.366 . S
C939 C938 1.416 . S
C939 H941 0.930 . S
H940 C929 0.930 . S
H941 C939 0.930 . S
H942 C957 0.930 . S
H943 C964 0.930 . S
H944 C938 0.929 1_554 S
H945 C937 0.930 . S
H946 C960 0.929 . S
H947 C927 0.931 . S
H948 C933 0.931 . S
H949 C934 0.931 . S
H950 C955 0.931 . S
H951 C930 0.929 . S
H952 C963 0.930 . S
N953 Eu924 2.613 . S
N953 C954 1.365 . S
N953 C957 1.319 . S
C954 N953 1.365 . S
C954 C956 1.405 . S
C954 C962 1.448 . S
C955 H950 0.931 . S
C955 C957 1.397 . S
C955 C958 1.367 . S
C956 C954 1.405 . S
C956 C958 1.403 . S
C956 C989 1.439 . S
C957 H942 0.930 . S
C957 N953 1.319 . S
C957 C955 1.397 . S
C958 C955 1.367 . S
C958 C956 1.403 . S
C958 H965 0.929 . S
N959 Eu924 2.564 . S
N959 C960 1.325 1_554 S
N959 C962 1.351 . S
C960 H946 0.929 . S
C960 N959 1.325 1_556 S
C960 C964 1.416 . S
C961 C962 1.430 . S
C961 C963 1.404 . S
C961 C990 1.387 . S
C962 C954 1.448 . S
C962 N959 1.351 . S
C962 C961 1.430 . S
C963 H952 0.930 . S
C963 C961 1.404 . S
C963 C964 1.366 1_554 S
C964 H943 0.930 . S
C964 C960 1.416 . S
C964 C963 1.366 1_556 S
H965 C958 0.929 . S
H966 C989 0.931 . S
H967 C990 0.931 . S
O968 Eu924 2.452 1_556 S
O968 C988 1.252 . S
O969 Eu924 2.379 1_545 S
O969 C980 1.249 . S
O970 Eu935 2.334 . S
O970 C980 1.265 1_556 S
O971 Eu924 2.433 . S
O971 C988 1.268 1_554 S
O972 Eu924 2.279 1_556 S
O972 C987 1.255 1_565 S
O973 Eu935 2.372 . S
O973 C987 1.257 . S
O974 Eu935 2.462 1_554 S
O974 C999 1.252 1_554 S
O975 Eu935 2.373 1_565 S
O975 C991 1.249 . S
O976 Eu924 2.326 1_556 S
O976 C991 1.264 . S
O977 Eu935 2.432 . S
O977 C999 1.268 . S
O978 Eu935 2.291 1_554 S
O978 C998 1.255 1_545 S
O979 Eu924 2.381 . S
O979 C998 1.257 . S
C980 O969 1.249 . S
C980 O970 1.265 1_554 S
C981 C984 1.382 . S
C981 C986 1.390 . S
C981 C988 1.506 . S
C982 C983 1.398 . S
C982 C986 1.392 . S
C983 C982 1.398 . S
C983 C985 1.372 . S
C983 H1000 0.931 . S
C984 C981 1.382 . S
C984 C985 1.390 . S
C984 H1001 0.931 1_556 S
C985 C983 1.372 . S
C985 C984 1.390 . S
C985 H1002 0.965 . S
C986 C981 1.390 . S
C986 C982 1.392 . S
C986 H1003 0.930 . S
C987 O972 1.255 1_545 S
C987 O973 1.257 . S
C988 Eu924 2.782 1_556 S
C988 O968 1.252 . S
C988 O971 1.268 1_556 S
C988 C981 1.506 . S
C989 C956 1.439 . S
C989 H966 0.931 . S
C989 C990 1.374 . S
C990 C961 1.387 . S
C990 H967 0.931 . S
C990 C989 1.374 . S
C991 O975 1.249 . S
C991 O976 1.264 . S
C992 C995 1.382 . S
C992 C996 1.390 1_556 S
C992 C999 1.506 . S
C993 C994 1.398 . S
C993 C996 1.392 . S
C994 C993 1.398 . S
C994 C997 1.372 1_554 S
C994 H1004 0.931 . S
C995 C992 1.382 . S
C995 C997 1.390 . S
C995 H1005 0.931 . S
C996 C992 1.390 1_554 S
C996 C993 1.392 . S
C996 H1006 0.930 . S
C997 C994 1.372 1_556 S
C997 C995 1.390 . S
C997 H1007 0.929 . S
C998 O978 1.255 1_565 S
C998 O979 1.257 . S
C999 Eu935 2.787 . S
C999 O974 1.252 1_556 S
C999 O977 1.268 . S
C999 C992 1.506 . S
H1000 C983 0.931 . S
H1001 C984 0.931 1_554 S
H1002 C985 0.965 . S
H1003 C986 0.930 . S
H1004 C994 0.931 . S
H1005 C995 0.931 . S
H1006 C996 0.930 . S
H1007 C997 0.929 . S
Eu1008 N1037 2.600 . S
Eu1008 N1043 2.562 . S
Eu1008 O1052 2.462 . S
Eu1008 O1053 2.373 . S
Eu1008 O1055 2.432 . S
Eu1008 O1056 2.291 . S
Eu1008 O1060 2.335 . S
Eu1008 O1063 2.372 . S
Eu1008 C1072 2.787 . S
C1009 N1010 1.365 . S
C1009 C1012 1.405 . S
C1009 C1016 1.448 . S
N1010 C1009 1.365 . S
N1010 C1013 1.319 . S
N1010 Eu1019 2.600 . S
C1011 C1013 1.397 . S
C1011 C1014 1.367 . S
C1011 H1031 0.931 . S
C1012 C1009 1.405 . S
C1012 C1014 1.403 . S
C1012 C1018 1.439 . S
C1013 N1010 1.319 . S
C1013 C1011 1.397 . S
C1013 H1024 0.930 . S
C1014 C1011 1.367 . S
C1014 C1012 1.403 . S
C1014 H1035 0.929 . S
C1015 C1016 1.430 . S
C1015 C1017 1.387 . S
C1015 C1021 1.404 . S
C1016 C1009 1.448 . S
C1016 C1015 1.430 . S
C1016 N1020 1.351 . S
C1017 C1015 1.387 . S
C1017 C1018 1.374 . S
C1017 H1032 0.931 . S
C1018 C1012 1.439 . S
C1018 C1017 1.374 . S
C1018 H1033 0.931 . S
Eu1019 N1010 2.600 . S
Eu1019 N1020 2.562 . S
Eu1019 O1054 2.335 . S
Eu1019 O1057 2.372 . S
Eu1019 O1058 2.462 . S
Eu1019 O1059 2.373 . S
Eu1019 O1061 2.432 . S
Eu1019 O1062 2.291 . S
Eu1019 C1083 2.787 . S
N1020 C1016 1.351 . S
N1020 Eu1019 2.562 . S
N1020 C1022 1.325 . S
C1021 C1015 1.404 . S
C1021 C1023 1.366 . S
C1021 H1029 0.930 . S
C1022 N1020 1.325 . S
C1022 C1023 1.416 . S
C1022 H1028 0.929 . S
C1023 C1021 1.366 . S
C1023 C1022 1.416 . S
C1023 H1025 0.930 . S
H1024 C1013 0.930 . S
H1025 C1023 0.930 . S
H1026 C1041 0.930 . S
H1027 C1048 0.930 . S
H1028 C1022 0.929 . S
H1029 C1021 0.930 . S
H1030 C1044 0.929 . S
H1031 C1011 0.931 . S
H1032 C1017 0.931 . S
H1033 C1018 0.931 . S
H1034 C1039 0.931 . S
H1035 C1014 0.929 . S
H1036 C1047 0.930 . S
N1037 Eu1008 2.600 . S
N1037 C1038 1.365 . S
N1037 C1041 1.319 . S
C1038 N1037 1.365 . S
C1038 C1040 1.405 . S
C1038 C1046 1.448 . S
C1039 H1034 0.931 . S
C1039 C1041 1.397 . S
C1039 C1042 1.367 . S
C1040 C1038 1.405 . S
C1040 C1042 1.403 . S
C1040 C1073 1.439 . S
C1041 H1026 0.930 . S
C1041 N1037 1.319 . S
C1041 C1039 1.397 . S
C1042 C1039 1.367 . S
C1042 C1040 1.403 . S
C1042 H1049 0.929 . S
N1043 Eu1008 2.562 . S
N1043 C1044 1.325 . S
N1043 C1046 1.351 . S
C1044 H1030 0.929 . S
C1044 N1043 1.325 . S
C1044 C1048 1.416 . S
C1045 C1046 1.430 . S
C1045 C1047 1.404 . S
C1045 C1074 1.387 . S
C1046 C1038 1.448 . S
C1046 N1043 1.351 . S
C1046 C1045 1.430 . S
C1047 H1036 0.930 . S
C1047 C1045 1.404 . S
C1047 C1048 1.366 . S
C1048 H1027 0.930 . S
C1048 C1044 1.416 . S
C1048 C1047 1.366 . S
H1049 C1042 0.929 . S
H1050 C1073 0.931 . S
H1051 C1074 0.931 . S
O1052 Eu1008 2.462 . S
O1052 C1072 1.252 . S
O1053 Eu1008 2.373 . S
O1053 C1064 1.249 . S
O1054 Eu1019 2.335 . S
O1054 C1064 1.264 . S
O1055 Eu1008 2.432 . S
O1055 C1072 1.268 . S
O1056 Eu1008 2.291 . S
O1056 C1071 1.255 . S
O1057 Eu1019 2.372 . S
O1057 C1071 1.257 . S
O1058 Eu1019 2.462 . S
O1058 C1083 1.252 . S
O1059 Eu1019 2.373 . S
O1059 C1075 1.249 . S
O1060 Eu1008 2.335 . S
O1060 C1075 1.264 . S
O1061 Eu1019 2.432 . S
O1061 C1083 1.268 . S
O1062 Eu1019 2.291 . S
O1062 C1082 1.255 . S
O1063 Eu1008 2.372 . S
O1063 C1082 1.257 . S
C1064 O1053 1.249 . S
C1064 O1054 1.264 . S
C1065 C1068 1.382 . S
C1065 C1070 1.390 . S
C1065 C1072 1.506 . S
C1066 C1067 1.398 . S
C1066 C1070 1.392 . S
C1067 C1066 1.398 . S
C1067 C1069 1.372 . S
C1067 H1084 0.931 . S
C1068 C1065 1.382 . S
C1068 C1069 1.390 . S
C1068 H1085 0.931 . S
C1069 C1067 1.372 . S
C1069 C1068 1.390 . S
C1069 H1086 0.929 . S
C1070 C1065 1.390 . S
C1070 C1066 1.392 . S
C1070 H1087 0.930 . S
C1071 O1056 1.255 . S
C1071 O1057 1.257 . S
C1072 Eu1008 2.787 . S
C1072 O1052 1.252 . S
C1072 O1055 1.268 . S
C1072 C1065 1.506 . S
C1073 C1040 1.439 . S
C1073 H1050 0.931 . S
C1073 C1074 1.374 . S
C1074 C1045 1.387 . S
C1074 H1051 0.931 . S
C1074 C1073 1.374 . S
C1075 O1059 1.249 . S
C1075 O1060 1.264 . S
C1076 C1079 1.382 . S
C1076 C1080 1.390 . S
C1076 C1083 1.506 . S
C1077 C1078 1.398 . S
C1077 C1080 1.392 . S
C1078 C1077 1.398 . S
C1078 C1081 1.372 . S
C1078 H1088 0.931 . S
C1079 C1076 1.382 . S
C1079 C1081 1.390 . S
C1079 H1089 0.931 . S
C1080 C1076 1.390 . S
C1080 C1077 1.392 . S
C1080 H1090 0.930 . S
C1081 C1078 1.372 . S
C1081 C1079 1.390 . S
C1081 H1091 0.929 . S
C1082 O1062 1.255 . S
C1082 O1063 1.257 . S
C1083 Eu1019 2.787 . S
C1083 O1058 1.252 . S
C1083 O1061 1.268 . S
C1083 C1076 1.506 . S
H1084 C1067 0.931 . S
H1085 C1068 0.931 . S
H1086 C1069 0.929 . S
H1087 C1070 0.930 . S
H1088 C1078 0.931 . S
H1089 C1079 0.931 . S
H1090 C1080 0.930 . S
H1091 C1081 0.929 . S
Eu1092 N1121 2.600 . S
Eu1092 N1127 2.562 . S
Eu1092 O1136 2.462 . S
Eu1092 O1137 2.373 1_455 S
Eu1092 O1139 2.432 . S
Eu1092 O1140 2.291 . S
Eu1092 O1144 2.335 . S
Eu1092 O1147 2.372 . S
Eu1092 C1156 2.787 . S
C1093 N1094 1.365 . S
C1093 C1096 1.405 . S
C1093 C1100 1.448 . S
N1094 C1093 1.365 . S
N1094 C1097 1.319 . S
N1094 Eu1103 2.600 . S
C1095 C1097 1.397 . S
C1095 C1098 1.367 . S
C1095 H1115 0.931 . S
C1096 C1093 1.405 . S
C1096 C1098 1.403 . S
C1096 C1102 1.439 . S
C1097 N1094 1.319 . S
C1097 C1095 1.397 . S
C1097 H1108 0.930 . S
C1098 C1095 1.367 . S
C1098 C1096 1.403 . S
C1098 H1119 0.929 . S
C1099 C1100 1.430 . S
C1099 C1101 1.387 . S
C1099 C1105 1.404 . S
C1100 C1093 1.448 . S
C1100 C1099 1.430 . S
C1100 N1104 1.351 . S
C1101 C1099 1.387 . S
C1101 C1102 1.374 . S
C1101 H1116 0.931 . S
C1102 C1096 1.439 . S
C1102 C1101 1.374 . S
C1102 H1117 0.931 . S
Eu1103 N1094 2.600 . S
Eu1103 N1104 2.562 . S
Eu1103 O1138 2.335 . S
Eu1103 O1141 2.372 . S
Eu1103 O1142 2.462 . S
Eu1103 O1143 2.373 1_655 S
Eu1103 O1145 2.432 . S
Eu1103 O1146 2.291 . S
Eu1103 C1167 2.787 . S
N1104 C1100 1.351 . S
N1104 Eu1103 2.562 . S
N1104 C1106 1.325 . S
C1105 C1099 1.404 . S
C1105 C1107 1.366 . S
C1105 H1113 0.930 . S
C1106 N1104 1.325 . S
C1106 C1107 1.416 . S
C1106 H1112 0.929 . S
C1107 C1105 1.366 . S
C1107 C1106 1.416 . S
C1107 H1109 0.930 . S
H1108 C1097 0.930 . S
H1109 C1107 0.930 . S
H1110 C1125 0.930 . S
H1111 C1132 0.930 . S
H1112 C1106 0.929 . S
H1113 C1105 0.930 . S
H1114 C1128 0.929 . S
H1115 C1095 0.931 . S
H1116 C1101 0.931 . S
H1117 C1102 0.931 . S
H1118 C1123 0.931 . S
H1119 C1098 0.929 . S
H1120 C1131 0.930 . S
N1121 Eu1092 2.600 . S
N1121 C1122 1.365 . S
N1121 C1125 1.319 . S
C1122 N1121 1.365 . S
C1122 C1124 1.405 . S
C1122 C1130 1.448 . S
C1123 H1118 0.931 . S
C1123 C1125 1.397 . S
C1123 C1126 1.367 . S
C1124 C1122 1.405 . S
C1124 C1126 1.403 . S
C1124 C1157 1.439 . S
C1125 H1110 0.930 . S
C1125 N1121 1.319 . S
C1125 C1123 1.397 . S
C1126 C1123 1.367 . S
C1126 C1124 1.403 . S
C1126 H1133 0.929 . S
N1127 Eu1092 2.562 . S
N1127 C1128 1.325 . S
N1127 C1130 1.351 . S
C1128 H1114 0.929 . S
C1128 N1127 1.325 . S
C1128 C1132 1.416 . S
C1129 C1130 1.430 . S
C1129 C1131 1.404 . S
C1129 C1158 1.387 . S
C1130 C1122 1.448 . S
C1130 N1127 1.351 . S
C1130 C1129 1.430 . S
C1131 H1120 0.930 . S
C1131 C1129 1.404 . S
C1131 C1132 1.366 . S
C1132 H1111 0.930 . S
C1132 C1128 1.416 . S
C1132 C1131 1.366 . S
H1133 C1126 0.929 . S
H1134 C1157 0.931 . S
H1135 C1158 0.931 . S
O1136 Eu1092 2.462 . S
O1136 C1156 1.252 . S
O1137 Eu1092 2.373 1_655 S
O1137 C1148 1.249 . S
O1138 Eu1103 2.335 . S
O1138 C1148 1.264 . S
O1139 Eu1092 2.432 . S
O1139 C1156 1.268 . S
O1140 Eu1092 2.291 . S
O1140 C1155 1.255 1_455 S
O1141 Eu1103 2.372 . S
O1141 C1155 1.257 . S
O1142 Eu1103 2.462 . S
O1142 C1167 1.252 . S
O1143 Eu1103 2.373 1_455 S
O1143 C1159 1.249 . S
O1144 Eu1092 2.335 . S
O1144 C1159 1.264 . S
O1145 Eu1103 2.432 . S
O1145 C1167 1.268 . S
O1146 Eu1103 2.291 . S
O1146 C1166 1.255 1_655 S
O1147 Eu1092 2.372 . S
O1147 C1166 1.257 . S
C1148 O1137 1.249 . S
C1148 O1138 1.264 . S
C1149 C1152 1.382 . S
C1149 C1154 1.390 . S
C1149 C1156 1.506 . S
C1150 C1151 1.398 . S
C1150 C1154 1.392 . S
C1151 C1150 1.398 . S
C1151 C1153 1.372 . S
C1151 H1168 0.931 . S
C1152 C1149 1.382 . S
C1152 C1153 1.390 . S
C1152 H1169 0.931 . S
C1153 C1151 1.372 . S
C1153 C1152 1.390 . S
C1153 H1170 0.929 . S
C1154 C1149 1.390 . S
C1154 C1150 1.392 . S
C1154 H1171 0.930 . S
C1155 O1140 1.255 1_655 S
C1155 O1141 1.257 . S
C1156 Eu1092 2.787 . S
C1156 O1136 1.252 . S
C1156 O1139 1.268 . S
C1156 C1149 1.506 . S
C1157 C1124 1.439 . S
C1157 H1134 0.931 . S
C1157 C1158 1.374 . S
C1158 C1129 1.387 . S
C1158 H1135 0.931 . S
C1158 C1157 1.374 . S
C1159 O1143 1.249 . S
C1159 O1144 1.264 . S
C1160 C1163 1.382 . S
C1160 C1164 1.390 . S
C1160 C1167 1.506 . S
C1161 C1162 1.398 . S
C1161 C1164 1.392 . S
C1162 C1161 1.398 . S
C1162 C1165 1.372 . S
C1162 H1172 0.931 . S
C1163 C1160 1.382 . S
C1163 C1165 1.390 . S
C1163 H1173 0.931 . S
C1164 C1160 1.390 . S
C1164 C1161 1.392 . S
C1164 H1174 0.930 . S
C1165 C1162 1.372 . S
C1165 C1163 1.390 . S
C1165 H1175 0.929 . S
C1166 O1146 1.255 1_455 S
C1166 O1147 1.257 . S
C1167 Eu1103 2.787 . S
C1167 O1142 1.252 . S
C1167 O1145 1.268 . S
C1167 C1160 1.506 . S
H1168 C1151 0.931 . S
H1169 C1152 0.931 . S
H1170 C1153 0.929 . S
H1171 C1154 0.930 . S
H1172 C1162 0.931 . S
H1173 C1163 0.931 . S
H1174 C1164 0.930 . S
H1175 C1165 0.929 . S
Eu1176 N1205 2.600 . S
Eu1176 N1211 2.562 . S
Eu1176 O1220 2.462 . S
Eu1176 O1221 2.373 . S
Eu1176 O1223 2.432 . S
Eu1176 O1224 2.291 . S
Eu1176 O1228 2.335 . S
Eu1176 O1231 2.372 . S
Eu1176 C1240 2.787 . S
C1177 N1178 1.365 . S
C1177 C1180 1.405 . S
C1177 C1184 1.448 . S
N1178 C1177 1.365 . S
N1178 C1181 1.319 . S
N1178 Eu1187 2.600 . S
C1179 C1181 1.397 . S
C1179 C1182 1.367 . S
C1179 H1199 0.931 . S
C1180 C1177 1.405 . S
C1180 C1182 1.403 . S
C1180 C1186 1.439 . S
C1181 N1178 1.319 . S
C1181 C1179 1.397 . S
C1181 H1192 0.930 . S
C1182 C1179 1.367 . S
C1182 C1180 1.403 . S
C1182 H1203 0.929 . S
C1183 C1184 1.430 . S
C1183 C1185 1.387 . S
C1183 C1189 1.404 . S
C1184 C1177 1.448 . S
C1184 C1183 1.430 . S
C1184 N1188 1.351 . S
C1185 C1183 1.387 . S
C1185 C1186 1.374 . S
C1185 H1200 0.931 . S
C1186 C1180 1.439 . S
C1186 C1185 1.374 . S
C1186 H1201 0.931 . S
Eu1187 N1178 2.600 . S
Eu1187 N1188 2.562 . S
Eu1187 O1222 2.335 . S
Eu1187 O1225 2.372 . S
Eu1187 O1226 2.462 . S
Eu1187 O1227 2.373 . S
Eu1187 O1229 2.432 . S
Eu1187 O1230 2.291 . S
Eu1187 C1251 2.787 . S
N1188 C1184 1.351 . S
N1188 Eu1187 2.562 . S
N1188 C1190 1.325 . S
C1189 C1183 1.404 . S
C1189 C1191 1.366 . S
C1189 H1197 0.930 . S
C1190 N1188 1.325 . S
C1190 C1191 1.416 . S
C1190 H1196 0.929 . S
C1191 C1189 1.366 . S
C1191 C1190 1.416 . S
C1191 H1193 0.930 . S
H1192 C1181 0.930 . S
H1193 C1191 0.930 . S
H1194 C1209 0.930 . S
H1195 C1216 0.930 . S
H1196 C1190 0.929 . S
H1197 C1189 0.930 . S
H1198 C1212 0.929 . S
H1199 C1179 0.931 . S
H1200 C1185 0.931 . S
H1201 C1186 0.931 . S
H1202 C1207 0.931 . S
H1203 C1182 0.929 . S
H1204 C1215 0.930 . S
N1205 Eu1176 2.600 . S
N1205 C1206 1.365 . S
N1205 C1209 1.319 . S
C1206 N1205 1.365 . S
C1206 C1208 1.405 . S
C1206 C1214 1.448 . S
C1207 H1202 0.931 . S
C1207 C1209 1.397 . S
C1207 C1210 1.367 . S
C1208 C1206 1.405 . S
C1208 C1210 1.403 . S
C1208 C1241 1.439 . S
C1209 H1194 0.930 . S
C1209 N1205 1.319 . S
C1209 C1207 1.397 . S
C1210 C1207 1.367 . S
C1210 C1208 1.403 . S
C1210 H1217 0.929 . S
N1211 Eu1176 2.562 . S
N1211 C1212 1.325 . S
N1211 C1214 1.351 . S
C1212 H1198 0.929 . S
C1212 N1211 1.325 . S
C1212 C1216 1.416 . S
C1213 C1214 1.430 . S
C1213 C1215 1.404 . S
C1213 C1242 1.387 . S
C1214 C1206 1.448 . S
C1214 N1211 1.351 . S
C1214 C1213 1.430 . S
C1215 H1204 0.930 . S
C1215 C1213 1.404 . S
C1215 C1216 1.366 . S
C1216 H1195 0.930 . S
C1216 C1212 1.416 . S
C1216 C1215 1.366 . S
H1217 C1210 0.929 . S
H1218 C1241 0.931 . S
H1219 C1242 0.931 . S
O1220 Eu1176 2.462 . S
O1220 C1240 1.252 . S
O1221 Eu1176 2.373 . S
O1221 C1232 1.249 . S
O1222 Eu1187 2.335 . S
O1222 C1232 1.264 . S
O1223 Eu1176 2.432 . S
O1223 C1240 1.268 . S
O1224 Eu1176 2.291 . S
O1224 C1239 1.255 . S
O1225 Eu1187 2.372 . S
O1225 C1239 1.257 . S
O1226 Eu1187 2.462 . S
O1226 C1251 1.252 . S
O1227 Eu1187 2.373 . S
O1227 C1243 1.249 . S
O1228 Eu1176 2.335 . S
O1228 C1243 1.264 . S
O1229 Eu1187 2.432 . S
O1229 C1251 1.268 . S
O1230 Eu1187 2.291 . S
O1230 C1250 1.255 . S
O1231 Eu1176 2.372 . S
O1231 C1250 1.257 . S
C1232 O1221 1.249 . S
C1232 O1222 1.264 . S
C1233 C1236 1.382 . S
C1233 C1238 1.390 . S
C1233 C1240 1.506 . S
C1234 C1235 1.398 . S
C1234 C1238 1.392 . S
C1235 C1234 1.398 . S
C1235 C1237 1.372 . S
C1235 H1252 0.931 . S
C1236 C1233 1.382 . S
C1236 C1237 1.390 . S
C1236 H1253 0.931 . S
C1237 C1235 1.372 . S
C1237 C1236 1.390 . S
C1237 H1254 0.929 . S
C1238 C1233 1.390 . S
C1238 C1234 1.392 . S
C1238 H1255 0.930 . S
C1239 O1224 1.255 . S
C1239 O1225 1.257 . S
C1240 Eu1176 2.787 . S
C1240 O1220 1.252 . S
C1240 O1223 1.268 . S
C1240 C1233 1.506 . S
C1241 C1208 1.439 . S
C1241 H1218 0.931 . S
C1241 C1242 1.374 . S
C1242 C1213 1.387 . S
C1242 H1219 0.931 . S
C1242 C1241 1.374 . S
C1243 O1227 1.249 . S
C1243 O1228 1.264 . S
C1244 C1247 1.382 . S
C1244 C1248 1.390 . S
C1244 C1251 1.506 . S
C1245 C1246 1.398 . S
C1245 C1248 1.392 . S
C1246 C1245 1.398 . S
C1246 C1249 1.372 . S
C1246 H1256 0.931 . S
C1247 C1244 1.382 . S
C1247 C1249 1.390 . S
C1247 H1257 0.931 . S
C1248 C1244 1.390 . S
C1248 C1245 1.392 . S
C1248 H1258 0.930 . S
C1249 C1246 1.372 . S
C1249 C1247 1.390 . S
C1249 H1259 0.929 . S
C1250 O1230 1.255 . S
C1250 O1231 1.257 . S
C1251 Eu1187 2.787 . S
C1251 O1226 1.252 . S
C1251 O1229 1.268 . S
C1251 C1244 1.506 . S
H1252 C1235 0.931 . S
H1253 C1236 0.931 . S
H1254 C1237 0.929 . S
H1255 C1238 0.930 . S
H1256 C1246 0.931 . S
H1257 C1247 0.931 . S
H1258 C1248 0.930 . S
H1259 C1249 0.929 . S
Eu1260 N1289 2.600 . S
Eu1260 N1295 2.562 . S
Eu1260 O1304 2.462 . S
Eu1260 O1305 2.373 . S
Eu1260 O1307 2.432 . S
Eu1260 O1308 2.291 . S
Eu1260 O1312 2.335 . S
Eu1260 O1315 2.372 . S
Eu1260 C1324 2.787 . S
C1261 N1262 1.365 . S
C1261 C1264 1.405 . S
C1261 C1268 1.448 . S
N1262 C1261 1.365 . S
N1262 C1265 1.319 . S
N1262 Eu1271 2.600 . S
C1263 C1265 1.397 . S
C1263 C1266 1.367 . S
C1263 H1283 0.931 . S
C1264 C1261 1.405 . S
C1264 C1266 1.403 . S
C1264 C1270 1.439 . S
C1265 N1262 1.319 . S
C1265 C1263 1.397 . S
C1265 H1276 0.930 . S
C1266 C1263 1.367 . S
C1266 C1264 1.403 . S
C1266 H1287 0.929 . S
C1267 C1268 1.430 . S
C1267 C1269 1.387 . S
C1267 C1273 1.404 . S
C1268 C1261 1.448 . S
C1268 C1267 1.430 . S
C1268 N1272 1.351 . S
C1269 C1267 1.387 . S
C1269 C1270 1.374 . S
C1269 H1284 0.931 . S
C1270 C1264 1.439 . S
C1270 C1269 1.374 . S
C1270 H1285 0.931 . S
Eu1271 N1262 2.600 . S
Eu1271 N1272 2.562 . S
Eu1271 O1306 2.335 . S
Eu1271 O1309 2.372 . S
Eu1271 O1310 2.462 . S
Eu1271 O1311 2.373 . S
Eu1271 O1313 2.432 . S
Eu1271 O1314 2.291 . S
Eu1271 C1335 2.787 . S
N1272 C1268 1.351 . S
N1272 Eu1271 2.562 . S
N1272 C1274 1.325 . S
C1273 C1267 1.404 . S
C1273 C1275 1.366 . S
C1273 H1281 0.930 . S
C1274 N1272 1.325 . S
C1274 C1275 1.416 . S
C1274 H1280 0.929 . S
C1275 C1273 1.366 . S
C1275 C1274 1.416 . S
C1275 H1277 0.930 . S
H1276 C1265 0.930 . S
H1277 C1275 0.930 . S
H1278 C1293 0.930 . S
H1279 C1300 0.930 . S
H1280 C1274 0.929 . S
H1281 C1273 0.930 . S
H1282 C1296 0.929 . S
H1283 C1263 0.931 . S
H1284 C1269 0.931 . S
H1285 C1270 0.931 . S
H1286 C1291 0.931 . S
H1287 C1266 0.929 . S
H1288 C1299 0.930 . S
N1289 Eu1260 2.600 . S
N1289 C1290 1.365 . S
N1289 C1293 1.319 . S
C1290 N1289 1.365 . S
C1290 C1292 1.405 . S
C1290 C1298 1.448 . S
C1291 H1286 0.931 . S
C1291 C1293 1.397 . S
C1291 C1294 1.367 . S
C1292 C1290 1.405 . S
C1292 C1294 1.403 . S
C1292 C1325 1.439 . S
C1293 H1278 0.930 . S
C1293 N1289 1.319 . S
C1293 C1291 1.397 . S
C1294 C1291 1.367 . S
C1294 C1292 1.403 . S
C1294 H1301 0.929 . S
N1295 Eu1260 2.562 . S
N1295 C1296 1.325 . S
N1295 C1298 1.351 . S
C1296 H1282 0.929 . S
C1296 N1295 1.325 . S
C1296 C1300 1.416 . S
C1297 C1298 1.430 . S
C1297 C1299 1.404 . S
C1297 C1326 1.387 . S
C1298 C1290 1.448 . S
C1298 N1295 1.351 . S
C1298 C1297 1.430 . S
C1299 H1288 0.930 . S
C1299 C1297 1.404 . S
C1299 C1300 1.366 . S
C1300 H1279 0.930 . S
C1300 C1296 1.416 . S
C1300 C1299 1.366 . S
H1301 C1294 0.929 . S
H1302 C1325 0.931 . S
H1303 C1326 0.931 . S
O1304 Eu1260 2.462 . S
O1304 C1324 1.252 . S
O1305 Eu1260 2.373 . S
O1305 C1316 1.249 . S
O1306 Eu1271 2.335 . S
O1306 C1316 1.264 . S
O1307 Eu1260 2.432 . S
O1307 C1324 1.268 . S
O1308 Eu1260 2.291 . S
O1308 C1323 1.255 . S
O1309 Eu1271 2.372 . S
O1309 C1323 1.257 . S
O1310 Eu1271 2.462 . S
O1310 C1335 1.252 . S
O1311 Eu1271 2.373 . S
O1311 C1327 1.249 . S
O1312 Eu1260 2.335 . S
O1312 C1327 1.264 . S
O1313 Eu1271 2.432 . S
O1313 C1335 1.268 . S
O1314 Eu1271 2.291 . S
O1314 C1334 1.255 . S
O1315 Eu1260 2.372 . S
O1315 C1334 1.257 . S
C1316 O1305 1.249 . S
C1316 O1306 1.264 . S
C1317 C1320 1.382 . S
C1317 C1322 1.390 . S
C1317 C1324 1.506 . S
C1318 C1319 1.398 . S
C1318 C1322 1.392 . S
C1319 C1318 1.398 . S
C1319 C1321 1.372 . S
C1319 H1336 0.931 . S
C1320 C1317 1.382 . S
C1320 C1321 1.390 . S
C1320 H1337 0.931 . S
C1321 C1319 1.372 . S
C1321 C1320 1.390 . S
C1321 H1338 0.929 . S
C1322 C1317 1.390 . S
C1322 C1318 1.392 . S
C1322 H1339 0.930 . S
C1323 O1308 1.255 . S
C1323 O1309 1.257 . S
C1324 Eu1260 2.787 . S
C1324 O1304 1.252 . S
C1324 O1307 1.268 . S
C1324 C1317 1.506 . S
C1325 C1292 1.439 . S
C1325 H1302 0.931 . S
C1325 C1326 1.374 . S
C1326 C1297 1.387 . S
C1326 H1303 0.931 . S
C1326 C1325 1.374 . S
C1327 O1311 1.249 . S
C1327 O1312 1.264 . S
C1328 C1331 1.382 . S
C1328 C1332 1.390 . S
C1328 C1335 1.506 . S
C1329 C1330 1.398 . S
C1329 C1332 1.392 . S
C1330 C1329 1.398 . S
C1330 C1333 1.372 . S
C1330 H1340 0.931 . S
C1331 C1328 1.382 . S
C1331 C1333 1.390 . S
C1331 H1341 0.931 . S
C1332 C1328 1.390 . S
C1332 C1329 1.392 . S
C1332 H1342 0.930 . S
C1333 C1330 1.372 . S
C1333 C1331 1.390 . S
C1333 H1343 0.929 . S
C1334 O1314 1.255 . S
C1334 O1315 1.257 . S
C1335 Eu1271 2.787 . S
C1335 O1310 1.252 . S
C1335 O1313 1.268 . S
C1335 C1328 1.506 . S
H1336 C1319 0.931 . S
H1337 C1320 0.931 . S
H1338 C1321 0.929 . S
H1339 C1322 0.930 . S
H1340 C1330 0.931 . S
H1341 C1331 0.931 . S
H1342 C1332 0.930 . S
H1343 C1333 0.929 . S
Eu1344 N1373 2.600 . S
Eu1344 N1379 2.562 . S
Eu1344 O1388 2.462 . S
Eu1344 O1389 2.373 . S
Eu1344 O1391 2.432 . S
Eu1344 O1392 2.291 . S
Eu1344 O1396 2.335 . S
Eu1344 O1399 2.372 . S
Eu1344 C1408 2.787 . S
C1345 N1346 1.365 . S
C1345 C1348 1.405 . S
C1345 C1352 1.448 . S
N1346 C1345 1.365 . S
N1346 C1349 1.319 . S
N1346 Eu1355 2.600 . S
C1347 C1349 1.397 . S
C1347 C1350 1.367 . S
C1347 H1367 0.931 . S
C1348 C1345 1.405 . S
C1348 C1350 1.403 . S
C1348 C1354 1.439 . S
C1349 N1346 1.319 . S
C1349 C1347 1.397 . S
C1349 H1360 0.930 . S
C1350 C1347 1.367 . S
C1350 C1348 1.403 . S
C1350 H1371 0.929 . S
C1351 C1352 1.430 . S
C1351 C1353 1.387 . S
C1351 C1357 1.404 . S
C1352 C1345 1.448 . S
C1352 C1351 1.430 . S
C1352 N1356 1.351 . S
C1353 C1351 1.387 . S
C1353 C1354 1.374 . S
C1353 H1368 0.931 . S
C1354 C1348 1.439 . S
C1354 C1353 1.374 . S
C1354 H1369 0.931 . S
Eu1355 N1346 2.600 . S
Eu1355 N1356 2.562 . S
Eu1355 O1390 2.335 . S
Eu1355 O1393 2.372 . S
Eu1355 O1394 2.462 . S
Eu1355 O1395 2.373 . S
Eu1355 O1397 2.432 . S
Eu1355 O1398 2.291 . S
Eu1355 C1419 2.787 . S
N1356 C1352 1.351 . S
N1356 Eu1355 2.562 . S
N1356 C1358 1.325 . S
C1357 C1351 1.404 . S
C1357 C1359 1.366 . S
C1357 H1365 0.930 . S
C1358 N1356 1.325 . S
C1358 C1359 1.416 . S
C1358 H1364 0.929 . S
C1359 C1357 1.366 . S
C1359 C1358 1.416 . S
C1359 H1361 0.930 . S
H1360 C1349 0.930 . S
H1361 C1359 0.930 . S
H1362 C1377 0.930 . S
H1363 C1384 0.930 . S
H1364 C1358 0.929 . S
H1365 C1357 0.930 . S
H1366 C1380 0.929 . S
H1367 C1347 0.931 . S
H1368 C1353 0.931 . S
H1369 C1354 0.931 . S
H1370 C1375 0.931 . S
H1371 C1350 0.929 . S
H1372 C1383 0.930 . S
N1373 Eu1344 2.600 . S
N1373 C1374 1.365 . S
N1373 C1377 1.319 . S
C1374 N1373 1.365 . S
C1374 C1376 1.405 . S
C1374 C1382 1.448 . S
C1375 H1370 0.931 . S
C1375 C1377 1.397 . S
C1375 C1378 1.367 . S
C1376 C1374 1.405 . S
C1376 C1378 1.403 . S
C1376 C1409 1.439 . S
C1377 H1362 0.930 . S
C1377 N1373 1.319 . S
C1377 C1375 1.397 . S
C1378 C1375 1.367 . S
C1378 C1376 1.403 . S
C1378 H1385 0.929 . S
N1379 Eu1344 2.562 . S
N1379 C1380 1.325 . S
N1379 C1382 1.351 . S
C1380 H1366 0.929 . S
C1380 N1379 1.325 . S
C1380 C1384 1.416 . S
C1381 C1382 1.430 . S
C1381 C1383 1.404 . S
C1381 C1410 1.387 . S
C1382 C1374 1.448 . S
C1382 N1379 1.351 . S
C1382 C1381 1.430 . S
C1383 H1372 0.930 . S
C1383 C1381 1.404 . S
C1383 C1384 1.366 . S
C1384 H1363 0.930 . S
C1384 C1380 1.416 . S
C1384 C1383 1.366 . S
H1385 C1378 0.929 . S
H1386 C1409 0.931 . S
H1387 C1410 0.931 . S
O1388 Eu1344 2.462 . S
O1388 C1408 1.252 . S
O1389 Eu1344 2.373 . S
O1389 C1400 1.249 . S
O1390 Eu1355 2.335 . S
O1390 C1400 1.264 . S
O1391 Eu1344 2.432 . S
O1391 C1408 1.268 . S
O1392 Eu1344 2.291 . S
O1392 C1407 1.255 . S
O1393 Eu1355 2.372 . S
O1393 C1407 1.257 . S
O1394 Eu1355 2.462 . S
O1394 C1419 1.252 . S
O1395 Eu1355 2.373 . S
O1395 C1411 1.249 . S
O1396 Eu1344 2.335 . S
O1396 C1411 1.264 . S
O1397 Eu1355 2.432 . S
O1397 C1419 1.268 . S
O1398 Eu1355 2.291 . S
O1398 C1418 1.255 . S
O1399 Eu1344 2.372 . S
O1399 C1418 1.257 . S
C1400 O1389 1.249 . S
C1400 O1390 1.264 . S
C1401 C1404 1.382 . S
C1401 C1406 1.390 . S
C1401 C1408 1.506 . S
C1402 C1403 1.398 . S
C1402 C1406 1.392 . S
C1403 C1402 1.398 . S
C1403 C1405 1.372 . S
C1403 H1420 0.931 . S
C1404 C1401 1.382 . S
C1404 C1405 1.390 . S
C1404 H1421 0.931 . S
C1405 C1403 1.372 . S
C1405 C1404 1.390 . S
C1405 H1422 0.929 . S
C1406 C1401 1.390 . S
C1406 C1402 1.392 . S
C1406 H1423 0.930 . S
C1407 O1392 1.255 . S
C1407 O1393 1.257 . S
C1408 Eu1344 2.787 . S
C1408 O1388 1.252 . S
C1408 O1391 1.268 . S
C1408 C1401 1.506 . S
C1409 C1376 1.439 . S
C1409 H1386 0.931 . S
C1409 C1410 1.374 . S
C1410 C1381 1.387 . S
C1410 H1387 0.931 . S
C1410 C1409 1.374 . S
C1411 O1395 1.249 . S
C1411 O1396 1.264 . S
C1412 C1415 1.382 . S
C1412 C1416 1.390 . S
C1412 C1419 1.506 . S
C1413 C1414 1.398 . S
C1413 C1416 1.392 . S
C1414 C1413 1.398 . S
C1414 C1417 1.372 . S
C1414 H1424 0.931 . S
C1415 C1412 1.382 . S
C1415 C1417 1.390 . S
C1415 H1425 0.931 . S
C1416 C1412 1.390 . S
C1416 C1413 1.392 . S
C1416 H1426 0.930 . S
C1417 C1414 1.372 . S
C1417 C1415 1.390 . S
C1417 H1427 0.929 . S
C1418 O1398 1.255 . S
C1418 O1399 1.257 . S
C1419 Eu1355 2.787 . S
C1419 O1394 1.252 . S
C1419 O1397 1.268 . S
C1419 C1412 1.506 . S
H1420 C1403 0.931 . S
H1421 C1404 0.931 . S
H1422 C1405 0.929 . S
H1423 C1406 0.930 . S
H1424 C1414 0.931 . S
H1425 C1415 0.931 . S
H1426 C1416 0.930 . S
H1427 C1417 0.929 . S
Eu1428 N1457 2.600 . S
Eu1428 N1463 2.562 . S
Eu1428 O1472 2.462 . S
Eu1428 O1473 2.373 . S
Eu1428 O1475 2.432 . S
Eu1428 O1476 2.291 . S
Eu1428 O1480 2.335 . S
Eu1428 O1483 2.372 . S
Eu1428 C1492 2.787 . S
C1429 N1430 1.365 . S
C1429 C1432 1.405 . S
C1429 C1436 1.448 . S
N1430 C1429 1.365 . S
N1430 C1433 1.319 . S
N1430 Eu1439 2.600 . S
C1431 C1433 1.397 . S
C1431 C1434 1.367 . S
C1431 H1451 0.931 . S
C1432 C1429 1.405 . S
C1432 C1434 1.403 . S
C1432 C1438 1.439 . S
C1433 N1430 1.319 . S
C1433 C1431 1.397 . S
C1433 H1444 0.930 . S
C1434 C1431 1.367 . S
C1434 C1432 1.403 . S
C1434 H1455 0.929 . S
C1435 C1436 1.430 . S
C1435 C1437 1.387 . S
C1435 C1441 1.404 . S
C1436 C1429 1.448 . S
C1436 C1435 1.430 . S
C1436 N1440 1.351 . S
C1437 C1435 1.387 . S
C1437 C1438 1.374 . S
C1437 H1452 0.931 . S
C1438 C1432 1.439 . S
C1438 C1437 1.374 . S
C1438 H1453 0.931 . S
Eu1439 N1430 2.600 . S
Eu1439 N1440 2.562 . S
Eu1439 O1474 2.335 . S
Eu1439 O1477 2.372 . S
Eu1439 O1478 2.462 . S
Eu1439 O1479 2.373 . S
Eu1439 O1481 2.432 . S
Eu1439 O1482 2.291 . S
Eu1439 C1503 2.787 . S
N1440 C1436 1.351 . S
N1440 Eu1439 2.562 . S
N1440 C1442 1.325 . S
C1441 C1435 1.404 . S
C1441 C1443 1.366 . S
C1441 H1449 0.930 . S
C1442 N1440 1.325 . S
C1442 C1443 1.416 . S
C1442 H1448 0.929 . S
C1443 C1441 1.366 . S
C1443 C1442 1.416 . S
C1443 H1445 0.930 . S
H1444 C1433 0.930 . S
H1445 C1443 0.930 . S
H1446 C1461 0.930 . S
H1447 C1468 0.930 . S
H1448 C1442 0.929 . S
H1449 C1441 0.930 . S
H1450 C1464 0.929 . S
H1451 C1431 0.931 . S
H1452 C1437 0.931 . S
H1453 C1438 0.931 . S
H1454 C1459 0.931 . S
H1455 C1434 0.929 . S
H1456 C1467 0.930 . S
N1457 Eu1428 2.600 . S
N1457 C1458 1.365 . S
N1457 C1461 1.319 . S
C1458 N1457 1.365 . S
C1458 C1460 1.405 . S
C1458 C1466 1.448 . S
C1459 H1454 0.931 . S
C1459 C1461 1.397 . S
C1459 C1462 1.367 . S
C1460 C1458 1.405 . S
C1460 C1462 1.403 . S
C1460 C1493 1.439 . S
C1461 H1446 0.930 . S
C1461 N1457 1.319 . S
C1461 C1459 1.397 . S
C1462 C1459 1.367 . S
C1462 C1460 1.403 . S
C1462 H1469 0.929 . S
N1463 Eu1428 2.562 . S
N1463 C1464 1.325 . S
N1463 C1466 1.351 . S
C1464 H1450 0.929 . S
C1464 N1463 1.325 . S
C1464 C1468 1.416 . S
C1465 C1466 1.430 . S
C1465 C1467 1.404 . S
C1465 C1494 1.387 . S
C1466 C1458 1.448 . S
C1466 N1463 1.351 . S
C1466 C1465 1.430 . S
C1467 H1456 0.930 . S
C1467 C1465 1.404 . S
C1467 C1468 1.366 . S
C1468 H1447 0.930 . S
C1468 C1464 1.416 . S
C1468 C1467 1.366 . S
H1469 C1462 0.929 . S
H1470 C1493 0.931 . S
H1471 C1494 0.931 . S
O1472 Eu1428 2.462 . S
O1472 C1492 1.252 . S
O1473 Eu1428 2.373 . S
O1473 C1484 1.249 . S
O1474 Eu1439 2.335 . S
O1474 C1484 1.264 . S
O1475 Eu1428 2.432 . S
O1475 C1492 1.268 . S
O1476 Eu1428 2.291 . S
O1476 C1491 1.255 . S
O1477 Eu1439 2.372 . S
O1477 C1491 1.257 . S
O1478 Eu1439 2.462 . S
O1478 C1503 1.252 . S
O1479 Eu1439 2.373 . S
O1479 C1495 1.249 . S
O1480 Eu1428 2.335 . S
O1480 C1495 1.264 . S
O1481 Eu1439 2.432 . S
O1481 C1503 1.268 . S
O1482 Eu1439 2.291 . S
O1482 C1502 1.255 . S
O1483 Eu1428 2.372 . S
O1483 C1502 1.257 . S
C1484 O1473 1.249 . S
C1484 O1474 1.264 . S
C1485 C1488 1.382 . S
C1485 C1490 1.390 . S
C1485 C1492 1.506 . S
C1486 C1487 1.398 . S
C1486 C1490 1.392 . S
C1487 C1486 1.398 . S
C1487 C1489 1.372 . S
C1487 H1504 0.931 . S
C1488 C1485 1.382 . S
C1488 C1489 1.390 . S
C1488 H1505 0.931 . S
C1489 C1487 1.372 . S
C1489 C1488 1.390 . S
C1489 H1506 0.929 . S
C1490 C1485 1.390 . S
C1490 C1486 1.392 . S
C1490 H1507 0.930 . S
C1491 O1476 1.255 . S
C1491 O1477 1.257 . S
C1492 Eu1428 2.787 . S
C1492 O1472 1.252 . S
C1492 O1475 1.268 . S
C1492 C1485 1.506 . S
C1493 C1460 1.439 . S
C1493 H1470 0.931 . S
C1493 C1494 1.374 . S
C1494 C1465 1.387 . S
C1494 H1471 0.931 . S
C1494 C1493 1.374 . S
C1495 O1479 1.249 . S
C1495 O1480 1.264 . S
C1496 C1499 1.382 . S
C1496 C1500 1.390 . S
C1496 C1503 1.506 . S
C1497 C1498 1.398 . S
C1497 C1500 1.392 . S
C1498 C1497 1.398 . S
C1498 C1501 1.372 . S
C1498 H1508 0.931 . S
C1499 C1496 1.382 . S
C1499 C1501 1.390 . S
C1499 H1509 0.931 . S
C1500 C1496 1.390 . S
C1500 C1497 1.392 . S
C1500 H1510 0.930 . S
C1501 C1498 1.372 . S
C1501 C1499 1.390 . S
C1501 H1511 0.929 . S
C1502 O1482 1.255 . S
C1502 O1483 1.257 . S
C1503 Eu1439 2.787 . S
C1503 O1478 1.252 . S
C1503 O1481 1.268 . S
C1503 C1496 1.506 . S
H1504 C1487 0.931 . S
H1505 C1488 0.931 . S
H1506 C1489 0.929 . S
H1507 C1490 0.930 . S
H1508 C1498 0.931 . S
H1509 C1499 0.931 . S
H1510 C1500 0.930 . S
H1511 C1501 0.929 . S
Eu1512 N1541 2.600 . S
Eu1512 N1547 2.562 . S
Eu1512 O1556 2.462 1_655 S
Eu1512 O1557 2.373 . S
Eu1512 O1559 2.432 . S
Eu1512 O1560 2.291 . S
Eu1512 O1564 2.335 1_655 S
Eu1512 O1567 2.348 1_554 S
Eu1512 C1576 2.787 . S
C1513 N1514 1.365 . S
C1513 C1516 1.405 . S
C1513 C1520 1.448 . S
N1514 C1513 1.365 . S
N1514 C1517 1.319 . S
N1514 Eu1523 2.600 . S
C1515 C1517 1.397 . S
C1515 C1518 1.367 . S
C1515 H1535 0.931 . S
C1516 C1513 1.405 . S
C1516 C1518 1.403 . S
C1516 C1522 1.439 . S
C1517 N1514 1.319 . S
C1517 C1515 1.397 . S
C1517 H1528 0.930 . S
C1518 C1515 1.367 . S
C1518 C1516 1.403 . S
C1518 H1539 0.929 . S
C1519 C1520 1.430 . S
C1519 C1521 1.387 . S
C1519 C1525 1.404 . S
C1520 C1513 1.448 . S
C1520 C1519 1.430 . S
C1520 N1524 1.351 . S
C1521 C1519 1.387 . S
C1521 C1522 1.374 . S
C1521 H1536 0.931 . S
C1522 C1516 1.439 . S
C1522 C1521 1.374 . S
C1522 H1537 0.931 . S
Eu1523 N1514 2.600 . S
Eu1523 N1524 2.562 . S
Eu1523 O1558 2.335 1_455 S
Eu1523 O1561 2.338 1_556 S
Eu1523 O1562 2.462 1_455 S
Eu1523 O1563 2.373 . S
Eu1523 O1565 2.432 1_455 S
Eu1523 O1566 2.291 1_455 S
Eu1523 C1587 2.787 1_455 S
N1524 C1520 1.351 . S
N1524 Eu1523 2.562 . S
N1524 C1526 1.325 . S
C1525 C1519 1.404 . S
C1525 C1527 1.366 . S
C1525 H1533 0.930 . S
C1526 N1524 1.325 . S
C1526 C1527 1.416 . S
C1526 H1532 0.929 . S
C1527 C1525 1.366 . S
C1527 C1526 1.416 . S
C1527 H1529 0.930 . S
H1528 C1517 0.930 . S
H1529 C1527 0.930 . S
H1530 C1545 0.930 . S
H1531 C1552 0.930 . S
H1532 C1526 0.929 . S
H1533 C1525 0.930 . S
H1534 C1548 0.929 . S
H1535 C1515 0.931 . S
H1536 C1521 0.931 . S
H1537 C1522 0.931 . S
H1538 C1543 0.931 . S
H1539 C1518 0.929 . S
H1540 C1551 0.930 . S
N1541 Eu1512 2.600 . S
N1541 C1542 1.365 . S
N1541 C1545 1.319 . S
C1542 N1541 1.365 . S
C1542 C1544 1.405 . S
C1542 C1550 1.448 . S
C1543 H1538 0.931 . S
C1543 C1545 1.397 . S
C1543 C1546 1.367 . S
C1544 C1542 1.405 . S
C1544 C1546 1.403 . S
C1544 C1577 1.439 . S
C1545 H1530 0.930 . S
C1545 N1541 1.319 . S
C1545 C1543 1.397 . S
C1546 C1543 1.367 . S
C1546 C1544 1.403 . S
C1546 H1553 0.929 . S
N1547 Eu1512 2.562 . S
N1547 C1548 1.325 . S
N1547 C1550 1.351 . S
C1548 H1534 0.929 . S
C1548 N1547 1.325 . S
C1548 C1552 1.416 . S
C1549 C1550 1.430 . S
C1549 C1551 1.404 . S
C1549 C1578 1.387 . S
C1550 C1542 1.448 . S
C1550 N1547 1.351 . S
C1550 C1549 1.430 . S
C1551 H1540 0.930 . S
C1551 C1549 1.404 . S
C1551 C1552 1.366 . S
C1552 H1531 0.930 . S
C1552 C1548 1.416 . S
C1552 C1551 1.366 . S
H1553 C1546 0.929 . S
H1554 C1577 0.931 . S
H1555 C1578 0.931 . S
O1556 Eu1512 2.462 1_455 S
O1556 C1576 1.252 1_455 S
O1557 Eu1512 2.373 . S
O1557 C1568 1.249 1_554 S
O1558 Eu1523 2.335 1_655 S
O1558 C1568 1.264 . S
O1559 Eu1512 2.432 . S
O1559 C1576 1.268 . S
O1560 Eu1512 2.291 . S
O1560 C1575 1.255 1_655 S
O1561 Eu1523 2.338 1_554 S
O1561 C1575 1.298 . S
O1562 Eu1523 2.462 1_655 S
O1562 C1587 1.252 . S
O1563 Eu1523 2.373 . S
O1563 C1579 1.249 1_556 S
O1564 Eu1512 2.335 1_455 S
O1564 C1579 1.264 . S
O1565 Eu1523 2.432 1_655 S
O1565 C1587 1.268 . S
O1566 Eu1523 2.291 1_655 S
O1566 C1586 1.255 . S
O1567 Eu1512 2.348 1_556 S
O1567 C1586 1.286 . S
C1568 O1557 1.249 1_556 S
C1568 O1558 1.264 . S
C1569 C1572 1.390 . S
C1569 C1574 1.390 . S
C1569 C1576 1.506 1_455 S
C1570 C1571 1.398 . S
C1570 C1574 1.392 . S
C1571 C1570 1.398 . S
C1571 C1573 1.372 . S
C1571 H1588 0.931 . S
C1572 C1569 1.390 . S
C1572 C1573 1.401 . S
C1572 H1589 0.913 1_455 S
C1573 C1571 1.372 . S
C1573 C1572 1.401 . S
C1573 H1590 0.929 . S
C1574 C1569 1.390 . S
C1574 C1570 1.392 . S
C1574 H1591 0.930 . S
C1575 O1560 1.255 1_455 S
C1575 O1561 1.298 . S
C1576 Eu1512 2.787 . S
C1576 O1556 1.252 1_655 S
C1576 O1559 1.268 . S
C1576 C1569 1.506 1_655 S
C1577 C1544 1.439 . S
C1577 H1554 0.931 . S
C1577 C1578 1.374 . S
C1578 C1549 1.387 . S
C1578 H1555 0.931 . S
C1578 C1577 1.374 . S
C1579 O1563 1.249 1_554 S
C1579 O1564 1.264 . S
C1580 C1583 1.382 . S
C1580 C1584 1.390 . S
C1580 C1587 1.506 . S
C1581 C1582 1.398 . S
C1581 C1584 1.392 . S
C1582 C1581 1.398 . S
C1582 C1585 1.372 . S
C1582 H1592 0.931 . S
C1583 C1580 1.382 . S
C1583 C1585 1.390 . S
C1583 H1593 0.931 . S
C1584 C1580 1.390 . S
C1584 C1581 1.392 . S
C1584 H1594 0.930 . S
C1585 C1582 1.372 . S
C1585 C1583 1.390 . S
C1585 H1595 0.929 . S
C1586 O1566 1.255 . S
C1586 O1567 1.286 . S
C1587 Eu1523 2.787 1_655 S
C1587 O1562 1.252 . S
C1587 O1565 1.268 . S
C1587 C1580 1.506 . S
H1588 C1571 0.931 . S
H1589 C1572 0.913 1_655 S
H1590 C1573 0.929 . S
H1591 C1574 0.930 . S
H1592 C1582 0.931 . S
H1593 C1583 0.931 . S
H1594 C1584 0.930 . S
H1595 C1585 0.929 . S
Eu1596 N1625 2.600 . S
Eu1596 N1631 2.562 . S
Eu1596 O1640 2.462 . S
Eu1596 O1641 2.373 . S
Eu1596 O1643 2.432 . S
Eu1596 O1644 2.291 . S
Eu1596 O1648 2.335 . S
Eu1596 O1651 2.372 . S
Eu1596 C1660 2.787 . S
C1597 N1598 1.365 . S
C1597 C1600 1.405 . S
C1597 C1604 1.448 . S
N1598 C1597 1.365 . S
N1598 C1601 1.319 . S
N1598 Eu1607 2.600 . S
C1599 C1601 1.397 . S
C1599 C1602 1.367 . S
C1599 H1619 0.931 . S
C1600 C1597 1.405 . S
C1600 C1602 1.403 . S
C1600 C1606 1.439 . S
C1601 N1598 1.319 . S
C1601 C1599 1.397 . S
C1601 H1612 0.930 . S
C1602 C1599 1.367 . S
C1602 C1600 1.403 . S
C1602 H1623 0.929 . S
C1603 C1604 1.430 . S
C1603 C1605 1.387 . S
C1603 C1609 1.404 . S
C1604 C1597 1.448 . S
C1604 C1603 1.430 . S
C1604 N1608 1.351 . S
C1605 C1603 1.387 . S
C1605 C1606 1.374 . S
C1605 H1620 0.931 . S
C1606 C1600 1.439 . S
C1606 C1605 1.374 . S
C1606 H1621 0.931 . S
Eu1607 N1598 2.600 . S
Eu1607 N1608 2.562 . S
Eu1607 O1642 2.335 . S
Eu1607 O1645 2.372 . S
Eu1607 O1646 2.462 . S
Eu1607 O1647 2.373 . S
Eu1607 O1649 2.432 . S
Eu1607 O1650 2.291 . S
Eu1607 C1671 2.787 . S
N1608 C1604 1.351 . S
N1608 Eu1607 2.562 . S
N1608 C1610 1.325 . S
C1609 C1603 1.404 . S
C1609 C1611 1.366 . S
C1609 H1617 0.930 . S
C1610 N1608 1.325 . S
C1610 C1611 1.416 . S
C1610 H1616 0.929 . S
C1611 C1609 1.366 . S
C1611 C1610 1.416 . S
C1611 H1613 0.930 . S
H1612 C1601 0.930 . S
H1613 C1611 0.930 . S
H1614 C1629 0.930 . S
H1615 C1636 0.930 . S
H1616 C1610 0.929 . S
H1617 C1609 0.930 . S
H1618 C1632 0.929 . S
H1619 C1599 0.931 . S
H1620 C1605 0.931 . S
H1621 C1606 0.931 . S
H1622 C1627 0.931 . S
H1623 C1602 0.929 . S
H1624 C1635 0.930 . S
N1625 Eu1596 2.600 . S
N1625 C1626 1.365 . S
N1625 C1629 1.319 . S
C1626 N1625 1.365 . S
C1626 C1628 1.405 . S
C1626 C1634 1.448 . S
C1627 H1622 0.931 . S
C1627 C1629 1.397 . S
C1627 C1630 1.367 . S
C1628 C1626 1.405 . S
C1628 C1630 1.403 . S
C1628 C1661 1.439 . S
C1629 H1614 0.930 . S
C1629 N1625 1.319 . S
C1629 C1627 1.397 . S
C1630 C1627 1.367 . S
C1630 C1628 1.403 . S
C1630 H1637 0.929 . S
N1631 Eu1596 2.562 . S
N1631 C1632 1.325 . S
N1631 C1634 1.351 . S
C1632 H1618 0.929 . S
C1632 N1631 1.325 . S
C1632 C1636 1.416 . S
C1633 C1634 1.430 . S
C1633 C1635 1.404 . S
C1633 C1662 1.387 . S
C1634 C1626 1.448 . S
C1634 N1631 1.351 . S
C1634 C1633 1.430 . S
C1635 H1624 0.930 . S
C1635 C1633 1.404 . S
C1635 C1636 1.366 . S
C1636 H1615 0.930 . S
C1636 C1632 1.416 . S
C1636 C1635 1.366 . S
H1637 C1630 0.929 . S
H1638 C1661 0.931 . S
H1639 C1662 0.931 . S
O1640 Eu1596 2.462 . S
O1640 C1660 1.252 . S
O1641 Eu1596 2.373 . S
O1641 C1652 1.249 . S
O1642 Eu1607 2.335 . S
O1642 C1652 1.264 . S
O1643 Eu1596 2.432 . S
O1643 C1660 1.268 . S
O1644 Eu1596 2.291 . S
O1644 C1659 1.255 . S
O1645 Eu1607 2.372 . S
O1645 C1659 1.257 . S
O1646 Eu1607 2.462 . S
O1646 C1671 1.252 . S
O1647 Eu1607 2.373 . S
O1647 C1663 1.249 . S
O1648 Eu1596 2.335 . S
O1648 C1663 1.264 . S
O1649 Eu1607 2.432 . S
O1649 C1671 1.268 . S
O1650 Eu1607 2.291 . S
O1650 C1670 1.255 . S
O1651 Eu1596 2.372 . S
O1651 C1670 1.257 . S
C1652 O1641 1.249 . S
C1652 O1642 1.264 . S
C1653 C1656 1.382 . S
C1653 C1658 1.390 . S
C1653 C1660 1.506 . S
C1654 C1655 1.398 . S
C1654 C1658 1.392 . S
C1655 C1654 1.398 . S
C1655 C1657 1.372 . S
C1655 H1672 0.931 . S
C1656 C1653 1.382 . S
C1656 C1657 1.390 . S
C1656 H1673 0.931 . S
C1657 C1655 1.372 . S
C1657 C1656 1.390 . S
C1657 H1674 0.929 . S
C1658 C1653 1.390 . S
C1658 C1654 1.392 . S
C1658 H1675 0.930 . S
C1659 O1644 1.255 . S
C1659 O1645 1.257 . S
C1660 Eu1596 2.787 . S
C1660 O1640 1.252 . S
C1660 O1643 1.268 . S
C1660 C1653 1.506 . S
C1661 C1628 1.439 . S
C1661 H1638 0.931 . S
C1661 C1662 1.374 . S
C1662 C1633 1.387 . S
C1662 H1639 0.931 . S
C1662 C1661 1.374 . S
C1663 O1647 1.249 . S
C1663 O1648 1.264 . S
C1664 C1667 1.382 . S
C1664 C1668 1.390 . S
C1664 C1671 1.506 . S
C1665 C1666 1.398 . S
C1665 C1668 1.392 . S
C1666 C1665 1.398 . S
C1666 C1669 1.372 . S
C1666 H1676 0.931 . S
C1667 C1664 1.382 . S
C1667 C1669 1.390 . S
C1667 H1677 0.931 . S
C1668 C1664 1.390 . S
C1668 C1665 1.392 . S
C1668 H1678 0.930 . S
C1669 C1666 1.372 . S
C1669 C1667 1.390 . S
C1669 H1679 0.929 . S
C1670 O1650 1.255 . S
C1670 O1651 1.257 . S
C1671 Eu1607 2.787 . S
C1671 O1646 1.252 . S
C1671 O1649 1.268 . S
C1671 C1664 1.506 . S
H1672 C1655 0.931 . S
H1673 C1656 0.931 . S
H1674 C1657 0.929 . S
H1675 C1658 0.930 . S
H1676 C1666 0.931 . S
H1677 C1667 0.931 . S
H1678 C1668 0.930 . S
H1679 C1669 0.929 . S
Eu1680 N1709 2.600 . S
Eu1680 N1715 2.562 . S
Eu1680 O1724 2.462 . S
Eu1680 O1725 2.373 . S
Eu1680 O1727 2.432 . S
Eu1680 O1728 2.291 . S
Eu1680 O1732 2.335 . S
Eu1680 O1735 2.372 . S
Eu1680 C1744 2.787 . S
C1681 N1682 1.365 . S
C1681 C1684 1.405 . S
C1681 C1688 1.448 . S
N1682 C1681 1.365 . S
N1682 C1685 1.319 . S
N1682 Eu1691 2.600 . S
C1683 C1685 1.397 . S
C1683 C1686 1.367 . S
C1683 H1703 0.931 . S
C1684 C1681 1.405 . S
C1684 C1686 1.403 . S
C1684 C1690 1.439 . S
C1685 N1682 1.319 . S
C1685 C1683 1.397 . S
C1685 H1696 0.930 . S
C1686 C1683 1.367 . S
C1686 C1684 1.403 . S
C1686 H1707 0.929 . S
C1687 C1688 1.430 . S
C1687 C1689 1.387 . S
C1687 C1693 1.404 . S
C1688 C1681 1.448 . S
C1688 C1687 1.430 . S
C1688 N1692 1.351 . S
C1689 C1687 1.387 . S
C1689 C1690 1.374 . S
C1689 H1704 0.931 . S
C1690 C1684 1.439 . S
C1690 C1689 1.374 . S
C1690 H1705 0.931 . S
Eu1691 N1682 2.600 . S
Eu1691 N1692 2.562 . S
Eu1691 O1726 2.335 . S
Eu1691 O1729 2.372 . S
Eu1691 O1730 2.462 . S
Eu1691 O1731 2.373 . S
Eu1691 O1733 2.432 . S
Eu1691 O1734 2.291 . S
Eu1691 C1755 2.787 . S
N1692 C1688 1.351 . S
N1692 Eu1691 2.562 . S
N1692 C1694 1.325 . S
C1693 C1687 1.404 . S
C1693 C1695 1.366 . S
C1693 H1701 0.930 . S
C1694 N1692 1.325 . S
C1694 C1695 1.416 . S
C1694 H1700 0.929 . S
C1695 C1693 1.366 . S
C1695 C1694 1.416 . S
C1695 H1697 0.930 . S
H1696 C1685 0.930 . S
H1697 C1695 0.930 . S
H1698 C1713 0.930 . S
H1699 C1720 0.930 . S
H1700 C1694 0.929 . S
H1701 C1693 0.930 . S
H1702 C1716 0.929 . S
H1703 C1683 0.931 . S
H1704 C1689 0.931 . S
H1705 C1690 0.931 . S
H1706 C1711 0.931 . S
H1707 C1686 0.929 . S
H1708 C1719 0.930 . S
N1709 Eu1680 2.600 . S
N1709 C1710 1.365 . S
N1709 C1713 1.319 . S
C1710 N1709 1.365 . S
C1710 C1712 1.405 . S
C1710 C1718 1.448 . S
C1711 H1706 0.931 . S
C1711 C1713 1.397 . S
C1711 C1714 1.367 . S
C1712 C1710 1.405 . S
C1712 C1714 1.403 . S
C1712 C1745 1.439 . S
C1713 H1698 0.930 . S
C1713 N1709 1.319 . S
C1713 C1711 1.397 . S
C1714 C1711 1.367 . S
C1714 C1712 1.403 . S
C1714 H1721 0.929 . S
N1715 Eu1680 2.562 . S
N1715 C1716 1.325 . S
N1715 C1718 1.351 . S
C1716 H1702 0.929 . S
C1716 N1715 1.325 . S
C1716 C1720 1.416 . S
C1717 C1718 1.430 . S
C1717 C1719 1.404 . S
C1717 C1746 1.387 . S
C1718 C1710 1.448 . S
C1718 N1715 1.351 . S
C1718 C1717 1.430 . S
C1719 H1708 0.930 . S
C1719 C1717 1.404 . S
C1719 C1720 1.366 . S
C1720 H1699 0.930 . S
C1720 C1716 1.416 . S
C1720 C1719 1.366 . S
H1721 C1714 0.929 . S
H1722 C1745 0.931 . S
H1723 C1746 0.931 . S
O1724 Eu1680 2.462 . S
O1724 C1744 1.252 . S
O1725 Eu1680 2.373 . S
O1725 C1736 1.249 . S
O1726 Eu1691 2.335 . S
O1726 C1736 1.264 . S
O1727 Eu1680 2.432 . S
O1727 C1744 1.268 . S
O1728 Eu1680 2.291 . S
O1728 C1743 1.255 . S
O1729 Eu1691 2.372 . S
O1729 C1743 1.257 . S
O1730 Eu1691 2.462 . S
O1730 C1755 1.252 . S
O1731 Eu1691 2.373 . S
O1731 C1747 1.249 . S
O1732 Eu1680 2.335 . S
O1732 C1747 1.264 . S
O1733 Eu1691 2.432 . S
O1733 C1755 1.268 . S
O1734 Eu1691 2.291 . S
O1734 C1754 1.255 . S
O1735 Eu1680 2.372 . S
O1735 C1754 1.257 . S
C1736 O1725 1.249 . S
C1736 O1726 1.264 . S
C1737 C1740 1.382 . S
C1737 C1742 1.390 . S
C1737 C1744 1.506 . S
C1738 C1739 1.398 . S
C1738 C1742 1.392 . S
C1739 C1738 1.398 . S
C1739 C1741 1.372 . S
C1739 H1756 0.931 . S
C1740 C1737 1.382 . S
C1740 C1741 1.390 . S
C1740 H1757 0.931 . S
C1741 C1739 1.372 . S
C1741 C1740 1.390 . S
C1741 H1758 0.929 . S
C1742 C1737 1.390 . S
C1742 C1738 1.392 . S
C1742 H1759 0.930 . S
C1743 O1728 1.255 . S
C1743 O1729 1.257 . S
C1744 Eu1680 2.787 . S
C1744 O1724 1.252 . S
C1744 O1727 1.268 . S
C1744 C1737 1.506 . S
C1745 C1712 1.439 . S
C1745 H1722 0.931 . S
C1745 C1746 1.374 . S
C1746 C1717 1.387 . S
C1746 H1723 0.931 . S
C1746 C1745 1.374 . S
C1747 O1731 1.249 . S
C1747 O1732 1.264 . S
C1748 C1751 1.382 . S
C1748 C1752 1.390 . S
C1748 C1755 1.506 . S
C1749 C1750 1.398 . S
C1749 C1752 1.392 . S
C1750 C1749 1.398 . S
C1750 C1753 1.372 . S
C1750 H1760 0.931 . S
C1751 C1748 1.382 . S
C1751 C1753 1.390 . S
C1751 H1761 0.931 . S
C1752 C1748 1.390 . S
C1752 C1749 1.392 . S
C1752 H1762 0.930 . S
C1753 C1750 1.372 . S
C1753 C1751 1.390 . S
C1753 H1763 0.929 . S
C1754 O1734 1.255 . S
C1754 O1735 1.257 . S
C1755 Eu1691 2.787 . S
C1755 O1730 1.252 . S
C1755 O1733 1.268 . S
C1755 C1748 1.506 . S
H1756 C1739 0.931 . S
H1757 C1740 0.931 . S
H1758 C1741 0.929 . S
H1759 C1742 0.930 . S
H1760 C1750 0.931 . S
H1761 C1751 0.931 . S
H1762 C1752 0.930 . S
H1763 C1753 0.929 . S
Eu1764 N1793 2.600 . S
Eu1764 N1799 2.562 . S
Eu1764 O1808 2.462 . S
Eu1764 O1809 2.373 . S
Eu1764 O1811 2.432 . S
Eu1764 O1812 2.291 . S
Eu1764 O1816 2.335 . S
Eu1764 O1819 2.372 . S
Eu1764 C1828 2.787 . S
C1765 N1766 1.365 . S
C1765 C1768 1.405 . S
C1765 C1772 1.448 . S
N1766 C1765 1.365 . S
N1766 C1769 1.319 . S
N1766 Eu1775 2.600 . S
C1767 C1769 1.397 . S
C1767 C1770 1.367 . S
C1767 H1787 0.931 . S
C1768 C1765 1.405 . S
C1768 C1770 1.403 . S
C1768 C1774 1.439 . S
C1769 N1766 1.319 . S
C1769 C1767 1.397 . S
C1769 H1780 0.930 . S
C1770 C1767 1.367 . S
C1770 C1768 1.403 . S
C1770 H1791 0.929 . S
C1771 C1772 1.430 . S
C1771 C1773 1.387 . S
C1771 C1777 1.404 . S
C1772 C1765 1.448 . S
C1772 C1771 1.430 . S
C1772 N1776 1.351 . S
C1773 C1771 1.387 . S
C1773 C1774 1.374 . S
C1773 H1788 0.931 . S
C1774 C1768 1.439 . S
C1774 C1773 1.374 . S
C1774 H1789 0.931 . S
Eu1775 N1766 2.600 . S
Eu1775 N1776 2.562 . S
Eu1775 O1810 2.335 . S
Eu1775 O1813 2.372 . S
Eu1775 O1814 2.462 . S
Eu1775 O1815 2.373 . S
Eu1775 O1817 2.432 . S
Eu1775 O1818 2.291 . S
Eu1775 C1839 2.787 . S
N1776 C1772 1.351 . S
N1776 Eu1775 2.562 . S
N1776 C1778 1.325 . S
C1777 C1771 1.404 . S
C1777 C1779 1.366 . S
C1777 H1785 0.930 . S
C1778 N1776 1.325 . S
C1778 C1779 1.416 . S
C1778 H1784 0.929 . S
C1779 C1777 1.366 . S
C1779 C1778 1.416 . S
C1779 H1781 0.930 . S
H1780 C1769 0.930 . S
H1781 C1779 0.930 . S
H1782 C1797 0.930 . S
H1783 C1804 0.930 . S
H1784 C1778 0.929 . S
H1785 C1777 0.930 . S
H1786 C1800 0.929 . S
H1787 C1767 0.931 . S
H1788 C1773 0.931 . S
H1789 C1774 0.931 . S
H1790 C1795 0.931 . S
H1791 C1770 0.929 . S
H1792 C1803 0.930 . S
N1793 Eu1764 2.600 . S
N1793 C1794 1.365 . S
N1793 C1797 1.319 . S
C1794 N1793 1.365 . S
C1794 C1796 1.405 . S
C1794 C1802 1.448 . S
C1795 H1790 0.931 . S
C1795 C1797 1.397 . S
C1795 C1798 1.367 . S
C1796 C1794 1.405 . S
C1796 C1798 1.403 . S
C1796 C1829 1.439 . S
C1797 H1782 0.930 . S
C1797 N1793 1.319 . S
C1797 C1795 1.397 . S
C1798 C1795 1.367 . S
C1798 C1796 1.403 . S
C1798 H1805 0.929 . S
N1799 Eu1764 2.562 . S
N1799 C1800 1.325 . S
N1799 C1802 1.351 . S
C1800 H1786 0.929 . S
C1800 N1799 1.325 . S
C1800 C1804 1.416 . S
C1801 C1802 1.430 . S
C1801 C1803 1.404 . S
C1801 C1830 1.387 . S
C1802 C1794 1.448 . S
C1802 N1799 1.351 . S
C1802 C1801 1.430 . S
C1803 H1792 0.930 . S
C1803 C1801 1.404 . S
C1803 C1804 1.366 . S
C1804 H1783 0.930 . S
C1804 C1800 1.416 . S
C1804 C1803 1.366 . S
H1805 C1798 0.929 . S
H1806 C1829 0.931 . S
H1807 C1830 0.931 . S
O1808 Eu1764 2.462 . S
O1808 C1828 1.252 . S
O1809 Eu1764 2.373 . S
O1809 C1820 1.249 . S
O1810 Eu1775 2.335 . S
O1810 C1820 1.264 . S
O1811 Eu1764 2.432 . S
O1811 C1828 1.268 . S
O1812 Eu1764 2.291 . S
O1812 C1827 1.255 . S
O1813 Eu1775 2.372 . S
O1813 C1827 1.257 . S
O1814 Eu1775 2.462 . S
O1814 C1839 1.252 . S
O1815 Eu1775 2.373 . S
O1815 C1831 1.249 . S
O1816 Eu1764 2.335 . S
O1816 C1831 1.264 . S
O1817 Eu1775 2.432 . S
O1817 C1839 1.268 . S
O1818 Eu1775 2.291 . S
O1818 C1838 1.255 . S
O1819 Eu1764 2.372 . S
O1819 C1838 1.257 . S
C1820 O1809 1.249 . S
C1820 O1810 1.264 . S
C1821 C1824 1.382 . S
C1821 C1826 1.390 . S
C1821 C1828 1.506 . S
C1822 C1823 1.398 . S
C1822 C1826 1.392 . S
C1823 C1822 1.398 . S
C1823 C1825 1.372 . S
C1823 H1840 0.931 . S
C1824 C1821 1.382 . S
C1824 C1825 1.390 . S
C1824 H1841 0.931 . S
C1825 C1823 1.372 . S
C1825 C1824 1.390 . S
C1825 H1842 0.929 . S
C1826 C1821 1.390 . S
C1826 C1822 1.392 . S
C1826 H1843 0.930 . S
C1827 O1812 1.255 . S
C1827 O1813 1.257 . S
C1828 Eu1764 2.787 . S
C1828 O1808 1.252 . S
C1828 O1811 1.268 . S
C1828 C1821 1.506 . S
C1829 C1796 1.439 . S
C1829 H1806 0.931 . S
C1829 C1830 1.374 . S
C1830 C1801 1.387 . S
C1830 H1807 0.931 . S
C1830 C1829 1.374 . S
C1831 O1815 1.249 . S
C1831 O1816 1.264 . S
C1832 C1835 1.382 . S
C1832 C1836 1.390 . S
C1832 C1839 1.506 . S
C1833 C1834 1.398 . S
C1833 C1836 1.392 . S
C1834 C1833 1.398 . S
C1834 C1837 1.372 . S
C1834 H1844 0.931 . S
C1835 C1832 1.382 . S
C1835 C1837 1.390 . S
C1835 H1845 0.931 . S
C1836 C1832 1.390 . S
C1836 C1833 1.392 . S
C1836 H1846 0.930 . S
C1837 C1834 1.372 . S
C1837 C1835 1.390 . S
C1837 H1847 0.929 . S
C1838 O1818 1.255 . S
C1838 O1819 1.257 . S
C1839 Eu1775 2.787 . S
C1839 O1814 1.252 . S
C1839 O1817 1.268 . S
C1839 C1832 1.506 . S
H1840 C1823 0.931 . S
H1841 C1824 0.931 . S
H1842 C1825 0.929 . S
H1843 C1826 0.930 . S
H1844 C1834 0.931 . S
H1845 C1835 0.931 . S
H1846 C1836 0.930 . S
H1847 C1837 0.929 . S
Eu1848 N1877 2.600 . S
Eu1848 N1883 2.562 . S
Eu1848 O1892 2.462 1_554 S
Eu1848 O1893 2.373 . S
Eu1848 O1895 2.432 . S
Eu1848 O1896 2.291 1_554 S
Eu1848 O1900 2.335 1_554 S
Eu1848 O1903 2.372 . S
Eu1848 C1912 2.787 1_554 S
C1849 N1850 1.365 . S
C1849 C1852 1.405 . S
C1849 C1856 1.448 . S
N1850 C1849 1.365 . S
N1850 C1853 1.319 . S
N1850 Eu1859 2.600 . S
C1851 C1853 1.397 . S
C1851 C1854 1.367 . S
C1851 H1871 0.931 . S
C1852 C1849 1.405 . S
C1852 C1854 1.403 . S
C1852 C1858 1.439 . S
C1853 N1850 1.319 . S
C1853 C1851 1.397 . S
C1853 H1864 0.930 . S
C1854 C1851 1.367 . S
C1854 C1852 1.403 . S
C1854 H1875 0.929 . S
C1855 C1856 1.430 . S
C1855 C1857 1.387 . S
C1855 C1861 1.404 . S
C1856 C1849 1.448 . S
C1856 C1855 1.430 . S
C1856 N1860 1.351 . S
C1857 C1855 1.387 . S
C1857 C1858 1.374 . S
C1857 H1872 0.931 . S
C1858 C1852 1.439 . S
C1858 C1857 1.374 . S
C1858 H1873 0.931 . S
Eu1859 N1850 2.600 . S
Eu1859 N1860 2.562 . S
Eu1859 O1894 2.335 1_556 S
Eu1859 O1897 2.372 . S
Eu1859 O1898 2.462 1_556 S
Eu1859 O1899 2.373 . S
Eu1859 O1901 2.432 . S
Eu1859 O1902 2.291 1_556 S
Eu1859 C1923 2.787 1_556 S
N1860 C1856 1.351 . S
N1860 Eu1859 2.562 . S
N1860 C1862 1.325 . S
C1861 C1855 1.404 . S
C1861 C1863 1.366 . S
C1861 H1869 0.930 . S
C1862 N1860 1.325 . S
C1862 C1863 1.416 . S
C1862 H1868 0.929 . S
C1863 C1861 1.366 . S
C1863 C1862 1.416 . S
C1863 H1865 0.930 . S
H1864 C1853 0.930 . S
H1865 C1863 0.930 . S
H1866 C1881 0.930 . S
H1867 C1888 0.930 . S
H1868 C1862 0.929 . S
H1869 C1861 0.930 . S
H1870 C1884 0.929 . S
H1871 C1851 0.931 . S
H1872 C1857 0.931 . S
H1873 C1858 0.931 . S
H1874 C1879 0.931 . S
H1875 C1854 0.929 . S
H1876 C1887 0.930 . S
N1877 Eu1848 2.600 . S
N1877 C1878 1.365 . S
N1877 C1881 1.319 . S
C1878 N1877 1.365 . S
C1878 C1880 1.405 . S
C1878 C1886 1.448 . S
C1879 H1874 0.931 . S
C1879 C1881 1.397 . S
C1879 C1882 1.367 . S
C1880 C1878 1.405 . S
C1880 C1882 1.403 . S
C1880 C1913 1.439 . S
C1881 H1866 0.930 . S
C1881 N1877 1.319 . S
C1881 C1879 1.397 . S
C1882 C1879 1.367 . S
C1882 C1880 1.403 . S
C1882 H1889 0.929 . S
N1883 Eu1848 2.562 . S
N1883 C1884 1.325 . S
N1883 C1886 1.351 . S
C1884 H1870 0.929 . S
C1884 N1883 1.325 . S
C1884 C1888 1.416 . S
C1885 C1886 1.430 . S
C1885 C1887 1.404 . S
C1885 C1914 1.387 . S
C1886 C1878 1.448 . S
C1886 N1883 1.351 . S
C1886 C1885 1.430 . S
C1887 H1876 0.930 . S
C1887 C1885 1.404 . S
C1887 C1888 1.366 . S
C1888 H1867 0.930 . S
C1888 C1884 1.416 . S
C1888 C1887 1.366 . S
H1889 C1882 0.929 . S
H1890 C1913 0.931 . S
H1891 C1914 0.931 . S
O1892 Eu1848 2.462 1_556 S
O1892 C1912 1.252 . S
O1893 Eu1848 2.373 . S
O1893 C1904 1.249 . S
O1894 Eu1859 2.335 1_554 S
O1894 C1904 1.264 . S
O1895 Eu1848 2.432 . S
O1895 C1912 1.268 1_554 S
O1896 Eu1848 2.291 1_556 S
O1896 C1911 1.255 . S
O1897 Eu1859 2.372 . S
O1897 C1911 1.257 . S
O1898 Eu1859 2.462 1_554 S
O1898 C1923 1.252 . S
O1899 Eu1859 2.373 . S
O1899 C1915 1.249 . S
O1900 Eu1848 2.335 1_556 S
O1900 C1915 1.264 . S
O1901 Eu1859 2.432 . S
O1901 C1923 1.268 1_556 S
O1902 Eu1859 2.291 1_554 S
O1902 C1922 1.255 . S
O1903 Eu1848 2.372 . S
O1903 C1922 1.257 . S
C1904 O1893 1.249 . S
C1904 O1894 1.264 . S
C1905 C1908 1.382 . S
C1905 C1910 1.390 . S
C1905 C1912 1.506 . S
C1906 C1907 1.398 . S
C1906 C1910 1.392 . S
C1907 C1906 1.398 . S
C1907 C1909 1.372 . S
C1907 H1924 0.931 . S
C1908 C1905 1.382 . S
C1908 C1909 1.390 . S
C1908 H1925 0.931 . S
C1909 C1907 1.372 . S
C1909 C1908 1.390 . S
C1909 H1926 0.929 . S
C1910 C1905 1.390 . S
C1910 C1906 1.392 . S
C1910 H1927 0.930 . S
C1911 O1896 1.255 . S
C1911 O1897 1.257 . S
C1912 Eu1848 2.787 1_556 S
C1912 O1892 1.252 . S
C1912 O1895 1.268 1_556 S
C1912 C1905 1.506 . S
C1913 C1880 1.439 . S
C1913 H1890 0.931 . S
C1913 C1914 1.374 . S
C1914 C1885 1.387 . S
C1914 H1891 0.931 . S
C1914 C1913 1.374 . S
C1915 O1899 1.249 . S
C1915 O1900 1.264 . S
C1916 C1919 1.382 . S
C1916 C1920 1.390 . S
C1916 C1923 1.506 . S
C1917 C1918 1.398 . S
C1917 C1920 1.392 . S
C1918 C1917 1.398 . S
C1918 C1921 1.372 . S
C1918 H1928 0.931 . S
C1919 C1916 1.382 . S
C1919 C1921 1.390 . S
C1919 H1929 0.931 . S
C1920 C1916 1.390 . S
C1920 C1917 1.392 . S
C1920 H1930 0.930 . S
C1921 C1918 1.372 . S
C1921 C1919 1.390 . S
C1921 H1931 0.929 . S
C1922 O1902 1.255 . S
C1922 O1903 1.257 . S
C1923 Eu1859 2.787 1_554 S
C1923 O1898 1.252 . S
C1923 O1901 1.268 1_554 S
C1923 C1916 1.506 . S
H1924 C1907 0.931 . S
H1925 C1908 0.931 . S
H1926 C1909 0.929 . S
H1927 C1910 0.930 . S
H1928 C1918 0.931 . S
H1929 C1919 0.931 . S
H1930 C1920 0.930 . S
H1931 C1921 0.929 . S
Eu1932 N1961 2.600 . S
Eu1932 N1967 2.562 . S
Eu1932 O1976 2.462 . S
Eu1932 O1977 2.373 . S
Eu1932 O1979 2.432 . S
Eu1932 O1980 2.291 . S
Eu1932 O1984 2.335 . S
Eu1932 O1987 2.372 . S
Eu1932 C1996 2.787 . S
C1933 N1934 1.365 . S
C1933 C1936 1.405 . S
C1933 C1940 1.448 . S
N1934 C1933 1.365 . S
N1934 C1937 1.319 . S
N1934 Eu1943 2.600 . S
C1935 C1937 1.397 . S
C1935 C1938 1.367 . S
C1935 H1955 0.931 . S
C1936 C1933 1.405 . S
C1936 C1938 1.403 . S
C1936 C1942 1.439 . S
C1937 N1934 1.319 . S
C1937 C1935 1.397 . S
C1937 H1948 0.930 . S
C1938 C1935 1.367 . S
C1938 C1936 1.403 . S
C1938 H1959 0.929 . S
C1939 C1940 1.430 . S
C1939 C1941 1.387 . S
C1939 C1945 1.404 . S
C1940 C1933 1.448 . S
C1940 C1939 1.430 . S
C1940 N1944 1.351 . S
C1941 C1939 1.387 . S
C1941 C1942 1.374 . S
C1941 H1956 0.931 . S
C1942 C1936 1.439 . S
C1942 C1941 1.374 . S
C1942 H1957 0.931 . S
Eu1943 N1934 2.600 . S
Eu1943 N1944 2.562 . S
Eu1943 O1978 2.335 . S
Eu1943 O1981 2.372 . S
Eu1943 O1982 2.462 . S
Eu1943 O1983 2.373 . S
Eu1943 O1985 2.432 . S
Eu1943 O1986 2.291 . S
Eu1943 C2007 2.787 . S
N1944 C1940 1.351 . S
N1944 Eu1943 2.562 . S
N1944 C1946 1.325 . S
C1945 C1939 1.404 . S
C1945 C1947 1.366 . S
C1945 H1953 0.930 . S
C1946 N1944 1.325 . S
C1946 C1947 1.416 . S
C1946 H1952 0.929 . S
C1947 C1945 1.366 . S
C1947 C1946 1.416 . S
C1947 H1949 0.930 . S
H1948 C1937 0.930 . S
H1949 C1947 0.930 . S
H1950 C1965 0.930 . S
H1951 C1972 0.930 . S
H1952 C1946 0.929 . S
H1953 C1945 0.930 . S
H1954 C1968 0.929 . S
H1955 C1935 0.931 . S
H1956 C1941 0.931 . S
H1957 C1942 0.931 . S
H1958 C1963 0.931 . S
H1959 C1938 0.929 . S
H1960 C1971 0.930 . S
N1961 Eu1932 2.600 . S
N1961 C1962 1.365 . S
N1961 C1965 1.319 . S
C1962 N1961 1.365 . S
C1962 C1964 1.405 . S
C1962 C1970 1.448 . S
C1963 H1958 0.931 . S
C1963 C1965 1.397 . S
C1963 C1966 1.367 . S
C1964 C1962 1.405 . S
C1964 C1966 1.403 . S
C1964 C1997 1.439 . S
C1965 H1950 0.930 . S
C1965 N1961 1.319 . S
C1965 C1963 1.397 . S
C1966 C1963 1.367 . S
C1966 C1964 1.403 . S
C1966 H1973 0.929 . S
N1967 Eu1932 2.562 . S
N1967 C1968 1.325 . S
N1967 C1970 1.351 . S
C1968 H1954 0.929 . S
C1968 N1967 1.325 . S
C1968 C1972 1.416 . S
C1969 C1970 1.430 . S
C1969 C1971 1.404 . S
C1969 C1998 1.387 . S
C1970 C1962 1.448 . S
C1970 N1967 1.351 . S
C1970 C1969 1.430 . S
C1971 H1960 0.930 . S
C1971 C1969 1.404 . S
C1971 C1972 1.366 . S
C1972 H1951 0.930 . S
C1972 C1968 1.416 . S
C1972 C1971 1.366 . S
H1973 C1966 0.929 . S
H1974 C1997 0.931 . S
H1975 C1998 0.931 . S
O1976 Eu1932 2.462 . S
O1976 C1996 1.252 . S
O1977 Eu1932 2.373 . S
O1977 C1988 1.249 . S
O1978 Eu1943 2.335 . S
O1978 C1988 1.264 . S
O1979 Eu1932 2.432 . S
O1979 C1996 1.268 . S
O1980 Eu1932 2.291 . S
O1980 C1995 1.255 . S
O1981 Eu1943 2.372 . S
O1981 C1995 1.257 . S
O1982 Eu1943 2.462 . S
O1982 C2007 1.252 . S
O1983 Eu1943 2.373 . S
O1983 C1999 1.249 . S
O1984 Eu1932 2.335 . S
O1984 C1999 1.264 . S
O1985 Eu1943 2.432 . S
O1985 C2007 1.268 . S
O1986 Eu1943 2.291 . S
O1986 C2006 1.255 . S
O1987 Eu1932 2.372 . S
O1987 C2006 1.257 . S
C1988 O1977 1.249 . S
C1988 O1978 1.264 . S
C1989 C1992 1.382 . S
C1989 C1994 1.390 . S
C1989 C1996 1.506 . S
C1990 C1991 1.398 . S
C1990 C1994 1.392 . S
C1991 C1990 1.398 . S
C1991 C1993 1.372 . S
C1991 H2008 0.931 . S
C1992 C1989 1.382 . S
C1992 C1993 1.390 . S
C1992 H2009 0.931 . S
C1993 C1991 1.372 . S
C1993 C1992 1.390 . S
C1993 H2010 0.929 . S
C1994 C1989 1.390 . S
C1994 C1990 1.392 . S
C1994 H2011 0.930 . S
C1995 O1980 1.255 . S
C1995 O1981 1.257 . S
C1996 Eu1932 2.787 . S
C1996 O1976 1.252 . S
C1996 O1979 1.268 . S
C1996 C1989 1.506 . S
C1997 C1964 1.439 . S
C1997 H1974 0.931 . S
C1997 C1998 1.374 . S
C1998 C1969 1.387 . S
C1998 H1975 0.931 . S
C1998 C1997 1.374 . S
C1999 O1983 1.249 . S
C1999 O1984 1.264 . S
C2000 C2003 1.382 . S
C2000 C2004 1.390 . S
C2000 C2007 1.506 . S
C2001 C2002 1.398 . S
C2001 C2004 1.392 . S
C2002 C2001 1.398 . S
C2002 C2005 1.372 . S
C2002 H2012 0.931 . S
C2003 C2000 1.382 . S
C2003 C2005 1.390 . S
C2003 H2013 0.931 . S
C2004 C2000 1.390 . S
C2004 C2001 1.392 . S
C2004 H2014 0.930 . S
C2005 C2002 1.372 . S
C2005 C2003 1.390 . S
C2005 H2015 0.929 . S
C2006 O1986 1.255 . S
C2006 O1987 1.257 . S
C2007 Eu1943 2.787 . S
C2007 O1982 1.252 . S
C2007 O1985 1.268 . S
C2007 C2000 1.506 . S
H2008 C1991 0.931 . S
H2009 C1992 0.931 . S
H2010 C1993 0.929 . S
H2011 C1994 0.930 . S
H2012 C2002 0.931 . S
H2013 C2003 0.931 . S
H2014 C2004 0.930 . S
H2015 C2005 0.929 . S
H2016 C2028 0.930 . S
H2017 C2030 0.930 . S
H2018 C2031 0.930 . S
H2019 C2035 0.959 . S
H2020 C2035 0.959 . S
H2021 C2035 0.961 . S
H2022 C2036 0.960 . S
H2023 C2036 0.961 . S
H2024 C2036 0.959 . S
H2025 C2039 0.929 . S
H2026 C2040 0.931 . S
H2027 C2042 0.930 . S
C2028 H2016 0.930 . S
C2028 C2029 1.399 . S
C2028 C2033 1.399 . S
C2029 C2028 1.399 . S
C2029 C2030 1.376 . S
C2030 H2017 0.930 . S
C2030 C2029 1.376 . S
C2030 C2031 1.388 . S
C2031 H2018 0.930 . S
C2031 C2030 1.388 . S
C2031 C2032 1.390 . S
C2032 C2031 1.390 . S
C2032 C2033 1.394 . S
C2032 C2038 1.465 . S
C2033 C2028 1.399 . S
C2033 C2032 1.394 . S
C2033 C2034 1.516 . S
C2034 C2033 1.516 . S
C2034 C2035 1.502 . S
C2034 C2036 1.561 . S
C2034 C2037 1.526 . S
C2035 H2019 0.959 . S
C2035 H2020 0.959 . S
C2035 H2021 0.961 . S
C2035 C2034 1.502 . S
C2036 H2022 0.960 . S
C2036 H2023 0.961 . S
C2036 H2024 0.959 . S
C2036 C2034 1.561 . S
C2037 C2034 1.526 . S
C2037 C2038 1.396 . S
C2037 C2042 1.390 . S
C2038 C2032 1.465 . S
C2038 C2037 1.396 . S
C2038 C2039 1.399 . S
C2039 H2025 0.929 . S
C2039 C2038 1.399 . S
C2039 C2040 1.385 . S
C2040 H2026 0.931 . S
C2040 C2039 1.385 . S
C2040 C2041 1.389 . S
C2041 C2040 1.389 . S
C2041 C2042 1.387 . S
C2042 H2027 0.930 . S
C2042 C2037 1.390 . S
C2042 C2041 1.387 . S
H2043 C2055 0.930 . S
H2044 C2057 0.930 . S
H2045 C2058 0.930 . S
H2046 C2062 0.959 . S
H2047 C2062 0.959 . S
H2048 C2062 0.961 . S
H2049 C2063 0.960 . S
H2050 C2063 0.961 . S
H2051 C2063 0.959 . S
H2052 C2066 0.929 . S
H2053 C2067 0.931 . S
H2054 C2069 0.930 . S
C2055 H2043 0.930 . S
C2055 C2056 1.399 . S
C2055 C2060 1.399 . S
C2056 C2055 1.399 . S
C2056 C2057 1.376 . S
C2057 H2044 0.930 . S
C2057 C2056 1.376 . S
C2057 C2058 1.388 . S
C2058 H2045 0.930 . S
C2058 C2057 1.388 . S
C2058 C2059 1.390 . S
C2059 C2058 1.390 . S
C2059 C2060 1.394 . S
C2059 C2065 1.465 . S
C2060 C2055 1.399 . S
C2060 C2059 1.394 . S
C2060 C2061 1.516 . S
C2061 C2060 1.516 . S
C2061 C2062 1.502 1_655 S
C2061 C2063 1.561 . S
C2061 C2064 1.526 . S
C2062 H2046 0.959 . S
C2062 H2047 0.959 . S
C2062 H2048 0.961 . S
C2062 C2061 1.502 1_455 S
C2063 H2049 0.960 . S
C2063 H2050 0.961 . S
C2063 H2051 0.959 . S
C2063 C2061 1.561 . S
C2064 C2061 1.526 . S
C2064 C2065 1.396 . S
C2064 C2069 1.390 . S
C2065 C2059 1.465 . S
C2065 C2064 1.396 . S
C2065 C2066 1.399 . S
C2066 H2052 0.929 . S
C2066 C2065 1.399 . S
C2066 C2067 1.385 . S
C2067 H2053 0.931 . S
C2067 C2066 1.385 . S
C2067 C2068 1.389 . S
C2068 C2067 1.389 . S
C2068 C2069 1.387 . S
C2069 H2054 0.930 . S
C2069 C2064 1.390 . S
C2069 C2068 1.387 . S
H2070 C2082 0.930 . S
H2071 C2084 0.930 . S
H2072 C2085 0.930 . S
H2073 C2089 0.959 . S
H2074 C2089 0.959 . S
H2075 C2089 0.961 . S
H2076 C2090 0.960 . S
H2077 C2090 0.961 . S
H2078 C2090 0.959 . S
H2079 C2093 0.929 . S
H2080 C2094 0.931 . S
H2081 C2096 0.930 . S
C2082 H2070 0.930 . S
C2082 C2083 1.399 . S
C2082 C2087 1.399 . S
C2083 C2082 1.399 . S
C2083 C2084 1.376 . S
C2084 H2071 0.930 . S
C2084 C2083 1.376 . S
C2084 C2085 1.388 . S
C2085 H2072 0.930 . S
C2085 C2084 1.388 . S
C2085 C2086 1.390 . S
C2086 C2085 1.390 . S
C2086 C2087 1.394 . S
C2086 C2092 1.465 . S
C2087 C2082 1.399 . S
C2087 C2086 1.394 . S
C2087 C2088 1.516 . S
C2088 C2087 1.516 . S
C2088 C2089 1.502 . S
C2088 C2090 1.561 . S
C2088 C2091 1.526 . S
C2089 H2073 0.959 . S
C2089 H2074 0.959 . S
C2089 H2075 0.961 . S
C2089 C2088 1.502 . S
C2090 H2076 0.960 . S
C2090 H2077 0.961 . S
C2090 H2078 0.959 . S
C2090 C2088 1.561 . S
C2091 C2088 1.526 . S
C2091 C2092 1.396 . S
C2091 C2096 1.390 . S
C2092 C2086 1.465 . S
C2092 C2091 1.396 . S
C2092 C2093 1.399 . S
C2093 H2079 0.929 . S
C2093 C2092 1.399 . S
C2093 C2094 1.385 . S
C2094 H2080 0.931 . S
C2094 C2093 1.385 . S
C2094 C2095 1.389 . S
C2095 C2094 1.389 . S
C2095 C2096 1.387 . S
C2096 H2081 0.930 . S
C2096 C2091 1.390 . S
C2096 C2095 1.387 . S
H2097 C2109 0.930 . S
H2098 C2111 0.930 . S
H2099 C2112 0.930 . S
H2100 C2116 0.959 . S
H2101 C2116 0.959 . S
H2102 C2116 0.961 . S
H2103 C2117 0.960 . S
H2104 C2117 0.961 . S
H2105 C2117 0.959 . S
H2106 C2120 0.929 . S
H2107 C2121 0.931 . S
H2108 C2123 0.930 . S
C2109 H2097 0.930 . S
C2109 C2110 1.399 . S
C2109 C2114 1.399 . S
C2110 C2109 1.399 . S
C2110 C2111 1.376 . S
C2111 H2098 0.930 . S
C2111 C2110 1.376 . S
C2111 C2112 1.388 . S
C2112 H2099 0.930 . S
C2112 C2111 1.388 . S
C2112 C2113 1.390 . S
C2113 C2112 1.390 . S
C2113 C2114 1.394 . S
C2113 C2119 1.465 . S
C2114 C2109 1.399 . S
C2114 C2113 1.394 . S
C2114 C2115 1.516 . S
C2115 C2114 1.516 . S
C2115 C2116 1.502 . S
C2115 C2117 1.561 . S
C2115 C2118 1.526 . S
C2116 H2100 0.959 . S
C2116 H2101 0.959 . S
C2116 H2102 0.961 . S
C2116 C2115 1.502 . S
C2117 H2103 0.960 . S
C2117 H2104 0.961 . S
C2117 H2105 0.959 . S
C2117 C2115 1.561 . S
C2118 C2115 1.526 . S
C2118 C2119 1.396 . S
C2118 C2123 1.390 . S
C2119 C2113 1.465 . S
C2119 C2118 1.396 . S
C2119 C2120 1.399 . S
C2120 H2106 0.929 . S
C2120 C2119 1.399 . S
C2120 C2121 1.385 . S
C2121 H2107 0.931 . S
C2121 C2120 1.385 . S
C2121 C2122 1.389 . S
C2122 C2121 1.389 . S
C2122 C2123 1.387 . S
C2123 H2108 0.930 . S
C2123 C2118 1.390 . S
C2123 C2122 1.387 . S
H2124 C2136 0.930 . S
H2125 C2138 0.930 . S
H2126 C2139 0.930 . S
H2127 C2143 0.959 . S
H2128 C2143 0.959 . S
H2129 C2143 0.961 . S
H2130 C2144 0.960 . S
H2131 C2144 0.961 . S
H2132 C2144 0.959 . S
H2133 C2147 0.929 . S
H2134 C2148 0.931 . S
H2135 C2150 0.930 . S
C2136 H2124 0.930 . S
C2136 C2137 1.399 . S
C2136 C2141 1.399 . S
C2137 C2136 1.399 . S
C2137 C2138 1.376 . S
C2138 H2125 0.930 . S
C2138 C2137 1.376 . S
C2138 C2139 1.388 . S
C2139 H2126 0.930 . S
C2139 C2138 1.388 . S
C2139 C2140 1.390 . S
C2140 C2139 1.390 . S
C2140 C2141 1.394 . S
C2140 C2146 1.465 . S
C2141 C2136 1.399 . S
C2141 C2140 1.394 . S
C2141 C2142 1.516 . S
C2142 C2141 1.516 . S
C2142 C2143 1.502 . S
C2142 C2144 1.561 . S
C2142 C2145 1.526 . S
C2143 H2127 0.959 . S
C2143 H2128 0.959 . S
C2143 H2129 0.961 . S
C2143 C2142 1.502 . S
C2144 H2130 0.960 . S
C2144 H2131 0.961 . S
C2144 H2132 0.959 . S
C2144 C2142 1.561 . S
C2145 C2142 1.526 . S
C2145 C2146 1.396 . S
C2145 C2150 1.390 . S
C2146 C2140 1.465 . S
C2146 C2145 1.396 . S
C2146 C2147 1.399 . S
C2147 H2133 0.929 . S
C2147 C2146 1.399 . S
C2147 C2148 1.385 . S
C2148 H2134 0.931 . S
C2148 C2147 1.385 . S
C2148 C2149 1.389 . S
C2149 C2148 1.389 . S
C2149 C2150 1.387 . S
C2150 H2135 0.930 . S
C2150 C2145 1.390 . S
C2150 C2149 1.387 . S
H2151 C2163 0.930 . S
H2152 C2165 0.930 . S
H2153 C2166 0.930 . S
H2154 C2170 0.959 . S
H2155 C2170 0.959 . S
H2156 C2170 0.961 . S
H2157 C2171 0.960 . S
H2158 C2171 0.961 . S
H2159 C2171 0.959 . S
H2160 C2174 0.929 . S
H2161 C2175 0.931 . S
H2162 C2177 0.930 . S
C2163 H2151 0.930 . S
C2163 C2164 1.399 . S
C2163 C2168 1.399 . S
C2164 C2163 1.399 . S
C2164 C2165 1.376 . S
C2165 H2152 0.930 . S
C2165 C2164 1.376 . S
C2165 C2166 1.388 . S
C2166 H2153 0.930 . S
C2166 C2165 1.388 . S
C2166 C2167 1.390 . S
C2167 C2166 1.390 . S
C2167 C2168 1.394 . S
C2167 C2173 1.465 . S
C2168 C2163 1.399 . S
C2168 C2167 1.394 . S
C2168 C2169 1.516 . S
C2169 C2168 1.516 . S
C2169 C2170 1.502 . S
C2169 C2171 1.561 . S
C2169 C2172 1.526 . S
C2170 H2154 0.959 . S
C2170 H2155 0.959 . S
C2170 H2156 0.961 . S
C2170 C2169 1.502 . S
C2171 H2157 0.960 . S
C2171 H2158 0.961 . S
C2171 H2159 0.959 . S
C2171 C2169 1.561 . S
C2172 C2169 1.526 . S
C2172 C2173 1.396 . S
C2172 C2177 1.390 . S
C2173 C2167 1.465 . S
C2173 C2172 1.396 . S
C2173 C2174 1.399 . S
C2174 H2160 0.929 . S
C2174 C2173 1.399 . S
C2174 C2175 1.385 . S
C2175 H2161 0.931 . S
C2175 C2174 1.385 . S
C2175 C2176 1.389 . S
C2176 C2175 1.389 . S
C2176 C2177 1.387 . S
C2177 H2162 0.930 . S
C2177 C2172 1.390 . S
C2177 C2176 1.387 . S
H2178 C2190 0.930 . S
H2179 C2192 0.930 . S
H2180 C2193 0.930 . S
H2181 C2197 0.959 . S
H2182 C2197 0.959 . S
H2183 C2197 0.961 . S
H2184 C2198 0.960 . S
H2185 C2198 0.961 . S
H2186 C2198 0.959 . S
H2187 C2201 0.929 . S
H2188 C2202 0.931 . S
H2189 C2204 0.930 . S
C2190 H2178 0.930 . S
C2190 C2191 1.399 . S
C2190 C2195 1.399 . S
C2191 C2190 1.399 . S
C2191 C2192 1.376 . S
C2192 H2179 0.930 . S
C2192 C2191 1.376 . S
C2192 C2193 1.388 . S
C2193 H2180 0.930 . S
C2193 C2192 1.388 . S
C2193 C2194 1.390 . S
C2194 C2193 1.390 . S
C2194 C2195 1.394 . S
C2194 C2200 1.465 . S
C2195 C2190 1.399 . S
C2195 C2194 1.394 . S
C2195 C2196 1.516 . S
C2196 C2195 1.516 . S
C2196 C2197 1.502 . S
C2196 C2198 1.561 . S
C2196 C2199 1.526 . S
C2197 H2181 0.959 . S
C2197 H2182 0.959 . S
C2197 H2183 0.961 . S
C2197 C2196 1.502 . S
C2198 H2184 0.960 . S
C2198 H2185 0.961 . S
C2198 H2186 0.959 . S
C2198 C2196 1.561 . S
C2199 C2196 1.526 . S
C2199 C2200 1.396 . S
C2199 C2204 1.390 . S
C2200 C2194 1.465 . S
C2200 C2199 1.396 . S
C2200 C2201 1.399 . S
C2201 H2187 0.929 . S
C2201 C2200 1.399 . S
C2201 C2202 1.385 . S
C2202 H2188 0.931 . S
C2202 C2201 1.385 . S
C2202 C2203 1.389 . S
C2203 C2202 1.389 . S
C2203 C2204 1.387 . S
C2204 H2189 0.930 . S
C2204 C2199 1.390 . S
C2204 C2203 1.387 . S
H2205 C2217 0.930 . S
H2206 C2219 0.930 . S
H2207 C2220 0.930 . S
H2208 C2224 0.959 . S
H2209 C2224 0.959 . S
H2210 C2224 0.961 . S
H2211 C2225 0.960 . S
H2212 C2225 0.961 . S
H2213 C2225 0.959 . S
H2214 C2228 0.929 . S
H2215 C2229 0.931 . S
H2216 C2231 0.930 . S
C2217 H2205 0.930 . S
C2217 C2218 1.382 1_554 S
C2217 C2222 1.399 . S
C2218 C2217 1.382 1_556 S
C2218 C2219 1.395 . S
C2219 H2206 0.930 . S
C2219 C2218 1.395 . S
C2219 C2220 1.388 . S
C2220 H2207 0.930 . S
C2220 C2219 1.388 . S
C2220 C2221 1.390 . S
C2221 C2220 1.390 . S
C2221 C2222 1.394 1_556 S
C2221 C2227 1.465 . S
C2222 C2217 1.399 . S
C2222 C2221 1.394 1_554 S
C2222 C2223 1.516 . S
C2223 C2222 1.516 . S
C2223 C2224 1.502 . S
C2223 C2225 1.561 . S
C2223 C2226 1.526 . S
C2224 H2208 0.959 . S
C2224 H2209 0.959 . S
C2224 H2210 0.961 . S
C2224 C2223 1.502 . S
C2225 H2211 0.960 . S
C2225 H2212 0.961 . S
C2225 H2213 0.959 . S
C2225 C2223 1.561 . S
C2226 C2223 1.526 . S
C2226 C2227 1.396 1_554 S
C2226 C2231 1.390 . S
C2227 C2221 1.465 . S
C2227 C2226 1.396 1_556 S
C2227 C2228 1.399 . S
C2228 H2214 0.929 . S
C2228 C2227 1.399 . S
C2228 C2229 1.385 . S
C2229 H2215 0.931 . S
C2229 C2228 1.385 . S
C2229 C2230 1.389 1_556 S
C2230 C2229 1.389 1_554 S
C2230 C2231 1.387 . S
C2231 H2216 0.930 . S
C2231 C2226 1.390 . S
C2231 C2230 1.387 . S
H2232 C2244 0.930 . S
H2233 C2246 0.930 . S
H2234 C2247 0.930 . S
H2235 C2251 0.959 . S
H2236 C2251 0.959 . S
H2237 C2251 0.961 . S
H2238 C2252 0.960 . S
H2239 C2252 0.961 . S
H2240 C2252 0.959 . S
H2241 C2255 0.929 . S
H2242 C2256 0.931 . S
H2243 C2258 0.930 . S
C2244 H2232 0.930 . S
C2244 C2245 1.399 1_565 S
C2244 C2249 1.406 . S
C2245 C2244 1.399 1_545 S
C2245 C2246 1.376 . S
C2246 H2233 0.930 . S
C2246 C2245 1.376 . S
C2246 C2247 1.388 . S
C2247 H2234 0.930 . S
C2247 C2246 1.388 . S
C2247 C2248 1.390 . S
C2248 C2247 1.390 . S
C2248 C2249 1.345 1_545 S
C2248 C2254 1.465 . S
C2249 C2244 1.406 . S
C2249 C2248 1.345 1_565 S
C2249 C2250 1.554 . S
C2250 C2249 1.554 . S
C2250 C2251 1.502 . S
C2250 C2252 1.561 . S
C2250 C2253 1.526 . S
C2251 H2235 0.959 . S
C2251 H2236 0.959 . S
C2251 H2237 0.961 . S
C2251 C2250 1.502 . S
C2252 H2238 0.960 . S
C2252 H2239 0.961 . S
C2252 H2240 0.959 . S
C2252 C2250 1.561 . S
C2253 C2250 1.526 . S
C2253 C2254 1.396 1_565 S
C2253 C2258 1.390 . S
C2254 C2248 1.465 . S
C2254 C2253 1.396 1_545 S
C2254 C2255 1.399 . S
C2255 H2241 0.929 . S
C2255 C2254 1.399 . S
C2255 C2256 1.385 . S
C2256 H2242 0.931 . S
C2256 C2255 1.385 . S
C2256 C2257 1.389 . S
C2257 C2256 1.389 . S
C2257 C2258 1.387 1_545 S
C2258 H2243 0.930 . S
C2258 C2253 1.390 . S
C2258 C2257 1.387 1_565 S
H2259 C2271 0.930 . S
H2260 C2273 0.930 . S
H2261 C2274 0.930 . S
H2262 C2278 0.959 . S
H2263 C2278 0.959 . S
H2264 C2278 0.961 . S
H2265 C2279 0.960 . S
H2266 C2279 0.961 . S
H2267 C2279 0.959 . S
H2268 C2282 0.929 . S
H2269 C2283 0.931 . S
H2270 C2285 0.930 . S
C2271 H2259 0.930 . S
C2271 C2272 1.399 . S
C2271 C2276 1.399 . S
C2272 C2271 1.399 . S
C2272 C2273 1.376 . S
C2273 H2260 0.930 . S
C2273 C2272 1.376 . S
C2273 C2274 1.388 . S
C2274 H2261 0.930 . S
C2274 C2273 1.388 . S
C2274 C2275 1.390 . S
C2275 C2274 1.390 . S
C2275 C2276 1.394 . S
C2275 C2281 1.465 . S
C2276 C2271 1.399 . S
C2276 C2275 1.394 . S
C2276 C2277 1.516 . S
C2277 C2276 1.516 . S
C2277 C2278 1.502 . S
C2277 C2279 1.561 . S
C2277 C2280 1.526 . S
C2278 H2262 0.959 . S
C2278 H2263 0.959 . S
C2278 H2264 0.961 . S
C2278 C2277 1.502 . S
C2279 H2265 0.960 . S
C2279 H2266 0.961 . S
C2279 H2267 0.959 . S
C2279 C2277 1.561 . S
C2280 C2277 1.526 . S
C2280 C2281 1.396 . S
C2280 C2285 1.390 . S
C2281 C2275 1.465 . S
C2281 C2280 1.396 . S
C2281 C2282 1.399 . S
C2282 H2268 0.929 . S
C2282 C2281 1.399 . S
C2282 C2283 1.385 . S
C2283 H2269 0.931 . S
C2283 C2282 1.385 . S
C2283 C2284 1.389 . S
C2284 C2283 1.389 . S
C2284 C2285 1.387 . S
C2285 H2270 0.930 . S
C2285 C2280 1.390 . S
C2285 C2284 1.387 . S
H2286 C2298 0.930 1_545 S
H2287 C2300 0.930 . S
H2288 C2301 0.930 . S
H2289 C2305 0.959 . S
H2290 C2305 0.959 . S
H2291 C2305 0.961 . S
H2292 C2306 0.960 . S
H2293 C2306 0.961 . S
H2294 C2306 0.959 . S
H2295 C2309 0.929 . S
H2296 C2310 0.931 . S
H2297 C2312 0.930 . S
C2298 H2286 0.930 1_565 S
C2298 C2299 1.399 . S
C2298 C2303 1.399 . S
C2299 C2298 1.399 . S
C2299 C2300 1.376 . S
C2300 H2287 0.930 . S
C2300 C2299 1.376 . S
C2300 C2301 1.388 . S
C2301 H2288 0.930 . S
C2301 C2300 1.388 . S
C2301 C2302 1.390 . S
C2302 C2301 1.390 . S
C2302 C2303 1.394 . S
C2302 C2308 1.465 . S
C2303 C2298 1.399 . S
C2303 C2302 1.394 . S
C2303 C2304 1.516 1_565 S
C2304 C2303 1.516 1_545 S
C2304 C2305 1.502 . S
C2304 C2306 1.561 . S
C2304 C2307 1.528 1_545 S
C2305 H2289 0.959 . S
C2305 H2290 0.959 . S
C2305 H2291 0.961 . S
C2305 C2304 1.502 . S
C2306 H2292 0.960 . S
C2306 H2293 0.961 . S
C2306 H2294 0.959 . S
C2306 C2304 1.561 . S
C2307 C2304 1.528 1_565 S
C2307 C2308 1.392 . S
C2307 C2312 1.391 1_565 S
C2308 C2302 1.465 . S
C2308 C2307 1.392 . S
C2308 C2309 1.399 . S
C2309 H2295 0.929 . S
C2309 C2308 1.399 . S
C2309 C2310 1.385 . S
C2310 H2296 0.931 . S
C2310 C2309 1.385 . S
C2310 C2311 1.389 . S
C2311 C2310 1.389 . S
C2311 C2312 1.387 1_565 S
C2312 H2297 0.930 . S
C2312 C2307 1.391 1_545 S
C2312 C2311 1.387 1_545 S
H2313 C2325 0.930 . S
H2314 C2327 0.930 . S
H2315 C2328 0.930 . S
H2316 C2332 0.959 . S
H2317 C2332 0.959 . S
H2318 C2332 0.961 . S
H2319 C2333 0.960 . S
H2320 C2333 0.961 . S
H2321 C2333 0.959 . S
H2322 C2336 0.929 . S
H2323 C2337 0.931 . S
H2324 C2339 0.930 . S
C2325 H2313 0.930 . S
C2325 C2326 1.399 . S
C2325 C2330 1.399 . S
C2326 C2325 1.399 . S
C2326 C2327 1.376 . S
C2327 H2314 0.930 . S
C2327 C2326 1.376 . S
C2327 C2328 1.388 . S
C2328 H2315 0.930 . S
C2328 C2327 1.388 . S
C2328 C2329 1.390 . S
C2329 C2328 1.390 . S
C2329 C2330 1.394 . S
C2329 C2335 1.465 . S
C2330 C2325 1.399 . S
C2330 C2329 1.394 . S
C2330 C2331 1.516 . S
C2331 C2330 1.516 . S
C2331 C2332 1.502 . S
C2331 C2333 1.561 . S
C2331 C2334 1.526 . S
C2332 H2316 0.959 . S
C2332 H2317 0.959 . S
C2332 H2318 0.961 . S
C2332 C2331 1.502 . S
C2333 H2319 0.960 . S
C2333 H2320 0.961 . S
C2333 H2321 0.959 . S
C2333 C2331 1.561 . S
C2334 C2331 1.526 . S
C2334 C2335 1.396 . S
C2334 C2339 1.390 . S
C2335 C2329 1.465 . S
C2335 C2334 1.396 . S
C2335 C2336 1.399 . S
C2336 H2322 0.929 . S
C2336 C2335 1.399 . S
C2336 C2337 1.385 . S
C2337 H2323 0.931 . S
C2337 C2336 1.385 . S
C2337 C2338 1.389 . S
C2338 C2337 1.389 . S
C2338 C2339 1.387 . S
C2339 H2324 0.930 . S
C2339 C2334 1.390 . S
C2339 C2338 1.387 . S
H2340 C2352 0.930 . S
H2341 C2354 0.930 . S
H2342 C2355 0.930 . S
H2343 C2359 0.959 . S
H2344 C2359 0.959 . S
H2345 C2359 0.961 . S
H2346 C2360 0.960 . S
H2347 C2360 0.961 . S
H2348 C2360 0.959 . S
H2349 C2363 0.929 . S
H2350 C2364 0.931 . S
H2351 C2366 0.930 . S
C2352 H2340 0.930 . S
C2352 C2353 1.399 . S
C2352 C2357 1.399 . S
C2353 C2352 1.399 . S
C2353 C2354 1.376 . S
C2354 H2341 0.930 . S
C2354 C2353 1.376 . S
C2354 C2355 1.388 . S
C2355 H2342 0.930 . S
C2355 C2354 1.388 . S
C2355 C2356 1.390 . S
C2356 C2355 1.390 . S
C2356 C2357 1.394 . S
C2356 C2362 1.465 . S
C2357 C2352 1.399 . S
C2357 C2356 1.394 . S
C2357 C2358 1.516 . S
C2358 C2357 1.516 . S
C2358 C2359 1.502 . S
C2358 C2360 1.561 . S
C2358 C2361 1.526 . S
C2359 H2343 0.959 . S
C2359 H2344 0.959 . S
C2359 H2345 0.961 . S
C2359 C2358 1.502 . S
C2360 H2346 0.960 . S
C2360 H2347 0.961 . S
C2360 H2348 0.959 . S
C2360 C2358 1.561 . S
C2361 C2358 1.526 . S
C2361 C2362 1.396 . S
C2361 C2366 1.390 . S
C2362 C2356 1.465 . S
C2362 C2361 1.396 . S
C2362 C2363 1.399 . S
C2363 H2349 0.929 . S
C2363 C2362 1.399 . S
C2363 C2364 1.385 . S
C2364 H2350 0.931 . S
C2364 C2363 1.385 . S
C2364 C2365 1.389 . S
C2365 C2364 1.389 . S
C2365 C2366 1.387 . S
C2366 H2351 0.930 . S
C2366 C2361 1.390 . S
C2366 C2365 1.387 . S
H2367 C2379 0.930 . S
H2368 C2381 0.930 . S
H2369 C2382 0.930 . S
H2370 C2386 0.959 . S
H2371 C2386 0.959 . S
H2372 C2386 0.961 . S
H2373 C2387 0.960 . S
H2374 C2387 0.961 . S
H2375 C2387 0.959 . S
H2376 C2390 0.929 . S
H2377 C2391 0.931 . S
H2378 C2393 0.930 . S
C2379 H2367 0.930 . S
C2379 C2380 1.399 . S
C2379 C2384 1.399 . S
C2380 C2379 1.399 . S
C2380 C2381 1.376 . S
C2381 H2368 0.930 . S
C2381 C2380 1.376 . S
C2381 C2382 1.388 . S
C2382 H2369 0.930 . S
C2382 C2381 1.388 . S
C2382 C2383 1.390 . S
C2383 C2382 1.390 . S
C2383 C2384 1.394 . S
C2383 C2389 1.465 . S
C2384 C2379 1.399 . S
C2384 C2383 1.394 . S
C2384 C2385 1.516 . S
C2385 C2384 1.516 . S
C2385 C2386 1.502 . S
C2385 C2387 1.561 . S
C2385 C2388 1.526 . S
C2386 H2370 0.959 . S
C2386 H2371 0.959 . S
C2386 H2372 0.961 . S
C2386 C2385 1.502 . S
C2387 H2373 0.960 . S
C2387 H2374 0.961 . S
C2387 H2375 0.959 . S
C2387 C2385 1.561 . S
C2388 C2385 1.526 . S
C2388 C2389 1.396 . S
C2388 C2393 1.390 . S
C2389 C2383 1.465 . S
C2389 C2388 1.396 . S
C2389 C2390 1.399 . S
C2390 H2376 0.929 . S
C2390 C2389 1.399 . S
C2390 C2391 1.385 . S
C2391 H2377 0.931 . S
C2391 C2390 1.385 . S
C2391 C2392 1.389 . S
C2392 C2391 1.389 . S
C2392 C2393 1.387 . S
C2393 H2378 0.930 . S
C2393 C2388 1.390 . S
C2393 C2392 1.387 . S
H2394 C2406 0.930 . S
H2395 C2408 0.930 . S
H2396 C2409 0.930 . S
H2397 C2413 0.959 . S
H2398 C2413 0.959 . S
H2399 C2413 0.961 . S
H2400 C2414 0.960 . S
H2401 C2414 0.961 . S
H2402 C2414 0.959 . S
H2403 C2417 0.929 . S
H2404 C2418 0.931 . S
H2405 C2420 0.930 . S
C2406 H2394 0.930 . S
C2406 C2407 1.399 . S
C2406 C2411 1.399 . S
C2407 C2406 1.399 . S
C2407 C2408 1.376 . S
C2408 H2395 0.930 . S
C2408 C2407 1.376 . S
C2408 C2409 1.388 . S
C2409 H2396 0.930 . S
C2409 C2408 1.388 . S
C2409 C2410 1.390 . S
C2410 C2409 1.390 . S
C2410 C2411 1.394 . S
C2410 C2416 1.465 . S
C2411 C2406 1.399 . S
C2411 C2410 1.394 . S
C2411 C2412 1.516 . S
C2412 C2411 1.516 . S
C2412 C2413 1.502 . S
C2412 C2414 1.561 . S
C2412 C2415 1.526 . S
C2413 H2397 0.959 . S
C2413 H2398 0.959 . S
C2413 H2399 0.961 . S
C2413 C2412 1.502 . S
C2414 H2400 0.960 . S
C2414 H2401 0.961 . S
C2414 H2402 0.959 . S
C2414 C2412 1.561 . S
C2415 C2412 1.526 . S
C2415 C2416 1.396 . S
C2415 C2420 1.390 . S
C2416 C2410 1.465 . S
C2416 C2415 1.396 . S
C2416 C2417 1.399 . S
C2417 H2403 0.929 . S
C2417 C2416 1.399 . S
C2417 C2418 1.385 . S
C2418 H2404 0.931 . S
C2418 C2417 1.385 . S
C2418 C2419 1.389 . S
C2419 C2418 1.389 . S
C2419 C2420 1.387 . S
C2420 H2405 0.930 . S
C2420 C2415 1.390 . S
C2420 C2419 1.387 . S
H2421 C2433 0.930 . S
H2422 C2435 0.930 . S
H2423 C2436 0.930 . S
H2424 C2440 0.959 . S
H2425 C2440 0.959 . S
H2426 C2440 0.961 . S
H2427 C2441 0.960 . S
H2428 C2441 0.961 . S
H2429 C2441 0.959 . S
H2430 C2444 0.929 . S
H2431 C2445 0.931 . S
H2432 C2447 0.930 . S
C2433 H2421 0.930 . S
C2433 C2434 1.399 . S
C2433 C2438 1.399 . S
C2434 C2433 1.399 . S
C2434 C2435 1.376 . S
C2435 H2422 0.930 . S
C2435 C2434 1.376 . S
C2435 C2436 1.388 . S
C2436 H2423 0.930 . S
C2436 C2435 1.388 . S
C2436 C2437 1.390 . S
C2437 C2436 1.390 . S
C2437 C2438 1.394 . S
C2437 C2443 1.465 . S
C2438 C2433 1.399 . S
C2438 C2437 1.394 . S
C2438 C2439 1.516 . S
C2439 C2438 1.516 . S
C2439 C2440 1.502 . S
C2439 C2441 1.561 . S
C2439 C2442 1.526 . S
C2440 H2424 0.959 . S
C2440 H2425 0.959 . S
C2440 H2426 0.961 . S
C2440 C2439 1.502 . S
C2441 H2427 0.960 . S
C2441 H2428 0.961 . S
C2441 H2429 0.959 . S
C2441 C2439 1.561 . S
C2442 C2439 1.526 . S
C2442 C2443 1.396 . S
C2442 C2447 1.390 . S
C2443 C2437 1.465 . S
C2443 C2442 1.396 . S
C2443 C2444 1.399 . S
C2444 H2430 0.929 . S
C2444 C2443 1.399 . S
C2444 C2445 1.385 . S
C2445 H2431 0.931 . S
C2445 C2444 1.385 . S
C2445 C2446 1.389 . S
C2446 C2445 1.389 . S
C2446 C2447 1.387 . S
C2447 H2432 0.930 . S
C2447 C2442 1.390 . S
C2447 C2446 1.387 . S
H2448 C2460 0.930 . S
H2449 C2462 0.930 . S
H2450 C2463 0.930 . S
H2451 C2467 0.959 . S
H2452 C2467 0.959 . S
H2453 C2467 0.961 . S
H2454 C2468 0.960 . S
H2455 C2468 0.961 . S
H2456 C2468 0.959 . S
H2457 C2471 0.929 . S
H2458 C2472 0.931 . S
H2459 C2474 0.930 . S
C2460 H2448 0.930 . S
C2460 C2461 1.399 . S
C2460 C2465 1.399 . S
C2461 C2460 1.399 . S
C2461 C2462 1.376 . S
C2462 H2449 0.930 . S
C2462 C2461 1.376 . S
C2462 C2463 1.388 . S
C2463 H2450 0.930 . S
C2463 C2462 1.388 . S
C2463 C2464 1.390 . S
C2464 C2463 1.390 . S
C2464 C2465 1.394 . S
C2464 C2470 1.465 . S
C2465 C2460 1.399 . S
C2465 C2464 1.394 . S
C2465 C2466 1.516 . S
C2466 C2465 1.516 . S
C2466 C2467 1.502 . S
C2466 C2468 1.561 . S
C2466 C2469 1.526 . S
C2467 H2451 0.959 . S
C2467 H2452 0.959 . S
C2467 H2453 0.961 . S
C2467 C2466 1.502 . S
C2468 H2454 0.960 . S
C2468 H2455 0.961 . S
C2468 H2456 0.959 . S
C2468 C2466 1.561 . S
C2469 C2466 1.526 . S
C2469 C2470 1.396 . S
C2469 C2474 1.390 . S
C2470 C2464 1.465 . S
C2470 C2469 1.396 . S
C2470 C2471 1.399 . S
C2471 H2457 0.929 . S
C2471 C2470 1.399 . S
C2471 C2472 1.385 . S
C2472 H2458 0.931 . S
C2472 C2471 1.385 . S
C2472 C2473 1.389 . S
C2473 C2472 1.389 . S
C2473 C2474 1.387 . S
C2474 H2459 0.930 . S
C2474 C2469 1.390 . S
C2474 C2473 1.387 . S
H2475 C2487 0.930 . S
H2476 C2489 0.930 . S
H2477 C2490 0.930 . S
H2478 C2494 0.959 . S
H2479 C2494 0.959 . S
H2480 C2494 0.961 . S
H2481 C2495 0.960 . S
H2482 C2495 0.961 . S
H2483 C2495 0.959 . S
H2484 C2498 0.929 . S
H2485 C2499 0.931 . S
H2486 C2501 0.930 . S
C2487 H2475 0.930 . S
C2487 C2488 1.399 . S
C2487 C2492 1.399 . S
C2488 C2487 1.399 . S
C2488 C2489 1.376 . S
C2489 H2476 0.930 . S
C2489 C2488 1.376 . S
C2489 C2490 1.388 . S
C2490 H2477 0.930 . S
C2490 C2489 1.388 . S
C2490 C2491 1.390 . S
C2491 C2490 1.390 . S
C2491 C2492 1.394 . S
C2491 C2497 1.465 . S
C2492 C2487 1.399 . S
C2492 C2491 1.394 . S
C2492 C2493 1.516 . S
C2493 C2492 1.516 . S
C2493 C2494 1.502 . S
C2493 C2495 1.561 . S
C2493 C2496 1.526 . S
C2494 H2478 0.959 . S
C2494 H2479 0.959 . S
C2494 H2480 0.961 . S
C2494 C2493 1.502 . S
C2495 H2481 0.960 . S
C2495 H2482 0.961 . S
C2495 H2483 0.959 . S
C2495 C2493 1.561 . S
C2496 C2493 1.526 . S
C2496 C2497 1.396 . S
C2496 C2501 1.390 . S
C2497 C2491 1.465 . S
C2497 C2496 1.396 . S
C2497 C2498 1.399 . S
C2498 H2484 0.929 . S
C2498 C2497 1.399 . S
C2498 C2499 1.385 . S
C2499 H2485 0.931 . S
C2499 C2498 1.385 . S
C2499 C2500 1.389 . S
C2500 C2499 1.389 . S
C2500 C2501 1.387 . S
C2501 H2486 0.930 . S
C2501 C2496 1.390 . S
C2501 C2500 1.387 . S
H2502 C2514 0.930 . S
H2503 C2516 0.930 . S
H2504 C2517 0.930 . S
H2505 C2521 0.959 . S
H2506 C2521 0.959 . S
H2507 C2521 0.961 . S
H2508 C2522 0.960 . S
H2509 C2522 0.961 . S
H2510 C2522 0.959 . S
H2511 C2525 0.929 . S
H2512 C2526 0.931 . S
H2513 C2528 0.930 . S
C2514 H2502 0.930 . S
C2514 C2515 1.399 . S
C2514 C2519 1.399 . S
C2515 C2514 1.399 . S
C2515 C2516 1.376 . S
C2516 H2503 0.930 . S
C2516 C2515 1.376 . S
C2516 C2517 1.388 . S
C2517 H2504 0.930 . S
C2517 C2516 1.388 . S
C2517 C2518 1.390 . S
C2518 C2517 1.390 . S
C2518 C2519 1.394 . S
C2518 C2524 1.465 . S
C2519 C2514 1.399 . S
C2519 C2518 1.394 . S
C2519 C2520 1.516 . S
C2520 C2519 1.516 . S
C2520 C2521 1.502 . S
C2520 C2522 1.561 . S
C2520 C2523 1.526 . S
C2521 H2505 0.959 . S
C2521 H2506 0.959 . S
C2521 H2507 0.961 . S
C2521 C2520 1.502 . S
C2522 H2508 0.960 . S
C2522 H2509 0.961 . S
C2522 H2510 0.959 . S
C2522 C2520 1.561 . S
C2523 C2520 1.526 . S
C2523 C2524 1.396 . S
C2523 C2528 1.390 . S
C2524 C2518 1.465 . S
C2524 C2523 1.396 . S
C2524 C2525 1.399 . S
C2525 H2511 0.929 . S
C2525 C2524 1.399 . S
C2525 C2526 1.385 . S
C2526 H2512 0.931 . S
C2526 C2525 1.385 . S
C2526 C2527 1.389 . S
C2527 C2526 1.389 . S
C2527 C2528 1.387 . S
C2528 H2513 0.930 . S
C2528 C2523 1.390 . S
C2528 C2527 1.387 . S
H2529 C2541 0.930 1_655 S
H2530 C2543 0.930 . S
H2531 C2544 0.930 . S
H2532 C2548 0.959 . S
H2533 C2548 0.959 . S
H2534 C2548 0.961 . S
H2535 C2549 0.960 . S
H2536 C2549 0.952 1_655 S
H2537 C2549 0.959 . S
H2538 C2552 0.929 . S
H2539 C2553 0.931 . S
H2540 C2555 0.930 . S
C2541 H2529 0.930 1_455 S
C2541 C2542 1.399 . S
C2541 C2546 1.399 . S
C2542 C2541 1.399 . S
C2542 C2543 1.376 . S
C2543 H2530 0.930 . S
C2543 C2542 1.376 . S
C2543 C2544 1.388 . S
C2544 H2531 0.930 . S
C2544 C2543 1.388 . S
C2544 C2545 1.390 . S
C2545 C2544 1.390 . S
C2545 C2546 1.394 . S
C2545 C2551 1.465 . S
C2546 C2541 1.399 . S
C2546 C2545 1.394 . S
C2546 C2547 1.516 1_455 S
C2547 C2546 1.516 1_655 S
C2547 C2548 1.502 . S
C2547 C2549 1.561 1_655 S
C2547 C2550 1.526 1_655 S
C2548 H2532 0.959 . S
C2548 H2533 0.959 . S
C2548 H2534 0.961 . S
C2548 C2547 1.502 . S
C2549 H2535 0.960 . S
C2549 H2536 0.952 1_455 S
C2549 H2537 0.959 . S
C2549 C2547 1.561 1_455 S
C2550 C2547 1.526 1_455 S
C2550 C2551 1.396 . S
C2550 C2555 1.390 1_455 S
C2551 C2545 1.465 . S
C2551 C2550 1.396 . S
C2551 C2552 1.399 . S
C2552 H2538 0.929 . S
C2552 C2551 1.399 . S
C2552 C2553 1.385 . S
C2553 H2539 0.931 . S
C2553 C2552 1.385 . S
C2553 C2554 1.389 . S
C2554 C2553 1.389 . S
C2554 C2555 1.387 1_455 S
C2555 H2540 0.930 . S
C2555 C2550 1.390 1_655 S
C2555 C2554 1.387 1_655 S
H2556 C2568 0.930 . S
H2557 C2570 0.930 . S
H2558 C2571 0.930 . S
H2559 C2575 0.959 . S
H2560 C2575 0.959 . S
H2561 C2575 0.961 . S
H2562 C2576 0.960 . S
H2563 C2576 0.961 . S
H2564 C2576 0.959 . S
H2565 C2579 0.929 . S
H2566 C2580 0.931 . S
H2567 C2582 0.930 . S
C2568 H2556 0.930 . S
C2568 C2569 1.399 . S
C2568 C2573 1.399 . S
C2569 C2568 1.399 . S
C2569 C2570 1.376 . S
C2570 H2557 0.930 . S
C2570 C2569 1.376 . S
C2570 C2571 1.388 . S
C2571 H2558 0.930 . S
C2571 C2570 1.388 . S
C2571 C2572 1.390 . S
C2572 C2571 1.390 . S
C2572 C2573 1.394 . S
C2572 C2578 1.465 . S
C2573 C2568 1.399 . S
C2573 C2572 1.394 . S
C2573 C2574 1.516 . S
C2574 C2573 1.516 . S
C2574 C2575 1.502 . S
C2574 C2576 1.561 . S
C2574 C2577 1.526 . S
C2575 H2559 0.959 . S
C2575 H2560 0.959 . S
C2575 H2561 0.961 . S
C2575 C2574 1.502 . S
C2576 H2562 0.960 . S
C2576 H2563 0.961 . S
C2576 H2564 0.959 . S
C2576 C2574 1.561 . S
C2577 C2574 1.526 . S
C2577 C2578 1.396 . S
C2577 C2582 1.390 . S
C2578 C2572 1.465 . S
C2578 C2577 1.396 . S
C2578 C2579 1.399 . S
C2579 H2565 0.929 . S
C2579 C2578 1.399 . S
C2579 C2580 1.385 . S
C2580 H2566 0.931 . S
C2580 C2579 1.385 . S
C2580 C2581 1.389 . S
C2581 C2580 1.389 . S
C2581 C2582 1.387 . S
C2582 H2567 0.930 . S
C2582 C2577 1.390 . S
C2582 C2581 1.387 . S
H2583 C2595 0.930 . S
H2584 C2597 0.930 . S
H2585 C2598 0.930 . S
H2586 C2602 0.959 . S
H2587 C2602 0.959 . S
H2588 C2602 0.961 . S
H2589 C2603 0.960 . S
H2590 C2603 0.961 . S
H2591 C2603 0.959 . S
H2592 C2606 0.929 . S
H2593 C2607 0.931 . S
H2594 C2609 0.930 . S
C2595 H2583 0.930 . S
C2595 C2596 1.399 . S
C2595 C2600 1.399 . S
C2596 C2595 1.399 . S
C2596 C2597 1.376 . S
C2597 H2584 0.930 . S
C2597 C2596 1.376 . S
C2597 C2598 1.388 . S
C2598 H2585 0.930 . S
C2598 C2597 1.388 . S
C2598 C2599 1.390 . S
C2599 C2598 1.390 . S
C2599 C2600 1.394 . S
C2599 C2605 1.465 . S
C2600 C2595 1.399 . S
C2600 C2599 1.394 . S
C2600 C2601 1.516 . S
C2601 C2600 1.516 . S
C2601 C2602 1.502 . S
C2601 C2603 1.561 . S
C2601 C2604 1.526 . S
C2602 H2586 0.959 . S
C2602 H2587 0.959 . S
C2602 H2588 0.961 . S
C2602 C2601 1.502 . S
C2603 H2589 0.960 . S
C2603 H2590 0.961 . S
C2603 H2591 0.959 . S
C2603 C2601 1.561 . S
C2604 C2601 1.526 . S
C2604 C2605 1.396 . S
C2604 C2609 1.390 . S
C2605 C2599 1.465 . S
C2605 C2604 1.396 . S
C2605 C2606 1.399 . S
C2606 H2592 0.929 . S
C2606 C2605 1.399 . S
C2606 C2607 1.385 . S
C2607 H2593 0.931 . S
C2607 C2606 1.385 . S
C2607 C2608 1.389 . S
C2608 C2607 1.389 . S
C2608 C2609 1.387 . S
C2609 H2594 0.930 . S
C2609 C2604 1.390 . S
C2609 C2608 1.387 . S
H2610 C2622 0.930 . S
H2611 C2624 0.930 . S
H2612 C2625 0.930 . S
H2613 C2629 0.959 . S
H2614 C2629 0.959 . S
H2615 C2629 0.961 . S
H2616 C2630 0.960 . S
H2617 C2630 0.961 . S
H2618 C2630 0.959 . S
H2619 C2633 0.929 . S
H2620 C2634 0.931 1_554 S
H2621 C2636 0.930 . S
C2622 H2610 0.930 . S
C2622 C2623 1.399 . S
C2622 C2627 1.399 . S
C2623 C2622 1.399 . S
C2623 C2624 1.376 1_556 S
C2624 H2611 0.930 . S
C2624 C2623 1.376 1_554 S
C2624 C2625 1.388 . S
C2625 H2612 0.930 . S
C2625 C2624 1.388 . S
C2625 C2626 1.390 1_554 S
C2626 C2625 1.390 1_556 S
C2626 C2627 1.394 . S
C2626 C2632 1.465 . S
C2627 C2622 1.399 . S
C2627 C2626 1.394 . S
C2627 C2628 1.516 . S
C2628 C2627 1.516 . S
C2628 C2629 1.502 . S
C2628 C2630 1.561 . S
C2628 C2631 1.526 . S
C2629 H2613 0.959 . S
C2629 H2614 0.959 . S
C2629 H2615 0.961 . S
C2629 C2628 1.502 . S
C2630 H2616 0.960 . S
C2630 H2617 0.961 . S
C2630 H2618 0.959 . S
C2630 C2628 1.561 . S
C2631 C2628 1.526 . S
C2631 C2632 1.396 . S
C2631 C2636 1.390 . S
C2632 C2626 1.465 . S
C2632 C2631 1.396 . S
C2632 C2633 1.399 1_556 S
C2633 H2619 0.929 . S
C2633 C2632 1.399 1_554 S
C2633 C2634 1.385 1_554 S
C2634 H2620 0.931 1_556 S
C2634 C2633 1.385 1_556 S
C2634 C2635 1.389 . S
C2635 C2634 1.389 . S
C2635 C2636 1.387 . S
C2636 H2621 0.930 . S
C2636 C2631 1.390 . S
C2636 C2635 1.387 . S
H2637 C2649 0.930 . S
H2638 C2651 0.930 . S
H2639 C2652 0.930 . S
H2640 C2656 0.959 . S
H2641 C2656 0.959 . S
H2642 C2656 0.961 . S
H2643 C2657 0.960 . S
H2644 C2657 0.961 . S
H2645 C2657 0.959 . S
H2646 C2660 0.929 . S
H2647 C2661 0.931 . S
H2648 C2663 0.930 . S
C2649 H2637 0.930 . S
C2649 C2650 1.399 . S
C2649 C2654 1.399 . S
C2650 C2649 1.399 . S
C2650 C2651 1.376 . S
C2651 H2638 0.930 . S
C2651 C2650 1.376 . S
C2651 C2652 1.388 . S
C2652 H2639 0.930 . S
C2652 C2651 1.388 . S
C2652 C2653 1.390 . S
C2653 C2652 1.390 . S
C2653 C2654 1.394 . S
C2653 C2659 1.465 . S
C2654 C2649 1.399 . S
C2654 C2653 1.394 . S
C2654 C2655 1.516 . S
C2655 C2654 1.516 . S
C2655 C2656 1.502 . S
C2655 C2657 1.561 . S
C2655 C2658 1.526 . S
C2656 H2640 0.959 . S
C2656 H2641 0.959 . S
C2656 H2642 0.961 . S
C2656 C2655 1.502 . S
C2657 H2643 0.960 . S
C2657 H2644 0.961 . S
C2657 H2645 0.959 . S
C2657 C2655 1.561 . S
C2658 C2655 1.526 . S
C2658 C2659 1.396 . S
C2658 C2663 1.390 . S
C2659 C2653 1.465 . S
C2659 C2658 1.396 . S
C2659 C2660 1.399 . S
C2660 H2646 0.929 . S
C2660 C2659 1.399 . S
C2660 C2661 1.385 . S
C2661 H2647 0.931 . S
C2661 C2660 1.385 . S
C2661 C2662 1.389 . S
C2662 C2661 1.389 . S
C2662 C2663 1.387 . S
C2663 H2648 0.930 . S
C2663 C2658 1.390 . S
C2663 C2662 1.387 . S
H2664 C2676 0.930 . S
H2665 C2678 0.897 1_655 S
H2666 C2679 0.930 1_655 S
H2667 C2683 0.959 . S
H2668 C2683 0.959 . S
H2669 C2683 0.961 . S
H2670 C2684 0.960 . S
H2671 C2684 0.961 . S
H2672 C2684 0.959 . S
H2673 C2687 0.929 . S
H2674 C2688 0.931 . S
H2675 C2690 0.930 . S
C2676 H2664 0.930 . S
C2676 C2677 1.399 . S
C2676 C2681 1.399 . S
C2677 C2676 1.399 . S
C2677 C2678 1.404 . S
C2678 H2665 0.897 1_455 S
C2678 C2677 1.404 . S
C2678 C2679 1.395 . S
C2679 H2666 0.930 1_455 S
C2679 C2678 1.395 . S
C2679 C2680 1.390 . S
C2680 C2679 1.390 . S
C2680 C2681 1.394 . S
C2680 C2686 1.465 . S
C2681 C2676 1.399 . S
C2681 C2680 1.394 . S
C2681 C2682 1.516 . S
C2682 C2681 1.516 . S
C2682 C2683 1.502 . S
C2682 C2684 1.561 . S
C2682 C2685 1.526 . S
C2683 H2667 0.959 . S
C2683 H2668 0.959 . S
C2683 H2669 0.961 . S
C2683 C2682 1.502 . S
C2684 H2670 0.960 . S
C2684 H2671 0.961 . S
C2684 H2672 0.959 . S
C2684 C2682 1.561 . S
C2685 C2682 1.526 . S
C2685 C2686 1.396 . S
C2685 C2690 1.390 . S
C2686 C2680 1.465 . S
C2686 C2685 1.396 . S
C2686 C2687 1.399 . S
C2687 H2673 0.929 . S
C2687 C2686 1.399 . S
C2687 C2688 1.385 . S
C2688 H2674 0.931 . S
C2688 C2687 1.385 . S
C2688 C2689 1.389 . S
C2689 C2688 1.389 . S
C2689 C2690 1.387 . S
C2690 H2675 0.930 . S
C2690 C2685 1.390 . S
C2690 C2689 1.387 . S
H2691 C2703 0.930 . S
H2692 C2705 0.930 . S
H2693 C2706 0.930 . S
H2694 C2710 0.959 . S
H2695 C2710 0.959 . S
H2696 C2710 0.961 . S
H2697 C2711 0.960 . S
H2698 C2711 0.961 . S
H2699 C2711 0.959 . S
H2700 C2714 0.929 . S
H2701 C2715 0.931 . S
H2702 C2717 0.930 . S
C2703 H2691 0.930 . S
C2703 C2704 1.399 . S
C2703 C2708 1.399 . S
C2704 C2703 1.399 . S
C2704 C2705 1.376 . S
C2705 H2692 0.930 . S
C2705 C2704 1.376 . S
C2705 C2706 1.388 . S
C2706 H2693 0.930 . S
C2706 C2705 1.388 . S
C2706 C2707 1.390 . S
C2707 C2706 1.390 . S
C2707 C2708 1.394 . S
C2707 C2713 1.465 . S
C2708 C2703 1.399 . S
C2708 C2707 1.394 . S
C2708 C2709 1.516 . S
C2709 C2708 1.516 . S
C2709 C2710 1.502 . S
C2709 C2711 1.561 . S
C2709 C2712 1.526 . S
C2710 H2694 0.959 . S
C2710 H2695 0.959 . S
C2710 H2696 0.961 . S
C2710 C2709 1.502 . S
C2711 H2697 0.960 . S
C2711 H2698 0.961 . S
C2711 H2699 0.959 . S
C2711 C2709 1.561 . S
C2712 C2709 1.526 . S
C2712 C2713 1.396 . S
C2712 C2717 1.390 . S
C2713 C2707 1.465 . S
C2713 C2712 1.396 . S
C2713 C2714 1.399 . S
C2714 H2700 0.929 . S
C2714 C2713 1.399 . S
C2714 C2715 1.385 . S
C2715 H2701 0.931 . S
C2715 C2714 1.385 . S
C2715 C2716 1.389 . S
C2716 C2715 1.389 . S
C2716 C2717 1.387 . S
C2717 H2702 0.930 . S
C2717 C2712 1.390 . S
C2717 C2716 1.387 . S
H2718 C2730 0.930 . S
H2719 C2732 0.930 . S
H2720 C2733 0.930 . S
H2721 C2737 0.959 . S
H2722 C2737 0.959 . S
H2723 C2737 0.961 . S
H2724 C2738 0.960 . S
H2725 C2738 0.961 . S
H2726 C2738 0.959 . S
H2727 C2741 0.929 . S
H2728 C2742 0.931 . S
H2729 C2744 0.930 . S
C2730 H2718 0.930 . S
C2730 C2731 1.399 . S
C2730 C2735 1.399 . S
C2731 C2730 1.399 . S
C2731 C2732 1.376 . S
C2732 H2719 0.930 . S
C2732 C2731 1.376 . S
C2732 C2733 1.388 . S
C2733 H2720 0.930 . S
C2733 C2732 1.388 . S
C2733 C2734 1.390 . S
C2734 C2733 1.390 . S
C2734 C2735 1.394 . S
C2734 C2740 1.465 . S
C2735 C2730 1.399 . S
C2735 C2734 1.394 . S
C2735 C2736 1.516 . S
C2736 C2735 1.516 . S
C2736 C2737 1.502 . S
C2736 C2738 1.561 . S
C2736 C2739 1.526 . S
C2737 H2721 0.959 . S
C2737 H2722 0.959 . S
C2737 H2723 0.961 . S
C2737 C2736 1.502 . S
C2738 H2724 0.960 . S
C2738 H2725 0.961 . S
C2738 H2726 0.959 . S
C2738 C2736 1.561 . S
C2739 C2736 1.526 . S
C2739 C2740 1.396 . S
C2739 C2744 1.390 . S
C2740 C2734 1.465 . S
C2740 C2739 1.396 . S
C2740 C2741 1.399 . S
C2741 H2727 0.929 . S
C2741 C2740 1.399 . S
C2741 C2742 1.385 . S
C2742 H2728 0.931 . S
C2742 C2741 1.385 . S
C2742 C2743 1.389 . S
C2743 C2742 1.389 . S
C2743 C2744 1.387 . S
C2744 H2729 0.930 . S
C2744 C2739 1.390 . S
C2744 C2743 1.387 . S
H2745 C2757 0.930 . S
H2746 C2759 0.930 . S
H2747 C2760 0.930 . S
H2748 C2764 0.959 . S
H2749 C2764 0.959 . S
H2750 C2764 0.961 . S
H2751 C2765 0.960 . S
H2752 C2765 0.961 . S
H2753 C2765 0.959 . S
H2754 C2768 0.929 . S
H2755 C2769 0.931 . S
H2756 C2771 0.930 . S
C2757 H2745 0.930 . S
C2757 C2758 1.399 . S
C2757 C2762 1.399 . S
C2758 C2757 1.399 . S
C2758 C2759 1.376 . S
C2759 H2746 0.930 . S
C2759 C2758 1.376 . S
C2759 C2760 1.388 . S
C2760 H2747 0.930 . S
C2760 C2759 1.388 . S
C2760 C2761 1.390 . S
C2761 C2760 1.390 . S
C2761 C2762 1.394 . S
C2761 C2767 1.465 . S
C2762 C2757 1.399 . S
C2762 C2761 1.394 . S
C2762 C2763 1.516 . S
C2763 C2762 1.516 . S
C2763 C2764 1.502 . S
C2763 C2765 1.561 . S
C2763 C2766 1.526 . S
C2764 H2748 0.959 . S
C2764 H2749 0.959 . S
C2764 H2750 0.961 . S
C2764 C2763 1.502 . S
C2765 H2751 0.960 . S
C2765 H2752 0.961 . S
C2765 H2753 0.959 . S
C2765 C2763 1.561 . S
C2766 C2763 1.526 . S
C2766 C2767 1.396 . S
C2766 C2771 1.390 . S
C2767 C2761 1.465 . S
C2767 C2766 1.396 . S
C2767 C2768 1.399 . S
C2768 H2754 0.929 . S
C2768 C2767 1.399 . S
C2768 C2769 1.385 . S
C2769 H2755 0.931 . S
C2769 C2768 1.385 . S
C2769 C2770 1.389 . S
C2770 C2769 1.389 . S
C2770 C2771 1.387 . S
C2771 H2756 0.930 . S
C2771 C2766 1.390 . S
C2771 C2770 1.387 . S
H2772 C2784 0.930 1_565 S
H2773 C2786 0.930 . S
H2774 C2787 0.930 . S
H2775 C2791 0.959 1_545 S
H2776 C2791 0.959 . S
H2777 C2791 0.961 . S
H2778 C2792 0.960 . S
H2779 C2792 0.961 . S
H2780 C2792 0.971 . S
H2781 C2795 0.929 . S
H2782 C2796 0.931 . S
H2783 C2798 0.930 . S
C2784 H2772 0.930 1_545 S
C2784 C2785 1.399 . S
C2784 C2789 1.399 . S
C2785 C2784 1.399 . S
C2785 C2786 1.376 . S
C2786 H2773 0.930 . S
C2786 C2785 1.376 . S
C2786 C2787 1.388 . S
C2787 H2774 0.930 . S
C2787 C2786 1.388 . S
C2787 C2788 1.390 . S
C2788 C2787 1.390 . S
C2788 C2789 1.394 . S
C2788 C2794 1.465 . S
C2789 C2784 1.399 . S
C2789 C2788 1.394 . S
C2789 C2790 1.516 . S
C2790 C2789 1.516 . S
C2790 C2791 1.502 1_545 S
C2790 C2792 1.561 1_545 S
C2790 C2793 1.526 . S
C2791 H2775 0.959 1_565 S
C2791 H2776 0.959 . S
C2791 H2777 0.961 . S
C2791 C2790 1.502 1_565 S
C2792 H2778 0.960 . S
C2792 H2779 0.961 . S
C2792 H2780 0.971 . S
C2792 C2790 1.561 1_565 S
C2793 C2790 1.526 . S
C2793 C2794 1.396 . S
C2793 C2798 1.390 . S
C2794 C2788 1.465 . S
C2794 C2793 1.396 . S
C2794 C2795 1.399 . S
C2795 H2781 0.929 . S
C2795 C2794 1.399 . S
C2795 C2796 1.385 . S
C2796 H2782 0.931 . S
C2796 C2795 1.385 . S
C2796 C2797 1.389 . S
C2797 C2796 1.389 . S
C2797 C2798 1.387 . S
C2798 H2783 0.930 . S
C2798 C2793 1.390 . S
C2798 C2797 1.387 . S
H2799 C2811 0.930 . S
H2800 C2813 0.930 . S
H2801 C2814 0.930 . S
H2802 C2818 0.959 . S
H2803 C2818 0.959 . S
H2804 C2818 0.961 . S
H2805 C2819 0.960 1_565 S
H2806 C2819 0.961 1_565 S
H2807 C2819 0.965 . S
H2808 C2822 0.929 . S
H2809 C2823 0.931 . S
H2810 C2825 0.930 . S
C2811 H2799 0.930 . S
C2811 C2812 1.399 . S
C2811 C2816 1.399 . S
C2812 C2811 1.399 . S
C2812 C2813 1.376 . S
C2813 H2800 0.930 . S
C2813 C2812 1.376 . S
C2813 C2814 1.388 . S
C2814 H2801 0.930 . S
C2814 C2813 1.388 . S
C2814 C2815 1.390 . S
C2815 C2814 1.390 . S
C2815 C2816 1.394 . S
C2815 C2821 1.465 . S
C2816 C2811 1.399 . S
C2816 C2815 1.394 . S
C2816 C2817 1.516 . S
C2817 C2816 1.516 . S
C2817 C2818 1.502 . S
C2817 C2819 1.561 . S
C2817 C2820 1.526 . S
C2818 H2802 0.959 . S
C2818 H2803 0.959 . S
C2818 H2804 0.961 . S
C2818 C2817 1.502 . S
C2819 H2805 0.960 1_545 S
C2819 H2806 0.961 1_545 S
C2819 H2807 0.965 . S
C2819 C2817 1.561 . S
C2820 C2817 1.526 . S
C2820 C2821 1.396 . S
C2820 C2825 1.390 . S
C2821 C2815 1.465 . S
C2821 C2820 1.396 . S
C2821 C2822 1.399 . S
C2822 H2808 0.929 . S
C2822 C2821 1.399 . S
C2822 C2823 1.385 . S
C2823 H2809 0.931 . S
C2823 C2822 1.385 . S
C2823 C2824 1.389 . S
C2824 C2823 1.389 . S
C2824 C2825 1.387 . S
C2825 H2810 0.930 . S
C2825 C2820 1.390 . S
C2825 C2824 1.387 . S
H2826 C2838 0.930 . S
H2827 C2840 0.930 . S
H2828 C2841 0.930 . S
H2829 C2845 0.959 . S
H2830 C2845 0.959 . S
H2831 C2845 0.961 . S
H2832 C2846 0.960 . S
H2833 C2846 0.961 . S
H2834 C2846 0.959 . S
H2835 C2849 0.929 1_545 S
H2836 C2850 0.931 . S
H2837 C2852 0.930 . S
C2838 H2826 0.930 . S
C2838 C2839 1.399 . S
C2838 C2843 1.399 . S
C2839 C2838 1.399 . S
C2839 C2840 1.376 1_565 S
C2840 H2827 0.930 . S
C2840 C2839 1.376 1_545 S
C2840 C2841 1.388 . S
C2841 H2828 0.930 . S
C2841 C2840 1.388 . S
C2841 C2842 1.390 1_545 S
C2842 C2841 1.390 1_565 S
C2842 C2843 1.394 . S
C2842 C2848 1.465 . S
C2843 C2838 1.399 . S
C2843 C2842 1.394 . S
C2843 C2844 1.516 . S
C2844 C2843 1.516 . S
C2844 C2845 1.502 . S
C2844 C2846 1.561 . S
C2844 C2847 1.526 . S
C2845 H2829 0.959 . S
C2845 H2830 0.959 . S
C2845 H2831 0.961 . S
C2845 C2844 1.502 . S
C2846 H2832 0.960 . S
C2846 H2833 0.961 . S
C2846 H2834 0.959 . S
C2846 C2844 1.561 . S
C2847 C2844 1.526 . S
C2847 C2848 1.396 . S
C2847 C2852 1.390 . S
C2848 C2842 1.465 . S
C2848 C2847 1.396 . S
C2848 C2849 1.399 . S
C2849 H2835 0.929 1_565 S
C2849 C2848 1.399 . S
C2849 C2850 1.385 . S
C2850 H2836 0.931 . S
C2850 C2849 1.385 . S
C2850 C2851 1.389 . S
C2851 C2850 1.389 . S
C2851 C2852 1.387 . S
C2852 H2837 0.930 . S
C2852 C2847 1.390 . S
C2852 C2851 1.387 . S
H2853 C2865 0.930 . S
H2854 C2867 0.930 . S
H2855 C2868 0.930 . S
H2856 C2872 0.959 . S
H2857 C2872 0.959 . S
H2858 C2872 0.961 . S
H2859 C2873 0.960 . S
H2860 C2873 0.961 . S
H2861 C2873 0.959 . S
H2862 C2876 0.929 . S
H2863 C2877 0.931 . S
H2864 C2879 0.930 . S
C2865 H2853 0.930 . S
C2865 C2866 1.399 . S
C2865 C2870 1.399 . S
C2866 C2865 1.399 . S
C2866 C2867 1.376 . S
C2867 H2854 0.930 . S
C2867 C2866 1.376 . S
C2867 C2868 1.388 . S
C2868 H2855 0.930 . S
C2868 C2867 1.388 . S
C2868 C2869 1.390 . S
C2869 C2868 1.390 . S
C2869 C2870 1.394 . S
C2869 C2875 1.465 . S
C2870 C2865 1.399 . S
C2870 C2869 1.394 . S
C2870 C2871 1.516 . S
C2871 C2870 1.516 . S
C2871 C2872 1.502 . S
C2871 C2873 1.561 . S
C2871 C2874 1.526 . S
C2872 H2856 0.959 . S
C2872 H2857 0.959 . S
C2872 H2858 0.961 . S
C2872 C2871 1.502 . S
C2873 H2859 0.960 . S
C2873 H2860 0.961 . S
C2873 H2861 0.959 . S
C2873 C2871 1.561 . S
C2874 C2871 1.526 . S
C2874 C2875 1.396 . S
C2874 C2879 1.390 . S
C2875 C2869 1.465 . S
C2875 C2874 1.396 . S
C2875 C2876 1.399 . S
C2876 H2862 0.929 . S
C2876 C2875 1.399 . S
C2876 C2877 1.385 . S
C2877 H2863 0.931 . S
C2877 C2876 1.385 . S
C2877 C2878 1.389 . S
C2878 C2877 1.389 . S
C2878 C2879 1.387 . S
C2879 H2864 0.930 . S
C2879 C2874 1.390 . S
C2879 C2878 1.387 . S
H2880 C2892 0.930 . S
H2881 C2894 0.930 . S
H2882 C2895 0.930 . S
H2883 C2899 0.944 1_556 S
H2884 C2899 0.959 . S
H2885 C2899 0.961 . S
H2886 C2900 0.960 . S
H2887 C2900 0.961 . S
H2888 C2900 0.959 . S
H2889 C2903 0.929 . S
H2890 C2904 0.931 . S
H2891 C2906 0.930 . S
C2892 H2880 0.930 . S
C2892 C2893 1.399 . S
C2892 C2897 1.399 . S
C2893 C2892 1.399 . S
C2893 C2894 1.376 . S
C2894 H2881 0.930 . S
C2894 C2893 1.376 . S
C2894 C2895 1.388 . S
C2895 H2882 0.930 . S
C2895 C2894 1.388 . S
C2895 C2896 1.390 . S
C2896 C2895 1.390 . S
C2896 C2897 1.394 . S
C2896 C2902 1.465 . S
C2897 C2892 1.399 . S
C2897 C2896 1.394 . S
C2897 C2898 1.516 . S
C2898 C2897 1.516 . S
C2898 C2899 1.502 . S
C2898 C2900 1.561 . S
C2898 C2901 1.526 . S
C2899 H2883 0.944 1_554 S
C2899 H2884 0.959 . S
C2899 H2885 0.961 . S
C2899 C2898 1.502 . S
C2900 H2886 0.960 . S
C2900 H2887 0.961 . S
C2900 H2888 0.959 . S
C2900 C2898 1.561 . S
C2901 C2898 1.526 . S
C2901 C2902 1.396 . S
C2901 C2906 1.390 . S
C2902 C2896 1.465 . S
C2902 C2901 1.396 . S
C2902 C2903 1.399 . S
C2903 H2889 0.929 . S
C2903 C2902 1.399 . S
C2903 C2904 1.385 . S
C2904 H2890 0.931 . S
C2904 C2903 1.385 . S
C2904 C2905 1.389 . S
C2905 C2904 1.389 . S
C2905 C2906 1.387 . S
C2906 H2891 0.930 . S
C2906 C2901 1.390 . S
C2906 C2905 1.387 . S
H2907 C2919 0.930 . S
H2908 C2921 0.930 . S
H2909 C2922 0.930 . S
H2910 C2926 0.959 1_554 S
H2911 C2926 0.959 . S
H2912 C2926 0.961 . S
H2913 C2927 0.960 . S
H2914 C2927 0.961 . S
H2915 C2927 0.959 . S
H2916 C2930 0.929 . S
H2917 C2931 0.931 . S
H2918 C2933 0.930 . S
C2919 H2907 0.930 . S
C2919 C2920 1.399 . S
C2919 C2924 1.399 . S
C2920 C2919 1.399 . S
C2920 C2921 1.376 . S
C2921 H2908 0.930 . S
C2921 C2920 1.376 . S
C2921 C2922 1.388 . S
C2922 H2909 0.930 . S
C2922 C2921 1.388 . S
C2922 C2923 1.390 . S
C2923 C2922 1.390 . S
C2923 C2924 1.394 . S
C2923 C2929 1.465 . S
C2924 C2919 1.399 . S
C2924 C2923 1.394 . S
C2924 C2925 1.516 . S
C2925 C2924 1.516 . S
C2925 C2926 1.502 . S
C2925 C2927 1.561 . S
C2925 C2928 1.526 . S
C2926 H2910 0.959 1_556 S
C2926 H2911 0.959 . S
C2926 H2912 0.961 . S
C2926 C2925 1.502 . S
C2927 H2913 0.960 . S
C2927 H2914 0.961 . S
C2927 H2915 0.959 . S
C2927 C2925 1.561 . S
C2928 C2925 1.526 . S
C2928 C2929 1.396 . S
C2928 C2933 1.390 . S
C2929 C2923 1.465 . S
C2929 C2928 1.396 . S
C2929 C2930 1.399 . S
C2930 H2916 0.929 . S
C2930 C2929 1.399 . S
C2930 C2931 1.385 . S
C2931 H2917 0.931 . S
C2931 C2930 1.385 . S
C2931 C2932 1.389 . S
C2932 C2931 1.389 . S
C2932 C2933 1.387 . S
C2933 H2918 0.930 . S
C2933 C2928 1.390 . S
C2933 C2932 1.387 . S
H2934 C2946 0.930 . S
H2935 C2948 0.930 . S
H2936 C2949 0.930 . S
H2937 C2953 0.959 . S
H2938 C2953 0.959 . S
H2939 C2953 0.961 . S
H2940 C2954 0.960 . S
H2941 C2954 0.961 . S
H2942 C2954 0.959 . S
H2943 C2957 0.929 . S
H2944 C2958 0.931 . S
H2945 C2960 0.930 . S
C2946 H2934 0.930 . S
C2946 C2947 1.399 . S
C2946 C2951 1.399 . S
C2947 C2946 1.399 . S
C2947 C2948 1.376 . S
C2948 H2935 0.930 . S
C2948 C2947 1.376 . S
C2948 C2949 1.388 . S
C2949 H2936 0.930 . S
C2949 C2948 1.388 . S
C2949 C2950 1.390 . S
C2950 C2949 1.390 . S
C2950 C2951 1.394 . S
C2950 C2956 1.465 . S
C2951 C2946 1.399 . S
C2951 C2950 1.394 . S
C2951 C2952 1.516 . S
C2952 C2951 1.516 . S
C2952 C2953 1.502 . S
C2952 C2954 1.561 . S
C2952 C2955 1.526 . S
C2953 H2937 0.959 . S
C2953 H2938 0.959 . S
C2953 H2939 0.961 . S
C2953 C2952 1.502 . S
C2954 H2940 0.960 . S
C2954 H2941 0.961 . S
C2954 H2942 0.959 . S
C2954 C2952 1.561 . S
C2955 C2952 1.526 . S
C2955 C2956 1.396 . S
C2955 C2960 1.390 . S
C2956 C2950 1.465 . S
C2956 C2955 1.396 . S
C2956 C2957 1.399 . S
C2957 H2943 0.929 . S
C2957 C2956 1.399 . S
C2957 C2958 1.385 . S
C2958 H2944 0.931 . S
C2958 C2957 1.385 . S
C2958 C2959 1.389 . S
C2959 C2958 1.389 . S
C2959 C2960 1.387 . S
C2960 H2945 0.930 . S
C2960 C2955 1.390 . S
C2960 C2959 1.387 . S
H2961 C2973 0.930 . S
H2962 C2975 0.930 . S
H2963 C2976 0.930 . S
H2964 C2980 0.959 . S
H2965 C2980 0.959 . S
H2966 C2980 0.961 . S
H2967 C2981 0.960 . S
H2968 C2981 0.961 . S
H2969 C2981 0.959 . S
H2970 C2984 0.929 . S
H2971 C2985 0.931 . S
H2972 C2987 0.930 . S
C2973 H2961 0.930 . S
C2973 C2974 1.399 . S
C2973 C2978 1.399 . S
C2974 C2973 1.399 . S
C2974 C2975 1.376 . S
C2975 H2962 0.930 . S
C2975 C2974 1.376 . S
C2975 C2976 1.388 . S
C2976 H2963 0.930 . S
C2976 C2975 1.388 . S
C2976 C2977 1.390 . S
C2977 C2976 1.390 . S
C2977 C2978 1.394 . S
C2977 C2983 1.465 . S
C2978 C2973 1.399 . S
C2978 C2977 1.394 . S
C2978 C2979 1.516 . S
C2979 C2978 1.516 . S
C2979 C2980 1.502 . S
C2979 C2981 1.561 . S
C2979 C2982 1.526 . S
C2980 H2964 0.959 . S
C2980 H2965 0.959 . S
C2980 H2966 0.961 . S
C2980 C2979 1.502 . S
C2981 H2967 0.960 . S
C2981 H2968 0.961 . S
C2981 H2969 0.959 . S
C2981 C2979 1.561 . S
C2982 C2979 1.526 . S
C2982 C2983 1.396 . S
C2982 C2987 1.390 . S
C2983 C2977 1.465 . S
C2983 C2982 1.396 . S
C2983 C2984 1.399 . S
C2984 H2970 0.929 . S
C2984 C2983 1.399 . S
C2984 C2985 1.385 . S
C2985 H2971 0.931 . S
C2985 C2984 1.385 . S
C2985 C2986 1.389 . S
C2986 C2985 1.389 . S
C2986 C2987 1.387 . S
C2987 H2972 0.930 . S
C2987 C2982 1.390 . S
C2987 C2986 1.387 . S
H2988 C3000 0.930 . S
H2989 C3002 0.930 . S
H2990 C3003 0.930 . S
H2991 C3007 0.959 . S
H2992 C3007 0.959 . S
H2993 C3007 0.961 . S
H2994 C3008 0.960 . S
H2995 C3008 0.961 . S
H2996 C3008 0.959 . S
H2997 C3011 0.929 . S
H2998 C3012 0.931 . S
H2999 C3014 0.930 . S
C3000 H2988 0.930 . S
C3000 C3001 1.399 . S
C3000 C3005 1.399 . S
C3001 C3000 1.399 . S
C3001 C3002 1.376 . S
C3002 H2989 0.930 . S
C3002 C3001 1.376 . S
C3002 C3003 1.388 . S
C3003 H2990 0.930 . S
C3003 C3002 1.388 . S
C3003 C3004 1.390 . S
C3004 C3003 1.390 . S
C3004 C3005 1.394 . S
C3004 C3010 1.465 . S
C3005 C3000 1.399 . S
C3005 C3004 1.394 . S
C3005 C3006 1.516 . S
C3006 C3005 1.516 . S
C3006 C3007 1.502 . S
C3006 C3008 1.561 . S
C3006 C3009 1.526 . S
C3007 H2991 0.959 . S
C3007 H2992 0.959 . S
C3007 H2993 0.961 . S
C3007 C3006 1.502 . S
C3008 H2994 0.960 . S
C3008 H2995 0.961 . S
C3008 H2996 0.959 . S
C3008 C3006 1.561 . S
C3009 C3006 1.526 . S
C3009 C3010 1.396 . S
C3009 C3014 1.390 . S
C3010 C3004 1.465 . S
C3010 C3009 1.396 . S
C3010 C3011 1.399 . S
C3011 H2997 0.929 . S
C3011 C3010 1.399 . S
C3011 C3012 1.385 . S
C3012 H2998 0.931 . S
C3012 C3011 1.385 . S
C3012 C3013 1.389 . S
C3013 C3012 1.389 . S
C3013 C3014 1.387 . S
C3014 H2999 0.930 . S
C3014 C3009 1.390 . S
C3014 C3013 1.387 . S
H3015 C3027 0.930 . S
H3016 C3029 0.930 . S
H3017 C3030 0.930 . S
H3018 C3034 0.959 . S
H3019 C3034 0.959 . S
H3020 C3034 0.961 . S
H3021 C3035 0.960 . S
H3022 C3035 0.961 . S
H3023 C3035 0.959 . S
H3024 C3038 0.929 . S
H3025 C3039 0.931 . S
H3026 C3041 0.930 . S
C3027 H3015 0.930 . S
C3027 C3028 1.399 . S
C3027 C3032 1.399 . S
C3028 C3027 1.399 . S
C3028 C3029 1.376 . S
C3029 H3016 0.930 . S
C3029 C3028 1.376 . S
C3029 C3030 1.388 . S
C3030 H3017 0.930 . S
C3030 C3029 1.388 . S
C3030 C3031 1.390 . S
C3031 C3030 1.390 . S
C3031 C3032 1.394 . S
C3031 C3037 1.465 . S
C3032 C3027 1.399 . S
C3032 C3031 1.394 . S
C3032 C3033 1.516 . S
C3033 C3032 1.516 . S
C3033 C3034 1.502 . S
C3033 C3035 1.561 . S
C3033 C3036 1.526 . S
C3034 H3018 0.959 . S
C3034 H3019 0.959 . S
C3034 H3020 0.961 . S
C3034 C3033 1.502 . S
C3035 H3021 0.960 . S
C3035 H3022 0.961 . S
C3035 H3023 0.959 . S
C3035 C3033 1.561 . S
C3036 C3033 1.526 . S
C3036 C3037 1.396 . S
C3036 C3041 1.390 . S
C3037 C3031 1.465 . S
C3037 C3036 1.396 . S
C3037 C3038 1.399 . S
C3038 H3024 0.929 . S
C3038 C3037 1.399 . S
C3038 C3039 1.385 . S
C3039 H3025 0.931 . S
C3039 C3038 1.385 . S
C3039 C3040 1.389 . S
C3040 C3039 1.389 . S
C3040 C3041 1.387 . S
C3041 H3026 0.930 . S
C3041 C3036 1.390 . S
C3041 C3040 1.387 . S
H3042 C3054 0.930 . S
H3043 C3056 0.930 . S
H3044 C3057 0.930 . S
H3045 C3061 0.959 . S
H3046 C3061 0.959 . S
H3047 C3061 0.961 . S
H3048 C3062 0.960 . S
H3049 C3062 0.961 . S
H3050 C3062 0.959 . S
H3051 C3065 0.929 . S
H3052 C3066 0.931 . S
H3053 C3068 0.930 . S
C3054 H3042 0.930 . S
C3054 C3055 1.399 . S
C3054 C3059 1.399 . S
C3055 C3054 1.399 . S
C3055 C3056 1.376 . S
C3056 H3043 0.930 . S
C3056 C3055 1.376 . S
C3056 C3057 1.388 . S
C3057 H3044 0.930 . S
C3057 C3056 1.388 . S
C3057 C3058 1.390 . S
C3058 C3057 1.390 . S
C3058 C3059 1.394 . S
C3058 C3064 1.465 . S
C3059 C3054 1.399 . S
C3059 C3058 1.394 . S
C3059 C3060 1.516 . S
C3060 C3059 1.516 . S
C3060 C3061 1.502 . S
C3060 C3062 1.561 . S
C3060 C3063 1.526 . S
C3061 H3045 0.959 . S
C3061 H3046 0.959 . S
C3061 H3047 0.961 . S
C3061 C3060 1.502 . S
C3062 H3048 0.960 . S
C3062 H3049 0.961 . S
C3062 H3050 0.959 . S
C3062 C3060 1.561 . S
C3063 C3060 1.526 . S
C3063 C3064 1.396 . S
C3063 C3068 1.390 . S
C3064 C3058 1.465 . S
C3064 C3063 1.396 . S
C3064 C3065 1.399 . S
C3065 H3051 0.929 . S
C3065 C3064 1.399 . S
C3065 C3066 1.385 . S
C3066 H3052 0.931 . S
C3066 C3065 1.385 . S
C3066 C3067 1.389 . S
C3067 C3066 1.389 . S
C3067 C3068 1.387 . S
C3068 H3053 0.930 . S
C3068 C3063 1.390 . S
C3068 C3067 1.387 . S
H3069 C3081 0.930 . S
H3070 C3083 0.930 . S
H3071 C3084 0.930 . S
H3072 C3088 0.959 . S
H3073 C3088 0.959 . S
H3074 C3088 0.961 . S
H3075 C3089 0.960 . S
H3076 C3089 0.961 . S
H3077 C3089 0.959 . S
H3078 C3092 0.929 . S
H3079 C3093 0.931 . S
H3080 C3095 0.930 . S
C3081 H3069 0.930 . S
C3081 C3082 1.399 . S
C3081 C3086 1.399 . S
C3082 C3081 1.399 . S
C3082 C3083 1.376 . S
C3083 H3070 0.930 . S
C3083 C3082 1.376 . S
C3083 C3084 1.388 . S
C3084 H3071 0.930 . S
C3084 C3083 1.388 . S
C3084 C3085 1.390 . S
C3085 C3084 1.390 . S
C3085 C3086 1.394 . S
C3085 C3091 1.465 . S
C3086 C3081 1.399 . S
C3086 C3085 1.394 . S
C3086 C3087 1.516 . S
C3087 C3086 1.516 . S
C3087 C3088 1.502 . S
C3087 C3089 1.561 . S
C3087 C3090 1.526 . S
C3088 H3072 0.959 . S
C3088 H3073 0.959 . S
C3088 H3074 0.961 . S
C3088 C3087 1.502 . S
C3089 H3075 0.960 . S
C3089 H3076 0.961 . S
C3089 H3077 0.959 . S
C3089 C3087 1.561 . S
C3090 C3087 1.526 . S
C3090 C3091 1.396 . S
C3090 C3095 1.390 . S
C3091 C3085 1.465 . S
C3091 C3090 1.396 . S
C3091 C3092 1.399 . S
C3092 H3078 0.929 . S
C3092 C3091 1.399 . S
C3092 C3093 1.385 . S
C3093 H3079 0.931 . S
C3093 C3092 1.385 . S
C3093 C3094 1.389 . S
C3094 C3093 1.389 . S
C3094 C3095 1.387 . S
C3095 H3080 0.930 . S
C3095 C3090 1.390 . S
C3095 C3094 1.387 . S
H3096 C3108 0.930 . S
H3097 C3110 0.930 . S
H3098 C3111 0.930 . S
H3099 C3115 0.959 . S
H3100 C3115 0.959 . S
H3101 C3115 0.961 . S
H3102 C3116 0.960 . S
H3103 C3116 0.961 . S
H3104 C3116 0.959 . S
H3105 C3119 0.929 . S
H3106 C3120 0.931 . S
H3107 C3122 0.930 . S
C3108 H3096 0.930 . S
C3108 C3109 1.399 . S
C3108 C3113 1.399 . S
C3109 C3108 1.399 . S
C3109 C3110 1.376 . S
C3110 H3097 0.930 . S
C3110 C3109 1.376 . S
C3110 C3111 1.388 . S
C3111 H3098 0.930 . S
C3111 C3110 1.388 . S
C3111 C3112 1.390 . S
C3112 C3111 1.390 . S
C3112 C3113 1.394 . S
C3112 C3118 1.465 . S
C3113 C3108 1.399 . S
C3113 C3112 1.394 . S
C3113 C3114 1.516 . S
C3114 C3113 1.516 . S
C3114 C3115 1.502 . S
C3114 C3116 1.561 . S
C3114 C3117 1.526 . S
C3115 H3099 0.959 . S
C3115 H3100 0.959 . S
C3115 H3101 0.961 . S
C3115 C3114 1.502 . S
C3116 H3102 0.960 . S
C3116 H3103 0.961 . S
C3116 H3104 0.959 . S
C3116 C3114 1.561 . S
C3117 C3114 1.526 . S
C3117 C3118 1.396 . S
C3117 C3122 1.390 . S
C3118 C3112 1.465 . S
C3118 C3117 1.396 . S
C3118 C3119 1.399 . S
C3119 H3105 0.929 . S
C3119 C3118 1.399 . S
C3119 C3120 1.385 . S
C3120 H3106 0.931 . S
C3120 C3119 1.385 . S
C3120 C3121 1.389 . S
C3121 C3120 1.389 . S
C3121 C3122 1.387 . S
C3122 H3107 0.930 . S
C3122 C3117 1.390 . S
C3122 C3121 1.387 . S
H3123 C3135 0.930 . S
H3124 C3137 0.930 . S
H3125 C3138 0.930 . S
H3126 C3142 0.959 . S
H3127 C3142 0.959 . S
H3128 C3142 0.961 . S
H3129 C3143 0.960 . S
H3130 C3143 0.961 . S
H3131 C3143 0.959 . S
H3132 C3146 0.929 . S
H3133 C3147 0.931 . S
H3134 C3149 0.930 . S
C3135 H3123 0.930 . S
C3135 C3136 1.399 . S
C3135 C3140 1.399 . S
C3136 C3135 1.399 . S
C3136 C3137 1.376 . S
C3137 H3124 0.930 . S
C3137 C3136 1.376 . S
C3137 C3138 1.388 . S
C3138 H3125 0.930 . S
C3138 C3137 1.388 . S
C3138 C3139 1.390 . S
C3139 C3138 1.390 . S
C3139 C3140 1.394 . S
C3139 C3145 1.465 . S
C3140 C3135 1.399 . S
C3140 C3139 1.394 . S
C3140 C3141 1.516 . S
C3141 C3140 1.516 . S
C3141 C3142 1.502 . S
C3141 C3143 1.561 . S
C3141 C3144 1.526 . S
C3142 H3126 0.959 . S
C3142 H3127 0.959 . S
C3142 H3128 0.961 . S
C3142 C3141 1.502 . S
C3143 H3129 0.960 . S
C3143 H3130 0.961 . S
C3143 H3131 0.959 . S
C3143 C3141 1.561 . S
C3144 C3141 1.526 . S
C3144 C3145 1.396 . S
C3144 C3149 1.390 . S
C3145 C3139 1.465 . S
C3145 C3144 1.396 . S
C3145 C3146 1.399 . S
C3146 H3132 0.929 . S
C3146 C3145 1.399 . S
C3146 C3147 1.385 . S
C3147 H3133 0.931 . S
C3147 C3146 1.385 . S
C3147 C3148 1.389 . S
C3148 C3147 1.389 . S
C3148 C3149 1.387 . S
C3149 H3134 0.930 . S
C3149 C3144 1.390 . S
C3149 C3148 1.387 . S
H3150 C3162 0.930 . S
H3151 C3164 0.930 . S
H3152 C3165 0.930 . S
H3153 C3169 0.959 . S
H3154 C3169 0.959 . S
H3155 C3169 0.961 . S
H3156 C3170 0.960 . S
H3157 C3170 0.961 . S
H3158 C3170 0.959 . S
H3159 C3173 0.929 . S
H3160 C3174 0.931 . S
H3161 C3176 0.930 . S
C3162 H3150 0.930 . S
C3162 C3163 1.399 . S
C3162 C3167 1.399 . S
C3163 C3162 1.399 . S
C3163 C3164 1.376 . S
C3164 H3151 0.930 . S
C3164 C3163 1.376 . S
C3164 C3165 1.388 . S
C3165 H3152 0.930 . S
C3165 C3164 1.388 . S
C3165 C3166 1.390 . S
C3166 C3165 1.390 . S
C3166 C3167 1.394 . S
C3166 C3172 1.465 . S
C3167 C3162 1.399 . S
C3167 C3166 1.394 . S
C3167 C3168 1.516 . S
C3168 C3167 1.516 . S
C3168 C3169 1.502 . S
C3168 C3170 1.561 . S
C3168 C3171 1.526 . S
C3169 H3153 0.959 . S
C3169 H3154 0.959 . S
C3169 H3155 0.961 . S
C3169 C3168 1.502 . S
C3170 H3156 0.960 . S
C3170 H3157 0.961 . S
C3170 H3158 0.959 . S
C3170 C3168 1.561 . S
C3171 C3168 1.526 . S
C3171 C3172 1.396 . S
C3171 C3176 1.390 . S
C3172 C3166 1.465 . S
C3172 C3171 1.396 . S
C3172 C3173 1.399 . S
C3173 H3159 0.929 . S
C3173 C3172 1.399 . S
C3173 C3174 1.385 . S
C3174 H3160 0.931 . S
C3174 C3173 1.385 . S
C3174 C3175 1.389 . S
C3175 C3174 1.389 . S
C3175 C3176 1.387 . S
C3176 H3161 0.930 . S
C3176 C3171 1.390 . S
C3176 C3175 1.387 . S
H3177 C3189 0.930 . S
H3178 C3191 0.930 . S
H3179 C3192 0.930 . S
H3180 C3196 0.959 . S
H3181 C3196 0.959 . S
H3182 C3196 0.961 . S
H3183 C3197 0.960 . S
H3184 C3197 0.961 . S
H3185 C3197 0.959 . S
H3186 C3200 0.929 . S
H3187 C3201 0.931 . S
H3188 C3203 0.930 . S
C3189 H3177 0.930 . S
C3189 C3190 1.399 . S
C3189 C3194 1.399 . S
C3190 C3189 1.399 . S
C3190 C3191 1.376 . S
C3191 H3178 0.930 . S
C3191 C3190 1.376 . S
C3191 C3192 1.388 . S
C3192 H3179 0.930 . S
C3192 C3191 1.388 . S
C3192 C3193 1.390 . S
C3193 C3192 1.390 . S
C3193 C3194 1.394 . S
C3193 C3199 1.465 . S
C3194 C3189 1.399 . S
C3194 C3193 1.394 . S
C3194 C3195 1.516 . S
C3195 C3194 1.516 . S
C3195 C3196 1.502 . S
C3195 C3197 1.561 . S
C3195 C3198 1.526 . S
C3196 H3180 0.959 . S
C3196 H3181 0.959 . S
C3196 H3182 0.961 . S
C3196 C3195 1.502 . S
C3197 H3183 0.960 . S
C3197 H3184 0.961 . S
C3197 H3185 0.959 . S
C3197 C3195 1.561 . S
C3198 C3195 1.526 . S
C3198 C3199 1.396 . S
C3198 C3203 1.390 . S
C3199 C3193 1.465 . S
C3199 C3198 1.396 . S
C3199 C3200 1.399 . S
C3200 H3186 0.929 . S
C3200 C3199 1.399 . S
C3200 C3201 1.385 . S
C3201 H3187 0.931 . S
C3201 C3200 1.385 . S
C3201 C3202 1.389 . S
C3202 C3201 1.389 . S
C3202 C3203 1.387 . S
C3203 H3188 0.930 . S
C3203 C3198 1.390 . S
C3203 C3202 1.387 . S
H3204 C3216 0.930 . S
H3205 C3218 0.930 . S
H3206 C3219 0.930 . S
H3207 C3223 0.959 . S
H3208 C3223 0.959 . S
H3209 C3223 0.961 . S
H3210 C3224 0.960 . S
H3211 C3224 0.961 . S
H3212 C3224 0.959 . S
H3213 C3227 0.929 . S
H3214 C3228 0.931 . S
H3215 C3230 0.930 . S
C3216 H3204 0.930 . S
C3216 C3217 1.399 . S
C3216 C3221 1.399 . S
C3217 C3216 1.399 . S
C3217 C3218 1.376 . S
C3218 H3205 0.930 . S
C3218 C3217 1.376 . S
C3218 C3219 1.388 . S
C3219 H3206 0.930 . S
C3219 C3218 1.388 . S
C3219 C3220 1.390 . S
C3220 C3219 1.390 . S
C3220 C3221 1.394 . S
C3220 C3226 1.465 . S
C3221 C3216 1.399 . S
C3221 C3220 1.394 . S
C3221 C3222 1.516 . S
C3222 C3221 1.516 . S
C3222 C3223 1.502 . S
C3222 C3224 1.561 . S
C3222 C3225 1.526 . S
C3223 H3207 0.959 . S
C3223 H3208 0.959 . S
C3223 H3209 0.961 . S
C3223 C3222 1.502 . S
C3224 H3210 0.960 . S
C3224 H3211 0.961 . S
C3224 H3212 0.959 . S
C3224 C3222 1.561 . S
C3225 C3222 1.526 . S
C3225 C3226 1.396 . S
C3225 C3230 1.390 . S
C3226 C3220 1.465 . S
C3226 C3225 1.396 . S
C3226 C3227 1.399 . S
C3227 H3213 0.929 . S
C3227 C3226 1.399 . S
C3227 C3228 1.385 . S
C3228 H3214 0.931 . S
C3228 C3227 1.385 . S
C3228 C3229 1.389 . S
C3229 C3228 1.389 . S
C3229 C3230 1.387 . S
C3230 H3215 0.930 . S
C3230 C3225 1.390 . S
C3230 C3229 1.387 . S
H3231 C3243 0.930 . S
H3232 C3245 0.930 . S
H3233 C3246 0.930 . S
H3234 C3250 0.959 . S
H3235 C3250 0.959 . S
H3236 C3250 0.961 . S
H3237 C3251 0.960 . S
H3238 C3251 0.961 . S
H3239 C3251 0.959 . S
H3240 C3254 0.929 . S
H3241 C3255 0.931 . S
H3242 C3257 0.930 . S
C3243 H3231 0.930 . S
C3243 C3244 1.399 . S
C3243 C3248 1.399 . S
C3244 C3243 1.399 . S
C3244 C3245 1.376 . S
C3245 H3232 0.930 . S
C3245 C3244 1.376 . S
C3245 C3246 1.388 . S
C3246 H3233 0.930 . S
C3246 C3245 1.388 . S
C3246 C3247 1.390 . S
C3247 C3246 1.390 . S
C3247 C3248 1.394 . S
C3247 C3253 1.465 . S
C3248 C3243 1.399 . S
C3248 C3247 1.394 . S
C3248 C3249 1.516 . S
C3249 C3248 1.516 . S
C3249 C3250 1.502 . S
C3249 C3251 1.561 . S
C3249 C3252 1.526 . S
C3250 H3234 0.959 . S
C3250 H3235 0.959 . S
C3250 H3236 0.961 . S
C3250 C3249 1.502 . S
C3251 H3237 0.960 . S
C3251 H3238 0.961 . S
C3251 H3239 0.959 . S
C3251 C3249 1.561 . S
C3252 C3249 1.526 . S
C3252 C3253 1.396 . S
C3252 C3257 1.390 . S
C3253 C3247 1.465 . S
C3253 C3252 1.396 . S
C3253 C3254 1.399 . S
C3254 H3240 0.929 . S
C3254 C3253 1.399 . S
C3254 C3255 1.385 . S
C3255 H3241 0.931 . S
C3255 C3254 1.385 . S
C3255 C3256 1.389 . S
C3256 C3255 1.389 . S
C3256 C3257 1.387 . S
C3257 H3242 0.930 . S
C3257 C3252 1.390 . S
C3257 C3256 1.387 . S
H3258 C3270 0.930 . S
H3259 C3272 0.930 . S
H3260 C3273 0.930 . S
H3261 C3277 0.959 . S
H3262 C3277 0.959 . S
H3263 C3277 0.961 . S
H3264 C3278 0.960 . S
H3265 C3278 0.961 . S
H3266 C3278 0.959 . S
H3267 C3281 0.929 . S
H3268 C3282 0.931 . S
H3269 C3284 0.930 . S
C3270 H3258 0.930 . S
C3270 C3271 1.399 . S
C3270 C3275 1.399 . S
C3271 C3270 1.399 . S
C3271 C3272 1.376 . S
C3272 H3259 0.930 . S
C3272 C3271 1.376 . S
C3272 C3273 1.388 . S
C3273 H3260 0.930 . S
C3273 C3272 1.388 . S
C3273 C3274 1.390 . S
C3274 C3273 1.390 . S
C3274 C3275 1.394 . S
C3274 C3280 1.465 . S
C3275 C3270 1.399 . S
C3275 C3274 1.394 . S
C3275 C3276 1.516 . S
C3276 C3275 1.516 . S
C3276 C3277 1.502 . S
C3276 C3278 1.561 . S
C3276 C3279 1.526 . S
C3277 H3261 0.959 . S
C3277 H3262 0.959 . S
C3277 H3263 0.961 . S
C3277 C3276 1.502 . S
C3278 H3264 0.960 . S
C3278 H3265 0.961 . S
C3278 H3266 0.959 . S
C3278 C3276 1.561 . S
C3279 C3276 1.526 . S
C3279 C3280 1.396 . S
C3279 C3284 1.390 . S
C3280 C3274 1.465 . S
C3280 C3279 1.396 . S
C3280 C3281 1.399 . S
C3281 H3267 0.929 . S
C3281 C3280 1.399 . S
C3281 C3282 1.385 . S
C3282 H3268 0.931 . S
C3282 C3281 1.385 . S
C3282 C3283 1.389 . S
C3283 C3282 1.389 . S
C3283 C3284 1.387 . S
C3284 H3269 0.930 . S
C3284 C3279 1.390 . S
C3284 C3283 1.387 . S
H3285 C3297 0.930 . S
H3286 C3299 0.930 . S
H3287 C3300 0.930 . S
H3288 C3304 0.959 . S
H3289 C3304 0.959 . S
H3290 C3304 0.961 . S
H3291 C3305 0.960 . S
H3292 C3305 0.961 . S
H3293 C3305 0.959 . S
H3294 C3308 0.929 . S
H3295 C3309 0.931 . S
H3296 C3311 0.930 . S
C3297 H3285 0.930 . S
C3297 C3298 1.399 . S
C3297 C3302 1.399 . S
C3298 C3297 1.399 . S
C3298 C3299 1.376 . S
C3299 H3286 0.930 . S
C3299 C3298 1.376 . S
C3299 C3300 1.388 . S
C3300 H3287 0.930 . S
C3300 C3299 1.388 . S
C3300 C3301 1.390 . S
C3301 C3300 1.390 . S
C3301 C3302 1.394 . S
C3301 C3307 1.465 . S
C3302 C3297 1.399 . S
C3302 C3301 1.394 . S
C3302 C3303 1.516 . S
C3303 C3302 1.516 . S
C3303 C3304 1.502 . S
C3303 C3305 1.561 . S
C3303 C3306 1.526 . S
C3304 H3288 0.959 . S
C3304 H3289 0.959 . S
C3304 H3290 0.961 . S
C3304 C3303 1.502 . S
C3305 H3291 0.960 . S
C3305 H3292 0.961 . S
C3305 H3293 0.959 . S
C3305 C3303 1.561 . S
C3306 C3303 1.526 . S
C3306 C3307 1.396 . S
C3306 C3311 1.390 . S
C3307 C3301 1.465 . S
C3307 C3306 1.396 . S
C3307 C3308 1.399 . S
C3308 H3294 0.929 . S
C3308 C3307 1.399 . S
C3308 C3309 1.385 . S
C3309 H3295 0.931 . S
C3309 C3308 1.385 . S
C3309 C3310 1.389 . S
C3310 C3309 1.389 . S
C3310 C3311 1.387 . S
C3311 H3296 0.930 . S
C3311 C3306 1.390 . S
C3311 C3310 1.387 . S
H3312 C3324 0.930 . S
H3313 C3326 0.930 . S
H3314 C3327 0.930 . S
H3315 C3331 0.959 . S
H3316 C3331 0.959 . S
H3317 C3331 0.961 . S
H3318 C3332 0.960 . S
H3319 C3332 0.961 . S
H3320 C3332 0.959 . S
H3321 C3335 0.929 . S
H3322 C3336 0.931 . S
H3323 C3338 0.930 . S
C3324 H3312 0.930 . S
C3324 C3325 1.399 . S
C3324 C3329 1.399 . S
C3325 C3324 1.399 . S
C3325 C3326 1.376 . S
C3326 H3313 0.930 . S
C3326 C3325 1.376 . S
C3326 C3327 1.388 . S
C3327 H3314 0.930 . S
C3327 C3326 1.388 . S
C3327 C3328 1.390 . S
C3328 C3327 1.390 . S
C3328 C3329 1.394 . S
C3328 C3334 1.465 . S
C3329 C3324 1.399 . S
C3329 C3328 1.394 . S
C3329 C3330 1.516 . S
C3330 C3329 1.516 . S
C3330 C3331 1.502 . S
C3330 C3332 1.561 . S
C3330 C3333 1.526 . S
C3331 H3315 0.959 . S
C3331 H3316 0.959 . S
C3331 H3317 0.961 . S
C3331 C3330 1.502 . S
C3332 H3318 0.960 . S
C3332 H3319 0.961 . S
C3332 H3320 0.959 . S
C3332 C3330 1.561 . S
C3333 C3330 1.526 . S
C3333 C3334 1.396 . S
C3333 C3338 1.390 . S
C3334 C3328 1.465 . S
C3334 C3333 1.396 . S
C3334 C3335 1.399 . S
C3335 H3321 0.929 . S
C3335 C3334 1.399 . S
C3335 C3336 1.385 . S
C3336 H3322 0.931 . S
C3336 C3335 1.385 . S
C3336 C3337 1.389 . S
C3337 C3336 1.389 . S
C3337 C3338 1.387 . S
C3338 H3323 0.930 . S
C3338 C3333 1.390 . S
C3338 C3337 1.387 . S
H3339 C3351 0.930 . S
H3340 C3353 0.930 . S
H3341 C3354 0.930 . S
H3342 C3358 0.959 . S
H3343 C3358 0.959 . S
H3344 C3358 0.961 . S
H3345 C3359 0.960 . S
H3346 C3359 0.961 . S
H3347 C3359 0.959 . S
H3348 C3362 0.929 . S
H3349 C3363 0.931 . S
H3350 C3365 0.930 . S
C3351 H3339 0.930 . S
C3351 C3352 1.399 . S
C3351 C3356 1.399 . S
C3352 C3351 1.399 . S
C3352 C3353 1.376 . S
C3353 H3340 0.930 . S
C3353 C3352 1.376 . S
C3353 C3354 1.388 . S
C3354 H3341 0.930 . S
C3354 C3353 1.388 . S
C3354 C3355 1.390 . S
C3355 C3354 1.390 . S
C3355 C3356 1.394 . S
C3355 C3361 1.465 . S
C3356 C3351 1.399 . S
C3356 C3355 1.394 . S
C3356 C3357 1.516 . S
C3357 C3356 1.516 . S
C3357 C3358 1.502 . S
C3357 C3359 1.561 . S
C3357 C3360 1.526 . S
C3358 H3342 0.959 . S
C3358 H3343 0.959 . S
C3358 H3344 0.961 . S
C3358 C3357 1.502 . S
C3359 H3345 0.960 . S
C3359 H3346 0.961 . S
C3359 H3347 0.959 . S
C3359 C3357 1.561 . S
C3360 C3357 1.526 . S
C3360 C3361 1.396 . S
C3360 C3365 1.390 . S
C3361 C3355 1.465 . S
C3361 C3360 1.396 . S
C3361 C3362 1.399 . S
C3362 H3348 0.929 . S
C3362 C3361 1.399 . S
C3362 C3363 1.385 . S
C3363 H3349 0.931 . S
C3363 C3362 1.385 . S
C3363 C3364 1.389 . S
C3364 C3363 1.389 . S
C3364 C3365 1.387 . S
C3365 H3350 0.930 . S
C3365 C3360 1.390 . S
C3365 C3364 1.387 . S
H3366 C3378 0.930 . S
H3367 C3380 0.930 . S
H3368 C3381 0.930 . S
H3369 C3385 0.959 . S
H3370 C3385 0.959 . S
H3371 C3385 0.961 . S
H3372 C3386 0.960 . S
H3373 C3386 0.961 . S
H3374 C3386 0.959 . S
H3375 C3389 0.929 . S
H3376 C3390 0.931 . S
H3377 C3392 0.930 . S
C3378 H3366 0.930 . S
C3378 C3379 1.399 . S
C3378 C3383 1.399 . S
C3379 C3378 1.399 . S
C3379 C3380 1.376 . S
C3380 H3367 0.930 . S
C3380 C3379 1.376 . S
C3380 C3381 1.388 . S
C3381 H3368 0.930 . S
C3381 C3380 1.388 . S
C3381 C3382 1.390 . S
C3382 C3381 1.390 . S
C3382 C3383 1.394 . S
C3382 C3388 1.465 . S
C3383 C3378 1.399 . S
C3383 C3382 1.394 . S
C3383 C3384 1.516 . S
C3384 C3383 1.516 . S
C3384 C3385 1.502 . S
C3384 C3386 1.561 . S
C3384 C3387 1.526 . S
C3385 H3369 0.959 . S
C3385 H3370 0.959 . S
C3385 H3371 0.961 . S
C3385 C3384 1.502 . S
C3386 H3372 0.960 . S
C3386 H3373 0.961 . S
C3386 H3374 0.959 . S
C3386 C3384 1.561 . S
C3387 C3384 1.526 . S
C3387 C3388 1.396 . S
C3387 C3392 1.390 . S
C3388 C3382 1.465 . S
C3388 C3387 1.396 . S
C3388 C3389 1.399 . S
C3389 H3375 0.929 . S
C3389 C3388 1.399 . S
C3389 C3390 1.385 . S
C3390 H3376 0.931 . S
C3390 C3389 1.385 . S
C3390 C3391 1.389 . S
C3391 C3390 1.389 . S
C3391 C3392 1.387 . S
C3392 H3377 0.930 . S
C3392 C3387 1.390 . S
C3392 C3391 1.387 . S
H3393 C3405 0.930 . S
H3394 C3407 0.930 . S
H3395 C3408 0.930 . S
H3396 C3412 0.959 . S
H3397 C3412 0.959 . S
H3398 C3412 0.961 . S
H3399 C3413 0.960 . S
H3400 C3413 0.961 . S
H3401 C3413 0.959 . S
H3402 C3416 0.929 . S
H3403 C3417 0.931 . S
H3404 C3419 0.930 . S
C3405 H3393 0.930 . S
C3405 C3406 1.399 . S
C3405 C3410 1.399 . S
C3406 C3405 1.399 . S
C3406 C3407 1.376 . S
C3407 H3394 0.930 . S
C3407 C3406 1.376 . S
C3407 C3408 1.388 . S
C3408 H3395 0.930 . S
C3408 C3407 1.388 . S
C3408 C3409 1.390 . S
C3409 C3408 1.390 . S
C3409 C3410 1.394 . S
C3409 C3415 1.465 . S
C3410 C3405 1.399 . S
C3410 C3409 1.394 . S
C3410 C3411 1.516 . S
C3411 C3410 1.516 . S
C3411 C3412 1.502 . S
C3411 C3413 1.561 . S
C3411 C3414 1.526 . S
C3412 H3396 0.959 . S
C3412 H3397 0.959 . S
C3412 H3398 0.961 . S
C3412 C3411 1.502 . S
C3413 H3399 0.960 . S
C3413 H3400 0.961 . S
C3413 H3401 0.959 . S
C3413 C3411 1.561 . S
C3414 C3411 1.526 . S
C3414 C3415 1.396 . S
C3414 C3419 1.390 . S
C3415 C3409 1.465 . S
C3415 C3414 1.396 . S
C3415 C3416 1.399 . S
C3416 H3402 0.929 . S
C3416 C3415 1.399 . S
C3416 C3417 1.385 . S
C3417 H3403 0.931 . S
C3417 C3416 1.385 . S
C3417 C3418 1.389 . S
C3418 C3417 1.389 . S
C3418 C3419 1.387 . S
C3419 H3404 0.930 . S
C3419 C3414 1.390 . S
C3419 C3418 1.387 . S
H3420 C3432 0.930 . S
H3421 C3434 0.930 . S
H3422 C3435 0.930 . S
H3423 C3439 0.959 . S
H3424 C3439 0.959 . S
H3425 C3439 0.961 . S
H3426 C3440 0.960 . S
H3427 C3440 0.961 . S
H3428 C3440 0.959 . S
H3429 C3443 0.929 . S
H3430 C3444 0.931 . S
H3431 C3446 0.930 . S
C3432 H3420 0.930 . S
C3432 C3433 1.399 . S
C3432 C3437 1.399 . S
C3433 C3432 1.399 . S
C3433 C3434 1.376 . S
C3434 H3421 0.930 . S
C3434 C3433 1.376 . S
C3434 C3435 1.388 . S
C3435 H3422 0.930 . S
C3435 C3434 1.388 . S
C3435 C3436 1.390 . S
C3436 C3435 1.390 . S
C3436 C3437 1.394 . S
C3436 C3442 1.465 . S
C3437 C3432 1.399 . S
C3437 C3436 1.394 . S
C3437 C3438 1.516 . S
C3438 C3437 1.516 . S
C3438 C3439 1.502 . S
C3438 C3440 1.561 . S
C3438 C3441 1.526 . S
C3439 H3423 0.959 . S
C3439 H3424 0.959 . S
C3439 H3425 0.961 . S
C3439 C3438 1.502 . S
C3440 H3426 0.960 . S
C3440 H3427 0.961 . S
C3440 H3428 0.959 . S
C3440 C3438 1.561 . S
C3441 C3438 1.526 . S
C3441 C3442 1.396 . S
C3441 C3446 1.390 . S
C3442 C3436 1.465 . S
C3442 C3441 1.396 . S
C3442 C3443 1.399 . S
C3443 H3429 0.929 . S
C3443 C3442 1.399 . S
C3443 C3444 1.385 . S
C3444 H3430 0.931 . S
C3444 C3443 1.385 . S
C3444 C3445 1.389 . S
C3445 C3444 1.389 . S
C3445 C3446 1.387 . S
C3446 H3431 0.930 . S
C3446 C3441 1.390 . S
C3446 C3445 1.387 . S
H3447 C3459 0.930 . S
H3448 C3461 0.930 . S
H3449 C3462 0.930 . S
H3450 C3466 0.959 . S
H3451 C3466 0.959 . S
H3452 C3466 0.961 . S
H3453 C3467 0.960 . S
H3454 C3467 0.961 . S
H3455 C3467 0.959 . S
H3456 C3470 0.929 . S
H3457 C3471 0.931 . S
H3458 C3473 0.930 . S
C3459 H3447 0.930 . S
C3459 C3460 1.399 . S
C3459 C3464 1.399 . S
C3460 C3459 1.399 . S
C3460 C3461 1.376 . S
C3461 H3448 0.930 . S
C3461 C3460 1.376 . S
C3461 C3462 1.388 . S
C3462 H3449 0.930 . S
C3462 C3461 1.388 . S
C3462 C3463 1.390 . S
C3463 C3462 1.390 . S
C3463 C3464 1.394 . S
C3463 C3469 1.465 . S
C3464 C3459 1.399 . S
C3464 C3463 1.394 . S
C3464 C3465 1.516 . S
C3465 C3464 1.516 . S
C3465 C3466 1.502 . S
C3465 C3467 1.561 . S
C3465 C3468 1.526 . S
C3466 H3450 0.959 . S
C3466 H3451 0.959 . S
C3466 H3452 0.961 . S
C3466 C3465 1.502 . S
C3467 H3453 0.960 . S
C3467 H3454 0.961 . S
C3467 H3455 0.959 . S
C3467 C3465 1.561 . S
C3468 C3465 1.526 . S
C3468 C3469 1.396 . S
C3468 C3473 1.390 . S
C3469 C3463 1.465 . S
C3469 C3468 1.396 . S
C3469 C3470 1.399 . S
C3470 H3456 0.929 . S
C3470 C3469 1.399 . S
C3470 C3471 1.385 . S
C3471 H3457 0.931 . S
C3471 C3470 1.385 . S
C3471 C3472 1.389 . S
C3472 C3471 1.389 . S
C3472 C3473 1.387 . S
C3473 H3458 0.930 . S
C3473 C3468 1.390 . S
C3473 C3472 1.387 . S
H3474 C3486 0.930 . S
H3475 C3488 0.930 . S
H3476 C3489 0.930 . S
H3477 C3493 0.959 . S
H3478 C3493 0.959 . S
H3479 C3493 0.961 . S
H3480 C3494 0.960 . S
H3481 C3494 0.961 . S
H3482 C3494 0.959 . S
H3483 C3497 0.929 . S
H3484 C3498 0.931 . S
H3485 C3500 0.930 . S
C3486 H3474 0.930 . S
C3486 C3487 1.399 . S
C3486 C3491 1.399 . S
C3487 C3486 1.399 . S
C3487 C3488 1.376 . S
C3488 H3475 0.930 . S
C3488 C3487 1.376 . S
C3488 C3489 1.388 . S
C3489 H3476 0.930 . S
C3489 C3488 1.388 . S
C3489 C3490 1.390 . S
C3490 C3489 1.390 . S
C3490 C3491 1.394 . S
C3490 C3496 1.465 . S
C3491 C3486 1.399 . S
C3491 C3490 1.394 . S
C3491 C3492 1.516 . S
C3492 C3491 1.516 . S
C3492 C3493 1.502 . S
C3492 C3494 1.561 . S
C3492 C3495 1.526 . S
C3493 H3477 0.959 . S
C3493 H3478 0.959 . S
C3493 H3479 0.961 . S
C3493 C3492 1.502 . S
C3494 H3480 0.960 . S
C3494 H3481 0.961 . S
C3494 H3482 0.959 . S
C3494 C3492 1.561 . S
C3495 C3492 1.526 . S
C3495 C3496 1.396 . S
C3495 C3500 1.390 . S
C3496 C3490 1.465 . S
C3496 C3495 1.396 . S
C3496 C3497 1.399 . S
C3497 H3483 0.929 . S
C3497 C3496 1.399 . S
C3497 C3498 1.385 . S
C3498 H3484 0.931 . S
C3498 C3497 1.385 . S
C3498 C3499 1.389 . S
C3499 C3498 1.389 . S
C3499 C3500 1.387 . S
C3500 H3485 0.930 . S
C3500 C3495 1.390 . S
C3500 C3499 1.387 . S
H3501 C3513 0.930 . S
H3502 C3515 0.930 . S
H3503 C3516 0.930 . S
H3504 C3520 0.959 . S
H3505 C3520 0.959 . S
H3506 C3520 0.961 . S
H3507 C3521 0.960 . S
H3508 C3521 0.961 . S
H3509 C3521 0.959 . S
H3510 C3524 0.929 1_556 S
H3511 C3525 0.931 1_556 S
H3512 C3527 0.930 . S
C3513 H3501 0.930 . S
C3513 C3514 1.399 . S
C3513 C3518 1.399 . S
C3514 C3513 1.399 . S
C3514 C3515 1.376 . S
C3515 H3502 0.930 . S
C3515 C3514 1.376 . S
C3515 C3516 1.388 . S
C3516 H3503 0.930 . S
C3516 C3515 1.388 . S
C3516 C3517 1.390 . S
C3517 C3516 1.390 . S
C3517 C3518 1.394 . S
C3517 C3523 1.465 . S
C3518 C3513 1.399 . S
C3518 C3517 1.394 . S
C3518 C3519 1.516 . S
C3519 C3518 1.516 . S
C3519 C3520 1.502 . S
C3519 C3521 1.561 . S
C3519 C3522 1.526 . S
C3520 H3504 0.959 . S
C3520 H3505 0.959 . S
C3520 H3506 0.961 . S
C3520 C3519 1.502 . S
C3521 H3507 0.960 . S
C3521 H3508 0.961 . S
C3521 H3509 0.959 . S
C3521 C3519 1.561 . S
C3522 C3519 1.526 . S
C3522 C3523 1.396 . S
C3522 C3527 1.390 . S
C3523 C3517 1.465 . S
C3523 C3522 1.396 . S
C3523 C3524 1.399 . S
C3524 H3510 0.929 1_554 S
C3524 C3523 1.399 . S
C3524 C3525 1.385 . S
C3525 H3511 0.931 1_554 S
C3525 C3524 1.385 . S
C3525 C3526 1.389 . S
C3526 C3525 1.389 . S
C3526 C3527 1.387 . S
C3527 H3512 0.930 . S
C3527 C3522 1.390 . S
C3527 C3526 1.387 . S
H3528 C3540 0.930 . S
H3529 C3542 0.930 . S
H3530 C3543 0.930 . S
H3531 C3547 0.959 . S
H3532 C3547 0.959 . S
H3533 C3547 0.961 . S
H3534 C3548 0.960 . S
H3535 C3548 0.961 . S
H3536 C3548 0.959 . S
H3537 C3551 0.929 . S
H3538 C3552 0.931 . S
H3539 C3554 0.930 . S
C3540 H3528 0.930 . S
C3540 C3541 1.399 . S
C3540 C3545 1.399 . S
C3541 C3540 1.399 . S
C3541 C3542 1.376 . S
C3542 H3529 0.930 . S
C3542 C3541 1.376 . S
C3542 C3543 1.388 . S
C3543 H3530 0.930 . S
C3543 C3542 1.388 . S
C3543 C3544 1.390 . S
C3544 C3543 1.390 . S
C3544 C3545 1.394 . S
C3544 C3550 1.465 . S
C3545 C3540 1.399 . S
C3545 C3544 1.394 . S
C3545 C3546 1.516 . S
C3546 C3545 1.516 . S
C3546 C3547 1.502 . S
C3546 C3548 1.561 . S
C3546 C3549 1.526 . S
C3547 H3531 0.959 . S
C3547 H3532 0.959 . S
C3547 H3533 0.961 . S
C3547 C3546 1.502 . S
C3548 H3534 0.960 . S
C3548 H3535 0.961 . S
C3548 H3536 0.959 . S
C3548 C3546 1.561 . S
C3549 C3546 1.526 . S
C3549 C3550 1.396 . S
C3549 C3554 1.390 . S
C3550 C3544 1.465 . S
C3550 C3549 1.396 . S
C3550 C3551 1.399 . S
C3551 H3537 0.929 . S
C3551 C3550 1.399 . S
C3551 C3552 1.385 . S
C3552 H3538 0.931 . S
C3552 C3551 1.385 . S
C3552 C3553 1.389 . S
C3553 C3552 1.389 . S
C3553 C3554 1.387 . S
C3554 H3539 0.930 . S
C3554 C3549 1.390 . S
C3554 C3553 1.387 . S
H3555 C3567 0.930 . S
H3556 C3569 0.930 . S
H3557 C3570 0.930 . S
H3558 C3574 0.959 . S
H3559 C3574 0.959 . S
H3560 C3574 0.961 . S
H3561 C3575 0.960 . S
H3562 C3575 0.961 . S
H3563 C3575 0.959 . S
H3564 C3578 0.929 . S
H3565 C3579 0.931 . S
H3566 C3581 0.930 . S
C3567 H3555 0.930 . S
C3567 C3568 1.399 . S
C3567 C3572 1.399 . S
C3568 C3567 1.399 . S
C3568 C3569 1.376 . S
C3569 H3556 0.930 . S
C3569 C3568 1.376 . S
C3569 C3570 1.388 . S
C3570 H3557 0.930 . S
C3570 C3569 1.388 . S
C3570 C3571 1.390 . S
C3571 C3570 1.390 . S
C3571 C3572 1.394 . S
C3571 C3577 1.465 . S
C3572 C3567 1.399 . S
C3572 C3571 1.394 . S
C3572 C3573 1.516 . S
C3573 C3572 1.516 . S
C3573 C3574 1.502 . S
C3573 C3575 1.561 . S
C3573 C3576 1.526 . S
C3574 H3558 0.959 . S
C3574 H3559 0.959 . S
C3574 H3560 0.961 . S
C3574 C3573 1.502 . S
C3575 H3561 0.960 . S
C3575 H3562 0.961 . S
C3575 H3563 0.959 . S
C3575 C3573 1.561 . S
C3576 C3573 1.526 . S
C3576 C3577 1.396 . S
C3576 C3581 1.390 . S
C3577 C3571 1.465 . S
C3577 C3576 1.396 . S
C3577 C3578 1.399 . S
C3578 H3564 0.929 . S
C3578 C3577 1.399 . S
C3578 C3579 1.385 . S
C3579 H3565 0.931 . S
C3579 C3578 1.385 . S
C3579 C3580 1.389 . S
C3580 C3579 1.389 . S
C3580 C3581 1.387 . S
C3581 H3566 0.930 . S
C3581 C3576 1.390 . S
C3581 C3580 1.387 . S
H3582 C3594 0.930 . S
H3583 C3596 0.930 . S
H3584 C3597 0.930 . S
H3585 C3601 0.959 . S
H3586 C3601 0.959 . S
H3587 C3601 0.961 . S
H3588 C3602 0.960 . S
H3589 C3602 0.961 . S
H3590 C3602 0.959 . S
H3591 C3605 0.929 . S
H3592 C3606 0.931 . S
H3593 C3608 0.930 . S
C3594 H3582 0.930 . S
C3594 C3595 1.399 . S
C3594 C3599 1.399 . S
C3595 C3594 1.399 . S
C3595 C3596 1.376 . S
C3596 H3583 0.930 . S
C3596 C3595 1.376 . S
C3596 C3597 1.388 . S
C3597 H3584 0.930 . S
C3597 C3596 1.388 . S
C3597 C3598 1.390 . S
C3598 C3597 1.390 . S
C3598 C3599 1.394 . S
C3598 C3604 1.465 . S
C3599 C3594 1.399 . S
C3599 C3598 1.394 . S
C3599 C3600 1.516 . S
C3600 C3599 1.516 . S
C3600 C3601 1.502 . S
C3600 C3602 1.561 . S
C3600 C3603 1.526 . S
C3601 H3585 0.959 . S
C3601 H3586 0.959 . S
C3601 H3587 0.961 . S
C3601 C3600 1.502 . S
C3602 H3588 0.960 . S
C3602 H3589 0.961 . S
C3602 H3590 0.959 . S
C3602 C3600 1.561 . S
C3603 C3600 1.526 . S
C3603 C3604 1.396 . S
C3603 C3608 1.390 . S
C3604 C3598 1.465 . S
C3604 C3603 1.396 . S
C3604 C3605 1.399 . S
C3605 H3591 0.929 . S
C3605 C3604 1.399 . S
C3605 C3606 1.385 . S
C3606 H3592 0.931 . S
C3606 C3605 1.385 . S
C3606 C3607 1.389 . S
C3607 C3606 1.389 . S
C3607 C3608 1.387 . S
C3608 H3593 0.930 . S
C3608 C3603 1.390 . S
C3608 C3607 1.387 . S
H3609 C3621 0.930 . S
H3610 C3623 0.930 . S
H3611 C3624 0.930 . S
H3612 C3628 0.959 . S
H3613 C3628 0.959 . S
H3614 C3628 0.961 . S
H3615 C3629 0.960 . S
H3616 C3629 0.961 . S
H3617 C3629 0.959 . S
H3618 C3632 0.929 . S
H3619 C3633 0.931 . S
H3620 C3635 0.930 . S
C3621 H3609 0.930 . S
C3621 C3622 1.399 . S
C3621 C3626 1.399 . S
C3622 C3621 1.399 . S
C3622 C3623 1.376 . S
C3623 H3610 0.930 . S
C3623 C3622 1.376 . S
C3623 C3624 1.388 . S
C3624 H3611 0.930 . S
C3624 C3623 1.388 . S
C3624 C3625 1.390 . S
C3625 C3624 1.390 . S
C3625 C3626 1.394 . S
C3625 C3631 1.465 . S
C3626 C3621 1.399 . S
C3626 C3625 1.394 . S
C3626 C3627 1.516 . S
C3627 C3626 1.516 . S
C3627 C3628 1.502 . S
C3627 C3629 1.561 . S
C3627 C3630 1.526 . S
C3628 H3612 0.959 . S
C3628 H3613 0.959 . S
C3628 H3614 0.961 . S
C3628 C3627 1.502 . S
C3629 H3615 0.960 . S
C3629 H3616 0.961 . S
C3629 H3617 0.959 . S
C3629 C3627 1.561 . S
C3630 C3627 1.526 . S
C3630 C3631 1.396 . S
C3630 C3635 1.390 . S
C3631 C3625 1.465 . S
C3631 C3630 1.396 . S
C3631 C3632 1.399 . S
C3632 H3618 0.929 . S
C3632 C3631 1.399 . S
C3632 C3633 1.385 . S
C3633 H3619 0.931 . S
C3633 C3632 1.385 . S
C3633 C3634 1.389 . S
C3634 C3633 1.389 . S
C3634 C3635 1.387 . S
C3635 H3620 0.930 . S
C3635 C3630 1.390 . S
C3635 C3634 1.387 . S
H3636 C3648 0.930 . S
H3637 C3650 0.930 . S
H3638 C3651 0.930 . S
H3639 C3655 0.959 . S
H3640 C3655 0.959 . S
H3641 C3655 0.961 . S
H3642 C3656 0.960 . S
H3643 C3656 0.961 . S
H3644 C3656 0.959 . S
H3645 C3659 0.929 . S
H3646 C3660 0.931 . S
H3647 C3662 0.930 . S
C3648 H3636 0.930 . S
C3648 C3649 1.399 . S
C3648 C3653 1.399 . S
C3649 C3648 1.399 . S
C3649 C3650 1.376 . S
C3650 H3637 0.930 . S
C3650 C3649 1.376 . S
C3650 C3651 1.388 . S
C3651 H3638 0.930 . S
C3651 C3650 1.388 . S
C3651 C3652 1.390 . S
C3652 C3651 1.390 . S
C3652 C3653 1.394 . S
C3652 C3658 1.465 . S
C3653 C3648 1.399 . S
C3653 C3652 1.394 . S
C3653 C3654 1.516 . S
C3654 C3653 1.516 . S
C3654 C3655 1.502 . S
C3654 C3656 1.561 . S
C3654 C3657 1.526 . S
C3655 H3639 0.959 . S
C3655 H3640 0.959 . S
C3655 H3641 0.961 . S
C3655 C3654 1.502 . S
C3656 H3642 0.960 . S
C3656 H3643 0.961 . S
C3656 H3644 0.959 . S
C3656 C3654 1.561 . S
C3657 C3654 1.526 . S
C3657 C3658 1.396 . S
C3657 C3662 1.390 . S
C3658 C3652 1.465 . S
C3658 C3657 1.396 . S
C3658 C3659 1.399 . S
C3659 H3645 0.929 . S
C3659 C3658 1.399 . S
C3659 C3660 1.385 . S
C3660 H3646 0.931 . S
C3660 C3659 1.385 . S
C3660 C3661 1.389 . S
C3661 C3660 1.389 . S
C3661 C3662 1.387 . S
C3662 H3647 0.930 . S
C3662 C3657 1.390 . S
C3662 C3661 1.387 . S
H3663 C3675 0.930 . S
H3664 C3677 0.930 . S
H3665 C3678 0.930 . S
H3666 C3682 0.959 . S
H3667 C3682 0.959 . S
H3668 C3682 0.961 . S
H3669 C3683 0.960 . S
H3670 C3683 0.961 . S
H3671 C3683 0.959 . S
H3672 C3686 0.929 . S
H3673 C3687 0.931 . S
H3674 C3689 0.930 . S
C3675 H3663 0.930 . S
C3675 C3676 1.399 . S
C3675 C3680 1.399 . S
C3676 C3675 1.399 . S
C3676 C3677 1.376 . S
C3677 H3664 0.930 . S
C3677 C3676 1.376 . S
C3677 C3678 1.388 . S
C3678 H3665 0.930 . S
C3678 C3677 1.388 . S
C3678 C3679 1.390 . S
C3679 C3678 1.390 . S
C3679 C3680 1.394 . S
C3679 C3685 1.465 . S
C3680 C3675 1.399 . S
C3680 C3679 1.394 . S
C3680 C3681 1.516 . S
C3681 C3680 1.516 . S
C3681 C3682 1.502 . S
C3681 C3683 1.561 . S
C3681 C3684 1.526 . S
C3682 H3666 0.959 . S
C3682 H3667 0.959 . S
C3682 H3668 0.961 . S
C3682 C3681 1.502 . S
C3683 H3669 0.960 . S
C3683 H3670 0.961 . S
C3683 H3671 0.959 . S
C3683 C3681 1.561 . S
C3684 C3681 1.526 . S
C3684 C3685 1.396 . S
C3684 C3689 1.390 . S
C3685 C3679 1.465 . S
C3685 C3684 1.396 . S
C3685 C3686 1.399 . S
C3686 H3672 0.929 . S
C3686 C3685 1.399 . S
C3686 C3687 1.385 . S
C3687 H3673 0.931 . S
C3687 C3686 1.385 . S
C3687 C3688 1.389 . S
C3688 C3687 1.389 . S
C3688 C3689 1.387 . S
C3689 H3674 0.930 . S
C3689 C3684 1.390 . S
C3689 C3688 1.387 . S
H3690 C3702 0.930 . S
H3691 C3704 0.930 . S
H3692 C3705 0.930 . S
H3693 C3709 0.959 . S
H3694 C3709 0.959 . S
H3695 C3709 0.961 . S
H3696 C3710 0.960 . S
H3697 C3710 0.961 . S
H3698 C3710 0.959 . S
H3699 C3713 0.929 . S
H3700 C3714 0.931 . S
H3701 C3716 0.930 . S
C3702 H3690 0.930 . S
C3702 C3703 1.399 . S
C3702 C3707 1.399 . S
C3703 C3702 1.399 . S
C3703 C3704 1.376 . S
C3704 H3691 0.930 . S
C3704 C3703 1.376 . S
C3704 C3705 1.388 . S
C3705 H3692 0.930 . S
C3705 C3704 1.388 . S
C3705 C3706 1.390 . S
C3706 C3705 1.390 . S
C3706 C3707 1.394 . S
C3706 C3712 1.465 . S
C3707 C3702 1.399 . S
C3707 C3706 1.394 . S
C3707 C3708 1.516 . S
C3708 C3707 1.516 . S
C3708 C3709 1.502 . S
C3708 C3710 1.561 . S
C3708 C3711 1.526 . S
C3709 H3693 0.959 . S
C3709 H3694 0.959 . S
C3709 H3695 0.961 . S
C3709 C3708 1.502 . S
C3710 H3696 0.960 . S
C3710 H3697 0.961 . S
C3710 H3698 0.959 . S
C3710 C3708 1.561 . S
C3711 C3708 1.526 . S
C3711 C3712 1.396 . S
C3711 C3716 1.390 . S
C3712 C3706 1.465 . S
C3712 C3711 1.396 . S
C3712 C3713 1.399 . S
C3713 H3699 0.929 . S
C3713 C3712 1.399 . S
C3713 C3714 1.385 . S
C3714 H3700 0.931 . S
C3714 C3713 1.385 . S
C3714 C3715 1.389 . S
C3715 C3714 1.389 . S
C3715 C3716 1.387 . S
C3716 H3701 0.930 . S
C3716 C3711 1.390 . S
C3716 C3715 1.387 . S
H3717 C3729 0.930 . S
H3718 C3731 0.930 . S
H3719 C3732 0.930 . S
H3720 C3736 0.959 . S
H3721 C3736 0.959 . S
H3722 C3736 0.961 . S
H3723 C3737 0.960 . S
H3724 C3737 0.961 . S
H3725 C3737 0.959 . S
H3726 C3740 0.929 . S
H3727 C3741 0.931 . S
H3728 C3743 0.930 . S
C3729 H3717 0.930 . S
C3729 C3730 1.399 . S
C3729 C3734 1.399 . S
C3730 C3729 1.399 . S
C3730 C3731 1.376 . S
C3731 H3718 0.930 . S
C3731 C3730 1.376 . S
C3731 C3732 1.388 . S
C3732 H3719 0.930 . S
C3732 C3731 1.388 . S
C3732 C3733 1.390 . S
C3733 C3732 1.390 . S
C3733 C3734 1.394 . S
C3733 C3739 1.465 . S
C3734 C3729 1.399 . S
C3734 C3733 1.394 . S
C3734 C3735 1.516 . S
C3735 C3734 1.516 . S
C3735 C3736 1.502 . S
C3735 C3737 1.561 . S
C3735 C3738 1.526 . S
C3736 H3720 0.959 . S
C3736 H3721 0.959 . S
C3736 H3722 0.961 . S
C3736 C3735 1.502 . S
C3737 H3723 0.960 . S
C3737 H3724 0.961 . S
C3737 H3725 0.959 . S
C3737 C3735 1.561 . S
C3738 C3735 1.526 . S
C3738 C3739 1.396 . S
C3738 C3743 1.390 . S
C3739 C3733 1.465 . S
C3739 C3738 1.396 . S
C3739 C3740 1.399 . S
C3740 H3726 0.929 . S
C3740 C3739 1.399 . S
C3740 C3741 1.385 . S
C3741 H3727 0.931 . S
C3741 C3740 1.385 . S
C3741 C3742 1.389 . S
C3742 C3741 1.389 . S
C3742 C3743 1.387 . S
C3743 H3728 0.930 . S
C3743 C3738 1.390 . S
C3743 C3742 1.387 . S
H3744 C3756 0.930 . S
H3745 C3758 0.930 . S
H3746 C3759 0.930 . S
H3747 C3763 0.959 . S
H3748 C3763 0.959 . S
H3749 C3763 0.961 . S
H3750 C3764 0.960 . S
H3751 C3764 0.961 . S
H3752 C3764 0.959 . S
H3753 C3767 0.929 . S
H3754 C3768 0.931 . S
H3755 C3770 0.930 . S
C3756 H3744 0.930 . S
C3756 C3757 1.399 . S
C3756 C3761 1.399 . S
C3757 C3756 1.399 . S
C3757 C3758 1.376 . S
C3758 H3745 0.930 . S
C3758 C3757 1.376 . S
C3758 C3759 1.388 . S
C3759 H3746 0.930 . S
C3759 C3758 1.388 . S
C3759 C3760 1.390 . S
C3760 C3759 1.390 . S
C3760 C3761 1.394 . S
C3760 C3766 1.465 . S
C3761 C3756 1.399 . S
C3761 C3760 1.394 . S
C3761 C3762 1.516 . S
C3762 C3761 1.516 . S
C3762 C3763 1.502 . S
C3762 C3764 1.561 . S
C3762 C3765 1.526 . S
C3763 H3747 0.959 . S
C3763 H3748 0.959 . S
C3763 H3749 0.961 . S
C3763 C3762 1.502 . S
C3764 H3750 0.960 . S
C3764 H3751 0.961 . S
C3764 H3752 0.959 . S
C3764 C3762 1.561 . S
C3765 C3762 1.526 . S
C3765 C3766 1.396 . S
C3765 C3770 1.390 . S
C3766 C3760 1.465 . S
C3766 C3765 1.396 . S
C3766 C3767 1.399 . S
C3767 H3753 0.929 . S
C3767 C3766 1.399 . S
C3767 C3768 1.385 . S
C3768 H3754 0.931 . S
C3768 C3767 1.385 . S
C3768 C3769 1.389 . S
C3769 C3768 1.389 . S
C3769 C3770 1.387 . S
C3770 H3755 0.930 . S
C3770 C3765 1.390 . S
C3770 C3769 1.387 . S
H3771 C3783 0.930 . S
H3772 C3785 0.930 . S
H3773 C3786 0.930 . S
H3774 C3790 0.959 . S
H3775 C3790 0.959 . S
H3776 C3790 0.961 . S
H3777 C3791 0.960 . S
H3778 C3791 0.961 . S
H3779 C3791 0.959 . S
H3780 C3794 0.929 . S
H3781 C3795 0.931 . S
H3782 C3797 0.930 . S
C3783 H3771 0.930 . S
C3783 C3784 1.399 . S
C3783 C3788 1.399 . S
C3784 C3783 1.399 . S
C3784 C3785 1.376 . S
C3785 H3772 0.930 . S
C3785 C3784 1.376 . S
C3785 C3786 1.388 . S
C3786 H3773 0.930 . S
C3786 C3785 1.388 . S
C3786 C3787 1.390 . S
C3787 C3786 1.390 . S
C3787 C3788 1.394 . S
C3787 C3793 1.465 . S
C3788 C3783 1.399 . S
C3788 C3787 1.394 . S
C3788 C3789 1.516 . S
C3789 C3788 1.516 . S
C3789 C3790 1.502 . S
C3789 C3791 1.561 . S
C3789 C3792 1.526 . S
C3790 H3774 0.959 . S
C3790 H3775 0.959 . S
C3790 H3776 0.961 . S
C3790 C3789 1.502 . S
C3791 H3777 0.960 . S
C3791 H3778 0.961 . S
C3791 H3779 0.959 . S
C3791 C3789 1.561 . S
C3792 C3789 1.526 . S
C3792 C3793 1.396 . S
C3792 C3797 1.390 . S
C3793 C3787 1.465 . S
C3793 C3792 1.396 . S
C3793 C3794 1.399 . S
C3794 H3780 0.929 . S
C3794 C3793 1.399 . S
C3794 C3795 1.385 . S
C3795 H3781 0.931 . S
C3795 C3794 1.385 . S
C3795 C3796 1.389 . S
C3796 C3795 1.389 . S
C3796 C3797 1.387 . S
C3797 H3782 0.930 . S
C3797 C3792 1.390 . S
C3797 C3796 1.387 . S
H3798 C3810 0.930 . S
H3799 C3812 0.930 . S
H3800 C3813 0.930 . S
H3801 C3817 0.959 . S
H3802 C3817 0.959 . S
H3803 C3817 0.961 . S
H3804 C3818 0.960 . S
H3805 C3818 0.961 . S
H3806 C3818 0.959 . S
H3807 C3821 0.929 . S
H3808 C3822 0.931 . S
H3809 C3824 0.930 . S
C3810 H3798 0.930 . S
C3810 C3811 1.399 . S
C3810 C3815 1.399 . S
C3811 C3810 1.399 . S
C3811 C3812 1.376 . S
C3812 H3799 0.930 . S
C3812 C3811 1.376 . S
C3812 C3813 1.388 . S
C3813 H3800 0.930 . S
C3813 C3812 1.388 . S
C3813 C3814 1.390 . S
C3814 C3813 1.390 . S
C3814 C3815 1.394 . S
C3814 C3820 1.465 . S
C3815 C3810 1.399 . S
C3815 C3814 1.394 . S
C3815 C3816 1.516 . S
C3816 C3815 1.516 . S
C3816 C3817 1.502 . S
C3816 C3818 1.561 . S
C3816 C3819 1.526 . S
C3817 H3801 0.959 . S
C3817 H3802 0.959 . S
C3817 H3803 0.961 . S
C3817 C3816 1.502 . S
C3818 H3804 0.960 . S
C3818 H3805 0.961 . S
C3818 H3806 0.959 . S
C3818 C3816 1.561 . S
C3819 C3816 1.526 . S
C3819 C3820 1.396 . S
C3819 C3824 1.390 . S
C3820 C3814 1.465 . S
C3820 C3819 1.396 . S
C3820 C3821 1.399 . S
C3821 H3807 0.929 . S
C3821 C3820 1.399 . S
C3821 C3822 1.385 . S
C3822 H3808 0.931 . S
C3822 C3821 1.385 . S
C3822 C3823 1.389 . S
C3823 C3822 1.389 . S
C3823 C3824 1.387 . S
C3824 H3809 0.930 . S
C3824 C3819 1.390 . S
C3824 C3823 1.387 . S
H3825 C3837 0.930 . S
H3826 C3839 0.930 . S
H3827 C3840 0.930 . S
H3828 C3844 0.959 . S
H3829 C3844 0.959 . S
H3830 C3844 0.961 . S
H3831 C3845 0.960 . S
H3832 C3845 0.961 . S
H3833 C3845 0.959 . S
H3834 C3848 0.929 . S
H3835 C3849 0.931 . S
H3836 C3851 0.930 . S
C3837 H3825 0.930 . S
C3837 C3838 1.399 . S
C3837 C3842 1.399 . S
C3838 C3837 1.399 . S
C3838 C3839 1.376 . S
C3839 H3826 0.930 . S
C3839 C3838 1.376 . S
C3839 C3840 1.388 . S
C3840 H3827 0.930 . S
C3840 C3839 1.388 . S
C3840 C3841 1.390 . S
C3841 C3840 1.390 . S
C3841 C3842 1.394 . S
C3841 C3847 1.465 . S
C3842 C3837 1.399 . S
C3842 C3841 1.394 . S
C3842 C3843 1.516 . S
C3843 C3842 1.516 . S
C3843 C3844 1.502 . S
C3843 C3845 1.561 . S
C3843 C3846 1.526 . S
C3844 H3828 0.959 . S
C3844 H3829 0.959 . S
C3844 H3830 0.961 . S
C3844 C3843 1.502 . S
C3845 H3831 0.960 . S
C3845 H3832 0.961 . S
C3845 H3833 0.959 . S
C3845 C3843 1.561 . S
C3846 C3843 1.526 . S
C3846 C3847 1.396 . S
C3846 C3851 1.390 . S
C3847 C3841 1.465 . S
C3847 C3846 1.396 . S
C3847 C3848 1.399 . S
C3848 H3834 0.929 . S
C3848 C3847 1.399 . S
C3848 C3849 1.385 . S
C3849 H3835 0.931 . S
C3849 C3848 1.385 . S
C3849 C3850 1.389 . S
C3850 C3849 1.389 . S
C3850 C3851 1.387 . S
C3851 H3836 0.930 . S
C3851 C3846 1.390 . S
C3851 C3850 1.387 . S
H3852 C3864 0.930 . S
H3853 C3866 0.930 . S
H3854 C3867 0.930 . S
H3855 C3871 0.959 . S
H3856 C3871 0.959 . S
H3857 C3871 0.961 . S
H3858 C3872 0.960 . S
H3859 C3872 0.961 . S
H3860 C3872 0.959 . S
H3861 C3875 0.929 . S
H3862 C3876 0.931 . S
H3863 C3878 0.930 . S
C3864 H3852 0.930 . S
C3864 C3865 1.399 . S
C3864 C3869 1.399 . S
C3865 C3864 1.399 . S
C3865 C3866 1.376 . S
C3866 H3853 0.930 . S
C3866 C3865 1.376 . S
C3866 C3867 1.388 . S
C3867 H3854 0.930 . S
C3867 C3866 1.388 . S
C3867 C3868 1.390 . S
C3868 C3867 1.390 . S
C3868 C3869 1.394 . S
C3868 C3874 1.465 . S
C3869 C3864 1.399 . S
C3869 C3868 1.394 . S
C3869 C3870 1.516 . S
C3870 C3869 1.516 . S
C3870 C3871 1.502 . S
C3870 C3872 1.561 . S
C3870 C3873 1.526 . S
C3871 H3855 0.959 . S
C3871 H3856 0.959 . S
C3871 H3857 0.961 . S
C3871 C3870 1.502 . S
C3872 H3858 0.960 . S
C3872 H3859 0.961 . S
C3872 H3860 0.959 . S
C3872 C3870 1.561 . S
C3873 C3870 1.526 . S
C3873 C3874 1.396 . S
C3873 C3878 1.390 . S
C3874 C3868 1.465 . S
C3874 C3873 1.396 . S
C3874 C3875 1.399 . S
C3875 H3861 0.929 . S
C3875 C3874 1.399 . S
C3875 C3876 1.385 . S
C3876 H3862 0.931 . S
C3876 C3875 1.385 . S
C3876 C3877 1.389 . S
C3877 C3876 1.389 . S
C3877 C3878 1.387 . S
C3878 H3863 0.930 . S
C3878 C3873 1.390 . S
C3878 C3877 1.387 . S
H3879 C3891 0.930 . S
H3880 C3893 0.930 . S
H3881 C3894 0.930 . S
H3882 C3898 0.959 . S
H3883 C3898 0.959 . S
H3884 C3898 0.961 . S
H3885 C3899 0.960 . S
H3886 C3899 0.961 . S
H3887 C3899 0.959 . S
H3888 C3902 0.929 . S
H3889 C3903 0.931 . S
H3890 C3905 0.930 . S
C3891 H3879 0.930 . S
C3891 C3892 1.399 . S
C3891 C3896 1.399 . S
C3892 C3891 1.399 . S
C3892 C3893 1.376 . S
C3893 H3880 0.930 . S
C3893 C3892 1.376 . S
C3893 C3894 1.388 . S
C3894 H3881 0.930 . S
C3894 C3893 1.388 . S
C3894 C3895 1.390 . S
C3895 C3894 1.390 . S
C3895 C3896 1.394 . S
C3895 C3901 1.465 . S
C3896 C3891 1.399 . S
C3896 C3895 1.394 . S
C3896 C3897 1.516 . S
C3897 C3896 1.516 . S
C3897 C3898 1.502 . S
C3897 C3899 1.561 . S
C3897 C3900 1.526 . S
C3898 H3882 0.959 . S
C3898 H3883 0.959 . S
C3898 H3884 0.961 . S
C3898 C3897 1.502 . S
C3899 H3885 0.960 . S
C3899 H3886 0.961 . S
C3899 H3887 0.959 . S
C3899 C3897 1.561 . S
C3900 C3897 1.526 . S
C3900 C3901 1.396 . S
C3900 C3905 1.390 . S
C3901 C3895 1.465 . S
C3901 C3900 1.396 . S
C3901 C3902 1.399 . S
C3902 H3888 0.929 . S
C3902 C3901 1.399 . S
C3902 C3903 1.385 . S
C3903 H3889 0.931 . S
C3903 C3902 1.385 . S
C3903 C3904 1.389 . S
C3904 C3903 1.389 . S
C3904 C3905 1.387 . S
C3905 H3890 0.930 . S
C3905 C3900 1.390 . S
C3905 C3904 1.387 . S
H3906 C3918 0.930 . S
H3907 C3920 0.930 . S
H3908 C3921 0.930 . S
H3909 C3925 0.959 . S
H3910 C3925 0.959 . S
H3911 C3925 0.961 . S
H3912 C3926 0.960 . S
H3913 C3926 0.961 . S
H3914 C3926 0.959 . S
H3915 C3929 0.929 . S
H3916 C3930 0.931 . S
H3917 C3932 0.930 . S
C3918 H3906 0.930 . S
C3918 C3919 1.399 . S
C3918 C3923 1.399 . S
C3919 C3918 1.399 . S
C3919 C3920 1.376 . S
C3920 H3907 0.930 . S
C3920 C3919 1.376 . S
C3920 C3921 1.388 . S
C3921 H3908 0.930 . S
C3921 C3920 1.388 . S
C3921 C3922 1.390 . S
C3922 C3921 1.390 . S
C3922 C3923 1.394 . S
C3922 C3928 1.465 . S
C3923 C3918 1.399 . S
C3923 C3922 1.394 . S
C3923 C3924 1.516 . S
C3924 C3923 1.516 . S
C3924 C3925 1.502 . S
C3924 C3926 1.561 . S
C3924 C3927 1.526 . S
C3925 H3909 0.959 . S
C3925 H3910 0.959 . S
C3925 H3911 0.961 . S
C3925 C3924 1.502 . S
C3926 H3912 0.960 . S
C3926 H3913 0.961 . S
C3926 H3914 0.959 . S
C3926 C3924 1.561 . S
C3927 C3924 1.526 . S
C3927 C3928 1.396 . S
C3927 C3932 1.390 . S
C3928 C3922 1.465 . S
C3928 C3927 1.396 . S
C3928 C3929 1.399 . S
C3929 H3915 0.929 . S
C3929 C3928 1.399 . S
C3929 C3930 1.385 . S
C3930 H3916 0.931 . S
C3930 C3929 1.385 . S
C3930 C3931 1.389 . S
C3931 C3930 1.389 . S
C3931 C3932 1.387 . S
C3932 H3917 0.930 . S
C3932 C3927 1.390 . S
C3932 C3931 1.387 . S
H3933 C3945 0.930 . S
H3934 C3947 0.930 . S
H3935 C3948 0.930 . S
H3936 C3952 0.959 . S
H3937 C3952 0.959 . S
H3938 C3952 0.961 . S
H3939 C3953 0.960 . S
H3940 C3953 0.961 . S
H3941 C3953 0.959 . S
H3942 C3956 0.929 . S
H3943 C3957 0.931 . S
H3944 C3959 0.930 . S
C3945 H3933 0.930 . S
C3945 C3946 1.399 . S
C3945 C3950 1.399 . S
C3946 C3945 1.399 . S
C3946 C3947 1.376 . S
C3947 H3934 0.930 . S
C3947 C3946 1.376 . S
C3947 C3948 1.388 . S
C3948 H3935 0.930 . S
C3948 C3947 1.388 . S
C3948 C3949 1.390 . S
C3949 C3948 1.390 . S
C3949 C3950 1.394 . S
C3949 C3955 1.465 . S
C3950 C3945 1.399 . S
C3950 C3949 1.394 . S
C3950 C3951 1.516 . S
C3951 C3950 1.516 . S
C3951 C3952 1.502 . S
C3951 C3953 1.561 . S
C3951 C3954 1.526 . S
C3952 H3936 0.959 . S
C3952 H3937 0.959 . S
C3952 H3938 0.961 . S
C3952 C3951 1.502 . S
C3953 H3939 0.960 . S
C3953 H3940 0.961 . S
C3953 H3941 0.959 . S
C3953 C3951 1.561 . S
C3954 C3951 1.526 . S
C3954 C3955 1.396 . S
C3954 C3959 1.390 . S
C3955 C3949 1.465 . S
C3955 C3954 1.396 . S
C3955 C3956 1.399 . S
C3956 H3942 0.929 . S
C3956 C3955 1.399 . S
C3956 C3957 1.385 . S
C3957 H3943 0.931 . S
C3957 C3956 1.385 . S
C3957 C3958 1.389 . S
C3958 C3957 1.389 . S
C3958 C3959 1.387 . S
C3959 H3944 0.930 . S
C3959 C3954 1.390 . S
C3959 C3958 1.387 . S
C2029 C56 2.460 . S
C2041 C644 2.556 . S
C2056 C140 2.177 . S
C2068 C392 2.201 . S
C2083 C231 2.420 . S
C2095 C483 2.459 . S
C2110 C308 2.015 . S
C2122 C567 2.018 . S
C2137 C63 2.543 . S
C2149 C735 2.501 . S
C2164 C812 2.011 . S
C2176 C147 2.014 . S
C2191 C896 2.298 . S
C2203 C224 2.408 . S
C2218 C315 1.763 . S
C2230 C980 1.724 . S
C2245 C399 1.726 . S
C2257 C819 1.747 1_545 S
C2272 C903 2.394 . S
C2284 C476 2.353 . S
C2299 C560 2.198 . S
C2311 C987 2.244 1_565 S
C2326 C651 2.487 . S
C2338 C728 2.590 . S
C2353 C1071 2.286 . S
C2365 C1820 2.404 . S
C2380 C1148 1.994 . S
C2392 C1904 2.046 . S
C2407 C1239 2.391 . S
C2419 C1988 2.474 . S
C2434 C1995 2.347 . S
C2446 C1316 2.474 . S
C2461 C1827 2.367 . S
C2473 C1407 2.418 . S
C2488 C1484 2.156 . S
C2500 C1652 2.113 . S
C2515 C1064 2.415 . S
C2527 C1400 2.343 . S
C2542 C1575 1.768 . S
C2554 C1155 1.762 1_455 S
C2569 C1323 2.257 . S
C2581 C1232 2.418 . S
C2596 C1743 2.147 . S
C2608 C1491 2.082 . S
C2623 C1568 2.237 . S
C2635 C1911 2.094 . S
C2650 C1659 2.147 . S
C2662 C1736 2.104 . S
C2677 C403 3.494 . S
C2689 C67 3.514 . S
C2704 C494 3.622 . S
C2716 C151 3.501 . S
C2731 C242 3.657 . S
C2743 C578 3.759 . S
C2758 C319 3.546 . S
C2770 C655 3.503 . S
C2785 C998 3.653 1_545 S
C2797 C746 3.594 . S
C2812 C739 3.535 . S
C2824 C823 3.607 . S
C2839 C830 3.606 1_565 S
C2851 C907 3.474 . S
C2866 C991 3.296 . S
C2878 C914 3.426 . S
C2893 C1579 3.503 . S
C2905 C662 3.525 . S
C2920 C326 3.621 1_556 S
C2932 C1082 3.505 . S
C2947 C74 3.665 . S
C2959 C1159 3.562 . S
C2974 C158 3.732 . S
C2986 C1250 3.697 . S
C3001 C1670 3.622 . S
C3013 C487 3.520 . S
C3028 C410 3.349 . S
C3040 C1327 3.299 . S
C3055 C571 3.453 . S
C3067 C1418 3.619 . S
C3082 C1411 3.532 . S
C3094 C1495 3.475 . S
C3109 C1586 3.384 . S
C3121 C1075 3.334 . S
C3136 C1166 3.605 1_655 S
C3148 C1334 3.554 . S
C3163 C1663 3.646 . S
C3175 C1243 3.597 . S
C3190 C1754 3.702 . S
C3202 C2006 3.604 . S
C3217 C1747 3.683 . S
C3229 C1831 3.607 . S
C3244 C1915 3.537 . S
C3256 C1838 3.647 . S
C3271 C1999 3.469 . S
C3283 C1922 3.572 . S
C3298 C1502 3.723 . S
C3310 C235 3.634 . S
C3325 C58 0.435 . S
C3337 C814 0.725 . S
C3352 C142 0.613 . S
C3364 C898 0.406 . S
C3379 C237 0.499 . S
C3391 C982 0.465 . S
C3406 C741 0.377 . S
C3418 C310 0.656 . S
C3433 C394 1.052 . S
C3445 C730 1.434 . S
C3460 C825 1.272 . S
C3472 C489 1.586 . S
C3487 C909 1.334 . S
C3499 C573 1.133 . S
C3514 C646 1.293 . S
C3526 C993 1.127 . S
C3541 C657 0.571 . S
C3553 C1150 0.594 . S
C3568 C562 0.592 . S
C3580 C1077 0.486 . S
C3595 C405 0.564 . S
C3607 C1245 0.454 . S
C3622 C1570 0.909 . S
C3634 C69 1.293 . S
C3649 C1497 0.378 . S
C3661 C478 0.543 . S
C3676 C153 1.192 . S
C3688 C1318 1.074 . S
C3703 C321 1.380 . S
C3715 C1413 1.568 . S
C3730 C1822 1.044 . S
C3742 C1486 0.908 . S
C3757 C1906 0.921 . S
C3769 C1066 1.173 . S
C3784 C1990 1.572 . S
C3796 C1161 1.332 . S
C3811 C1749 1.246 . S
C3823 C1234 1.079 . S
C3838 C1738 0.448 . S
C3850 C1402 0.627 . S
C3865 C1581 0.549 . S
C3877 C1833 0.506 . S
C3892 C1917 0.285 . S
C3904 C1329 0.467 . S
C3919 C1654 0.680 . S
C3931 C2001 0.411 . S
C3946 C226 1.054 . S
C3958 C1665 1.241 . S
