# Generated by pormake.
# Topology bcs, (6)-cn, num edge types: 1
# Building blocks:
#     Node 0, Type 0, BuildingBlock: MIFKUJ_clean_sbu_0, # of connection points: 6
#     Node 1, Type 0, BuildingBlock: MIFKUJ_clean_sbu_0, # of connection points: 6
#     Node 2, Type 0, BuildingBlock: MIFKUJ_clean_sbu_0, # of connection points: 6
#     Node 3, Type 0, BuildingBlock: MIFKUJ_clean_sbu_0, # of connection points: 6
#     Node 4, Type 0, BuildingBlock: MIFKUJ_clean_sbu_0, # of connection points: 6
#     Node 5, Type 0, BuildingBlock: MIFKUJ_clean_sbu_0, # of connection points: 6
#     Node 6, Type 0, BuildingBlock: MIFKUJ_clean_sbu_0, # of connection points: 6
#     Node 7, Type 0, BuildingBlock: MIFKUJ_clean_sbu_0, # of connection points: 6
#     Node 8, Type 0, BuildingBlock: MIFKUJ_clean_sbu_0, # of connection points: 6
#     Node 9, Type 0, BuildingBlock: MIFKUJ_clean_sbu_0, # of connection points: 6
#     Node 10, Type 0, BuildingBlock: MIFKUJ_clean_sbu_0, # of connection points: 6
#     Node 11, Type 0, BuildingBlock: MIFKUJ_clean_sbu_0, # of connection points: 6
#     Node 12, Type 0, BuildingBlock: MIFKUJ_clean_sbu_0, # of connection points: 6
#     Node 13, Type 0, BuildingBlock: MIFKUJ_clean_sbu_0, # of connection points: 6
#     Node 14, Type 0, BuildingBlock: MIFKUJ_clean_sbu_0, # of connection points: 6
#     Node 15, Type 0, BuildingBlock: MIFKUJ_clean_sbu_0, # of connection points: 6
#     Edge 16, Type (0, 0), BuildingBlock: TEMPAE_clean_linker_10, # of connection points: 2
#     Edge 17, Type (0, 0), BuildingBlock: TEMPAE_clean_linker_10, # of connection points: 2
#     Edge 18, Type (0, 0), BuildingBlock: TEMPAE_clean_linker_10, # of connection points: 2
#     Edge 19, Type (0, 0), BuildingBlock: TEMPAE_clean_linker_10, # of connection points: 2
#     Edge 20, Type (0, 0), BuildingBlock: TEMPAE_clean_linker_10, # of connection points: 2
#     Edge 21, Type (0, 0), BuildingBlock: TEMPAE_clean_linker_10, # of connection points: 2
#     Edge 22, Type (0, 0), BuildingBlock: TEMPAE_clean_linker_10, # of connection points: 2
#     Edge 23, Type (0, 0), BuildingBlock: TEMPAE_clean_linker_10, # of connection points: 2
#     Edge 24, Type (0, 0), BuildingBlock: TEMPAE_clean_linker_10, # of connection points: 2
#     Edge 25, Type (0, 0), BuildingBlock: TEMPAE_clean_linker_10, # of connection points: 2
#     Edge 26, Type (0, 0), BuildingBlock: TEMPAE_clean_linker_10, # of connection points: 2
#     Edge 27, Type (0, 0), BuildingBlock: TEMPAE_clean_linker_10, # of connection points: 2
#     Edge 28, Type (0, 0), BuildingBlock: TEMPAE_clean_linker_10, # of connection points: 2
#     Edge 29, Type (0, 0), BuildingBlock: TEMPAE_clean_linker_10, # of connection points: 2
#     Edge 30, Type (0, 0), BuildingBlock: TEMPAE_clean_linker_10, # of connection points: 2
#     Edge 31, Type (0, 0), BuildingBlock: TEMPAE_clean_linker_10, # of connection points: 2
#     Edge 32, Type (0, 0), BuildingBlock: TEMPAE_clean_linker_10, # of connection points: 2
#     Edge 33, Type (0, 0), BuildingBlock: TEMPAE_clean_linker_10, # of connection points: 2
#     Edge 34, Type (0, 0), BuildingBlock: TEMPAE_clean_linker_10, # of connection points: 2
#     Edge 35, Type (0, 0), BuildingBlock: TEMPAE_clean_linker_10, # of connection points: 2
#     Edge 36, Type (0, 0), BuildingBlock: TEMPAE_clean_linker_10, # of connection points: 2
#     Edge 37, Type (0, 0), BuildingBlock: TEMPAE_clean_linker_10, # of connection points: 2
#     Edge 38, Type (0, 0), BuildingBlock: TEMPAE_clean_linker_10, # of connection points: 2
#     Edge 39, Type (0, 0), BuildingBlock: TEMPAE_clean_linker_10, # of connection points: 2
#     Edge 40, Type (0, 0), BuildingBlock: TEMPAE_clean_linker_10, # of connection points: 2
#     Edge 41, Type (0, 0), BuildingBlock: TEMPAE_clean_linker_10, # of connection points: 2
#     Edge 42, Type (0, 0), BuildingBlock: TEMPAE_clean_linker_10, # of connection points: 2
#     Edge 43, Type (0, 0), BuildingBlock: TEMPAE_clean_linker_10, # of connection points: 2
#     Edge 44, Type (0, 0), BuildingBlock: TEMPAE_clean_linker_10, # of connection points: 2
#     Edge 45, Type (0, 0), BuildingBlock: TEMPAE_clean_linker_10, # of connection points: 2
#     Edge 46, Type (0, 0), BuildingBlock: TEMPAE_clean_linker_10, # of connection points: 2
#     Edge 47, Type (0, 0), BuildingBlock: TEMPAE_clean_linker_10, # of connection points: 2
#     Edge 48, Type (0, 0), BuildingBlock: TEMPAE_clean_linker_10, # of connection points: 2
#     Edge 49, Type (0, 0), BuildingBlock: TEMPAE_clean_linker_10, # of connection points: 2
#     Edge 50, Type (0, 0), BuildingBlock: TEMPAE_clean_linker_10, # of connection points: 2
#     Edge 51, Type (0, 0), BuildingBlock: TEMPAE_clean_linker_10, # of connection points: 2
#     Edge 52, Type (0, 0), BuildingBlock: TEMPAE_clean_linker_10, # of connection points: 2
#     Edge 53, Type (0, 0), BuildingBlock: TEMPAE_clean_linker_10, # of connection points: 2
#     Edge 54, Type (0, 0), BuildingBlock: TEMPAE_clean_linker_10, # of connection points: 2
#     Edge 55, Type (0, 0), BuildingBlock: TEMPAE_clean_linker_10, # of connection points: 2
#     Edge 56, Type (0, 0), BuildingBlock: TEMPAE_clean_linker_10, # of connection points: 2
#     Edge 57, Type (0, 0), BuildingBlock: TEMPAE_clean_linker_10, # of connection points: 2
#     Edge 58, Type (0, 0), BuildingBlock: TEMPAE_clean_linker_10, # of connection points: 2
#     Edge 59, Type (0, 0), BuildingBlock: TEMPAE_clean_linker_10, # of connection points: 2
#     Edge 60, Type (0, 0), BuildingBlock: TEMPAE_clean_linker_10, # of connection points: 2
#     Edge 61, Type (0, 0), BuildingBlock: TEMPAE_clean_linker_10, # of connection points: 2
#     Edge 62, Type (0, 0), BuildingBlock: TEMPAE_clean_linker_10, # of connection points: 2
#     Edge 63, Type (0, 0), BuildingBlock: TEMPAE_clean_linker_10, # of connection points: 2
# Relax obj value: 0.089
# Max RMSD: 0.219
# Mean RMSD: 0.144
data_MOF--net-bcs--node1-MIFKUJ_clean_sbu_0--edge1-TEMPAE_clean_linker_10
_symmetry_space_group_name_H-M    P1
_symmetry_Int_Tables_number       1
_symmetry_cell_setting            triclinic
loop_
_symmetry_equiv_pos_as_xyz
'x, y, z'
_cell_length_a     37.722715
_cell_length_b     41.106368
_cell_length_c     36.4856
_cell_angle_alpha  96.857092
_cell_angle_beta   97.725011
_cell_angle_gamma 103.04386
loop_
_atom_site_label
_atom_site_type_symbol
_atom_site_fract_x
_atom_site_fract_y
_atom_site_fract_z
_atom_type_partial_charge
Zn0 Zn 0.95658 0.00723 0.96238 0.0
Zn1 Zn 0.02125 0.98496 0.01114 0.0
C2 C 0.9253 0.03294 0.02097 0.0
O3 O 0.89911 0.00669 0.00375 0.0
C4 C 0.05704 0.9514 0.9639 0.0
O5 O 0.08343 0.97367 0.98714 0.0
O6 O 0.91895 0.02077 0.92483 0.0
O7 O 0.00663 0.01942 0.94519 0.0
O8 O 0.04338 0.0315 0.00011 0.0
C9 C 0.92812 0.03725 0.89867 0.0
O10 O 0.96209 0.04182 0.89193 0.0
O11 O 0.95595 0.03937 0.00903 0.0
C12 C 0.04398 0.94018 0.05364 0.0
O13 O 0.01342 0.92234 0.03197 0.0
O14 O 0.05422 0.9717 0.0524 0.0
O15 O 0.97213 0.97635 0.02849 0.0
O16 O 0.93726 0.95886 0.97331 0.0
O17 O 0.02356 0.9513 0.96599 0.0
C18 C 0.03694 0.03529 0.96599 0.0
C19 C 0.94409 0.95635 0.00786 0.0
Zn20 Zn 0.25137 0.76297 0.19064 0.0
Zn21 Zn 0.23488 0.70019 0.27361 0.0
C22 C 0.21831 0.80835 0.1534 0.0
O23 O 0.24075 0.80243 0.13025 0.0
C24 C 0.27746 0.66538 0.31248 0.0
O25 O 0.27724 0.69091 0.33775 0.0
O26 O 0.29565 0.77785 0.16697 0.0
O27 O 0.27009 0.76585 0.24713 0.0
O28 O 0.27015 0.74291 0.29894 0.0
C29 C 0.31773 0.80498 0.18409 0.0
O30 O 0.30937 0.82041 0.21403 0.0
O31 O 0.21739 0.79383 0.18224 0.0
C32 C 0.16242 0.66997 0.28475 0.0
O33 O 0.16195 0.65172 0.25259 0.0
O34 O 0.19043 0.69391 0.29824 0.0
O35 O 0.22801 0.70752 0.22164 0.0
O36 O 0.22522 0.71577 0.16435 0.0
O37 O 0.25918 0.66241 0.27992 0.0
C38 C 0.28158 0.76753 0.282 0.0
C39 C 0.21888 0.69552 0.18745 0.0
Zn40 Zn 0.53001 0.97136 0.46631 0.0
Zn41 Zn 0.47132 0.01168 0.52107 0.0
C42 C 0.55979 0.92963 0.50819 0.0
O43 O 0.58737 0.94566 0.49353 0.0
C44 C 0.43725 0.05262 0.48222 0.0
O45 O 0.40991 0.03025 0.49061 0.0
O46 O 0.55304 0.95536 0.4238 0.0
O47 O 0.48074 0.98016 0.44839 0.0
O48 O 0.44023 0.97098 0.48636 0.0
C49 C 0.54343 0.92418 0.41014 0.0
O50 O 0.51522 0.90453 0.42063 0.0
O51 O 0.52868 0.93674 0.5015 0.0
C52 C 0.45799 0.04804 0.58676 0.0
O53 O 0.48736 0.06993 0.58156 0.0
O54 O 0.4482 0.0192 0.56642 0.0
O55 O 0.52118 0.00337 0.52971 0.0
O56 O 0.56171 0.01511 0.49299 0.0
O57 O 0.47011 0.05106 0.49345 0.0
C58 C 0.45073 0.96306 0.45555 0.0
C59 C 0.54772 0.02418 0.52093 0.0
Zn60 Zn 0.1981 0.24822 0.7786 0.0
Zn61 Zn 0.2724 0.23757 0.70711 0.0
C62 C 0.15926 0.19367 0.80834 0.0
O63 O 0.1338 0.20048 0.78425 0.0
C64 C 0.32512 0.27915 0.67214 0.0
O65 O 0.34487 0.25927 0.68532 0.0
O66 O 0.17642 0.28398 0.80103 0.0
O67 O 0.25099 0.27004 0.77308 0.0
O68 O 0.29734 0.25006 0.76047 0.0
C69 C 0.19282 0.31504 0.81047 0.0
O70 O 0.22733 0.32563 0.80612 0.0
O71 O 0.19238 0.21115 0.81166 0.0
C72 C 0.28839 0.18863 0.65376 0.0
O73 O 0.28178 0.20931 0.63035 0.0
O74 O 0.28393 0.19479 0.68744 0.0
O75 O 0.21919 0.23095 0.70879 0.0
O76 O 0.16681 0.22915 0.72737 0.0
O77 O 0.29205 0.27528 0.67811 0.0
C78 C 0.28087 0.2624 0.78477 0.0
C79 C 0.18439 0.22275 0.70129 0.0
Zn80 Zn 2e-05 0.01471 0.45172 0.0
Zn81 Zn 0.98487 0.95555 0.53327 0.0
C82 C 0.94868 0.04399 0.4186 0.0
O83 O 0.96104 0.02923 0.39074 0.0
C84 C 0.05734 0.94039 0.55381 0.0
O85 O 0.07228 0.9722 0.55222 0.0
O86 O 0.03818 0.03684 0.42313 0.0
O87 O 0.02537 0.01128 0.50404 0.0
O88 O 0.00507 0.0041 0.55654 0.0
C89 C 0.04515 0.06864 0.42352 0.0
O90 O 0.02784 0.08671 0.44348 0.0
O91 O 0.96146 0.04161 0.45198 0.0
C92 C 0.93254 0.90119 0.54593 0.0
O93 O 0.95356 0.88607 0.52766 0.0
O94 O 0.93923 0.93324 0.55102 0.0
O95 O 0.97514 0.95622 0.47922 0.0
O96 O 0.97226 0.96816 0.4231 0.0
O97 O 0.02252 0.92928 0.54606 0.0
C98 C 0.02074 0.02404 0.5361 0.0
C99 C 0.96232 0.94732 0.44488 0.0
Zn100 Zn 0.28191 0.70871 0.74273 0.0
Zn101 Zn 0.20207 0.76561 0.75852 0.0
C102 C 0.30145 0.6866 0.8137 0.0
O103 O 0.31045 0.71917 0.82627 0.0
C104 C 0.19118 0.79129 0.68541 0.0
O105 O 0.20447 0.76734 0.66937 0.0
O106 O 0.31267 0.69434 0.70442 0.0
O107 O 0.22761 0.70767 0.7203 0.0
O108 O 0.17866 0.71654 0.74299 0.0
C109 C 0.3013 0.67519 0.67296 0.0
O110 O 0.26568 0.66512 0.66046 0.0
O111 O 0.28534 0.67629 0.77999 0.0
C112 C 0.19119 0.81623 0.81274 0.0
O113 O 0.21386 0.83508 0.7949 0.0
O114 O 0.18462 0.78422 0.8047 0.0
O115 O 0.25358 0.76394 0.76339 0.0
O116 O 0.30883 0.75686 0.76888 0.0
O117 O 0.18882 0.79327 0.71991 0.0
C118 C 0.19655 0.6959 0.73036 0.0
C119 C 0.28742 0.776 0.77463 0.0
Zn120 Zn 0.48101 0.0161 0.0074 0.0
Zn121 Zn 0.52087 0.96477 0.9724 0.0
C122 C 0.43914 0.97047 0.04499 0.0
O123 O 0.41333 0.9833 0.02878 0.0
C124 C 0.55521 0.0102 0.92647 0.0
O125 O 0.58075 -0.00685 0.92872 0.0
O126 O 0.45642 0.05236 0.02828 0.0
O127 O 0.5362 0.03358 0.01547 0.0
O128 O 0.54447 0.98369 0.02532 0.0
C129 C 0.45601 0.05712 0.06337 0.0
O130 O 0.47491 0.04164 0.08529 0.0
O131 O 0.47194 0.9803 0.03934 0.0
C132 C 0.54327 0.9205 0.91631 0.0
O133 O 0.52022 0.93159 0.89369 0.0
O134 O 0.54782 0.93063 0.9514 0.0
O135 O 0.46656 0.94518 0.96252 0.0
O136 O 0.45316 -0.0058 0.95615 0.0
O137 O 0.52792 0.00279 0.9432 0.0
C138 C 0.55434 0.01574 0.03271 0.0
C139 C 0.44581 0.96219 0.94755 0.0
Zn140 Zn 0.22098 0.2464 0.23802 0.0
Zn141 Zn 0.29892 0.2273 0.27012 0.0
C142 C 0.1806 0.26783 0.29097 0.0
O143 O 0.15691 0.24266 0.26842 0.0
C144 C 0.33472 0.20811 0.21222 0.0
O145 O 0.35883 0.23419 0.23288 0.0
O146 O 0.18169 0.25529 0.20085 0.0
O147 O 0.26567 0.26571 0.21652 0.0
O148 O 0.31115 0.2768 0.26407 0.0
C149 C 0.18616 0.28712 0.20378 0.0
O150 O 0.21448 0.30703 0.22703 0.0
O151 O 0.21443 0.27374 0.2869 0.0
C152 C 0.34301 0.18877 0.30336 0.0
O153 O 0.32132 0.16638 0.27618 0.0
O154 O 0.33931 0.21894 0.30752 0.0
O155 O 0.25312 0.20721 0.29088 0.0
O156 O 0.20973 0.19742 0.24147 0.0
O157 O 0.3025 0.20008 0.22059 0.0
C158 C 0.29721 0.28305 0.23281 0.0
C159 C 0.22145 0.191 0.27332 0.0
Zn160 Zn 0.50635 0.50707 0.95194 0.0
Zn161 Zn 0.48046 0.4734 0.03443 0.0
C162 C 0.45811 0.53991 0.91263 0.0
O163 O 0.47323 0.52757 0.8855 0.0
C164 C 0.55028 0.45683 0.05928 0.0
O165 O 0.55796 0.48672 0.08006 0.0
O166 O 0.54303 0.52474 0.91908 0.0
O167 O 0.53431 0.51536 0.00358 0.0
O168 O 0.50268 0.52338 0.04814 0.0
C169 C 0.55264 0.55689 0.92336 0.0
O170 O 0.5404 0.57444 0.9492 0.0
O171 O 0.46653 0.53352 0.94558 0.0
C172 C 0.44037 0.42277 0.06824 0.0
O173 O 0.45207 0.40516 0.04201 0.0
O174 O 0.448 0.45483 0.07071 0.0
O175 O 0.44977 0.46392 0.98339 0.0
O176 O 0.48278 0.4575 0.93901 0.0
O177 O 0.52011 0.447 0.03626 0.0
C178 C 0.52645 0.53534 0.02859 0.0
C179 C 0.45791 0.44509 0.9573 0.0
Zn180 Zn 0.77581 0.2052 0.23822 0.0
Zn181 Zn 0.69554 0.26614 0.23892 0.0
C182 C 0.79788 0.18929 0.31339 0.0
O183 O 0.80587 0.22199 0.32513 0.0
C184 C 0.68675 0.29791 0.1678 0.0
O185 O 0.7091 0.28212 0.15261 0.0
O186 O 0.79851 0.18474 0.19696 0.0
O187 O 0.72261 0.20631 0.22943 0.0
O188 O 0.66846 0.21691 0.22282 0.0
C189 C 0.78799 0.16986 0.1634 0.0
O190 O 0.75375 0.16614 0.14718 0.0
O191 O 0.78414 0.17807 0.27929 0.0
C192 C 0.67842 0.31519 0.29111 0.0
O193 O 0.6946 0.33524 0.26957 0.0
O194 O 0.67724 0.2838 0.28505 0.0
O195 O 0.75074 0.2687 0.24778 0.0
O196 O 0.80349 0.25416 0.25337 0.0
O197 O 0.68003 0.29355 0.20029 0.0
C198 C 0.68793 0.19539 0.22148 0.0
C199 C 0.78578 0.27713 0.2556 0.0
Zn200 Zn 0.96997 0.51196 0.50502 0.0
Zn201 Zn 0.01705 0.46131 0.47662 0.0
C202 C 0.93398 0.4743 0.55651 0.0
O203 O 0.91043 0.49306 0.55097 0.0
C204 C 0.05939 0.50907 0.44061 0.0
O205 O 0.08576 0.49683 0.45669 0.0
O206 O 0.9417 0.54738 0.52053 0.0
O207 O 0.02441 0.53246 0.51486 0.0
O208 O 0.03802 0.48534 0.52905 0.0
C209 C 0.95018 0.56533 0.55294 0.0
O210 O 0.97977 0.56331 0.57522 0.0
O211 O 0.96136 0.47754 0.53936 0.0
C212 C 0.04987 0.4211 0.42573 0.0
O213 O 0.03362 0.43658 0.40154 0.0
O214 O 0.04584 0.42619 0.45998 0.0
O215 O 0.9627 0.44045 0.46602 0.0
O216 O 0.948 0.48743 0.45307 0.0
O217 O 0.0263 0.4973 0.44455 0.0
C218 C 0.04415 0.51746 0.53456 0.0
C219 C 0.94222 0.45537 0.44712 0.0
Zn220 Zn 0.72276 0.73122 0.28409 0.0
Zn221 Zn 0.79598 0.74079 0.20425 0.0
C222 C 0.68734 0.66901 0.3092 0.0
O223 O 0.68311 0.6563 0.27367 0.0
C224 C 0.84057 0.78648 0.16602 0.0
O225 O 0.86607 0.7766 0.18699 0.0
O226 O 0.71412 0.77648 0.30043 0.0
O227 O 0.77268 0.73344 0.27298 0.0
O228 O 0.82046 0.76436 0.25654 0.0
C229 C 0.71397 0.78561 0.33487 0.0
O230 O 0.72405 0.76702 0.3593 0.0
O231 O 0.70504 0.69962 0.32018 0.0
C232 C 0.79972 0.67318 0.17326 0.0
O233 O 0.76357 0.66717 0.16637 0.0
O234 O 0.81854 0.70223 0.18955 0.0
O235 O 0.74004 0.72267 0.20191 0.0
O236 O 0.69295 0.7138 0.23322 0.0
O237 O 0.80685 0.77448 0.16825 0.0
C238 C 0.80135 0.75734 0.28186 0.0
C239 C 0.70565 0.71211 0.20252 0.0
Zn240 Zn 0.76791 0.26155 0.72257 0.0
Zn241 Zn 0.72224 0.22518 0.77497 0.0
C242 C 0.72655 0.29914 0.68211 0.0
O243 O 0.74294 0.28661 0.65624 0.0
C244 C 0.78224 0.19917 0.80982 0.0
O245 O 0.78209 0.2227 0.83749 0.0
O246 O 0.80726 0.27908 0.69325 0.0
O247 O 0.79256 0.27027 0.77651 0.0
O248 O 0.74164 0.27338 0.79738 0.0
C249 C 0.83669 0.30109 0.70806 0.0
O250 O 0.84385 0.31021 0.74454 0.0
O251 O 0.73176 0.29148 0.71487 0.0
C252 C 0.65237 0.19893 0.79901 0.0
O253 O 0.63663 0.20816 0.76895 0.0
O254 O 0.68727 0.20509 0.80647 0.0
O255 O 0.69347 0.21912 0.72374 0.0
O256 O 0.7412 0.21477 0.69693 0.0
O257 O 0.7606 0.19645 0.77894 0.0
C258 C 0.77582 0.28489 0.79865 0.0
C259 C 0.70654 0.20949 0.69536 0.0
Zn260 Zn 0.69048 0.74438 0.71156 0.0
Zn261 Zn 0.76681 0.72433 0.73956 0.0
C262 C 0.66958 0.76798 0.77933 0.0
O263 O 0.644 0.73977 0.76751 0.0
C264 C 0.79911 0.70422 0.67724 0.0
O265 O 0.8226 0.73295 0.69231 0.0
O266 O 0.6499 0.75795 0.67985 0.0
O267 O 0.73318 0.75655 0.68414 0.0
O268 O 0.77694 0.7732 0.73317 0.0
C269 C 0.65803 0.7899 0.6811 0.0
O270 O 0.68952 0.80773 0.70109 0.0
O271 O 0.69615 0.77527 0.76121 0.0
C272 C 0.80344 0.68359 0.77104 0.0
O273 O 0.77327 0.66394 0.75034 0.0
O274 O 0.80858 0.71549 0.77362 0.0
O275 O 0.72358 0.70568 0.76406 0.0
O276 O 0.67485 0.69602 0.7199 0.0
O277 O 0.76942 0.69529 0.69053 0.0
C278 C 0.76405 0.77572 0.70001 0.0
C279 C 0.69053 0.69002 0.75052 0.0
Zn280 Zn 0.46429 0.49753 0.47956 0.0
Zn281 Zn 0.53482 0.47641 0.52164 0.0
C282 C 0.43561 0.52915 0.53866 0.0
O283 O 0.41153 0.49971 0.53014 0.0
C284 C 0.56061 0.44204 0.46656 0.0
O285 O 0.58955 0.46467 0.48563 0.0
O286 O 0.42411 0.5013 0.43947 0.0
O287 O 0.51063 0.50965 0.45658 0.0
O288 O 0.55535 0.52175 0.50544 0.0
C289 C 0.43197 0.52883 0.42638 0.0
O290 O 0.46313 0.55107 0.44044 0.0
O291 O 0.46317 0.53464 0.52159 0.0
C292 C 0.56414 0.43151 0.56062 0.0
O293 O 0.53354 0.4124 0.54015 0.0
O294 O 0.57241 0.46309 0.55896 0.0
O295 O 0.48962 0.46937 0.54668 0.0
O296 O 0.44899 0.45151 0.49532 0.0
O297 O 0.52902 0.44161 0.47537 0.0
C298 C 0.54307 0.52561 0.47234 0.0
C299 C 0.45941 0.44988 0.52945 0.0
Zn300 Zn 0.01532 0.45832 0.01297 0.0
Zn301 Zn 0.98189 0.53095 0.97624 0.0
C302 C 0.03928 0.44516 0.93745 0.0
O303 O 0.00652 0.44393 0.91905 0.0
C304 C 0.93911 0.52994 0.04037 0.0
O305 O 0.94924 0.50308 0.04966 0.0
O306 O 0.03144 0.43272 0.05255 0.0
O307 O 0.0231 0.50757 0.03189 0.0
O308 O 0.03504 0.54805 -0.00158 0.0
C309 C 0.06518 0.43187 0.05659 0.0
O310 O 0.08739 0.45012 0.03785 0.0
O311 O 0.04569 0.45125 0.97296 0.0
C312 C 0.9333 0.54687 0.9227 0.0
O313 O 0.91165 0.52739 0.94088 0.0
O314 O 0.96802 0.55171 0.93162 0.0
O315 O 0.97411 0.48167 0.96232 0.0
O316 O 0.96173 0.44027 -0.00635 0.0
O317 O 0.95051 0.54324 0.01311 0.0
C318 C 0.04662 0.53035 0.02145 0.0
C319 C 0.95013 0.45922 0.97244 0.0
C320 C 0.11219 0.14681 0.82451 0.0
C321 C 0.1482 0.16759 0.83238 0.0
C322 C 0.09923 0.12419 0.84839 0.0
C323 C 0.12282 0.12201 0.88114 0.0
C324 C 0.15979 0.14175 0.8885 0.0
C325 C 0.17208 0.16439 0.86403 0.0
C326 C 0.05967 0.10352 0.83918 0.0
C327 C 0.18599 0.13964 0.92272 0.0
C328 C 0.06876 0.09288 0.9568 0.0
C329 C 0.06453 0.05793 0.94966 0.0
C330 C 0.08983 0.11442 0.93628 0.0
C331 C 0.10746 0.1006 0.9084 0.0
C332 C 0.10536 0.06544 0.90318 0.0
C333 C 0.08335 0.04441 0.92348 0.0
C334 C 0.09082 0.15161 0.94247 0.0
C335 C 0.12437 0.04966 0.87454 0.0
H336 H 0.09361 0.1487 0.79991 0.0
H337 H 0.2 0.1802 0.87026 0.0
H338 H 0.05868 0.07624 0.83788 0.0
H339 H 0.04428 0.1104 0.86159 0.0
H340 H 0.04524 0.10744 0.81206 0.0
H341 H 0.2146 0.15437 0.92282 0.0
H342 H 0.17646 0.14948 0.94831 0.0
H343 H 0.1863 0.11291 0.92427 0.0
H344 H 0.05384 0.10313 0.9769 0.0
H345 H 0.07993 0.01726 0.91806 0.0
H346 H 0.07469 0.15787 0.91769 0.0
H347 H 0.11954 0.16707 0.9456 0.0
H348 H 0.07906 0.1589 0.96764 0.0
H349 H 0.10865 0.04794 0.84612 0.0
H350 H 0.12621 0.0238 0.87909 0.0
H351 H 0.1526 0.06544 0.87533 0.0
C352 C 0.06847 0.88947 0.05815 0.0
C353 C 0.06868 0.92245 0.07348 0.0
C354 C 0.09307 0.8724 0.07457 0.0
C355 C 0.11777 0.88831 0.10785 0.0
C356 C 0.1173 0.92122 0.12424 0.0
C357 C 0.09308 0.93821 0.10645 0.0
C358 C 0.09333 0.8377 0.05561 0.0
C359 C 0.14276 0.9386 0.16014 0.0
C360 C 0.16099 0.8282 0.15948 0.0
C361 C 0.19405 0.83106 0.14516 0.0
C362 C 0.13639 0.84779 0.14886 0.0
C363 C 0.14546 0.87101 0.12383 0.0
C364 C 0.17969 0.87515 0.11088 0.0
C365 C 0.20341 0.85492 0.12146 0.0
C366 C 0.10004 0.84255 0.16306 0.0
C367 C 0.19053 0.89977 0.08435 0.0
H368 H 0.04992 0.87737 0.03238 0.0
H369 H 0.09308 0.96365 0.11838 0.0
H370 H 0.12092 0.83797 0.04809 0.0
H371 H 0.08795 0.81907 0.07506 0.0
H372 H 0.07238 0.82898 0.02975 0.0
H373 H 0.13763 0.96343 0.17031 0.0
H374 H 0.13924 0.92236 0.18224 0.0
H375 H 0.17189 0.94264 0.15581 0.0
H376 H 0.15367 0.80973 0.1778 0.0
H377 H 0.22918 0.85749 0.11071 0.0
H378 H 0.07719 0.83042 0.13957 0.0
H379 H 0.0952 0.8672 0.17422 0.0
H380 H 0.09884 0.82629 0.18532 0.0
H381 H 0.17258 0.89068 0.05665 0.0
H382 H 0.21973 0.90278 0.08043 0.0
H383 H 0.18653 0.92494 0.0948 0.0
C384 C 0.39116 0.92078 0.43084 0.0
C385 C 0.42722 0.93595 0.42674 0.0
C386 C 0.36912 0.89437 0.40387 0.0
C387 C 0.38396 0.88244 0.37275 0.0
C388 C 0.42019 0.89793 0.36821 0.0
C389 C 0.44115 0.92499 0.39498 0.0
C390 C 0.33014 0.87886 0.40899 0.0
C391 C 0.43716 0.8855 0.33572 0.0
C392 C 0.33596 0.79231 0.3316 0.0
C393 C 0.30984 0.79692 0.30282 0.0
C394 C 0.36178 0.82001 0.35345 0.0
C395 C 0.36157 0.85292 0.3459 0.0
C396 C 0.33655 0.85756 0.31561 0.0
C397 C 0.31014 0.82947 0.29513 0.0
C398 C 0.38796 0.81417 0.38575 0.0
C399 C 0.33634 0.89227 0.30608 0.0
H400 H 0.38011 0.92956 0.45505 0.0
H401 H 0.46877 0.93719 0.3913 0.0
H402 H 0.31039 0.87977 0.38391 0.0
H403 H 0.32714 0.85188 0.41202 0.0
H404 H 0.32237 0.89201 0.43397 0.0
H405 H 0.46473 0.90198 0.33496 0.0
H406 H 0.44036 0.85959 0.3379 0.0
H407 H 0.41883 0.88411 0.30882 0.0
H408 H 0.33571 0.76703 0.33753 0.0
H409 H 0.28885 0.83314 0.27411 0.0
H410 H 0.38031 0.82378 0.41257 0.0
H411 H 0.41663 0.82828 0.38532 0.0
H412 H 0.38733 0.78697 0.38525 0.0
H413 H 0.32383 0.9058 0.32704 0.0
H414 H 0.32027 0.89093 0.27785 0.0
H415 H 0.36487 0.90745 0.30699 0.0
C416 C 0.33658 0.17119 0.62206 0.0
C417 C 0.30936 0.16374 0.64439 0.0
C418 C 0.3606 0.15021 0.61714 0.0
C419 C 0.35659 0.12076 0.63435 0.0
C420 C 0.32875 0.11288 0.65652 0.0
C421 C 0.30558 0.13472 0.66157 0.0
C422 C 0.39047 0.15975 0.59384 0.0
C423 C 0.32375 0.08164 0.67512 0.0
C424 C 0.39404 0.05336 0.58504 0.0
C425 C 0.43023 0.06092 0.60455 0.0
C426 C 0.36917 0.07183 0.59547 0.0
C427 C 0.38037 0.09742 0.62714 0.0
C428 C 0.41579 0.103 0.64904 0.0
C429 C 0.44077 0.08518 0.63687 0.0
C430 C 0.33214 0.06598 0.57067 0.0
C431 C 0.42819 0.12931 0.68377 0.0
H432 H 0.34008 0.19416 0.60964 0.0
H433 H 0.28466 0.12931 0.67918 0.0
H434 H 0.41797 0.16266 0.6109 0.0
H435 H 0.38716 0.13935 0.56988 0.0
H436 H 0.39005 0.18374 0.58282 0.0
H437 H 0.30135 0.07964 0.69225 0.0
H438 H 0.31715 0.05873 0.6536 0.0
H439 H 0.34984 0.08183 0.69338 0.0
H440 H 0.38607 0.03492 0.55969 0.0
H441 H 0.46887 0.09103 0.6518 0.0
H442 H 0.33135 0.08838 0.55662 0.0
H443 H 0.30962 0.0628 0.58758 0.0
H444 H 0.32658 0.0434 0.54877 0.0
H445 H 0.43576 0.15478 0.67555 0.0
H446 H 0.45261 0.12536 0.70172 0.0
H447 H 0.40565 0.12897 0.7005 0.0
C448 C 0.11859 0.92976 0.57766 0.0
C449 C 0.08011 0.91818 0.56812 0.0
C450 C 0.13985 0.9097 0.59417 0.0
C451 C 0.12212 0.87749 0.6015 0.0
C452 C 0.08344 0.8653 0.59094 0.0
C453 C 0.06296 0.8857 0.57422 0.0
C454 C 0.1811 0.92339 0.60492 0.0
C455 C 0.06342 0.83127 0.59873 0.0
C456 C 0.17401 0.81132 0.62459 0.0
C457 C 0.17668 0.81501 0.66363 0.0
C458 C 0.15751 0.83238 0.60394 0.0
C459 C 0.14334 0.85749 0.62285 0.0
C460 C 0.14711 0.86204 0.66233 0.0
C461 C 0.16382 0.84086 0.6822 0.0
C462 C 0.15413 0.82703 0.56184 0.0
C463 C 0.13217 0.8884 0.68359 0.0
H464 H 0.13205 0.95477 0.57293 0.0
H465 H 0.03324 0.87648 0.56694 0.0
H466 H 0.18892 0.92752 0.63584 0.0
H467 H 0.1956 0.90481 0.59346 0.0
H468 H 0.19098 0.94769 0.59468 0.0
H469 H 0.03351 0.82478 0.58702 0.0
H470 H 0.07569 0.81115 0.58675 0.0
H471 H 0.06649 0.83126 0.62941 0.0
H472 H 0.184 0.79151 0.61007 0.0
H473 H 0.16602 0.84415 0.71242 0.0
H474 H 0.16467 0.85135 0.55199 0.0
H475 H 0.12463 0.81757 0.54895 0.0
H476 H 0.16943 0.80858 0.55167 0.0
H477 H 0.14325 0.91365 0.67609 0.0
H478 H 0.13917 0.88989 0.71441 0.0
H479 H 0.10169 0.88234 0.67575 0.0
C480 C 0.30281 0.83853 0.7815 0.0
C481 C 0.30062 0.80911 0.79763 0.0
C482 C 0.31874 0.87027 0.80332 0.0
C483 C 0.33224 0.87202 0.84181 0.0
C484 C 0.32618 0.84234 0.85866 0.0
C485 C 0.31084 0.81107 0.83611 0.0
C486 C 0.32413 0.90132 0.78446 0.0
C487 C 0.33933 0.84314 0.89982 0.0
C488 C 0.42539 0.9226 0.8888 0.0
C489 C 0.41671 0.94474 0.91623 0.0
C490 C 0.39805 0.90153 0.86128 0.0
C491 C 0.36075 0.9018 0.86217 0.0
C492 C 0.3519 0.92614 0.88796 0.0
C493 C 0.38034 0.94777 0.91482 0.0
C494 C 0.40901 0.87662 0.8337 0.0
C495 C 0.31243 0.9275 0.88907 0.0
H496 H 0.2938 0.8366 0.75164 0.0
H497 H 0.30789 0.78803 0.84838 0.0
H498 H 0.32242 0.92383 0.80353 0.0
H499 H 0.35191 0.90658 0.77628 0.0
H500 H 0.30334 0.89759 0.7587 0.0
H501 H 0.32738 0.819 0.90942 0.0
H502 H 0.36985 0.84765 0.90508 0.0
H503 H 0.33198 0.86401 0.91694 0.0
H504 H 0.45354 0.92069 0.88982 0.0
H505 H 0.37386 0.96528 0.93606 0.0
H506 H 0.39492 0.8762 0.80489 0.0
H507 H 0.40056 0.85083 0.84092 0.0
H508 H 0.43928 0.88274 0.83387 0.0
H509 H 0.29682 0.9245 0.86034 0.0
H510 H 0.3107 0.9516 0.90525 0.0
H511 H 0.29874 0.90634 0.90251 0.0
C512 C 0.42293 0.10386 0.06345 0.0
C513 C 0.43148 0.07655 0.07924 0.0
C514 C 0.40194 0.12371 0.08056 0.0
C515 C 0.38872 0.11563 0.11378 0.0
C516 C 0.39494 0.08649 0.12805 0.0
C517 C 0.41662 0.06761 0.11092 0.0
C518 C 0.39551 0.15433 0.06425 0.0
C519 C 0.38023 0.07616 0.16254 0.0
C520 C 0.38542 0.18782 0.18729 0.0
C521 C 0.34747 0.18549 0.18481 0.0
C522 C 0.39887 0.16544 0.16409 0.0
C523 C 0.3739 0.14027 0.13695 0.0
C524 C 0.33548 0.13806 0.13364 0.0
C525 C 0.32267 0.16061 0.15782 0.0
C526 C 0.43993 0.16818 0.16946 0.0
C527 C 0.30794 0.11203 0.10462 0.0
H528 H 0.43396 0.11057 0.03867 0.0
H529 H 0.42223 0.04589 0.12262 0.0
H530 H 0.36588 0.15444 0.06143 0.0
H531 H 0.41129 0.17761 0.08346 0.0
H532 H 0.40419 0.15529 0.0364 0.0
H533 H 0.38347 0.05071 0.16727 0.0
H534 H 0.39521 0.09475 0.18747 0.0
H535 H 0.35057 0.07605 0.16016 0.0
H536 H 0.40483 0.20662 0.20833 0.0
H537 H 0.29331 0.15873 0.15567 0.0
H538 H 0.45032 0.17149 0.14276 0.0
H539 H 0.44562 0.14451 0.17774 0.0
H540 H 0.45572 0.18964 0.19127 0.0
H541 H 0.30975 0.11943 0.07654 0.0
H542 H 0.27917 0.10978 0.10976 0.0
H543 H 0.31413 0.08685 0.10397 0.0
C544 C 0.08726 0.06547 0.37667 0.0
C545 C 0.07145 0.08501 0.40083 0.0
C546 C 0.1117 0.0807 0.35442 0.0
C547 C 0.12053 0.11626 0.35654 0.0
C548 C 0.10472 0.13614 0.3809 0.0
C549 C 0.08033 0.12025 0.40278 0.0
C550 C 0.12807 0.05878 0.32869 0.0
C551 C 0.11358 0.17419 0.38386 0.0
C552 C 0.20906 0.16166 0.32796 0.0
C553 C 0.1961 0.16898 0.29277 0.0
C554 C 0.18484 0.14373 0.34862 0.0
C555 C 0.14678 0.13288 0.3337 0.0
C556 C 0.13363 0.13917 0.2977 0.0
C557 C 0.15851 0.15709 0.27757 0.0
C558 C 0.19982 0.13736 0.38692 0.0
C559 C 0.09314 0.12794 0.28099 0.0
H560 H 0.0804 0.03821 0.37496 0.0
H561 H 0.06823 0.1355 0.42143 0.0
H562 H 0.12106 0.06286 0.29935 0.0
H563 H 0.15861 0.06594 0.33613 0.0
H564 H 0.11806 0.03146 0.3301 0.0
H565 H 0.09873 0.18592 0.404 0.0
H566 H 0.14367 0.18491 0.39295 0.0
H567 H 0.1061 0.1814 0.35603 0.0
H568 H 0.23811 0.17058 0.33979 0.0
H569 H 0.14827 0.16265 0.2504 0.0
H570 H 0.19133 0.11005 0.38884 0.0
H571 H 0.18816 0.15102 0.40857 0.0
H572 H 0.2304 0.14578 0.39354 0.0
H573 H 0.0828 0.10038 0.2806 0.0
H574 H 0.08764 0.13352 0.25201 0.0
H575 H 0.07708 0.14091 0.29857 0.0
C576 C 0.84851 0.15408 0.16448 0.0
C577 C 0.81403 0.15436 0.14442 0.0
C578 C 0.87248 0.13732 0.14821 0.0
C579 C 0.86201 0.12076 0.11076 0.0
C580 C 0.82797 0.12209 0.08985 0.0
C581 C 0.80428 0.13867 0.10699 0.0
C582 C 0.9084 0.13639 0.17151 0.0
C583 C 0.81604 0.10503 0.04964 0.0
C584 C 0.92773 0.09134 0.05147 0.0
C585 C 0.91652 0.05629 0.05033 0.0
C586 C 0.91189 0.1132 0.07298 0.0
C587 C 0.88479 0.09953 0.09411 0.0
C588 C 0.87627 0.06444 0.09578 0.0
C589 C 0.8919 0.04321 0.07349 0.0
C590 C 0.92194 0.15046 0.07057 0.0
C591 C 0.84862 0.04891 0.11901 0.0
H592 H 0.85647 0.1662 0.19342 0.0
H593 H 0.77788 0.13889 0.0912 0.0
H594 H 0.90909 0.10983 0.17364 0.0
H595 H 0.93193 0.14723 0.15781 0.0
H596 H 0.91253 0.15064 0.20024 0.0
H597 H 0.79019 0.11051 0.03638 0.0
H598 H 0.83806 0.11339 0.03302 0.0
H599 H 0.81149 0.07726 0.04833 0.0
H600 H 0.94671 0.10144 0.03344 0.0
H601 H 0.88359 0.01608 0.07291 0.0
H602 H 0.92573 0.16583 0.09857 0.0
H603 H 0.89911 0.15676 0.05252 0.0
H604 H 0.94755 0.1578 0.05846 0.0
H605 H 0.85429 0.0636 0.14761 0.0
H606 H 0.84889 0.02224 0.12129 0.0
H607 H 0.82048 0.04951 0.106 0.0
C608 C 0.0493 0.56153 0.41835 0.0
C609 C 0.06807 0.53577 0.41776 0.0
C610 C 0.05862 0.58803 0.39782 0.0
C611 C 0.08661 0.58796 0.37565 0.0
C612 C 0.10473 0.56125 0.37412 0.0
C613 C 0.09554 0.53566 0.39568 0.0
C614 C 0.03938 0.61647 0.4007 0.0
C615 C 0.13422 0.55991 0.35011 0.0
C616 C 0.10331 0.63324 0.29398 0.0
C617 C 0.13659 0.65677 0.30933 0.0
C618 C 0.08376 0.61303 0.31653 0.0
C619 C 0.09851 0.61615 0.3549 0.0
C620 C 0.12972 0.64256 0.37125 0.0
C621 C 0.14825 0.66291 0.34821 0.0
C622 C 0.04981 0.58585 0.29839 0.0
C623 C 0.14628 0.64671 0.4121 0.0
H624 H 0.02814 0.56148 0.43576 0.0
H625 H 0.10959 0.51536 0.39502 0.0
H626 H 0.05924 0.63997 0.4157 0.0
H627 H 0.02932 0.62148 0.37244 0.0
H628 H 0.01571 0.61095 0.41602 0.0
H629 H 0.14427 0.53654 0.3508 0.0
H630 H 0.12336 0.5611 0.32062 0.0
H631 H 0.15805 0.58205 0.35992 0.0
H632 H 0.09393 0.62896 0.26398 0.0
H633 H 0.17385 0.68132 0.36029 0.0
H634 H 0.02864 0.58287 0.31691 0.0
H635 H 0.05744 0.56136 0.29327 0.0
H636 H 0.03752 0.59144 0.27115 0.0
H637 H 0.12447 0.64361 0.42987 0.0
H638 H 0.16594 0.67177 0.42182 0.0
H639 H 0.16146 0.62687 0.41624 0.0
C640 C 0.59494 0.88867 0.52776 0.0
C641 C 0.56574 0.90395 0.53177 0.0
C642 C 0.60398 0.86675 0.55196 0.0
C643 C 0.58353 0.86018 0.58122 0.0
C644 C 0.55286 0.87424 0.58437 0.0
C645 C 0.54413 0.8959 0.55936 0.0
C646 C 0.63671 0.85207 0.54735 0.0
C647 C 0.53055 0.86787 0.61531 0.0
C648 C 0.60567 0.78908 0.63032 0.0
C649 C 0.63453 0.8072 0.6588 0.0
C650 C 0.58683 0.80608 0.60608 0.0
C651 C 0.59726 0.84185 0.6106 0.0
C652 C 0.62468 0.86018 0.64088 0.0
C653 C 0.64291 0.84263 0.6646 0.0
C654 C 0.55737 0.78576 0.57437 0.0
C655 C 0.63659 0.89834 0.64685 0.0
H656 H 0.61131 0.89438 0.50603 0.0
H657 H 0.52149 0.90767 0.56244 0.0
H658 H 0.65927 0.86319 0.57142 0.0
H659 H 0.62911 0.82435 0.54712 0.0
H660 H 0.64745 0.85709 0.52114 0.0
H661 H 0.50483 0.87679 0.61098 0.0
H662 H 0.52323 0.84054 0.61743 0.0
H663 H 0.54732 0.88131 0.64249 0.0
H664 H 0.59887 0.76169 0.62593 0.0
H665 H 0.66476 0.85683 0.68699 0.0
H666 H 0.56785 0.78739 0.54749 0.0
H667 H 0.53262 0.79619 0.57254 0.0
H668 H 0.54905 0.7587 0.57765 0.0
H669 H 0.65122 0.90673 0.62391 0.0
H670 H 0.65536 0.90878 0.67392 0.0
H671 H 0.61224 0.90927 0.64613 0.0
C672 C 0.39552 0.40626 0.94605 0.0
C673 C 0.43291 0.41183 0.94278 0.0
C674 C 0.37007 0.37693 0.92708 0.0
C675 C 0.38266 0.35242 0.90526 0.0
C676 C 0.421 0.35608 0.90591 0.0
C677 C 0.44574 0.3862 0.92415 0.0
C678 C 0.32946 0.37428 0.92685 0.0
C679 C 0.43563 0.32979 0.88432 0.0
C680 C 0.31239 0.27422 0.85135 0.0
C681 C 0.30533 0.28488 0.8167 0.0
C682 C 0.33774 0.29586 0.88092 0.0
C683 C 0.35615 0.32841 0.87506 0.0
C684 C 0.34887 0.33897 0.83985 0.0
C685 C 0.32346 0.31702 0.81114 0.0
C686 C 0.34506 0.28393 0.91811 0.0
C687 C 0.36805 0.37342 0.83231 0.0
H688 H 0.38566 0.42593 0.96104 0.0
H689 H 0.47492 0.39018 0.92274 0.0
H690 H 0.31739 0.38118 0.90028 0.0
H691 H 0.31453 0.34807 0.92832 0.0
H692 H 0.32465 0.39155 0.95049 0.0
H693 H 0.46524 0.33212 0.89502 0.0
H694 H 0.41968 0.30391 0.88578 0.0
H695 H 0.4329 0.33318 0.85444 0.0
H696 H 0.29835 0.24907 0.85515 0.0
H697 H 0.31802 0.32479 0.78397 0.0
H698 H 0.33843 0.30111 0.94058 0.0
H699 H 0.37478 0.28465 0.9253 0.0
H700 H 0.3286 0.25782 0.91798 0.0
H701 H 0.36294 0.39352 0.85258 0.0
H702 H 0.3586 0.37777 0.80353 0.0
H703 H 0.3983 0.3761 0.83599 0.0
C704 C 0.80689 0.81474 0.31475 0.0
C705 C 0.80827 0.78129 0.31661 0.0
C706 C 0.82454 0.84041 0.34463 0.0
C707 C 0.84524 0.83234 0.37611 0.0
C708 C 0.84218 0.79802 0.38015 0.0
C709 C 0.82352 0.77267 0.35009 0.0
C710 C 0.82511 0.87654 0.34023 0.0
C711 C 0.86258 0.78824 0.4139 0.0
C712 C 0.93829 0.89484 0.39895 0.0
C713 C 0.93474 0.9153 0.43092 0.0
C714 C 0.91019 0.86626 0.38265 0.0
C715 C 0.87708 0.85887 0.39787 0.0
C716 C 0.87393 0.87888 0.4311 0.0
C717 C 0.90316 0.90676 0.44753 0.0
C718 C 0.91534 0.84488 0.34802 0.0
C719 C 0.83908 0.87252 0.44797 0.0
H720 H 0.79442 0.82113 0.28888 0.0
H721 H 0.82411 0.74658 0.35144 0.0
H722 H 0.8241 0.89148 0.36731 0.0
H723 H 0.85113 0.88823 0.33074 0.0
H724 H 0.80157 0.87806 0.31919 0.0
H725 H 0.85011 0.76185 0.41746 0.0
H726 H 0.89165 0.79008 0.41017 0.0
H727 H 0.86283 0.80545 0.43982 0.0
H728 H 0.96289 0.90152 0.38638 0.0
H729 H 0.90039 0.92302 0.47212 0.0
H730 H 0.89633 0.84791 0.32339 0.0
H731 H 0.90861 0.81775 0.35115 0.0
H732 H 0.94401 0.85196 0.3422 0.0
H733 H 0.81937 0.88517 0.43364 0.0
H734 H 0.8447 0.88302 0.47827 0.0
H735 H 0.82549 0.84518 0.44439 0.0
C736 C 0.4077 0.54771 0.59293 0.0
C737 C 0.42741 0.55629 0.56414 0.0
C738 C 0.39325 0.57144 0.61313 0.0
C739 C 0.39775 0.6044 0.60366 0.0
C740 C 0.41982 0.6139 0.57629 0.0
C741 C 0.43468 0.58973 0.557 0.0
C742 C 0.37103 0.56047 0.64293 0.0
C743 C 0.42556 0.64879 0.56553 0.0
C744 C 0.31517 0.63991 0.61821 0.0
C745 C 0.32766 0.66091 0.65296 0.0
C746 C 0.3385 0.62299 0.60095 0.0
C747 C 0.37526 0.62683 0.61891 0.0
C748 C 0.38866 0.6493 0.65306 0.0
C749 C 0.36473 0.66607 0.66965 0.0
C750 C 0.3232 0.59968 0.56423 0.0
C751 C 0.42758 0.65423 0.67325 0.0
H752 H 0.40242 0.52196 0.59878 0.0
H753 H 0.44984 0.59642 0.53464 0.0
H754 H 0.37976 0.57946 0.66875 0.0
H755 H 0.34141 0.55852 0.63291 0.0
H756 H 0.37394 0.53557 0.6501 0.0
H757 H 0.44753 0.65377 0.54801 0.0
H758 H 0.39947 0.65138 0.54944 0.0
H759 H 0.43292 0.66838 0.59083 0.0
H760 H 0.28673 0.63587 0.60489 0.0
H761 H 0.37478 0.68225 0.69647 0.0
H762 H 0.32139 0.57312 0.56853 0.0
H763 H 0.3419 0.60537 0.54357 0.0
H764 H 0.2953 0.60179 0.5522 0.0
H765 H 0.42933 0.6321 0.68744 0.0
H766 H 0.43607 0.67729 0.69475 0.0
H767 H 0.44748 0.65605 0.65335 0.0
C768 C 0.56883 0.03497 0.87013 0.0
C769 C 0.55858 0.03838 0.90545 0.0
C770 C 0.57552 0.06271 0.85111 0.0
C771 C 0.57325 0.09461 0.86878 0.0
C772 C 0.56043 0.09753 0.90343 0.0
C773 C 0.55276 0.06905 0.92126 0.0
C774 C 0.58795 0.05841 0.81356 0.0
C775 C 0.55798 0.13116 0.92319 0.0
C776 C 0.64884 0.16405 0.84989 0.0
C777 C 0.63046 0.17652 0.82076 0.0
C778 C 0.62997 0.13837 0.86688 0.0
C779 C 0.59159 0.12526 0.85492 0.0
C780 C 0.57225 0.1394 0.82758 0.0
C781 C 0.59206 0.16485 0.81049 0.0
C782 C 0.65166 0.1238 0.89592 0.0
C783 C 0.53116 0.12641 0.81484 0.0
H784 H 0.57236 0.0108 0.85778 0.0
H785 H 0.54446 0.07128 0.94861 0.0
H786 H 0.57389 0.07174 0.79369 0.0
H787 H 0.61807 0.06967 0.81699 0.0
H788 H 0.58236 0.03136 0.80112 0.0
H789 H 0.54084 0.12807 0.94563 0.0
H790 H 0.58611 0.1462 0.93618 0.0
H791 H 0.54632 0.14582 0.90313 0.0
H792 H 0.67848 0.17316 0.85829 0.0
H793 H 0.57768 0.17459 0.78817 0.0
H794 H 0.65123 0.09734 0.88485 0.0
H795 H 0.63893 0.12331 0.9216 0.0
H796 H 0.68091 0.13839 0.90375 0.0
H797 H 0.52551 0.10202 0.7958 0.0
H798 H 0.51935 0.14437 0.79955 0.0
H799 H 0.51674 0.12171 0.83898 0.0
C800 C 0.05417 0.38417 0.09345 0.0
C801 C 0.07878 0.40844 0.07912 0.0
C802 C 0.06684 0.36059 0.11309 0.0
C803 C 0.10491 0.36162 0.11858 0.0
C804 C 0.12983 0.38601 0.10412 0.0
C805 C 0.11644 0.40916 0.08458 0.0
C806 C 0.03965 0.33487 0.12827 0.0
C807 C 0.17073 0.38788 0.10959 0.0
C808 C 0.15282 0.33187 0.20044 0.0
C809 C 0.15987 0.3023 0.18311 0.0
C810 C 0.13247 0.3502 0.18019 0.0
C811 C 0.11949 0.33883 0.14156 0.0
C812 C 0.12458 0.30779 0.12441 0.0
C813 C 0.14461 0.28959 0.14566 0.0
C814 C 0.12714 0.38291 0.1996 0.0
C815 C 0.11114 0.29508 0.0832 0.0
H816 H 0.02497 0.38337 0.08902 0.0
H817 H 0.13557 0.42784 0.07352 0.0
H818 H 0.04216 0.30898 0.11858 0.0
H819 H 0.04596 0.33915 0.15931 0.0
H820 H 0.01068 0.33612 0.11957 0.0
H821 H 0.18611 0.40753 0.09523 0.0
H822 H 0.18237 0.39369 0.13989 0.0
H823 H 0.1755 0.36311 0.09876 0.0
H824 H 0.16425 0.34124 0.22971 0.0
H825 H 0.15022 0.26663 0.13247 0.0
H826 H 0.09807 0.38438 0.19261 0.0
H827 H 0.14469 0.40454 0.18978 0.0
H828 H 0.13463 0.38576 0.23054 0.0
H829 H 0.08198 0.29601 0.0754 0.0
H830 H 0.11345 0.26879 0.07522 0.0
H831 H 0.12775 0.31168 0.06663 0.0
C832 C 0.59984 0.56266 0.8811 0.0
C833 C 0.57201 0.57439 0.89617 0.0
C834 C 0.61867 0.57989 0.85566 0.0
C835 C 0.60852 0.60881 0.8444 0.0
C836 C 0.57959 0.62005 0.85875 0.0
C837 C 0.56206 0.60298 0.88492 0.0
C838 C 0.65002 0.56773 0.84164 0.0
C839 C 0.56752 0.65041 0.84692 0.0
C840 C 0.68001 0.6751 0.81276 0.0
C841 C 0.66926 0.66863 0.77374 0.0
C842 C 0.66052 0.65573 0.83595 0.0
C843 C 0.62978 0.62883 0.81972 0.0
C844 C 0.61887 0.62192 0.7803 0.0
C845 C 0.6386 0.64219 0.75769 0.0
C846 C 0.67258 0.6644 0.87788 0.0
C847 C 0.58638 0.5932 0.7621 0.0
H848 H 0.60752 0.54059 0.88998 0.0
H849 H 0.54012 0.61175 0.89623 0.0
H850 H 0.64543 0.56351 0.81059 0.0
H851 H 0.67622 0.58738 0.85131 0.0
H852 H 0.6533 0.54393 0.85167 0.0
H853 H 0.54279 0.65431 0.85859 0.0
H854 H 0.59027 0.6735 0.85642 0.0
H855 H 0.56112 0.64742 0.81594 0.0
H856 H 0.70343 0.69585 0.82535 0.0
H857 H 0.63037 0.63711 0.72753 0.0
H858 H 0.67821 0.642 0.88953 0.0
H859 H 0.65012 0.67166 0.89115 0.0
H860 H 0.69774 0.68556 0.88591 0.0
H861 H 0.59127 0.56895 0.76935 0.0
H862 H 0.58129 0.59132 0.73112 0.0
H863 H 0.56112 0.5966 0.77291 0.0
C864 C 0.64456 0.3367 0.16482 0.0
C865 C 0.6686 0.32069 0.14763 0.0
C866 C 0.62669 0.35822 0.14675 0.0
C867 C 0.633 0.36417 0.11049 0.0
C868 C 0.65722 0.34817 0.09285 0.0
C869 C 0.67473 0.32655 0.11163 0.0
C870 C 0.601 0.37462 0.1666 0.0
C871 C 0.66469 0.35402 0.05426 0.0
C872 C 0.55878 0.39798 0.05768 0.0
C873 C 0.57361 0.43302 0.06696 0.0
C874 C 0.57861 0.37509 0.07004 0.0
C875 C 0.61432 0.38753 0.09167 0.0
C876 C 0.63033 0.42279 0.09901 0.0
C877 C 0.60966 0.44511 0.08686 0.0
C878 C 0.56035 0.33772 0.06199 0.0
C879 C 0.66851 0.43708 0.12154 0.0
H880 H 0.63954 0.33242 0.19263 0.0
H881 H 0.69323 0.3143 0.09813 0.0
H882 H 0.61095 0.40253 0.17027 0.0
H883 H 0.57302 0.36772 0.14944 0.0
H884 H 0.59875 0.36701 0.19457 0.0
H885 H 0.68436 0.33986 0.04446 0.0
H886 H 0.63852 0.34619 0.03395 0.0
H887 H 0.67616 0.38136 0.05424 0.0
H888 H 0.53087 0.38841 0.04245 0.0
H889 H 0.62139 0.47214 0.09388 0.0
H890 H 0.55398 0.32865 0.08839 0.0
H891 H 0.57923 0.32334 0.05093 0.0
H892 H 0.53428 0.33189 0.04157 0.0
H893 H 0.668 0.43372 0.15121 0.0
H894 H 0.67886 0.46444 0.12051 0.0
H895 H 0.68826 0.42336 0.11116 0.0
C896 C 0.89996 0.40094 0.41631 0.0
C897 C 0.91444 0.43529 0.41569 0.0
C898 C 0.87665 0.38028 0.3852 0.0
C899 C 0.86805 0.39432 0.35249 0.0
C900 C 0.88158 0.42925 0.35206 0.0
C901 C 0.90449 0.44951 0.38396 0.0
C902 C 0.86227 0.34315 0.38696 0.0
C903 C 0.87303 0.44487 0.31757 0.0
C904 C 0.84369 0.32275 0.27277 0.0
C905 C 0.80556 0.31202 0.27187 0.0
C906 C 0.86431 0.35254 0.2958 0.0
C907 C 0.84623 0.37145 0.31868 0.0
C908 C 0.80729 0.36277 0.31448 0.0
C909 C 0.78736 0.33301 0.29101 0.0
C910 C 0.90578 0.36149 0.2988 0.0
C911 C 0.78687 0.3823 0.33815 0.0
H912 H 0.90737 0.39006 0.44103 0.0
H913 H 0.91589 0.47611 0.38349 0.0
H914 H 0.83177 0.33566 0.37915 0.0
H915 H 0.87369 0.32776 0.36664 0.0
H916 H 0.86983 0.33679 0.41526 0.0
H917 H 0.88392 0.47277 0.32258 0.0
H918 H 0.88535 0.43404 0.29452 0.0
H919 H 0.84279 0.43886 0.30793 0.0
H920 H 0.85774 0.30682 0.25733 0.0
H921 H 0.75798 0.32466 0.29044 0.0
H922 H 0.91818 0.35287 0.32408 0.0
H923 H 0.91689 0.38923 0.30177 0.0
H924 H 0.91463 0.34915 0.27401 0.0
H925 H 0.78669 0.3731 0.36553 0.0
H926 H 0.75781 0.3786 0.32454 0.0
H927 H 0.80034 0.40973 0.34362 0.0
C928 C 0.60467 0.55813 0.46036 0.0
C929 C 0.56608 0.54822 0.45092 0.0
C930 C 0.62607 0.57814 0.43857 0.0
C931 C 0.6084 0.58949 0.40746 0.0
C932 C 0.56945 0.58033 0.39851 0.0
C933 C 0.54898 0.55921 0.41969 0.0
C934 C 0.6676 0.58653 0.44825 0.0
C935 C 0.54923 0.59258 0.36635 0.0
C936 C 0.66105 0.66457 0.36849 0.0
C937 C 0.66903 0.64869 0.33544 0.0
C938 C 0.64148 0.64566 0.39229 0.0
C939 C 0.63045 0.60995 0.38335 0.0
C940 C 0.63905 0.59379 0.35033 0.0
C941 C 0.65781 0.61338 0.32658 0.0
C942 C 0.63153 0.66398 0.42633 0.0
C943 C 0.62814 0.55579 0.33987 0.0
H944 H 0.61819 0.54944 0.48409 0.0
H945 H 0.51934 0.55134 0.41156 0.0
H946 H 0.67936 0.57753 0.42378 0.0
H947 H 0.67873 0.61432 0.45491 0.0
H948 H 0.6772 0.57494 0.4725 0.0
H949 H 0.51886 0.58594 0.36545 0.0
H950 H 0.55889 0.62043 0.36856 0.0
H951 H 0.55516 0.58124 0.33942 0.0
H952 H 0.66911 0.69191 0.3752 0.0
H953 H 0.66379 0.60096 0.30102 0.0
H954 H 0.64268 0.65516 0.452 0.0
H955 H 0.60107 0.65817 0.42431 0.0
H956 H 0.64227 0.69183 0.42945 0.0
H957 H 0.63838 0.54386 0.36353 0.0
H958 H 0.63911 0.54706 0.3147 0.0
H959 H 0.59764 0.5467 0.33413 0.0
C960 C 0.77702 0.3412 0.83295 0.0
C961 C 0.79544 0.31605 0.82389 0.0
C962 C 0.79569 0.37146 0.8564 0.0
C963 C 0.83315 0.37584 0.87188 0.0
C964 C 0.85186 0.35048 0.86254 0.0
C965 C 0.8328 0.32101 0.83822 0.0
C966 C 0.77535 0.39846 0.86472 0.0
C967 C 0.89191 0.35417 0.87869 0.0
C968 C 0.90763 0.45264 0.91246 0.0
C969 C 0.91329 0.44696 0.94968 0.0
C970 C 0.87753 0.43243 0.88692 0.0
C971 C 0.8532 0.40599 0.89916 0.0
C972 C 0.85561 0.40387 0.93781 0.0
C973 C 0.88592 0.42449 0.96277 0.0
C974 C 0.87511 0.43635 0.84613 0.0
C975 C 0.82954 0.37661 0.95212 0.0
H976 H 0.74816 0.33745 0.82119 0.0
H977 H 0.84691 0.30149 0.83102 0.0
H978 H 0.77081 0.40015 0.89421 0.0
H979 H 0.79195 0.42354 0.86128 0.0
H980 H 0.74811 0.39311 0.84627 0.0
H981 H 0.9021 0.33191 0.86871 0.0
H982 H 0.90942 0.37697 0.8709 0.0
H983 H 0.89554 0.35744 0.90971 0.0
H984 H 0.92853 0.47041 0.90232 0.0
H985 H 0.88991 0.42082 -0.00815 0.0
H986 H 0.84606 0.42949 0.83161 0.0
H987 H 0.88993 0.41928 0.83218 0.0
H988 H 0.8882 0.46267 0.8428 0.0
H989 H 0.8009 0.37234 0.9372 0.0
H990 H 0.82985 0.383 0.98265 0.0
H991 H 0.83811 0.35256 0.94714 0.0
C992 C 0.82473 0.82278 0.11838 0.0
C993 C 0.85135 0.8111 0.14029 0.0
C994 C 0.835 0.84627 0.09423 0.0
C995 C 0.87276 0.8582 0.0917 0.0
C996 C 0.89969 0.84636 0.11366 0.0
C997 C 0.88869 0.82309 0.13766 0.0
C998 C 0.80549 0.85854 0.07168 0.0
C999 C 0.94029 0.8585 0.11204 0.0
C1000 C 0.9061 0.89804 0.00934 0.0
C1001 C 0.9193 0.93202 0.02563 0.0
C1002 C 0.88912 0.87375 0.0299 0.0
C1003 C 0.8847 0.88392 0.06725 0.0
C1004 C 0.89558 0.91866 0.08262 0.0
C1005 C 0.91314 0.94215 0.06183 0.0
C1006 C 0.87822 0.83695 0.01261 0.0
C1007 C 0.89072 0.93088 0.12191 0.0
H1008 H 0.79583 0.81371 0.12023 0.0
H1009 H 0.90953 0.81432 0.15444 0.0
H1010 H 0.81127 0.8865 0.07785 0.0
H1011 H 0.80562 0.85175 0.04136 0.0
H1012 H 0.7775 0.84758 0.0776 0.0
H1013 H 0.95764 0.84597 0.12986 0.0
H1014 H 0.94513 0.85365 0.08277 0.0
H1015 H 0.94956 0.88619 0.12146 0.0
H1016 H 0.91118 0.89012 0.98151 0.0
H1017 H 0.92319 0.9685 0.07442 0.0
H1018 H 0.84966 0.82514 0.01618 0.0
H1019 H 0.89671 0.82329 0.02713 0.0
H1020 H 0.88001 0.83344 0.98231 0.0
H1021 H 0.86244 0.91947 0.12665 0.0
H1022 H 0.89578 0.95885 0.1277 0.0
H1023 H 0.91035 0.92293 0.14236 0.0
C1024 C 0.79178 0.14028 0.79951 0.0
C1025 C 0.80449 0.17418 0.8166 0.0
C1026 C 0.81022 0.11564 0.80987 0.0
C1027 C 0.84258 0.12521 0.83738 0.0
C1028 C 0.85636 0.15969 0.85344 0.0
C1029 C 0.83694 0.18359 0.84323 0.0
C1030 C 0.79429 0.07916 0.79243 0.0
C1031 C 0.8912 0.17126 0.88218 0.0
C1032 C 0.87316 0.06251 0.89627 0.0
C1033 C 0.90301 0.05585 0.88009 0.0
C1034 C 0.85255 0.08418 0.88196 0.0
C1035 C 0.86163 0.09931 0.85038 0.0
C1036 C 0.89062 0.09138 0.8329 0.0
C1037 C 0.91104 0.06997 0.84806 0.0
C1038 C 0.82207 0.09204 0.90169 0.0
C1039 C 0.90108 0.1066 0.79903 0.0
H1040 H 0.76648 0.13274 0.77926 0.0
H1041 H 0.847 0.20975 0.85644 0.0
H1042 H 0.81571 0.06843 0.78096 0.0
H1043 H 0.78488 0.06414 0.81419 0.0
H1044 H 0.77052 0.07609 0.76964 0.0
H1045 H 0.89937 0.19916 0.89048 0.0
H1046 H 0.88717 0.15941 0.90757 0.0
H1047 H 0.91427 0.1631 0.87098 0.0
H1048 H 0.86687 0.05198 0.92118 0.0
H1049 H 0.93396 0.06491 0.83525 0.0
H1050 H 0.79615 0.08753 0.88137 0.0
H1051 H 0.82956 0.11914 0.91421 0.0
H1052 H 0.81679 0.07659 0.92428 0.0
H1053 H 0.87643 0.10213 0.777 0.0
H1054 H 0.92243 0.09604 0.78708 0.0
H1055 H 0.91187 0.13436 0.80685 0.0
C1056 C 0.64614 0.19795 0.65351 0.0
C1057 C 0.68099 0.19128 0.66156 0.0
C1058 C 0.61923 0.17744 0.62477 0.0
C1059 C 0.62729 0.14914 0.60477 0.0
C1060 C 0.66345 0.14405 0.61081 0.0
C1061 C 0.69011 0.16557 0.63898 0.0
C1062 C 0.58167 0.18481 0.61791 0.0
C1063 C 0.67311 0.11409 0.58987 0.0
C1064 C 0.56279 0.06359 0.58019 0.0
C1065 C 0.56057 0.05849 0.54137 0.0
C1066 C 0.58092 0.09494 0.6013 0.0
C1067 C 0.59732 0.12142 0.58283 0.0
C1068 C 0.59119 0.11749 0.5433 0.0
C1069 C 0.57331 0.08564 0.52285 0.0
C1070 C 0.58569 0.09854 0.64348 0.0
C1071 C 0.60605 0.14593 0.5227 0.0
H1072 H 0.6395 0.21859 0.67047 0.0
H1073 H 0.71724 0.16076 0.64507 0.0
H1074 H 0.56769 0.17564 0.58853 0.0
H1075 H 0.56407 0.17201 0.63656 0.0
H1076 H 0.58385 0.21237 0.62443 0.0
H1077 H 0.70296 0.11496 0.59636 0.0
H1078 H 0.65719 0.09034 0.5974 0.0
H1079 H 0.66553 0.11306 0.55925 0.0
H1080 H 0.55231 0.04249 0.59424 0.0
H1081 H 0.57053 0.08166 0.49257 0.0
H1082 H 0.57901 0.12211 0.65529 0.0
H1083 H 0.61489 0.10007 0.65502 0.0
H1084 H 0.56784 0.07688 0.65307 0.0
H1085 H 0.60457 0.17062 0.53764 0.0
H1086 H 0.59062 0.14205 0.49372 0.0
H1087 H 0.63544 0.14708 0.521 0.0
C1088 C 0.60715 0.92458 0.39957 0.0
C1089 C 0.56931 0.90885 0.39158 0.0
C1090 C 0.63314 0.90753 0.38873 0.0
C1091 C 0.62086 0.87433 0.36868 0.0
C1092 C 0.58257 0.85922 0.35827 0.0
C1093 C 0.55718 0.87658 0.37026 0.0
C1094 C 0.67373 0.9242 0.40089 0.0
C1095 C 0.56849 0.82403 0.33628 0.0
C1096 C 0.68611 0.8332 0.32039 0.0
C1097 C 0.695 0.81205 0.34581 0.0
C1098 C 0.6628 0.85444 0.32792 0.0
C1099 C 0.64797 0.8543 0.36151 0.0
C1100 C 0.65816 0.83415 0.38802 0.0
C1101 C 0.6818 0.81342 0.37995 0.0
C1102 C 0.65282 0.87599 0.29932 0.0
C1103 C 0.64284 0.83337 0.42421 0.0
H1104 H 0.61667 0.94943 0.41643 0.0
H1105 H 0.5279 0.86449 0.364 0.0
H1106 H 0.68578 0.91063 0.42195 0.0
H1107 H 0.68865 0.92272 0.37678 0.0
H1108 H 0.67868 0.95114 0.41345 0.0
H1109 H 0.53813 0.81752 0.32687 0.0
H1110 H 0.58216 0.82151 0.31137 0.0
H1111 H 0.57525 0.80537 0.35395 0.0
H1112 H 0.69646 0.83237 0.29406 0.0
H1113 H 0.68845 0.79708 0.39966 0.0
H1114 H 0.65838 0.90275 0.31262 0.0
H1115 H 0.62286 0.8675 0.28802 0.0
H1116 H 0.66839 0.8747 0.27563 0.0
H1117 H 0.64813 0.85935 0.43976 0.0
H1118 H 0.65496 0.81764 0.44265 0.0
H1119 H 0.61248 0.82301 0.41801 0.0
C1120 C 0.83342 0.17886 0.37214 0.0
C1121 C 0.81095 0.16616 0.33721 0.0
C1122 C 0.85205 0.1583 0.39128 0.0
C1123 C 0.84808 0.12437 0.375 0.0
C1124 C 0.82281 0.11063 0.34148 0.0
C1125 C 0.8045 0.13168 0.32302 0.0
C1126 C 0.87848 0.17377 0.42717 0.0
C1127 C 0.81756 0.0745 0.32326 0.0
C1128 C 0.93166 0.08786 0.38433 0.0
C1129 C 0.9241 0.06623 0.41061 0.0
C1130 C 0.90771 0.10778 0.37369 0.0
C1131 C 0.8748 0.10528 0.389 0.0
C1132 C 0.86719 0.08368 0.41599 0.0
C1133 C 0.89236 0.06466 0.42695 0.0
C1134 C 0.91726 0.13089 0.34532 0.0
C1135 C 0.83199 0.07982 0.43219 0.0
H1136 H 0.83824 0.20536 0.38354 0.0
H1137 H 0.78671 0.12144 0.29631 0.0
H1138 H 0.87605 0.15628 0.44812 0.0
H1139 H 0.9072 0.17851 0.4214 0.0
H1140 H 0.87366 0.19813 0.43947 0.0
H1141 H 0.79281 0.06618 0.30099 0.0
H1142 H 0.84212 0.07218 0.31044 0.0
H1143 H 0.8149 0.05713 0.34432 0.0
H1144 H 0.95645 0.08912 0.37198 0.0
H1145 H 0.88653 0.04758 0.44704 0.0
H1146 H 0.91669 0.15708 0.35639 0.0
H1147 H 0.89645 0.12251 0.31937 0.0
H1148 H 0.94495 0.1313 0.33789 0.0
H1149 H 0.82889 0.1049 0.44424 0.0
H1150 H 0.8311 0.06336 0.45425 0.0
H1151 H 0.80796 0.06868 0.40962 0.0
C1152 C 0.69234 0.13627 0.20258 0.0
C1153 C 0.67062 0.15925 0.20891 0.0
C1154 C 0.67655 0.10422 0.1815 0.0
C1155 C 0.63847 0.09551 0.16659 0.0
C1156 C 0.61572 0.11655 0.1781 0.0
C1157 C 0.63218 0.14834 0.19917 0.0
C1158 C 0.70149 0.08184 0.17129 0.0
C1159 C 0.57473 0.10787 0.16361 0.0
C1160 C 0.60465 0.06421 0.06447 0.0
C1161 C 0.58221 0.03239 0.06537 0.0
C1162 C 0.62626 0.08369 0.09719 0.0
C1163 C 0.62452 0.07117 0.13164 0.0
C1164 C 0.60425 0.03783 0.13217 0.0
C1165 C 0.58337 0.01858 0.09869 0.0
C1166 C 0.64836 0.11887 0.09524 0.0
C1167 C 0.6022 0.02354 0.16825 0.0
H1168 H 0.722 0.14416 0.21141 0.0
H1169 H 0.61512 0.16562 0.20525 0.0
H1170 H 0.68673 0.05472 0.16643 0.0
H1171 H 0.71155 0.08803 0.14513 0.0
H1172 H 0.72595 0.08606 0.19358 0.0
H1173 H 0.56024 0.12304 0.18083 0.0
H1174 H 0.57009 0.11321 0.13447 0.0
H1175 H 0.56213 0.08069 0.16317 0.0
H1176 H 0.604 0.07446 0.0384 0.0
H1177 H 0.5659 -0.0062 0.09914 0.0
H1178 H 0.67705 0.12306 0.11006 0.0
H1179 H 0.63583 0.13789 0.10923 0.0
H1180 H 0.64936 0.1234 0.06594 0.0
H1181 H 0.62975 0.03 0.1862 0.0
H1182 H 0.59134 -0.00437 0.1631 0.0
H1183 H 0.58357 0.03472 0.18408 0.0
C1184 C 0.67062 0.82768 0.80409 0.0
C1185 C 0.66242 0.79334 0.80782 0.0
C1186 C 0.65569 0.85062 0.82517 0.0
C1187 C 0.63255 0.83893 0.85088 0.0
C1188 C 0.62688 0.80487 0.85691 0.0
C1189 C 0.6416 0.78244 0.83506 0.0
C1190 C 0.66233 0.88667 0.81775 0.0
C1191 C 0.6029 0.79143 0.88439 0.0
C1192 C 0.60099 0.89955 0.91953 0.0
C1193 C 0.56603 0.8992 0.9004 0.0
C1194 C 0.62351 0.88082 0.90343 0.0
C1195 C 0.61039 0.86074 0.86774 0.0
C1196 C 0.575 0.86023 0.84846 0.0
C1197 C 0.55345 0.87969 0.86487 0.0
C1198 C 0.66138 0.88266 0.92443 0.0
C1199 C 0.55972 0.83889 0.81054 0.0
H1200 H 0.68639 0.83613 0.78276 0.0
H1201 H 0.63536 0.75591 0.83807 0.0
H1202 H 0.63677 0.89052 0.80186 0.0
H1203 H 0.66921 0.90456 0.84442 0.0
H1204 H 0.68494 0.89299 0.80122 0.0
H1205 H 0.60492 0.76566 0.88912 0.0
H1206 H 0.6107 0.80848 0.91168 0.0
H1207 H 0.57368 0.79041 0.87354 0.0
H1208 H 0.61108 0.91506 0.94675 0.0
H1209 H 0.52646 0.87936 0.84996 0.0
H1210 H 0.68264 0.89207 0.90739 0.0
H1211 H 0.66372 0.85706 0.92936 0.0
H1212 H 0.66757 0.89956 0.95182 0.0
H1213 H 0.57855 0.84611 0.79038 0.0
H1214 H 0.53189 0.84156 0.7991 0.0
H1215 H 0.55787 0.81186 0.81262 0.0
C1216 C 0.87263 0.88985 0.56909 0.0
C1217 C 0.90629 0.88177 0.56611 0.0
C1218 C 0.8485 0.87257 0.59035 0.0
C1219 C 0.85913 0.84761 0.6099 0.0
C1220 C 0.89325 0.8395 0.60696 0.0
C1221 C 0.91621 0.85637 0.58453 0.0
C1222 C 0.81181 0.8811 0.59207 0.0
C1223 C 0.90577 0.81348 0.62801 0.0
C1224 C 0.81429 0.82464 0.69331 0.0
C1225 C 0.78807 0.79471 0.67726 0.0
C1226 C 0.83731 0.84256 0.67149 0.0
C1227 C 0.8344 0.82963 0.63314 0.0
C1228 C 0.80831 0.79913 0.61704 0.0
C1229 C 0.78512 0.78224 0.63923 0.0
C1230 C 0.86478 0.87518 0.68939 0.0
C1231 C 0.80516 0.78412 0.57652 0.0
H1232 H 0.86515 0.90951 0.55461 0.0
H1233 H 0.94261 0.85058 0.5825 0.0
H1234 H 0.78904 0.85801 0.58265 0.0
H1235 H 0.81018 0.89061 0.6214 0.0
H1236 H 0.80735 0.90048 0.57438 0.0
H1237 H 0.93343 0.81062 0.62314 0.0
H1238 H 0.9069 0.82079 0.6585 0.0
H1239 H 0.88569 0.78856 0.61944 0.0
H1240 H 0.81645 0.8342 0.72274 0.0
H1241 H 0.76522 0.75873 0.62699 0.0
H1242 H 0.85961 0.89615 0.6746 0.0
H1243 H 0.89319 0.87311 0.68682 0.0
H1244 H 0.86338 0.88186 0.71949 0.0
H1245 H 0.79941 0.80255 0.55807 0.0
H1246 H 0.78302 0.76039 0.56827 0.0
H1247 H 0.83169 0.77854 0.57147 0.0
C1248 C 0.17954 0.86696 0.8495 0.0
C1249 C 0.16891 0.83209 0.83663 0.0
C1250 C 0.15707 0.8831 0.86905 0.0
C1251 C 0.1229 0.86401 0.87572 0.0
C1252 C 0.11204 0.82875 0.86293 0.0
C1253 C 0.13527 0.81318 0.84371 0.0
C1254 C 0.1699 0.92071 0.88255 0.0
C1255 C 0.07562 0.80758 0.86889 0.0
C1256 C 0.09085 0.90668 0.95833 0.0
C1257 C 0.06718 0.92408 0.94086 0.0
C1258 C 0.1069 0.88489 0.93733 0.0
C1259 C 0.09982 0.88106 0.89777 0.0
C1260 C 0.07406 0.89701 0.87993 0.0
C1261 C 0.05779 0.91831 0.90181 0.0
C1262 C 0.13333 0.86774 0.9576 0.0
C1263 C 0.06563 0.89347 0.83783 0.0
H1264 H 0.20542 0.88176 0.84407 0.0
H1265 H 0.12655 0.7863 0.83331 0.0
H1266 H 0.14926 0.93363 0.87054 0.0
H1267 H 0.1724 0.92582 0.91347 0.0
H1268 H 0.19698 0.93197 0.87476 0.0
H1269 H 0.07235 0.78019 0.85949 0.0
H1270 H 0.07292 0.81145 0.89891 0.0
H1271 H 0.05267 0.8156 0.85309 0.0
H1272 H 0.09791 0.91113 0.98863 0.0
H1273 H 0.03964 0.93201 0.88838 0.0
H1274 H 0.16185 0.87905 0.95346 0.0
H1275 H 0.12668 0.84046 0.94602 0.0
H1276 H 0.13265 0.87034 0.98814 0.0
H1277 H 0.08962 0.90831 0.82747 0.0
H1278 H 0.04101 0.90278 0.82834 0.0
H1279 H 0.06094 0.86672 0.82484 0.0
C1280 C 0.9401 0.41925 0.57508 0.0
C1281 C 0.92765 0.44875 0.5813 0.0
C1282 C 0.93073 0.39319 0.59616 0.0
C1283 C 0.90896 0.39719 0.62429 0.0
C1284 C 0.89836 0.42787 0.63215 0.0
C1285 C 0.90757 0.4532 0.61025 0.0
C1286 C 0.94227 0.36074 0.58679 0.0
C1287 C 0.87568 0.43331 0.66243 0.0
C1288 C 0.8415 0.3233 0.64807 0.0
C1289 C 0.85822 0.3212 0.68413 0.0
C1290 C 0.85869 0.34694 0.62742 0.0
C1291 C 0.89377 0.36838 0.64295 0.0
C1292 C 0.91203 0.36459 0.67808 0.0
C1293 C 0.89377 0.34125 0.69857 0.0
C1294 C 0.83815 0.35055 0.59019 0.0
C1295 C 0.94989 0.38647 0.6949 0.0
H1296 H 0.95569 0.41589 0.55262 0.0
H1297 H 0.89853 0.47633 0.61541 0.0
H1298 H 0.95135 0.35094 0.61258 0.0
H1299 H 0.91831 0.34129 0.57029 0.0
H1300 H 0.96493 0.36412 0.56997 0.0
H1301 H 0.87282 0.45973 0.66731 0.0
H1302 H 0.84769 0.4161 0.65438 0.0
H1303 H 0.88843 0.42723 0.68915 0.0
H1304 H 0.81394 0.30794 0.63683 0.0
H1305 H 0.90683 0.33943 0.72634 0.0
H1306 H 0.856 0.35032 0.56841 0.0
H1307 H 0.83056 0.37519 0.59258 0.0
H1308 H 0.81251 0.33012 0.58072 0.0
H1309 H 0.96873 0.38706 0.67398 0.0
H1310 H 0.96216 0.37743 0.71998 0.0
H1311 H 0.94801 0.4128 0.70323 0.0
C1312 C 0.39291 0.0738 0.44037 0.0
C1313 C 0.42923 0.07738 0.45806 0.0
C1314 C 0.38434 0.09583 0.41611 0.0
C1315 C 0.41274 0.12245 0.40958 0.0
C1316 C 0.44947 0.12659 0.42769 0.0
C1317 C 0.45734 0.10389 0.45174 0.0
C1318 C 0.34484 0.09021 0.39697 0.0
C1319 C 0.48036 0.15475 0.4214 0.0
C1320 C 0.38361 0.15084 0.31828 0.0
C1321 C 0.36829 0.17738 0.33044 0.0
C1322 C 0.4016 0.13473 0.34401 0.0
C1323 C 0.40343 0.14497 0.3828 0.0
C1324 C 0.39042 0.17345 0.3952 0.0
C1325 C 0.37323 0.18961 0.36874 0.0
C1326 C 0.41574 0.10493 0.32955 0.0
C1327 C 0.3916 0.18491 0.43632 0.0
H1328 H 0.37105 0.0533 0.44494 0.0
H1329 H 0.48546 0.10684 0.46548 0.0
H1330 H 0.33489 0.11335 0.40325 0.0
H1331 H 0.34322 0.08491 0.36617 0.0
H1332 H 0.32593 0.06878 0.4058 0.0
H1333 H 0.50764 0.15369 0.43638 0.0
H1334 H 0.48156 0.15353 0.39106 0.0
H1335 H 0.47505 0.17954 0.43118 0.0
H1336 H 0.38012 0.14169 0.28855 0.0
H1337 H 0.36124 0.2101 0.3781 0.0
H1338 H 0.39649 0.08116 0.33301 0.0
H1339 H 0.44315 0.10587 0.3457 0.0
H1340 H 0.41806 0.10396 0.29942 0.0
H1341 H 0.37103 0.16624 0.44711 0.0
H1342 H 0.38525 0.21 0.44155 0.0
H1343 H 0.41912 0.18627 0.45249 0.0
C1344 C 0.54083 0.59419 0.06257 0.0
C1345 C 0.55199 0.56864 0.04175 0.0
C1346 C 0.56672 0.62383 0.0803 0.0
C1347 C 0.60454 0.62707 0.07814 0.0
C1348 C 0.6152 0.60296 0.05378 0.0
C1349 C 0.58859 0.57411 0.03546 0.0
C1350 C 0.55414 0.64977 0.1048 0.0
C1351 C 0.65518 0.60512 0.05083 0.0
C1352 C 0.6759 0.70296 0.13531 0.0
C1353 C 0.68154 0.691 0.16943 0.0
C1354 C 0.65095 0.68243 0.10468 0.0
C1355 C 0.63252 0.64925 0.10855 0.0
C1356 C 0.63977 0.63682 0.14263 0.0
C1357 C 0.66381 0.65807 0.17274 0.0
C1358 C 0.64352 0.69641 0.0688 0.0
C1359 C 0.62169 0.6012 0.14765 0.0
H1360 H 0.51225 0.59037 0.06639 0.0
H1361 H 0.59718 0.55461 0.01868 0.0
H1362 H 0.55958 0.64583 0.13439 0.0
H1363 H 0.56959 0.67574 0.10294 0.0
H1364 H 0.52412 0.64769 0.09698 0.0
H1365 H 0.65797 0.58976 0.02465 0.0
H1366 H 0.67077 0.63159 0.05178 0.0
H1367 H 0.66809 0.59526 0.07491 0.0
H1368 H 0.69003 0.72852 0.13301 0.0
H1369 H 0.66901 0.64882 0.19904 0.0
H1370 H 0.61431 0.69791 0.0636 0.0
H1371 H 0.64766 0.67933 0.0447 0.0
H1372 H 0.66159 0.722 0.0697 0.0
H1373 H 0.59144 0.59795 0.1454 0.0
H1374 H 0.63228 0.59503 0.17522 0.0
H1375 H 0.6265 0.58265 0.12533 0.0
C1376 C 0.17871 0.17526 0.65041 0.0
C1377 C 0.16475 0.2016 0.66584 0.0
C1378 C 0.15635 0.14942 0.62282 0.0
C1379 C 0.11966 0.15074 0.60969 0.0
C1380 C 0.10721 0.17955 0.62196 0.0
C1381 C 0.12965 0.20434 0.65063 0.0
C1382 C 0.1707 0.11898 0.61118 0.0
C1383 C 0.069 0.18276 0.60727 0.0
C1384 C 0.06338 0.07985 0.53303 0.0
C1385 C 0.04338 0.05802 0.55393 0.0
C1386 C 0.08732 0.11088 0.55037 0.0
C1387 C 0.09244 0.11955 0.58976 0.0
C1388 C 0.07218 0.09768 0.61099 0.0
C1389 C 0.04745 0.06757 0.59276 0.0
C1390 C 0.10742 0.13408 0.52666 0.0
C1391 C 0.07746 0.10552 0.65322 0.0
H1392 H 0.20585 0.17314 0.66234 0.0
H1393 H 0.11911 0.22506 0.6623 0.0
H1394 H 0.15862 0.0981 0.62592 0.0
H1395 H 0.16247 0.10992 0.58071 0.0
H1396 H 0.20126 0.12449 0.61837 0.0
H1397 H 0.0666 0.20926 0.61311 0.0
H1398 H 0.06173 0.17393 0.57664 0.0
H1399 H 0.04856 0.16672 0.62094 0.0
H1400 H 0.06088 0.07237 0.50321 0.0
H1401 H 0.03234 0.05086 0.60929 0.0
H1402 H 0.13762 0.13729 0.53411 0.0
H1403 H 0.10201 0.15949 0.53225 0.0
H1404 H 0.099 0.12434 0.49624 0.0
H1405 H 0.10694 0.10901 0.66528 0.0
H1406 H 0.06063 0.08521 0.66563 0.0
H1407 H 0.06976 0.12946 0.66175 0.0
C1408 C 0.66899 0.36301 0.33414 0.0
C1409 C 0.65824 0.32868 0.31891 0.0
C1410 C 0.64855 0.37713 0.35817 0.0
C1411 C 0.61594 0.35659 0.36641 0.0
C1412 C 0.60496 0.3218 0.35121 0.0
C1413 C 0.62652 0.30815 0.3279 0.0
C1414 C 0.66178 0.41418 0.37452 0.0
C1415 C 0.56994 0.29927 0.35857 0.0
C1416 C 0.59045 0.39532 0.45501 0.0
C1417 C 0.56683 0.41433 0.44095 0.0
C1418 C 0.60402 0.37379 0.43092 0.0
C1419 C 0.59431 0.37191 0.39176 0.0
C1420 C 0.56817 0.38917 0.37745 0.0
C1421 C 0.55458 0.41028 0.40238 0.0
C1422 C 0.63121 0.3554 0.44745 0.0
C1423 C 0.55684 0.38745 0.33585 0.0
H1424 H 0.69341 0.37896 0.32714 0.0
H1425 H 0.61778 0.28168 0.31561 0.0
H1426 H 0.64075 0.42777 0.36515 0.0
H1427 H 0.66558 0.41726 0.40554 0.0
H1428 H 0.68828 0.42636 0.3662 0.0
H1429 H 0.56767 0.27215 0.34858 0.0
H1430 H 0.5684 0.30254 0.38889 0.0
H1431 H 0.5458 0.30647 0.34392 0.0
H1432 H 0.59982 0.39865 0.48496 0.0
H1433 H 0.53648 0.42529 0.39166 0.0
H1434 H 0.65933 0.36774 0.44299 0.0
H1435 H 0.62451 0.32879 0.43338 0.0
H1436 H 0.63163 0.35559 0.478 0.0
H1437 H 0.57998 0.40231 0.32432 0.0
H1438 H 0.53232 0.39777 0.3293 0.0
H1439 H 0.55059 0.36098 0.32141 0.0
C1440 C 0.45364 0.9247 0.07881 0.0
C1441 C 0.43042 0.94604 0.07055 0.0
C1442 C 0.44403 0.89975 0.10118 0.0
C1443 C 0.41059 0.89645 0.11546 0.0
C1444 C 0.38838 0.91946 0.10917 0.0
C1445 C 0.3985 0.94388 0.08652 0.0
C1446 C 0.46867 0.87602 0.10767 0.0
C1447 C 0.35298 0.91738 0.12492 0.0
C1448 C 0.34726 0.81626 0.12863 0.0
C1449 C 0.34842 0.82235 0.16738 0.0
C1450 C 0.37084 0.83859 0.11131 0.0
C1451 C 0.39608 0.86716 0.13352 0.0
C1452 C 0.40064 0.87073 0.17298 0.0
C1453 C 0.37632 0.84836 0.18954 0.0
C1454 C 0.36575 0.83376 0.06907 0.0
C1455 C 0.42846 0.90006 0.19754 0.0
H1456 H 0.47865 0.92669 0.06674 0.0
H1457 H 0.3811 0.96102 0.08093 0.0
H1458 H 0.46796 0.86759 0.1354 0.0
H1459 H 0.45903 0.85326 0.08586 0.0
H1460 H 0.4977 0.88804 0.10566 0.0
H1461 H 0.34029 0.93857 0.11933 0.0
H1462 H 0.33275 0.89325 0.11235 0.0
H1463 H 0.35825 0.91769 0.15563 0.0
H1464 H 0.32592 0.79587 0.11153 0.0
H1465 H 0.37772 0.8525 0.21969 0.0
H1466 H 0.39287 0.83773 0.05949 0.0
H1467 H 0.35178 0.85274 0.05868 0.0
H1468 H 0.34877 0.80816 0.05623 0.0
H1469 H 0.45483 0.90541 0.18647 0.0
H1470 H 0.43404 0.89518 0.22682 0.0
H1471 H 0.41764 0.92304 0.19791 0.0
C1472 C 0.94027 0.58848 0.87789 0.0
C1473 C 0.9175 0.56641 0.89639 0.0
C1474 C 0.92571 0.60951 0.85571 0.0
C1475 C 0.88769 0.60851 0.85238 0.0
C1476 C 0.86447 0.58577 0.87033 0.0
C1477 C 0.87963 0.56481 0.89191 0.0
C1478 C 0.95102 0.63315 0.83638 0.0
C1479 C 0.82369 0.58402 0.86738 0.0
C1480 C 0.84859 0.6813 0.82654 0.0
C1481 C 0.83024 0.66785 0.79014 0.0
C1482 C 0.86912 0.66285 0.84685 0.0
C1483 C 0.87166 0.63081 0.82977 0.0
C1484 C 0.85532 0.61844 0.79204 0.0
C1485 C 0.83446 0.63703 0.77279 0.0
C1486 C 0.88589 0.67653 0.88724 0.0
C1487 C 0.85795 0.58467 0.77268 0.0
H1488 H 0.96956 0.58973 0.88121 0.0
H1489 H 0.86186 0.54778 0.90608 0.0
H1490 H 0.93989 0.62958 0.80604 0.0
H1491 H 0.95258 0.65972 0.84801 0.0
H1492 H 0.9794 0.62922 0.83978 0.0
H1493 H 0.80956 0.56502 0.88328 0.0
H1494 H 0.81964 0.60909 0.8782 0.0
H1495 H 0.81016 0.57749 0.83763 0.0
H1496 H 0.84506 0.70513 0.83984 0.0
H1497 H 0.8205 0.62694 0.74436 0.0
H1498 H 0.91516 0.67526 0.89261 0.0
H1499 H 0.87097 0.66073 0.90568 0.0
H1500 H 0.88447 0.70309 0.89519 0.0
H1501 H 0.88694 0.58248 0.77702 0.0
H1502 H 0.84756 0.58075 0.74211 0.0
H1503 H 0.84144 0.56406 0.7849 0.0
C1504 C 0.42235 0.37214 0.09933 0.0
C1505 C 0.42043 0.40526 0.09539 0.0
C1506 C 0.40376 0.3548 0.12472 0.0
C1507 C 0.38222 0.37076 0.14634 0.0
C1508 C 0.38034 0.40429 0.14274 0.0
C1509 C 0.39973 0.42127 0.11745 0.0
C1510 C 0.40656 0.31909 0.12782 0.0
C1511 C 0.35719 0.4219 0.16495 0.0
C1512 C 0.30368 0.31016 0.17578 0.0
C1513 C 0.31853 0.3078 0.21254 0.0
C1514 C 0.3237 0.33135 0.15448 0.0
C1515 C 0.35944 0.35115 0.17034 0.0
C1516 C 0.37412 0.35007 0.20793 0.0
C1517 C 0.35356 0.32818 0.22857 0.0
C1518 C 0.30708 0.33145 0.11442 0.0
C1519 C 0.412 0.37116 0.22588 0.0
H1520 H 0.43857 0.35969 0.08262 0.0
H1521 H 0.39808 0.44683 0.11442 0.0
H1522 H 0.41587 0.31695 0.1574 0.0
H1523 H 0.37898 0.30135 0.1187 0.0
H1524 H 0.42602 0.31097 0.11051 0.0
H1525 H 0.36005 0.44852 0.16029 0.0
H1526 H 0.32769 0.40821 0.15695 0.0
H1527 H 0.36518 0.4216 0.19527 0.0
H1528 H 0.27656 0.2947 0.16304 0.0
H1529 H 0.36512 0.32669 0.25699 0.0
H1530 H 0.3234 0.32079 0.09513 0.0
H1531 H 0.30805 0.35769 0.10937 0.0
H1532 H 0.27798 0.31638 0.10718 0.0
H1533 H 0.43321 0.3612 0.21302 0.0
H1534 H 0.41738 0.37093 0.25653 0.0
H1535 H 0.41531 0.39771 0.22092 0.0
C1536 C 0.40263 0.56225 0.92132 0.0
C1537 C 0.4341 0.56295 0.90469 0.0
C1538 C 0.37808 0.582 0.91071 0.0
C1539 C 0.38586 0.60347 0.88362 0.0
C1540 C 0.4187 0.60546 0.86829 0.0
C1541 C 0.4421 0.58483 0.87861 0.0
C1542 C 0.34313 0.57883 0.92728 0.0
C1543 C 0.42875 0.6288 0.84025 0.0
C1544 C 0.31256 0.62947 0.81985 0.0
C1545 C 0.31739 0.66342 0.83535 0.0
C1546 C 0.3331 0.60901 0.83664 0.0
C1547 C 0.35917 0.6228 0.86967 0.0
C1548 C 0.3624 0.65635 0.88677 0.0
C1549 C 0.34137 0.6762 0.86949 0.0
C1550 C 0.32857 0.57326 0.81768 0.0
C1551 C 0.38989 0.67208 0.92191 0.0
H1552 H 0.39643 0.54525 0.94141 0.0
H1553 H 0.46677 0.58576 0.86613 0.0
H1554 H 0.33932 0.60416 0.93736 0.0
H1555 H 0.31908 0.56599 0.90531 0.0
H1556 H 0.34309 0.56407 0.95087 0.0
H1557 H 0.45667 0.62933 0.83334 0.0
H1558 H 0.40832 0.62049 0.81403 0.0
H1559 H 0.42794 0.65492 0.85131 0.0
H1560 H 0.29399 0.61927 0.7936 0.0
H1561 H 0.34521 0.70234 0.88183 0.0
H1562 H 0.32559 0.55548 0.83832 0.0
H1563 H 0.35358 0.57148 0.80545 0.0
H1564 H 0.30424 0.56504 0.79492 0.0
H1565 H 0.38763 0.65504 0.94332 0.0
H1566 H 0.38602 0.69689 0.93406 0.0
H1567 H 0.41829 0.67594 0.91534 0.0
C1568 C 0.0895 0.57044 0.56433 0.0
C1569 C 0.0707 0.53752 0.56674 0.0
C1570 C 0.11162 0.59157 0.59587 0.0
C1571 C 0.11427 0.57957 0.63071 0.0
C1572 C 0.09595 0.54604 0.63311 0.0
C1573 C 0.07463 0.52515 0.6008 0.0
C1574 C 0.13088 0.62722 0.59218 0.0
C1575 C 0.09732 0.53286 0.67002 0.0
C1576 C 0.19291 0.63753 0.69935 0.0
C1577 C 0.17514 0.66148 0.71356 0.0
C1578 C 0.17282 0.60844 0.6747 0.0
C1579 C 0.13418 0.60335 0.66467 0.0
C1580 C 0.11566 0.62524 0.68274 0.0
C1581 C 0.13642 0.65404 0.7072 0.0
C1582 C 0.19341 0.58525 0.65649 0.0
C1583 C 0.07439 0.62056 0.67313 0.0
H1584 H 0.08636 0.57983 0.53783 0.0
H1585 H 0.05951 0.49976 0.60259 0.0
H1586 H 0.11898 0.64551 0.60832 0.0
H1587 H 0.16066 0.63261 0.60398 0.0
H1588 H 0.12816 0.63167 0.5626 0.0
H1589 H 0.08367 0.50549 0.66663 0.0
H1590 H 0.12634 0.53707 0.68394 0.0
H1591 H 0.08331 0.54692 0.68895 0.0
H1592 H 0.22269 0.64251 0.70574 0.0
H1593 H 0.12227 0.67201 0.71884 0.0
H1594 H 0.1962 0.59101 0.62791 0.0
H1595 H 0.17811 0.55842 0.65371 0.0
H1596 H 0.22151 0.58854 0.67254 0.0
H1597 H 0.06787 0.62962 0.64615 0.0
H1598 H 0.0636 0.63509 0.69486 0.0
H1599 H 0.05966 0.59352 0.66974 0.0
C1600 C 0.32893 0.33411 0.6474 0.0
C1601 C 0.34097 0.30438 0.64921 0.0
C1602 C 0.34556 0.35883 0.62719 0.0
C1603 C 0.37423 0.35321 0.60768 0.0
C1604 C 0.38548 0.32264 0.60841 0.0
C1605 C 0.36904 0.29883 0.62949 0.0
C1606 C 0.33318 0.39129 0.62755 0.0
C1607 C 0.41539 0.31529 0.58741 0.0
C1608 C 0.40321 0.40377 0.531 0.0
C1609 C 0.43615 0.42637 0.54966 0.0
C1610 C 0.38206 0.38048 0.54978 0.0
C1611 C 0.39407 0.37985 0.58813 0.0
C1612 C 0.42669 0.40328 0.60733 0.0
C1613 C 0.44733 0.42613 0.58788 0.0
C1614 C 0.34748 0.35589 0.5283 0.0
C1615 C 0.44038 0.40366 0.64826 0.0
H1616 H 0.30729 0.33851 0.66269 0.0
H1617 H 0.3781 0.27567 0.6304 0.0
H1618 H 0.35654 0.413 0.64067 0.0
H1619 H 0.32457 0.39532 0.5985 0.0
H1620 H 0.30987 0.39141 0.64318 0.0
H1621 H 0.41934 0.28948 0.58895 0.0
H1622 H 0.40855 0.31789 0.55753 0.0
H1623 H 0.44191 0.33391 0.59914 0.0
H1624 H 0.39423 0.40385 0.50153 0.0
H1625 H 0.4726 0.44357 0.60266 0.0
H1626 H 0.32373 0.35707 0.5429 0.0
H1627 H 0.35105 0.32973 0.52696 0.0
H1628 H 0.34067 0.36097 0.49928 0.0
H1629 H 0.41817 0.4056 0.66488 0.0
H1630 H 0.46479 0.42496 0.65972 0.0
H1631 H 0.44808 0.37963 0.65207 0.0
C1632 C 0.16474 0.64751 0.17202 0.0
C1633 C 0.20266 0.65971 0.17435 0.0
C1634 C 0.14656 0.61612 0.15101 0.0
C1635 C 0.16693 0.5975 0.13063 0.0
C1636 C 0.2059 0.60794 0.13663 0.0
C1637 C 0.22345 0.63944 0.15824 0.0
C1638 C 0.105 0.60517 0.14689 0.0
C1639 C 0.2288 0.58775 0.11743 0.0
C1640 C 0.09484 0.52612 0.07334 0.0
C1641 C 0.08408 0.54216 0.04337 0.0
C1642 C 0.12674 0.54134 0.09946 0.0
C1643 C 0.1467 0.57411 0.09654 0.0
C1644 C 0.13875 0.58828 0.06372 0.0
C1645 C 0.10765 0.5718 0.03718 0.0
C1646 C 0.13636 0.52388 0.13212 0.0
C1647 C 0.15991 0.62298 0.05896 0.0
H1648 H 0.1489 0.66368 0.18421 0.0
H1649 H 0.25301 0.64914 0.16045 0.0
H1650 H 0.09234 0.60752 0.11837 0.0
H1651 H 0.09613 0.57834 0.15062 0.0
H1652 H 0.09408 0.62067 0.16761 0.0
H1653 H 0.25592 0.59069 0.13535 0.0
H1654 H 0.21458 0.56049 0.11053 0.0
H1655 H 0.23424 0.59732 0.09105 0.0
H1656 H 0.07705 0.50295 0.07812 0.0
H1657 H 0.10007 0.58377 0.01341 0.0
H1658 H 0.11951 0.52871 0.1539 0.0
H1659 H 0.16597 0.53303 0.14476 0.0
H1660 H 0.12991 0.49608 0.12316 0.0
H1661 H 0.1538 0.64242 0.07936 0.0
H1662 H 0.15255 0.62879 0.03036 0.0
H1663 H 0.19001 0.62512 0.06453 0.0
C1664 C 0.66869 0.31963 0.68114 0.0
C1665 C 0.70443 0.3233 0.67285 0.0
C1666 C 0.64587 0.33965 0.66695 0.0
C1667 C 0.65956 0.36419 0.64472 0.0
C1668 C 0.69654 0.36931 0.63853 0.0
C1669 C 0.7183 0.3485 0.65223 0.0
C1670 C 0.60656 0.33328 0.67398 0.0
C1671 C 0.71255 0.39554 0.61566 0.0
C1672 C 0.59229 0.38316 0.56789 0.0
C1673 C 0.58923 0.41533 0.58249 0.0
C1674 C 0.61502 0.36638 0.58792 0.0
C1675 C 0.63436 0.38165 0.62411 0.0
C1676 C 0.63097 0.41402 0.6393 0.0
C1677 C 0.6088 0.43074 0.61802 0.0
C1678 C 0.61868 0.33246 0.57004 0.0
C1679 C 0.65028 0.4307 0.67816 0.0
H1680 H 0.65793 0.29993 0.69688 0.0
H1681 H 0.74611 0.35145 0.64612 0.0
H1682 H 0.59994 0.35745 0.68389 0.0
H1683 H 0.58744 0.32179 0.64742 0.0
H1684 H 0.6013 0.31601 0.69493 0.0
H1685 H 0.74267 0.3985 0.61644 0.0
H1686 H 0.69855 0.38816 0.58609 0.0
H1687 H 0.70777 0.42041 0.62605 0.0
H1688 H 0.57724 0.37124 0.54034 0.0
H1689 H 0.60598 0.45542 0.62952 0.0
H1690 H 0.60985 0.31297 0.58774 0.0
H1691 H 0.648 0.33369 0.56786 0.0
H1692 H 0.60196 0.32421 0.54158 0.0
H1693 H 0.63856 0.41572 0.69899 0.0
H1694 H 0.64722 0.45692 0.68476 0.0
H1695 H 0.6801 0.43131 0.68142 0.0
C1696 C 0.85724 0.65556 0.16293 0.0
C1697 C 0.81863 0.64755 0.15913 0.0
C1698 C 0.87549 0.63307 0.1463 0.0
C1699 C 0.85465 0.60171 0.12554 0.0
C1700 C 0.81584 0.59267 0.12323 0.0
C1701 C 0.79823 0.61577 0.13999 0.0
C1702 C 0.91694 0.64369 0.14923 0.0
C1703 C 0.79279 0.55932 0.10152 0.0
C1704 C 0.89816 0.56922 0.04592 0.0
C1705 C 0.91487 0.54564 0.0614 0.0
C1706 C 0.87737 0.58667 0.06608 0.0
C1707 C 0.87317 0.58044 0.10274 0.0
C1708 C 0.88868 0.55568 0.11806 0.0
C1709 C 0.90937 0.53844 0.09711 0.0
C1710 C 0.86105 0.61268 0.04856 0.0
C1711 C 0.88461 0.54835 0.15704 0.0
H1712 H 0.87326 0.67996 0.17783 0.0
H1713 H 0.7684 0.60927 0.13715 0.0
H1714 H 0.92965 0.62357 0.1585 0.0
H1715 H 0.92409 0.64756 0.12127 0.0
H1716 H 0.92935 0.6675 0.16908 0.0
H1717 H 0.76359 0.55448 0.10589 0.0
H1718 H 0.79338 0.55921 0.07118 0.0
H1719 H 0.80437 0.53823 0.10979 0.0
H1720 H 0.9018 0.57453 0.01807 0.0
H1721 H 0.92213 0.52015 0.10912 0.0
H1722 H 0.87412 0.6382 0.0647 0.0
H1723 H 0.83106 0.6076 0.04948 0.0
H1724 H 0.86507 0.61302 0.01898 0.0
H1725 H 0.90093 0.57033 0.17784 0.0
H1726 H 0.89433 0.52566 0.16306 0.0
H1727 H 0.85538 0.54448 0.16097 0.0
C1728 C 0.936 0.60694 0.60163 0.0
C1729 C 0.92476 0.58488 0.56744 0.0
C1730 C 0.91189 0.62428 0.6169 0.0
C1731 C 0.87538 0.61946 0.59773 0.0
C1732 C 0.86371 0.59702 0.56336 0.0
C1733 C 0.88855 0.58019 0.54853 0.0
C1734 C 0.92553 0.64782 0.6537 0.0
C1735 C 0.82498 0.59083 0.54221 0.0
C1736 C 0.80829 0.64673 0.65747 0.0
C1737 C 0.81155 0.68022 0.65134 0.0
C1738 C 0.82773 0.62604 0.63912 0.0
C1739 C 0.85017 0.63892 0.6133 0.0
C1740 C 0.85123 0.67195 0.6051 0.0
C1741 C 0.83244 0.69236 0.62466 0.0
C1742 C 0.82626 0.59132 0.64941 0.0
C1743 C 0.87401 0.68653 0.57725 0.0
H1744 H 0.9638 0.61069 0.61662 0.0
H1745 H 0.87937 0.5629 0.52236 0.0
H1746 H 0.92412 0.67388 0.6498 0.0
H1747 H 0.90754 0.63999 0.67439 0.0
H1748 H 0.95439 0.6483 0.66553 0.0
H1749 H 0.81935 0.57094 0.51726 0.0
H1750 H 0.80458 0.58315 0.56076 0.0
H1751 H 0.82061 0.61457 0.53292 0.0
H1752 H 0.79265 0.63746 0.67856 0.0
H1753 H 0.8351 0.71832 0.62002 0.0
H1754 H 0.85309 0.59136 0.66617 0.0
H1755 H 0.82167 0.57226 0.62391 0.0
H1756 H 0.80417 0.58343 0.66615 0.0
H1757 H 0.90376 0.69088 0.58865 0.0
H1758 H 0.86858 0.7109 0.57088 0.0
H1759 H 0.86817 0.66849 0.55076 0.0
C1760 C 0.41755 0.55436 0.36995 0.0
C1761 C 0.40529 0.53818 0.39919 0.0
C1762 C 0.39474 0.57001 0.34841 0.0
C1763 C 0.3596 0.57057 0.35762 0.0
C1764 C 0.34622 0.55222 0.38551 0.0
C1765 C 0.36918 0.53573 0.4057 0.0
C1766 C 0.40959 0.58843 0.31817 0.0
C1767 C 0.30924 0.55287 0.39666 0.0
C1768 C 0.32806 0.65096 0.35281 0.0
C1769 C 0.2995 0.64134 0.32199 0.0
C1770 C 0.34861 0.62839 0.36375 0.0
C1771 C 0.34007 0.59522 0.34356 0.0
C1772 C 0.312 0.5856 0.31164 0.0
C1773 C 0.29204 0.60894 0.30107 0.0
C1774 C 0.3789 0.6399 0.39752 0.0
C1775 C 0.30261 0.55057 0.28926 0.0
H1776 H 0.44557 0.55598 0.36497 0.0
H1777 H 0.36003 0.52343 0.42866 0.0
H1778 H 0.38772 0.58533 0.29353 0.0
H1779 H 0.41953 0.61585 0.32908 0.0
H1780 H 0.43304 0.57934 0.30893 0.0
H1781 H 0.30101 0.53413 0.41543 0.0
H1782 H 0.31061 0.57843 0.41155 0.0
H1783 H 0.28749 0.54776 0.37156 0.0
H1784 H 0.33434 0.67622 0.36859 0.0
H1785 H 0.27004 0.60157 0.27706 0.0
H1786 H 0.40551 0.63674 0.38981 0.0
H1787 H 0.37255 0.62412 0.41957 0.0
H1788 H 0.38249 0.66681 0.40952 0.0
H1789 H 0.32785 0.54438 0.28098 0.0
H1790 H 0.28193 0.54789 0.26365 0.0
H1791 H 0.29138 0.5317 0.30675 0.0
C1792 C 0.19026 0.37283 0.83907 0.0
C1793 C 0.17272 0.33866 0.82645 0.0
C1794 C 0.17119 0.39483 0.85541 0.0
C1795 C 0.134 0.38214 0.85929 0.0
C1796 C 0.116 0.34787 0.84585 0.0
C1797 C 0.13556 0.32661 0.82952 0.0
C1798 C 0.19103 0.43134 0.86934 0.0
C1799 C 0.07641 0.33329 0.84986 0.0
C1800 C 0.09262 0.41929 0.93758 0.0
C1801 C 0.06694 0.43357 0.91794 0.0
C1802 C 0.11604 0.4039 0.91902 0.0
C1803 C 0.11433 0.40356 0.88004 0.0
C1804 C 0.09027 0.41996 0.86047 0.0
C1805 C 0.06633 0.4344 0.87962 0.0
C1806 C 0.14059 0.38587 0.94072 0.0
C1807 C 0.08857 0.42077 0.81903 0.0
H1808 H 0.21897 0.38229 0.83667 0.0
H1809 H 0.12172 0.30028 0.81965 0.0
H1810 H 0.1743 0.44828 0.85867 0.0
H1811 H 0.19481 0.43625 0.90035 0.0
H1812 H 0.21857 0.43805 0.86072 0.0
H1813 H 0.06622 0.30633 0.83684 0.0
H1814 H 0.07392 0.33524 0.87997 0.0
H1815 H 0.05816 0.34787 0.83671 0.0
H1816 H 0.09304 0.41837 0.96719 0.0
H1817 H 0.04673 0.44575 0.86453 0.0
H1818 H 0.1693 0.39361 0.93537 0.0
H1819 H 0.13069 0.3582 0.93128 0.0
H1820 H 0.14085 0.39093 0.97138 0.0
H1821 H 0.11679 0.42864 0.81232 0.0
H1822 H 0.07215 0.43825 0.80908 0.0
H1823 H 0.0758 0.39505 0.80326 0.0
C1824 C 0.13091 0.29661 0.3024 0.0
C1825 C 0.16615 0.29218 0.31464 0.0
C1826 C 0.11559 0.31908 0.32343 0.0
C1827 C 0.13559 0.33736 0.35823 0.0
C1828 C 0.17149 0.33339 0.37068 0.0
C1829 C 0.18653 0.31103 0.34853 0.0
C1830 C 0.07785 0.32323 0.30823 0.0
C1831 C 0.19376 0.35236 0.40756 0.0
C1832 C 0.09964 0.4137 0.38942 0.0
C1833 C 0.07537 0.40101 0.41317 0.0
C1834 C 0.12165 0.39421 0.37373 0.0
C1835 C 0.11844 0.36063 0.38088 0.0
C1836 C 0.09495 0.34812 0.40603 0.0
C1837 C 0.07403 0.36865 0.42231 0.0
C1838 C 0.14695 0.40906 0.34801 0.0
C1839 C 0.09033 0.31237 0.41404 0.0
H1840 H 0.1153 0.28274 0.27581 0.0
H1841 H 0.21382 0.30781 0.35804 0.0
H1842 H 0.05863 0.31643 0.32816 0.0
H1843 H 0.0795 0.35003 0.30512 0.0
H1844 H 0.06602 0.30731 0.28059 0.0
H1845 H 0.22257 0.34951 0.41132 0.0
H1846 H 0.19439 0.37964 0.40982 0.0
H1847 H 0.18054 0.34269 0.43081 0.0
H1848 H 0.10106 0.43891 0.38267 0.0
H1849 H 0.05519 0.35874 0.44055 0.0
H1850 H 0.13547 0.397 0.31867 0.0
H1851 H 0.17455 0.40399 0.35493 0.0
H1852 H 0.15038 0.4368 0.3497 0.0
H1853 H 0.07658 0.29439 0.38822 0.0
H1854 H 0.07354 0.30728 0.43646 0.0
H1855 H 0.11768 0.30727 0.42245 0.0
loop_
_geom_bond_atom_site_label_1
_geom_bond_atom_site_label_2
_geom_bond_distance
_geom_bond_site_symmetry_2
_ccdc_geom_bond_type
Zn0 O6 1.969 . S
Zn0 O7 1.965 1_655 S
Zn0 O11 2.024 1_556 S
Zn0 O16 1.969 1_546 S
Zn1 O8 1.969 1_564 S
Zn1 O14 1.969 . S
Zn1 O15 1.965 1_455 S
Zn1 O17 2.024 1_554 S
C2 O3 1.229 . S
C2 O11 1.058 . S
O3 C2 1.229 . S
C4 O5 1.229 . S
C4 O17 1.058 . S
O5 C4 1.229 . S
O6 Zn0 1.969 . S
O6 C9 1.267 . S
O7 Zn0 1.965 1_455 S
O7 C18 1.260 . S
O8 Zn1 1.969 1_546 S
O8 C18 1.258 . S
C9 O6 1.267 . S
C9 O10 1.228 . S
O10 C9 1.228 . S
O11 Zn0 2.024 1_554 S
O11 C2 1.058 . S
C12 O13 1.228 . S
C12 O14 1.267 . S
O13 C12 1.228 . S
O14 Zn1 1.969 . S
O14 C12 1.267 . S
O15 Zn1 1.965 1_655 S
O15 C19 1.260 . S
O16 Zn0 1.969 1_564 S
O16 C19 1.258 . S
O17 Zn1 2.024 1_556 S
O17 C4 1.058 . S
C18 O7 1.260 . S
C18 O8 1.258 . S
C19 O15 1.260 . S
C19 O16 1.258 . S
Zn20 O26 1.969 . S
Zn20 O27 1.965 . S
Zn20 O31 2.024 . S
Zn20 O36 1.969 . S
Zn21 O28 1.969 . S
Zn21 O34 1.969 . S
Zn21 O35 1.965 . S
Zn21 O37 2.024 . S
C22 O23 1.229 . S
C22 O31 1.058 . S
O23 C22 1.229 . S
C24 O25 1.229 . S
C24 O37 1.058 . S
O25 C24 1.229 . S
O26 Zn20 1.969 . S
O26 C29 1.267 . S
O27 Zn20 1.965 . S
O27 C38 1.260 . S
O28 Zn21 1.969 . S
O28 C38 1.258 . S
C29 O26 1.267 . S
C29 O30 1.228 . S
O30 C29 1.228 . S
O31 Zn20 2.024 . S
O31 C22 1.058 . S
C32 O33 1.228 . S
C32 O34 1.267 . S
O33 C32 1.228 . S
O34 Zn21 1.969 . S
O34 C32 1.267 . S
O35 Zn21 1.965 . S
O35 C39 1.260 . S
O36 Zn20 1.969 . S
O36 C39 1.258 . S
O37 Zn21 2.024 . S
O37 C24 1.058 . S
C38 O27 1.260 . S
C38 O28 1.258 . S
C39 O35 1.260 . S
C39 O36 1.258 . S
Zn40 O46 1.969 . S
Zn40 O47 1.965 . S
Zn40 O51 2.024 . S
Zn40 O56 1.969 1_565 S
Zn41 O48 1.969 1_545 S
Zn41 O54 1.969 . S
Zn41 O55 1.965 . S
Zn41 O57 2.024 . S
C42 O43 1.229 . S
C42 O51 1.058 . S
O43 C42 1.229 . S
C44 O45 1.229 . S
C44 O57 1.058 . S
O45 C44 1.229 . S
O46 Zn40 1.969 . S
O46 C49 1.267 . S
O47 Zn40 1.965 . S
O47 C58 1.260 . S
O48 Zn41 1.969 1_565 S
O48 C58 1.258 . S
C49 O46 1.267 . S
C49 O50 1.228 . S
O50 C49 1.228 . S
O51 Zn40 2.024 . S
O51 C42 1.058 . S
C52 O53 1.228 . S
C52 O54 1.267 . S
O53 C52 1.228 . S
O54 Zn41 1.969 . S
O54 C52 1.267 . S
O55 Zn41 1.965 . S
O55 C59 1.260 . S
O56 Zn40 1.969 1_545 S
O56 C59 1.258 . S
O57 Zn41 2.024 . S
O57 C44 1.058 . S
C58 O47 1.260 . S
C58 O48 1.258 . S
C59 O55 1.260 . S
C59 O56 1.258 . S
Zn60 O66 1.969 . S
Zn60 O67 1.965 . S
Zn60 O71 2.024 . S
Zn60 O76 1.969 . S
Zn61 O68 1.969 . S
Zn61 O74 1.969 . S
Zn61 O75 1.965 . S
Zn61 O77 2.024 . S
C62 O63 1.229 . S
C62 O71 1.058 . S
O63 C62 1.229 . S
C64 O65 1.229 . S
C64 O77 1.058 . S
O65 C64 1.229 . S
O66 Zn60 1.969 . S
O66 C69 1.267 . S
O67 Zn60 1.965 . S
O67 C78 1.260 . S
O68 Zn61 1.969 . S
O68 C78 1.258 . S
C69 O66 1.267 . S
C69 O70 1.228 . S
O70 C69 1.228 . S
O71 Zn60 2.024 . S
O71 C62 1.058 . S
C72 O73 1.228 . S
C72 O74 1.267 . S
O73 C72 1.228 . S
O74 Zn61 1.969 . S
O74 C72 1.267 . S
O75 Zn61 1.965 . S
O75 C79 1.260 . S
O76 Zn60 1.969 . S
O76 C79 1.258 . S
O77 Zn61 2.024 . S
O77 C64 1.058 . S
C78 O67 1.260 . S
C78 O68 1.258 . S
C79 O75 1.260 . S
C79 O76 1.258 . S
Zn80 O86 1.969 . S
Zn80 O87 1.965 . S
Zn80 O91 2.024 1_455 S
Zn80 O96 1.969 1_445 S
Zn81 O88 1.969 1_665 S
Zn81 O94 1.969 . S
Zn81 O95 1.965 . S
Zn81 O97 2.024 1_655 S
C82 O83 1.229 . S
C82 O91 1.058 . S
O83 C82 1.229 . S
C84 O85 1.229 . S
C84 O97 1.058 . S
O85 C84 1.229 . S
O86 Zn80 1.969 . S
O86 C89 1.267 . S
O87 Zn80 1.965 . S
O87 C98 1.260 . S
O88 Zn81 1.969 1_445 S
O88 C98 1.258 . S
C89 O86 1.267 . S
C89 O90 1.228 . S
O90 C89 1.228 . S
O91 Zn80 2.024 1_655 S
O91 C82 1.058 . S
C92 O93 1.228 . S
C92 O94 1.267 . S
O93 C92 1.228 . S
O94 Zn81 1.969 . S
O94 C92 1.267 . S
O95 Zn81 1.965 . S
O95 C99 1.260 . S
O96 Zn80 1.969 1_665 S
O96 C99 1.258 . S
O97 Zn81 2.024 1_455 S
O97 C84 1.058 . S
C98 O87 1.260 . S
C98 O88 1.258 . S
C99 O95 1.260 . S
C99 O96 1.258 . S
Zn100 O106 1.969 . S
Zn100 O107 1.965 . S
Zn100 O111 2.024 . S
Zn100 O116 1.969 . S
Zn101 O108 1.969 . S
Zn101 O114 1.969 . S
Zn101 O115 1.965 . S
Zn101 O117 2.024 . S
C102 O103 1.229 . S
C102 O111 1.058 . S
O103 C102 1.229 . S
C104 O105 1.229 . S
C104 O117 1.058 . S
O105 C104 1.229 . S
O106 Zn100 1.969 . S
O106 C109 1.267 . S
O107 Zn100 1.965 . S
O107 C118 1.260 . S
O108 Zn101 1.969 . S
O108 C118 1.258 . S
C109 O106 1.267 . S
C109 O110 1.228 . S
O110 C109 1.228 . S
O111 Zn100 2.024 . S
O111 C102 1.058 . S
C112 O113 1.228 . S
C112 O114 1.267 . S
O113 C112 1.228 . S
O114 Zn101 1.969 . S
O114 C112 1.267 . S
O115 Zn101 1.965 . S
O115 C119 1.260 . S
O116 Zn100 1.969 . S
O116 C119 1.258 . S
O117 Zn101 2.024 . S
O117 C104 1.058 . S
C118 O107 1.260 . S
C118 O108 1.258 . S
C119 O115 1.260 . S
C119 O116 1.258 . S
Zn120 O126 1.969 . S
Zn120 O127 1.965 . S
Zn120 O131 2.024 1_545 S
Zn120 O136 1.969 1_544 S
Zn121 O128 1.969 1_566 S
Zn121 O134 1.969 . S
Zn121 O135 1.965 . S
Zn121 O137 2.024 1_565 S
C122 O123 1.229 . S
C122 O131 1.058 . S
O123 C122 1.229 . S
C124 O125 1.229 . S
C124 O137 1.058 . S
O125 C124 1.229 . S
O126 Zn120 1.969 . S
O126 C129 1.267 . S
O127 Zn120 1.965 . S
O127 C138 1.260 . S
O128 Zn121 1.969 1_544 S
O128 C138 1.258 . S
C129 O126 1.267 . S
C129 O130 1.228 . S
O130 C129 1.228 . S
O131 Zn120 2.024 1_565 S
O131 C122 1.058 . S
C132 O133 1.228 . S
C132 O134 1.267 . S
O133 C132 1.228 . S
O134 Zn121 1.969 . S
O134 C132 1.267 . S
O135 Zn121 1.965 . S
O135 C139 1.260 . S
O136 Zn120 1.969 1_566 S
O136 C139 1.258 . S
O137 Zn121 2.024 1_545 S
O137 C124 1.058 . S
C138 O127 1.260 . S
C138 O128 1.258 . S
C139 O135 1.260 . S
C139 O136 1.258 . S
Zn140 O146 1.969 . S
Zn140 O147 1.965 . S
Zn140 O151 2.024 . S
Zn140 O156 1.969 . S
Zn141 O148 1.969 . S
Zn141 O154 1.969 . S
Zn141 O155 1.965 . S
Zn141 O157 2.024 . S
C142 O143 1.229 . S
C142 O151 1.058 . S
O143 C142 1.229 . S
C144 O145 1.229 . S
C144 O157 1.058 . S
O145 C144 1.229 . S
O146 Zn140 1.969 . S
O146 C149 1.267 . S
O147 Zn140 1.965 . S
O147 C158 1.260 . S
O148 Zn141 1.969 . S
O148 C158 1.258 . S
C149 O146 1.267 . S
C149 O150 1.228 . S
O150 C149 1.228 . S
O151 Zn140 2.024 . S
O151 C142 1.058 . S
C152 O153 1.228 . S
C152 O154 1.267 . S
O153 C152 1.228 . S
O154 Zn141 1.969 . S
O154 C152 1.267 . S
O155 Zn141 1.965 . S
O155 C159 1.260 . S
O156 Zn140 1.969 . S
O156 C159 1.258 . S
O157 Zn141 2.024 . S
O157 C144 1.058 . S
C158 O147 1.260 . S
C158 O148 1.258 . S
C159 O155 1.260 . S
C159 O156 1.258 . S
Zn160 O166 1.969 . S
Zn160 O167 1.965 1_556 S
Zn160 O171 2.024 . S
Zn160 O176 1.969 . S
Zn161 O168 1.969 . S
Zn161 O174 1.969 . S
Zn161 O175 1.965 1_554 S
Zn161 O177 2.024 . S
C162 O163 1.229 . S
C162 O171 1.058 . S
O163 C162 1.229 . S
C164 O165 1.229 . S
C164 O177 1.058 . S
O165 C164 1.229 . S
O166 Zn160 1.969 . S
O166 C169 1.267 . S
O167 Zn160 1.965 1_554 S
O167 C178 1.260 . S
O168 Zn161 1.969 . S
O168 C178 1.258 . S
C169 O166 1.267 . S
C169 O170 1.228 . S
O170 C169 1.228 . S
O171 Zn160 2.024 . S
O171 C162 1.058 . S
C172 O173 1.228 . S
C172 O174 1.267 . S
O173 C172 1.228 . S
O174 Zn161 1.969 . S
O174 C172 1.267 . S
O175 Zn161 1.965 1_556 S
O175 C179 1.260 . S
O176 Zn160 1.969 . S
O176 C179 1.258 . S
O177 Zn161 2.024 . S
O177 C164 1.058 . S
C178 O167 1.260 . S
C178 O168 1.258 . S
C179 O175 1.260 . S
C179 O176 1.258 . S
Zn180 O186 1.969 . S
Zn180 O187 1.965 . S
Zn180 O191 2.024 . S
Zn180 O196 1.969 . S
Zn181 O188 1.969 . S
Zn181 O194 1.969 . S
Zn181 O195 1.965 . S
Zn181 O197 2.024 . S
C182 O183 1.229 . S
C182 O191 1.058 . S
O183 C182 1.229 . S
C184 O185 1.229 . S
C184 O197 1.058 . S
O185 C184 1.229 . S
O186 Zn180 1.969 . S
O186 C189 1.267 . S
O187 Zn180 1.965 . S
O187 C198 1.260 . S
O188 Zn181 1.969 . S
O188 C198 1.258 . S
C189 O186 1.267 . S
C189 O190 1.228 . S
O190 C189 1.228 . S
O191 Zn180 2.024 . S
O191 C182 1.058 . S
C192 O193 1.228 . S
C192 O194 1.267 . S
O193 C192 1.228 . S
O194 Zn181 1.969 . S
O194 C192 1.267 . S
O195 Zn181 1.965 . S
O195 C199 1.260 . S
O196 Zn180 1.969 . S
O196 C199 1.258 . S
O197 Zn181 2.024 . S
O197 C184 1.058 . S
C198 O187 1.260 . S
C198 O188 1.258 . S
C199 O195 1.260 . S
C199 O196 1.258 . S
Zn200 O206 1.969 . S
Zn200 O207 1.965 1_655 S
Zn200 O211 2.024 . S
Zn200 O216 1.969 . S
Zn201 O208 1.969 . S
Zn201 O214 1.969 . S
Zn201 O215 1.965 1_455 S
Zn201 O217 2.024 . S
C202 O203 1.229 . S
C202 O211 1.058 . S
O203 C202 1.229 . S
C204 O205 1.229 . S
C204 O217 1.058 . S
O205 C204 1.229 . S
O206 Zn200 1.969 . S
O206 C209 1.267 . S
O207 Zn200 1.965 1_455 S
O207 C218 1.260 . S
O208 Zn201 1.969 . S
O208 C218 1.258 . S
C209 O206 1.267 . S
C209 O210 1.228 . S
O210 C209 1.228 . S
O211 Zn200 2.024 . S
O211 C202 1.058 . S
C212 O213 1.228 . S
C212 O214 1.267 . S
O213 C212 1.228 . S
O214 Zn201 1.969 . S
O214 C212 1.267 . S
O215 Zn201 1.965 1_655 S
O215 C219 1.260 . S
O216 Zn200 1.969 . S
O216 C219 1.258 . S
O217 Zn201 2.024 . S
O217 C204 1.058 . S
C218 O207 1.260 . S
C218 O208 1.258 . S
C219 O215 1.260 . S
C219 O216 1.258 . S
Zn220 O226 1.969 . S
Zn220 O227 1.965 . S
Zn220 O231 2.024 . S
Zn220 O236 1.969 . S
Zn221 O228 1.969 . S
Zn221 O234 1.969 . S
Zn221 O235 1.965 . S
Zn221 O237 2.024 . S
C222 O223 1.229 . S
C222 O231 1.058 . S
O223 C222 1.229 . S
C224 O225 1.229 . S
C224 O237 1.058 . S
O225 C224 1.229 . S
O226 Zn220 1.969 . S
O226 C229 1.267 . S
O227 Zn220 1.965 . S
O227 C238 1.260 . S
O228 Zn221 1.969 . S
O228 C238 1.258 . S
C229 O226 1.267 . S
C229 O230 1.228 . S
O230 C229 1.228 . S
O231 Zn220 2.024 . S
O231 C222 1.058 . S
C232 O233 1.228 . S
C232 O234 1.267 . S
O233 C232 1.228 . S
O234 Zn221 1.969 . S
O234 C232 1.267 . S
O235 Zn221 1.965 . S
O235 C239 1.260 . S
O236 Zn220 1.969 . S
O236 C239 1.258 . S
O237 Zn221 2.024 . S
O237 C224 1.058 . S
C238 O227 1.260 . S
C238 O228 1.258 . S
C239 O235 1.260 . S
C239 O236 1.258 . S
Zn240 O246 1.969 . S
Zn240 O247 1.965 . S
Zn240 O251 2.024 . S
Zn240 O256 1.969 . S
Zn241 O248 1.969 . S
Zn241 O254 1.969 . S
Zn241 O255 1.965 . S
Zn241 O257 2.024 . S
C242 O243 1.229 . S
C242 O251 1.058 . S
O243 C242 1.229 . S
C244 O245 1.229 . S
C244 O257 1.058 . S
O245 C244 1.229 . S
O246 Zn240 1.969 . S
O246 C249 1.267 . S
O247 Zn240 1.965 . S
O247 C258 1.260 . S
O248 Zn241 1.969 . S
O248 C258 1.258 . S
C249 O246 1.267 . S
C249 O250 1.228 . S
O250 C249 1.228 . S
O251 Zn240 2.024 . S
O251 C242 1.058 . S
C252 O253 1.228 . S
C252 O254 1.267 . S
O253 C252 1.228 . S
O254 Zn241 1.969 . S
O254 C252 1.267 . S
O255 Zn241 1.965 . S
O255 C259 1.260 . S
O256 Zn240 1.969 . S
O256 C259 1.258 . S
O257 Zn241 2.024 . S
O257 C244 1.058 . S
C258 O247 1.260 . S
C258 O248 1.258 . S
C259 O255 1.260 . S
C259 O256 1.258 . S
Zn260 O266 1.969 . S
Zn260 O267 1.965 . S
Zn260 O271 2.024 . S
Zn260 O276 1.969 . S
Zn261 O268 1.969 . S
Zn261 O274 1.969 . S
Zn261 O275 1.965 . S
Zn261 O277 2.024 . S
C262 O263 1.229 . S
C262 O271 1.058 . S
O263 C262 1.229 . S
C264 O265 1.229 . S
C264 O277 1.058 . S
O265 C264 1.229 . S
O266 Zn260 1.969 . S
O266 C269 1.267 . S
O267 Zn260 1.965 . S
O267 C278 1.260 . S
O268 Zn261 1.969 . S
O268 C278 1.258 . S
C269 O266 1.267 . S
C269 O270 1.228 . S
O270 C269 1.228 . S
O271 Zn260 2.024 . S
O271 C262 1.058 . S
C272 O273 1.228 . S
C272 O274 1.267 . S
O273 C272 1.228 . S
O274 Zn261 1.969 . S
O274 C272 1.267 . S
O275 Zn261 1.965 . S
O275 C279 1.260 . S
O276 Zn260 1.969 . S
O276 C279 1.258 . S
O277 Zn261 2.024 . S
O277 C264 1.058 . S
C278 O267 1.260 . S
C278 O268 1.258 . S
C279 O275 1.260 . S
C279 O276 1.258 . S
Zn280 O286 1.969 . S
Zn280 O287 1.965 . S
Zn280 O291 2.024 . S
Zn280 O296 1.969 . S
Zn281 O288 1.969 . S
Zn281 O294 1.969 . S
Zn281 O295 1.965 . S
Zn281 O297 2.024 . S
C282 O283 1.229 . S
C282 O291 1.058 . S
O283 C282 1.229 . S
C284 O285 1.229 . S
C284 O297 1.058 . S
O285 C284 1.229 . S
O286 Zn280 1.969 . S
O286 C289 1.267 . S
O287 Zn280 1.965 . S
O287 C298 1.260 . S
O288 Zn281 1.969 . S
O288 C298 1.258 . S
C289 O286 1.267 . S
C289 O290 1.228 . S
O290 C289 1.228 . S
O291 Zn280 2.024 . S
O291 C282 1.058 . S
C292 O293 1.228 . S
C292 O294 1.267 . S
O293 C292 1.228 . S
O294 Zn281 1.969 . S
O294 C292 1.267 . S
O295 Zn281 1.965 . S
O295 C299 1.260 . S
O296 Zn280 1.969 . S
O296 C299 1.258 . S
O297 Zn281 2.024 . S
O297 C284 1.058 . S
C298 O287 1.260 . S
C298 O288 1.258 . S
C299 O295 1.260 . S
C299 O296 1.258 . S
Zn300 O306 1.969 . S
Zn300 O307 1.965 . S
Zn300 O311 2.024 1_554 S
Zn300 O316 1.969 1_454 S
Zn301 O308 1.969 1_656 S
Zn301 O314 1.969 . S
Zn301 O315 1.965 . S
Zn301 O317 2.024 1_556 S
C302 O303 1.229 . S
C302 O311 1.058 . S
O303 C302 1.229 . S
C304 O305 1.229 . S
C304 O317 1.058 . S
O305 C304 1.229 . S
O306 Zn300 1.969 . S
O306 C309 1.267 . S
O307 Zn300 1.965 . S
O307 C318 1.260 . S
O308 Zn301 1.969 1_454 S
O308 C318 1.258 . S
C309 O306 1.267 . S
C309 O310 1.228 . S
O310 C309 1.228 . S
O311 Zn300 2.024 1_556 S
O311 C302 1.058 . S
C312 O313 1.228 . S
C312 O314 1.267 . S
O313 C312 1.228 . S
O314 Zn301 1.969 . S
O314 C312 1.267 . S
O315 Zn301 1.965 . S
O315 C319 1.260 . S
O316 Zn300 1.969 1_656 S
O316 C319 1.258 . S
O317 Zn301 2.024 1_554 S
O317 C304 1.058 . S
C318 O307 1.260 . S
C318 O308 1.258 . S
C319 O315 1.260 . S
C319 O316 1.258 . S
C320 C321 1.391 . S
C320 C322 1.394 . S
C320 H336 0.931 . S
C321 C320 1.391 . S
C321 C325 1.376 . S
C322 C320 1.394 . S
C322 C323 1.369 . S
C322 C326 1.531 . S
C323 C322 1.369 . S
C323 C324 1.410 . S
C323 C331 1.503 . S
C324 C323 1.410 . S
C324 C325 1.392 . S
C324 C327 1.511 . S
C325 C321 1.376 . S
C325 C324 1.392 . S
C325 H337 0.929 . S
C326 C322 1.531 . S
C326 H338 0.960 . S
C326 H339 0.962 . S
C326 H340 0.960 . S
C327 C324 1.511 . S
C327 H341 0.961 . S
C327 H342 0.961 . S
C327 H343 0.961 . S
C328 C329 1.370 . S
C328 C330 1.363 . S
C328 H344 0.931 . S
C329 C328 1.370 . S
C329 C333 1.408 . S
C330 C328 1.363 . S
C330 C331 1.370 . S
C330 C334 1.524 . S
C331 C323 1.503 . S
C331 C330 1.370 . S
C331 C332 1.403 . S
C332 C331 1.403 . S
C332 C333 1.404 . S
C332 C335 1.539 . S
C333 C329 1.408 . S
C333 C332 1.404 . S
C333 H345 0.930 . S
C334 C330 1.524 . S
C334 H346 0.956 . S
C334 H347 0.961 . S
C334 H348 0.961 . S
C335 C332 1.539 . S
C335 H349 0.958 . S
C335 H350 0.961 . S
C335 H351 0.960 . S
H336 C320 0.931 . S
H337 C325 0.929 . S
H338 C326 0.960 . S
H339 C326 0.962 . S
H340 C326 0.960 . S
H341 C327 0.961 . S
H342 C327 0.961 . S
H343 C327 0.961 . S
H344 C328 0.931 . S
H345 C333 0.930 . S
H346 C334 0.956 . S
H347 C334 0.961 . S
H348 C334 0.961 . S
H349 C335 0.958 . S
H350 C335 0.961 . S
H351 C335 0.960 . S
C352 C353 1.391 . S
C352 C354 1.394 . S
C352 H368 0.931 . S
C353 C352 1.391 . S
C353 C357 1.376 . S
C354 C352 1.394 . S
C354 C355 1.369 . S
C354 C358 1.531 . S
C355 C354 1.369 . S
C355 C356 1.410 . S
C355 C363 1.503 . S
C356 C355 1.410 . S
C356 C357 1.392 . S
C356 C359 1.511 . S
C357 C353 1.376 . S
C357 C356 1.392 . S
C357 H369 0.929 . S
C358 C354 1.531 . S
C358 H370 0.960 . S
C358 H371 0.962 . S
C358 H372 0.960 . S
C359 C356 1.511 . S
C359 H373 0.961 . S
C359 H374 0.961 . S
C359 H375 0.961 . S
C360 C361 1.370 . S
C360 C362 1.363 . S
C360 H376 0.931 . S
C361 C360 1.370 . S
C361 C365 1.408 . S
C362 C360 1.363 . S
C362 C363 1.370 . S
C362 C366 1.524 . S
C363 C355 1.503 . S
C363 C362 1.370 . S
C363 C364 1.403 . S
C364 C363 1.403 . S
C364 C365 1.404 . S
C364 C367 1.539 . S
C365 C361 1.408 . S
C365 C364 1.404 . S
C365 H377 0.930 . S
C366 C362 1.524 . S
C366 H378 0.956 . S
C366 H379 0.961 . S
C366 H380 0.961 . S
C367 C364 1.539 . S
C367 H381 0.958 . S
C367 H382 0.961 . S
C367 H383 0.960 . S
H368 C352 0.931 . S
H369 C357 0.929 . S
H370 C358 0.960 . S
H371 C358 0.962 . S
H372 C358 0.960 . S
H373 C359 0.961 . S
H374 C359 0.961 . S
H375 C359 0.961 . S
H376 C360 0.931 . S
H377 C365 0.930 . S
H378 C366 0.956 . S
H379 C366 0.961 . S
H380 C366 0.961 . S
H381 C367 0.958 . S
H382 C367 0.961 . S
H383 C367 0.960 . S
C384 C385 1.391 . S
C384 C386 1.394 . S
C384 H400 0.931 . S
C385 C384 1.391 . S
C385 C389 1.376 . S
C386 C384 1.394 . S
C386 C387 1.369 . S
C386 C390 1.531 . S
C387 C386 1.369 . S
C387 C388 1.410 . S
C387 C395 1.503 . S
C388 C387 1.410 . S
C388 C389 1.392 . S
C388 C391 1.511 . S
C389 C385 1.376 . S
C389 C388 1.392 . S
C389 H401 0.929 . S
C390 C386 1.531 . S
C390 H402 0.960 . S
C390 H403 0.962 . S
C390 H404 0.960 . S
C391 C388 1.511 . S
C391 H405 0.961 . S
C391 H406 0.961 . S
C391 H407 0.961 . S
C392 C393 1.370 . S
C392 C394 1.363 . S
C392 H408 0.931 . S
C393 C392 1.370 . S
C393 C397 1.408 . S
C394 C392 1.363 . S
C394 C395 1.370 . S
C394 C398 1.524 . S
C395 C387 1.503 . S
C395 C394 1.370 . S
C395 C396 1.403 . S
C396 C395 1.403 . S
C396 C397 1.404 . S
C396 C399 1.539 . S
C397 C393 1.408 . S
C397 C396 1.404 . S
C397 H409 0.930 . S
C398 C394 1.524 . S
C398 H410 0.956 . S
C398 H411 0.961 . S
C398 H412 0.961 . S
C399 C396 1.539 . S
C399 H413 0.958 . S
C399 H414 0.961 . S
C399 H415 0.960 . S
H400 C384 0.931 . S
H401 C389 0.929 . S
H402 C390 0.960 . S
H403 C390 0.962 . S
H404 C390 0.960 . S
H405 C391 0.961 . S
H406 C391 0.961 . S
H407 C391 0.961 . S
H408 C392 0.931 . S
H409 C397 0.930 . S
H410 C398 0.956 . S
H411 C398 0.961 . S
H412 C398 0.961 . S
H413 C399 0.958 . S
H414 C399 0.961 . S
H415 C399 0.960 . S
C416 C417 1.391 . S
C416 C418 1.394 . S
C416 H432 0.931 . S
C417 C416 1.391 . S
C417 C421 1.376 . S
C418 C416 1.394 . S
C418 C419 1.369 . S
C418 C422 1.531 . S
C419 C418 1.369 . S
C419 C420 1.410 . S
C419 C427 1.503 . S
C420 C419 1.410 . S
C420 C421 1.392 . S
C420 C423 1.511 . S
C421 C417 1.376 . S
C421 C420 1.392 . S
C421 H433 0.929 . S
C422 C418 1.531 . S
C422 H434 0.960 . S
C422 H435 0.962 . S
C422 H436 0.960 . S
C423 C420 1.511 . S
C423 H437 0.961 . S
C423 H438 0.961 . S
C423 H439 0.961 . S
C424 C425 1.370 . S
C424 C426 1.363 . S
C424 H440 0.931 . S
C425 C424 1.370 . S
C425 C429 1.408 . S
C426 C424 1.363 . S
C426 C427 1.370 . S
C426 C430 1.524 . S
C427 C419 1.503 . S
C427 C426 1.370 . S
C427 C428 1.403 . S
C428 C427 1.403 . S
C428 C429 1.404 . S
C428 C431 1.539 . S
C429 C425 1.408 . S
C429 C428 1.404 . S
C429 H441 0.930 . S
C430 C426 1.524 . S
C430 H442 0.956 . S
C430 H443 0.961 . S
C430 H444 0.961 . S
C431 C428 1.539 . S
C431 H445 0.958 . S
C431 H446 0.961 . S
C431 H447 0.960 . S
H432 C416 0.931 . S
H433 C421 0.929 . S
H434 C422 0.960 . S
H435 C422 0.962 . S
H436 C422 0.960 . S
H437 C423 0.961 . S
H438 C423 0.961 . S
H439 C423 0.961 . S
H440 C424 0.931 . S
H441 C429 0.930 . S
H442 C430 0.956 . S
H443 C430 0.961 . S
H444 C430 0.961 . S
H445 C431 0.958 . S
H446 C431 0.961 . S
H447 C431 0.960 . S
C448 C449 1.391 . S
C448 C450 1.394 . S
C448 H464 0.931 . S
C449 C448 1.391 . S
C449 C453 1.376 . S
C450 C448 1.394 . S
C450 C451 1.369 . S
C450 C454 1.531 . S
C451 C450 1.369 . S
C451 C452 1.410 . S
C451 C459 1.503 . S
C452 C451 1.410 . S
C452 C453 1.392 . S
C452 C455 1.511 . S
C453 C449 1.376 . S
C453 C452 1.392 . S
C453 H465 0.929 . S
C454 C450 1.531 . S
C454 H466 0.960 . S
C454 H467 0.962 . S
C454 H468 0.960 . S
C455 C452 1.511 . S
C455 H469 0.961 . S
C455 H470 0.961 . S
C455 H471 0.961 . S
C456 C457 1.370 . S
C456 C458 1.363 . S
C456 H472 0.931 . S
C457 C456 1.370 . S
C457 C461 1.408 . S
C458 C456 1.363 . S
C458 C459 1.370 . S
C458 C462 1.524 . S
C459 C451 1.503 . S
C459 C458 1.370 . S
C459 C460 1.403 . S
C460 C459 1.403 . S
C460 C461 1.404 . S
C460 C463 1.539 . S
C461 C457 1.408 . S
C461 C460 1.404 . S
C461 H473 0.930 . S
C462 C458 1.524 . S
C462 H474 0.956 . S
C462 H475 0.961 . S
C462 H476 0.961 . S
C463 C460 1.539 . S
C463 H477 0.958 . S
C463 H478 0.961 . S
C463 H479 0.960 . S
H464 C448 0.931 . S
H465 C453 0.929 . S
H466 C454 0.960 . S
H467 C454 0.962 . S
H468 C454 0.960 . S
H469 C455 0.961 . S
H470 C455 0.961 . S
H471 C455 0.961 . S
H472 C456 0.931 . S
H473 C461 0.930 . S
H474 C462 0.956 . S
H475 C462 0.961 . S
H476 C462 0.961 . S
H477 C463 0.958 . S
H478 C463 0.961 . S
H479 C463 0.960 . S
C480 C481 1.391 . S
C480 C482 1.394 . S
C480 H496 0.931 . S
C481 C480 1.391 . S
C481 C485 1.376 . S
C482 C480 1.394 . S
C482 C483 1.369 . S
C482 C486 1.531 . S
C483 C482 1.369 . S
C483 C484 1.410 . S
C483 C491 1.503 . S
C484 C483 1.410 . S
C484 C485 1.392 . S
C484 C487 1.511 . S
C485 C481 1.376 . S
C485 C484 1.392 . S
C485 H497 0.929 . S
C486 C482 1.531 . S
C486 H498 0.960 . S
C486 H499 0.962 . S
C486 H500 0.960 . S
C487 C484 1.511 . S
C487 H501 0.961 . S
C487 H502 0.961 . S
C487 H503 0.961 . S
C488 C489 1.370 . S
C488 C490 1.363 . S
C488 H504 0.931 . S
C489 C488 1.370 . S
C489 C493 1.408 . S
C490 C488 1.363 . S
C490 C491 1.370 . S
C490 C494 1.524 . S
C491 C483 1.503 . S
C491 C490 1.370 . S
C491 C492 1.403 . S
C492 C491 1.403 . S
C492 C493 1.404 . S
C492 C495 1.539 . S
C493 C489 1.408 . S
C493 C492 1.404 . S
C493 H505 0.930 . S
C494 C490 1.524 . S
C494 H506 0.956 . S
C494 H507 0.961 . S
C494 H508 0.961 . S
C495 C492 1.539 . S
C495 H509 0.958 . S
C495 H510 0.961 . S
C495 H511 0.960 . S
H496 C480 0.931 . S
H497 C485 0.929 . S
H498 C486 0.960 . S
H499 C486 0.962 . S
H500 C486 0.960 . S
H501 C487 0.961 . S
H502 C487 0.961 . S
H503 C487 0.961 . S
H504 C488 0.931 . S
H505 C493 0.930 . S
H506 C494 0.956 . S
H507 C494 0.961 . S
H508 C494 0.961 . S
H509 C495 0.958 . S
H510 C495 0.961 . S
H511 C495 0.960 . S
C512 C513 1.391 . S
C512 C514 1.394 . S
C512 H528 0.931 . S
C513 C512 1.391 . S
C513 C517 1.376 . S
C514 C512 1.394 . S
C514 C515 1.369 . S
C514 C518 1.531 . S
C515 C514 1.369 . S
C515 C516 1.410 . S
C515 C523 1.503 . S
C516 C515 1.410 . S
C516 C517 1.392 . S
C516 C519 1.511 . S
C517 C513 1.376 . S
C517 C516 1.392 . S
C517 H529 0.929 . S
C518 C514 1.531 . S
C518 H530 0.960 . S
C518 H531 0.962 . S
C518 H532 0.960 . S
C519 C516 1.511 . S
C519 H533 0.961 . S
C519 H534 0.961 . S
C519 H535 0.961 . S
C520 C521 1.370 . S
C520 C522 1.363 . S
C520 H536 0.931 . S
C521 C520 1.370 . S
C521 C525 1.408 . S
C522 C520 1.363 . S
C522 C523 1.370 . S
C522 C526 1.524 . S
C523 C515 1.503 . S
C523 C522 1.370 . S
C523 C524 1.403 . S
C524 C523 1.403 . S
C524 C525 1.404 . S
C524 C527 1.539 . S
C525 C521 1.408 . S
C525 C524 1.404 . S
C525 H537 0.930 . S
C526 C522 1.524 . S
C526 H538 0.956 . S
C526 H539 0.961 . S
C526 H540 0.961 . S
C527 C524 1.539 . S
C527 H541 0.958 . S
C527 H542 0.961 . S
C527 H543 0.960 . S
H528 C512 0.931 . S
H529 C517 0.929 . S
H530 C518 0.960 . S
H531 C518 0.962 . S
H532 C518 0.960 . S
H533 C519 0.961 . S
H534 C519 0.961 . S
H535 C519 0.961 . S
H536 C520 0.931 . S
H537 C525 0.930 . S
H538 C526 0.956 . S
H539 C526 0.961 . S
H540 C526 0.961 . S
H541 C527 0.958 . S
H542 C527 0.961 . S
H543 C527 0.960 . S
C544 C545 1.391 . S
C544 C546 1.394 . S
C544 H560 0.931 . S
C545 C544 1.391 . S
C545 C549 1.376 . S
C546 C544 1.394 . S
C546 C547 1.369 . S
C546 C550 1.531 . S
C547 C546 1.369 . S
C547 C548 1.410 . S
C547 C555 1.503 . S
C548 C547 1.410 . S
C548 C549 1.392 . S
C548 C551 1.511 . S
C549 C545 1.376 . S
C549 C548 1.392 . S
C549 H561 0.929 . S
C550 C546 1.531 . S
C550 H562 0.960 . S
C550 H563 0.962 . S
C550 H564 0.960 . S
C551 C548 1.511 . S
C551 H565 0.961 . S
C551 H566 0.961 . S
C551 H567 0.961 . S
C552 C553 1.370 . S
C552 C554 1.363 . S
C552 H568 0.931 . S
C553 C552 1.370 . S
C553 C557 1.408 . S
C554 C552 1.363 . S
C554 C555 1.370 . S
C554 C558 1.524 . S
C555 C547 1.503 . S
C555 C554 1.370 . S
C555 C556 1.403 . S
C556 C555 1.403 . S
C556 C557 1.404 . S
C556 C559 1.539 . S
C557 C553 1.408 . S
C557 C556 1.404 . S
C557 H569 0.930 . S
C558 C554 1.524 . S
C558 H570 0.956 . S
C558 H571 0.961 . S
C558 H572 0.961 . S
C559 C556 1.539 . S
C559 H573 0.958 . S
C559 H574 0.961 . S
C559 H575 0.960 . S
H560 C544 0.931 . S
H561 C549 0.929 . S
H562 C550 0.960 . S
H563 C550 0.962 . S
H564 C550 0.960 . S
H565 C551 0.961 . S
H566 C551 0.961 . S
H567 C551 0.961 . S
H568 C552 0.931 . S
H569 C557 0.930 . S
H570 C558 0.956 . S
H571 C558 0.961 . S
H572 C558 0.961 . S
H573 C559 0.958 . S
H574 C559 0.961 . S
H575 C559 0.960 . S
C576 C577 1.391 . S
C576 C578 1.394 . S
C576 H592 0.931 . S
C577 C576 1.391 . S
C577 C581 1.376 . S
C578 C576 1.394 . S
C578 C579 1.369 . S
C578 C582 1.531 . S
C579 C578 1.369 . S
C579 C580 1.410 . S
C579 C587 1.503 . S
C580 C579 1.410 . S
C580 C581 1.392 . S
C580 C583 1.511 . S
C581 C577 1.376 . S
C581 C580 1.392 . S
C581 H593 0.929 . S
C582 C578 1.531 . S
C582 H594 0.960 . S
C582 H595 0.962 . S
C582 H596 0.960 . S
C583 C580 1.511 . S
C583 H597 0.961 . S
C583 H598 0.961 . S
C583 H599 0.961 . S
C584 C585 1.370 . S
C584 C586 1.363 . S
C584 H600 0.931 . S
C585 C584 1.370 . S
C585 C589 1.408 . S
C586 C584 1.363 . S
C586 C587 1.370 . S
C586 C590 1.524 . S
C587 C579 1.503 . S
C587 C586 1.370 . S
C587 C588 1.403 . S
C588 C587 1.403 . S
C588 C589 1.404 . S
C588 C591 1.539 . S
C589 C585 1.408 . S
C589 C588 1.404 . S
C589 H601 0.930 . S
C590 C586 1.524 . S
C590 H602 0.956 . S
C590 H603 0.961 . S
C590 H604 0.961 . S
C591 C588 1.539 . S
C591 H605 0.958 . S
C591 H606 0.961 . S
C591 H607 0.960 . S
H592 C576 0.931 . S
H593 C581 0.929 . S
H594 C582 0.960 . S
H595 C582 0.962 . S
H596 C582 0.960 . S
H597 C583 0.961 . S
H598 C583 0.961 . S
H599 C583 0.961 . S
H600 C584 0.931 . S
H601 C589 0.930 . S
H602 C590 0.956 . S
H603 C590 0.961 . S
H604 C590 0.961 . S
H605 C591 0.958 . S
H606 C591 0.961 . S
H607 C591 0.960 . S
C608 C609 1.391 . S
C608 C610 1.394 . S
C608 H624 0.931 . S
C609 C608 1.391 . S
C609 C613 1.376 . S
C610 C608 1.394 . S
C610 C611 1.369 . S
C610 C614 1.531 . S
C611 C610 1.369 . S
C611 C612 1.410 . S
C611 C619 1.503 . S
C612 C611 1.410 . S
C612 C613 1.392 . S
C612 C615 1.511 . S
C613 C609 1.376 . S
C613 C612 1.392 . S
C613 H625 0.929 . S
C614 C610 1.531 . S
C614 H626 0.960 . S
C614 H627 0.962 . S
C614 H628 0.960 . S
C615 C612 1.511 . S
C615 H629 0.961 . S
C615 H630 0.961 . S
C615 H631 0.961 . S
C616 C617 1.370 . S
C616 C618 1.363 . S
C616 H632 0.931 . S
C617 C616 1.370 . S
C617 C621 1.408 . S
C618 C616 1.363 . S
C618 C619 1.370 . S
C618 C622 1.524 . S
C619 C611 1.503 . S
C619 C618 1.370 . S
C619 C620 1.403 . S
C620 C619 1.403 . S
C620 C621 1.404 . S
C620 C623 1.539 . S
C621 C617 1.408 . S
C621 C620 1.404 . S
C621 H633 0.930 . S
C622 C618 1.524 . S
C622 H634 0.956 . S
C622 H635 0.961 . S
C622 H636 0.961 . S
C623 C620 1.539 . S
C623 H637 0.958 . S
C623 H638 0.961 . S
C623 H639 0.960 . S
H624 C608 0.931 . S
H625 C613 0.929 . S
H626 C614 0.960 . S
H627 C614 0.962 . S
H628 C614 0.960 . S
H629 C615 0.961 . S
H630 C615 0.961 . S
H631 C615 0.961 . S
H632 C616 0.931 . S
H633 C621 0.930 . S
H634 C622 0.956 . S
H635 C622 0.961 . S
H636 C622 0.961 . S
H637 C623 0.958 . S
H638 C623 0.961 . S
H639 C623 0.960 . S
C640 C641 1.391 . S
C640 C642 1.394 . S
C640 H656 0.931 . S
C641 C640 1.391 . S
C641 C645 1.376 . S
C642 C640 1.394 . S
C642 C643 1.369 . S
C642 C646 1.531 . S
C643 C642 1.369 . S
C643 C644 1.410 . S
C643 C651 1.503 . S
C644 C643 1.410 . S
C644 C645 1.392 . S
C644 C647 1.511 . S
C645 C641 1.376 . S
C645 C644 1.392 . S
C645 H657 0.929 . S
C646 C642 1.531 . S
C646 H658 0.960 . S
C646 H659 0.962 . S
C646 H660 0.960 . S
C647 C644 1.511 . S
C647 H661 0.961 . S
C647 H662 0.961 . S
C647 H663 0.961 . S
C648 C649 1.370 . S
C648 C650 1.363 . S
C648 H664 0.931 . S
C649 C648 1.370 . S
C649 C653 1.408 . S
C650 C648 1.363 . S
C650 C651 1.370 . S
C650 C654 1.524 . S
C651 C643 1.503 . S
C651 C650 1.370 . S
C651 C652 1.403 . S
C652 C651 1.403 . S
C652 C653 1.404 . S
C652 C655 1.539 . S
C653 C649 1.408 . S
C653 C652 1.404 . S
C653 H665 0.930 . S
C654 C650 1.524 . S
C654 H666 0.956 . S
C654 H667 0.961 . S
C654 H668 0.961 . S
C655 C652 1.539 . S
C655 H669 0.958 . S
C655 H670 0.961 . S
C655 H671 0.960 . S
H656 C640 0.931 . S
H657 C645 0.929 . S
H658 C646 0.960 . S
H659 C646 0.962 . S
H660 C646 0.960 . S
H661 C647 0.961 . S
H662 C647 0.961 . S
H663 C647 0.961 . S
H664 C648 0.931 . S
H665 C653 0.930 . S
H666 C654 0.956 . S
H667 C654 0.961 . S
H668 C654 0.961 . S
H669 C655 0.958 . S
H670 C655 0.961 . S
H671 C655 0.960 . S
C672 C673 1.391 . S
C672 C674 1.394 . S
C672 H688 0.931 . S
C673 C672 1.391 . S
C673 C677 1.376 . S
C674 C672 1.394 . S
C674 C675 1.369 . S
C674 C678 1.531 . S
C675 C674 1.369 . S
C675 C676 1.410 . S
C675 C683 1.503 . S
C676 C675 1.410 . S
C676 C677 1.392 . S
C676 C679 1.511 . S
C677 C673 1.376 . S
C677 C676 1.392 . S
C677 H689 0.929 . S
C678 C674 1.531 . S
C678 H690 0.960 . S
C678 H691 0.962 . S
C678 H692 0.960 . S
C679 C676 1.511 . S
C679 H693 0.961 . S
C679 H694 0.961 . S
C679 H695 0.961 . S
C680 C681 1.370 . S
C680 C682 1.363 . S
C680 H696 0.931 . S
C681 C680 1.370 . S
C681 C685 1.408 . S
C682 C680 1.363 . S
C682 C683 1.370 . S
C682 C686 1.524 . S
C683 C675 1.503 . S
C683 C682 1.370 . S
C683 C684 1.403 . S
C684 C683 1.403 . S
C684 C685 1.404 . S
C684 C687 1.539 . S
C685 C681 1.408 . S
C685 C684 1.404 . S
C685 H697 0.930 . S
C686 C682 1.524 . S
C686 H698 0.956 . S
C686 H699 0.961 . S
C686 H700 0.961 . S
C687 C684 1.539 . S
C687 H701 0.958 . S
C687 H702 0.961 . S
C687 H703 0.960 . S
H688 C672 0.931 . S
H689 C677 0.929 . S
H690 C678 0.960 . S
H691 C678 0.962 . S
H692 C678 0.960 . S
H693 C679 0.961 . S
H694 C679 0.961 . S
H695 C679 0.961 . S
H696 C680 0.931 . S
H697 C685 0.930 . S
H698 C686 0.956 . S
H699 C686 0.961 . S
H700 C686 0.961 . S
H701 C687 0.958 . S
H702 C687 0.961 . S
H703 C687 0.960 . S
C704 C705 1.391 . S
C704 C706 1.394 . S
C704 H720 0.931 . S
C705 C704 1.391 . S
C705 C709 1.376 . S
C706 C704 1.394 . S
C706 C707 1.369 . S
C706 C710 1.531 . S
C707 C706 1.369 . S
C707 C708 1.410 . S
C707 C715 1.503 . S
C708 C707 1.410 . S
C708 C709 1.392 . S
C708 C711 1.511 . S
C709 C705 1.376 . S
C709 C708 1.392 . S
C709 H721 0.929 . S
C710 C706 1.531 . S
C710 H722 0.960 . S
C710 H723 0.962 . S
C710 H724 0.960 . S
C711 C708 1.511 . S
C711 H725 0.961 . S
C711 H726 0.961 . S
C711 H727 0.961 . S
C712 C713 1.370 . S
C712 C714 1.363 . S
C712 H728 0.931 . S
C713 C712 1.370 . S
C713 C717 1.408 . S
C714 C712 1.363 . S
C714 C715 1.370 . S
C714 C718 1.524 . S
C715 C707 1.503 . S
C715 C714 1.370 . S
C715 C716 1.403 . S
C716 C715 1.403 . S
C716 C717 1.404 . S
C716 C719 1.539 . S
C717 C713 1.408 . S
C717 C716 1.404 . S
C717 H729 0.930 . S
C718 C714 1.524 . S
C718 H730 0.956 . S
C718 H731 0.961 . S
C718 H732 0.961 . S
C719 C716 1.539 . S
C719 H733 0.958 . S
C719 H734 0.961 . S
C719 H735 0.960 . S
H720 C704 0.931 . S
H721 C709 0.929 . S
H722 C710 0.960 . S
H723 C710 0.962 . S
H724 C710 0.960 . S
H725 C711 0.961 . S
H726 C711 0.961 . S
H727 C711 0.961 . S
H728 C712 0.931 . S
H729 C717 0.930 . S
H730 C718 0.956 . S
H731 C718 0.961 . S
H732 C718 0.961 . S
H733 C719 0.958 . S
H734 C719 0.961 . S
H735 C719 0.960 . S
C736 C737 1.391 . S
C736 C738 1.394 . S
C736 H752 0.931 . S
C737 C736 1.391 . S
C737 C741 1.376 . S
C738 C736 1.394 . S
C738 C739 1.369 . S
C738 C742 1.531 . S
C739 C738 1.369 . S
C739 C740 1.410 . S
C739 C747 1.503 . S
C740 C739 1.410 . S
C740 C741 1.392 . S
C740 C743 1.511 . S
C741 C737 1.376 . S
C741 C740 1.392 . S
C741 H753 0.929 . S
C742 C738 1.531 . S
C742 H754 0.960 . S
C742 H755 0.962 . S
C742 H756 0.960 . S
C743 C740 1.511 . S
C743 H757 0.961 . S
C743 H758 0.961 . S
C743 H759 0.961 . S
C744 C745 1.370 . S
C744 C746 1.363 . S
C744 H760 0.931 . S
C745 C744 1.370 . S
C745 C749 1.408 . S
C746 C744 1.363 . S
C746 C747 1.370 . S
C746 C750 1.524 . S
C747 C739 1.503 . S
C747 C746 1.370 . S
C747 C748 1.403 . S
C748 C747 1.403 . S
C748 C749 1.404 . S
C748 C751 1.539 . S
C749 C745 1.408 . S
C749 C748 1.404 . S
C749 H761 0.930 . S
C750 C746 1.524 . S
C750 H762 0.956 . S
C750 H763 0.961 . S
C750 H764 0.961 . S
C751 C748 1.539 . S
C751 H765 0.958 . S
C751 H766 0.961 . S
C751 H767 0.960 . S
H752 C736 0.931 . S
H753 C741 0.929 . S
H754 C742 0.960 . S
H755 C742 0.962 . S
H756 C742 0.960 . S
H757 C743 0.961 . S
H758 C743 0.961 . S
H759 C743 0.961 . S
H760 C744 0.931 . S
H761 C749 0.930 . S
H762 C750 0.956 . S
H763 C750 0.961 . S
H764 C750 0.961 . S
H765 C751 0.958 . S
H766 C751 0.961 . S
H767 C751 0.960 . S
C768 C769 1.391 . S
C768 C770 1.394 . S
C768 H784 0.931 . S
C769 C768 1.391 . S
C769 C773 1.376 . S
C770 C768 1.394 . S
C770 C771 1.369 . S
C770 C774 1.531 . S
C771 C770 1.369 . S
C771 C772 1.410 . S
C771 C779 1.503 . S
C772 C771 1.410 . S
C772 C773 1.392 . S
C772 C775 1.511 . S
C773 C769 1.376 . S
C773 C772 1.392 . S
C773 H785 0.929 . S
C774 C770 1.531 . S
C774 H786 0.960 . S
C774 H787 0.962 . S
C774 H788 0.960 . S
C775 C772 1.511 . S
C775 H789 0.961 . S
C775 H790 0.961 . S
C775 H791 0.961 . S
C776 C777 1.370 . S
C776 C778 1.363 . S
C776 H792 0.931 . S
C777 C776 1.370 . S
C777 C781 1.408 . S
C778 C776 1.363 . S
C778 C779 1.370 . S
C778 C782 1.524 . S
C779 C771 1.503 . S
C779 C778 1.370 . S
C779 C780 1.403 . S
C780 C779 1.403 . S
C780 C781 1.404 . S
C780 C783 1.539 . S
C781 C777 1.408 . S
C781 C780 1.404 . S
C781 H793 0.930 . S
C782 C778 1.524 . S
C782 H794 0.956 . S
C782 H795 0.961 . S
C782 H796 0.961 . S
C783 C780 1.539 . S
C783 H797 0.958 . S
C783 H798 0.961 . S
C783 H799 0.960 . S
H784 C768 0.931 . S
H785 C773 0.929 . S
H786 C774 0.960 . S
H787 C774 0.962 . S
H788 C774 0.960 . S
H789 C775 0.961 . S
H790 C775 0.961 . S
H791 C775 0.961 . S
H792 C776 0.931 . S
H793 C781 0.930 . S
H794 C782 0.956 . S
H795 C782 0.961 . S
H796 C782 0.961 . S
H797 C783 0.958 . S
H798 C783 0.961 . S
H799 C783 0.960 . S
C800 C801 1.391 . S
C800 C802 1.394 . S
C800 H816 0.931 . S
C801 C800 1.391 . S
C801 C805 1.376 . S
C802 C800 1.394 . S
C802 C803 1.369 . S
C802 C806 1.531 . S
C803 C802 1.369 . S
C803 C804 1.410 . S
C803 C811 1.503 . S
C804 C803 1.410 . S
C804 C805 1.392 . S
C804 C807 1.511 . S
C805 C801 1.376 . S
C805 C804 1.392 . S
C805 H817 0.929 . S
C806 C802 1.531 . S
C806 H818 0.960 . S
C806 H819 0.962 . S
C806 H820 0.960 . S
C807 C804 1.511 . S
C807 H821 0.961 . S
C807 H822 0.961 . S
C807 H823 0.961 . S
C808 C809 1.370 . S
C808 C810 1.363 . S
C808 H824 0.931 . S
C809 C808 1.370 . S
C809 C813 1.408 . S
C810 C808 1.363 . S
C810 C811 1.370 . S
C810 C814 1.524 . S
C811 C803 1.503 . S
C811 C810 1.370 . S
C811 C812 1.403 . S
C812 C811 1.403 . S
C812 C813 1.404 . S
C812 C815 1.539 . S
C813 C809 1.408 . S
C813 C812 1.404 . S
C813 H825 0.930 . S
C814 C810 1.524 . S
C814 H826 0.956 . S
C814 H827 0.961 . S
C814 H828 0.961 . S
C815 C812 1.539 . S
C815 H829 0.958 . S
C815 H830 0.961 . S
C815 H831 0.960 . S
H816 C800 0.931 . S
H817 C805 0.929 . S
H818 C806 0.960 . S
H819 C806 0.962 . S
H820 C806 0.960 . S
H821 C807 0.961 . S
H822 C807 0.961 . S
H823 C807 0.961 . S
H824 C808 0.931 . S
H825 C813 0.930 . S
H826 C814 0.956 . S
H827 C814 0.961 . S
H828 C814 0.961 . S
H829 C815 0.958 . S
H830 C815 0.961 . S
H831 C815 0.960 . S
C832 C833 1.391 . S
C832 C834 1.394 . S
C832 H848 0.931 . S
C833 C832 1.391 . S
C833 C837 1.376 . S
C834 C832 1.394 . S
C834 C835 1.369 . S
C834 C838 1.531 . S
C835 C834 1.369 . S
C835 C836 1.410 . S
C835 C843 1.503 . S
C836 C835 1.410 . S
C836 C837 1.392 . S
C836 C839 1.511 . S
C837 C833 1.376 . S
C837 C836 1.392 . S
C837 H849 0.929 . S
C838 C834 1.531 . S
C838 H850 0.960 . S
C838 H851 0.962 . S
C838 H852 0.960 . S
C839 C836 1.511 . S
C839 H853 0.961 . S
C839 H854 0.961 . S
C839 H855 0.961 . S
C840 C841 1.370 . S
C840 C842 1.363 . S
C840 H856 0.931 . S
C841 C840 1.370 . S
C841 C845 1.408 . S
C842 C840 1.363 . S
C842 C843 1.370 . S
C842 C846 1.524 . S
C843 C835 1.503 . S
C843 C842 1.370 . S
C843 C844 1.403 . S
C844 C843 1.403 . S
C844 C845 1.404 . S
C844 C847 1.539 . S
C845 C841 1.408 . S
C845 C844 1.404 . S
C845 H857 0.930 . S
C846 C842 1.524 . S
C846 H858 0.956 . S
C846 H859 0.961 . S
C846 H860 0.961 . S
C847 C844 1.539 . S
C847 H861 0.958 . S
C847 H862 0.961 . S
C847 H863 0.960 . S
H848 C832 0.931 . S
H849 C837 0.929 . S
H850 C838 0.960 . S
H851 C838 0.962 . S
H852 C838 0.960 . S
H853 C839 0.961 . S
H854 C839 0.961 . S
H855 C839 0.961 . S
H856 C840 0.931 . S
H857 C845 0.930 . S
H858 C846 0.956 . S
H859 C846 0.961 . S
H860 C846 0.961 . S
H861 C847 0.958 . S
H862 C847 0.961 . S
H863 C847 0.960 . S
C864 C865 1.391 . S
C864 C866 1.394 . S
C864 H880 0.931 . S
C865 C864 1.391 . S
C865 C869 1.376 . S
C866 C864 1.394 . S
C866 C867 1.369 . S
C866 C870 1.531 . S
C867 C866 1.369 . S
C867 C868 1.410 . S
C867 C875 1.503 . S
C868 C867 1.410 . S
C868 C869 1.392 . S
C868 C871 1.511 . S
C869 C865 1.376 . S
C869 C868 1.392 . S
C869 H881 0.929 . S
C870 C866 1.531 . S
C870 H882 0.960 . S
C870 H883 0.962 . S
C870 H884 0.960 . S
C871 C868 1.511 . S
C871 H885 0.961 . S
C871 H886 0.961 . S
C871 H887 0.961 . S
C872 C873 1.370 . S
C872 C874 1.363 . S
C872 H888 0.931 . S
C873 C872 1.370 . S
C873 C877 1.408 . S
C874 C872 1.363 . S
C874 C875 1.370 . S
C874 C878 1.524 . S
C875 C867 1.503 . S
C875 C874 1.370 . S
C875 C876 1.403 . S
C876 C875 1.403 . S
C876 C877 1.404 . S
C876 C879 1.539 . S
C877 C873 1.408 . S
C877 C876 1.404 . S
C877 H889 0.930 . S
C878 C874 1.524 . S
C878 H890 0.956 . S
C878 H891 0.961 . S
C878 H892 0.961 . S
C879 C876 1.539 . S
C879 H893 0.958 . S
C879 H894 0.961 . S
C879 H895 0.960 . S
H880 C864 0.931 . S
H881 C869 0.929 . S
H882 C870 0.960 . S
H883 C870 0.962 . S
H884 C870 0.960 . S
H885 C871 0.961 . S
H886 C871 0.961 . S
H887 C871 0.961 . S
H888 C872 0.931 . S
H889 C877 0.930 . S
H890 C878 0.956 . S
H891 C878 0.961 . S
H892 C878 0.961 . S
H893 C879 0.958 . S
H894 C879 0.961 . S
H895 C879 0.960 . S
C896 C897 1.391 . S
C896 C898 1.394 . S
C896 H912 0.931 . S
C897 C896 1.391 . S
C897 C901 1.376 . S
C898 C896 1.394 . S
C898 C899 1.369 . S
C898 C902 1.531 . S
C899 C898 1.369 . S
C899 C900 1.410 . S
C899 C907 1.503 . S
C900 C899 1.410 . S
C900 C901 1.392 . S
C900 C903 1.511 . S
C901 C897 1.376 . S
C901 C900 1.392 . S
C901 H913 0.929 . S
C902 C898 1.531 . S
C902 H914 0.960 . S
C902 H915 0.962 . S
C902 H916 0.960 . S
C903 C900 1.511 . S
C903 H917 0.961 . S
C903 H918 0.961 . S
C903 H919 0.961 . S
C904 C905 1.370 . S
C904 C906 1.363 . S
C904 H920 0.931 . S
C905 C904 1.370 . S
C905 C909 1.408 . S
C906 C904 1.363 . S
C906 C907 1.370 . S
C906 C910 1.524 . S
C907 C899 1.503 . S
C907 C906 1.370 . S
C907 C908 1.403 . S
C908 C907 1.403 . S
C908 C909 1.404 . S
C908 C911 1.539 . S
C909 C905 1.408 . S
C909 C908 1.404 . S
C909 H921 0.930 . S
C910 C906 1.524 . S
C910 H922 0.956 . S
C910 H923 0.961 . S
C910 H924 0.961 . S
C911 C908 1.539 . S
C911 H925 0.958 . S
C911 H926 0.961 . S
C911 H927 0.960 . S
H912 C896 0.931 . S
H913 C901 0.929 . S
H914 C902 0.960 . S
H915 C902 0.962 . S
H916 C902 0.960 . S
H917 C903 0.961 . S
H918 C903 0.961 . S
H919 C903 0.961 . S
H920 C904 0.931 . S
H921 C909 0.930 . S
H922 C910 0.956 . S
H923 C910 0.961 . S
H924 C910 0.961 . S
H925 C911 0.958 . S
H926 C911 0.961 . S
H927 C911 0.960 . S
C928 C929 1.391 . S
C928 C930 1.394 . S
C928 H944 0.931 . S
C929 C928 1.391 . S
C929 C933 1.376 . S
C930 C928 1.394 . S
C930 C931 1.369 . S
C930 C934 1.531 . S
C931 C930 1.369 . S
C931 C932 1.410 . S
C931 C939 1.503 . S
C932 C931 1.410 . S
C932 C933 1.392 . S
C932 C935 1.511 . S
C933 C929 1.376 . S
C933 C932 1.392 . S
C933 H945 0.929 . S
C934 C930 1.531 . S
C934 H946 0.960 . S
C934 H947 0.962 . S
C934 H948 0.960 . S
C935 C932 1.511 . S
C935 H949 0.961 . S
C935 H950 0.961 . S
C935 H951 0.961 . S
C936 C937 1.370 . S
C936 C938 1.363 . S
C936 H952 0.931 . S
C937 C936 1.370 . S
C937 C941 1.408 . S
C938 C936 1.363 . S
C938 C939 1.370 . S
C938 C942 1.524 . S
C939 C931 1.503 . S
C939 C938 1.370 . S
C939 C940 1.403 . S
C940 C939 1.403 . S
C940 C941 1.404 . S
C940 C943 1.539 . S
C941 C937 1.408 . S
C941 C940 1.404 . S
C941 H953 0.930 . S
C942 C938 1.524 . S
C942 H954 0.956 . S
C942 H955 0.961 . S
C942 H956 0.961 . S
C943 C940 1.539 . S
C943 H957 0.958 . S
C943 H958 0.961 . S
C943 H959 0.960 . S
H944 C928 0.931 . S
H945 C933 0.929 . S
H946 C934 0.960 . S
H947 C934 0.962 . S
H948 C934 0.960 . S
H949 C935 0.961 . S
H950 C935 0.961 . S
H951 C935 0.961 . S
H952 C936 0.931 . S
H953 C941 0.930 . S
H954 C942 0.956 . S
H955 C942 0.961 . S
H956 C942 0.961 . S
H957 C943 0.958 . S
H958 C943 0.961 . S
H959 C943 0.960 . S
C960 C961 1.391 . S
C960 C962 1.394 . S
C960 H976 0.931 . S
C961 C960 1.391 . S
C961 C965 1.376 . S
C962 C960 1.394 . S
C962 C963 1.369 . S
C962 C966 1.531 . S
C963 C962 1.369 . S
C963 C964 1.410 . S
C963 C971 1.503 . S
C964 C963 1.410 . S
C964 C965 1.392 . S
C964 C967 1.511 . S
C965 C961 1.376 . S
C965 C964 1.392 . S
C965 H977 0.929 . S
C966 C962 1.531 . S
C966 H978 0.960 . S
C966 H979 0.962 . S
C966 H980 0.960 . S
C967 C964 1.511 . S
C967 H981 0.961 . S
C967 H982 0.961 . S
C967 H983 0.961 . S
C968 C969 1.370 . S
C968 C970 1.363 . S
C968 H984 0.931 . S
C969 C968 1.370 . S
C969 C973 1.408 . S
C970 C968 1.363 . S
C970 C971 1.370 . S
C970 C974 1.524 . S
C971 C963 1.503 . S
C971 C970 1.370 . S
C971 C972 1.403 . S
C972 C971 1.403 . S
C972 C973 1.404 . S
C972 C975 1.539 . S
C973 C969 1.408 . S
C973 C972 1.404 . S
C973 H985 0.930 . S
C974 C970 1.524 . S
C974 H986 0.956 . S
C974 H987 0.961 . S
C974 H988 0.961 . S
C975 C972 1.539 . S
C975 H989 0.958 . S
C975 H990 0.961 . S
C975 H991 0.960 . S
H976 C960 0.931 . S
H977 C965 0.929 . S
H978 C966 0.960 . S
H979 C966 0.962 . S
H980 C966 0.960 . S
H981 C967 0.961 . S
H982 C967 0.961 . S
H983 C967 0.961 . S
H984 C968 0.931 . S
H985 C973 0.930 . S
H986 C974 0.956 . S
H987 C974 0.961 . S
H988 C974 0.961 . S
H989 C975 0.958 . S
H990 C975 0.961 . S
H991 C975 0.960 . S
C992 C993 1.391 . S
C992 C994 1.394 . S
C992 H1008 0.931 . S
C993 C992 1.391 . S
C993 C997 1.376 . S
C994 C992 1.394 . S
C994 C995 1.369 . S
C994 C998 1.531 . S
C995 C994 1.369 . S
C995 C996 1.410 . S
C995 C1003 1.503 . S
C996 C995 1.410 . S
C996 C997 1.392 . S
C996 C999 1.511 . S
C997 C993 1.376 . S
C997 C996 1.392 . S
C997 H1009 0.929 . S
C998 C994 1.531 . S
C998 H1010 0.960 . S
C998 H1011 0.962 . S
C998 H1012 0.960 . S
C999 C996 1.511 . S
C999 H1013 0.961 . S
C999 H1014 0.961 . S
C999 H1015 0.961 . S
C1000 C1001 1.370 . S
C1000 C1002 1.363 . S
C1000 H1016 0.931 . S
C1001 C1000 1.370 . S
C1001 C1005 1.408 . S
C1002 C1000 1.363 . S
C1002 C1003 1.370 . S
C1002 C1006 1.524 . S
C1003 C995 1.503 . S
C1003 C1002 1.370 . S
C1003 C1004 1.403 . S
C1004 C1003 1.403 . S
C1004 C1005 1.404 . S
C1004 C1007 1.539 . S
C1005 C1001 1.408 . S
C1005 C1004 1.404 . S
C1005 H1017 0.930 . S
C1006 C1002 1.524 . S
C1006 H1018 0.956 . S
C1006 H1019 0.961 . S
C1006 H1020 0.961 . S
C1007 C1004 1.539 . S
C1007 H1021 0.958 . S
C1007 H1022 0.961 . S
C1007 H1023 0.960 . S
H1008 C992 0.931 . S
H1009 C997 0.929 . S
H1010 C998 0.960 . S
H1011 C998 0.962 . S
H1012 C998 0.960 . S
H1013 C999 0.961 . S
H1014 C999 0.961 . S
H1015 C999 0.961 . S
H1016 C1000 0.931 . S
H1017 C1005 0.930 . S
H1018 C1006 0.956 . S
H1019 C1006 0.961 . S
H1020 C1006 0.961 . S
H1021 C1007 0.958 . S
H1022 C1007 0.961 . S
H1023 C1007 0.960 . S
C1024 C1025 1.391 . S
C1024 C1026 1.394 . S
C1024 H1040 0.931 . S
C1025 C1024 1.391 . S
C1025 C1029 1.376 . S
C1026 C1024 1.394 . S
C1026 C1027 1.369 . S
C1026 C1030 1.531 . S
C1027 C1026 1.369 . S
C1027 C1028 1.410 . S
C1027 C1035 1.503 . S
C1028 C1027 1.410 . S
C1028 C1029 1.392 . S
C1028 C1031 1.511 . S
C1029 C1025 1.376 . S
C1029 C1028 1.392 . S
C1029 H1041 0.929 . S
C1030 C1026 1.531 . S
C1030 H1042 0.960 . S
C1030 H1043 0.962 . S
C1030 H1044 0.960 . S
C1031 C1028 1.511 . S
C1031 H1045 0.961 . S
C1031 H1046 0.961 . S
C1031 H1047 0.961 . S
C1032 C1033 1.370 . S
C1032 C1034 1.363 . S
C1032 H1048 0.931 . S
C1033 C1032 1.370 . S
C1033 C1037 1.408 . S
C1034 C1032 1.363 . S
C1034 C1035 1.370 . S
C1034 C1038 1.524 . S
C1035 C1027 1.503 . S
C1035 C1034 1.370 . S
C1035 C1036 1.403 . S
C1036 C1035 1.403 . S
C1036 C1037 1.404 . S
C1036 C1039 1.539 . S
C1037 C1033 1.408 . S
C1037 C1036 1.404 . S
C1037 H1049 0.930 . S
C1038 C1034 1.524 . S
C1038 H1050 0.956 . S
C1038 H1051 0.961 . S
C1038 H1052 0.961 . S
C1039 C1036 1.539 . S
C1039 H1053 0.958 . S
C1039 H1054 0.961 . S
C1039 H1055 0.960 . S
H1040 C1024 0.931 . S
H1041 C1029 0.929 . S
H1042 C1030 0.960 . S
H1043 C1030 0.962 . S
H1044 C1030 0.960 . S
H1045 C1031 0.961 . S
H1046 C1031 0.961 . S
H1047 C1031 0.961 . S
H1048 C1032 0.931 . S
H1049 C1037 0.930 . S
H1050 C1038 0.956 . S
H1051 C1038 0.961 . S
H1052 C1038 0.961 . S
H1053 C1039 0.958 . S
H1054 C1039 0.961 . S
H1055 C1039 0.960 . S
C1056 C1057 1.391 . S
C1056 C1058 1.394 . S
C1056 H1072 0.931 . S
C1057 C1056 1.391 . S
C1057 C1061 1.376 . S
C1058 C1056 1.394 . S
C1058 C1059 1.369 . S
C1058 C1062 1.531 . S
C1059 C1058 1.369 . S
C1059 C1060 1.410 . S
C1059 C1067 1.503 . S
C1060 C1059 1.410 . S
C1060 C1061 1.392 . S
C1060 C1063 1.511 . S
C1061 C1057 1.376 . S
C1061 C1060 1.392 . S
C1061 H1073 0.929 . S
C1062 C1058 1.531 . S
C1062 H1074 0.960 . S
C1062 H1075 0.962 . S
C1062 H1076 0.960 . S
C1063 C1060 1.511 . S
C1063 H1077 0.961 . S
C1063 H1078 0.961 . S
C1063 H1079 0.961 . S
C1064 C1065 1.370 . S
C1064 C1066 1.363 . S
C1064 H1080 0.931 . S
C1065 C1064 1.370 . S
C1065 C1069 1.408 . S
C1066 C1064 1.363 . S
C1066 C1067 1.370 . S
C1066 C1070 1.524 . S
C1067 C1059 1.503 . S
C1067 C1066 1.370 . S
C1067 C1068 1.403 . S
C1068 C1067 1.403 . S
C1068 C1069 1.404 . S
C1068 C1071 1.539 . S
C1069 C1065 1.408 . S
C1069 C1068 1.404 . S
C1069 H1081 0.930 . S
C1070 C1066 1.524 . S
C1070 H1082 0.956 . S
C1070 H1083 0.961 . S
C1070 H1084 0.961 . S
C1071 C1068 1.539 . S
C1071 H1085 0.958 . S
C1071 H1086 0.961 . S
C1071 H1087 0.960 . S
H1072 C1056 0.931 . S
H1073 C1061 0.929 . S
H1074 C1062 0.960 . S
H1075 C1062 0.962 . S
H1076 C1062 0.960 . S
H1077 C1063 0.961 . S
H1078 C1063 0.961 . S
H1079 C1063 0.961 . S
H1080 C1064 0.931 . S
H1081 C1069 0.930 . S
H1082 C1070 0.956 . S
H1083 C1070 0.961 . S
H1084 C1070 0.961 . S
H1085 C1071 0.958 . S
H1086 C1071 0.961 . S
H1087 C1071 0.960 . S
C1088 C1089 1.391 . S
C1088 C1090 1.394 . S
C1088 H1104 0.931 . S
C1089 C1088 1.391 . S
C1089 C1093 1.376 . S
C1090 C1088 1.394 . S
C1090 C1091 1.369 . S
C1090 C1094 1.531 . S
C1091 C1090 1.369 . S
C1091 C1092 1.410 . S
C1091 C1099 1.503 . S
C1092 C1091 1.410 . S
C1092 C1093 1.392 . S
C1092 C1095 1.511 . S
C1093 C1089 1.376 . S
C1093 C1092 1.392 . S
C1093 H1105 0.929 . S
C1094 C1090 1.531 . S
C1094 H1106 0.960 . S
C1094 H1107 0.962 . S
C1094 H1108 0.960 . S
C1095 C1092 1.511 . S
C1095 H1109 0.961 . S
C1095 H1110 0.961 . S
C1095 H1111 0.961 . S
C1096 C1097 1.370 . S
C1096 C1098 1.363 . S
C1096 H1112 0.931 . S
C1097 C1096 1.370 . S
C1097 C1101 1.408 . S
C1098 C1096 1.363 . S
C1098 C1099 1.370 . S
C1098 C1102 1.524 . S
C1099 C1091 1.503 . S
C1099 C1098 1.370 . S
C1099 C1100 1.403 . S
C1100 C1099 1.403 . S
C1100 C1101 1.404 . S
C1100 C1103 1.539 . S
C1101 C1097 1.408 . S
C1101 C1100 1.404 . S
C1101 H1113 0.930 . S
C1102 C1098 1.524 . S
C1102 H1114 0.956 . S
C1102 H1115 0.961 . S
C1102 H1116 0.961 . S
C1103 C1100 1.539 . S
C1103 H1117 0.958 . S
C1103 H1118 0.961 . S
C1103 H1119 0.960 . S
H1104 C1088 0.931 . S
H1105 C1093 0.929 . S
H1106 C1094 0.960 . S
H1107 C1094 0.962 . S
H1108 C1094 0.960 . S
H1109 C1095 0.961 . S
H1110 C1095 0.961 . S
H1111 C1095 0.961 . S
H1112 C1096 0.931 . S
H1113 C1101 0.930 . S
H1114 C1102 0.956 . S
H1115 C1102 0.961 . S
H1116 C1102 0.961 . S
H1117 C1103 0.958 . S
H1118 C1103 0.961 . S
H1119 C1103 0.960 . S
C1120 C1121 1.391 . S
C1120 C1122 1.394 . S
C1120 H1136 0.931 . S
C1121 C1120 1.391 . S
C1121 C1125 1.376 . S
C1122 C1120 1.394 . S
C1122 C1123 1.369 . S
C1122 C1126 1.531 . S
C1123 C1122 1.369 . S
C1123 C1124 1.410 . S
C1123 C1131 1.503 . S
C1124 C1123 1.410 . S
C1124 C1125 1.392 . S
C1124 C1127 1.511 . S
C1125 C1121 1.376 . S
C1125 C1124 1.392 . S
C1125 H1137 0.929 . S
C1126 C1122 1.531 . S
C1126 H1138 0.960 . S
C1126 H1139 0.962 . S
C1126 H1140 0.960 . S
C1127 C1124 1.511 . S
C1127 H1141 0.961 . S
C1127 H1142 0.961 . S
C1127 H1143 0.961 . S
C1128 C1129 1.370 . S
C1128 C1130 1.363 . S
C1128 H1144 0.931 . S
C1129 C1128 1.370 . S
C1129 C1133 1.408 . S
C1130 C1128 1.363 . S
C1130 C1131 1.370 . S
C1130 C1134 1.524 . S
C1131 C1123 1.503 . S
C1131 C1130 1.370 . S
C1131 C1132 1.403 . S
C1132 C1131 1.403 . S
C1132 C1133 1.404 . S
C1132 C1135 1.539 . S
C1133 C1129 1.408 . S
C1133 C1132 1.404 . S
C1133 H1145 0.930 . S
C1134 C1130 1.524 . S
C1134 H1146 0.956 . S
C1134 H1147 0.961 . S
C1134 H1148 0.961 . S
C1135 C1132 1.539 . S
C1135 H1149 0.958 . S
C1135 H1150 0.961 . S
C1135 H1151 0.960 . S
H1136 C1120 0.931 . S
H1137 C1125 0.929 . S
H1138 C1126 0.960 . S
H1139 C1126 0.962 . S
H1140 C1126 0.960 . S
H1141 C1127 0.961 . S
H1142 C1127 0.961 . S
H1143 C1127 0.961 . S
H1144 C1128 0.931 . S
H1145 C1133 0.930 . S
H1146 C1134 0.956 . S
H1147 C1134 0.961 . S
H1148 C1134 0.961 . S
H1149 C1135 0.958 . S
H1150 C1135 0.961 . S
H1151 C1135 0.960 . S
C1152 C1153 1.391 . S
C1152 C1154 1.394 . S
C1152 H1168 0.931 . S
C1153 C1152 1.391 . S
C1153 C1157 1.376 . S
C1154 C1152 1.394 . S
C1154 C1155 1.369 . S
C1154 C1158 1.531 . S
C1155 C1154 1.369 . S
C1155 C1156 1.410 . S
C1155 C1163 1.503 . S
C1156 C1155 1.410 . S
C1156 C1157 1.392 . S
C1156 C1159 1.511 . S
C1157 C1153 1.376 . S
C1157 C1156 1.392 . S
C1157 H1169 0.929 . S
C1158 C1154 1.531 . S
C1158 H1170 0.960 . S
C1158 H1171 0.962 . S
C1158 H1172 0.960 . S
C1159 C1156 1.511 . S
C1159 H1173 0.961 . S
C1159 H1174 0.961 . S
C1159 H1175 0.961 . S
C1160 C1161 1.370 . S
C1160 C1162 1.363 . S
C1160 H1176 0.931 . S
C1161 C1160 1.370 . S
C1161 C1165 1.408 . S
C1162 C1160 1.363 . S
C1162 C1163 1.370 . S
C1162 C1166 1.524 . S
C1163 C1155 1.503 . S
C1163 C1162 1.370 . S
C1163 C1164 1.403 . S
C1164 C1163 1.403 . S
C1164 C1165 1.404 . S
C1164 C1167 1.539 . S
C1165 C1161 1.408 . S
C1165 C1164 1.404 . S
C1165 H1177 0.930 . S
C1166 C1162 1.524 . S
C1166 H1178 0.956 . S
C1166 H1179 0.961 . S
C1166 H1180 0.961 . S
C1167 C1164 1.539 . S
C1167 H1181 0.958 . S
C1167 H1182 0.961 . S
C1167 H1183 0.960 . S
H1168 C1152 0.931 . S
H1169 C1157 0.929 . S
H1170 C1158 0.960 . S
H1171 C1158 0.962 . S
H1172 C1158 0.960 . S
H1173 C1159 0.961 . S
H1174 C1159 0.961 . S
H1175 C1159 0.961 . S
H1176 C1160 0.931 . S
H1177 C1165 0.930 . S
H1178 C1166 0.956 . S
H1179 C1166 0.961 . S
H1180 C1166 0.961 . S
H1181 C1167 0.958 . S
H1182 C1167 0.961 . S
H1183 C1167 0.960 . S
C1184 C1185 1.391 . S
C1184 C1186 1.394 . S
C1184 H1200 0.931 . S
C1185 C1184 1.391 . S
C1185 C1189 1.376 . S
C1186 C1184 1.394 . S
C1186 C1187 1.369 . S
C1186 C1190 1.531 . S
C1187 C1186 1.369 . S
C1187 C1188 1.410 . S
C1187 C1195 1.503 . S
C1188 C1187 1.410 . S
C1188 C1189 1.392 . S
C1188 C1191 1.511 . S
C1189 C1185 1.376 . S
C1189 C1188 1.392 . S
C1189 H1201 0.929 . S
C1190 C1186 1.531 . S
C1190 H1202 0.960 . S
C1190 H1203 0.962 . S
C1190 H1204 0.960 . S
C1191 C1188 1.511 . S
C1191 H1205 0.961 . S
C1191 H1206 0.961 . S
C1191 H1207 0.961 . S
C1192 C1193 1.370 . S
C1192 C1194 1.363 . S
C1192 H1208 0.931 . S
C1193 C1192 1.370 . S
C1193 C1197 1.408 . S
C1194 C1192 1.363 . S
C1194 C1195 1.370 . S
C1194 C1198 1.524 . S
C1195 C1187 1.503 . S
C1195 C1194 1.370 . S
C1195 C1196 1.403 . S
C1196 C1195 1.403 . S
C1196 C1197 1.404 . S
C1196 C1199 1.539 . S
C1197 C1193 1.408 . S
C1197 C1196 1.404 . S
C1197 H1209 0.930 . S
C1198 C1194 1.524 . S
C1198 H1210 0.956 . S
C1198 H1211 0.961 . S
C1198 H1212 0.961 . S
C1199 C1196 1.539 . S
C1199 H1213 0.958 . S
C1199 H1214 0.961 . S
C1199 H1215 0.960 . S
H1200 C1184 0.931 . S
H1201 C1189 0.929 . S
H1202 C1190 0.960 . S
H1203 C1190 0.962 . S
H1204 C1190 0.960 . S
H1205 C1191 0.961 . S
H1206 C1191 0.961 . S
H1207 C1191 0.961 . S
H1208 C1192 0.931 . S
H1209 C1197 0.930 . S
H1210 C1198 0.956 . S
H1211 C1198 0.961 . S
H1212 C1198 0.961 . S
H1213 C1199 0.958 . S
H1214 C1199 0.961 . S
H1215 C1199 0.960 . S
C1216 C1217 1.391 . S
C1216 C1218 1.394 . S
C1216 H1232 0.931 . S
C1217 C1216 1.391 . S
C1217 C1221 1.376 . S
C1218 C1216 1.394 . S
C1218 C1219 1.369 . S
C1218 C1222 1.531 . S
C1219 C1218 1.369 . S
C1219 C1220 1.410 . S
C1219 C1227 1.503 . S
C1220 C1219 1.410 . S
C1220 C1221 1.392 . S
C1220 C1223 1.511 . S
C1221 C1217 1.376 . S
C1221 C1220 1.392 . S
C1221 H1233 0.929 . S
C1222 C1218 1.531 . S
C1222 H1234 0.960 . S
C1222 H1235 0.962 . S
C1222 H1236 0.960 . S
C1223 C1220 1.511 . S
C1223 H1237 0.961 . S
C1223 H1238 0.961 . S
C1223 H1239 0.961 . S
C1224 C1225 1.370 . S
C1224 C1226 1.363 . S
C1224 H1240 0.931 . S
C1225 C1224 1.370 . S
C1225 C1229 1.408 . S
C1226 C1224 1.363 . S
C1226 C1227 1.370 . S
C1226 C1230 1.524 . S
C1227 C1219 1.503 . S
C1227 C1226 1.370 . S
C1227 C1228 1.403 . S
C1228 C1227 1.403 . S
C1228 C1229 1.404 . S
C1228 C1231 1.539 . S
C1229 C1225 1.408 . S
C1229 C1228 1.404 . S
C1229 H1241 0.930 . S
C1230 C1226 1.524 . S
C1230 H1242 0.956 . S
C1230 H1243 0.961 . S
C1230 H1244 0.961 . S
C1231 C1228 1.539 . S
C1231 H1245 0.958 . S
C1231 H1246 0.961 . S
C1231 H1247 0.960 . S
H1232 C1216 0.931 . S
H1233 C1221 0.929 . S
H1234 C1222 0.960 . S
H1235 C1222 0.962 . S
H1236 C1222 0.960 . S
H1237 C1223 0.961 . S
H1238 C1223 0.961 . S
H1239 C1223 0.961 . S
H1240 C1224 0.931 . S
H1241 C1229 0.930 . S
H1242 C1230 0.956 . S
H1243 C1230 0.961 . S
H1244 C1230 0.961 . S
H1245 C1231 0.958 . S
H1246 C1231 0.961 . S
H1247 C1231 0.960 . S
C1248 C1249 1.391 . S
C1248 C1250 1.394 . S
C1248 H1264 0.931 . S
C1249 C1248 1.391 . S
C1249 C1253 1.376 . S
C1250 C1248 1.394 . S
C1250 C1251 1.369 . S
C1250 C1254 1.531 . S
C1251 C1250 1.369 . S
C1251 C1252 1.410 . S
C1251 C1259 1.503 . S
C1252 C1251 1.410 . S
C1252 C1253 1.392 . S
C1252 C1255 1.511 . S
C1253 C1249 1.376 . S
C1253 C1252 1.392 . S
C1253 H1265 0.929 . S
C1254 C1250 1.531 . S
C1254 H1266 0.960 . S
C1254 H1267 0.962 . S
C1254 H1268 0.960 . S
C1255 C1252 1.511 . S
C1255 H1269 0.961 . S
C1255 H1270 0.961 . S
C1255 H1271 0.961 . S
C1256 C1257 1.370 . S
C1256 C1258 1.363 . S
C1256 H1272 0.931 . S
C1257 C1256 1.370 . S
C1257 C1261 1.408 . S
C1258 C1256 1.363 . S
C1258 C1259 1.370 . S
C1258 C1262 1.524 . S
C1259 C1251 1.503 . S
C1259 C1258 1.370 . S
C1259 C1260 1.403 . S
C1260 C1259 1.403 . S
C1260 C1261 1.404 . S
C1260 C1263 1.539 . S
C1261 C1257 1.408 . S
C1261 C1260 1.404 . S
C1261 H1273 0.930 . S
C1262 C1258 1.524 . S
C1262 H1274 0.956 . S
C1262 H1275 0.961 . S
C1262 H1276 0.961 . S
C1263 C1260 1.539 . S
C1263 H1277 0.958 . S
C1263 H1278 0.961 . S
C1263 H1279 0.960 . S
H1264 C1248 0.931 . S
H1265 C1253 0.929 . S
H1266 C1254 0.960 . S
H1267 C1254 0.962 . S
H1268 C1254 0.960 . S
H1269 C1255 0.961 . S
H1270 C1255 0.961 . S
H1271 C1255 0.961 . S
H1272 C1256 0.931 . S
H1273 C1261 0.930 . S
H1274 C1262 0.956 . S
H1275 C1262 0.961 . S
H1276 C1262 0.961 . S
H1277 C1263 0.958 . S
H1278 C1263 0.961 . S
H1279 C1263 0.960 . S
C1280 C1281 1.391 . S
C1280 C1282 1.394 . S
C1280 H1296 0.931 . S
C1281 C1280 1.391 . S
C1281 C1285 1.376 . S
C1282 C1280 1.394 . S
C1282 C1283 1.369 . S
C1282 C1286 1.531 . S
C1283 C1282 1.369 . S
C1283 C1284 1.410 . S
C1283 C1291 1.503 . S
C1284 C1283 1.410 . S
C1284 C1285 1.392 . S
C1284 C1287 1.511 . S
C1285 C1281 1.376 . S
C1285 C1284 1.392 . S
C1285 H1297 0.929 . S
C1286 C1282 1.531 . S
C1286 H1298 0.960 . S
C1286 H1299 0.962 . S
C1286 H1300 0.960 . S
C1287 C1284 1.511 . S
C1287 H1301 0.961 . S
C1287 H1302 0.961 . S
C1287 H1303 0.961 . S
C1288 C1289 1.370 . S
C1288 C1290 1.363 . S
C1288 H1304 0.931 . S
C1289 C1288 1.370 . S
C1289 C1293 1.408 . S
C1290 C1288 1.363 . S
C1290 C1291 1.370 . S
C1290 C1294 1.524 . S
C1291 C1283 1.503 . S
C1291 C1290 1.370 . S
C1291 C1292 1.403 . S
C1292 C1291 1.403 . S
C1292 C1293 1.404 . S
C1292 C1295 1.539 . S
C1293 C1289 1.408 . S
C1293 C1292 1.404 . S
C1293 H1305 0.930 . S
C1294 C1290 1.524 . S
C1294 H1306 0.956 . S
C1294 H1307 0.961 . S
C1294 H1308 0.961 . S
C1295 C1292 1.539 . S
C1295 H1309 0.958 . S
C1295 H1310 0.961 . S
C1295 H1311 0.960 . S
H1296 C1280 0.931 . S
H1297 C1285 0.929 . S
H1298 C1286 0.960 . S
H1299 C1286 0.962 . S
H1300 C1286 0.960 . S
H1301 C1287 0.961 . S
H1302 C1287 0.961 . S
H1303 C1287 0.961 . S
H1304 C1288 0.931 . S
H1305 C1293 0.930 . S
H1306 C1294 0.956 . S
H1307 C1294 0.961 . S
H1308 C1294 0.961 . S
H1309 C1295 0.958 . S
H1310 C1295 0.961 . S
H1311 C1295 0.960 . S
C1312 C1313 1.391 . S
C1312 C1314 1.394 . S
C1312 H1328 0.931 . S
C1313 C1312 1.391 . S
C1313 C1317 1.376 . S
C1314 C1312 1.394 . S
C1314 C1315 1.369 . S
C1314 C1318 1.531 . S
C1315 C1314 1.369 . S
C1315 C1316 1.410 . S
C1315 C1323 1.503 . S
C1316 C1315 1.410 . S
C1316 C1317 1.392 . S
C1316 C1319 1.511 . S
C1317 C1313 1.376 . S
C1317 C1316 1.392 . S
C1317 H1329 0.929 . S
C1318 C1314 1.531 . S
C1318 H1330 0.960 . S
C1318 H1331 0.962 . S
C1318 H1332 0.960 . S
C1319 C1316 1.511 . S
C1319 H1333 0.961 . S
C1319 H1334 0.961 . S
C1319 H1335 0.961 . S
C1320 C1321 1.370 . S
C1320 C1322 1.363 . S
C1320 H1336 0.931 . S
C1321 C1320 1.370 . S
C1321 C1325 1.408 . S
C1322 C1320 1.363 . S
C1322 C1323 1.370 . S
C1322 C1326 1.524 . S
C1323 C1315 1.503 . S
C1323 C1322 1.370 . S
C1323 C1324 1.403 . S
C1324 C1323 1.403 . S
C1324 C1325 1.404 . S
C1324 C1327 1.539 . S
C1325 C1321 1.408 . S
C1325 C1324 1.404 . S
C1325 H1337 0.930 . S
C1326 C1322 1.524 . S
C1326 H1338 0.956 . S
C1326 H1339 0.961 . S
C1326 H1340 0.961 . S
C1327 C1324 1.539 . S
C1327 H1341 0.958 . S
C1327 H1342 0.961 . S
C1327 H1343 0.960 . S
H1328 C1312 0.931 . S
H1329 C1317 0.929 . S
H1330 C1318 0.960 . S
H1331 C1318 0.962 . S
H1332 C1318 0.960 . S
H1333 C1319 0.961 . S
H1334 C1319 0.961 . S
H1335 C1319 0.961 . S
H1336 C1320 0.931 . S
H1337 C1325 0.930 . S
H1338 C1326 0.956 . S
H1339 C1326 0.961 . S
H1340 C1326 0.961 . S
H1341 C1327 0.958 . S
H1342 C1327 0.961 . S
H1343 C1327 0.960 . S
C1344 C1345 1.391 . S
C1344 C1346 1.394 . S
C1344 H1360 0.931 . S
C1345 C1344 1.391 . S
C1345 C1349 1.376 . S
C1346 C1344 1.394 . S
C1346 C1347 1.369 . S
C1346 C1350 1.531 . S
C1347 C1346 1.369 . S
C1347 C1348 1.410 . S
C1347 C1355 1.503 . S
C1348 C1347 1.410 . S
C1348 C1349 1.392 . S
C1348 C1351 1.511 . S
C1349 C1345 1.376 . S
C1349 C1348 1.392 . S
C1349 H1361 0.929 . S
C1350 C1346 1.531 . S
C1350 H1362 0.960 . S
C1350 H1363 0.962 . S
C1350 H1364 0.960 . S
C1351 C1348 1.511 . S
C1351 H1365 0.961 . S
C1351 H1366 0.961 . S
C1351 H1367 0.961 . S
C1352 C1353 1.370 . S
C1352 C1354 1.363 . S
C1352 H1368 0.931 . S
C1353 C1352 1.370 . S
C1353 C1357 1.408 . S
C1354 C1352 1.363 . S
C1354 C1355 1.370 . S
C1354 C1358 1.524 . S
C1355 C1347 1.503 . S
C1355 C1354 1.370 . S
C1355 C1356 1.403 . S
C1356 C1355 1.403 . S
C1356 C1357 1.404 . S
C1356 C1359 1.539 . S
C1357 C1353 1.408 . S
C1357 C1356 1.404 . S
C1357 H1369 0.930 . S
C1358 C1354 1.524 . S
C1358 H1370 0.956 . S
C1358 H1371 0.961 . S
C1358 H1372 0.961 . S
C1359 C1356 1.539 . S
C1359 H1373 0.958 . S
C1359 H1374 0.961 . S
C1359 H1375 0.960 . S
H1360 C1344 0.931 . S
H1361 C1349 0.929 . S
H1362 C1350 0.960 . S
H1363 C1350 0.962 . S
H1364 C1350 0.960 . S
H1365 C1351 0.961 . S
H1366 C1351 0.961 . S
H1367 C1351 0.961 . S
H1368 C1352 0.931 . S
H1369 C1357 0.930 . S
H1370 C1358 0.956 . S
H1371 C1358 0.961 . S
H1372 C1358 0.961 . S
H1373 C1359 0.958 . S
H1374 C1359 0.961 . S
H1375 C1359 0.960 . S
C1376 C1377 1.391 . S
C1376 C1378 1.394 . S
C1376 H1392 0.931 . S
C1377 C1376 1.391 . S
C1377 C1381 1.376 . S
C1378 C1376 1.394 . S
C1378 C1379 1.369 . S
C1378 C1382 1.531 . S
C1379 C1378 1.369 . S
C1379 C1380 1.410 . S
C1379 C1387 1.503 . S
C1380 C1379 1.410 . S
C1380 C1381 1.392 . S
C1380 C1383 1.511 . S
C1381 C1377 1.376 . S
C1381 C1380 1.392 . S
C1381 H1393 0.929 . S
C1382 C1378 1.531 . S
C1382 H1394 0.960 . S
C1382 H1395 0.962 . S
C1382 H1396 0.960 . S
C1383 C1380 1.511 . S
C1383 H1397 0.961 . S
C1383 H1398 0.961 . S
C1383 H1399 0.961 . S
C1384 C1385 1.370 . S
C1384 C1386 1.363 . S
C1384 H1400 0.931 . S
C1385 C1384 1.370 . S
C1385 C1389 1.408 . S
C1386 C1384 1.363 . S
C1386 C1387 1.370 . S
C1386 C1390 1.524 . S
C1387 C1379 1.503 . S
C1387 C1386 1.370 . S
C1387 C1388 1.403 . S
C1388 C1387 1.403 . S
C1388 C1389 1.404 . S
C1388 C1391 1.539 . S
C1389 C1385 1.408 . S
C1389 C1388 1.404 . S
C1389 H1401 0.930 . S
C1390 C1386 1.524 . S
C1390 H1402 0.956 . S
C1390 H1403 0.961 . S
C1390 H1404 0.961 . S
C1391 C1388 1.539 . S
C1391 H1405 0.958 . S
C1391 H1406 0.961 . S
C1391 H1407 0.960 . S
H1392 C1376 0.931 . S
H1393 C1381 0.929 . S
H1394 C1382 0.960 . S
H1395 C1382 0.962 . S
H1396 C1382 0.960 . S
H1397 C1383 0.961 . S
H1398 C1383 0.961 . S
H1399 C1383 0.961 . S
H1400 C1384 0.931 . S
H1401 C1389 0.930 . S
H1402 C1390 0.956 . S
H1403 C1390 0.961 . S
H1404 C1390 0.961 . S
H1405 C1391 0.958 . S
H1406 C1391 0.961 . S
H1407 C1391 0.960 . S
C1408 C1409 1.391 . S
C1408 C1410 1.394 . S
C1408 H1424 0.931 . S
C1409 C1408 1.391 . S
C1409 C1413 1.376 . S
C1410 C1408 1.394 . S
C1410 C1411 1.369 . S
C1410 C1414 1.531 . S
C1411 C1410 1.369 . S
C1411 C1412 1.410 . S
C1411 C1419 1.503 . S
C1412 C1411 1.410 . S
C1412 C1413 1.392 . S
C1412 C1415 1.511 . S
C1413 C1409 1.376 . S
C1413 C1412 1.392 . S
C1413 H1425 0.929 . S
C1414 C1410 1.531 . S
C1414 H1426 0.960 . S
C1414 H1427 0.962 . S
C1414 H1428 0.960 . S
C1415 C1412 1.511 . S
C1415 H1429 0.961 . S
C1415 H1430 0.961 . S
C1415 H1431 0.961 . S
C1416 C1417 1.370 . S
C1416 C1418 1.363 . S
C1416 H1432 0.931 . S
C1417 C1416 1.370 . S
C1417 C1421 1.408 . S
C1418 C1416 1.363 . S
C1418 C1419 1.370 . S
C1418 C1422 1.524 . S
C1419 C1411 1.503 . S
C1419 C1418 1.370 . S
C1419 C1420 1.403 . S
C1420 C1419 1.403 . S
C1420 C1421 1.404 . S
C1420 C1423 1.539 . S
C1421 C1417 1.408 . S
C1421 C1420 1.404 . S
C1421 H1433 0.930 . S
C1422 C1418 1.524 . S
C1422 H1434 0.956 . S
C1422 H1435 0.961 . S
C1422 H1436 0.961 . S
C1423 C1420 1.539 . S
C1423 H1437 0.958 . S
C1423 H1438 0.961 . S
C1423 H1439 0.960 . S
H1424 C1408 0.931 . S
H1425 C1413 0.929 . S
H1426 C1414 0.960 . S
H1427 C1414 0.962 . S
H1428 C1414 0.960 . S
H1429 C1415 0.961 . S
H1430 C1415 0.961 . S
H1431 C1415 0.961 . S
H1432 C1416 0.931 . S
H1433 C1421 0.930 . S
H1434 C1422 0.956 . S
H1435 C1422 0.961 . S
H1436 C1422 0.961 . S
H1437 C1423 0.958 . S
H1438 C1423 0.961 . S
H1439 C1423 0.960 . S
C1440 C1441 1.391 . S
C1440 C1442 1.394 . S
C1440 H1456 0.931 . S
C1441 C1440 1.391 . S
C1441 C1445 1.376 . S
C1442 C1440 1.394 . S
C1442 C1443 1.369 . S
C1442 C1446 1.531 . S
C1443 C1442 1.369 . S
C1443 C1444 1.410 . S
C1443 C1451 1.503 . S
C1444 C1443 1.410 . S
C1444 C1445 1.392 . S
C1444 C1447 1.511 . S
C1445 C1441 1.376 . S
C1445 C1444 1.392 . S
C1445 H1457 0.929 . S
C1446 C1442 1.531 . S
C1446 H1458 0.960 . S
C1446 H1459 0.962 . S
C1446 H1460 0.960 . S
C1447 C1444 1.511 . S
C1447 H1461 0.961 . S
C1447 H1462 0.961 . S
C1447 H1463 0.961 . S
C1448 C1449 1.370 . S
C1448 C1450 1.363 . S
C1448 H1464 0.931 . S
C1449 C1448 1.370 . S
C1449 C1453 1.408 . S
C1450 C1448 1.363 . S
C1450 C1451 1.370 . S
C1450 C1454 1.524 . S
C1451 C1443 1.503 . S
C1451 C1450 1.370 . S
C1451 C1452 1.403 . S
C1452 C1451 1.403 . S
C1452 C1453 1.404 . S
C1452 C1455 1.539 . S
C1453 C1449 1.408 . S
C1453 C1452 1.404 . S
C1453 H1465 0.930 . S
C1454 C1450 1.524 . S
C1454 H1466 0.956 . S
C1454 H1467 0.961 . S
C1454 H1468 0.961 . S
C1455 C1452 1.539 . S
C1455 H1469 0.958 . S
C1455 H1470 0.961 . S
C1455 H1471 0.960 . S
H1456 C1440 0.931 . S
H1457 C1445 0.929 . S
H1458 C1446 0.960 . S
H1459 C1446 0.962 . S
H1460 C1446 0.960 . S
H1461 C1447 0.961 . S
H1462 C1447 0.961 . S
H1463 C1447 0.961 . S
H1464 C1448 0.931 . S
H1465 C1453 0.930 . S
H1466 C1454 0.956 . S
H1467 C1454 0.961 . S
H1468 C1454 0.961 . S
H1469 C1455 0.958 . S
H1470 C1455 0.961 . S
H1471 C1455 0.960 . S
C1472 C1473 1.391 . S
C1472 C1474 1.394 . S
C1472 H1488 0.931 . S
C1473 C1472 1.391 . S
C1473 C1477 1.376 . S
C1474 C1472 1.394 . S
C1474 C1475 1.369 . S
C1474 C1478 1.531 . S
C1475 C1474 1.369 . S
C1475 C1476 1.410 . S
C1475 C1483 1.503 . S
C1476 C1475 1.410 . S
C1476 C1477 1.392 . S
C1476 C1479 1.511 . S
C1477 C1473 1.376 . S
C1477 C1476 1.392 . S
C1477 H1489 0.929 . S
C1478 C1474 1.531 . S
C1478 H1490 0.960 . S
C1478 H1491 0.962 . S
C1478 H1492 0.960 . S
C1479 C1476 1.511 . S
C1479 H1493 0.961 . S
C1479 H1494 0.961 . S
C1479 H1495 0.961 . S
C1480 C1481 1.370 . S
C1480 C1482 1.363 . S
C1480 H1496 0.931 . S
C1481 C1480 1.370 . S
C1481 C1485 1.408 . S
C1482 C1480 1.363 . S
C1482 C1483 1.370 . S
C1482 C1486 1.524 . S
C1483 C1475 1.503 . S
C1483 C1482 1.370 . S
C1483 C1484 1.403 . S
C1484 C1483 1.403 . S
C1484 C1485 1.404 . S
C1484 C1487 1.539 . S
C1485 C1481 1.408 . S
C1485 C1484 1.404 . S
C1485 H1497 0.930 . S
C1486 C1482 1.524 . S
C1486 H1498 0.956 . S
C1486 H1499 0.961 . S
C1486 H1500 0.961 . S
C1487 C1484 1.539 . S
C1487 H1501 0.958 . S
C1487 H1502 0.961 . S
C1487 H1503 0.960 . S
H1488 C1472 0.931 . S
H1489 C1477 0.929 . S
H1490 C1478 0.960 . S
H1491 C1478 0.962 . S
H1492 C1478 0.960 . S
H1493 C1479 0.961 . S
H1494 C1479 0.961 . S
H1495 C1479 0.961 . S
H1496 C1480 0.931 . S
H1497 C1485 0.930 . S
H1498 C1486 0.956 . S
H1499 C1486 0.961 . S
H1500 C1486 0.961 . S
H1501 C1487 0.958 . S
H1502 C1487 0.961 . S
H1503 C1487 0.960 . S
C1504 C1505 1.391 . S
C1504 C1506 1.394 . S
C1504 H1520 0.931 . S
C1505 C1504 1.391 . S
C1505 C1509 1.376 . S
C1506 C1504 1.394 . S
C1506 C1507 1.369 . S
C1506 C1510 1.531 . S
C1507 C1506 1.369 . S
C1507 C1508 1.410 . S
C1507 C1515 1.503 . S
C1508 C1507 1.410 . S
C1508 C1509 1.392 . S
C1508 C1511 1.511 . S
C1509 C1505 1.376 . S
C1509 C1508 1.392 . S
C1509 H1521 0.929 . S
C1510 C1506 1.531 . S
C1510 H1522 0.960 . S
C1510 H1523 0.962 . S
C1510 H1524 0.960 . S
C1511 C1508 1.511 . S
C1511 H1525 0.961 . S
C1511 H1526 0.961 . S
C1511 H1527 0.961 . S
C1512 C1513 1.370 . S
C1512 C1514 1.363 . S
C1512 H1528 0.931 . S
C1513 C1512 1.370 . S
C1513 C1517 1.408 . S
C1514 C1512 1.363 . S
C1514 C1515 1.370 . S
C1514 C1518 1.524 . S
C1515 C1507 1.503 . S
C1515 C1514 1.370 . S
C1515 C1516 1.403 . S
C1516 C1515 1.403 . S
C1516 C1517 1.404 . S
C1516 C1519 1.539 . S
C1517 C1513 1.408 . S
C1517 C1516 1.404 . S
C1517 H1529 0.930 . S
C1518 C1514 1.524 . S
C1518 H1530 0.956 . S
C1518 H1531 0.961 . S
C1518 H1532 0.961 . S
C1519 C1516 1.539 . S
C1519 H1533 0.958 . S
C1519 H1534 0.961 . S
C1519 H1535 0.960 . S
H1520 C1504 0.931 . S
H1521 C1509 0.929 . S
H1522 C1510 0.960 . S
H1523 C1510 0.962 . S
H1524 C1510 0.960 . S
H1525 C1511 0.961 . S
H1526 C1511 0.961 . S
H1527 C1511 0.961 . S
H1528 C1512 0.931 . S
H1529 C1517 0.930 . S
H1530 C1518 0.956 . S
H1531 C1518 0.961 . S
H1532 C1518 0.961 . S
H1533 C1519 0.958 . S
H1534 C1519 0.961 . S
H1535 C1519 0.960 . S
C1536 C1537 1.391 . S
C1536 C1538 1.394 . S
C1536 H1552 0.931 . S
C1537 C1536 1.391 . S
C1537 C1541 1.376 . S
C1538 C1536 1.394 . S
C1538 C1539 1.369 . S
C1538 C1542 1.531 . S
C1539 C1538 1.369 . S
C1539 C1540 1.410 . S
C1539 C1547 1.503 . S
C1540 C1539 1.410 . S
C1540 C1541 1.392 . S
C1540 C1543 1.511 . S
C1541 C1537 1.376 . S
C1541 C1540 1.392 . S
C1541 H1553 0.929 . S
C1542 C1538 1.531 . S
C1542 H1554 0.960 . S
C1542 H1555 0.962 . S
C1542 H1556 0.960 . S
C1543 C1540 1.511 . S
C1543 H1557 0.961 . S
C1543 H1558 0.961 . S
C1543 H1559 0.961 . S
C1544 C1545 1.370 . S
C1544 C1546 1.363 . S
C1544 H1560 0.931 . S
C1545 C1544 1.370 . S
C1545 C1549 1.408 . S
C1546 C1544 1.363 . S
C1546 C1547 1.370 . S
C1546 C1550 1.524 . S
C1547 C1539 1.503 . S
C1547 C1546 1.370 . S
C1547 C1548 1.403 . S
C1548 C1547 1.403 . S
C1548 C1549 1.404 . S
C1548 C1551 1.539 . S
C1549 C1545 1.408 . S
C1549 C1548 1.404 . S
C1549 H1561 0.930 . S
C1550 C1546 1.524 . S
C1550 H1562 0.956 . S
C1550 H1563 0.961 . S
C1550 H1564 0.961 . S
C1551 C1548 1.539 . S
C1551 H1565 0.958 . S
C1551 H1566 0.961 . S
C1551 H1567 0.960 . S
H1552 C1536 0.931 . S
H1553 C1541 0.929 . S
H1554 C1542 0.960 . S
H1555 C1542 0.962 . S
H1556 C1542 0.960 . S
H1557 C1543 0.961 . S
H1558 C1543 0.961 . S
H1559 C1543 0.961 . S
H1560 C1544 0.931 . S
H1561 C1549 0.930 . S
H1562 C1550 0.956 . S
H1563 C1550 0.961 . S
H1564 C1550 0.961 . S
H1565 C1551 0.958 . S
H1566 C1551 0.961 . S
H1567 C1551 0.960 . S
C1568 C1569 1.391 . S
C1568 C1570 1.394 . S
C1568 H1584 0.931 . S
C1569 C1568 1.391 . S
C1569 C1573 1.376 . S
C1570 C1568 1.394 . S
C1570 C1571 1.369 . S
C1570 C1574 1.531 . S
C1571 C1570 1.369 . S
C1571 C1572 1.410 . S
C1571 C1579 1.503 . S
C1572 C1571 1.410 . S
C1572 C1573 1.392 . S
C1572 C1575 1.511 . S
C1573 C1569 1.376 . S
C1573 C1572 1.392 . S
C1573 H1585 0.929 . S
C1574 C1570 1.531 . S
C1574 H1586 0.960 . S
C1574 H1587 0.962 . S
C1574 H1588 0.960 . S
C1575 C1572 1.511 . S
C1575 H1589 0.961 . S
C1575 H1590 0.961 . S
C1575 H1591 0.961 . S
C1576 C1577 1.370 . S
C1576 C1578 1.363 . S
C1576 H1592 0.931 . S
C1577 C1576 1.370 . S
C1577 C1581 1.408 . S
C1578 C1576 1.363 . S
C1578 C1579 1.370 . S
C1578 C1582 1.524 . S
C1579 C1571 1.503 . S
C1579 C1578 1.370 . S
C1579 C1580 1.403 . S
C1580 C1579 1.403 . S
C1580 C1581 1.404 . S
C1580 C1583 1.539 . S
C1581 C1577 1.408 . S
C1581 C1580 1.404 . S
C1581 H1593 0.930 . S
C1582 C1578 1.524 . S
C1582 H1594 0.956 . S
C1582 H1595 0.961 . S
C1582 H1596 0.961 . S
C1583 C1580 1.539 . S
C1583 H1597 0.958 . S
C1583 H1598 0.961 . S
C1583 H1599 0.960 . S
H1584 C1568 0.931 . S
H1585 C1573 0.929 . S
H1586 C1574 0.960 . S
H1587 C1574 0.962 . S
H1588 C1574 0.960 . S
H1589 C1575 0.961 . S
H1590 C1575 0.961 . S
H1591 C1575 0.961 . S
H1592 C1576 0.931 . S
H1593 C1581 0.930 . S
H1594 C1582 0.956 . S
H1595 C1582 0.961 . S
H1596 C1582 0.961 . S
H1597 C1583 0.958 . S
H1598 C1583 0.961 . S
H1599 C1583 0.960 . S
C1600 C1601 1.391 . S
C1600 C1602 1.394 . S
C1600 H1616 0.931 . S
C1601 C1600 1.391 . S
C1601 C1605 1.376 . S
C1602 C1600 1.394 . S
C1602 C1603 1.369 . S
C1602 C1606 1.531 . S
C1603 C1602 1.369 . S
C1603 C1604 1.410 . S
C1603 C1611 1.503 . S
C1604 C1603 1.410 . S
C1604 C1605 1.392 . S
C1604 C1607 1.511 . S
C1605 C1601 1.376 . S
C1605 C1604 1.392 . S
C1605 H1617 0.929 . S
C1606 C1602 1.531 . S
C1606 H1618 0.960 . S
C1606 H1619 0.962 . S
C1606 H1620 0.960 . S
C1607 C1604 1.511 . S
C1607 H1621 0.961 . S
C1607 H1622 0.961 . S
C1607 H1623 0.961 . S
C1608 C1609 1.370 . S
C1608 C1610 1.363 . S
C1608 H1624 0.931 . S
C1609 C1608 1.370 . S
C1609 C1613 1.408 . S
C1610 C1608 1.363 . S
C1610 C1611 1.370 . S
C1610 C1614 1.524 . S
C1611 C1603 1.503 . S
C1611 C1610 1.370 . S
C1611 C1612 1.403 . S
C1612 C1611 1.403 . S
C1612 C1613 1.404 . S
C1612 C1615 1.539 . S
C1613 C1609 1.408 . S
C1613 C1612 1.404 . S
C1613 H1625 0.930 . S
C1614 C1610 1.524 . S
C1614 H1626 0.956 . S
C1614 H1627 0.961 . S
C1614 H1628 0.961 . S
C1615 C1612 1.539 . S
C1615 H1629 0.958 . S
C1615 H1630 0.961 . S
C1615 H1631 0.960 . S
H1616 C1600 0.931 . S
H1617 C1605 0.929 . S
H1618 C1606 0.960 . S
H1619 C1606 0.962 . S
H1620 C1606 0.960 . S
H1621 C1607 0.961 . S
H1622 C1607 0.961 . S
H1623 C1607 0.961 . S
H1624 C1608 0.931 . S
H1625 C1613 0.930 . S
H1626 C1614 0.956 . S
H1627 C1614 0.961 . S
H1628 C1614 0.961 . S
H1629 C1615 0.958 . S
H1630 C1615 0.961 . S
H1631 C1615 0.960 . S
C1632 C1633 1.391 . S
C1632 C1634 1.394 . S
C1632 H1648 0.931 . S
C1633 C1632 1.391 . S
C1633 C1637 1.376 . S
C1634 C1632 1.394 . S
C1634 C1635 1.369 . S
C1634 C1638 1.531 . S
C1635 C1634 1.369 . S
C1635 C1636 1.410 . S
C1635 C1643 1.503 . S
C1636 C1635 1.410 . S
C1636 C1637 1.392 . S
C1636 C1639 1.511 . S
C1637 C1633 1.376 . S
C1637 C1636 1.392 . S
C1637 H1649 0.929 . S
C1638 C1634 1.531 . S
C1638 H1650 0.960 . S
C1638 H1651 0.962 . S
C1638 H1652 0.960 . S
C1639 C1636 1.511 . S
C1639 H1653 0.961 . S
C1639 H1654 0.961 . S
C1639 H1655 0.961 . S
C1640 C1641 1.370 . S
C1640 C1642 1.363 . S
C1640 H1656 0.931 . S
C1641 C1640 1.370 . S
C1641 C1645 1.408 . S
C1642 C1640 1.363 . S
C1642 C1643 1.370 . S
C1642 C1646 1.524 . S
C1643 C1635 1.503 . S
C1643 C1642 1.370 . S
C1643 C1644 1.403 . S
C1644 C1643 1.403 . S
C1644 C1645 1.404 . S
C1644 C1647 1.539 . S
C1645 C1641 1.408 . S
C1645 C1644 1.404 . S
C1645 H1657 0.930 . S
C1646 C1642 1.524 . S
C1646 H1658 0.956 . S
C1646 H1659 0.961 . S
C1646 H1660 0.961 . S
C1647 C1644 1.539 . S
C1647 H1661 0.958 . S
C1647 H1662 0.961 . S
C1647 H1663 0.960 . S
H1648 C1632 0.931 . S
H1649 C1637 0.929 . S
H1650 C1638 0.960 . S
H1651 C1638 0.962 . S
H1652 C1638 0.960 . S
H1653 C1639 0.961 . S
H1654 C1639 0.961 . S
H1655 C1639 0.961 . S
H1656 C1640 0.931 . S
H1657 C1645 0.930 . S
H1658 C1646 0.956 . S
H1659 C1646 0.961 . S
H1660 C1646 0.961 . S
H1661 C1647 0.958 . S
H1662 C1647 0.961 . S
H1663 C1647 0.960 . S
C1664 C1665 1.391 . S
C1664 C1666 1.394 . S
C1664 H1680 0.931 . S
C1665 C1664 1.391 . S
C1665 C1669 1.376 . S
C1666 C1664 1.394 . S
C1666 C1667 1.369 . S
C1666 C1670 1.531 . S
C1667 C1666 1.369 . S
C1667 C1668 1.410 . S
C1667 C1675 1.503 . S
C1668 C1667 1.410 . S
C1668 C1669 1.392 . S
C1668 C1671 1.511 . S
C1669 C1665 1.376 . S
C1669 C1668 1.392 . S
C1669 H1681 0.929 . S
C1670 C1666 1.531 . S
C1670 H1682 0.960 . S
C1670 H1683 0.962 . S
C1670 H1684 0.960 . S
C1671 C1668 1.511 . S
C1671 H1685 0.961 . S
C1671 H1686 0.961 . S
C1671 H1687 0.961 . S
C1672 C1673 1.370 . S
C1672 C1674 1.363 . S
C1672 H1688 0.931 . S
C1673 C1672 1.370 . S
C1673 C1677 1.408 . S
C1674 C1672 1.363 . S
C1674 C1675 1.370 . S
C1674 C1678 1.524 . S
C1675 C1667 1.503 . S
C1675 C1674 1.370 . S
C1675 C1676 1.403 . S
C1676 C1675 1.403 . S
C1676 C1677 1.404 . S
C1676 C1679 1.539 . S
C1677 C1673 1.408 . S
C1677 C1676 1.404 . S
C1677 H1689 0.930 . S
C1678 C1674 1.524 . S
C1678 H1690 0.956 . S
C1678 H1691 0.961 . S
C1678 H1692 0.961 . S
C1679 C1676 1.539 . S
C1679 H1693 0.958 . S
C1679 H1694 0.961 . S
C1679 H1695 0.960 . S
H1680 C1664 0.931 . S
H1681 C1669 0.929 . S
H1682 C1670 0.960 . S
H1683 C1670 0.962 . S
H1684 C1670 0.960 . S
H1685 C1671 0.961 . S
H1686 C1671 0.961 . S
H1687 C1671 0.961 . S
H1688 C1672 0.931 . S
H1689 C1677 0.930 . S
H1690 C1678 0.956 . S
H1691 C1678 0.961 . S
H1692 C1678 0.961 . S
H1693 C1679 0.958 . S
H1694 C1679 0.961 . S
H1695 C1679 0.960 . S
C1696 C1697 1.391 . S
C1696 C1698 1.394 . S
C1696 H1712 0.931 . S
C1697 C1696 1.391 . S
C1697 C1701 1.376 . S
C1698 C1696 1.394 . S
C1698 C1699 1.369 . S
C1698 C1702 1.531 . S
C1699 C1698 1.369 . S
C1699 C1700 1.410 . S
C1699 C1707 1.503 . S
C1700 C1699 1.410 . S
C1700 C1701 1.392 . S
C1700 C1703 1.511 . S
C1701 C1697 1.376 . S
C1701 C1700 1.392 . S
C1701 H1713 0.929 . S
C1702 C1698 1.531 . S
C1702 H1714 0.960 . S
C1702 H1715 0.962 . S
C1702 H1716 0.960 . S
C1703 C1700 1.511 . S
C1703 H1717 0.961 . S
C1703 H1718 0.961 . S
C1703 H1719 0.961 . S
C1704 C1705 1.370 . S
C1704 C1706 1.363 . S
C1704 H1720 0.931 . S
C1705 C1704 1.370 . S
C1705 C1709 1.408 . S
C1706 C1704 1.363 . S
C1706 C1707 1.370 . S
C1706 C1710 1.524 . S
C1707 C1699 1.503 . S
C1707 C1706 1.370 . S
C1707 C1708 1.403 . S
C1708 C1707 1.403 . S
C1708 C1709 1.404 . S
C1708 C1711 1.539 . S
C1709 C1705 1.408 . S
C1709 C1708 1.404 . S
C1709 H1721 0.930 . S
C1710 C1706 1.524 . S
C1710 H1722 0.956 . S
C1710 H1723 0.961 . S
C1710 H1724 0.961 . S
C1711 C1708 1.539 . S
C1711 H1725 0.958 . S
C1711 H1726 0.961 . S
C1711 H1727 0.960 . S
H1712 C1696 0.931 . S
H1713 C1701 0.929 . S
H1714 C1702 0.960 . S
H1715 C1702 0.962 . S
H1716 C1702 0.960 . S
H1717 C1703 0.961 . S
H1718 C1703 0.961 . S
H1719 C1703 0.961 . S
H1720 C1704 0.931 . S
H1721 C1709 0.930 . S
H1722 C1710 0.956 . S
H1723 C1710 0.961 . S
H1724 C1710 0.961 . S
H1725 C1711 0.958 . S
H1726 C1711 0.961 . S
H1727 C1711 0.960 . S
C1728 C1729 1.391 . S
C1728 C1730 1.394 . S
C1728 H1744 0.931 . S
C1729 C1728 1.391 . S
C1729 C1733 1.376 . S
C1730 C1728 1.394 . S
C1730 C1731 1.369 . S
C1730 C1734 1.531 . S
C1731 C1730 1.369 . S
C1731 C1732 1.410 . S
C1731 C1739 1.503 . S
C1732 C1731 1.410 . S
C1732 C1733 1.392 . S
C1732 C1735 1.511 . S
C1733 C1729 1.376 . S
C1733 C1732 1.392 . S
C1733 H1745 0.929 . S
C1734 C1730 1.531 . S
C1734 H1746 0.960 . S
C1734 H1747 0.962 . S
C1734 H1748 0.960 . S
C1735 C1732 1.511 . S
C1735 H1749 0.961 . S
C1735 H1750 0.961 . S
C1735 H1751 0.961 . S
C1736 C1737 1.370 . S
C1736 C1738 1.363 . S
C1736 H1752 0.931 . S
C1737 C1736 1.370 . S
C1737 C1741 1.408 . S
C1738 C1736 1.363 . S
C1738 C1739 1.370 . S
C1738 C1742 1.524 . S
C1739 C1731 1.503 . S
C1739 C1738 1.370 . S
C1739 C1740 1.403 . S
C1740 C1739 1.403 . S
C1740 C1741 1.404 . S
C1740 C1743 1.539 . S
C1741 C1737 1.408 . S
C1741 C1740 1.404 . S
C1741 H1753 0.930 . S
C1742 C1738 1.524 . S
C1742 H1754 0.956 . S
C1742 H1755 0.961 . S
C1742 H1756 0.961 . S
C1743 C1740 1.539 . S
C1743 H1757 0.958 . S
C1743 H1758 0.961 . S
C1743 H1759 0.960 . S
H1744 C1728 0.931 . S
H1745 C1733 0.929 . S
H1746 C1734 0.960 . S
H1747 C1734 0.962 . S
H1748 C1734 0.960 . S
H1749 C1735 0.961 . S
H1750 C1735 0.961 . S
H1751 C1735 0.961 . S
H1752 C1736 0.931 . S
H1753 C1741 0.930 . S
H1754 C1742 0.956 . S
H1755 C1742 0.961 . S
H1756 C1742 0.961 . S
H1757 C1743 0.958 . S
H1758 C1743 0.961 . S
H1759 C1743 0.960 . S
C1760 C1761 1.391 . S
C1760 C1762 1.394 . S
C1760 H1776 0.931 . S
C1761 C1760 1.391 . S
C1761 C1765 1.376 . S
C1762 C1760 1.394 . S
C1762 C1763 1.369 . S
C1762 C1766 1.531 . S
C1763 C1762 1.369 . S
C1763 C1764 1.410 . S
C1763 C1771 1.503 . S
C1764 C1763 1.410 . S
C1764 C1765 1.392 . S
C1764 C1767 1.511 . S
C1765 C1761 1.376 . S
C1765 C1764 1.392 . S
C1765 H1777 0.929 . S
C1766 C1762 1.531 . S
C1766 H1778 0.960 . S
C1766 H1779 0.962 . S
C1766 H1780 0.960 . S
C1767 C1764 1.511 . S
C1767 H1781 0.961 . S
C1767 H1782 0.961 . S
C1767 H1783 0.961 . S
C1768 C1769 1.370 . S
C1768 C1770 1.363 . S
C1768 H1784 0.931 . S
C1769 C1768 1.370 . S
C1769 C1773 1.408 . S
C1770 C1768 1.363 . S
C1770 C1771 1.370 . S
C1770 C1774 1.524 . S
C1771 C1763 1.503 . S
C1771 C1770 1.370 . S
C1771 C1772 1.403 . S
C1772 C1771 1.403 . S
C1772 C1773 1.404 . S
C1772 C1775 1.539 . S
C1773 C1769 1.408 . S
C1773 C1772 1.404 . S
C1773 H1785 0.930 . S
C1774 C1770 1.524 . S
C1774 H1786 0.956 . S
C1774 H1787 0.961 . S
C1774 H1788 0.961 . S
C1775 C1772 1.539 . S
C1775 H1789 0.958 . S
C1775 H1790 0.961 . S
C1775 H1791 0.960 . S
H1776 C1760 0.931 . S
H1777 C1765 0.929 . S
H1778 C1766 0.960 . S
H1779 C1766 0.962 . S
H1780 C1766 0.960 . S
H1781 C1767 0.961 . S
H1782 C1767 0.961 . S
H1783 C1767 0.961 . S
H1784 C1768 0.931 . S
H1785 C1773 0.930 . S
H1786 C1774 0.956 . S
H1787 C1774 0.961 . S
H1788 C1774 0.961 . S
H1789 C1775 0.958 . S
H1790 C1775 0.961 . S
H1791 C1775 0.960 . S
C1792 C1793 1.391 . S
C1792 C1794 1.394 . S
C1792 H1808 0.931 . S
C1793 C1792 1.391 . S
C1793 C1797 1.376 . S
C1794 C1792 1.394 . S
C1794 C1795 1.369 . S
C1794 C1798 1.531 . S
C1795 C1794 1.369 . S
C1795 C1796 1.410 . S
C1795 C1803 1.503 . S
C1796 C1795 1.410 . S
C1796 C1797 1.392 . S
C1796 C1799 1.511 . S
C1797 C1793 1.376 . S
C1797 C1796 1.392 . S
C1797 H1809 0.929 . S
C1798 C1794 1.531 . S
C1798 H1810 0.960 . S
C1798 H1811 0.962 . S
C1798 H1812 0.960 . S
C1799 C1796 1.511 . S
C1799 H1813 0.961 . S
C1799 H1814 0.961 . S
C1799 H1815 0.961 . S
C1800 C1801 1.370 . S
C1800 C1802 1.363 . S
C1800 H1816 0.931 . S
C1801 C1800 1.370 . S
C1801 C1805 1.408 . S
C1802 C1800 1.363 . S
C1802 C1803 1.370 . S
C1802 C1806 1.524 . S
C1803 C1795 1.503 . S
C1803 C1802 1.370 . S
C1803 C1804 1.403 . S
C1804 C1803 1.403 . S
C1804 C1805 1.404 . S
C1804 C1807 1.539 . S
C1805 C1801 1.408 . S
C1805 C1804 1.404 . S
C1805 H1817 0.930 . S
C1806 C1802 1.524 . S
C1806 H1818 0.956 . S
C1806 H1819 0.961 . S
C1806 H1820 0.961 . S
C1807 C1804 1.539 . S
C1807 H1821 0.958 . S
C1807 H1822 0.961 . S
C1807 H1823 0.960 . S
H1808 C1792 0.931 . S
H1809 C1797 0.929 . S
H1810 C1798 0.960 . S
H1811 C1798 0.962 . S
H1812 C1798 0.960 . S
H1813 C1799 0.961 . S
H1814 C1799 0.961 . S
H1815 C1799 0.961 . S
H1816 C1800 0.931 . S
H1817 C1805 0.930 . S
H1818 C1806 0.956 . S
H1819 C1806 0.961 . S
H1820 C1806 0.961 . S
H1821 C1807 0.958 . S
H1822 C1807 0.961 . S
H1823 C1807 0.960 . S
C1824 C1825 1.391 . S
C1824 C1826 1.394 . S
C1824 H1840 0.931 . S
C1825 C1824 1.391 . S
C1825 C1829 1.376 . S
C1826 C1824 1.394 . S
C1826 C1827 1.369 . S
C1826 C1830 1.531 . S
C1827 C1826 1.369 . S
C1827 C1828 1.410 . S
C1827 C1835 1.503 . S
C1828 C1827 1.410 . S
C1828 C1829 1.392 . S
C1828 C1831 1.511 . S
C1829 C1825 1.376 . S
C1829 C1828 1.392 . S
C1829 H1841 0.929 . S
C1830 C1826 1.531 . S
C1830 H1842 0.960 . S
C1830 H1843 0.962 . S
C1830 H1844 0.960 . S
C1831 C1828 1.511 . S
C1831 H1845 0.961 . S
C1831 H1846 0.961 . S
C1831 H1847 0.961 . S
C1832 C1833 1.370 . S
C1832 C1834 1.363 . S
C1832 H1848 0.931 . S
C1833 C1832 1.370 . S
C1833 C1837 1.408 . S
C1834 C1832 1.363 . S
C1834 C1835 1.370 . S
C1834 C1838 1.524 . S
C1835 C1827 1.503 . S
C1835 C1834 1.370 . S
C1835 C1836 1.403 . S
C1836 C1835 1.403 . S
C1836 C1837 1.404 . S
C1836 C1839 1.539 . S
C1837 C1833 1.408 . S
C1837 C1836 1.404 . S
C1837 H1849 0.930 . S
C1838 C1834 1.524 . S
C1838 H1850 0.956 . S
C1838 H1851 0.961 . S
C1838 H1852 0.961 . S
C1839 C1836 1.539 . S
C1839 H1853 0.958 . S
C1839 H1854 0.961 . S
C1839 H1855 0.960 . S
H1840 C1824 0.931 . S
H1841 C1829 0.929 . S
H1842 C1830 0.960 . S
H1843 C1830 0.962 . S
H1844 C1830 0.960 . S
H1845 C1831 0.961 . S
H1846 C1831 0.961 . S
H1847 C1831 0.961 . S
H1848 C1832 0.931 . S
H1849 C1837 0.930 . S
H1850 C1838 0.956 . S
H1851 C1838 0.961 . S
H1852 C1838 0.961 . S
H1853 C1839 0.958 . S
H1854 C1839 0.961 . S
H1855 C1839 0.960 . S
C321 C62 1.751 . S
C329 C18 1.778 . S
C353 C12 1.419 . S
C361 C22 1.385 . S
C385 C58 1.090 . S
C393 C38 1.139 . S
C417 C72 1.303 . S
C425 C52 1.246 . S
C449 C84 1.497 . S
C457 C104 1.484 . S
C481 C119 1.120 . S
C489 C139 1.107 . S
C513 C129 1.475 . S
C521 C144 1.407 . S
C545 C89 1.508 . S
C553 C159 1.519 . S
C577 C189 1.392 . S
C585 C2 1.334 . S
C609 C204 0.668 . S
C617 C32 0.722 . S
C641 C42 1.212 . S
C649 C269 1.199 . S
C673 C179 1.018 . S
C681 C78 1.007 . S
C705 C238 1.200 . S
C713 C99 1.192 . S
C737 C282 1.427 . S
C745 C109 1.465 . S
C769 C124 0.777 . S
C777 C252 0.715 . S
C801 C309 1.177 . S
C809 C149 1.182 . S
C833 C169 1.526 . S
C841 C279 1.525 . S
C865 C184 1.547 . S
C873 C164 1.567 . S
C897 C219 1.088 . S
C905 C199 1.113 . S
C929 C298 1.794 . S
C937 C222 1.776 . S
C961 C258 1.079 . S
C969 C319 1.094 . S
C993 C224 1.740 . S
C1001 C19 1.778 . S
C1025 C244 1.438 . S
C1033 C9 1.412 . S
C1057 C259 1.107 . S
C1065 C59 1.137 . S
C1089 C49 1.197 . S
C1097 C229 1.266 . S
C1121 C182 1.537 . S
C1129 C82 1.548 . S
C1153 C198 1.140 . S
C1161 C138 1.122 . S
C1185 C262 1.342 . S
C1193 C132 1.461 . S
C1217 C92 1.496 . S
C1225 C278 1.510 . S
C1249 C112 1.399 . S
C1257 C4 1.365 . S
C1281 C202 0.797 . S
C1289 C249 0.723 . S
C1313 C44 1.174 . S
C1321 C152 1.234 . S
C1345 C178 1.019 . S
C1353 C239 1.002 . S
C1377 C79 1.144 . S
C1385 C98 1.193 . S
C1409 C192 1.439 . S
C1417 C284 1.399 . S
C1441 C122 0.738 . S
C1449 C29 0.672 . S
C1473 C312 1.214 . S
C1481 C272 1.155 . S
C1505 C172 1.517 . S
C1513 C158 1.521 . S
C1537 C162 1.582 . S
C1545 C102 1.534 . S
C1569 C218 1.099 . S
C1577 C118 1.103 . S
C1601 C64 1.751 . S
C1609 C299 1.818 . S
C1633 C39 1.052 . S
C1641 C318 1.079 . S
C1665 C242 1.249 . S
C1673 C292 1.256 . S
C1697 C232 1.412 . S
C1705 C304 1.324 . S
C1729 C209 1.472 . S
C1737 C264 1.361 . S
C1761 C289 1.281 . S
C1769 C24 1.220 . S
C1793 C69 1.414 . S
C1801 C302 1.319 . S
C1825 C142 1.336 . S
C1833 C212 1.455 . S
