# Generated by pormake.
# Topology ecd, (8)-cn, num edge types: 1
# Building blocks:
#     Node 0, Type 0, BuildingBlock: TAGTUT_clean_sbu_3, # of connection points: 8
#     Node 1, Type 0, BuildingBlock: TAGTUT_clean_sbu_3, # of connection points: 8
#     Node 2, Type 0, BuildingBlock: TAGTUT_clean_sbu_3, # of connection points: 8
#     Node 3, Type 0, BuildingBlock: TAGTUT_clean_sbu_3, # of connection points: 8
#     Node 4, Type 0, BuildingBlock: TAGTUT_clean_sbu_3, # of connection points: 8
#     Node 5, Type 0, BuildingBlock: TAGTUT_clean_sbu_3, # of connection points: 8
#     Node 6, Type 0, BuildingBlock: TAGTUT_clean_sbu_3, # of connection points: 8
#     Node 7, Type 0, BuildingBlock: TAGTUT_clean_sbu_3, # of connection points: 8
#     Node 8, Type 0, BuildingBlock: TAGTUT_clean_sbu_3, # of connection points: 8
#     Node 9, Type 0, BuildingBlock: TAGTUT_clean_sbu_3, # of connection points: 8
#     Node 10, Type 0, BuildingBlock: TAGTUT_clean_sbu_3, # of connection points: 8
#     Node 11, Type 0, BuildingBlock: TAGTUT_clean_sbu_3, # of connection points: 8
#     Node 12, Type 0, BuildingBlock: TAGTUT_clean_sbu_3, # of connection points: 8
#     Node 13, Type 0, BuildingBlock: TAGTUT_clean_sbu_3, # of connection points: 8
#     Node 14, Type 0, BuildingBlock: TAGTUT_clean_sbu_3, # of connection points: 8
#     Node 15, Type 0, BuildingBlock: TAGTUT_clean_sbu_3, # of connection points: 8
#     Node 16, Type 0, BuildingBlock: TAGTUT_clean_sbu_3, # of connection points: 8
#     Node 17, Type 0, BuildingBlock: TAGTUT_clean_sbu_3, # of connection points: 8
#     Edge 18, Type (0, 0), None
#     Edge 19, Type (0, 0), None
#     Edge 20, Type (0, 0), None
#     Edge 21, Type (0, 0), None
#     Edge 22, Type (0, 0), None
#     Edge 23, Type (0, 0), None
#     Edge 24, Type (0, 0), None
#     Edge 25, Type (0, 0), None
#     Edge 26, Type (0, 0), None
#     Edge 27, Type (0, 0), None
#     Edge 28, Type (0, 0), None
#     Edge 29, Type (0, 0), None
#     Edge 30, Type (0, 0), None
#     Edge 31, Type (0, 0), None
#     Edge 32, Type (0, 0), None
#     Edge 33, Type (0, 0), None
#     Edge 34, Type (0, 0), None
#     Edge 35, Type (0, 0), None
#     Edge 36, Type (0, 0), None
#     Edge 37, Type (0, 0), None
#     Edge 38, Type (0, 0), None
#     Edge 39, Type (0, 0), None
#     Edge 40, Type (0, 0), None
#     Edge 41, Type (0, 0), None
#     Edge 42, Type (0, 0), None
#     Edge 43, Type (0, 0), None
#     Edge 44, Type (0, 0), None
#     Edge 45, Type (0, 0), None
#     Edge 46, Type (0, 0), None
#     Edge 47, Type (0, 0), None
#     Edge 48, Type (0, 0), None
#     Edge 49, Type (0, 0), None
#     Edge 50, Type (0, 0), None
#     Edge 51, Type (0, 0), None
#     Edge 52, Type (0, 0), None
#     Edge 53, Type (0, 0), None
#     Edge 54, Type (0, 0), None
#     Edge 55, Type (0, 0), None
#     Edge 56, Type (0, 0), None
#     Edge 57, Type (0, 0), None
#     Edge 58, Type (0, 0), None
#     Edge 59, Type (0, 0), None
#     Edge 60, Type (0, 0), None
#     Edge 61, Type (0, 0), None
#     Edge 62, Type (0, 0), None
#     Edge 63, Type (0, 0), None
#     Edge 64, Type (0, 0), None
#     Edge 65, Type (0, 0), None
#     Edge 66, Type (0, 0), None
#     Edge 67, Type (0, 0), None
#     Edge 68, Type (0, 0), None
#     Edge 69, Type (0, 0), None
#     Edge 70, Type (0, 0), None
#     Edge 71, Type (0, 0), None
#     Edge 72, Type (0, 0), None
#     Edge 73, Type (0, 0), None
#     Edge 74, Type (0, 0), None
#     Edge 75, Type (0, 0), None
#     Edge 76, Type (0, 0), None
#     Edge 77, Type (0, 0), None
#     Edge 78, Type (0, 0), None
#     Edge 79, Type (0, 0), None
#     Edge 80, Type (0, 0), None
#     Edge 81, Type (0, 0), None
#     Edge 82, Type (0, 0), None
#     Edge 83, Type (0, 0), None
#     Edge 84, Type (0, 0), None
#     Edge 85, Type (0, 0), None
#     Edge 86, Type (0, 0), None
#     Edge 87, Type (0, 0), None
#     Edge 88, Type (0, 0), None
#     Edge 89, Type (0, 0), None
# Relax obj value: 0.383
# Max RMSD: 0.297
# Mean RMSD: 0.293
data_MOF--net-ecd--node1-TAGTUT_clean_sbu_3--edge1-none
_symmetry_space_group_name_H-M    P1
_symmetry_Int_Tables_number       1
_symmetry_cell_setting            triclinic
loop_
_symmetry_equiv_pos_as_xyz
'x, y, z'
_cell_length_a     24.746886
_cell_length_b     24.939961
_cell_length_c     19.476926
_cell_angle_alpha  89.166913
_cell_angle_beta   88.943389
_cell_angle_gamma 120.05049
loop_
_atom_site_label
_atom_site_type_symbol
_atom_site_fract_x
_atom_site_fract_y
_atom_site_fract_z
_atom_type_partial_charge
C0 C 0.10601 0.49934 0.16959 0.0
C1 C 0.95262 0.45391 0.01523 0.0
C2 C 0.8728 0.49837 0.14072 0.0
Mg3 Mg 0.11238 0.5798 0.30926 0.0
Mg4 Mg 0.00596 0.56842 0.39681 0.0
O5 O 0.03725 0.5855 0.30699 0.0
Mg6 Mg -0.00328 0.52134 0.24252 0.0
O7 O 0.9734 0.46146 0.16946 0.0
Mg8 Mg 0.02365 0.53424 0.10415 0.0
Mg9 Mg 0.89125 0.39672 0.14728 0.0
C10 C 0.90914 0.57798 0.33533 0.0
O11 O 0.93981 0.42283 0.30294 0.0
O12 O 0.14145 0.66869 0.36474 0.0
O13 O 0.87766 0.34014 0.24044 0.0
O14 O 0.05129 0.51127 0.42034 0.0
O15 O 0.09103 0.6153 0.45407 0.0
O16 O 0.94858 0.47063 0.40647 0.0
O17 O 0.0555 0.61318 0.16959 0.0
O18 O 0.15016 0.64785 0.20942 0.0
C19 C 0.11483 0.65113 0.16367 0.0
C20 C 0.11785 0.66592 0.42341 0.0
O21 O 0.91059 0.54399 0.28459 0.0
O22 O 0.99584 0.45344 0.04617 0.0
O23 O 0.95226 0.60334 0.37792 0.0
O24 O 0.92866 0.52636 0.11566 0.0
O25 O 0.89733 0.4121 0.03371 0.0
O26 O 0.84508 0.44384 0.16636 0.0
O27 O 0.07871 0.50034 0.2275 0.0
O28 O 0.10955 0.5322 0.11768 0.0
C29 C 0.99414 0.49444 0.44479 0.0
C30 C 0.90133 0.36419 0.29819 0.0
C31 C 0.61239 0.52693 0.28865 0.0
C32 C 0.52874 0.53582 0.47308 0.0
C33 C 0.37575 0.48531 0.39503 0.0
Mg34 Mg 0.5469 0.43998 0.16362 0.0
Mg35 Mg 0.44912 0.43931 0.06789 0.0
O36 O 0.45943 0.42552 0.15927 0.0
Mg37 Mg 0.47326 0.49139 0.22294 0.0
O38 O 0.50526 0.53801 0.30843 0.0
Mg39 Mg 0.49992 0.46609 0.36686 0.0
Mg40 Mg 0.49279 0.5969 0.35311 0.0
C41 C 0.34015 0.44244 0.10972 0.0
O42 O 0.5174 0.59049 0.17149 0.0
O43 O 0.51382 0.35337 0.10664 0.0
O44 O 0.53683 0.65875 0.25551 0.0
O45 O 0.55493 0.50111 0.05414 0.0
O46 O 0.49682 0.39478 0.01781 0.0
O47 O 0.49193 0.53916 0.06323 0.0
O48 O 0.4395 0.39919 0.29115 0.0
O49 O 0.50785 0.37036 0.26252 0.0
C50 C 0.45941 0.36113 0.29831 0.0
C51 C 0.48065 0.34867 0.05653 0.0
O52 O 0.36936 0.46964 0.1664 0.0
O53 O 0.5672 0.53848 0.43023 0.0
O54 O 0.35842 0.41382 0.07087 0.0
O55 O 0.40802 0.45889 0.40413 0.0
O56 O 0.5069 0.57225 0.46219 0.0
O57 O 0.39629 0.53804 0.36439 0.0
O58 O 0.58125 0.52376 0.23464 0.0
O59 O 0.59102 0.47881 0.32662 0.0
C60 C 0.50605 0.50387 0.03241 0.0
C61 C 0.54007 0.64654 0.19117 0.0
C62 C 0.40236 0.91636 0.19743 0.0
C63 C 0.48428 0.03413 0.02351 0.0
C64 C 0.64334 0.13075 0.09187 0.0
Mg65 Mg 0.46633 0.89916 0.33033 0.0
Mg66 Mg 0.56296 0.00385 0.42213 0.0
O67 O 0.55237 0.97398 0.33395 0.0
Mg68 Mg 0.53646 0.02089 0.26314 0.0
O69 O 0.51413 0.04885 0.18117 0.0
Mg70 Mg 0.51803 0.98453 0.12038 0.0
Mg71 Mg 0.52704 0.1244 0.14247 0.0
C72 C 0.66731 0.1198 0.36196 0.0
O73 O 0.49109 0.07159 0.31701 0.0
O74 O 0.49518 0.84905 0.39579 0.0
O75 O 0.47918 0.13355 0.24101 0.0
O76 O 0.45625 0.94281 0.44387 0.0
O77 O 0.55014 0.92011 0.47282 0.0
O78 O 0.50307 0.04348 0.43064 0.0
O79 O 0.57415 0.96833 0.1936 0.0
O80 O 0.50839 0.8719 0.22978 0.0
C81 C 0.55346 0.91038 0.18855 0.0
C82 C 0.52577 0.86528 0.45 0.0
O83 O 0.63838 0.1082 0.30322 0.0
O84 O 0.44868 0.99818 0.06861 0.0
O85 O 0.64855 0.08105 0.41211 0.0
O86 O 0.60953 0.07218 0.08626 0.0
O87 O 0.50495 0.09186 0.03315 0.0
O88 O 0.62492 0.16377 0.12356 0.0
O89 O 0.43112 0.94431 0.25215 0.0
O90 O 0.4301 0.90033 0.15504 0.0
C91 C 0.4972 0.99813 0.46489 0.0
C92 C 0.47147 0.10921 0.30262 0.0
C93 C 0.89206 0.35554 0.79268 0.0
C94 C 0.99082 0.38878 0.60693 0.0
C95 C 0.97687 0.50858 0.51477 0.0
Mg96 Mg 0.93809 0.44938 0.87168 0.0
Mg97 Mg 0.07266 0.58899 0.87416 0.0
O98 O 0.00563 0.53136 0.82609 0.0
Mg99 Mg 0.00418 0.50187 0.73399 0.0
O100 O 0.98558 0.47337 0.6492 0.0
Mg101 Mg 0.88803 0.43167 0.65109 0.0
Mg102 Mg 0.0574 0.50717 0.57684 0.0
C103 C 0.09426 0.65336 0.71386 0.0
O104 O 0.09576 0.48046 0.69931 0.0
O105 O 0.92795 0.51058 0.9423 0.0
O106 O 0.14302 0.55613 0.62348 0.0
O107 O 0.02248 0.44709 0.91226 0.0
O108 O 0.02207 0.56039 0.97794 0.0
O109 O 0.11401 0.53369 0.88607 0.0
O110 O 0.91218 0.51583 0.73941 0.0
O111 O 0.85772 0.44895 0.8215 0.0
C112 C 0.87601 0.50174 0.79492 0.0
C113 C 0.96538 0.51512 0.98602 0.0
O114 O 0.05924 0.60183 0.68559 0.0
O115 O 0.98181 0.42721 0.64231 0.0
O116 O 0.10369 0.65594 0.77985 0.0
O117 O 0.91958 0.48227 0.53784 0.0
O118 O 0.03082 0.41228 0.55743 0.0
O119 O 0.01702 0.55531 0.54495 0.0
O120 O 0.94844 0.39953 0.79015 0.0
O121 O 0.85613 0.35708 0.7472 0.0
C122 C 0.0819 0.47772 0.90902 0.0
C123 C 0.13738 0.50661 0.64847 0.0
C124 C 0.38238 0.49441 0.68744 0.0
C125 C 0.48906 0.47309 0.5069 0.0
C126 C 0.63496 0.53771 0.60251 0.0
Mg127 Mg 0.45375 0.57189 0.82721 0.0
Mg128 Mg 0.56501 0.57014 0.90176 0.0
O129 O 0.53904 0.58391 0.8194 0.0
Mg130 Mg 0.51741 0.51916 0.75225 0.0
O131 O 0.48932 0.46867 0.67011 0.0
Mg132 Mg 0.50173 0.54314 0.60936 0.0
Mg133 Mg 0.52011 0.41897 0.63554 0.0
C134 C 0.66338 0.56106 0.83516 0.0
O135 O 0.47899 0.42111 0.81031 0.0
O136 O 0.49436 0.64943 0.90024 0.0
O137 O 0.47862 0.35473 0.73208 0.0
O138 O 0.44927 0.51308 0.9336 0.0
O139 O 0.55196 0.62675 0.969 0.0
O140 O 0.51491 0.47775 0.91827 0.0
O141 O 0.5468 0.609 0.68676 0.0
O142 O 0.4856 0.64248 0.72947 0.0
C143 C 0.52537 0.64599 0.68318 0.0
C144 C 0.52751 0.65902 0.9529 0.0
O145 O 0.62678 0.53784 0.78208 0.0
O146 O 0.44544 0.46778 0.54389 0.0
O147 O 0.65038 0.58548 0.88425 0.0
O148 O 0.59859 0.5578 0.58643 0.0
O149 O 0.51229 0.43867 0.52273 0.0
O150 O 0.61662 0.48575 0.63398 0.0
O151 O 0.41157 0.4937 0.74279 0.0
O152 O 0.41107 0.53127 0.63773 0.0
C153 C 0.48579 0.49393 0.95794 0.0
C154 C 0.46679 0.3662 0.79391 0.0
C155 C 0.4638 0.13073 0.80098 0.0
C156 C 0.45682 0.12177 0.53749 0.0
C157 C 0.51565 0.01294 0.53986 0.0
Mg158 Mg 0.4919 0.05718 0.88403 0.0
Mg159 Mg 0.48231 0.9176 0.87663 0.0
O160 O 0.4933 0.98858 0.82967 0.0
Mg161 Mg 0.46548 0.0054 0.74313 0.0
O162 O 0.45343 0.0414 0.66291 0.0
Mg163 Mg 0.53877 0.1176 0.65962 0.0
Mg164 Mg 0.45069 1.0001 0.58134 0.0
C165 C 0.50464 0.89573 0.71535 0.0
O166 O 0.35304 0.92185 0.70432 0.0
O167 O 0.55881 0.04658 0.9422 0.0
O168 O 0.37161 0.91909 0.59092 0.0
O169 O 0.39942 0.97378 0.92174 0.0
O170 O 0.50426 0.95435 0.98325 0.0
O171 O 0.38844 0.88141 0.89293 0.0
O172 O 0.57797 0.08151 0.74951 0.0
O173 O 0.58225 0.13202 0.84454 0.0
C174 C 0.60871 0.11415 0.8023 0.0
C175 C 0.52385 0.01235 0.98881 0.0
O176 O 0.49369 0.938 0.69299 0.0
O177 O 0.49606 0.15014 0.58381 0.0
O178 O 0.50286 0.88247 0.78034 0.0
O179 O 0.55451 0.06987 0.55683 0.0
O180 O 0.43677 0.06534 0.5228 0.0
O181 O 0.5219 0.97234 0.57135 0.0
O182 O 0.43712 0.07184 0.80735 0.0
O183 O 0.5042 0.15761 0.751 0.0
C184 C 0.36759 0.91483 0.91735 0.0
C185 C 0.33509 0.89824 0.6425 0.0
C186 C 0.7562 0.98396 0.53174 0.0
C187 C 0.71582 0.96179 0.75549 0.0
C188 C 0.65635 0.79061 0.77943 0.0
Mg189 Mg 0.71044 0.8865 0.45795 0.0
Mg190 Mg 0.59948 0.7469 0.48412 0.0
O191 O 0.67109 0.80932 0.5324 0.0
Mg192 Mg 0.62531 0.84485 0.57029 0.0
O193 O 0.66333 0.87102 0.65047 0.0
Mg194 Mg 0.74691 0.88284 0.64912 0.0
Mg195 Mg 0.60069 0.83327 0.7232 0.0
C196 C 0.54557 0.68985 0.62147 0.0
O197 O 0.55977 0.88486 0.61662 0.0
O198 O 0.7194 0.83874 0.37338 0.0
O199 O 0.5113 0.80878 0.69117 0.0
O200 O 0.61644 0.86791 0.43041 0.0
O201 O 0.61944 0.76932 0.37287 0.0
O202 O 0.54116 0.78528 0.48921 0.0
O203 O 0.72141 0.81758 0.5444 0.0
O204 O 0.80202 0.89808 0.49215 0.0
C205 C 0.77586 0.84064 0.50789 0.0
C206 C 0.66895 0.81357 0.343 0.0
O207 O 0.56051 0.74656 0.62955 0.0
O208 O 0.75559 0.9473 0.73245 0.0
O209 O 0.55809 0.67377 0.56371 0.0
O210 O 0.70395 0.80449 0.73888 0.0
O211 O 0.65636 0.92636 0.75734 0.0
O212 O 0.60387 0.75372 0.75728 0.0
O213 O 0.69873 0.9444 0.52764 0.0
O214 O 0.78868 0.97186 0.57277 0.0
C215 C 0.56226 0.83742 0.45853 0.0
C216 C 0.51886 0.85875 0.66607 0.0
C217 C 0.15451 0.96027 0.46664 0.0
C218 C 0.19452 0.80842 0.35141 0.0
C219 C 0.08932 0.70271 0.43766 0.0
Mg220 Mg 0.09501 0.90779 0.63058 0.0
Mg221 Mg 0.14246 0.82917 0.70836 0.0
O222 O 0.09144 0.82819 0.63526 0.0
Mg223 Mg 0.13463 0.83336 0.55635 0.0
O224 O 0.17731 0.84268 0.46324 0.0
Mg225 Mg 0.08937 0.82108 0.40047 0.0
Mg226 Mg 0.20701 0.78271 0.47958 0.0
C227 C 0.12372 0.71382 0.67267 0.0
O228 O 0.23087 0.8725 0.61288 0.0
O229 O 0.02612 0.86477 0.71732 0.0
O230 O 0.26795 0.81561 0.5717 0.0
O231 O 0.16108 0.92684 0.7314 0.0
O232 O 0.05762 0.80307 0.76748 0.0
O233 O 0.23818 0.9112 0.7302 0.0
O234 O 0.03777 0.79927 0.49857 0.0
O235 O 0.01508 0.86506 0.5483 0.0
C236 C 0.00231 0.82341 0.50297 0.0
C237 C 0.01967 0.82332 0.76144 0.0
O238 O 0.10452 0.72532 0.61482 0.0
O239 O 0.18107 0.83439 0.3997 0.0
O240 O 0.16091 0.75824 0.70751 0.0
O241 O 0.06516 0.71961 0.39075 0.0
O242 O 0.23146 0.78857 0.36761 0.0
O243 O 0.10875 0.73383 0.49027 0.0
O244 O 0.16392 0.94099 0.52646 0.0
O245 O 0.12297 0.92206 0.42024 0.0
C246 C 0.1829 0.89076 0.74967 0.0
C247 C 0.27069 0.85418 0.61663 0.0
C248 C 0.18756 0.21614 0.50905 0.0
C249 C 0.17229 0.20049 0.77293 0.0
C250 C 0.11665 0.32831 0.75867 0.0
Mg251 Mg 0.18144 0.30773 0.4276 0.0
Mg252 Mg 0.19461 0.44889 0.44044 0.0
O253 O 0.16726 0.37007 0.48325 0.0
Mg254 Mg 0.1884 0.34424 0.56923 0.0
O255 O 0.20029 0.29454 0.64175 0.0
Mg256 Mg 0.10847 0.22293 0.64654 0.0
Mg257 Mg 0.20672 0.33139 0.72184 0.0
C258 C 0.15635 0.47077 0.5965 0.0
O259 O 0.2955 0.42731 0.61069 0.0
O260 O 0.13248 0.32708 0.358 0.0
O261 O 0.29125 0.4084 0.72501 0.0
O262 O 0.28018 0.39369 0.40618 0.0
O263 O 0.19882 0.42076 0.32887 0.0
O264 O 0.28909 0.48307 0.44383 0.0
O265 O 0.08046 0.26487 0.55552 0.0
O266 O 0.08614 0.23271 0.45007 0.0
C267 C 0.05418 0.23075 0.50221 0.0
C268 C 0.17637 0.36245 0.31971 0.0
O269 O 0.16075 0.42313 0.61477 0.0
O270 O 0.13771 0.17695 0.72206 0.0
O271 O 0.1672 0.48919 0.5322 0.0
O272 O 0.09034 0.26928 0.75172 0.0
O273 O 0.19769 0.25752 0.7861 0.0
O274 O 0.13894 0.3577 0.70557 0.0
O275 O 0.21795 0.27615 0.50811 0.0
O276 O 0.14371 0.18687 0.55522 0.0
C277 C 0.31193 0.45196 0.41785 0.0
C278 C 0.31944 0.44139 0.67256 0.0
C279 C 0.79632 0.9635 -0.00401 0.0
C280 C 0.65486 0.83414 0.83076 0.0
C281 C 0.56474 0.72128 0.96895 0.0
Mg282 Mg 0.81734 0.90556 0.14114 0.0
Mg283 Mg 0.67914 0.7604 0.23196 0.0
O284 O 0.72372 0.84337 0.17126 0.0
Mg285 Mg 0.68653 0.84727 0.0875 0.0
O286 O 0.66472 0.86699 -0.00288 0.0
Mg287 Mg 0.71543 0.83342 0.94606 0.0
Mg288 Mg 0.58357 0.84402 0.97119 0.0
C289 C 0.59259 0.69431 0.14598 0.0
O290 O 0.63074 0.88859 0.14256 0.0
O291 O 0.85809 0.82824 0.21392 0.0
O292 O 0.55516 0.87577 0.07067 0.0
O293 O 0.71576 0.85836 0.22983 0.0
O294 O 0.76532 0.783 0.29919 0.0
O295 O 0.6145 0.79657 0.24834 0.0
O296 O 0.73239 0.79368 0.03285 0.0
O297 O 0.82996 0.84453 0.05689 0.0
C298 C 0.7866 0.79969 0.02635 0.0
C299 C 0.81594 0.8312 0.26573 0.0
O300 O 0.59452 0.74436 0.1228 0.0
O301 O 0.7054 0.87344 0.85484 0.0
O302 O 0.64354 0.69514 0.15459 0.0
O303 O 0.6212 0.74631 0.94572 0.0
O304 O 0.60275 0.82289 0.86091 0.0
O305 O 0.53907 0.75051 0.99236 0.0
O306 O 0.77491 0.94971 0.05934 0.0
O307 O 0.80287 0.9238 0.96202 0.0
C308 C 0.66594 0.83522 0.27314 0.0
C309 C 0.58012 0.88921 0.13083 0.0
C310 C 0.06043 0.82563 0.02934 0.0
C311 C 0.17057 0.86073 0.82224 0.0
C312 C 0.30313 0.88546 0.93474 0.0
Mg313 Mg 0.11571 0.88674 0.17709 0.0
Mg314 Mg 0.25352 0.92186 0.24471 0.0
O315 O 0.20576 0.91296 0.16943 0.0
Mg316 Mg 0.1985 0.86024 0.0926 0.0
O317 O 0.16727 0.82409 -0.0013 0.0
Mg318 Mg 0.18124 0.90584 0.95547 0.0
Mg319 Mg 0.18076 0.77091 0.94793 0.0
C320 C 0.35007 0.92471 0.17221 0.0
O321 O 0.16364 0.75978 0.1368 0.0
O322 O 0.12936 0.94483 0.27141 0.0
O323 O 0.14156 0.69901 0.04441 0.0
O324 O 0.12755 0.81952 0.26818 0.0
O325 O 0.21924 0.96712 0.30937 0.0
O326 O 0.2181 0.82752 0.24017 0.0
O327 O 0.22353 0.95374 0.04612 0.0
O328 O 0.14904 0.97054 0.08698 0.0
C329 C 0.19666 0.98594 0.0451 0.0
C330 C 0.18611 0.9845 0.277 0.0
O331 O 0.30891 0.88813 0.12792 0.0
O332 O 0.13788 0.87155 0.86212 0.0
O333 O 0.34197 0.96319 0.206 0.0
O334 O 0.27559 0.91699 0.92535 0.0
O335 O 0.18451 0.81854 0.84004 0.0
O336 O 0.27611 0.82824 0.95323 0.0
O337 O 0.09243 0.82502 0.08142 0.0
O338 O 0.08184 0.87347 0.98997 0.0
C339 C 0.17237 0.80742 0.28084 0.0
C340 C 0.14176 0.70578 0.11128 0.0
C341 C 0.16449 0.23176 -0.00194 0.0
C342 C 0.15883 0.36019 0.81667 0.0
C343 C 0.11357 0.44487 0.92618 0.0
Mg344 Mg 0.09618 0.22391 0.14217 0.0
Mg345 Mg 0.11267 0.33673 0.21541 0.0
O346 O 0.0787 0.29537 0.13713 0.0
Mg347 Mg 0.13312 0.33833 0.05738 0.0
O348 O 0.18056 0.36585 0.97119 0.0
Mg349 Mg 0.10607 0.30207 0.92145 0.0
Mg350 Mg 0.22855 0.44607 0.93032 0.0
C351 C 0.11125 0.44402 0.15594 0.0
O352 O 0.23263 0.40202 0.09702 0.0
O353 O 0.0218 0.18024 0.22069 0.0
O354 O 0.29697 0.46858 0.01572 0.0
O355 O 0.15925 0.27608 0.24637 0.0
O356 O 0.0428 0.26371 0.28092 0.0
O357 O 0.21221 0.37093 0.21035 0.0
O358 O 0.03609 0.26943 0.00283 0.0
O359 O 0.02252 0.18277 0.05241 0.0
C360 C 0.00692 0.20988 0.00599 0.0
C361 C 0.01034 0.20588 0.27005 0.0
O362 O 0.11596 0.42518 0.09439 0.0
O363 O 0.17591 0.32953 0.85044 0.0
O364 O 0.10683 0.41375 0.21014 0.0
O365 O 0.08916 0.38762 0.90897 0.0
O366 O 0.19295 0.41903 0.82152 0.0
O367 O 0.16756 0.47639 0.95083 0.0
O368 O 0.16464 0.26467 0.04907 0.0
O369 O 0.13649 0.2304 0.94335 0.0
C370 C 0.1916 0.33473 0.25962 0.0
C371 C 0.28704 0.44535 0.07789 0.0
C372 C 0.44046 0.31577 0.85004 0.0
C373 C 0.4144 0.3145 0.06591 0.0
C374 C 0.36553 0.17548 0.12648 0.0
Mg375 Mg 0.35829 0.20461 0.78002 0.0
Mg376 Mg 0.2218 0.06704 0.81885 0.0
O377 O 0.30402 0.1277 0.8427 0.0
Mg378 Mg 0.32446 0.17893 0.92159 0.0
O379 O 0.35721 0.229 -0.00478 0.0
Mg380 Mg 0.44977 0.24068 0.98545 0.0
Mg381 Mg 0.31011 0.21223 0.08608 0.0
C382 C 0.21575 0.0323 0.98425 0.0
O383 O 0.23547 0.19977 0.94477 0.0
O384 O 0.34362 0.12718 0.71753 0.0
O385 O 0.22612 0.20471 0.05969 0.0
O386 O 0.26331 0.19869 0.7715 0.0
O387 O 0.24513 0.08947 0.70318 0.0
O388 O 0.17819 0.11897 0.82349 0.0
O389 O 0.41207 0.15849 0.90074 0.0
O390 O 0.44768 0.21305 0.80267 0.0
C391 C 0.44346 0.17031 0.84127 0.0
C392 C 0.30208 0.1256 0.68171 0.0
O393 O 0.26411 0.08639 0.99045 0.0
O394 O 0.38753 0.27884 0.01576 0.0
O395 O 0.19325 0.0138 0.92376 0.0
O396 O 0.41726 0.18568 0.09656 0.0
O397 O 0.3845 0.3016 0.12327 0.0
O398 O 0.31452 0.1325 0.10521 0.0
O399 O 0.38173 0.27514 0.85433 0.0
O400 O 0.47793 0.31043 0.89044 0.0
C401 C 0.20631 0.17167 0.79323 0.0
C402 C 0.20798 0.20643 -0.00032 0.0
C403 C 0.94673 0.16866 0.96771 0.0
C404 C 0.85247 0.19993 0.1462 0.0
C405 C 0.7066 0.15822 0.06467 0.0
Mg406 Mg 0.88308 0.10681 0.81504 0.0
Mg407 Mg 0.78554 0.14676 0.74349 0.0
O408 O 0.80677 0.11392 0.82304 0.0
Mg409 Mg 0.81526 0.15436 0.90001 0.0
O410 O 0.8361 0.1955 0.9849 0.0
Mg411 Mg 0.82454 0.12066 0.042 0.0
Mg412 Mg 0.8297 0.26285 0.01943 0.0
C413 C 0.67711 0.13576 0.81187 0.0
O414 O 0.85015 0.25154 0.8422 0.0
O415 O 0.77078 0.05587 0.81035 0.0
O416 O 0.86569 0.32453 0.91742 0.0
O417 O 0.89045 0.16339 0.71014 0.0
O418 O 0.74283 0.05582 0.70396 0.0
O419 O 0.86778 0.23663 0.71889 0.0
O420 O 0.7819 0.05321 0.96084 0.0
O421 O 0.85203 0.03635 0.90576 0.0
C422 C 0.81029 0.02132 0.95387 0.0
C423 C 0.73793 0.02571 0.75886 0.0
O424 O 0.70236 0.13065 0.86944 0.0
O425 O 0.88842 0.19494 0.10542 0.0
O426 O 0.70918 0.1557 0.75713 0.0
O427 O 0.73348 0.12537 0.06937 0.0
O428 O 0.83978 0.24296 0.13197 0.0
O429 O 0.73234 0.21258 0.03679 0.0
O430 O 0.92495 0.18146 0.91199 0.0
O431 O 0.91004 0.12279 0.00543 0.0
C432 C 0.85337 0.18446 0.69568 0.0
C433 C 0.86705 0.30825 0.85427 0.0
C434 C 0.86191 0.54353 0.84262 0.0
C435 C 0.83886 0.52702 0.12352 0.0
C436 C 0.82217 0.66808 0.11069 0.0
Mg437 Mg 0.83855 0.63475 0.77254 0.0
Mg438 Mg 0.83535 0.76607 0.80967 0.0
O439 O 0.82227 0.68783 0.83986 0.0
Mg440 Mg 0.86234 0.66949 0.91482 0.0
O441 O 0.88069 0.6196 0.97977 0.0
Mg442 Mg 0.78973 0.5561 0.98416 0.0
Mg443 Mg 0.90977 0.65347 0.06416 0.0
C444 C 0.80334 0.76989 0.96776 0.0
O445 O 0.97008 0.75633 0.95603 0.0
O446 O 0.77738 0.65754 0.71889 0.0
O447 O -0.00051 0.71965 0.04658 0.0
O448 O 0.93047 0.72873 0.76271 0.0
O449 O 0.83233 0.75428 0.69522 0.0
O450 O 0.93032 0.80881 0.81543 0.0
O451 O 0.75738 0.59556 0.89663 0.0
O452 O 0.74877 0.55102 0.7955 0.0
C453 C 0.72383 0.5631 0.84558 0.0
C454 C 0.81499 0.69859 0.67873 0.0
O455 O 0.825 0.73236 0.98028 0.0
O456 O 0.81395 0.50972 0.06549 0.0
O457 O 0.79999 0.78677 0.90565 0.0
O458 O 0.78597 0.6166 0.07965 0.0
O459 O 0.86638 0.58317 0.14049 0.0
O460 O 0.8748 0.70758 0.08669 0.0
O461 O 0.88939 0.6038 0.83966 0.0
O462 O 0.82041 0.51448 0.89155 0.0
C463 C 0.95808 0.78376 0.78635 0.0
C464 C 0.00824 0.76419 0.00657 0.0
C465 C 0.19233 0.02609 0.43663 0.0
C466 C 0.21132 0.0218 0.21424 0.0
C467 C 0.36217 0.19419 0.19828 0.0
Mg468 Mg 0.27046 0.12123 0.52916 0.0
Mg469 Mg 0.40924 0.25883 0.514 0.0
O470 O 0.33085 0.20514 0.4787 0.0
Mg471 Mg 0.31905 0.15969 0.39462 0.0
O472 O 0.28611 0.10447 0.32026 0.0
Mg473 Mg 0.22296 0.1267 0.30479 0.0
Mg474 Mg 0.33376 0.0848 0.26016 0.0
C475 C 0.42977 0.31102 0.35443 0.0
O476 O 0.41111 0.14501 0.37061 0.0
O477 O 0.27986 0.18525 0.60748 0.0
O478 O 0.36773 0.04944 0.33408 0.0
O479 O 0.36245 0.1193 0.54361 0.0
O480 O 0.37832 0.2225 0.62518 0.0
O481 O 0.44765 0.20356 0.49786 0.0
O482 O 0.2399 0.19012 0.40842 0.0
O483 O 0.18822 0.12511 0.49627 0.0
C484 C 0.2028 0.17493 0.46388 0.0
C485 C 0.32064 0.18523 0.64354 0.0
O486 O 0.38583 0.25697 0.33757 0.0
O487 O 0.2007 0.06639 0.21001 0.0
O488 O 0.44487 0.32354 0.4182 0.0
O489 O 0.30988 0.19146 0.21951 0.0
O490 O 0.26358 0.03109 0.19061 0.0
O491 O 0.3916 0.17866 0.23816 0.0
O492 O 0.25136 0.05981 0.44662 0.0
O493 O 0.16786 0.04261 0.38804 0.0
C494 C 0.41926 0.1478 0.52012 0.0
C495 C 0.41667 0.09955 0.34681 0.0
C496 C 0.72337 0.17966 0.37768 0.0
C497 C 0.80564 0.14031 0.18227 0.0
C498 C 0.94636 0.17774 0.28965 0.0
Mg499 Mg 0.81884 0.26133 0.50713 0.0
Mg500 Mg 0.89225 0.19721 0.57338 0.0
O501 O 0.88582 0.23939 0.49565 0.0
Mg502 Mg 0.85123 0.18446 0.42547 0.0
O503 O 0.80602 0.13335 0.34667 0.0
Mg504 Mg 0.83108 0.21131 0.28669 0.0
Mg505 Mg 0.82254 0.07308 0.31201 0.0
C506 C 0.98531 0.19374 0.49614 0.0
O507 O 0.81063 0.08933 0.48735 0.0
O508 O 0.89364 0.33228 0.56655 0.0
O509 O 0.78345 0.01403 0.4106 0.0
O510 O 0.79494 0.20161 0.6092 0.0
O511 O 0.94313 0.28489 0.61292 0.0
O512 O 0.8036 0.11998 0.60447 0.0
O513 O 0.89011 0.27516 0.35947 0.0
O514 O 0.85599 0.32995 0.4122 0.0
C515 C 0.88494 0.32329 0.36127 0.0
C516 C 0.93824 0.33189 0.59822 0.0
O517 O 0.9575 0.19878 0.44172 0.0
O518 O 0.76572 0.14309 0.21927 0.0
O519 O 0.95561 0.17055 0.55192 0.0
O520 O 0.91781 0.20385 0.26382 0.0
O521 O 0.82125 0.09983 0.19945 0.0
O522 O 0.91911 0.12446 0.3191 0.0
O523 O 0.75385 0.18099 0.43217 0.0
O524 O 0.75051 0.2176 0.3278 0.0
C525 C 0.82589 0.17447 0.62478 0.0
C526 C 0.78675 0.03168 0.47359 0.0
C527 C 0.79022 0.80359 0.45564 0.0
C528 C 0.81671 0.8295 0.20114 0.0
C529 C 0.80627 0.67664 0.18007 0.0
Mg530 Mg 0.81474 0.72671 0.5372 0.0
Mg531 Mg 0.81641 0.59212 0.52373 0.0
O532 O 0.81903 0.66178 0.48056 0.0
Mg533 Mg 0.8102 0.68718 0.39005 0.0
O534 O 0.81135 0.72144 0.29981 0.0
Mg535 Mg 0.87954 0.8113 0.3226 0.0
Mg536 Mg 0.73537 0.69797 0.24358 0.0
C537 C 0.85517 0.5813 0.36336 0.0
O538 O 0.70437 0.59852 0.35558 0.0
O539 O 0.88666 0.72011 0.59233 0.0
O540 O 0.65294 0.63539 0.29559 0.0
O541 O 0.72468 0.63354 0.57671 0.0
O542 O 0.84342 0.62723 0.63107 0.0
O543 O 0.72297 0.54463 0.5504 0.0
O544 O 0.92177 0.76983 0.40763 0.0
O545 O 0.90187 0.81015 0.49755 0.0
C546 C 0.94053 0.80071 0.46463 0.0
C547 C 0.85831 0.68376 0.64051 0.0
O548 O 0.85054 0.62794 0.34244 0.0
O549 O 0.81619 0.87128 0.25226 0.0
O550 O 0.84144 0.5609 0.42666 0.0
O551 O 0.84284 0.72506 0.21859 0.0
O552 O 0.76683 0.78101 0.17331 0.0
O553 O 0.74936 0.64051 0.19427 0.0
O554 O 0.7652 0.74427 0.45477 0.0
O555 O 0.83532 0.83568 0.41341 0.0
C556 C 0.69838 0.57384 0.57731 0.0
C557 C 0.65677 0.58949 0.31881 0.0
loop_
_geom_bond_atom_site_label_1
_geom_bond_atom_site_label_2
_geom_bond_distance
_geom_bond_site_symmetry_2
_ccdc_geom_bond_type
C0 O27 1.312 . S
C0 O28 1.208 . S
C1 O22 1.323 1_655 S
C1 O25 1.244 . S
C2 O24 1.264 . S
C2 O26 1.273 . S
Mg3 O5 1.936 . S
Mg3 O12 2.081 . S
Mg3 O14 2.023 . S
Mg3 O18 2.031 . S
Mg3 O27 2.291 . S
Mg4 O5 1.963 1_655 S
Mg4 O15 1.942 1_655 S
Mg4 O16 1.955 1_655 S
Mg4 O23 1.986 . S
O5 Mg3 1.936 . S
O5 Mg4 1.963 1_455 S
O5 Mg6 1.915 . S
Mg6 O5 1.915 . S
Mg6 O7 1.915 1_455 S
Mg6 O11 2.013 1_455 S
Mg6 O17 2.114 . S
Mg6 O21 2.013 1_455 S
Mg6 O27 2.114 . S
O7 Mg6 1.915 1_655 S
O7 Mg8 1.936 1_655 S
O7 Mg9 1.963 . S
Mg8 O7 1.936 1_455 S
Mg8 O17 2.291 . S
Mg8 O22 2.081 . S
Mg8 O24 2.023 1_455 S
Mg8 O28 2.031 . S
Mg9 O7 1.963 . S
Mg9 O13 1.986 . S
Mg9 O25 1.942 . S
Mg9 O26 1.955 . S
C10 O21 1.191 . S
C10 O23 1.307 . S
O11 Mg6 2.013 1_655 S
O11 C30 1.191 . S
O12 Mg3 2.081 . S
O12 C20 1.331 . S
O13 Mg9 1.986 . S
O13 C30 1.307 . S
O14 Mg3 2.023 . S
O14 C29 1.264 . S
O15 Mg4 1.942 1_455 S
O15 C20 1.244 . S
O16 Mg4 1.955 1_455 S
O16 C29 1.273 . S
O17 Mg6 2.114 . S
O17 Mg8 2.291 . S
O17 C19 1.312 . S
O18 Mg3 2.031 . S
O18 C19 1.208 . S
C19 O17 1.312 . S
C19 O18 1.208 . S
C20 O12 1.331 . S
C20 O15 1.244 . S
O21 Mg6 2.013 1_655 S
O21 C10 1.191 . S
O22 C1 1.323 1_455 S
O22 Mg8 2.081 . S
O23 Mg4 1.986 . S
O23 C10 1.307 . S
O24 C2 1.264 . S
O24 Mg8 2.023 1_655 S
O25 C1 1.244 . S
O25 Mg9 1.942 . S
O26 C2 1.273 . S
O26 Mg9 1.955 . S
O27 C0 1.312 . S
O27 Mg3 2.291 . S
O27 Mg6 2.114 . S
O28 C0 1.208 . S
O28 Mg8 2.031 . S
C29 O14 1.264 . S
C29 O16 1.273 . S
C30 O11 1.191 . S
C30 O13 1.307 . S
C31 O58 1.312 . S
C31 O59 1.208 . S
C32 O53 1.331 . S
C32 O56 1.244 . S
C33 O55 1.264 . S
C33 O57 1.273 . S
Mg34 O36 1.936 . S
Mg34 O43 2.081 . S
Mg34 O45 2.023 . S
Mg34 O49 2.031 . S
Mg34 O58 2.291 . S
Mg35 O36 1.963 . S
Mg35 O46 1.942 . S
Mg35 O47 1.955 . S
Mg35 O54 1.986 . S
O36 Mg34 1.936 . S
O36 Mg35 1.963 . S
O36 Mg37 1.915 . S
Mg37 O36 1.915 . S
Mg37 O38 1.915 . S
Mg37 O42 2.013 . S
Mg37 O48 2.114 . S
Mg37 O52 2.013 . S
Mg37 O58 2.114 . S
O38 Mg37 1.915 . S
O38 Mg39 1.936 . S
O38 Mg40 1.963 . S
Mg39 O38 1.936 . S
Mg39 O48 2.291 . S
Mg39 O53 2.081 . S
Mg39 O55 2.023 . S
Mg39 O59 2.031 . S
Mg40 O38 1.963 . S
Mg40 O44 1.986 . S
Mg40 O56 1.942 . S
Mg40 O57 1.955 . S
C41 O52 1.191 . S
C41 O54 1.307 . S
O42 Mg37 2.013 . S
O42 C61 1.191 . S
O43 Mg34 2.081 . S
O43 C51 1.331 . S
O44 Mg40 1.986 . S
O44 C61 1.307 . S
O45 Mg34 2.023 . S
O45 C60 1.264 . S
O46 Mg35 1.942 . S
O46 C51 1.244 . S
O47 Mg35 1.955 . S
O47 C60 1.273 . S
O48 Mg37 2.114 . S
O48 Mg39 2.291 . S
O48 C50 1.312 . S
O49 Mg34 2.031 . S
O49 C50 1.208 . S
C50 O48 1.312 . S
C50 O49 1.208 . S
C51 O43 1.331 . S
C51 O46 1.244 . S
O52 Mg37 2.013 . S
O52 C41 1.191 . S
O53 C32 1.331 . S
O53 Mg39 2.081 . S
O54 Mg35 1.986 . S
O54 C41 1.307 . S
O55 C33 1.264 . S
O55 Mg39 2.023 . S
O56 C32 1.244 . S
O56 Mg40 1.942 . S
O57 C33 1.273 . S
O57 Mg40 1.955 . S
O58 C31 1.312 . S
O58 Mg34 2.291 . S
O58 Mg37 2.114 . S
O59 C31 1.208 . S
O59 Mg39 2.031 . S
C60 O45 1.264 . S
C60 O47 1.273 . S
C61 O42 1.191 . S
C61 O44 1.307 . S
C62 O89 1.312 . S
C62 O90 1.208 . S
C63 O84 1.331 . S
C63 O87 1.244 . S
C64 O86 1.264 . S
C64 O88 1.273 . S
Mg65 O67 1.936 . S
Mg65 O74 2.081 . S
Mg65 O76 2.023 . S
Mg65 O80 2.031 . S
Mg65 O89 2.291 . S
Mg66 O67 1.963 1_545 S
Mg66 O77 1.942 1_545 S
Mg66 O78 1.955 . S
Mg66 O85 1.986 . S
O67 Mg65 1.936 . S
O67 Mg66 1.963 1_565 S
O67 Mg68 1.915 1_565 S
Mg68 O67 1.915 1_545 S
Mg68 O69 1.915 . S
Mg68 O73 2.013 . S
Mg68 O79 2.114 1_545 S
Mg68 O83 2.013 . S
Mg68 O89 2.114 1_545 S
O69 Mg68 1.915 . S
O69 Mg70 1.936 1_545 S
O69 Mg71 1.963 . S
Mg70 O69 1.936 1_565 S
Mg70 O79 2.291 . S
Mg70 O84 2.081 1_565 S
Mg70 O86 2.023 1_565 S
Mg70 O90 2.031 . S
Mg71 O69 1.963 . S
Mg71 O75 1.986 . S
Mg71 O87 1.942 . S
Mg71 O88 1.955 . S
C72 O83 1.191 . S
C72 O85 1.307 . S
O73 Mg68 2.013 . S
O73 C92 1.191 . S
O74 Mg65 2.081 . S
O74 C82 1.331 . S
O75 Mg71 1.986 . S
O75 C92 1.307 . S
O76 Mg65 2.023 . S
O76 C91 1.264 . S
O77 Mg66 1.942 1_565 S
O77 C82 1.244 . S
O78 Mg66 1.955 . S
O78 C91 1.273 1_545 S
O79 Mg68 2.114 1_565 S
O79 Mg70 2.291 . S
O79 C81 1.312 . S
O80 Mg65 2.031 . S
O80 C81 1.208 . S
C81 O79 1.312 . S
C81 O80 1.208 . S
C82 O74 1.331 . S
C82 O77 1.244 . S
O83 Mg68 2.013 . S
O83 C72 1.191 . S
O84 C63 1.331 . S
O84 Mg70 2.081 1_545 S
O85 Mg66 1.986 . S
O85 C72 1.307 . S
O86 C64 1.264 . S
O86 Mg70 2.023 1_545 S
O87 C63 1.244 . S
O87 Mg71 1.942 . S
O88 C64 1.273 . S
O88 Mg71 1.955 . S
O89 C62 1.312 . S
O89 Mg65 2.291 . S
O89 Mg68 2.114 1_565 S
O90 C62 1.208 . S
O90 Mg70 2.031 . S
C91 O76 1.264 . S
C91 O78 1.273 1_565 S
C92 O73 1.191 . S
C92 O75 1.307 . S
C93 O120 1.312 . S
C93 O121 1.208 . S
C94 O115 1.331 . S
C94 O118 1.244 . S
C95 O117 1.264 . S
C95 O119 1.273 1_655 S
Mg96 O98 1.936 1_655 S
Mg96 O105 2.081 1_655 S
Mg96 O107 2.023 1_655 S
Mg96 O111 2.031 . S
Mg96 O120 2.291 . S
Mg97 O98 1.963 . S
Mg97 O108 1.942 . S
Mg97 O109 1.955 . S
Mg97 O116 1.986 . S
O98 Mg96 1.936 1_455 S
O98 Mg97 1.963 . S
O98 Mg99 1.915 . S
Mg99 O98 1.915 . S
Mg99 O100 1.915 1_455 S
Mg99 O104 2.013 . S
Mg99 O110 2.114 1_455 S
Mg99 O114 2.013 . S
Mg99 O120 2.114 1_455 S
O100 Mg99 1.915 1_655 S
O100 Mg101 1.936 . S
O100 Mg102 1.963 1_655 S
Mg101 O100 1.936 . S
Mg101 O110 2.291 . S
Mg101 O115 2.081 . S
Mg101 O117 2.023 . S
Mg101 O121 2.031 . S
Mg102 O100 1.963 1_455 S
Mg102 O106 1.986 . S
Mg102 O118 1.942 1_455 S
Mg102 O119 1.955 . S
C103 O114 1.191 . S
C103 O116 1.307 . S
O104 Mg99 2.013 . S
O104 C123 1.191 . S
O105 Mg96 2.081 1_455 S
O105 C113 1.331 . S
O106 Mg102 1.986 . S
O106 C123 1.307 . S
O107 Mg96 2.023 1_455 S
O107 C122 1.264 . S
O108 Mg97 1.942 . S
O108 C113 1.244 . S
O109 Mg97 1.955 . S
O109 C122 1.273 . S
O110 Mg99 2.114 1_655 S
O110 Mg101 2.291 . S
O110 C112 1.312 . S
O111 Mg96 2.031 . S
O111 C112 1.208 . S
C112 O110 1.312 . S
C112 O111 1.208 . S
C113 O105 1.331 . S
C113 O108 1.244 . S
O114 Mg99 2.013 . S
O114 C103 1.191 . S
O115 C94 1.331 . S
O115 Mg101 2.081 . S
O116 Mg97 1.986 . S
O116 C103 1.307 . S
O117 C95 1.264 . S
O117 Mg101 2.023 . S
O118 C94 1.244 . S
O118 Mg102 1.942 1_655 S
O119 C95 1.273 1_455 S
O119 Mg102 1.955 . S
O120 C93 1.312 . S
O120 Mg96 2.291 . S
O120 Mg99 2.114 1_655 S
O121 C93 1.208 . S
O121 Mg101 2.031 . S
C122 O107 1.264 . S
C122 O109 1.273 . S
C123 O104 1.191 . S
C123 O106 1.307 . S
C124 O151 1.312 . S
C124 O152 1.208 . S
C125 O146 1.331 . S
C125 O149 1.244 . S
C126 O148 1.264 . S
C126 O150 1.273 . S
Mg127 O129 1.936 . S
Mg127 O136 2.081 . S
Mg127 O138 2.023 . S
Mg127 O142 2.031 . S
Mg127 O151 2.291 . S
Mg128 O129 1.963 . S
Mg128 O139 1.942 . S
Mg128 O140 1.955 . S
Mg128 O147 1.986 . S
O129 Mg127 1.936 . S
O129 Mg128 1.963 . S
O129 Mg130 1.915 . S
Mg130 O129 1.915 . S
Mg130 O131 1.915 . S
Mg130 O135 2.013 . S
Mg130 O141 2.114 . S
Mg130 O145 2.013 . S
Mg130 O151 2.114 . S
O131 Mg130 1.915 . S
O131 Mg132 1.936 . S
O131 Mg133 1.963 . S
Mg132 O131 1.936 . S
Mg132 O141 2.291 . S
Mg132 O146 2.081 . S
Mg132 O148 2.023 . S
Mg132 O152 2.031 . S
Mg133 O131 1.963 . S
Mg133 O137 1.986 . S
Mg133 O149 1.942 . S
Mg133 O150 1.955 . S
C134 O145 1.191 . S
C134 O147 1.307 . S
O135 Mg130 2.013 . S
O135 C154 1.191 . S
O136 Mg127 2.081 . S
O136 C144 1.331 . S
O137 Mg133 1.986 . S
O137 C154 1.307 . S
O138 Mg127 2.023 . S
O138 C153 1.264 . S
O139 Mg128 1.942 . S
O139 C144 1.244 . S
O140 Mg128 1.955 . S
O140 C153 1.273 . S
O141 Mg130 2.114 . S
O141 Mg132 2.291 . S
O141 C143 1.312 . S
O142 Mg127 2.031 . S
O142 C143 1.208 . S
C143 O141 1.312 . S
C143 O142 1.208 . S
C144 O136 1.331 . S
C144 O139 1.244 . S
O145 Mg130 2.013 . S
O145 C134 1.191 . S
O146 C125 1.331 . S
O146 Mg132 2.081 . S
O147 Mg128 1.986 . S
O147 C134 1.307 . S
O148 C126 1.264 . S
O148 Mg132 2.023 . S
O149 C125 1.244 . S
O149 Mg133 1.942 . S
O150 C126 1.273 . S
O150 Mg133 1.955 . S
O151 C124 1.312 . S
O151 Mg127 2.291 . S
O151 Mg130 2.114 . S
O152 C124 1.208 . S
O152 Mg132 2.031 . S
C153 O138 1.264 . S
C153 O140 1.273 . S
C154 O135 1.191 . S
C154 O137 1.307 . S
C155 O182 1.312 . S
C155 O183 1.208 . S
C156 O177 1.331 . S
C156 O180 1.244 . S
C157 O179 1.264 . S
C157 O181 1.273 . S
Mg158 O160 1.936 1_545 S
Mg158 O167 2.082 1_545 S
Mg158 O169 2.023 1_545 S
Mg158 O173 2.031 . S
Mg158 O182 2.291 . S
Mg159 O160 1.963 . S
Mg159 O170 1.942 . S
Mg159 O171 1.955 . S
Mg159 O178 1.986 . S
O160 Mg158 1.936 1_565 S
O160 Mg159 1.963 . S
O160 Mg161 1.915 1_565 S
Mg161 O160 1.915 1_545 S
Mg161 O162 1.915 . S
Mg161 O166 2.013 1_545 S
Mg161 O172 2.114 . S
Mg161 O176 2.013 1_545 S
Mg161 O182 2.114 . S
O162 Mg161 1.915 . S
O162 Mg163 1.936 . S
O162 Mg164 1.963 1_545 S
Mg163 O162 1.936 . S
Mg163 O172 2.291 . S
Mg163 O177 2.081 . S
Mg163 O179 2.023 . S
Mg163 O183 2.031 . S
Mg164 O162 1.963 1_565 S
Mg164 O168 1.986 . S
Mg164 O180 1.942 1_565 S
Mg164 O181 1.955 1_565 S
C165 O176 1.191 . S
C165 O178 1.307 . S
O166 Mg161 2.013 1_565 S
O166 C185 1.191 . S
O167 Mg158 2.082 1_565 S
O167 C175 1.329 . S
O168 Mg164 1.986 . S
O168 C185 1.307 . S
O169 Mg158 2.023 1_565 S
O169 C184 1.264 . S
O170 Mg159 1.942 . S
O170 C175 1.244 . S
O171 Mg159 1.955 . S
O171 C184 1.273 . S
O172 Mg161 2.114 . S
O172 Mg163 2.291 . S
O172 C174 1.312 . S
O173 Mg158 2.031 . S
O173 C174 1.208 . S
C174 O172 1.312 . S
C174 O173 1.208 . S
C175 O167 1.329 . S
C175 O170 1.244 . S
O176 Mg161 2.013 1_565 S
O176 C165 1.191 . S
O177 C156 1.331 . S
O177 Mg163 2.081 . S
O178 Mg159 1.986 . S
O178 C165 1.307 . S
O179 C157 1.264 . S
O179 Mg163 2.023 . S
O180 C156 1.244 . S
O180 Mg164 1.942 1_545 S
O181 C157 1.273 . S
O181 Mg164 1.955 1_545 S
O182 C155 1.312 . S
O182 Mg158 2.291 . S
O182 Mg161 2.114 . S
O183 C155 1.208 . S
O183 Mg163 2.031 . S
C184 O169 1.264 . S
C184 O171 1.273 . S
C185 O166 1.191 . S
C185 O168 1.307 . S
C186 O213 1.312 1_545 S
C186 O214 1.208 . S
C187 O208 1.331 . S
C187 O211 1.244 1_545 S
C188 O210 1.264 . S
C188 O212 1.273 . S
Mg189 O191 1.936 . S
Mg189 O198 2.081 . S
Mg189 O200 2.023 . S
Mg189 O204 2.031 . S
Mg189 O213 2.291 . S
Mg190 O191 1.963 . S
Mg190 O201 1.942 . S
Mg190 O202 1.955 . S
Mg190 O209 1.986 . S
O191 Mg189 1.936 . S
O191 Mg190 1.963 . S
O191 Mg192 1.915 . S
Mg192 O191 1.915 . S
Mg192 O193 1.915 . S
Mg192 O197 2.013 . S
Mg192 O203 2.114 . S
Mg192 O207 2.013 . S
Mg192 O213 2.114 . S
O193 Mg192 1.915 . S
O193 Mg194 1.936 . S
O193 Mg195 1.963 . S
Mg194 O193 1.936 . S
Mg194 O203 2.291 . S
Mg194 O208 2.081 1_565 S
Mg194 O210 2.023 . S
Mg194 O214 2.031 1_565 S
Mg195 O193 1.963 . S
Mg195 O199 1.986 . S
Mg195 O211 1.942 . S
Mg195 O212 1.955 . S
C196 O207 1.191 . S
C196 O209 1.307 . S
O197 Mg192 2.013 . S
O197 C216 1.191 . S
O198 Mg189 2.081 . S
O198 C206 1.331 . S
O199 Mg195 1.986 . S
O199 C216 1.307 . S
O200 Mg189 2.023 . S
O200 C215 1.264 . S
O201 Mg190 1.942 . S
O201 C206 1.244 . S
O202 Mg190 1.955 . S
O202 C215 1.273 . S
O203 Mg192 2.114 . S
O203 Mg194 2.291 . S
O203 C205 1.312 . S
O204 Mg189 2.031 . S
O204 C205 1.208 . S
C205 O203 1.312 . S
C205 O204 1.208 . S
C206 O198 1.331 . S
C206 O201 1.244 . S
O207 Mg192 2.013 . S
O207 C196 1.191 . S
O208 C187 1.331 . S
O208 Mg194 2.081 1_545 S
O209 Mg190 1.986 . S
O209 C196 1.307 . S
O210 C188 1.264 . S
O210 Mg194 2.023 . S
O211 C187 1.244 1_565 S
O211 Mg195 1.942 . S
O212 C188 1.273 . S
O212 Mg195 1.955 . S
O213 C186 1.312 1_565 S
O213 Mg189 2.291 . S
O213 Mg192 2.114 . S
O214 C186 1.208 . S
O214 Mg194 2.031 1_545 S
C215 O200 1.264 . S
C215 O202 1.273 . S
C216 O197 1.191 . S
C216 O199 1.307 . S
C217 O244 1.312 . S
C217 O245 1.208 . S
C218 O239 1.331 . S
C218 O242 1.244 . S
C219 O241 1.264 . S
C219 O243 1.273 . S
Mg220 O222 1.936 . S
Mg220 O229 2.081 1_455 S
Mg220 O231 2.023 . S
Mg220 O235 2.031 1_455 S
Mg220 O244 2.291 . S
Mg221 O222 1.963 . S
Mg221 O232 1.942 . S
Mg221 O233 1.955 . S
Mg221 O240 1.986 . S
O222 Mg220 1.936 . S
O222 Mg221 1.963 . S
O222 Mg223 1.915 . S
Mg223 O222 1.915 . S
Mg223 O224 1.915 . S
Mg223 O228 2.013 . S
Mg223 O234 2.114 . S
Mg223 O238 2.013 . S
Mg223 O244 2.114 . S
O224 Mg223 1.915 . S
O224 Mg225 1.936 . S
O224 Mg226 1.963 . S
Mg225 O224 1.936 . S
Mg225 O234 2.291 . S
Mg225 O239 2.081 . S
Mg225 O241 2.023 . S
Mg225 O245 2.031 . S
Mg226 O224 1.963 . S
Mg226 O230 1.986 . S
Mg226 O242 1.942 . S
Mg226 O243 1.955 . S
C227 O238 1.191 . S
C227 O240 1.307 . S
O228 Mg223 2.013 . S
O228 C247 1.191 . S
O229 Mg220 2.081 1_655 S
O229 C237 1.331 . S
O230 Mg226 1.986 . S
O230 C247 1.307 . S
O231 Mg220 2.023 . S
O231 C246 1.264 . S
O232 Mg221 1.942 . S
O232 C237 1.244 1_455 S
O233 Mg221 1.955 . S
O233 C246 1.273 . S
O234 Mg223 2.114 . S
O234 Mg225 2.291 . S
O234 C236 1.312 1_455 S
O235 Mg220 2.031 1_655 S
O235 C236 1.208 . S
C236 O234 1.312 1_655 S
C236 O235 1.208 . S
C237 O229 1.331 . S
C237 O232 1.244 1_655 S
O238 Mg223 2.013 . S
O238 C227 1.191 . S
O239 C218 1.331 . S
O239 Mg225 2.081 . S
O240 Mg221 1.986 . S
O240 C227 1.307 . S
O241 C219 1.264 . S
O241 Mg225 2.023 . S
O242 C218 1.244 . S
O242 Mg226 1.942 . S
O243 C219 1.273 . S
O243 Mg226 1.955 . S
O244 C217 1.312 . S
O244 Mg220 2.291 . S
O244 Mg223 2.114 . S
O245 C217 1.208 . S
O245 Mg225 2.031 . S
C246 O231 1.264 . S
C246 O233 1.273 . S
C247 O228 1.191 . S
C247 O230 1.307 . S
C248 O275 1.312 . S
C248 O276 1.208 . S
C249 O270 1.331 . S
C249 O273 1.244 . S
C250 O272 1.264 . S
C250 O274 1.273 . S
Mg251 O253 1.936 . S
Mg251 O260 2.081 . S
Mg251 O262 2.023 . S
Mg251 O266 2.031 . S
Mg251 O275 2.291 . S
Mg252 O253 1.963 . S
Mg252 O263 1.942 . S
Mg252 O264 1.955 . S
Mg252 O271 1.986 . S
O253 Mg251 1.936 . S
O253 Mg252 1.963 . S
O253 Mg254 1.915 . S
Mg254 O253 1.915 . S
Mg254 O255 1.915 . S
Mg254 O259 2.013 . S
Mg254 O265 2.114 . S
Mg254 O269 2.013 . S
Mg254 O275 2.114 . S
O255 Mg254 1.915 . S
O255 Mg256 1.936 . S
O255 Mg257 1.963 . S
Mg256 O255 1.936 . S
Mg256 O265 2.291 . S
Mg256 O270 2.081 . S
Mg256 O272 2.023 . S
Mg256 O276 2.031 . S
Mg257 O255 1.963 . S
Mg257 O261 1.986 . S
Mg257 O273 1.942 . S
Mg257 O274 1.955 . S
C258 O269 1.191 . S
C258 O271 1.307 . S
O259 Mg254 2.013 . S
O259 C278 1.191 . S
O260 Mg251 2.081 . S
O260 C268 1.331 . S
O261 Mg257 1.986 . S
O261 C278 1.307 . S
O262 Mg251 2.023 . S
O262 C277 1.264 . S
O263 Mg252 1.942 . S
O263 C268 1.244 . S
O264 Mg252 1.955 . S
O264 C277 1.273 . S
O265 Mg254 2.114 . S
O265 Mg256 2.291 . S
O265 C267 1.312 . S
O266 Mg251 2.031 . S
O266 C267 1.208 . S
C267 O265 1.312 . S
C267 O266 1.208 . S
C268 O260 1.331 . S
C268 O263 1.244 . S
O269 Mg254 2.013 . S
O269 C258 1.191 . S
O270 C249 1.331 . S
O270 Mg256 2.081 . S
O271 Mg252 1.986 . S
O271 C258 1.307 . S
O272 C250 1.264 . S
O272 Mg256 2.023 . S
O273 C249 1.244 . S
O273 Mg257 1.942 . S
O274 C250 1.273 . S
O274 Mg257 1.955 . S
O275 C248 1.312 . S
O275 Mg251 2.291 . S
O275 Mg254 2.114 . S
O276 C248 1.208 . S
O276 Mg256 2.031 . S
C277 O262 1.264 . S
C277 O264 1.273 . S
C278 O259 1.191 . S
C278 O261 1.307 . S
C279 O306 1.312 . S
C279 O307 1.208 1_554 S
C280 O301 1.331 . S
C280 O304 1.244 . S
C281 O303 1.264 . S
C281 O305 1.273 . S
Mg282 O284 1.936 . S
Mg282 O291 2.081 . S
Mg282 O293 2.023 . S
Mg282 O297 2.031 . S
Mg282 O306 2.291 . S
Mg283 O284 1.963 . S
Mg283 O294 1.942 . S
Mg283 O295 1.955 . S
Mg283 O302 1.986 . S
O284 Mg282 1.936 . S
O284 Mg283 1.963 . S
O284 Mg285 1.915 . S
Mg285 O284 1.915 . S
Mg285 O286 1.915 1_554 S
Mg285 O290 2.013 . S
Mg285 O296 2.114 . S
Mg285 O300 2.013 . S
Mg285 O306 2.114 . S
O286 Mg285 1.915 1_556 S
O286 Mg287 1.936 . S
O286 Mg288 1.963 . S
Mg287 O286 1.936 . S
Mg287 O296 2.291 1_556 S
Mg287 O301 2.081 . S
Mg287 O303 2.023 . S
Mg287 O307 2.031 . S
Mg288 O286 1.963 . S
Mg288 O292 1.986 1_556 S
Mg288 O304 1.942 . S
Mg288 O305 1.955 . S
C289 O300 1.191 . S
C289 O302 1.307 . S
O290 Mg285 2.013 . S
O290 C309 1.191 . S
O291 Mg282 2.081 . S
O291 C299 1.331 . S
O292 Mg288 1.986 1_554 S
O292 C309 1.307 . S
O293 Mg282 2.023 . S
O293 C308 1.264 . S
O294 Mg283 1.942 . S
O294 C299 1.244 . S
O295 Mg283 1.955 . S
O295 C308 1.273 . S
O296 Mg285 2.114 . S
O296 Mg287 2.291 1_554 S
O296 C298 1.312 . S
O297 Mg282 2.031 . S
O297 C298 1.208 . S
C298 O296 1.312 . S
C298 O297 1.208 . S
C299 O291 1.331 . S
C299 O294 1.244 . S
O300 Mg285 2.013 . S
O300 C289 1.191 . S
O301 C280 1.331 . S
O301 Mg287 2.081 . S
O302 Mg283 1.986 . S
O302 C289 1.307 . S
O303 C281 1.264 . S
O303 Mg287 2.023 . S
O304 C280 1.244 . S
O304 Mg288 1.942 . S
O305 C281 1.273 . S
O305 Mg288 1.955 . S
O306 C279 1.312 . S
O306 Mg282 2.291 . S
O306 Mg285 2.114 . S
O307 C279 1.208 1_556 S
O307 Mg287 2.031 . S
C308 O293 1.264 . S
C308 O295 1.273 . S
C309 O290 1.191 . S
C309 O292 1.307 . S
C310 O337 1.312 . S
C310 O338 1.208 1_554 S
C311 O332 1.331 . S
C311 O335 1.244 . S
C312 O334 1.264 . S
C312 O336 1.273 . S
Mg313 O315 1.936 . S
Mg313 O322 2.081 1_565 S
Mg313 O324 2.023 . S
Mg313 O328 2.031 1_565 S
Mg313 O337 2.291 . S
Mg314 O315 1.963 . S
Mg314 O325 1.942 . S
Mg314 O326 1.955 . S
Mg314 O333 1.986 . S
O315 Mg313 1.936 . S
O315 Mg314 1.963 . S
O315 Mg316 1.915 . S
Mg316 O315 1.915 . S
Mg316 O317 1.915 1_554 S
Mg316 O321 2.013 . S
Mg316 O327 2.114 . S
Mg316 O331 2.013 . S
Mg316 O337 2.114 . S
O317 Mg316 1.915 1_556 S
O317 Mg318 1.936 . S
O317 Mg319 1.963 . S
Mg318 O317 1.936 . S
Mg318 O327 2.291 1_556 S
Mg318 O332 2.081 . S
Mg318 O334 2.023 . S
Mg318 O338 2.031 . S
Mg319 O317 1.963 . S
Mg319 O323 1.986 1_556 S
Mg319 O335 1.942 . S
Mg319 O336 1.955 . S
C320 O331 1.191 . S
C320 O333 1.307 . S
O321 Mg316 2.013 . S
O321 C340 1.191 . S
O322 Mg313 2.081 1_545 S
O322 C330 1.331 . S
O323 Mg319 1.986 1_554 S
O323 C340 1.307 . S
O324 Mg313 2.023 . S
O324 C339 1.264 . S
O325 Mg314 1.942 . S
O325 C330 1.244 1_565 S
O326 Mg314 1.955 . S
O326 C339 1.273 . S
O327 Mg316 2.114 . S
O327 Mg318 2.291 1_554 S
O327 C329 1.312 1_565 S
O328 Mg313 2.031 1_545 S
O328 C329 1.208 . S
C329 O327 1.312 1_545 S
C329 O328 1.208 . S
C330 O322 1.331 . S
C330 O325 1.244 1_545 S
O331 Mg316 2.013 . S
O331 C320 1.191 . S
O332 C311 1.331 . S
O332 Mg318 2.081 . S
O333 Mg314 1.986 . S
O333 C320 1.307 . S
O334 C312 1.264 . S
O334 Mg318 2.023 . S
O335 C311 1.244 . S
O335 Mg319 1.942 . S
O336 C312 1.273 . S
O336 Mg319 1.955 . S
O337 C310 1.312 . S
O337 Mg313 2.291 . S
O337 Mg316 2.114 . S
O338 C310 1.208 1_556 S
O338 Mg318 2.031 . S
C339 O324 1.264 . S
C339 O326 1.273 . S
C340 O321 1.191 . S
C340 O323 1.307 . S
C341 O368 1.312 . S
C341 O369 1.208 1_554 S
C342 O363 1.331 . S
C342 O366 1.244 . S
C343 O365 1.264 . S
C343 O367 1.273 . S
Mg344 O346 1.936 . S
Mg344 O353 2.081 1_455 S
Mg344 O355 2.023 . S
Mg344 O359 2.031 1_455 S
Mg344 O368 2.291 . S
Mg345 O346 1.963 . S
Mg345 O356 1.942 . S
Mg345 O357 1.955 . S
Mg345 O364 1.986 . S
O346 Mg344 1.936 . S
O346 Mg345 1.963 . S
O346 Mg347 1.915 . S
Mg347 O346 1.915 . S
Mg347 O348 1.915 1_554 S
Mg347 O352 2.013 . S
Mg347 O358 2.114 . S
Mg347 O362 2.013 . S
Mg347 O368 2.114 . S
O348 Mg347 1.915 1_556 S
O348 Mg349 1.936 . S
O348 Mg350 1.963 . S
Mg349 O348 1.936 . S
Mg349 O358 2.291 1_556 S
Mg349 O363 2.081 . S
Mg349 O365 2.023 . S
Mg349 O369 2.031 . S
Mg350 O348 1.963 . S
Mg350 O354 1.986 1_556 S
Mg350 O366 1.942 . S
Mg350 O367 1.955 . S
C351 O362 1.191 . S
C351 O364 1.307 . S
O352 Mg347 2.013 . S
O352 C371 1.191 . S
O353 Mg344 2.081 1_655 S
O353 C361 1.331 . S
O354 Mg350 1.986 1_554 S
O354 C371 1.307 . S
O355 Mg344 2.023 . S
O355 C370 1.264 . S
O356 Mg345 1.942 . S
O356 C361 1.244 1_455 S
O357 Mg345 1.955 . S
O357 C370 1.273 . S
O358 Mg347 2.114 . S
O358 Mg349 2.291 1_554 S
O358 C360 1.312 1_455 S
O359 Mg344 2.031 1_655 S
O359 C360 1.208 . S
C360 O358 1.312 1_655 S
C360 O359 1.208 . S
C361 O353 1.331 . S
C361 O356 1.244 1_655 S
O362 Mg347 2.013 . S
O362 C351 1.191 . S
O363 C342 1.331 . S
O363 Mg349 2.081 . S
O364 Mg345 1.986 . S
O364 C351 1.307 . S
O365 C343 1.264 . S
O365 Mg349 2.023 . S
O366 C342 1.244 . S
O366 Mg350 1.942 . S
O367 C343 1.273 . S
O367 Mg350 1.955 . S
O368 C341 1.312 . S
O368 Mg344 2.291 . S
O368 Mg347 2.114 . S
O369 C341 1.208 1_556 S
O369 Mg349 2.031 . S
C370 O355 1.264 . S
C370 O357 1.273 . S
C371 O352 1.191 . S
C371 O354 1.307 . S
C372 O399 1.312 . S
C372 O400 1.208 . S
C373 O394 1.331 . S
C373 O397 1.244 . S
C374 O396 1.264 . S
C374 O398 1.273 . S
Mg375 O377 1.936 . S
Mg375 O384 2.081 . S
Mg375 O386 2.023 . S
Mg375 O390 2.031 . S
Mg375 O399 2.291 . S
Mg376 O377 1.963 . S
Mg376 O387 1.942 . S
Mg376 O388 1.955 . S
Mg376 O395 1.986 . S
O377 Mg375 1.936 . S
O377 Mg376 1.963 . S
O377 Mg378 1.915 . S
Mg378 O377 1.915 . S
Mg378 O379 1.915 1_556 S
Mg378 O383 2.013 . S
Mg378 O389 2.114 . S
Mg378 O393 2.013 . S
Mg378 O399 2.114 . S
O379 Mg378 1.915 1_554 S
O379 Mg380 1.936 . S
O379 Mg381 1.963 . S
Mg380 O379 1.936 . S
Mg380 O389 2.291 1_554 S
Mg380 O394 2.081 . S
Mg380 O396 2.023 . S
Mg380 O400 2.031 1_554 S
Mg381 O379 1.963 . S
Mg381 O385 1.986 . S
Mg381 O397 1.942 . S
Mg381 O398 1.955 . S
C382 O393 1.191 . S
C382 O395 1.307 . S
O383 Mg378 2.013 . S
O383 C402 1.191 . S
O384 Mg375 2.081 . S
O384 C392 1.331 . S
O385 Mg381 1.986 . S
O385 C402 1.307 1_554 S
O386 Mg375 2.023 . S
O386 C401 1.264 . S
O387 Mg376 1.942 . S
O387 C392 1.244 . S
O388 Mg376 1.955 . S
O388 C401 1.273 . S
O389 Mg378 2.114 . S
O389 Mg380 2.291 1_556 S
O389 C391 1.312 . S
O390 Mg375 2.031 . S
O390 C391 1.208 . S
C391 O389 1.312 . S
C391 O390 1.208 . S
C392 O384 1.331 . S
C392 O387 1.244 . S
O393 Mg378 2.013 . S
O393 C382 1.191 . S
O394 C373 1.331 . S
O394 Mg380 2.081 . S
O395 Mg376 1.986 . S
O395 C382 1.307 . S
O396 C374 1.264 . S
O396 Mg380 2.023 . S
O397 C373 1.244 . S
O397 Mg381 1.942 . S
O398 C374 1.273 . S
O398 Mg381 1.955 . S
O399 C372 1.312 . S
O399 Mg375 2.291 . S
O399 Mg378 2.114 . S
O400 C372 1.208 . S
O400 Mg380 2.031 1_556 S
C401 O386 1.264 . S
C401 O388 1.273 . S
C402 O383 1.191 . S
C402 O385 1.307 1_556 S
C403 O430 1.312 . S
C403 O431 1.208 1_556 S
C404 O425 1.331 . S
C404 O428 1.244 . S
C405 O427 1.264 . S
C405 O429 1.273 . S
Mg406 O408 1.936 . S
Mg406 O415 2.081 . S
Mg406 O417 2.023 . S
Mg406 O421 2.031 . S
Mg406 O430 2.291 . S
Mg407 O408 1.963 . S
Mg407 O418 1.942 . S
Mg407 O419 1.955 . S
Mg407 O426 1.986 . S
O408 Mg406 1.936 . S
O408 Mg407 1.963 . S
O408 Mg409 1.915 . S
Mg409 O408 1.915 . S
Mg409 O410 1.915 1_556 S
Mg409 O414 2.013 . S
Mg409 O420 2.114 . S
Mg409 O424 2.013 . S
Mg409 O430 2.114 . S
O410 Mg409 1.915 1_554 S
O410 Mg411 1.936 . S
O410 Mg412 1.963 . S
Mg411 O410 1.936 . S
Mg411 O420 2.291 1_554 S
Mg411 O425 2.081 . S
Mg411 O427 2.023 . S
Mg411 O431 2.031 . S
Mg412 O410 1.963 . S
Mg412 O416 1.986 1_554 S
Mg412 O428 1.942 . S
Mg412 O429 1.955 . S
C413 O424 1.191 . S
C413 O426 1.307 . S
O414 Mg409 2.013 . S
O414 C433 1.191 . S
O415 Mg406 2.081 . S
O415 C423 1.331 . S
O416 Mg412 1.986 1_556 S
O416 C433 1.307 . S
O417 Mg406 2.023 . S
O417 C432 1.264 . S
O418 Mg407 1.942 . S
O418 C423 1.244 . S
O419 Mg407 1.955 . S
O419 C432 1.273 . S
O420 Mg409 2.114 . S
O420 Mg411 2.291 1_556 S
O420 C422 1.312 . S
O421 Mg406 2.031 . S
O421 C422 1.208 . S
C422 O420 1.312 . S
C422 O421 1.208 . S
C423 O415 1.331 . S
C423 O418 1.244 . S
O424 Mg409 2.013 . S
O424 C413 1.191 . S
O425 C404 1.331 . S
O425 Mg411 2.081 . S
O426 Mg407 1.986 . S
O426 C413 1.307 . S
O427 C405 1.264 . S
O427 Mg411 2.023 . S
O428 C404 1.244 . S
O428 Mg412 1.942 . S
O429 C405 1.273 . S
O429 Mg412 1.955 . S
O430 C403 1.312 . S
O430 Mg406 2.291 . S
O430 Mg409 2.114 . S
O431 C403 1.208 1_554 S
O431 Mg411 2.031 . S
C432 O417 1.264 . S
C432 O419 1.273 . S
C433 O414 1.191 . S
C433 O416 1.307 . S
C434 O461 1.312 . S
C434 O462 1.208 . S
C435 O456 1.331 . S
C435 O459 1.244 . S
C436 O458 1.264 . S
C436 O460 1.273 . S
Mg437 O439 1.936 . S
Mg437 O446 2.081 . S
Mg437 O448 2.023 . S
Mg437 O452 2.031 . S
Mg437 O461 2.291 . S
Mg438 O439 1.963 . S
Mg438 O449 1.942 . S
Mg438 O450 1.955 . S
Mg438 O457 1.986 . S
O439 Mg437 1.936 . S
O439 Mg438 1.963 . S
O439 Mg440 1.915 . S
Mg440 O439 1.915 . S
Mg440 O441 1.915 1_556 S
Mg440 O445 2.013 . S
Mg440 O451 2.114 . S
Mg440 O455 2.013 . S
Mg440 O461 2.114 . S
O441 Mg440 1.915 1_554 S
O441 Mg442 1.936 . S
O441 Mg443 1.963 . S
Mg442 O441 1.936 . S
Mg442 O451 2.291 1_554 S
Mg442 O456 2.081 . S
Mg442 O458 2.023 . S
Mg442 O462 2.031 1_554 S
Mg443 O441 1.963 . S
Mg443 O447 1.986 . S
Mg443 O459 1.942 . S
Mg443 O460 1.955 . S
C444 O455 1.191 . S
C444 O457 1.307 . S
O445 Mg440 2.013 . S
O445 C464 1.191 1_655 S
O446 Mg437 2.081 . S
O446 C454 1.331 . S
O447 Mg443 1.986 . S
O447 C464 1.307 1_654 S
O448 Mg437 2.023 . S
O448 C463 1.264 . S
O449 Mg438 1.942 . S
O449 C454 1.244 . S
O450 Mg438 1.955 . S
O450 C463 1.273 . S
O451 Mg440 2.114 . S
O451 Mg442 2.291 1_556 S
O451 C453 1.312 . S
O452 Mg437 2.031 . S
O452 C453 1.208 . S
C453 O451 1.312 . S
C453 O452 1.208 . S
C454 O446 1.331 . S
C454 O449 1.244 . S
O455 Mg440 2.013 . S
O455 C444 1.191 . S
O456 C435 1.331 . S
O456 Mg442 2.081 . S
O457 Mg438 1.986 . S
O457 C444 1.307 . S
O458 C436 1.264 . S
O458 Mg442 2.023 . S
O459 C435 1.244 . S
O459 Mg443 1.942 . S
O460 C436 1.273 . S
O460 Mg443 1.955 . S
O461 C434 1.312 . S
O461 Mg437 2.291 . S
O461 Mg440 2.114 . S
O462 C434 1.208 . S
O462 Mg442 2.031 1_556 S
C463 O448 1.264 . S
C463 O450 1.273 . S
C464 O445 1.191 1_455 S
C464 O447 1.307 1_456 S
C465 O492 1.312 . S
C465 O493 1.208 . S
C466 O487 1.340 . S
C466 O490 1.252 . S
C467 O489 1.264 . S
C467 O491 1.273 . S
Mg468 O470 1.936 . S
Mg468 O477 2.081 . S
Mg468 O479 2.023 . S
Mg468 O483 2.031 . S
Mg468 O492 2.291 . S
Mg469 O470 1.963 . S
Mg469 O480 1.942 . S
Mg469 O481 1.955 . S
Mg469 O488 1.986 . S
O470 Mg468 1.936 . S
O470 Mg469 1.963 . S
O470 Mg471 1.915 . S
Mg471 O470 1.915 . S
Mg471 O472 1.915 . S
Mg471 O476 2.013 . S
Mg471 O482 2.114 . S
Mg471 O486 2.013 . S
Mg471 O492 2.114 . S
O472 Mg471 1.915 . S
O472 Mg473 1.936 . S
O472 Mg474 1.963 . S
Mg473 O472 1.936 . S
Mg473 O482 2.291 . S
Mg473 O487 2.081 . S
Mg473 O489 2.023 . S
Mg473 O493 2.031 . S
Mg474 O472 1.963 . S
Mg474 O478 1.986 . S
Mg474 O490 1.942 . S
Mg474 O491 1.955 . S
C475 O486 1.191 . S
C475 O488 1.307 . S
O476 Mg471 2.013 . S
O476 C495 1.191 . S
O477 Mg468 2.081 . S
O477 C485 1.331 . S
O478 Mg474 1.986 . S
O478 C495 1.307 . S
O479 Mg468 2.023 . S
O479 C494 1.264 . S
O480 Mg469 1.942 . S
O480 C485 1.244 . S
O481 Mg469 1.955 . S
O481 C494 1.273 . S
O482 Mg471 2.114 . S
O482 Mg473 2.291 . S
O482 C484 1.312 . S
O483 Mg468 2.031 . S
O483 C484 1.208 . S
C484 O482 1.312 . S
C484 O483 1.208 . S
C485 O477 1.331 . S
C485 O480 1.244 . S
O486 Mg471 2.013 . S
O486 C475 1.191 . S
O487 C466 1.340 . S
O487 Mg473 2.081 . S
O488 Mg469 1.986 . S
O488 C475 1.307 . S
O489 C467 1.264 . S
O489 Mg473 2.023 . S
O490 C466 1.252 . S
O490 Mg474 1.942 . S
O491 C467 1.273 . S
O491 Mg474 1.955 . S
O492 C465 1.312 . S
O492 Mg468 2.291 . S
O492 Mg471 2.114 . S
O493 C465 1.208 . S
O493 Mg473 2.031 . S
C494 O479 1.264 . S
C494 O481 1.273 . S
C495 O476 1.191 . S
C495 O478 1.307 . S
C496 O523 1.312 . S
C496 O524 1.208 . S
C497 O518 1.331 . S
C497 O521 1.244 . S
C498 O520 1.264 . S
C498 O522 1.273 . S
Mg499 O501 1.936 . S
Mg499 O508 2.081 . S
Mg499 O510 2.023 . S
Mg499 O514 2.031 . S
Mg499 O523 2.291 . S
Mg500 O501 1.963 . S
Mg500 O511 1.942 . S
Mg500 O512 1.955 . S
Mg500 O519 1.986 . S
O501 Mg499 1.936 . S
O501 Mg500 1.963 . S
O501 Mg502 1.915 . S
Mg502 O501 1.915 . S
Mg502 O503 1.915 . S
Mg502 O507 2.013 . S
Mg502 O513 2.114 . S
Mg502 O517 2.013 . S
Mg502 O523 2.114 . S
O503 Mg502 1.915 . S
O503 Mg504 1.936 . S
O503 Mg505 1.963 . S
Mg504 O503 1.936 . S
Mg504 O513 2.291 . S
Mg504 O518 2.081 . S
Mg504 O520 2.023 . S
Mg504 O524 2.031 . S
Mg505 O503 1.963 . S
Mg505 O509 1.986 . S
Mg505 O521 1.942 . S
Mg505 O522 1.955 . S
C506 O517 1.191 1_455 S
C506 O519 1.307 1_455 S
O507 Mg502 2.013 . S
O507 C526 1.191 . S
O508 Mg499 2.081 . S
O508 C516 1.331 . S
O509 Mg505 1.986 . S
O509 C526 1.307 . S
O510 Mg499 2.023 . S
O510 C525 1.264 . S
O511 Mg500 1.942 . S
O511 C516 1.244 . S
O512 Mg500 1.955 . S
O512 C525 1.273 . S
O513 Mg502 2.114 . S
O513 Mg504 2.291 . S
O513 C515 1.312 . S
O514 Mg499 2.031 . S
O514 C515 1.208 . S
C515 O513 1.312 . S
C515 O514 1.208 . S
C516 O508 1.331 . S
C516 O511 1.244 . S
O517 Mg502 2.013 . S
O517 C506 1.191 1_655 S
O518 C497 1.331 . S
O518 Mg504 2.081 . S
O519 Mg500 1.986 . S
O519 C506 1.307 1_655 S
O520 C498 1.264 . S
O520 Mg504 2.023 . S
O521 C497 1.244 . S
O521 Mg505 1.942 . S
O522 C498 1.273 . S
O522 Mg505 1.955 . S
O523 C496 1.312 . S
O523 Mg499 2.291 . S
O523 Mg502 2.114 . S
O524 C496 1.208 . S
O524 Mg504 2.031 . S
C525 O510 1.264 . S
C525 O512 1.273 . S
C526 O507 1.191 . S
C526 O509 1.307 . S
C527 O554 1.312 . S
C527 O555 1.208 . S
C528 O549 1.331 . S
C528 O552 1.244 . S
C529 O551 1.264 . S
C529 O553 1.273 . S
Mg530 O532 1.936 . S
Mg530 O539 2.081 . S
Mg530 O541 2.023 . S
Mg530 O545 2.031 . S
Mg530 O554 2.291 . S
Mg531 O532 1.963 . S
Mg531 O542 1.942 . S
Mg531 O543 1.955 . S
Mg531 O550 1.986 . S
O532 Mg530 1.936 . S
O532 Mg531 1.963 . S
O532 Mg533 1.915 . S
Mg533 O532 1.915 . S
Mg533 O534 1.915 . S
Mg533 O538 2.013 . S
Mg533 O544 2.114 . S
Mg533 O548 2.013 . S
Mg533 O554 2.114 . S
O534 Mg533 1.915 . S
O534 Mg535 1.936 . S
O534 Mg536 1.963 . S
Mg535 O534 1.936 . S
Mg535 O544 2.291 . S
Mg535 O549 2.081 . S
Mg535 O551 2.023 . S
Mg535 O555 2.031 . S
Mg536 O534 1.963 . S
Mg536 O540 1.986 . S
Mg536 O552 1.942 . S
Mg536 O553 1.955 . S
C537 O548 1.191 . S
C537 O550 1.307 . S
O538 Mg533 2.013 . S
O538 C557 1.191 . S
O539 Mg530 2.081 . S
O539 C547 1.331 . S
O540 Mg536 1.986 . S
O540 C557 1.307 . S
O541 Mg530 2.023 . S
O541 C556 1.264 . S
O542 Mg531 1.942 . S
O542 C547 1.244 . S
O543 Mg531 1.955 . S
O543 C556 1.273 . S
O544 Mg533 2.114 . S
O544 Mg535 2.291 . S
O544 C546 1.312 . S
O545 Mg530 2.031 . S
O545 C546 1.208 . S
C546 O544 1.312 . S
C546 O545 1.208 . S
C547 O539 1.331 . S
C547 O542 1.244 . S
O548 Mg533 2.013 . S
O548 C537 1.191 . S
O549 C528 1.331 . S
O549 Mg535 2.081 . S
O550 Mg531 1.986 . S
O550 C537 1.307 . S
O551 C529 1.264 . S
O551 Mg535 2.023 . S
O552 C528 1.244 . S
O552 Mg536 1.942 . S
O553 C529 1.273 . S
O553 Mg536 1.955 . S
O554 C527 1.312 . S
O554 Mg530 2.291 . S
O554 Mg533 2.114 . S
O555 C527 1.208 . S
O555 Mg535 2.031 . S
C556 O541 1.264 . S
C556 O543 1.273 . S
C557 O538 1.191 . S
C557 O540 1.307 . S
C219 C20 1.311 . S
C33 C277 0.919 . S
C215 C82 1.283 . S
C405 C64 0.802 . S
C435 C2 1.176 . S
C373 C51 1.529 . S
C94 C516 1.529 . S
C126 C556 0.802 . S
C156 C494 1.172 . S
C184 C312 0.881 . S
C122 C343 0.876 . S
C144 C281 1.239 . S
C187 C423 1.411 . S
C237 C463 1.056 . S
C401 C249 1.044 . S
C498 C361 1.105 . S
C299 C528 1.469 . S
C466 C330 1.489 . S
C113 C1 3.501 1_456 S
C153 C60 3.479 1_556 S
C63 C175 3.570 1_544 S
C157 C91 3.552 1_545 S
C29 C95 3.468 1_455 S
C32 C125 3.561 . S
C308 C206 3.412 . S
C339 C218 3.378 . S
C370 C268 3.539 . S
C342 C250 3.552 . S
C280 C188 3.431 . S
C311 C246 3.591 . S
C485 C392 3.452 . S
C525 C432 3.423 . S
C454 C547 3.512 . S
C436 C529 3.486 . S
C374 C467 3.412 . S
C404 C497 3.502 . S
C0 C351 2.683 . S
C289 C61 2.522 . S
C320 C62 2.563 . S
C92 C495 2.615 . S
C515 C30 2.698 . S
C557 C31 2.605 . S
C434 C112 2.739 . S
C154 C372 2.723 . S
C174 C413 2.639 . S
C216 C165 2.584 . S
C103 C227 2.711 . S
C124 C278 2.739 . S
C205 C527 2.632 . S
C465 C217 2.623 1_545 S
C506 C267 2.496 . S
C123 C258 2.693 . S
C196 C143 2.913 . S
C185 C247 2.725 . S
C309 C81 2.981 . S
C340 C19 2.973 . S
C371 C41 2.754 . S
C341 C402 2.451 1_554 S
C279 C422 2.577 1_564 S
C310 C464 2.486 1_554 S
C155 C391 2.725 . S
C93 C433 2.712 . S
C453 C134 2.643 . S
C298 C444 2.658 1_554 S
C382 C329 2.764 1_556 S
C403 C360 2.799 1_556 S
C248 C484 2.734 . S
C526 C186 2.585 . S
C236 C546 2.635 . S
C537 C10 2.619 . S
C50 C475 2.683 . S
C72 C496 2.606 . S
