# Generated by pormake.
# Topology uog, (4)-cn, num edge types: 1
# Building blocks:
#     Node 0, Type 0, BuildingBlock: NAWXER_clean_sbu_0, # of connection points: 4
#     Node 1, Type 0, BuildingBlock: NAWXER_clean_sbu_0, # of connection points: 4
#     Node 2, Type 0, BuildingBlock: NAWXER_clean_sbu_0, # of connection points: 4
#     Node 3, Type 0, BuildingBlock: NAWXER_clean_sbu_0, # of connection points: 4
#     Node 4, Type 0, BuildingBlock: NAWXER_clean_sbu_0, # of connection points: 4
#     Node 5, Type 0, BuildingBlock: NAWXER_clean_sbu_0, # of connection points: 4
#     Edge 6, Type (0, 0), BuildingBlock: UVAHIK_clean_linker_0, # of connection points: 2
#     Edge 7, Type (0, 0), BuildingBlock: UVAHIK_clean_linker_0, # of connection points: 2
#     Edge 8, Type (0, 0), BuildingBlock: UVAHIK_clean_linker_0, # of connection points: 2
#     Edge 9, Type (0, 0), BuildingBlock: UVAHIK_clean_linker_0, # of connection points: 2
#     Edge 10, Type (0, 0), BuildingBlock: UVAHIK_clean_linker_0, # of connection points: 2
#     Edge 11, Type (0, 0), BuildingBlock: UVAHIK_clean_linker_0, # of connection points: 2
#     Edge 12, Type (0, 0), BuildingBlock: UVAHIK_clean_linker_0, # of connection points: 2
#     Edge 13, Type (0, 0), BuildingBlock: UVAHIK_clean_linker_0, # of connection points: 2
#     Edge 14, Type (0, 0), BuildingBlock: UVAHIK_clean_linker_0, # of connection points: 2
#     Edge 15, Type (0, 0), BuildingBlock: UVAHIK_clean_linker_0, # of connection points: 2
#     Edge 16, Type (0, 0), BuildingBlock: UVAHIK_clean_linker_0, # of connection points: 2
#     Edge 17, Type (0, 0), BuildingBlock: UVAHIK_clean_linker_0, # of connection points: 2
# Relax obj value: 0.013
# Max RMSD: 0.240
# Mean RMSD: 0.240
data_MOF--net-uog--node1-NAWXER_clean_sbu_0--edge1-UVAHIK_clean_linker_0
_symmetry_space_group_name_H-M    P1
_symmetry_Int_Tables_number       1
_symmetry_cell_setting            triclinic
loop_
_symmetry_equiv_pos_as_xyz
'x, y, z'
_cell_length_a     37.99322
_cell_length_b     37.997783
_cell_length_c     56.631271
_cell_angle_alpha  89.990199
_cell_angle_beta   89.998596
_cell_angle_gamma 119.98865
loop_
_atom_site_label
_atom_site_type_symbol
_atom_site_fract_x
_atom_site_fract_y
_atom_site_fract_z
_atom_type_partial_charge
C0 C 0.54169 0.33558 0.16437 0.0
C1 C 0.54001 0.20769 0.17268 0.0
O2 O 0.51185 0.29963 0.16566 0.0
Zn3 Zn 0.54234 0.2725 0.16858 0.0
O4 O 0.57808 0.34149 0.16517 0.0
Zn5 Zn 0.60544 0.3031 0.1686 0.0
O6 O 0.6365 0.31352 0.14037 0.0
O7 O 0.57042 0.28125 0.13393 0.0
O8 O 0.57665 0.23758 0.17186 0.0
O9 O 0.51075 0.21469 0.1715 0.0
O10 O 0.57049 0.29211 0.20316 0.0
O11 O 0.63651 0.32232 0.19692 0.0
C12 C 0.60695 0.29733 0.12605 0.0
C13 C 0.60702 0.31088 0.21116 0.0
C14 C 0.30003 0.60698 0.54389 0.0
C15 C 0.31374 0.60716 0.45872 0.0
O16 O 0.31777 0.63658 0.52969 0.0
Zn17 Zn 0.30621 0.60563 0.50131 0.0
O18 O 0.28276 0.5705 0.53584 0.0
Zn19 Zn 0.27465 0.54251 0.50126 0.0
O20 O 0.30125 0.51146 0.50436 0.0
O21 O 0.34379 0.57751 0.50448 0.0
O22 O 0.29453 0.57064 0.46673 0.0
O23 O 0.32565 0.6367 0.47296 0.0
O24 O 0.24052 0.57751 0.49813 0.0
O25 O 0.21703 0.51146 0.49814 0.0
C26 C 0.33739 0.54098 0.50541 0.0
C27 C 0.21039 0.54098 0.49715 0.0
C28 C 0.6905 0.29692 0.87789 0.0
C29 C 0.7046 0.30987 0.79274 0.0
O30 O 0.67765 0.31349 0.86348 0.0
Zn31 Zn 0.69804 0.30245 0.83531 0.0
O32 O 0.7105 0.28029 0.8701 0.0
Zn33 Zn 0.72973 0.27098 0.83562 0.0
O34 O 0.7873 0.2974 0.83867 0.0
O35 O 0.76387 0.34006 0.83871 0.0
O36 O 0.72183 0.2907 0.80093 0.0
O37 O 0.68677 0.32181 0.80682 0.0
O38 O 0.66057 0.23699 0.83211 0.0
O39 O 0.70277 0.21311 0.83283 0.0
C40 C 0.79397 0.33358 0.83969 0.0
C41 C 0.66673 0.20671 0.83146 0.0
C42 C 0.39644 0.69225 0.2103 0.0
C43 C 0.39477 0.7052 0.12519 0.0
O44 O 0.36661 0.68028 0.19627 0.0
Zn45 Zn 0.39709 0.69967 0.16775 0.0
O46 O 0.4328 0.71144 0.20205 0.0
Zn47 Zn 0.46022 0.73115 0.1673 0.0
O48 O 0.49112 0.78903 0.17008 0.0
O49 O 0.42505 0.76512 0.171 0.0
O50 O 0.43145 0.72182 0.13287 0.0
O51 O 0.36548 0.68865 0.13968 0.0
O52 O 0.4253 0.66207 0.16422 0.0
O53 O 0.49137 0.70475 0.16413 0.0
C54 C 0.46148 0.79541 0.17158 0.0
C55 C 0.46189 0.66857 0.16314 0.0
C56 C 0.6708 0.46186 0.50591 0.0
C57 C 0.79786 0.46183 0.49772 0.0
O58 O 0.70691 0.49146 0.50492 0.0
Zn59 Zn 0.73362 0.46045 0.50183 0.0
O60 O 0.66452 0.42537 0.50495 0.0
Zn61 Zn 0.70205 0.39728 0.50176 0.0
O62 O 0.69037 0.36618 0.53009 0.0
O63 O 0.72519 0.43223 0.53637 0.0
O64 O 0.76766 0.42535 0.49861 0.0
O65 O 0.79136 0.49143 0.49881 0.0
O66 O 0.7138 0.43247 0.46724 0.0
O67 O 0.68268 0.36638 0.47337 0.0
C68 C 0.70789 0.3957 0.54436 0.0
C69 C 0.69459 0.39599 0.45918 0.0
C70 C 0.33304 0.7944 0.83056 0.0
C71 C 0.20675 0.66654 0.83862 0.0
O72 O 0.29678 0.78744 0.83166 0.0
Zn73 Zn 0.27053 0.72963 0.83453 0.0
O74 O 0.33976 0.76449 0.8314 0.0
Zn75 Zn 0.30298 0.69895 0.83459 0.0
O76 O 0.31497 0.67981 0.80626 0.0
O77 O 0.27928 0.71013 0.79998 0.0
O78 O 0.23722 0.66061 0.83787 0.0
O79 O 0.21289 0.7025 0.83735 0.0
O80 O 0.28969 0.72083 0.8692 0.0
O81 O 0.3234 0.68841 0.86288 0.0
C82 C 0.29705 0.69135 0.792 0.0
C83 C 0.31003 0.70468 0.87716 0.0
C84 C 0.49166 0.13276 0.17543 0.0
C85 C 0.53183 0.16536 0.17445 0.0
C86 C 0.48373 0.09271 0.17633 0.0
C87 C 0.53079 0.03032 0.19026 0.0
H88 H 0.44345 0.94964 0.15158 0.0
C89 C 0.5089 0.8706 0.17382 0.0
C90 C 0.46896 0.83748 0.1735 0.0
C91 C 0.5161 0.91039 0.17498 0.0
C92 C 0.46759 0.97166 0.16273 0.0
H93 H 0.59522 0.18137 0.17388 0.0
H94 H 0.58134 0.11139 0.17524 0.0
H95 H 0.4571 0.01948 0.15167 0.0
H96 H 0.40525 0.82026 0.17448 0.0
H97 H 0.41786 0.88974 0.17671 0.0
H98 H 0.54141 0.98248 0.2012 0.0
C99 C 0.55597 0.11687 0.17558 0.0
C100 C 0.47544 0.01172 0.16278 0.0
C101 C 0.56392 0.15698 0.17468 0.0
C102 C 0.43638 0.84507 0.17461 0.0
C103 C 0.4436 0.88491 0.17576 0.0
C104 C 0.52294 0.99024 0.19021 0.0
C105 C 0.51576 0.08426 0.17626 0.0
C106 C 0.50718 0.04155 0.1765 0.0
C107 C 0.48355 0.91804 0.17585 0.0
C108 C 0.49131 0.96046 0.17639 0.0
H109 H 0.4662 0.13811 0.17539 0.0
H110 H 0.45243 0.06834 0.17721 0.0
H111 H 0.55508 0.05243 0.2013 0.0
H112 H 0.53472 0.86587 0.17293 0.0
H113 H 0.54722 0.93521 0.17471 0.0
C114 C 0.41212 0.56528 0.50751 0.0
C115 C 0.37173 0.53308 0.50716 0.0
C116 C 0.4444 0.55748 0.50845 0.0
C117 C 0.46947 0.4773 0.49551 0.0
H118 H 0.56366 0.54221 0.53485 0.0
C119 C 0.59604 0.43709 0.50827 0.0
C120 C 0.6363 0.46952 0.50763 0.0
C121 C 0.56355 0.44453 0.50916 0.0
C122 C 0.53773 0.52405 0.5236 0.0
H123 H 0.33359 0.4674 0.50792 0.0
H124 H 0.38974 0.45392 0.50977 0.0
H125 H 0.50757 0.55618 0.53453 0.0
H126 H 0.67397 0.53524 0.50765 0.0
H127 H 0.61738 0.54814 0.50897 0.0
H128 H 0.49964 0.44532 0.48445 0.0
C129 C 0.39654 0.48518 0.50897 0.0
C130 C 0.50561 0.53208 0.52342 0.0
C131 C 0.36433 0.49296 0.50805 0.0
C132 C 0.64334 0.50953 0.50817 0.0
C133 C 0.61088 0.51696 0.50908 0.0
C134 C 0.50156 0.46929 0.49568 0.0
C135 C 0.43695 0.51731 0.50903 0.0
C136 C 0.47112 0.50881 0.50935 0.0
C137 C 0.5706 0.48457 0.50946 0.0
C138 C 0.53611 0.4926 0.5097 0.0
H139 H 0.41888 0.59653 0.5068 0.0
H140 H 0.4752 0.5829 0.50824 0.0
H141 H 0.44363 0.45923 0.48418 0.0
H142 H 0.58955 0.4059 0.50794 0.0
H143 H 0.53288 0.41889 0.50975 0.0
C144 C 0.84466 0.40829 0.84152 0.0
C145 C 0.83627 0.36783 0.84142 0.0
C146 C 0.88482 0.44044 0.84236 0.0
C147 C 0.98993 0.4647 0.82957 0.0
H148 H 0.01968 0.55982 0.86812 0.0
C149 C 0.157 0.5917 0.84142 0.0
C150 C 0.16468 0.6319 0.84048 0.0
C151 C 0.11709 0.55915 0.84253 0.0
C152 C 0.01179 0.53362 0.8571 0.0
H153 H 0.86354 0.32945 0.84256 0.0
H154 H 0.93327 0.38535 0.84424 0.0
H155 H 0.94954 0.50394 0.8681 0.0
H156 H 0.13639 0.66938 0.84015 0.0
H157 H 0.06705 0.61275 0.84184 0.0
H158 H 0.05204 0.49442 0.81842 0.0
C159 C 0.90892 0.39231 0.84331 0.0
C160 C 0.97159 0.50162 0.85708 0.0
C161 C 0.86887 0.36024 0.84249 0.0
C162 C 0.13162 0.63881 0.84091 0.0
C163 C 0.0918 0.60632 0.84203 0.0
C164 C 0.03009 0.49669 0.82957 0.0
C165 C 0.91742 0.43279 0.8431 0.0
C166 C 0.96017 0.4668 0.84328 0.0
C167 C 0.08401 0.56609 0.84276 0.0
C168 C 0.0415 0.53159 0.84329 0.0
H169 H 0.82027 0.4152 0.84067 0.0
H170 H 0.89035 0.47129 0.84194 0.0
H171 H 0.98202 0.43859 0.81845 0.0
H172 H 0.18177 0.58532 0.84118 0.0
H173 H 0.11215 0.52853 0.84336 0.0
C174 C 0.15994 0.56529 0.4953 0.0
C175 C 0.16815 0.53309 0.49546 0.0
C176 C 0.11986 0.55748 0.49445 0.0
C177 C 0.01469 0.47714 0.5074 0.0
H178 H 0.98522 0.54249 0.46857 0.0
C179 C 0.84785 0.43707 0.49513 0.0
C180 C 0.84002 0.4695 0.49596 0.0
C181 C 0.88778 0.44453 0.49413 0.0
C182 C 0.99304 0.5242 0.47968 0.0
H183 H 0.14065 0.46743 0.49445 0.0
H184 H 0.071 0.45394 0.49277 0.0
H185 H 0.05528 0.55646 0.46865 0.0
H186 H 0.86807 0.53523 0.49618 0.0
H187 H 0.93755 0.54814 0.49468 0.0
H188 H 0.9526 0.44504 0.51855 0.0
C189 C 0.09546 0.48519 0.49364 0.0
C190 C 0.03319 0.53223 0.47972 0.0
C191 C 0.13545 0.49297 0.49447 0.0
C192 C 0.87298 0.50952 0.49551 0.0
C193 C 0.91286 0.51695 0.49451 0.0
C194 C 0.97459 0.46913 0.50736 0.0
C195 C 0.08715 0.51731 0.49379 0.0
C196 C 0.04448 0.5088 0.4936 0.0
C197 C 0.92076 0.48456 0.49392 0.0
C198 C 0.96328 0.4926 0.49353 0.0
H199 H 0.18443 0.59654 0.49609 0.0
H200 H 0.11447 0.5829 0.49482 0.0
H201 H 0.02252 0.45895 0.51859 0.0
H202 H 0.82316 0.40589 0.49537 0.0
H203 H 0.89281 0.4189 0.49338 0.0
C204 C 0.35967 0.86935 0.82795 0.0
C205 C 0.36722 0.83673 0.82887 0.0
C206 C 0.3918 0.90939 0.8271 0.0
C207 C 0.50118 0.97173 0.81309 0.0
H208 H 0.49469 0.0524 0.85189 0.0
C209 C 0.63901 0.13152 0.82927 0.0
C210 C 0.63215 0.16462 0.82963 0.0
C211 C 0.60644 0.09172 0.82818 0.0
C212 C 0.49676 0.03038 0.84071 0.0
H213 H 0.41456 0.82066 0.82937 0.0
H214 H 0.47068 0.89062 0.82809 0.0
H215 H 0.43852 0.98256 0.85184 0.0
H216 H 0.58562 0.18179 0.82882 0.0
H217 H 0.52878 0.11228 0.82672 0.0
H218 H 0.55955 0.01958 0.80206 0.0
C219 C 0.43985 0.88517 0.82777 0.0
C220 C 0.46456 0.99032 0.84069 0.0
C221 C 0.40767 0.84507 0.82863 0.0
C222 C 0.59197 0.15699 0.82865 0.0
C223 C 0.55937 0.11714 0.82758 0.0
C224 C 0.53339 0.01182 0.8131 0.0
C225 C 0.43228 0.91781 0.82715 0.0
C226 C 0.46641 0.9605 0.82691 0.0
C227 C 0.56623 0.08403 0.82744 0.0
C228 C 0.53161 0.0416 0.82697 0.0
H229 H 0.32888 0.86404 0.82801 0.0
H230 H 0.38491 0.93379 0.82628 0.0
H231 H 0.50331 0.94963 0.80202 0.0
H232 H 0.66957 0.13628 0.83005 0.0
H233 H 0.61278 0.06692 0.82842 0.0
C234 C 0.51014 0.64194 0.16019 0.0
C235 C 0.46996 0.63434 0.16135 0.0
C236 C 0.51815 0.60989 0.15933 0.0
C237 C 0.47151 0.50054 0.14567 0.0
H238 H 0.55933 0.50788 0.18422 0.0
C239 C 0.49433 0.36336 0.162 0.0
C240 C 0.53429 0.37024 0.16243 0.0
C241 C 0.48703 0.39587 0.16082 0.0
C242 C 0.53507 0.50557 0.1731 0.0
H243 H 0.40662 0.58694 0.16223 0.0
H244 H 0.42064 0.53087 0.1609 0.0
H245 H 0.54514 0.56371 0.18417 0.0
H246 H 0.59796 0.41677 0.16164 0.0
H247 H 0.58518 0.47359 0.15935 0.0
H248 H 0.46134 0.44228 0.13469 0.0
C249 C 0.44595 0.56173 0.16043 0.0
C250 C 0.52689 0.53757 0.17309 0.0
C251 C 0.43791 0.59386 0.16131 0.0
C252 C 0.56682 0.41042 0.16141 0.0
C253 C 0.55949 0.44299 0.16023 0.0
C254 C 0.47971 0.46853 0.14567 0.0
C255 C 0.48619 0.5694 0.15961 0.0
C256 C 0.49497 0.5354 0.15942 0.0
C257 C 0.51949 0.43608 0.16002 0.0
C258 C 0.51151 0.47061 0.15945 0.0
H259 H 0.53559 0.67274 0.16008 0.0
H260 H 0.54946 0.61686 0.15833 0.0
H261 H 0.44709 0.49817 0.13468 0.0
H262 H 0.46853 0.33281 0.16282 0.0
H263 H 0.45587 0.38947 0.16102 0.0
C264 C 0.6503 0.30267 0.91111 0.0
C265 C 0.68187 0.29632 0.90339 0.0
C266 C 0.6417 0.30176 0.93516 0.0
C267 C 0.68744 0.31935 0.99328 0.0
H268 H 0.57748 0.25116 0.01625 0.0
C269 C 0.65206 0.30131 0.09284 0.0
C270 C 0.6148 0.29656 0.10054 0.0
C271 C 0.65977 0.30047 0.06881 0.0
C272 C 0.60824 0.27094 0.01015 0.0
H273 H 0.7294 0.2844 0.91481 0.0
H274 H 0.71493 0.28388 0.95701 0.0
H275 H 0.59195 0.25172 0.97424 0.0
H276 H 0.55648 0.28763 0.08911 0.0
H277 H 0.57046 0.28793 0.04706 0.0
H278 H 0.70378 0.33991 0.02879 0.0
C279 C 0.69671 0.28917 0.94434 0.0
C280 C 0.61651 0.27099 0.98609 0.0
C281 C 0.70485 0.28932 0.92023 0.0
C282 C 0.5854 0.29111 0.08369 0.0
C283 C 0.59338 0.29102 0.05957 0.0
C284 C 0.6791 0.31988 0.01726 0.0
C285 C 0.66494 0.29522 0.95199 0.0
C286 C 0.6562 0.29505 0.97747 0.0
C287 C 0.63069 0.29563 0.05178 0.0
C288 C 0.6394 0.29551 0.02609 0.0
H289 H 0.63195 0.30798 0.89855 0.0
H290 H 0.61722 0.30677 0.94064 0.0
H291 H 0.71822 0.33857 0.98699 0.0
H292 H 0.67517 0.3051 0.10544 0.0
H293 H 0.68844 0.30314 0.06365 0.0
C294 C 0.4213 0.69207 0.25136 0.0
C295 C 0.3891 0.68361 0.23589 0.0
C296 C 0.41396 0.68308 0.27544 0.0
C297 C 0.3932 0.68258 0.32733 0.0
H298 H 0.29522 0.58492 0.34686 0.0
C299 C 0.33978 0.6547 0.42423 0.0
C300 C 0.32244 0.61496 0.43316 0.0
C301 C 0.34849 0.66237 0.4002 0.0
C302 C 0.32294 0.6121 0.34174 0.0
H303 H 0.324 0.65958 0.23365 0.0
H304 H 0.31138 0.64477 0.27555 0.0
H305 H 0.31005 0.59907 0.305 0.0
H306 H 0.30083 0.55207 0.42381 0.0
H307 H 0.31669 0.56553 0.3819 0.0
H308 H 0.4066 0.6951 0.36408 0.0
C309 C 0.3422 0.6575 0.26908 0.0
C310 C 0.33119 0.62051 0.3177 0.0
C311 C 0.34949 0.66627 0.24504 0.0
C312 C 0.31399 0.58301 0.41749 0.0
C313 C 0.32292 0.59072 0.39343 0.0
C314 C 0.38504 0.67407 0.35137 0.0
C315 C 0.37428 0.6656 0.28459 0.0
C316 C 0.36626 0.65602 0.31019 0.0
C317 C 0.34032 0.63052 0.38449 0.0
C318 C 0.34965 0.63888 0.35889 0.0
H319 H 0.45215 0.70525 0.24486 0.0
H320 H 0.43933 0.68928 0.28681 0.0
H321 H 0.4203 0.71038 0.32221 0.0
H322 H 0.34648 0.68001 0.43579 0.0
H323 H 0.36117 0.69328 0.3939 0.0
C324 C 0.72963 0.31019 0.75167 0.0
C325 C 0.70585 0.31855 0.76716 0.0
C326 C 0.73129 0.31924 0.7276 0.0
C327 C 0.71112 0.31986 0.67573 0.0
H328 H 0.71072 0.41752 0.65627 0.0
C329 C 0.68615 0.34806 0.5788 0.0
C330 C 0.7086 0.38784 0.56992 0.0
C331 C 0.68701 0.34032 0.60284 0.0
C332 C 0.71129 0.39034 0.66137 0.0
H333 H 0.6647 0.3425 0.76945 0.0
H334 H 0.66689 0.35741 0.72755 0.0
H335 H 0.71122 0.40321 0.69812 0.0
H336 H 0.74974 0.4507 0.57936 0.0
H337 H 0.75182 0.43711 0.62129 0.0
H338 H 0.71222 0.3075 0.63898 0.0
C339 C 0.68501 0.34471 0.734 0.0
C340 C 0.71101 0.38184 0.6854 0.0
C341 C 0.68353 0.33587 0.75804 0.0
C342 C 0.73194 0.41974 0.58565 0.0
C343 C 0.73297 0.41195 0.60971 0.0
C344 C 0.71158 0.32846 0.65169 0.0
C345 C 0.70904 0.33669 0.71848 0.0
C346 C 0.71061 0.34633 0.69289 0.0
C347 C 0.71054 0.37212 0.6186 0.0
C348 C 0.71136 0.36366 0.6442 0.0
H349 H 0.74734 0.29703 0.75814 0.0
H350 H 0.75049 0.31311 0.71622 0.0
H351 H 0.71045 0.29206 0.68082 0.0
H352 H 0.66766 0.32278 0.5672 0.0
H353 H 0.66877 0.30939 0.60909 0.0
C354 C 0.29507 0.71201 0.91943 0.0
C355 C 0.31853 0.70551 0.90269 0.0
C356 C 0.30313 0.71236 0.94357 0.0
C357 C 0.38361 0.7321 0.98546 0.0
H358 H 0.29693 0.66182 0.02813 0.0
C359 C 0.41591 0.71194 0.08274 0.0
C360 C 0.38648 0.70581 0.09974 0.0
C361 C 0.40764 0.71206 0.05868 0.0
C362 C 0.32144 0.68223 0.01661 0.0
H363 H 0.3692 0.69494 0.89806 0.0
H364 H 0.38377 0.69652 0.94018 0.0
H365 H 0.28228 0.66308 0.98635 0.0
H366 H 0.32569 0.69599 0.10493 0.0
H367 H 0.31187 0.69798 0.06322 0.0
H368 H 0.42266 0.75236 0.01559 0.0
C369 C 0.35899 0.70098 0.93461 0.0
C370 C 0.31297 0.68273 0.99264 0.0
C371 C 0.35047 0.69986 0.91054 0.0
C372 C 0.34884 0.70034 0.09223 0.0
C373 C 0.34083 0.70121 0.06823 0.0
C374 C 0.39199 0.73219 0.0095 0.0
C375 C 0.33529 0.70704 0.95134 0.0
C376 C 0.34402 0.70747 0.97684 0.0
C377 C 0.36999 0.7068 0.05107 0.0
C378 C 0.36106 0.70707 0.02543 0.0
H379 H 0.27022 0.71638 0.91391 0.0
H380 H 0.28454 0.71726 0.95617 0.0
H381 H 0.40801 0.75173 0.97362 0.0
H382 H 0.44512 0.71597 0.08801 0.0
H383 H 0.43063 0.7157 0.04606 0.0
C384 C 0.6942 0.42032 0.41801 0.0
C385 C 0.68575 0.3883 0.43363 0.0
C386 C 0.68493 0.41267 0.39398 0.0
C387 C 0.68379 0.39115 0.34219 0.0
H388 H 0.58553 0.29334 0.32318 0.0
C389 C 0.65474 0.33668 0.24555 0.0
C390 C 0.61496 0.31964 0.2367 0.0
C391 C 0.66261 0.34554 0.26955 0.0
C392 C 0.61287 0.32101 0.32816 0.0
H393 H 0.66144 0.32319 0.43619 0.0
H394 H 0.64615 0.31003 0.39435 0.0
H395 H 0.60021 0.3086 0.36497 0.0
H396 H 0.55223 0.29866 0.24617 0.0
H397 H 0.56606 0.31476 0.28805 0.0
H398 H 0.69597 0.40407 0.30538 0.0
C399 C 0.65909 0.34095 0.40067 0.0
C400 C 0.62159 0.3295 0.35215 0.0
C401 C 0.66815 0.34856 0.42467 0.0
C402 C 0.58319 0.3116 0.25243 0.0
C403 C 0.59111 0.32067 0.27647 0.0
C404 C 0.67499 0.38275 0.3182 0.0
C405 C 0.66718 0.37286 0.38503 0.0
C406 C 0.65731 0.36452 0.35948 0.0
C407 C 0.63095 0.33781 0.28531 0.0
C408 C 0.63958 0.34741 0.31087 0.0
H409 H 0.70757 0.45126 0.42436 0.0
H410 H 0.69114 0.43791 0.38249 0.0
H411 H 0.71174 0.4182 0.34716 0.0
H412 H 0.67992 0.34306 0.23396 0.0
H413 H 0.69353 0.35801 0.27579 0.0
C414 C 0.31906 0.66559 0.75762 0.0
C415 C 0.29639 0.68272 0.76645 0.0
C416 C 0.3182 0.65687 0.7336 0.0
C417 C 0.29355 0.61996 0.68487 0.0
H418 H 0.29347 0.69451 0.63818 0.0
C419 C 0.27521 0.58267 0.58505 0.0
C420 C 0.29889 0.61467 0.56944 0.0
C421 C 0.27362 0.59031 0.60908 0.0
C422 C 0.2938 0.6735 0.65098 0.0
H423 H 0.25491 0.70403 0.75693 0.0
H424 H 0.25288 0.68817 0.71503 0.0
H425 H 0.29399 0.70964 0.67999 0.0
H426 H 0.3399 0.67974 0.56691 0.0
H427 H 0.33782 0.69288 0.60876 0.0
H428 H 0.29474 0.58451 0.65588 0.0
C429 C 0.27187 0.68208 0.72664 0.0
C430 C 0.29354 0.68191 0.67498 0.0
C431 C 0.27287 0.69101 0.75068 0.0
C432 C 0.32116 0.65439 0.57842 0.0
C433 C 0.31974 0.66199 0.60242 0.0
C434 C 0.29397 0.61163 0.66087 0.0
C435 C 0.29448 0.66484 0.71781 0.0
C436 C 0.29363 0.65536 0.69224 0.0
C437 C 0.29582 0.63009 0.61806 0.0
C438 C 0.29432 0.63839 0.64361 0.0
H439 H 0.33769 0.65902 0.76924 0.0
H440 H 0.33659 0.64431 0.72739 0.0
H441 H 0.29304 0.59853 0.69767 0.0
H442 H 0.25754 0.55175 0.57868 0.0
H443 H 0.2545 0.56508 0.62055 0.0
loop_
_geom_bond_atom_site_label_1
_geom_bond_atom_site_label_2
_geom_bond_distance
_geom_bond_site_symmetry_2
_ccdc_geom_bond_type
C0 O2 1.247 . S
C0 O4 1.258 . S
C1 O8 1.247 . S
C1 O9 1.258 . S
O2 C0 1.247 . S
O2 Zn3 2.028 . S
Zn3 O2 2.028 . S
Zn3 O7 2.035 . S
Zn3 O9 2.035 . S
Zn3 O10 2.028 . S
O4 C0 1.258 . S
O4 Zn5 2.035 . S
Zn5 O4 2.035 . S
Zn5 O6 2.028 . S
Zn5 O8 2.028 . S
Zn5 O11 2.035 . S
O6 Zn5 2.028 . S
O6 C12 1.247 . S
O7 Zn3 2.035 . S
O7 C12 1.258 . S
O8 C1 1.247 . S
O8 Zn5 2.028 . S
O9 C1 1.258 . S
O9 Zn3 2.035 . S
O10 Zn3 2.028 . S
O10 C13 1.247 . S
O11 Zn5 2.035 . S
O11 C13 1.258 . S
C12 O6 1.247 . S
C12 O7 1.258 . S
C13 O10 1.247 . S
C13 O11 1.258 . S
C14 O16 1.247 . S
C14 O18 1.258 . S
C15 O22 1.247 . S
C15 O23 1.258 . S
O16 C14 1.247 . S
O16 Zn17 2.028 . S
Zn17 O16 2.028 . S
Zn17 O21 2.035 . S
Zn17 O23 2.035 . S
Zn17 O24 2.028 . S
O18 C14 1.258 . S
O18 Zn19 2.035 . S
Zn19 O18 2.035 . S
Zn19 O20 2.028 . S
Zn19 O22 2.028 . S
Zn19 O25 2.035 . S
O20 Zn19 2.028 . S
O20 C26 1.247 . S
O21 Zn17 2.035 . S
O21 C26 1.258 . S
O22 C15 1.247 . S
O22 Zn19 2.028 . S
O23 C15 1.258 . S
O23 Zn17 2.035 . S
O24 Zn17 2.028 . S
O24 C27 1.247 . S
O25 Zn19 2.035 . S
O25 C27 1.258 . S
C26 O20 1.247 . S
C26 O21 1.258 . S
C27 O24 1.247 . S
C27 O25 1.258 . S
C28 O30 1.247 . S
C28 O32 1.258 . S
C29 O36 1.247 . S
C29 O37 1.258 . S
O30 C28 1.247 . S
O30 Zn31 2.028 . S
Zn31 O30 2.028 . S
Zn31 O35 2.035 . S
Zn31 O37 2.035 . S
Zn31 O38 2.028 . S
O32 C28 1.258 . S
O32 Zn33 2.035 . S
Zn33 O32 2.035 . S
Zn33 O34 2.028 . S
Zn33 O36 2.028 . S
Zn33 O39 2.035 . S
O34 Zn33 2.028 . S
O34 C40 1.247 . S
O35 Zn31 2.035 . S
O35 C40 1.258 . S
O36 C29 1.247 . S
O36 Zn33 2.028 . S
O37 C29 1.258 . S
O37 Zn31 2.035 . S
O38 Zn31 2.028 . S
O38 C41 1.247 . S
O39 Zn33 2.035 . S
O39 C41 1.258 . S
C40 O34 1.247 . S
C40 O35 1.258 . S
C41 O38 1.247 . S
C41 O39 1.258 . S
C42 O44 1.247 . S
C42 O46 1.258 . S
C43 O50 1.247 . S
C43 O51 1.258 . S
O44 C42 1.247 . S
O44 Zn45 2.028 . S
Zn45 O44 2.028 . S
Zn45 O49 2.035 . S
Zn45 O51 2.035 . S
Zn45 O52 2.028 . S
O46 C42 1.258 . S
O46 Zn47 2.035 . S
Zn47 O46 2.035 . S
Zn47 O48 2.028 . S
Zn47 O50 2.028 . S
Zn47 O53 2.035 . S
O48 Zn47 2.028 . S
O48 C54 1.247 . S
O49 Zn45 2.035 . S
O49 C54 1.258 . S
O50 C43 1.247 . S
O50 Zn47 2.028 . S
O51 C43 1.258 . S
O51 Zn45 2.035 . S
O52 Zn45 2.028 . S
O52 C55 1.247 . S
O53 Zn47 2.035 . S
O53 C55 1.258 . S
C54 O48 1.247 . S
C54 O49 1.258 . S
C55 O52 1.247 . S
C55 O53 1.258 . S
C56 O58 1.247 . S
C56 O60 1.258 . S
C57 O64 1.247 . S
C57 O65 1.258 . S
O58 C56 1.247 . S
O58 Zn59 2.028 . S
Zn59 O58 2.028 . S
Zn59 O63 2.035 . S
Zn59 O65 2.035 . S
Zn59 O66 2.028 . S
O60 C56 1.258 . S
O60 Zn61 2.035 . S
Zn61 O60 2.035 . S
Zn61 O62 2.028 . S
Zn61 O64 2.028 . S
Zn61 O67 2.035 . S
O62 Zn61 2.028 . S
O62 C68 1.247 . S
O63 Zn59 2.035 . S
O63 C68 1.258 . S
O64 C57 1.247 . S
O64 Zn61 2.028 . S
O65 C57 1.258 . S
O65 Zn59 2.035 . S
O66 Zn59 2.028 . S
O66 C69 1.247 . S
O67 Zn61 2.035 . S
O67 C69 1.258 . S
C68 O62 1.247 . S
C68 O63 1.258 . S
C69 O66 1.247 . S
C69 O67 1.258 . S
C70 O72 1.247 . S
C70 O74 1.258 . S
C71 O78 1.247 . S
C71 O79 1.258 . S
O72 C70 1.247 . S
O72 Zn73 2.028 . S
Zn73 O72 2.028 . S
Zn73 O77 2.035 . S
Zn73 O79 2.035 . S
Zn73 O80 2.028 . S
O74 C70 1.258 . S
O74 Zn75 2.035 . S
Zn75 O74 2.035 . S
Zn75 O76 2.028 . S
Zn75 O78 2.028 . S
Zn75 O81 2.035 . S
O76 Zn75 2.028 . S
O76 C82 1.247 . S
O77 Zn73 2.035 . S
O77 C82 1.258 . S
O78 C71 1.247 . S
O78 Zn75 2.028 . S
O79 C71 1.258 . S
O79 Zn73 2.035 . S
O80 Zn73 2.028 . S
O80 C83 1.247 . S
O81 Zn75 2.035 . S
O81 C83 1.258 . S
C82 O76 1.247 . S
C82 O77 1.258 . S
C83 O80 1.247 . S
C83 O81 1.258 . S
C84 C85 1.349 . S
C84 C86 1.327 . S
C84 H109 0.950 . S
C85 C84 1.349 . S
C85 C101 1.349 . S
C86 C84 1.327 . S
C86 C105 1.429 . S
C86 H110 0.950 . S
C87 C104 1.574 1_545 S
C87 C106 1.368 . S
C87 H111 0.949 . S
H88 C92 0.949 . S
C89 C90 1.349 . S
C89 C91 1.327 . S
C89 H112 0.950 . S
C90 C89 1.349 . S
C90 C102 1.349 . S
C91 C89 1.327 . S
C91 C107 1.429 . S
C91 H113 0.950 . S
C92 H88 0.949 . S
C92 C100 1.574 1_565 S
C92 C108 1.368 . S
H93 C101 0.950 . S
H94 C99 0.950 . S
H95 C100 0.949 . S
H96 C102 0.950 . S
H97 C103 0.950 . S
H98 C104 0.949 . S
C99 H94 0.950 . S
C99 C101 1.327 . S
C99 C105 1.429 . S
C100 C92 1.574 1_545 S
C100 H95 0.949 . S
C100 C106 1.368 . S
C101 C85 1.349 . S
C101 H93 0.950 . S
C101 C99 1.327 . S
C102 C90 1.349 . S
C102 H96 0.950 . S
C102 C103 1.327 . S
C103 H97 0.950 . S
C103 C102 1.327 . S
C103 C107 1.429 . S
C104 C87 1.574 1_565 S
C104 H98 0.949 . S
C104 C108 1.368 . S
C105 C86 1.429 . S
C105 C99 1.429 . S
C105 C106 1.523 . S
C106 C87 1.368 . S
C106 C100 1.368 . S
C106 C105 1.523 . S
C107 C91 1.429 . S
C107 C103 1.429 . S
C107 C108 1.523 . S
C108 C92 1.368 . S
C108 C104 1.368 . S
C108 C107 1.523 . S
H109 C84 0.950 . S
H110 C86 0.950 . S
H111 C87 0.949 . S
H112 C89 0.950 . S
H113 C91 0.950 . S
C114 C115 1.349 . S
C114 C116 1.327 . S
C114 H139 0.950 . S
C115 C114 1.349 . S
C115 C131 1.349 . S
C116 C114 1.327 . S
C116 C135 1.429 . S
C116 H140 0.950 . S
C117 C134 1.574 . S
C117 C136 1.368 . S
C117 H141 0.949 . S
H118 C122 0.949 . S
C119 C120 1.349 . S
C119 C121 1.327 . S
C119 H142 0.950 . S
C120 C119 1.349 . S
C120 C132 1.349 . S
C121 C119 1.327 . S
C121 C137 1.429 . S
C121 H143 0.950 . S
C122 H118 0.949 . S
C122 C130 1.574 . S
C122 C138 1.368 . S
H123 C131 0.950 . S
H124 C129 0.950 . S
H125 C130 0.949 . S
H126 C132 0.950 . S
H127 C133 0.950 . S
H128 C134 0.949 . S
C129 H124 0.950 . S
C129 C131 1.327 . S
C129 C135 1.429 . S
C130 C122 1.574 . S
C130 H125 0.949 . S
C130 C136 1.368 . S
C131 C115 1.349 . S
C131 H123 0.950 . S
C131 C129 1.327 . S
C132 C120 1.349 . S
C132 H126 0.950 . S
C132 C133 1.327 . S
C133 H127 0.950 . S
C133 C132 1.327 . S
C133 C137 1.429 . S
C134 C117 1.574 . S
C134 H128 0.949 . S
C134 C138 1.368 . S
C135 C116 1.429 . S
C135 C129 1.429 . S
C135 C136 1.523 . S
C136 C117 1.368 . S
C136 C130 1.368 . S
C136 C135 1.523 . S
C137 C121 1.429 . S
C137 C133 1.429 . S
C137 C138 1.523 . S
C138 C122 1.368 . S
C138 C134 1.368 . S
C138 C137 1.523 . S
H139 C114 0.950 . S
H140 C116 0.950 . S
H141 C117 0.949 . S
H142 C119 0.950 . S
H143 C121 0.950 . S
C144 C145 1.349 . S
C144 C146 1.327 . S
C144 H169 0.950 . S
C145 C144 1.349 . S
C145 C161 1.349 . S
C146 C144 1.327 . S
C146 C165 1.429 . S
C146 H170 0.950 . S
C147 C164 1.574 1_655 S
C147 C166 1.368 . S
C147 H171 0.949 . S
H148 C152 0.949 . S
C149 C150 1.349 . S
C149 C151 1.327 . S
C149 H172 0.950 . S
C150 C149 1.349 . S
C150 C162 1.349 . S
C151 C149 1.327 . S
C151 C167 1.429 . S
C151 H173 0.950 . S
C152 H148 0.949 . S
C152 C160 1.574 1_455 S
C152 C168 1.368 . S
H153 C161 0.950 . S
H154 C159 0.950 . S
H155 C160 0.949 . S
H156 C162 0.950 . S
H157 C163 0.950 . S
H158 C164 0.949 . S
C159 H154 0.950 . S
C159 C161 1.327 . S
C159 C165 1.429 . S
C160 C152 1.574 1_655 S
C160 H155 0.949 . S
C160 C166 1.368 . S
C161 C145 1.349 . S
C161 H153 0.950 . S
C161 C159 1.327 . S
C162 C150 1.349 . S
C162 H156 0.950 . S
C162 C163 1.327 . S
C163 H157 0.950 . S
C163 C162 1.327 . S
C163 C167 1.429 . S
C164 C147 1.574 1_455 S
C164 H158 0.949 . S
C164 C168 1.368 . S
C165 C146 1.429 . S
C165 C159 1.429 . S
C165 C166 1.523 . S
C166 C147 1.368 . S
C166 C160 1.368 . S
C166 C165 1.523 . S
C167 C151 1.429 . S
C167 C163 1.429 . S
C167 C168 1.523 . S
C168 C152 1.368 . S
C168 C164 1.368 . S
C168 C167 1.523 . S
H169 C144 0.950 . S
H170 C146 0.950 . S
H171 C147 0.949 . S
H172 C149 0.950 . S
H173 C151 0.950 . S
C174 C175 1.349 . S
C174 C176 1.327 . S
C174 H199 0.950 . S
C175 C174 1.349 . S
C175 C191 1.349 . S
C176 C174 1.327 . S
C176 C195 1.429 . S
C176 H200 0.950 . S
C177 C194 1.574 1_455 S
C177 C196 1.368 . S
C177 H201 0.949 . S
H178 C182 0.949 . S
C179 C180 1.349 . S
C179 C181 1.327 . S
C179 H202 0.950 . S
C180 C179 1.349 . S
C180 C192 1.349 . S
C181 C179 1.327 . S
C181 C197 1.429 . S
C181 H203 0.950 . S
C182 H178 0.949 . S
C182 C190 1.574 1_655 S
C182 C198 1.368 . S
H183 C191 0.950 . S
H184 C189 0.950 . S
H185 C190 0.949 . S
H186 C192 0.950 . S
H187 C193 0.950 . S
H188 C194 0.949 . S
C189 H184 0.950 . S
C189 C191 1.327 . S
C189 C195 1.429 . S
C190 C182 1.574 1_455 S
C190 H185 0.949 . S
C190 C196 1.368 . S
C191 C175 1.349 . S
C191 H183 0.950 . S
C191 C189 1.327 . S
C192 C180 1.349 . S
C192 H186 0.950 . S
C192 C193 1.327 . S
C193 H187 0.950 . S
C193 C192 1.327 . S
C193 C197 1.429 . S
C194 C177 1.574 1_655 S
C194 H188 0.949 . S
C194 C198 1.368 . S
C195 C176 1.429 . S
C195 C189 1.429 . S
C195 C196 1.523 . S
C196 C177 1.368 . S
C196 C190 1.368 . S
C196 C195 1.523 . S
C197 C181 1.429 . S
C197 C193 1.429 . S
C197 C198 1.523 . S
C198 C182 1.368 . S
C198 C194 1.368 . S
C198 C197 1.523 . S
H199 C174 0.950 . S
H200 C176 0.950 . S
H201 C177 0.949 . S
H202 C179 0.950 . S
H203 C181 0.950 . S
C204 C205 1.349 . S
C204 C206 1.327 . S
C204 H229 0.950 . S
C205 C204 1.349 . S
C205 C221 1.349 . S
C206 C204 1.327 . S
C206 C225 1.429 . S
C206 H230 0.950 . S
C207 C224 1.574 1_565 S
C207 C226 1.368 . S
C207 H231 0.949 . S
H208 C212 0.949 . S
C209 C210 1.349 . S
C209 C211 1.327 . S
C209 H232 0.950 . S
C210 C209 1.349 . S
C210 C222 1.349 . S
C211 C209 1.327 . S
C211 C227 1.429 . S
C211 H233 0.950 . S
C212 H208 0.949 . S
C212 C220 1.574 1_545 S
C212 C228 1.368 . S
H213 C221 0.950 . S
H214 C219 0.950 . S
H215 C220 0.949 . S
H216 C222 0.950 . S
H217 C223 0.950 . S
H218 C224 0.949 . S
C219 H214 0.950 . S
C219 C221 1.327 . S
C219 C225 1.429 . S
C220 C212 1.574 1_565 S
C220 H215 0.949 . S
C220 C226 1.368 . S
C221 C205 1.349 . S
C221 H213 0.950 . S
C221 C219 1.327 . S
C222 C210 1.349 . S
C222 H216 0.950 . S
C222 C223 1.327 . S
C223 H217 0.950 . S
C223 C222 1.327 . S
C223 C227 1.429 . S
C224 C207 1.574 1_545 S
C224 H218 0.949 . S
C224 C228 1.368 . S
C225 C206 1.429 . S
C225 C219 1.429 . S
C225 C226 1.523 . S
C226 C207 1.368 . S
C226 C220 1.368 . S
C226 C225 1.523 . S
C227 C211 1.429 . S
C227 C223 1.429 . S
C227 C228 1.523 . S
C228 C212 1.368 . S
C228 C224 1.368 . S
C228 C227 1.523 . S
H229 C204 0.950 . S
H230 C206 0.950 . S
H231 C207 0.949 . S
H232 C209 0.950 . S
H233 C211 0.950 . S
C234 C235 1.349 . S
C234 C236 1.327 . S
C234 H259 0.950 . S
C235 C234 1.349 . S
C235 C251 1.349 . S
C236 C234 1.327 . S
C236 C255 1.429 . S
C236 H260 0.950 . S
C237 C254 1.574 . S
C237 C256 1.368 . S
C237 H261 0.949 . S
H238 C242 0.949 . S
C239 C240 1.349 . S
C239 C241 1.327 . S
C239 H262 0.950 . S
C240 C239 1.349 . S
C240 C252 1.349 . S
C241 C239 1.327 . S
C241 C257 1.429 . S
C241 H263 0.950 . S
C242 H238 0.949 . S
C242 C250 1.574 . S
C242 C258 1.368 . S
H243 C251 0.950 . S
H244 C249 0.950 . S
H245 C250 0.949 . S
H246 C252 0.950 . S
H247 C253 0.950 . S
H248 C254 0.949 . S
C249 H244 0.950 . S
C249 C251 1.327 . S
C249 C255 1.429 . S
C250 C242 1.574 . S
C250 H245 0.949 . S
C250 C256 1.368 . S
C251 C235 1.349 . S
C251 H243 0.950 . S
C251 C249 1.327 . S
C252 C240 1.349 . S
C252 H246 0.950 . S
C252 C253 1.327 . S
C253 H247 0.950 . S
C253 C252 1.327 . S
C253 C257 1.429 . S
C254 C237 1.574 . S
C254 H248 0.949 . S
C254 C258 1.368 . S
C255 C236 1.429 . S
C255 C249 1.429 . S
C255 C256 1.523 . S
C256 C237 1.368 . S
C256 C250 1.368 . S
C256 C255 1.523 . S
C257 C241 1.429 . S
C257 C253 1.429 . S
C257 C258 1.523 . S
C258 C242 1.368 . S
C258 C254 1.368 . S
C258 C257 1.523 . S
H259 C234 0.950 . S
H260 C236 0.950 . S
H261 C237 0.949 . S
H262 C239 0.950 . S
H263 C241 0.950 . S
C264 C265 1.349 . S
C264 C266 1.327 . S
C264 H289 0.950 . S
C265 C264 1.349 . S
C265 C281 1.349 . S
C266 C264 1.327 . S
C266 C285 1.429 . S
C266 H290 0.950 . S
C267 C284 1.574 1_556 S
C267 C286 1.368 . S
C267 H291 0.949 . S
H268 C272 0.949 . S
C269 C270 1.349 . S
C269 C271 1.327 . S
C269 H292 0.950 . S
C270 C269 1.349 . S
C270 C282 1.349 . S
C271 C269 1.327 . S
C271 C287 1.429 . S
C271 H293 0.950 . S
C272 H268 0.949 . S
C272 C280 1.574 1_554 S
C272 C288 1.368 . S
H273 C281 0.950 . S
H274 C279 0.950 . S
H275 C280 0.949 . S
H276 C282 0.950 . S
H277 C283 0.950 . S
H278 C284 0.949 . S
C279 H274 0.950 . S
C279 C281 1.327 . S
C279 C285 1.429 . S
C280 C272 1.574 1_556 S
C280 H275 0.949 . S
C280 C286 1.368 . S
C281 C265 1.349 . S
C281 H273 0.950 . S
C281 C279 1.327 . S
C282 C270 1.349 . S
C282 H276 0.950 . S
C282 C283 1.327 . S
C283 H277 0.950 . S
C283 C282 1.327 . S
C283 C287 1.429 . S
C284 C267 1.574 1_554 S
C284 H278 0.949 . S
C284 C288 1.368 . S
C285 C266 1.429 . S
C285 C279 1.429 . S
C285 C286 1.523 . S
C286 C267 1.368 . S
C286 C280 1.368 . S
C286 C285 1.523 . S
C287 C271 1.429 . S
C287 C283 1.429 . S
C287 C288 1.523 . S
C288 C272 1.368 . S
C288 C284 1.368 . S
C288 C287 1.523 . S
H289 C264 0.950 . S
H290 C266 0.950 . S
H291 C267 0.949 . S
H292 C269 0.950 . S
H293 C271 0.950 . S
C294 C295 1.349 . S
C294 C296 1.327 . S
C294 H319 0.950 . S
C295 C294 1.349 . S
C295 C311 1.349 . S
C296 C294 1.327 . S
C296 C315 1.429 . S
C296 H320 0.950 . S
C297 C314 1.574 . S
C297 C316 1.368 . S
C297 H321 0.949 . S
H298 C302 0.949 . S
C299 C300 1.349 . S
C299 C301 1.327 . S
C299 H322 0.950 . S
C300 C299 1.349 . S
C300 C312 1.349 . S
C301 C299 1.327 . S
C301 C317 1.429 . S
C301 H323 0.950 . S
C302 H298 0.949 . S
C302 C310 1.574 . S
C302 C318 1.368 . S
H303 C311 0.950 . S
H304 C309 0.950 . S
H305 C310 0.949 . S
H306 C312 0.950 . S
H307 C313 0.950 . S
H308 C314 0.949 . S
C309 H304 0.950 . S
C309 C311 1.327 . S
C309 C315 1.429 . S
C310 C302 1.574 . S
C310 H305 0.949 . S
C310 C316 1.368 . S
C311 C295 1.349 . S
C311 H303 0.950 . S
C311 C309 1.327 . S
C312 C300 1.349 . S
C312 H306 0.950 . S
C312 C313 1.327 . S
C313 H307 0.950 . S
C313 C312 1.327 . S
C313 C317 1.429 . S
C314 C297 1.574 . S
C314 H308 0.949 . S
C314 C318 1.368 . S
C315 C296 1.429 . S
C315 C309 1.429 . S
C315 C316 1.523 . S
C316 C297 1.368 . S
C316 C310 1.368 . S
C316 C315 1.523 . S
C317 C301 1.429 . S
C317 C313 1.429 . S
C317 C318 1.523 . S
C318 C302 1.368 . S
C318 C314 1.368 . S
C318 C317 1.523 . S
H319 C294 0.950 . S
H320 C296 0.950 . S
H321 C297 0.949 . S
H322 C299 0.950 . S
H323 C301 0.950 . S
C324 C325 1.349 . S
C324 C326 1.327 . S
C324 H349 0.950 . S
C325 C324 1.349 . S
C325 C341 1.349 . S
C326 C324 1.327 . S
C326 C345 1.429 . S
C326 H350 0.950 . S
C327 C344 1.574 . S
C327 C346 1.368 . S
C327 H351 0.949 . S
H328 C332 0.949 . S
C329 C330 1.349 . S
C329 C331 1.327 . S
C329 H352 0.950 . S
C330 C329 1.349 . S
C330 C342 1.349 . S
C331 C329 1.327 . S
C331 C347 1.429 . S
C331 H353 0.950 . S
C332 H328 0.949 . S
C332 C340 1.574 . S
C332 C348 1.368 . S
H333 C341 0.950 . S
H334 C339 0.950 . S
H335 C340 0.949 . S
H336 C342 0.950 . S
H337 C343 0.950 . S
H338 C344 0.949 . S
C339 H334 0.950 . S
C339 C341 1.327 . S
C339 C345 1.429 . S
C340 C332 1.574 . S
C340 H335 0.949 . S
C340 C346 1.368 . S
C341 C325 1.349 . S
C341 H333 0.950 . S
C341 C339 1.327 . S
C342 C330 1.349 . S
C342 H336 0.950 . S
C342 C343 1.327 . S
C343 H337 0.950 . S
C343 C342 1.327 . S
C343 C347 1.429 . S
C344 C327 1.574 . S
C344 H338 0.949 . S
C344 C348 1.368 . S
C345 C326 1.429 . S
C345 C339 1.429 . S
C345 C346 1.523 . S
C346 C327 1.368 . S
C346 C340 1.368 . S
C346 C345 1.523 . S
C347 C331 1.429 . S
C347 C343 1.429 . S
C347 C348 1.523 . S
C348 C332 1.368 . S
C348 C344 1.368 . S
C348 C347 1.523 . S
H349 C324 0.950 . S
H350 C326 0.950 . S
H351 C327 0.949 . S
H352 C329 0.950 . S
H353 C331 0.950 . S
C354 C355 1.349 . S
C354 C356 1.327 . S
C354 H379 0.950 . S
C355 C354 1.349 . S
C355 C371 1.349 . S
C356 C354 1.327 . S
C356 C375 1.429 . S
C356 H380 0.950 . S
C357 C374 1.574 1_556 S
C357 C376 1.368 . S
C357 H381 0.949 . S
H358 C362 0.949 . S
C359 C360 1.349 . S
C359 C361 1.327 . S
C359 H382 0.950 . S
C360 C359 1.349 . S
C360 C372 1.349 . S
C361 C359 1.327 . S
C361 C377 1.429 . S
C361 H383 0.950 . S
C362 H358 0.949 . S
C362 C370 1.574 1_554 S
C362 C378 1.368 . S
H363 C371 0.950 . S
H364 C369 0.950 . S
H365 C370 0.949 . S
H366 C372 0.950 . S
H367 C373 0.950 . S
H368 C374 0.949 . S
C369 H364 0.950 . S
C369 C371 1.327 . S
C369 C375 1.429 . S
C370 C362 1.574 1_556 S
C370 H365 0.949 . S
C370 C376 1.368 . S
C371 C355 1.349 . S
C371 H363 0.950 . S
C371 C369 1.327 . S
C372 C360 1.349 . S
C372 H366 0.950 . S
C372 C373 1.327 . S
C373 H367 0.950 . S
C373 C372 1.327 . S
C373 C377 1.429 . S
C374 C357 1.574 1_554 S
C374 H368 0.949 . S
C374 C378 1.368 . S
C375 C356 1.429 . S
C375 C369 1.429 . S
C375 C376 1.523 . S
C376 C357 1.368 . S
C376 C370 1.368 . S
C376 C375 1.523 . S
C377 C361 1.429 . S
C377 C373 1.429 . S
C377 C378 1.523 . S
C378 C362 1.368 . S
C378 C374 1.368 . S
C378 C377 1.523 . S
H379 C354 0.950 . S
H380 C356 0.950 . S
H381 C357 0.949 . S
H382 C359 0.950 . S
H383 C361 0.950 . S
C384 C385 1.349 . S
C384 C386 1.327 . S
C384 H409 0.950 . S
C385 C384 1.349 . S
C385 C401 1.349 . S
C386 C384 1.327 . S
C386 C405 1.429 . S
C386 H410 0.950 . S
C387 C404 1.574 . S
C387 C406 1.368 . S
C387 H411 0.949 . S
H388 C392 0.949 . S
C389 C390 1.349 . S
C389 C391 1.327 . S
C389 H412 0.950 . S
C390 C389 1.349 . S
C390 C402 1.349 . S
C391 C389 1.327 . S
C391 C407 1.429 . S
C391 H413 0.950 . S
C392 H388 0.949 . S
C392 C400 1.574 . S
C392 C408 1.368 . S
H393 C401 0.950 . S
H394 C399 0.950 . S
H395 C400 0.949 . S
H396 C402 0.950 . S
H397 C403 0.950 . S
H398 C404 0.949 . S
C399 H394 0.950 . S
C399 C401 1.327 . S
C399 C405 1.429 . S
C400 C392 1.574 . S
C400 H395 0.949 . S
C400 C406 1.368 . S
C401 C385 1.349 . S
C401 H393 0.950 . S
C401 C399 1.327 . S
C402 C390 1.349 . S
C402 H396 0.950 . S
C402 C403 1.327 . S
C403 H397 0.950 . S
C403 C402 1.327 . S
C403 C407 1.429 . S
C404 C387 1.574 . S
C404 H398 0.949 . S
C404 C408 1.368 . S
C405 C386 1.429 . S
C405 C399 1.429 . S
C405 C406 1.523 . S
C406 C387 1.368 . S
C406 C400 1.368 . S
C406 C405 1.523 . S
C407 C391 1.429 . S
C407 C403 1.429 . S
C407 C408 1.523 . S
C408 C392 1.368 . S
C408 C404 1.368 . S
C408 C407 1.523 . S
H409 C384 0.950 . S
H410 C386 0.950 . S
H411 C387 0.949 . S
H412 C389 0.950 . S
H413 C391 0.950 . S
C414 C415 1.349 . S
C414 C416 1.327 . S
C414 H439 0.950 . S
C415 C414 1.349 . S
C415 C431 1.349 . S
C416 C414 1.327 . S
C416 C435 1.429 . S
C416 H440 0.950 . S
C417 C434 1.574 . S
C417 C436 1.368 . S
C417 H441 0.949 . S
H418 C422 0.949 . S
C419 C420 1.349 . S
C419 C421 1.327 . S
C419 H442 0.950 . S
C420 C419 1.349 . S
C420 C432 1.349 . S
C421 C419 1.327 . S
C421 C437 1.429 . S
C421 H443 0.950 . S
C422 H418 0.949 . S
C422 C430 1.574 . S
C422 C438 1.368 . S
H423 C431 0.950 . S
H424 C429 0.950 . S
H425 C430 0.949 . S
H426 C432 0.950 . S
H427 C433 0.950 . S
H428 C434 0.949 . S
C429 H424 0.950 . S
C429 C431 1.327 . S
C429 C435 1.429 . S
C430 C422 1.574 . S
C430 H425 0.949 . S
C430 C436 1.368 . S
C431 C415 1.349 . S
C431 H423 0.950 . S
C431 C429 1.327 . S
C432 C420 1.349 . S
C432 H426 0.950 . S
C432 C433 1.327 . S
C433 H427 0.950 . S
C433 C432 1.327 . S
C433 C437 1.429 . S
C434 C417 1.574 . S
C434 H428 0.949 . S
C434 C438 1.368 . S
C435 C416 1.429 . S
C435 C429 1.429 . S
C435 C436 1.523 . S
C436 C417 1.368 . S
C436 C430 1.368 . S
C436 C435 1.523 . S
C437 C421 1.429 . S
C437 C433 1.429 . S
C437 C438 1.523 . S
C438 C422 1.368 . S
C438 C434 1.368 . S
C438 C437 1.523 . S
H439 C414 0.950 . S
H440 C416 0.950 . S
H441 C417 0.949 . S
H442 C419 0.950 . S
H443 C421 0.950 . S
C85 C1 1.721 . S
C90 C54 1.719 . S
C115 C26 1.719 . S
C120 C56 1.719 . S
C145 C40 1.718 . S
C150 C71 1.720 . S
C175 C27 1.720 . S
C180 C57 1.720 . S
C205 C70 1.718 . S
C210 C41 1.720 . S
C235 C55 1.720 . S
C240 C0 1.719 . S
C265 C28 1.814 . S
C270 C12 1.814 . S
C295 C42 1.814 . S
C300 C15 1.816 . S
C325 C29 1.817 . S
C330 C68 1.815 . S
C355 C83 1.816 . S
C360 C43 1.816 . S
C385 C69 1.816 . S
C390 C13 1.816 . S
C415 C82 1.815 . S
C420 C14 1.815 . S
