# Generated by pormake.
# Topology yfg, (5)-cn, num edge types: 1
# Building blocks:
#     Node 0, Type 0, BuildingBlock: BEQFEK_clean_sbu_0, # of connection points: 5
#     Node 1, Type 0, BuildingBlock: BEQFEK_clean_sbu_0, # of connection points: 5
#     Node 2, Type 0, BuildingBlock: BEQFEK_clean_sbu_0, # of connection points: 5
#     Node 3, Type 0, BuildingBlock: BEQFEK_clean_sbu_0, # of connection points: 5
#     Node 4, Type 0, BuildingBlock: BEQFEK_clean_sbu_0, # of connection points: 5
#     Node 5, Type 0, BuildingBlock: BEQFEK_clean_sbu_0, # of connection points: 5
#     Node 6, Type 0, BuildingBlock: BEQFEK_clean_sbu_0, # of connection points: 5
#     Node 7, Type 0, BuildingBlock: BEQFEK_clean_sbu_0, # of connection points: 5
#     Edge 8, Type (0, 0), BuildingBlock: EZIPEK_clean_linker_0, # of connection points: 2
#     Edge 9, Type (0, 0), BuildingBlock: EZIPEK_clean_linker_0, # of connection points: 2
#     Edge 10, Type (0, 0), BuildingBlock: EZIPEK_clean_linker_0, # of connection points: 2
#     Edge 11, Type (0, 0), BuildingBlock: EZIPEK_clean_linker_0, # of connection points: 2
#     Edge 12, Type (0, 0), BuildingBlock: EZIPEK_clean_linker_0, # of connection points: 2
#     Edge 13, Type (0, 0), BuildingBlock: EZIPEK_clean_linker_0, # of connection points: 2
#     Edge 14, Type (0, 0), BuildingBlock: EZIPEK_clean_linker_0, # of connection points: 2
#     Edge 15, Type (0, 0), BuildingBlock: EZIPEK_clean_linker_0, # of connection points: 2
#     Edge 16, Type (0, 0), BuildingBlock: EZIPEK_clean_linker_0, # of connection points: 2
#     Edge 17, Type (0, 0), BuildingBlock: EZIPEK_clean_linker_0, # of connection points: 2
#     Edge 18, Type (0, 0), BuildingBlock: EZIPEK_clean_linker_0, # of connection points: 2
#     Edge 19, Type (0, 0), BuildingBlock: EZIPEK_clean_linker_0, # of connection points: 2
#     Edge 20, Type (0, 0), BuildingBlock: EZIPEK_clean_linker_0, # of connection points: 2
#     Edge 21, Type (0, 0), BuildingBlock: EZIPEK_clean_linker_0, # of connection points: 2
#     Edge 22, Type (0, 0), BuildingBlock: EZIPEK_clean_linker_0, # of connection points: 2
#     Edge 23, Type (0, 0), BuildingBlock: EZIPEK_clean_linker_0, # of connection points: 2
#     Edge 24, Type (0, 0), BuildingBlock: EZIPEK_clean_linker_0, # of connection points: 2
#     Edge 25, Type (0, 0), BuildingBlock: EZIPEK_clean_linker_0, # of connection points: 2
#     Edge 26, Type (0, 0), BuildingBlock: EZIPEK_clean_linker_0, # of connection points: 2
#     Edge 27, Type (0, 0), BuildingBlock: EZIPEK_clean_linker_0, # of connection points: 2
# Relax obj value: 0.529
# Max RMSD: 0.227
# Mean RMSD: 0.227
data_MOF--net-yfg--node1-BEQFEK_clean_sbu_0--edge1-EZIPEK_clean_linker_0
_symmetry_space_group_name_H-M    P1
_symmetry_Int_Tables_number       1
_symmetry_cell_setting            triclinic
loop_
_symmetry_equiv_pos_as_xyz
'x, y, z'
_cell_length_a     25.303639
_cell_length_b     25.37374
_cell_length_c     34.898917
_cell_angle_alpha  89.688211
_cell_angle_beta   90.005207
_cell_angle_gamma 90.019144
loop_
_atom_site_label
_atom_site_type_symbol
_atom_site_fract_x
_atom_site_fract_y
_atom_site_fract_z
_atom_type_partial_charge
Co0 Co 0.22843 0.45318 0.10351 0.0
Co1 Co 0.2683 0.48536 0.0212 0.0
C2 C 0.29231 0.55143 0.08917 0.0
O3 O 0.26706 0.51993 0.11092 0.0
O4 O 0.29557 0.54431 0.05307 0.0
C5 C 0.16592 0.47169 0.16894 0.0
O6 O 0.16382 0.51883 0.15322 0.0
C7 C 0.29963 0.5405 0.94941 0.0
C8 C 0.28263 0.47949 0.90612 0.0
C9 C 0.30123 0.53044 0.91034 0.0
N10 N 0.28089 0.49743 0.96752 0.0
N11 N 0.27108 0.46109 0.94143 0.0
C12 C 0.31659 0.58971 0.96936 0.0
H13 H 0.34846 0.58003 0.99007 0.0
H14 H 0.28277 0.60571 0.98587 0.0
H15 H 0.3311 0.61999 0.94885 0.0
C16 C 0.12616 0.45029 0.063 0.0
N17 N 0.17888 0.45753 0.06349 0.0
N18 N 0.19451 0.47462 0.02966 0.0
C19 C 0.15159 0.48094 0.0071 0.0
C20 C 0.10725 0.46536 0.02753 0.0
C21 C 0.09391 0.43019 0.0959 0.0
H22 H 0.1167 0.40073 0.11264 0.0
H23 H 0.08329 0.46365 0.11469 0.0
H24 H 0.05668 0.41191 0.08566 0.0
O25 O 0.28221 0.39973 0.09395 0.0
O26 O 0.31171 0.42253 0.03636 0.0
H27 H 0.16358 0.472 0.947 0.0
H28 H 0.11287 0.51863 0.95909 0.0
C29 C 0.15239 0.50341 0.96741 0.0
H30 H 0.18187 0.53566 0.96545 0.0
H31 H 0.25619 0.42368 0.94775 0.0
O32 O 0.19349 0.4368 0.1524 0.0
C33 C 0.31394 0.39329 0.06612 0.0
Co34 Co 0.54042 0.22739 0.34862 0.0
Co35 Co 0.51423 0.27138 0.2664 0.0
C36 C 0.44158 0.28876 0.33204 0.0
O37 O 0.47132 0.26112 0.35344 0.0
O38 O 0.45234 0.29689 0.2968 0.0
C39 C 0.51315 0.17385 0.41566 0.0
O40 O 0.46785 0.16926 0.39762 0.0
C41 C 0.46173 0.30098 0.19374 0.0
C42 C 0.52536 0.28666 0.15164 0.0
C43 C 0.47325 0.30265 0.15487 0.0
N44 N 0.50507 0.28478 0.21271 0.0
N45 N 0.54303 0.27664 0.18737 0.0
C46 C 0.41051 0.31457 0.21268 0.0
H47 H 0.41733 0.34635 0.23382 0.0
H48 H 0.39558 0.27957 0.22853 0.0
H49 H 0.38038 0.32784 0.19165 0.0
C50 C 0.54611 0.12807 0.30749 0.0
N51 N 0.54117 0.18073 0.30795 0.0
N52 N 0.52593 0.19767 0.274 0.0
C53 C 0.5189 0.15557 0.25112 0.0
C54 C 0.53173 0.11052 0.27171 0.0
C55 C 0.5591 0.09466 0.34162 0.0
H56 H 0.52258 0.08804 0.3585 0.0
H57 H 0.5747 0.05571 0.33274 0.0
H58 H 0.58865 0.11476 0.35988 0.0
O59 O 0.59114 0.28467 0.34266 0.0
O60 O 0.57513 0.31551 0.28404 0.0
H61 H 0.52646 0.17095 0.19122 0.0
H62 H 0.48127 0.11844 0.20258 0.0
C63 C 0.49569 0.15773 0.21173 0.0
H64 H 0.46259 0.18633 0.21094 0.0
H65 H 0.58084 0.26338 0.19445 0.0
O66 O 0.55278 0.19319 0.39825 0.0
C67 C 0.59973 0.31767 0.31588 0.0
Co68 Co 0.7811 0.52403 0.6014 0.0
Co69 Co 0.73383 0.50595 0.51954 0.0
C70 C 0.71412 0.4304 0.58396 0.0
O71 O 0.74557 0.45589 0.60523 0.0
O72 O 0.70511 0.44447 0.54944 0.0
C73 C 0.84132 0.49192 0.66473 0.0
O74 O 0.84906 0.45008 0.64347 0.0
C75 C 0.70231 0.45718 0.44652 0.0
C76 C 0.70828 0.52462 0.40632 0.0
C77 C 0.69591 0.47155 0.40842 0.0
N78 N 0.71785 0.49983 0.4662 0.0
N79 N 0.72129 0.54 0.44199 0.0
C80 C 0.69264 0.40424 0.46424 0.0
H81 H 0.65829 0.40685 0.4839 0.0
H82 H 0.72755 0.39252 0.48155 0.0
H83 H 0.6845 0.37382 0.4423 0.0
C84 C 0.8798 0.53303 0.5578 0.0
N85 N 0.82718 0.52634 0.55983 0.0
N86 N 0.80854 0.51505 0.52564 0.0
C87 C 0.84945 0.51272 0.50087 0.0
C88 C 0.8956 0.52426 0.52056 0.0
C89 C 0.91476 0.54526 0.59114 0.0
H90 H 0.89376 0.57086 0.61177 0.0
H91 H 0.92578 0.50789 0.60568 0.0
H92 H 0.95165 0.56501 0.58159 0.0
O93 O 0.7245 0.57681 0.59808 0.0
O94 O 0.69266 0.56733 0.53907 0.0
H95 H 0.82839 0.53153 0.44322 0.0
H96 H 0.88423 0.48796 0.44729 0.0
C97 C 0.84504 0.49786 0.45958 0.0
H98 H 0.8181 0.46367 0.45654 0.0
H99 H 0.73265 0.57797 0.44986 0.0
O100 O 0.81655 0.53117 0.65095 0.0
C101 C 0.69154 0.58889 0.57197 0.0
Co102 Co 0.46249 0.77211 0.84977 0.0
Co103 Co 0.48681 0.72831 0.76785 0.0
C104 C 0.55954 0.70879 0.83465 0.0
O105 O 0.53077 0.73576 0.85707 0.0
O106 O 0.548 0.70325 0.79928 0.0
C107 C 0.48003 0.82545 0.91955 0.0
O108 O 0.52934 0.82671 0.90786 0.0
C109 C 0.53964 0.69108 0.69755 0.0
C110 C 0.48175 0.71316 0.65283 0.0
C111 C 0.53096 0.69053 0.65832 0.0
N112 N 0.49757 0.71318 0.71462 0.0
N113 N 0.46282 0.72561 0.68773 0.0
C114 C 0.5871 0.67079 0.7185 0.0
H115 H 0.57433 0.64217 0.74081 0.0
H116 H 0.60703 0.70407 0.73311 0.0
H117 H 0.61547 0.65135 0.69888 0.0
C118 C 0.45809 0.87234 0.80733 0.0
N119 N 0.46368 0.81964 0.80844 0.0
N120 N 0.47659 0.80248 0.77417 0.0
C121 C 0.48137 0.84447 0.75041 0.0
C122 C 0.46927 0.88973 0.77068 0.0
C123 C 0.44566 0.9058 0.84126 0.0
H124 H 0.41317 0.88771 0.8581 0.0
H125 H 0.48127 0.90808 0.85964 0.0
H126 H 0.43429 0.94636 0.83254 0.0
O127 O 0.41007 0.71637 0.84353 0.0
O128 O 0.4245 0.68529 0.78526 0.0
H129 H 0.46657 0.83252 0.69091 0.0
H130 H 0.51651 0.88085 0.70043 0.0
C131 C 0.50031 0.84226 0.70985 0.0
H132 H 0.53122 0.81162 0.70684 0.0
H133 H 0.4264 0.74332 0.69318 0.0
O134 O 0.44443 0.80703 0.89785 0.0
C135 C 0.39969 0.68389 0.81703 0.0
Co136 Co 0.22726 0.5172 0.38888 0.0
Co137 Co 0.27296 0.49713 0.47153 0.0
C138 C 0.29246 0.42085 0.41114 0.0
O139 O 0.26896 0.45121 0.38761 0.0
O140 O 0.29313 0.43027 0.44689 0.0
C141 C 0.16362 0.47864 0.32967 0.0
O142 O 0.15398 0.44188 0.35541 0.0
C143 C 0.30903 0.45309 0.54552 0.0
C144 C 0.29542 0.51928 0.58517 0.0
C145 C 0.3126 0.4675 0.5837 0.0
N146 N 0.29039 0.49429 0.52519 0.0
N147 N 0.28286 0.53391 0.54908 0.0
C148 C 0.32337 0.40096 0.52859 0.0
H149 H 0.35251 0.40709 0.50523 0.0
H150 H 0.28752 0.3827 0.51605 0.0
H151 H 0.34059 0.37382 0.55026 0.0
C152 C 0.12877 0.52956 0.43277 0.0
N153 N 0.18104 0.52055 0.43081 0.0
N154 N 0.19909 0.50937 0.46529 0.0
C155 C 0.158 0.50838 0.48995 0.0
C156 C 0.11244 0.52152 0.47004 0.0
C157 C 0.09498 0.54562 0.39964 0.0
H158 H 0.11823 0.5707 0.37974 0.0
H159 H 0.0814 0.50989 0.38437 0.0
H160 H 0.05956 0.56753 0.40941 0.0
O161 O 0.27935 0.57356 0.39065 0.0
O162 O 0.31888 0.55236 0.44567 0.0
H163 H 0.17494 0.52714 0.54815 0.0
H164 H 0.12246 0.48011 0.54246 0.0
C165 C 0.16152 0.49278 0.53125 0.0
H166 H 0.19046 0.46034 0.53491 0.0
H167 H 0.26816 0.57068 0.54084 0.0
O168 O 0.19088 0.51862 0.33892 0.0
C169 C 0.31665 0.57937 0.41467 0.0
Co170 Co 0.47209 0.22687 0.64342 0.0
Co171 Co 0.49605 0.26789 0.7263 0.0
C172 C 0.56914 0.29039 0.6621 0.0
O173 O 0.53861 0.26612 0.63948 0.0
O174 O 0.55947 0.29308 0.69785 0.0
C175 C 0.50568 0.16918 0.58003 0.0
O176 O 0.54652 0.16063 0.60244 0.0
C177 C 0.54685 0.30008 0.79848 0.0
C178 C 0.4819 0.29066 0.84031 0.0
C179 C 0.53425 0.30584 0.83683 0.0
N180 N 0.50399 0.28211 0.7799 0.0
N181 N 0.46532 0.27655 0.80511 0.0
C182 C 0.59813 0.31365 0.7795 0.0
H183 H 0.61249 0.27912 0.76315 0.0
H184 H 0.62861 0.32561 0.80059 0.0
H185 H 0.59165 0.34653 0.75894 0.0
C186 C 0.46484 0.12541 0.68493 0.0
N187 N 0.47244 0.1779 0.68405 0.0
N188 N 0.48492 0.19429 0.71862 0.0
C189 C 0.48729 0.15215 0.74235 0.0
C190 C 0.4744 0.10743 0.72171 0.0
C191 C 0.45007 0.09269 0.6511 0.0
H192 H 0.48666 0.0803 0.63618 0.0
H193 H 0.42854 0.05661 0.66017 0.0
H194 H 0.42516 0.11579 0.631 0.0
O195 O 0.41711 0.28055 0.64925 0.0
O196 O 0.43532 0.31185 0.70707 0.0
H197 H 0.51379 0.11456 0.79468 0.0
H198 H 0.5367 0.18153 0.78737 0.0
C199 C 0.5029 0.1542 0.78364 0.0
H200 H 0.46908 0.16899 0.80067 0.0
H201 H 0.42739 0.26353 0.7982 0.0
O202 O 0.46586 0.19381 0.59293 0.0
C203 C 0.40878 0.31341 0.676 0.0
Co204 Co 0.77791 0.47877 0.89586 0.0
Co205 Co 0.72809 0.49624 0.97634 0.0
C206 C 0.71059 0.57061 0.90864 0.0
O207 O 0.7435 0.54687 0.88749 0.0
O208 O 0.7009 0.55486 0.94266 0.0
C209 C 0.83393 0.50031 0.82851 0.0
O210 O 0.83597 0.54781 0.84316 0.0
C211 C 0.71684 0.56011 0.04442 0.0
C212 C 0.65959 0.51449 0.07907 0.0
C213 C 0.68636 0.56213 0.07749 0.0
N214 N 0.70767 0.51395 0.02703 0.0
N215 N 0.67411 0.48643 0.04815 0.0
C216 C 0.75143 0.60255 0.02799 0.0
H217 H 0.78576 0.58496 0.01307 0.0
H218 H 0.76506 0.62982 0.0507 0.0
H219 H 0.72907 0.62527 0.00614 0.0
C220 C 0.87555 0.47291 0.94109 0.0
N221 N 0.82294 0.47909 0.93837 0.0
N222 N 0.80271 0.48528 0.97279 0.0
C223 C 0.84225 0.48212 -0.00128 0.0
C224 C 0.88952 0.47498 0.97929 0.0
C225 C 0.91178 0.46588 0.90763 0.0
H226 H 0.91177 0.5025 0.89019 0.0
H227 H 0.95287 0.45733 0.91683 0.0
H228 H 0.89721 0.43324 0.88946 0.0
O229 O 0.7199 0.42696 0.90081 0.0
O230 O 0.68795 0.4331 0.95999 0.0
H231 H 0.79624 0.4673 0.04946 0.0
H232 H 0.86708 0.46105 0.05579 0.0
C233 C 0.83526 0.4837 0.04126 0.0
H234 H 0.83772 0.52509 0.05112 0.0
H235 H 0.65905 0.44967 0.04049 0.0
O236 O 0.81512 0.46255 0.84821 0.0
C237 C 0.68741 0.41276 0.92671 0.0
Co238 Co 0.50191 0.78777 0.14267 0.0
Co239 Co 0.5082 0.73434 0.22322 0.0
C240 C 0.42931 0.70118 0.16316 0.0
O241 O 0.4444 0.73707 0.14031 0.0
O242 O 0.45075 0.69459 0.19588 0.0
C243 C 0.45508 0.84267 0.08116 0.0
O244 O 0.41309 0.84307 0.10328 0.0
C245 C 0.46447 0.69943 0.29611 0.0
C246 C 0.53412 0.69452 0.33406 0.0
C247 C 0.47992 0.68681 0.33299 0.0
N248 N 0.50719 0.71431 0.27605 0.0
N249 N 0.54877 0.71183 0.29898 0.0
C250 C 0.40996 0.69555 0.27978 0.0
H251 H 0.40621 0.65785 0.26404 0.0
H252 H 0.40303 0.72844 0.2593 0.0
H253 H 0.37966 0.6964 0.30277 0.0
C254 C 0.49748 0.8835 0.18829 0.0
N255 N 0.49731 0.83083 0.18516 0.0
N256 N 0.49943 0.80912 0.21945 0.0
C257 C 0.50018 0.8479 0.24575 0.0
C258 C 0.49906 0.89593 0.22666 0.0
C259 C 0.50117 0.92104 0.15517 0.0
H260 H 0.53077 0.90664 0.13427 0.0
H261 H 0.46224 0.92313 0.14068 0.0
H262 H 0.51215 0.96131 0.16453 0.0
O263 O 0.5682 0.74889 0.14303 0.0
O264 O 0.57664 0.71101 0.19975 0.0
H265 H 0.54525 0.82033 0.29352 0.0
H266 H 0.50505 0.87744 0.30367 0.0
C267 C 0.50666 0.83958 0.28792 0.0
H268 H 0.47491 0.81322 0.29862 0.0
H269 H 0.58725 0.72099 0.29051 0.0
O270 O 0.49871 0.82582 0.09415 0.0
C271 C 0.5946 0.7205 0.16627 0.0
C272 C 0.17262 0.42504 0.26986 0.0
C273 C 0.15106 0.46963 0.28882 0.0
C274 C 0.11673 0.50275 0.22747 0.0
C275 C 0.14572 0.46281 0.20869 0.0
N276 N 0.16944 0.37107 0.21309 0.0
N277 N 0.0971 0.54796 0.28695 0.0
C278 C 0.16355 0.41896 0.23017 0.0
C279 C 0.12071 0.50731 0.26802 0.0
N280 N 0.20549 0.39084 0.28864 0.0
N281 N 0.08299 0.5336 0.20661 0.0
H282 H 0.09603 0.54997 0.31672 0.0
H283 H 0.07968 0.58022 0.27348 0.0
H284 H 0.07544 0.52629 0.17772 0.0
H285 H 0.05825 0.56203 0.21827 0.0
H286 H 0.2265 0.3613 0.27466 0.0
H287 H 0.2162 0.39495 0.31725 0.0
H288 H 0.17887 0.33686 0.22828 0.0
H289 H 0.15689 0.36425 0.18507 0.0
C290 C 0.50038 0.12275 0.47673 0.0
C291 C 0.51409 0.17044 0.45778 0.0
C292 C 0.53243 0.21217 0.51918 0.0
C293 C 0.51263 0.16689 0.53826 0.0
N294 N 0.47331 0.08052 0.53618 0.0
N295 N 0.53004 0.26446 0.46139 0.0
C296 C 0.49539 0.12241 0.51734 0.0
C297 C 0.52687 0.21624 0.47904 0.0
N298 N 0.49345 0.07771 0.45603 0.0
N299 N 0.55668 0.25139 0.53933 0.0
H300 H 0.52296 0.27037 0.43226 0.0
H301 H 0.53375 0.29968 0.47638 0.0
H302 H 0.56135 0.25019 0.56895 0.0
H303 H 0.57683 0.2825 0.52627 0.0
H304 H 0.4885 0.04063 0.46844 0.0
H305 H 0.49684 0.07676 0.42627 0.0
H306 H 0.45459 0.04943 0.52234 0.0
H307 H 0.47093 0.07847 0.56598 0.0
C308 C 0.79753 0.46988 0.72604 0.0
C309 C 0.84366 0.48692 0.70663 0.0
C310 C 0.88699 0.50448 0.76791 0.0
C311 C 0.83842 0.49405 0.78677 0.0
N312 N 0.74411 0.47829 0.78283 0.0
N313 N 0.93145 0.52343 0.70768 0.0
C314 C 0.79278 0.47944 0.76569 0.0
C315 C 0.88839 0.50489 0.72716 0.0
N316 N 0.75811 0.44461 0.7066 0.0
N317 N 0.93173 0.51287 0.78896 0.0
H318 H 0.93426 0.5221 0.67788 0.0
H319 H 0.96299 0.54255 0.72079 0.0
H320 H 0.93177 0.51289 0.81885 0.0
H321 H 0.96932 0.51576 0.77701 0.0
H322 H 0.7261 0.4266 0.72015 0.0
H323 H 0.75997 0.43687 0.67736 0.0
H324 H 0.70899 0.4735 0.76766 0.0
H325 H 0.73777 0.48781 0.81148 0.0
C326 C 0.44788 0.7899 0.98198 0.0
C327 C 0.46785 0.83314 0.9604 0.0
C328 C 0.47157 0.88697 0.01833 0.0
C329 C 0.4495 0.8444 0.0393 0.0
N330 N 0.40494 0.76011 0.03998 0.0
N331 N 0.49023 0.92534 0.95595 0.0
C332 C 0.43322 0.7977 0.02061 0.0
C333 C 0.47708 0.88259 0.97794 0.0
N334 N 0.44691 0.74034 0.96664 0.0
N335 N 0.48858 0.93081 0.03729 0.0
H336 H 0.49507 0.92319 0.92635 0.0
H337 H 0.49245 0.96357 0.9665 0.0
H338 H 0.4822 0.93619 0.06655 0.0
H339 H 0.51086 0.96058 0.02451 0.0
H340 H 0.43838 0.70655 0.98255 0.0
H341 H 0.46015 0.73169 0.9391 0.0
H342 H 0.38728 0.72802 0.02657 0.0
H343 H 0.39468 0.76326 0.06877 0.0
C344 C 0.02559 0.42165 0.00274 0.0
C345 C 0.05117 0.46795 0.01569 0.0
C346 C 0.9701 0.51897 0.00598 0.0
C347 C 0.94376 0.47205 0.99503 0.0
N348 N 0.9426 0.3775 0.98939 0.0
N349 N 0.04667 0.55846 0.03616 0.0
C350 C 0.97041 0.42294 0.99537 0.0
C351 C 0.02306 0.51601 0.01929 0.0
N352 N 0.05439 0.37689 0.9966 0.0
N353 N 0.94522 0.56656 0.00219 0.0
H354 H 0.08587 0.5582 0.04543 0.0
H355 H 0.02643 0.59261 0.04361 0.0
H356 H 0.90609 0.57035 0.99321 0.0
H357 H 0.96435 0.60261 0.00533 0.0
H358 H 0.03929 0.34352 0.98327 0.0
H359 H 0.09481 0.37437 0.00223 0.0
H360 H 0.95853 0.33999 0.993 0.0
H361 H 0.90204 0.37718 0.98399 0.0
C362 C 0.47205 0.03272 0.2648 0.0
C363 C 0.52312 0.05517 0.26088 0.0
C364 C 0.55967 0.96989 0.24258 0.0
C365 C 0.50776 0.94891 0.24246 0.0
N366 N 0.41377 0.95968 0.25012 0.0
N367 N 0.61473 0.0481 0.24278 0.0
C368 C 0.46367 0.98005 0.25283 0.0
C369 C 0.56683 0.02453 0.24898 0.0
N370 N 0.432 0.06135 0.28079 0.0
N371 N 0.60201 0.93732 0.237 0.0
H372 H 0.6215 0.08807 0.24768 0.0
H373 H 0.64673 0.0292 0.23013 0.0
H374 H 0.59809 0.89706 0.23183 0.0
H375 H 0.64111 0.94905 0.24059 0.0
H376 H 0.39555 0.04535 0.28834 0.0
H377 H 0.4363 0.10051 0.28917 0.0
H378 H 0.3796 0.9822 0.25272 0.0
H379 H 0.40638 0.92047 0.24302 0.0
C380 C 0.02932 0.47374 0.48763 0.0
C381 C 0.05734 0.52192 0.48405 0.0
C382 C 0.97733 0.57151 0.49954 0.0
C383 C 0.95059 0.52327 0.50632 0.0
N384 N 0.95231 0.42857 0.51278 0.0
N385 N 0.0614 0.61617 0.49159 0.0
C386 C 0.97688 0.47433 0.502 0.0
C387 C 0.0323 0.57075 0.49146 0.0
N388 N 0.05231 0.42763 0.47624 0.0
N389 N 0.94981 0.61788 0.49997 0.0
H390 H 0.10175 0.61701 0.48544 0.0
H391 H 0.04672 0.65231 0.5007 0.0
H392 H 0.90948 0.61984 0.50602 0.0
H393 H 0.96576 0.65386 0.49135 0.0
H394 H 0.03181 0.3922 0.47398 0.0
H395 H 0.09107 0.42541 0.4662 0.0
H396 H 0.97156 0.39237 0.51449 0.0
H397 H 0.91354 0.42727 0.52289 0.0
C398 C 0.52148 0.02393 0.73957 0.0
C399 C 0.47339 0.05197 0.73509 0.0
C400 C 0.42294 0.972 0.74965 0.0
C401 C 0.47096 0.94515 0.75724 0.0
N402 N 0.56556 0.94686 0.76559 0.0
N403 N 0.37862 0.056 0.74133 0.0
C404 C 0.52021 0.97147 0.75393 0.0
C405 C 0.42412 0.02693 0.7417 0.0
N406 N 0.5682 0.0469 0.72902 0.0
N407 N 0.37637 0.94464 0.74912 0.0
H408 H 0.37801 0.09633 0.73535 0.0
H409 H 0.34208 0.04125 0.74994 0.0
H410 H 0.374 0.90437 0.75509 0.0
H411 H 0.34075 0.96072 0.73978 0.0
H412 H 0.60382 0.02649 0.72752 0.0
H413 H 0.57082 0.08555 0.71885 0.0
H414 H 0.60181 0.96599 0.76795 0.0
H415 H 0.56631 0.90815 0.77578 0.0
C416 C 0.33826 0.66653 0.1504 0.0
C417 C 0.39377 0.66055 0.14749 0.0
C418 C 0.38237 0.58181 0.10805 0.0
C419 C 0.32694 0.59073 0.10769 0.0
N420 N 0.2516 0.64302 0.1256 0.0
N421 N 0.46968 0.61687 0.12029 0.0
C422 C 0.30464 0.63341 0.12825 0.0
C423 C 0.4161 0.61938 0.12541 0.0
N424 N 0.31796 0.70345 0.17468 0.0
N425 N 0.40265 0.53605 0.09354 0.0
H426 H 0.49625 0.64181 0.13412 0.0
H427 H 0.48773 0.59224 0.10042 0.0
H428 H 0.37954 0.50704 0.08073 0.0
H429 H 0.44183 0.52449 0.09712 0.0
H430 H 0.27793 0.70692 0.18099 0.0
H431 H 0.34187 0.72832 0.19093 0.0
H432 H 0.23327 0.6762 0.13687 0.0
H433 H 0.22615 0.61946 0.10955 0.0
C434 C 0.42162 0.36069 0.37787 0.0
C435 C 0.40247 0.32239 0.35168 0.0
C436 C 0.31129 0.34165 0.3708 0.0
C437 C 0.33017 0.38232 0.39499 0.0
N438 N 0.40313 0.43507 0.41854 0.0
N439 N 0.33018 0.27933 0.31985 0.0
C440 C 0.38532 0.39255 0.39821 0.0
C441 C 0.34753 0.31373 0.3471 0.0
N442 N 0.47492 0.36705 0.38307 0.0
N443 N 0.25884 0.32879 0.37161 0.0
H444 H 0.35592 0.25737 0.30289 0.0
H445 H 0.29068 0.27502 0.31218 0.0
H446 H 0.23178 0.34815 0.38919 0.0
H447 H 0.24269 0.29672 0.35732 0.0
H448 H 0.49144 0.38721 0.40604 0.0
H449 H 0.50336 0.35032 0.3653 0.0
H450 H 0.44172 0.44917 0.41725 0.0
H451 H 0.379 0.45973 0.43456 0.0
C452 C 0.60307 0.38064 0.64759 0.0
C453 C 0.60952 0.32526 0.64464 0.0
C454 C 0.68074 0.33844 0.59753 0.0
C455 C 0.67754 0.39352 0.60355 0.0
N456 N 0.64048 0.46708 0.63861 0.0
N457 N 0.65761 0.25068 0.62039 0.0
C458 C 0.64046 0.4145 0.63008 0.0
C459 C 0.64924 0.30389 0.6205 0.0
N460 N 0.55893 0.40127 0.66454 0.0
N461 N 0.71352 0.31934 0.56977 0.0
H462 H 0.63559 0.22466 0.63727 0.0
H463 H 0.6888 0.23267 0.6061 0.0
H464 H 0.73807 0.34366 0.55341 0.0
H465 H 0.71382 0.28015 0.56112 0.0
H466 H 0.54883 0.44103 0.66293 0.0
H467 H 0.52923 0.37846 0.67693 0.0
H468 H 0.61983 0.48278 0.66172 0.0
H469 H 0.6633 0.49499 0.62422 0.0
C470 C 0.67807 0.66244 0.89365 0.0
C471 C 0.67306 0.6071 0.88968 0.0
C472 C 0.59267 0.61889 0.85142 0.0
C473 C 0.60039 0.67431 0.85207 0.0
N474 N 0.6528 0.74936 0.87028 0.0
N475 N 0.63035 0.53227 0.86006 0.0
C476 C 0.64374 0.69632 0.87235 0.0
C477 C 0.63197 0.58529 0.86696 0.0
N478 N 0.71516 0.68238 0.91806 0.0
N479 N 0.54606 0.59823 0.83835 0.0
H480 H 0.65622 0.50529 0.87255 0.0
H481 H 0.60554 0.51531 0.83974 0.0
H482 H 0.51507 0.62113 0.82783 0.0
H483 H 0.53571 0.55872 0.84159 0.0
H484 H 0.71752 0.72201 0.92538 0.0
H485 H 0.74164 0.65845 0.93309 0.0
H486 H 0.68631 0.76752 0.88137 0.0
H487 H 0.62852 0.77495 0.85475 0.0
C488 C 0.35054 0.30936 0.09266 0.0
C489 C 0.35961 0.35747 0.07291 0.0
C490 C 0.44793 0.36365 0.1007 0.0
C491 C 0.43742 0.31784 0.12297 0.0
N492 N 0.38704 0.23792 0.13103 0.0
N493 N 0.42527 0.41418 0.04404 0.0
C494 C 0.3914 0.28745 0.11579 0.0
C495 C 0.41123 0.37911 0.07203 0.0
N496 N 0.30203 0.28605 0.09023 0.0
N497 N 0.49096 0.39439 0.1084 0.0
H498 H 0.40077 0.42317 0.02095 0.0
H499 H 0.46363 0.42847 0.0408 0.0
H500 H 0.51852 0.38532 0.1296 0.0
H501 H 0.49685 0.43133 0.09591 0.0
H502 H 0.29008 0.25455 0.10739 0.0
H503 H 0.27312 0.29977 0.07129 0.0
H504 H 0.3563 0.21217 0.12462 0.0
H505 H 0.41683 0.22082 0.14761 0.0
C506 C 0.68393 0.3571 0.33949 0.0
C507 C 0.63162 0.36452 0.32602 0.0
C508 C 0.62434 0.44653 0.36218 0.0
C509 C 0.67603 0.4383 0.37675 0.0
N510 N 0.76012 0.39437 0.37197 0.0
N511 N 0.55939 0.42468 0.31398 0.0
C512 C 0.70765 0.3964 0.36281 0.0
C513 C 0.60456 0.41234 0.33352 0.0
N514 N 0.7099 0.31144 0.33104 0.0
N515 N 0.59256 0.48449 0.37764 0.0
H516 H 0.54341 0.40092 0.29272 0.0
H517 H 0.54093 0.46125 0.31584 0.0
H518 H 0.60504 0.51033 0.3989 0.0
H519 H 0.55231 0.48744 0.37179 0.0
H520 H 0.74551 0.30023 0.34361 0.0
H521 H 0.6944 0.28375 0.31206 0.0
H522 H 0.7864 0.36732 0.36027 0.0
H523 H 0.77838 0.42273 0.38901 0.0
C524 C 0.55517 0.6222 0.60965 0.0
C525 C 0.56714 0.67028 0.6283 0.0
C526 C 0.65383 0.67291 0.59667 0.0
C527 C 0.64532 0.62094 0.58348 0.0
N528 N 0.58819 0.54492 0.57719 0.0
N529 N 0.62512 0.74443 0.63776 0.0
C530 C 0.59556 0.59577 0.58897 0.0
C531 C 0.61552 0.69688 0.62086 0.0
N532 N 0.50549 0.60121 0.61225 0.0
N533 N 0.69858 0.69909 0.58561 0.0
H534 H 0.59652 0.76465 0.65342 0.0
H535 H 0.6616 0.76332 0.6374 0.0
H536 H 0.72653 0.68217 0.56743 0.0
H537 H 0.70617 0.73847 0.59162 0.0
H538 H 0.49231 0.57019 0.59534 0.0
H539 H 0.4757 0.61708 0.62921 0.0
H540 H 0.55616 0.52172 0.5854 0.0
H541 H 0.61563 0.52403 0.56108 0.0
C542 C 0.29175 0.61283 0.87054 0.0
C543 C 0.31993 0.56585 0.87907 0.0
C544 C 0.38403 0.58778 0.82877 0.0
C545 C 0.3634 0.6397 0.82708 0.0
N546 N 0.29414 0.70072 0.84256 0.0
N547 N 0.39535 0.5096 0.86782 0.0
C548 C 0.31558 0.65158 0.84644 0.0
C549 C 0.36625 0.55306 0.85813 0.0
N550 N 0.24222 0.62001 0.88523 0.0
N551 N 0.42055 0.57151 0.80258 0.0
H552 H 0.38465 0.48351 0.88965 0.0
H553 H 0.43263 0.50201 0.85651 0.0
H554 H 0.43262 0.59475 0.77955 0.0
H555 H 0.43376 0.53271 0.8008 0.0
H556 H 0.21773 0.65131 0.87762 0.0
H557 H 0.22371 0.59209 0.90271 0.0
H558 H 0.26328 0.71472 0.85938 0.0
H559 H 0.30881 0.72816 0.82283 0.0
C560 C 0.37666 0.65835 0.40968 0.0
C561 C 0.36511 0.60538 0.40023 0.0
C562 C 0.4412 0.60308 0.35679 0.0
C563 C 0.44727 0.65805 0.36136 0.0
N564 N 0.42227 0.73924 0.39166 0.0
N565 N 0.38329 0.52798 0.36223 0.0
C566 C 0.41588 0.68602 0.38813 0.0
C567 C 0.39699 0.57769 0.37346 0.0
N568 N 0.34981 0.68201 0.43885 0.0
N569 N 0.47756 0.57518 0.33619 0.0
H570 H 0.35188 0.50716 0.37412 0.0
H571 H 0.40065 0.50853 0.33924 0.0
H572 H 0.51023 0.5926 0.32305 0.0
H573 H 0.47821 0.5342 0.3351 0.0
H574 H 0.35906 0.71917 0.4494 0.0
H575 H 0.32049 0.66252 0.45448 0.0
H576 H 0.39707 0.7632 0.40743 0.0
H577 H 0.45199 0.75992 0.37727 0.0
C578 C 0.3765 0.44564 0.63697 0.0
C579 C 0.32955 0.43384 0.61649 0.0
C580 C 0.32407 0.34798 0.64879 0.0
C581 C 0.37293 0.35844 0.66712 0.0
N582 N 0.43105 0.4256 0.69208 0.0
N583 N 0.24985 0.38224 0.61217 0.0
C584 C 0.39421 0.41017 0.66586 0.0
C585 C 0.30025 0.38773 0.62562 0.0
N586 N 0.40618 0.48872 0.62731 0.0
N587 N 0.3016 0.2993 0.65269 0.0
H588 H 0.23133 0.41125 0.59565 0.0
H589 H 0.22484 0.35149 0.62011 0.0
H590 H 0.3165 0.27114 0.67177 0.0
H591 H 0.2696 0.28644 0.63649 0.0
H592 H 0.44393 0.49539 0.63819 0.0
H593 H 0.39517 0.51562 0.60611 0.0
H594 H 0.44488 0.46419 0.69398 0.0
H595 H 0.44255 0.40203 0.71509 0.0
C596 C 0.59349 0.40455 0.90638 0.0
C597 C 0.64244 0.37951 0.91453 0.0
C598 C 0.61228 0.30035 0.88096 0.0
C599 C 0.568 0.329 0.86712 0.0
N600 N 0.5185 0.41022 0.8636 0.0
N601 N 0.6991 0.30372 0.91064 0.0
C602 C 0.55853 0.38127 0.87954 0.0
C603 C 0.65176 0.32709 0.90248 0.0
N604 N 0.58077 0.45118 0.92355 0.0
N605 N 0.61632 0.24769 0.87348 0.0
H606 H 0.72729 0.32137 0.92825 0.0
H607 H 0.71128 0.2681 0.89891 0.0
H608 H 0.58794 0.22725 0.85773 0.0
H609 H 0.6452 0.22341 0.88539 0.0
H610 H 0.54343 0.46826 0.92172 0.0
H611 H 0.60572 0.47069 0.94247 0.0
H612 H 0.51444 0.45067 0.86751 0.0
H613 H 0.49177 0.39504 0.8438 0.0
C614 C 0.65256 0.70005 0.11109 0.0
C615 C 0.64039 0.69036 0.14998 0.0
C616 C 0.68085 0.60292 0.14325 0.0
C617 C 0.6759 0.60797 0.10273 0.0
N618 N 0.64509 0.6609 0.04908 0.0
N619 N 0.65822 0.63753 0.2061 0.0
C620 C 0.65954 0.65673 0.08666 0.0
C621 C 0.6597 0.64332 0.16724 0.0
N622 N 0.65497 0.75038 0.09734 0.0
N623 N 0.70659 0.56036 0.15848 0.0
H624 H 0.65197 0.66942 0.22427 0.0
H625 H 0.66441 0.60181 0.2202 0.0
H626 H 0.7237 0.5313 0.14147 0.0
H627 H 0.71495 0.55598 0.18751 0.0
H628 H 0.66609 0.75905 0.06921 0.0
H629 H 0.65186 0.78277 0.11556 0.0
H630 H 0.62945 0.69551 0.03747 0.0
H631 H 0.64212 0.62847 0.03102 0.0
loop_
_geom_bond_atom_site_label_1
_geom_bond_atom_site_label_2
_geom_bond_distance
_geom_bond_site_symmetry_2
_ccdc_geom_bond_type
Co0 O3 1.970 . S
Co0 N17 1.989 . S
Co0 O25 1.967 . S
Co0 O32 1.920 . S
Co1 O4 1.966 . S
Co1 N10 2.022 1_554 S
Co1 N18 1.993 . S
Co1 O26 1.941 . S
C2 O3 1.258 . S
C2 O4 1.263 . S
O3 Co0 1.970 . S
O3 C2 1.258 . S
O4 Co1 1.966 . S
O4 C2 1.263 . S
C5 O6 1.235 . S
C5 O32 1.289 . S
O6 C5 1.235 . S
C7 C9 1.400 . S
C7 N10 1.351 . S
C7 C12 1.501 . S
C8 C9 1.387 . S
C8 N11 1.341 . S
C9 C7 1.400 . S
C9 C8 1.387 . S
N10 Co1 2.022 1_556 S
N10 C7 1.351 . S
N10 N11 1.365 . S
N11 C8 1.341 . S
N11 N10 1.365 . S
N11 H31 0.862 . S
C12 C7 1.501 . S
C12 H13 0.961 . S
C12 H14 0.961 . S
C12 H15 0.960 . S
H13 C12 0.961 . S
H14 C12 0.961 . S
H15 C12 0.960 . S
C16 N17 1.342 . S
C16 C20 1.401 . S
C16 C21 1.499 . S
N17 Co0 1.989 . S
N17 C16 1.342 . S
N17 N18 1.388 . S
N18 Co1 1.993 . S
N18 N17 1.388 . S
N18 C19 1.329 1_554 S
C19 N18 1.329 1_556 S
C19 C20 1.385 1_556 S
C19 C29 1.535 . S
C20 C16 1.401 . S
C20 C19 1.385 1_554 S
C21 C16 1.499 . S
C21 H22 0.959 . S
C21 H23 0.960 . S
C21 H24 0.961 . S
H22 C21 0.959 . S
H23 C21 0.960 . S
H24 C21 0.961 . S
O25 Co0 1.967 . S
O25 C33 1.258 . S
O26 Co1 1.941 . S
O26 C33 1.266 . S
H27 C29 0.959 . S
H28 C29 0.961 . S
C29 C19 1.535 . S
C29 H27 0.959 . S
C29 H28 0.961 . S
C29 H30 0.960 . S
H30 C29 0.960 . S
H31 N11 0.862 . S
O32 Co0 1.920 . S
O32 C5 1.289 . S
C33 O25 1.258 . S
C33 O26 1.266 . S
Co34 O37 1.970 . S
Co34 N51 1.989 . S
Co34 O59 1.967 . S
Co34 O66 1.920 . S
Co35 O38 1.966 . S
Co35 N44 2.022 . S
Co35 N52 1.993 . S
Co35 O60 1.941 . S
C36 O37 1.258 . S
C36 O38 1.263 . S
O37 Co34 1.970 . S
O37 C36 1.258 . S
O38 Co35 1.966 . S
O38 C36 1.263 . S
C39 O40 1.235 . S
C39 O66 1.289 . S
O40 C39 1.235 . S
C41 C43 1.400 . S
C41 N44 1.351 . S
C41 C46 1.501 . S
C42 C43 1.387 . S
C42 N45 1.341 . S
C43 C41 1.400 . S
C43 C42 1.387 . S
N44 Co35 2.022 . S
N44 C41 1.351 . S
N44 N45 1.365 . S
N45 C42 1.341 . S
N45 N44 1.365 . S
N45 H65 0.862 . S
C46 C41 1.501 . S
C46 H47 0.961 . S
C46 H48 0.961 . S
C46 H49 0.960 . S
H47 C46 0.961 . S
H48 C46 0.961 . S
H49 C46 0.960 . S
C50 N51 1.342 . S
C50 C54 1.401 . S
C50 C55 1.499 . S
N51 Co34 1.989 . S
N51 C50 1.342 . S
N51 N52 1.388 . S
N52 Co35 1.993 . S
N52 N51 1.388 . S
N52 C53 1.346 . S
C53 N52 1.346 . S
C53 C54 1.396 . S
C53 C63 1.510 . S
C54 C50 1.401 . S
C54 C53 1.396 . S
C55 C50 1.499 . S
C55 H56 0.959 . S
C55 H57 0.960 . S
C55 H58 0.961 . S
H56 C55 0.959 . S
H57 C55 0.960 . S
H58 C55 0.961 . S
O59 Co34 1.967 . S
O59 C67 1.258 . S
O60 Co35 1.941 . S
O60 C67 1.266 . S
H61 C63 0.959 . S
H62 C63 0.961 . S
C63 C53 1.510 . S
C63 H61 0.959 . S
C63 H62 0.961 . S
C63 H64 0.960 . S
H64 C63 0.960 . S
H65 N45 0.862 . S
O66 Co34 1.920 . S
O66 C39 1.289 . S
C67 O59 1.258 . S
C67 O60 1.266 . S
Co68 O71 1.970 . S
Co68 N85 1.989 . S
Co68 O93 1.967 . S
Co68 O100 1.920 . S
Co69 O72 1.966 . S
Co69 N78 2.022 . S
Co69 N86 1.993 . S
Co69 O94 1.941 . S
C70 O71 1.258 . S
C70 O72 1.263 . S
O71 Co68 1.970 . S
O71 C70 1.258 . S
O72 Co69 1.966 . S
O72 C70 1.263 . S
C73 O74 1.235 . S
C73 O100 1.289 . S
O74 C73 1.235 . S
C75 C77 1.400 . S
C75 N78 1.351 . S
C75 C80 1.501 . S
C76 C77 1.387 . S
C76 N79 1.341 . S
C77 C75 1.400 . S
C77 C76 1.387 . S
N78 Co69 2.022 . S
N78 C75 1.351 . S
N78 N79 1.365 . S
N79 C76 1.341 . S
N79 N78 1.365 . S
N79 H99 0.862 . S
C80 C75 1.501 . S
C80 H81 0.961 . S
C80 H82 0.961 . S
C80 H83 0.960 . S
H81 C80 0.961 . S
H82 C80 0.961 . S
H83 C80 0.960 . S
C84 N85 1.342 . S
C84 C88 1.401 . S
C84 C89 1.499 . S
N85 Co68 1.989 . S
N85 C84 1.342 . S
N85 N86 1.388 . S
N86 Co69 1.993 . S
N86 N85 1.388 . S
N86 C87 1.346 . S
C87 N86 1.346 . S
C87 C88 1.396 . S
C87 C97 1.510 . S
C88 C84 1.401 . S
C88 C87 1.396 . S
C89 C84 1.499 . S
C89 H90 0.959 . S
C89 H91 0.960 . S
C89 H92 0.961 . S
H90 C89 0.959 . S
H91 C89 0.960 . S
H92 C89 0.961 . S
O93 Co68 1.967 . S
O93 C101 1.258 . S
O94 Co69 1.941 . S
O94 C101 1.266 . S
H95 C97 0.959 . S
H96 C97 0.961 . S
C97 C87 1.510 . S
C97 H95 0.959 . S
C97 H96 0.961 . S
C97 H98 0.960 . S
H98 C97 0.960 . S
H99 N79 0.862 . S
O100 Co68 1.920 . S
O100 C73 1.289 . S
C101 O93 1.258 . S
C101 O94 1.266 . S
Co102 O105 1.970 . S
Co102 N119 1.989 . S
Co102 O127 1.967 . S
Co102 O134 1.920 . S
Co103 O106 1.966 . S
Co103 N112 2.022 . S
Co103 N120 1.993 . S
Co103 O128 1.941 . S
C104 O105 1.258 . S
C104 O106 1.263 . S
O105 Co102 1.970 . S
O105 C104 1.258 . S
O106 Co103 1.966 . S
O106 C104 1.263 . S
C107 O108 1.235 . S
C107 O134 1.289 . S
O108 C107 1.235 . S
C109 C111 1.400 . S
C109 N112 1.351 . S
C109 C114 1.501 . S
C110 C111 1.387 . S
C110 N113 1.341 . S
C111 C109 1.400 . S
C111 C110 1.387 . S
N112 Co103 2.022 . S
N112 C109 1.351 . S
N112 N113 1.365 . S
N113 C110 1.341 . S
N113 N112 1.365 . S
N113 H133 0.862 . S
C114 C109 1.501 . S
C114 H115 0.961 . S
C114 H116 0.961 . S
C114 H117 0.960 . S
H115 C114 0.961 . S
H116 C114 0.961 . S
H117 C114 0.960 . S
C118 N119 1.342 . S
C118 C122 1.401 . S
C118 C123 1.499 . S
N119 Co102 1.989 . S
N119 C118 1.342 . S
N119 N120 1.388 . S
N120 Co103 1.993 . S
N120 N119 1.388 . S
N120 C121 1.346 . S
C121 N120 1.346 . S
C121 C122 1.396 . S
C121 C131 1.510 . S
C122 C118 1.401 . S
C122 C121 1.396 . S
C123 C118 1.499 . S
C123 H124 0.959 . S
C123 H125 0.960 . S
C123 H126 0.961 . S
H124 C123 0.959 . S
H125 C123 0.960 . S
H126 C123 0.961 . S
O127 Co102 1.967 . S
O127 C135 1.258 . S
O128 Co103 1.941 . S
O128 C135 1.266 . S
H129 C131 0.959 . S
H130 C131 0.961 . S
C131 C121 1.510 . S
C131 H129 0.959 . S
C131 H130 0.961 . S
C131 H132 0.960 . S
H132 C131 0.960 . S
H133 N113 0.862 . S
O134 Co102 1.920 . S
O134 C107 1.289 . S
C135 O127 1.258 . S
C135 O128 1.266 . S
Co136 O139 1.970 . S
Co136 N153 1.989 . S
Co136 O161 1.967 . S
Co136 O168 1.920 . S
Co137 O140 1.966 . S
Co137 N146 2.022 . S
Co137 N154 1.993 . S
Co137 O162 1.941 . S
C138 O139 1.258 . S
C138 O140 1.263 . S
O139 Co136 1.970 . S
O139 C138 1.258 . S
O140 Co137 1.966 . S
O140 C138 1.263 . S
C141 O142 1.235 . S
C141 O168 1.289 . S
O142 C141 1.235 . S
C143 C145 1.400 . S
C143 N146 1.351 . S
C143 C148 1.501 . S
C144 C145 1.387 . S
C144 N147 1.341 . S
C145 C143 1.400 . S
C145 C144 1.387 . S
N146 Co137 2.022 . S
N146 C143 1.351 . S
N146 N147 1.365 . S
N147 C144 1.341 . S
N147 N146 1.365 . S
N147 H167 0.862 . S
C148 C143 1.501 . S
C148 H149 0.961 . S
C148 H150 0.961 . S
C148 H151 0.960 . S
H149 C148 0.961 . S
H150 C148 0.961 . S
H151 C148 0.960 . S
C152 N153 1.342 . S
C152 C156 1.401 . S
C152 C157 1.499 . S
N153 Co136 1.989 . S
N153 C152 1.342 . S
N153 N154 1.388 . S
N154 Co137 1.993 . S
N154 N153 1.388 . S
N154 C155 1.346 . S
C155 N154 1.346 . S
C155 C156 1.396 . S
C155 C165 1.510 . S
C156 C152 1.401 . S
C156 C155 1.396 . S
C157 C152 1.499 . S
C157 H158 0.959 . S
C157 H159 0.960 . S
C157 H160 0.961 . S
H158 C157 0.959 . S
H159 C157 0.960 . S
H160 C157 0.961 . S
O161 Co136 1.967 . S
O161 C169 1.258 . S
O162 Co137 1.941 . S
O162 C169 1.266 . S
H163 C165 0.959 . S
H164 C165 0.961 . S
C165 C155 1.510 . S
C165 H163 0.959 . S
C165 H164 0.961 . S
C165 H166 0.960 . S
H166 C165 0.960 . S
H167 N147 0.862 . S
O168 Co136 1.920 . S
O168 C141 1.289 . S
C169 O161 1.258 . S
C169 O162 1.266 . S
Co170 O173 1.970 . S
Co170 N187 1.989 . S
Co170 O195 1.967 . S
Co170 O202 1.920 . S
Co171 O174 1.966 . S
Co171 N180 2.022 . S
Co171 N188 1.993 . S
Co171 O196 1.941 . S
C172 O173 1.258 . S
C172 O174 1.263 . S
O173 Co170 1.970 . S
O173 C172 1.258 . S
O174 Co171 1.966 . S
O174 C172 1.263 . S
C175 O176 1.235 . S
C175 O202 1.289 . S
O176 C175 1.235 . S
C177 C179 1.400 . S
C177 N180 1.351 . S
C177 C182 1.501 . S
C178 C179 1.387 . S
C178 N181 1.341 . S
C179 C177 1.400 . S
C179 C178 1.387 . S
N180 Co171 2.022 . S
N180 C177 1.351 . S
N180 N181 1.365 . S
N181 C178 1.341 . S
N181 N180 1.365 . S
N181 H201 0.862 . S
C182 C177 1.501 . S
C182 H183 0.961 . S
C182 H184 0.961 . S
C182 H185 0.960 . S
H183 C182 0.961 . S
H184 C182 0.961 . S
H185 C182 0.960 . S
C186 N187 1.342 . S
C186 C190 1.401 . S
C186 C191 1.499 . S
N187 Co170 1.989 . S
N187 C186 1.342 . S
N187 N188 1.388 . S
N188 Co171 1.993 . S
N188 N187 1.388 . S
N188 C189 1.346 . S
C189 N188 1.346 . S
C189 C190 1.396 . S
C189 C199 1.510 . S
C190 C186 1.401 . S
C190 C189 1.396 . S
C191 C186 1.499 . S
C191 H192 0.959 . S
C191 H193 0.960 . S
C191 H194 0.961 . S
H192 C191 0.959 . S
H193 C191 0.960 . S
H194 C191 0.961 . S
O195 Co170 1.967 . S
O195 C203 1.258 . S
O196 Co171 1.941 . S
O196 C203 1.266 . S
H197 C199 0.959 . S
H198 C199 0.961 . S
C199 C189 1.510 . S
C199 H197 0.959 . S
C199 H198 0.961 . S
C199 H200 0.960 . S
H200 C199 0.960 . S
H201 N181 0.862 . S
O202 Co170 1.920 . S
O202 C175 1.289 . S
C203 O195 1.258 . S
C203 O196 1.266 . S
Co204 O207 1.970 . S
Co204 N221 1.989 . S
Co204 O229 1.967 . S
Co204 O236 1.920 . S
Co205 O208 1.966 . S
Co205 N214 2.022 1_556 S
Co205 N222 1.993 . S
Co205 O230 1.941 . S
C206 O207 1.258 . S
C206 O208 1.263 . S
O207 Co204 1.970 . S
O207 C206 1.258 . S
O208 Co205 1.966 . S
O208 C206 1.263 . S
C209 O210 1.235 . S
C209 O236 1.289 . S
O210 C209 1.235 . S
C211 C213 1.400 . S
C211 N214 1.351 . S
C211 C216 1.501 . S
C212 C213 1.387 . S
C212 N215 1.341 . S
C213 C211 1.400 . S
C213 C212 1.387 . S
N214 Co205 2.022 1_554 S
N214 C211 1.351 . S
N214 N215 1.365 . S
N215 C212 1.341 . S
N215 N214 1.365 . S
N215 H235 0.862 . S
C216 C211 1.501 . S
C216 H217 0.961 . S
C216 H218 0.961 . S
C216 H219 0.960 . S
H217 C216 0.961 . S
H218 C216 0.961 . S
H219 C216 0.960 . S
C220 N221 1.342 . S
C220 C224 1.401 . S
C220 C225 1.499 . S
N221 Co204 1.989 . S
N221 C220 1.342 . S
N221 N222 1.388 . S
N222 Co205 1.993 . S
N222 N221 1.388 . S
N222 C223 1.329 1_556 S
C223 N222 1.329 1_554 S
C223 C224 1.385 1_554 S
C223 C233 1.535 . S
C224 C220 1.401 . S
C224 C223 1.385 1_556 S
C225 C220 1.499 . S
C225 H226 0.959 . S
C225 H227 0.960 . S
C225 H228 0.961 . S
H226 C225 0.959 . S
H227 C225 0.960 . S
H228 C225 0.961 . S
O229 Co204 1.967 . S
O229 C237 1.258 . S
O230 Co205 1.941 . S
O230 C237 1.266 . S
H231 C233 0.959 . S
H232 C233 0.961 . S
C233 C223 1.535 . S
C233 H231 0.959 . S
C233 H232 0.961 . S
C233 H234 0.960 . S
H234 C233 0.960 . S
H235 N215 0.862 . S
O236 Co204 1.920 . S
O236 C209 1.289 . S
C237 O229 1.258 . S
C237 O230 1.266 . S
Co238 O241 1.970 . S
Co238 N255 1.989 . S
Co238 O263 1.967 . S
Co238 O270 1.920 . S
Co239 O242 1.966 . S
Co239 N248 2.022 . S
Co239 N256 1.993 . S
Co239 O264 1.941 . S
C240 O241 1.258 . S
C240 O242 1.263 . S
O241 Co238 1.970 . S
O241 C240 1.258 . S
O242 Co239 1.966 . S
O242 C240 1.263 . S
C243 O244 1.235 . S
C243 O270 1.289 . S
O244 C243 1.235 . S
C245 C247 1.400 . S
C245 N248 1.351 . S
C245 C250 1.501 . S
C246 C247 1.387 . S
C246 N249 1.341 . S
C247 C245 1.400 . S
C247 C246 1.387 . S
N248 Co239 2.022 . S
N248 C245 1.351 . S
N248 N249 1.365 . S
N249 C246 1.341 . S
N249 N248 1.365 . S
N249 H269 0.862 . S
C250 C245 1.501 . S
C250 H251 0.961 . S
C250 H252 0.961 . S
C250 H253 0.960 . S
H251 C250 0.961 . S
H252 C250 0.961 . S
H253 C250 0.960 . S
C254 N255 1.342 . S
C254 C258 1.401 . S
C254 C259 1.499 . S
N255 Co238 1.989 . S
N255 C254 1.342 . S
N255 N256 1.388 . S
N256 Co239 1.993 . S
N256 N255 1.388 . S
N256 C257 1.346 . S
C257 N256 1.346 . S
C257 C258 1.396 . S
C257 C267 1.510 . S
C258 C254 1.401 . S
C258 C257 1.396 . S
C259 C254 1.499 . S
C259 H260 0.959 . S
C259 H261 0.960 . S
C259 H262 0.961 . S
H260 C259 0.959 . S
H261 C259 0.960 . S
H262 C259 0.961 . S
O263 Co238 1.967 . S
O263 C271 1.258 . S
O264 Co239 1.941 . S
O264 C271 1.266 . S
H265 C267 0.959 . S
H266 C267 0.961 . S
C267 C257 1.510 . S
C267 H265 0.959 . S
C267 H266 0.961 . S
C267 H268 0.960 . S
H268 C267 0.960 . S
H269 N249 0.862 . S
O270 Co238 1.920 . S
O270 C243 1.289 . S
C271 O263 1.258 . S
C271 O264 1.266 . S
C272 C273 1.363 . S
C272 C278 1.379 . S
C272 N280 1.356 . S
C273 C272 1.363 . S
C273 C279 1.363 . S
C274 C275 1.363 . S
C274 C279 1.379 . S
C274 N281 1.356 . S
C275 C274 1.363 . S
C275 C278 1.363 . S
N276 C278 1.356 . S
N276 H288 0.984 . S
N276 H289 0.985 . S
N277 C279 1.356 . S
N277 H282 0.984 . S
N277 H283 0.985 . S
C278 C272 1.379 . S
C278 C275 1.363 . S
C278 N276 1.356 . S
C279 C273 1.363 . S
C279 C274 1.379 . S
C279 N277 1.356 . S
N280 C272 1.356 . S
N280 H286 0.984 . S
N280 H287 0.984 . S
N281 C274 1.356 . S
N281 H284 0.984 . S
N281 H285 0.985 . S
H282 N277 0.984 . S
H283 N277 0.985 . S
H284 N281 0.984 . S
H285 N281 0.985 . S
H286 N280 0.984 . S
H287 N280 0.984 . S
H288 N276 0.984 . S
H289 N276 0.985 . S
C290 C291 1.363 . S
C290 C296 1.379 . S
C290 N298 1.356 . S
C291 C290 1.363 . S
C291 C297 1.363 . S
C292 C293 1.363 . S
C292 C297 1.379 . S
C292 N299 1.356 . S
C293 C292 1.363 . S
C293 C296 1.363 . S
N294 C296 1.356 . S
N294 H306 0.984 . S
N294 H307 0.985 . S
N295 C297 1.356 . S
N295 H300 0.984 . S
N295 H301 0.985 . S
C296 C290 1.379 . S
C296 C293 1.363 . S
C296 N294 1.356 . S
C297 C291 1.363 . S
C297 C292 1.379 . S
C297 N295 1.356 . S
N298 C290 1.356 . S
N298 H304 0.984 . S
N298 H305 0.984 . S
N299 C292 1.356 . S
N299 H302 0.984 . S
N299 H303 0.985 . S
H300 N295 0.984 . S
H301 N295 0.985 . S
H302 N299 0.984 . S
H303 N299 0.985 . S
H304 N298 0.984 . S
H305 N298 0.984 . S
H306 N294 0.984 . S
H307 N294 0.985 . S
C308 C309 1.363 . S
C308 C314 1.379 . S
C308 N316 1.356 . S
C309 C308 1.363 . S
C309 C315 1.363 . S
C310 C311 1.363 . S
C310 C315 1.379 . S
C310 N317 1.356 . S
C311 C310 1.363 . S
C311 C314 1.363 . S
N312 C314 1.356 . S
N312 H324 0.984 . S
N312 H325 0.985 . S
N313 C315 1.356 . S
N313 H318 0.984 . S
N313 H319 0.985 . S
C314 C308 1.379 . S
C314 C311 1.363 . S
C314 N312 1.356 . S
C315 C309 1.363 . S
C315 C310 1.379 . S
C315 N313 1.356 . S
N316 C308 1.356 . S
N316 H322 0.984 . S
N316 H323 0.984 . S
N317 C310 1.356 . S
N317 H320 0.984 . S
N317 H321 0.985 . S
H318 N313 0.984 . S
H319 N313 0.985 . S
H320 N317 0.984 . S
H321 N317 0.985 . S
H322 N316 0.984 . S
H323 N316 0.984 . S
H324 N312 0.984 . S
H325 N312 0.985 . S
C326 C327 1.363 . S
C326 C332 1.379 1_556 S
C326 N334 1.356 . S
C327 C326 1.363 . S
C327 C333 1.363 . S
C328 C329 1.363 . S
C328 C333 1.379 1_554 S
C328 N335 1.356 . S
C329 C328 1.363 . S
C329 C332 1.363 . S
N330 C332 1.356 . S
N330 H342 0.984 . S
N330 H343 0.985 . S
N331 C333 1.356 . S
N331 H336 0.984 . S
N331 H337 0.985 . S
C332 C326 1.379 1_554 S
C332 C329 1.363 . S
C332 N330 1.356 . S
C333 C327 1.363 . S
C333 C328 1.379 1_556 S
C333 N331 1.356 . S
N334 C326 1.356 . S
N334 H340 0.984 . S
N334 H341 0.984 . S
N335 C328 1.356 . S
N335 H338 0.984 . S
N335 H339 0.985 . S
H336 N331 0.984 . S
H337 N331 0.985 . S
H338 N335 0.984 . S
H339 N335 0.985 . S
H340 N334 0.984 . S
H341 N334 0.984 . S
H342 N330 0.984 . S
H343 N330 0.985 . S
C344 C345 1.363 1_556 S
C344 C350 1.379 1_455 S
C344 N352 1.356 . S
C345 C344 1.363 1_554 S
C345 C351 1.363 . S
C346 C347 1.363 1_554 S
C346 C351 1.379 1_655 S
C346 N353 1.356 . S
C347 C346 1.363 1_556 S
C347 C350 1.363 . S
N348 C350 1.356 . S
N348 H360 0.984 . S
N348 H361 0.985 . S
N349 C351 1.356 . S
N349 H354 0.984 . S
N349 H355 0.985 . S
C350 C344 1.379 1_655 S
C350 C347 1.363 . S
C350 N348 1.356 . S
C351 C345 1.363 . S
C351 C346 1.379 1_455 S
C351 N349 1.356 . S
N352 C344 1.356 . S
N352 H358 0.984 . S
N352 H359 0.984 . S
N353 C346 1.356 . S
N353 H356 0.984 . S
N353 H357 0.985 . S
H354 N349 0.984 . S
H355 N349 0.985 . S
H356 N353 0.984 . S
H357 N353 0.985 . S
H358 N352 0.984 . S
H359 N352 0.984 . S
H360 N348 0.984 . S
H361 N348 0.985 . S
C362 C363 1.363 . S
C362 C368 1.379 1_545 S
C362 N370 1.356 . S
C363 C362 1.363 . S
C363 C369 1.363 . S
C364 C365 1.363 . S
C364 C369 1.379 1_565 S
C364 N371 1.356 . S
C365 C364 1.363 . S
C365 C368 1.363 . S
N366 C368 1.356 . S
N366 H378 0.984 . S
N366 H379 0.985 . S
N367 C369 1.356 . S
N367 H372 0.984 . S
N367 H373 0.985 . S
C368 C362 1.379 1_565 S
C368 C365 1.363 . S
C368 N366 1.356 . S
C369 C363 1.363 . S
C369 C364 1.379 1_545 S
C369 N367 1.356 . S
N370 C362 1.356 . S
N370 H376 0.984 . S
N370 H377 0.984 . S
N371 C364 1.356 . S
N371 H374 0.984 . S
N371 H375 0.985 . S
H372 N367 0.984 . S
H373 N367 0.985 . S
H374 N371 0.984 . S
H375 N371 0.985 . S
H376 N370 0.984 . S
H377 N370 0.984 . S
H378 N366 0.984 . S
H379 N366 0.985 . S
C380 C381 1.363 . S
C380 C386 1.379 1_455 S
C380 N388 1.356 . S
C381 C380 1.363 . S
C381 C387 1.363 . S
C382 C383 1.363 . S
C382 C387 1.379 1_655 S
C382 N389 1.356 . S
C383 C382 1.363 . S
C383 C386 1.363 . S
N384 C386 1.356 . S
N384 H396 0.984 . S
N384 H397 0.985 . S
N385 C387 1.356 . S
N385 H390 0.984 . S
N385 H391 0.985 . S
C386 C380 1.379 1_655 S
C386 C383 1.363 . S
C386 N384 1.356 . S
C387 C381 1.363 . S
C387 C382 1.379 1_455 S
C387 N385 1.356 . S
N388 C380 1.356 . S
N388 H394 0.984 . S
N388 H395 0.984 . S
N389 C382 1.356 . S
N389 H392 0.984 . S
N389 H393 0.985 . S
H390 N385 0.984 . S
H391 N385 0.985 . S
H392 N389 0.984 . S
H393 N389 0.985 . S
H394 N388 0.984 . S
H395 N388 0.984 . S
H396 N384 0.984 . S
H397 N384 0.985 . S
C398 C399 1.363 . S
C398 C404 1.379 1_545 S
C398 N406 1.356 . S
C399 C398 1.363 . S
C399 C405 1.363 . S
C400 C401 1.363 . S
C400 C405 1.379 1_565 S
C400 N407 1.356 . S
C401 C400 1.363 . S
C401 C404 1.363 . S
N402 C404 1.356 . S
N402 H414 0.984 . S
N402 H415 0.985 . S
N403 C405 1.356 . S
N403 H408 0.984 . S
N403 H409 0.985 . S
C404 C398 1.379 1_565 S
C404 C401 1.363 . S
C404 N402 1.356 . S
C405 C399 1.363 . S
C405 C400 1.379 1_545 S
C405 N403 1.356 . S
N406 C398 1.356 . S
N406 H412 0.984 . S
N406 H413 0.984 . S
N407 C400 1.356 . S
N407 H410 0.984 . S
N407 H411 0.985 . S
H408 N403 0.984 . S
H409 N403 0.985 . S
H410 N407 0.984 . S
H411 N407 0.985 . S
H412 N406 0.984 . S
H413 N406 0.984 . S
H414 N402 0.984 . S
H415 N402 0.985 . S
C416 C417 1.363 . S
C416 C422 1.379 . S
C416 N424 1.356 . S
C417 C416 1.363 . S
C417 C423 1.363 . S
C418 C419 1.363 . S
C418 C423 1.379 . S
C418 N425 1.356 . S
C419 C418 1.363 . S
C419 C422 1.363 . S
N420 C422 1.356 . S
N420 H432 0.984 . S
N420 H433 0.985 . S
N421 C423 1.356 . S
N421 H426 0.984 . S
N421 H427 0.985 . S
C422 C416 1.379 . S
C422 C419 1.363 . S
C422 N420 1.356 . S
C423 C417 1.363 . S
C423 C418 1.379 . S
C423 N421 1.356 . S
N424 C416 1.356 . S
N424 H430 0.984 . S
N424 H431 0.984 . S
N425 C418 1.356 . S
N425 H428 0.984 . S
N425 H429 0.985 . S
H426 N421 0.984 . S
H427 N421 0.985 . S
H428 N425 0.984 . S
H429 N425 0.985 . S
H430 N424 0.984 . S
H431 N424 0.984 . S
H432 N420 0.984 . S
H433 N420 0.985 . S
C434 C435 1.363 . S
C434 C440 1.379 . S
C434 N442 1.356 . S
C435 C434 1.363 . S
C435 C441 1.363 . S
C436 C437 1.363 . S
C436 C441 1.379 . S
C436 N443 1.356 . S
C437 C436 1.363 . S
C437 C440 1.363 . S
N438 C440 1.356 . S
N438 H450 0.984 . S
N438 H451 0.985 . S
N439 C441 1.356 . S
N439 H444 0.984 . S
N439 H445 0.985 . S
C440 C434 1.379 . S
C440 C437 1.363 . S
C440 N438 1.356 . S
C441 C435 1.363 . S
C441 C436 1.379 . S
C441 N439 1.356 . S
N442 C434 1.356 . S
N442 H448 0.984 . S
N442 H449 0.984 . S
N443 C436 1.356 . S
N443 H446 0.984 . S
N443 H447 0.985 . S
H444 N439 0.984 . S
H445 N439 0.985 . S
H446 N443 0.984 . S
H447 N443 0.985 . S
H448 N442 0.984 . S
H449 N442 0.984 . S
H450 N438 0.984 . S
H451 N438 0.985 . S
C452 C453 1.363 . S
C452 C458 1.379 . S
C452 N460 1.356 . S
C453 C452 1.363 . S
C453 C459 1.363 . S
C454 C455 1.363 . S
C454 C459 1.379 . S
C454 N461 1.356 . S
C455 C454 1.363 . S
C455 C458 1.363 . S
N456 C458 1.356 . S
N456 H468 0.984 . S
N456 H469 0.985 . S
N457 C459 1.356 . S
N457 H462 0.984 . S
N457 H463 0.985 . S
C458 C452 1.379 . S
C458 C455 1.363 . S
C458 N456 1.356 . S
C459 C453 1.363 . S
C459 C454 1.379 . S
C459 N457 1.356 . S
N460 C452 1.356 . S
N460 H466 0.984 . S
N460 H467 0.984 . S
N461 C454 1.356 . S
N461 H464 0.984 . S
N461 H465 0.985 . S
H462 N457 0.984 . S
H463 N457 0.985 . S
H464 N461 0.984 . S
H465 N461 0.985 . S
H466 N460 0.984 . S
H467 N460 0.984 . S
H468 N456 0.984 . S
H469 N456 0.985 . S
C470 C471 1.363 . S
C470 C476 1.379 . S
C470 N478 1.356 . S
C471 C470 1.363 . S
C471 C477 1.363 . S
C472 C473 1.363 . S
C472 C477 1.379 . S
C472 N479 1.356 . S
C473 C472 1.363 . S
C473 C476 1.363 . S
N474 C476 1.356 . S
N474 H486 0.984 . S
N474 H487 0.985 . S
N475 C477 1.356 . S
N475 H480 0.984 . S
N475 H481 0.985 . S
C476 C470 1.379 . S
C476 C473 1.363 . S
C476 N474 1.356 . S
C477 C471 1.363 . S
C477 C472 1.379 . S
C477 N475 1.356 . S
N478 C470 1.356 . S
N478 H484 0.984 . S
N478 H485 0.984 . S
N479 C472 1.356 . S
N479 H482 0.984 . S
N479 H483 0.985 . S
H480 N475 0.984 . S
H481 N475 0.985 . S
H482 N479 0.984 . S
H483 N479 0.985 . S
H484 N478 0.984 . S
H485 N478 0.984 . S
H486 N474 0.984 . S
H487 N474 0.985 . S
C488 C489 1.363 . S
C488 C494 1.379 . S
C488 N496 1.356 . S
C489 C488 1.363 . S
C489 C495 1.363 . S
C490 C491 1.363 . S
C490 C495 1.379 . S
C490 N497 1.356 . S
C491 C490 1.363 . S
C491 C494 1.363 . S
N492 C494 1.356 . S
N492 H504 0.984 . S
N492 H505 0.985 . S
N493 C495 1.356 . S
N493 H498 0.984 . S
N493 H499 0.985 . S
C494 C488 1.379 . S
C494 C491 1.363 . S
C494 N492 1.356 . S
C495 C489 1.363 . S
C495 C490 1.379 . S
C495 N493 1.356 . S
N496 C488 1.356 . S
N496 H502 0.984 . S
N496 H503 0.984 . S
N497 C490 1.356 . S
N497 H500 0.984 . S
N497 H501 0.985 . S
H498 N493 0.984 . S
H499 N493 0.985 . S
H500 N497 0.984 . S
H501 N497 0.985 . S
H502 N496 0.984 . S
H503 N496 0.984 . S
H504 N492 0.984 . S
H505 N492 0.985 . S
C506 C507 1.363 . S
C506 C512 1.379 . S
C506 N514 1.356 . S
C507 C506 1.363 . S
C507 C513 1.363 . S
C508 C509 1.363 . S
C508 C513 1.379 . S
C508 N515 1.356 . S
C509 C508 1.363 . S
C509 C512 1.363 . S
N510 C512 1.356 . S
N510 H522 0.984 . S
N510 H523 0.985 . S
N511 C513 1.356 . S
N511 H516 0.984 . S
N511 H517 0.985 . S
C512 C506 1.379 . S
C512 C509 1.363 . S
C512 N510 1.356 . S
C513 C507 1.363 . S
C513 C508 1.379 . S
C513 N511 1.356 . S
N514 C506 1.356 . S
N514 H520 0.984 . S
N514 H521 0.984 . S
N515 C508 1.356 . S
N515 H518 0.984 . S
N515 H519 0.985 . S
H516 N511 0.984 . S
H517 N511 0.985 . S
H518 N515 0.984 . S
H519 N515 0.985 . S
H520 N514 0.984 . S
H521 N514 0.984 . S
H522 N510 0.984 . S
H523 N510 0.985 . S
C524 C525 1.363 . S
C524 C530 1.379 . S
C524 N532 1.356 . S
C525 C524 1.363 . S
C525 C531 1.363 . S
C526 C527 1.363 . S
C526 C531 1.379 . S
C526 N533 1.356 . S
C527 C526 1.363 . S
C527 C530 1.363 . S
N528 C530 1.356 . S
N528 H540 0.984 . S
N528 H541 0.985 . S
N529 C531 1.356 . S
N529 H534 0.984 . S
N529 H535 0.985 . S
C530 C524 1.379 . S
C530 C527 1.363 . S
C530 N528 1.356 . S
C531 C525 1.363 . S
C531 C526 1.379 . S
C531 N529 1.356 . S
N532 C524 1.356 . S
N532 H538 0.984 . S
N532 H539 0.984 . S
N533 C526 1.356 . S
N533 H536 0.984 . S
N533 H537 0.985 . S
H534 N529 0.984 . S
H535 N529 0.985 . S
H536 N533 0.984 . S
H537 N533 0.985 . S
H538 N532 0.984 . S
H539 N532 0.984 . S
H540 N528 0.984 . S
H541 N528 0.985 . S
C542 C543 1.363 . S
C542 C548 1.379 . S
C542 N550 1.356 . S
C543 C542 1.363 . S
C543 C549 1.363 . S
C544 C545 1.363 . S
C544 C549 1.379 . S
C544 N551 1.356 . S
C545 C544 1.363 . S
C545 C548 1.363 . S
N546 C548 1.356 . S
N546 H558 0.984 . S
N546 H559 0.985 . S
N547 C549 1.356 . S
N547 H552 0.984 . S
N547 H553 0.985 . S
C548 C542 1.379 . S
C548 C545 1.363 . S
C548 N546 1.356 . S
C549 C543 1.363 . S
C549 C544 1.379 . S
C549 N547 1.356 . S
N550 C542 1.356 . S
N550 H556 0.984 . S
N550 H557 0.984 . S
N551 C544 1.356 . S
N551 H554 0.984 . S
N551 H555 0.985 . S
H552 N547 0.984 . S
H553 N547 0.985 . S
H554 N551 0.984 . S
H555 N551 0.985 . S
H556 N550 0.984 . S
H557 N550 0.984 . S
H558 N546 0.984 . S
H559 N546 0.985 . S
C560 C561 1.363 . S
C560 C566 1.379 . S
C560 N568 1.356 . S
C561 C560 1.363 . S
C561 C567 1.363 . S
C562 C563 1.363 . S
C562 C567 1.379 . S
C562 N569 1.356 . S
C563 C562 1.363 . S
C563 C566 1.363 . S
N564 C566 1.356 . S
N564 H576 0.984 . S
N564 H577 0.985 . S
N565 C567 1.356 . S
N565 H570 0.984 . S
N565 H571 0.985 . S
C566 C560 1.379 . S
C566 C563 1.363 . S
C566 N564 1.356 . S
C567 C561 1.363 . S
C567 C562 1.379 . S
C567 N565 1.356 . S
N568 C560 1.356 . S
N568 H574 0.984 . S
N568 H575 0.984 . S
N569 C562 1.356 . S
N569 H572 0.984 . S
N569 H573 0.985 . S
H570 N565 0.984 . S
H571 N565 0.985 . S
H572 N569 0.984 . S
H573 N569 0.985 . S
H574 N568 0.984 . S
H575 N568 0.984 . S
H576 N564 0.984 . S
H577 N564 0.985 . S
C578 C579 1.363 . S
C578 C584 1.379 . S
C578 N586 1.356 . S
C579 C578 1.363 . S
C579 C585 1.363 . S
C580 C581 1.363 . S
C580 C585 1.379 . S
C580 N587 1.356 . S
C581 C580 1.363 . S
C581 C584 1.363 . S
N582 C584 1.356 . S
N582 H594 0.984 . S
N582 H595 0.985 . S
N583 C585 1.356 . S
N583 H588 0.984 . S
N583 H589 0.985 . S
C584 C578 1.379 . S
C584 C581 1.363 . S
C584 N582 1.356 . S
C585 C579 1.363 . S
C585 C580 1.379 . S
C585 N583 1.356 . S
N586 C578 1.356 . S
N586 H592 0.984 . S
N586 H593 0.984 . S
N587 C580 1.356 . S
N587 H590 0.984 . S
N587 H591 0.985 . S
H588 N583 0.984 . S
H589 N583 0.985 . S
H590 N587 0.984 . S
H591 N587 0.985 . S
H592 N586 0.984 . S
H593 N586 0.984 . S
H594 N582 0.984 . S
H595 N582 0.985 . S
C596 C597 1.363 . S
C596 C602 1.379 . S
C596 N604 1.356 . S
C597 C596 1.363 . S
C597 C603 1.363 . S
C598 C599 1.363 . S
C598 C603 1.379 . S
C598 N605 1.356 . S
C599 C598 1.363 . S
C599 C602 1.363 . S
N600 C602 1.356 . S
N600 H612 0.984 . S
N600 H613 0.985 . S
N601 C603 1.356 . S
N601 H606 0.984 . S
N601 H607 0.985 . S
C602 C596 1.379 . S
C602 C599 1.363 . S
C602 N600 1.356 . S
C603 C597 1.363 . S
C603 C598 1.379 . S
C603 N601 1.356 . S
N604 C596 1.356 . S
N604 H610 0.984 . S
N604 H611 0.984 . S
N605 C598 1.356 . S
N605 H608 0.984 . S
N605 H609 0.985 . S
H606 N601 0.984 . S
H607 N601 0.985 . S
H608 N605 0.984 . S
H609 N605 0.985 . S
H610 N604 0.984 . S
H611 N604 0.984 . S
H612 N600 0.984 . S
H613 N600 0.985 . S
C614 C615 1.363 . S
C614 C620 1.379 . S
C614 N622 1.356 . S
C615 C614 1.363 . S
C615 C621 1.363 . S
C616 C617 1.363 . S
C616 C621 1.379 . S
C616 N623 1.356 . S
C617 C616 1.363 . S
C617 C620 1.363 . S
N618 C620 1.356 . S
N618 H630 0.984 . S
N618 H631 0.985 . S
N619 C621 1.356 . S
N619 H624 0.984 . S
N619 H625 0.985 . S
C620 C614 1.379 . S
C620 C617 1.363 . S
C620 N618 1.356 . S
C621 C615 1.363 . S
C621 C616 1.379 . S
C621 N619 1.356 . S
N622 C614 1.356 . S
N622 H628 0.984 . S
N622 H629 0.984 . S
N623 C616 1.356 . S
N623 H626 0.984 . S
N623 H627 0.985 . S
H624 N619 0.984 . S
H625 N619 0.985 . S
H626 N623 0.984 . S
H627 N623 0.985 . S
H628 N622 0.984 . S
H629 N622 0.984 . S
H630 N618 0.984 . S
H631 N618 0.985 . S
C273 C141 1.378 . S
C275 C5 1.378 . S
C291 C39 1.378 . S
C293 C175 1.378 . S
C309 C73 1.378 . S
C311 C209 1.378 . S
C327 C107 1.378 . S
C329 C243 1.378 . S
C345 C20 1.248 . S
C347 C224 1.248 . S
C363 C54 1.248 . S
C365 C258 1.248 . S
C381 C156 1.248 . S
C383 C88 1.248 . S
C399 C190 1.248 . S
C401 C122 1.248 . S
C417 C240 1.200 . S
C419 C2 1.200 . S
C435 C36 1.200 . S
C437 C138 1.200 . S
C453 C172 1.200 . S
C455 C70 1.200 . S
C471 C206 1.200 . S
C473 C104 1.200 . S
C489 C33 1.515 . S
C491 C43 1.501 . S
C507 C67 1.515 . S
C509 C77 1.501 . S
C525 C111 1.501 . S
C527 C101 1.515 . S
C543 C9 1.501 . S
C545 C135 1.515 . S
C561 C169 1.515 . S
C563 C247 1.501 . S
C579 C145 1.501 . S
C581 C203 1.515 . S
C597 C237 1.515 . S
C599 C179 1.501 . S
C615 C271 1.515 . S
C617 C213 1.501 . S
