# Generated by pormake.
# Topology wiv, (6)-cn, num edge types: 1
# Building blocks:
#     Node 0, Type 0, BuildingBlock: KUMBOL_clean_sbu_1, # of connection points: 6
#     Node 1, Type 0, BuildingBlock: KUMBOL_clean_sbu_1, # of connection points: 6
#     Node 2, Type 0, BuildingBlock: KUMBOL_clean_sbu_1, # of connection points: 6
#     Node 3, Type 0, BuildingBlock: KUMBOL_clean_sbu_1, # of connection points: 6
#     Node 4, Type 0, BuildingBlock: KUMBOL_clean_sbu_1, # of connection points: 6
#     Node 5, Type 0, BuildingBlock: KUMBOL_clean_sbu_1, # of connection points: 6
#     Node 6, Type 0, BuildingBlock: KUMBOL_clean_sbu_1, # of connection points: 6
#     Node 7, Type 0, BuildingBlock: KUMBOL_clean_sbu_1, # of connection points: 6
#     Node 8, Type 0, BuildingBlock: KUMBOL_clean_sbu_1, # of connection points: 6
#     Node 9, Type 0, BuildingBlock: KUMBOL_clean_sbu_1, # of connection points: 6
#     Node 10, Type 0, BuildingBlock: KUMBOL_clean_sbu_1, # of connection points: 6
#     Node 11, Type 0, BuildingBlock: KUMBOL_clean_sbu_1, # of connection points: 6
#     Node 12, Type 0, BuildingBlock: KUMBOL_clean_sbu_1, # of connection points: 6
#     Node 13, Type 0, BuildingBlock: KUMBOL_clean_sbu_1, # of connection points: 6
#     Node 14, Type 0, BuildingBlock: KUMBOL_clean_sbu_1, # of connection points: 6
#     Node 15, Type 0, BuildingBlock: KUMBOL_clean_sbu_1, # of connection points: 6
#     Edge 16, Type (0, 0), BuildingBlock: CIFDUS_clean_linker_0, # of connection points: 2
#     Edge 17, Type (0, 0), BuildingBlock: CIFDUS_clean_linker_0, # of connection points: 2
#     Edge 18, Type (0, 0), BuildingBlock: CIFDUS_clean_linker_0, # of connection points: 2
#     Edge 19, Type (0, 0), BuildingBlock: CIFDUS_clean_linker_0, # of connection points: 2
#     Edge 20, Type (0, 0), BuildingBlock: CIFDUS_clean_linker_0, # of connection points: 2
#     Edge 21, Type (0, 0), BuildingBlock: CIFDUS_clean_linker_0, # of connection points: 2
#     Edge 22, Type (0, 0), BuildingBlock: CIFDUS_clean_linker_0, # of connection points: 2
#     Edge 23, Type (0, 0), BuildingBlock: CIFDUS_clean_linker_0, # of connection points: 2
#     Edge 24, Type (0, 0), BuildingBlock: CIFDUS_clean_linker_0, # of connection points: 2
#     Edge 25, Type (0, 0), BuildingBlock: CIFDUS_clean_linker_0, # of connection points: 2
#     Edge 26, Type (0, 0), BuildingBlock: CIFDUS_clean_linker_0, # of connection points: 2
#     Edge 27, Type (0, 0), BuildingBlock: CIFDUS_clean_linker_0, # of connection points: 2
#     Edge 28, Type (0, 0), BuildingBlock: CIFDUS_clean_linker_0, # of connection points: 2
#     Edge 29, Type (0, 0), BuildingBlock: CIFDUS_clean_linker_0, # of connection points: 2
#     Edge 30, Type (0, 0), BuildingBlock: CIFDUS_clean_linker_0, # of connection points: 2
#     Edge 31, Type (0, 0), BuildingBlock: CIFDUS_clean_linker_0, # of connection points: 2
#     Edge 32, Type (0, 0), BuildingBlock: CIFDUS_clean_linker_0, # of connection points: 2
#     Edge 33, Type (0, 0), BuildingBlock: CIFDUS_clean_linker_0, # of connection points: 2
#     Edge 34, Type (0, 0), BuildingBlock: CIFDUS_clean_linker_0, # of connection points: 2
#     Edge 35, Type (0, 0), BuildingBlock: CIFDUS_clean_linker_0, # of connection points: 2
#     Edge 36, Type (0, 0), BuildingBlock: CIFDUS_clean_linker_0, # of connection points: 2
#     Edge 37, Type (0, 0), BuildingBlock: CIFDUS_clean_linker_0, # of connection points: 2
#     Edge 38, Type (0, 0), BuildingBlock: CIFDUS_clean_linker_0, # of connection points: 2
#     Edge 39, Type (0, 0), BuildingBlock: CIFDUS_clean_linker_0, # of connection points: 2
#     Edge 40, Type (0, 0), BuildingBlock: CIFDUS_clean_linker_0, # of connection points: 2
#     Edge 41, Type (0, 0), BuildingBlock: CIFDUS_clean_linker_0, # of connection points: 2
#     Edge 42, Type (0, 0), BuildingBlock: CIFDUS_clean_linker_0, # of connection points: 2
#     Edge 43, Type (0, 0), BuildingBlock: CIFDUS_clean_linker_0, # of connection points: 2
#     Edge 44, Type (0, 0), BuildingBlock: CIFDUS_clean_linker_0, # of connection points: 2
#     Edge 45, Type (0, 0), BuildingBlock: CIFDUS_clean_linker_0, # of connection points: 2
#     Edge 46, Type (0, 0), BuildingBlock: CIFDUS_clean_linker_0, # of connection points: 2
#     Edge 47, Type (0, 0), BuildingBlock: CIFDUS_clean_linker_0, # of connection points: 2
#     Edge 48, Type (0, 0), BuildingBlock: CIFDUS_clean_linker_0, # of connection points: 2
#     Edge 49, Type (0, 0), BuildingBlock: CIFDUS_clean_linker_0, # of connection points: 2
#     Edge 50, Type (0, 0), BuildingBlock: CIFDUS_clean_linker_0, # of connection points: 2
#     Edge 51, Type (0, 0), BuildingBlock: CIFDUS_clean_linker_0, # of connection points: 2
#     Edge 52, Type (0, 0), BuildingBlock: CIFDUS_clean_linker_0, # of connection points: 2
#     Edge 53, Type (0, 0), BuildingBlock: CIFDUS_clean_linker_0, # of connection points: 2
#     Edge 54, Type (0, 0), BuildingBlock: CIFDUS_clean_linker_0, # of connection points: 2
#     Edge 55, Type (0, 0), BuildingBlock: CIFDUS_clean_linker_0, # of connection points: 2
#     Edge 56, Type (0, 0), BuildingBlock: CIFDUS_clean_linker_0, # of connection points: 2
#     Edge 57, Type (0, 0), BuildingBlock: CIFDUS_clean_linker_0, # of connection points: 2
#     Edge 58, Type (0, 0), BuildingBlock: CIFDUS_clean_linker_0, # of connection points: 2
#     Edge 59, Type (0, 0), BuildingBlock: CIFDUS_clean_linker_0, # of connection points: 2
#     Edge 60, Type (0, 0), BuildingBlock: CIFDUS_clean_linker_0, # of connection points: 2
#     Edge 61, Type (0, 0), BuildingBlock: CIFDUS_clean_linker_0, # of connection points: 2
#     Edge 62, Type (0, 0), BuildingBlock: CIFDUS_clean_linker_0, # of connection points: 2
#     Edge 63, Type (0, 0), BuildingBlock: CIFDUS_clean_linker_0, # of connection points: 2
# Relax obj value: 0.160
# Max RMSD: 0.215
# Mean RMSD: 0.215
data_MOF--net-wiv--node1-KUMBOL_clean_sbu_1--edge1-CIFDUS_clean_linker_0
_symmetry_space_group_name_H-M    P1
_symmetry_Int_Tables_number       1
_symmetry_cell_setting            triclinic
loop_
_symmetry_equiv_pos_as_xyz
'x, y, z'
_cell_length_a     44.806657
_cell_length_b     44.802704
_cell_length_c     22.005436
_cell_angle_alpha  89.847003
_cell_angle_beta   89.83917
_cell_angle_gamma 90.064038
loop_
_atom_site_label
_atom_site_type_symbol
_atom_site_fract_x
_atom_site_fract_y
_atom_site_fract_z
_atom_type_partial_charge
C0 C 0.26845 0.14831 0.17561 0.0
C1 C 0.23488 0.10835 0.14492 0.0
C2 C 0.26368 0.11829 0.1601 0.0
C3 C 0.21095 0.12859 0.1457 0.0
C4 C 0.24426 0.16833 0.17833 0.0
C5 C 0.21555 0.15834 0.163 0.0
N6 N 0.29639 0.15746 0.19133 0.0
C7 C 0.3016 0.18568 0.2118 0.0
C8 C 0.24955 0.19767 0.19761 0.0
C9 C 0.27831 0.20632 0.21466 0.0
Gd10 Gd 0.38762 0.10534 0.05375 0.0
Gd11 Gd 0.33227 0.12012 0.18781 0.0
N12 N 0.28716 0.09883 0.16021 0.0
C13 C 0.23097 0.07822 0.13003 0.0
C14 C 0.2832 0.0692 0.14948 0.0
C15 C 0.25499 0.05845 0.13386 0.0
H16 H 0.30177 0.05397 0.15195 0.0
H17 H 0.25189 0.03504 0.12366 0.0
H18 H 0.41683 0.17546 0.04502 0.0
H19 H 0.32343 0.19198 0.22793 0.0
H20 H 0.46477 0.20005 0.06382 0.0
H21 H 0.20955 0.06991 0.11555 0.0
H22 H 0.18867 0.12141 0.13376 0.0
H23 H 0.40333 0.03152 0.04536 0.0
H24 H 0.23149 0.21366 0.2006 0.0
H25 H 0.28245 0.22872 0.23097 0.0
H26 H 0.53166 0.1197 0.10988 0.0
H27 H 0.19667 0.17341 0.16478 0.0
H28 H 0.49243 0.02028 0.10893 0.0
H29 H 0.44471 0.99846 0.07465 0.0
N30 N 0.42724 0.07157 0.06483 0.0
C31 C 0.45425 0.08386 0.07771 0.0
C32 C 0.4241 0.0413 0.06014 0.0
C33 C 0.47482 0.03475 0.09357 0.0
C34 C 0.44765 0.02244 0.07566 0.0
C35 C 0.47889 0.06568 0.09187 0.0
H36 H 0.52587 0.06513 0.11495 0.0
N37 N 0.43261 0.13185 0.0665 0.0
C38 C 0.45718 0.11478 0.07728 0.0
C39 C 0.48781 0.15908 0.08394 0.0
C40 C 0.48528 0.12802 0.08781 0.0
C41 C 0.43537 0.16201 0.05933 0.0
C42 C 0.46284 0.17609 0.06876 0.0
O43 O 0.31376 0.12366 0.088 0.0
O44 O 0.34064 0.08788 0.04113 0.0
O45 O 0.38147 0.12652 0.96561 0.0
O46 O 0.4062 0.08539 0.97239 0.0
O47 O 0.35276 0.07452 0.18893 0.0
O48 O 0.36632 0.06257 0.091 0.0
O49 O 0.40647 0.10516 0.15001 0.0
O50 O 0.37889 0.13937 0.20304 0.0
O51 O 0.34787 0.10708 0.27859 0.0
O52 O 0.30332 0.12304 0.26623 0.0
O53 O 0.36912 0.1538 0.06184 0.0
O54 O 0.3563 0.16139 0.1626 0.0
C55 C 0.31768 0.1059 0.04053 0.0
C56 C 0.36275 0.05547 0.14896 0.0
C57 C 0.37832 0.09273 0.8842 0.0
C58 C 0.37407 0.08447 0.77533 0.0
C59 C 0.33717 0.06353 0.84483 0.0
C60 C 0.35266 0.07537 0.89375 0.0
C61 C 0.34778 0.06794 0.78606 0.0
C62 C 0.38898 0.09738 0.82487 0.0
C63 C 0.3946 0.10502 0.93608 0.0
C64 C 0.50994 0.1099 0.10143 0.0
C65 C 0.50667 0.07883 0.10421 0.0
H66 H 0.50904 0.17007 0.09134 0.0
C67 C 0.4045 0.12607 0.19144 0.0
C68 C 0.36388 0.17161 0.10897 0.0
C69 C 0.32634 0.13633 0.35817 0.0
C70 C 0.34736 0.14779 0.458 0.0
C71 C 0.30737 0.1783 0.41639 0.0
C72 C 0.3067 0.16064 0.3646 0.0
C73 C 0.32725 0.17183 0.46297 0.0
C74 C 0.34684 0.13015 0.40491 0.0
C75 C 0.32364 0.11622 0.30522 0.0
H76 H 0.31704 0.05065 0.8525 0.0
H77 H 0.34471 0.07054 0.93884 0.0
H78 H 0.33517 0.05859 0.74897 0.0
H79 H 0.40898 0.11056 0.81745 0.0
H80 H 0.2918 0.1966 0.42118 0.0
H81 H 0.29015 0.1657 0.33042 0.0
H82 H 0.326 0.18513 0.50391 0.0
H83 H 0.36182 0.11131 0.4004 0.0
C84 C 0.0809 0.56207 0.97111 0.0
C85 C 0.12467 0.53016 0.96921 0.0
C86 C 0.11187 0.55882 0.97356 0.0
C87 C 0.10623 0.50536 0.95899 0.0
C88 C 0.06245 0.5369 0.96277 0.0
C89 C 0.0753 0.50862 0.95627 0.0
N90 N 0.06886 0.58989 0.97489 0.0
C91 C 0.03859 0.59376 0.97481 0.0
C92 C 0.03162 0.54097 0.95908 0.0
C93 C 0.01956 0.56942 0.96631 0.0
Gd94 Gd 0.12454 0.67804 0.84141 0.0
Gd95 Gd 0.10338 0.62924 0.97996 0.0
N96 N 0.12938 0.5835 0.9802 0.0
C97 C 0.15558 0.52723 0.97568 0.0
C98 C 0.1591 0.58032 0.9925 0.0
C99 C 0.17274 0.55234 0.98897 0.0
H100 H 0.17249 0.5989 1.0069 0.0
H101 H 0.19643 0.55012 0.99729 0.0
H102 H 0.05475 0.70649 0.84283 0.0
H103 H 0.02891 0.61555 0.98168 0.0
H104 H 0.03213 0.75608 0.83661 0.0
H105 H 0.16625 0.50559 0.97275 0.0
H106 H 0.11553 0.48351 0.95255 0.0
H107 H 0.1986 0.68869 0.85381 0.0
H108 H 0.01707 0.52223 0.95033 0.0
H109 H 0.99564 0.57265 0.96493 0.0
H110 H 0.11535 0.82346 0.84471 0.0
H111 H 0.0615 0.48909 0.94873 0.0
H112 H 0.21368 0.78273 0.85824 0.0
H113 H 0.23338 0.73117 0.85982 0.0
N114 N 0.15975 0.7156 0.85502 0.0
C115 C 0.14829 0.74366 0.85428 0.0
C116 C 0.18979 0.71088 0.8569 0.0
C117 C 0.1983 0.76405 0.85777 0.0
C118 C 0.20953 0.735 0.8589 0.0
C119 C 0.1674 0.76868 0.85496 0.0
H120 H 0.16949 0.81694 0.8516 0.0
N121 N 0.09915 0.72289 0.85135 0.0
C122 C 0.1173 0.74737 0.85165 0.0
C123 C 0.07418 0.77915 0.84187 0.0
C124 C 0.10515 0.77625 0.84757 0.0
C125 C 0.06898 0.7257 0.8462 0.0
C126 C 0.05604 0.75388 0.84179 0.0
O127 O 0.10082 0.60487 0.88945 0.0
O128 O 0.13404 0.62828 0.82554 0.0
O129 O 0.10493 0.67911 0.75082 0.0
O130 O 0.15105 0.6917 0.76385 0.0
O131 O 0.15306 0.64351 0.96776 0.0
O132 O 0.15979 0.64602 0.86501 0.0
O133 O 0.12899 0.69892 0.93915 0.0
O134 O 0.08999 0.67798 0.9894 0.0
O135 O 0.12124 0.64016 0.06916 0.0
O136 O 0.08182 0.61261 0.06091 0.0
O137 O 0.07908 0.65757 0.83655 0.0
O138 O 0.06236 0.65013 0.9342 0.0
C139 C 0.11793 0.60472 0.84088 0.0
C140 C 0.17047 0.64169 0.91904 0.0
C141 C 0.14062 0.65981 0.68204 0.0
C142 C 0.13337 0.63206 0.58842 0.0
C143 C 0.17676 0.62233 0.65046 0.0
C144 C 0.16731 0.64391 0.6918 0.0
C145 C 0.16001 0.61658 0.5986 0.0
C146 C 0.12323 0.65303 0.63107 0.0
C147 C 0.13096 0.68304 0.7253 0.0
C148 C 0.12423 0.80116 0.8477 0.0
C149 C 0.15518 0.79742 0.85171 0.0
H150 H 0.06389 0.8006 0.83594 0.0
C151 C 0.11009 0.69931 0.98604 0.0
C152 C 0.05774 0.65075 0.87485 0.0
C153 C 0.08411 0.64402 0.14473 0.0
C154 C 0.08074 0.65805 0.25047 0.0
C155 C 0.0419 0.67302 0.18057 0.0
C156 C 0.05698 0.65867 0.13334 0.0
C157 C 0.05364 0.67258 0.23927 0.0
C158 C 0.09605 0.64399 0.20314 0.0
C159 C 0.09925 0.62701 0.09739 0.0
H160 H 0.19744 0.61046 0.65814 0.0
H161 H 0.18099 0.64808 0.73135 0.0
H162 H 0.16835 0.60086 0.5653 0.0
H163 H 0.10263 0.66508 0.62306 0.0
H164 H 0.02104 0.68436 0.17173 0.0
H165 H 0.04743 0.65887 0.08815 0.0
H166 H 0.04173 0.68358 0.27578 0.0
H167 H 0.11684 0.6324 0.21217 0.0
C168 C 0.75346 0.87382 0.16282 0.0
C169 C 0.78402 0.91701 0.13799 0.0
C170 C 0.75642 0.9046 0.15547 0.0
C171 C 0.80782 0.89801 0.12295 0.0
C172 C 0.77817 0.85496 0.15291 0.0
C173 C 0.80495 0.86708 0.13053 0.0
N174 N 0.72749 0.86273 0.18566 0.0
C175 C 0.72646 0.83445 0.20873 0.0
C176 C 0.77595 0.8249 0.17009 0.0
C177 C 0.75031 0.81485 0.19997 0.0
Gd178 Gd 0.63182 0.90629 0.06023 0.0
Gd179 Gd 0.6888 0.89756 0.19477 0.0
N180 N 0.73259 0.92251 0.16772 0.0
C181 C 0.78691 0.94816 0.1369 0.0
C182 C 0.73568 0.95278 0.17048 0.0
C183 C 0.76283 0.96609 0.15439 0.0
H184 H 0.71698 0.96648 0.18386 0.0
H185 H 0.76511 0.99014 0.1549 0.0
H186 H 0.60161 0.84018 1.01678 0.0
H187 H 0.70727 0.82714 0.2346 0.0
H188 H 0.55204 0.81662 1.01402 0.0
H189 H 0.80766 0.95859 0.12325 0.0
H190 H 0.8288 0.90701 0.10683 0.0
H191 H 0.61907 0.98081 0.05677 0.0
H192 H 0.79459 0.80979 0.16406 0.0
H193 H 0.74904 0.7922 0.21698 0.0
H194 H 0.48439 0.8967 0.05531 0.0
H195 H 0.82406 0.8529 0.12184 0.0
H196 H 0.5256 0.99487 0.06137 0.0
H197 H 0.57672 0.01487 0.06017 0.0
N198 N 0.59266 0.9412 0.06453 0.0
C199 C 0.56454 0.92988 0.06359 0.0
C200 C 0.5971 0.97139 0.06233 0.0
C201 C 0.5441 0.97969 0.06432 0.0
C202 C 0.57299 0.99102 0.06281 0.0
C203 C 0.53946 0.94887 0.065 0.0
H204 H 0.49114 0.95092 0.06573 0.0
N205 N 0.58539 0.88217 0.04788 0.0
C206 C 0.56079 0.89942 0.05603 0.0
C207 C 0.52877 0.85676 0.03907 0.0
C208 C 0.5318 0.88715 0.05194 0.0
C209 C 0.58237 0.85315 0.02988 0.0
C210 C 0.55417 0.83982 0.02684 0.0
O211 O 0.70281 0.91543 0.09925 0.0
O212 O 0.6765 0.88423 0.04117 0.0
O213 O 0.62011 0.89698 0.96676 0.0
O214 O 0.64997 0.93386 0.98773 0.0
O215 O 0.66196 0.93915 0.20279 0.0
O216 O 0.65271 0.94872 0.10261 0.0
O217 O 0.61017 0.90855 0.15391 0.0
O218 O 0.6413 0.8803 0.21519 0.0
O219 O 0.68038 0.91905 0.28204 0.0
O220 O 0.71622 0.88754 0.27286 0.0
O221 O 0.639 0.85686 0.08507 0.0
O222 O 0.67031 0.85243 0.16921 0.0
C223 C 0.70074 0.90012 0.04804 0.0
C224 C 0.65277 0.95708 0.16031 0.0
C225 C 0.62231 0.93629 0.89566 0.0
C226 C 0.61124 0.93942 0.78773 0.0
C227 C 0.59816 0.98037 0.85455 0.0
C228 C 0.61011 0.96482 0.90387 0.0
C229 C 0.59885 0.96784 0.79656 0.0
C230 C 0.62272 0.92368 0.83761 0.0
C231 C 0.6357 0.91922 0.94553 0.0
C232 C 0.50679 0.90578 0.05788 0.0
C233 C 0.51062 0.93663 0.06383 0.0
H234 H 0.50692 0.84651 0.03567 0.0
C235 C 0.61476 0.8921 0.20296 0.0
C236 C 0.65308 0.84081 0.12689 0.0
C237 C 0.68885 0.88578 0.36396 0.0
C238 C 0.6648 0.88596 0.46363 0.0
C239 C 0.68621 0.84012 0.42329 0.0
C240 C 0.69491 0.85517 0.37085 0.0
C241 C 0.67183 0.85541 0.46984 0.0
C242 C 0.67309 0.90081 0.40965 0.0
C243 C 0.69958 0.90231 0.31023 0.0
H244 H 0.58874 1.00236 0.86112 0.0
H245 H 0.61026 0.97536 0.94769 0.0
H246 H 0.58986 0.98036 0.75863 0.0
H247 H 0.63289 0.90195 0.83098 0.0
H248 H 0.69138 0.81666 0.42859 0.0
H249 H 0.70687 0.84284 0.33643 0.0
H250 H 0.6671 0.84323 0.51126 0.0
H251 H 0.66772 0.92416 0.40303 0.0
C252 C 0.94015 0.44983 0.99908 0.0
C253 C 0.90366 0.48993 0.99817 0.0
C254 C 0.91064 0.45928 0.99739 0.0
C255 C 0.92679 0.51103 0.99734 0.0
C256 C 0.96339 0.47094 1.00248 0.0
C257 C 0.95655 0.50156 1.00013 0.0
N258 N 0.94582 0.42009 1.0038 0.0
C259 C 0.97376 0.4101 0.01803 0.0
C260 C 0.99257 0.46065 1.01153 0.0
C261 C 0.9977 0.43015 0.02031 0.0
Gd262 Gd 0.89995 0.33534 0.85465 0.0
Gd263 Gd 0.90397 0.38891 0.99321 0.0
N264 N 0.88878 0.43846 1.00143 0.0
C265 C 0.87369 0.4984 1.00347 0.0
C266 C 0.85997 0.44647 1.01287 0.0
C267 C 0.85182 0.47659 1.01277 0.0
H268 H 0.84332 0.42953 0.0209 0.0
H269 H 0.82877 0.48294 0.01978 0.0
H270 H 0.95902 0.29308 0.89235 0.0
H271 H 0.9776 0.38648 0.0249 0.0
H272 H 0.97185 0.23977 0.89443 0.0
H273 H 0.86741 0.52171 1.00294 0.0
H274 H 0.92188 0.53472 0.99782 0.0
H275 H 0.83613 0.34004 0.77589 0.0
H276 H 0.0111 0.47613 1.01436 0.0
H277 H 0.02005 0.42212 0.02919 0.0
H278 H 0.88358 0.19073 0.8237 0.0
H279 H 0.97389 0.51821 1.00366 0.0
H280 H 0.80362 0.25109 0.74958 0.0
H281 H 0.79782 0.30557 0.73562 0.0
N282 N 0.86152 0.30544 0.81713 0.0
C283 C 0.86635 0.27558 0.82163 0.0
C284 C 0.83828 0.31628 0.78362 0.0
C285 C 0.82009 0.26613 0.76851 0.0
C286 C 0.81675 0.29685 0.76038 0.0
C287 C 0.84556 0.25509 0.79766 0.0
H288 H 0.83595 0.20831 0.78219 0.0
N289 N 0.91456 0.28573 0.86169 0.0
C290 C 0.89366 0.26549 0.84411 0.0
C291 C 0.9286 0.22565 0.86321 0.0
C292 C 0.90027 0.2348 0.84421 0.0
C293 C 0.94238 0.27696 0.87933 0.0
C294 C 0.94978 0.24676 0.88052 0.0
O295 O 0.87595 0.40754 0.91822 0.0
O296 O 0.90039 0.38628 0.83814 0.0
O297 O 0.89782 0.35854 0.7688 0.0
O298 O 0.92218 0.31671 0.77533 0.0
O299 O 0.85539 0.37825 0.96743 0.0
O300 O 0.85331 0.34494 0.88643 0.0
O301 O 0.89417 0.3122 0.94826 0.0
O302 O 0.92501 0.34252 1.00139 0.0
O303 O 0.8868 0.36361 0.06977 0.0
O304 O 0.90638 0.40725 0.08402 0.0
O305 O 0.94625 0.34467 0.88911 0.0
O306 O 0.94201 0.39229 0.92309 0.0
C307 C 0.88374 0.40784 0.86086 0.0
C308 C 0.84043 0.36122 0.92852 0.0
C309 C 0.89647 0.32783 0.68349 0.0
C310 C 0.87688 0.3417 0.58459 0.0
C311 C 0.86951 0.29141 0.62333 0.0
C312 C 0.88575 0.29865 0.67528 0.0
C313 C 0.86508 0.31279 0.57801 0.0
C314 C 0.89193 0.3492 0.63806 0.0
C315 C 0.91141 0.33726 0.73946 0.0
C316 C 0.87891 0.21434 0.82345 0.0
C317 C 0.85167 0.2244 0.80014 0.0
H318 H 0.93461 0.20245 0.86363 0.0
C319 C 0.90969 0.31738 0.99812 0.0
C320 C 0.95705 0.37167 0.89332 0.0
C321 C 0.91444 0.37156 0.15911 0.0
C322 C 0.92724 0.37306 0.26596 0.0
C323 C 0.95427 0.34022 0.19744 0.0
C324 C 0.93733 0.35075 0.14908 0.0
C325 C 0.94919 0.35112 0.25572 0.0
C326 C 0.9097 0.38291 0.21734 0.0
C327 C 0.89633 0.38301 0.10923 0.0
H328 H 0.86104 0.26897 0.61744 0.0
H329 H 0.88977 0.28149 0.70881 0.0
H330 H 0.85392 0.30625 0.5365 0.0
H331 H 0.90086 0.37156 0.64359 0.0
H332 H 0.97138 0.32361 0.18972 0.0
H333 H 0.94236 0.34264 0.1043 0.0
H334 H 0.96218 0.34206 0.29286 0.0
H335 H 0.89252 0.39958 0.22458 0.0
C336 C 0.25896 0.37732 0.10329 0.0
C337 C 0.23043 0.41611 0.05272 0.0
C338 C 0.25693 0.40655 0.08101 0.0
C339 C 0.20669 0.39605 0.04616 0.0
C340 C 0.23432 0.35776 0.09919 0.0
C341 C 0.20827 0.36726 0.07014 0.0
N342 N 0.28559 0.36733 0.12473 0.0
C343 C 0.28834 0.33881 0.1464 0.0
C344 C 0.23705 0.32862 0.12146 0.0
C345 C 0.26407 0.31929 0.14608 0.0
Gd346 Gd 0.38268 0.40979 0.23285 0.0
Gd347 Gd 0.32565 0.39915 0.10135 0.0
N348 N 0.28136 0.4247 0.0824 0.0
C349 C 0.22909 0.44503 0.02871 0.0
C350 C 0.28038 0.45269 0.05772 0.0
C351 C 0.25407 0.46352 0.03195 0.0
H352 H 0.30022 0.46609 0.05377 0.0
H353 H 0.25352 0.48561 1.01193 0.0
H354 H 0.41496 0.34304 0.24945 0.0
H355 H 0.30908 0.33067 0.16341 0.0
H356 H 0.46592 0.32214 0.25483 0.0
H357 H 0.20915 0.45305 1.00625 0.0
H358 H 0.18735 0.40225 0.02087 0.0
H359 H 0.38991 0.48457 0.23946 0.0
H360 H 0.21858 0.31304 0.11903 0.0
H361 H 0.26651 0.29673 0.1631 0.0
H362 H 0.52954 0.40843 0.2507 0.0
H363 H 0.18953 0.35223 0.06433 0.0
H364 H 0.48272 0.50467 0.25277 0.0
H365 H 0.43062 0.5216 0.24714 0.0
N366 N 0.4193 0.44728 0.23529 0.0
C367 C 0.44794 0.43749 0.23906 0.0
C368 C 0.41287 0.47711 0.23893 0.0
C369 C 0.46532 0.48839 0.2463 0.0
C370 C 0.43578 0.49806 0.2438 0.0
C371 C 0.47182 0.45786 0.24345 0.0
H372 H 0.5199 0.46249 0.24971 0.0
N373 N 0.42978 0.38793 0.24244 0.0
C374 C 0.45335 0.40697 0.24201 0.0
C375 C 0.48731 0.36521 0.24997 0.0
C376 C 0.48281 0.3961 0.24621 0.0
C377 C 0.4339 0.35786 0.24806 0.0
C378 C 0.46271 0.34602 0.25123 0.0
O379 O 0.30514 0.3936 0.19785 0.0
O380 O 0.33535 0.42781 0.23795 0.0
O381 O 0.39064 0.39203 0.32385 0.0
O382 O 0.3693 0.43514 0.311 0.0
O383 O 0.3368 0.44775 0.12226 0.0
O384 O 0.38466 0.4446 0.15802 0.0
O385 O 0.40633 0.38984 0.15192 0.0
O386 O 0.37523 0.40205 0.07158 0.0
O387 O 0.32786 0.41375 1.00678 0.0
O388 O 0.31033 0.37016 0.03042 0.0
O389 O 0.36245 0.3631 0.22116 0.0
O390 O 0.35445 0.35965 0.11868 0.0
C391 C 0.31187 0.41054 0.24458 0.0
C392 C 0.36409 0.45852 0.12638 0.0
C393 C 0.39709 0.42889 0.40025 0.0
C394 C 0.40551 0.43071 0.50863 0.0
C395 C 0.42742 0.46846 0.4439 0.0
C396 C 0.41478 0.45461 0.39345 0.0
C397 C 0.42255 0.45673 0.50169 0.0
C398 C 0.39283 0.41684 0.45799 0.0
C399 C 0.38025 0.41607 0.34965 0.0
C400 C 0.50674 0.41635 0.24763 0.0
C401 C 0.50125 0.44715 0.24689 0.0
H402 H 0.50961 0.35598 0.25281 0.0
C403 C 0.40177 0.39444 0.09358 0.0
C404 C 0.36226 0.34748 0.17019 0.0
C405 C 0.33841 0.37326 0.94105 0.0
C406 C 0.36349 0.37527 0.84212 0.0
C407 C 0.36351 0.32939 0.90304 0.0
C408 C 0.34696 0.34334 0.94782 0.0
C409 C 0.37144 0.34486 0.85066 0.0
C410 C 0.34704 0.38916 0.88909 0.0
C411 C 0.3195 0.3876 0.98705 0.0
H412 H 0.44074 0.48844 0.4382 0.0
H413 H 0.41836 0.46454 0.3499 0.0
H414 H 0.43238 0.4676 0.54075 0.0
H415 H 0.37898 0.39713 0.46384 0.0
H416 H 0.36974 0.30619 0.90837 0.0
H417 H 0.34037 0.33039 0.98712 0.0
H418 H 0.38345 0.33187 0.81778 0.0
H419 H 0.3401 0.41213 0.88633 0.0
C420 C 0.43858 0.56526 0.80513 0.0
C421 C 0.39677 0.53123 0.81587 0.0
C422 C 0.40808 0.56039 0.80807 0.0
C423 C 0.41665 0.50726 0.82304 0.0
C424 C 0.45863 0.54127 0.81148 0.0
C425 C 0.44752 0.51231 0.82133 0.0
N426 N 0.44861 0.59346 0.79511 0.0
C427 C 0.47824 0.59871 0.78537 0.0
C428 C 0.48925 0.54718 0.80735 0.0
C429 C 0.49907 0.57584 0.79256 0.0
Gd430 Gd 0.39464 0.68434 0.93182 0.0
Gd431 Gd 0.4127 0.63169 0.79569 0.0
N432 N 0.38951 0.58425 0.80256 0.0
C433 C 0.36584 0.527 0.81558 0.0
C434 C 0.3594 0.57992 0.79884 0.0
C435 C 0.34711 0.55142 0.80613 0.0
H436 H 0.34462 0.59807 0.78897 0.0
H437 H 0.32318 0.5483 0.80392 0.0
H438 H 0.46539 0.70879 0.90544 0.0
H439 H 0.4859 0.62066 0.77236 0.0
H440 H 0.49 0.75538 0.87471 0.0
H441 H 0.35625 0.50495 0.82117 0.0
H442 H 0.40837 0.48473 0.82947 0.0
H443 H 0.32156 0.6996 0.93626 0.0
H444 H 0.50552 0.52987 0.81487 0.0
H445 H 0.52266 0.58035 0.787 0.0
H446 H 0.40999 0.82576 0.85642 0.0
H447 H 0.46258 0.49359 0.82663 0.0
H448 H 0.31066 0.79282 0.90061 0.0
H449 H 0.28877 0.7435 0.9252 0.0
N450 N 0.36144 0.72397 0.91968 0.0
C451 C 0.37405 0.75082 0.90671 0.0
C452 C 0.33124 0.721 0.92547 0.0
C453 C 0.32514 0.77365 0.90593 0.0
C454 C 0.31267 0.74584 0.91955 0.0
C455 C 0.35609 0.7763 0.89823 0.0
H456 H 0.35596 0.82315 0.87372 0.0
N457 N 0.42169 0.7272 0.90479 0.0
C458 C 0.40493 0.75245 0.89851 0.0
C459 C 0.44912 0.78053 0.87182 0.0
C460 C 0.41822 0.77966 0.88093 0.0
C461 C 0.45191 0.72819 0.89781 0.0
C462 C 0.46604 0.75478 0.88088 0.0
O463 O 0.41312 0.60721 0.88718 0.0
O464 O 0.38241 0.63548 0.9483 0.0
O465 O 0.41592 0.69091 0.01971 0.0
O466 O 0.36723 0.69393 1.01114 0.0
O467 O 0.36323 0.64713 0.80723 0.0
O468 O 0.35727 0.65446 0.9098 0.0
O469 O 0.38481 0.70159 0.83348 0.0
O470 O 0.42412 0.68104 0.78589 0.0
O471 O 0.38986 0.62799 0.7089 0.0
O472 O 0.43778 0.63322 0.71153 0.0
O473 O 0.43916 0.66111 0.93933 0.0
O474 O 0.45455 0.65027 0.84216 0.0
C475 C 0.3951 0.60985 0.9341 0.0
C476 C 0.34608 0.6487 0.85659 0.0
C477 C 0.38763 0.69946 0.1119 0.0
C478 C 0.39068 0.67982 0.21458 0.0
C479 C 0.35971 0.7228 0.19339 0.0
C480 C 0.36771 0.72137 0.13221 0.0
C481 C 0.37117 0.7022 0.23439 0.0
C482 C 0.3994 0.6787 0.15338 0.0
C483 C 0.39018 0.69398 0.04674 0.0
C484 C 0.40028 0.80495 0.8717 0.0
C485 C 0.3694 0.80337 0.88087 0.0
H486 H 0.46014 0.80093 0.85778 0.0
C487 C 0.40322 0.70143 0.78639 0.0
C488 C 0.45983 0.6522 0.90112 0.0
C489 C 0.41816 0.60767 0.62807 0.0
C490 C 0.42558 0.59894 0.52022 0.0
C491 C 0.42313 0.55711 0.59023 0.0
C492 C 0.41911 0.57681 0.63873 0.0
C493 C 0.42608 0.56808 0.531 0.0
C494 C 0.42165 0.61865 0.56892 0.0
C495 C 0.41455 0.62908 0.6776 0.0
H496 H 0.34333 0.73875 0.20884 0.0
H497 H 0.35717 0.73625 0.10006 0.0
H498 H 0.36364 0.70278 0.2811 0.0
H499 H 0.41324 0.66046 0.13744 0.0
H500 H 0.42381 0.53329 0.59853 0.0
H501 H 0.41672 0.56798 0.68413 0.0
H502 H 0.42888 0.55259 0.49369 0.0
H503 H 0.42088 0.64253 0.56061 0.0
C504 C 0.74314 0.65372 0.09981 0.0
C505 C 0.77987 0.61396 0.09643 0.0
C506 C 0.75011 0.62321 0.10301 0.0
C507 C 0.80258 0.63533 0.08903 0.0
C508 C 0.7659 0.67513 0.09174 0.0
C509 C 0.79567 0.66576 0.08705 0.0
N510 N 0.71396 0.66219 0.09946 0.0
C511 C 0.706 0.69138 0.09206 0.0
C512 C 0.75798 0.70526 0.08595 0.0
C513 C 0.7279 0.7134 0.08611 0.0
Gd514 Gd 0.63612 0.59742 0.2394 0.0
Gd515 Gd 0.68043 0.62245 0.09894 0.0
N516 N 0.72777 0.60259 0.10924 0.0
C517 C 0.78581 0.58338 0.09487 0.0
C518 C 0.73358 0.57278 0.10904 0.0
C519 C 0.76279 0.56269 0.10207 0.0
H520 H 0.71582 0.5567 0.11165 0.0
H521 H 0.76744 0.53901 0.10025 0.0
H522 H 0.61185 0.66543 0.28802 0.0
H523 H 0.6828 0.69752 0.0878 0.0
H524 H 0.56428 0.69043 0.30756 0.0
H525 H 0.80789 0.57556 0.08596 0.0
H526 H 0.82559 0.62859 0.08434 0.0
H527 H 0.61815 0.5255 0.21182 0.0
H528 H 0.77487 0.72232 0.07964 0.0
H529 H 0.72155 0.73651 0.07994 0.0
H530 H 0.4905 0.61492 0.27336 0.0
H531 H 0.81347 0.68184 0.08033 0.0
H532 H 0.52366 0.51869 0.20643 0.0
H533 H 0.57314 0.49568 0.19495 0.0
N534 N 0.5946 0.56602 0.22793 0.0
C535 C 0.56754 0.57847 0.23987 0.0
C536 C 0.59682 0.53632 0.21483 0.0
C537 C 0.54327 0.532 0.21455 0.0
C538 C 0.57125 0.51904 0.20681 0.0
C539 C 0.54107 0.56175 0.2332 0.0
H540 H 0.49282 0.56263 0.24015 0.0
N541 N 0.59207 0.62422 0.26086 0.0
C542 C 0.5663 0.60814 0.25802 0.0
C543 C 0.53779 0.65156 0.28794 0.0
C544 C 0.53843 0.62154 0.27082 0.0
C545 C 0.59156 0.65316 0.28035 0.0
C546 C 0.56449 0.66736 0.29308 0.0
O547 O 0.70478 0.62649 0.19341 0.0
O548 O 0.68549 0.58665 0.24201 0.0
O549 O 0.63735 0.61067 0.33457 0.0
O550 O 0.63713 0.5639 0.30946 0.0
O551 O 0.66294 0.57511 0.09307 0.0
O552 O 0.65841 0.55849 0.19103 0.0
O553 O 0.6075 0.60074 0.15234 0.0
O554 O 0.63132 0.63454 0.08897 0.0
O555 O 0.67175 0.60302 1.00934 0.0
O556 O 0.69888 0.64237 0.01834 0.0
O557 O 0.65358 0.64613 0.23421 0.0
O558 O 0.65004 0.65778 0.13336 0.0
C559 C 0.70579 0.60754 0.23985 0.0
C560 C 0.65851 0.55347 0.13222 0.0
C561 C 0.61345 0.57649 0.40096 0.0
C562 C 0.59872 0.58138 0.50615 0.0
C563 C 0.5716 0.54777 0.44057 0.0
C564 C 0.59025 0.55572 0.3922 0.0
C565 C 0.57598 0.56037 0.49776 0.0
C566 C 0.61732 0.5895 0.45787 0.0
C567 C 0.63533 0.58312 0.35332 0.0
C568 C 0.51206 0.60489 0.26429 0.0
C569 C 0.51337 0.57514 0.2452 0.0
H570 H 0.51685 0.6627 0.29759 0.0
C571 C 0.60746 0.61896 0.10468 0.0
C572 C 0.64905 0.66582 0.19016 0.0
C573 C 0.66872 0.64064 0.93284 0.0
C574 C 0.64882 0.63956 0.83002 0.0
C575 C 0.65612 0.68699 0.88216 0.0
C576 C 0.6661 0.67193 0.93335 0.0
C577 C 0.64847 0.67112 0.83028 0.0
C578 C 0.65886 0.62456 0.88244 0.0
C579 C 0.68486 0.62513 0.98143 0.0
H580 H 0.554 0.53156 0.43389 0.0
H581 H 0.58689 0.54513 0.34866 0.0
H582 H 0.56164 0.55389 0.53527 0.0
H583 H 0.63527 0.60541 0.46509 0.0
H584 H 0.65525 0.71113 0.88198 0.0
H585 H 0.67292 0.68495 0.97228 0.0
H586 H 0.64285 0.68401 0.79038 0.0
H587 H 0.65974 0.60046 0.88439 0.0
C588 C 0.57768 0.44708 0.78822 0.0
C589 C 0.62113 0.47947 0.78252 0.0
C590 C 0.60854 0.45065 0.78682 0.0
C591 C 0.60237 0.50449 0.77901 0.0
C592 C 0.55882 0.47211 0.78272 0.0
C593 C 0.57133 0.5008 0.77844 0.0
N594 N 0.56606 0.41918 0.79368 0.0
C595 C 0.53592 0.41457 0.79191 0.0
C596 C 0.52793 0.46746 0.78078 0.0
C597 C 0.51641 0.43864 0.78582 0.0
Gd598 Gd 0.62034 0.32723 0.93483 0.0
Gd599 Gd 0.60074 0.38034 0.80017 0.0
N600 N 0.62621 0.42601 0.79032 0.0
C601 C 0.65223 0.48231 0.78159 0.0
C602 C 0.65652 0.42863 0.78652 0.0
C603 C 0.66997 0.45675 0.78309 0.0
H604 H 0.67058 0.40927 0.78509 0.0
H605 H 0.69404 0.45867 0.78096 0.0
H606 H 0.55677 0.28641 0.9063 0.0
H607 H 0.52702 0.39213 0.79284 0.0
H608 H 0.5442 0.23463 0.88462 0.0
H609 H 0.66274 0.50407 0.77866 0.0
H610 H 0.61166 0.52678 0.77598 0.0
H611 H 0.69451 0.3276 0.95902 0.0
H612 H 0.51272 0.48576 0.77374 0.0
H613 H 0.49257 0.43489 0.78357 0.0
H614 H 0.63746 0.18297 0.89076 0.0
H615 H 0.55721 0.52032 0.77457 0.0
H616 H 0.72599 0.23836 0.93522 0.0
H617 H 0.73589 0.29143 0.95817 0.0
N618 N 0.66189 0.29582 0.93186 0.0
C619 C 0.65568 0.26654 0.92044 0.0
C620 C 0.69011 0.30478 0.94619 0.0
C621 C 0.70781 0.25427 0.93401 0.0
C622 C 0.71353 0.28422 0.94688 0.0
C623 C 0.67863 0.24502 0.9212 0.0
H624 H 0.68912 0.1981 0.91108 0.0
N625 N 0.60383 0.27867 0.91237 0.0
C626 C 0.62601 0.25774 0.9109 0.0
C627 C 0.58962 0.21934 0.88929 0.0
C628 C 0.6193 0.22749 0.89968 0.0
C629 C 0.57469 0.27051 0.90412 0.0
C630 C 0.56726 0.24087 0.8919 0.0
O631 O 0.60939 0.40764 0.88311 0.0
O632 O 0.62826 0.37742 0.96005 0.0
O633 O 0.60109 0.33648 0.02396 0.0
O634 O 0.63409 0.30209 1.01374 0.0
O635 O 0.64825 0.36052 0.8074 0.0
O636 O 0.65625 0.35898 0.90981 0.0
O637 O 0.62437 0.30786 0.8364 0.0
O638 O 0.58481 0.33272 0.80234 0.0
O639 O 0.61833 0.38369 0.70827 0.0
O640 O 0.57189 0.3715 0.72373 0.0
O641 O 0.5711 0.33485 0.92281 0.0
O642 O 0.56445 0.37973 0.87393 0.0
C643 C 0.62007 0.40406 0.93819 0.0
C644 C 0.66633 0.36199 0.85474 0.0
C645 C 0.63729 0.33101 0.1017 0.0
C646 C 0.6389 0.35357 0.2023 0.0
C647 C 0.68468 0.33652 0.15357 0.0
C648 C 0.66848 0.32751 0.10316 0.0
C649 C 0.67004 0.34869 0.20343 0.0
C650 C 0.62285 0.34505 0.15019 0.0
C651 C 0.61958 0.31866 0.05148 0.0
C652 C 0.64229 0.20625 0.89932 0.0
C653 C 0.67177 0.21492 0.91052 0.0
H654 H 0.58369 0.19647 0.87923 0.0
C655 C 0.60402 0.31121 0.79372 0.0
C656 C 0.55602 0.35956 0.91421 0.0
C657 C 0.58334 0.3977 0.63312 0.0
C658 C 0.58754 0.41003 0.52628 0.0
C659 C 0.551 0.43535 0.5883 0.0
C660 C 0.56022 0.41872 0.63845 0.0
C661 C 0.56441 0.43082 0.532 0.0
C662 C 0.59717 0.3937 0.57681 0.0
C663 C 0.59235 0.3784 0.68386 0.0
H664 H 0.70859 0.33314 0.15484 0.0
H665 H 0.68041 0.31704 0.06628 0.0
H666 H 0.68335 0.35341 0.24314 0.0
H667 H 0.59904 0.34875 0.14708 0.0
H668 H 0.53308 0.45137 0.59291 0.0
H669 H 0.54871 0.42202 0.68044 0.0
H670 H 0.55673 0.44338 0.49292 0.0
H671 H 0.6147 0.37717 0.57177 0.0
C672 C 0.76311 0.64424 0.67457 0.0
C673 C 0.73024 0.60263 0.6515 0.0
C674 C 0.75911 0.61388 0.6626 0.0
C675 C 0.70569 0.62207 0.65223 0.0
C676 C 0.73833 0.66365 0.67622 0.0
C677 C 0.70965 0.65239 0.665 0.0
N678 N 0.79105 0.65466 0.68614 0.0
C679 C 0.79571 0.68399 0.69987 0.0
C680 C 0.74304 0.69383 0.68961 0.0
C681 C 0.77187 0.70402 0.70149 0.0
Gd682 Gd 0.887 0.60732 0.55255 0.0
Gd683 Gd 0.82853 0.61838 0.68655 0.0
N684 N 0.78329 0.59542 0.66185 0.0
C685 C 0.72684 0.57208 0.64025 0.0
C686 C 0.78011 0.5656 0.65135 0.0
C687 C 0.75186 0.55352 0.64022 0.0
H688 H 0.79913 0.55093 0.65157 0.0
H689 H 0.74938 0.52985 0.6319 0.0
H690 H 0.91573 0.67827 0.55815 0.0
H691 H 0.81757 0.69191 0.71152 0.0
H692 H 0.96384 0.70195 0.57672 0.0
H693 H 0.70498 0.56259 0.63187 0.0
H694 H 0.6835 0.6139 0.64273 0.0
H695 H 0.90311 0.53537 0.51635 0.0
H696 H 0.72456 0.70938 0.69143 0.0
H697 H 0.77571 0.72722 0.71267 0.0
H698 H 0.03303 0.62091 0.58213 0.0
H699 H 0.69036 0.66695 0.66608 0.0
H700 H 0.99692 0.52329 0.53613 0.0
H701 H 0.94707 0.50282 0.51306 0.0
N702 N 0.92724 0.57385 0.54468 0.0
C703 C 0.95464 0.5858 0.55601 0.0
C704 C 0.92454 0.54465 0.52772 0.0
C705 C 0.97756 0.53762 0.53916 0.0
C706 C 0.94949 0.52604 0.52561 0.0
C707 C 0.98051 0.56782 0.55399 0.0
H708 H 0.0286 0.56703 0.56397 0.0
N709 N 0.93212 0.6338 0.56451 0.0
C710 C 0.95717 0.61649 0.56575 0.0
C711 C 0.9878 0.66042 0.58018 0.0
C712 C 0.98563 0.62944 0.57429 0.0
C713 C 0.93458 0.66418 0.56582 0.0
C714 C 0.96222 0.67787 0.57489 0.0
O715 O 0.81138 0.62156 0.58623 0.0
O716 O 0.84093 0.5862 0.54445 0.0
O717 O 0.86599 0.61963 0.4663 0.0
O718 O 0.91058 0.60246 0.46691 0.0
O719 O 0.84665 0.57196 0.68081 0.0
O720 O 0.87623 0.56206 0.59636 0.0
O721 O 0.90803 0.60871 0.6469 0.0
O722 O 0.87559 0.63468 0.70909 0.0
O723 O 0.83897 0.59538 0.77176 0.0
O724 O 0.8053 0.62963 0.77001 0.0
O725 O 0.86884 0.65515 0.56746 0.0
O726 O 0.85533 0.65901 0.66852 0.0
C727 C 0.81682 0.60291 0.54088 0.0
C728 C 0.86329 0.55399 0.64811 0.0
C729 C 0.88041 0.58665 0.3877 0.0
C730 C 0.88064 0.56888 0.28255 0.0
C731 C 0.87199 0.53432 0.36652 0.0
C732 C 0.87302 0.55784 0.40746 0.0
C733 C 0.87647 0.53961 0.30486 0.0
C734 C 0.88353 0.5924 0.32503 0.0
C735 C 0.88784 0.6093 0.43354 0.0
C736 C 0.01112 0.61128 0.57505 0.0
C737 C 0.00859 0.5806 0.56481 0.0
H738 H 0.00924 0.67116 0.58664 0.0
C739 C 0.90217 0.62313 0.69767 0.0
C740 C 0.86355 0.67112 0.61708 0.0
C741 C 0.83934 0.6311 0.85151 0.0
C742 C 0.86776 0.63383 0.94699 0.0
C743 C 0.8561 0.67906 0.88981 0.0
C744 C 0.84171 0.66228 0.84584 0.0
C745 C 0.86853 0.66518 0.94021 0.0
C746 C 0.85292 0.61684 0.90169 0.0
C747 C 0.82324 0.61408 0.80387 0.0
H748 H 0.86775 0.51186 0.38263 0.0
H749 H 0.86885 0.55343 0.45497 0.0
H750 H 0.87611 0.52061 0.27463 0.0
H751 H 0.88783 0.61503 0.30991 0.0
H752 H 0.85728 0.7031 0.88518 0.0
H753 H 0.83236 0.67394 0.80735 0.0
H754 H 0.87808 0.67949 0.97452 0.0
H755 H 0.85183 0.59276 0.90494 0.0
C756 C 0.58047 0.06325 0.4903 0.0
C757 C 0.62273 0.02924 0.49136 0.0
C758 C 0.61124 0.05852 0.48964 0.0
C759 C 0.60302 1.00488 0.49429 0.0
C760 C 0.56071 0.03884 0.49517 0.0
C761 C 0.57214 0.00967 0.49679 0.0
N762 N 0.56986 0.09165 0.48789 0.0
C763 C 0.53994 0.09734 0.49216 0.0
C764 C 0.53003 0.0445 0.49917 0.0
C765 C 0.51959 0.07383 0.49741 0.0
Gd766 Gd 0.61722 0.18713 0.35301 0.0
Gd767 Gd 0.60635 0.12886 0.482 0.0
N768 N 0.62991 0.08247 0.48736 0.0
C769 C 0.65374 0.0253 0.49028 0.0
C770 C 0.66012 0.07882 0.48765 0.0
C771 C 0.67249 0.05021 0.48873 0.0
H772 H 0.67476 0.09783 0.48736 0.0
H773 H 0.69648 0.04739 0.48854 0.0
H774 H 0.55015 0.22248 0.37522 0.0
H775 H 0.53191 0.12011 0.49233 0.0
H776 H 0.53275 0.27285 0.39701 0.0
H777 H 0.66344 1.00318 0.49108 0.0
H778 H 0.61141 0.98223 0.49513 0.0
H779 H 0.69135 0.19469 0.32668 0.0
H780 H 0.51421 0.02648 0.50495 0.0
H781 H 0.49593 0.07835 0.50105 0.0
H782 H 0.62164 0.33177 0.40522 0.0
H783 H 0.55728 0.99063 0.50003 0.0
H784 H 0.71473 0.28551 0.35779 0.0
H785 H 0.72927 0.234 0.33102 0.0
N786 N 0.65568 0.2226 0.35528 0.0
C787 C 0.64699 0.25091 0.36905 0.0
C788 C 0.68472 0.21655 0.34103 0.0
C789 C 0.69797 0.26805 0.35736 0.0
C790 C 0.7063 0.23903 0.34237 0.0
C791 C 0.66804 0.27438 0.37035 0.0
H792 H 0.67448 0.32173 0.38509 0.0
N793 N 0.59652 0.23395 0.37641 0.0
C794 C 0.61673 0.25674 0.37951 0.0
C795 C 0.57684 0.29184 0.39876 0.0
C796 C 0.60732 0.2862 0.39144 0.0
C797 C 0.56663 0.23965 0.38131 0.0
C798 C 0.55644 0.26853 0.39303 0.0
O799 O 0.61484 0.10364 0.39449 0.0
O800 O 0.63035 0.1392 0.32343 0.0
O801 O 0.59515 0.17652 0.2674 0.0
O802 O 0.6263 0.21332 0.27266 0.0
O803 O 0.65341 0.14831 0.47073 0.0
O804 O 0.65749 0.15886 0.36871 0.0
O805 O 0.62735 0.20303 0.45038 0.0
O806 O 0.59023 0.17684 0.4928 0.0
O807 O 0.62419 0.11927 0.57172 0.0
O808 O 0.58015 0.1396 0.56129 0.0
O809 O 0.56934 0.17496 0.37607 0.0
O810 O 0.57183 0.12675 0.40777 0.0
C811 C 0.62484 0.11108 0.34015 0.0
C812 C 0.66946 0.15088 0.42046 0.0
C813 C 0.63004 0.18266 0.18745 0.0
C814 C 0.63295 0.16107 0.08618 0.0
C815 C 0.67835 0.17411 0.14072 0.0
C816 C 0.66138 0.18346 0.18988 0.0
C817 C 0.66435 0.16383 0.08859 0.0
C818 C 0.61599 0.17038 0.13672 0.0
C819 C 0.61214 0.19508 0.23735 0.0
C820 C 0.62845 0.30927 0.3946 0.0
C821 C 0.65862 0.30347 0.38364 0.0
H822 H 0.56879 0.31421 0.40758 0.0
C823 C 0.60931 0.19897 0.49677 0.0
C824 C 0.55852 0.14778 0.37679 0.0
C825 C 0.58858 0.11137 0.65028 0.0
C826 C 0.58763 0.10375 0.75914 0.0
C827 C 0.55255 0.07733 0.69577 0.0
C828 C 0.56496 0.09096 0.64455 0.0
C829 C 0.56363 0.08395 0.7532 0.0
C830 C 0.60014 0.11736 0.70777 0.0
C831 C 0.59997 0.12874 0.59872 0.0
H832 H 0.70246 0.17557 0.14241 0.0
H833 H 0.67289 0.19201 0.22906 0.0
H834 H 0.67845 0.15865 0.05013 0.0
H835 H 0.59192 0.16839 0.13717 0.0
H836 H 0.53413 0.06188 0.69093 0.0
H837 H 0.55562 0.08578 0.60126 0.0
H838 H 0.55374 0.07347 0.79287 0.0
H839 H 0.61825 0.13328 0.71283 0.0
C840 C 0.2478 0.36599 0.67104 0.0
C841 C 0.28002 0.40892 0.65471 0.0
C842 C 0.25129 0.39674 0.66324 0.0
C843 C 0.30496 0.39 0.65411 0.0
C844 C 0.27289 0.347 0.67058 0.0
C845 C 0.30147 0.35921 0.66243 0.0
N846 N 0.21995 0.35464 0.67925 0.0
C847 C 0.21549 0.32471 0.68659 0.0
C848 C 0.26851 0.31625 0.67835 0.0
C849 C 0.23966 0.30506 0.6862 0.0
Gd850 Gd 0.12673 0.40862 0.55712 0.0
Gd851 Gd 0.18197 0.39003 0.68634 0.0
N852 N 0.22671 0.41465 0.66369 0.0
C853 C 0.2829 0.43983 0.64737 0.0
C854 C 0.22946 0.44482 0.65799 0.0
C855 C 0.25751 0.45784 0.64914 0.0
H856 H 0.21038 0.45911 0.66138 0.0
H857 H 0.25956 0.48181 0.6445 0.0
H858 H 0.0974 0.33838 0.5425 0.0
H859 H 0.1935 0.31617 0.69585 0.0
H860 H 0.04962 0.31344 0.55953 0.0
H861 H 0.30463 0.45002 0.64097 0.0
H862 H 0.32705 0.39894 0.64683 0.0
H863 H 0.11199 0.48235 0.56545 0.0
H864 H 0.28725 0.30099 0.67856 0.0
H865 H 0.23607 0.28138 0.69291 0.0
H866 H 0.98202 0.39269 0.60711 0.0
H867 H 0.32103 0.34501 0.66214 0.0
H868 H 0.01974 0.49257 0.61 0.0
H869 H 0.06931 0.51479 0.58954 0.0
N870 N 0.0873 0.44194 0.57535 0.0
C871 C 0.05993 0.42933 0.58361 0.0
C872 C 0.09071 0.47227 0.57599 0.0
C873 C 0.03844 0.4782 0.59944 0.0
C874 C 0.06643 0.4908 0.58855 0.0
C875 C 0.03477 0.44722 0.59614 0.0
H876 H 0.98725 0.44716 0.6145 0.0
N877 N 0.08186 0.38148 0.56878 0.0
C878 C 0.05713 0.39836 0.58024 0.0
C879 C 0.02643 0.35394 0.58229 0.0
C880 C 0.02887 0.38491 0.58819 0.0
C881 C 0.07902 0.35153 0.55867 0.0
C882 C 0.05153 0.33727 0.56663 0.0
O883 O 0.20039 0.38578 0.58729 0.0
O884 O 0.17484 0.42283 0.54013 0.0
O885 O 0.12917 0.39102 0.46533 0.0
O886 O 0.10809 0.43357 0.48239 0.0
O887 O 0.16005 0.43538 0.69157 0.0
O888 O 0.1526 0.44867 0.59231 0.0
O889 O 0.10731 0.41112 0.65323 0.0
O890 O 0.13368 0.37494 0.7021 0.0
O891 O 0.18277 0.41366 0.77252 0.0
O892 O 0.1974 0.36776 0.76799 0.0
O893 O 0.14449 0.35974 0.56083 0.0
O894 O 0.15274 0.35192 0.66239 0.0
C895 C 0.19733 0.40409 0.5403 0.0
C896 C 0.15385 0.45555 0.65036 0.0
C897 C 0.13451 0.42886 0.39221 0.0
C898 C 0.14245 0.43347 0.2835 0.0
C899 C 0.17416 0.46059 0.35426 0.0
C900 C 0.15819 0.44861 0.40299 0.0
C901 C 0.16672 0.45276 0.29482 0.0
C902 C 0.12615 0.42221 0.33307 0.0
C903 C 0.1178 0.41516 0.44178 0.0
C904 C 1.00385 0.40271 0.60086 0.0
C905 C 1.00681 0.43374 0.60495 0.0
H906 H 1.00512 0.34281 0.58799 0.0
C907 C 0.10911 0.39076 0.69585 0.0
C908 C 0.14791 0.34149 0.60796 0.0
C909 C 0.16433 0.38056 0.8461 0.0
C910 C 0.13409 0.39266 0.93471 0.0
C911 C 0.11966 0.35179 0.86856 0.0
C912 C 0.14485 0.35681 0.83287 0.0
C913 C 0.11386 0.37001 0.91826 0.0
C914 C 0.15918 0.39804 0.89749 0.0
C915 C 0.18783 0.38908 0.80271 0.0
H916 H 0.19259 0.47566 0.36258 0.0
H917 H 0.16421 0.45491 0.44872 0.0
H918 H 0.18036 0.46147 0.25822 0.0
H919 H 0.10672 0.40822 0.32632 0.0
H920 H 0.10452 0.33379 0.85756 0.0
H921 H 0.14859 0.34252 0.79402 0.0
H922 H 0.09383 0.36581 0.94455 0.0
H923 H 0.17513 0.41536 0.90852 0.0
C924 C 0.4355 0.95257 0.46778 0.0
C925 C 0.39435 0.98741 0.47663 0.0
C926 C 0.40529 0.95787 0.47666 0.0
C927 C 0.41391 0.01127 0.46488 0.0
C928 C 0.45536 0.97655 0.45758 0.0
C929 C 0.44431 1.00584 0.455 0.0
N930 N 0.44567 0.92407 0.47153 0.0
C931 C 0.47564 0.91847 0.47206 0.0
C932 C 0.48584 0.9704 0.4517 0.0
C933 C 0.4961 0.94136 0.46058 0.0
Gd934 Gd 0.39384 0.83091 0.34666 0.0
Gd935 Gd 0.40921 0.88658 0.48208 0.0
N936 N 0.38687 0.93427 0.4876 0.0
C937 C 0.36418 0.99217 0.48978 0.0
C938 C 0.35768 0.93903 0.50317 0.0
C939 C 0.34589 0.96791 0.5039 0.0
H940 H 0.34333 0.92087 0.51666 0.0
H941 H 0.32273 0.97144 0.51597 0.0
H942 H 0.46305 0.80436 0.34059 0.0
H943 H 0.48408 0.89638 0.48134 0.0
H944 H 0.48896 0.75637 0.35968 0.0
H945 H 0.35497 0.01453 0.49063 0.0
H946 H 0.40583 0.03406 0.46436 0.0
H947 H 0.3193 0.81551 0.35152 0.0
H948 H 0.50173 0.98795 0.44188 0.0
H949 H 0.51977 0.9366 0.4589 0.0
H950 H 0.40984 0.68892 0.41512 0.0
H951 H 0.45922 0.02451 0.44699 0.0
H952 H 0.30936 0.72407 0.40172 0.0
H953 H 0.28708 0.77281 0.37508 0.0
N954 N 0.35994 0.79221 0.36862 0.0
C955 C 0.37263 0.76516 0.3796 0.0
C956 C 0.32957 0.79493 0.36557 0.0
C957 C 0.32376 0.74298 0.39237 0.0
C958 C 0.31109 0.77048 0.37769 0.0
C959 C 0.35484 0.74 0.39317 0.0
H960 H 0.35529 0.69312 0.41762 0.0
N961 N 0.42021 0.78679 0.3614 0.0
C962 C 0.40354 0.76233 0.37555 0.0
C963 C 0.44842 0.73272 0.38198 0.0
C964 C 0.41731 0.73469 0.38721 0.0
C965 C 0.45035 0.78487 0.35382 0.0
C966 C 0.46496 0.75783 0.36454 0.0
O967 O 0.40769 0.90978 0.38945 0.0
O968 O 0.37757 0.8787 0.33288 0.0
O969 O 0.41382 0.83226 0.25528 0.0
O970 O 0.36851 0.8153 0.2701 0.0
O971 O 0.35906 0.87639 0.47173 0.0
O972 O 0.35283 0.85443 0.37736 0.0
O973 O 0.41338 0.81382 0.43883 0.0
O974 O 0.38644 0.84212 0.50192 0.0
O975 O 0.39886 0.89886 0.5743 0.0
O976 O 0.43872 0.87291 0.55603 0.0
O977 O 0.43444 0.85854 0.33388 0.0
O978 O 0.4496 0.86454 0.4321 0.0
C979 C 0.38989 0.90501 0.34291 0.0
C980 C 0.34218 0.86762 0.42579 0.0
C981 C 0.38478 0.81788 0.16588 0.0
C982 C 0.38819 0.83703 0.06248 0.0
C983 C 0.35227 0.7984 0.08717 0.0
C984 C 0.36157 0.79894 0.14739 0.0
C985 C 0.36527 0.81755 0.04508 0.0
C986 C 0.39852 0.83676 0.12275 0.0
C987 C 0.38887 0.82317 0.23117 0.0
C988 C 0.39969 0.71007 0.40396 0.0
C989 C 0.36857 0.71259 0.40627 0.0
H990 H 0.45986 0.71193 0.39084 0.0
C991 C 0.39997 0.81678 0.49208 0.0
C992 C 0.45508 0.86586 0.37268 0.0
C993 C 0.43677 0.90208 0.64673 0.0
C994 C 0.44447 0.90721 0.75565 0.0
C995 C 0.45962 0.94694 0.6871 0.0
C996 C 0.44943 0.93038 0.63752 0.0
C997 C 0.45698 0.93551 0.74606 0.0
C998 C 0.43448 0.8905 0.70587 0.0
C999 C 0.4222 0.8859 0.5972 0.0
H1000 H 0.33397 0.78411 0.07367 0.0
H1001 H 0.34933 0.78589 0.18031 0.0
H1002 H 0.35665 0.81801 0.99929 0.0
H1003 H 0.41525 0.8528 0.13687 0.0
H1004 H 0.46913 0.96888 0.67991 0.0
H1005 H 0.45077 0.93998 0.59249 0.0
H1006 H 0.46453 0.94875 0.78418 0.0
H1007 H 0.42405 0.86892 0.71341 0.0
C1008 C 0.76617 0.87321 0.61869 0.0
C1009 C 0.73542 0.9176 0.62648 0.0
C1010 C 0.76376 0.90429 0.62098 0.0
C1011 C 0.70993 0.8995 0.63058 0.0
C1012 C 0.74049 0.85507 0.62233 0.0
C1013 C 0.71234 0.86841 0.62785 0.0
N1014 N 0.79372 0.86071 0.61506 0.0
C1015 C 0.79726 0.83047 0.6147 0.0
C1016 C 0.7439 0.82399 0.62157 0.0
C1017 C 0.77244 0.81165 0.61794 0.0
Gd1018 Gd 0.88377 0.91299 0.7403 0.0
Gd1019 Gd 0.83292 0.8944 0.60234 0.0
N1020 N 0.78898 0.92139 0.61875 0.0
C1021 C 0.73348 0.94876 0.62766 0.0
C1022 C 0.78712 0.95176 0.61785 0.0
C1023 C 0.75943 0.96589 0.62287 0.0
H1024 H 0.80661 0.96534 0.61148 0.0
H1025 H 0.75808 0.99 0.62224 0.0
H1026 H 0.91296 0.84372 0.76385 0.0
H1027 H 0.8191 0.82088 0.60956 0.0
H1028 H 0.9616 0.81914 0.75791 0.0
H1029 H 0.71206 0.95981 0.63137 0.0
H1030 H 0.68823 0.90933 0.63674 0.0
H1031 H 0.89822 0.9867 0.73492 0.0
H1032 H 0.72467 0.80935 0.62409 0.0
H1033 H 0.77533 0.78767 0.61705 0.0
H1034 H 0.03056 0.89894 0.72037 0.0
H1035 H 0.69232 0.85489 0.63094 0.0
H1036 H 0.99185 0.99839 0.70698 0.0
H1037 H 0.94136 0.01978 0.71811 0.0
N1038 N 0.92374 0.9467 0.73019 0.0
C1039 C 0.95153 0.93457 0.72718 0.0
C1040 C 0.92002 0.97694 0.72876 0.0
C1041 C 0.97302 0.98369 0.7145 0.0
C1042 C 0.9445 0.99584 0.72018 0.0
C1043 C 0.97694 0.95279 0.71912 0.0
H1044 H 0.02512 0.95333 0.71 0.0
N1045 N 0.92952 0.88678 0.73962 0.0
C1046 C 0.95452 0.90376 0.73199 0.0
C1047 C 0.98551 0.85973 0.73817 0.0
C1048 C 0.98312 0.89061 0.73028 0.0
C1049 C 0.93204 0.85692 0.75128 0.0
C1050 C 0.95988 0.84289 0.74951 0.0
O1051 O 0.81228 0.88673 0.69854 0.0
O1052 O 0.83442 0.92335 0.75324 0.0
O1053 O 0.8843 0.89357 0.83096 0.0
O1054 O 0.88789 0.94142 0.81919 0.0
O1055 O 0.85648 0.93888 0.59702 0.0
O1056 O 0.86023 0.95278 0.69655 0.0
O1057 O 0.90872 0.91416 0.64856 0.0
O1058 O 0.88189 0.88212 0.58803 0.0
O1059 O 0.82744 0.91482 0.51301 0.0
O1060 O 0.82357 0.86619 0.52485 0.0
O1061 O 0.86704 0.864 0.73097 0.0
O1062 O 0.8631 0.85774 0.62809 0.0
C1063 C 0.81292 0.90363 0.74785 0.0
C1064 C 0.86168 0.95928 0.63817 0.0
C1065 C 0.909 0.921 0.90745 0.0
C1066 C 0.91739 0.92499 1.01606 0.0
C1067 C 0.95949 0.92304 0.94668 0.0
C1068 C 0.93992 0.92119 0.89745 0.0
C1069 C 0.94831 0.92467 1.00594 0.0
C1070 C 0.89784 0.92314 0.96665 0.0
C1071 C 0.88768 0.91932 0.85743 0.0
C1072 C 0.00844 0.90868 0.72189 0.0
C1073 C 1.00535 0.93967 0.71611 0.0
H1074 H 1.00707 0.8488 0.73728 0.0
C1075 C 0.90706 0.89579 0.60205 0.0
C1076 C 0.86698 0.84664 0.68219 0.0
C1077 C 0.81704 0.88521 0.42378 0.0
C1078 C 0.8353 0.88592 0.32029 0.0
C1079 C 0.78884 0.86061 0.34471 0.0
C1080 C 0.79222 0.86843 0.40556 0.0
C1081 C 0.81056 0.86896 0.30246 0.0
C1082 C 0.83838 0.89443 0.38098 0.0
C1083 C 0.82322 0.88881 0.48807 0.0
H1084 H 0.98336 0.92311 0.9389 0.0
H1085 H 0.94891 0.91994 0.85202 0.0
H1086 H 0.96367 0.92586 0.04378 0.0
H1087 H 0.8739 0.92293 0.97442 0.0
H1088 H 0.7699 0.84734 0.33061 0.0
H1089 H 0.77596 0.86072 0.43864 0.0
H1090 H 0.80855 0.86164 0.25614 0.0
H1091 H 0.85808 0.9066 0.39533 0.0
C1092 C 0.93935 0.06903 0.29869 0.0
C1093 C 0.8975 0.0343 0.29721 0.0
C1094 C 0.90857 0.06382 0.29859 0.0
C1095 C 0.91745 0.01024 0.2981 0.0
C1096 C 0.95934 0.04482 0.29689 0.0
C1097 C 0.94822 0.01547 0.29798 0.0
N1098 N 0.94967 0.09769 0.29691 0.0
C1099 C 0.97932 0.10349 0.28811 0.0
C1100 C 0.9899 0.05083 0.29212 0.0
C1101 C 0.99992 0.08019 0.28688 0.0
Gd1102 Gd 0.89141 0.18556 0.43936 0.0
Gd1103 Gd 0.91281 0.13463 0.30379 0.0
N1104 N 0.88953 0.08754 0.29881 0.0
C1105 C 0.86666 0.02977 0.29376 0.0
C1106 C 0.85961 0.08314 0.29083 0.0
C1107 C 0.8477 0.05432 0.28947 0.0
H1108 H 0.84464 0.10148 0.2838 0.0
H1109 H 0.82391 0.05106 0.28417 0.0
H1110 H 0.96342 0.21094 0.42835 0.0
H1111 H 0.98714 0.12612 0.28168 0.0
H1112 H 0.98834 0.25847 0.40704 0.0
H1113 H 0.85736 1.00745 0.29237 0.0
H1114 H 0.90932 0.98745 0.29757 0.0
H1115 H 0.81824 0.19844 0.41963 0.0
H1116 H 1.00591 0.03303 0.2901 0.0
H1117 H 0.02348 0.08485 0.28115 0.0
H1118 H 0.90883 0.32708 0.37451 0.0
H1119 H 0.96312 0.99654 0.29719 0.0
H1120 H 0.80806 0.29178 0.38478 0.0
H1121 H 0.7857 0.24179 0.39993 0.0
N1122 N 0.85835 0.22359 0.41467 0.0
C1123 C 0.87126 0.25087 0.40761 0.0
C1124 C 0.82813 0.22 0.41154 0.0
C1125 C 0.82241 0.27279 0.39331 0.0
C1126 C 0.80969 0.24458 0.40134 0.0
C1127 C 0.8535 0.27613 0.39559 0.0
H1128 H 0.85397 0.32306 0.37321 0.0
N1129 N 0.91947 0.22836 0.41816 0.0
C1130 C 0.9025 0.25324 0.40854 0.0
C1131 C 0.94731 0.28277 0.39599 0.0
C1132 C 0.91614 0.28098 0.39669 0.0
C1133 C 0.94988 0.23009 0.4186 0.0
C1134 C 0.96422 0.25723 0.40707 0.0
O1135 O 0.90441 0.10719 0.38776 0.0
O1136 O 0.88805 0.13586 0.46861 0.0
O1137 O 0.90788 0.19447 0.53079 0.0
O1138 O 0.86171 0.20218 0.50899 0.0
O1139 O 0.86309 0.14759 0.31711 0.0
O1140 O 0.85617 0.15296 0.41963 0.0
O1141 O 0.88668 0.20177 0.33884 0.0
O1142 O 0.92821 0.18288 0.29603 0.0
O1143 O 0.89649 0.15417 0.21905 0.0
O1144 O 0.92613 0.11605 0.2182 0.0
O1145 O 0.93626 0.16513 0.44943 0.0
O1146 O 0.95494 0.14728 0.35873 0.0
C1147 C 0.89578 0.1098 0.44452 0.0
C1148 C 0.84582 0.14669 0.36613 0.0
C1149 C 0.87133 0.17567 0.59811 0.0
C1150 C 0.88281 0.14583 0.68773 0.0
C1151 C 0.83888 0.13454 0.62735 0.0
C1152 C 0.84569 0.15808 0.5885 0.0
C1153 C 0.8577 0.12788 0.67556 0.0
C1154 C 0.8894 0.16985 0.64847 0.0
C1155 C 0.88084 0.19756 0.55192 0.0
C1156 C 0.89841 0.30599 0.38464 0.0
C1157 C 0.86726 0.30366 0.38416 0.0
H1158 H 0.95852 0.30376 0.38695 0.0
C1159 C 0.90764 0.20378 0.29632 0.0
C1160 C 0.95789 0.15337 0.41737 0.0
C1161 C 0.93078 0.1487 0.13761 0.0
C1162 C 0.9387 0.14726 0.02837 0.0
C1163 C 0.97938 0.16083 0.09684 0.0
C1164 C 0.96063 0.15672 0.14676 0.0
C1165 C 0.96886 0.15531 0.03817 0.0
C1166 C 0.91962 0.14609 0.07919 0.0
C1167 C 0.91272 0.13622 0.18639 0.0
H1168 H 0.8195 0.12075 0.61881 0.0
H1169 H 0.83125 0.16184 0.54992 0.0
H1170 H 0.85235 0.10864 0.70331 0.0
H1171 H 0.90844 0.1842 0.65668 0.0
H1172 H 1.00254 0.16679 0.10375 0.0
H1173 H 0.96958 0.15867 0.19224 0.0
H1174 H 0.98492 0.1567 1.00168 0.0
H1175 H 0.89605 0.14153 0.07495 0.0
C1176 C 0.25381 0.13574 0.6217 0.0
C1177 C 0.28645 0.09395 0.64457 0.0
C1178 C 0.25801 0.10488 0.62957 0.0
C1179 C 0.30967 0.11405 0.65595 0.0
C1180 C 0.27786 0.1557 0.6294 0.0
C1181 C 0.30561 0.14473 0.64798 0.0
N1182 N 0.22646 0.14613 0.60513 0.0
C1183 C 0.22229 0.17553 0.59122 0.0
C1184 C 0.27338 0.18611 0.6178 0.0
C1185 C 0.24557 0.19599 0.5978 0.0
Gd1186 Gd 0.13323 0.10386 0.73605 0.0
Gd1187 Gd 0.18966 0.10938 0.59886 0.0
N1188 N 0.23478 0.08562 0.6206 0.0
C1189 C 0.29102 0.06307 0.6463 0.0
C1190 C 0.2395 0.05549 0.61912 0.0
C1191 C 0.26757 0.04381 0.6327 0.0
H1192 H 0.22217 0.04014 0.60602 0.0
H1193 H 0.27121 0.01993 0.63179 0.0
H1194 H 0.10193 0.17173 0.7392 0.0
H1195 H 0.20137 0.18324 0.57334 0.0
H1196 H 0.05139 0.19361 0.73447 0.0
H1197 H 0.31285 0.05386 0.65552 0.0
H1198 H 0.33091 0.10588 0.6705 0.0
H1199 H 0.12413 0.03194 0.7742 0.0
H1200 H 0.29142 0.20203 0.62286 0.0
H1201 H 0.24211 0.21932 0.587 0.0
H1202 H 0.9862 0.1084 0.73542 0.0
H1203 H 0.32417 0.15975 0.65566 0.0
H1204 H 0.03051 0.01274 0.77201 0.0
H1205 H 0.08244 0.99612 0.78761 0.0
N1206 N 0.09579 0.06784 0.74879 0.0
C1207 C 0.06731 0.07783 0.7427 0.0
C1208 C 0.1014 0.03924 0.76707 0.0
C1209 C 0.04859 0.02839 0.76495 0.0
C1210 C 0.07792 0.01897 0.77451 0.0
C1211 C 0.0429 0.05824 0.74984 0.0
H1212 H 0.99464 0.05461 0.74968 0.0
N1213 N 0.08642 0.12699 0.73686 0.0
C1214 C 0.06246 0.10836 0.73674 0.0
C1215 C 0.0293 0.15084 0.73302 0.0
C1216 C 0.03319 0.11982 0.73506 0.0
C1217 C 0.08278 0.15723 0.73747 0.0
C1218 C 0.05419 0.16962 0.735 0.0
O1219 O 0.20571 0.12257 0.69505 0.0
O1220 O 0.18122 0.08728 0.74746 0.0
O1221 O 0.12545 0.12741 0.82092 0.0
O1222 O 0.14395 0.08279 0.8222 0.0
O1223 O 0.17725 0.06282 0.62992 0.0
O1224 O 0.13022 0.06484 0.67025 0.0
O1225 O 0.10868 0.11845 0.65054 0.0
O1226 O 0.14093 0.11287 0.56836 0.0
O1227 O 0.17976 0.08941 0.5104 0.0
O1228 O 0.21697 0.11915 0.52007 0.0
O1229 O 0.15407 0.14957 0.71503 0.0
O1230 O 0.16255 0.15107 0.6116 0.0
C1231 C 0.20382 0.10591 0.74433 0.0
C1232 C 0.15019 0.05182 0.6353 0.0
C1233 C 0.11377 0.09636 0.90521 0.0
C1234 C 0.10674 0.08475 1.01245 0.0
C1235 C 0.06463 0.0831 0.9437 0.0
C1236 C 0.08312 0.09203 0.89604 0.0
C1237 C 0.07631 0.0796 1.00179 0.0
C1238 C 0.12562 0.09254 0.96373 0.0
C1239 C 0.13356 0.10479 0.85446 0.0
C1240 C 0.00886 0.10008 0.7374 0.0
C1241 C 0.01368 0.06939 0.7452 0.0
H1242 H 1.00721 0.16054 0.73084 0.0
C1243 C 0.11395 0.11705 0.59151 0.0
C1244 C 0.15527 0.1643 0.66272 0.0
C1245 C 0.18818 0.12502 0.432 0.0
C1246 C 0.15981 0.13144 0.33854 0.0
C1247 C 0.18347 0.17421 0.38582 0.0
C1248 C 0.19423 0.15591 0.43186 0.0
C1249 C 0.16644 0.16211 0.33937 0.0
C1250 C 0.17101 0.11279 0.38472 0.0
C1251 C 0.19919 0.10611 0.48232 0.0
H1252 H 0.04104 0.07965 0.93588 0.0
H1253 H 0.07326 0.09607 0.8526 0.0
H1254 H 0.06147 0.07367 0.03887 0.0
H1255 H 0.14912 0.09677 0.97178 0.0
H1256 H 0.1884 0.19787 0.38609 0.0
H1257 H 0.20739 0.16616 0.46723 0.0
H1258 H 0.15867 0.17678 0.30352 0.0
H1259 H 0.166 0.0891 0.38438 0.0
C1260 C 0.07848 0.94844 0.29496 0.0
C1261 C 0.12023 0.98286 0.28506 0.0
C1262 C 0.10891 0.95351 0.28763 0.0
C1263 C 0.10063 1.00706 0.29133 0.0
C1264 C 0.0586 0.9727 0.29737 0.0
C1265 C 0.06991 1.002 0.29745 0.0
N1266 N 0.06807 0.91992 0.2922 0.0
C1267 C 0.03825 0.91436 0.28485 0.0
C1268 C 0.02794 0.96679 0.29621 0.0
C1269 C 0.01769 0.93763 0.28854 0.0
Gd1270 Gd 0.11623 0.83033 0.43122 0.0
Gd1271 Gd 0.1049 0.88276 0.29042 0.0
N1272 N 0.12726 0.92971 0.27999 0.0
C1273 C 0.15082 0.987 0.27473 0.0
C1274 C 0.15695 0.93353 0.26809 0.0
C1275 C 0.16922 0.96222 0.26582 0.0
H1276 H 0.1712 0.91438 0.26143 0.0
H1277 H 0.19283 0.96521 0.25723 0.0
H1278 H 0.04848 0.80192 0.47121 0.0
H1279 H 0.03041 0.89171 0.27879 0.0
H1280 H 0.03065 0.75711 0.52372 0.0
H1281 H 0.16034 0.00923 0.27248 0.0
H1282 H 0.1089 0.0298 0.28973 0.0
H1283 H 0.18463 0.81171 0.36734 0.0
H1284 H 0.01199 0.98461 0.29872 0.0
H1285 H 0.99402 0.93311 0.28529 0.0
H1286 H 0.11929 0.70027 0.55468 0.0
H1287 H 0.05513 0.02098 0.30015 0.0
H1288 H 0.20907 0.73068 0.4546 0.0
H1289 H 0.22187 0.77345 0.38823 0.0
N1290 N 0.14983 0.79058 0.41769 0.0
C1291 C 0.1415 0.76562 0.44858 0.0
C1292 C 0.17807 0.79302 0.3944 0.0
C1293 C 0.1921 0.74695 0.4432 0.0
C1294 C 0.19945 0.77111 0.4061 0.0
C1295 C 0.16289 0.74403 0.46501 0.0
H1296 H 0.17153 0.70563 0.52167 0.0
N1297 N 0.09244 0.78551 0.45687 0.0
C1298 C 0.11205 0.76304 0.46866 0.0
C1299 C 0.07374 0.73597 0.52339 0.0
C1300 C 0.10349 0.73844 0.5047 0.0
C1301 C 0.06355 0.78357 0.47635 0.0
C1302 C 0.05355 0.7584 0.50812 0.0
O1303 O 0.12733 0.9076 0.3666 0.0
O1304 O 0.1137 0.88114 0.45285 0.0
O1305 O 0.10031 0.83615 0.5251 0.0
O1306 O 0.1446 0.8196 0.50612 0.0
O1307 O 0.1518 0.86288 0.30409 0.0
O1308 O 0.15596 0.85763 0.4076 0.0
O1309 O 0.12208 0.80641 0.33755 0.0
O1310 O 0.08881 0.83458 0.28741 0.0
O1311 O 0.12339 0.88826 0.19943 0.0
O1312 O 0.07803 0.87277 0.2113 0.0
O1313 O 0.06775 0.83931 0.40683 0.0
O1314 O 0.07011 0.88614 0.36619 0.0
C1315 C 0.12292 0.90603 0.42555 0.0
C1316 C 0.16771 0.86407 0.35479 0.0
C1317 C 0.13969 0.84677 0.59622 0.0
C1318 C 0.13594 0.87634 0.68878 0.0
C1319 C 0.18464 0.86361 0.64778 0.0
C1320 C 0.17107 0.84856 0.6002 0.0
C1321 C 0.16727 0.87733 0.69187 0.0
C1322 C 0.1221 0.86057 0.64127 0.0
C1323 C 0.12612 0.82845 0.54776 0.0
C1324 C 0.1252 0.7181 0.52409 0.0
C1325 C 0.15486 0.72107 0.505 0.0
H1326 H 0.06632 0.71724 0.55082 0.0
C1327 C 0.10691 0.81155 0.28705 0.0
C1328 C 0.05653 0.86625 0.40061 0.0
C1329 C 0.08815 0.90154 0.12417 0.0
C1330 C 0.07929 0.91109 1.01696 0.0
C1331 C 0.06606 0.94844 0.09149 0.0
C1332 C 0.07643 0.92979 0.13748 0.0
C1333 C 0.06757 0.93922 0.03131 0.0
C1334 C 0.08939 0.89213 0.06357 0.0
C1335 C 0.09838 0.88147 0.1728 0.0
H1336 H 0.20873 0.8644 0.65082 0.0
H1337 H 0.18542 0.83785 0.56712 0.0
H1338 H 0.17842 0.88843 0.72918 0.0
H1339 H 0.09797 0.85905 0.63952 0.0
H1340 H 0.05698 0.97014 0.10254 0.0
H1341 H 0.07518 0.93762 0.18305 0.0
H1342 H 0.05962 0.95402 0.99588 0.0
H1343 H 0.09865 0.87043 0.05264 0.0
H1344 H 0.42119 0.95692 0.31771 0.0
H1345 H 0.33975 0.91046 0.27365 0.0
H1346 H 0.32509 0.95102 0.20589 0.0
H1347 H 0.33409 1.00131 0.16131 0.0
H1348 H 0.41616 0.0469 0.20203 0.0
H1349 H 0.43189 1.00548 0.26715 0.0
C1350 C 0.40026 0.95563 0.2932 0.0
C1351 C 0.38161 0.93045 0.30147 0.0
C1352 C 0.39214 0.97896 0.25262 0.0
C1353 C 0.35468 0.92933 0.26858 0.0
C1354 C 0.34622 0.95263 0.2295 0.0
C1355 C 0.35582 1.00167 0.18282 0.0
C1356 C 0.37432 0.02688 0.17498 0.0
C1357 C 0.36468 0.97765 0.22102 0.0
C1358 C 0.40188 0.02744 0.20557 0.0
C1359 C 0.41075 1.00385 0.24357 0.0
H1360 H 0.9602 0.60348 0.69151 0.0
H1361 H 0.9016 0.65625 0.80331 0.0
H1362 H 0.9428 0.66704 0.87267 0.0
H1363 H 0.99749 0.66439 0.89835 0.0
H1364 H 0.05499 0.61262 0.78172 0.0
H1365 H 0.01295 0.59935 0.71794 0.0
C1366 C 0.9563 0.61758 0.73061 0.0
C1367 C 0.92749 0.6292 0.74114 0.0
C1368 C 0.98036 0.62415 0.76993 0.0
C1369 C 0.92328 0.6469 0.7934 0.0
C1370 C 0.94703 0.6532 0.83327 0.0
C1371 C 1.00061 0.64968 0.85987 0.0
C1372 C 0.02965 0.63949 0.84547 0.0
C1373 C 0.97594 0.64225 0.82183 0.0
C1374 C 0.0331 0.62083 0.79439 0.0
C1375 C 0.00898 0.61323 0.75742 0.0
H1376 H 0.68284 0.01076 0.17103 0.0
H1377 H 0.59773 0.96898 0.20398 0.0
H1378 H 0.58128 0.01246 0.26218 0.0
H1379 H 0.5924 0.06109 0.31138 0.0
H1380 H 0.67639 0.10437 0.27456 0.0
H1381 H 0.69206 0.06195 0.2119 0.0
C1382 C 0.66038 0.0116 0.18932 0.0
C1383 C 0.64127 0.98676 0.18141 0.0
C1384 C 0.65108 0.03686 0.22365 0.0
C1385 C 0.61262 0.98797 0.20765 0.0
C1386 C 0.60331 0.01277 0.24174 0.0
C1387 C 0.61401 0.06138 0.28903 0.0
C1388 C 0.63321 0.08606 0.29798 0.0
C1389 C 0.62254 0.03713 0.25129 0.0
C1390 C 0.66107 0.08593 0.26837 0.0
C1391 C 0.67006 0.06155 0.23246 0.0
H1392 H 0.99936 0.33454 0.84197 0.0
H1393 H 0.97814 0.42765 0.86636 0.0
H1394 H 0.02185 0.44179 0.80609 0.0
H1395 H 0.06658 0.42797 0.74505 0.0
H1396 H 0.08971 0.33511 0.72701 0.0
H1397 H 0.04519 0.32082 0.78499 0.0
C1398 C 1.00433 0.35796 0.83445 0.0
C1399 C 0.98513 0.37991 0.85915 0.0
C1400 C 0.03004 0.36608 0.80027 0.0
C1401 C 0.9923 0.41012 0.84856 0.0
C1402 C 0.01737 0.4183 0.8137 0.0
C1403 C 0.06189 0.40461 0.75401 0.0
C1404 C 0.08174 0.38266 0.73185 0.0
C1405 C 0.03645 0.39652 0.7891 0.0
C1406 C 0.07514 0.35251 0.74388 0.0
C1407 C 0.04955 0.34431 0.77705 0.0
H1408 H 0.33044 0.50587 0.08224 0.0
H1409 H 0.42038 0.47178 0.08799 0.0
H1410 H 0.43786 0.51391 0.02733 0.0
H1411 H 0.42807 0.56126 0.97194 0.0
H1412 H 0.33873 0.59668 0.97092 0.0
H1413 H 0.3207 0.55331 0.02772 0.0
C1414 C 0.35375 0.50737 0.06953 0.0
C1415 C 0.3738 0.48517 0.08951 0.0
C1416 C 0.36394 0.53211 0.03474 0.0
C1417 C 0.40421 0.48832 0.07371 0.0
C1418 C 0.41434 0.51248 0.03858 0.0
C1419 C 0.40467 0.55942 0.98415 0.0
C1420 C 0.38488 0.58246 0.96744 0.0
C1421 C 0.39447 0.53461 0.01871 0.0
C1422 C 0.3546 0.57961 0.9838 0.0
C1423 C 0.34421 0.55469 1.01632 0.0
H1424 H 0.59507 0.62352 0.98076 0.0
H1425 H 0.55444 0.63259 0.15648 0.0
H1426 H 0.50614 0.64173 0.11086 0.0
H1427 H 0.47487 0.64765 0.02094 0.0
H1428 H 0.51473 0.64397 0.84261 0.0
H1429 H 0.56318 0.63222 0.88818 0.0
C1430 C 0.57556 0.6273 1.00895 0.0
C1431 C 0.57831 0.62555 0.07312 0.0
C1432 C 0.54746 0.6336 0.98131 0.0
C1433 C 0.55281 0.63144 0.10812 0.0
C1434 C 0.52513 0.63743 0.08154 0.0
C1435 C 0.49401 0.64438 0.99147 0.0
C1436 C 0.49041 0.64607 0.92764 0.0
C1437 C 0.52206 0.63838 0.01819 0.0
C1438 C 0.51606 0.64188 0.8914 0.0
C1439 C 0.54407 0.63547 0.91773 0.0
H1440 H 0.62893 0.53831 0.02999 0.0
H1441 H 0.67673 0.4987 0.179 0.0
H1442 H 0.66968 0.4488 0.13415 0.0
H1443 H 0.65047 0.41605 0.04885 0.0
H1444 H 0.59777 0.45844 0.90891 0.0
H1445 H 0.60656 0.50658 0.95285 0.0
C1446 C 0.63798 0.5188 0.05273 0.0
C1447 C 0.65381 0.52252 0.10739 0.0
C1448 C 0.63314 0.49022 0.02756 0.0
C1449 C 0.66462 0.4967 0.13669 0.0
C1450 C 0.66058 0.46808 0.11087 0.0
C1451 C 0.64082 0.43576 0.02815 0.0
C1452 C 0.62439 0.43292 0.97329 0.0
C1453 C 0.64494 0.46441 0.05577 0.0
C1454 C 0.61167 0.45919 0.94883 0.0
C1455 C 0.61636 0.48719 0.97458 0.0
H1456 H 0.45488 0.36682 0.11635 0.0
H1457 H 0.40735 0.41286 0.97419 0.0
H1458 H 0.45059 0.40751 0.90642 0.0
H1459 H 0.50271 0.38966 0.8878 0.0
H1460 H 0.54661 0.33928 0.02886 0.0
H1461 H 0.50467 0.34704 0.09638 0.0
C1462 C 0.45383 0.3758 0.07062 0.0
C1463 C 0.42771 0.39046 0.05098 0.0
C1464 C 0.47854 0.37209 0.03145 0.0
C1465 C 0.427 0.4015 0.99097 0.0
C1466 C 0.45186 0.39849 0.95208 0.0
C1467 C 0.50321 0.38042 0.93316 0.0
C1468 C 0.52859 0.36427 0.95282 0.0
C1469 C 0.47792 0.38384 0.9718 0.0
C1470 C 0.52804 0.3521 1.01191 0.0
C1471 C 0.50378 0.3564 0.05093 0.0
H1472 H 0.90332 0.42505 0.74528 0.0
H1473 H 0.84568 0.45227 0.89253 0.0
H1474 H 0.83491 0.4987 0.84082 0.0
H1475 H 0.84144 0.53214 0.75512 0.0
H1476 H 0.89634 0.50586 0.6032 0.0
H1477 H 0.90766 0.45865 0.65416 0.0
C1478 C 0.88825 0.44104 0.76585 0.0
C1479 C 0.87604 0.43511 0.82414 0.0
C1480 C 0.88129 0.46797 0.73454 0.0
C1481 C 0.85634 0.45625 0.84921 0.0
C1482 C 0.8498 0.48289 0.81913 0.0
C1483 C 0.8558 0.51623 0.73232 0.0
C1484 C 0.8682 0.5233 0.67484 0.0
C1485 C 0.86219 0.48908 0.76198 0.0
C1486 C 0.8866 0.50173 0.64722 0.0
C1487 C 0.89312 0.4745 0.67662 0.0
H1488 H 0.51692 0.18497 0.3216 0.0
H1489 H 0.53677 0.09206 0.35482 0.0
H1490 H 0.49214 0.0773 0.30002 0.0
H1491 H 0.44693 0.09018 0.24192 0.0
H1492 H 0.42458 0.18256 0.21356 0.0
H1493 H 0.47047 0.19792 0.26546 0.0
C1494 C 0.51148 0.16152 0.31702 0.0
C1495 C 0.53046 0.13982 0.34311 0.0
C1496 C 0.48516 0.15294 0.28571 0.0
C1497 C 0.52275 0.10948 0.33614 0.0
C1498 C 0.49714 0.10088 0.30438 0.0
C1499 C 0.45202 0.11367 0.24754 0.0
C1500 C 0.43206 0.13519 0.22465 0.0
C1501 C 0.4781 0.12234 0.279 0.0
C1502 C 0.43916 0.16555 0.23192 0.0
C1503 C 0.46555 0.17433 0.26135 0.0
H1504 H 0.15774 0.58864 0.74952 0.0
H1505 H 0.08109 0.55641 0.84828 0.0
H1506 H 0.08603 0.5078 0.80093 0.0
H1507 H 0.11261 0.47348 0.73214 0.0
H1508 H 0.1837 0.50705 0.61914 0.0
H1509 H 0.17969 0.55613 0.66822 0.0
C1510 C 0.1417 0.57129 0.75954 0.0
C1511 C 0.11971 0.57627 0.80468 0.0
C1512 C 0.14344 0.54355 0.72853 0.0
C1513 C 0.09924 0.55311 0.81672 0.0
C1514 C 0.1017 0.52526 0.7886 0.0
C1515 C 0.12693 0.49172 0.71766 0.0
C1516 C 0.14857 0.48658 0.6723 0.0
C1517 C 0.12387 0.52007 0.74486 0.0
C1518 C 0.1668 0.51046 0.6537 0.0
C1519 C 0.16457 0.53851 0.68211 0.0
H1520 H 0.55574 0.90721 0.18738 0.0
H1521 H 0.61418 0.86461 0.31623 0.0
H1522 H 0.57151 0.85489 0.38371 0.0
H1523 H 0.51585 0.85593 0.40419 0.0
H1524 H 0.45944 0.89942 0.27224 0.0
H1525 H 0.50239 0.91071 0.20912 0.0
C1526 C 0.55941 0.89575 0.23008 0.0
C1527 C 0.58859 0.88645 0.24555 0.0
C1528 C 0.53465 0.89013 0.26884 0.0
C1529 C 0.59222 0.87184 0.30199 0.0
C1530 C 0.56765 0.8663 0.34099 0.0
C1531 C 0.51307 0.86848 0.36244 0.0
C1532 C 0.48389 0.87671 0.34374 0.0
C1533 C 0.53849 0.87507 0.32488 0.0
C1534 C 0.48122 0.89261 0.28849 0.0
C1535 C 0.50593 0.89911 0.2518 0.0
H1536 H 0.89269 0.97539 0.53788 0.0
H1537 H 0.84329 0.01343 0.68666 0.0
H1538 H 0.84887 0.06341 0.64118 0.0
H1539 H 0.86668 0.09644 0.55481 0.0
H1540 H 0.92156 0.05679 0.41623 0.0
H1541 H 0.91443 0.008 0.46028 0.0
C1542 C 0.88326 0.99464 0.56077 0.0
C1543 C 0.86733 0.99046 0.61548 0.0
C1544 C 0.8872 0.02331 0.53517 0.0
C1545 C 0.85572 0.01585 0.64466 0.0
C1546 C 0.85887 0.04452 0.61842 0.0
C1547 C 0.87725 0.07724 0.53483 0.0
C1548 C 0.89342 0.08077 0.47981 0.0
C1549 C 0.8744 0.04863 0.56313 0.0
C1550 C 0.90743 0.05519 0.45574 0.0
C1551 C 0.90385 0.02699 0.48185 0.0
H1552 H 0.05926 0.14063 0.61707 0.0
H1553 H 0.11067 0.10614 0.46759 0.0
H1554 H 0.06818 0.11407 0.39907 0.0
H1555 H 0.01486 0.13058 0.38199 0.0
H1556 H 0.96639 0.16554 0.53681 0.0
H1557 H 0.00865 0.15764 0.60085 0.0
C1558 C 0.06132 0.13462 0.56975 0.0
C1559 C 0.08834 0.1225 0.54844 0.0
C1560 C 0.03688 0.13941 0.53056 0.0
C1561 C 0.0903 0.11549 0.486 0.0
C1562 C 0.06584 0.12 0.44655 0.0
C1563 C 0.01347 0.13649 0.42954 0.0
C1564 C 0.98654 0.14864 0.45303 0.0
C1565 C 0.03872 0.13192 0.46824 0.0
C1566 C 0.98606 0.15616 0.51557 0.0
C1567 C 0.01053 0.15162 0.5533 0.0
H1568 H 0.09698 0.93011 0.52864 0.0
H1569 H 0.17034 0.94217 0.40384 0.0
H1570 H 0.18608 0.9869 0.45805 0.0
H1571 H 0.17877 0.02374 0.54016 0.0
H1572 H 0.10205 0.01509 0.65723 0.0
H1573 H 0.08845 0.96844 0.60846 0.0
C1574 C 0.11658 0.94237 0.51381 0.0
C1575 C 0.13252 0.93247 0.46229 0.0
C1576 C 0.12518 0.96889 0.54446 0.0
C1577 C 0.15754 0.94914 0.44313 0.0
C1578 C 0.16666 0.97482 0.47429 0.0
C1579 C 0.15929 0.01151 0.55567 0.0
C1580 C 0.14226 0.02278 0.60466 0.0
C1581 C 0.15063 0.98507 0.52497 0.0
C1582 C 0.11643 1.00683 0.62184 0.0
C1583 C 0.10834 0.98006 0.59319 0.0
H1584 H 0.01082 0.83246 0.45228 0.0
H1585 H 0.04123 0.92326 0.43241 0.0
H1586 H 0.99952 0.94065 0.49457 0.0
H1587 H 0.95354 0.93032 0.55589 0.0
H1588 H 0.92331 0.83939 0.57344 0.0
H1589 H 0.96604 0.82199 0.5144 0.0
C1590 C 0.00893 0.85594 0.46263 0.0
C1591 C 0.02995 0.87621 0.43801 0.0
C1592 C 0.98468 0.86595 0.499 0.0
C1593 C 0.02572 0.90685 0.45026 0.0
C1594 C 1.0018 0.91693 0.48636 0.0
C1595 C 0.95646 0.9067 0.54705 0.0
C1596 C 0.93489 0.88625 0.56902 0.0
C1597 C 0.98105 0.89673 0.51128 0.0
C1598 C 0.93914 0.85573 0.55664 0.0
C1599 C 0.96371 0.8457 0.52274 0.0
H1600 H 0.37447 0.20809 0.20409 0.0
H1601 H 0.36296 0.20985 1.00936 0.0
H1602 H 0.36395 0.2648 1.01174 0.0
H1603 H 0.36479 0.31159 0.0705 0.0
H1604 H 0.37101 0.30874 0.26618 0.0
H1605 H 0.37551 0.25431 0.26203 0.0
C1606 C 0.37201 0.22028 0.16178 0.0
C1607 C 0.36808 0.20465 0.10647 0.0
C1608 C 0.37158 0.25154 0.16398 0.0
C1609 C 0.36591 0.22113 0.05239 0.0
C1610 C 0.3663 0.25253 0.05396 0.0
C1611 C 0.36695 0.29921 0.11247 0.0
C1612 C 0.36727 0.31451 0.16885 0.0
C1613 C 0.36851 0.26788 0.10972 0.0
C1614 C 0.37073 0.29781 0.22235 0.0
C1615 C 0.37318 0.26666 0.2199 0.0
H1616 H 0.30965 0.64653 0.95544 0.0
H1617 H 0.30773 0.63815 0.75973 0.0
H1618 H 0.25345 0.63048 0.76478 0.0
H1619 H 0.20706 0.62907 0.82408 0.0
H1620 H 0.2087 0.6456 1.01742 0.0
H1621 H 0.26348 0.64637 1.01405 0.0
C1622 C 0.29767 0.64318 0.91328 0.0
C1623 C 0.31314 0.64309 0.85682 0.0
C1624 C 0.26657 0.64004 0.91647 0.0
C1625 C 0.29671 0.63833 0.80358 0.0
C1626 C 0.26566 0.63398 0.80661 0.0
C1627 C 0.21922 0.63283 0.86588 0.0
C1628 C 0.20353 0.63763 0.92118 0.0
C1629 C 0.25043 0.63518 0.86276 0.0
C1630 C 0.21997 0.64185 0.97453 0.0
C1631 C 0.25127 0.64258 0.97233 0.0
H1632 H 0.69124 0.79672 0.16234 0.0
H1633 H 0.60066 0.80989 0.10535 0.0
H1634 H 0.59026 0.75704 0.1239 0.0
H1635 H 0.60764 0.70672 0.15753 0.0
H1636 H 0.69503 0.69783 0.2365 0.0
H1637 H 0.70526 0.75054 0.2153 0.0
C1638 C 0.66883 0.78884 0.15715 0.0
C1639 C 0.64695 0.80796 0.13272 0.0
C1640 C 0.66222 0.75928 0.17421 0.0
C1641 C 0.61849 0.79591 0.12159 0.0
C1642 C 0.61229 0.7657 0.1339 0.0
C1643 C 0.6284 0.71672 0.17252 0.0
C1644 C 0.65042 0.6985 0.19957 0.0
C1645 C 0.63397 0.74722 0.16075 0.0
C1646 C 0.67743 0.71153 0.21764 0.0
C1647 C 0.68351 0.74152 0.20413 0.0
H1648 H 0.80025 0.3243 0.87281 0.0
H1649 H 0.8053 0.40692 0.97182 0.0
H1650 H 0.7526 0.41612 0.95193 0.0
H1651 H 0.70468 0.40041 0.90652 0.0
H1652 H 0.70118 0.32096 0.79711 0.0
H1653 H 0.75425 0.31176 0.81689 0.0
C1654 C 0.79025 0.34481 0.88832 0.0
C1655 C 0.80733 0.36506 0.92297 0.0
C1656 C 0.7603 0.35089 0.87332 0.0
C1657 C 0.79306 0.39067 0.94574 0.0
C1658 C 0.76288 0.3962 0.93351 0.0
C1659 C 0.71591 0.38171 0.88513 0.0
C1660 C 0.69925 0.36173 0.84924 0.0
C1661 C 0.74636 0.37661 0.89689 0.0
C1662 C 0.71376 0.33719 0.82297 0.0
C1663 C 0.74396 0.33165 0.83539 0.0
H1664 H 0.86827 0.70631 0.71778 0.0
H1665 H 0.87058 0.7104 0.52153 0.0
H1666 H 0.87583 0.76475 0.52674 0.0
H1667 H 0.8761 0.81042 0.58572 0.0
H1668 H 0.86622 0.80771 0.78107 0.0
H1669 H 0.86738 0.75281 0.7774 0.0
C1670 C 0.86946 0.71897 0.67578 0.0
C1671 C 0.86843 0.70408 0.61893 0.0
C1672 C 0.87103 0.75027 0.67916 0.0
C1673 C 0.87111 0.72107 0.56562 0.0
C1674 C 0.87403 0.75215 0.56871 0.0
C1675 C 0.87428 0.79812 0.62806 0.0
C1676 C 0.87083 0.8135 0.6839 0.0
C1677 C 0.87347 0.76691 0.62513 0.0
C1678 C 0.86886 0.7967 0.73764 0.0
C1679 C 0.86935 0.76531 0.73536 0.0
H1680 H 0.80819 0.13885 0.46131 0.0
H1681 H 0.80868 0.1454 0.26547 0.0
H1682 H 0.75386 0.14413 0.26569 0.0
H1683 H 0.70631 0.1446 0.32222 0.0
H1684 H 0.70693 0.1455 0.51851 0.0
H1685 H 0.7613 0.14042 0.51736 0.0
C1686 C 0.79653 0.14006 0.41832 0.0
C1687 C 0.8128 0.14247 0.36327 0.0
C1688 C 0.76526 0.14091 0.41912 0.0
C1689 C 0.79694 0.14347 0.30838 0.0
C1690 C 0.76558 0.14297 0.30864 0.0
C1691 C 0.71823 0.14396 0.36497 0.0
C1692 C 0.70236 0.14592 0.42058 0.0
C1693 C 0.74957 0.14232 0.36386 0.0
C1694 C 0.71838 0.1442 0.47519 0.0
C1695 C 0.74949 0.14137 0.47448 0.0
H1696 H 0.13931 0.30306 0.70151 0.0
H1697 H 0.15008 0.30446 0.50655 0.0
H1698 H 0.15107 0.24948 0.5062 0.0
H1699 H 0.15178 0.20133 0.56273 0.0
H1700 H 0.14809 0.20227 0.75901 0.0
H1701 H 0.1416 0.25629 0.75721 0.0
C1702 C 0.14202 0.29159 0.65851 0.0
C1703 C 0.1451 0.3082 0.60399 0.0
C1704 C 0.14409 0.26034 0.65917 0.0
C1705 C 0.14779 0.29249 0.54912 0.0
C1706 C 0.14857 0.26103 0.54911 0.0
C1707 C 0.14989 0.2133 0.60531 0.0
C1708 C 0.15069 0.19741 0.66117 0.0
C1709 C 0.14733 0.24474 0.60408 0.0
C1710 C 0.14755 0.21356 0.71544 0.0
C1711 C 0.14389 0.24455 0.71444 0.0
H1712 H 0.3076 0.87055 0.32521 0.0
H1713 H 0.30264 0.87785 0.52061 0.0
H1714 H 0.24793 0.88046 0.51406 0.0
H1715 H 0.20205 0.87596 0.45358 0.0
H1716 H 0.20748 0.86516 0.25879 0.0
H1717 H 0.26204 0.86863 0.26452 0.0
C1718 C 0.29472 0.87279 0.36673 0.0
C1719 C 0.30939 0.87345 0.42371 0.0
C1720 C 0.26347 0.8734 0.36256 0.0
C1721 C 0.29211 0.87713 0.4764 0.0
C1722 C 0.26083 0.87843 0.47254 0.0
C1723 C 0.21503 0.8745 0.41201 0.0
C1724 C 0.20051 0.86994 0.35553 0.0
C1725 C 0.24632 0.87582 0.41597 0.0
C1726 C 0.21789 0.86863 0.30257 0.0
C1727 C 0.24909 0.87047 0.30601 0.0
H1728 H 0.21543 0.06933 0.84657 0.0
H1729 H 0.24427 0.15134 0.76197 0.0
H1730 H 0.27974 0.15964 0.84445 0.0
H1731 H 0.30358 0.1441 0.94308 0.0
H1732 H 0.27963 0.059 0.01979 0.0
H1733 H 0.24181 0.05208 0.94104 0.0
C1734 C 0.22935 0.08912 0.84596 0.0
C1735 C 0.22627 0.10979 0.79687 0.0
C1736 C 0.25076 0.09359 0.89386 0.0
C1737 C 0.24539 0.13492 0.79809 0.0
C1738 C 0.26593 0.13979 0.8459 0.0
C1739 C 0.28985 0.12418 0.94316 0.0
C1740 C 0.29387 0.1028 0.9906 0.0
C1741 C 0.26889 0.11943 0.89455 0.0
C1742 C 0.27644 0.07664 0.98688 0.0
C1743 C 0.25489 0.07243 0.9407 0.0
H1744 H 0.0712 0.71336 0.08326 0.0
H1745 H 0.15684 0.7382 1.00967 0.0
H1746 H 0.16432 0.77286 0.09431 0.0
H1747 H 0.14687 0.79716 0.19182 0.0
H1748 H 0.06064 0.77305 0.26345 0.0
H1749 H 0.05362 0.73771 0.17979 0.0
C1750 C 0.09176 0.72592 0.08584 0.0
C1751 C 0.11355 0.72207 0.0388 0.0
C1752 C 0.09604 0.74632 0.13576 0.0
C1753 C 0.13948 0.73993 0.04382 0.0
C1754 C 0.14387 0.75996 0.09301 0.0
C1755 C 0.12665 0.78391 0.18977 0.0
C1756 C 0.1045 0.78796 0.23605 0.0
C1757 C 0.12244 0.76344 0.1398 0.0
C1758 C 0.07834 0.77066 0.23019 0.0
C1759 C 0.07427 0.75024 0.18168 0.0
H1760 H 0.70379 0.87264 0.93238 0.0
H1761 H 0.74872 0.93827 0.04125 0.0
H1762 H 0.78721 0.9439 0.96358 0.0
H1763 H 0.80865 0.93131 0.86187 0.0
H1764 H 0.76219 0.86812 0.74901 0.0
H1765 H 0.7242 0.86159 0.82798 0.0
C1766 C 0.72197 0.8882 0.93945 0.0
C1767 C 0.72344 0.90411 0.99562 0.0
C1768 C 0.74393 0.89233 0.89216 0.0
C1769 C 0.74724 0.92453 1.00134 0.0
C1770 C 0.76924 0.92817 0.95576 0.0
C1771 C 0.79023 0.91611 0.85407 0.0
C1772 C 0.78892 0.90036 0.79786 0.0
C1773 C 0.76801 0.91225 0.90069 0.0
C1774 C 0.76442 0.88079 0.7905 0.0
C1775 C 0.74245 0.87691 0.83635 0.0
H1776 H 0.87473 0.3078 0.10231 0.0
H1777 H 0.95153 0.27258 1.00923 0.0
H1778 H 0.958 0.23517 0.08981 0.0
H1779 H 0.94299 0.21276 0.19059 0.0
H1780 H 0.86522 0.24763 0.28121 0.0
H1781 H 0.85921 0.28486 0.20132 0.0
C1782 C 0.89297 0.29203 0.09936 0.0
C1783 C 0.91253 0.29347 0.04819 0.0
C1784 C 0.89691 0.27049 0.14724 0.0
C1785 C 0.93587 0.27236 0.04671 0.0
C1786 C 0.93972 0.25087 0.09355 0.0
C1787 C 0.92455 0.22826 0.19295 0.0
C1788 C 0.90483 0.22682 0.24407 0.0
C1789 C 0.92055 0.24968 0.14463 0.0
C1790 C 0.8813 0.24781 0.24454 0.0
C1791 C 0.87759 0.26925 0.19786 0.0
H1792 H 0.2627 0.37527 0.28406 0.0
H1793 H 0.31547 0.45132 0.33744 0.0
H1794 H 0.28685 0.45561 0.43112 0.0
H1795 H 0.24576 0.43873 0.50055 0.0
H1796 H 0.19263 0.36294 0.44898 0.0
H1797 H 0.2214 0.35816 0.35431 0.0
C1798 C 0.268 0.39288 0.31593 0.0
C1799 C 0.29208 0.41274 0.30206 0.0
C1800 C 0.25091 0.39549 0.37134 0.0
C1801 C 0.29787 0.43524 0.34544 0.0
C1802 C 0.28117 0.4379 0.39975 0.0
C1803 C 0.24054 0.42102 0.46885 0.0
C1804 C 0.21683 0.40102 0.48327 0.0
C1805 C 0.25758 0.41823 0.41367 0.0
C1806 C 0.21071 0.37848 0.44043 0.0
C1807 C 0.22726 0.3758 0.38567 0.0
H1808 H 0.44295 0.7405 0.72684 0.0
H1809 H 0.35235 0.70873 0.71889 0.0
H1810 H 0.34354 0.73928 0.62795 0.0
H1811 H 0.36097 0.77655 0.5496 0.0
H1812 H 0.45114 0.80936 0.55905 0.0
H1813 H 0.46017 0.7783 0.64925 0.0
C1814 C 0.42122 0.74023 0.70534 0.0
C1815 C 0.39835 0.72186 0.73098 0.0
C1816 C 0.41605 0.75862 0.6526 0.0
C1817 C 0.37039 0.7225 0.70167 0.0
C1818 C 0.36535 0.74008 0.64902 0.0
C1819 C 0.38274 0.77676 0.57096 0.0
C1820 C 0.40549 0.7954 0.54572 0.0
C1821 C 0.38788 0.75844 0.62381 0.0
C1822 C 0.4333 0.79515 0.57559 0.0
C1823 C 0.43845 0.7773 0.62786 0.0
H1824 H 0.73664 0.56488 0.30881 0.0
H1825 H 0.72318 0.65977 0.29621 0.0
H1826 H 0.75331 0.66709 0.38805 0.0
H1827 H 0.78427 0.64656 0.47475 0.0
H1828 H 0.8024 0.55217 0.47864 0.0
H1829 H 0.77062 0.54496 0.38966 0.0
C1830 C 0.74042 0.58726 0.32566 0.0
C1831 C 0.72714 0.61173 0.2941 0.0
C1832 C 0.75893 0.59148 0.37835 0.0
C1833 C 0.73292 0.6404 0.3179 0.0
C1834 C 0.75021 0.6446 0.37125 0.0
C1835 C 0.78117 0.62433 0.45654 0.0
C1836 C 0.79583 0.59983 0.48565 0.0
C1837 C 0.7634 0.62034 0.40246 0.0
C1838 C 0.79161 0.57152 0.45897 0.0
C1839 C 0.77327 0.56734 0.40739 0.0
H1840 H 0.57275 0.24396 0.54234 0.0
H1841 H 0.65333 0.19595 0.5832 0.0
H1842 H 0.65923 0.22471 0.67747 0.0
H1843 H 0.64151 0.26455 0.75037 0.0
H1844 H 0.56114 0.31273 0.70578 0.0
H1845 H 0.55569 0.28379 0.61324 0.0
C1846 C 0.59158 0.23967 0.5719 0.0
C1847 C 0.61244 0.21732 0.55494 0.0
C1848 C 0.5951 0.25681 0.62641 0.0
C1849 C 0.63682 0.21274 0.5943 0.0
C1850 C 0.64021 0.22933 0.64867 0.0
C1851 C 0.62274 0.26877 0.72061 0.0
C1852 C 0.60184 0.29148 0.7367 0.0
C1853 C 0.61951 0.25159 0.66567 0.0
C1854 C 0.57785 0.29598 0.6961 0.0
C1855 C 0.57457 0.27917 0.64244 0.0
H1856 H 0.36172 0.09202 0.49925 0.0
H1857 H 0.37559 0.18552 0.53724 0.0
H1858 H 0.39249 0.1732 0.63932 0.0
H1859 H 0.3914 0.13695 0.72342 0.0
H1860 H 0.37818 0.0436 0.68428 0.0
H1861 H 0.37456 0.05471 0.57609 0.0
C1862 C 0.36964 0.10971 0.52862 0.0
C1863 C 0.36617 0.13976 0.51128 0.0
C1864 C 0.3795 0.10248 0.58731 0.0
C1865 C 0.37679 0.16223 0.55032 0.0
C1866 C 0.38673 0.15522 0.60866 0.0
C1867 C 0.38925 0.11889 0.69099 0.0
C1868 C 0.38395 0.08964 0.71181 0.0
C1869 C 0.38643 0.12555 0.62881 0.0
C1870 C 0.38137 0.06643 0.66924 0.0
C1871 C 0.37917 0.07278 0.60736 0.0
H1872 H 0.15375 0.66053 0.49191 0.0
H1873 H 0.08457 0.60039 0.54971 0.0
H1874 H 0.06222 0.60231 0.44753 0.0
H1875 H 0.06168 0.6237 0.3433 0.0
H1876 H 0.12769 0.68924 0.29231 0.0
H1877 H 0.15112 0.68487 0.39229 0.0
C1878 C 0.1332 0.64881 0.48241 0.0
C1879 C 0.12004 0.63134 0.52779 0.0
C1880 C 0.11975 0.65172 0.42575 0.0
C1881 C 0.0945 0.61448 0.51506 0.0
C1882 C 0.0818 0.61572 0.45707 0.0
C1883 C 0.08096 0.63718 0.35487 0.0
C1884 C 0.09312 0.65684 0.3117 0.0
C1885 C 0.09396 0.63474 0.41245 0.0
C1886 C 0.11825 0.67405 0.32564 0.0
C1887 C 0.13159 0.67146 0.38239 0.0
H1888 H 0.62652 0.86424 0.55008 0.0
H1889 H 0.67151 0.94538 0.49423 0.0
H1890 H 0.65399 0.97021 0.58525 0.0
H1891 H 0.63313 0.96682 0.68785 0.0
H1892 H 0.59646 0.88328 0.75126 0.0
H1893 H 0.60549 0.86084 0.65176 0.0
C1894 C 0.63298 0.88723 0.55775 0.0
C1895 C 0.65086 0.90248 0.51507 0.0
C1896 C 0.6249 0.90082 0.61247 0.0
C1897 C 0.6575 0.93283 0.52518 0.0
C1898 C 0.64779 0.94711 0.57787 0.0
C1899 C 0.62643 0.94394 0.67924 0.0
C1900 C 0.61393 0.92675 0.72624 0.0
C1901 C 0.63242 0.93102 0.62271 0.0
C1902 C 0.60612 0.89687 0.71544 0.0
C1903 C 0.61117 0.88411 0.65866 0.0
H1904 H 0.87314 0.38152 0.31903 0.0
H1905 H 0.9678 0.38764 0.35288 0.0
H1906 H 0.95867 0.38664 0.46199 0.0
H1907 H 0.92559 0.36966 0.5425 0.0
H1908 H 0.83165 0.35802 0.50785 0.0
H1909 H 0.83833 0.37739 0.40461 0.0
C1910 C 0.89166 0.38418 0.35021 0.0
C1911 C 0.92118 0.38344 0.32834 0.0
C1912 C 0.88628 0.38242 0.41282 0.0
C1913 C 0.94496 0.38699 0.3691 0.0
C1914 C 0.93975 0.38645 0.4314 0.0
C1915 C 0.90636 0.37252 0.51319 0.0
C1916 C 0.87831 0.36186 0.53173 0.0
C1917 C 0.91074 0.38183 0.4533 0.0
C1918 C 0.85354 0.36562 0.49363 0.0
C1919 C 0.85741 0.37663 0.43476 0.0
H1920 H 0.38007 0.45647 0.60652 0.0
H1921 H 0.42101 0.37529 0.54269 0.0
H1922 H 0.41375 0.35215 0.64204 0.0
H1923 H 0.39617 0.35515 0.74291 0.0
H1924 H 0.34947 0.43442 0.80585 0.0
H1925 H 0.36015 0.45843 0.71108 0.0
C1926 C 0.38761 0.43384 0.61509 0.0
C1927 C 0.40128 0.41748 0.56856 0.0
C1928 C 0.38285 0.42052 0.67182 0.0
C1929 C 0.4105 0.38806 0.57861 0.0
C1930 C 0.40642 0.37496 0.63516 0.0
C1931 C 0.38742 0.37733 0.73776 0.0
C1932 C 0.37119 0.39173 0.78422 0.0
C1933 C 0.39246 0.39097 0.68184 0.0
C1934 C 0.36181 0.4215 0.77319 0.0
C1935 C 0.36789 0.43575 0.71805 0.0
H1936 H 0.44045 0.67491 0.28264 0.0
H1937 H 0.35629 0.63271 0.24371 0.0
H1938 H 0.36152 0.60059 0.33311 0.0
H1939 H 0.38648 0.59009 0.42991 0.0
H1940 H 0.4687 0.63498 0.47323 0.0
H1941 H 0.4688 0.65947 0.37346 0.0
C1942 C 0.42395 0.65784 0.29278 0.0
C1943 C 0.39817 0.6558 0.25722 0.0
C1944 C 0.42677 0.64011 0.3451 0.0
C1945 C 0.37641 0.63425 0.27078 0.0
C1946 C 0.37927 0.61614 0.32199 0.0
C1947 C 0.40461 0.60485 0.41673 0.0
C1948 C 0.42756 0.61084 0.45803 0.0
C1949 C 0.40375 0.61975 0.36075 0.0
C1950 C 0.45085 0.63023 0.44159 0.0
C1951 C 0.45083 0.64424 0.38485 0.0
H1952 H 0.61118 0.65793 0.73997 0.0
H1953 H 0.66533 0.58225 0.79379 0.0
H1954 H 0.65095 0.5563 0.70221 0.0
H1955 H 0.62702 0.55685 0.60136 0.0
H1956 H 0.58233 0.63651 0.54031 0.0
H1957 H 0.59149 0.66039 0.63843 0.0
C1958 C 0.62095 0.63626 0.73163 0.0
C1959 C 0.63974 0.6227 0.77469 0.0
C1960 C 0.61481 0.62234 0.67656 0.0
C1961 C 0.65032 0.59356 0.76309 0.0
C1962 C 0.64246 0.57862 0.70993 0.0
C1963 C 0.61904 0.57927 0.61038 0.0
C1964 C 0.60345 0.59492 0.56541 0.0
C1965 C 0.62521 0.59307 0.66586 0.0
C1966 C 0.59384 0.62417 0.57558 0.0
C1967 C 0.59909 0.63771 0.63129 0.0
H1968 H 0.55992 0.38565 0.4309 0.0
H1969 H 0.64445 0.42036 0.49129 0.0
H1970 H 0.66668 0.40969 0.39185 0.0
H1971 H 0.66179 0.39018 0.28993 0.0
H1972 H 0.58009 0.34504 0.23845 0.0
H1973 H 0.55619 0.36262 0.33016 0.0
C1974 C 0.58308 0.39117 0.42153 0.0
C1975 C 0.60062 0.40418 0.46682 0.0
C1976 C 0.59581 0.38401 0.36549 0.0
C1977 C 0.63075 0.41061 0.45602 0.0
C1978 C 0.64331 0.4046 0.39948 0.0
C1979 C 0.63903 0.38329 0.29879 0.0
C1980 C 0.62326 0.36587 0.25652 0.0
C1981 C 0.62606 0.3911 0.35414 0.0
C1982 C 0.59308 0.35887 0.26863 0.0
C1983 C 0.57931 0.36855 0.32185 0.0
H1984 H 0.85154 0.58122 1.00438 0.0
H1985 H 0.9144 0.65412 0.01839 0.0
H1986 H 0.92424 0.64089 0.12341 0.0
H1987 H 0.91083 0.61183 0.2152 0.0
H1988 H 0.84939 0.53786 0.19672 0.0
H1989 H 0.84737 0.54575 0.0889 0.0
C1990 C 0.86816 0.59384 0.02906 0.0
C1991 C 0.88039 0.62009 1.00382 0.0
C1992 C 0.87469 0.58556 0.08934 0.0
C1993 C 0.90252 0.63525 0.03748 0.0
C1994 C 0.90858 0.6275 0.09775 0.0
C1995 C 0.89647 0.59777 0.18793 0.0
C1996 C 0.88025 0.57431 0.2154 0.0
C1997 C 0.89357 0.60358 0.12518 0.0
C1998 C 0.86274 0.55581 0.17799 0.0
C1999 C 0.86098 0.56067 0.11572 0.0
H2000 H 0.55889 0.13161 0.84989 0.0
H2001 H 0.64296 0.09183 0.80014 0.0
H2002 H 0.66304 0.10279 0.90097 0.0
H2003 H 0.65624 0.12309 1.00153 0.0
H2004 H 0.5757 0.17246 0.04377 0.0
H2005 H 0.55353 0.15558 0.94983 0.0
C2006 C 0.58148 0.12519 0.86179 0.0
C2007 C 0.59947 0.1106 0.81913 0.0
C2008 C 0.59305 0.13238 0.91879 0.0
C2009 C 0.6289 0.10287 0.83331 0.0
C2010 C 0.64024 0.10902 0.89066 0.0
C2011 C 0.63423 0.13123 0.99006 0.0
C2012 C 0.61823 0.14961 0.03033 0.0
C2013 C 0.6225 0.12384 0.93354 0.0
C2014 C 0.58883 0.15798 1.01502 0.0
C2015 C 0.5761 0.14871 0.96054 0.0
H2016 H 0.15024 0.46446 0.17687 0.0
H2017 H 0.11723 0.38031 0.24794 0.0
H2018 H 0.10591 0.36385 0.1467 0.0
H2019 H 0.11256 0.36926 0.03917 0.0
H2020 H 0.15138 0.44977 0.96506 0.0
H2021 H 0.15473 0.47084 0.06676 0.0
C2022 C 0.14095 0.44235 0.17056 0.0
C2023 C 0.13471 0.42392 0.22093 0.0
C2024 C 0.13598 0.43199 0.1115 0.0
C2025 C 0.12176 0.39565 0.21104 0.0
C2026 C 0.11558 0.38584 0.15272 0.0
C2027 C 0.12052 0.39196 0.04433 0.0
C2028 C 0.13087 0.40815 0.99383 0.0
C2029 C 0.12338 0.40344 0.10276 0.0
C2030 C 0.14238 0.43707 1.00271 0.0
C2031 C 0.14469 0.44901 0.06102 0.0
H2032 H 0.44112 0.83708 1.00338 0.0
H2033 H 0.35791 0.88444 0.01917 0.0
H2034 H 0.36907 0.91258 0.9264 0.0
H2035 H 0.39961 0.91875 0.83388 0.0
H2036 H 0.48136 0.86925 0.81485 0.0
H2037 H 0.47431 0.84738 0.91626 0.0
C2038 C 0.42608 0.85435 0.98743 0.0
C2039 C 0.39889 0.85894 1.01754 0.0
C2040 C 0.43229 0.86976 0.93317 0.0
C2041 C 0.37906 0.88083 0.99634 0.0
C2042 C 0.3853 0.89667 0.94316 0.0
C2043 C 0.41592 0.9034 0.85254 0.0
C2044 C 0.44091 0.89543 0.81773 0.0
C2045 C 0.4113 0.89047 0.90996 0.0
C2046 C 0.46199 0.87551 0.84146 0.0
C2047 C 0.45797 0.8631 0.89923 0.0
H2048 H 0.8404 0.93588 0.25299 0.0
H2049 H 0.88098 0.85039 0.28678 0.0
H2050 H 0.91347 0.85683 0.19794 0.0
H2051 H 0.92509 0.88379 0.10344 0.0
H2052 H 0.88173 0.96752 0.06555 0.0
H2053 H 0.85661 0.96575 0.16463 0.0
C2054 C 0.85703 0.9192 0.24158 0.0
C2055 C 0.85858 0.89276 0.27548 0.0
C2056 C 0.87499 0.92279 0.18982 0.0
C2057 C 0.8797 0.87089 0.26067 0.0
C2058 C 0.89806 0.87451 0.20992 0.0
C2059 C 0.91048 0.9018 0.11761 0.0
C2060 C 0.90515 0.92574 0.07807 0.0
C2061 C 0.89509 0.89985 0.17296 0.0
C2062 C 0.88598 0.9489 0.09581 0.0
C2063 C 0.87156 0.9478 0.15207 0.0
H2064 H 0.96426 0.15746 0.91508 0.0
H2065 H 0.88694 0.1155 0.99892 0.0
H2066 H 0.8638 0.11122 0.90174 0.0
H2067 H 0.86281 0.12412 0.79563 0.0
H2068 H 0.94292 0.15665 0.70719 0.0
H2069 H 0.96802 0.15828 0.80528 0.0
C2070 C 0.94278 0.14656 0.91336 0.0
C2071 C 0.92694 0.13924 0.96683 0.0
C2072 C 0.93004 0.14184 0.85617 0.0
C2073 C 0.89918 0.12442 0.96071 0.0
C2074 C 0.88592 0.12099 0.90432 0.0
C2075 C 0.88616 0.13037 0.7964 0.0
C2076 C 0.90049 0.14101 0.74377 0.0
C2077 C 0.90078 0.13054 0.85211 0.0
C2078 C 0.93072 0.14951 0.74719 0.0
C2079 C 0.9453 0.15011 0.8031 0.0
H2080 H 0.08621 0.11989 0.10066 0.0
H2081 H 0.15098 0.05118 0.06474 0.0
H2082 H 0.1688 0.05444 0.17037 0.0
H2083 H 0.17224 0.08408 0.26505 0.0
H2084 H 0.10711 0.15303 0.29838 0.0
H2085 H 0.08388 0.14324 0.20045 0.0
C2086 C 0.10426 0.10564 0.11609 0.0
C2087 C 0.11759 0.08563 0.07549 0.0
C2088 C 0.11506 0.1085 0.17524 0.0
C2089 C 0.14085 0.06712 0.09542 0.0
C2090 C 0.15108 0.0691 0.15535 0.0
C2091 C 0.15239 0.09623 0.25158 0.0
C2092 C 0.14174 0.1197 0.28792 0.0
C2093 C 0.13927 0.09069 0.19476 0.0
C2094 C 0.11601 0.13532 0.27024 0.0
C2095 C 0.1028 0.12982 0.2143 0.0
H2096 H 0.09205 0.85215 0.75967 0.0
H2097 H 0.14199 0.93308 0.72816 0.0
H2098 H 0.12706 0.95208 0.82737 0.0
H2099 H 0.10677 0.94209 0.92865 0.0
H2100 H 0.05739 0.86117 0.96253 0.0
H2101 H 0.06314 0.84709 0.85586 0.0
C2102 C 0.0988 0.87431 0.77388 0.0
C2103 C 0.11879 0.89088 0.73783 0.0
C2104 C 0.09073 0.88484 0.83177 0.0
C2105 C 0.12714 0.91972 0.75613 0.0
C2106 C 0.11883 0.93048 0.81292 0.0
C2107 C 0.09739 0.92124 0.91246 0.0
C2108 C 0.08222 0.90237 0.95296 0.0
C2109 C 0.10199 0.91254 0.85221 0.0
C2110 C 0.06987 0.87559 0.93204 0.0
C2111 C 0.0734 0.86736 0.87135 0.0
loop_
_geom_bond_atom_site_label_1
_geom_bond_atom_site_label_2
_geom_bond_distance
_geom_bond_site_symmetry_2
_ccdc_geom_bond_type
C0 C2 1.422 . S
C0 C4 1.415 . S
C0 N6 1.369 . S
C1 C2 1.421 . S
C1 C3 1.417 . S
C1 C13 1.422 . S
C2 C0 1.422 . S
C2 C1 1.421 . S
C2 N12 1.359 . S
C3 C1 1.417 . S
C3 C5 1.329 . S
C3 H22 0.930 . S
C4 C0 1.415 . S
C4 C5 1.437 . S
C4 C8 1.413 . S
C5 C3 1.329 . S
C5 C4 1.437 . S
C5 H27 0.929 . S
N6 C0 1.369 . S
N6 C7 1.338 . S
N6 Gd11 2.622 . S
C7 N6 1.338 . S
C7 C9 1.378 . S
C7 H19 0.929 . S
C8 C4 1.413 . S
C8 C9 1.348 . S
C8 H24 0.931 . S
C9 C7 1.378 . S
C9 C8 1.348 . S
C9 H25 0.930 . S
Gd10 N30 2.622 . S
Gd10 N37 2.570 . S
Gd10 O44 2.353 . S
Gd10 O45 2.468 1_554 S
Gd10 O46 2.427 1_554 S
Gd10 O48 2.388 . S
Gd10 O49 2.386 . S
Gd10 O53 2.307 . S
Gd10 C63 2.805 1_554 S
Gd11 N6 2.622 . S
Gd11 N12 2.570 . S
Gd11 O43 2.386 . S
Gd11 O47 2.307 . S
Gd11 O50 2.353 . S
Gd11 O51 2.468 . S
Gd11 O52 2.427 . S
Gd11 O54 2.388 . S
Gd11 C75 2.805 . S
N12 C2 1.359 . S
N12 Gd11 2.570 . S
N12 C14 1.343 . S
C13 C1 1.422 . S
C13 C15 1.321 . S
C13 H21 0.931 . S
C14 N12 1.343 . S
C14 C15 1.390 . S
C14 H16 0.931 . S
C15 C13 1.321 . S
C15 C14 1.390 . S
C15 H17 0.930 . S
H16 C14 0.931 . S
H17 C15 0.930 . S
H18 C41 0.931 . S
H19 C7 0.929 . S
H20 C42 0.930 . S
H21 C13 0.931 . S
H22 C3 0.930 . S
H23 C32 0.929 . S
H24 C8 0.931 . S
H25 C9 0.930 . S
H26 C64 0.930 . S
H27 C5 0.929 . S
H28 C33 0.931 . S
H29 C34 0.930 1_565 S
N30 Gd10 2.622 . S
N30 C31 1.369 . S
N30 C32 1.338 . S
C31 N30 1.369 . S
C31 C35 1.415 . S
C31 C38 1.422 . S
C32 H23 0.929 . S
C32 N30 1.338 . S
C32 C34 1.378 . S
C33 H28 0.931 . S
C33 C34 1.348 . S
C33 C35 1.413 . S
C34 H29 0.930 1_545 S
C34 C32 1.378 . S
C34 C33 1.348 . S
C35 C31 1.415 . S
C35 C33 1.413 . S
C35 C65 1.437 . S
H36 C65 0.929 . S
N37 Gd10 2.570 . S
N37 C38 1.359 . S
N37 C41 1.343 . S
C38 C31 1.422 . S
C38 N37 1.359 . S
C38 C40 1.421 . S
C39 C40 1.422 . S
C39 C42 1.321 . S
C39 H66 0.931 . S
C40 C38 1.421 . S
C40 C39 1.422 . S
C40 C64 1.417 . S
C41 H18 0.931 . S
C41 N37 1.343 . S
C41 C42 1.390 . S
C42 H20 0.930 . S
C42 C39 1.321 . S
C42 C41 1.390 . S
O43 Gd11 2.386 . S
O43 C55 1.265 . S
O44 Gd10 2.353 . S
O44 C55 1.242 . S
O45 Gd10 2.468 1_556 S
O45 C63 1.263 . S
O46 Gd10 2.427 1_556 S
O46 C63 1.252 . S
O47 Gd11 2.307 . S
O47 C56 1.261 . S
O48 Gd10 2.388 . S
O48 C56 1.252 . S
O49 Gd10 2.386 . S
O49 C67 1.265 . S
O50 Gd11 2.353 . S
O50 C67 1.242 . S
O51 Gd11 2.468 . S
O51 C75 1.263 . S
O52 Gd11 2.427 . S
O52 C75 1.252 . S
O53 Gd10 2.307 . S
O53 C68 1.261 . S
O54 Gd11 2.388 . S
O54 C68 1.252 . S
C55 O43 1.265 . S
C55 O44 1.242 . S
C56 O47 1.261 . S
C56 O48 1.252 . S
C57 C60 1.394 . S
C57 C62 1.370 . S
C57 C63 1.500 . S
C58 C61 1.383 . S
C58 C62 1.395 . S
C59 C60 1.396 . S
C59 C61 1.365 . S
C59 H76 0.929 . S
C60 C57 1.394 . S
C60 C59 1.396 . S
C60 H77 0.930 . S
C61 C58 1.383 . S
C61 C59 1.365 . S
C61 H78 0.931 . S
C62 C57 1.370 . S
C62 C58 1.395 . S
C62 H79 0.930 . S
C63 Gd10 2.805 1_556 S
C63 O45 1.263 . S
C63 O46 1.252 . S
C63 C57 1.500 . S
C64 H26 0.930 . S
C64 C40 1.417 . S
C64 C65 1.329 . S
C65 C35 1.437 . S
C65 H36 0.929 . S
C65 C64 1.329 . S
H66 C39 0.931 . S
C67 O49 1.265 . S
C67 O50 1.242 . S
C68 O53 1.261 . S
C68 O54 1.252 . S
C69 C72 1.394 . S
C69 C74 1.370 . S
C69 C75 1.500 . S
C70 C73 1.383 . S
C70 C74 1.395 . S
C71 C72 1.396 . S
C71 C73 1.365 . S
C71 H80 0.929 . S
C72 C69 1.394 . S
C72 C71 1.396 . S
C72 H81 0.930 . S
C73 C70 1.383 . S
C73 C71 1.365 . S
C73 H82 0.931 . S
C74 C69 1.370 . S
C74 C70 1.395 . S
C74 H83 0.930 . S
C75 Gd11 2.805 . S
C75 O51 1.263 . S
C75 O52 1.252 . S
C75 C69 1.500 . S
H76 C59 0.929 . S
H77 C60 0.930 . S
H78 C61 0.931 . S
H79 C62 0.930 . S
H80 C71 0.929 . S
H81 C72 0.930 . S
H82 C73 0.931 . S
H83 C74 0.930 . S
C84 C86 1.422 . S
C84 C88 1.415 . S
C84 N90 1.369 . S
C85 C86 1.421 . S
C85 C87 1.417 . S
C85 C97 1.422 . S
C86 C84 1.422 . S
C86 C85 1.421 . S
C86 N96 1.359 . S
C87 C85 1.417 . S
C87 C89 1.329 . S
C87 H106 0.930 . S
C88 C84 1.415 . S
C88 C89 1.437 . S
C88 C92 1.413 . S
C89 C87 1.329 . S
C89 C88 1.437 . S
C89 H111 0.929 . S
N90 C84 1.369 . S
N90 C91 1.338 . S
N90 Gd95 2.622 . S
C91 N90 1.338 . S
C91 C93 1.378 . S
C91 H103 0.929 . S
C92 C88 1.413 . S
C92 C93 1.348 . S
C92 H108 0.931 . S
C93 C91 1.378 . S
C93 C92 1.348 . S
C93 H109 0.930 1_455 S
Gd94 N114 2.622 . S
Gd94 N121 2.570 . S
Gd94 O128 2.353 . S
Gd94 O129 2.468 . S
Gd94 O130 2.427 . S
Gd94 O132 2.388 . S
Gd94 O133 2.386 . S
Gd94 O137 2.307 . S
Gd94 C147 2.805 . S
Gd95 N90 2.622 . S
Gd95 N96 2.570 . S
Gd95 O127 2.386 . S
Gd95 O131 2.307 . S
Gd95 O134 2.353 . S
Gd95 O135 2.468 1_556 S
Gd95 O136 2.427 1_556 S
Gd95 O138 2.388 . S
Gd95 C159 2.805 1_556 S
N96 C86 1.359 . S
N96 Gd95 2.570 . S
N96 C98 1.343 . S
C97 C85 1.422 . S
C97 C99 1.321 . S
C97 H105 0.931 . S
C98 N96 1.343 . S
C98 C99 1.390 . S
C98 H100 0.931 . S
C99 C97 1.321 . S
C99 C98 1.390 . S
C99 H101 0.930 . S
H100 C98 0.931 . S
H101 C99 0.930 . S
H102 C125 0.931 . S
H103 C91 0.929 . S
H104 C126 0.930 . S
H105 C97 0.931 . S
H106 C87 0.930 . S
H107 C116 0.929 . S
H108 C92 0.931 . S
H109 C93 0.930 1_655 S
H110 C148 0.930 . S
H111 C89 0.929 . S
H112 C117 0.931 . S
H113 C118 0.930 . S
N114 Gd94 2.622 . S
N114 C115 1.369 . S
N114 C116 1.338 . S
C115 N114 1.369 . S
C115 C119 1.415 . S
C115 C122 1.422 . S
C116 H107 0.929 . S
C116 N114 1.338 . S
C116 C118 1.378 . S
C117 H112 0.931 . S
C117 C118 1.348 . S
C117 C119 1.413 . S
C118 H113 0.930 . S
C118 C116 1.378 . S
C118 C117 1.348 . S
C119 C115 1.415 . S
C119 C117 1.413 . S
C119 C149 1.437 . S
H120 C149 0.929 . S
N121 Gd94 2.570 . S
N121 C122 1.359 . S
N121 C125 1.343 . S
C122 C115 1.422 . S
C122 N121 1.359 . S
C122 C124 1.421 . S
C123 C124 1.422 . S
C123 C126 1.321 . S
C123 H150 0.931 . S
C124 C122 1.421 . S
C124 C123 1.422 . S
C124 C148 1.417 . S
C125 H102 0.931 . S
C125 N121 1.343 . S
C125 C126 1.390 . S
C126 H104 0.930 . S
C126 C123 1.321 . S
C126 C125 1.390 . S
O127 Gd95 2.386 . S
O127 C139 1.265 . S
O128 Gd94 2.353 . S
O128 C139 1.242 . S
O129 Gd94 2.468 . S
O129 C147 1.263 . S
O130 Gd94 2.427 . S
O130 C147 1.252 . S
O131 Gd95 2.307 . S
O131 C140 1.261 . S
O132 Gd94 2.388 . S
O132 C140 1.252 . S
O133 Gd94 2.386 . S
O133 C151 1.265 . S
O134 Gd95 2.353 . S
O134 C151 1.242 . S
O135 Gd95 2.468 1_554 S
O135 C159 1.263 . S
O136 Gd95 2.427 1_554 S
O136 C159 1.252 . S
O137 Gd94 2.307 . S
O137 C152 1.261 . S
O138 Gd95 2.388 . S
O138 C152 1.252 . S
C139 O127 1.265 . S
C139 O128 1.242 . S
C140 O131 1.261 . S
C140 O132 1.252 . S
C141 C144 1.394 . S
C141 C146 1.370 . S
C141 C147 1.500 . S
C142 C145 1.383 . S
C142 C146 1.395 . S
C143 C144 1.396 . S
C143 C145 1.365 . S
C143 H160 0.929 . S
C144 C141 1.394 . S
C144 C143 1.396 . S
C144 H161 0.930 . S
C145 C142 1.383 . S
C145 C143 1.365 . S
C145 H162 0.931 . S
C146 C141 1.370 . S
C146 C142 1.395 . S
C146 H163 0.930 . S
C147 Gd94 2.805 . S
C147 O129 1.263 . S
C147 O130 1.252 . S
C147 C141 1.500 . S
C148 H110 0.930 . S
C148 C124 1.417 . S
C148 C149 1.329 . S
C149 C119 1.437 . S
C149 H120 0.929 . S
C149 C148 1.329 . S
H150 C123 0.931 . S
C151 O133 1.265 . S
C151 O134 1.242 . S
C152 O137 1.261 . S
C152 O138 1.252 . S
C153 C156 1.394 . S
C153 C158 1.370 . S
C153 C159 1.500 . S
C154 C157 1.383 . S
C154 C158 1.395 . S
C155 C156 1.396 . S
C155 C157 1.365 . S
C155 H164 0.929 . S
C156 C153 1.394 . S
C156 C155 1.396 . S
C156 H165 0.930 . S
C157 C154 1.383 . S
C157 C155 1.365 . S
C157 H166 0.931 . S
C158 C153 1.370 . S
C158 C154 1.395 . S
C158 H167 0.930 . S
C159 Gd95 2.805 1_554 S
C159 O135 1.263 . S
C159 O136 1.252 . S
C159 C153 1.500 . S
H160 C143 0.929 . S
H161 C144 0.930 . S
H162 C145 0.931 . S
H163 C146 0.930 . S
H164 C155 0.929 . S
H165 C156 0.930 . S
H166 C157 0.931 . S
H167 C158 0.930 . S
C168 C170 1.422 . S
C168 C172 1.415 . S
C168 N174 1.369 . S
C169 C170 1.421 . S
C169 C171 1.417 . S
C169 C181 1.422 . S
C170 C168 1.422 . S
C170 C169 1.421 . S
C170 N180 1.359 . S
C171 C169 1.417 . S
C171 C173 1.329 . S
C171 H190 0.930 . S
C172 C168 1.415 . S
C172 C173 1.437 . S
C172 C176 1.413 . S
C173 C171 1.329 . S
C173 C172 1.437 . S
C173 H195 0.929 . S
N174 C168 1.369 . S
N174 C175 1.338 . S
N174 Gd179 2.622 . S
C175 N174 1.338 . S
C175 C177 1.378 . S
C175 H187 0.929 . S
C176 C172 1.413 . S
C176 C177 1.348 . S
C176 H192 0.931 . S
C177 C175 1.378 . S
C177 C176 1.348 . S
C177 H193 0.930 . S
Gd178 N198 2.622 . S
Gd178 N205 2.570 . S
Gd178 O212 2.353 . S
Gd178 O213 2.468 1_554 S
Gd178 O214 2.427 1_554 S
Gd178 O216 2.388 . S
Gd178 O217 2.386 . S
Gd178 O221 2.307 . S
Gd178 C231 2.805 1_554 S
Gd179 N174 2.622 . S
Gd179 N180 2.570 . S
Gd179 O211 2.386 . S
Gd179 O215 2.307 . S
Gd179 O218 2.353 . S
Gd179 O219 2.468 . S
Gd179 O220 2.427 . S
Gd179 O222 2.388 . S
Gd179 C243 2.805 . S
N180 C170 1.359 . S
N180 Gd179 2.570 . S
N180 C182 1.343 . S
C181 C169 1.422 . S
C181 C183 1.321 . S
C181 H189 0.931 . S
C182 N180 1.343 . S
C182 C183 1.390 . S
C182 H184 0.931 . S
C183 C181 1.321 . S
C183 C182 1.390 . S
C183 H185 0.930 . S
H184 C182 0.931 . S
H185 C183 0.930 . S
H186 C209 0.931 . S
H187 C175 0.929 . S
H188 C210 0.930 . S
H189 C181 0.931 . S
H190 C171 0.930 . S
H191 C200 0.929 . S
H192 C176 0.931 . S
H193 C177 0.930 . S
H194 C232 0.930 . S
H195 C173 0.929 . S
H196 C201 0.931 . S
H197 C202 0.930 1_545 S
N198 Gd178 2.622 . S
N198 C199 1.369 . S
N198 C200 1.338 . S
C199 N198 1.369 . S
C199 C203 1.415 . S
C199 C206 1.422 . S
C200 H191 0.929 . S
C200 N198 1.338 . S
C200 C202 1.378 . S
C201 H196 0.931 . S
C201 C202 1.348 . S
C201 C203 1.413 . S
C202 H197 0.930 1_565 S
C202 C200 1.378 . S
C202 C201 1.348 . S
C203 C199 1.415 . S
C203 C201 1.413 . S
C203 C233 1.437 . S
H204 C233 0.929 . S
N205 Gd178 2.570 . S
N205 C206 1.359 . S
N205 C209 1.343 . S
C206 C199 1.422 . S
C206 N205 1.359 . S
C206 C208 1.421 . S
C207 C208 1.422 . S
C207 C210 1.321 . S
C207 H234 0.931 . S
C208 C206 1.421 . S
C208 C207 1.422 . S
C208 C232 1.417 . S
C209 H186 0.931 . S
C209 N205 1.343 . S
C209 C210 1.390 . S
C210 H188 0.930 . S
C210 C207 1.321 . S
C210 C209 1.390 . S
O211 Gd179 2.386 . S
O211 C223 1.265 . S
O212 Gd178 2.353 . S
O212 C223 1.242 . S
O213 Gd178 2.468 1_556 S
O213 C231 1.263 . S
O214 Gd178 2.427 1_556 S
O214 C231 1.252 . S
O215 Gd179 2.307 . S
O215 C224 1.261 . S
O216 Gd178 2.388 . S
O216 C224 1.252 . S
O217 Gd178 2.386 . S
O217 C235 1.265 . S
O218 Gd179 2.353 . S
O218 C235 1.242 . S
O219 Gd179 2.468 . S
O219 C243 1.263 . S
O220 Gd179 2.427 . S
O220 C243 1.252 . S
O221 Gd178 2.307 . S
O221 C236 1.261 . S
O222 Gd179 2.388 . S
O222 C236 1.252 . S
C223 O211 1.265 . S
C223 O212 1.242 . S
C224 O215 1.261 . S
C224 O216 1.252 . S
C225 C228 1.394 . S
C225 C230 1.370 . S
C225 C231 1.500 . S
C226 C229 1.383 . S
C226 C230 1.395 . S
C227 C228 1.396 . S
C227 C229 1.365 . S
C227 H244 0.929 . S
C228 C225 1.394 . S
C228 C227 1.396 . S
C228 H245 0.930 . S
C229 C226 1.383 . S
C229 C227 1.365 . S
C229 H246 0.931 . S
C230 C225 1.370 . S
C230 C226 1.395 . S
C230 H247 0.930 . S
C231 Gd178 2.805 1_556 S
C231 O213 1.263 . S
C231 O214 1.252 . S
C231 C225 1.500 . S
C232 H194 0.930 . S
C232 C208 1.417 . S
C232 C233 1.329 . S
C233 C203 1.437 . S
C233 H204 0.929 . S
C233 C232 1.329 . S
H234 C207 0.931 . S
C235 O217 1.265 . S
C235 O218 1.242 . S
C236 O221 1.261 . S
C236 O222 1.252 . S
C237 C240 1.394 . S
C237 C242 1.370 . S
C237 C243 1.500 . S
C238 C241 1.383 . S
C238 C242 1.395 . S
C239 C240 1.396 . S
C239 C241 1.365 . S
C239 H248 0.929 . S
C240 C237 1.394 . S
C240 C239 1.396 . S
C240 H249 0.930 . S
C241 C238 1.383 . S
C241 C239 1.365 . S
C241 H250 0.931 . S
C242 C237 1.370 . S
C242 C238 1.395 . S
C242 H251 0.930 . S
C243 Gd179 2.805 . S
C243 O219 1.263 . S
C243 O220 1.252 . S
C243 C237 1.500 . S
H244 C227 0.929 . S
H245 C228 0.930 . S
H246 C229 0.931 . S
H247 C230 0.930 . S
H248 C239 0.929 . S
H249 C240 0.930 . S
H250 C241 0.931 . S
H251 C242 0.930 . S
C252 C254 1.422 . S
C252 C256 1.415 . S
C252 N258 1.369 . S
C253 C254 1.421 . S
C253 C255 1.417 . S
C253 C265 1.422 . S
C254 C252 1.422 . S
C254 C253 1.421 . S
C254 N264 1.359 . S
C255 C253 1.417 . S
C255 C257 1.329 . S
C255 H274 0.930 . S
C256 C252 1.415 . S
C256 C257 1.437 . S
C256 C260 1.413 . S
C257 C255 1.329 . S
C257 C256 1.437 . S
C257 H279 0.929 . S
N258 C252 1.369 . S
N258 C259 1.338 . S
N258 Gd263 2.622 . S
C259 N258 1.338 . S
C259 C261 1.378 . S
C259 H271 0.929 . S
C260 C256 1.413 . S
C260 C261 1.348 . S
C260 H276 0.931 . S
C261 C259 1.378 . S
C261 C260 1.348 . S
C261 H277 0.930 1_655 S
Gd262 N282 2.622 . S
Gd262 N289 2.570 . S
Gd262 O296 2.353 . S
Gd262 O297 2.468 . S
Gd262 O298 2.427 . S
Gd262 O300 2.388 . S
Gd262 O301 2.386 . S
Gd262 O305 2.307 . S
Gd262 C315 2.805 . S
Gd263 N258 2.622 . S
Gd263 N264 2.570 . S
Gd263 O295 2.386 . S
Gd263 O299 2.307 . S
Gd263 O302 2.353 . S
Gd263 O303 2.468 1_556 S
Gd263 O304 2.427 1_556 S
Gd263 O306 2.388 . S
Gd263 C327 2.805 1_556 S
N264 C254 1.359 . S
N264 Gd263 2.570 . S
N264 C266 1.343 . S
C265 C253 1.422 . S
C265 C267 1.321 . S
C265 H273 0.931 . S
C266 N264 1.343 . S
C266 C267 1.390 . S
C266 H268 0.931 . S
C267 C265 1.321 . S
C267 C266 1.390 . S
C267 H269 0.930 . S
H268 C266 0.931 . S
H269 C267 0.930 . S
H270 C293 0.931 . S
H271 C259 0.929 . S
H272 C294 0.930 . S
H273 C265 0.931 . S
H274 C255 0.930 . S
H275 C284 0.929 . S
H276 C260 0.931 . S
H277 C261 0.930 1_455 S
H278 C316 0.930 . S
H279 C257 0.929 . S
H280 C285 0.931 . S
H281 C286 0.930 . S
N282 Gd262 2.622 . S
N282 C283 1.369 . S
N282 C284 1.338 . S
C283 N282 1.369 . S
C283 C287 1.415 . S
C283 C290 1.422 . S
C284 H275 0.929 . S
C284 N282 1.338 . S
C284 C286 1.378 . S
C285 H280 0.931 . S
C285 C286 1.348 . S
C285 C287 1.413 . S
C286 H281 0.930 . S
C286 C284 1.378 . S
C286 C285 1.348 . S
C287 C283 1.415 . S
C287 C285 1.413 . S
C287 C317 1.437 . S
H288 C317 0.929 . S
N289 Gd262 2.570 . S
N289 C290 1.359 . S
N289 C293 1.343 . S
C290 C283 1.422 . S
C290 N289 1.359 . S
C290 C292 1.421 . S
C291 C292 1.422 . S
C291 C294 1.321 . S
C291 H318 0.931 . S
C292 C290 1.421 . S
C292 C291 1.422 . S
C292 C316 1.417 . S
C293 H270 0.931 . S
C293 N289 1.343 . S
C293 C294 1.390 . S
C294 H272 0.930 . S
C294 C291 1.321 . S
C294 C293 1.390 . S
O295 Gd263 2.386 . S
O295 C307 1.265 . S
O296 Gd262 2.353 . S
O296 C307 1.242 . S
O297 Gd262 2.468 . S
O297 C315 1.263 . S
O298 Gd262 2.427 . S
O298 C315 1.252 . S
O299 Gd263 2.307 . S
O299 C308 1.261 . S
O300 Gd262 2.388 . S
O300 C308 1.252 . S
O301 Gd262 2.386 . S
O301 C319 1.265 . S
O302 Gd263 2.353 . S
O302 C319 1.242 . S
O303 Gd263 2.468 1_554 S
O303 C327 1.263 . S
O304 Gd263 2.427 1_554 S
O304 C327 1.252 . S
O305 Gd262 2.307 . S
O305 C320 1.261 . S
O306 Gd263 2.388 . S
O306 C320 1.252 . S
C307 O295 1.265 . S
C307 O296 1.242 . S
C308 O299 1.261 . S
C308 O300 1.252 . S
C309 C312 1.394 . S
C309 C314 1.370 . S
C309 C315 1.500 . S
C310 C313 1.383 . S
C310 C314 1.395 . S
C311 C312 1.396 . S
C311 C313 1.365 . S
C311 H328 0.929 . S
C312 C309 1.394 . S
C312 C311 1.396 . S
C312 H329 0.930 . S
C313 C310 1.383 . S
C313 C311 1.365 . S
C313 H330 0.931 . S
C314 C309 1.370 . S
C314 C310 1.395 . S
C314 H331 0.930 . S
C315 Gd262 2.805 . S
C315 O297 1.263 . S
C315 O298 1.252 . S
C315 C309 1.500 . S
C316 H278 0.930 . S
C316 C292 1.417 . S
C316 C317 1.329 . S
C317 C287 1.437 . S
C317 H288 0.929 . S
C317 C316 1.329 . S
H318 C291 0.931 . S
C319 O301 1.265 . S
C319 O302 1.242 . S
C320 O305 1.261 . S
C320 O306 1.252 . S
C321 C324 1.394 . S
C321 C326 1.370 . S
C321 C327 1.500 . S
C322 C325 1.383 . S
C322 C326 1.395 . S
C323 C324 1.396 . S
C323 C325 1.365 . S
C323 H332 0.929 . S
C324 C321 1.394 . S
C324 C323 1.396 . S
C324 H333 0.930 . S
C325 C322 1.383 . S
C325 C323 1.365 . S
C325 H334 0.931 . S
C326 C321 1.370 . S
C326 C322 1.395 . S
C326 H335 0.930 . S
C327 Gd263 2.805 1_554 S
C327 O303 1.263 . S
C327 O304 1.252 . S
C327 C321 1.500 . S
H328 C311 0.929 . S
H329 C312 0.930 . S
H330 C313 0.931 . S
H331 C314 0.930 . S
H332 C323 0.929 . S
H333 C324 0.930 . S
H334 C325 0.931 . S
H335 C326 0.930 . S
C336 C338 1.422 . S
C336 C340 1.415 . S
C336 N342 1.369 . S
C337 C338 1.421 . S
C337 C339 1.417 . S
C337 C349 1.422 . S
C338 C336 1.422 . S
C338 C337 1.421 . S
C338 N348 1.359 . S
C339 C337 1.417 . S
C339 C341 1.329 . S
C339 H358 0.930 . S
C340 C336 1.415 . S
C340 C341 1.437 . S
C340 C344 1.413 . S
C341 C339 1.329 . S
C341 C340 1.437 . S
C341 H363 0.929 . S
N342 C336 1.369 . S
N342 C343 1.338 . S
N342 Gd347 2.622 . S
C343 N342 1.338 . S
C343 C345 1.378 . S
C343 H355 0.929 . S
C344 C340 1.413 . S
C344 C345 1.348 . S
C344 H360 0.931 . S
C345 C343 1.378 . S
C345 C344 1.348 . S
C345 H361 0.930 . S
Gd346 N366 2.622 . S
Gd346 N373 2.570 . S
Gd346 O380 2.353 . S
Gd346 O381 2.468 . S
Gd346 O382 2.427 . S
Gd346 O384 2.388 . S
Gd346 O385 2.386 . S
Gd346 O389 2.307 . S
Gd346 C399 2.805 . S
Gd347 N342 2.622 . S
Gd347 N348 2.570 . S
Gd347 O379 2.386 . S
Gd347 O383 2.307 . S
Gd347 O386 2.353 . S
Gd347 O387 2.468 1_554 S
Gd347 O388 2.427 1_554 S
Gd347 O390 2.388 . S
Gd347 C411 2.805 1_554 S
N348 C338 1.359 . S
N348 Gd347 2.570 . S
N348 C350 1.343 . S
C349 C337 1.422 . S
C349 C351 1.321 . S
C349 H357 0.931 . S
C350 N348 1.343 . S
C350 C351 1.390 . S
C350 H352 0.931 . S
C351 C349 1.321 . S
C351 C350 1.390 . S
C351 H353 0.930 . S
H352 C350 0.931 . S
H353 C351 0.930 . S
H354 C377 0.931 . S
H355 C343 0.929 . S
H356 C378 0.930 . S
H357 C349 0.931 . S
H358 C339 0.930 . S
H359 C368 0.929 . S
H360 C344 0.931 . S
H361 C345 0.930 . S
H362 C400 0.930 . S
H363 C341 0.929 . S
H364 C369 0.931 . S
H365 C370 0.930 . S
N366 Gd346 2.622 . S
N366 C367 1.369 . S
N366 C368 1.338 . S
C367 N366 1.369 . S
C367 C371 1.415 . S
C367 C374 1.422 . S
C368 H359 0.929 . S
C368 N366 1.338 . S
C368 C370 1.378 . S
C369 H364 0.931 . S
C369 C370 1.348 . S
C369 C371 1.413 . S
C370 H365 0.930 . S
C370 C368 1.378 . S
C370 C369 1.348 . S
C371 C367 1.415 . S
C371 C369 1.413 . S
C371 C401 1.437 . S
H372 C401 0.929 . S
N373 Gd346 2.570 . S
N373 C374 1.359 . S
N373 C377 1.343 . S
C374 C367 1.422 . S
C374 N373 1.359 . S
C374 C376 1.421 . S
C375 C376 1.422 . S
C375 C378 1.321 . S
C375 H402 0.931 . S
C376 C374 1.421 . S
C376 C375 1.422 . S
C376 C400 1.417 . S
C377 H354 0.931 . S
C377 N373 1.343 . S
C377 C378 1.390 . S
C378 H356 0.930 . S
C378 C375 1.321 . S
C378 C377 1.390 . S
O379 Gd347 2.386 . S
O379 C391 1.265 . S
O380 Gd346 2.353 . S
O380 C391 1.242 . S
O381 Gd346 2.468 . S
O381 C399 1.263 . S
O382 Gd346 2.427 . S
O382 C399 1.252 . S
O383 Gd347 2.307 . S
O383 C392 1.261 . S
O384 Gd346 2.388 . S
O384 C392 1.252 . S
O385 Gd346 2.386 . S
O385 C403 1.265 . S
O386 Gd347 2.353 . S
O386 C403 1.242 . S
O387 Gd347 2.468 1_556 S
O387 C411 1.263 . S
O388 Gd347 2.427 1_556 S
O388 C411 1.252 . S
O389 Gd346 2.307 . S
O389 C404 1.261 . S
O390 Gd347 2.388 . S
O390 C404 1.252 . S
C391 O379 1.265 . S
C391 O380 1.242 . S
C392 O383 1.261 . S
C392 O384 1.252 . S
C393 C396 1.394 . S
C393 C398 1.370 . S
C393 C399 1.500 . S
C394 C397 1.383 . S
C394 C398 1.395 . S
C395 C396 1.396 . S
C395 C397 1.365 . S
C395 H412 0.929 . S
C396 C393 1.394 . S
C396 C395 1.396 . S
C396 H413 0.930 . S
C397 C394 1.383 . S
C397 C395 1.365 . S
C397 H414 0.931 . S
C398 C393 1.370 . S
C398 C394 1.395 . S
C398 H415 0.930 . S
C399 Gd346 2.805 . S
C399 O381 1.263 . S
C399 O382 1.252 . S
C399 C393 1.500 . S
C400 H362 0.930 . S
C400 C376 1.417 . S
C400 C401 1.329 . S
C401 C371 1.437 . S
C401 H372 0.929 . S
C401 C400 1.329 . S
H402 C375 0.931 . S
C403 O385 1.265 . S
C403 O386 1.242 . S
C404 O389 1.261 . S
C404 O390 1.252 . S
C405 C408 1.394 . S
C405 C410 1.370 . S
C405 C411 1.500 . S
C406 C409 1.383 . S
C406 C410 1.395 . S
C407 C408 1.396 . S
C407 C409 1.365 . S
C407 H416 0.929 . S
C408 C405 1.394 . S
C408 C407 1.396 . S
C408 H417 0.930 . S
C409 C406 1.383 . S
C409 C407 1.365 . S
C409 H418 0.931 . S
C410 C405 1.370 . S
C410 C406 1.395 . S
C410 H419 0.930 . S
C411 Gd347 2.805 1_556 S
C411 O387 1.263 . S
C411 O388 1.252 . S
C411 C405 1.500 . S
H412 C395 0.929 . S
H413 C396 0.930 . S
H414 C397 0.931 . S
H415 C398 0.930 . S
H416 C407 0.929 . S
H417 C408 0.930 . S
H418 C409 0.931 . S
H419 C410 0.930 . S
C420 C422 1.422 . S
C420 C424 1.415 . S
C420 N426 1.369 . S
C421 C422 1.421 . S
C421 C423 1.417 . S
C421 C433 1.422 . S
C422 C420 1.422 . S
C422 C421 1.421 . S
C422 N432 1.359 . S
C423 C421 1.417 . S
C423 C425 1.329 . S
C423 H442 0.930 . S
C424 C420 1.415 . S
C424 C425 1.437 . S
C424 C428 1.413 . S
C425 C423 1.329 . S
C425 C424 1.437 . S
C425 H447 0.929 . S
N426 C420 1.369 . S
N426 C427 1.338 . S
N426 Gd431 2.622 . S
C427 N426 1.338 . S
C427 C429 1.378 . S
C427 H439 0.929 . S
C428 C424 1.413 . S
C428 C429 1.348 . S
C428 H444 0.931 . S
C429 C427 1.378 . S
C429 C428 1.348 . S
C429 H445 0.930 . S
Gd430 N450 2.622 . S
Gd430 N457 2.570 . S
Gd430 O464 2.353 . S
Gd430 O465 2.468 1_556 S
Gd430 O466 2.427 1_556 S
Gd430 O468 2.388 . S
Gd430 O469 2.386 . S
Gd430 O473 2.307 . S
Gd430 C483 2.805 1_556 S
Gd431 N426 2.622 . S
Gd431 N432 2.570 . S
Gd431 O463 2.386 . S
Gd431 O467 2.307 . S
Gd431 O470 2.353 . S
Gd431 O471 2.468 . S
Gd431 O472 2.427 . S
Gd431 O474 2.388 . S
Gd431 C495 2.805 . S
N432 C422 1.359 . S
N432 Gd431 2.570 . S
N432 C434 1.343 . S
C433 C421 1.422 . S
C433 C435 1.321 . S
C433 H441 0.931 . S
C434 N432 1.343 . S
C434 C435 1.390 . S
C434 H436 0.931 . S
C435 C433 1.321 . S
C435 C434 1.390 . S
C435 H437 0.930 . S
H436 C434 0.931 . S
H437 C435 0.930 . S
H438 C461 0.931 . S
H439 C427 0.929 . S
H440 C462 0.930 . S
H441 C433 0.931 . S
H442 C423 0.930 . S
H443 C452 0.929 . S
H444 C428 0.931 . S
H445 C429 0.930 . S
H446 C484 0.930 . S
H447 C425 0.929 . S
H448 C453 0.931 . S
H449 C454 0.930 . S
N450 Gd430 2.622 . S
N450 C451 1.369 . S
N450 C452 1.338 . S
C451 N450 1.369 . S
C451 C455 1.415 . S
C451 C458 1.422 . S
C452 H443 0.929 . S
C452 N450 1.338 . S
C452 C454 1.378 . S
C453 H448 0.931 . S
C453 C454 1.348 . S
C453 C455 1.413 . S
C454 H449 0.930 . S
C454 C452 1.378 . S
C454 C453 1.348 . S
C455 C451 1.415 . S
C455 C453 1.413 . S
C455 C485 1.437 . S
H456 C485 0.929 . S
N457 Gd430 2.570 . S
N457 C458 1.359 . S
N457 C461 1.343 . S
C458 C451 1.422 . S
C458 N457 1.359 . S
C458 C460 1.421 . S
C459 C460 1.422 . S
C459 C462 1.321 . S
C459 H486 0.931 . S
C460 C458 1.421 . S
C460 C459 1.422 . S
C460 C484 1.417 . S
C461 H438 0.931 . S
C461 N457 1.343 . S
C461 C462 1.390 . S
C462 H440 0.930 . S
C462 C459 1.321 . S
C462 C461 1.390 . S
O463 Gd431 2.386 . S
O463 C475 1.265 . S
O464 Gd430 2.353 . S
O464 C475 1.242 . S
O465 Gd430 2.468 1_554 S
O465 C483 1.263 . S
O466 Gd430 2.427 1_554 S
O466 C483 1.252 . S
O467 Gd431 2.307 . S
O467 C476 1.261 . S
O468 Gd430 2.388 . S
O468 C476 1.252 . S
O469 Gd430 2.386 . S
O469 C487 1.265 . S
O470 Gd431 2.353 . S
O470 C487 1.242 . S
O471 Gd431 2.468 . S
O471 C495 1.263 . S
O472 Gd431 2.427 . S
O472 C495 1.252 . S
O473 Gd430 2.307 . S
O473 C488 1.261 . S
O474 Gd431 2.388 . S
O474 C488 1.252 . S
C475 O463 1.265 . S
C475 O464 1.242 . S
C476 O467 1.261 . S
C476 O468 1.252 . S
C477 C480 1.394 . S
C477 C482 1.370 . S
C477 C483 1.500 . S
C478 C481 1.383 . S
C478 C482 1.395 . S
C479 C480 1.396 . S
C479 C481 1.365 . S
C479 H496 0.929 . S
C480 C477 1.394 . S
C480 C479 1.396 . S
C480 H497 0.930 . S
C481 C478 1.383 . S
C481 C479 1.365 . S
C481 H498 0.931 . S
C482 C477 1.370 . S
C482 C478 1.395 . S
C482 H499 0.930 . S
C483 Gd430 2.805 1_554 S
C483 O465 1.263 . S
C483 O466 1.252 . S
C483 C477 1.500 . S
C484 H446 0.930 . S
C484 C460 1.417 . S
C484 C485 1.329 . S
C485 C455 1.437 . S
C485 H456 0.929 . S
C485 C484 1.329 . S
H486 C459 0.931 . S
C487 O469 1.265 . S
C487 O470 1.242 . S
C488 O473 1.261 . S
C488 O474 1.252 . S
C489 C492 1.394 . S
C489 C494 1.370 . S
C489 C495 1.500 . S
C490 C493 1.383 . S
C490 C494 1.395 . S
C491 C492 1.396 . S
C491 C493 1.365 . S
C491 H500 0.929 . S
C492 C489 1.394 . S
C492 C491 1.396 . S
C492 H501 0.930 . S
C493 C490 1.383 . S
C493 C491 1.365 . S
C493 H502 0.931 . S
C494 C489 1.370 . S
C494 C490 1.395 . S
C494 H503 0.930 . S
C495 Gd431 2.805 . S
C495 O471 1.263 . S
C495 O472 1.252 . S
C495 C489 1.500 . S
H496 C479 0.929 . S
H497 C480 0.930 . S
H498 C481 0.931 . S
H499 C482 0.930 . S
H500 C491 0.929 . S
H501 C492 0.930 . S
H502 C493 0.931 . S
H503 C494 0.930 . S
C504 C506 1.422 . S
C504 C508 1.415 . S
C504 N510 1.369 . S
C505 C506 1.421 . S
C505 C507 1.417 . S
C505 C517 1.422 . S
C506 C504 1.422 . S
C506 C505 1.421 . S
C506 N516 1.359 . S
C507 C505 1.417 . S
C507 C509 1.329 . S
C507 H526 0.930 . S
C508 C504 1.415 . S
C508 C509 1.437 . S
C508 C512 1.413 . S
C509 C507 1.329 . S
C509 C508 1.437 . S
C509 H531 0.929 . S
N510 C504 1.369 . S
N510 C511 1.338 . S
N510 Gd515 2.622 . S
C511 N510 1.338 . S
C511 C513 1.378 . S
C511 H523 0.929 . S
C512 C508 1.413 . S
C512 C513 1.348 . S
C512 H528 0.931 . S
C513 C511 1.378 . S
C513 C512 1.348 . S
C513 H529 0.930 . S
Gd514 N534 2.622 . S
Gd514 N541 2.570 . S
Gd514 O548 2.353 . S
Gd514 O549 2.468 . S
Gd514 O550 2.427 . S
Gd514 O552 2.388 . S
Gd514 O553 2.386 . S
Gd514 O557 2.307 . S
Gd514 C567 2.805 . S
Gd515 N510 2.622 . S
Gd515 N516 2.570 . S
Gd515 O547 2.386 . S
Gd515 O551 2.307 . S
Gd515 O554 2.353 . S
Gd515 O555 2.468 1_554 S
Gd515 O556 2.427 1_554 S
Gd515 O558 2.388 . S
Gd515 C579 2.805 1_554 S
N516 C506 1.359 . S
N516 Gd515 2.570 . S
N516 C518 1.343 . S
C517 C505 1.422 . S
C517 C519 1.321 . S
C517 H525 0.931 . S
C518 N516 1.343 . S
C518 C519 1.390 . S
C518 H520 0.931 . S
C519 C517 1.321 . S
C519 C518 1.390 . S
C519 H521 0.930 . S
H520 C518 0.931 . S
H521 C519 0.930 . S
H522 C545 0.931 . S
H523 C511 0.929 . S
H524 C546 0.930 . S
H525 C517 0.931 . S
H526 C507 0.930 . S
H527 C536 0.929 . S
H528 C512 0.931 . S
H529 C513 0.930 . S
H530 C568 0.930 . S
H531 C509 0.929 . S
H532 C537 0.931 . S
H533 C538 0.930 . S
N534 Gd514 2.622 . S
N534 C535 1.369 . S
N534 C536 1.338 . S
C535 N534 1.369 . S
C535 C539 1.415 . S
C535 C542 1.422 . S
C536 H527 0.929 . S
C536 N534 1.338 . S
C536 C538 1.378 . S
C537 H532 0.931 . S
C537 C538 1.348 . S
C537 C539 1.413 . S
C538 H533 0.930 . S
C538 C536 1.378 . S
C538 C537 1.348 . S
C539 C535 1.415 . S
C539 C537 1.413 . S
C539 C569 1.437 . S
H540 C569 0.929 . S
N541 Gd514 2.570 . S
N541 C542 1.359 . S
N541 C545 1.343 . S
C542 C535 1.422 . S
C542 N541 1.359 . S
C542 C544 1.421 . S
C543 C544 1.422 . S
C543 C546 1.321 . S
C543 H570 0.931 . S
C544 C542 1.421 . S
C544 C543 1.422 . S
C544 C568 1.417 . S
C545 H522 0.931 . S
C545 N541 1.343 . S
C545 C546 1.390 . S
C546 H524 0.930 . S
C546 C543 1.321 . S
C546 C545 1.390 . S
O547 Gd515 2.386 . S
O547 C559 1.265 . S
O548 Gd514 2.353 . S
O548 C559 1.242 . S
O549 Gd514 2.468 . S
O549 C567 1.263 . S
O550 Gd514 2.427 . S
O550 C567 1.252 . S
O551 Gd515 2.307 . S
O551 C560 1.261 . S
O552 Gd514 2.388 . S
O552 C560 1.252 . S
O553 Gd514 2.386 . S
O553 C571 1.265 . S
O554 Gd515 2.353 . S
O554 C571 1.242 . S
O555 Gd515 2.468 1_556 S
O555 C579 1.263 . S
O556 Gd515 2.427 1_556 S
O556 C579 1.252 . S
O557 Gd514 2.307 . S
O557 C572 1.261 . S
O558 Gd515 2.388 . S
O558 C572 1.252 . S
C559 O547 1.265 . S
C559 O548 1.242 . S
C560 O551 1.261 . S
C560 O552 1.252 . S
C561 C564 1.394 . S
C561 C566 1.370 . S
C561 C567 1.500 . S
C562 C565 1.383 . S
C562 C566 1.395 . S
C563 C564 1.396 . S
C563 C565 1.365 . S
C563 H580 0.929 . S
C564 C561 1.394 . S
C564 C563 1.396 . S
C564 H581 0.930 . S
C565 C562 1.383 . S
C565 C563 1.365 . S
C565 H582 0.931 . S
C566 C561 1.370 . S
C566 C562 1.395 . S
C566 H583 0.930 . S
C567 Gd514 2.805 . S
C567 O549 1.263 . S
C567 O550 1.252 . S
C567 C561 1.500 . S
C568 H530 0.930 . S
C568 C544 1.417 . S
C568 C569 1.329 . S
C569 C539 1.437 . S
C569 H540 0.929 . S
C569 C568 1.329 . S
H570 C543 0.931 . S
C571 O553 1.265 . S
C571 O554 1.242 . S
C572 O557 1.261 . S
C572 O558 1.252 . S
C573 C576 1.394 . S
C573 C578 1.370 . S
C573 C579 1.500 . S
C574 C577 1.383 . S
C574 C578 1.395 . S
C575 C576 1.396 . S
C575 C577 1.365 . S
C575 H584 0.929 . S
C576 C573 1.394 . S
C576 C575 1.396 . S
C576 H585 0.930 . S
C577 C574 1.383 . S
C577 C575 1.365 . S
C577 H586 0.931 . S
C578 C573 1.370 . S
C578 C574 1.395 . S
C578 H587 0.930 . S
C579 Gd515 2.805 1_556 S
C579 O555 1.263 . S
C579 O556 1.252 . S
C579 C573 1.500 . S
H580 C563 0.929 . S
H581 C564 0.930 . S
H582 C565 0.931 . S
H583 C566 0.930 . S
H584 C575 0.929 . S
H585 C576 0.930 . S
H586 C577 0.931 . S
H587 C578 0.930 . S
C588 C590 1.422 . S
C588 C592 1.415 . S
C588 N594 1.369 . S
C589 C590 1.421 . S
C589 C591 1.417 . S
C589 C601 1.422 . S
C590 C588 1.422 . S
C590 C589 1.421 . S
C590 N600 1.359 . S
C591 C589 1.417 . S
C591 C593 1.329 . S
C591 H610 0.930 . S
C592 C588 1.415 . S
C592 C593 1.437 . S
C592 C596 1.413 . S
C593 C591 1.329 . S
C593 C592 1.437 . S
C593 H615 0.929 . S
N594 C588 1.369 . S
N594 C595 1.338 . S
N594 Gd599 2.622 . S
C595 N594 1.338 . S
C595 C597 1.378 . S
C595 H607 0.929 . S
C596 C592 1.413 . S
C596 C597 1.348 . S
C596 H612 0.931 . S
C597 C595 1.378 . S
C597 C596 1.348 . S
C597 H613 0.930 . S
Gd598 N618 2.622 . S
Gd598 N625 2.570 . S
Gd598 O632 2.353 . S
Gd598 O633 2.468 1_556 S
Gd598 O634 2.427 1_556 S
Gd598 O636 2.388 . S
Gd598 O637 2.386 . S
Gd598 O641 2.307 . S
Gd598 C651 2.805 1_556 S
Gd599 N594 2.622 . S
Gd599 N600 2.570 . S
Gd599 O631 2.386 . S
Gd599 O635 2.307 . S
Gd599 O638 2.353 . S
Gd599 O639 2.468 . S
Gd599 O640 2.427 . S
Gd599 O642 2.388 . S
Gd599 C663 2.805 . S
N600 C590 1.359 . S
N600 Gd599 2.570 . S
N600 C602 1.343 . S
C601 C589 1.422 . S
C601 C603 1.321 . S
C601 H609 0.931 . S
C602 N600 1.343 . S
C602 C603 1.390 . S
C602 H604 0.931 . S
C603 C601 1.321 . S
C603 C602 1.390 . S
C603 H605 0.930 . S
H604 C602 0.931 . S
H605 C603 0.930 . S
H606 C629 0.931 . S
H607 C595 0.929 . S
H608 C630 0.930 . S
H609 C601 0.931 . S
H610 C591 0.930 . S
H611 C620 0.929 . S
H612 C596 0.931 . S
H613 C597 0.930 . S
H614 C652 0.930 . S
H615 C593 0.929 . S
H616 C621 0.931 . S
H617 C622 0.930 . S
N618 Gd598 2.622 . S
N618 C619 1.369 . S
N618 C620 1.338 . S
C619 N618 1.369 . S
C619 C623 1.415 . S
C619 C626 1.422 . S
C620 H611 0.929 . S
C620 N618 1.338 . S
C620 C622 1.378 . S
C621 H616 0.931 . S
C621 C622 1.348 . S
C621 C623 1.413 . S
C622 H617 0.930 . S
C622 C620 1.378 . S
C622 C621 1.348 . S
C623 C619 1.415 . S
C623 C621 1.413 . S
C623 C653 1.437 . S
H624 C653 0.929 . S
N625 Gd598 2.570 . S
N625 C626 1.359 . S
N625 C629 1.343 . S
C626 C619 1.422 . S
C626 N625 1.359 . S
C626 C628 1.421 . S
C627 C628 1.422 . S
C627 C630 1.321 . S
C627 H654 0.931 . S
C628 C626 1.421 . S
C628 C627 1.422 . S
C628 C652 1.417 . S
C629 H606 0.931 . S
C629 N625 1.343 . S
C629 C630 1.390 . S
C630 H608 0.930 . S
C630 C627 1.321 . S
C630 C629 1.390 . S
O631 Gd599 2.386 . S
O631 C643 1.265 . S
O632 Gd598 2.353 . S
O632 C643 1.242 . S
O633 Gd598 2.468 1_554 S
O633 C651 1.263 . S
O634 Gd598 2.427 1_554 S
O634 C651 1.252 . S
O635 Gd599 2.307 . S
O635 C644 1.261 . S
O636 Gd598 2.388 . S
O636 C644 1.252 . S
O637 Gd598 2.386 . S
O637 C655 1.265 . S
O638 Gd599 2.353 . S
O638 C655 1.242 . S
O639 Gd599 2.468 . S
O639 C663 1.263 . S
O640 Gd599 2.427 . S
O640 C663 1.252 . S
O641 Gd598 2.307 . S
O641 C656 1.261 . S
O642 Gd599 2.388 . S
O642 C656 1.252 . S
C643 O631 1.265 . S
C643 O632 1.242 . S
C644 O635 1.261 . S
C644 O636 1.252 . S
C645 C648 1.394 . S
C645 C650 1.370 . S
C645 C651 1.500 . S
C646 C649 1.383 . S
C646 C650 1.395 . S
C647 C648 1.396 . S
C647 C649 1.365 . S
C647 H664 0.929 . S
C648 C645 1.394 . S
C648 C647 1.396 . S
C648 H665 0.930 . S
C649 C646 1.383 . S
C649 C647 1.365 . S
C649 H666 0.931 . S
C650 C645 1.370 . S
C650 C646 1.395 . S
C650 H667 0.930 . S
C651 Gd598 2.805 1_554 S
C651 O633 1.263 . S
C651 O634 1.252 . S
C651 C645 1.500 . S
C652 H614 0.930 . S
C652 C628 1.417 . S
C652 C653 1.329 . S
C653 C623 1.437 . S
C653 H624 0.929 . S
C653 C652 1.329 . S
H654 C627 0.931 . S
C655 O637 1.265 . S
C655 O638 1.242 . S
C656 O641 1.261 . S
C656 O642 1.252 . S
C657 C660 1.394 . S
C657 C662 1.370 . S
C657 C663 1.500 . S
C658 C661 1.383 . S
C658 C662 1.395 . S
C659 C660 1.396 . S
C659 C661 1.365 . S
C659 H668 0.929 . S
C660 C657 1.394 . S
C660 C659 1.396 . S
C660 H669 0.930 . S
C661 C658 1.383 . S
C661 C659 1.365 . S
C661 H670 0.931 . S
C662 C657 1.370 . S
C662 C658 1.395 . S
C662 H671 0.930 . S
C663 Gd599 2.805 . S
C663 O639 1.263 . S
C663 O640 1.252 . S
C663 C657 1.500 . S
H664 C647 0.929 . S
H665 C648 0.930 . S
H666 C649 0.931 . S
H667 C650 0.930 . S
H668 C659 0.929 . S
H669 C660 0.930 . S
H670 C661 0.931 . S
H671 C662 0.930 . S
C672 C674 1.422 . S
C672 C676 1.415 . S
C672 N678 1.369 . S
C673 C674 1.421 . S
C673 C675 1.417 . S
C673 C685 1.422 . S
C674 C672 1.422 . S
C674 C673 1.421 . S
C674 N684 1.359 . S
C675 C673 1.417 . S
C675 C677 1.329 . S
C675 H694 0.930 . S
C676 C672 1.415 . S
C676 C677 1.437 . S
C676 C680 1.413 . S
C677 C675 1.329 . S
C677 C676 1.437 . S
C677 H699 0.929 . S
N678 C672 1.369 . S
N678 C679 1.338 . S
N678 Gd683 2.622 . S
C679 N678 1.338 . S
C679 C681 1.378 . S
C679 H691 0.929 . S
C680 C676 1.413 . S
C680 C681 1.348 . S
C680 H696 0.931 . S
C681 C679 1.378 . S
C681 C680 1.348 . S
C681 H697 0.930 . S
Gd682 N702 2.622 . S
Gd682 N709 2.570 . S
Gd682 O716 2.353 . S
Gd682 O717 2.468 . S
Gd682 O718 2.427 . S
Gd682 O720 2.388 . S
Gd682 O721 2.386 . S
Gd682 O725 2.307 . S
Gd682 C735 2.805 . S
Gd683 N678 2.622 . S
Gd683 N684 2.570 . S
Gd683 O715 2.386 . S
Gd683 O719 2.307 . S
Gd683 O722 2.353 . S
Gd683 O723 2.468 . S
Gd683 O724 2.427 . S
Gd683 O726 2.388 . S
Gd683 C747 2.805 . S
N684 C674 1.359 . S
N684 Gd683 2.570 . S
N684 C686 1.343 . S
C685 C673 1.422 . S
C685 C687 1.321 . S
C685 H693 0.931 . S
C686 N684 1.343 . S
C686 C687 1.390 . S
C686 H688 0.931 . S
C687 C685 1.321 . S
C687 C686 1.390 . S
C687 H689 0.930 . S
H688 C686 0.931 . S
H689 C687 0.930 . S
H690 C713 0.931 . S
H691 C679 0.929 . S
H692 C714 0.930 . S
H693 C685 0.931 . S
H694 C675 0.930 . S
H695 C704 0.929 . S
H696 C680 0.931 . S
H697 C681 0.930 . S
H698 C736 0.909 1_455 S
H699 C677 0.929 . S
H700 C705 0.931 . S
H701 C706 0.930 . S
N702 Gd682 2.622 . S
N702 C703 1.369 . S
N702 C704 1.338 . S
C703 N702 1.369 . S
C703 C707 1.415 . S
C703 C710 1.422 . S
C704 H695 0.929 . S
C704 N702 1.338 . S
C704 C706 1.378 . S
C705 H700 0.931 . S
C705 C706 1.348 . S
C705 C707 1.413 . S
C706 H701 0.930 . S
C706 C704 1.378 . S
C706 C705 1.348 . S
C707 C703 1.415 . S
C707 C705 1.413 . S
C707 C737 1.437 . S
H708 C737 0.929 1_455 S
N709 Gd682 2.570 . S
N709 C710 1.359 . S
N709 C713 1.343 . S
C710 C703 1.422 . S
C710 N709 1.359 . S
C710 C712 1.421 . S
C711 C712 1.422 . S
C711 C714 1.321 . S
C711 H738 0.931 . S
C712 C710 1.421 . S
C712 C711 1.422 . S
C712 C736 1.436 . S
C713 H690 0.931 . S
C713 N709 1.343 . S
C713 C714 1.390 . S
C714 H692 0.930 . S
C714 C711 1.321 . S
C714 C713 1.390 . S
O715 Gd683 2.386 . S
O715 C727 1.265 . S
O716 Gd682 2.353 . S
O716 C727 1.242 . S
O717 Gd682 2.468 . S
O717 C735 1.263 . S
O718 Gd682 2.427 . S
O718 C735 1.252 . S
O719 Gd683 2.307 . S
O719 C728 1.261 . S
O720 Gd682 2.388 . S
O720 C728 1.252 . S
O721 Gd682 2.386 . S
O721 C739 1.265 . S
O722 Gd683 2.353 . S
O722 C739 1.242 . S
O723 Gd683 2.468 . S
O723 C747 1.263 . S
O724 Gd683 2.427 . S
O724 C747 1.252 . S
O725 Gd682 2.307 . S
O725 C740 1.261 . S
O726 Gd683 2.388 . S
O726 C740 1.252 . S
C727 O715 1.265 . S
C727 O716 1.242 . S
C728 O719 1.261 . S
C728 O720 1.252 . S
C729 C732 1.394 . S
C729 C734 1.370 . S
C729 C735 1.500 . S
C730 C733 1.383 . S
C730 C734 1.395 . S
C731 C732 1.396 . S
C731 C733 1.365 . S
C731 H748 0.929 . S
C732 C729 1.394 . S
C732 C731 1.396 . S
C732 H749 0.930 . S
C733 C730 1.383 . S
C733 C731 1.365 . S
C733 H750 0.931 . S
C734 C729 1.370 . S
C734 C730 1.395 . S
C734 H751 0.930 . S
C735 Gd682 2.805 . S
C735 O717 1.263 . S
C735 O718 1.252 . S
C735 C729 1.500 . S
C736 H698 0.909 1_655 S
C736 C712 1.436 . S
C736 C737 1.331 . S
C737 C707 1.437 . S
C737 H708 0.929 1_655 S
C737 C736 1.331 . S
H738 C711 0.931 . S
C739 O721 1.265 . S
C739 O722 1.242 . S
C740 O725 1.261 . S
C740 O726 1.252 . S
C741 C744 1.394 . S
C741 C746 1.370 . S
C741 C747 1.500 . S
C742 C745 1.383 1_556 S
C742 C746 1.395 . S
C743 C744 1.396 . S
C743 C745 1.365 1_556 S
C743 H752 0.926 1_556 S
C744 C741 1.394 . S
C744 C743 1.396 . S
C744 H753 0.930 . S
C745 C742 1.383 1_554 S
C745 C743 1.365 1_554 S
C745 H754 0.931 . S
C746 C741 1.370 . S
C746 C742 1.395 . S
C746 H755 0.930 . S
C747 Gd683 2.805 . S
C747 O723 1.263 . S
C747 O724 1.252 . S
C747 C741 1.500 . S
H748 C731 0.929 . S
H749 C732 0.930 . S
H750 C733 0.931 . S
H751 C734 0.930 . S
H752 C743 0.926 1_554 S
H753 C744 0.930 . S
H754 C745 0.931 . S
H755 C746 0.930 . S
C756 C758 1.422 . S
C756 C760 1.415 . S
C756 N762 1.369 . S
C757 C758 1.421 . S
C757 C759 1.436 . S
C757 C769 1.422 . S
C758 C756 1.422 . S
C758 C757 1.421 . S
C758 N768 1.359 . S
C759 C757 1.436 . S
C759 C761 1.331 . S
C759 H778 0.909 1_545 S
C760 C756 1.415 . S
C760 C761 1.437 . S
C760 C764 1.413 . S
C761 C759 1.331 . S
C761 C760 1.437 . S
C761 H783 0.929 1_545 S
N762 C756 1.369 . S
N762 C763 1.338 . S
N762 Gd767 2.622 . S
C763 N762 1.338 . S
C763 C765 1.378 . S
C763 H775 0.929 . S
C764 C760 1.413 . S
C764 C765 1.348 . S
C764 H780 0.931 . S
C765 C763 1.378 . S
C765 C764 1.348 . S
C765 H781 0.930 . S
Gd766 N786 2.622 . S
Gd766 N793 2.570 . S
Gd766 O800 2.353 . S
Gd766 O801 2.468 . S
Gd766 O802 2.427 . S
Gd766 O804 2.388 . S
Gd766 O805 2.386 . S
Gd766 O809 2.307 . S
Gd766 C819 2.805 . S
Gd767 N762 2.622 . S
Gd767 N768 2.570 . S
Gd767 O799 2.386 . S
Gd767 O803 2.307 . S
Gd767 O806 2.353 . S
Gd767 O807 2.468 . S
Gd767 O808 2.427 . S
Gd767 O810 2.388 . S
Gd767 C831 2.805 . S
N768 C758 1.359 . S
N768 Gd767 2.570 . S
N768 C770 1.343 . S
C769 C757 1.422 . S
C769 C771 1.321 . S
C769 H777 0.931 . S
C770 N768 1.343 . S
C770 C771 1.390 . S
C770 H772 0.931 . S
C771 C769 1.321 . S
C771 C770 1.390 . S
C771 H773 0.930 . S
H772 C770 0.931 . S
H773 C771 0.930 . S
H774 C797 0.931 . S
H775 C763 0.929 . S
H776 C798 0.930 . S
H777 C769 0.931 . S
H778 C759 0.909 1_565 S
H779 C788 0.929 . S
H780 C764 0.931 . S
H781 C765 0.930 . S
H782 C820 0.930 . S
H783 C761 0.929 1_565 S
H784 C789 0.931 . S
H785 C790 0.930 . S
N786 Gd766 2.622 . S
N786 C787 1.369 . S
N786 C788 1.338 . S
C787 N786 1.369 . S
C787 C791 1.415 . S
C787 C794 1.422 . S
C788 H779 0.929 . S
C788 N786 1.338 . S
C788 C790 1.378 . S
C789 H784 0.931 . S
C789 C790 1.348 . S
C789 C791 1.413 . S
C790 H785 0.930 . S
C790 C788 1.378 . S
C790 C789 1.348 . S
C791 C787 1.415 . S
C791 C789 1.413 . S
C791 C821 1.437 . S
H792 C821 0.929 . S
N793 Gd766 2.570 . S
N793 C794 1.359 . S
N793 C797 1.343 . S
C794 C787 1.422 . S
C794 N793 1.359 . S
C794 C796 1.421 . S
C795 C796 1.422 . S
C795 C798 1.321 . S
C795 H822 0.931 . S
C796 C794 1.421 . S
C796 C795 1.422 . S
C796 C820 1.417 . S
C797 H774 0.931 . S
C797 N793 1.343 . S
C797 C798 1.390 . S
C798 H776 0.930 . S
C798 C795 1.321 . S
C798 C797 1.390 . S
O799 Gd767 2.386 . S
O799 C811 1.265 . S
O800 Gd766 2.353 . S
O800 C811 1.242 . S
O801 Gd766 2.468 . S
O801 C819 1.263 . S
O802 Gd766 2.427 . S
O802 C819 1.252 . S
O803 Gd767 2.307 . S
O803 C812 1.261 . S
O804 Gd766 2.388 . S
O804 C812 1.252 . S
O805 Gd766 2.386 . S
O805 C823 1.265 . S
O806 Gd767 2.353 . S
O806 C823 1.242 . S
O807 Gd767 2.468 . S
O807 C831 1.263 . S
O808 Gd767 2.427 . S
O808 C831 1.252 . S
O809 Gd766 2.307 . S
O809 C824 1.261 . S
O810 Gd767 2.388 . S
O810 C824 1.252 . S
C811 O799 1.265 . S
C811 O800 1.242 . S
C812 O803 1.261 . S
C812 O804 1.252 . S
C813 C816 1.394 . S
C813 C818 1.370 . S
C813 C819 1.500 . S
C814 C817 1.383 1_554 S
C814 C818 1.395 . S
C815 C816 1.396 . S
C815 C817 1.365 1_554 S
C815 H832 0.926 1_554 S
C816 C813 1.394 . S
C816 C815 1.396 . S
C816 H833 0.930 . S
C817 C814 1.383 1_556 S
C817 C815 1.365 1_556 S
C817 H834 0.931 . S
C818 C813 1.370 . S
C818 C814 1.395 . S
C818 H835 0.930 . S
C819 Gd766 2.805 . S
C819 O801 1.263 . S
C819 O802 1.252 . S
C819 C813 1.500 . S
C820 H782 0.930 . S
C820 C796 1.417 . S
C820 C821 1.329 . S
C821 C791 1.437 . S
C821 H792 0.929 . S
C821 C820 1.329 . S
H822 C795 0.931 . S
C823 O805 1.265 . S
C823 O806 1.242 . S
C824 O809 1.261 . S
C824 O810 1.252 . S
C825 C828 1.394 . S
C825 C830 1.370 . S
C825 C831 1.500 . S
C826 C829 1.383 . S
C826 C830 1.395 . S
C827 C828 1.396 . S
C827 C829 1.365 . S
C827 H836 0.929 . S
C828 C825 1.394 . S
C828 C827 1.396 . S
C828 H837 0.930 . S
C829 C826 1.383 . S
C829 C827 1.365 . S
C829 H838 0.931 . S
C830 C825 1.370 . S
C830 C826 1.395 . S
C830 H839 0.930 . S
C831 Gd767 2.805 . S
C831 O807 1.263 . S
C831 O808 1.252 . S
C831 C825 1.500 . S
H832 C815 0.926 1_556 S
H833 C816 0.930 . S
H834 C817 0.931 . S
H835 C818 0.930 . S
H836 C827 0.929 . S
H837 C828 0.930 . S
H838 C829 0.931 . S
H839 C830 0.930 . S
C840 C842 1.422 . S
C840 C844 1.415 . S
C840 N846 1.369 . S
C841 C842 1.421 . S
C841 C843 1.417 . S
C841 C853 1.422 . S
C842 C840 1.422 . S
C842 C841 1.421 . S
C842 N852 1.359 . S
C843 C841 1.417 . S
C843 C845 1.329 . S
C843 H862 0.930 . S
C844 C840 1.415 . S
C844 C845 1.437 . S
C844 C848 1.413 . S
C845 C843 1.329 . S
C845 C844 1.437 . S
C845 H867 0.929 . S
N846 C840 1.369 . S
N846 C847 1.338 . S
N846 Gd851 2.622 . S
C847 N846 1.338 . S
C847 C849 1.378 . S
C847 H859 0.929 . S
C848 C844 1.413 . S
C848 C849 1.348 . S
C848 H864 0.931 . S
C849 C847 1.378 . S
C849 C848 1.348 . S
C849 H865 0.930 . S
Gd850 N870 2.622 . S
Gd850 N877 2.570 . S
Gd850 O884 2.353 . S
Gd850 O885 2.468 . S
Gd850 O886 2.427 . S
Gd850 O888 2.388 . S
Gd850 O889 2.386 . S
Gd850 O893 2.307 . S
Gd850 C903 2.805 . S
Gd851 N846 2.622 . S
Gd851 N852 2.570 . S
Gd851 O883 2.386 . S
Gd851 O887 2.307 . S
Gd851 O890 2.353 . S
Gd851 O891 2.468 . S
Gd851 O892 2.427 . S
Gd851 O894 2.388 . S
Gd851 C915 2.805 . S
N852 C842 1.359 . S
N852 Gd851 2.570 . S
N852 C854 1.343 . S
C853 C841 1.422 . S
C853 C855 1.321 . S
C853 H861 0.931 . S
C854 N852 1.343 . S
C854 C855 1.390 . S
C854 H856 0.931 . S
C855 C853 1.321 . S
C855 C854 1.390 . S
C855 H857 0.930 . S
H856 C854 0.931 . S
H857 C855 0.930 . S
H858 C881 0.931 . S
H859 C847 0.929 . S
H860 C882 0.930 . S
H861 C853 0.931 . S
H862 C843 0.930 . S
H863 C872 0.929 . S
H864 C848 0.931 . S
H865 C849 0.930 . S
H866 C904 0.909 1_655 S
H867 C845 0.929 . S
H868 C873 0.931 . S
H869 C874 0.930 . S
N870 Gd850 2.622 . S
N870 C871 1.369 . S
N870 C872 1.338 . S
C871 N870 1.369 . S
C871 C875 1.415 . S
C871 C878 1.422 . S
C872 H863 0.929 . S
C872 N870 1.338 . S
C872 C874 1.378 . S
C873 H868 0.931 . S
C873 C874 1.348 . S
C873 C875 1.413 . S
C874 H869 0.930 . S
C874 C872 1.378 . S
C874 C873 1.348 . S
C875 C871 1.415 . S
C875 C873 1.413 . S
C875 C905 1.437 . S
H876 C905 0.929 1_655 S
N877 Gd850 2.570 . S
N877 C878 1.359 . S
N877 C881 1.343 . S
C878 C871 1.422 . S
C878 N877 1.359 . S
C878 C880 1.421 . S
C879 C880 1.422 . S
C879 C882 1.321 . S
C879 H906 0.931 . S
C880 C878 1.421 . S
C880 C879 1.422 . S
C880 C904 1.436 . S
C881 H858 0.931 . S
C881 N877 1.343 . S
C881 C882 1.390 . S
C882 H860 0.930 . S
C882 C879 1.321 . S
C882 C881 1.390 . S
O883 Gd851 2.386 . S
O883 C895 1.265 . S
O884 Gd850 2.353 . S
O884 C895 1.242 . S
O885 Gd850 2.468 . S
O885 C903 1.263 . S
O886 Gd850 2.427 . S
O886 C903 1.252 . S
O887 Gd851 2.307 . S
O887 C896 1.261 . S
O888 Gd850 2.388 . S
O888 C896 1.252 . S
O889 Gd850 2.386 . S
O889 C907 1.265 . S
O890 Gd851 2.353 . S
O890 C907 1.242 . S
O891 Gd851 2.468 . S
O891 C915 1.263 . S
O892 Gd851 2.427 . S
O892 C915 1.252 . S
O893 Gd850 2.307 . S
O893 C908 1.261 . S
O894 Gd851 2.388 . S
O894 C908 1.252 . S
C895 O883 1.265 . S
C895 O884 1.242 . S
C896 O887 1.261 . S
C896 O888 1.252 . S
C897 C900 1.394 . S
C897 C902 1.370 . S
C897 C903 1.500 . S
C898 C901 1.383 . S
C898 C902 1.395 . S
C899 C900 1.396 . S
C899 C901 1.365 . S
C899 H916 0.929 . S
C900 C897 1.394 . S
C900 C899 1.396 . S
C900 H917 0.930 . S
C901 C898 1.383 . S
C901 C899 1.365 . S
C901 H918 0.931 . S
C902 C897 1.370 . S
C902 C898 1.395 . S
C902 H919 0.930 . S
C903 Gd850 2.805 . S
C903 O885 1.263 . S
C903 O886 1.252 . S
C903 C897 1.500 . S
C904 H866 0.909 1_455 S
C904 C880 1.436 . S
C904 C905 1.331 . S
C905 C875 1.437 . S
C905 H876 0.929 1_455 S
C905 C904 1.331 . S
H906 C879 0.931 . S
C907 O889 1.265 . S
C907 O890 1.242 . S
C908 O893 1.261 . S
C908 O894 1.252 . S
C909 C912 1.394 . S
C909 C914 1.370 . S
C909 C915 1.500 . S
C910 C913 1.383 1_556 S
C910 C914 1.395 . S
C911 C912 1.396 . S
C911 C913 1.365 1_556 S
C911 H920 0.926 1_556 S
C912 C909 1.394 . S
C912 C911 1.396 . S
C912 H921 0.930 . S
C913 C910 1.383 1_554 S
C913 C911 1.365 1_554 S
C913 H922 0.931 . S
C914 C909 1.370 . S
C914 C910 1.395 . S
C914 H923 0.930 . S
C915 Gd851 2.805 . S
C915 O891 1.263 . S
C915 O892 1.252 . S
C915 C909 1.500 . S
H916 C899 0.929 . S
H917 C900 0.930 . S
H918 C901 0.931 . S
H919 C902 0.930 . S
H920 C911 0.926 1_554 S
H921 C912 0.930 . S
H922 C913 0.931 . S
H923 C914 0.930 . S
C924 C926 1.422 . S
C924 C928 1.415 . S
C924 N930 1.369 . S
C925 C926 1.421 . S
C925 C927 1.436 . S
C925 C937 1.422 . S
C926 C924 1.422 . S
C926 C925 1.421 . S
C926 N936 1.359 . S
C927 C925 1.436 . S
C927 C929 1.331 . S
C927 H946 0.909 1_565 S
C928 C924 1.415 . S
C928 C929 1.437 . S
C928 C932 1.413 . S
C929 C927 1.331 . S
C929 C928 1.437 . S
C929 H951 0.929 1_565 S
N930 C924 1.369 . S
N930 C931 1.338 . S
N930 Gd935 2.622 . S
C931 N930 1.338 . S
C931 C933 1.378 . S
C931 H943 0.929 . S
C932 C928 1.413 . S
C932 C933 1.348 . S
C932 H948 0.931 . S
C933 C931 1.378 . S
C933 C932 1.348 . S
C933 H949 0.930 . S
Gd934 N954 2.622 . S
Gd934 N961 2.570 . S
Gd934 O968 2.353 . S
Gd934 O969 2.468 . S
Gd934 O970 2.427 . S
Gd934 O972 2.388 . S
Gd934 O973 2.386 . S
Gd934 O977 2.307 . S
Gd934 C987 2.805 . S
Gd935 N930 2.622 . S
Gd935 N936 2.570 . S
Gd935 O967 2.386 . S
Gd935 O971 2.307 . S
Gd935 O974 2.353 . S
Gd935 O975 2.468 . S
Gd935 O976 2.427 . S
Gd935 O978 2.388 . S
Gd935 C999 2.805 . S
N936 C926 1.359 . S
N936 Gd935 2.570 . S
N936 C938 1.343 . S
C937 C925 1.422 . S
C937 C939 1.321 . S
C937 H945 0.931 . S
C938 N936 1.343 . S
C938 C939 1.390 . S
C938 H940 0.931 . S
C939 C937 1.321 . S
C939 C938 1.390 . S
C939 H941 0.930 . S
H940 C938 0.931 . S
H941 C939 0.930 . S
H942 C965 0.931 . S
H943 C931 0.929 . S
H944 C966 0.930 . S
H945 C937 0.931 . S
H946 C927 0.909 1_545 S
H947 C956 0.929 . S
H948 C932 0.931 . S
H949 C933 0.930 . S
H950 C988 0.930 . S
H951 C929 0.929 1_545 S
H952 C957 0.931 . S
H953 C958 0.930 . S
N954 Gd934 2.622 . S
N954 C955 1.369 . S
N954 C956 1.338 . S
C955 N954 1.369 . S
C955 C959 1.415 . S
C955 C962 1.422 . S
C956 H947 0.929 . S
C956 N954 1.338 . S
C956 C958 1.378 . S
C957 H952 0.931 . S
C957 C958 1.348 . S
C957 C959 1.413 . S
C958 H953 0.930 . S
C958 C956 1.378 . S
C958 C957 1.348 . S
C959 C955 1.415 . S
C959 C957 1.413 . S
C959 C989 1.437 . S
H960 C989 0.929 . S
N961 Gd934 2.570 . S
N961 C962 1.359 . S
N961 C965 1.343 . S
C962 C955 1.422 . S
C962 N961 1.359 . S
C962 C964 1.421 . S
C963 C964 1.422 . S
C963 C966 1.321 . S
C963 H990 0.931 . S
C964 C962 1.421 . S
C964 C963 1.422 . S
C964 C988 1.417 . S
C965 H942 0.931 . S
C965 N961 1.343 . S
C965 C966 1.390 . S
C966 H944 0.930 . S
C966 C963 1.321 . S
C966 C965 1.390 . S
O967 Gd935 2.386 . S
O967 C979 1.265 . S
O968 Gd934 2.353 . S
O968 C979 1.242 . S
O969 Gd934 2.468 . S
O969 C987 1.263 . S
O970 Gd934 2.427 . S
O970 C987 1.252 . S
O971 Gd935 2.307 . S
O971 C980 1.261 . S
O972 Gd934 2.388 . S
O972 C980 1.252 . S
O973 Gd934 2.386 . S
O973 C991 1.265 . S
O974 Gd935 2.353 . S
O974 C991 1.242 . S
O975 Gd935 2.468 . S
O975 C999 1.263 . S
O976 Gd935 2.427 . S
O976 C999 1.252 . S
O977 Gd934 2.307 . S
O977 C992 1.261 . S
O978 Gd935 2.388 . S
O978 C992 1.252 . S
C979 O967 1.265 . S
C979 O968 1.242 . S
C980 O971 1.261 . S
C980 O972 1.252 . S
C981 C984 1.394 . S
C981 C986 1.370 . S
C981 C987 1.500 . S
C982 C985 1.383 1_554 S
C982 C986 1.395 . S
C983 C984 1.396 . S
C983 C985 1.365 1_554 S
C983 H1000 0.926 1_554 S
C984 C981 1.394 . S
C984 C983 1.396 . S
C984 H1001 0.930 . S
C985 C982 1.383 1_556 S
C985 C983 1.365 1_556 S
C985 H1002 0.931 . S
C986 C981 1.370 . S
C986 C982 1.395 . S
C986 H1003 0.930 . S
C987 Gd934 2.805 . S
C987 O969 1.263 . S
C987 O970 1.252 . S
C987 C981 1.500 . S
C988 H950 0.930 . S
C988 C964 1.417 . S
C988 C989 1.329 . S
C989 C959 1.437 . S
C989 H960 0.929 . S
C989 C988 1.329 . S
H990 C963 0.931 . S
C991 O973 1.265 . S
C991 O974 1.242 . S
C992 O977 1.261 . S
C992 O978 1.252 . S
C993 C996 1.394 . S
C993 C998 1.370 . S
C993 C999 1.500 . S
C994 C997 1.383 . S
C994 C998 1.395 . S
C995 C996 1.396 . S
C995 C997 1.365 . S
C995 H1004 0.929 . S
C996 C993 1.394 . S
C996 C995 1.396 . S
C996 H1005 0.930 . S
C997 C994 1.383 . S
C997 C995 1.365 . S
C997 H1006 0.931 . S
C998 C993 1.370 . S
C998 C994 1.395 . S
C998 H1007 0.930 . S
C999 Gd935 2.805 . S
C999 O975 1.263 . S
C999 O976 1.252 . S
C999 C993 1.500 . S
H1000 C983 0.926 1_556 S
H1001 C984 0.930 . S
H1002 C985 0.931 . S
H1003 C986 0.930 . S
H1004 C995 0.929 . S
H1005 C996 0.930 . S
H1006 C997 0.931 . S
H1007 C998 0.930 . S
C1008 C1010 1.422 . S
C1008 C1012 1.415 . S
C1008 N1014 1.369 . S
C1009 C1010 1.421 . S
C1009 C1011 1.417 . S
C1009 C1021 1.422 . S
C1010 C1008 1.422 . S
C1010 C1009 1.421 . S
C1010 N1020 1.359 . S
C1011 C1009 1.417 . S
C1011 C1013 1.329 . S
C1011 H1030 0.930 . S
C1012 C1008 1.415 . S
C1012 C1013 1.437 . S
C1012 C1016 1.413 . S
C1013 C1011 1.329 . S
C1013 C1012 1.437 . S
C1013 H1035 0.929 . S
N1014 C1008 1.369 . S
N1014 C1015 1.338 . S
N1014 Gd1019 2.622 . S
C1015 N1014 1.338 . S
C1015 C1017 1.378 . S
C1015 H1027 0.929 . S
C1016 C1012 1.413 . S
C1016 C1017 1.348 . S
C1016 H1032 0.931 . S
C1017 C1015 1.378 . S
C1017 C1016 1.348 . S
C1017 H1033 0.930 . S
Gd1018 N1038 2.622 . S
Gd1018 N1045 2.570 . S
Gd1018 O1052 2.353 . S
Gd1018 O1053 2.468 . S
Gd1018 O1054 2.427 . S
Gd1018 O1056 2.388 . S
Gd1018 O1057 2.386 . S
Gd1018 O1061 2.307 . S
Gd1018 C1071 2.805 . S
Gd1019 N1014 2.622 . S
Gd1019 N1020 2.570 . S
Gd1019 O1051 2.386 . S
Gd1019 O1055 2.307 . S
Gd1019 O1058 2.353 . S
Gd1019 O1059 2.468 . S
Gd1019 O1060 2.427 . S
Gd1019 O1062 2.388 . S
Gd1019 C1083 2.805 . S
N1020 C1010 1.359 . S
N1020 Gd1019 2.570 . S
N1020 C1022 1.343 . S
C1021 C1009 1.422 . S
C1021 C1023 1.321 . S
C1021 H1029 0.931 . S
C1022 N1020 1.343 . S
C1022 C1023 1.390 . S
C1022 H1024 0.931 . S
C1023 C1021 1.321 . S
C1023 C1022 1.390 . S
C1023 H1025 0.930 . S
H1024 C1022 0.931 . S
H1025 C1023 0.930 . S
H1026 C1049 0.931 . S
H1027 C1015 0.929 . S
H1028 C1050 0.930 . S
H1029 C1021 0.931 . S
H1030 C1011 0.930 . S
H1031 C1040 0.929 . S
H1032 C1016 0.931 . S
H1033 C1017 0.930 . S
H1034 C1072 0.909 1_455 S
H1035 C1013 0.929 . S
H1036 C1041 0.931 . S
H1037 C1042 0.930 1_545 S
N1038 Gd1018 2.622 . S
N1038 C1039 1.369 . S
N1038 C1040 1.338 . S
C1039 N1038 1.369 . S
C1039 C1043 1.415 . S
C1039 C1046 1.422 . S
C1040 H1031 0.929 . S
C1040 N1038 1.338 . S
C1040 C1042 1.378 . S
C1041 H1036 0.931 . S
C1041 C1042 1.348 . S
C1041 C1043 1.413 . S
C1042 H1037 0.930 1_565 S
C1042 C1040 1.378 . S
C1042 C1041 1.348 . S
C1043 C1039 1.415 . S
C1043 C1041 1.413 . S
C1043 C1073 1.437 . S
H1044 C1073 0.929 1_455 S
N1045 Gd1018 2.570 . S
N1045 C1046 1.359 . S
N1045 C1049 1.343 . S
C1046 C1039 1.422 . S
C1046 N1045 1.359 . S
C1046 C1048 1.421 . S
C1047 C1048 1.422 . S
C1047 C1050 1.321 . S
C1047 H1074 0.931 . S
C1048 C1046 1.421 . S
C1048 C1047 1.422 . S
C1048 C1072 1.436 . S
C1049 H1026 0.931 . S
C1049 N1045 1.343 . S
C1049 C1050 1.390 . S
C1050 H1028 0.930 . S
C1050 C1047 1.321 . S
C1050 C1049 1.390 . S
O1051 Gd1019 2.386 . S
O1051 C1063 1.265 . S
O1052 Gd1018 2.353 . S
O1052 C1063 1.242 . S
O1053 Gd1018 2.468 . S
O1053 C1071 1.263 . S
O1054 Gd1018 2.427 . S
O1054 C1071 1.252 . S
O1055 Gd1019 2.307 . S
O1055 C1064 1.261 . S
O1056 Gd1018 2.388 . S
O1056 C1064 1.252 . S
O1057 Gd1018 2.386 . S
O1057 C1075 1.265 . S
O1058 Gd1019 2.353 . S
O1058 C1075 1.242 . S
O1059 Gd1019 2.468 . S
O1059 C1083 1.263 . S
O1060 Gd1019 2.427 . S
O1060 C1083 1.252 . S
O1061 Gd1018 2.307 . S
O1061 C1076 1.261 . S
O1062 Gd1019 2.388 . S
O1062 C1076 1.252 . S
C1063 O1051 1.265 . S
C1063 O1052 1.242 . S
C1064 O1055 1.261 . S
C1064 O1056 1.252 . S
C1065 C1068 1.394 . S
C1065 C1070 1.370 . S
C1065 C1071 1.500 . S
C1066 C1069 1.383 1_556 S
C1066 C1070 1.395 . S
C1067 C1068 1.396 . S
C1067 C1069 1.365 1_556 S
C1067 H1084 0.929 . S
C1068 C1065 1.394 . S
C1068 C1067 1.396 . S
C1068 H1085 0.930 . S
C1069 C1066 1.383 1_554 S
C1069 C1067 1.365 1_554 S
C1069 H1086 0.931 . S
C1070 C1065 1.370 . S
C1070 C1066 1.395 . S
C1070 H1087 0.930 . S
C1071 Gd1018 2.805 . S
C1071 O1053 1.263 . S
C1071 O1054 1.252 . S
C1071 C1065 1.500 . S
C1072 H1034 0.909 1_655 S
C1072 C1048 1.436 . S
C1072 C1073 1.331 . S
C1073 C1043 1.437 . S
C1073 H1044 0.929 1_655 S
C1073 C1072 1.331 . S
H1074 C1047 0.931 . S
C1075 O1057 1.265 . S
C1075 O1058 1.242 . S
C1076 O1061 1.261 . S
C1076 O1062 1.252 . S
C1077 C1080 1.394 . S
C1077 C1082 1.370 . S
C1077 C1083 1.500 . S
C1078 C1081 1.383 . S
C1078 C1082 1.395 . S
C1079 C1080 1.396 . S
C1079 C1081 1.365 . S
C1079 H1088 0.929 . S
C1080 C1077 1.394 . S
C1080 C1079 1.396 . S
C1080 H1089 0.930 . S
C1081 C1078 1.383 . S
C1081 C1079 1.365 . S
C1081 H1090 0.931 . S
C1082 C1077 1.370 . S
C1082 C1078 1.395 . S
C1082 H1091 0.930 . S
C1083 Gd1019 2.805 . S
C1083 O1059 1.263 . S
C1083 O1060 1.252 . S
C1083 C1077 1.500 . S
H1084 C1067 0.929 . S
H1085 C1068 0.930 . S
H1086 C1069 0.931 . S
H1087 C1070 0.930 . S
H1088 C1079 0.929 . S
H1089 C1080 0.930 . S
H1090 C1081 0.931 . S
H1091 C1082 0.930 . S
C1092 C1094 1.422 . S
C1092 C1096 1.415 . S
C1092 N1098 1.369 . S
C1093 C1094 1.421 . S
C1093 C1095 1.436 . S
C1093 C1105 1.422 . S
C1094 C1092 1.422 . S
C1094 C1093 1.421 . S
C1094 N1104 1.359 . S
C1095 C1093 1.436 . S
C1095 C1097 1.331 . S
C1095 H1114 0.909 1_545 S
C1096 C1092 1.415 . S
C1096 C1097 1.437 . S
C1096 C1100 1.413 . S
C1097 C1095 1.331 . S
C1097 C1096 1.437 . S
C1097 H1119 0.929 1_545 S
N1098 C1092 1.369 . S
N1098 C1099 1.338 . S
N1098 Gd1103 2.622 . S
C1099 N1098 1.338 . S
C1099 C1101 1.378 . S
C1099 H1111 0.929 . S
C1100 C1096 1.413 . S
C1100 C1101 1.348 . S
C1100 H1116 0.931 . S
C1101 C1099 1.378 . S
C1101 C1100 1.348 . S
C1101 H1117 0.930 1_655 S
Gd1102 N1122 2.622 . S
Gd1102 N1129 2.570 . S
Gd1102 O1136 2.353 . S
Gd1102 O1137 2.468 . S
Gd1102 O1138 2.427 . S
Gd1102 O1140 2.388 . S
Gd1102 O1141 2.386 . S
Gd1102 O1145 2.307 . S
Gd1102 C1155 2.805 . S
Gd1103 N1098 2.622 . S
Gd1103 N1104 2.570 . S
Gd1103 O1135 2.386 . S
Gd1103 O1139 2.307 . S
Gd1103 O1142 2.353 . S
Gd1103 O1143 2.468 . S
Gd1103 O1144 2.427 . S
Gd1103 O1146 2.388 . S
Gd1103 C1167 2.805 . S
N1104 C1094 1.359 . S
N1104 Gd1103 2.570 . S
N1104 C1106 1.343 . S
C1105 C1093 1.422 . S
C1105 C1107 1.321 . S
C1105 H1113 0.931 . S
C1106 N1104 1.343 . S
C1106 C1107 1.390 . S
C1106 H1108 0.931 . S
C1107 C1105 1.321 . S
C1107 C1106 1.390 . S
C1107 H1109 0.930 . S
H1108 C1106 0.931 . S
H1109 C1107 0.930 . S
H1110 C1133 0.931 . S
H1111 C1099 0.929 . S
H1112 C1134 0.930 . S
H1113 C1105 0.931 . S
H1114 C1095 0.909 1_565 S
H1115 C1124 0.929 . S
H1116 C1100 0.931 . S
H1117 C1101 0.930 1_455 S
H1118 C1156 0.930 . S
H1119 C1097 0.929 1_565 S
H1120 C1125 0.931 . S
H1121 C1126 0.930 . S
N1122 Gd1102 2.622 . S
N1122 C1123 1.369 . S
N1122 C1124 1.338 . S
C1123 N1122 1.369 . S
C1123 C1127 1.415 . S
C1123 C1130 1.422 . S
C1124 H1115 0.929 . S
C1124 N1122 1.338 . S
C1124 C1126 1.378 . S
C1125 H1120 0.931 . S
C1125 C1126 1.348 . S
C1125 C1127 1.413 . S
C1126 H1121 0.930 . S
C1126 C1124 1.378 . S
C1126 C1125 1.348 . S
C1127 C1123 1.415 . S
C1127 C1125 1.413 . S
C1127 C1157 1.437 . S
H1128 C1157 0.929 . S
N1129 Gd1102 2.570 . S
N1129 C1130 1.359 . S
N1129 C1133 1.343 . S
C1130 C1123 1.422 . S
C1130 N1129 1.359 . S
C1130 C1132 1.421 . S
C1131 C1132 1.422 . S
C1131 C1134 1.321 . S
C1131 H1158 0.931 . S
C1132 C1130 1.421 . S
C1132 C1131 1.422 . S
C1132 C1156 1.417 . S
C1133 H1110 0.931 . S
C1133 N1129 1.343 . S
C1133 C1134 1.390 . S
C1134 H1112 0.930 . S
C1134 C1131 1.321 . S
C1134 C1133 1.390 . S
O1135 Gd1103 2.386 . S
O1135 C1147 1.265 . S
O1136 Gd1102 2.353 . S
O1136 C1147 1.242 . S
O1137 Gd1102 2.468 . S
O1137 C1155 1.263 . S
O1138 Gd1102 2.427 . S
O1138 C1155 1.252 . S
O1139 Gd1103 2.307 . S
O1139 C1148 1.261 . S
O1140 Gd1102 2.388 . S
O1140 C1148 1.252 . S
O1141 Gd1102 2.386 . S
O1141 C1159 1.265 . S
O1142 Gd1103 2.353 . S
O1142 C1159 1.242 . S
O1143 Gd1103 2.468 . S
O1143 C1167 1.263 . S
O1144 Gd1103 2.427 . S
O1144 C1167 1.252 . S
O1145 Gd1102 2.307 . S
O1145 C1160 1.261 . S
O1146 Gd1103 2.388 . S
O1146 C1160 1.252 . S
C1147 O1135 1.265 . S
C1147 O1136 1.242 . S
C1148 O1139 1.261 . S
C1148 O1140 1.252 . S
C1149 C1152 1.394 . S
C1149 C1154 1.370 . S
C1149 C1155 1.500 . S
C1150 C1153 1.383 . S
C1150 C1154 1.395 . S
C1151 C1152 1.396 . S
C1151 C1153 1.365 . S
C1151 H1168 0.929 . S
C1152 C1149 1.394 . S
C1152 C1151 1.396 . S
C1152 H1169 0.930 . S
C1153 C1150 1.383 . S
C1153 C1151 1.365 . S
C1153 H1170 0.931 . S
C1154 C1149 1.370 . S
C1154 C1150 1.395 . S
C1154 H1171 0.930 . S
C1155 Gd1102 2.805 . S
C1155 O1137 1.263 . S
C1155 O1138 1.252 . S
C1155 C1149 1.500 . S
C1156 H1118 0.930 . S
C1156 C1132 1.417 . S
C1156 C1157 1.329 . S
C1157 C1127 1.437 . S
C1157 H1128 0.929 . S
C1157 C1156 1.329 . S
H1158 C1131 0.931 . S
C1159 O1141 1.265 . S
C1159 O1142 1.242 . S
C1160 O1145 1.261 . S
C1160 O1146 1.252 . S
C1161 C1164 1.394 . S
C1161 C1166 1.370 . S
C1161 C1167 1.500 . S
C1162 C1165 1.383 1_554 S
C1162 C1166 1.395 . S
C1163 C1164 1.396 . S
C1163 C1165 1.365 1_554 S
C1163 H1172 0.929 . S
C1164 C1161 1.394 . S
C1164 C1163 1.396 . S
C1164 H1173 0.930 . S
C1165 C1162 1.383 1_556 S
C1165 C1163 1.365 1_556 S
C1165 H1174 0.931 . S
C1166 C1161 1.370 . S
C1166 C1162 1.395 . S
C1166 H1175 0.930 . S
C1167 Gd1103 2.805 . S
C1167 O1143 1.263 . S
C1167 O1144 1.252 . S
C1167 C1161 1.500 . S
H1168 C1151 0.929 . S
H1169 C1152 0.930 . S
H1170 C1153 0.931 . S
H1171 C1154 0.930 . S
H1172 C1163 0.929 . S
H1173 C1164 0.930 . S
H1174 C1165 0.931 . S
H1175 C1166 0.930 . S
C1176 C1178 1.422 . S
C1176 C1180 1.415 . S
C1176 N1182 1.369 . S
C1177 C1178 1.421 . S
C1177 C1179 1.417 . S
C1177 C1189 1.422 . S
C1178 C1176 1.422 . S
C1178 C1177 1.421 . S
C1178 N1188 1.359 . S
C1179 C1177 1.417 . S
C1179 C1181 1.329 . S
C1179 H1198 0.930 . S
C1180 C1176 1.415 . S
C1180 C1181 1.437 . S
C1180 C1184 1.413 . S
C1181 C1179 1.329 . S
C1181 C1180 1.437 . S
C1181 H1203 0.929 . S
N1182 C1176 1.369 . S
N1182 C1183 1.338 . S
N1182 Gd1187 2.622 . S
C1183 N1182 1.338 . S
C1183 C1185 1.378 . S
C1183 H1195 0.929 . S
C1184 C1180 1.413 . S
C1184 C1185 1.348 . S
C1184 H1200 0.931 . S
C1185 C1183 1.378 . S
C1185 C1184 1.348 . S
C1185 H1201 0.930 . S
Gd1186 N1206 2.622 . S
Gd1186 N1213 2.570 . S
Gd1186 O1220 2.353 . S
Gd1186 O1221 2.468 . S
Gd1186 O1222 2.427 . S
Gd1186 O1224 2.388 . S
Gd1186 O1225 2.386 . S
Gd1186 O1229 2.307 . S
Gd1186 C1239 2.805 . S
Gd1187 N1182 2.622 . S
Gd1187 N1188 2.570 . S
Gd1187 O1219 2.386 . S
Gd1187 O1223 2.307 . S
Gd1187 O1226 2.353 . S
Gd1187 O1227 2.468 . S
Gd1187 O1228 2.427 . S
Gd1187 O1230 2.388 . S
Gd1187 C1251 2.805 . S
N1188 C1178 1.359 . S
N1188 Gd1187 2.570 . S
N1188 C1190 1.343 . S
C1189 C1177 1.422 . S
C1189 C1191 1.321 . S
C1189 H1197 0.931 . S
C1190 N1188 1.343 . S
C1190 C1191 1.390 . S
C1190 H1192 0.931 . S
C1191 C1189 1.321 . S
C1191 C1190 1.390 . S
C1191 H1193 0.930 . S
H1192 C1190 0.931 . S
H1193 C1191 0.930 . S
H1194 C1217 0.931 . S
H1195 C1183 0.929 . S
H1196 C1218 0.930 . S
H1197 C1189 0.931 . S
H1198 C1179 0.930 . S
H1199 C1208 0.929 . S
H1200 C1184 0.931 . S
H1201 C1185 0.930 . S
H1202 C1240 0.909 1_655 S
H1203 C1181 0.929 . S
H1204 C1209 0.931 . S
H1205 C1210 0.930 1_565 S
N1206 Gd1186 2.622 . S
N1206 C1207 1.369 . S
N1206 C1208 1.338 . S
C1207 N1206 1.369 . S
C1207 C1211 1.415 . S
C1207 C1214 1.422 . S
C1208 H1199 0.929 . S
C1208 N1206 1.338 . S
C1208 C1210 1.378 . S
C1209 H1204 0.931 . S
C1209 C1210 1.348 . S
C1209 C1211 1.413 . S
C1210 H1205 0.930 1_545 S
C1210 C1208 1.378 . S
C1210 C1209 1.348 . S
C1211 C1207 1.415 . S
C1211 C1209 1.413 . S
C1211 C1241 1.437 . S
H1212 C1241 0.929 1_655 S
N1213 Gd1186 2.570 . S
N1213 C1214 1.359 . S
N1213 C1217 1.343 . S
C1214 C1207 1.422 . S
C1214 N1213 1.359 . S
C1214 C1216 1.421 . S
C1215 C1216 1.422 . S
C1215 C1218 1.321 . S
C1215 H1242 0.931 . S
C1216 C1214 1.421 . S
C1216 C1215 1.422 . S
C1216 C1240 1.436 . S
C1217 H1194 0.931 . S
C1217 N1213 1.343 . S
C1217 C1218 1.390 . S
C1218 H1196 0.930 . S
C1218 C1215 1.321 . S
C1218 C1217 1.390 . S
O1219 Gd1187 2.386 . S
O1219 C1231 1.265 . S
O1220 Gd1186 2.353 . S
O1220 C1231 1.242 . S
O1221 Gd1186 2.468 . S
O1221 C1239 1.263 . S
O1222 Gd1186 2.427 . S
O1222 C1239 1.252 . S
O1223 Gd1187 2.307 . S
O1223 C1232 1.261 . S
O1224 Gd1186 2.388 . S
O1224 C1232 1.252 . S
O1225 Gd1186 2.386 . S
O1225 C1243 1.265 . S
O1226 Gd1187 2.353 . S
O1226 C1243 1.242 . S
O1227 Gd1187 2.468 . S
O1227 C1251 1.263 . S
O1228 Gd1187 2.427 . S
O1228 C1251 1.252 . S
O1229 Gd1186 2.307 . S
O1229 C1244 1.261 . S
O1230 Gd1187 2.388 . S
O1230 C1244 1.252 . S
C1231 O1219 1.265 . S
C1231 O1220 1.242 . S
C1232 O1223 1.261 . S
C1232 O1224 1.252 . S
C1233 C1236 1.394 . S
C1233 C1238 1.370 . S
C1233 C1239 1.500 . S
C1234 C1237 1.383 1_556 S
C1234 C1238 1.395 . S
C1235 C1236 1.396 . S
C1235 C1237 1.365 1_556 S
C1235 H1252 0.929 . S
C1236 C1233 1.394 . S
C1236 C1235 1.396 . S
C1236 H1253 0.930 . S
C1237 C1234 1.383 1_554 S
C1237 C1235 1.365 1_554 S
C1237 H1254 0.931 . S
C1238 C1233 1.370 . S
C1238 C1234 1.395 . S
C1238 H1255 0.930 . S
C1239 Gd1186 2.805 . S
C1239 O1221 1.263 . S
C1239 O1222 1.252 . S
C1239 C1233 1.500 . S
C1240 H1202 0.909 1_455 S
C1240 C1216 1.436 . S
C1240 C1241 1.331 . S
C1241 C1211 1.437 . S
C1241 H1212 0.929 1_455 S
C1241 C1240 1.331 . S
H1242 C1215 0.931 . S
C1243 O1225 1.265 . S
C1243 O1226 1.242 . S
C1244 O1229 1.261 . S
C1244 O1230 1.252 . S
C1245 C1248 1.394 . S
C1245 C1250 1.370 . S
C1245 C1251 1.500 . S
C1246 C1249 1.383 . S
C1246 C1250 1.395 . S
C1247 C1248 1.396 . S
C1247 C1249 1.365 . S
C1247 H1256 0.929 . S
C1248 C1245 1.394 . S
C1248 C1247 1.396 . S
C1248 H1257 0.930 . S
C1249 C1246 1.383 . S
C1249 C1247 1.365 . S
C1249 H1258 0.931 . S
C1250 C1245 1.370 . S
C1250 C1246 1.395 . S
C1250 H1259 0.930 . S
C1251 Gd1187 2.805 . S
C1251 O1227 1.263 . S
C1251 O1228 1.252 . S
C1251 C1245 1.500 . S
H1252 C1235 0.929 . S
H1253 C1236 0.930 . S
H1254 C1237 0.931 . S
H1255 C1238 0.930 . S
H1256 C1247 0.929 . S
H1257 C1248 0.930 . S
H1258 C1249 0.931 . S
H1259 C1250 0.930 . S
C1260 C1262 1.422 . S
C1260 C1264 1.415 . S
C1260 N1266 1.369 . S
C1261 C1262 1.421 . S
C1261 C1263 1.436 . S
C1261 C1273 1.422 . S
C1262 C1260 1.422 . S
C1262 C1261 1.421 . S
C1262 N1272 1.359 . S
C1263 C1261 1.436 . S
C1263 C1265 1.331 . S
C1263 H1282 0.909 1_565 S
C1264 C1260 1.415 . S
C1264 C1265 1.437 . S
C1264 C1268 1.413 . S
C1265 C1263 1.331 . S
C1265 C1264 1.437 . S
C1265 H1287 0.929 1_565 S
N1266 C1260 1.369 . S
N1266 C1267 1.338 . S
N1266 Gd1271 2.622 . S
C1267 N1266 1.338 . S
C1267 C1269 1.378 . S
C1267 H1279 0.929 . S
C1268 C1264 1.413 . S
C1268 C1269 1.348 . S
C1268 H1284 0.931 . S
C1269 C1267 1.378 . S
C1269 C1268 1.348 . S
C1269 H1285 0.930 1_455 S
Gd1270 N1290 2.622 . S
Gd1270 N1297 2.570 . S
Gd1270 O1304 2.353 . S
Gd1270 O1305 2.468 . S
Gd1270 O1306 2.427 . S
Gd1270 O1308 2.388 . S
Gd1270 O1309 2.386 . S
Gd1270 O1313 2.307 . S
Gd1270 C1323 2.805 . S
Gd1271 N1266 2.622 . S
Gd1271 N1272 2.570 . S
Gd1271 O1303 2.386 . S
Gd1271 O1307 2.307 . S
Gd1271 O1310 2.353 . S
Gd1271 O1311 2.468 . S
Gd1271 O1312 2.427 . S
Gd1271 O1314 2.388 . S
Gd1271 C1335 2.805 . S
N1272 C1262 1.359 . S
N1272 Gd1271 2.570 . S
N1272 C1274 1.343 . S
C1273 C1261 1.422 . S
C1273 C1275 1.321 . S
C1273 H1281 0.931 . S
C1274 N1272 1.343 . S
C1274 C1275 1.390 . S
C1274 H1276 0.931 . S
C1275 C1273 1.321 . S
C1275 C1274 1.390 . S
C1275 H1277 0.930 . S
H1276 C1274 0.931 . S
H1277 C1275 0.930 . S
H1278 C1301 0.931 . S
H1279 C1267 0.929 . S
H1280 C1302 0.930 . S
H1281 C1273 0.931 . S
H1282 C1263 0.909 1_545 S
H1283 C1292 0.929 . S
H1284 C1268 0.931 . S
H1285 C1269 0.930 1_655 S
H1286 C1324 0.930 . S
H1287 C1265 0.929 1_545 S
H1288 C1293 0.931 . S
H1289 C1294 0.930 . S
N1290 Gd1270 2.622 . S
N1290 C1291 1.369 . S
N1290 C1292 1.338 . S
C1291 N1290 1.369 . S
C1291 C1295 1.415 . S
C1291 C1298 1.422 . S
C1292 H1283 0.929 . S
C1292 N1290 1.338 . S
C1292 C1294 1.378 . S
C1293 H1288 0.931 . S
C1293 C1294 1.348 . S
C1293 C1295 1.413 . S
C1294 H1289 0.930 . S
C1294 C1292 1.378 . S
C1294 C1293 1.348 . S
C1295 C1291 1.415 . S
C1295 C1293 1.413 . S
C1295 C1325 1.437 . S
H1296 C1325 0.929 . S
N1297 Gd1270 2.570 . S
N1297 C1298 1.359 . S
N1297 C1301 1.343 . S
C1298 C1291 1.422 . S
C1298 N1297 1.359 . S
C1298 C1300 1.421 . S
C1299 C1300 1.422 . S
C1299 C1302 1.321 . S
C1299 H1326 0.931 . S
C1300 C1298 1.421 . S
C1300 C1299 1.422 . S
C1300 C1324 1.417 . S
C1301 H1278 0.931 . S
C1301 N1297 1.343 . S
C1301 C1302 1.390 . S
C1302 H1280 0.930 . S
C1302 C1299 1.321 . S
C1302 C1301 1.390 . S
O1303 Gd1271 2.386 . S
O1303 C1315 1.265 . S
O1304 Gd1270 2.353 . S
O1304 C1315 1.242 . S
O1305 Gd1270 2.468 . S
O1305 C1323 1.263 . S
O1306 Gd1270 2.427 . S
O1306 C1323 1.252 . S
O1307 Gd1271 2.307 . S
O1307 C1316 1.261 . S
O1308 Gd1270 2.388 . S
O1308 C1316 1.252 . S
O1309 Gd1270 2.386 . S
O1309 C1327 1.265 . S
O1310 Gd1271 2.353 . S
O1310 C1327 1.242 . S
O1311 Gd1271 2.468 . S
O1311 C1335 1.263 . S
O1312 Gd1271 2.427 . S
O1312 C1335 1.252 . S
O1313 Gd1270 2.307 . S
O1313 C1328 1.261 . S
O1314 Gd1271 2.388 . S
O1314 C1328 1.252 . S
C1315 O1303 1.265 . S
C1315 O1304 1.242 . S
C1316 O1307 1.261 . S
C1316 O1308 1.252 . S
C1317 C1320 1.394 . S
C1317 C1322 1.370 . S
C1317 C1323 1.500 . S
C1318 C1321 1.383 . S
C1318 C1322 1.395 . S
C1319 C1320 1.396 . S
C1319 C1321 1.365 . S
C1319 H1336 0.929 . S
C1320 C1317 1.394 . S
C1320 C1319 1.396 . S
C1320 H1337 0.930 . S
C1321 C1318 1.383 . S
C1321 C1319 1.365 . S
C1321 H1338 0.931 . S
C1322 C1317 1.370 . S
C1322 C1318 1.395 . S
C1322 H1339 0.930 . S
C1323 Gd1270 2.805 . S
C1323 O1305 1.263 . S
C1323 O1306 1.252 . S
C1323 C1317 1.500 . S
C1324 H1286 0.930 . S
C1324 C1300 1.417 . S
C1324 C1325 1.329 . S
C1325 C1295 1.437 . S
C1325 H1296 0.929 . S
C1325 C1324 1.329 . S
H1326 C1299 0.931 . S
C1327 O1309 1.265 . S
C1327 O1310 1.242 . S
C1328 O1313 1.261 . S
C1328 O1314 1.252 . S
C1329 C1332 1.394 . S
C1329 C1334 1.370 . S
C1329 C1335 1.500 . S
C1330 C1333 1.383 1_554 S
C1330 C1334 1.395 . S
C1331 C1332 1.396 . S
C1331 C1333 1.365 1_554 S
C1331 H1340 0.929 . S
C1332 C1329 1.394 . S
C1332 C1331 1.396 . S
C1332 H1341 0.930 . S
C1333 C1330 1.383 1_556 S
C1333 C1331 1.365 1_556 S
C1333 H1342 0.931 . S
C1334 C1329 1.370 . S
C1334 C1330 1.395 . S
C1334 H1343 0.930 . S
C1335 Gd1271 2.805 . S
C1335 O1311 1.263 . S
C1335 O1312 1.252 . S
C1335 C1329 1.500 . S
H1336 C1319 0.929 . S
H1337 C1320 0.930 . S
H1338 C1321 0.931 . S
H1339 C1322 0.930 . S
H1340 C1331 0.929 . S
H1341 C1332 0.930 . S
H1342 C1333 0.931 . S
H1343 C1334 0.930 . S
H1344 C1350 0.930 . S
H1345 C1353 0.930 . S
H1346 C1354 0.930 . S
H1347 C1355 0.930 . S
H1348 C1358 0.930 . S
H1349 C1359 0.930 . S
C1350 H1344 0.930 . S
C1350 C1351 1.355 . S
C1350 C1352 1.415 . S
C1351 C1350 1.355 . S
C1351 C1353 1.419 . S
C1352 C1350 1.415 . S
C1352 C1357 1.425 . S
C1352 C1359 1.409 1_565 S
C1353 H1345 0.930 . S
C1353 C1351 1.419 . S
C1353 C1354 1.362 . S
C1354 H1346 0.930 . S
C1354 C1353 1.362 . S
C1354 C1357 1.409 . S
C1355 H1347 0.930 . S
C1355 C1356 1.355 1_565 S
C1355 C1357 1.415 . S
C1356 C1355 1.355 1_545 S
C1356 C1358 1.419 . S
C1357 C1352 1.425 . S
C1357 C1354 1.409 . S
C1357 C1355 1.415 . S
C1358 H1348 0.930 . S
C1358 C1356 1.419 . S
C1358 C1359 1.362 . S
C1359 H1349 0.930 . S
C1359 C1352 1.409 1_545 S
C1359 C1358 1.362 . S
H1360 C1366 0.930 . S
H1361 C1369 0.930 . S
H1362 C1370 0.930 . S
H1363 C1371 0.930 . S
H1364 C1374 0.930 . S
H1365 C1375 0.930 . S
C1366 H1360 0.930 . S
C1366 C1367 1.355 . S
C1366 C1368 1.415 . S
C1367 C1366 1.355 . S
C1367 C1369 1.419 . S
C1368 C1366 1.415 . S
C1368 C1373 1.425 . S
C1368 C1375 1.409 1_655 S
C1369 H1361 0.930 . S
C1369 C1367 1.419 . S
C1369 C1370 1.362 . S
C1370 H1362 0.930 . S
C1370 C1369 1.362 . S
C1370 C1373 1.409 . S
C1371 H1363 0.930 . S
C1371 C1372 1.355 1_655 S
C1371 C1373 1.415 . S
C1372 C1371 1.355 1_455 S
C1372 C1374 1.419 . S
C1373 C1368 1.425 . S
C1373 C1370 1.409 . S
C1373 C1371 1.415 . S
C1374 H1364 0.930 . S
C1374 C1372 1.419 . S
C1374 C1375 1.362 . S
C1375 H1365 0.930 . S
C1375 C1368 1.409 1_455 S
C1375 C1374 1.362 . S
H1376 C1382 0.930 . S
H1377 C1385 0.930 . S
H1378 C1386 0.930 . S
H1379 C1387 0.930 . S
H1380 C1390 0.930 . S
H1381 C1391 0.930 . S
C1382 H1376 0.930 . S
C1382 C1383 1.355 . S
C1382 C1384 1.415 1_565 S
C1383 C1382 1.355 . S
C1383 C1385 1.419 . S
C1384 C1382 1.415 1_545 S
C1384 C1389 1.425 . S
C1384 C1391 1.409 . S
C1385 H1377 0.930 . S
C1385 C1383 1.419 . S
C1385 C1386 1.362 1_565 S
C1386 H1378 0.930 . S
C1386 C1385 1.362 1_545 S
C1386 C1389 1.409 . S
C1387 H1379 0.930 . S
C1387 C1388 1.355 . S
C1387 C1389 1.415 . S
C1388 C1387 1.355 . S
C1388 C1390 1.419 . S
C1389 C1384 1.425 . S
C1389 C1386 1.409 . S
C1389 C1387 1.415 . S
C1390 H1380 0.930 . S
C1390 C1388 1.419 . S
C1390 C1391 1.362 . S
C1391 H1381 0.930 . S
C1391 C1384 1.409 . S
C1391 C1390 1.362 . S
H1392 C1398 0.930 . S
H1393 C1401 0.930 . S
H1394 C1402 0.930 . S
H1395 C1403 0.930 . S
H1396 C1406 0.930 . S
H1397 C1407 0.930 . S
C1398 H1392 0.930 . S
C1398 C1399 1.355 . S
C1398 C1400 1.415 1_655 S
C1399 C1398 1.355 . S
C1399 C1401 1.419 . S
C1400 C1398 1.415 1_455 S
C1400 C1405 1.425 . S
C1400 C1407 1.409 . S
C1401 H1393 0.930 . S
C1401 C1399 1.419 . S
C1401 C1402 1.362 1_655 S
C1402 H1394 0.930 . S
C1402 C1401 1.362 1_455 S
C1402 C1405 1.409 . S
C1403 H1395 0.930 . S
C1403 C1404 1.355 . S
C1403 C1405 1.415 . S
C1404 C1403 1.355 . S
C1404 C1406 1.419 . S
C1405 C1400 1.425 . S
C1405 C1402 1.409 . S
C1405 C1403 1.415 . S
C1406 H1396 0.930 . S
C1406 C1404 1.419 . S
C1406 C1407 1.362 . S
C1407 H1397 0.930 . S
C1407 C1400 1.409 . S
C1407 C1406 1.362 . S
H1408 C1414 0.930 . S
H1409 C1417 0.930 . S
H1410 C1418 0.930 . S
H1411 C1419 0.930 . S
H1412 C1422 0.930 . S
H1413 C1423 0.930 . S
C1414 H1408 0.930 . S
C1414 C1415 1.355 . S
C1414 C1416 1.415 . S
C1415 C1414 1.355 . S
C1415 C1417 1.419 . S
C1416 C1414 1.415 . S
C1416 C1421 1.425 . S
C1416 C1423 1.409 1_554 S
C1417 H1409 0.930 . S
C1417 C1415 1.419 . S
C1417 C1418 1.362 . S
C1418 H1410 0.930 . S
C1418 C1417 1.362 . S
C1418 C1421 1.409 . S
C1419 H1411 0.930 . S
C1419 C1420 1.355 1_554 S
C1419 C1421 1.415 . S
C1420 C1419 1.355 1_556 S
C1420 C1422 1.419 . S
C1421 C1416 1.425 . S
C1421 C1418 1.409 . S
C1421 C1419 1.415 . S
C1422 H1412 0.930 . S
C1422 C1420 1.419 . S
C1422 C1423 1.362 . S
C1423 H1413 0.930 . S
C1423 C1416 1.409 1_556 S
C1423 C1422 1.362 . S
H1424 C1430 0.930 . S
H1425 C1433 0.930 . S
H1426 C1434 0.930 . S
H1427 C1435 0.930 1_554 S
H1428 C1438 0.930 . S
H1429 C1439 0.930 . S
C1430 H1424 0.930 . S
C1430 C1431 1.355 1_556 S
C1430 C1432 1.415 . S
C1431 C1430 1.355 1_554 S
C1431 C1433 1.419 . S
C1432 C1430 1.415 . S
C1432 C1437 1.425 1_556 S
C1432 C1439 1.409 . S
C1433 H1425 0.930 . S
C1433 C1431 1.419 . S
C1433 C1434 1.362 . S
C1434 H1426 0.930 . S
C1434 C1433 1.362 . S
C1434 C1437 1.409 . S
C1435 H1427 0.930 1_556 S
C1435 C1436 1.355 . S
C1435 C1437 1.415 1_556 S
C1436 C1435 1.355 . S
C1436 C1438 1.419 . S
C1437 C1432 1.425 1_554 S
C1437 C1434 1.409 . S
C1437 C1435 1.415 1_554 S
C1438 H1428 0.930 . S
C1438 C1436 1.419 . S
C1438 C1439 1.362 . S
C1439 H1429 0.930 . S
C1439 C1432 1.409 . S
C1439 C1438 1.362 . S
H1440 C1446 0.930 1_556 S
H1441 C1449 0.930 . S
H1442 C1450 0.930 . S
H1443 C1451 0.930 . S
H1444 C1454 0.930 . S
H1445 C1455 0.930 . S
C1446 H1440 0.930 1_554 S
C1446 C1447 1.355 . S
C1446 C1448 1.415 . S
C1447 C1446 1.355 . S
C1447 C1449 1.419 . S
C1448 C1446 1.415 . S
C1448 C1453 1.425 . S
C1448 C1455 1.409 1_554 S
C1449 H1441 0.930 . S
C1449 C1447 1.419 . S
C1449 C1450 1.362 . S
C1450 H1442 0.930 . S
C1450 C1449 1.362 . S
C1450 C1453 1.409 . S
C1451 H1443 0.930 . S
C1451 C1452 1.355 1_554 S
C1451 C1453 1.415 . S
C1452 C1451 1.355 1_556 S
C1452 C1454 1.419 . S
C1453 C1448 1.425 . S
C1453 C1450 1.409 . S
C1453 C1451 1.415 . S
C1454 H1444 0.930 . S
C1454 C1452 1.419 . S
C1454 C1455 1.362 . S
C1455 H1445 0.930 . S
C1455 C1448 1.409 1_556 S
C1455 C1454 1.362 . S
H1456 C1462 0.930 . S
H1457 C1465 0.930 . S
H1458 C1466 0.930 . S
H1459 C1467 0.930 . S
H1460 C1470 0.925 1_554 S
H1461 C1471 0.930 . S
C1462 H1456 0.930 . S
C1462 C1463 1.355 . S
C1462 C1464 1.415 . S
C1463 C1462 1.355 . S
C1463 C1465 1.419 1_554 S
C1464 C1462 1.415 . S
C1464 C1469 1.425 1_554 S
C1464 C1471 1.409 . S
C1465 H1457 0.930 . S
C1465 C1463 1.419 1_556 S
C1465 C1466 1.362 . S
C1466 H1458 0.930 . S
C1466 C1465 1.362 . S
C1466 C1469 1.409 . S
C1467 H1459 0.930 . S
C1467 C1468 1.355 . S
C1467 C1469 1.415 . S
C1468 C1467 1.355 . S
C1468 C1470 1.432 . S
C1469 C1464 1.425 1_556 S
C1469 C1466 1.409 . S
C1469 C1467 1.415 . S
C1470 H1460 0.925 1_556 S
C1470 C1468 1.432 . S
C1470 C1471 1.355 1_556 S
C1471 H1461 0.930 . S
C1471 C1464 1.409 . S
C1471 C1470 1.355 1_554 S
H1472 C1478 0.930 . S
H1473 C1481 0.930 . S
H1474 C1482 0.930 . S
H1475 C1483 0.930 . S
H1476 C1486 0.930 . S
H1477 C1487 0.930 . S
C1478 H1472 0.930 . S
C1478 C1479 1.355 . S
C1478 C1480 1.415 . S
C1479 C1478 1.355 . S
C1479 C1481 1.419 . S
C1480 C1478 1.415 . S
C1480 C1485 1.425 . S
C1480 C1487 1.409 . S
C1481 H1473 0.930 . S
C1481 C1479 1.419 . S
C1481 C1482 1.362 . S
C1482 H1474 0.930 . S
C1482 C1481 1.362 . S
C1482 C1485 1.409 . S
C1483 H1475 0.930 . S
C1483 C1484 1.355 . S
C1483 C1485 1.415 . S
C1484 C1483 1.355 . S
C1484 C1486 1.419 . S
C1485 C1480 1.425 . S
C1485 C1482 1.409 . S
C1485 C1483 1.415 . S
C1486 H1476 0.930 . S
C1486 C1484 1.419 . S
C1486 C1487 1.362 . S
C1487 H1477 0.930 . S
C1487 C1480 1.409 . S
C1487 C1486 1.362 . S
H1488 C1494 0.930 . S
H1489 C1497 0.930 . S
H1490 C1498 0.930 . S
H1491 C1499 0.930 . S
H1492 C1502 0.930 . S
H1493 C1503 0.930 . S
C1494 H1488 0.930 . S
C1494 C1495 1.355 . S
C1494 C1496 1.415 . S
C1495 C1494 1.355 . S
C1495 C1497 1.419 . S
C1496 C1494 1.415 . S
C1496 C1501 1.425 . S
C1496 C1503 1.409 . S
C1497 H1489 0.930 . S
C1497 C1495 1.419 . S
C1497 C1498 1.362 . S
C1498 H1490 0.930 . S
C1498 C1497 1.362 . S
C1498 C1501 1.409 . S
C1499 H1491 0.930 . S
C1499 C1500 1.355 . S
C1499 C1501 1.415 . S
C1500 C1499 1.355 . S
C1500 C1502 1.419 . S
C1501 C1496 1.425 . S
C1501 C1498 1.409 . S
C1501 C1499 1.415 . S
C1502 H1492 0.930 . S
C1502 C1500 1.419 . S
C1502 C1503 1.362 . S
C1503 H1493 0.930 . S
C1503 C1496 1.409 . S
C1503 C1502 1.362 . S
H1504 C1510 0.930 . S
H1505 C1513 0.930 . S
H1506 C1514 0.930 . S
H1507 C1515 0.930 . S
H1508 C1518 0.930 . S
H1509 C1519 0.930 . S
C1510 H1504 0.930 . S
C1510 C1511 1.355 . S
C1510 C1512 1.415 . S
C1511 C1510 1.355 . S
C1511 C1513 1.419 . S
C1512 C1510 1.415 . S
C1512 C1517 1.425 . S
C1512 C1519 1.409 . S
C1513 H1505 0.930 . S
C1513 C1511 1.419 . S
C1513 C1514 1.362 . S
C1514 H1506 0.930 . S
C1514 C1513 1.362 . S
C1514 C1517 1.409 . S
C1515 H1507 0.930 . S
C1515 C1516 1.355 . S
C1515 C1517 1.415 . S
C1516 C1515 1.355 . S
C1516 C1518 1.419 . S
C1517 C1512 1.425 . S
C1517 C1514 1.409 . S
C1517 C1515 1.415 . S
C1518 H1508 0.930 . S
C1518 C1516 1.419 . S
C1518 C1519 1.362 . S
C1519 H1509 0.930 . S
C1519 C1512 1.409 . S
C1519 C1518 1.362 . S
H1520 C1526 0.930 . S
H1521 C1529 0.930 . S
H1522 C1530 0.930 . S
H1523 C1531 0.930 . S
H1524 C1534 0.930 . S
H1525 C1535 0.930 . S
C1526 H1520 0.930 . S
C1526 C1527 1.355 . S
C1526 C1528 1.415 . S
C1527 C1526 1.355 . S
C1527 C1529 1.419 . S
C1528 C1526 1.415 . S
C1528 C1533 1.425 . S
C1528 C1535 1.409 . S
C1529 H1521 0.930 . S
C1529 C1527 1.419 . S
C1529 C1530 1.362 . S
C1530 H1522 0.930 . S
C1530 C1529 1.362 . S
C1530 C1533 1.409 . S
C1531 H1523 0.930 . S
C1531 C1532 1.355 . S
C1531 C1533 1.415 . S
C1532 C1531 1.355 . S
C1532 C1534 1.419 . S
C1533 C1528 1.425 . S
C1533 C1530 1.409 . S
C1533 C1531 1.415 . S
C1534 H1524 0.930 . S
C1534 C1532 1.419 . S
C1534 C1535 1.362 . S
C1535 H1525 0.930 . S
C1535 C1528 1.409 . S
C1535 C1534 1.362 . S
H1536 C1542 0.930 . S
H1537 C1545 0.932 . S
H1538 C1546 0.930 . S
H1539 C1547 0.930 . S
H1540 C1550 0.930 . S
H1541 C1551 0.930 . S
C1542 H1536 0.930 . S
C1542 C1543 1.355 . S
C1542 C1544 1.415 1_565 S
C1543 C1542 1.355 . S
C1543 C1545 1.425 . S
C1544 C1542 1.415 1_545 S
C1544 C1549 1.425 . S
C1544 C1551 1.409 . S
C1545 H1537 0.932 . S
C1545 C1543 1.425 . S
C1545 C1546 1.355 1_565 S
C1546 H1538 0.930 . S
C1546 C1545 1.355 1_545 S
C1546 C1549 1.409 . S
C1547 H1539 0.930 . S
C1547 C1548 1.355 . S
C1547 C1549 1.415 . S
C1548 C1547 1.355 . S
C1548 C1550 1.419 . S
C1549 C1544 1.425 . S
C1549 C1546 1.409 . S
C1549 C1547 1.415 . S
C1550 H1540 0.930 . S
C1550 C1548 1.419 . S
C1550 C1551 1.362 . S
C1551 H1541 0.930 . S
C1551 C1544 1.409 . S
C1551 C1550 1.362 . S
H1552 C1558 0.930 . S
H1553 C1561 0.930 . S
H1554 C1562 0.930 . S
H1555 C1563 0.930 . S
H1556 C1566 0.930 . S
H1557 C1567 0.930 . S
C1558 H1552 0.930 . S
C1558 C1559 1.355 . S
C1558 C1560 1.415 . S
C1559 C1558 1.355 . S
C1559 C1561 1.419 . S
C1560 C1558 1.415 . S
C1560 C1565 1.425 . S
C1560 C1567 1.409 . S
C1561 H1553 0.930 . S
C1561 C1559 1.419 . S
C1561 C1562 1.362 . S
C1562 H1554 0.930 . S
C1562 C1561 1.362 . S
C1562 C1565 1.409 . S
C1563 H1555 0.930 . S
C1563 C1564 1.369 . S
C1563 C1565 1.399 1_655 S
C1564 C1563 1.369 . S
C1564 C1566 1.419 . S
C1565 C1560 1.425 . S
C1565 C1562 1.409 . S
C1565 C1563 1.399 1_455 S
C1566 H1556 0.930 . S
C1566 C1564 1.419 . S
C1566 C1567 1.362 1_655 S
C1567 H1557 0.930 . S
C1567 C1560 1.409 . S
C1567 C1566 1.362 1_455 S
H1568 C1574 0.930 . S
H1569 C1577 0.930 . S
H1570 C1578 0.930 . S
H1571 C1579 0.930 . S
H1572 C1582 0.930 . S
H1573 C1583 0.930 . S
C1574 H1568 0.930 . S
C1574 C1575 1.355 . S
C1574 C1576 1.415 . S
C1575 C1574 1.355 . S
C1575 C1577 1.419 . S
C1576 C1574 1.415 . S
C1576 C1581 1.425 . S
C1576 C1583 1.409 . S
C1577 H1569 0.930 . S
C1577 C1575 1.419 . S
C1577 C1578 1.362 . S
C1578 H1570 0.930 . S
C1578 C1577 1.362 . S
C1578 C1581 1.409 . S
C1579 H1571 0.930 . S
C1579 C1580 1.355 . S
C1579 C1581 1.415 1_545 S
C1580 C1579 1.355 . S
C1580 C1582 1.419 . S
C1581 C1576 1.425 . S
C1581 C1578 1.409 . S
C1581 C1579 1.415 1_565 S
C1582 H1572 0.930 . S
C1582 C1580 1.419 . S
C1582 C1583 1.362 1_545 S
C1583 H1573 0.930 . S
C1583 C1576 1.409 . S
C1583 C1582 1.362 1_565 S
H1584 C1590 0.930 . S
H1585 C1593 0.930 . S
H1586 C1594 0.930 . S
H1587 C1595 0.930 . S
H1588 C1598 0.930 . S
H1589 C1599 0.930 . S
C1590 H1584 0.930 . S
C1590 C1591 1.355 . S
C1590 C1592 1.415 1_455 S
C1591 C1590 1.355 . S
C1591 C1593 1.419 . S
C1592 C1590 1.415 1_655 S
C1592 C1597 1.425 . S
C1592 C1599 1.409 . S
C1593 H1585 0.930 . S
C1593 C1591 1.419 . S
C1593 C1594 1.362 1_455 S
C1594 H1586 0.930 . S
C1594 C1593 1.362 1_655 S
C1594 C1597 1.409 . S
C1595 H1587 0.930 . S
C1595 C1596 1.355 . S
C1595 C1597 1.415 . S
C1596 C1595 1.355 . S
C1596 C1598 1.419 . S
C1597 C1592 1.425 . S
C1597 C1594 1.409 . S
C1597 C1595 1.415 . S
C1598 H1588 0.930 . S
C1598 C1596 1.419 . S
C1598 C1599 1.362 . S
C1599 H1589 0.930 . S
C1599 C1592 1.409 . S
C1599 C1598 1.362 . S
H1600 C1606 0.930 . S
H1601 C1609 0.930 . S
H1602 C1610 0.930 . S
H1603 C1611 0.930 . S
H1604 C1614 0.930 . S
H1605 C1615 0.930 . S
C1606 H1600 0.930 . S
C1606 C1607 1.355 . S
C1606 C1608 1.415 . S
C1607 C1606 1.355 . S
C1607 C1609 1.419 . S
C1608 C1606 1.415 . S
C1608 C1613 1.425 . S
C1608 C1615 1.409 . S
C1609 H1601 0.930 . S
C1609 C1607 1.419 . S
C1609 C1610 1.362 . S
C1610 H1602 0.930 . S
C1610 C1609 1.362 . S
C1610 C1613 1.409 . S
C1611 H1603 0.930 . S
C1611 C1612 1.355 . S
C1611 C1613 1.415 . S
C1612 C1611 1.355 . S
C1612 C1614 1.419 . S
C1613 C1608 1.425 . S
C1613 C1610 1.409 . S
C1613 C1611 1.415 . S
C1614 H1604 0.930 . S
C1614 C1612 1.419 . S
C1614 C1615 1.362 . S
C1615 H1605 0.930 . S
C1615 C1608 1.409 . S
C1615 C1614 1.362 . S
H1616 C1622 0.930 . S
H1617 C1625 0.930 . S
H1618 C1626 0.930 . S
H1619 C1627 0.930 . S
H1620 C1630 0.930 . S
H1621 C1631 0.930 . S
C1622 H1616 0.930 . S
C1622 C1623 1.355 . S
C1622 C1624 1.415 . S
C1623 C1622 1.355 . S
C1623 C1625 1.419 . S
C1624 C1622 1.415 . S
C1624 C1629 1.425 . S
C1624 C1631 1.409 . S
C1625 H1617 0.930 . S
C1625 C1623 1.419 . S
C1625 C1626 1.362 . S
C1626 H1618 0.930 . S
C1626 C1625 1.362 . S
C1626 C1629 1.409 . S
C1627 H1619 0.930 . S
C1627 C1628 1.355 . S
C1627 C1629 1.415 . S
C1628 C1627 1.355 . S
C1628 C1630 1.419 . S
C1629 C1624 1.425 . S
C1629 C1626 1.409 . S
C1629 C1627 1.415 . S
C1630 H1620 0.930 . S
C1630 C1628 1.419 . S
C1630 C1631 1.362 . S
C1631 H1621 0.930 . S
C1631 C1624 1.409 . S
C1631 C1630 1.362 . S
H1632 C1638 0.930 . S
H1633 C1641 0.930 . S
H1634 C1642 0.930 . S
H1635 C1643 0.930 . S
H1636 C1646 0.930 . S
H1637 C1647 0.930 . S
C1638 H1632 0.930 . S
C1638 C1639 1.355 . S
C1638 C1640 1.415 . S
C1639 C1638 1.355 . S
C1639 C1641 1.419 . S
C1640 C1638 1.415 . S
C1640 C1645 1.425 . S
C1640 C1647 1.409 . S
C1641 H1633 0.930 . S
C1641 C1639 1.419 . S
C1641 C1642 1.362 . S
C1642 H1634 0.930 . S
C1642 C1641 1.362 . S
C1642 C1645 1.409 . S
C1643 H1635 0.930 . S
C1643 C1644 1.355 . S
C1643 C1645 1.415 . S
C1644 C1643 1.355 . S
C1644 C1646 1.419 . S
C1645 C1640 1.425 . S
C1645 C1642 1.409 . S
C1645 C1643 1.415 . S
C1646 H1636 0.930 . S
C1646 C1644 1.419 . S
C1646 C1647 1.362 . S
C1647 H1637 0.930 . S
C1647 C1640 1.409 . S
C1647 C1646 1.362 . S
H1648 C1654 0.930 . S
H1649 C1657 0.930 . S
H1650 C1658 0.930 . S
H1651 C1659 0.930 . S
H1652 C1662 0.930 . S
H1653 C1663 0.930 . S
C1654 H1648 0.930 . S
C1654 C1655 1.355 . S
C1654 C1656 1.415 . S
C1655 C1654 1.355 . S
C1655 C1657 1.419 . S
C1656 C1654 1.415 . S
C1656 C1661 1.425 . S
C1656 C1663 1.409 . S
C1657 H1649 0.930 . S
C1657 C1655 1.419 . S
C1657 C1658 1.362 . S
C1658 H1650 0.930 . S
C1658 C1657 1.362 . S
C1658 C1661 1.409 . S
C1659 H1651 0.930 . S
C1659 C1660 1.355 . S
C1659 C1661 1.415 . S
C1660 C1659 1.355 . S
C1660 C1662 1.419 . S
C1661 C1656 1.425 . S
C1661 C1658 1.409 . S
C1661 C1659 1.415 . S
C1662 H1652 0.930 . S
C1662 C1660 1.419 . S
C1662 C1663 1.362 . S
C1663 H1653 0.930 . S
C1663 C1656 1.409 . S
C1663 C1662 1.362 . S
H1664 C1670 0.930 . S
H1665 C1673 0.930 . S
H1666 C1674 0.930 . S
H1667 C1675 0.930 . S
H1668 C1678 0.930 . S
H1669 C1679 0.930 . S
C1670 H1664 0.930 . S
C1670 C1671 1.355 . S
C1670 C1672 1.415 . S
C1671 C1670 1.355 . S
C1671 C1673 1.419 . S
C1672 C1670 1.415 . S
C1672 C1677 1.425 . S
C1672 C1679 1.409 . S
C1673 H1665 0.930 . S
C1673 C1671 1.419 . S
C1673 C1674 1.362 . S
C1674 H1666 0.930 . S
C1674 C1673 1.362 . S
C1674 C1677 1.409 . S
C1675 H1667 0.930 . S
C1675 C1676 1.355 . S
C1675 C1677 1.415 . S
C1676 C1675 1.355 . S
C1676 C1678 1.419 . S
C1677 C1672 1.425 . S
C1677 C1674 1.409 . S
C1677 C1675 1.415 . S
C1678 H1668 0.930 . S
C1678 C1676 1.419 . S
C1678 C1679 1.362 . S
C1679 H1669 0.930 . S
C1679 C1672 1.409 . S
C1679 C1678 1.362 . S
H1680 C1686 0.930 . S
H1681 C1689 0.930 . S
H1682 C1690 0.930 . S
H1683 C1691 0.930 . S
H1684 C1694 0.930 . S
H1685 C1695 0.930 . S
C1686 H1680 0.930 . S
C1686 C1687 1.355 . S
C1686 C1688 1.415 . S
C1687 C1686 1.355 . S
C1687 C1689 1.419 . S
C1688 C1686 1.415 . S
C1688 C1693 1.425 . S
C1688 C1695 1.409 . S
C1689 H1681 0.930 . S
C1689 C1687 1.419 . S
C1689 C1690 1.362 . S
C1690 H1682 0.930 . S
C1690 C1689 1.362 . S
C1690 C1693 1.409 . S
C1691 H1683 0.930 . S
C1691 C1692 1.355 . S
C1691 C1693 1.415 . S
C1692 C1691 1.355 . S
C1692 C1694 1.419 . S
C1693 C1688 1.425 . S
C1693 C1690 1.409 . S
C1693 C1691 1.415 . S
C1694 H1684 0.930 . S
C1694 C1692 1.419 . S
C1694 C1695 1.362 . S
C1695 H1685 0.930 . S
C1695 C1688 1.409 . S
C1695 C1694 1.362 . S
H1696 C1702 0.930 . S
H1697 C1705 0.930 . S
H1698 C1706 0.930 . S
H1699 C1707 0.930 . S
H1700 C1710 0.930 . S
H1701 C1711 0.930 . S
C1702 H1696 0.930 . S
C1702 C1703 1.355 . S
C1702 C1704 1.415 . S
C1703 C1702 1.355 . S
C1703 C1705 1.419 . S
C1704 C1702 1.415 . S
C1704 C1709 1.425 . S
C1704 C1711 1.409 . S
C1705 H1697 0.930 . S
C1705 C1703 1.419 . S
C1705 C1706 1.362 . S
C1706 H1698 0.930 . S
C1706 C1705 1.362 . S
C1706 C1709 1.409 . S
C1707 H1699 0.930 . S
C1707 C1708 1.355 . S
C1707 C1709 1.415 . S
C1708 C1707 1.355 . S
C1708 C1710 1.419 . S
C1709 C1704 1.425 . S
C1709 C1706 1.409 . S
C1709 C1707 1.415 . S
C1710 H1700 0.930 . S
C1710 C1708 1.419 . S
C1710 C1711 1.362 . S
C1711 H1701 0.930 . S
C1711 C1704 1.409 . S
C1711 C1710 1.362 . S
H1712 C1718 0.930 . S
H1713 C1721 0.930 . S
H1714 C1722 0.930 . S
H1715 C1723 0.930 . S
H1716 C1726 0.930 . S
H1717 C1727 0.930 . S
C1718 H1712 0.930 . S
C1718 C1719 1.355 . S
C1718 C1720 1.415 . S
C1719 C1718 1.355 . S
C1719 C1721 1.419 . S
C1720 C1718 1.415 . S
C1720 C1725 1.425 . S
C1720 C1727 1.409 . S
C1721 H1713 0.930 . S
C1721 C1719 1.419 . S
C1721 C1722 1.362 . S
C1722 H1714 0.930 . S
C1722 C1721 1.362 . S
C1722 C1725 1.409 . S
C1723 H1715 0.930 . S
C1723 C1724 1.355 . S
C1723 C1725 1.415 . S
C1724 C1723 1.355 . S
C1724 C1726 1.419 . S
C1725 C1720 1.425 . S
C1725 C1722 1.409 . S
C1725 C1723 1.415 . S
C1726 H1716 0.930 . S
C1726 C1724 1.419 . S
C1726 C1727 1.362 . S
C1727 H1717 0.930 . S
C1727 C1720 1.409 . S
C1727 C1726 1.362 . S
H1728 C1734 0.930 . S
H1729 C1737 0.930 . S
H1730 C1738 0.930 . S
H1731 C1739 0.930 . S
H1732 C1742 0.930 . S
H1733 C1743 0.930 . S
C1734 H1728 0.930 . S
C1734 C1735 1.355 . S
C1734 C1736 1.415 . S
C1735 C1734 1.355 . S
C1735 C1737 1.419 . S
C1736 C1734 1.415 . S
C1736 C1741 1.425 . S
C1736 C1743 1.409 . S
C1737 H1729 0.930 . S
C1737 C1735 1.419 . S
C1737 C1738 1.362 . S
C1738 H1730 0.930 . S
C1738 C1737 1.362 . S
C1738 C1741 1.409 . S
C1739 H1731 0.930 . S
C1739 C1740 1.355 . S
C1739 C1741 1.415 . S
C1740 C1739 1.355 . S
C1740 C1742 1.419 . S
C1741 C1736 1.425 . S
C1741 C1738 1.409 . S
C1741 C1739 1.415 . S
C1742 H1732 0.930 . S
C1742 C1740 1.419 . S
C1742 C1743 1.362 . S
C1743 H1733 0.930 . S
C1743 C1736 1.409 . S
C1743 C1742 1.362 . S
H1744 C1750 0.930 . S
H1745 C1753 0.930 . S
H1746 C1754 0.930 . S
H1747 C1755 0.930 . S
H1748 C1758 0.930 . S
H1749 C1759 0.930 . S
C1750 H1744 0.930 . S
C1750 C1751 1.355 . S
C1750 C1752 1.415 . S
C1751 C1750 1.355 . S
C1751 C1753 1.419 . S
C1752 C1750 1.415 . S
C1752 C1757 1.425 . S
C1752 C1759 1.409 . S
C1753 H1745 0.930 . S
C1753 C1751 1.419 . S
C1753 C1754 1.362 . S
C1754 H1746 0.930 . S
C1754 C1753 1.362 . S
C1754 C1757 1.409 . S
C1755 H1747 0.930 . S
C1755 C1756 1.355 . S
C1755 C1757 1.415 . S
C1756 C1755 1.355 . S
C1756 C1758 1.419 . S
C1757 C1752 1.425 . S
C1757 C1754 1.409 . S
C1757 C1755 1.415 . S
C1758 H1748 0.930 . S
C1758 C1756 1.419 . S
C1758 C1759 1.362 . S
C1759 H1749 0.930 . S
C1759 C1752 1.409 . S
C1759 C1758 1.362 . S
H1760 C1766 0.930 . S
H1761 C1769 0.930 1_554 S
H1762 C1770 0.930 . S
H1763 C1771 0.930 . S
H1764 C1774 0.930 . S
H1765 C1775 0.930 . S
C1766 H1760 0.930 . S
C1766 C1767 1.355 . S
C1766 C1768 1.415 . S
C1767 C1766 1.355 . S
C1767 C1769 1.419 . S
C1768 C1766 1.415 . S
C1768 C1773 1.425 . S
C1768 C1775 1.409 . S
C1769 H1761 0.930 1_556 S
C1769 C1767 1.419 . S
C1769 C1770 1.362 . S
C1770 H1762 0.930 . S
C1770 C1769 1.362 . S
C1770 C1773 1.409 . S
C1771 H1763 0.930 . S
C1771 C1772 1.355 . S
C1771 C1773 1.415 . S
C1772 C1771 1.355 . S
C1772 C1774 1.419 . S
C1773 C1768 1.425 . S
C1773 C1770 1.409 . S
C1773 C1771 1.415 . S
C1774 H1764 0.930 . S
C1774 C1772 1.419 . S
C1774 C1775 1.362 . S
C1775 H1765 0.930 . S
C1775 C1768 1.409 . S
C1775 C1774 1.362 . S
H1776 C1782 0.930 . S
H1777 C1785 0.930 . S
H1778 C1786 0.930 . S
H1779 C1787 0.930 . S
H1780 C1790 0.930 . S
H1781 C1791 0.930 . S
C1782 H1776 0.930 . S
C1782 C1783 1.355 . S
C1782 C1784 1.415 . S
C1783 C1782 1.355 . S
C1783 C1785 1.419 . S
C1784 C1782 1.415 . S
C1784 C1789 1.425 . S
C1784 C1791 1.409 . S
C1785 H1777 0.930 . S
C1785 C1783 1.419 . S
C1785 C1786 1.362 . S
C1786 H1778 0.930 . S
C1786 C1785 1.362 . S
C1786 C1789 1.409 . S
C1787 H1779 0.930 . S
C1787 C1788 1.355 . S
C1787 C1789 1.415 . S
C1788 C1787 1.355 . S
C1788 C1790 1.419 . S
C1789 C1784 1.425 . S
C1789 C1786 1.409 . S
C1789 C1787 1.415 . S
C1790 H1780 0.930 . S
C1790 C1788 1.419 . S
C1790 C1791 1.362 . S
C1791 H1781 0.930 . S
C1791 C1784 1.409 . S
C1791 C1790 1.362 . S
H1792 C1798 0.930 . S
H1793 C1801 0.930 . S
H1794 C1802 0.930 . S
H1795 C1803 0.930 . S
H1796 C1806 0.930 . S
H1797 C1807 0.930 . S
C1798 H1792 0.930 . S
C1798 C1799 1.355 . S
C1798 C1800 1.415 . S
C1799 C1798 1.355 . S
C1799 C1801 1.419 . S
C1800 C1798 1.415 . S
C1800 C1805 1.425 . S
C1800 C1807 1.409 . S
C1801 H1793 0.930 . S
C1801 C1799 1.419 . S
C1801 C1802 1.362 . S
C1802 H1794 0.930 . S
C1802 C1801 1.362 . S
C1802 C1805 1.409 . S
C1803 H1795 0.930 . S
C1803 C1804 1.355 . S
C1803 C1805 1.415 . S
C1804 C1803 1.355 . S
C1804 C1806 1.419 . S
C1805 C1800 1.425 . S
C1805 C1802 1.409 . S
C1805 C1803 1.415 . S
C1806 H1796 0.930 . S
C1806 C1804 1.419 . S
C1806 C1807 1.362 . S
C1807 H1797 0.930 . S
C1807 C1800 1.409 . S
C1807 C1806 1.362 . S
H1808 C1814 0.930 . S
H1809 C1817 0.930 . S
H1810 C1818 0.930 . S
H1811 C1819 0.930 . S
H1812 C1822 0.930 . S
H1813 C1823 0.930 . S
C1814 H1808 0.930 . S
C1814 C1815 1.355 . S
C1814 C1816 1.415 . S
C1815 C1814 1.355 . S
C1815 C1817 1.419 . S
C1816 C1814 1.415 . S
C1816 C1821 1.425 . S
C1816 C1823 1.409 . S
C1817 H1809 0.930 . S
C1817 C1815 1.419 . S
C1817 C1818 1.362 . S
C1818 H1810 0.930 . S
C1818 C1817 1.362 . S
C1818 C1821 1.409 . S
C1819 H1811 0.930 . S
C1819 C1820 1.355 . S
C1819 C1821 1.415 . S
C1820 C1819 1.355 . S
C1820 C1822 1.419 . S
C1821 C1816 1.425 . S
C1821 C1818 1.409 . S
C1821 C1819 1.415 . S
C1822 H1812 0.930 . S
C1822 C1820 1.419 . S
C1822 C1823 1.362 . S
C1823 H1813 0.930 . S
C1823 C1816 1.409 . S
C1823 C1822 1.362 . S
H1824 C1830 0.930 . S
H1825 C1833 0.930 . S
H1826 C1834 0.930 . S
H1827 C1835 0.930 . S
H1828 C1838 0.930 . S
H1829 C1839 0.930 . S
C1830 H1824 0.930 . S
C1830 C1831 1.355 . S
C1830 C1832 1.415 . S
C1831 C1830 1.355 . S
C1831 C1833 1.419 . S
C1832 C1830 1.415 . S
C1832 C1837 1.425 . S
C1832 C1839 1.409 . S
C1833 H1825 0.930 . S
C1833 C1831 1.419 . S
C1833 C1834 1.362 . S
C1834 H1826 0.930 . S
C1834 C1833 1.362 . S
C1834 C1837 1.409 . S
C1835 H1827 0.930 . S
C1835 C1836 1.355 . S
C1835 C1837 1.415 . S
C1836 C1835 1.355 . S
C1836 C1838 1.419 . S
C1837 C1832 1.425 . S
C1837 C1834 1.409 . S
C1837 C1835 1.415 . S
C1838 H1828 0.930 . S
C1838 C1836 1.419 . S
C1838 C1839 1.362 . S
C1839 H1829 0.930 . S
C1839 C1832 1.409 . S
C1839 C1838 1.362 . S
H1840 C1846 0.930 . S
H1841 C1849 0.930 . S
H1842 C1850 0.930 . S
H1843 C1851 0.930 . S
H1844 C1854 0.930 . S
H1845 C1855 0.930 . S
C1846 H1840 0.930 . S
C1846 C1847 1.355 . S
C1846 C1848 1.415 . S
C1847 C1846 1.355 . S
C1847 C1849 1.419 . S
C1848 C1846 1.415 . S
C1848 C1853 1.425 . S
C1848 C1855 1.409 . S
C1849 H1841 0.930 . S
C1849 C1847 1.419 . S
C1849 C1850 1.362 . S
C1850 H1842 0.930 . S
C1850 C1849 1.362 . S
C1850 C1853 1.409 . S
C1851 H1843 0.930 . S
C1851 C1852 1.355 . S
C1851 C1853 1.415 . S
C1852 C1851 1.355 . S
C1852 C1854 1.419 . S
C1853 C1848 1.425 . S
C1853 C1850 1.409 . S
C1853 C1851 1.415 . S
C1854 H1844 0.930 . S
C1854 C1852 1.419 . S
C1854 C1855 1.362 . S
C1855 H1845 0.930 . S
C1855 C1848 1.409 . S
C1855 C1854 1.362 . S
H1856 C1862 0.930 . S
H1857 C1865 0.930 . S
H1858 C1866 0.930 . S
H1859 C1867 0.930 . S
H1860 C1870 0.930 . S
H1861 C1871 0.930 . S
C1862 H1856 0.930 . S
C1862 C1863 1.355 . S
C1862 C1864 1.415 . S
C1863 C1862 1.355 . S
C1863 C1865 1.419 . S
C1864 C1862 1.415 . S
C1864 C1869 1.425 . S
C1864 C1871 1.409 . S
C1865 H1857 0.930 . S
C1865 C1863 1.419 . S
C1865 C1866 1.362 . S
C1866 H1858 0.930 . S
C1866 C1865 1.362 . S
C1866 C1869 1.409 . S
C1867 H1859 0.930 . S
C1867 C1868 1.355 . S
C1867 C1869 1.415 . S
C1868 C1867 1.355 . S
C1868 C1870 1.419 . S
C1869 C1864 1.425 . S
C1869 C1866 1.409 . S
C1869 C1867 1.415 . S
C1870 H1860 0.930 . S
C1870 C1868 1.419 . S
C1870 C1871 1.362 . S
C1871 H1861 0.930 . S
C1871 C1864 1.409 . S
C1871 C1870 1.362 . S
H1872 C1878 0.930 . S
H1873 C1881 0.930 . S
H1874 C1882 0.930 . S
H1875 C1883 0.930 . S
H1876 C1886 0.930 . S
H1877 C1887 0.930 . S
C1878 H1872 0.930 . S
C1878 C1879 1.355 . S
C1878 C1880 1.415 . S
C1879 C1878 1.355 . S
C1879 C1881 1.419 . S
C1880 C1878 1.415 . S
C1880 C1885 1.425 . S
C1880 C1887 1.409 . S
C1881 H1873 0.930 . S
C1881 C1879 1.419 . S
C1881 C1882 1.362 . S
C1882 H1874 0.930 . S
C1882 C1881 1.362 . S
C1882 C1885 1.409 . S
C1883 H1875 0.930 . S
C1883 C1884 1.355 . S
C1883 C1885 1.415 . S
C1884 C1883 1.355 . S
C1884 C1886 1.419 . S
C1885 C1880 1.425 . S
C1885 C1882 1.409 . S
C1885 C1883 1.415 . S
C1886 H1876 0.930 . S
C1886 C1884 1.419 . S
C1886 C1887 1.362 . S
C1887 H1877 0.930 . S
C1887 C1880 1.409 . S
C1887 C1886 1.362 . S
H1888 C1894 0.930 . S
H1889 C1897 0.930 . S
H1890 C1898 0.930 . S
H1891 C1899 0.930 . S
H1892 C1902 0.930 . S
H1893 C1903 0.930 . S
C1894 H1888 0.930 . S
C1894 C1895 1.355 . S
C1894 C1896 1.415 . S
C1895 C1894 1.355 . S
C1895 C1897 1.419 . S
C1896 C1894 1.415 . S
C1896 C1901 1.425 . S
C1896 C1903 1.409 . S
C1897 H1889 0.930 . S
C1897 C1895 1.419 . S
C1897 C1898 1.362 . S
C1898 H1890 0.930 . S
C1898 C1897 1.362 . S
C1898 C1901 1.409 . S
C1899 H1891 0.930 . S
C1899 C1900 1.355 . S
C1899 C1901 1.415 . S
C1900 C1899 1.355 . S
C1900 C1902 1.419 . S
C1901 C1896 1.425 . S
C1901 C1898 1.409 . S
C1901 C1899 1.415 . S
C1902 H1892 0.930 . S
C1902 C1900 1.419 . S
C1902 C1903 1.362 . S
C1903 H1893 0.930 . S
C1903 C1896 1.409 . S
C1903 C1902 1.362 . S
H1904 C1910 0.930 . S
H1905 C1913 0.930 . S
H1906 C1914 0.930 . S
H1907 C1915 0.930 . S
H1908 C1918 0.930 . S
H1909 C1919 0.930 . S
C1910 H1904 0.930 . S
C1910 C1911 1.355 . S
C1910 C1912 1.415 . S
C1911 C1910 1.355 . S
C1911 C1913 1.419 . S
C1912 C1910 1.415 . S
C1912 C1917 1.425 . S
C1912 C1919 1.409 . S
C1913 H1905 0.930 . S
C1913 C1911 1.419 . S
C1913 C1914 1.362 . S
C1914 H1906 0.930 . S
C1914 C1913 1.362 . S
C1914 C1917 1.409 . S
C1915 H1907 0.930 . S
C1915 C1916 1.355 . S
C1915 C1917 1.415 . S
C1916 C1915 1.355 . S
C1916 C1918 1.419 . S
C1917 C1912 1.425 . S
C1917 C1914 1.409 . S
C1917 C1915 1.415 . S
C1918 H1908 0.930 . S
C1918 C1916 1.419 . S
C1918 C1919 1.362 . S
C1919 H1909 0.930 . S
C1919 C1912 1.409 . S
C1919 C1918 1.362 . S
H1920 C1926 0.930 . S
H1921 C1929 0.930 . S
H1922 C1930 0.930 . S
H1923 C1931 0.930 . S
H1924 C1934 0.930 . S
H1925 C1935 0.930 . S
C1926 H1920 0.930 . S
C1926 C1927 1.355 . S
C1926 C1928 1.415 . S
C1927 C1926 1.355 . S
C1927 C1929 1.419 . S
C1928 C1926 1.415 . S
C1928 C1933 1.425 . S
C1928 C1935 1.409 . S
C1929 H1921 0.930 . S
C1929 C1927 1.419 . S
C1929 C1930 1.362 . S
C1930 H1922 0.930 . S
C1930 C1929 1.362 . S
C1930 C1933 1.409 . S
C1931 H1923 0.930 . S
C1931 C1932 1.355 . S
C1931 C1933 1.415 . S
C1932 C1931 1.355 . S
C1932 C1934 1.419 . S
C1933 C1928 1.425 . S
C1933 C1930 1.409 . S
C1933 C1931 1.415 . S
C1934 H1924 0.930 . S
C1934 C1932 1.419 . S
C1934 C1935 1.362 . S
C1935 H1925 0.930 . S
C1935 C1928 1.409 . S
C1935 C1934 1.362 . S
H1936 C1942 0.930 . S
H1937 C1945 0.930 . S
H1938 C1946 0.930 . S
H1939 C1947 0.930 . S
H1940 C1950 0.930 . S
H1941 C1951 0.930 . S
C1942 H1936 0.930 . S
C1942 C1943 1.355 . S
C1942 C1944 1.415 . S
C1943 C1942 1.355 . S
C1943 C1945 1.419 . S
C1944 C1942 1.415 . S
C1944 C1949 1.425 . S
C1944 C1951 1.409 . S
C1945 H1937 0.930 . S
C1945 C1943 1.419 . S
C1945 C1946 1.362 . S
C1946 H1938 0.930 . S
C1946 C1945 1.362 . S
C1946 C1949 1.409 . S
C1947 H1939 0.930 . S
C1947 C1948 1.355 . S
C1947 C1949 1.415 . S
C1948 C1947 1.355 . S
C1948 C1950 1.419 . S
C1949 C1944 1.425 . S
C1949 C1946 1.409 . S
C1949 C1947 1.415 . S
C1950 H1940 0.930 . S
C1950 C1948 1.419 . S
C1950 C1951 1.362 . S
C1951 H1941 0.930 . S
C1951 C1944 1.409 . S
C1951 C1950 1.362 . S
H1952 C1958 0.930 . S
H1953 C1961 0.930 . S
H1954 C1962 0.930 . S
H1955 C1963 0.930 . S
H1956 C1966 0.930 . S
H1957 C1967 0.930 . S
C1958 H1952 0.930 . S
C1958 C1959 1.355 . S
C1958 C1960 1.415 . S
C1959 C1958 1.355 . S
C1959 C1961 1.419 . S
C1960 C1958 1.415 . S
C1960 C1965 1.425 . S
C1960 C1967 1.409 . S
C1961 H1953 0.930 . S
C1961 C1959 1.419 . S
C1961 C1962 1.362 . S
C1962 H1954 0.930 . S
C1962 C1961 1.362 . S
C1962 C1965 1.409 . S
C1963 H1955 0.930 . S
C1963 C1964 1.355 . S
C1963 C1965 1.415 . S
C1964 C1963 1.355 . S
C1964 C1966 1.419 . S
C1965 C1960 1.425 . S
C1965 C1962 1.409 . S
C1965 C1963 1.415 . S
C1966 H1956 0.930 . S
C1966 C1964 1.419 . S
C1966 C1967 1.362 . S
C1967 H1957 0.930 . S
C1967 C1960 1.409 . S
C1967 C1966 1.362 . S
H1968 C1974 0.930 . S
H1969 C1977 0.930 . S
H1970 C1978 0.930 . S
H1971 C1979 0.930 . S
H1972 C1982 0.930 . S
H1973 C1983 0.930 . S
C1974 H1968 0.930 . S
C1974 C1975 1.355 . S
C1974 C1976 1.415 . S
C1975 C1974 1.355 . S
C1975 C1977 1.419 . S
C1976 C1974 1.415 . S
C1976 C1981 1.425 . S
C1976 C1983 1.409 . S
C1977 H1969 0.930 . S
C1977 C1975 1.419 . S
C1977 C1978 1.362 . S
C1978 H1970 0.930 . S
C1978 C1977 1.362 . S
C1978 C1981 1.409 . S
C1979 H1971 0.930 . S
C1979 C1980 1.355 . S
C1979 C1981 1.415 . S
C1980 C1979 1.355 . S
C1980 C1982 1.419 . S
C1981 C1976 1.425 . S
C1981 C1978 1.409 . S
C1981 C1979 1.415 . S
C1982 H1972 0.930 . S
C1982 C1980 1.419 . S
C1982 C1983 1.362 . S
C1983 H1973 0.930 . S
C1983 C1976 1.409 . S
C1983 C1982 1.362 . S
H1984 C1990 0.930 . S
H1985 C1993 0.930 1_556 S
H1986 C1994 0.930 . S
H1987 C1995 0.930 . S
H1988 C1998 0.930 . S
H1989 C1999 0.930 . S
C1990 H1984 0.930 . S
C1990 C1991 1.355 . S
C1990 C1992 1.415 . S
C1991 C1990 1.355 . S
C1991 C1993 1.419 . S
C1992 C1990 1.415 . S
C1992 C1997 1.425 . S
C1992 C1999 1.409 . S
C1993 H1985 0.930 1_554 S
C1993 C1991 1.419 . S
C1993 C1994 1.362 . S
C1994 H1986 0.930 . S
C1994 C1993 1.362 . S
C1994 C1997 1.409 . S
C1995 H1987 0.930 . S
C1995 C1996 1.355 . S
C1995 C1997 1.415 . S
C1996 C1995 1.355 . S
C1996 C1998 1.419 . S
C1997 C1992 1.425 . S
C1997 C1994 1.409 . S
C1997 C1995 1.415 . S
C1998 H1988 0.930 . S
C1998 C1996 1.419 . S
C1998 C1999 1.362 . S
C1999 H1989 0.930 . S
C1999 C1992 1.409 . S
C1999 C1998 1.362 . S
H2000 C2006 0.930 . S
H2001 C2009 0.930 . S
H2002 C2010 0.930 . S
H2003 C2011 0.930 . S
H2004 C2014 0.930 . S
H2005 C2015 0.930 . S
C2006 H2000 0.930 . S
C2006 C2007 1.355 . S
C2006 C2008 1.415 . S
C2007 C2006 1.355 . S
C2007 C2009 1.419 . S
C2008 C2006 1.415 . S
C2008 C2013 1.425 . S
C2008 C2015 1.409 . S
C2009 H2001 0.930 . S
C2009 C2007 1.419 . S
C2009 C2010 1.362 . S
C2010 H2002 0.930 . S
C2010 C2009 1.362 . S
C2010 C2013 1.409 . S
C2011 H2003 0.930 . S
C2011 C2012 1.355 . S
C2011 C2013 1.415 . S
C2012 C2011 1.355 . S
C2012 C2014 1.419 . S
C2013 C2008 1.425 . S
C2013 C2010 1.409 . S
C2013 C2011 1.415 . S
C2014 H2004 0.930 . S
C2014 C2012 1.419 . S
C2014 C2015 1.362 . S
C2015 H2005 0.930 . S
C2015 C2008 1.409 . S
C2015 C2014 1.362 . S
H2016 C2022 0.930 . S
H2017 C2025 0.930 . S
H2018 C2026 0.930 . S
H2019 C2027 0.930 . S
H2020 C2030 0.930 . S
H2021 C2031 0.930 . S
C2022 H2016 0.930 . S
C2022 C2023 1.355 . S
C2022 C2024 1.415 . S
C2023 C2022 1.355 . S
C2023 C2025 1.419 . S
C2024 C2022 1.415 . S
C2024 C2029 1.425 . S
C2024 C2031 1.409 . S
C2025 H2017 0.930 . S
C2025 C2023 1.419 . S
C2025 C2026 1.362 . S
C2026 H2018 0.930 . S
C2026 C2025 1.362 . S
C2026 C2029 1.409 . S
C2027 H2019 0.930 . S
C2027 C2028 1.355 . S
C2027 C2029 1.415 . S
C2028 C2027 1.355 . S
C2028 C2030 1.419 . S
C2029 C2024 1.425 . S
C2029 C2026 1.409 . S
C2029 C2027 1.415 . S
C2030 H2020 0.930 . S
C2030 C2028 1.419 . S
C2030 C2031 1.362 . S
C2031 H2021 0.930 . S
C2031 C2024 1.409 . S
C2031 C2030 1.362 . S
H2032 C2038 0.930 . S
H2033 C2041 0.930 1_554 S
H2034 C2042 0.930 . S
H2035 C2043 0.930 . S
H2036 C2046 0.930 . S
H2037 C2047 0.930 . S
C2038 H2032 0.930 . S
C2038 C2039 1.355 . S
C2038 C2040 1.415 . S
C2039 C2038 1.355 . S
C2039 C2041 1.419 . S
C2040 C2038 1.415 . S
C2040 C2045 1.425 . S
C2040 C2047 1.409 . S
C2041 H2033 0.930 1_556 S
C2041 C2039 1.419 . S
C2041 C2042 1.362 . S
C2042 H2034 0.930 . S
C2042 C2041 1.362 . S
C2042 C2045 1.409 . S
C2043 H2035 0.930 . S
C2043 C2044 1.355 . S
C2043 C2045 1.415 . S
C2044 C2043 1.355 . S
C2044 C2046 1.419 . S
C2045 C2040 1.425 . S
C2045 C2042 1.409 . S
C2045 C2043 1.415 . S
C2046 H2036 0.930 . S
C2046 C2044 1.419 . S
C2046 C2047 1.362 . S
C2047 H2037 0.930 . S
C2047 C2040 1.409 . S
C2047 C2046 1.362 . S
H2048 C2054 0.930 . S
H2049 C2057 0.930 . S
H2050 C2058 0.930 . S
H2051 C2059 0.930 . S
H2052 C2062 0.930 1_556 S
H2053 C2063 0.930 . S
C2054 H2048 0.930 . S
C2054 C2055 1.355 . S
C2054 C2056 1.415 . S
C2055 C2054 1.355 . S
C2055 C2057 1.419 . S
C2056 C2054 1.415 . S
C2056 C2061 1.425 . S
C2056 C2063 1.409 . S
C2057 H2049 0.930 . S
C2057 C2055 1.419 . S
C2057 C2058 1.362 . S
C2058 H2050 0.930 . S
C2058 C2057 1.362 . S
C2058 C2061 1.409 . S
C2059 H2051 0.930 . S
C2059 C2060 1.355 . S
C2059 C2061 1.415 . S
C2060 C2059 1.355 . S
C2060 C2062 1.419 . S
C2061 C2056 1.425 . S
C2061 C2058 1.409 . S
C2061 C2059 1.415 . S
C2062 H2052 0.930 1_554 S
C2062 C2060 1.419 . S
C2062 C2063 1.362 . S
C2063 H2053 0.930 . S
C2063 C2056 1.409 . S
C2063 C2062 1.362 . S
H2064 C2070 0.930 . S
H2065 C2073 0.930 . S
H2066 C2074 0.930 . S
H2067 C2075 0.930 . S
H2068 C2078 0.930 . S
H2069 C2079 0.930 . S
C2070 H2064 0.930 . S
C2070 C2071 1.355 . S
C2070 C2072 1.415 . S
C2071 C2070 1.355 . S
C2071 C2073 1.419 . S
C2072 C2070 1.415 . S
C2072 C2077 1.425 . S
C2072 C2079 1.409 . S
C2073 H2065 0.930 . S
C2073 C2071 1.419 . S
C2073 C2074 1.362 . S
C2074 H2066 0.930 . S
C2074 C2073 1.362 . S
C2074 C2077 1.409 . S
C2075 H2067 0.930 . S
C2075 C2076 1.355 . S
C2075 C2077 1.415 . S
C2076 C2075 1.355 . S
C2076 C2078 1.419 . S
C2077 C2072 1.425 . S
C2077 C2074 1.409 . S
C2077 C2075 1.415 . S
C2078 H2068 0.930 . S
C2078 C2076 1.419 . S
C2078 C2079 1.362 . S
C2079 H2069 0.930 . S
C2079 C2072 1.409 . S
C2079 C2078 1.362 . S
H2080 C2086 0.930 . S
H2081 C2089 0.930 1_556 S
H2082 C2090 0.930 . S
H2083 C2091 0.930 . S
H2084 C2094 0.930 . S
H2085 C2095 0.930 . S
C2086 H2080 0.930 . S
C2086 C2087 1.355 . S
C2086 C2088 1.415 . S
C2087 C2086 1.355 . S
C2087 C2089 1.419 . S
C2088 C2086 1.415 . S
C2088 C2093 1.425 . S
C2088 C2095 1.409 . S
C2089 H2081 0.930 1_554 S
C2089 C2087 1.419 . S
C2089 C2090 1.362 . S
C2090 H2082 0.930 . S
C2090 C2089 1.362 . S
C2090 C2093 1.409 . S
C2091 H2083 0.930 . S
C2091 C2092 1.355 . S
C2091 C2093 1.415 . S
C2092 C2091 1.355 . S
C2092 C2094 1.419 . S
C2093 C2088 1.425 . S
C2093 C2090 1.409 . S
C2093 C2091 1.415 . S
C2094 H2084 0.930 . S
C2094 C2092 1.419 . S
C2094 C2095 1.362 . S
C2095 H2085 0.930 . S
C2095 C2088 1.409 . S
C2095 C2094 1.362 . S
H2096 C2102 0.930 . S
H2097 C2105 0.930 . S
H2098 C2106 0.930 . S
H2099 C2107 0.930 . S
H2100 C2110 0.930 1_554 S
H2101 C2111 0.930 . S
C2102 H2096 0.930 . S
C2102 C2103 1.355 . S
C2102 C2104 1.415 . S
C2103 C2102 1.355 . S
C2103 C2105 1.419 . S
C2104 C2102 1.415 . S
C2104 C2109 1.425 . S
C2104 C2111 1.409 . S
C2105 H2097 0.930 . S
C2105 C2103 1.419 . S
C2105 C2106 1.362 . S
C2106 H2098 0.930 . S
C2106 C2105 1.362 . S
C2106 C2109 1.409 . S
C2107 H2099 0.930 . S
C2107 C2108 1.355 . S
C2107 C2109 1.415 . S
C2108 C2107 1.355 . S
C2108 C2110 1.419 . S
C2109 C2104 1.425 . S
C2109 C2106 1.409 . S
C2109 C2107 1.415 . S
C2110 H2100 0.930 1_556 S
C2110 C2108 1.419 . S
C2110 C2111 1.362 . S
C2111 H2101 0.930 . S
C2111 C2104 1.409 . S
C2111 C2110 1.362 . S
C1351 C979 1.675 . S
C1356 C56 1.657 . S
C1367 C739 1.673 . S
C1372 C152 1.674 . S
C1383 C224 1.661 . S
C1388 C811 1.676 . S
C1399 C320 1.649 . S
C1404 C907 1.669 . S
C1415 C392 1.656 . S
C1420 C475 1.675 . S
C1431 C571 1.667 . S
C1436 C488 1.648 . S
C1447 C560 1.652 . S
C1452 C643 1.660 . S
C1463 C403 1.668 . S
C1468 C656 1.675 . S
C1479 C307 1.663 . S
C1484 C728 1.649 . S
C1495 C824 1.648 . S
C1500 C67 1.666 . S
C1511 C139 1.660 . S
C1516 C896 1.662 . S
C1527 C235 1.672 . S
C1532 C992 1.675 . S
C1543 C1064 1.649 . S
C1548 C1147 1.663 . S
C1559 C1243 1.667 . S
C1564 C1160 1.675 . S
C1575 C1315 1.665 . S
C1580 C1232 1.648 . S
C1591 C1328 1.650 . S
C1596 C1075 1.671 . S
C1607 C68 1.408 . S
C1612 C404 1.410 . S
C1623 C476 1.377 . S
C1628 C140 1.388 . S
C1639 C236 1.327 . S
C1644 C572 1.340 . S
C1655 C308 1.357 . S
C1660 C644 1.370 . S
C1671 C740 1.406 . S
C1676 C1076 1.409 . S
C1687 C1148 1.406 . S
C1692 C812 1.409 . S
C1703 C908 1.397 . S
C1708 C1244 1.388 . S
C1719 C980 1.395 . S
C1724 C1316 1.403 . S
C1735 C1231 2.261 . S
C1740 C55 2.287 1_556 S
C1751 C151 2.279 1_554 S
C1756 C1327 2.304 . S
C1767 C223 2.313 1_556 S
C1772 C1063 2.301 . S
C1783 C319 2.292 1_554 S
C1788 C1159 2.266 . S
C1799 C391 2.272 . S
C1804 C895 2.254 . S
C1815 C487 2.256 . S
C1820 C991 2.278 . S
C1831 C559 2.253 . S
C1836 C727 2.271 . S
C1847 C823 2.254 . S
C1852 C655 2.273 . S
C1863 C70 1.031 . S
C1868 C58 1.031 . S
C1879 C142 1.190 . S
C1884 C154 1.190 . S
C1895 C238 1.196 . S
C1900 C226 1.196 . S
C1911 C322 1.033 . S
C1916 C310 1.033 . S
C1927 C394 1.146 . S
C1932 C406 1.146 . S
C1943 C478 1.026 . S
C1948 C490 1.026 . S
C1959 C574 1.195 . S
C1964 C562 1.195 . S
C1975 C658 1.193 . S
C1980 C646 1.193 . S
C1991 C742 1.050 1_554 S
C1996 C730 1.050 . S
C2007 C826 1.196 . S
C2012 C814 1.196 1_556 S
C2023 C898 1.024 . S
C2028 C910 1.024 1_554 S
C2039 C982 1.038 1_556 S
C2044 C994 1.038 . S
C2055 C1078 1.020 . S
C2060 C1066 1.020 1_554 S
C2071 C1162 1.126 1_556 S
C2076 C1150 1.126 . S
C2087 C1234 1.063 1_554 S
C2092 C1246 1.063 . S
C2103 C1318 1.079 . S
C2108 C1330 1.079 1_556 S
