# Generated by pormake.
# Topology smm, (6)-cn, num edge types: 1
# Building blocks:
#     Node 0, Type 0, BuildingBlock: BETDAH_clean_sbu_0, # of connection points: 6
#     Node 1, Type 0, BuildingBlock: BETDAH_clean_sbu_0, # of connection points: 6
#     Node 2, Type 0, BuildingBlock: BETDAH_clean_sbu_0, # of connection points: 6
#     Node 3, Type 0, BuildingBlock: BETDAH_clean_sbu_0, # of connection points: 6
#     Node 4, Type 0, BuildingBlock: BETDAH_clean_sbu_0, # of connection points: 6
#     Node 5, Type 0, BuildingBlock: BETDAH_clean_sbu_0, # of connection points: 6
#     Node 6, Type 0, BuildingBlock: BETDAH_clean_sbu_0, # of connection points: 6
#     Node 7, Type 0, BuildingBlock: BETDAH_clean_sbu_0, # of connection points: 6
#     Node 8, Type 0, BuildingBlock: BETDAH_clean_sbu_0, # of connection points: 6
#     Edge 9, Type (0, 0), BuildingBlock: OJICUG_clean_linker_0, # of connection points: 2
#     Edge 10, Type (0, 0), BuildingBlock: OJICUG_clean_linker_0, # of connection points: 2
#     Edge 11, Type (0, 0), BuildingBlock: OJICUG_clean_linker_0, # of connection points: 2
#     Edge 12, Type (0, 0), BuildingBlock: OJICUG_clean_linker_0, # of connection points: 2
#     Edge 13, Type (0, 0), BuildingBlock: OJICUG_clean_linker_0, # of connection points: 2
#     Edge 14, Type (0, 0), BuildingBlock: OJICUG_clean_linker_0, # of connection points: 2
#     Edge 15, Type (0, 0), BuildingBlock: OJICUG_clean_linker_0, # of connection points: 2
#     Edge 16, Type (0, 0), BuildingBlock: OJICUG_clean_linker_0, # of connection points: 2
#     Edge 17, Type (0, 0), BuildingBlock: OJICUG_clean_linker_0, # of connection points: 2
#     Edge 18, Type (0, 0), BuildingBlock: OJICUG_clean_linker_0, # of connection points: 2
#     Edge 19, Type (0, 0), BuildingBlock: OJICUG_clean_linker_0, # of connection points: 2
#     Edge 20, Type (0, 0), BuildingBlock: OJICUG_clean_linker_0, # of connection points: 2
#     Edge 21, Type (0, 0), BuildingBlock: OJICUG_clean_linker_0, # of connection points: 2
#     Edge 22, Type (0, 0), BuildingBlock: OJICUG_clean_linker_0, # of connection points: 2
#     Edge 23, Type (0, 0), BuildingBlock: OJICUG_clean_linker_0, # of connection points: 2
#     Edge 24, Type (0, 0), BuildingBlock: OJICUG_clean_linker_0, # of connection points: 2
#     Edge 25, Type (0, 0), BuildingBlock: OJICUG_clean_linker_0, # of connection points: 2
#     Edge 26, Type (0, 0), BuildingBlock: OJICUG_clean_linker_0, # of connection points: 2
#     Edge 27, Type (0, 0), BuildingBlock: OJICUG_clean_linker_0, # of connection points: 2
#     Edge 28, Type (0, 0), BuildingBlock: OJICUG_clean_linker_0, # of connection points: 2
#     Edge 29, Type (0, 0), BuildingBlock: OJICUG_clean_linker_0, # of connection points: 2
#     Edge 30, Type (0, 0), BuildingBlock: OJICUG_clean_linker_0, # of connection points: 2
#     Edge 31, Type (0, 0), BuildingBlock: OJICUG_clean_linker_0, # of connection points: 2
#     Edge 32, Type (0, 0), BuildingBlock: OJICUG_clean_linker_0, # of connection points: 2
#     Edge 33, Type (0, 0), BuildingBlock: OJICUG_clean_linker_0, # of connection points: 2
#     Edge 34, Type (0, 0), BuildingBlock: OJICUG_clean_linker_0, # of connection points: 2
#     Edge 35, Type (0, 0), BuildingBlock: OJICUG_clean_linker_0, # of connection points: 2
# Relax obj value: 0.038
# Max RMSD: 0.116
# Mean RMSD: 0.116
data_MOF--net-smm--node1-BETDAH_clean_sbu_0--edge1-OJICUG_clean_linker_0
_symmetry_space_group_name_H-M    P1
_symmetry_Int_Tables_number       1
_symmetry_cell_setting            triclinic
loop_
_symmetry_equiv_pos_as_xyz
'x, y, z'
_cell_length_a     56.858057
_cell_length_b     57.011579
_cell_length_c     10.26088
_cell_angle_alpha  89.951272
_cell_angle_beta   90.004155
_cell_angle_gamma 119.93011
loop_
_atom_site_label
_atom_site_type_symbol
_atom_site_fract_x
_atom_site_fract_y
_atom_site_fract_z
_atom_type_partial_charge
Ho0 Ho 0.06743 0.22563 -0.01631 0.0
Ho1 Ho 1.01651 0.16969 0.03072 0.0
C2 C 1.00862 0.22154 0.03342 0.0
C3 C 0.10278 0.27162 0.88214 0.0
C4 C 0.11033 0.30049 0.8658 0.0
C5 C 0.10463 0.30939 0.7482 0.0
C6 C 0.11517 0.33706 0.7237 0.0
C7 C 0.13193 0.35656 0.81567 0.0
C8 C 0.13682 0.34758 0.93513 0.0
C9 C 0.12625 0.31994 0.95973 0.0
C10 C 0.05657 0.21032 0.23571 0.0
C11 C 0.07631 0.17474 0.00977 0.0
C12 C 0.98025 0.12196 0.11082 0.0
C13 C 0.97128 0.09296 0.08699 0.0
C14 C 0.97546 0.07779 0.18284 0.0
C15 C 0.96511 0.04992 0.16696 0.0
C16 C 0.95011 0.03644 0.05512 0.0
C17 C 0.94631 0.05174 0.95825 0.0
C18 C 0.95673 0.07961 0.97396 0.0
C19 C 1.02862 0.18479 0.77839 0.0
O20 O 1.03318 0.23543 0.98067 0.0
O21 O 0.99931 0.19663 0.07829 0.0
O22 O 0.1054 0.26344 -0.0022 0.0
O23 O 0.08135 0.2533 0.81981 0.0
O24 O 0.08095 0.2257 0.19093 0.0
O25 O 0.03947 0.2062 0.14811 0.0
O26 O 0.05091 0.16069 0.05194 0.0
O27 O 0.08633 0.19942 0.96071 0.0
O28 O 0.97603 0.13519 0.01803 0.0
O29 O 1.00364 0.13667 0.169 0.0
O30 O 1.00412 0.17011 0.82178 0.0
O31 O 0.04515 0.18867 0.86821 0.0
H32 H 0.09282 0.29501 0.67278 0.0
H33 H 0.11116 0.34319 0.63024 0.0
H34 H 0.14928 0.36198 0.00912 0.0
H35 H 0.1313 0.31392 0.05089 0.0
H36 H 0.98626 0.08738 0.27174 0.0
H37 H 0.96817 0.0388 0.24439 0.0
H38 H 0.93519 0.04215 0.8701 0.0
H39 H 0.95297 0.09056 0.89819 0.0
Ho40 Ho 0.84933 0.85989 -0.01069 0.0
Ho41 Ho 0.90509 0.86429 0.03668 0.0
C42 C 0.85272 0.80489 0.03813 0.0
C43 C 0.80352 0.84995 0.88713 0.0
C44 C 0.77458 0.82884 0.8693 0.0
C45 C 0.7658 0.81478 0.75046 0.0
C46 C 0.7381 0.79781 0.72499 0.0
C47 C 0.71843 0.7947 0.81723 0.0
C48 C 0.72728 0.80807 0.93777 0.0
C49 C 0.75496 0.82497 0.96334 0.0
C50 C 0.86446 0.86398 0.24147 0.0
C51 C 0.90078 0.91931 0.01641 0.0
C52 C 0.95232 0.87435 0.11936 0.0
C53 C 0.98144 0.89362 0.0981 0.0
C54 C 0.9909 0.92036 0.05669 0.0
C55 C 1.01879 0.93806 0.0381 0.0
C56 C 0.03766 0.92928 0.05972 0.0
C57 C 1.02792 0.90243 0.10093 0.0
C58 C 1.00016 0.88486 0.11983 0.0
C59 C 0.89019 0.86164 0.78414 0.0
O60 O 0.83896 0.81575 -0.01427 0.0
O61 O 0.87769 0.82027 0.08321 0.0
O62 O 0.81155 0.86028 0.00359 0.0
O63 O 0.8219 0.84692 0.82452 0.0
O64 O 0.84932 0.87328 0.19658 0.0
O65 O 0.86846 0.85097 0.15382 0.0
O66 O 0.91468 0.90775 0.05799 0.0
O67 O 0.876 0.9049 0.96761 0.0
O68 O 0.93943 0.85783 0.0233 0.0
O69 O 0.9379 0.88355 0.17599 0.0
O70 O 0.90466 0.85158 0.82765 0.0
O71 O 0.88641 0.87431 0.874 0.0
H72 H 0.78032 0.81764 0.67495 0.0
H73 H 0.73206 0.78807 0.63072 0.0
H74 H 0.71274 0.80582 0.01193 0.0
H75 H 0.76089 0.83564 0.05545 0.0
H76 H 0.97677 0.92751 0.03857 0.0
H77 H 1.02553 0.9585 0.0052 0.0
H78 H 0.04181 0.89505 0.12059 0.0
H79 H 0.99329 0.86433 0.15204 0.0
Ho80 Ho 0.21407 1.00722 -0.01484 0.0
Ho81 Ho 0.20958 0.05846 0.03282 0.0
C82 C 0.26918 0.06525 0.03563 0.0
C83 C 0.22251 0.97072 0.8803 0.0
C84 C 0.2414 0.96022 0.86443 0.0
C85 C 0.26975 0.97702 0.86645 0.0
C86 C 0.28674 0.9661 0.84334 0.0
C87 C 0.27565 0.93823 0.81794 0.0
C88 C 0.24722 0.92168 0.81635 0.0
C89 C 0.23039 0.93255 0.83958 0.0
C90 C 0.20998 1.01813 0.23769 0.0
C91 C 0.15451 0.99952 0.01133 0.0
C92 C 0.19997 0.09581 0.11595 0.0
C93 C 0.18108 0.10614 0.09444 0.0
C94 C 0.1545 0.08947 0.04896 0.0
C95 C 0.13715 0.10008 0.03037 0.0
C96 C 0.14613 0.12757 0.05618 0.0
C97 C 0.17284 0.14408 0.10124 0.0
C98 C 0.19007 0.13346 0.12009 0.0
C99 C 0.21231 0.0463 0.78013 0.0
O100 O 0.25842 0.04069 -0.01644 0.0
O101 O 0.25367 0.0748 0.07967 0.0
O102 O 0.21104 0.96779 -0.0057 0.0
O103 O 0.22881 0.99375 0.82393 0.0
O104 O 0.20106 0.99382 0.19314 0.0
O105 O 0.22284 0.0351 0.14971 0.0
O106 O 0.16598 0.02473 0.05504 0.0
O107 O 0.16908 0.9895 0.96068 0.0
O108 O 0.21667 0.09939 0.02055 0.0
O109 O 0.19022 0.07206 0.17141 0.0
O110 O 0.22221 0.07075 0.82342 0.0
O111 O 0.19967 0.02989 0.87019 0.0
H112 H 0.2787 0.9985 0.88503 0.0
H113 H 0.30852 0.97942 0.84652 0.0
H114 H 0.23785 0.90029 0.79472 0.0
H115 H 0.20858 0.91929 0.83612 0.0
H116 H 0.14719 0.06832 0.0278 0.0
H117 H 0.11681 0.08684 -0.00561 0.0
H118 H 0.18036 0.16518 0.12414 0.0
H119 H 0.2105 0.14665 0.15545 0.0
Ho120 Ho 0.73306 0.55851 0.31983 0.0
Ho121 Ho 0.6818 0.50281 0.36755 0.0
C122 C 0.67456 0.55508 0.36857 0.0
C123 C 0.76882 0.60427 0.21782 0.0
C124 C 0.7767 0.63322 0.20086 0.0
C125 C 0.77121 0.64216 0.08285 0.0
C126 C 0.78197 0.66985 0.05801 0.0
C127 C 0.79874 0.68933 0.15005 0.0
C128 C 0.80347 0.68032 0.2698 0.0
C129 C 0.79267 0.65266 0.29473 0.0
C130 C 0.72206 0.5434 0.57211 0.0
C131 C 0.74126 0.5072 0.34743 0.0
C132 C 0.64463 0.45578 0.45106 0.0
C133 C 0.63449 0.42662 0.43092 0.0
C134 C 0.65139 0.4168 0.38753 0.0
C135 C 0.64092 0.38888 0.37054 0.0
C136 C 0.61335 0.37033 0.39591 0.0
C137 C 0.59662 0.38044 0.43899 0.0
C138 C 0.60708 0.40823 0.45621 0.0
C139 C 0.69401 0.5177 0.1149 0.0
O140 O 0.69914 0.56879 0.31592 0.0
O141 O 0.6651 0.5302 0.414 0.0
O142 O 0.77127 0.59609 0.33376 0.0
O143 O 0.74731 0.58606 0.15551 0.0
O144 O 0.74647 0.55857 0.5273 0.0
O145 O 0.70503 0.53937 0.48432 0.0
O146 O 0.71584 0.49335 0.38949 0.0
O147 O 0.7515 0.53186 0.29787 0.0
O148 O 0.64096 0.46867 0.35496 0.0
O149 O 0.66838 0.47001 0.50673 0.0
O150 O 0.66949 0.50317 0.15834 0.0
O151 O 0.71049 0.52152 0.20486 0.0
H152 H 0.75937 0.6278 0.00744 0.0
H153 H 0.77809 0.676 0.96432 0.0
H154 H 0.81593 0.6947 0.34385 0.0
H155 H 0.79757 0.6466 0.38619 0.0
H156 H 0.6726 0.43066 0.36674 0.0
H157 H 0.65434 0.38186 0.33608 0.0
H158 H 0.57544 0.36683 0.46156 0.0
H159 H 0.59371 0.41539 0.49007 0.0
Ho160 Ho 0.51548 0.19383 0.32761 0.0
Ho161 Ho 0.57154 0.19892 0.37446 0.0
C162 C 0.51958 0.13928 0.37755 0.0
C163 C 0.46942 0.1832 0.22588 0.0
C164 C 0.44061 0.16176 0.20783 0.0
C165 C 0.43211 0.14741 0.08958 0.0
C166 C 0.40447 0.13017 0.06356 0.0
C167 C 0.38462 0.12706 0.1546 0.0
C168 C 0.3932 0.14066 0.27473 0.0
C169 C 0.42081 0.15784 0.30086 0.0
C170 C 0.53083 0.19832 0.57955 0.0
C171 C 0.56645 0.25353 0.35337 0.0
C172 C 0.61933 0.21016 0.45421 0.0
C173 C 0.64842 0.22994 0.42943 0.0
C174 C 0.66389 0.24902 0.52542 0.0
C175 C 0.69182 0.26636 0.50845 0.0
C176 C 0.70505 0.26492 0.39532 0.0
C177 C 0.68948 0.24606 0.29845 0.0
C178 C 0.66153 0.22878 0.31524 0.0
C179 C 0.55646 0.19597 0.12213 0.0
O180 O 0.50567 0.14989 0.32446 0.0
O181 O 0.54452 0.15489 0.42261 0.0
O182 O 0.47733 0.19349 0.34251 0.0
O183 O 0.48804 0.18063 0.1629 0.0
O184 O 0.51546 0.20734 0.53464 0.0
O185 O 0.53495 0.18535 0.49211 0.0
O186 O 0.58061 0.24226 0.39528 0.0
O187 O 0.54169 0.23885 0.30487 0.0
O188 O 0.60591 0.19263 0.36225 0.0
O189 O 0.60477 0.21911 0.51183 0.0
O190 O 0.57117 0.18617 0.16556 0.0
O191 O 0.55254 0.20855 0.21192 0.0
H192 H 0.44676 0.15028 0.01483 0.0
H193 H 0.39863 0.12024 0.96964 0.0
H194 H 0.37851 0.13842 0.34801 0.0
H195 H 0.42652 0.1687 0.39247 0.0
H196 H 0.65448 0.25017 0.61516 0.0
H197 H 0.70317 0.28037 0.58589 0.0
H198 H 0.6989 0.2446 0.20942 0.0
H199 H 0.65032 0.21426 0.23932 0.0
Ho200 Ho 0.88219 0.34157 0.32474 0.0
Ho201 Ho 0.877 0.39237 0.37127 0.0
C202 C 0.93682 0.40014 0.37611 0.0
C203 C 0.89241 0.30601 0.22234 0.0
C204 C 0.9134 0.29799 0.20406 0.0
C205 C 0.92755 0.30335 0.08526 0.0
C206 C 0.9443 0.29239 0.05898 0.0
C207 C 0.94712 0.27555 0.15036 0.0
C208 C 0.93365 0.27091 0.27086 0.0
C209 C 0.91695 0.28191 0.29723 0.0
C210 C 0.87761 0.35233 0.57663 0.0
C211 C 0.82234 0.33288 0.35217 0.0
C212 C 0.8655 0.42866 0.45033 0.0
C213 C 0.8454 0.43759 0.42547 0.0
C214 C 0.82648 0.43415 0.52237 0.0
C215 C 0.8088 0.44434 0.5051 0.0
C216 C 0.80974 0.45844 0.39074 0.0
C217 C 0.82843 0.46153 0.29292 0.0
C218 C 0.84604 0.45125 0.30999 0.0
C219 C 0.87998 0.38024 0.11905 0.0
O220 O 0.92638 0.37569 0.32291 0.0
O221 O 0.921 0.40929 0.4204 0.0
O222 O 0.88196 0.30358 0.33871 0.0
O223 O 0.89561 0.32749 0.16023 0.0
O224 O 0.86872 0.32802 0.53195 0.0
O225 O 0.89057 0.36939 0.48907 0.0
O226 O 0.83371 0.35823 0.39376 0.0
O227 O 0.83697 0.32278 0.30303 0.0
O228 O 0.88304 0.43282 0.35801 0.0
O229 O 0.85678 0.40533 0.50881 0.0
O230 O 0.88984 0.40468 0.1623 0.0
O231 O 0.86736 0.36378 0.209 0.0
H232 H 0.92491 0.31525 0.01034 0.0
H233 H 0.95411 0.2962 0.96473 0.0
H234 H 0.93566 0.25839 0.34438 0.0
H235 H 0.90618 0.27708 0.38921 0.0
H236 H 0.82571 0.42402 0.613 0.0
H237 H 0.79493 0.44186 0.58322 0.0
H238 H 0.8295 0.47197 0.20295 0.0
H239 H 0.86041 0.45439 0.23329 0.0
Ho240 Ho 0.40053 0.89288 0.66193 0.0
Ho241 Ho 0.34988 0.83668 0.70861 0.0
C242 C 0.34156 0.88828 0.71377 0.0
C243 C 0.43587 0.93885 0.56028 0.0
C244 C 0.4437 0.96777 0.54338 0.0
C245 C 0.43832 0.9767 0.42506 0.0
C246 C 0.44913 1.00437 0.39997 0.0
C247 C 0.46583 0.02387 0.49209 0.0
C248 C 0.47047 1.01488 0.61215 0.0
C249 C 0.45962 0.98723 0.63734 0.0
C250 C 0.38983 0.87739 0.9138 0.0
C251 C 0.40978 0.84216 0.68716 0.0
C252 C 0.31382 0.78881 0.78776 0.0
C253 C 0.30494 0.7599 0.7622 0.0
C254 C 0.30836 0.74435 0.85872 0.0
C255 C 0.29814 0.71656 0.84096 0.0
C256 C 0.28403 0.70353 0.72647 0.0
C257 C 0.28099 0.71921 0.62898 0.0
C258 C 0.2913 0.74702 0.64655 0.0
C259 C 0.36191 0.85196 0.45643 0.0
O260 O 0.36602 0.90241 0.66008 0.0
O261 O 0.33259 0.86341 0.75834 0.0
O262 O 0.43849 0.93069 0.67596 0.0
O263 O 0.41434 0.9206 0.49827 0.0
O264 O 0.41416 0.893 0.86903 0.0
O265 O 0.37269 0.87316 0.82635 0.0
O266 O 0.38443 0.82798 0.72968 0.0
O267 O 0.41962 0.86683 0.63827 0.0
O268 O 0.30941 0.80218 0.69635 0.0
O269 O 0.33729 0.80345 0.84538 0.0
O270 O 0.33743 0.83711 0.49977 0.0
O271 O 0.37847 0.85594 0.54619 0.0
H272 H 0.42655 0.96231 0.34957 0.0
H273 H 0.44533 1.01049 0.30601 0.0
H274 H 0.48288 0.02928 0.68625 0.0
H275 H 0.46445 0.98118 0.72902 0.0
H276 H 0.31848 0.7536 0.94947 0.0
H277 H 0.30059 0.70512 0.91886 0.0
H278 H 0.27056 0.70996 0.53889 0.0
H279 H 0.28818 0.75829 0.57011 0.0
Ho280 Ho 0.18303 0.52732 0.65295 0.0
Ho281 Ho 0.23865 0.53136 0.70123 0.0
C282 C 0.18588 0.47207 0.70272 0.0
C283 C 0.13814 0.51907 0.54689 0.0
C284 C 0.10884 0.50015 0.52888 0.0
C285 C 0.09213 0.51106 0.50099 0.0
C286 C 0.06449 0.4942 0.4765 0.0
C287 C 0.05272 0.46585 0.47987 0.0
C288 C 0.06957 0.45487 0.50783 0.0
C289 C 0.09743 0.47189 0.53221 0.0
C290 C 0.19785 0.5311 0.90568 0.0
C291 C 0.23485 0.58654 0.68136 0.0
C292 C 0.28576 0.54111 0.78454 0.0
C293 C 0.31491 0.56042 0.76436 0.0
C294 C 0.32442 0.58715 0.72284 0.0
C295 C 0.35234 0.60489 0.70529 0.0
C296 C 0.3712 0.59614 0.72812 0.0
C297 C 0.36142 0.5693 0.76953 0.0
C298 C 0.33363 0.55169 0.78736 0.0
C299 C 0.22392 0.52895 0.44838 0.0
O300 O 0.17213 0.48302 0.65107 0.0
O301 O 0.21096 0.48734 0.74689 0.0
O302 O 0.14633 0.53001 0.66202 0.0
O303 O 0.15518 0.51317 0.49019 0.0
O304 O 0.18257 0.54023 0.8609 0.0
O305 O 0.20196 0.51822 0.81773 0.0
O306 O 0.2485 0.57483 0.72417 0.0
O307 O 0.21023 0.57227 0.63065 0.0
O308 O 0.27295 0.52482 0.68764 0.0
O309 O 0.27131 0.55023 0.84158 0.0
O310 O 0.23829 0.51878 0.49192 0.0
O311 O 0.22017 0.54161 0.53842 0.0
H312 H 0.10058 0.5328 0.4964 0.0
H313 H 0.05242 0.50349 0.45282 0.0
H314 H 0.0612 0.43316 0.5123 0.0
H315 H 0.11001 0.46302 0.55303 0.0
H316 H 0.3103 0.59429 0.70381 0.0
H317 H 0.35911 0.62533 0.67221 0.0
H318 H 0.37529 0.56194 0.79015 0.0
H319 H 0.32672 0.53117 0.81973 0.0
Ho320 Ho 0.54783 0.67479 0.65502 0.0
Ho321 Ho 0.54309 0.72581 0.70246 0.0
C322 C 0.60276 0.73304 0.70341 0.0
C323 C 0.55779 0.63903 0.553 0.0
C324 C 0.57889 0.63116 0.53527 0.0
C325 C 0.59314 0.63658 0.41671 0.0
C326 C 0.61008 0.62581 0.39115 0.0
C327 C 0.61299 0.6091 0.48303 0.0
C328 C 0.59945 0.60445 0.60333 0.0
C329 C 0.58257 0.61525 0.62898 0.0
C330 C 0.54362 0.68571 0.90726 0.0
C331 C 0.48811 0.66655 0.68161 0.0
C332 C 0.5334 0.76308 0.78608 0.0
C333 C 0.51456 0.77347 0.76522 0.0
C334 C 0.48792 0.75685 0.72046 0.0
C335 C 0.4706 0.76753 0.70267 0.0
C336 C 0.47969 0.79503 0.72862 0.0
C337 C 0.50648 0.8115 0.77283 0.0
C338 C 0.52367 0.80082 0.79086 0.0
C339 C 0.54583 0.71371 0.44978 0.0
O340 O 0.592 0.70856 0.65061 0.0
O341 O 0.58722 0.7424 0.74902 0.0
O342 O 0.54737 0.63669 0.66938 0.0
O343 O 0.56093 0.66045 0.49044 0.0
O344 O 0.53442 0.66136 0.86247 0.0
O345 O 0.5566 0.7027 0.81948 0.0
O346 O 0.49949 0.69189 0.72382 0.0
O347 O 0.50275 0.65646 0.63249 0.0
O348 O 0.55007 0.7667 0.69044 0.0
O349 O 0.52366 0.7393 0.84123 0.0
O350 O 0.55571 0.73816 0.49316 0.0
O351 O 0.53323 0.69727 0.5398 0.0
H352 H 0.59043 0.64836 0.34144 0.0
H353 H 0.61996 0.62962 0.29707 0.0
H354 H 0.60154 0.59203 0.6772 0.0
H355 H 0.57176 0.61042 0.72085 0.0
H356 H 0.48052 0.73569 0.6993 0.0
H357 H 0.45021 0.75432 0.6673 0.0
H358 H 0.51407 0.83262 0.79578 0.0
H359 H 0.54415 0.81397 0.82565 0.0
C360 C 0.17277 0.40332 0.81982 0.0
C361 C 0.14552 0.38611 0.78469 0.0
H362 H 0.20679 0.44347 0.82058 0.0
C363 C 0.13176 0.39733 0.71827 0.0
H364 H 0.18422 0.39538 0.8686 0.0
C365 C 0.14484 0.42512 0.68976 0.0
C366 C 0.17204 0.44233 0.72634 0.0
H367 H 0.11072 0.38471 0.6902 0.0
H368 H 0.13353 0.43313 0.6402 0.0
C369 C 0.18583 0.43097 0.79102 0.0
C370 C 0.67778 0.7541 0.71756 0.0
C371 C 0.68886 0.77879 0.78569 0.0
H372 H 0.64205 0.72026 0.63798 0.0
C373 C 0.67146 0.78855 0.82221 0.0
H374 H 0.69055 0.74591 0.68841 0.0
C375 C 0.64376 0.77393 0.79319 0.0
C376 C 0.63255 0.74906 0.72691 0.0
H377 H 0.6793 0.80772 0.87238 0.0
H378 H 0.6311 0.78214 0.82393 0.0
C379 C 0.64995 0.73937 0.68881 0.0
C380 C 0.28581 0.90025 0.84214 0.0
C381 C 0.29328 0.92611 0.79318 0.0
H382 H 0.2948 0.86817 0.85502 0.0
C383 C 0.31713 0.93966 0.71791 0.0
H384 H 0.26795 0.88937 0.90267 0.0
C385 C 0.33283 0.92747 0.69114 0.0
C386 C 0.32501 0.90143 0.7388 0.0
H387 H 0.3234 0.95948 0.67752 0.0
H388 H 0.35098 0.9384 0.63251 0.0
C389 C 0.30134 0.88808 0.81497 0.0
C390 C 0.33764 0.12086 0.15606 0.0
C391 C 0.3551 0.11104 0.12191 0.0
H392 H 0.29732 0.1145 0.15466 0.0
C393 C 0.34417 0.08624 0.05481 0.0
H394 H 0.34538 0.14011 0.2053 0.0
C395 C 0.31638 0.07146 0.02478 0.0
C396 C 0.29893 0.08123 0.06049 0.0
H397 H 0.357 0.07801 0.02743 0.0
H398 H 0.30857 0.05227 0.97481 0.0
C399 C 0.31001 0.10621 0.12574 0.0
C400 C 0.95301 0.23464 0.15374 0.0
C401 C 0.96291 0.26181 0.11805 0.0
H402 H 0.9593 0.20067 0.15405 0.0
C403 C 0.98769 0.27541 0.04998 0.0
H404 H 0.93377 0.22332 0.20389 0.0
C405 C 1.00235 0.2623 0.02039 0.0
C406 C 0.99254 0.23521 0.05764 0.0
H407 H 0.99601 0.29638 0.02155 0.0
H408 H 1.02153 0.27353 0.96964 0.0
C409 C 0.96759 0.22154 0.12391 0.0
C410 C 0.81181 0.75792 0.02381 0.0
C411 C 0.83895 0.77514 0.06132 0.0
H412 H 0.77772 0.7175 0.02338 0.0
C413 C 0.85268 0.76379 0.12656 0.0
H414 H 0.80054 0.76592 0.97379 0.0
C415 C 0.83961 0.73612 0.15508 0.0
C416 C 0.8124 0.71889 0.1191 0.0
H417 H 0.87359 0.77631 0.15682 0.0
H418 H 0.851 0.72817 0.20438 0.0
C419 C 0.79872 0.73012 0.05207 0.0
C420 C 1.01272 0.42427 0.38131 0.0
C421 C 1.02297 0.44823 0.45509 0.0
H422 H 0.9776 0.39036 0.29714 0.0
C423 C 1.00455 0.45583 0.50279 0.0
H424 H 1.0263 0.41788 0.34204 0.0
C425 C 0.97685 0.44034 0.47577 0.0
C426 C 0.96654 0.41656 0.40099 0.0
H427 H 1.01149 0.47377 0.56224 0.0
H428 H 0.96348 0.44702 0.51482 0.0
C429 C 0.98481 0.40859 0.35463 0.0
C430 C 0.65371 0.60904 0.38378 0.0
C431 C 0.62886 0.59542 0.4513 0.0
H432 H 0.68764 0.60714 0.30449 0.0
C433 C 0.61892 0.56825 0.48698 0.0
H434 H 0.66204 0.63001 0.3553 0.0
C435 C 0.63351 0.55516 0.45775 0.0
C436 C 0.65854 0.56884 0.39211 0.0
H437 H 0.59962 0.55693 0.53664 0.0
H438 H 0.62516 0.53428 0.48785 0.0
C439 C 0.66841 0.59593 0.3548 0.0
C440 C 0.51967 0.09838 0.46809 0.0
C441 C 0.50593 0.10958 0.40166 0.0
H442 H 0.51802 0.06288 0.54747 0.0
C443 C 0.47883 0.09226 0.36388 0.0
H444 H 0.54054 0.11099 0.49868 0.0
C445 C 0.46579 0.06451 0.39288 0.0
C446 C 0.47947 0.05341 0.46088 0.0
H447 H 0.46756 0.10015 0.31303 0.0
H448 H 0.44482 0.05183 0.36391 0.0
C449 C 0.50663 0.07073 0.49732 0.0
C450 C 0.10043 0.12445 0.07675 0.0
C451 C 0.12781 0.13908 0.03828 0.0
H452 H 0.06281 0.12412 0.09858 0.0
C453 C 0.1378 0.16523 -0.01365 0.0
H454 H 0.09209 0.10439 0.11832 0.0
C455 C 0.12105 0.17663 0.97547 0.0
C456 C 0.09382 0.16221 0.01632 0.0
H457 H 0.15866 0.17694 0.95385 0.0
H458 H 0.12958 0.19689 0.93605 0.0
C459 C 0.08367 0.13587 0.06612 0.0
C460 C 0.89956 0.96242 0.98142 0.0
C461 C 0.91367 0.94932 0.02277 0.0
H462 H 0.89975 0.9999 0.96033 0.0
C463 C 0.94012 0.96521 0.07239 0.0
H464 H 0.87915 0.95091 0.94306 0.0
C465 C 0.95201 0.99338 0.08168 0.0
C466 C 0.93781 1.00648 0.04148 0.0
H467 H 0.95169 0.9559 0.10482 0.0
H468 H 0.97244 1.00494 0.11977 0.0
C469 C 0.91147 0.99061 -0.00939 0.0
C470 C 0.08364 0.93834 -0.01544 0.0
C471 C 0.06741 0.94787 0.04086 0.0
H472 H 0.12352 0.94698 0.93052 0.0
C473 C 0.08002 0.97496 0.08272 0.0
H474 H 0.07461 0.91775 0.94917 0.0
C475 C 0.1082 0.99185 0.0715 0.0
C476 C 0.12446 0.98209 0.01777 0.0
H477 H 0.06823 0.98294 0.12751 0.0
H478 H 0.11724 1.01245 0.10683 0.0
C479 C 0.11175 0.9552 0.97318 0.0
C480 C 0.7856 0.50831 0.31097 0.0
C481 C 0.75853 0.4944 0.35444 0.0
H482 H 0.82295 0.50807 0.28924 0.0
C483 C 0.74825 0.46828 0.40711 0.0
H484 H 0.79427 0.52846 0.27015 0.0
C485 C 0.76472 0.45653 0.41758 0.0
C486 C 0.79188 0.47054 0.37542 0.0
H487 H 0.72749 0.45687 0.44121 0.0
H488 H 0.75609 0.43637 0.45826 0.0
C489 C 0.80205 0.49652 0.32121 0.0
C490 C 0.57578 0.32427 0.32712 0.0
C491 C 0.60194 0.34053 0.37928 0.0
H492 H 0.54419 0.28438 0.27753 0.0
C493 C 0.61665 0.32795 0.41903 0.0
H494 H 0.564 0.33326 0.29355 0.0
C495 C 0.60529 0.29981 0.40937 0.0
C496 C 0.57894 0.28352 0.35931 0.0
H497 H 0.63672 0.33975 0.4608 0.0
H498 H 0.6171 0.29083 0.44276 0.0
C499 C 0.56445 0.29617 0.31725 0.0
C500 C 0.74816 0.30976 0.42045 0.0
C501 C 0.73504 0.28257 0.38014 0.0
H502 H 0.78567 0.34688 0.44271 0.0
C503 C 0.75092 0.27222 0.32777 0.0
H504 H 0.73659 0.31854 0.45954 0.0
C505 C 0.77916 0.28854 0.31755 0.0
C506 C 0.79228 0.31564 0.35923 0.0
H507 H 0.74158 0.25129 0.29719 0.0
H508 H 0.79072 0.27977 0.27816 0.0
C509 C 0.77636 0.32607 0.41008 0.0
C510 C 0.43407 0.79195 0.75166 0.0
C511 C 0.46137 0.80658 0.71208 0.0
H512 H 0.3965 0.7916 0.7755 0.0
C513 C 0.47129 0.83274 0.66044 0.0
H514 H 0.4258 0.77188 0.79312 0.0
C515 C 0.45452 0.84415 0.65082 0.0
C516 C 0.42737 0.82971 0.69269 0.0
H517 H 0.49209 0.84445 0.62715 0.0
H518 H 0.46297 0.8644 0.61151 0.0
C519 C 0.4173 0.80337 0.74228 0.0
C520 C 0.23397 0.6298 0.64513 0.0
C521 C 0.24778 0.61655 0.68875 0.0
H522 H 0.23435 0.66736 0.62379 0.0
C523 C 0.27391 0.63225 0.74209 0.0
H524 H 0.21381 0.61842 0.60386 0.0
C525 C 0.28576 0.6604 0.75301 0.0
C526 C 0.27183 0.67363 0.71069 0.0
H527 H 0.28524 0.62282 0.77637 0.0
H528 H 0.30593 0.67182 0.79417 0.0
C529 C 0.24584 0.65795 0.65586 0.0
C530 C 0.4417 0.65881 0.74058 0.0
C531 C 0.45806 0.64905 0.68801 0.0
H532 H 0.40165 0.64988 0.79516 0.0
C533 C 0.44543 0.62211 0.6442 0.0
H534 H 0.45067 0.67945 0.77529 0.0
C535 C 0.41732 0.60522 0.65507 0.0
C536 C 0.40099 0.61475 0.71011 0.0
H537 H 0.45727 0.61387 0.60239 0.0
H538 H 0.40836 0.5846 0.62016 0.0
C539 C 0.41352 0.64189 0.75132 0.0
C540 C 1.01554 0.18397 0.54556 0.0
C541 C 0.03593 0.19139 0.63983 0.0
H542 H 1.00612 0.18396 0.34351 0.0
C543 C 0.06323 0.20474 0.60016 0.0
H544 H 0.99433 0.17357 0.5734 0.0
C545 C 0.07001 0.21077 0.46847 0.0
C546 C 0.04958 0.20344 0.37434 0.0
H547 H 0.07935 0.21051 0.67081 0.0
H548 H 0.0912 0.22121 0.44042 0.0
C549 C 1.02229 0.18988 0.41402 0.0
C550 C 0.87051 0.87657 0.60565 0.0
C551 C 0.88357 0.86235 0.64555 0.0
H552 H 0.85421 0.88824 0.4458 0.0
C553 C 0.89063 0.84908 0.55148 0.0
H554 H 0.86503 0.88716 0.67609 0.0
C555 C 0.88466 0.84988 0.41997 0.0
C556 C 0.87139 0.86388 0.38008 0.0
H557 H 0.90079 0.83805 0.57947 0.0
H558 H 0.8903 0.83939 0.34965 0.0
C559 C 0.86441 0.87727 0.474 0.0
C560 C 0.19781 1.01169 0.60242 0.0
C561 C 0.21163 0.03894 0.64162 0.0
H562 H 0.18642 0.98371 0.44321 0.0
C563 C 0.22453 0.05922 0.54694 0.0
H564 H 0.18754 0.99565 0.67337 0.0
C565 C 0.22372 0.05241 0.41552 0.0
C566 C 0.2101 0.02517 0.3763 0.0
H567 H 0.23525 0.08039 0.57437 0.0
H568 H 0.23391 0.0685 0.34473 0.0
C569 C 0.1971 1.00486 0.47084 0.0
C570 C 0.73543 0.54357 0.80484 0.0
C571 C 0.71504 0.53648 0.71076 0.0
H572 H 0.74473 0.54305 0.00707 0.0
C573 C 0.68775 0.52313 0.75053 0.0
H574 H 0.75662 0.55384 0.77675 0.0
C575 C 0.68098 0.51716 0.88207 0.0
C576 C 0.70134 0.52433 0.97629 0.0
H577 H 0.6716 0.5174 0.6801 0.0
H578 H 0.65977 0.50692 0.90995 0.0
C579 C 0.72863 0.53748 0.93651 0.0
C580 C 0.53049 0.21139 0.81216 0.0
C581 C 0.53775 0.19825 0.71815 0.0
H582 H 0.53085 0.22107 0.01438 0.0
C583 C 0.55128 0.1845 0.75791 0.0
H584 H 0.52009 0.22217 0.78404 0.0
C585 C 0.55721 0.18367 0.88942 0.0
C586 C 0.54986 0.19668 -0.01642 0.0
H587 H 0.55715 0.17421 0.6875 0.0
H588 H 0.56757 0.17283 0.91733 0.0
C589 C 0.53655 0.21067 0.94382 0.0
C590 C 0.89142 0.38651 0.75471 0.0
C591 C 0.87767 0.3593 0.71518 0.0
H592 H 0.90309 0.41441 0.91391 0.0
C593 C 0.86454 0.33894 0.80937 0.0
H594 H 0.9017 0.40263 0.68416 0.0
C595 C 0.86527 0.34571 0.941 0.0
C596 C 0.87925 0.37293 0.98054 0.0
H597 H 0.85376 0.31781 0.78141 0.0
H598 H 0.85488 0.32964 0.01171 0.0
C599 C 0.89225 0.39326 0.88618 0.0
C600 C 0.39652 0.87207 0.27835 0.0
C601 C 0.36921 0.85854 0.31788 0.0
H602 H 0.4245 0.88865 0.11869 0.0
C603 C 0.34881 0.85089 0.22349 0.0
H604 H 0.41265 0.87801 0.34912 0.0
C605 C 0.35557 0.85676 0.09195 0.0
C606 C 0.38287 0.87051 0.05241 0.0
H607 H 0.32759 0.84035 0.25123 0.0
H608 H 0.33939 0.85067 0.02134 0.0
C609 C 0.4033 0.87807 0.14665 0.0
C610 C 0.21827 0.51717 0.08404 0.0
C611 C 0.20482 0.531 0.04435 0.0
H612 H 0.23465 0.50553 0.24328 0.0
C613 C 0.19775 0.54428 0.13849 0.0
H614 H 0.22399 0.50676 0.01358 0.0
C615 C 0.20394 0.54364 0.27011 0.0
C616 C 0.2172 0.52961 0.3098 0.0
H617 H 0.18741 0.55513 0.11051 0.0
H618 H 0.19836 0.55413 0.34071 0.0
C619 C 0.22434 0.51643 0.21551 0.0
C620 C 0.55834 0.7267 0.21691 0.0
C621 C 0.54515 0.7064 0.31123 0.0
H622 H 0.56798 0.73603 0.01494 0.0
C623 C 0.53106 0.67918 0.27162 0.0
H624 H 0.56927 0.74784 0.24465 0.0
C625 C 0.53038 0.67239 0.14003 0.0
C626 C 0.54369 0.69271 0.04585 0.0
H627 H 0.52053 0.66313 0.34226 0.0
H628 H 0.5195 0.65125 0.11208 0.0
C629 C 0.55756 0.71993 0.08545 0.0
loop_
_geom_bond_atom_site_label_1
_geom_bond_atom_site_label_2
_geom_bond_distance
_geom_bond_site_symmetry_2
_ccdc_geom_bond_type
Ho0 C3 2.811 1_554 S
Ho0 O20 2.322 . S
Ho0 O22 2.378 . S
Ho0 O23 2.524 1_554 S
Ho0 O24 2.381 . S
Ho0 O25 2.669 . S
Ho0 O27 2.346 . S
Ho0 O31 2.305 1_554 S
Ho1 C12 2.811 1_556 S
Ho1 O21 2.346 1_556 S
Ho1 O25 2.305 1_656 S
Ho1 O26 2.322 1_655 S
Ho1 O28 2.378 . S
Ho1 O29 2.524 1_556 S
Ho1 O30 2.381 . S
Ho1 O31 2.669 1_655 S
C2 O20 1.259 1_655 S
C2 O21 1.268 . S
C3 Ho0 2.811 1_556 S
C3 C4 1.488 . S
C3 O22 1.215 1_556 S
C3 O23 1.289 . S
C4 C3 1.488 . S
C4 C5 1.348 . S
C4 C9 1.413 1_556 S
C5 C4 1.348 . S
C5 C6 1.442 . S
C5 H32 0.930 . S
C6 C5 1.442 . S
C6 C7 1.381 . S
C6 H33 0.931 . S
C7 C6 1.381 . S
C7 C8 1.321 1_556 S
C8 C7 1.321 1_554 S
C8 C9 1.403 . S
C8 H34 0.934 . S
C9 C4 1.413 1_554 S
C9 C8 1.403 . S
C9 H35 0.930 . S
C10 O24 1.275 . S
C10 O25 1.256 . S
C11 O26 1.259 . S
C11 O27 1.268 1_556 S
C12 Ho1 2.811 1_554 S
C12 C13 1.488 . S
C12 O28 1.215 1_554 S
C12 O29 1.289 . S
C13 C12 1.488 . S
C13 C14 1.348 . S
C13 C18 1.413 1_554 S
C14 C13 1.348 . S
C14 C15 1.442 . S
C14 H36 0.930 . S
C15 C14 1.442 . S
C15 C16 1.381 . S
C15 H37 0.931 . S
C16 C15 1.381 . S
C16 C17 1.321 1_554 S
C17 C16 1.321 1_556 S
C17 C18 1.403 . S
C17 H38 0.934 . S
C18 C13 1.413 1_556 S
C18 C17 1.403 . S
C18 H39 0.930 . S
C19 O30 1.259 1_455 S
C19 O31 1.266 . S
O20 Ho0 2.322 . S
O20 C2 1.259 1_455 S
O21 Ho1 2.346 1_554 S
O21 C2 1.268 . S
O22 Ho0 2.378 . S
O22 C3 1.215 1_554 S
O23 Ho0 2.524 1_556 S
O23 C3 1.289 . S
O24 Ho0 2.381 . S
O24 C10 1.275 . S
O25 Ho0 2.669 . S
O25 Ho1 2.305 1_454 S
O25 C10 1.256 . S
O26 Ho1 2.322 1_455 S
O26 C11 1.259 . S
O27 Ho0 2.346 . S
O27 C11 1.268 1_554 S
O28 Ho1 2.378 . S
O28 C12 1.215 1_556 S
O29 Ho1 2.524 1_554 S
O29 C12 1.289 . S
O30 Ho1 2.381 . S
O30 C19 1.259 1_655 S
O31 Ho0 2.305 1_556 S
O31 Ho1 2.669 1_455 S
O31 C19 1.266 . S
H32 C5 0.930 . S
H33 C6 0.931 . S
H34 C8 0.934 . S
H35 C9 0.930 . S
H36 C14 0.930 . S
H37 C15 0.931 . S
H38 C17 0.934 . S
H39 C18 0.930 . S
Ho40 C43 2.811 1_554 S
Ho40 O60 2.322 . S
Ho40 O62 2.378 . S
Ho40 O63 2.524 1_554 S
Ho40 O64 2.381 . S
Ho40 O65 2.669 . S
Ho40 O67 2.346 . S
Ho40 O71 2.305 1_554 S
Ho41 C52 2.811 1_556 S
Ho41 O61 2.346 1_556 S
Ho41 O65 2.305 1_556 S
Ho41 O66 2.322 . S
Ho41 O68 2.378 . S
Ho41 O69 2.524 1_556 S
Ho41 O70 2.381 . S
Ho41 O71 2.669 . S
C42 O60 1.259 . S
C42 O61 1.268 . S
C43 Ho40 2.811 1_556 S
C43 C44 1.488 . S
C43 O62 1.215 1_556 S
C43 O63 1.289 . S
C44 C43 1.488 . S
C44 C45 1.348 . S
C44 C49 1.413 1_556 S
C45 C44 1.348 . S
C45 C46 1.442 . S
C45 H72 0.930 . S
C46 C45 1.442 . S
C46 C47 1.381 . S
C46 H73 0.931 . S
C47 C46 1.381 . S
C47 C48 1.321 1_556 S
C48 C47 1.321 1_554 S
C48 C49 1.403 . S
C48 H74 0.934 . S
C49 C44 1.413 1_554 S
C49 C48 1.403 . S
C49 H75 0.930 . S
C50 O64 1.275 . S
C50 O65 1.256 . S
C51 O66 1.259 . S
C51 O67 1.268 1_556 S
C52 Ho41 2.811 1_554 S
C52 C53 1.488 . S
C52 O68 1.215 1_554 S
C52 O69 1.289 . S
C53 C52 1.488 . S
C53 C54 1.348 . S
C53 C58 1.413 1_554 S
C54 C53 1.348 . S
C54 C55 1.442 . S
C54 H76 0.930 . S
C55 C54 1.442 . S
C55 C56 1.381 1_655 S
C55 H77 0.931 . S
C56 C55 1.381 1_455 S
C56 C57 1.321 1_454 S
C57 C56 1.321 1_656 S
C57 C58 1.403 . S
C57 H78 0.934 1_655 S
C58 C53 1.413 1_556 S
C58 C57 1.403 . S
C58 H79 0.930 . S
C59 O70 1.275 . S
C59 O71 1.256 . S
O60 Ho40 2.322 . S
O60 C42 1.259 . S
O61 Ho41 2.346 1_554 S
O61 C42 1.268 . S
O62 Ho40 2.378 . S
O62 C43 1.215 1_554 S
O63 Ho40 2.524 1_556 S
O63 C43 1.289 . S
O64 Ho40 2.381 . S
O64 C50 1.275 . S
O65 Ho40 2.669 . S
O65 Ho41 2.305 1_554 S
O65 C50 1.256 . S
O66 Ho41 2.322 . S
O66 C51 1.259 . S
O67 Ho40 2.346 . S
O67 C51 1.268 1_554 S
O68 Ho41 2.378 . S
O68 C52 1.215 1_556 S
O69 Ho41 2.524 1_554 S
O69 C52 1.289 . S
O70 Ho41 2.381 . S
O70 C59 1.275 . S
O71 Ho40 2.305 1_556 S
O71 Ho41 2.669 . S
O71 C59 1.256 . S
H72 C45 0.930 . S
H73 C46 0.931 . S
H74 C48 0.934 . S
H75 C49 0.930 . S
H76 C54 0.930 . S
H77 C55 0.931 . S
H78 C57 0.934 1_455 S
H79 C58 0.930 . S
Ho80 C83 2.811 1_554 S
Ho80 O100 2.322 1_565 S
Ho80 O102 2.378 . S
Ho80 O103 2.524 1_554 S
Ho80 O104 2.381 . S
Ho80 O105 2.669 1_565 S
Ho80 O107 2.346 . S
Ho80 O111 2.305 1_564 S
Ho81 C92 2.811 1_556 S
Ho81 O101 2.346 1_556 S
Ho81 O105 2.305 1_556 S
Ho81 O106 2.322 . S
Ho81 O108 2.378 . S
Ho81 O109 2.524 1_556 S
Ho81 O110 2.381 . S
Ho81 O111 2.669 . S
C82 O100 1.259 . S
C82 O101 1.268 . S
C83 Ho80 2.811 1_556 S
C83 C84 1.488 . S
C83 O102 1.215 1_556 S
C83 O103 1.289 . S
C84 C83 1.488 . S
C84 C85 1.348 . S
C84 C89 1.413 1_556 S
C85 C84 1.348 . S
C85 C86 1.442 . S
C85 H112 0.930 . S
C86 C85 1.442 . S
C86 C87 1.381 . S
C86 H113 0.931 . S
C87 C86 1.381 . S
C87 C88 1.321 1_556 S
C88 C87 1.321 1_554 S
C88 C89 1.403 . S
C88 H114 0.934 . S
C89 C84 1.413 1_554 S
C89 C88 1.403 . S
C89 H115 0.930 . S
C90 O104 1.275 1_545 S
C90 O105 1.256 . S
C91 O106 1.259 1_565 S
C91 O107 1.268 1_556 S
C92 Ho81 2.811 1_554 S
C92 C93 1.488 . S
C92 O108 1.215 1_554 S
C92 O109 1.289 . S
C93 C92 1.488 . S
C93 C94 1.348 . S
C93 C98 1.413 1_554 S
C94 C93 1.348 . S
C94 C95 1.442 . S
C94 H116 0.930 . S
C95 C94 1.442 . S
C95 C96 1.381 . S
C95 H117 0.931 . S
C96 C95 1.381 . S
C96 C97 1.321 1_554 S
C97 C96 1.321 1_556 S
C97 C98 1.403 . S
C97 H118 0.934 . S
C98 C93 1.413 1_556 S
C98 C97 1.403 . S
C98 H119 0.930 . S
C99 O110 1.275 . S
C99 O111 1.256 . S
O100 Ho80 2.322 1_545 S
O100 C82 1.259 . S
O101 Ho81 2.346 1_554 S
O101 C82 1.268 . S
O102 Ho80 2.378 . S
O102 C83 1.215 1_554 S
O103 Ho80 2.524 1_556 S
O103 C83 1.289 . S
O104 Ho80 2.381 . S
O104 C90 1.275 1_565 S
O105 Ho80 2.669 1_545 S
O105 Ho81 2.305 1_554 S
O105 C90 1.256 . S
O106 Ho81 2.322 . S
O106 C91 1.259 1_545 S
O107 Ho80 2.346 . S
O107 C91 1.268 1_554 S
O108 Ho81 2.378 . S
O108 C92 1.215 1_556 S
O109 Ho81 2.524 1_554 S
O109 C92 1.289 . S
O110 Ho81 2.381 . S
O110 C99 1.275 . S
O111 Ho80 2.305 1_546 S
O111 Ho81 2.669 . S
O111 C99 1.256 . S
H112 C85 0.930 . S
H113 C86 0.931 . S
H114 C88 0.934 . S
H115 C89 0.930 . S
H116 C94 0.930 . S
H117 C95 0.931 . S
H118 C97 0.934 . S
H119 C98 0.930 . S
Ho120 C123 2.811 . S
Ho120 O140 2.322 . S
Ho120 O142 2.378 . S
Ho120 O143 2.524 . S
Ho120 O144 2.381 . S
Ho120 O145 2.669 . S
Ho120 O147 2.346 . S
Ho120 O151 2.305 . S
Ho121 C132 2.811 . S
Ho121 O141 2.346 . S
Ho121 O145 2.305 . S
Ho121 O146 2.322 . S
Ho121 O148 2.378 . S
Ho121 O149 2.524 . S
Ho121 O150 2.381 . S
Ho121 O151 2.669 . S
C122 O140 1.259 . S
C122 O141 1.268 . S
C123 Ho120 2.811 . S
C123 C124 1.488 . S
C123 O142 1.215 . S
C123 O143 1.289 . S
C124 C123 1.488 . S
C124 C125 1.348 . S
C124 C129 1.413 . S
C125 C124 1.348 . S
C125 C126 1.442 . S
C125 H152 0.930 . S
C126 C125 1.442 . S
C126 C127 1.381 . S
C126 H153 0.931 . S
C127 C126 1.381 . S
C127 C128 1.321 . S
C128 C127 1.321 . S
C128 C129 1.403 . S
C128 H154 0.934 . S
C129 C124 1.413 . S
C129 C128 1.403 . S
C129 H155 0.930 . S
C130 O144 1.275 . S
C130 O145 1.256 . S
C131 O146 1.259 . S
C131 O147 1.268 . S
C132 Ho121 2.811 . S
C132 C133 1.488 . S
C132 O148 1.215 . S
C132 O149 1.289 . S
C133 C132 1.488 . S
C133 C134 1.348 . S
C133 C138 1.413 . S
C134 C133 1.348 . S
C134 C135 1.442 . S
C134 H156 0.930 . S
C135 C134 1.442 . S
C135 C136 1.381 . S
C135 H157 0.931 . S
C136 C135 1.381 . S
C136 C137 1.321 . S
C137 C136 1.321 . S
C137 C138 1.403 . S
C137 H158 0.934 . S
C138 C133 1.413 . S
C138 C137 1.403 . S
C138 H159 0.930 . S
C139 O150 1.275 . S
C139 O151 1.256 . S
O140 Ho120 2.322 . S
O140 C122 1.259 . S
O141 Ho121 2.346 . S
O141 C122 1.268 . S
O142 Ho120 2.378 . S
O142 C123 1.215 . S
O143 Ho120 2.524 . S
O143 C123 1.289 . S
O144 Ho120 2.381 . S
O144 C130 1.275 . S
O145 Ho120 2.669 . S
O145 Ho121 2.305 . S
O145 C130 1.256 . S
O146 Ho121 2.322 . S
O146 C131 1.259 . S
O147 Ho120 2.346 . S
O147 C131 1.268 . S
O148 Ho121 2.378 . S
O148 C132 1.215 . S
O149 Ho121 2.524 . S
O149 C132 1.289 . S
O150 Ho121 2.381 . S
O150 C139 1.275 . S
O151 Ho120 2.305 . S
O151 Ho121 2.669 . S
O151 C139 1.256 . S
H152 C125 0.930 . S
H153 C126 0.931 . S
H154 C128 0.934 . S
H155 C129 0.930 . S
H156 C134 0.930 . S
H157 C135 0.931 . S
H158 C137 0.934 . S
H159 C138 0.930 . S
Ho160 C163 2.811 . S
Ho160 O180 2.322 . S
Ho160 O182 2.378 . S
Ho160 O183 2.524 . S
Ho160 O184 2.381 . S
Ho160 O185 2.669 . S
Ho160 O187 2.346 . S
Ho160 O191 2.305 . S
Ho161 C172 2.811 . S
Ho161 O181 2.346 . S
Ho161 O185 2.305 . S
Ho161 O186 2.322 . S
Ho161 O188 2.378 . S
Ho161 O189 2.524 . S
Ho161 O190 2.381 . S
Ho161 O191 2.669 . S
C162 O180 1.259 . S
C162 O181 1.268 . S
C163 Ho160 2.811 . S
C163 C164 1.488 . S
C163 O182 1.215 . S
C163 O183 1.289 . S
C164 C163 1.488 . S
C164 C165 1.348 . S
C164 C169 1.413 . S
C165 C164 1.348 . S
C165 C166 1.442 . S
C165 H192 0.930 . S
C166 C165 1.442 . S
C166 C167 1.381 . S
C166 H193 0.931 . S
C167 C166 1.381 . S
C167 C168 1.321 . S
C168 C167 1.321 . S
C168 C169 1.403 . S
C168 H194 0.934 . S
C169 C164 1.413 . S
C169 C168 1.403 . S
C169 H195 0.930 . S
C170 O184 1.275 . S
C170 O185 1.256 . S
C171 O186 1.259 . S
C171 O187 1.268 . S
C172 Ho161 2.811 . S
C172 C173 1.488 . S
C172 O188 1.215 . S
C172 O189 1.289 . S
C173 C172 1.488 . S
C173 C174 1.348 . S
C173 C178 1.413 . S
C174 C173 1.348 . S
C174 C175 1.442 . S
C174 H196 0.930 . S
C175 C174 1.442 . S
C175 C176 1.381 . S
C175 H197 0.931 . S
C176 C175 1.381 . S
C176 C177 1.321 . S
C177 C176 1.321 . S
C177 C178 1.403 . S
C177 H198 0.934 . S
C178 C173 1.413 . S
C178 C177 1.403 . S
C178 H199 0.930 . S
C179 O190 1.275 . S
C179 O191 1.256 . S
O180 Ho160 2.322 . S
O180 C162 1.259 . S
O181 Ho161 2.346 . S
O181 C162 1.268 . S
O182 Ho160 2.378 . S
O182 C163 1.215 . S
O183 Ho160 2.524 . S
O183 C163 1.289 . S
O184 Ho160 2.381 . S
O184 C170 1.275 . S
O185 Ho160 2.669 . S
O185 Ho161 2.305 . S
O185 C170 1.256 . S
O186 Ho161 2.322 . S
O186 C171 1.259 . S
O187 Ho160 2.346 . S
O187 C171 1.268 . S
O188 Ho161 2.378 . S
O188 C172 1.215 . S
O189 Ho161 2.524 . S
O189 C172 1.289 . S
O190 Ho161 2.381 . S
O190 C179 1.275 . S
O191 Ho160 2.305 . S
O191 Ho161 2.669 . S
O191 C179 1.256 . S
H192 C165 0.930 . S
H193 C166 0.931 . S
H194 C168 0.934 . S
H195 C169 0.930 . S
H196 C174 0.930 . S
H197 C175 0.931 . S
H198 C177 0.934 . S
H199 C178 0.930 . S
Ho200 C203 2.811 . S
Ho200 O220 2.322 . S
Ho200 O222 2.378 . S
Ho200 O223 2.524 . S
Ho200 O224 2.381 . S
Ho200 O225 2.669 . S
Ho200 O227 2.346 . S
Ho200 O231 2.305 . S
Ho201 C212 2.811 . S
Ho201 O221 2.346 . S
Ho201 O225 2.305 . S
Ho201 O226 2.322 . S
Ho201 O228 2.378 . S
Ho201 O229 2.524 . S
Ho201 O230 2.381 . S
Ho201 O231 2.669 . S
C202 O220 1.259 . S
C202 O221 1.268 . S
C203 Ho200 2.811 . S
C203 C204 1.488 . S
C203 O222 1.215 . S
C203 O223 1.289 . S
C204 C203 1.488 . S
C204 C205 1.348 . S
C204 C209 1.413 . S
C205 C204 1.348 . S
C205 C206 1.442 . S
C205 H232 0.930 . S
C206 C205 1.442 . S
C206 C207 1.381 . S
C206 H233 0.931 . S
C207 C206 1.381 . S
C207 C208 1.321 . S
C208 C207 1.321 . S
C208 C209 1.403 . S
C208 H234 0.934 . S
C209 C204 1.413 . S
C209 C208 1.403 . S
C209 H235 0.930 . S
C210 O224 1.275 . S
C210 O225 1.256 . S
C211 O226 1.259 . S
C211 O227 1.268 . S
C212 Ho201 2.811 . S
C212 C213 1.488 . S
C212 O228 1.215 . S
C212 O229 1.289 . S
C213 C212 1.488 . S
C213 C214 1.348 . S
C213 C218 1.413 . S
C214 C213 1.348 . S
C214 C215 1.442 . S
C214 H236 0.930 . S
C215 C214 1.442 . S
C215 C216 1.381 . S
C215 H237 0.931 . S
C216 C215 1.381 . S
C216 C217 1.321 . S
C217 C216 1.321 . S
C217 C218 1.403 . S
C217 H238 0.934 . S
C218 C213 1.413 . S
C218 C217 1.403 . S
C218 H239 0.930 . S
C219 O230 1.275 . S
C219 O231 1.256 . S
O220 Ho200 2.322 . S
O220 C202 1.259 . S
O221 Ho201 2.346 . S
O221 C202 1.268 . S
O222 Ho200 2.378 . S
O222 C203 1.215 . S
O223 Ho200 2.524 . S
O223 C203 1.289 . S
O224 Ho200 2.381 . S
O224 C210 1.275 . S
O225 Ho200 2.669 . S
O225 Ho201 2.305 . S
O225 C210 1.256 . S
O226 Ho201 2.322 . S
O226 C211 1.259 . S
O227 Ho200 2.346 . S
O227 C211 1.268 . S
O228 Ho201 2.378 . S
O228 C212 1.215 . S
O229 Ho201 2.524 . S
O229 C212 1.289 . S
O230 Ho201 2.381 . S
O230 C219 1.275 . S
O231 Ho200 2.305 . S
O231 Ho201 2.669 . S
O231 C219 1.256 . S
H232 C205 0.930 . S
H233 C206 0.931 . S
H234 C208 0.934 . S
H235 C209 0.930 . S
H236 C214 0.930 . S
H237 C215 0.931 . S
H238 C217 0.934 . S
H239 C218 0.930 . S
Ho240 C243 2.811 . S
Ho240 O260 2.322 . S
Ho240 O262 2.378 . S
Ho240 O263 2.524 . S
Ho240 O264 2.381 . S
Ho240 O265 2.669 . S
Ho240 O267 2.346 . S
Ho240 O271 2.305 . S
Ho241 C252 2.811 . S
Ho241 O261 2.346 . S
Ho241 O265 2.305 . S
Ho241 O266 2.322 . S
Ho241 O268 2.378 . S
Ho241 O269 2.524 . S
Ho241 O270 2.381 . S
Ho241 O271 2.669 . S
C242 O260 1.259 . S
C242 O261 1.268 . S
C243 Ho240 2.811 . S
C243 C244 1.488 . S
C243 O262 1.215 . S
C243 O263 1.289 . S
C244 C243 1.488 . S
C244 C245 1.348 . S
C244 C249 1.413 . S
C245 C244 1.348 . S
C245 C246 1.442 . S
C245 H272 0.930 . S
C246 C245 1.442 . S
C246 C247 1.381 1_565 S
C246 H273 0.934 . S
C247 C246 1.381 1_545 S
C247 C248 1.337 . S
C248 C247 1.337 . S
C248 C249 1.378 1_545 S
C248 H274 0.944 . S
C249 C244 1.413 . S
C249 C248 1.378 1_565 S
C249 H275 0.930 . S
C250 O264 1.275 . S
C250 O265 1.256 . S
C251 O266 1.259 . S
C251 O267 1.268 . S
C252 Ho241 2.811 . S
C252 C253 1.488 . S
C252 O268 1.215 . S
C252 O269 1.289 . S
C253 C252 1.488 . S
C253 C254 1.348 . S
C253 C258 1.413 . S
C254 C253 1.348 . S
C254 C255 1.442 . S
C254 H276 0.930 . S
C255 C254 1.442 . S
C255 C256 1.381 . S
C255 H277 0.931 . S
C256 C255 1.381 . S
C256 C257 1.321 . S
C257 C256 1.321 . S
C257 C258 1.403 . S
C257 H278 0.934 . S
C258 C253 1.413 . S
C258 C257 1.403 . S
C258 H279 0.930 . S
C259 O270 1.275 . S
C259 O271 1.256 . S
O260 Ho240 2.322 . S
O260 C242 1.259 . S
O261 Ho241 2.346 . S
O261 C242 1.268 . S
O262 Ho240 2.378 . S
O262 C243 1.215 . S
O263 Ho240 2.524 . S
O263 C243 1.289 . S
O264 Ho240 2.381 . S
O264 C250 1.275 . S
O265 Ho240 2.669 . S
O265 Ho241 2.305 . S
O265 C250 1.256 . S
O266 Ho241 2.322 . S
O266 C251 1.259 . S
O267 Ho240 2.346 . S
O267 C251 1.268 . S
O268 Ho241 2.378 . S
O268 C252 1.215 . S
O269 Ho241 2.524 . S
O269 C252 1.289 . S
O270 Ho241 2.381 . S
O270 C259 1.275 . S
O271 Ho240 2.305 . S
O271 Ho241 2.669 . S
O271 C259 1.256 . S
H272 C245 0.930 . S
H273 C246 0.934 . S
H274 C248 0.944 . S
H275 C249 0.930 . S
H276 C254 0.930 . S
H277 C255 0.931 . S
H278 C257 0.934 . S
H279 C258 0.930 . S
Ho280 C283 2.811 . S
Ho280 O300 2.322 . S
Ho280 O302 2.378 . S
Ho280 O303 2.524 . S
Ho280 O304 2.381 . S
Ho280 O305 2.669 . S
Ho280 O307 2.346 . S
Ho280 O311 2.305 . S
Ho281 C292 2.811 . S
Ho281 O301 2.346 . S
Ho281 O305 2.305 . S
Ho281 O306 2.322 . S
Ho281 O308 2.378 . S
Ho281 O309 2.524 . S
Ho281 O310 2.381 . S
Ho281 O311 2.669 . S
C282 O300 1.259 . S
C282 O301 1.268 . S
C283 Ho280 2.811 . S
C283 C284 1.488 . S
C283 O302 1.215 . S
C283 O303 1.289 . S
C284 C283 1.488 . S
C284 C285 1.348 . S
C284 C289 1.413 . S
C285 C284 1.348 . S
C285 C286 1.442 . S
C285 H312 0.930 . S
C286 C285 1.442 . S
C286 C287 1.381 . S
C286 H313 0.931 . S
C287 C286 1.381 . S
C287 C288 1.321 . S
C288 C287 1.321 . S
C288 C289 1.403 . S
C288 H314 0.934 . S
C289 C284 1.413 . S
C289 C288 1.403 . S
C289 H315 0.930 . S
C290 O304 1.275 . S
C290 O305 1.256 . S
C291 O306 1.259 . S
C291 O307 1.268 . S
C292 Ho281 2.811 . S
C292 C293 1.488 . S
C292 O308 1.215 . S
C292 O309 1.289 . S
C293 C292 1.488 . S
C293 C294 1.348 . S
C293 C298 1.413 . S
C294 C293 1.348 . S
C294 C295 1.442 . S
C294 H316 0.930 . S
C295 C294 1.442 . S
C295 C296 1.381 . S
C295 H317 0.931 . S
C296 C295 1.381 . S
C296 C297 1.321 . S
C297 C296 1.321 . S
C297 C298 1.403 . S
C297 H318 0.934 . S
C298 C293 1.413 . S
C298 C297 1.403 . S
C298 H319 0.930 . S
C299 O310 1.275 . S
C299 O311 1.256 . S
O300 Ho280 2.322 . S
O300 C282 1.259 . S
O301 Ho281 2.346 . S
O301 C282 1.268 . S
O302 Ho280 2.378 . S
O302 C283 1.215 . S
O303 Ho280 2.524 . S
O303 C283 1.289 . S
O304 Ho280 2.381 . S
O304 C290 1.275 . S
O305 Ho280 2.669 . S
O305 Ho281 2.305 . S
O305 C290 1.256 . S
O306 Ho281 2.322 . S
O306 C291 1.259 . S
O307 Ho280 2.346 . S
O307 C291 1.268 . S
O308 Ho281 2.378 . S
O308 C292 1.215 . S
O309 Ho281 2.524 . S
O309 C292 1.289 . S
O310 Ho281 2.381 . S
O310 C299 1.275 . S
O311 Ho280 2.305 . S
O311 Ho281 2.669 . S
O311 C299 1.256 . S
H312 C285 0.930 . S
H313 C286 0.931 . S
H314 C288 0.934 . S
H315 C289 0.930 . S
H316 C294 0.930 . S
H317 C295 0.931 . S
H318 C297 0.934 . S
H319 C298 0.930 . S
Ho320 C323 2.811 . S
Ho320 O340 2.322 . S
Ho320 O342 2.378 . S
Ho320 O343 2.524 . S
Ho320 O344 2.381 . S
Ho320 O345 2.669 . S
Ho320 O347 2.346 . S
Ho320 O351 2.305 . S
Ho321 C332 2.811 . S
Ho321 O341 2.346 . S
Ho321 O345 2.305 . S
Ho321 O346 2.322 . S
Ho321 O348 2.378 . S
Ho321 O349 2.524 . S
Ho321 O350 2.381 . S
Ho321 O351 2.669 . S
C322 O340 1.259 . S
C322 O341 1.268 . S
C323 Ho320 2.811 . S
C323 C324 1.488 . S
C323 O342 1.215 . S
C323 O343 1.289 . S
C324 C323 1.488 . S
C324 C325 1.348 . S
C324 C329 1.413 . S
C325 C324 1.348 . S
C325 C326 1.442 . S
C325 H352 0.930 . S
C326 C325 1.442 . S
C326 C327 1.381 . S
C326 H353 0.931 . S
C327 C326 1.381 . S
C327 C328 1.321 . S
C328 C327 1.321 . S
C328 C329 1.403 . S
C328 H354 0.934 . S
C329 C324 1.413 . S
C329 C328 1.403 . S
C329 H355 0.930 . S
C330 O344 1.275 . S
C330 O345 1.256 . S
C331 O346 1.259 . S
C331 O347 1.268 . S
C332 Ho321 2.811 . S
C332 C333 1.488 . S
C332 O348 1.215 . S
C332 O349 1.289 . S
C333 C332 1.488 . S
C333 C334 1.348 . S
C333 C338 1.413 . S
C334 C333 1.348 . S
C334 C335 1.442 . S
C334 H356 0.930 . S
C335 C334 1.442 . S
C335 C336 1.381 . S
C335 H357 0.931 . S
C336 C335 1.381 . S
C336 C337 1.321 . S
C337 C336 1.321 . S
C337 C338 1.403 . S
C337 H358 0.934 . S
C338 C333 1.413 . S
C338 C337 1.403 . S
C338 H359 0.930 . S
C339 O350 1.275 . S
C339 O351 1.256 . S
O340 Ho320 2.322 . S
O340 C322 1.259 . S
O341 Ho321 2.346 . S
O341 C322 1.268 . S
O342 Ho320 2.378 . S
O342 C323 1.215 . S
O343 Ho320 2.524 . S
O343 C323 1.289 . S
O344 Ho320 2.381 . S
O344 C330 1.275 . S
O345 Ho320 2.669 . S
O345 Ho321 2.305 . S
O345 C330 1.256 . S
O346 Ho321 2.322 . S
O346 C331 1.259 . S
O347 Ho320 2.346 . S
O347 C331 1.268 . S
O348 Ho321 2.378 . S
O348 C332 1.215 . S
O349 Ho321 2.524 . S
O349 C332 1.289 . S
O350 Ho321 2.381 . S
O350 C339 1.275 . S
O351 Ho320 2.305 . S
O351 Ho321 2.669 . S
O351 C339 1.256 . S
H352 C325 0.930 . S
H353 C326 0.931 . S
H354 C328 0.934 . S
H355 C329 0.930 . S
H356 C334 0.930 . S
H357 C335 0.931 . S
H358 C337 0.934 . S
H359 C338 0.930 . S
C360 C361 1.387 . S
C360 H364 0.950 . S
C360 C369 1.390 . S
C361 C360 1.387 . S
C361 C363 1.387 . S
H362 C369 0.950 . S
C363 C361 1.387 . S
C363 C365 1.390 . S
C363 H367 0.950 . S
H364 C360 0.950 . S
C365 C363 1.390 . S
C365 C366 1.387 . S
C365 H368 0.950 . S
C366 C365 1.387 . S
C366 C369 1.387 . S
H367 C363 0.950 . S
H368 C365 0.950 . S
C369 C360 1.390 . S
C369 H362 0.950 . S
C369 C366 1.387 . S
C370 C371 1.387 . S
C370 H374 0.950 . S
C370 C379 1.390 . S
C371 C370 1.387 . S
C371 C373 1.387 . S
H372 C379 0.950 . S
C373 C371 1.387 . S
C373 C375 1.390 . S
C373 H377 0.950 . S
H374 C370 0.950 . S
C375 C373 1.390 . S
C375 C376 1.387 . S
C375 H378 0.950 . S
C376 C375 1.387 . S
C376 C379 1.387 . S
H377 C373 0.950 . S
H378 C375 0.950 . S
C379 C370 1.390 . S
C379 H372 0.950 . S
C379 C376 1.387 . S
C380 C381 1.387 . S
C380 H384 0.950 1_556 S
C380 C389 1.390 . S
C381 C380 1.387 . S
C381 C383 1.387 . S
H382 C389 0.950 . S
C383 C381 1.387 . S
C383 C385 1.390 . S
C383 H387 0.950 . S
H384 C380 0.950 1_554 S
C385 C383 1.390 . S
C385 C386 1.387 . S
C385 H388 0.950 . S
C386 C385 1.387 . S
C386 C389 1.387 . S
H387 C383 0.950 . S
H388 C385 0.950 . S
C389 C380 1.390 . S
C389 H382 0.950 . S
C389 C386 1.387 . S
C390 C391 1.387 . S
C390 H394 0.950 . S
C390 C399 1.390 . S
C391 C390 1.387 . S
C391 C393 1.387 . S
H392 C399 0.950 1_556 S
C393 C391 1.387 . S
C393 C395 1.390 . S
C393 H397 0.950 . S
H394 C390 0.950 . S
C395 C393 1.390 . S
C395 C396 1.387 . S
C395 H398 0.950 . S
C396 C395 1.387 . S
C396 C399 1.387 . S
H397 C393 0.950 . S
H398 C395 0.950 . S
C399 C390 1.390 . S
C399 H392 0.950 1_554 S
C399 C396 1.387 . S
C400 C401 1.387 . S
C400 H404 0.950 . S
C400 C409 1.390 . S
C401 C400 1.387 . S
C401 C403 1.387 . S
H402 C409 0.950 . S
C403 C401 1.387 . S
C403 C405 1.390 . S
C403 H407 0.950 . S
H404 C400 0.950 . S
C405 C403 1.390 . S
C405 C406 1.387 . S
C405 H408 0.950 1_554 S
C406 C405 1.387 . S
C406 C409 1.387 . S
H407 C403 0.950 . S
H408 C405 0.950 1_556 S
C409 C400 1.390 . S
C409 H402 0.950 . S
C409 C406 1.387 . S
C410 C411 1.387 . S
C410 H414 0.950 . S
C410 C419 1.390 . S
C411 C410 1.387 . S
C411 C413 1.387 . S
H412 C419 0.950 . S
C413 C411 1.387 . S
C413 C415 1.390 . S
C413 H417 0.950 . S
H414 C410 0.950 . S
C415 C413 1.390 . S
C415 C416 1.387 . S
C415 H418 0.950 . S
C416 C415 1.387 . S
C416 C419 1.387 . S
H417 C413 0.950 . S
H418 C415 0.950 . S
C419 C410 1.390 . S
C419 H412 0.950 . S
C419 C416 1.387 . S
C420 C421 1.387 . S
C420 H424 0.950 . S
C420 C429 1.390 . S
C421 C420 1.387 . S
C421 C423 1.387 . S
H422 C429 0.950 . S
C423 C421 1.387 . S
C423 C425 1.390 . S
C423 H427 0.950 . S
H424 C420 0.950 . S
C425 C423 1.390 . S
C425 C426 1.387 . S
C425 H428 0.950 . S
C426 C425 1.387 . S
C426 C429 1.387 . S
H427 C423 0.950 . S
H428 C425 0.950 . S
C429 C420 1.390 . S
C429 H422 0.950 . S
C429 C426 1.387 . S
C430 C431 1.387 . S
C430 H434 0.950 . S
C430 C439 1.390 . S
C431 C430 1.387 . S
C431 C433 1.387 . S
H432 C439 0.950 . S
C433 C431 1.387 . S
C433 C435 1.390 . S
C433 H437 0.950 . S
H434 C430 0.950 . S
C435 C433 1.390 . S
C435 C436 1.387 . S
C435 H438 0.950 . S
C436 C435 1.387 . S
C436 C439 1.387 . S
H437 C433 0.950 . S
H438 C435 0.950 . S
C439 C430 1.390 . S
C439 H432 0.950 . S
C439 C436 1.387 . S
C440 C441 1.387 . S
C440 H444 0.950 . S
C440 C449 1.390 . S
C441 C440 1.387 . S
C441 C443 1.387 . S
H442 C449 0.950 . S
C443 C441 1.387 . S
C443 C445 1.390 . S
C443 H447 0.950 . S
H444 C440 0.950 . S
C445 C443 1.390 . S
C445 C446 1.387 . S
C445 H448 0.950 . S
C446 C445 1.387 . S
C446 C449 1.387 . S
H447 C443 0.950 . S
H448 C445 0.950 . S
C449 C440 1.390 . S
C449 H442 0.950 . S
C449 C446 1.387 . S
C450 C451 1.387 . S
C450 H454 0.950 . S
C450 C459 1.390 . S
C451 C450 1.387 . S
C451 C453 1.387 1_554 S
H452 C459 0.950 . S
C453 C451 1.387 1_556 S
C453 C455 1.390 . S
C453 H457 0.950 . S
H454 C450 0.950 . S
C455 C453 1.390 . S
C455 C456 1.387 1_556 S
C455 H458 0.950 . S
C456 C455 1.387 1_554 S
C456 C459 1.387 . S
H457 C453 0.950 . S
H458 C455 0.950 . S
C459 C450 1.390 . S
C459 H452 0.950 . S
C459 C456 1.387 . S
C460 C461 1.387 . S
C460 H464 0.950 . S
C460 C469 1.390 . S
C461 C460 1.387 . S
C461 C463 1.387 1_554 S
H462 C469 0.950 . S
C463 C461 1.387 1_556 S
C463 C465 1.390 . S
C463 H467 0.950 . S
H464 C460 0.950 . S
C465 C463 1.390 . S
C465 C466 1.387 1_556 S
C465 H468 0.950 . S
C466 C465 1.387 1_554 S
C466 C469 1.387 . S
H467 C463 0.950 . S
H468 C465 0.950 . S
C469 C460 1.390 . S
C469 H462 0.950 . S
C469 C466 1.387 . S
C470 C471 1.387 1_556 S
C470 H474 0.950 . S
C470 C479 1.390 . S
C471 C470 1.387 1_554 S
C471 C473 1.387 . S
H472 C479 0.950 . S
C473 C471 1.387 . S
C473 C475 1.390 . S
C473 H477 0.950 . S
H474 C470 0.950 . S
C475 C473 1.390 . S
C475 C476 1.387 . S
C475 H478 0.950 . S
C476 C475 1.387 . S
C476 C479 1.387 1_554 S
H477 C473 0.950 . S
H478 C475 0.950 . S
C479 C470 1.390 . S
C479 H472 0.950 . S
C479 C476 1.387 1_556 S
C480 C481 1.387 . S
C480 H484 0.950 . S
C480 C489 1.390 . S
C481 C480 1.387 . S
C481 C483 1.387 . S
H482 C489 0.950 . S
C483 C481 1.387 . S
C483 C485 1.390 . S
C483 H487 0.950 . S
H484 C480 0.950 . S
C485 C483 1.390 . S
C485 C486 1.387 . S
C485 H488 0.950 . S
C486 C485 1.387 . S
C486 C489 1.387 . S
H487 C483 0.950 . S
H488 C485 0.950 . S
C489 C480 1.390 . S
C489 H482 0.950 . S
C489 C486 1.387 . S
C490 C491 1.387 . S
C490 H494 0.950 . S
C490 C499 1.390 . S
C491 C490 1.387 . S
C491 C493 1.387 . S
H492 C499 0.950 . S
C493 C491 1.387 . S
C493 C495 1.390 . S
C493 H497 0.950 . S
H494 C490 0.950 . S
C495 C493 1.390 . S
C495 C496 1.387 . S
C495 H498 0.950 . S
C496 C495 1.387 . S
C496 C499 1.387 . S
H497 C493 0.950 . S
H498 C495 0.950 . S
C499 C490 1.390 . S
C499 H492 0.950 . S
C499 C496 1.387 . S
C500 C501 1.387 . S
C500 H504 0.950 . S
C500 C509 1.390 . S
C501 C500 1.387 . S
C501 C503 1.387 . S
H502 C509 0.950 . S
C503 C501 1.387 . S
C503 C505 1.390 . S
C503 H507 0.950 . S
H504 C500 0.950 . S
C505 C503 1.390 . S
C505 C506 1.387 . S
C505 H508 0.950 . S
C506 C505 1.387 . S
C506 C509 1.387 . S
H507 C503 0.950 . S
H508 C505 0.950 . S
C509 C500 1.390 . S
C509 H502 0.950 . S
C509 C506 1.387 . S
C510 C511 1.387 . S
C510 H514 0.950 . S
C510 C519 1.390 . S
C511 C510 1.387 . S
C511 C513 1.387 . S
H512 C519 0.950 . S
C513 C511 1.387 . S
C513 C515 1.390 . S
C513 H517 0.950 . S
H514 C510 0.950 . S
C515 C513 1.390 . S
C515 C516 1.387 . S
C515 H518 0.950 . S
C516 C515 1.387 . S
C516 C519 1.387 . S
H517 C513 0.950 . S
H518 C515 0.950 . S
C519 C510 1.390 . S
C519 H512 0.950 . S
C519 C516 1.387 . S
C520 C521 1.387 . S
C520 H524 0.950 . S
C520 C529 1.390 . S
C521 C520 1.387 . S
C521 C523 1.387 . S
H522 C529 0.950 . S
C523 C521 1.387 . S
C523 C525 1.390 . S
C523 H527 0.950 . S
H524 C520 0.950 . S
C525 C523 1.390 . S
C525 C526 1.387 . S
C525 H528 0.950 . S
C526 C525 1.387 . S
C526 C529 1.387 . S
H527 C523 0.950 . S
H528 C525 0.950 . S
C529 C520 1.390 . S
C529 H522 0.950 . S
C529 C526 1.387 . S
C530 C531 1.387 . S
C530 H534 0.950 . S
C530 C539 1.390 . S
C531 C530 1.387 . S
C531 C533 1.387 . S
H532 C539 0.950 . S
C533 C531 1.387 . S
C533 C535 1.390 . S
C533 H537 0.950 . S
H534 C530 0.950 . S
C535 C533 1.390 . S
C535 C536 1.387 . S
C535 H538 0.950 . S
C536 C535 1.387 . S
C536 C539 1.387 . S
H537 C533 0.950 . S
H538 C535 0.950 . S
C539 C530 1.390 . S
C539 H532 0.950 . S
C539 C536 1.387 . S
C540 C541 1.387 1_655 S
C540 H544 0.950 . S
C540 C549 1.385 1_655 S
C541 C540 1.387 1_455 S
C541 C543 1.387 . S
H542 C549 0.958 1_655 S
C543 C541 1.387 . S
C543 C545 1.390 . S
C543 H547 0.950 . S
H544 C540 0.950 . S
C545 C543 1.390 . S
C545 C546 1.387 . S
C545 H548 0.950 . S
C546 C545 1.387 . S
C546 C549 1.386 . S
H547 C543 0.950 . S
H548 C545 0.950 . S
C549 C540 1.385 1_455 S
C549 H542 0.958 1_455 S
C549 C546 1.386 . S
C550 C551 1.387 . S
C550 H554 0.950 . S
C550 C559 1.390 . S
C551 C550 1.387 . S
C551 C553 1.387 . S
H552 C559 0.950 . S
C553 C551 1.387 . S
C553 C555 1.390 . S
C553 H557 0.950 . S
H554 C550 0.950 . S
C555 C553 1.390 . S
C555 C556 1.387 . S
C555 H558 0.950 . S
C556 C555 1.387 . S
C556 C559 1.387 . S
H557 C553 0.950 . S
H558 C555 0.950 . S
C559 C550 1.390 . S
C559 H552 0.950 . S
C559 C556 1.387 . S
C560 C561 1.387 1_565 S
C560 H564 0.950 . S
C560 C569 1.390 . S
C561 C560 1.387 1_545 S
C561 C563 1.387 . S
H562 C569 0.950 . S
C563 C561 1.387 . S
C563 C565 1.390 . S
C563 H567 0.950 . S
H564 C560 0.950 . S
C565 C563 1.390 . S
C565 C566 1.387 . S
C565 H568 0.950 . S
C566 C565 1.387 . S
C566 C569 1.387 1_545 S
H567 C563 0.950 . S
H568 C565 0.950 . S
C569 C560 1.390 . S
C569 H562 0.950 . S
C569 C566 1.387 1_565 S
C570 C571 1.387 . S
C570 H574 0.950 . S
C570 C579 1.390 . S
C571 C570 1.387 . S
C571 C573 1.387 . S
H572 C579 0.950 . S
C573 C571 1.387 . S
C573 C575 1.390 . S
C573 H577 0.950 . S
H574 C570 0.950 . S
C575 C573 1.390 . S
C575 C576 1.387 . S
C575 H578 0.950 . S
C576 C575 1.387 . S
C576 C579 1.387 . S
H577 C573 0.950 . S
H578 C575 0.950 . S
C579 C570 1.390 . S
C579 H572 0.950 . S
C579 C576 1.387 . S
C580 C581 1.387 . S
C580 H584 0.950 . S
C580 C589 1.390 . S
C581 C580 1.387 . S
C581 C583 1.387 . S
H582 C589 0.950 . S
C583 C581 1.387 . S
C583 C585 1.390 . S
C583 H587 0.950 . S
H584 C580 0.950 . S
C585 C583 1.390 . S
C585 C586 1.387 . S
C585 H588 0.950 . S
C586 C585 1.387 . S
C586 C589 1.387 . S
H587 C583 0.950 . S
H588 C585 0.950 . S
C589 C580 1.390 . S
C589 H582 0.950 . S
C589 C586 1.387 . S
C590 C591 1.387 . S
C590 H594 0.950 . S
C590 C599 1.390 . S
C591 C590 1.387 . S
C591 C593 1.387 . S
H592 C599 0.950 . S
C593 C591 1.387 . S
C593 C595 1.390 . S
C593 H597 0.950 . S
H594 C590 0.950 . S
C595 C593 1.390 . S
C595 C596 1.387 . S
C595 H598 0.950 . S
C596 C595 1.387 . S
C596 C599 1.387 . S
H597 C593 0.950 . S
H598 C595 0.950 . S
C599 C590 1.390 . S
C599 H592 0.950 . S
C599 C596 1.387 . S
C600 C601 1.387 . S
C600 H604 0.950 . S
C600 C609 1.390 . S
C601 C600 1.387 . S
C601 C603 1.387 . S
H602 C609 0.950 . S
C603 C601 1.387 . S
C603 C605 1.390 . S
C603 H607 0.950 . S
H604 C600 0.950 . S
C605 C603 1.390 . S
C605 C606 1.387 . S
C605 H608 0.950 . S
C606 C605 1.387 . S
C606 C609 1.387 . S
H607 C603 0.950 . S
H608 C605 0.950 . S
C609 C600 1.390 . S
C609 H602 0.950 . S
C609 C606 1.387 . S
C610 C611 1.387 . S
C610 H614 0.950 . S
C610 C619 1.390 . S
C611 C610 1.387 . S
C611 C613 1.387 . S
H612 C619 0.950 . S
C613 C611 1.387 . S
C613 C615 1.390 . S
C613 H617 0.950 . S
H614 C610 0.950 . S
C615 C613 1.390 . S
C615 C616 1.387 . S
C615 H618 0.950 . S
C616 C615 1.387 . S
C616 C619 1.387 . S
H617 C613 0.950 . S
H618 C615 0.950 . S
C619 C610 1.390 . S
C619 H612 0.950 . S
C619 C616 1.387 . S
C620 C621 1.387 . S
C620 H624 0.950 . S
C620 C629 1.390 . S
C621 C620 1.387 . S
C621 C623 1.387 . S
H622 C629 0.950 . S
C623 C621 1.387 . S
C623 C625 1.390 . S
C623 H627 0.950 . S
H624 C620 0.950 . S
C625 C623 1.390 . S
C625 C626 1.387 . S
C625 H628 0.950 . S
C626 C625 1.387 . S
C626 C629 1.387 . S
H627 C623 0.950 . S
H628 C625 0.950 . S
C629 C620 1.390 . S
C629 H622 0.950 . S
C629 C626 1.387 . S
C361 C7 1.871 . S
C366 C282 1.799 . S
C371 C47 1.869 . S
C376 C322 1.795 . S
C381 C87 1.870 . S
C386 C242 1.797 . S
C391 C167 1.871 . S
C396 C82 1.799 . S
C401 C207 1.871 . S
C406 C2 1.799 . S
C411 C42 1.796 . S
C416 C127 1.869 . S
C421 C287 1.870 1_655 S
C426 C202 1.796 . S
C431 C327 1.869 . S
C436 C122 1.796 . S
C441 C162 1.799 . S
C446 C247 1.871 . S
C451 C96 1.665 . S
C456 C11 1.682 1_554 S
C461 C51 1.682 1_554 S
C466 C16 1.666 1_565 S
C471 C56 1.664 . S
C476 C91 1.682 1_554 S
C481 C131 1.682 . S
C486 C216 1.665 . S
C491 C136 1.664 . S
C496 C171 1.682 . S
C501 C176 1.665 . S
C506 C211 1.682 . S
C511 C336 1.666 . S
C516 C251 1.682 . S
C521 C291 1.682 . S
C526 C256 1.665 . S
C531 C331 1.682 . S
C536 C296 1.665 . S
C541 C19 1.122 . S
C546 C10 1.114 . S
C551 C59 1.114 . S
C556 C50 1.114 . S
C561 C99 1.116 . S
C566 C90 1.116 . S
C571 C130 1.113 . S
C576 C139 1.113 1_556 S
C581 C170 1.114 . S
C586 C179 1.114 1_556 S
C591 C210 1.113 . S
C596 C219 1.113 1_556 S
C601 C259 1.114 . S
C606 C250 1.114 1_554 S
C611 C290 1.114 1_554 S
C616 C299 1.114 . S
C621 C339 1.112 . S
C626 C330 1.112 1_554 S
