# Generated by pormake.
# Topology uki, (4)-cn, num edge types: 1
# Building blocks:
#     Node 0, Type 0, BuildingBlock: ICAMEG_clean_sbu_1, # of connection points: 4
#     Node 1, Type 0, BuildingBlock: ICAMEG_clean_sbu_1, # of connection points: 4
#     Node 2, Type 0, BuildingBlock: ICAMEG_clean_sbu_1, # of connection points: 4
#     Node 3, Type 0, BuildingBlock: ICAMEG_clean_sbu_1, # of connection points: 4
#     Node 4, Type 0, BuildingBlock: ICAMEG_clean_sbu_1, # of connection points: 4
#     Node 5, Type 0, BuildingBlock: ICAMEG_clean_sbu_1, # of connection points: 4
#     Node 6, Type 0, BuildingBlock: ICAMEG_clean_sbu_1, # of connection points: 4
#     Node 7, Type 0, BuildingBlock: ICAMEG_clean_sbu_1, # of connection points: 4
#     Node 8, Type 0, BuildingBlock: ICAMEG_clean_sbu_1, # of connection points: 4
#     Node 9, Type 0, BuildingBlock: ICAMEG_clean_sbu_1, # of connection points: 4
#     Node 10, Type 0, BuildingBlock: ICAMEG_clean_sbu_1, # of connection points: 4
#     Node 11, Type 0, BuildingBlock: ICAMEG_clean_sbu_1, # of connection points: 4
#     Node 12, Type 0, BuildingBlock: ICAMEG_clean_sbu_1, # of connection points: 4
#     Node 13, Type 0, BuildingBlock: ICAMEG_clean_sbu_1, # of connection points: 4
#     Node 14, Type 0, BuildingBlock: ICAMEG_clean_sbu_1, # of connection points: 4
#     Node 15, Type 0, BuildingBlock: ICAMEG_clean_sbu_1, # of connection points: 4
#     Edge 16, Type (0, 0), BuildingBlock: EZIPEK_clean_linker_0, # of connection points: 2
#     Edge 17, Type (0, 0), BuildingBlock: EZIPEK_clean_linker_0, # of connection points: 2
#     Edge 18, Type (0, 0), BuildingBlock: EZIPEK_clean_linker_0, # of connection points: 2
#     Edge 19, Type (0, 0), BuildingBlock: EZIPEK_clean_linker_0, # of connection points: 2
#     Edge 20, Type (0, 0), BuildingBlock: EZIPEK_clean_linker_0, # of connection points: 2
#     Edge 21, Type (0, 0), BuildingBlock: EZIPEK_clean_linker_0, # of connection points: 2
#     Edge 22, Type (0, 0), BuildingBlock: EZIPEK_clean_linker_0, # of connection points: 2
#     Edge 23, Type (0, 0), BuildingBlock: EZIPEK_clean_linker_0, # of connection points: 2
#     Edge 24, Type (0, 0), BuildingBlock: EZIPEK_clean_linker_0, # of connection points: 2
#     Edge 25, Type (0, 0), BuildingBlock: EZIPEK_clean_linker_0, # of connection points: 2
#     Edge 26, Type (0, 0), BuildingBlock: EZIPEK_clean_linker_0, # of connection points: 2
#     Edge 27, Type (0, 0), BuildingBlock: EZIPEK_clean_linker_0, # of connection points: 2
#     Edge 28, Type (0, 0), BuildingBlock: EZIPEK_clean_linker_0, # of connection points: 2
#     Edge 29, Type (0, 0), BuildingBlock: EZIPEK_clean_linker_0, # of connection points: 2
#     Edge 30, Type (0, 0), BuildingBlock: EZIPEK_clean_linker_0, # of connection points: 2
#     Edge 31, Type (0, 0), BuildingBlock: EZIPEK_clean_linker_0, # of connection points: 2
#     Edge 32, Type (0, 0), BuildingBlock: EZIPEK_clean_linker_0, # of connection points: 2
#     Edge 33, Type (0, 0), BuildingBlock: EZIPEK_clean_linker_0, # of connection points: 2
#     Edge 34, Type (0, 0), BuildingBlock: EZIPEK_clean_linker_0, # of connection points: 2
#     Edge 35, Type (0, 0), BuildingBlock: EZIPEK_clean_linker_0, # of connection points: 2
#     Edge 36, Type (0, 0), BuildingBlock: EZIPEK_clean_linker_0, # of connection points: 2
#     Edge 37, Type (0, 0), BuildingBlock: EZIPEK_clean_linker_0, # of connection points: 2
#     Edge 38, Type (0, 0), BuildingBlock: EZIPEK_clean_linker_0, # of connection points: 2
#     Edge 39, Type (0, 0), BuildingBlock: EZIPEK_clean_linker_0, # of connection points: 2
#     Edge 40, Type (0, 0), BuildingBlock: EZIPEK_clean_linker_0, # of connection points: 2
#     Edge 41, Type (0, 0), BuildingBlock: EZIPEK_clean_linker_0, # of connection points: 2
#     Edge 42, Type (0, 0), BuildingBlock: EZIPEK_clean_linker_0, # of connection points: 2
#     Edge 43, Type (0, 0), BuildingBlock: EZIPEK_clean_linker_0, # of connection points: 2
#     Edge 44, Type (0, 0), BuildingBlock: EZIPEK_clean_linker_0, # of connection points: 2
#     Edge 45, Type (0, 0), BuildingBlock: EZIPEK_clean_linker_0, # of connection points: 2
#     Edge 46, Type (0, 0), BuildingBlock: EZIPEK_clean_linker_0, # of connection points: 2
#     Edge 47, Type (0, 0), BuildingBlock: EZIPEK_clean_linker_0, # of connection points: 2
# Relax obj value: 0.014
# Max RMSD: 0.103
# Mean RMSD: 0.103
data_MOF--net-uki--node1-ICAMEG_clean_sbu_1--edge1-EZIPEK_clean_linker_0
_symmetry_space_group_name_H-M    P1
_symmetry_Int_Tables_number       1
_symmetry_cell_setting            triclinic
loop_
_symmetry_equiv_pos_as_xyz
'x, y, z'
_cell_length_a     24.840927
_cell_length_b     24.833095
_cell_length_c     58.719592
_cell_angle_alpha  90.01655
_cell_angle_beta   90.040882
_cell_angle_gamma 89.945065
loop_
_atom_site_label
_atom_site_type_symbol
_atom_site_fract_x
_atom_site_fract_y
_atom_site_fract_z
_atom_type_partial_charge
Co0 Co 0.09777 0.20854 0.27362 0.0
Co1 Co 0.08439 0.28755 0.32203 0.0
O2 O 0.10413 0.22032 0.30662 0.0
C3 C 0.04903 0.11038 0.29579 0.0
O4 O 0.04312 0.1379 0.31464 0.0
C5 C 0.19626 0.267 0.33772 0.0
O6 O 0.20926 0.25365 0.31684 0.0
O7 O 0.12792 0.33033 0.30002 0.0
O8 O 0.12462 0.28316 0.26731 0.0
H9 H 0.04135 0.48472 0.32559 0.0
H10 H 0.16195 0.13641 0.30346 0.0
O11 O 0.07023 0.1325 0.27834 0.0
H12 H 0.28799 0.19887 0.24432 0.0
H13 H 0.11329 0.10181 0.20093 0.0
H14 H 0.05674 0.27415 0.23518 0.0
H15 H 0.19319 0.22832 0.24398 0.0
H16 H 0.12347 0.11745 0.24219 0.0
O17 O 0.14851 0.2813 0.34263 0.0
H18 H 0.0539 0.39721 0.30677 0.0
H19 H 0.07857 0.32167 0.37076 0.0
H20 H 0.04618 0.26032 0.19382 0.0
H21 H 0.25633 0.10579 0.30443 0.0
H22 H 0.07455 0.17362 0.17644 0.0
H23 H 0.32012 0.13703 0.27468 0.0
O24 O 0.02231 0.23546 0.27378 0.0
H25 H 0.05466 0.13866 0.37865 0.0
H26 H 0.97128 0.29323 0.33965 0.0
H27 H 0.91744 0.23989 0.36657 0.0
H28 H 0.95916 0.162 0.38641 0.0
H29 H 0.10653 0.19233 0.35108 0.0
H30 H 0.06265 0.40791 0.39046 0.0
H31 H 0.04424 0.49044 0.36784 0.0
O32 O 0.01925 0.29598 0.30198 0.0
C33 C 0.13667 0.32509 0.27875 0.0
C34 C 0.04828 0.44898 0.3357 0.0
C35 C 0.06051 0.40588 0.37207 0.0
N36 N 0.06626 0.35413 0.33758 0.0
C37 C 0.05573 0.39928 0.32509 0.0
C38 C 0.06904 0.35704 0.36081 0.0
C39 C 0.05027 0.45217 0.35938 0.0
C40 C 0.18922 0.14954 0.29027 0.0
N41 N 0.17167 0.18302 0.27337 0.0
C42 C 0.24272 0.1323 0.29098 0.0
C43 C 0.2785 0.14993 0.27431 0.0
C44 C 0.26049 0.18455 0.25726 0.0
C45 C 0.20669 0.20094 0.2571 0.0
C46 C 0.10088 0.13979 0.2083 0.0
C47 C 0.06953 0.23645 0.22772 0.0
C48 C 0.10644 0.14884 0.23166 0.0
N49 N 0.09112 0.19684 0.24106 0.0
C50 C 0.0633 0.22879 0.2043 0.0
C51 C 0.07916 0.18011 0.19456 0.0
C52 C 0.99764 0.27188 0.28506 0.0
C53 C 0.036 0.17252 0.37013 0.0
C54 C 0.98955 0.25905 0.34785 0.0
C55 C 0.95895 0.22915 0.36327 0.0
C56 C 0.98241 0.18555 0.37444 0.0
N57 N 0.04202 0.24588 0.34359 0.0
C58 C 0.06534 0.20335 0.3546 0.0
Co59 Co 0.19234 0.89631 0.73578 0.0
Co60 Co 0.27628 0.92069 0.68966 0.0
O61 O 0.20715 0.8992 0.703 0.0
C62 C 0.10407 0.96294 0.71698 0.0
O63 O 0.14015 0.987 0.70431 0.0
C64 C 0.23699 0.82554 0.66153 0.0
O65 O 0.19661 0.81825 0.67552 0.0
O66 O 0.31512 0.86857 0.70968 0.0
O67 O 0.26634 0.86706 0.74202 0.0
H68 H 0.47507 0.96038 0.6909 0.0
H69 H 0.11229 0.84424 0.70529 0.0
O70 O 0.11771 0.92535 0.73053 0.0
H71 H 0.18466 0.69763 0.75287 0.0
H72 H 0.07746 0.854 0.8041 0.0
H73 H 0.2476 0.93421 0.77788 0.0
H74 H 0.21594 0.79088 0.75819 0.0
H75 H 0.0994 0.85702 0.7632 0.0
O76 O 0.27084 0.86337 0.66503 0.0
H77 H 0.38676 0.94 0.70772 0.0
H78 H 0.31446 0.94148 0.64229 0.0
H79 H 0.22792 0.93132 0.81892 0.0
H80 H 0.07887 0.75176 0.69975 0.0
H81 H 0.14215 0.89094 0.83233 0.0
H82 H 0.1155 0.67753 0.72351 0.0
O83 O 0.22008 0.97125 0.73985 0.0
H84 H 0.12617 0.98325 0.63828 0.0
H85 H 0.29316 0.03597 0.67781 0.0
H86 H 0.24435 0.10309 0.65477 0.0
H87 H 0.16037 0.07681 0.63467 0.0
H88 H 0.1758 0.91772 0.66167 0.0
H89 H 0.40209 0.96116 0.62463 0.0
H90 H 0.48336 0.97023 0.64895 0.0
O91 O 0.2853 0.97851 0.71338 0.0
C92 C 0.30858 0.85538 0.73055 0.0
C93 C 0.43989 0.95681 0.68012 0.0
C94 C 0.39898 0.95713 0.64294 0.0
N95 N 0.34495 0.94093 0.67618 0.0
C96 C 0.38955 0.94591 0.68963 0.0
C97 C 0.34936 0.94612 0.65307 0.0
C98 C 0.44454 0.96226 0.65659 0.0
C99 C 0.12781 0.8124 0.71591 0.0
N100 N 0.16619 0.82311 0.73193 0.0
C101 C 0.109 0.75998 0.7126 0.0
C102 C 0.12964 0.71835 0.72591 0.0
C103 C 0.16853 0.72958 0.74234 0.0
C104 C 0.18638 0.78249 0.74516 0.0
C105 C 0.11529 0.87106 0.79851 0.0
C106 C 0.21111 0.91525 0.78354 0.0
C107 C 0.12808 0.8727 0.77536 0.0
N108 N 0.17598 0.89377 0.76814 0.0
C109 C 0.19975 0.91432 0.80683 0.0
C110 C 0.15156 0.89182 0.81433 0.0
C111 C 0.26004 0.9958 0.73093 0.0
C112 C 0.16304 0.99506 0.64674 0.0
C113 C 0.25675 0.02409 0.66906 0.0
C114 C 0.22927 0.06233 0.65604 0.0
C115 C 0.18216 0.04757 0.64478 0.0
N116 N 0.23823 0.97237 0.67064 0.0
C117 C 0.19162 0.9579 0.6599 0.0
Co118 Co 0.90382 0.80743 0.27016 0.0
Co119 Co 0.92017 0.71033 0.31114 0.0
O120 O 0.90497 0.78452 0.30201 0.0
C121 C 0.97382 0.88878 0.29233 0.0
O122 O 0.99947 0.84911 0.30231 0.0
C123 C 0.82132 0.73991 0.33684 0.0
O124 O 0.80205 0.76217 0.3183 0.0
O125 O 0.86208 0.68382 0.29055 0.0
O126 O 0.87267 0.73624 0.25978 0.0
H127 H 0.93846 0.51149 0.29822 0.0
H128 H 0.85097 0.87555 0.305 0.0
O129 O 0.93398 0.8794 0.27927 0.0
H130 H 0.70732 0.82851 0.25066 0.0
H131 H 0.87002 0.94015 0.20687 0.0
H132 H 0.94561 0.7627 0.22661 0.0
H133 H 0.80014 0.79626 0.24471 0.0
H134 H 0.86809 0.90761 0.24652 0.0
O135 O 0.86725 0.71727 0.33679 0.0
H136 H 0.93266 0.60662 0.28666 0.0
H137 H 0.93358 0.65544 0.35597 0.0
H138 H 0.94792 0.79332 0.18674 0.0
H139 H 0.75899 0.90969 0.31142 0.0
H140 H 0.90977 0.88267 0.17661 0.0
H141 H 0.68627 0.8859 0.28416 0.0
O142 O 0.97808 0.77858 0.26602 0.0
H143 H 0.99988 0.83341 0.37009 0.0
H144 H 0.03428 0.67853 0.31956 0.0
H145 H 0.10739 0.7128 0.344 0.0
H146 H 0.09036 0.79072 0.36955 0.0
H147 H 0.92811 0.79822 0.34516 0.0
H148 H 0.93819 0.56061 0.36828 0.0
H149 H 0.9386 0.48782 0.3393 0.0
O150 O 0.97493 0.7014 0.28607 0.0
C151 C 0.85318 0.69463 0.26963 0.0
C152 C 0.93743 0.54279 0.311 0.0
C153 C 0.93738 0.5704 0.35032 0.0
N154 N 0.933 0.6366 0.32058 0.0
C155 C 0.93481 0.59682 0.30454 0.0
C156 C 0.93496 0.62402 0.34324 0.0
C157 C 0.93781 0.52958 0.33405 0.0
C158 C 0.81984 0.86599 0.29287 0.0
N159 N 0.83114 0.83449 0.27443 0.0
C160 C 0.76769 0.88501 0.29667 0.0
C161 C 0.7269 0.87151 0.28141 0.0
C162 C 0.73866 0.83926 0.26263 0.0
C163 C 0.79129 0.82094 0.25941 0.0
C164 C 0.88603 0.90079 0.211 0.0
C165 C 0.92768 0.80093 0.22229 0.0
C166 C 0.88479 0.88199 0.23341 0.0
N167 N 0.90443 0.83209 0.23875 0.0
C168 C 0.92966 0.81838 0.1997 0.0
C169 C 0.9084 0.86857 0.19404 0.0
C170 C 0.99702 0.73254 0.27146 0.0
C171 C 0.00776 0.79934 0.35909 0.0
C172 C 0.0266 0.71255 0.33058 0.0
C173 C 0.06812 0.73171 0.34442 0.0
C174 C 0.05853 0.77541 0.35875 0.0
N175 N 0.97692 0.73625 0.331 0.0
C176 C 0.9672 0.77909 0.34501 0.0
Co177 Co 0.79507 0.10713 0.73975 0.0
Co178 Co 0.70225 0.09114 0.69664 0.0
O179 O 0.77587 0.10424 0.7073 0.0
C180 C 0.8878 0.05134 0.71564 0.0
O181 O 0.86251 0.05456 0.69611 0.0
C182 C 0.73601 0.18846 0.67138 0.0
O183 O 0.75664 0.20684 0.6904 0.0
O184 O 0.67585 0.15136 0.71563 0.0
O185 O 0.72465 0.14357 0.74754 0.0
H186 H 0.50198 0.07811 0.70648 0.0
H187 H 0.86724 0.15574 0.70454 0.0
O188 O 0.8666 0.07039 0.73377 0.0
H189 H 0.82573 0.30286 0.75798 0.0
H190 H 0.91861 0.13831 0.80665 0.0
H191 H 0.73941 0.07536 0.78236 0.0
H192 H 0.7886 0.21209 0.76415 0.0
H193 H 0.89322 0.1388 0.76609 0.0
O194 O 0.71337 0.14256 0.67072 0.0
H195 H 0.59616 0.08457 0.71943 0.0
H196 H 0.65111 0.07561 0.65106 0.0
H197 H 0.76286 0.07461 0.82314 0.0
H198 H 0.90573 0.24546 0.69792 0.0
H199 H 0.85303 0.10638 0.83555 0.0
H200 H 0.88506 0.32 0.72474 0.0
O201 O 0.762 0.03517 0.74444 0.0
H202 H 0.82521 0.00439 0.63942 0.0
H203 H 0.66957 0.97646 0.69011 0.0
H204 H 0.70394 0.90054 0.66731 0.0
H205 H 0.78234 0.91424 0.64173 0.0
H206 H 0.78997 0.07907 0.66277 0.0
H207 H 0.55739 0.06945 0.63734 0.0
H208 H 0.48209 0.07201 0.66513 0.0
O209 O 0.68855 0.03891 0.72212 0.0
C210 C 0.6853 0.16353 0.73631 0.0
C211 C 0.53447 0.0772 0.69421 0.0
C212 C 0.56559 0.0724 0.6554 0.0
N213 N 0.62913 0.08 0.68605 0.0
C214 C 0.58791 0.08045 0.70145 0.0
C215 C 0.61856 0.07574 0.66327 0.0
C216 C 0.52335 0.07364 0.671 0.0
C217 C 0.85881 0.18734 0.71657 0.0
N218 N 0.82672 0.17795 0.73503 0.0
C219 C 0.88043 0.23839 0.71261 0.0
C220 C 0.86868 0.28022 0.72762 0.0
C221 C 0.8354 0.27062 0.74626 0.0
C222 C 0.81448 0.21907 0.74966 0.0
C223 C 0.87904 0.12476 0.80149 0.0
C224 C 0.77849 0.08984 0.78762 0.0
C225 C 0.86442 0.12496 0.77851 0.0
N226 N 0.81436 0.10839 0.77184 0.0
C227 C 0.79164 0.08907 0.81074 0.0
C228 C 0.84225 0.10681 0.81769 0.0
C229 C 0.71652 0.01713 0.73789 0.0
C230 C 0.79107 0.99789 0.65053 0.0
C231 C 0.704 0.98269 0.67919 0.0
C232 C 0.72311 0.93958 0.66622 0.0
C233 C 0.76704 0.94731 0.65185 0.0
N234 N 0.7281 0.03208 0.67795 0.0
C235 C 0.77083 0.04008 0.66374 0.0
Co236 Co 0.11443 0.31173 0.99005 0.0
Co237 Co 0.07506 0.22939 0.94534 0.0
O238 O 0.10147 0.2975 0.95776 0.0
C239 C 0.03618 0.39423 0.9754 0.0
O240 O 0.01111 0.35556 0.96456 0.0
C241 C 0.17326 0.25667 0.91826 0.0
O242 O 0.19231 0.27991 0.93663 0.0
O243 O 0.12918 0.18833 0.96342 0.0
O244 O 0.15061 0.23922 0.99354 0.0
H245 H 0.00875 0.03847 0.94964 0.0
H246 H 0.14985 0.39162 0.95568 0.0
O247 O 0.07879 0.38435 0.98678 0.0
H248 H 0.31535 0.33827 0.99595 0.0
H249 H 0.16666 0.42809 0.05672 0.0
H250 H 0.10133 0.24939 0.03272 0.0
H251 H 0.2278 0.2999 0.0068 0.0
H252 H 0.15235 0.40767 0.01603 0.0
O253 O 0.12734 0.23382 0.91897 0.0
H254 H 0.04865 0.12214 0.96466 0.0
H255 H 0.04696 0.19142 0.89864 0.0
H256 H 0.11519 0.268 0.07359 0.0
H257 H 0.23627 0.4322 0.94448 0.0
H258 H 0.14825 0.35788 0.0858 0.0
H259 H 0.32006 0.4052 0.96459 0.0
O260 O 0.04352 0.27973 0.99897 0.0
H261 H 0.01086 0.38304 0.89665 0.0
H262 H 0.95677 0.2185 0.93765 0.0
H263 H 0.88811 0.27164 0.91723 0.0
H264 H 0.91505 0.35446 0.89646 0.0
H265 H 0.07808 0.32887 0.91742 0.0
H266 H 0.00811 0.10817 0.88273 0.0
H267 H 0.98692 0.03181 0.90842 0.0
O268 O 0.0226 0.2219 0.97088 0.0
C269 C 0.15525 0.19577 0.98196 0.0
C270 C 0.01708 0.07181 0.93831 0.0
C271 C 0.0168 0.11091 0.90076 0.0
N272 N 0.04885 0.16208 0.9327 0.0
C273 C 0.03939 0.11938 0.94677 0.0
C274 C 0.039 0.15787 0.90986 0.0
C275 C 0.00519 0.06793 0.91518 0.0
C276 C 0.1858 0.38029 0.96469 0.0
N277 N 0.18346 0.34324 0.98184 0.0
C278 C 0.2348 0.40312 0.95819 0.0
C279 C 0.28178 0.38788 0.96944 0.0
C280 C 0.27917 0.35026 0.987 0.0
C281 C 0.22942 0.32829 0.99299 0.0
C282 C 0.15255 0.38868 0.0516 0.0
C283 C 0.11595 0.28851 0.03792 0.0
C284 C 0.14443 0.37687 0.02859 0.0
N285 N 0.12699 0.32706 0.022 0.0
C286 C 0.12364 0.29884 0.06107 0.0
C287 C 0.14216 0.34928 0.06792 0.0
C288 C 0.01346 0.24373 0.99015 0.0
C289 C 0.99869 0.34672 0.90542 0.0
C290 C 0.96888 0.2543 0.92853 0.0
C291 C 0.9298 0.28427 0.91702 0.0
C292 C 0.94493 0.33075 0.90538 0.0
N293 N 0.02167 0.26984 0.92825 0.0
C294 C 0.03665 0.31568 0.91708 0.0
Co295 Co 0.30981 0.89322 0.01305 0.0
Co296 Co 0.22749 0.9223 0.06003 0.0
O297 O 0.29605 0.8996 0.04611 0.0
C298 C 0.40256 0.95699 0.03258 0.0
O299 O 0.37455 0.96475 0.05116 0.0
C300 C 0.26204 0.82202 0.08566 0.0
O301 O 0.30195 0.81483 0.07146 0.0
O302 O 0.18625 0.87473 0.03917 0.0
O303 O 0.23851 0.85699 0.00876 0.0
H304 H 0.03262 0.97612 0.05766 0.0
H305 H 0.39021 0.85057 0.04614 0.0
O306 O 0.38236 0.93016 0.01612 0.0
H307 H 0.33879 0.69558 0.99845 0.0
H308 H 0.4261 0.86386 0.94374 0.0
H309 H 0.24152 0.89572 0.971 0.0
H310 H 0.29892 0.78502 0.99166 0.0
H311 H 0.40736 0.87086 0.9847 0.0
O312 O 0.22985 0.86163 0.08314 0.0
H313 H 0.12357 0.96407 0.04192 0.0
H314 H 0.185 0.9295 0.10763 0.0
H315 H 0.25836 0.88915 0.92991 0.0
H316 H 0.43179 0.76206 0.05329 0.0
H317 H 0.35135 0.87322 0.91592 0.0
H318 H 0.4059 0.68364 0.02943 0.0
O319 O 0.27599 0.96525 0.00729 0.0
H320 H 0.37607 0.97035 0.11488 0.0
H321 H 0.21264 0.03501 0.07583 0.0
H322 H 0.26105 0.09577 0.10193 0.0
H323 H 0.34343 0.06353 0.12171 0.0
H324 H 0.32675 0.91123 0.08849 0.0
H325 H 0.095 0.94179 0.12429 0.0
H326 H 0.01756 0.96222 0.09909 0.0
O327 O 0.22251 0.98313 0.03751 0.0
C328 C 0.1947 0.85274 0.01989 0.0
C329 C 0.06591 0.96599 0.06878 0.0
C330 C 0.10089 0.94664 0.10614 0.0
N331 N 0.15935 0.944 0.07359 0.0
C332 C 0.11751 0.95887 0.05988 0.0
C333 C 0.15182 0.93953 0.09658 0.0
C334 C 0.05752 0.95874 0.09202 0.0
C335 C 0.37937 0.81694 0.03544 0.0
N336 N 0.34259 0.82327 0.01836 0.0
C337 C 0.4028 0.76677 0.03967 0.0
C338 C 0.38819 0.72278 0.0263 0.0
C339 C 0.35054 0.72945 0.00893 0.0
C340 C 0.32806 0.78025 0.00518 0.0
C341 C 0.38552 0.87167 0.94959 0.0
C342 C 0.28218 0.8902 0.96523 0.0
C343 C 0.37469 0.8763 0.97285 0.0
N344 N 0.3236 0.88626 0.98047 0.0
C345 C 0.29145 0.88585 0.94183 0.0
C346 C 0.34357 0.8768 0.934 0.0
C347 C 0.24254 0.99512 0.01806 0.0
C348 C 0.34012 0.98484 0.10644 0.0
C349 C 0.24835 0.02056 0.08441 0.0
C350 C 0.27563 0.05521 0.09917 0.0
C351 C 0.32183 0.03711 0.11024 0.0
N352 N 0.26654 0.96932 0.08071 0.0
C353 C 0.3118 0.95136 0.09154 0.0
Co354 Co 0.89753 0.71146 0.98154 0.0
Co355 Co 0.93841 0.78316 0.93334 0.0
O356 O 0.90563 0.72026 0.94841 0.0
C357 C 0.94441 0.60708 0.96402 0.0
O358 O 0.94056 0.62499 0.94314 0.0
C359 C 0.83188 0.76677 0.91058 0.0
O360 O 0.81406 0.7489 0.93019 0.0
O361 O 0.89375 0.83433 0.95211 0.0
O362 O 0.8701 0.78734 0.98348 0.0
H363 H 0.05057 0.9521 0.92973 0.0
H364 H 0.84349 0.63339 0.94969 0.0
O365 O 0.92686 0.6352 0.98068 0.0
H366 H 0.6985 0.70864 0.99714 0.0
H367 H 0.84789 0.6157 0.05427 0.0
H368 H 0.92117 0.78231 0.02084 0.0
H369 H 0.79235 0.73751 0.00279 0.0
H370 H 0.85671 0.62529 0.01265 0.0
O371 O 0.88028 0.78337 0.90909 0.0
H372 H 0.00229 0.8789 0.94881 0.0
H373 H 0.95172 0.81701 0.88483 0.0
H374 H 0.91231 0.77489 0.06254 0.0
H375 H 0.75067 0.60284 0.94373 0.0
H376 H 0.87555 0.69103 0.07953 0.0
H377 H 0.67708 0.64065 0.96746 0.0
O378 O 0.97243 0.73593 0.98722 0.0
H379 H 0.96922 0.62228 0.8829 0.0
H380 H 0.05556 0.77431 0.92263 0.0
H381 H 0.1114 0.71112 0.90053 0.0
H382 H 0.06827 0.63447 0.88041 0.0
H383 H 0.915 0.68582 0.9056 0.0
H384 H 0.99828 0.89062 0.86512 0.0
H385 H 0.04883 0.95864 0.88753 0.0
O386 O 0.99654 0.78489 0.95681 0.0
C387 C 0.87038 0.8304 0.97151 0.0
C388 C 0.02804 0.92318 0.91976 0.0
C389 C 0.99872 0.88869 0.88353 0.0
N390 N 0.97217 0.84426 0.91815 0.0
C391 C 1.00014 0.88159 0.93053 0.0
C392 C 0.97161 0.84739 0.89488 0.0
C393 C 0.0272 0.92672 0.8961 0.0
C394 C 0.81237 0.64942 0.96042 0.0
N395 N 0.82398 0.68674 0.9768 0.0
C396 C 0.75951 0.63223 0.95682 0.0
C397 C 0.71823 0.65352 0.9701 0.0
C398 C 0.73022 0.69164 0.98674 0.0
C399 C 0.78353 0.70786 0.98984 0.0
C400 C 0.86405 0.6524 0.04708 0.0
C401 C 0.90489 0.7458 0.02809 0.0
C402 C 0.86945 0.65788 0.02352 0.0
N403 N 0.8895 0.70422 0.0143 0.0
C404 C 0.90009 0.74178 0.05172 0.0
C405 C 0.87951 0.69471 0.06124 0.0
C406 C 0.00591 0.76459 0.97631 0.0
C407 C 0.98848 0.65566 0.89149 0.0
C408 C 0.03638 0.74101 0.914 0.0
C409 C 0.06827 0.70541 0.90145 0.0
C410 C 0.04405 0.66246 0.89014 0.0
N411 N 0.98186 0.73407 0.91527 0.0
C412 C 0.95791 0.69204 0.90423 0.0
Co413 Co 0.71604 0.10026 0.02052 0.0
Co414 Co 0.78755 0.0746 0.0694 0.0
O415 O 0.72147 0.09588 0.0537 0.0
C416 C 0.62249 0.03524 0.03473 0.0
O417 O 0.65552 0.00832 0.04791 0.0
C418 C 0.75514 0.17495 0.09349 0.0
O419 O 0.74553 0.19762 0.07373 0.0
O420 O 0.82803 0.13186 0.05291 0.0
O421 O 0.79173 0.12801 0.01786 0.0
H422 H 0.98777 0.0577 0.0781 0.0
H423 H 0.63614 0.15553 0.04982 0.0
O424 O 0.63973 0.07353 0.02233 0.0
H425 H 0.71346 0.29805 1.00159 0.0
H426 H 0.62103 0.13785 0.94642 0.0
H427 H 0.78769 0.07054 0.98219 0.0
H428 H 0.74332 0.20385 0.99751 0.0
H429 H 0.63007 0.13542 0.98825 0.0
O430 O 0.77117 0.12641 0.09465 0.0
H431 H 0.90311 0.06632 0.05668 0.0
H432 H 0.81321 0.04785 0.11763 0.0
H433 H 0.78052 0.07266 0.9403 0.0
H434 H 0.60442 0.24902 0.05435 0.0
H435 H 0.6967 0.10649 0.92215 0.0
H436 H 0.64337 0.32116 0.03014 0.0
O437 O 0.74272 0.02473 0.01764 0.0
H438 H 0.63173 0.00221 0.11444 0.0
H439 H 0.80477 0.9573 0.07791 0.0
H440 H 0.75303 0.8859 0.09716 0.0
H441 H 0.66592 0.90822 0.11567 0.0
H442 H 0.68439 0.07222 0.09469 0.0
H443 H 0.89692 0.03722 0.13963 0.0
H444 H 0.98509 0.04358 0.11999 0.0
O445 O 0.80622 0.02048 0.04477 0.0
C446 C 0.82802 0.14355 0.03177 0.0
C447 C 0.94961 0.05426 0.08684 0.0
C448 C 0.89863 0.04295 0.12138 0.0
N449 N 0.85305 0.05619 0.0857 0.0
C450 C 0.90144 0.05876 0.07474 0.0
C451 C 0.85129 0.04835 0.10875 0.0
C452 C 0.94807 0.04652 0.11034 0.0
C453 C 0.65246 0.18646 0.039 0.0
N454 N 0.6909 0.17403 0.02326 0.0
C455 C 0.6347 0.23944 0.04173 0.0
C456 C 0.65666 0.2799 0.02818 0.0
C457 C 0.69597 0.26696 0.01217 0.0
C458 C 0.71274 0.21352 0.00994 0.0
C459 C 0.6578 0.12314 0.95412 0.0
C460 C 0.75124 0.08569 0.97441 0.0
C461 C 0.66311 0.12158 0.9778 0.0
N462 N 0.70954 0.10331 0.98763 0.0
C463 C 0.74735 0.08662 0.95069 0.0
C464 C 0.70028 0.10555 0.94052 0.0
C465 C 0.78272 0.00129 0.02711 0.0
C466 C 0.6697 0.99201 0.10649 0.0
C467 C 0.7667 0.96725 0.08577 0.0
C468 C 0.7377 0.9267 0.09673 0.0
C469 C 0.68886 0.93926 0.10714 0.0
N470 N 0.74763 0.01889 0.08521 0.0
C471 C 0.69982 0.03154 0.09539 0.0
Co472 Co 0.60105 0.70621 0.76652 0.0
Co473 Co 0.5651 0.76995 0.8171 0.0
O474 O 0.59782 0.71055 0.79988 0.0
C475 C 0.53664 0.61183 0.78038 0.0
O476 O 0.51546 0.64344 0.79586 0.0
C477 C 0.67646 0.75779 0.83587 0.0
O478 O 0.69369 0.75601 0.81478 0.0
O479 O 0.60307 0.82451 0.79752 0.0
O480 O 0.62796 0.78186 0.76517 0.0
H481 H 0.45776 0.94053 0.82543 0.0
H482 H 0.65684 0.62722 0.79619 0.0
O483 O 0.57322 0.62989 0.7672 0.0
H484 H 0.79739 0.69967 0.74556 0.0
H485 H 0.63707 0.61515 0.69138 0.0
H486 H 0.57275 0.78075 0.72896 0.0
H487 H 0.70399 0.73292 0.74309 0.0
H488 H 0.63501 0.62171 0.7333 0.0
O489 O 0.62714 0.76901 0.83933 0.0
H490 H 0.50274 0.86763 0.8045 0.0
H491 H 0.55675 0.79908 0.8666 0.0
H492 H 0.57459 0.77609 0.68701 0.0
H493 H 0.7492 0.59091 0.79857 0.0
H494 H 0.60688 0.6928 0.66795 0.0
H495 H 0.82034 0.62757 0.77325 0.0
O496 O 0.52573 0.73204 0.76323 0.0
H497 H 0.55445 0.59691 0.86124 0.0
H498 H 0.45628 0.76128 0.83942 0.0
H499 H 0.41053 0.69256 0.86248 0.0
H500 H 0.45969 0.60949 0.87361 0.0
H501 H 0.59822 0.66621 0.83773 0.0
H502 H 0.51427 0.87244 0.88821 0.0
H503 H 0.46333 0.94343 0.86767 0.0
O504 O 0.5011 0.77054 0.79589 0.0
C505 C 0.62567 0.8235 0.7779 0.0
C506 C 0.48021 0.91016 0.8346 0.0
C507 C 0.51187 0.8719 0.8698 0.0
N508 N 0.53305 0.8291 0.83419 0.0
C509 C 0.50576 0.86857 0.82279 0.0
C510 C 0.53656 0.8307 0.85742 0.0
C511 C 0.48332 0.91174 0.85827 0.0
C512 C 0.68727 0.64224 0.78472 0.0
N513 N 0.67469 0.68088 0.76906 0.0
C514 C 0.73959 0.62188 0.78625 0.0
C515 C 0.77952 0.64259 0.77209 0.0
C516 C 0.76668 0.68304 0.75656 0.0
C517 C 0.71374 0.70176 0.75527 0.0
C518 C 0.62303 0.6517 0.69949 0.0
C519 C 0.58734 0.74456 0.72079 0.0
C520 C 0.62166 0.6556 0.72321 0.0
N521 N 0.60425 0.70175 0.73356 0.0
C522 C 0.58807 0.74207 0.69703 0.0
C523 C 0.60611 0.69529 0.68635 0.0
C524 C 0.49037 0.75441 0.77567 0.0
C525 C 0.53233 0.63259 0.85626 0.0
C526 C 0.47738 0.72465 0.84345 0.0
C527 C 0.45153 0.68614 0.85688 0.0
C528 C 0.47919 0.63967 0.86319 0.0
N529 N 0.52914 0.71704 0.83628 0.0
C530 C 0.55685 0.67201 0.84287 0.0
Co531 Co 0.69889 0.3996 0.24258 0.0
Co532 Co 0.77655 0.41229 0.19363 0.0
O533 O 0.70902 0.39529 0.20937 0.0
C534 C 0.60016 0.45004 0.22131 0.0
O535 O 0.62245 0.44607 0.20119 0.0
C536 C 0.74738 0.30362 0.17539 0.0
O537 O 0.73036 0.28862 0.19555 0.0
O538 O 0.81761 0.36431 0.21486 0.0
O539 O 0.77156 0.36775 0.24778 0.0
H540 H 0.97749 0.43201 0.18749 0.0
H541 H 0.61872 0.34307 0.21321 0.0
O542 O 0.62492 0.43322 0.239 0.0
H543 H 0.67995 0.2076 0.26879 0.0
H544 H 0.5954 0.38322 0.31607 0.0
H545 H 0.76852 0.43348 0.28104 0.0
H546 H 0.71583 0.30006 0.26992 0.0
H547 H 0.60834 0.37598 0.27456 0.0
O548 O 0.76648 0.35043 0.17216 0.0
H549 H 0.89146 0.42515 0.20768 0.0
H550 H 0.80698 0.42433 0.14477 0.0
H551 H 0.75756 0.44089 0.32263 0.0
H552 H 0.5814 0.25145 0.21164 0.0
H553 H 0.67043 0.41572 0.34043 0.0
H554 H 0.612 0.18282 0.23957 0.0
O555 O 0.73083 0.47298 0.24342 0.0
H556 H 0.62782 0.45617 0.13846 0.0
H557 H 0.78807 0.52643 0.1781 0.0
H558 H 0.73658 0.58616 0.15264 0.0
H559 H 0.65589 0.55111 0.13254 0.0
H560 H 0.67963 0.39817 0.16453 0.0
H561 H 0.89236 0.43187 0.1239 0.0
H562 H 0.97853 0.43403 0.14522 0.0
O563 O 0.78843 0.47634 0.21409 0.0
C564 C 0.81235 0.354 0.23601 0.0
C565 C 0.94014 0.43197 0.178 0.0
C566 C 0.89236 0.43167 0.14233 0.0
N567 N 0.84352 0.42715 0.17762 0.0
C568 C 0.89097 0.42881 0.18941 0.0
C569 C 0.84398 0.42812 0.15432 0.0
C570 C 0.94072 0.43318 0.1543 0.0
C571 C 0.63161 0.31395 0.22569 0.0
N572 N 0.66851 0.32751 0.24197 0.0
C573 C 0.61058 0.26187 0.22461 0.0
C574 C 0.62787 0.22336 0.24024 0.0
C575 C 0.66598 0.23725 0.25664 0.0
C576 C 0.68612 0.28972 0.25719 0.0
C577 C 0.63356 0.39427 0.30852 0.0
C578 C 0.73062 0.4221 0.28864 0.0
C579 C 0.64105 0.3904 0.285 0.0
N580 N 0.68921 0.40401 0.27535 0.0
C581 C 0.72459 0.42654 0.31222 0.0
C582 C 0.67569 0.41247 0.32218 0.0
C583 C 0.76681 0.49723 0.23183 0.0
C584 C 0.66289 0.47194 0.14712 0.0
C585 C 0.75253 0.51099 0.16973 0.0
C586 C 0.72378 0.54495 0.15517 0.0
C587 C 0.6786 0.52522 0.14385 0.0
N588 N 0.73664 0.45884 0.17301 0.0
C589 C 0.69264 0.43914 0.16181 0.0
Co590 Co 0.37947 0.30487 0.76429 0.0
Co591 Co 0.40969 0.23207 0.81259 0.0
O592 O 0.3842 0.29711 0.79731 0.0
C593 C 0.44832 0.39539 0.77853 0.0
O594 O 0.47451 0.35972 0.79074 0.0
C595 C 0.30699 0.25748 0.83657 0.0
O596 O 0.28343 0.25576 0.81657 0.0
O597 O 0.3565 0.1876 0.79511 0.0
O598 O 0.35226 0.22949 0.76105 0.0
H599 H 0.4571 0.0357 0.81889 0.0
H600 H 0.32288 0.37808 0.79638 0.0
O601 O 0.40724 0.38103 0.76695 0.0
H602 H 0.18276 0.31253 0.74391 0.0
H603 H 0.34237 0.40607 0.69164 0.0
H604 H 0.40483 0.23458 0.72478 0.0
H605 H 0.27642 0.28076 0.74041 0.0
H606 H 0.34628 0.39408 0.73331 0.0
O607 O 0.35647 0.24468 0.8378 0.0
H608 H 0.42483 0.11713 0.79952 0.0
H609 H 0.43981 0.20688 0.86068 0.0
H610 H 0.40084 0.24459 0.68304 0.0
H611 H 0.23038 0.41338 0.79977 0.0
H612 H 0.36957 0.3309 0.66621 0.0
H613 H 0.15937 0.38007 0.77353 0.0
O614 O 0.45463 0.27848 0.76058 0.0
H615 H 0.47062 0.39355 0.85738 0.0
H616 H 0.5277 0.22295 0.82178 0.0
H617 H 0.59499 0.27974 0.84111 0.0
H618 H 0.56656 0.36562 0.85919 0.0
H619 H 0.40474 0.33597 0.83753 0.0
H620 H 0.471 0.12587 0.88099 0.0
H621 H 0.48091 0.03965 0.86 0.0
O622 O 0.46538 0.21846 0.78834 0.0
C623 C 0.34243 0.18974 0.77415 0.0
C624 C 0.45391 0.07313 0.8282 0.0
C625 C 0.46168 0.12378 0.86301 0.0
N626 N 0.43323 0.16758 0.82854 0.0
C627 C 0.4363 0.11972 0.81718 0.0
C628 C 0.44418 0.16961 0.85136 0.0
C629 C 0.46706 0.07536 0.85124 0.0
C630 C 0.29277 0.36527 0.78434 0.0
N631 N 0.30569 0.32956 0.76755 0.0
C632 C 0.24023 0.38467 0.78654 0.0
C633 C 0.20036 0.36579 0.77188 0.0
C634 C 0.21345 0.32791 0.75526 0.0
C635 C 0.26659 0.31007 0.75337 0.0
C636 C 0.35603 0.36826 0.69878 0.0
C637 C 0.39058 0.27205 0.7176 0.0
C638 C 0.35854 0.36131 0.72236 0.0
N639 N 0.3755 0.31358 0.73148 0.0
C640 C 0.38869 0.27758 0.69394 0.0
C641 C 0.37124 0.32605 0.68451 0.0
C642 C 0.48126 0.24061 0.76984 0.0
C643 C 0.48344 0.35605 0.8497 0.0
C644 C 0.51497 0.26033 0.82953 0.0
C645 C 0.55327 0.29226 0.84051 0.0
C646 C 0.53728 0.34042 0.85066 0.0
N647 N 0.46211 0.27574 0.82878 0.0
C648 C 0.44625 0.32309 0.83857 0.0
Co649 Co 0.2942 0.60886 0.23488 0.0
Co650 Co 0.22304 0.57242 0.18627 0.0
O651 O 0.28777 0.59857 0.20188 0.0
C652 C 0.38293 0.53535 0.22182 0.0
O653 O 0.34907 0.51209 0.20787 0.0
C654 C 0.25102 0.67463 0.16267 0.0
O655 O 0.26693 0.69319 0.18248 0.0
O656 O 0.17774 0.62551 0.20297 0.0
O657 O 0.22073 0.64416 0.23575 0.0
H658 H 0.02945 0.51547 0.18058 0.0
H659 H 0.37547 0.65046 0.20239 0.0
O660 O 0.36793 0.57468 0.23425 0.0
H661 H 0.32482 0.80648 0.24953 0.0
H662 H 0.39292 0.64898 0.30797 0.0
H663 H 0.21912 0.5974 0.27371 0.0
H664 H 0.28384 0.71754 0.25626 0.0
H665 H 0.38407 0.63884 0.26635 0.0
O666 O 0.23354 0.62659 0.16112 0.0
H667 H 0.11345 0.53821 0.20067 0.0
H668 H 0.19555 0.55284 0.13758 0.0
H669 H 0.22599 0.60791 0.31539 0.0
H670 H 0.41814 0.73834 0.19516 0.0
H671 H 0.31342 0.63381 0.33277 0.0
H672 H 0.39255 0.81735 0.21876 0.0
O673 O 0.26148 0.53695 0.24103 0.0
H674 H 0.38636 0.51183 0.14274 0.0
H675 H 0.21334 0.45519 0.17613 0.0
H676 H 0.26996 0.38827 0.15636 0.0
H677 H 0.35704 0.41652 0.13939 0.0
H678 H 0.32878 0.57715 0.16298 0.0
H679 H 0.11254 0.52978 0.1168 0.0
H680 H 0.02841 0.51255 0.13823 0.0
O681 O 0.20953 0.51775 0.21072 0.0
C682 C 0.18032 0.64913 0.22225 0.0
C683 C 0.06586 0.52293 0.17101 0.0
C684 C 0.11242 0.53137 0.13522 0.0
N685 N 0.15923 0.54748 0.17036 0.0
C686 C 0.11363 0.53573 0.18232 0.0
C687 C 0.15928 0.54453 0.1471 0.0
C688 C 0.06528 0.52125 0.14729 0.0
C689 C 0.36447 0.68442 0.21279 0.0
N690 N 0.32682 0.67884 0.22955 0.0
C691 C 0.38861 0.73421 0.20859 0.0
C692 C 0.37422 0.77851 0.22182 0.0
C693 C 0.33619 0.77245 0.23906 0.0
C694 C 0.31293 0.72201 0.24273 0.0
C695 C 0.35459 0.63778 0.30059 0.0
C696 C 0.25716 0.60922 0.28113 0.0
C697 C 0.34938 0.63176 0.27704 0.0
N698 N 0.30098 0.61805 0.26759 0.0
C699 C 0.26087 0.61486 0.30475 0.0
C700 C 0.30995 0.62931 0.3145 0.0
C701 C 0.22745 0.50751 0.23061 0.0
C702 C 0.34822 0.49912 0.14983 0.0
C703 C 0.25107 0.46784 0.1687 0.0
C704 C 0.28298 0.42975 0.15755 0.0
C705 C 0.33183 0.44564 0.14802 0.0
N706 N 0.26715 0.52036 0.17017 0.0
C707 C 0.3152 0.53608 0.16108 0.0
Co708 Co 0.60612 0.78825 0.4874 0.0
Co709 Co 0.58242 0.71986 0.43657 0.0
O710 O 0.60623 0.78276 0.45402 0.0
C711 C 0.54312 0.88364 0.47055 0.0
O712 O 0.53277 0.85628 0.45199 0.0
C713 C 0.69351 0.74008 0.41905 0.0
O714 O 0.70998 0.75224 0.43965 0.0
O715 O 0.62575 0.6707 0.45679 0.0
O716 O 0.63963 0.71541 0.48976 0.0
H717 H 0.52765 0.52649 0.42404 0.0
H718 H 0.6571 0.87065 0.45784 0.0
O719 O 0.57184 0.86244 0.48622 0.0
H720 H 0.80087 0.80883 0.50954 0.0
H721 H 0.63001 0.88301 0.56261 0.0
H722 H 0.58034 0.71269 0.52488 0.0
H723 H 0.70922 0.77141 0.51246 0.0
H724 H 0.63136 0.87561 0.52072 0.0
O725 O 0.645 0.72657 0.41531 0.0
H726 H 0.55864 0.60382 0.4464 0.0
H727 H 0.56591 0.69995 0.38688 0.0
H728 H 0.57884 0.7182 0.56681 0.0
H729 H 0.74812 0.90921 0.45432 0.0
H730 H 0.6038 0.80386 0.58595 0.0
H731 H 0.82079 0.87835 0.48033 0.0
O732 O 0.53298 0.75555 0.48952 0.0
H733 H 0.55559 0.8822 0.38662 0.0
H734 H 0.46756 0.7242 0.42115 0.0
H735 H 0.41406 0.78669 0.39768 0.0
H736 H 0.45809 0.86623 0.38013 0.0
H737 H 0.60732 0.81956 0.41072 0.0
H738 H 0.53664 0.62304 0.36361 0.0
H739 H 0.51628 0.53558 0.38217 0.0
O740 O 0.51776 0.71159 0.45682 0.0
C741 C 0.64467 0.67408 0.47706 0.0
C742 C 0.53512 0.56464 0.41576 0.0
C743 C 0.54014 0.61882 0.38189 0.0
N744 N 0.55997 0.65792 0.41845 0.0
C745 C 0.55163 0.60911 0.42852 0.0
C746 C 0.55624 0.66248 0.39526 0.0
C747 C 0.52892 0.56973 0.3923 0.0
C748 C 0.68832 0.85745 0.46938 0.0
N749 N 0.67753 0.81965 0.48564 0.0
C750 C 0.73986 0.87928 0.46725 0.0
C751 C 0.78062 0.86188 0.48182 0.0
C752 C 0.76946 0.82293 0.49823 0.0
C753 C 0.71743 0.80202 0.49985 0.0
C754 C 0.61914 0.84545 0.55447 0.0
C755 C 0.59161 0.75 0.53309 0.0
C756 C 0.6197 0.84106 0.53076 0.0
N757 N 0.60632 0.79365 0.52037 0.0
C758 C 0.59052 0.75292 0.55684 0.0
C759 C 0.60446 0.80101 0.56756 0.0
C760 C 0.50277 0.7276 0.47654 0.0
C761 C 0.53598 0.84759 0.39412 0.0
C762 C 0.48698 0.75906 0.41384 0.0
C763 C 0.4565 0.79412 0.40042 0.0
C764 C 0.48125 0.83868 0.39053 0.0
N765 N 0.54067 0.7681 0.41733 0.0
C766 C 0.5652 0.81168 0.40764 0.0
Co767 Co 0.79794 0.38349 0.52094 0.0
Co768 Co 0.72063 0.42489 0.56724 0.0
O769 O 0.7859 0.39531 0.55351 0.0
C770 C 0.89683 0.43852 0.53975 0.0
O771 O 0.8743 0.4404 0.55985 0.0
C772 C 0.73737 0.31953 0.59001 0.0
O773 O 0.74802 0.29856 0.57001 0.0
O774 O 0.67491 0.37437 0.54919 0.0
O775 O 0.72382 0.35078 0.51828 0.0
H776 H 0.538 0.51375 0.56891 0.0
H777 H 0.87114 0.3388 0.55691 0.0
O778 O 0.87241 0.41698 0.52285 0.0
H779 H 0.82136 0.18411 0.50886 0.0
H780 H 0.90642 0.33505 0.45131 0.0
H781 H 0.72968 0.39518 0.4798 0.0
H782 H 0.78604 0.27458 0.50037 0.0
H783 H 0.89124 0.34797 0.49243 0.0
O784 O 0.72566 0.36923 0.592 0.0
H785 H 0.62257 0.48714 0.55145 0.0
H786 H 0.68203 0.43349 0.61538 0.0
H787 H 0.7428 0.38208 0.43856 0.0
H788 H 0.90725 0.24928 0.56598 0.0
H789 H 0.83176 0.35185 0.42406 0.0
H790 H 0.88249 0.17092 0.54189 0.0
O791 O 0.76859 0.45582 0.51318 0.0
H792 H 0.86974 0.4738 0.6215 0.0
H793 H 0.72159 0.54381 0.57407 0.0
H794 H 0.7777 0.6071 0.59593 0.0
H795 H 0.85241 0.57224 0.6199 0.0
H796 H 0.8136 0.41198 0.5989 0.0
H797 H 0.59862 0.46315 0.6339 0.0
H798 H 0.52503 0.50284 0.61067 0.0
O799 O 0.7146 0.47988 0.54221 0.0
C800 C 0.68055 0.34965 0.5302 0.0
C801 C 0.56914 0.49589 0.57929 0.0
C802 C 0.60312 0.46718 0.61565 0.0
N803 N 0.65618 0.45406 0.5818 0.0
C804 C 0.61711 0.47905 0.56925 0.0
C805 C 0.65023 0.44981 0.60492 0.0
C806 C 0.56197 0.48963 0.60264 0.0
C807 C 0.86045 0.3054 0.54614 0.0
N808 N 0.82705 0.31252 0.52788 0.0
C809 C 0.88095 0.25453 0.55145 0.0
C810 C 0.867 0.21059 0.53795 0.0
C811 C 0.83277 0.21797 0.51941 0.0
C812 C 0.81304 0.26943 0.51465 0.0
C813 C 0.86747 0.34822 0.45742 0.0
C814 C 0.76836 0.38169 0.47366 0.0
C815 C 0.85873 0.35588 0.48069 0.0
N816 N 0.80954 0.37213 0.48856 0.0
C817 C 0.77562 0.3745 0.45027 0.0
C818 C 0.82556 0.35761 0.44214 0.0
C819 C 0.7353 0.48779 0.52259 0.0
C820 C 0.83733 0.4895 0.61111 0.0
C821 C 0.7544 0.52822 0.5842 0.0
C822 C 0.78584 0.56432 0.59668 0.0
C823 C 0.82766 0.54472 0.61017 0.0
N824 N 0.76458 0.47414 0.58496 0.0
C825 C 0.80507 0.45461 0.59839 0.0
Co826 Co 0.39057 0.19529 0.48492 0.0
Co827 Co 0.44318 0.26721 0.4393 0.0
O828 O 0.40636 0.20573 0.45271 0.0
C829 C 0.45935 0.10259 0.47228 0.0
O830 O 0.48993 0.13766 0.46181 0.0
C831 C 0.33799 0.26143 0.41566 0.0
O832 O 0.31552 0.25469 0.43564 0.0
O833 O 0.39725 0.31898 0.45702 0.0
O834 O 0.36525 0.2725 0.48735 0.0
H835 H 0.56017 0.43386 0.43768 0.0
H836 H 0.34376 0.12844 0.44793 0.0
O837 O 0.41655 0.11811 0.48239 0.0
H838 H 0.18881 0.1911 0.49298 0.0
H839 H 0.32835 0.08505 0.55187 0.0
H840 H 0.39726 0.26156 0.52745 0.0
H841 H 0.28112 0.2177 0.50345 0.0
H842 H 0.34748 0.1026 0.51143 0.0
O843 O 0.38873 0.26744 0.41387 0.0
H844 H 0.5128 0.3592 0.45582 0.0
H845 H 0.45967 0.30287 0.39127 0.0
H846 H 0.37837 0.24599 0.56797 0.0
H847 H 0.25232 0.10023 0.43688 0.0
H848 H 0.34369 0.15705 0.58051 0.0
H849 H 0.1739 0.1318 0.45948 0.0
O850 O 0.46458 0.21861 0.49407 0.0
H851 H 0.47822 0.10475 0.39039 0.0
H852 H 0.56126 0.25643 0.43164 0.0
H853 H 0.61914 0.19183 0.41122 0.0
H854 H 0.57766 0.11531 0.39038 0.0
H855 H 0.42198 0.17013 0.41119 0.0
H856 H 0.50642 0.37756 0.37247 0.0
H857 H 0.55747 0.44374 0.39562 0.0
O858 O 0.49681 0.26744 0.46472 0.0
C859 C 0.37058 0.31604 0.47571 0.0
C860 C 0.53711 0.40596 0.42741 0.0
C861 C 0.50702 0.37433 0.39085 0.0
N862 N 0.48028 0.32775 0.42497 0.0
C863 C 0.50926 0.36364 0.4377 0.0
C864 C 0.47981 0.33239 0.40172 0.0
C865 C 0.53571 0.41141 0.40383 0.0
C866 C 0.3101 0.14114 0.45812 0.0
N867 N 0.31807 0.17343 0.47663 0.0
C868 C 0.25828 0.12557 0.45167 0.0
C869 C 0.21431 0.14342 0.46431 0.0
C870 C 0.22265 0.17664 0.48311 0.0
C871 C 0.27508 0.1914 0.48901 0.0
C872 C 0.34382 0.12387 0.54666 0.0
C873 C 0.3827 0.22279 0.53264 0.0
C874 C 0.35518 0.13397 0.52376 0.0
N875 N 0.37456 0.18296 0.51697 0.0
C876 C 0.37182 0.21416 0.55568 0.0
C877 C 0.35235 0.16428 0.56271 0.0
C878 C 0.50073 0.24767 0.4847 0.0
C879 C 0.49678 0.13807 0.39931 0.0
C880 C 0.54285 0.22337 0.42256 0.0
C881 C 0.57586 0.18689 0.41103 0.0
C882 C 0.55256 0.14397 0.39935 0.0
N883 N 0.48816 0.21736 0.42242 0.0
C884 C 0.46505 0.17538 0.41101 0.0
Co885 Co 0.19349 0.59426 0.51215 0.0
Co886 Co 0.28556 0.59005 0.55528 0.0
O887 O 0.21139 0.59821 0.54461 0.0
C888 C 0.11306 0.52334 0.53362 0.0
O889 O 0.15248 0.50119 0.54509 0.0
C890 C 0.24741 0.68785 0.5808 0.0
O891 O 0.22654 0.70575 0.5617 0.0
O892 O 0.30756 0.65049 0.53497 0.0
O893 O 0.26447 0.62711 0.50305 0.0
H894 H 0.48591 0.59635 0.5453 0.0
H895 H 0.11872 0.64896 0.54393 0.0
O896 O 0.12192 0.56207 0.51999 0.0
H897 H 0.16579 0.786 0.48666 0.0
H898 H 0.0693 0.60987 0.44462 0.0
H899 H 0.24887 0.55242 0.47094 0.0
H900 H 0.20307 0.69415 0.48412 0.0
H901 H 0.09521 0.61971 0.48496 0.0
O902 O 0.27114 0.64227 0.58114 0.0
H903 H 0.39179 0.58869 0.53235 0.0
H904 H 0.33795 0.58253 0.60094 0.0
H905 H 0.22467 0.54188 0.43047 0.0
H906 H 0.07961 0.74 0.54694 0.0
H907 H 0.13435 0.57092 0.41704 0.0
H908 H 0.10337 0.80938 0.51819 0.0
O909 O 0.22629 0.52119 0.51063 0.0
H910 H 0.16131 0.49161 0.60849 0.0
H911 H 0.33269 0.48272 0.56637 0.0
H912 H 0.30515 0.40593 0.59026 0.0
H913 H 0.2191 0.41026 0.61171 0.0
H914 H 0.18994 0.56678 0.58392 0.0
H915 H 0.43152 0.58985 0.61463 0.0
H916 H 0.50596 0.59898 0.58677 0.0
O917 O 0.30224 0.53567 0.5305 0.0
C918 C 0.30068 0.6541 0.51346 0.0
C919 C 0.4537 0.5929 0.55763 0.0
C920 C 0.42316 0.58932 0.59654 0.0
N921 N 0.35941 0.58513 0.56585 0.0
C922 C 0.40036 0.58813 0.55038 0.0
C923 C 0.3703 0.58495 0.58868 0.0
C924 C 0.46495 0.59423 0.58088 0.0
C925 C 0.12847 0.67863 0.5312 0.0
N926 N 0.16264 0.66603 0.51379 0.0
C927 C 0.10654 0.73025 0.53305 0.0
C928 C 0.11998 0.76918 0.51695 0.0
C929 C 0.15504 0.75611 0.49927 0.0
C930 C 0.17615 0.70405 0.49797 0.0
C931 C 0.10897 0.59756 0.45022 0.0
C932 C 0.2097 0.56569 0.46521 0.0
C933 C 0.12396 0.60322 0.47302 0.0
N934 N 0.17416 0.58818 0.48019 0.0
C935 C 0.19614 0.55941 0.44227 0.0
C936 C 0.14545 0.57564 0.43475 0.0
C937 C 0.27376 0.50763 0.51666 0.0
C938 C 0.19938 0.48961 0.59957 0.0
C939 C 0.29545 0.48518 0.57583 0.0
C940 C 0.27998 0.44146 0.58927 0.0
C941 C 0.23169 0.4439 0.60129 0.0
N942 N 0.26404 0.53035 0.57459 0.0
C943 C 0.21618 0.53251 0.58595 0.0
C944 C 0.21607 0.37264 0.26157 0.0
C945 C 0.16014 0.37133 0.2663 0.0
C946 C 0.14963 0.46117 0.24956 0.0
C947 C 0.20459 0.46046 0.24293 0.0
N948 N 0.28768 0.41113 0.23894 0.0
N949 N 0.07156 0.40871 0.26039 0.0
C950 C 0.23725 0.41502 0.24798 0.0
C951 C 0.12623 0.41397 0.259 0.0
N952 N 0.24912 0.33382 0.27033 0.0
N953 N 0.12029 0.50758 0.24772 0.0
H954 H 0.05296 0.37428 0.26682 0.0
H955 H 0.04473 0.43619 0.25324 0.0
H956 H 0.13639 0.54342 0.24147 0.0
H957 H 0.08169 0.51196 0.2544 0.0
H958 H 0.29096 0.33588 0.26972 0.0
H959 H 0.23475 0.30136 0.27975 0.0
H960 H 0.31144 0.37665 0.23999 0.0
H961 H 0.30382 0.44072 0.2285 0.0
C962 C 0.40048 0.80173 0.7772 0.0
C963 C 0.43602 0.76757 0.7652 0.0
C964 C 0.37658 0.77881 0.73169 0.0
C965 C 0.35223 0.82433 0.74229 0.0
N966 N 0.3503 0.88372 0.77511 0.0
N967 N 0.44898 0.71351 0.73114 0.0
C968 C 0.36681 0.83715 0.76504 0.0
C969 C 0.42171 0.75318 0.74237 0.0
N970 N 0.39486 0.79685 0.80013 0.0
N971 N 0.3543 0.75753 0.71237 0.0
H972 H 0.47169 0.68427 0.73947 0.0
H973 H 0.44742 0.70867 0.71353 0.0
H974 H 0.31923 0.77253 0.70496 0.0
H975 H 0.36694 0.72151 0.70503 0.0
H976 H 0.36746 0.81966 0.80953 0.0
H977 H 0.40975 0.76298 0.80842 0.0
H978 H 0.36369 0.89547 0.79121 0.0
H979 H 0.32892 0.91314 0.76642 0.0
C980 C 0.83532 0.57409 0.23274 0.0
C981 C 0.78472 0.55249 0.23957 0.0
C982 C 0.77334 0.63196 0.26431 0.0
C983 C 0.82233 0.65384 0.25602 0.0
N984 N 0.87949 0.65655 0.22272 0.0
N985 N 0.69672 0.57649 0.25469 0.0
C986 C 0.84659 0.62882 0.237 0.0
C987 C 0.7508 0.58583 0.25335 0.0
N988 N 0.87488 0.54243 0.2239 0.0
N989 N 0.74731 0.65604 0.28204 0.0
H990 H 0.6769 0.5487 0.24439 0.0
H991 H 0.67047 0.6019 0.26343 0.0
H992 H 0.75959 0.69289 0.28879 0.0
H993 H 0.71481 0.63822 0.29036 0.0
H994 H 0.91243 0.55747 0.21922 0.0
H995 H 0.87379 0.50089 0.22511 0.0
H996 H 0.89558 0.6393 0.208 0.0
H997 H 0.8838 0.69797 0.22376 0.0
C998 C 0.56235 0.25254 0.74201 0.0
C999 C 0.535 0.22318 0.75975 0.0
C1000 C 0.61973 0.17641 0.76797 0.0
C1001 C 0.64338 0.19673 0.74806 0.0
N1002 N 0.64078 0.26005 0.71732 0.0
N1003 N 0.5372 0.13933 0.78106 0.0
C1004 C 0.61584 0.23722 0.73566 0.0
C1005 C 0.56359 0.1802 0.77045 0.0
N1006 N 0.53811 0.29397 0.73066 0.0
N1007 N 0.65022 0.15325 0.78455 0.0
H1008 H 0.49646 0.13299 0.7784 0.0
H1009 H 0.55708 0.10674 0.7885 0.0
H1010 H 0.6919 0.15711 0.78466 0.0
H1011 H 0.6337 0.13922 0.79977 0.0
H1012 H 0.55964 0.32346 0.72196 0.0
H1013 H 0.4969 0.29813 0.72864 0.0
H1014 H 0.62127 0.28361 0.70519 0.0
H1015 H 0.68169 0.25418 0.71416 0.0
C1016 C 0.23384 0.09588 0.021 0.0
C1017 C 0.22749 0.04839 0.00797 0.0
C1018 C 0.19854 0.10435 0.97596 0.0
C1019 C 0.18975 0.1493 0.99066 0.0
N1020 N 0.20489 0.18594 0.02891 0.0
N1021 N 0.19579 0.00784 0.97309 0.0
C1022 C 0.20911 0.14476 0.01368 0.0
C1023 C 0.2078 0.0527 0.98542 0.0
N1024 N 0.26675 0.0954 0.03965 0.0
N1025 N 0.20106 0.11091 0.95289 0.0
H1026 H 0.19942 0.96939 0.97978 0.0
H1027 H 0.17661 0.00948 0.95729 0.0
H1028 H 0.20143 0.14866 0.94521 0.0
H1029 H 0.21097 0.07957 0.94183 0.0
H1030 H 0.27723 0.13003 0.04865 0.0
H1031 H 0.28887 0.06148 0.04437 0.0
H1032 H 0.2083 0.17995 0.04644 0.0
H1033 H 0.20012 0.22588 0.02452 0.0
C1034 C 0.1035 0.86147 0.00284 0.0
C1035 C 0.14781 0.82805 0.00832 0.0
C1036 C 0.10022 0.7508 0.99162 0.0
C1037 C 0.0542 0.7839 0.98853 0.0
N1038 N 0.00761 0.86586 0.99809 0.0
N1039 N 0.18628 0.73912 0.01085 0.0
C1040 C 0.05455 0.83776 0.99618 0.0
C1041 C 0.14579 0.77202 0.00348 0.0
N1042 N 0.10869 0.91615 0.00289 0.0
N1043 N 0.10057 0.69976 0.98297 0.0
H1044 H 0.21952 0.7536 0.01982 0.0
H1045 H 0.18494 0.69731 0.00965 0.0
H1046 H 0.06721 0.68306 0.97479 0.0
H1047 H 0.1347 0.6754 0.98265 0.0
H1048 H 0.07885 0.94199 0.99679 0.0
H1049 H 0.14481 0.93522 0.00677 0.0
H1050 H 0.00559 0.90339 0.00598 0.0
H1051 H 0.97032 0.84889 0.99432 0.0
C1052 C 0.87582 0.92123 0.98992 0.0
C1053 C 0.84355 0.87846 0.98197 0.0
C1054 C 0.76943 0.91276 0.00594 0.0
C1055 C 0.80492 0.95191 0.01545 0.0
N1056 N 0.89865 0.96963 0.02378 0.0
N1057 N 0.75744 0.83488 0.98096 0.0
C1058 C 0.86016 0.94939 0.00967 0.0
C1059 C 0.78945 0.87458 0.98965 0.0
N1060 N 0.92062 0.93655 0.97834 0.0
N1061 N 0.71751 0.91067 0.01343 0.0
H1062 H 0.77018 0.81022 0.96761 0.0
H1063 H 0.71879 0.82614 0.98662 0.0
H1064 H 0.70452 0.93303 0.0274 0.0
H1065 H 0.68778 0.88627 0.00646 0.0
H1066 H 0.94363 0.96982 0.98313 0.0
H1067 H 0.92973 0.92065 0.96247 0.0
H1068 H 0.93967 0.966 0.02032 0.0
H1069 H 0.89014 0.98227 0.04023 0.0
C1070 C 0.87913 0.22806 0.02181 0.0
C1071 C 0.87592 0.17108 0.02228 0.0
C1072 C 0.96779 0.16513 0.00781 0.0
C1073 C 0.96816 0.22122 0.00369 0.0
N1074 N 0.92107 0.30621 0.00467 0.0
N1075 N 0.91248 0.08599 0.01 0.0
C1076 C 0.92314 0.25303 0.01032 0.0
C1077 C 0.91893 0.13974 0.01367 0.0
N1078 N 0.84018 0.25819 0.03216 0.0
N1079 N 0.01453 0.13623 0.00684 0.0
H1080 H 0.87603 0.0666 0.01293 0.0
H1081 H 0.9412 0.06262 1.00162 0.0
H1082 H 0.05178 0.15427 0.00382 0.0
H1083 H 0.01684 0.09578 0.01153 0.0
H1084 H 0.84299 0.29972 0.03431 0.0
H1085 H 0.80682 0.24099 0.04009 0.0
H1086 H 0.88699 0.33013 0.00683 0.0
H1087 H 0.9523 0.32533 0.99618 0.0
C1088 C 0.61695 0.91986 0.76495 0.0
C1089 C 0.64979 0.87398 0.76878 0.0
C1090 C 0.72542 0.9203 0.75032 0.0
C1091 C 0.69442 0.9683 0.74918 0.0
N1092 N 0.61439 0.01663 0.76058 0.0
N1093 N 0.73863 0.83446 0.76897 0.0
C1094 C 0.64125 0.96898 0.75806 0.0
C1095 C 0.70509 0.87537 0.76262 0.0
N1096 N 0.56226 0.91588 0.76654 0.0
N1097 N 0.77296 0.91638 0.73871 0.0
H1098 H 0.72547 0.8014 0.77832 0.0
H1099 H 0.78026 0.83594 0.76691 0.0
H1100 H 0.78841 0.94744 0.72873 0.0
H1101 H 0.79424 0.88042 0.73706 0.0
H1102 H 0.53622 0.94695 0.76192 0.0
H1103 H 0.54283 0.87952 0.76983 0.0
H1104 H 0.57725 0.01957 0.76873 0.0
H1105 H 0.63177 0.05378 0.75681 0.0
C1106 C 0.91236 0.25467 0.26223 0.0
C1107 C 0.94318 0.28992 0.27634 0.0
C1108 C 0.88706 0.36587 0.26389 0.0
C1109 C 0.85887 0.33159 0.24876 0.0
N1110 N 0.84583 0.24418 0.23207 0.0
N1111 N 0.93815 0.37254 0.29844 0.0
C1112 C 0.87175 0.27609 0.24755 0.0
C1113 C 0.92471 0.34381 0.27945 0.0
N1114 N 0.91857 0.20024 0.26457 0.0
N1115 N 0.87883 0.42025 0.26308 0.0
H1116 H 0.95602 0.35541 0.31263 0.0
H1117 H 0.92252 0.41049 0.30212 0.0
H1118 H 0.85029 0.43817 0.25255 0.0
H1119 H 0.90384 0.44783 0.27123 0.0
H1120 H 0.89509 0.17176 0.25621 0.0
H1121 H 0.94288 0.18337 0.27716 0.0
H1122 H 0.85728 0.20487 0.2283 0.0
H1123 H 0.81477 0.25838 0.22174 0.0
C1124 C 0.2445 0.08855 0.74819 0.0
C1125 C 0.28028 0.04599 0.74216 0.0
C1126 C 0.3562 0.10236 0.75391 0.0
C1127 C 0.32028 0.1406 0.76332 0.0
N1128 N 0.22934 0.16839 0.77124 0.0
N1129 N 0.37039 0.00914 0.74483 0.0
C1130 C 0.26404 0.13299 0.76117 0.0
C1131 C 0.33622 0.05197 0.74658 0.0
N1132 N 0.19296 0.0886 0.74018 0.0
N1133 N 0.40925 0.11475 0.75102 0.0
H1134 H 0.35728 0.97067 0.74075 0.0
H1135 H 0.41052 0.01063 0.75001 0.0
H1136 H 0.42483 0.15244 0.75501 0.0
H1137 H 0.43606 0.08994 0.74226 0.0
H1138 H 0.16655 0.12083 0.74229 0.0
H1139 H 0.17869 0.05912 0.72917 0.0
H1140 H 0.18798 0.16185 0.7722 0.0
H1141 H 0.2425 0.20237 0.78008 0.0
C1142 C 0.03743 0.67196 0.24184 0.0
C1143 C 0.04454 0.71254 0.25854 0.0
C1144 C 0.13847 0.72316 0.24615 0.0
C1145 C 0.13185 0.6799 0.23065 0.0
N1146 N 0.06641 0.64045 0.20518 0.0
N1147 N 0.10353 0.7734 0.27844 0.0
C1148 C 0.07898 0.66161 0.22595 0.0
C1149 C 0.09549 0.73777 0.26105 0.0
N1150 N 0.99131 0.64235 0.24116 0.0
N1151 N 0.18394 0.75362 0.24475 0.0
H1152 H 0.0734 0.78319 0.29006 0.0
H1153 H 0.14096 0.78942 0.28262 0.0
H1154 H 0.21148 0.74775 0.23158 0.0
H1155 H 0.19072 0.78834 0.25426 0.0
H1156 H 0.98772 0.60787 0.23116 0.0
H1157 H 0.95901 0.64894 0.25206 0.0
H1158 H 0.02735 0.62966 0.20056 0.0
H1159 H 0.09218 0.64337 0.19128 0.0
C1160 C 0.66424 0.53132 0.49876 0.0
C1161 C 0.71557 0.53442 0.50908 0.0
C1162 C 0.725 0.62663 0.49446 0.0
C1163 C 0.67022 0.62571 0.48743 0.0
N1164 N 0.58408 0.58128 0.48964 0.0
N1165 N 0.7944 0.58639 0.51826 0.0
C1166 C 0.63878 0.5791 0.49135 0.0
C1167 C 0.74604 0.58254 0.50733 0.0
N1168 N 0.64044 0.48258 0.49527 0.0
N1169 N 0.75713 0.6688 0.48835 0.0
H1170 H 0.8112 0.55419 0.52717 0.0
H1171 H 0.81597 0.62217 0.51968 0.0
H1172 H 0.74308 0.70086 0.47854 0.0
H1173 H 0.79847 0.6697 0.49125 0.0
H1174 H 0.6046 0.47818 0.4862 0.0
H1175 H 0.65992 0.4465 0.4991 0.0
H1176 H 0.55921 0.54916 0.4941 0.0
H1177 H 0.56377 0.61726 0.48656 0.0
C1178 C 0.58144 0.34451 0.52015 0.0
C1179 C 0.63305 0.31978 0.52085 0.0
C1180 C 0.59737 0.2445 0.49826 0.0
C1181 C 0.54541 0.26799 0.49903 0.0
N1182 N 0.48579 0.33279 0.5164 0.0
N1183 N 0.68362 0.23736 0.51725 0.0
C1184 C 0.53674 0.3151 0.51207 0.0
C1185 C 0.63927 0.26706 0.5118 0.0
N1186 N 0.57536 0.39763 0.52528 0.0
N1187 N 0.60703 0.20131 0.4845 0.0
H1188 H 0.71181 0.25086 0.52908 0.0
H1189 H 0.68853 0.19726 0.51244 0.0
H1190 H 0.57703 0.18354 0.47464 0.0
H1191 H 0.64552 0.18595 0.48168 0.0
H1192 H 0.53969 0.41895 0.52273 0.0
H1193 H 0.60779 0.42194 0.52912 0.0
H1194 H 0.47722 0.36303 0.52818 0.0
H1195 H 0.45195 0.31496 0.50929 0.0
C1196 C 0.27042 0.40913 0.50544 0.0
C1197 C 0.29841 0.459 0.50581 0.0
C1198 C 0.37552 0.41471 0.48759 0.0
C1199 C 0.34512 0.36649 0.48487 0.0
N1200 N 0.25729 0.32532 0.4853 0.0
N1201 N 0.37296 0.51154 0.49159 0.0
C1202 C 0.29063 0.36589 0.49207 0.0
C1203 C 0.3496 0.46252 0.49521 0.0
N1204 N 0.22601 0.40182 0.51871 0.0
N1205 N 0.42969 0.41467 0.48402 0.0
H1206 H 0.35439 0.54779 0.49583 0.0
H1207 H 0.40808 0.51636 0.48215 0.0
H1208 H 0.4505 0.3801 0.47959 0.0
H1209 H 0.45457 0.44705 0.4881 0.0
H1210 H 0.20688 0.36471 0.52045 0.0
H1211 H 0.21251 0.43102 0.53004 0.0
H1212 H 0.21606 0.32526 0.48861 0.0
H1213 H 0.26966 0.29555 0.47394 0.0
C1214 C 0.41736 0.74872 0.49964 0.0
C1215 C 0.44664 0.71391 0.48459 0.0
C1216 C 0.36418 0.66102 0.48018 0.0
C1217 C 0.34213 0.68435 0.49997 0.0
N1218 N 0.34304 0.75825 0.52622 0.0
N1219 N 0.44669 0.62753 0.46512 0.0
C1220 C 0.36767 0.73048 0.50915 0.0
C1221 C 0.41957 0.6676 0.47595 0.0
N1222 N 0.43437 0.80015 0.50373 0.0
N1223 N 0.33264 0.63429 0.46496 0.0
H1224 H 0.48815 0.62498 0.46586 0.0
H1225 H 0.428 0.59282 0.45903 0.0
H1226 H 0.29094 0.63762 0.4654 0.0
H1227 H 0.34778 0.61819 0.44985 0.0
H1228 H 0.41207 0.82811 0.51298 0.0
H1229 H 0.46709 0.81767 0.49564 0.0
H1230 H 0.3623 0.78765 0.53591 0.0
H1231 H 0.30302 0.75088 0.53061 0.0
C1232 C 0.28551 0.21339 0.38533 0.0
C1233 C 0.30395 0.26251 0.39495 0.0
C1234 C 0.25879 0.31356 0.36465 0.0
C1235 C 0.23683 0.26481 0.35615 0.0
N1236 N 0.22578 0.16863 0.35857 0.0
N1237 N 0.30516 0.35952 0.39548 0.0
C1238 C 0.24958 0.2147 0.36643 0.0
C1239 C 0.29004 0.3127 0.38499 0.0
N1240 N 0.30327 0.16551 0.39406 0.0
N1241 N 0.25061 0.36044 0.35291 0.0
H1242 H 0.32886 0.3604 0.41015 0.0
H1243 H 0.29148 0.39745 0.39065 0.0
H1244 H 0.22772 0.36237 0.33801 0.0
H1245 H 0.26966 0.3966 0.35677 0.0
H1246 H 0.29646 0.12829 0.38647 0.0
H1247 H 0.32793 0.16308 0.40837 0.0
H1248 H 0.22782 0.13169 0.36688 0.0
H1249 H 0.20132 0.16774 0.34414 0.0
C1250 C 0.2613 0.77764 0.60036 0.0
C1251 C 0.24658 0.7225 0.6018 0.0
C1252 C 0.23651 0.73346 0.64326 0.0
C1253 C 0.24217 0.79012 0.64103 0.0
N1254 N 0.24785 0.86669 0.61563 0.0
N1255 N 0.20922 0.65107 0.62483 0.0
C1256 C 0.25128 0.81245 0.61908 0.0
C1257 C 0.23136 0.70114 0.62334 0.0
N1258 N 0.28737 0.79658 0.58157 0.0
N1259 N 0.23779 0.71 0.6643 0.0
H1260 H 0.20139 0.62774 0.61057 0.0
H1261 H 0.19282 0.63569 0.6398 0.0
H1262 H 0.24382 0.73178 0.67927 0.0
H1263 H 0.23895 0.66841 0.66664 0.0
H1264 H 0.30318 0.83539 0.58057 0.0
H1265 H 0.29933 0.77143 0.56837 0.0
H1266 H 0.24919 0.88407 0.59948 0.0
H1267 H 0.23745 0.89364 0.62841 0.0
C1268 C 0.74846 0.78999 0.38998 0.0
C1269 C 0.73124 0.74041 0.39952 0.0
C1270 C 0.77012 0.69112 0.36722 0.0
C1271 C 0.7896 0.74042 0.35821 0.0
N1272 N 0.80552 0.83565 0.36253 0.0
N1273 N 0.73345 0.64345 0.39979 0.0
C1274 C 0.78106 0.78962 0.37002 0.0
C1275 C 0.74445 0.69084 0.38887 0.0
N1276 N 0.73192 0.83745 0.39951 0.0
N1277 N 0.77422 0.64492 0.35464 0.0
H1278 H 0.71492 0.64187 0.41572 0.0
H1279 H 0.74684 0.60605 0.39413 0.0
H1280 H 0.79248 0.64355 0.33865 0.0
H1281 H 0.75572 0.60884 0.35908 0.0
H1282 H 0.73747 0.87487 0.39188 0.0
H1283 H 0.70947 0.83932 0.41449 0.0
H1284 H 0.80585 0.87153 0.3717 0.0
H1285 H 0.82916 0.83705 0.34787 0.0
C1286 C 0.78615 0.23268 0.63938 0.0
C1287 C 0.73669 0.22219 0.65061 0.0
C1288 C 0.68751 0.27115 0.62083 0.0
C1289 C 0.73726 0.285 0.61054 0.0
N1290 N 0.83426 0.28569 0.61126 0.0
N1291 N 0.6411 0.23713 0.65419 0.0
C1292 C 0.78674 0.26752 0.62013 0.0
C1293 C 0.68751 0.24288 0.64189 0.0
N1294 N 0.83221 0.20783 0.64666 0.0
N1295 N 0.64025 0.28366 0.61007 0.0
H1296 H 0.63936 0.21642 0.66962 0.0
H1297 H 0.60514 0.25641 0.65012 0.0
H1298 H 0.63866 0.30473 0.59471 0.0
H1299 H 0.60281 0.2696 0.61532 0.0
H1300 H 0.86843 0.20899 0.63778 0.0
H1301 H 0.83336 0.18238 0.66079 0.0
H1302 H 0.87154 0.27939 0.61891 0.0
H1303 H 0.8362 0.31071 0.59703 0.0
C1304 C 0.18457 0.27256 0.87548 0.0
C1305 C 0.20659 0.25673 0.89694 0.0
C1306 C 0.29712 0.25765 0.87995 0.0
C1307 C 0.27459 0.26698 0.85803 0.0
N1308 N 0.20225 0.31215 0.83862 0.0
N1309 N 0.28349 0.22251 0.91774 0.0
C1310 C 0.2196 0.28217 0.8567 0.0
C1311 C 0.26276 0.24617 0.89863 0.0
N1312 N 0.13028 0.27786 0.87257 0.0
N1313 N 0.35075 0.26579 0.88373 0.0
H1314 H 0.26016 0.21153 0.93169 0.0
H1315 H 0.32287 0.20815 0.91868 0.0
H1316 H 0.37561 0.28448 0.87191 0.0
H1317 H 0.3684 0.26348 0.89981 0.0
H1318 H 0.11224 0.28156 0.85662 0.0
H1319 H 0.10236 0.27402 0.88552 0.0
H1320 H 0.16397 0.32904 0.83745 0.0
H1321 H 0.22882 0.32787 0.82666 0.0
C1322 C 0.2345 0.76571 0.14516 0.0
C1323 C 0.25 0.71105 0.14238 0.0
C1324 C 0.25971 0.72772 0.10132 0.0
C1325 C 0.25515 0.78396 0.10509 0.0
N1326 N 0.25012 0.85653 0.1326 0.0
N1327 N 0.28689 0.64264 0.11728 0.0
C1328 C 0.24563 0.80311 0.12755 0.0
C1329 C 0.26499 0.69254 0.12028 0.0
N1330 N 0.20711 0.7819 0.16415 0.0
N1331 N 0.25732 0.70743 0.0797 0.0
H1332 H 0.29429 0.61621 0.13057 0.0
H1333 H 0.30325 0.62992 0.10184 0.0
H1334 H 0.25071 0.73148 0.0654 0.0
H1335 H 0.2555 0.66628 0.07628 0.0
H1336 H 0.19137 0.82062 0.16591 0.0
H1337 H 0.19397 0.75517 0.17665 0.0
H1338 H 0.24812 0.87127 0.14921 0.0
H1339 H 0.26225 0.88506 0.12076 0.0
C1340 C 0.80984 0.74732 0.86859 0.0
C1341 C 0.79436 0.76735 0.89046 0.0
C1342 C 0.69988 0.76623 0.87816 0.0
C1343 C 0.71543 0.75247 0.85563 0.0
N1344 N 0.78098 0.70274 0.83404 0.0
N1345 N 0.72549 0.81078 0.91297 0.0
C1346 C 0.7695 0.73593 0.85195 0.0
C1347 C 0.73963 0.78117 0.89428 0.0
N1348 N 0.86277 0.73977 0.86321 0.0
N1349 N 0.64823 0.75824 0.88525 0.0
H1350 H 0.75376 0.8262 0.92438 0.0
H1351 H 0.68667 0.82571 0.9154 0.0
H1352 H 0.62102 0.73548 0.87581 0.0
H1353 H 0.63583 0.76461 0.90199 0.0
H1354 H 0.87612 0.73288 0.84665 0.0
H1355 H 0.89431 0.7452 0.87446 0.0
H1356 H 0.81835 0.68481 0.83138 0.0
H1357 H 0.75088 0.6856 0.82409 0.0
C1358 C 0.8006 0.2195 0.12654 0.0
C1359 C 0.75226 0.20698 0.11475 0.0
C1360 C 0.69953 0.25498 0.14377 0.0
C1361 C 0.74772 0.26552 0.15598 0.0
N1362 N 0.84255 0.25028 0.16156 0.0
N1363 N 0.65535 0.20509 0.11343 0.0
C1364 C 0.79781 0.24543 0.14811 0.0
C1365 C 0.70153 0.22259 0.12372 0.0
N1366 N 0.84927 0.2086 0.11664 0.0
N1367 N 0.65222 0.27749 0.15092 0.0
H1368 H 0.65539 0.18206 0.09856 0.0
H1369 H 0.61713 0.21004 0.12038 0.0
H1370 H 0.64893 0.29952 0.16599 0.0
H1371 H 0.61687 0.27697 0.1414 0.0
H1372 H 0.88591 0.22189 0.12314 0.0
H1373 H 0.85307 0.18991 0.10081 0.0
H1374 H 0.87917 0.23173 0.158 0.0
H1375 H 0.84186 0.26911 0.17745 0.0
C1376 C 0.04242 0.95909 0.28253 0.0
C1377 C 0.99463 0.94454 0.29412 0.0
C1378 C 0.9792 0.03906 0.30414 0.0
C1379 C 0.03017 0.05317 0.29478 0.0
N1380 N 0.11535 0.02268 0.27929 0.0
N1381 N 0.9242 0.96833 0.32038 0.0
C1382 C 0.06318 0.01214 0.28506 0.0
C1383 C 0.96499 0.98385 0.30625 0.0
N1384 N 0.06742 0.92269 0.26861 0.0
N1385 N 0.94297 0.07817 0.30996 0.0
H1386 H 0.91444 0.928 0.32304 0.0
H1387 H 0.90441 0.9948 0.33132 0.0
H1388 H 0.95007 0.11911 0.30764 0.0
H1389 H 0.90345 0.06975 0.31471 0.0
H1390 H 0.09874 0.93299 0.25766 0.0
H1391 H 0.05397 0.88321 0.26651 0.0
H1392 H 0.14265 0.99289 0.27451 0.0
H1393 H 0.13322 0.06004 0.28153 0.0
C1394 C 0.9848 0.05362 0.72875 0.0
C1395 C 0.94295 0.02751 0.71642 0.0
C1396 C 0.00858 0.96087 0.70277 0.0
C1397 C 0.04814 0.98344 0.71728 0.0
N1398 N 0.06944 0.0426 0.74856 0.0
N1399 N 0.9133 0.94796 0.69616 0.0
C1400 C 0.03479 0.02697 0.73175 0.0
C1401 C 0.95429 0.97871 0.70463 0.0
N1402 N 0.97854 0.10526 0.73627 0.0
N1403 N 0.02284 0.92314 0.68695 0.0
H1404 H 0.87279 0.95768 0.69834 0.0
H1405 H 0.91929 0.90979 0.68923 0.0
H1406 H 0.06231 0.90953 0.68504 0.0
H1407 H 0.99652 0.90923 0.67444 0.0
H1408 H 0.00971 0.12734 0.74362 0.0
H1409 H 0.94473 0.12834 0.73255 0.0
H1410 H 0.05936 0.07123 0.76083 0.0
H1411 H 0.10576 0.02282 0.7517 0.0
C1412 C 0.97495 0.46797 0.98873 0.0
C1413 C 0.01545 0.44992 0.9736 0.0
C1414 C 0.01626 0.53843 0.95547 0.0
C1415 C 0.96962 0.55346 0.96801 0.0
N1416 N 0.89647 0.52466 0.99232 0.0
N1417 N 0.06549 0.46423 0.93891 0.0
C1418 C 0.94673 0.51625 0.98364 0.0
C1419 C 0.03348 0.48399 0.95586 0.0
N1420 N 0.96344 0.4393 0.00795 0.0
N1421 N 0.04549 0.57615 0.94391 0.0
H1422 H 0.07661 0.42384 0.93799 0.0
H1423 H 0.0757 0.48659 0.92453 0.0
H1424 H 0.03675 0.61719 0.94442 0.0
H1425 H 0.08212 0.56737 0.93608 0.0
H1426 H 0.93695 0.45317 0.02041 0.0
H1427 H 0.98482 0.40479 0.01253 0.0
H1428 H 0.87666 0.49643 0.00242 0.0
H1429 H 0.87186 0.55619 0.98696 0.0
C1430 C 0.4702 0.02997 0.04113 0.0
C1431 C 0.45856 0.97896 0.0312 0.0
C1432 C 0.55303 0.97252 0.01921 0.0
C1433 C 0.5658 0.01773 0.03277 0.0
N1434 N 0.5374 0.08409 0.06022 0.0
N1435 N 0.49448 0.89615 0.01516 0.0
C1436 C 0.52465 0.045 0.0448 0.0
C1437 C 0.50135 0.94873 0.02122 0.0
N1438 N 0.42963 0.06522 0.04613 0.0
N1439 N 0.59001 0.95243 0.00424 0.0
H1440 H 0.45921 0.87503 0.01809 0.0
H1441 H 0.5261 0.8716 0.00981 0.0
H1442 H 0.62775 0.96998 1.00194 0.0
H1443 H 0.58092 0.92232 0.99248 0.0
H1444 H 0.43667 0.1044 0.05175 0.0
H1445 H 0.38954 0.05789 0.04191 0.0
H1446 H 0.50896 0.10178 0.07092 0.0
H1447 H 0.57704 0.09454 0.06397 0.0
C1448 C 0.52522 0.45909 0.7718 0.0
C1449 C 0.46987 0.45123 0.7768 0.0
C1450 C 0.45762 0.54917 0.77781 0.0
C1451 C 0.51431 0.55654 0.77726 0.0
N1452 N 0.60302 0.51588 0.77666 0.0
N1453 N 0.38498 0.49006 0.78839 0.0
C1454 C 0.54848 0.51085 0.77487 0.0
C1455 C 0.43634 0.49661 0.78071 0.0
N1456 N 0.55539 0.41757 0.76338 0.0
N1457 N 0.42378 0.59202 0.77479 0.0
H1458 H 0.36864 0.45249 0.79176 0.0
H1459 H 0.36089 0.52201 0.79377 0.0
H1460 H 0.43747 0.63086 0.77139 0.0
H1461 H 0.38226 0.58782 0.77294 0.0
H1462 H 0.59444 0.42256 0.75725 0.0
H1463 H 0.53951 0.37952 0.76012 0.0
H1464 H 0.62894 0.48295 0.77767 0.0
H1465 H 0.62218 0.55243 0.7793 0.0
C1466 C 0.50412 0.44846 0.23615 0.0
C1467 C 0.54525 0.47396 0.22316 0.0
C1468 C 0.47838 0.5371 0.20798 0.0
C1469 C 0.4391 0.51565 0.22289 0.0
N1470 N 0.41703 0.45765 0.25441 0.0
N1471 N 0.57327 0.55222 0.2017 0.0
C1472 C 0.45289 0.47369 0.23814 0.0
C1473 C 0.53292 0.52124 0.21055 0.0
N1474 N 0.51224 0.39848 0.24523 0.0
N1475 N 0.46356 0.57113 0.19082 0.0
H1476 H 0.61396 0.54394 0.20436 0.0
H1477 H 0.56631 0.58944 0.19405 0.0
H1478 H 0.42362 0.58167 0.18776 0.0
H1479 H 0.49011 0.5839 0.17819 0.0
H1480 H 0.48179 0.37616 0.25293 0.0
H1481 H 0.54746 0.37658 0.24284 0.0
H1482 H 0.42698 0.43082 0.26739 0.0
H1483 H 0.37891 0.47486 0.25614 0.0
C1484 C 0.44841 0.00359 0.46343 0.0
C1485 C 0.47786 0.04568 0.47391 0.0
C1486 C 0.55134 0.98243 0.48209 0.0
C1487 C 0.51994 0.93908 0.47324 0.0
N1488 N 0.4316 0.90801 0.4616 0.0
N1489 N 0.55114 0.0722 0.49833 0.0
C1490 C 0.46634 0.94952 0.46577 0.0
C1491 C 0.52734 0.03409 0.48488 0.0
N1492 N 0.40477 0.01521 0.45019 0.0
N1493 N 0.60491 0.97582 0.48651 0.0
H1494 H 0.53427 0.11015 0.50108 0.0
H1495 H 0.58444 0.06421 0.5086 0.0
H1496 H 0.62538 0.93992 0.48395 0.0
H1497 H 0.63047 0.00771 0.4905 0.0
H1498 H 0.38532 0.98663 0.44013 0.0
H1499 H 0.39167 0.05438 0.44741 0.0
H1500 H 0.39075 0.91385 0.45836 0.0
H1501 H 0.44172 0.86769 0.46385 0.0
C1502 C 0.96406 0.51227 0.5464 0.0
C1503 C 0.95204 0.46063 0.53721 0.0
C1504 C 0.0453 0.45247 0.52394 0.0
C1505 C 0.0582 0.50106 0.53533 0.0
N1506 N 0.03295 0.57105 0.56162 0.0
N1507 N 0.98515 0.37624 0.52203 0.0
C1508 C 0.01846 0.52926 0.54778 0.0
C1509 C 0.99364 0.42922 0.52716 0.0
N1510 N 0.92353 0.54598 0.55313 0.0
N1511 N 0.08203 0.42889 0.50975 0.0
H1512 H 0.94909 0.35651 0.52537 0.0
H1513 H 0.01573 0.35032 0.51679 0.0
H1514 H 0.12047 0.44456 0.5071 0.0
H1515 H 0.07271 0.39657 0.49915 0.0
H1516 H 0.92992 0.58598 0.55775 0.0
H1517 H 0.88293 0.53596 0.55194 0.0
H1518 H 0.00636 0.5898 0.57283 0.0
H1519 H 0.07286 0.58302 0.56373 0.0
loop_
_geom_bond_atom_site_label_1
_geom_bond_atom_site_label_2
_geom_bond_distance
_geom_bond_site_symmetry_2
_ccdc_geom_bond_type
Co0 O2 2.143 . S
Co0 O8 2.074 . S
Co0 O11 2.093 . S
Co0 O24 2.097 . S
Co0 N41 2.151 . S
Co0 N49 2.214 . S
Co1 O2 2.160 . S
Co1 O7 2.058 . S
Co1 O17 2.057 . S
Co1 O32 2.037 . S
Co1 N36 2.145 . S
Co1 N57 2.257 . S
O2 Co0 2.143 . S
O2 Co1 2.160 . S
C3 O4 1.278 . S
C3 O11 1.224 . S
O4 C3 1.278 . S
C5 O6 1.245 . S
C5 O17 1.232 . S
O6 C5 1.245 . S
O7 Co1 2.058 . S
O7 C33 1.269 . S
O8 Co0 2.074 . S
O8 C33 1.257 . S
H9 C34 0.930 . S
H10 C40 0.930 . S
O11 Co0 2.093 . S
O11 C3 1.224 . S
H12 C44 0.929 . S
H13 C46 0.930 . S
H14 C47 0.930 . S
H15 C45 0.929 . S
H16 C48 0.928 . S
O17 Co1 2.057 . S
O17 C5 1.232 . S
H18 C37 0.929 . S
H19 C38 0.929 . S
H20 C50 0.931 . S
H21 C42 0.929 . S
H22 C51 0.930 . S
H23 C43 0.931 . S
O24 Co0 2.097 . S
O24 C52 1.214 1_455 S
H25 C53 0.931 . S
H26 C54 0.929 . S
H27 C55 0.930 . S
H28 C56 0.929 . S
H29 C58 0.930 . S
H30 C35 0.930 . S
H31 C39 0.930 . S
O32 Co1 2.037 . S
O32 C52 1.234 1_455 S
C33 O7 1.269 . S
C33 O8 1.257 . S
C34 H9 0.930 . S
C34 C37 1.388 . S
C34 C39 1.418 . S
C35 H30 0.930 . S
C35 C38 1.404 . S
C35 C39 1.353 . S
N36 Co1 2.145 . S
N36 C37 1.397 . S
N36 C38 1.334 . S
C37 H18 0.929 . S
C37 C34 1.388 . S
C37 N36 1.397 . S
C38 H19 0.929 . S
C38 C35 1.404 . S
C38 N36 1.334 . S
C39 H31 0.930 . S
C39 C34 1.418 . S
C39 C35 1.353 . S
C40 H10 0.930 . S
C40 N41 1.330 . S
C40 C42 1.446 . S
N41 Co0 2.151 . S
N41 C40 1.330 . S
N41 C45 1.418 . S
C42 H21 0.929 . S
C42 C40 1.446 . S
C42 C43 1.332 . S
C43 H23 0.931 . S
C43 C42 1.332 . S
C43 C44 1.267 . S
C44 H12 0.929 . S
C44 C43 1.267 . S
C44 C45 1.251 . S
C45 H15 0.929 . S
C45 N41 1.418 . S
C45 C44 1.251 . S
C46 H13 0.930 . S
C46 C48 1.406 . S
C46 C51 1.261 . S
C47 H14 0.930 . S
C47 N49 1.325 . S
C47 C50 1.357 . S
C48 H16 0.928 . S
C48 C46 1.406 . S
C48 N49 1.261 . S
N49 Co0 2.214 . S
N49 C47 1.325 . S
N49 C48 1.261 . S
C50 H20 0.931 . S
C50 C47 1.357 . S
C50 C51 1.312 . S
C51 H22 0.930 . S
C51 C46 1.261 . S
C51 C50 1.312 . S
C52 O24 1.214 1_655 S
C52 O32 1.234 1_655 S
C53 H25 0.931 . S
C53 C56 1.391 . S
C53 C58 1.391 1_655 S
C54 H26 0.929 . S
C54 C55 1.390 . S
C54 N57 1.391 1_655 S
C55 H27 0.930 . S
C55 C54 1.390 . S
C55 C56 1.392 . S
C56 H28 0.929 . S
C56 C53 1.391 . S
C56 C55 1.392 . S
N57 Co1 2.257 . S
N57 C54 1.391 1_455 S
N57 C58 1.388 . S
C58 H29 0.930 . S
C58 C53 1.391 1_455 S
C58 N57 1.388 . S
Co59 O61 2.143 . S
Co59 O67 2.074 . S
Co59 O70 2.093 . S
Co59 O83 2.097 . S
Co59 N100 2.151 . S
Co59 N108 2.214 . S
Co60 O61 2.160 . S
Co60 O66 2.058 . S
Co60 O76 2.057 . S
Co60 O91 2.037 . S
Co60 N95 2.145 . S
Co60 N116 2.257 . S
O61 Co59 2.143 . S
O61 Co60 2.160 . S
C62 O63 1.278 . S
C62 O70 1.224 . S
O63 C62 1.278 . S
C64 O65 1.245 . S
C64 O76 1.232 . S
O65 C64 1.245 . S
O66 Co60 2.058 . S
O66 C92 1.269 . S
O67 Co59 2.074 . S
O67 C92 1.257 . S
H68 C93 0.930 . S
H69 C99 0.930 . S
O70 Co59 2.093 . S
O70 C62 1.224 . S
H71 C103 0.929 . S
H72 C105 0.930 . S
H73 C106 0.930 . S
H74 C104 0.929 . S
H75 C107 0.928 . S
O76 Co60 2.057 . S
O76 C64 1.232 . S
H77 C96 0.929 . S
H78 C97 0.929 . S
H79 C109 0.931 . S
H80 C101 0.929 . S
H81 C110 0.930 . S
H82 C102 0.931 . S
O83 Co59 2.097 . S
O83 C111 1.214 1_565 S
H84 C112 0.931 . S
H85 C113 0.929 . S
H86 C114 0.930 . S
H87 C115 0.929 . S
H88 C117 0.930 . S
H89 C94 0.930 . S
H90 C98 0.930 . S
O91 Co60 2.037 . S
O91 C111 1.234 1_565 S
C92 O66 1.269 . S
C92 O67 1.257 . S
C93 H68 0.930 . S
C93 C96 1.388 . S
C93 C98 1.418 . S
C94 H89 0.930 . S
C94 C97 1.404 . S
C94 C98 1.353 . S
N95 Co60 2.145 . S
N95 C96 1.397 . S
N95 C97 1.334 . S
C96 H77 0.929 . S
C96 C93 1.388 . S
C96 N95 1.397 . S
C97 H78 0.929 . S
C97 C94 1.404 . S
C97 N95 1.334 . S
C98 H90 0.930 . S
C98 C93 1.418 . S
C98 C94 1.353 . S
C99 H69 0.930 . S
C99 N100 1.330 . S
C99 C101 1.446 . S
N100 Co59 2.151 . S
N100 C99 1.330 . S
N100 C104 1.418 . S
C101 H80 0.929 . S
C101 C99 1.446 . S
C101 C102 1.332 . S
C102 H82 0.931 . S
C102 C101 1.332 . S
C102 C103 1.267 . S
C103 H71 0.929 . S
C103 C102 1.267 . S
C103 C104 1.251 . S
C104 H74 0.929 . S
C104 N100 1.418 . S
C104 C103 1.251 . S
C105 H72 0.930 . S
C105 C107 1.406 . S
C105 C110 1.261 . S
C106 H73 0.930 . S
C106 N108 1.325 . S
C106 C109 1.357 . S
C107 H75 0.928 . S
C107 C105 1.406 . S
C107 N108 1.261 . S
N108 Co59 2.214 . S
N108 C106 1.325 . S
N108 C107 1.261 . S
C109 H79 0.931 . S
C109 C106 1.357 . S
C109 C110 1.312 . S
C110 H81 0.930 . S
C110 C105 1.261 . S
C110 C109 1.312 . S
C111 O83 1.214 1_545 S
C111 O91 1.234 1_545 S
C112 H84 0.931 . S
C112 C115 1.391 . S
C112 C117 1.391 1_545 S
C113 H85 0.929 . S
C113 C114 1.390 . S
C113 N116 1.391 1_545 S
C114 H86 0.930 . S
C114 C113 1.390 . S
C114 C115 1.392 . S
C115 H87 0.929 . S
C115 C112 1.391 . S
C115 C114 1.392 . S
N116 Co60 2.257 . S
N116 C113 1.391 1_565 S
N116 C117 1.388 . S
C117 H88 0.930 . S
C117 C112 1.391 1_565 S
C117 N116 1.388 . S
Co118 O120 2.143 . S
Co118 O126 2.074 . S
Co118 O129 2.093 . S
Co118 O142 2.097 . S
Co118 N159 2.151 . S
Co118 N167 2.214 . S
Co119 O120 2.160 . S
Co119 O125 2.058 . S
Co119 O135 2.057 . S
Co119 O150 2.037 . S
Co119 N154 2.145 . S
Co119 N175 2.257 . S
O120 Co118 2.143 . S
O120 Co119 2.160 . S
C121 O122 1.278 . S
C121 O129 1.224 . S
O122 C121 1.278 . S
C123 O124 1.245 . S
C123 O135 1.232 . S
O124 C123 1.245 . S
O125 Co119 2.058 . S
O125 C151 1.269 . S
O126 Co118 2.074 . S
O126 C151 1.257 . S
H127 C152 0.930 . S
H128 C158 0.930 . S
O129 Co118 2.093 . S
O129 C121 1.224 . S
H130 C162 0.929 . S
H131 C164 0.930 . S
H132 C165 0.930 . S
H133 C163 0.929 . S
H134 C166 0.928 . S
O135 Co119 2.057 . S
O135 C123 1.232 . S
H136 C155 0.929 . S
H137 C156 0.929 . S
H138 C168 0.931 . S
H139 C160 0.929 . S
H140 C169 0.930 . S
H141 C161 0.931 . S
O142 Co118 2.097 . S
O142 C170 1.214 1_655 S
H143 C171 0.931 . S
H144 C172 0.929 . S
H145 C173 0.930 . S
H146 C174 0.929 . S
H147 C176 0.930 . S
H148 C153 0.930 . S
H149 C157 0.930 . S
O150 Co119 2.037 . S
O150 C170 1.234 1_655 S
C151 O125 1.269 . S
C151 O126 1.257 . S
C152 H127 0.930 . S
C152 C155 1.388 . S
C152 C157 1.418 . S
C153 H148 0.930 . S
C153 C156 1.404 . S
C153 C157 1.353 . S
N154 Co119 2.145 . S
N154 C155 1.397 . S
N154 C156 1.334 . S
C155 H136 0.929 . S
C155 C152 1.388 . S
C155 N154 1.397 . S
C156 H137 0.929 . S
C156 C153 1.404 . S
C156 N154 1.334 . S
C157 H149 0.930 . S
C157 C152 1.418 . S
C157 C153 1.353 . S
C158 H128 0.930 . S
C158 N159 1.330 . S
C158 C160 1.446 . S
N159 Co118 2.151 . S
N159 C158 1.330 . S
N159 C163 1.418 . S
C160 H139 0.929 . S
C160 C158 1.446 . S
C160 C161 1.332 . S
C161 H141 0.931 . S
C161 C160 1.332 . S
C161 C162 1.267 . S
C162 H130 0.929 . S
C162 C161 1.267 . S
C162 C163 1.251 . S
C163 H133 0.929 . S
C163 N159 1.418 . S
C163 C162 1.251 . S
C164 H131 0.930 . S
C164 C166 1.406 . S
C164 C169 1.261 . S
C165 H132 0.930 . S
C165 N167 1.325 . S
C165 C168 1.357 . S
C166 H134 0.928 . S
C166 C164 1.406 . S
C166 N167 1.261 . S
N167 Co118 2.214 . S
N167 C165 1.325 . S
N167 C166 1.261 . S
C168 H138 0.931 . S
C168 C165 1.357 . S
C168 C169 1.312 . S
C169 H140 0.930 . S
C169 C164 1.261 . S
C169 C168 1.312 . S
C170 O142 1.214 1_455 S
C170 O150 1.234 1_455 S
C171 H143 0.931 . S
C171 C174 1.391 . S
C171 C176 1.391 1_455 S
C172 H144 0.929 . S
C172 C173 1.390 . S
C172 N175 1.391 1_455 S
C173 H145 0.930 . S
C173 C172 1.390 . S
C173 C174 1.392 . S
C174 H146 0.929 . S
C174 C171 1.391 . S
C174 C173 1.392 . S
N175 Co119 2.257 . S
N175 C172 1.391 1_655 S
N175 C176 1.388 . S
C176 H147 0.930 . S
C176 C171 1.391 1_655 S
C176 N175 1.388 . S
Co177 O179 2.143 . S
Co177 O185 2.074 . S
Co177 O188 2.093 . S
Co177 O201 2.097 . S
Co177 N218 2.151 . S
Co177 N226 2.214 . S
Co178 O179 2.160 . S
Co178 O184 2.058 . S
Co178 O194 2.057 . S
Co178 O209 2.037 . S
Co178 N213 2.145 . S
Co178 N234 2.257 . S
O179 Co177 2.143 . S
O179 Co178 2.160 . S
C180 O181 1.278 . S
C180 O188 1.224 . S
O181 C180 1.278 . S
C182 O183 1.245 . S
C182 O194 1.232 . S
O183 C182 1.245 . S
O184 Co178 2.058 . S
O184 C210 1.269 . S
O185 Co177 2.074 . S
O185 C210 1.257 . S
H186 C211 0.930 . S
H187 C217 0.930 . S
O188 Co177 2.093 . S
O188 C180 1.224 . S
H189 C221 0.929 . S
H190 C223 0.930 . S
H191 C224 0.930 . S
H192 C222 0.929 . S
H193 C225 0.928 . S
O194 Co178 2.057 . S
O194 C182 1.232 . S
H195 C214 0.929 . S
H196 C215 0.929 . S
H197 C227 0.931 . S
H198 C219 0.929 . S
H199 C228 0.930 . S
H200 C220 0.931 . S
O201 Co177 2.097 . S
O201 C229 1.214 1_545 S
H202 C230 0.931 . S
H203 C231 0.929 . S
H204 C232 0.930 . S
H205 C233 0.929 . S
H206 C235 0.930 . S
H207 C212 0.930 . S
H208 C216 0.930 . S
O209 Co178 2.037 . S
O209 C229 1.234 1_545 S
C210 O184 1.269 . S
C210 O185 1.257 . S
C211 H186 0.930 . S
C211 C214 1.388 . S
C211 C216 1.418 . S
C212 H207 0.930 . S
C212 C215 1.404 . S
C212 C216 1.353 . S
N213 Co178 2.145 . S
N213 C214 1.397 . S
N213 C215 1.334 . S
C214 H195 0.929 . S
C214 C211 1.388 . S
C214 N213 1.397 . S
C215 H196 0.929 . S
C215 C212 1.404 . S
C215 N213 1.334 . S
C216 H208 0.930 . S
C216 C211 1.418 . S
C216 C212 1.353 . S
C217 H187 0.930 . S
C217 N218 1.330 . S
C217 C219 1.446 . S
N218 Co177 2.151 . S
N218 C217 1.330 . S
N218 C222 1.418 . S
C219 H198 0.929 . S
C219 C217 1.446 . S
C219 C220 1.332 . S
C220 H200 0.931 . S
C220 C219 1.332 . S
C220 C221 1.267 . S
C221 H189 0.929 . S
C221 C220 1.267 . S
C221 C222 1.251 . S
C222 H192 0.929 . S
C222 N218 1.418 . S
C222 C221 1.251 . S
C223 H190 0.930 . S
C223 C225 1.406 . S
C223 C228 1.261 . S
C224 H191 0.930 . S
C224 N226 1.325 . S
C224 C227 1.357 . S
C225 H193 0.928 . S
C225 C223 1.406 . S
C225 N226 1.261 . S
N226 Co177 2.214 . S
N226 C224 1.325 . S
N226 C225 1.261 . S
C227 H197 0.931 . S
C227 C224 1.357 . S
C227 C228 1.312 . S
C228 H199 0.930 . S
C228 C223 1.261 . S
C228 C227 1.312 . S
C229 O201 1.214 1_565 S
C229 O209 1.234 1_565 S
C230 H202 0.931 . S
C230 C233 1.391 . S
C230 C235 1.391 1_565 S
C231 H203 0.929 . S
C231 C232 1.390 . S
C231 N234 1.391 1_565 S
C232 H204 0.930 . S
C232 C231 1.390 . S
C232 C233 1.392 . S
C233 H205 0.929 . S
C233 C230 1.391 . S
C233 C232 1.392 . S
N234 Co178 2.257 . S
N234 C231 1.391 1_545 S
N234 C235 1.388 . S
C235 H206 0.930 . S
C235 C230 1.391 1_545 S
C235 N234 1.388 . S
Co236 O238 2.143 . S
Co236 O244 2.074 . S
Co236 O247 2.093 . S
Co236 O260 2.097 . S
Co236 N277 2.151 . S
Co236 N285 2.214 1_556 S
Co237 O238 2.160 . S
Co237 O243 2.058 . S
Co237 O253 2.057 . S
Co237 O268 2.037 . S
Co237 N272 2.145 . S
Co237 N293 2.257 . S
O238 Co236 2.143 . S
O238 Co237 2.160 . S
C239 O240 1.278 . S
C239 O247 1.224 . S
O240 C239 1.278 . S
C241 O242 1.245 . S
C241 O253 1.232 . S
O242 C241 1.245 . S
O243 Co237 2.058 . S
O243 C269 1.269 . S
O244 Co236 2.074 . S
O244 C269 1.257 . S
H245 C270 0.930 . S
H246 C276 0.930 . S
O247 Co236 2.093 . S
O247 C239 1.224 . S
H248 C280 0.929 . S
H249 C282 0.930 . S
H250 C283 0.930 . S
H251 C281 0.929 . S
H252 C284 0.928 . S
O253 Co237 2.057 . S
O253 C241 1.232 . S
H254 C273 0.929 . S
H255 C274 0.929 . S
H256 C286 0.931 . S
H257 C278 0.929 . S
H258 C287 0.930 . S
H259 C279 0.931 . S
O260 Co236 2.097 . S
O260 C288 1.214 1_455 S
H261 C289 0.931 . S
H262 C290 0.929 . S
H263 C291 0.930 . S
H264 C292 0.929 . S
H265 C294 0.930 . S
H266 C271 0.930 . S
H267 C275 0.930 . S
O268 Co237 2.037 . S
O268 C288 1.234 1_455 S
C269 O243 1.269 . S
C269 O244 1.257 . S
C270 H245 0.930 . S
C270 C273 1.388 . S
C270 C275 1.418 . S
C271 H266 0.930 . S
C271 C274 1.404 . S
C271 C275 1.353 . S
N272 Co237 2.145 . S
N272 C273 1.397 . S
N272 C274 1.334 . S
C273 H254 0.929 . S
C273 C270 1.388 . S
C273 N272 1.397 . S
C274 H255 0.929 . S
C274 C271 1.404 . S
C274 N272 1.334 . S
C275 H267 0.930 . S
C275 C270 1.418 . S
C275 C271 1.353 . S
C276 H246 0.930 . S
C276 N277 1.330 . S
C276 C278 1.446 . S
N277 Co236 2.151 . S
N277 C276 1.330 . S
N277 C281 1.418 1_556 S
C278 H257 0.929 . S
C278 C276 1.446 . S
C278 C279 1.332 1_556 S
C279 H259 0.931 . S
C279 C278 1.332 1_554 S
C279 C280 1.267 . S
C280 H248 0.929 . S
C280 C279 1.267 . S
C280 C281 1.251 . S
C281 H251 0.929 . S
C281 N277 1.418 1_554 S
C281 C280 1.251 . S
C282 H249 0.930 . S
C282 C284 1.406 . S
C282 C287 1.261 . S
C283 H250 0.930 . S
C283 N285 1.325 . S
C283 C286 1.357 . S
C284 H252 0.928 . S
C284 C282 1.406 . S
C284 N285 1.261 . S
N285 Co236 2.214 1_554 S
N285 C283 1.325 . S
N285 C284 1.261 . S
C286 H256 0.931 . S
C286 C283 1.357 . S
C286 C287 1.312 . S
C287 H258 0.930 . S
C287 C282 1.261 . S
C287 C286 1.312 . S
C288 O260 1.214 1_655 S
C288 O268 1.234 1_655 S
C289 H261 0.931 . S
C289 C292 1.391 . S
C289 C294 1.391 1_655 S
C290 H262 0.929 . S
C290 C291 1.390 . S
C290 N293 1.391 1_655 S
C291 H263 0.930 . S
C291 C290 1.390 . S
C291 C292 1.392 . S
C292 H264 0.929 . S
C292 C289 1.391 . S
C292 C291 1.392 . S
N293 Co237 2.257 . S
N293 C290 1.391 1_455 S
N293 C294 1.388 . S
C294 H265 0.930 . S
C294 C289 1.391 1_455 S
C294 N293 1.388 . S
Co295 O297 2.143 . S
Co295 O303 2.074 . S
Co295 O306 2.093 . S
Co295 O319 2.097 . S
Co295 N336 2.151 . S
Co295 N344 2.214 1_554 S
Co296 O297 2.160 . S
Co296 O302 2.058 . S
Co296 O312 2.057 . S
Co296 O327 2.037 . S
Co296 N331 2.145 . S
Co296 N352 2.257 . S
O297 Co295 2.143 . S
O297 Co296 2.160 . S
C298 O299 1.278 . S
C298 O306 1.224 . S
O299 C298 1.278 . S
C300 O301 1.245 . S
C300 O312 1.232 . S
O301 C300 1.245 . S
O302 Co296 2.058 . S
O302 C328 1.269 . S
O303 Co295 2.074 . S
O303 C328 1.257 . S
H304 C329 0.930 . S
H305 C335 0.930 . S
O306 Co295 2.093 . S
O306 C298 1.224 . S
H307 C339 0.929 . S
H308 C341 0.930 . S
H309 C342 0.930 . S
H310 C340 0.929 . S
H311 C343 0.928 . S
O312 Co296 2.057 . S
O312 C300 1.232 . S
H313 C332 0.929 . S
H314 C333 0.929 . S
H315 C345 0.931 . S
H316 C337 0.929 . S
H317 C346 0.930 . S
H318 C338 0.931 . S
O319 Co295 2.097 . S
O319 C347 1.214 1_565 S
H320 C348 0.931 . S
H321 C349 0.929 . S
H322 C350 0.930 . S
H323 C351 0.929 . S
H324 C353 0.930 . S
H325 C330 0.930 . S
H326 C334 0.930 . S
O327 Co296 2.037 . S
O327 C347 1.234 1_565 S
C328 O302 1.269 . S
C328 O303 1.257 . S
C329 H304 0.930 . S
C329 C332 1.388 . S
C329 C334 1.418 . S
C330 H325 0.930 . S
C330 C333 1.404 . S
C330 C334 1.353 . S
N331 Co296 2.145 . S
N331 C332 1.397 . S
N331 C333 1.334 . S
C332 H313 0.929 . S
C332 C329 1.388 . S
C332 N331 1.397 . S
C333 H314 0.929 . S
C333 C330 1.404 . S
C333 N331 1.334 . S
C334 H326 0.930 . S
C334 C329 1.418 . S
C334 C330 1.353 . S
C335 H305 0.930 . S
C335 N336 1.330 . S
C335 C337 1.446 . S
N336 Co295 2.151 . S
N336 C335 1.330 . S
N336 C340 1.418 1_554 S
C337 H316 0.929 . S
C337 C335 1.446 . S
C337 C338 1.332 1_554 S
C338 H318 0.931 . S
C338 C337 1.332 1_556 S
C338 C339 1.267 . S
C339 H307 0.929 . S
C339 C338 1.267 . S
C339 C340 1.251 . S
C340 H310 0.929 . S
C340 N336 1.418 1_556 S
C340 C339 1.251 . S
C341 H308 0.930 . S
C341 C343 1.406 . S
C341 C346 1.261 . S
C342 H309 0.930 . S
C342 N344 1.325 . S
C342 C345 1.357 . S
C343 H311 0.928 . S
C343 C341 1.406 . S
C343 N344 1.261 . S
N344 Co295 2.214 1_556 S
N344 C342 1.325 . S
N344 C343 1.261 . S
C345 H315 0.931 . S
C345 C342 1.357 . S
C345 C346 1.312 . S
C346 H317 0.930 . S
C346 C341 1.261 . S
C346 C345 1.312 . S
C347 O319 1.214 1_545 S
C347 O327 1.234 1_545 S
C348 H320 0.931 . S
C348 C351 1.391 . S
C348 C353 1.391 1_545 S
C349 H321 0.929 . S
C349 C350 1.390 . S
C349 N352 1.391 1_545 S
C350 H322 0.930 . S
C350 C349 1.390 . S
C350 C351 1.392 . S
C351 H323 0.929 . S
C351 C348 1.391 . S
C351 C350 1.392 . S
N352 Co296 2.257 . S
N352 C349 1.391 1_565 S
N352 C353 1.388 . S
C353 H324 0.930 . S
C353 C348 1.391 1_565 S
C353 N352 1.388 . S
Co354 O356 2.143 . S
Co354 O362 2.074 . S
Co354 O365 2.093 . S
Co354 O378 2.097 . S
Co354 N395 2.151 . S
Co354 N403 2.214 1_556 S
Co355 O356 2.160 . S
Co355 O361 2.058 . S
Co355 O371 2.057 . S
Co355 O386 2.037 . S
Co355 N390 2.145 . S
Co355 N411 2.257 . S
O356 Co354 2.143 . S
O356 Co355 2.160 . S
C357 O358 1.278 . S
C357 O365 1.224 . S
O358 C357 1.278 . S
C359 O360 1.245 . S
C359 O371 1.232 . S
O360 C359 1.245 . S
O361 Co355 2.058 . S
O361 C387 1.269 . S
O362 Co354 2.074 . S
O362 C387 1.257 . S
H363 C388 0.930 . S
H364 C394 0.930 . S
O365 Co354 2.093 . S
O365 C357 1.224 . S
H366 C398 0.929 . S
H367 C400 0.930 . S
H368 C401 0.930 . S
H369 C399 0.929 . S
H370 C402 0.928 . S
O371 Co355 2.057 . S
O371 C359 1.232 . S
H372 C391 0.929 . S
H373 C392 0.929 . S
H374 C404 0.931 . S
H375 C396 0.929 . S
H376 C405 0.930 . S
H377 C397 0.931 . S
O378 Co354 2.097 . S
O378 C406 1.214 1_655 S
H379 C407 0.931 . S
H380 C408 0.929 . S
H381 C409 0.930 . S
H382 C410 0.929 . S
H383 C412 0.930 . S
H384 C389 0.930 . S
H385 C393 0.930 . S
O386 Co355 2.037 . S
O386 C406 1.234 1_655 S
C387 O361 1.269 . S
C387 O362 1.257 . S
C388 H363 0.930 . S
C388 C391 1.388 . S
C388 C393 1.418 . S
C389 H384 0.930 . S
C389 C392 1.404 . S
C389 C393 1.353 . S
N390 Co355 2.145 . S
N390 C391 1.397 . S
N390 C392 1.334 . S
C391 H372 0.929 . S
C391 C388 1.388 . S
C391 N390 1.397 . S
C392 H373 0.929 . S
C392 C389 1.404 . S
C392 N390 1.334 . S
C393 H385 0.930 . S
C393 C388 1.418 . S
C393 C389 1.353 . S
C394 H364 0.930 . S
C394 N395 1.330 . S
C394 C396 1.446 . S
N395 Co354 2.151 . S
N395 C394 1.330 . S
N395 C399 1.418 1_556 S
C396 H375 0.929 . S
C396 C394 1.446 . S
C396 C397 1.332 1_556 S
C397 H377 0.931 . S
C397 C396 1.332 1_554 S
C397 C398 1.267 . S
C398 H366 0.929 . S
C398 C397 1.267 . S
C398 C399 1.251 . S
C399 H369 0.929 . S
C399 N395 1.418 1_554 S
C399 C398 1.251 . S
C400 H367 0.930 . S
C400 C402 1.406 . S
C400 C405 1.261 . S
C401 H368 0.930 . S
C401 N403 1.325 . S
C401 C404 1.357 . S
C402 H370 0.928 . S
C402 C400 1.406 . S
C402 N403 1.261 . S
N403 Co354 2.214 1_554 S
N403 C401 1.325 . S
N403 C402 1.261 . S
C404 H374 0.931 . S
C404 C401 1.357 . S
C404 C405 1.312 . S
C405 H376 0.930 . S
C405 C400 1.261 . S
C405 C404 1.312 . S
C406 O378 1.214 1_455 S
C406 O386 1.234 1_455 S
C407 H379 0.931 . S
C407 C410 1.391 . S
C407 C412 1.391 1_455 S
C408 H380 0.929 . S
C408 C409 1.390 . S
C408 N411 1.391 1_455 S
C409 H381 0.930 . S
C409 C408 1.390 . S
C409 C410 1.392 . S
C410 H382 0.929 . S
C410 C407 1.391 . S
C410 C409 1.392 . S
N411 Co355 2.257 . S
N411 C408 1.391 1_655 S
N411 C412 1.388 . S
C412 H383 0.930 . S
C412 C407 1.391 1_655 S
C412 N411 1.388 . S
Co413 O415 2.143 . S
Co413 O421 2.074 . S
Co413 O424 2.093 . S
Co413 O437 2.097 . S
Co413 N454 2.151 . S
Co413 N462 2.214 1_554 S
Co414 O415 2.160 . S
Co414 O420 2.058 . S
Co414 O430 2.057 . S
Co414 O445 2.037 . S
Co414 N449 2.145 . S
Co414 N470 2.257 . S
O415 Co413 2.143 . S
O415 Co414 2.160 . S
C416 O417 1.278 . S
C416 O424 1.224 . S
O417 C416 1.278 . S
C418 O419 1.245 . S
C418 O430 1.232 . S
O419 C418 1.245 . S
O420 Co414 2.058 . S
O420 C446 1.269 . S
O421 Co413 2.074 . S
O421 C446 1.257 . S
H422 C447 0.930 . S
H423 C453 0.930 . S
O424 Co413 2.093 . S
O424 C416 1.224 . S
H425 C457 0.929 . S
H426 C459 0.930 . S
H427 C460 0.930 . S
H428 C458 0.929 . S
H429 C461 0.928 . S
O430 Co414 2.057 . S
O430 C418 1.232 . S
H431 C450 0.929 . S
H432 C451 0.929 . S
H433 C463 0.931 . S
H434 C455 0.929 . S
H435 C464 0.930 . S
H436 C456 0.931 . S
O437 Co413 2.097 . S
O437 C465 1.214 1_545 S
H438 C466 0.931 . S
H439 C467 0.929 . S
H440 C468 0.930 . S
H441 C469 0.929 . S
H442 C471 0.930 . S
H443 C448 0.930 . S
H444 C452 0.930 . S
O445 Co414 2.037 . S
O445 C465 1.234 1_545 S
C446 O420 1.269 . S
C446 O421 1.257 . S
C447 H422 0.930 . S
C447 C450 1.388 . S
C447 C452 1.418 . S
C448 H443 0.930 . S
C448 C451 1.404 . S
C448 C452 1.353 . S
N449 Co414 2.145 . S
N449 C450 1.397 . S
N449 C451 1.334 . S
C450 H431 0.929 . S
C450 C447 1.388 . S
C450 N449 1.397 . S
C451 H432 0.929 . S
C451 C448 1.404 . S
C451 N449 1.334 . S
C452 H444 0.930 . S
C452 C447 1.418 . S
C452 C448 1.353 . S
C453 H423 0.930 . S
C453 N454 1.330 . S
C453 C455 1.446 . S
N454 Co413 2.151 . S
N454 C453 1.330 . S
N454 C458 1.418 1_554 S
C455 H434 0.929 . S
C455 C453 1.446 . S
C455 C456 1.332 1_554 S
C456 H436 0.931 . S
C456 C455 1.332 1_556 S
C456 C457 1.267 . S
C457 H425 0.929 . S
C457 C456 1.267 . S
C457 C458 1.251 . S
C458 H428 0.929 . S
C458 N454 1.418 1_556 S
C458 C457 1.251 . S
C459 H426 0.930 . S
C459 C461 1.406 . S
C459 C464 1.261 . S
C460 H427 0.930 . S
C460 N462 1.325 . S
C460 C463 1.357 . S
C461 H429 0.928 . S
C461 C459 1.406 . S
C461 N462 1.261 . S
N462 Co413 2.214 1_556 S
N462 C460 1.325 . S
N462 C461 1.261 . S
C463 H433 0.931 . S
C463 C460 1.357 . S
C463 C464 1.312 . S
C464 H435 0.930 . S
C464 C459 1.261 . S
C464 C463 1.312 . S
C465 O437 1.214 1_565 S
C465 O445 1.234 1_565 S
C466 H438 0.931 . S
C466 C469 1.391 . S
C466 C471 1.391 1_565 S
C467 H439 0.929 . S
C467 C468 1.390 . S
C467 N470 1.391 1_565 S
C468 H440 0.930 . S
C468 C467 1.390 . S
C468 C469 1.392 . S
C469 H441 0.929 . S
C469 C466 1.391 . S
C469 C468 1.392 . S
N470 Co414 2.257 . S
N470 C467 1.391 1_545 S
N470 C471 1.388 . S
C471 H442 0.930 . S
C471 C466 1.391 1_545 S
C471 N470 1.388 . S
Co472 O474 2.143 . S
Co472 O480 2.074 . S
Co472 O483 2.093 . S
Co472 O496 2.097 . S
Co472 N513 2.151 . S
Co472 N521 2.214 . S
Co473 O474 2.160 . S
Co473 O479 2.058 . S
Co473 O489 2.057 . S
Co473 O504 2.037 . S
Co473 N508 2.145 . S
Co473 N529 2.257 . S
O474 Co472 2.143 . S
O474 Co473 2.160 . S
C475 O476 1.278 . S
C475 O483 1.224 . S
O476 C475 1.278 . S
C477 O478 1.245 . S
C477 O489 1.232 . S
O478 C477 1.245 . S
O479 Co473 2.058 . S
O479 C505 1.269 . S
O480 Co472 2.074 . S
O480 C505 1.257 . S
H481 C506 0.930 . S
H482 C512 0.930 . S
O483 Co472 2.093 . S
O483 C475 1.224 . S
H484 C516 0.929 . S
H485 C518 0.930 . S
H486 C519 0.930 . S
H487 C517 0.929 . S
H488 C520 0.928 . S
O489 Co473 2.057 . S
O489 C477 1.232 . S
H490 C509 0.929 . S
H491 C510 0.929 . S
H492 C522 0.931 . S
H493 C514 0.929 . S
H494 C523 0.930 . S
H495 C515 0.931 . S
O496 Co472 2.097 . S
O496 C524 1.214 . S
H497 C525 0.929 . S
H498 C526 0.929 . S
H499 C527 0.930 . S
H500 C528 0.929 . S
H501 C530 0.930 . S
H502 C507 0.930 . S
H503 C511 0.930 . S
O504 Co473 2.037 . S
O504 C524 1.234 . S
C505 O479 1.269 . S
C505 O480 1.257 . S
C506 H481 0.930 . S
C506 C509 1.388 . S
C506 C511 1.418 . S
C507 H502 0.930 . S
C507 C510 1.404 . S
C507 C511 1.353 . S
N508 Co473 2.145 . S
N508 C509 1.397 . S
N508 C510 1.334 . S
C509 H490 0.929 . S
C509 C506 1.388 . S
C509 N508 1.397 . S
C510 H491 0.929 . S
C510 C507 1.404 . S
C510 N508 1.334 . S
C511 H503 0.930 . S
C511 C506 1.418 . S
C511 C507 1.353 . S
C512 H482 0.930 . S
C512 N513 1.330 . S
C512 C514 1.446 . S
N513 Co472 2.151 . S
N513 C512 1.330 . S
N513 C517 1.418 . S
C514 H493 0.929 . S
C514 C512 1.446 . S
C514 C515 1.332 . S
C515 H495 0.931 . S
C515 C514 1.332 . S
C515 C516 1.267 . S
C516 H484 0.929 . S
C516 C515 1.267 . S
C516 C517 1.251 . S
C517 H487 0.929 . S
C517 N513 1.418 . S
C517 C516 1.251 . S
C518 H485 0.930 . S
C518 C520 1.406 . S
C518 C523 1.261 . S
C519 H486 0.930 . S
C519 N521 1.325 . S
C519 C522 1.357 . S
C520 H488 0.928 . S
C520 C518 1.406 . S
C520 N521 1.261 . S
N521 Co472 2.214 . S
N521 C519 1.325 . S
N521 C520 1.261 . S
C522 H492 0.931 . S
C522 C519 1.357 . S
C522 C523 1.312 . S
C523 H494 0.930 . S
C523 C518 1.261 . S
C523 C522 1.312 . S
C524 O496 1.214 . S
C524 O504 1.234 . S
C525 H497 0.929 . S
C525 C528 1.391 . S
C525 C530 1.391 . S
C526 H498 0.929 . S
C526 C527 1.390 . S
C526 N529 1.391 . S
C527 H499 0.930 . S
C527 C526 1.390 . S
C527 C528 1.392 . S
C528 H500 0.929 . S
C528 C525 1.391 . S
C528 C527 1.392 . S
N529 Co473 2.257 . S
N529 C526 1.391 . S
N529 C530 1.388 . S
C530 H501 0.930 . S
C530 C525 1.391 . S
C530 N529 1.388 . S
Co531 O533 2.143 . S
Co531 O539 2.074 . S
Co531 O542 2.093 . S
Co531 O555 2.097 . S
Co531 N572 2.151 . S
Co531 N580 2.214 . S
Co532 O533 2.160 . S
Co532 O538 2.058 . S
Co532 O548 2.057 . S
Co532 O563 2.037 . S
Co532 N567 2.145 . S
Co532 N588 2.257 . S
O533 Co531 2.143 . S
O533 Co532 2.160 . S
C534 O535 1.278 . S
C534 O542 1.224 . S
O535 C534 1.278 . S
C536 O537 1.245 . S
C536 O548 1.232 . S
O537 C536 1.245 . S
O538 Co532 2.058 . S
O538 C564 1.269 . S
O539 Co531 2.074 . S
O539 C564 1.257 . S
H540 C565 0.930 . S
H541 C571 0.930 . S
O542 Co531 2.093 . S
O542 C534 1.224 . S
H543 C575 0.929 . S
H544 C577 0.930 . S
H545 C578 0.930 . S
H546 C576 0.929 . S
H547 C579 0.928 . S
O548 Co532 2.057 . S
O548 C536 1.232 . S
H549 C568 0.929 . S
H550 C569 0.929 . S
H551 C581 0.931 . S
H552 C573 0.929 . S
H553 C582 0.930 . S
H554 C574 0.931 . S
O555 Co531 2.097 . S
O555 C583 1.214 . S
H556 C584 0.929 . S
H557 C585 0.929 . S
H558 C586 0.930 . S
H559 C587 0.929 . S
H560 C589 0.930 . S
H561 C566 0.930 . S
H562 C570 0.930 . S
O563 Co532 2.037 . S
O563 C583 1.234 . S
C564 O538 1.269 . S
C564 O539 1.257 . S
C565 H540 0.930 . S
C565 C568 1.388 . S
C565 C570 1.418 . S
C566 H561 0.930 . S
C566 C569 1.404 . S
C566 C570 1.353 . S
N567 Co532 2.145 . S
N567 C568 1.397 . S
N567 C569 1.334 . S
C568 H549 0.929 . S
C568 C565 1.388 . S
C568 N567 1.397 . S
C569 H550 0.929 . S
C569 C566 1.404 . S
C569 N567 1.334 . S
C570 H562 0.930 . S
C570 C565 1.418 . S
C570 C566 1.353 . S
C571 H541 0.930 . S
C571 N572 1.330 . S
C571 C573 1.446 . S
N572 Co531 2.151 . S
N572 C571 1.330 . S
N572 C576 1.418 . S
C573 H552 0.929 . S
C573 C571 1.446 . S
C573 C574 1.332 . S
C574 H554 0.931 . S
C574 C573 1.332 . S
C574 C575 1.267 . S
C575 H543 0.929 . S
C575 C574 1.267 . S
C575 C576 1.251 . S
C576 H546 0.929 . S
C576 N572 1.418 . S
C576 C575 1.251 . S
C577 H544 0.930 . S
C577 C579 1.406 . S
C577 C582 1.261 . S
C578 H545 0.930 . S
C578 N580 1.325 . S
C578 C581 1.357 . S
C579 H547 0.928 . S
C579 C577 1.406 . S
C579 N580 1.261 . S
N580 Co531 2.214 . S
N580 C578 1.325 . S
N580 C579 1.261 . S
C581 H551 0.931 . S
C581 C578 1.357 . S
C581 C582 1.312 . S
C582 H553 0.930 . S
C582 C577 1.261 . S
C582 C581 1.312 . S
C583 O555 1.214 . S
C583 O563 1.234 . S
C584 H556 0.929 . S
C584 C587 1.391 . S
C584 C589 1.391 . S
C585 H557 0.929 . S
C585 C586 1.390 . S
C585 N588 1.391 . S
C586 H558 0.930 . S
C586 C585 1.390 . S
C586 C587 1.392 . S
C587 H559 0.929 . S
C587 C584 1.391 . S
C587 C586 1.392 . S
N588 Co532 2.257 . S
N588 C585 1.391 . S
N588 C589 1.388 . S
C589 H560 0.930 . S
C589 C584 1.391 . S
C589 N588 1.388 . S
Co590 O592 2.143 . S
Co590 O598 2.074 . S
Co590 O601 2.093 . S
Co590 O614 2.097 . S
Co590 N631 2.151 . S
Co590 N639 2.214 . S
Co591 O592 2.160 . S
Co591 O597 2.058 . S
Co591 O607 2.057 . S
Co591 O622 2.037 . S
Co591 N626 2.145 . S
Co591 N647 2.257 . S
O592 Co590 2.143 . S
O592 Co591 2.160 . S
C593 O594 1.278 . S
C593 O601 1.224 . S
O594 C593 1.278 . S
C595 O596 1.245 . S
C595 O607 1.232 . S
O596 C595 1.245 . S
O597 Co591 2.058 . S
O597 C623 1.269 . S
O598 Co590 2.074 . S
O598 C623 1.257 . S
H599 C624 0.930 . S
H600 C630 0.930 . S
O601 Co590 2.093 . S
O601 C593 1.224 . S
H602 C634 0.929 . S
H603 C636 0.930 . S
H604 C637 0.930 . S
H605 C635 0.929 . S
H606 C638 0.928 . S
O607 Co591 2.057 . S
O607 C595 1.232 . S
H608 C627 0.929 . S
H609 C628 0.929 . S
H610 C640 0.931 . S
H611 C632 0.929 . S
H612 C641 0.930 . S
H613 C633 0.931 . S
O614 Co590 2.097 . S
O614 C642 1.214 . S
H615 C643 0.929 . S
H616 C644 0.929 . S
H617 C645 0.930 . S
H618 C646 0.929 . S
H619 C648 0.930 . S
H620 C625 0.930 . S
H621 C629 0.930 . S
O622 Co591 2.037 . S
O622 C642 1.234 . S
C623 O597 1.269 . S
C623 O598 1.257 . S
C624 H599 0.930 . S
C624 C627 1.388 . S
C624 C629 1.418 . S
C625 H620 0.930 . S
C625 C628 1.404 . S
C625 C629 1.353 . S
N626 Co591 2.145 . S
N626 C627 1.397 . S
N626 C628 1.334 . S
C627 H608 0.929 . S
C627 C624 1.388 . S
C627 N626 1.397 . S
C628 H609 0.929 . S
C628 C625 1.404 . S
C628 N626 1.334 . S
C629 H621 0.930 . S
C629 C624 1.418 . S
C629 C625 1.353 . S
C630 H600 0.930 . S
C630 N631 1.330 . S
C630 C632 1.446 . S
N631 Co590 2.151 . S
N631 C630 1.330 . S
N631 C635 1.418 . S
C632 H611 0.929 . S
C632 C630 1.446 . S
C632 C633 1.332 . S
C633 H613 0.931 . S
C633 C632 1.332 . S
C633 C634 1.267 . S
C634 H602 0.929 . S
C634 C633 1.267 . S
C634 C635 1.251 . S
C635 H605 0.929 . S
C635 N631 1.418 . S
C635 C634 1.251 . S
C636 H603 0.930 . S
C636 C638 1.406 . S
C636 C641 1.261 . S
C637 H604 0.930 . S
C637 N639 1.325 . S
C637 C640 1.357 . S
C638 H606 0.928 . S
C638 C636 1.406 . S
C638 N639 1.261 . S
N639 Co590 2.214 . S
N639 C637 1.325 . S
N639 C638 1.261 . S
C640 H610 0.931 . S
C640 C637 1.357 . S
C640 C641 1.312 . S
C641 H612 0.930 . S
C641 C636 1.261 . S
C641 C640 1.312 . S
C642 O614 1.214 . S
C642 O622 1.234 . S
C643 H615 0.929 . S
C643 C646 1.391 . S
C643 C648 1.391 . S
C644 H616 0.929 . S
C644 C645 1.390 . S
C644 N647 1.391 . S
C645 H617 0.930 . S
C645 C644 1.390 . S
C645 C646 1.392 . S
C646 H618 0.929 . S
C646 C643 1.391 . S
C646 C645 1.392 . S
N647 Co591 2.257 . S
N647 C644 1.391 . S
N647 C648 1.388 . S
C648 H619 0.930 . S
C648 C643 1.391 . S
C648 N647 1.388 . S
Co649 O651 2.143 . S
Co649 O657 2.074 . S
Co649 O660 2.093 . S
Co649 O673 2.097 . S
Co649 N690 2.151 . S
Co649 N698 2.214 . S
Co650 O651 2.160 . S
Co650 O656 2.058 . S
Co650 O666 2.057 . S
Co650 O681 2.037 . S
Co650 N685 2.145 . S
Co650 N706 2.257 . S
O651 Co649 2.143 . S
O651 Co650 2.160 . S
C652 O653 1.278 . S
C652 O660 1.224 . S
O653 C652 1.278 . S
C654 O655 1.245 . S
C654 O666 1.232 . S
O655 C654 1.245 . S
O656 Co650 2.058 . S
O656 C682 1.269 . S
O657 Co649 2.074 . S
O657 C682 1.257 . S
H658 C683 0.930 . S
H659 C689 0.930 . S
O660 Co649 2.093 . S
O660 C652 1.224 . S
H661 C693 0.929 . S
H662 C695 0.930 . S
H663 C696 0.930 . S
H664 C694 0.929 . S
H665 C697 0.928 . S
O666 Co650 2.057 . S
O666 C654 1.232 . S
H667 C686 0.929 . S
H668 C687 0.929 . S
H669 C699 0.931 . S
H670 C691 0.929 . S
H671 C700 0.930 . S
H672 C692 0.931 . S
O673 Co649 2.097 . S
O673 C701 1.214 . S
H674 C702 0.929 . S
H675 C703 0.929 . S
H676 C704 0.930 . S
H677 C705 0.929 . S
H678 C707 0.930 . S
H679 C684 0.930 . S
H680 C688 0.930 . S
O681 Co650 2.037 . S
O681 C701 1.234 . S
C682 O656 1.269 . S
C682 O657 1.257 . S
C683 H658 0.930 . S
C683 C686 1.388 . S
C683 C688 1.418 . S
C684 H679 0.930 . S
C684 C687 1.404 . S
C684 C688 1.353 . S
N685 Co650 2.145 . S
N685 C686 1.397 . S
N685 C687 1.334 . S
C686 H667 0.929 . S
C686 C683 1.388 . S
C686 N685 1.397 . S
C687 H668 0.929 . S
C687 C684 1.404 . S
C687 N685 1.334 . S
C688 H680 0.930 . S
C688 C683 1.418 . S
C688 C684 1.353 . S
C689 H659 0.930 . S
C689 N690 1.330 . S
C689 C691 1.446 . S
N690 Co649 2.151 . S
N690 C689 1.330 . S
N690 C694 1.418 . S
C691 H670 0.929 . S
C691 C689 1.446 . S
C691 C692 1.332 . S
C692 H672 0.931 . S
C692 C691 1.332 . S
C692 C693 1.267 . S
C693 H661 0.929 . S
C693 C692 1.267 . S
C693 C694 1.251 . S
C694 H664 0.929 . S
C694 N690 1.418 . S
C694 C693 1.251 . S
C695 H662 0.930 . S
C695 C697 1.406 . S
C695 C700 1.261 . S
C696 H663 0.930 . S
C696 N698 1.325 . S
C696 C699 1.357 . S
C697 H665 0.928 . S
C697 C695 1.406 . S
C697 N698 1.261 . S
N698 Co649 2.214 . S
N698 C696 1.325 . S
N698 C697 1.261 . S
C699 H669 0.931 . S
C699 C696 1.357 . S
C699 C700 1.312 . S
C700 H671 0.930 . S
C700 C695 1.261 . S
C700 C699 1.312 . S
C701 O673 1.214 . S
C701 O681 1.234 . S
C702 H674 0.929 . S
C702 C705 1.391 . S
C702 C707 1.391 . S
C703 H675 0.929 . S
C703 C704 1.390 . S
C703 N706 1.391 . S
C704 H676 0.930 . S
C704 C703 1.390 . S
C704 C705 1.392 . S
C705 H677 0.929 . S
C705 C702 1.391 . S
C705 C704 1.392 . S
N706 Co650 2.257 . S
N706 C703 1.391 . S
N706 C707 1.388 . S
C707 H678 0.930 . S
C707 C702 1.391 . S
C707 N706 1.388 . S
Co708 O710 2.143 . S
Co708 O716 2.074 . S
Co708 O719 2.093 . S
Co708 O732 2.097 . S
Co708 N749 2.151 . S
Co708 N757 2.214 . S
Co709 O710 2.160 . S
Co709 O715 2.058 . S
Co709 O725 2.057 . S
Co709 O740 2.037 . S
Co709 N744 2.145 . S
Co709 N765 2.257 . S
O710 Co708 2.143 . S
O710 Co709 2.160 . S
C711 O712 1.278 . S
C711 O719 1.224 . S
O712 C711 1.278 . S
C713 O714 1.245 . S
C713 O725 1.232 . S
O714 C713 1.245 . S
O715 Co709 2.058 . S
O715 C741 1.269 . S
O716 Co708 2.074 . S
O716 C741 1.257 . S
H717 C742 0.930 . S
H718 C748 0.930 . S
O719 Co708 2.093 . S
O719 C711 1.224 . S
H720 C752 0.929 . S
H721 C754 0.930 . S
H722 C755 0.930 . S
H723 C753 0.929 . S
H724 C756 0.928 . S
O725 Co709 2.057 . S
O725 C713 1.232 . S
H726 C745 0.929 . S
H727 C746 0.929 . S
H728 C758 0.931 . S
H729 C750 0.929 . S
H730 C759 0.930 . S
H731 C751 0.931 . S
O732 Co708 2.097 . S
O732 C760 1.214 . S
H733 C761 0.929 . S
H734 C762 0.929 . S
H735 C763 0.930 . S
H736 C764 0.929 . S
H737 C766 0.930 . S
H738 C743 0.930 . S
H739 C747 0.930 . S
O740 Co709 2.037 . S
O740 C760 1.234 . S
C741 O715 1.269 . S
C741 O716 1.257 . S
C742 H717 0.930 . S
C742 C745 1.388 . S
C742 C747 1.418 . S
C743 H738 0.930 . S
C743 C746 1.404 . S
C743 C747 1.353 . S
N744 Co709 2.145 . S
N744 C745 1.397 . S
N744 C746 1.334 . S
C745 H726 0.929 . S
C745 C742 1.388 . S
C745 N744 1.397 . S
C746 H727 0.929 . S
C746 C743 1.404 . S
C746 N744 1.334 . S
C747 H739 0.930 . S
C747 C742 1.418 . S
C747 C743 1.353 . S
C748 H718 0.930 . S
C748 N749 1.330 . S
C748 C750 1.446 . S
N749 Co708 2.151 . S
N749 C748 1.330 . S
N749 C753 1.418 . S
C750 H729 0.929 . S
C750 C748 1.446 . S
C750 C751 1.332 . S
C751 H731 0.931 . S
C751 C750 1.332 . S
C751 C752 1.267 . S
C752 H720 0.929 . S
C752 C751 1.267 . S
C752 C753 1.251 . S
C753 H723 0.929 . S
C753 N749 1.418 . S
C753 C752 1.251 . S
C754 H721 0.930 . S
C754 C756 1.406 . S
C754 C759 1.261 . S
C755 H722 0.930 . S
C755 N757 1.325 . S
C755 C758 1.357 . S
C756 H724 0.928 . S
C756 C754 1.406 . S
C756 N757 1.261 . S
N757 Co708 2.214 . S
N757 C755 1.325 . S
N757 C756 1.261 . S
C758 H728 0.931 . S
C758 C755 1.357 . S
C758 C759 1.312 . S
C759 H730 0.930 . S
C759 C754 1.261 . S
C759 C758 1.312 . S
C760 O732 1.214 . S
C760 O740 1.234 . S
C761 H733 0.929 . S
C761 C764 1.391 . S
C761 C766 1.391 . S
C762 H734 0.929 . S
C762 C763 1.390 . S
C762 N765 1.391 . S
C763 H735 0.930 . S
C763 C762 1.390 . S
C763 C764 1.392 . S
C764 H736 0.929 . S
C764 C761 1.391 . S
C764 C763 1.392 . S
N765 Co709 2.257 . S
N765 C762 1.391 . S
N765 C766 1.388 . S
C766 H737 0.930 . S
C766 C761 1.391 . S
C766 N765 1.388 . S
Co767 O769 2.143 . S
Co767 O775 2.074 . S
Co767 O778 2.093 . S
Co767 O791 2.097 . S
Co767 N808 2.151 . S
Co767 N816 2.214 . S
Co768 O769 2.160 . S
Co768 O774 2.058 . S
Co768 O784 2.057 . S
Co768 O799 2.037 . S
Co768 N803 2.145 . S
Co768 N824 2.257 . S
O769 Co767 2.143 . S
O769 Co768 2.160 . S
C770 O771 1.278 . S
C770 O778 1.224 . S
O771 C770 1.278 . S
C772 O773 1.245 . S
C772 O784 1.232 . S
O773 C772 1.245 . S
O774 Co768 2.058 . S
O774 C800 1.269 . S
O775 Co767 2.074 . S
O775 C800 1.257 . S
H776 C801 0.930 . S
H777 C807 0.930 . S
O778 Co767 2.093 . S
O778 C770 1.224 . S
H779 C811 0.929 . S
H780 C813 0.930 . S
H781 C814 0.930 . S
H782 C812 0.929 . S
H783 C815 0.928 . S
O784 Co768 2.057 . S
O784 C772 1.232 . S
H785 C804 0.929 . S
H786 C805 0.929 . S
H787 C817 0.931 . S
H788 C809 0.929 . S
H789 C818 0.930 . S
H790 C810 0.931 . S
O791 Co767 2.097 . S
O791 C819 1.214 . S
H792 C820 0.929 . S
H793 C821 0.929 . S
H794 C822 0.930 . S
H795 C823 0.929 . S
H796 C825 0.930 . S
H797 C802 0.930 . S
H798 C806 0.930 . S
O799 Co768 2.037 . S
O799 C819 1.234 . S
C800 O774 1.269 . S
C800 O775 1.257 . S
C801 H776 0.930 . S
C801 C804 1.388 . S
C801 C806 1.418 . S
C802 H797 0.930 . S
C802 C805 1.404 . S
C802 C806 1.353 . S
N803 Co768 2.145 . S
N803 C804 1.397 . S
N803 C805 1.334 . S
C804 H785 0.929 . S
C804 C801 1.388 . S
C804 N803 1.397 . S
C805 H786 0.929 . S
C805 C802 1.404 . S
C805 N803 1.334 . S
C806 H798 0.930 . S
C806 C801 1.418 . S
C806 C802 1.353 . S
C807 H777 0.930 . S
C807 N808 1.330 . S
C807 C809 1.446 . S
N808 Co767 2.151 . S
N808 C807 1.330 . S
N808 C812 1.418 . S
C809 H788 0.929 . S
C809 C807 1.446 . S
C809 C810 1.332 . S
C810 H790 0.931 . S
C810 C809 1.332 . S
C810 C811 1.267 . S
C811 H779 0.929 . S
C811 C810 1.267 . S
C811 C812 1.251 . S
C812 H782 0.929 . S
C812 N808 1.418 . S
C812 C811 1.251 . S
C813 H780 0.930 . S
C813 C815 1.406 . S
C813 C818 1.261 . S
C814 H781 0.930 . S
C814 N816 1.325 . S
C814 C817 1.357 . S
C815 H783 0.928 . S
C815 C813 1.406 . S
C815 N816 1.261 . S
N816 Co767 2.214 . S
N816 C814 1.325 . S
N816 C815 1.261 . S
C817 H787 0.931 . S
C817 C814 1.357 . S
C817 C818 1.312 . S
C818 H789 0.930 . S
C818 C813 1.261 . S
C818 C817 1.312 . S
C819 O791 1.214 . S
C819 O799 1.234 . S
C820 H792 0.929 . S
C820 C823 1.391 . S
C820 C825 1.391 . S
C821 H793 0.929 . S
C821 C822 1.390 . S
C821 N824 1.391 . S
C822 H794 0.930 . S
C822 C821 1.390 . S
C822 C823 1.392 . S
C823 H795 0.929 . S
C823 C820 1.391 . S
C823 C822 1.392 . S
N824 Co768 2.257 . S
N824 C821 1.391 . S
N824 C825 1.388 . S
C825 H796 0.930 . S
C825 C820 1.391 . S
C825 N824 1.388 . S
Co826 O828 2.143 . S
Co826 O834 2.074 . S
Co826 O837 2.093 . S
Co826 O850 2.097 . S
Co826 N867 2.151 . S
Co826 N875 2.214 . S
Co827 O828 2.160 . S
Co827 O833 2.058 . S
Co827 O843 2.057 . S
Co827 O858 2.037 . S
Co827 N862 2.145 . S
Co827 N883 2.257 . S
O828 Co826 2.143 . S
O828 Co827 2.160 . S
C829 O830 1.278 . S
C829 O837 1.224 . S
O830 C829 1.278 . S
C831 O832 1.245 . S
C831 O843 1.232 . S
O832 C831 1.245 . S
O833 Co827 2.058 . S
O833 C859 1.269 . S
O834 Co826 2.074 . S
O834 C859 1.257 . S
H835 C860 0.930 . S
H836 C866 0.930 . S
O837 Co826 2.093 . S
O837 C829 1.224 . S
H838 C870 0.929 . S
H839 C872 0.930 . S
H840 C873 0.930 . S
H841 C871 0.929 . S
H842 C874 0.928 . S
O843 Co827 2.057 . S
O843 C831 1.232 . S
H844 C863 0.929 . S
H845 C864 0.929 . S
H846 C876 0.931 . S
H847 C868 0.929 . S
H848 C877 0.930 . S
H849 C869 0.931 . S
O850 Co826 2.097 . S
O850 C878 1.214 . S
H851 C879 0.929 . S
H852 C880 0.929 . S
H853 C881 0.930 . S
H854 C882 0.929 . S
H855 C884 0.930 . S
H856 C861 0.930 . S
H857 C865 0.930 . S
O858 Co827 2.037 . S
O858 C878 1.234 . S
C859 O833 1.269 . S
C859 O834 1.257 . S
C860 H835 0.930 . S
C860 C863 1.388 . S
C860 C865 1.418 . S
C861 H856 0.930 . S
C861 C864 1.404 . S
C861 C865 1.353 . S
N862 Co827 2.145 . S
N862 C863 1.397 . S
N862 C864 1.334 . S
C863 H844 0.929 . S
C863 C860 1.388 . S
C863 N862 1.397 . S
C864 H845 0.929 . S
C864 C861 1.404 . S
C864 N862 1.334 . S
C865 H857 0.930 . S
C865 C860 1.418 . S
C865 C861 1.353 . S
C866 H836 0.930 . S
C866 N867 1.330 . S
C866 C868 1.446 . S
N867 Co826 2.151 . S
N867 C866 1.330 . S
N867 C871 1.418 . S
C868 H847 0.929 . S
C868 C866 1.446 . S
C868 C869 1.332 . S
C869 H849 0.931 . S
C869 C868 1.332 . S
C869 C870 1.267 . S
C870 H838 0.929 . S
C870 C869 1.267 . S
C870 C871 1.251 . S
C871 H841 0.929 . S
C871 N867 1.418 . S
C871 C870 1.251 . S
C872 H839 0.930 . S
C872 C874 1.406 . S
C872 C877 1.261 . S
C873 H840 0.930 . S
C873 N875 1.325 . S
C873 C876 1.357 . S
C874 H842 0.928 . S
C874 C872 1.406 . S
C874 N875 1.261 . S
N875 Co826 2.214 . S
N875 C873 1.325 . S
N875 C874 1.261 . S
C876 H846 0.931 . S
C876 C873 1.357 . S
C876 C877 1.312 . S
C877 H848 0.930 . S
C877 C872 1.261 . S
C877 C876 1.312 . S
C878 O850 1.214 . S
C878 O858 1.234 . S
C879 H851 0.929 . S
C879 C882 1.391 . S
C879 C884 1.391 . S
C880 H852 0.929 . S
C880 C881 1.390 . S
C880 N883 1.391 . S
C881 H853 0.930 . S
C881 C880 1.390 . S
C881 C882 1.392 . S
C882 H854 0.929 . S
C882 C879 1.391 . S
C882 C881 1.392 . S
N883 Co827 2.257 . S
N883 C880 1.391 . S
N883 C884 1.388 . S
C884 H855 0.930 . S
C884 C879 1.391 . S
C884 N883 1.388 . S
Co885 O887 2.143 . S
Co885 O893 2.074 . S
Co885 O896 2.093 . S
Co885 O909 2.097 . S
Co885 N926 2.151 . S
Co885 N934 2.214 . S
Co886 O887 2.160 . S
Co886 O892 2.058 . S
Co886 O902 2.057 . S
Co886 O917 2.037 . S
Co886 N921 2.145 . S
Co886 N942 2.257 . S
O887 Co885 2.143 . S
O887 Co886 2.160 . S
C888 O889 1.278 . S
C888 O896 1.224 . S
O889 C888 1.278 . S
C890 O891 1.245 . S
C890 O902 1.232 . S
O891 C890 1.245 . S
O892 Co886 2.058 . S
O892 C918 1.269 . S
O893 Co885 2.074 . S
O893 C918 1.257 . S
H894 C919 0.930 . S
H895 C925 0.930 . S
O896 Co885 2.093 . S
O896 C888 1.224 . S
H897 C929 0.929 . S
H898 C931 0.930 . S
H899 C932 0.930 . S
H900 C930 0.929 . S
H901 C933 0.928 . S
O902 Co886 2.057 . S
O902 C890 1.232 . S
H903 C922 0.929 . S
H904 C923 0.929 . S
H905 C935 0.931 . S
H906 C927 0.929 . S
H907 C936 0.930 . S
H908 C928 0.931 . S
O909 Co885 2.097 . S
O909 C937 1.214 . S
H910 C938 0.929 . S
H911 C939 0.929 . S
H912 C940 0.930 . S
H913 C941 0.929 . S
H914 C943 0.930 . S
H915 C920 0.930 . S
H916 C924 0.930 . S
O917 Co886 2.037 . S
O917 C937 1.234 . S
C918 O892 1.269 . S
C918 O893 1.257 . S
C919 H894 0.930 . S
C919 C922 1.388 . S
C919 C924 1.418 . S
C920 H915 0.930 . S
C920 C923 1.404 . S
C920 C924 1.353 . S
N921 Co886 2.145 . S
N921 C922 1.397 . S
N921 C923 1.334 . S
C922 H903 0.929 . S
C922 C919 1.388 . S
C922 N921 1.397 . S
C923 H904 0.929 . S
C923 C920 1.404 . S
C923 N921 1.334 . S
C924 H916 0.930 . S
C924 C919 1.418 . S
C924 C920 1.353 . S
C925 H895 0.930 . S
C925 N926 1.330 . S
C925 C927 1.446 . S
N926 Co885 2.151 . S
N926 C925 1.330 . S
N926 C930 1.418 . S
C927 H906 0.929 . S
C927 C925 1.446 . S
C927 C928 1.332 . S
C928 H908 0.931 . S
C928 C927 1.332 . S
C928 C929 1.267 . S
C929 H897 0.929 . S
C929 C928 1.267 . S
C929 C930 1.251 . S
C930 H900 0.929 . S
C930 N926 1.418 . S
C930 C929 1.251 . S
C931 H898 0.930 . S
C931 C933 1.406 . S
C931 C936 1.261 . S
C932 H899 0.930 . S
C932 N934 1.325 . S
C932 C935 1.357 . S
C933 H901 0.928 . S
C933 C931 1.406 . S
C933 N934 1.261 . S
N934 Co885 2.214 . S
N934 C932 1.325 . S
N934 C933 1.261 . S
C935 H905 0.931 . S
C935 C932 1.357 . S
C935 C936 1.312 . S
C936 H907 0.930 . S
C936 C931 1.261 . S
C936 C935 1.312 . S
C937 O909 1.214 . S
C937 O917 1.234 . S
C938 H910 0.929 . S
C938 C941 1.391 . S
C938 C943 1.391 . S
C939 H911 0.929 . S
C939 C940 1.390 . S
C939 N942 1.391 . S
C940 H912 0.930 . S
C940 C939 1.390 . S
C940 C941 1.392 . S
C941 H913 0.929 . S
C941 C938 1.391 . S
C941 C940 1.392 . S
N942 Co886 2.257 . S
N942 C939 1.391 . S
N942 C943 1.388 . S
C943 H914 0.930 . S
C943 C938 1.391 . S
C943 N942 1.388 . S
C944 C945 1.363 . S
C944 C950 1.379 . S
C944 N952 1.356 . S
C945 C944 1.363 . S
C945 C951 1.363 . S
C946 C947 1.363 . S
C946 C951 1.379 . S
C946 N953 1.356 . S
C947 C946 1.363 . S
C947 C950 1.363 . S
N948 C950 1.356 . S
N948 H960 0.984 . S
N948 H961 0.985 . S
N949 C951 1.356 . S
N949 H954 0.984 . S
N949 H955 0.985 . S
C950 C944 1.379 . S
C950 C947 1.363 . S
C950 N948 1.356 . S
C951 C945 1.363 . S
C951 C946 1.379 . S
C951 N949 1.356 . S
N952 C944 1.356 . S
N952 H958 0.984 . S
N952 H959 0.984 . S
N953 C946 1.356 . S
N953 H956 0.984 . S
N953 H957 0.985 . S
H954 N949 0.984 . S
H955 N949 0.985 . S
H956 N953 0.984 . S
H957 N953 0.985 . S
H958 N952 0.984 . S
H959 N952 0.984 . S
H960 N948 0.984 . S
H961 N948 0.985 . S
C962 C963 1.363 . S
C962 C968 1.379 . S
C962 N970 1.356 . S
C963 C962 1.363 . S
C963 C969 1.363 . S
C964 C965 1.363 . S
C964 C969 1.379 . S
C964 N971 1.356 . S
C965 C964 1.363 . S
C965 C968 1.363 . S
N966 C968 1.356 . S
N966 H978 0.984 . S
N966 H979 0.985 . S
N967 C969 1.356 . S
N967 H972 0.984 . S
N967 H973 0.985 . S
C968 C962 1.379 . S
C968 C965 1.363 . S
C968 N966 1.356 . S
C969 C963 1.363 . S
C969 C964 1.379 . S
C969 N967 1.356 . S
N970 C962 1.356 . S
N970 H976 0.984 . S
N970 H977 0.984 . S
N971 C964 1.356 . S
N971 H974 0.984 . S
N971 H975 0.985 . S
H972 N967 0.984 . S
H973 N967 0.985 . S
H974 N971 0.984 . S
H975 N971 0.985 . S
H976 N970 0.984 . S
H977 N970 0.984 . S
H978 N966 0.984 . S
H979 N966 0.985 . S
C980 C981 1.363 . S
C980 C986 1.379 . S
C980 N988 1.356 . S
C981 C980 1.363 . S
C981 C987 1.363 . S
C982 C983 1.363 . S
C982 C987 1.379 . S
C982 N989 1.356 . S
C983 C982 1.363 . S
C983 C986 1.363 . S
N984 C986 1.356 . S
N984 H996 0.984 . S
N984 H997 0.985 . S
N985 C987 1.356 . S
N985 H990 0.984 . S
N985 H991 0.985 . S
C986 C980 1.379 . S
C986 C983 1.363 . S
C986 N984 1.356 . S
C987 C981 1.363 . S
C987 C982 1.379 . S
C987 N985 1.356 . S
N988 C980 1.356 . S
N988 H994 0.984 . S
N988 H995 0.984 . S
N989 C982 1.356 . S
N989 H992 0.984 . S
N989 H993 0.985 . S
H990 N985 0.984 . S
H991 N985 0.985 . S
H992 N989 0.984 . S
H993 N989 0.985 . S
H994 N988 0.984 . S
H995 N988 0.984 . S
H996 N984 0.984 . S
H997 N984 0.985 . S
C998 C999 1.363 . S
C998 C1004 1.379 . S
C998 N1006 1.356 . S
C999 C998 1.363 . S
C999 C1005 1.363 . S
C1000 C1001 1.363 . S
C1000 C1005 1.379 . S
C1000 N1007 1.356 . S
C1001 C1000 1.363 . S
C1001 C1004 1.363 . S
N1002 C1004 1.356 . S
N1002 H1014 0.984 . S
N1002 H1015 0.985 . S
N1003 C1005 1.356 . S
N1003 H1008 0.984 . S
N1003 H1009 0.985 . S
C1004 C998 1.379 . S
C1004 C1001 1.363 . S
C1004 N1002 1.356 . S
C1005 C999 1.363 . S
C1005 C1000 1.379 . S
C1005 N1003 1.356 . S
N1006 C998 1.356 . S
N1006 H1012 0.984 . S
N1006 H1013 0.984 . S
N1007 C1000 1.356 . S
N1007 H1010 0.984 . S
N1007 H1011 0.985 . S
H1008 N1003 0.984 . S
H1009 N1003 0.985 . S
H1010 N1007 0.984 . S
H1011 N1007 0.985 . S
H1012 N1006 0.984 . S
H1013 N1006 0.984 . S
H1014 N1002 0.984 . S
H1015 N1002 0.985 . S
C1016 C1017 1.363 . S
C1016 C1022 1.379 . S
C1016 N1024 1.356 . S
C1017 C1016 1.363 . S
C1017 C1023 1.363 1_554 S
C1018 C1019 1.363 . S
C1018 C1023 1.379 . S
C1018 N1025 1.356 . S
C1019 C1018 1.363 . S
C1019 C1022 1.363 1_556 S
N1020 C1022 1.356 . S
N1020 H1032 0.984 . S
N1020 H1033 0.985 . S
N1021 C1023 1.356 . S
N1021 H1026 0.984 1_545 S
N1021 H1027 0.985 1_545 S
C1022 C1016 1.379 . S
C1022 C1019 1.363 1_554 S
C1022 N1020 1.356 . S
C1023 C1017 1.363 1_556 S
C1023 C1018 1.379 . S
C1023 N1021 1.356 . S
N1024 C1016 1.356 . S
N1024 H1030 0.984 . S
N1024 H1031 0.984 . S
N1025 C1018 1.356 . S
N1025 H1028 0.984 . S
N1025 H1029 0.985 . S
H1026 N1021 0.984 1_565 S
H1027 N1021 0.985 1_565 S
H1028 N1025 0.984 . S
H1029 N1025 0.985 . S
H1030 N1024 0.984 . S
H1031 N1024 0.984 . S
H1032 N1020 0.984 . S
H1033 N1020 0.985 . S
C1034 C1035 1.363 . S
C1034 C1040 1.379 1_554 S
C1034 N1042 1.356 . S
C1035 C1034 1.363 . S
C1035 C1041 1.363 1_554 S
C1036 C1037 1.363 . S
C1036 C1041 1.379 . S
C1036 N1043 1.356 . S
C1037 C1036 1.363 . S
C1037 C1040 1.363 . S
N1038 C1040 1.356 . S
N1038 H1050 0.984 1_455 S
N1038 H1051 0.985 1_455 S
N1039 C1041 1.356 . S
N1039 H1044 0.984 1_556 S
N1039 H1045 0.985 . S
C1040 C1034 1.379 1_556 S
C1040 C1037 1.363 . S
C1040 N1038 1.356 . S
C1041 C1035 1.363 1_556 S
C1041 C1036 1.379 . S
C1041 N1039 1.356 . S
N1042 C1034 1.356 . S
N1042 H1048 0.984 . S
N1042 H1049 0.984 . S
N1043 C1036 1.356 . S
N1043 H1046 0.984 . S
N1043 H1047 0.985 . S
H1044 N1039 0.984 1_554 S
H1045 N1039 0.985 . S
H1046 N1043 0.984 . S
H1047 N1043 0.985 . S
H1048 N1042 0.984 . S
H1049 N1042 0.984 . S
H1050 N1038 0.984 1_655 S
H1051 N1038 0.985 1_655 S
C1052 C1053 1.363 . S
C1052 C1058 1.388 . S
C1052 N1060 1.356 . S
C1053 C1052 1.363 . S
C1053 C1059 1.363 1_556 S
C1054 C1055 1.363 . S
C1054 C1059 1.379 . S
C1054 N1061 1.356 . S
C1055 C1054 1.363 . S
C1055 C1058 1.348 1_554 S
N1056 C1058 1.357 1_545 S
N1056 H1068 0.984 . S
N1056 H1069 0.985 1_556 S
N1057 C1059 1.356 . S
N1057 H1062 0.984 . S
N1057 H1063 0.985 . S
C1058 C1052 1.388 . S
C1058 C1055 1.348 1_556 S
C1058 N1056 1.357 1_565 S
C1059 C1053 1.363 1_554 S
C1059 C1054 1.379 . S
C1059 N1057 1.356 . S
N1060 C1052 1.356 . S
N1060 H1066 0.984 . S
N1060 H1067 0.984 . S
N1061 C1054 1.356 . S
N1061 H1064 0.984 . S
N1061 H1065 0.985 . S
H1062 N1057 0.984 . S
H1063 N1057 0.985 . S
H1064 N1061 0.984 . S
H1065 N1061 0.985 . S
H1066 N1060 0.984 . S
H1067 N1060 0.984 . S
H1068 N1056 0.984 . S
H1069 N1056 0.985 1_554 S
C1070 C1071 1.363 . S
C1070 C1076 1.379 . S
C1070 N1078 1.356 . S
C1071 C1070 1.363 . S
C1071 C1077 1.363 1_554 S
C1072 C1073 1.363 . S
C1072 C1077 1.379 . S
C1072 N1079 1.356 . S
C1073 C1072 1.363 . S
C1073 C1076 1.363 1_556 S
N1074 C1076 1.356 . S
N1074 H1086 0.984 . S
N1074 H1087 0.985 1_554 S
N1075 C1077 1.356 . S
N1075 H1080 0.984 . S
N1075 H1081 0.985 . S
C1076 C1070 1.379 . S
C1076 C1073 1.363 1_554 S
C1076 N1074 1.356 . S
C1077 C1071 1.363 1_556 S
C1077 C1072 1.379 . S
C1077 N1075 1.356 . S
N1078 C1070 1.356 . S
N1078 H1084 0.984 . S
N1078 H1085 0.984 . S
N1079 C1072 1.356 . S
N1079 H1082 0.984 . S
N1079 H1083 0.985 . S
H1080 N1075 0.984 . S
H1081 N1075 0.985 . S
H1082 N1079 0.984 . S
H1083 N1079 0.985 . S
H1084 N1078 0.984 . S
H1085 N1078 0.984 . S
H1086 N1074 0.984 . S
H1087 N1074 0.985 1_556 S
C1088 C1089 1.363 . S
C1088 C1094 1.379 . S
C1088 N1096 1.356 . S
C1089 C1088 1.363 . S
C1089 C1095 1.363 . S
C1090 C1091 1.363 . S
C1090 C1095 1.379 . S
C1090 N1097 1.356 . S
C1091 C1090 1.363 . S
C1091 C1094 1.363 . S
N1092 C1094 1.356 1_545 S
N1092 H1104 0.984 . S
N1092 H1105 0.985 . S
N1093 C1095 1.356 . S
N1093 H1098 0.984 . S
N1093 H1099 0.985 . S
C1094 C1088 1.379 . S
C1094 C1091 1.363 . S
C1094 N1092 1.356 1_565 S
C1095 C1089 1.363 . S
C1095 C1090 1.379 . S
C1095 N1093 1.356 . S
N1096 C1088 1.356 . S
N1096 H1102 0.984 . S
N1096 H1103 0.984 . S
N1097 C1090 1.356 . S
N1097 H1100 0.984 . S
N1097 H1101 0.985 . S
H1098 N1093 0.984 . S
H1099 N1093 0.985 . S
H1100 N1097 0.984 . S
H1101 N1097 0.985 . S
H1102 N1096 0.984 . S
H1103 N1096 0.984 . S
H1104 N1092 0.984 . S
H1105 N1092 0.985 . S
C1106 C1107 1.363 . S
C1106 C1112 1.379 . S
C1106 N1114 1.356 . S
C1107 C1106 1.363 . S
C1107 C1113 1.363 . S
C1108 C1109 1.363 . S
C1108 C1113 1.379 . S
C1108 N1115 1.356 . S
C1109 C1108 1.363 . S
C1109 C1112 1.363 . S
N1110 C1112 1.356 . S
N1110 H1122 0.984 . S
N1110 H1123 0.985 . S
N1111 C1113 1.356 . S
N1111 H1116 0.984 . S
N1111 H1117 0.985 . S
C1112 C1106 1.379 . S
C1112 C1109 1.363 . S
C1112 N1110 1.356 . S
C1113 C1107 1.363 . S
C1113 C1108 1.379 . S
C1113 N1111 1.356 . S
N1114 C1106 1.356 . S
N1114 H1120 0.984 . S
N1114 H1121 0.984 . S
N1115 C1108 1.356 . S
N1115 H1118 0.984 . S
N1115 H1119 0.985 . S
H1116 N1111 0.984 . S
H1117 N1111 0.985 . S
H1118 N1115 0.984 . S
H1119 N1115 0.985 . S
H1120 N1114 0.984 . S
H1121 N1114 0.984 . S
H1122 N1110 0.984 . S
H1123 N1110 0.985 . S
C1124 C1125 1.363 . S
C1124 C1130 1.379 . S
C1124 N1132 1.356 . S
C1125 C1124 1.363 . S
C1125 C1131 1.363 . S
C1126 C1127 1.363 . S
C1126 C1131 1.379 . S
C1126 N1133 1.356 . S
C1127 C1126 1.363 . S
C1127 C1130 1.363 . S
N1128 C1130 1.356 . S
N1128 H1140 0.984 . S
N1128 H1141 0.985 . S
N1129 C1131 1.348 1_565 S
N1129 H1134 0.990 . S
N1129 H1135 0.987 . S
C1130 C1124 1.379 . S
C1130 C1127 1.363 . S
C1130 N1128 1.356 . S
C1131 C1125 1.363 . S
C1131 C1126 1.379 . S
C1131 N1129 1.348 1_545 S
N1132 C1124 1.356 . S
N1132 H1138 0.984 . S
N1132 H1139 0.984 . S
N1133 C1126 1.356 . S
N1133 H1136 0.984 . S
N1133 H1137 0.985 . S
H1134 N1129 0.990 . S
H1135 N1129 0.987 . S
H1136 N1133 0.984 . S
H1137 N1133 0.985 . S
H1138 N1132 0.984 . S
H1139 N1132 0.984 . S
H1140 N1128 0.984 . S
H1141 N1128 0.985 . S
C1142 C1143 1.363 . S
C1142 C1148 1.379 . S
C1142 N1150 1.356 . S
C1143 C1142 1.363 . S
C1143 C1149 1.363 . S
C1144 C1145 1.363 . S
C1144 C1149 1.379 . S
C1144 N1151 1.356 . S
C1145 C1144 1.363 . S
C1145 C1148 1.363 . S
N1146 C1148 1.356 . S
N1146 H1158 0.984 . S
N1146 H1159 0.985 . S
N1147 C1149 1.356 . S
N1147 H1152 0.984 . S
N1147 H1153 0.985 . S
C1148 C1142 1.379 . S
C1148 C1145 1.363 . S
C1148 N1146 1.356 . S
C1149 C1143 1.363 . S
C1149 C1144 1.379 . S
C1149 N1147 1.356 . S
N1150 C1142 1.356 . S
N1150 H1156 0.984 . S
N1150 H1157 0.984 1_455 S
N1151 C1144 1.356 . S
N1151 H1154 0.984 . S
N1151 H1155 0.985 . S
H1152 N1147 0.984 . S
H1153 N1147 0.985 . S
H1154 N1151 0.984 . S
H1155 N1151 0.985 . S
H1156 N1150 0.984 . S
H1157 N1150 0.984 1_655 S
H1158 N1146 0.984 . S
H1159 N1146 0.985 . S
C1160 C1161 1.363 . S
C1160 C1166 1.379 . S
C1160 N1168 1.356 . S
C1161 C1160 1.363 . S
C1161 C1167 1.363 . S
C1162 C1163 1.363 . S
C1162 C1167 1.379 . S
C1162 N1169 1.356 . S
C1163 C1162 1.363 . S
C1163 C1166 1.363 . S
N1164 C1166 1.356 . S
N1164 H1176 0.984 . S
N1164 H1177 0.985 . S
N1165 C1167 1.356 . S
N1165 H1170 0.984 . S
N1165 H1171 0.985 . S
C1166 C1160 1.379 . S
C1166 C1163 1.363 . S
C1166 N1164 1.356 . S
C1167 C1161 1.363 . S
C1167 C1162 1.379 . S
C1167 N1165 1.356 . S
N1168 C1160 1.356 . S
N1168 H1174 0.984 . S
N1168 H1175 0.984 . S
N1169 C1162 1.356 . S
N1169 H1172 0.984 . S
N1169 H1173 0.985 . S
H1170 N1165 0.984 . S
H1171 N1165 0.985 . S
H1172 N1169 0.984 . S
H1173 N1169 0.985 . S
H1174 N1168 0.984 . S
H1175 N1168 0.984 . S
H1176 N1164 0.984 . S
H1177 N1164 0.985 . S
C1178 C1179 1.363 . S
C1178 C1184 1.379 . S
C1178 N1186 1.356 . S
C1179 C1178 1.363 . S
C1179 C1185 1.363 . S
C1180 C1181 1.363 . S
C1180 C1185 1.379 . S
C1180 N1187 1.356 . S
C1181 C1180 1.363 . S
C1181 C1184 1.363 . S
N1182 C1184 1.356 . S
N1182 H1194 0.984 . S
N1182 H1195 0.985 . S
N1183 C1185 1.356 . S
N1183 H1188 0.984 . S
N1183 H1189 0.985 . S
C1184 C1178 1.379 . S
C1184 C1181 1.363 . S
C1184 N1182 1.356 . S
C1185 C1179 1.363 . S
C1185 C1180 1.379 . S
C1185 N1183 1.356 . S
N1186 C1178 1.356 . S
N1186 H1192 0.984 . S
N1186 H1193 0.984 . S
N1187 C1180 1.356 . S
N1187 H1190 0.984 . S
N1187 H1191 0.985 . S
H1188 N1183 0.984 . S
H1189 N1183 0.985 . S
H1190 N1187 0.984 . S
H1191 N1187 0.985 . S
H1192 N1186 0.984 . S
H1193 N1186 0.984 . S
H1194 N1182 0.984 . S
H1195 N1182 0.985 . S
C1196 C1197 1.363 . S
C1196 C1202 1.379 . S
C1196 N1204 1.356 . S
C1197 C1196 1.363 . S
C1197 C1203 1.363 . S
C1198 C1199 1.363 . S
C1198 C1203 1.379 . S
C1198 N1205 1.356 . S
C1199 C1198 1.363 . S
C1199 C1202 1.363 . S
N1200 C1202 1.356 . S
N1200 H1212 0.984 . S
N1200 H1213 0.985 . S
N1201 C1203 1.356 . S
N1201 H1206 0.984 . S
N1201 H1207 0.985 . S
C1202 C1196 1.379 . S
C1202 C1199 1.363 . S
C1202 N1200 1.356 . S
C1203 C1197 1.363 . S
C1203 C1198 1.379 . S
C1203 N1201 1.356 . S
N1204 C1196 1.356 . S
N1204 H1210 0.984 . S
N1204 H1211 0.984 . S
N1205 C1198 1.356 . S
N1205 H1208 0.984 . S
N1205 H1209 0.985 . S
H1206 N1201 0.984 . S
H1207 N1201 0.985 . S
H1208 N1205 0.984 . S
H1209 N1205 0.985 . S
H1210 N1204 0.984 . S
H1211 N1204 0.984 . S
H1212 N1200 0.984 . S
H1213 N1200 0.985 . S
C1214 C1215 1.363 . S
C1214 C1220 1.379 . S
C1214 N1222 1.356 . S
C1215 C1214 1.363 . S
C1215 C1221 1.363 . S
C1216 C1217 1.363 . S
C1216 C1221 1.379 . S
C1216 N1223 1.356 . S
C1217 C1216 1.363 . S
C1217 C1220 1.363 . S
N1218 C1220 1.356 . S
N1218 H1230 0.984 . S
N1218 H1231 0.985 . S
N1219 C1221 1.356 . S
N1219 H1224 0.984 . S
N1219 H1225 0.985 . S
C1220 C1214 1.379 . S
C1220 C1217 1.363 . S
C1220 N1218 1.356 . S
C1221 C1215 1.363 . S
C1221 C1216 1.379 . S
C1221 N1219 1.356 . S
N1222 C1214 1.356 . S
N1222 H1228 0.984 . S
N1222 H1229 0.984 . S
N1223 C1216 1.356 . S
N1223 H1226 0.984 . S
N1223 H1227 0.985 . S
H1224 N1219 0.984 . S
H1225 N1219 0.985 . S
H1226 N1223 0.984 . S
H1227 N1223 0.985 . S
H1228 N1222 0.984 . S
H1229 N1222 0.984 . S
H1230 N1218 0.984 . S
H1231 N1218 0.985 . S
C1232 C1233 1.363 . S
C1232 C1238 1.379 . S
C1232 N1240 1.356 . S
C1233 C1232 1.363 . S
C1233 C1239 1.363 . S
C1234 C1235 1.363 . S
C1234 C1239 1.379 . S
C1234 N1241 1.356 . S
C1235 C1234 1.363 . S
C1235 C1238 1.363 . S
N1236 C1238 1.356 . S
N1236 H1248 0.984 . S
N1236 H1249 0.985 . S
N1237 C1239 1.356 . S
N1237 H1242 0.984 . S
N1237 H1243 0.985 . S
C1238 C1232 1.379 . S
C1238 C1235 1.363 . S
C1238 N1236 1.356 . S
C1239 C1233 1.363 . S
C1239 C1234 1.379 . S
C1239 N1237 1.356 . S
N1240 C1232 1.356 . S
N1240 H1246 0.984 . S
N1240 H1247 0.984 . S
N1241 C1234 1.356 . S
N1241 H1244 0.984 . S
N1241 H1245 0.985 . S
H1242 N1237 0.984 . S
H1243 N1237 0.985 . S
H1244 N1241 0.984 . S
H1245 N1241 0.985 . S
H1246 N1240 0.984 . S
H1247 N1240 0.984 . S
H1248 N1236 0.984 . S
H1249 N1236 0.985 . S
C1250 C1251 1.363 . S
C1250 C1256 1.379 . S
C1250 N1258 1.356 . S
C1251 C1250 1.363 . S
C1251 C1257 1.363 . S
C1252 C1253 1.363 . S
C1252 C1257 1.379 . S
C1252 N1259 1.356 . S
C1253 C1252 1.363 . S
C1253 C1256 1.363 . S
N1254 C1256 1.356 . S
N1254 H1266 0.984 . S
N1254 H1267 0.985 . S
N1255 C1257 1.356 . S
N1255 H1260 0.984 . S
N1255 H1261 0.985 . S
C1256 C1250 1.379 . S
C1256 C1253 1.363 . S
C1256 N1254 1.356 . S
C1257 C1251 1.363 . S
C1257 C1252 1.379 . S
C1257 N1255 1.356 . S
N1258 C1250 1.356 . S
N1258 H1264 0.984 . S
N1258 H1265 0.984 . S
N1259 C1252 1.356 . S
N1259 H1262 0.984 . S
N1259 H1263 0.985 . S
H1260 N1255 0.984 . S
H1261 N1255 0.985 . S
H1262 N1259 0.984 . S
H1263 N1259 0.985 . S
H1264 N1258 0.984 . S
H1265 N1258 0.984 . S
H1266 N1254 0.984 . S
H1267 N1254 0.985 . S
C1268 C1269 1.363 . S
C1268 C1274 1.379 . S
C1268 N1276 1.356 . S
C1269 C1268 1.363 . S
C1269 C1275 1.363 . S
C1270 C1271 1.363 . S
C1270 C1275 1.379 . S
C1270 N1277 1.356 . S
C1271 C1270 1.363 . S
C1271 C1274 1.363 . S
N1272 C1274 1.356 . S
N1272 H1284 0.984 . S
N1272 H1285 0.985 . S
N1273 C1275 1.356 . S
N1273 H1278 0.984 . S
N1273 H1279 0.985 . S
C1274 C1268 1.379 . S
C1274 C1271 1.363 . S
C1274 N1272 1.356 . S
C1275 C1269 1.363 . S
C1275 C1270 1.379 . S
C1275 N1273 1.356 . S
N1276 C1268 1.356 . S
N1276 H1282 0.984 . S
N1276 H1283 0.984 . S
N1277 C1270 1.356 . S
N1277 H1280 0.984 . S
N1277 H1281 0.985 . S
H1278 N1273 0.984 . S
H1279 N1273 0.985 . S
H1280 N1277 0.984 . S
H1281 N1277 0.985 . S
H1282 N1276 0.984 . S
H1283 N1276 0.984 . S
H1284 N1272 0.984 . S
H1285 N1272 0.985 . S
C1286 C1287 1.363 . S
C1286 C1292 1.379 . S
C1286 N1294 1.356 . S
C1287 C1286 1.363 . S
C1287 C1293 1.363 . S
C1288 C1289 1.363 . S
C1288 C1293 1.379 . S
C1288 N1295 1.356 . S
C1289 C1288 1.363 . S
C1289 C1292 1.363 . S
N1290 C1292 1.356 . S
N1290 H1302 0.984 . S
N1290 H1303 0.985 . S
N1291 C1293 1.356 . S
N1291 H1296 0.984 . S
N1291 H1297 0.985 . S
C1292 C1286 1.379 . S
C1292 C1289 1.363 . S
C1292 N1290 1.356 . S
C1293 C1287 1.363 . S
C1293 C1288 1.379 . S
C1293 N1291 1.356 . S
N1294 C1286 1.356 . S
N1294 H1300 0.984 . S
N1294 H1301 0.984 . S
N1295 C1288 1.356 . S
N1295 H1298 0.984 . S
N1295 H1299 0.985 . S
H1296 N1291 0.984 . S
H1297 N1291 0.985 . S
H1298 N1295 0.984 . S
H1299 N1295 0.985 . S
H1300 N1294 0.984 . S
H1301 N1294 0.984 . S
H1302 N1290 0.984 . S
H1303 N1290 0.985 . S
C1304 C1305 1.363 . S
C1304 C1310 1.379 . S
C1304 N1312 1.356 . S
C1305 C1304 1.363 . S
C1305 C1311 1.363 . S
C1306 C1307 1.363 . S
C1306 C1311 1.379 . S
C1306 N1313 1.356 . S
C1307 C1306 1.363 . S
C1307 C1310 1.363 . S
N1308 C1310 1.356 . S
N1308 H1320 0.984 . S
N1308 H1321 0.985 . S
N1309 C1311 1.356 . S
N1309 H1314 0.984 . S
N1309 H1315 0.985 . S
C1310 C1304 1.379 . S
C1310 C1307 1.363 . S
C1310 N1308 1.356 . S
C1311 C1305 1.363 . S
C1311 C1306 1.379 . S
C1311 N1309 1.356 . S
N1312 C1304 1.356 . S
N1312 H1318 0.984 . S
N1312 H1319 0.984 . S
N1313 C1306 1.356 . S
N1313 H1316 0.984 . S
N1313 H1317 0.985 . S
H1314 N1309 0.984 . S
H1315 N1309 0.985 . S
H1316 N1313 0.984 . S
H1317 N1313 0.985 . S
H1318 N1312 0.984 . S
H1319 N1312 0.984 . S
H1320 N1308 0.984 . S
H1321 N1308 0.985 . S
C1322 C1323 1.363 . S
C1322 C1328 1.379 . S
C1322 N1330 1.356 . S
C1323 C1322 1.363 . S
C1323 C1329 1.363 . S
C1324 C1325 1.363 . S
C1324 C1329 1.379 . S
C1324 N1331 1.356 . S
C1325 C1324 1.363 . S
C1325 C1328 1.363 . S
N1326 C1328 1.356 . S
N1326 H1338 0.984 . S
N1326 H1339 0.985 . S
N1327 C1329 1.356 . S
N1327 H1332 0.984 . S
N1327 H1333 0.985 . S
C1328 C1322 1.379 . S
C1328 C1325 1.363 . S
C1328 N1326 1.356 . S
C1329 C1323 1.363 . S
C1329 C1324 1.379 . S
C1329 N1327 1.356 . S
N1330 C1322 1.356 . S
N1330 H1336 0.984 . S
N1330 H1337 0.984 . S
N1331 C1324 1.356 . S
N1331 H1334 0.984 . S
N1331 H1335 0.985 . S
H1332 N1327 0.984 . S
H1333 N1327 0.985 . S
H1334 N1331 0.984 . S
H1335 N1331 0.985 . S
H1336 N1330 0.984 . S
H1337 N1330 0.984 . S
H1338 N1326 0.984 . S
H1339 N1326 0.985 . S
C1340 C1341 1.363 . S
C1340 C1346 1.379 . S
C1340 N1348 1.356 . S
C1341 C1340 1.363 . S
C1341 C1347 1.363 . S
C1342 C1343 1.363 . S
C1342 C1347 1.379 . S
C1342 N1349 1.356 . S
C1343 C1342 1.363 . S
C1343 C1346 1.363 . S
N1344 C1346 1.356 . S
N1344 H1356 0.984 . S
N1344 H1357 0.985 . S
N1345 C1347 1.356 . S
N1345 H1350 0.984 . S
N1345 H1351 0.985 . S
C1346 C1340 1.379 . S
C1346 C1343 1.363 . S
C1346 N1344 1.356 . S
C1347 C1341 1.363 . S
C1347 C1342 1.379 . S
C1347 N1345 1.356 . S
N1348 C1340 1.356 . S
N1348 H1354 0.984 . S
N1348 H1355 0.984 . S
N1349 C1342 1.356 . S
N1349 H1352 0.984 . S
N1349 H1353 0.985 . S
H1350 N1345 0.984 . S
H1351 N1345 0.985 . S
H1352 N1349 0.984 . S
H1353 N1349 0.985 . S
H1354 N1348 0.984 . S
H1355 N1348 0.984 . S
H1356 N1344 0.984 . S
H1357 N1344 0.985 . S
C1358 C1359 1.363 . S
C1358 C1364 1.379 . S
C1358 N1366 1.356 . S
C1359 C1358 1.363 . S
C1359 C1365 1.363 . S
C1360 C1361 1.363 . S
C1360 C1365 1.379 . S
C1360 N1367 1.356 . S
C1361 C1360 1.363 . S
C1361 C1364 1.363 . S
N1362 C1364 1.356 . S
N1362 H1374 0.984 . S
N1362 H1375 0.985 . S
N1363 C1365 1.356 . S
N1363 H1368 0.984 . S
N1363 H1369 0.985 . S
C1364 C1358 1.379 . S
C1364 C1361 1.363 . S
C1364 N1362 1.356 . S
C1365 C1359 1.363 . S
C1365 C1360 1.379 . S
C1365 N1363 1.356 . S
N1366 C1358 1.356 . S
N1366 H1372 0.984 . S
N1366 H1373 0.984 . S
N1367 C1360 1.356 . S
N1367 H1370 0.984 . S
N1367 H1371 0.985 . S
H1368 N1363 0.984 . S
H1369 N1363 0.985 . S
H1370 N1367 0.984 . S
H1371 N1367 0.985 . S
H1372 N1366 0.984 . S
H1373 N1366 0.984 . S
H1374 N1362 0.984 . S
H1375 N1362 0.985 . S
C1376 C1377 1.363 1_455 S
C1376 C1382 1.379 1_565 S
C1376 N1384 1.356 . S
C1377 C1376 1.363 1_655 S
C1377 C1383 1.363 . S
C1378 C1379 1.363 1_655 S
C1378 C1383 1.379 1_545 S
C1378 N1385 1.356 . S
C1379 C1378 1.363 1_455 S
C1379 C1382 1.363 . S
N1380 C1382 1.356 . S
N1380 H1392 0.984 . S
N1380 H1393 0.985 . S
N1381 C1383 1.356 . S
N1381 H1386 0.984 . S
N1381 H1387 0.985 . S
C1382 C1376 1.379 1_545 S
C1382 C1379 1.363 . S
C1382 N1380 1.356 . S
C1383 C1377 1.363 . S
C1383 C1378 1.379 1_565 S
C1383 N1381 1.356 . S
N1384 C1376 1.356 . S
N1384 H1390 0.984 . S
N1384 H1391 0.984 1_455 S
N1385 C1378 1.356 . S
N1385 H1388 0.984 1_655 S
N1385 H1389 0.985 . S
H1386 N1381 0.984 . S
H1387 N1381 0.985 . S
H1388 N1385 0.984 1_455 S
H1389 N1385 0.985 . S
H1390 N1384 0.984 . S
H1391 N1384 0.984 1_655 S
H1392 N1380 0.984 . S
H1393 N1380 0.985 . S
C1394 C1395 1.363 . S
C1394 C1400 1.379 1_655 S
C1394 N1402 1.356 . S
C1395 C1394 1.363 . S
C1395 C1401 1.363 1_545 S
C1396 C1397 1.363 . S
C1396 C1401 1.379 1_455 S
C1396 N1403 1.356 . S
C1397 C1396 1.363 . S
C1397 C1400 1.363 1_565 S
N1398 C1400 1.356 . S
N1398 H1410 0.984 . S
N1398 H1411 0.985 1_545 S
N1399 C1401 1.356 . S
N1399 H1404 0.984 1_565 S
N1399 H1405 0.985 . S
C1400 C1394 1.379 1_455 S
C1400 C1397 1.363 1_545 S
C1400 N1398 1.356 . S
C1401 C1395 1.363 1_565 S
C1401 C1396 1.379 1_655 S
C1401 N1399 1.356 . S
N1402 C1394 1.356 . S
N1402 H1408 0.984 . S
N1402 H1409 0.984 . S
N1403 C1396 1.356 . S
N1403 H1406 0.984 . S
N1403 H1407 0.985 . S
H1404 N1399 0.984 1_545 S
H1405 N1399 0.985 . S
H1406 N1403 0.984 . S
H1407 N1403 0.985 . S
H1408 N1402 0.984 . S
H1409 N1402 0.984 . S
H1410 N1398 0.984 . S
H1411 N1398 0.985 1_565 S
C1412 C1413 1.363 1_655 S
C1412 C1418 1.379 . S
C1412 N1420 1.356 . S
C1413 C1412 1.363 1_455 S
C1413 C1419 1.363 . S
C1414 C1415 1.363 1_455 S
C1414 C1419 1.379 . S
C1414 N1421 1.356 . S
C1415 C1414 1.363 1_655 S
C1415 C1418 1.363 . S
N1416 C1418 1.356 . S
N1416 H1428 0.984 1_556 S
N1416 H1429 0.985 . S
N1417 C1419 1.356 . S
N1417 H1422 0.984 . S
N1417 H1423 0.985 . S
C1418 C1412 1.379 . S
C1418 C1415 1.363 . S
C1418 N1416 1.356 . S
C1419 C1413 1.363 . S
C1419 C1414 1.379 . S
C1419 N1417 1.356 . S
N1420 C1412 1.356 . S
N1420 H1426 0.984 1_556 S
N1420 H1427 0.984 1_655 S
N1421 C1414 1.356 . S
N1421 H1424 0.984 1_455 S
N1421 H1425 0.985 . S
H1422 N1417 0.984 . S
H1423 N1417 0.985 . S
H1424 N1421 0.984 1_655 S
H1425 N1421 0.985 . S
H1426 N1420 0.984 1_554 S
H1427 N1420 0.984 1_455 S
H1428 N1416 0.984 1_554 S
H1429 N1416 0.985 . S
C1430 C1431 1.363 1_545 S
C1430 C1436 1.379 . S
C1430 N1438 1.356 . S
C1431 C1430 1.363 1_565 S
C1431 C1437 1.363 . S
C1432 C1433 1.363 1_565 S
C1432 C1437 1.379 . S
C1432 N1439 1.356 . S
C1433 C1432 1.363 1_545 S
C1433 C1436 1.363 . S
N1434 C1436 1.356 . S
N1434 H1446 0.984 . S
N1434 H1447 0.985 . S
N1435 C1437 1.356 . S
N1435 H1440 0.984 . S
N1435 H1441 0.985 1_554 S
C1436 C1430 1.379 . S
C1436 C1433 1.363 . S
C1436 N1434 1.356 . S
C1437 C1431 1.363 . S
C1437 C1432 1.379 . S
C1437 N1435 1.356 . S
N1438 C1430 1.356 . S
N1438 H1444 0.984 . S
N1438 H1445 0.984 1_545 S
N1439 C1432 1.356 . S
N1439 H1442 0.984 1_565 S
N1439 H1443 0.985 1_554 S
H1440 N1435 0.984 . S
H1441 N1435 0.985 1_556 S
H1442 N1439 0.984 1_545 S
H1443 N1439 0.985 1_556 S
H1444 N1438 0.984 . S
H1445 N1438 0.984 1_565 S
H1446 N1434 0.984 . S
H1447 N1434 0.985 . S
C1448 C1449 1.363 . S
C1448 C1454 1.379 . S
C1448 N1456 1.356 . S
C1449 C1448 1.363 . S
C1449 C1455 1.363 . S
C1450 C1451 1.363 . S
C1450 C1455 1.379 . S
C1450 N1457 1.356 . S
C1451 C1450 1.363 . S
C1451 C1454 1.363 . S
N1452 C1454 1.356 . S
N1452 H1464 0.984 . S
N1452 H1465 0.985 . S
N1453 C1455 1.356 . S
N1453 H1458 0.984 . S
N1453 H1459 0.985 . S
C1454 C1448 1.379 . S
C1454 C1451 1.363 . S
C1454 N1452 1.356 . S
C1455 C1449 1.363 . S
C1455 C1450 1.379 . S
C1455 N1453 1.356 . S
N1456 C1448 1.356 . S
N1456 H1462 0.984 . S
N1456 H1463 0.984 . S
N1457 C1450 1.356 . S
N1457 H1460 0.984 . S
N1457 H1461 0.985 . S
H1458 N1453 0.984 . S
H1459 N1453 0.985 . S
H1460 N1457 0.984 . S
H1461 N1457 0.985 . S
H1462 N1456 0.984 . S
H1463 N1456 0.984 . S
H1464 N1452 0.984 . S
H1465 N1452 0.985 . S
C1466 C1467 1.363 . S
C1466 C1472 1.379 . S
C1466 N1474 1.356 . S
C1467 C1466 1.363 . S
C1467 C1473 1.363 . S
C1468 C1469 1.363 . S
C1468 C1473 1.379 . S
C1468 N1475 1.356 . S
C1469 C1468 1.363 . S
C1469 C1472 1.363 . S
N1470 C1472 1.356 . S
N1470 H1482 0.984 . S
N1470 H1483 0.985 . S
N1471 C1473 1.356 . S
N1471 H1476 0.984 . S
N1471 H1477 0.985 . S
C1472 C1466 1.379 . S
C1472 C1469 1.363 . S
C1472 N1470 1.356 . S
C1473 C1467 1.363 . S
C1473 C1468 1.379 . S
C1473 N1471 1.356 . S
N1474 C1466 1.356 . S
N1474 H1480 0.984 . S
N1474 H1481 0.984 . S
N1475 C1468 1.356 . S
N1475 H1478 0.984 . S
N1475 H1479 0.985 . S
H1476 N1471 0.984 . S
H1477 N1471 0.985 . S
H1478 N1475 0.984 . S
H1479 N1475 0.985 . S
H1480 N1474 0.984 . S
H1481 N1474 0.984 . S
H1482 N1470 0.984 . S
H1483 N1470 0.985 . S
C1484 C1485 1.363 . S
C1484 C1490 1.379 1_545 S
C1484 N1492 1.356 . S
C1485 C1484 1.363 . S
C1485 C1491 1.363 . S
C1486 C1487 1.363 . S
C1486 C1491 1.379 1_565 S
C1486 N1493 1.356 . S
C1487 C1486 1.363 . S
C1487 C1490 1.363 . S
N1488 C1490 1.356 . S
N1488 H1500 0.984 . S
N1488 H1501 0.985 . S
N1489 C1491 1.356 . S
N1489 H1494 0.984 . S
N1489 H1495 0.985 . S
C1490 C1484 1.379 1_565 S
C1490 C1487 1.363 . S
C1490 N1488 1.356 . S
C1491 C1485 1.363 . S
C1491 C1486 1.379 1_545 S
C1491 N1489 1.356 . S
N1492 C1484 1.356 . S
N1492 H1498 0.984 . S
N1492 H1499 0.984 . S
N1493 C1486 1.356 . S
N1493 H1496 0.984 . S
N1493 H1497 0.985 . S
H1494 N1489 0.984 . S
H1495 N1489 0.985 . S
H1496 N1493 0.984 . S
H1497 N1493 0.985 . S
H1498 N1492 0.984 . S
H1499 N1492 0.984 . S
H1500 N1488 0.984 . S
H1501 N1488 0.985 . S
C1502 C1503 1.363 . S
C1502 C1508 1.379 1_655 S
C1502 N1510 1.356 . S
C1503 C1502 1.363 . S
C1503 C1509 1.363 . S
C1504 C1505 1.363 . S
C1504 C1509 1.379 1_455 S
C1504 N1511 1.356 . S
C1505 C1504 1.363 . S
C1505 C1508 1.363 . S
N1506 C1508 1.356 . S
N1506 H1518 0.984 . S
N1506 H1519 0.985 . S
N1507 C1509 1.356 . S
N1507 H1512 0.984 . S
N1507 H1513 0.985 . S
C1508 C1502 1.379 1_455 S
C1508 C1505 1.363 . S
C1508 N1506 1.356 . S
C1509 C1503 1.363 . S
C1509 C1504 1.379 1_655 S
C1509 N1507 1.356 . S
N1510 C1502 1.356 . S
N1510 H1516 0.984 . S
N1510 H1517 0.984 . S
N1511 C1504 1.356 . S
N1511 H1514 0.984 . S
N1511 H1515 0.985 . S
H1512 N1507 0.984 . S
H1513 N1507 0.985 . S
H1514 N1511 0.984 . S
H1515 N1511 0.985 . S
H1516 N1510 0.984 . S
H1517 N1510 0.984 . S
H1518 N1506 0.984 . S
H1519 N1506 0.985 . S
C945 C33 1.364 . S
C947 C701 1.373 . S
C963 C524 1.374 . S
C965 C92 1.364 . S
C981 C583 1.374 . S
C983 C151 1.364 . S
C999 C642 1.374 . S
C1001 C210 1.364 . S
C1017 C347 1.374 . S
C1019 C269 1.364 . S
C1035 C328 1.364 . S
C1037 C406 1.374 . S
C1053 C387 1.364 . S
C1055 C465 1.374 . S
C1071 C446 1.364 . S
C1073 C288 1.373 . S
C1089 C505 1.364 . S
C1091 C229 1.373 . S
C1107 C52 1.374 . S
C1109 C564 1.364 . S
C1125 C111 1.374 . S
C1127 C623 1.364 . S
C1143 C170 1.374 . S
C1145 C682 1.364 . S
C1161 C819 1.374 . S
C1163 C741 1.364 . S
C1179 C800 1.364 . S
C1181 C878 1.374 . S
C1197 C937 1.374 . S
C1199 C859 1.364 . S
C1215 C760 1.373 . S
C1217 C918 1.364 . S
C1233 C831 1.512 . S
C1235 C5 1.512 . S
C1251 C890 1.512 . S
C1253 C64 1.512 . S
C1269 C713 1.512 . S
C1271 C123 1.512 . S
C1287 C182 1.512 . S
C1289 C772 1.512 . S
C1305 C241 1.512 . S
C1307 C595 1.512 . S
C1323 C654 1.512 . S
C1325 C300 1.512 . S
C1341 C359 1.512 . S
C1343 C477 1.512 . S
C1359 C418 1.512 . S
C1361 C536 1.512 . S
C1377 C121 1.413 . S
C1379 C3 1.413 . S
C1395 C180 1.413 . S
C1397 C62 1.413 . S
C1413 C239 1.413 . S
C1415 C357 1.413 . S
C1431 C298 1.413 . S
C1433 C416 1.413 . S
C1449 C593 1.413 . S
C1451 C475 1.413 . S
C1467 C534 1.413 . S
C1469 C652 1.413 . S
C1485 C829 1.413 . S
C1487 C711 1.413 . S
C1503 C770 1.413 . S
C1505 C888 1.413 . S
