# Generated by pormake.
# Topology neb, (4)-cn, num edge types: 1
# Building blocks:
#     Node 0, Type 0, BuildingBlock: KUFVIS_clean_sbu_0, # of connection points: 4
#     Node 1, Type 0, BuildingBlock: KUFVIS_clean_sbu_0, # of connection points: 4
#     Node 2, Type 0, BuildingBlock: KUFVIS_clean_sbu_0, # of connection points: 4
#     Node 3, Type 0, BuildingBlock: KUFVIS_clean_sbu_0, # of connection points: 4
#     Node 4, Type 0, BuildingBlock: KUFVIS_clean_sbu_0, # of connection points: 4
#     Node 5, Type 0, BuildingBlock: KUFVIS_clean_sbu_0, # of connection points: 4
#     Node 6, Type 0, BuildingBlock: KUFVIS_clean_sbu_0, # of connection points: 4
#     Node 7, Type 0, BuildingBlock: KUFVIS_clean_sbu_0, # of connection points: 4
#     Node 8, Type 0, BuildingBlock: KUFVIS_clean_sbu_0, # of connection points: 4
#     Node 9, Type 0, BuildingBlock: KUFVIS_clean_sbu_0, # of connection points: 4
#     Node 10, Type 0, BuildingBlock: KUFVIS_clean_sbu_0, # of connection points: 4
#     Node 11, Type 0, BuildingBlock: KUFVIS_clean_sbu_0, # of connection points: 4
#     Node 12, Type 0, BuildingBlock: KUFVIS_clean_sbu_0, # of connection points: 4
#     Node 13, Type 0, BuildingBlock: KUFVIS_clean_sbu_0, # of connection points: 4
#     Node 14, Type 0, BuildingBlock: KUFVIS_clean_sbu_0, # of connection points: 4
#     Node 15, Type 0, BuildingBlock: KUFVIS_clean_sbu_0, # of connection points: 4
#     Edge 16, Type (0, 0), BuildingBlock: UVAHIK_clean_linker_0, # of connection points: 2
#     Edge 17, Type (0, 0), BuildingBlock: UVAHIK_clean_linker_0, # of connection points: 2
#     Edge 18, Type (0, 0), BuildingBlock: UVAHIK_clean_linker_0, # of connection points: 2
#     Edge 19, Type (0, 0), BuildingBlock: UVAHIK_clean_linker_0, # of connection points: 2
#     Edge 20, Type (0, 0), BuildingBlock: UVAHIK_clean_linker_0, # of connection points: 2
#     Edge 21, Type (0, 0), BuildingBlock: UVAHIK_clean_linker_0, # of connection points: 2
#     Edge 22, Type (0, 0), BuildingBlock: UVAHIK_clean_linker_0, # of connection points: 2
#     Edge 23, Type (0, 0), BuildingBlock: UVAHIK_clean_linker_0, # of connection points: 2
#     Edge 24, Type (0, 0), BuildingBlock: UVAHIK_clean_linker_0, # of connection points: 2
#     Edge 25, Type (0, 0), BuildingBlock: UVAHIK_clean_linker_0, # of connection points: 2
#     Edge 26, Type (0, 0), BuildingBlock: UVAHIK_clean_linker_0, # of connection points: 2
#     Edge 27, Type (0, 0), BuildingBlock: UVAHIK_clean_linker_0, # of connection points: 2
#     Edge 28, Type (0, 0), BuildingBlock: UVAHIK_clean_linker_0, # of connection points: 2
#     Edge 29, Type (0, 0), BuildingBlock: UVAHIK_clean_linker_0, # of connection points: 2
#     Edge 30, Type (0, 0), BuildingBlock: UVAHIK_clean_linker_0, # of connection points: 2
#     Edge 31, Type (0, 0), BuildingBlock: UVAHIK_clean_linker_0, # of connection points: 2
#     Edge 32, Type (0, 0), BuildingBlock: UVAHIK_clean_linker_0, # of connection points: 2
#     Edge 33, Type (0, 0), BuildingBlock: UVAHIK_clean_linker_0, # of connection points: 2
#     Edge 34, Type (0, 0), BuildingBlock: UVAHIK_clean_linker_0, # of connection points: 2
#     Edge 35, Type (0, 0), BuildingBlock: UVAHIK_clean_linker_0, # of connection points: 2
#     Edge 36, Type (0, 0), BuildingBlock: UVAHIK_clean_linker_0, # of connection points: 2
#     Edge 37, Type (0, 0), BuildingBlock: UVAHIK_clean_linker_0, # of connection points: 2
#     Edge 38, Type (0, 0), BuildingBlock: UVAHIK_clean_linker_0, # of connection points: 2
#     Edge 39, Type (0, 0), BuildingBlock: UVAHIK_clean_linker_0, # of connection points: 2
#     Edge 40, Type (0, 0), BuildingBlock: UVAHIK_clean_linker_0, # of connection points: 2
#     Edge 41, Type (0, 0), BuildingBlock: UVAHIK_clean_linker_0, # of connection points: 2
#     Edge 42, Type (0, 0), BuildingBlock: UVAHIK_clean_linker_0, # of connection points: 2
#     Edge 43, Type (0, 0), BuildingBlock: UVAHIK_clean_linker_0, # of connection points: 2
#     Edge 44, Type (0, 0), BuildingBlock: UVAHIK_clean_linker_0, # of connection points: 2
#     Edge 45, Type (0, 0), BuildingBlock: UVAHIK_clean_linker_0, # of connection points: 2
#     Edge 46, Type (0, 0), BuildingBlock: UVAHIK_clean_linker_0, # of connection points: 2
#     Edge 47, Type (0, 0), BuildingBlock: UVAHIK_clean_linker_0, # of connection points: 2
# Relax obj value: 0.013
# Max RMSD: 0.060
# Mean RMSD: 0.060
data_MOF--net-neb--node1-KUFVIS_clean_sbu_0--edge1-UVAHIK_clean_linker_0
_symmetry_space_group_name_H-M    P1
_symmetry_Int_Tables_number       1
_symmetry_cell_setting            triclinic
loop_
_symmetry_equiv_pos_as_xyz
'x, y, z'
_cell_length_a     54.536663
_cell_length_b     29.140295
_cell_length_c     98.274716
_cell_angle_alpha  93.813163
_cell_angle_beta   89.963131
_cell_angle_gamma 90.0221
loop_
_atom_site_label
_atom_site_type_symbol
_atom_site_fract_x
_atom_site_fract_y
_atom_site_fract_z
_atom_type_partial_charge
Mn0 Mn 0.11444 0.12579 0.43992 0.0
Mn1 Mn 0.16449 0.10967 0.41997 0.0
C2 C 0.11319 0.07399 0.42118 0.0
C3 C 0.09156 0.10485 0.45864 0.0
C4 C 0.1311 0.19296 0.41924 0.0
O5 O 0.14195 0.15439 0.45175 0.0
O6 O 0.1745 0.1359 0.43831 0.0
C7 C 0.18906 0.03665 0.43446 0.0
N8 N 0.17919 0.05158 0.42282 0.0
C9 C 0.18909 0.98026 0.41027 0.0
C10 C 0.19951 0.96422 0.4221 0.0
C11 C 0.19945 0.99252 0.43425 0.0
C12 C 0.17915 0.02466 0.41107 0.0
H13 H 0.18897 0.05824 0.44383 0.0
C14 C 0.16504 0.15317 0.44945 0.0
O15 O 0.08863 0.14478 0.45369 0.0
O16 O 0.10852 0.07858 0.45317 0.0
N17 N 0.15736 0.08401 0.40196 0.0
C18 C 0.14523 0.10353 0.39169 0.0
C19 C 0.1429 0.07906 0.37896 0.0
C20 C 0.15319 0.03496 0.37688 0.0
C21 C 0.1658 0.01578 0.38756 0.0
C22 C 0.16769 0.04193 0.4 0.0
H23 H 0.13726 0.13738 0.39322 0.0
O24 O 0.09304 0.09063 0.42646 0.0
O25 O 0.13342 0.08788 0.42709 0.0
O26 O 0.11509 0.18066 0.42777 0.0
O27 O 0.15036 0.16968 0.41608 0.0
C28 C 0.17607 0.97132 0.38644 0.0
C29 C 0.1877 0.95357 0.39779 0.0
H30 H 0.2074 0.93009 0.422 0.0
H31 H 0.20735 0.98028 0.44344 0.0
H32 H 0.13311 0.09406 0.37077 0.0
H33 H 0.15111 0.01598 0.36709 0.0
H34 H 0.17477 0.9502 0.37697 0.0
H35 H 0.19519 0.91908 0.39687 0.0
Mn36 Mn 0.11671 0.12741 0.80895 0.0
Mn37 Mn 0.16682 0.14809 0.82855 0.0
C38 C 0.11513 0.18163 0.82709 0.0
C39 C 0.09343 0.14526 0.79006 0.0
C40 C 0.13393 0.06458 0.83074 0.0
O41 O 0.14426 0.09793 0.79735 0.0
O42 O 0.17672 0.11869 0.81056 0.0
C43 C 0.19067 0.21845 0.81265 0.0
N44 N 0.18116 0.20558 0.82463 0.0
C45 C 0.19102 0.27898 0.83599 0.0
C46 C 0.20108 0.29293 0.82379 0.0
C47 C 0.20085 0.26256 0.81207 0.0
C48 C 0.18126 0.23453 0.83597 0.0
H49 H 0.19046 0.19525 0.80361 0.0
C50 C 0.16733 0.09971 0.79962 0.0
O51 O 0.09083 0.10603 0.79549 0.0
O52 O 0.11035 0.17244 0.79513 0.0
N53 N 0.15998 0.17683 0.84623 0.0
C54 C 0.14836 0.15898 0.85697 0.0
C55 C 0.14634 0.18554 0.86938 0.0
C56 C 0.15645 0.22996 0.87066 0.0
C57 C 0.1686 0.24736 0.85953 0.0
C58 C 0.17019 0.21918 0.84744 0.0
H59 H 0.14054 0.12487 0.85606 0.0
O60 O 0.09512 0.16361 0.82204 0.0
O61 O 0.13548 0.1678 0.82127 0.0
O62 O 0.11796 0.07453 0.82187 0.0
O63 O 0.15294 0.08908 0.83353 0.0
C64 C 0.1787 0.29193 0.85985 0.0
C65 C 0.18988 0.30775 0.84808 0.0
H66 H 0.20882 0.32701 0.82327 0.0
H67 H 0.20847 0.27316 0.8026 0.0
H68 H 0.13692 0.17188 0.87793 0.0
H69 H 0.15463 0.25052 0.8802 0.0
H70 H 0.17762 0.31459 0.86903 0.0
H71 H 0.19725 0.34232 0.8484 0.0
Mn72 Mn 0.88911 0.87057 0.55945 0.0
Mn73 Mn 0.83958 0.88849 0.57972 0.0
C74 C 0.89114 0.92264 0.5781 0.0
C75 C 0.91172 0.89057 0.54054 0.0
C76 C 0.87242 0.80441 0.58043 0.0
O77 O 0.86117 0.84244 0.54788 0.0
O78 O 0.82903 0.86194 0.56151 0.0
C79 C 0.81526 0.96164 0.56517 0.0
N80 N 0.82523 0.94682 0.5768 0.0
C81 C 0.81603 0.01873 0.58922 0.0
C82 C 0.80552 0.03466 0.5774 0.0
C83 C 0.80519 0.00601 0.56532 0.0
C84 C 0.82565 0.97408 0.58848 0.0
H85 H 0.81505 0.93978 0.55585 0.0
C86 C 0.83815 0.8442 0.55034 0.0
O87 O 0.91449 0.85067 0.54554 0.0
O88 O 0.89505 0.91734 0.54609 0.0
N89 N 0.84719 0.9145 0.59763 0.0
C90 C 0.85932 0.89497 0.6079 0.0
C91 C 0.86201 0.91974 0.62057 0.0
C92 C 0.85206 0.96413 0.62258 0.0
C93 C 0.83943 0.98331 0.61191 0.0
C94 C 0.83717 0.95687 0.59954 0.0
H95 H 0.86704 0.86089 0.60641 0.0
O96 O 0.91105 0.90537 0.57269 0.0
O97 O 0.87067 0.90925 0.57235 0.0
O98 O 0.8883 0.81602 0.57172 0.0
O99 O 0.8534 0.82831 0.58369 0.0
C100 C 0.82947 0.02803 0.61296 0.0
C101 C 0.8178 0.04573 0.60162 0.0
H102 H 0.79787 0.06897 0.57744 0.0
H103 H 0.79723 0.01816 0.55613 0.0
H104 H 0.87181 0.90473 0.62875 0.0
H105 H 0.8544 0.98332 0.63231 0.0
H106 H 0.83106 0.04937 0.62238 0.0
H107 H 0.81056 0.08041 0.6025 0.0
Mn108 Mn 0.88878 0.87331 0.19086 0.0
Mn109 Mn 0.83795 0.86047 0.17138 0.0
C110 C 0.88876 0.82204 0.17193 0.0
C111 C 0.91217 0.85121 0.20921 0.0
C112 C 0.87302 0.94095 0.17002 0.0
O113 O 0.86222 0.90314 0.20315 0.0
O114 O 0.82939 0.88899 0.18964 0.0
C115 C 0.81206 0.79147 0.18688 0.0
N116 N 0.82161 0.80454 0.17493 0.0
C117 C 0.80689 0.73562 0.16278 0.0
C118 C 0.79677 0.7215 0.17494 0.0
C119 C 0.79947 0.74945 0.18705 0.0
C120 C 0.81932 0.77773 0.16325 0.0
H121 H 0.81398 0.81299 0.1962 0.0
C122 C 0.83919 0.90466 0.20084 0.0
O123 O 0.91531 0.89107 0.20425 0.0
O124 O 0.89472 0.82562 0.20396 0.0
N125 N 0.84324 0.83283 0.15341 0.0
C126 C 0.85549 0.84997 0.14278 0.0
C127 C 0.85548 0.82519 0.13002 0.0
C128 C 0.84251 0.78354 0.12827 0.0
C129 C 0.82979 0.76689 0.13933 0.0
C130 C 0.83064 0.79287 0.15182 0.0
H131 H 0.86528 0.88219 0.14404 0.0
O132 O 0.90922 0.8377 0.17708 0.0
O133 O 0.86881 0.83627 0.17813 0.0
O134 O 0.88851 0.92851 0.17881 0.0
O135 O 0.85357 0.91838 0.16679 0.0
C136 C 0.81654 0.72528 0.13849 0.0
C137 C 0.80529 0.70943 0.15023 0.0
H138 H 0.78702 0.68915 0.17511 0.0
H139 H 0.79179 0.73872 0.19649 0.0
H140 H 0.86535 0.83825 0.12154 0.0
H141 H 0.84257 0.7645 0.11842 0.0
H142 H 0.81513 0.70487 0.1289 0.0
H143 H 0.79558 0.67693 0.14951 0.0
Mn144 Mn 0.11532 0.6294 0.94034 0.0
Mn145 Mn 0.16484 0.61369 0.91994 0.0
C146 C 0.11364 0.57793 0.92153 0.0
C147 C 0.09289 0.60802 0.95918 0.0
C148 C 0.13134 0.69695 0.9196 0.0
O149 O 0.14314 0.65776 0.95199 0.0
O150 O 0.1753 0.63979 0.93821 0.0
C151 C 0.18991 0.54062 0.93417 0.0
N152 N 0.1797 0.55562 0.92263 0.0
C153 C 0.18938 0.48444 0.90994 0.0
C154 C 0.20014 0.46833 0.92167 0.0
C155 C 0.20036 0.49652 0.93384 0.0
C156 C 0.17939 0.5288 0.91086 0.0
H157 H 0.19004 0.56213 0.94355 0.0
C158 C 0.16615 0.65674 0.94947 0.0
O159 O 0.08983 0.64807 0.95433 0.0
O160 O 0.10975 0.58189 0.95355 0.0
N161 N 0.15728 0.58817 0.90198 0.0
C162 C 0.14487 0.60777 0.89182 0.0
C163 C 0.14226 0.58341 0.87908 0.0
C164 C 0.15255 0.53935 0.87689 0.0
C165 C 0.16545 0.5201 0.88745 0.0
C166 C 0.16762 0.54613 0.8999 0.0
H167 H 0.13689 0.64159 0.89344 0.0
O168 O 0.0936 0.59447 0.92699 0.0
O169 O 0.134 0.59173 0.9273 0.0
O170 O 0.11562 0.68454 0.92828 0.0
O171 O 0.15052 0.67369 0.91622 0.0
C172 C 0.17576 0.47568 0.88622 0.0
C173 C 0.1877 0.45785 0.89746 0.0
H174 H 0.20808 0.43422 0.92148 0.0
H175 H 0.20852 0.48423 0.94295 0.0
H176 H 0.13224 0.59847 0.87099 0.0
H177 H 0.15026 0.52047 0.8671 0.0
H178 H 0.17425 0.45465 0.87674 0.0
H179 H 0.19522 0.4234 0.89645 0.0
Mn180 Mn 0.11874 0.62361 0.3086 0.0
Mn181 Mn 0.16846 0.64461 0.32848 0.0
C182 C 0.11667 0.67735 0.32684 0.0
C183 C 0.09558 0.64133 0.28967 0.0
C184 C 0.13592 0.56051 0.33033 0.0
O185 O 0.1466 0.59518 0.29702 0.0
O186 O 0.17875 0.61577 0.31049 0.0
C187 C 0.19227 0.71571 0.31284 0.0
N188 N 0.18262 0.70243 0.32474 0.0
C189 C 0.19197 0.7758 0.33627 0.0
C190 C 0.20216 0.79016 0.32416 0.0
C191 C 0.20226 0.76001 0.31239 0.0
C192 C 0.18241 0.73117 0.33613 0.0
H193 H 0.1923 0.69269 0.30376 0.0
C194 C 0.16962 0.59719 0.29943 0.0
O195 O 0.09316 0.60191 0.295 0.0
O196 O 0.11223 0.66885 0.29487 0.0
N197 N 0.16122 0.67289 0.34618 0.0
C198 C 0.14948 0.65466 0.35681 0.0
C199 C 0.14712 0.68097 0.36924 0.0
C200 C 0.15702 0.72554 0.37065 0.0
C201 C 0.16929 0.74334 0.35962 0.0
C202 C 0.17122 0.71541 0.34751 0.0
H203 H 0.14182 0.62044 0.35579 0.0
O204 O 0.09681 0.65903 0.32169 0.0
O205 O 0.13715 0.66404 0.32108 0.0
O206 O 0.12011 0.57037 0.32138 0.0
O207 O 0.15477 0.58526 0.3333 0.0
C208 C 0.17918 0.7881 0.36007 0.0
C209 C 0.19049 0.80433 0.3484 0.0
H210 H 0.20975 0.8244 0.32374 0.0
H211 H 0.20997 0.77094 0.30298 0.0
H212 H 0.1376 0.667 0.37771 0.0
H213 H 0.15493 0.74591 0.38021 0.0
H214 H 0.17784 0.81057 0.36928 0.0
H215 H 0.1977 0.83903 0.34881 0.0
Mn216 Mn 0.88988 0.37219 0.05972 0.0
Mn217 Mn 0.83969 0.38896 0.07949 0.0
C218 C 0.89071 0.42521 0.07826 0.0
C219 C 0.91296 0.39261 0.041 0.0
C220 C 0.87339 0.30631 0.08082 0.0
O221 O 0.86252 0.34271 0.04789 0.0
O222 O 0.83 0.36148 0.0613 0.0
C223 C 0.81471 0.46035 0.06452 0.0
N224 N 0.82459 0.44635 0.07627 0.0
C225 C 0.81275 0.51686 0.08867 0.0
C226 C 0.80234 0.53198 0.07671 0.0
C227 C 0.80341 0.50367 0.06458 0.0
C228 C 0.82384 0.47345 0.08798 0.0
H229 H 0.81541 0.43858 0.0552 0.0
C230 C 0.83943 0.34386 0.05021 0.0
O231 O 0.91597 0.35299 0.04613 0.0
O232 O 0.89579 0.41878 0.04628 0.0
N233 N 0.84648 0.4158 0.09739 0.0
C234 C 0.8587 0.3973 0.10781 0.0
C235 C 0.86014 0.42203 0.12054 0.0
C236 C 0.84873 0.46517 0.12249 0.0
C237 C 0.83604 0.48326 0.11166 0.0
C238 C 0.83533 0.45717 0.09918 0.0
H239 H 0.86736 0.364 0.1064 0.0
O240 O 0.91097 0.40845 0.07315 0.0
O241 O 0.87064 0.41074 0.07232 0.0
O242 O 0.88935 0.31794 0.07216 0.0
O243 O 0.85413 0.32979 0.08379 0.0
C244 C 0.82427 0.52636 0.11271 0.0
C245 C 0.81278 0.54331 0.1012 0.0
H246 H 0.7936 0.56536 0.07671 0.0
H247 H 0.79549 0.51517 0.0553 0.0
H248 H 0.86998 0.40782 0.12885 0.0
H249 H 0.84992 0.48419 0.13232 0.0
H250 H 0.82432 0.54713 0.12227 0.0
H251 H 0.80422 0.57691 0.10208 0.0
Mn252 Mn 0.88705 0.37229 0.69073 0.0
Mn253 Mn 0.83771 0.35039 0.67062 0.0
C254 C 0.88962 0.31848 0.67253 0.0
C255 C 0.90991 0.35479 0.70981 0.0
C256 C 0.86984 0.43517 0.66898 0.0
O257 O 0.85887 0.40059 0.7021 0.0
O258 O 0.82698 0.37881 0.68858 0.0
C259 C 0.81408 0.27855 0.68605 0.0
N260 N 0.82383 0.29221 0.67421 0.0
C261 C 0.81503 0.21882 0.66254 0.0
C262 C 0.80475 0.20406 0.67458 0.0
C263 C 0.80432 0.23404 0.68639 0.0
C264 C 0.82436 0.26365 0.6628 0.0
H265 H 0.81379 0.30145 0.69515 0.0
C266 C 0.83588 0.39795 0.69962 0.0
O267 O 0.91234 0.39423 0.70448 0.0
O268 O 0.89339 0.32716 0.70453 0.0
N269 N 0.84541 0.3225 0.65294 0.0
C270 C 0.85722 0.34112 0.64239 0.0
C271 C 0.8599 0.31506 0.62994 0.0
C272 C 0.85024 0.27032 0.62842 0.0
C273 C 0.83791 0.25209 0.63936 0.0
C274 C 0.83565 0.2798 0.6515 0.0
H275 H 0.86469 0.37548 0.6435 0.0
O276 O 0.90933 0.33703 0.67779 0.0
O277 O 0.869 0.33159 0.67817 0.0
O278 O 0.88572 0.42541 0.67791 0.0
O279 O 0.85112 0.41014 0.66596 0.0
C280 C 0.82825 0.20715 0.63879 0.0
C281 C 0.81685 0.19051 0.65038 0.0
H282 H 0.79733 0.16967 0.67492 0.0
H283 H 0.79653 0.22281 0.69574 0.0
H284 H 0.86947 0.32935 0.62155 0.0
H285 H 0.85257 0.25015 0.61884 0.0
H286 H 0.82985 0.18483 0.62957 0.0
H287 H 0.80982 0.15566 0.64989 0.0
Mn288 Mn 0.61758 0.12197 0.94075 0.0
Mn289 Mn 0.66818 0.10373 0.92133 0.0
C290 C 0.61713 0.0671 0.92268 0.0
C291 C 0.59402 0.10389 0.95953 0.0
C292 C 0.63372 0.1844 0.91855 0.0
O293 O 0.64445 0.15322 0.95251 0.0
O294 O 0.67703 0.13566 0.93908 0.0
C295 C 0.69365 0.03773 0.93808 0.0
N296 N 0.68413 0.04849 0.92588 0.0
C297 C 0.69849 0.9773 0.91489 0.0
C298 C 0.70856 0.96551 0.92732 0.0
C299 C 0.70601 0.99577 0.93897 0.0
C300 C 0.68624 0.01943 0.91465 0.0
H301 H 0.69187 0.06105 0.94703 0.0
C302 C 0.66747 0.1537 0.95008 0.0
O303 O 0.59115 0.14273 0.95393 0.0
O304 O 0.61134 0.07718 0.95468 0.0
N305 N 0.66263 0.07267 0.90384 0.0
C306 C 0.65055 0.0879 0.89287 0.0
C307 C 0.65047 0.06077 0.88051 0.0
C308 C 0.66322 0.01879 0.87948 0.0
C309 C 0.6758 0.00416 0.89086 0.0
C310 C 0.675 0.0324 0.90294 0.0
H311 H 0.64097 0.1204 0.89357 0.0
O312 O 0.59681 0.08435 0.92758 0.0
O313 O 0.63719 0.08195 0.92861 0.0
O314 O 0.61826 0.17456 0.9277 0.0
O315 O 0.65289 0.16053 0.91569 0.0
C316 C 0.68891 0.96248 0.89072 0.0
C317 C 0.70003 0.94882 0.90276 0.0
H318 H 0.71817 0.93324 0.92804 0.0
H319 H 0.71366 0.98686 0.94861 0.0
H320 H 0.64073 0.07231 0.87178 0.0
H321 H 0.66313 0.99796 0.86993 0.0
H322 H 0.69027 0.94034 0.88145 0.0
H323 H 0.70962 0.91624 0.90259 0.0
Mn324 Mn 0.61709 0.12326 0.31002 0.0
Mn325 Mn 0.6664 0.14608 0.33008 0.0
C326 C 0.61448 0.17786 0.32801 0.0
C327 C 0.5943 0.13978 0.29083 0.0
C328 C 0.63424 0.06152 0.33208 0.0
O329 O 0.64527 0.09451 0.29877 0.0
O330 O 0.67715 0.11675 0.31224 0.0
C331 C 0.69005 0.21701 0.31431 0.0
N332 N 0.68031 0.20399 0.32622 0.0
C333 C 0.68919 0.27785 0.33757 0.0
C334 C 0.69946 0.29196 0.32544 0.0
C335 C 0.69984 0.26144 0.31376 0.0
C336 C 0.67982 0.2331 0.33752 0.0
H337 H 0.6903 0.19369 0.30529 0.0
C338 C 0.66825 0.0972 0.30125 0.0
O339 O 0.59184 0.10065 0.29634 0.0
O340 O 0.61079 0.16766 0.29603 0.0
N341 N 0.65873 0.17487 0.34765 0.0
C342 C 0.64693 0.15682 0.3583 0.0
C343 C 0.64432 0.18347 0.37065 0.0
C344 C 0.65403 0.22819 0.37198 0.0
C345 C 0.66635 0.24583 0.36094 0.0
C346 C 0.66854 0.21755 0.3489 0.0
H347 H 0.63944 0.12246 0.35735 0.0
O348 O 0.59478 0.15907 0.32281 0.0
O349 O 0.63512 0.16452 0.32243 0.0
O350 O 0.61841 0.0708 0.32307 0.0
O351 O 0.65295 0.08668 0.33501 0.0
C352 C 0.67605 0.29072 0.3613 0.0
C353 C 0.68743 0.30674 0.34962 0.0
H354 H 0.7069 0.32628 0.32496 0.0
H355 H 0.70762 0.27216 0.30435 0.0
H356 H 0.63477 0.16963 0.37912 0.0
H357 H 0.65176 0.24881 0.38148 0.0
H358 H 0.6745 0.31346 0.37044 0.0
H359 H 0.69449 0.34155 0.34996 0.0
Mn360 Mn 0.38858 0.87293 0.0594 0.0
Mn361 Mn 0.33877 0.88813 0.07963 0.0
C362 C 0.38981 0.92481 0.07812 0.0
C363 C 0.41129 0.89383 0.04062 0.0
C364 C 0.37286 0.806 0.08042 0.0
O365 O 0.36107 0.84371 0.0477 0.0
O366 O 0.32873 0.86094 0.06141 0.0
C367 C 0.31343 0.95982 0.06495 0.0
N368 N 0.32356 0.94564 0.07662 0.0
C369 C 0.31327 0.01715 0.08895 0.0
C370 C 0.30259 0.03242 0.07709 0.0
C371 C 0.30272 0.00366 0.06503 0.0
C372 C 0.32355 0.97304 0.08827 0.0
H373 H 0.31358 0.93787 0.05565 0.0
C374 C 0.33804 0.84405 0.05019 0.0
O375 O 0.41432 0.85402 0.04562 0.0
O376 O 0.39424 0.92 0.04606 0.0
N377 N 0.34585 0.91464 0.09755 0.0
C378 C 0.35807 0.89573 0.10789 0.0
C379 C 0.36024 0.92066 0.12057 0.0
C380 C 0.34968 0.96457 0.1225 0.0
C381 C 0.33695 0.98309 0.11176 0.0
C382 C 0.33522 0.9565 0.09939 0.0
H383 H 0.36625 0.86202 0.10647 0.0
O384 O 0.40997 0.90855 0.07274 0.0
O385 O 0.36955 0.91062 0.0723 0.0
O386 O 0.38841 0.81837 0.07165 0.0
O387 O 0.35348 0.82877 0.0837 0.0
C388 C 0.32635 0.02728 0.11275 0.0
C389 C 0.31455 0.04432 0.10135 0.0
H390 H 0.29443 0.06631 0.07709 0.0
H391 H 0.29462 0.01529 0.05582 0.0
H392 H 0.37012 0.90615 0.12881 0.0
H393 H 0.35162 0.98389 0.13225 0.0
H394 H 0.32752 0.04873 0.12216 0.0
H395 H 0.30679 0.0786 0.10217 0.0
Mn396 Mn 0.38897 0.87693 0.69031 0.0
Mn397 Mn 0.33927 0.85935 0.67018 0.0
C398 C 0.39075 0.82482 0.67165 0.0
C399 C 0.41172 0.85693 0.70915 0.0
C400 C 0.37223 0.94327 0.66942 0.0
O401 O 0.36114 0.90517 0.70197 0.0
O402 O 0.32887 0.88575 0.68844 0.0
C403 C 0.31491 0.78613 0.68472 0.0
N404 N 0.32484 0.80104 0.67308 0.0
C405 C 0.31542 0.72933 0.66061 0.0
C406 C 0.30496 0.71331 0.67244 0.0
C407 C 0.30475 0.7418 0.68455 0.0
C408 C 0.32514 0.77391 0.66137 0.0
H409 H 0.3148 0.80788 0.69406 0.0
C410 C 0.33809 0.90344 0.69959 0.0
O411 O 0.41448 0.8968 0.70413 0.0
O412 O 0.39498 0.83017 0.70367 0.0
N413 N 0.34675 0.83349 0.65223 0.0
C414 C 0.35888 0.85306 0.64196 0.0
C415 C 0.36145 0.82843 0.62926 0.0
C416 C 0.3514 0.78412 0.62723 0.0
C417 C 0.33878 0.76489 0.63791 0.0
C418 C 0.33664 0.79119 0.65031 0.0
H419 H 0.36667 0.88708 0.64347 0.0
O420 O 0.41074 0.84198 0.67699 0.0
O421 O 0.37036 0.83836 0.67746 0.0
O422 O 0.38817 0.93148 0.67805 0.0
O423 O 0.35314 0.91954 0.66623 0.0
C424 C 0.32873 0.72024 0.63683 0.0
C425 C 0.31707 0.70246 0.64817 0.0
H426 H 0.29724 0.67904 0.67237 0.0
H427 H 0.29681 0.72959 0.69373 0.0
H428 H 0.37125 0.84349 0.62108 0.0
H429 H 0.35365 0.76504 0.61747 0.0
H430 H 0.33022 0.699 0.62739 0.0
H431 H 0.30976 0.66783 0.64728 0.0
Mn432 Mn 0.61541 0.62519 0.44117 0.0
Mn433 Mn 0.66504 0.60895 0.4209 0.0
C434 C 0.61363 0.57399 0.42231 0.0
C435 C 0.59274 0.60403 0.45992 0.0
C436 C 0.63189 0.69267 0.42053 0.0
O437 O 0.64321 0.65313 0.45289 0.0
O438 O 0.67546 0.6347 0.43922 0.0
C439 C 0.68964 0.5353 0.4351 0.0
N440 N 0.6796 0.5506 0.42356 0.0
C441 C 0.68899 0.47933 0.41084 0.0
C442 C 0.69957 0.46292 0.42257 0.0
C443 C 0.69985 0.491 0.43476 0.0
C444 C 0.67924 0.52388 0.41177 0.0
H445 H 0.6898 0.55672 0.4445 0.0
C446 C 0.66625 0.65176 0.45045 0.0
O447 O 0.5899 0.64418 0.45509 0.0
O448 O 0.60954 0.57768 0.45432 0.0
N449 N 0.65752 0.58375 0.40289 0.0
C450 C 0.6453 0.60366 0.39272 0.0
C451 C 0.64264 0.57945 0.37997 0.0
C452 C 0.6527 0.53521 0.37777 0.0
C453 C 0.66542 0.51563 0.38834 0.0
C454 C 0.66765 0.54153 0.4008 0.0
H455 H 0.63748 0.63761 0.39436 0.0
O456 O 0.59364 0.59075 0.42776 0.0
O457 O 0.63403 0.58736 0.42814 0.0
O458 O 0.61604 0.68036 0.42916 0.0
O459 O 0.65102 0.66923 0.41719 0.0
C460 C 0.67549 0.47102 0.38709 0.0
C461 C 0.68725 0.45288 0.39833 0.0
H462 H 0.70732 0.42866 0.42238 0.0
H463 H 0.70787 0.47848 0.44388 0.0
H464 H 0.63276 0.59476 0.37187 0.0
H465 H 0.65037 0.51644 0.36796 0.0
H466 H 0.67394 0.45009 0.3776 0.0
H467 H 0.69459 0.41828 0.39731 0.0
Mn468 Mn 0.61427 0.61984 0.80972 0.0
Mn469 Mn 0.66467 0.63034 0.82957 0.0
C470 C 0.61425 0.67003 0.82892 0.0
C471 C 0.59151 0.64358 0.79134 0.0
C472 C 0.62954 0.54949 0.82974 0.0
O473 O 0.64114 0.59043 0.79752 0.0
O474 O 0.67397 0.60523 0.81104 0.0
C475 C 0.69101 0.70275 0.81567 0.0
N476 N 0.68086 0.68737 0.82718 0.0
C477 C 0.69421 0.7549 0.84056 0.0
C478 C 0.70492 0.77141 0.82886 0.0
C479 C 0.70321 0.74529 0.81635 0.0
C480 C 0.68222 0.71236 0.83925 0.0
H481 H 0.68983 0.68265 0.80605 0.0
C482 C 0.66424 0.58987 0.79978 0.0
O483 O 0.58805 0.60341 0.79603 0.0
O484 O 0.60894 0.6686 0.79687 0.0
N485 N 0.6583 0.6547 0.84779 0.0
C486 C 0.64554 0.6354 0.85788 0.0
C487 C 0.64454 0.65812 0.87093 0.0
C488 C 0.65696 0.70004 0.87351 0.0
C489 C 0.67016 0.71898 0.86299 0.0
C490 C 0.67036 0.69495 0.85018 0.0
H491 H 0.63612 0.60302 0.85597 0.0
O492 O 0.59374 0.65525 0.82359 0.0
O493 O 0.63413 0.65537 0.82277 0.0
O494 O 0.61383 0.56376 0.82137 0.0
O495 O 0.64927 0.57107 0.83303 0.0
C496 C 0.68289 0.76103 0.86468 0.0
C497 C 0.69474 0.77918 0.85345 0.0
H498 H 0.71435 0.8042 0.82935 0.0
H499 H 0.71135 0.75787 0.80727 0.0
H500 H 0.6343 0.64329 0.87898 0.0
H501 H 0.65612 0.7175 0.88358 0.0
H502 H 0.68332 0.78011 0.87452 0.0
H503 H 0.70402 0.81204 0.85481 0.0
Mn504 Mn 0.38627 0.37467 0.559 0.0
Mn505 Mn 0.33646 0.39593 0.57881 0.0
C506 C 0.3883 0.42867 0.57718 0.0
C507 C 0.40942 0.39228 0.54004 0.0
C508 C 0.36894 0.31182 0.58075 0.0
O509 O 0.35847 0.34578 0.5475 0.0
O510 O 0.32621 0.36702 0.56082 0.0
C511 C 0.31283 0.46705 0.56313 0.0
N512 N 0.3224 0.45378 0.57505 0.0
C513 C 0.31309 0.52721 0.58655 0.0
C514 C 0.30299 0.54157 0.57442 0.0
C515 C 0.30291 0.51138 0.56266 0.0
C516 C 0.32258 0.48255 0.58642 0.0
H517 H 0.31282 0.444 0.55406 0.0
C518 C 0.33542 0.34797 0.54984 0.0
O519 O 0.4119 0.35295 0.54542 0.0
O520 O 0.3927 0.41971 0.54521 0.0
N521 N 0.34366 0.42425 0.5965 0.0
C522 C 0.35533 0.40602 0.60715 0.0
C523 C 0.35766 0.43236 0.61958 0.0
C524 C 0.34781 0.47696 0.62097 0.0
C525 C 0.33561 0.49476 0.60993 0.0
C526 C 0.3337 0.46679 0.59782 0.0
H527 H 0.36295 0.37178 0.60615 0.0
O528 O 0.40818 0.41039 0.57203 0.0
O529 O 0.36783 0.41523 0.57143 0.0
O530 O 0.38491 0.3217 0.57187 0.0
O531 O 0.35006 0.33655 0.58365 0.0
C532 C 0.32578 0.53954 0.61036 0.0
C533 C 0.31455 0.55577 0.59867 0.0
H534 H 0.29545 0.57582 0.57398 0.0
H535 H 0.29526 0.5223 0.55324 0.0
H536 H 0.36712 0.41839 0.62805 0.0
H537 H 0.34988 0.49735 0.63053 0.0
H538 H 0.32711 0.56205 0.61956 0.0
H539 H 0.30739 0.5905 0.59907 0.0
Mn540 Mn 0.39166 0.37473 0.19094 0.0
Mn541 Mn 0.34236 0.36097 0.17023 0.0
C542 C 0.39213 0.32036 0.17282 0.0
C543 C 0.41378 0.35446 0.20997 0.0
C544 C 0.37971 0.43696 0.16784 0.0
O545 O 0.36491 0.40739 0.20226 0.0
O546 O 0.33366 0.39754 0.1874 0.0
C547 C 0.31349 0.30231 0.18783 0.0
N548 N 0.32414 0.30899 0.17557 0.0
C549 C 0.31007 0.23522 0.1662 0.0
C550 C 0.29883 0.22772 0.17869 0.0
C551 C 0.3006 0.26139 0.18956 0.0
C552 C 0.32263 0.27672 0.16507 0.0
H553 H 0.31485 0.32795 0.19624 0.0
C554 C 0.34257 0.41292 0.19889 0.0
O555 O 0.41768 0.39335 0.20456 0.0
O556 O 0.39618 0.32907 0.20481 0.0
N557 N 0.34745 0.32562 0.15331 0.0
C558 C 0.35954 0.33777 0.14196 0.0
C559 C 0.35985 0.30752 0.13022 0.0
C560 C 0.34735 0.26539 0.13018 0.0
C561 C 0.33447 0.25411 0.14185 0.0
C562 C 0.33474 0.28576 0.15322 0.0
H563 H 0.36891 0.3702 0.14188 0.0
O564 O 0.41247 0.33622 0.17806 0.0
O565 O 0.37196 0.33644 0.17836 0.0
O566 O 0.39277 0.42794 0.17812 0.0
O567 O 0.36079 0.41388 0.16387 0.0
C568 C 0.3217 0.21237 0.1427 0.0
C569 C 0.30956 0.20288 0.15488 0.0
H570 H 0.28893 0.19614 0.18008 0.0
H571 H 0.29206 0.25577 0.19925 0.0
H572 H 0.36971 0.31666 0.12124 0.0
H573 H 0.3478 0.24196 0.12116 0.0
H574 H 0.32131 0.18712 0.1341 0.0
H575 H 0.30001 0.17047 0.15546 0.0
C576 C 0.32662 0.30556 0.52717 0.0
C577 C 0.31811 0.3277 0.53943 0.0
C578 C 0.31004 0.28648 0.51749 0.0
C579 C 0.24501 0.2921 0.50681 0.0
H580 H 0.2586 0.17321 0.4883 0.0
C581 C 0.17338 0.19399 0.47242 0.0
C582 C 0.18212 0.17256 0.46012 0.0
C583 C 0.18977 0.21253 0.48229 0.0
C584 C 0.25463 0.20665 0.49329 0.0
H585 H 0.28534 0.347 0.55104 0.0
H586 H 0.25672 0.31345 0.53431 0.0
H587 H 0.28789 0.20677 0.50485 0.0
H588 H 0.21514 0.15377 0.44865 0.0
H589 H 0.24342 0.18633 0.46571 0.0
H590 H 0.21176 0.29199 0.49524 0.0
C591 C 0.27615 0.31133 0.53208 0.0
C592 C 0.27146 0.22591 0.50275 0.0
C593 C 0.29265 0.33033 0.54173 0.0
C594 C 0.20763 0.16994 0.45798 0.0
C595 C 0.22394 0.18836 0.46783 0.0
C596 C 0.22818 0.27283 0.49735 0.0
C597 C 0.2846 0.28919 0.51984 0.0
C598 C 0.26686 0.26889 0.50963 0.0
C599 C 0.21525 0.20992 0.48009 0.0
C600 C 0.23281 0.22991 0.49044 0.0
H601 H 0.34607 0.30297 0.52502 0.0
H602 H 0.31715 0.27009 0.50809 0.0
H603 H 0.24106 0.32557 0.51178 0.0
H604 H 0.15388 0.19656 0.47444 0.0
H605 H 0.18248 0.22851 0.49171 0.0
C606 C 0.92397 0.95053 0.52486 0.0
C607 C 0.92852 0.90774 0.53018 0.0
C608 C 0.94139 0.97076 0.51674 0.0
C609 C 0.00789 0.97109 0.51036 0.0
H610 H 0.99005 0.04179 0.47981 0.0
C611 C 0.07928 0.0442 0.47409 0.0
C612 C 0.07468 0.08714 0.46887 0.0
C613 C 0.06184 0.02361 0.48213 0.0
C614 C 0.99531 0.02275 0.48844 0.0
H615 H 0.95452 0.85164 0.53063 0.0
H616 H 0.98495 0.88679 0.51624 0.0
H617 H 0.95847 0.00023 0.49154 0.0
H618 H 0.04856 0.14306 0.4685 0.0
H619 H 0.01811 0.10729 0.48272 0.0
H620 H 0.04473 0.99363 0.50726 0.0
C621 C 0.96799 0.90498 0.51855 0.0
C622 C 0.97721 0.99872 0.49513 0.0
C623 C 0.95046 0.88461 0.52667 0.0
C624 C 0.05266 0.10999 0.47238 0.0
C625 C 0.03512 0.08926 0.4804 0.0
C626 C 0.026 0.99511 0.50367 0.0
C627 C 0.96386 0.94876 0.51373 0.0
C628 C 0.98326 0.97262 0.50619 0.0
C629 C 0.03931 0.04538 0.48514 0.0
C630 C 0.01993 0.02127 0.49263 0.0
H631 H 0.90726 0.96931 0.52737 0.0
H632 H 0.93765 0.00462 0.51331 0.0
H633 H 0.01315 0.95208 0.519 0.0
H634 H 0.09605 0.02562 0.47158 0.0
H635 H 0.06563 0.98969 0.4855 0.0
C636 C 0.29531 0.91951 0.70795 0.0
C637 C 0.32078 0.92285 0.71014 0.0
C638 C 0.27879 0.93819 0.71765 0.0
C639 C 0.27315 0.97666 0.75405 0.0
H640 H 0.21594 0.04141 0.74181 0.0
C641 C 0.20997 0.08175 0.79135 0.0
C642 C 0.18448 0.079 0.78919 0.0
C643 C 0.22634 0.06223 0.78171 0.0
C644 C 0.23165 0.02294 0.74539 0.0
H645 H 0.34872 0.94835 0.72443 0.0
H646 H 0.31978 0.98132 0.74135 0.0
H647 H 0.2453 0.00886 0.72512 0.0
H648 H 0.15633 0.05345 0.77503 0.0
H649 H 0.18502 0.01903 0.7582 0.0
H650 H 0.25951 0.9908 0.77431 0.0
C651 C 0.31267 0.96379 0.73212 0.0
C652 C 0.24851 0.00433 0.73583 0.0
C653 C 0.32927 0.94507 0.72238 0.0
C654 C 0.17581 0.05631 0.77705 0.0
C655 C 0.19226 0.03676 0.76737 0.0
C656 C 0.25629 0.99528 0.76361 0.0
C657 C 0.28723 0.96074 0.72983 0.0
C658 C 0.26947 0.98096 0.74004 0.0
C659 C 0.21773 0.0394 0.76961 0.0
C660 C 0.23535 0.01872 0.7594 0.0
H661 H 0.288 0.90239 0.6987 0.0
H662 H 0.25933 0.93451 0.71565 0.0
H663 H 0.28888 0.95824 0.75762 0.0
H664 H 0.21742 0.09915 0.80052 0.0
H665 H 0.24583 0.06559 0.78366 0.0
C666 C 0.08072 0.20344 0.77393 0.0
C667 C 0.07614 0.1616 0.77982 0.0
C668 C 0.06288 0.22347 0.76604 0.0
C669 C 0.99593 0.22605 0.76145 0.0
H670 H 0.01191 0.2928 0.72977 0.0
C671 C 0.92252 0.2969 0.72605 0.0
C672 C 0.92706 0.33876 0.72017 0.0
C673 C 0.94031 0.27709 0.73402 0.0
C674 C 0.00719 0.27491 0.73872 0.0
H675 H 0.04963 0.10686 0.7815 0.0
H676 H 0.01847 0.1416 0.76751 0.0
H677 H 0.04402 0.25124 0.74105 0.0
H678 H 0.95343 0.39379 0.71858 0.0
H679 H 0.98453 0.35939 0.7327 0.0
H680 H 0.95909 0.24968 0.75911 0.0
C681 C 0.03579 0.15925 0.7692 0.0
C682 C 0.02559 0.25086 0.74515 0.0
C683 C 0.05373 0.13907 0.77708 0.0
C684 C 0.94937 0.36156 0.723 0.0
C685 C 0.96727 0.34158 0.73095 0.0
C686 C 0.97753 0.25009 0.75501 0.0
C687 C 0.03996 0.20222 0.76384 0.0
C688 C 0.0202 0.22612 0.7566 0.0
C689 C 0.96315 0.29857 0.73629 0.0
C690 C 0.98292 0.27481 0.74357 0.0
H691 H 0.09779 0.22175 0.77584 0.0
H692 H 0.0667 0.25669 0.76218 0.0
H693 H 0.9912 0.20816 0.7704 0.0
H694 H 0.90552 0.27841 0.72407 0.0
H695 H 0.93654 0.24384 0.73787 0.0
C696 C 0.82915 0.80251 0.52758 0.0
C697 C 0.82075 0.82479 0.53984 0.0
C698 C 0.81249 0.78384 0.51789 0.0
C699 C 0.74753 0.79061 0.50718 0.0
H700 H 0.76028 0.6708 0.48903 0.0
C701 C 0.67507 0.69288 0.47331 0.0
C702 C 0.68356 0.67087 0.46104 0.0
C703 C 0.69166 0.71136 0.48308 0.0
C704 C 0.75655 0.70449 0.49391 0.0
H705 H 0.78806 0.84501 0.55141 0.0
H706 H 0.75928 0.81221 0.53465 0.0
H707 H 0.78985 0.7043 0.50544 0.0
H708 H 0.71634 0.65084 0.44952 0.0
H709 H 0.74499 0.68329 0.46641 0.0
H710 H 0.71423 0.79082 0.49565 0.0
C711 C 0.77871 0.80959 0.53244 0.0
C712 C 0.77353 0.72372 0.5033 0.0
C713 C 0.7953 0.82815 0.54211 0.0
C714 C 0.70903 0.66752 0.45883 0.0
C715 C 0.72555 0.68587 0.46858 0.0
C716 C 0.73055 0.77138 0.49779 0.0
C717 C 0.78706 0.78715 0.52022 0.0
C718 C 0.76923 0.76701 0.51004 0.0
C719 C 0.7171 0.70809 0.4808 0.0
C720 C 0.73487 0.72811 0.49103 0.0
H721 H 0.84859 0.79935 0.52547 0.0
H722 H 0.81952 0.76719 0.50851 0.0
H723 H 0.74381 0.82432 0.51205 0.0
H724 H 0.65561 0.69603 0.47538 0.0
H725 H 0.68456 0.72785 0.49247 0.0
C726 C 0.67774 0.05587 0.27852 0.0
C727 C 0.68587 0.07713 0.29097 0.0
C728 C 0.69461 0.03745 0.2689 0.0
C729 C 0.75862 0.99606 0.2654 0.0
H730 H 0.74896 0.0156 0.22715 0.0
C731 C 0.83144 0.94554 0.22391 0.0
C732 C 0.82246 0.92508 0.21154 0.0
C733 C 0.81525 0.96479 0.2338 0.0
C734 C 0.75182 0.00945 0.23778 0.0
H735 H 0.71828 0.09559 0.303 0.0
H736 H 0.74744 0.06386 0.28625 0.0
H737 H 0.71941 0.04672 0.24392 0.0
H738 H 0.78923 0.90833 0.20002 0.0
H739 H 0.76135 0.94121 0.21718 0.0
H740 H 0.791 0.95861 0.25923 0.0
C741 C 0.72805 0.06091 0.28398 0.0
C742 C 0.73484 0.02724 0.24739 0.0
C743 C 0.71125 0.07937 0.29356 0.0
C744 C 0.79695 0.92409 0.20935 0.0
C745 C 0.78087 0.94323 0.21919 0.0
C746 C 0.7756 0.97821 0.25578 0.0
C747 C 0.71996 0.03977 0.27153 0.0
C748 C 0.73798 0.02063 0.26131 0.0
C749 C 0.78977 0.96402 0.2315 0.0
C750 C 0.77233 0.98449 0.24184 0.0
H751 H 0.65837 0.05344 0.27618 0.0
H752 H 0.68778 0.02095 0.25945 0.0
H753 H 0.76143 0.98991 0.27604 0.0
H754 H 0.85096 0.94692 0.22594 0.0
H755 H 0.8227 0.98085 0.24316 0.0
C756 C 0.92474 0.79001 0.22442 0.0
C757 C 0.92932 0.83296 0.2192 0.0
C758 C 0.94235 0.76918 0.23228 0.0
C759 C 0.99945 0.79098 0.25214 0.0
H760 H 0.01008 0.6603 0.24411 0.0
C761 C 0.08268 0.69957 0.27362 0.0
C762 C 0.07834 0.65741 0.27937 0.0
C763 C 0.06479 0.71933 0.26572 0.0
C764 C 0.0072 0.69669 0.24657 0.0
H765 H 0.95562 0.88854 0.21859 0.0
H766 H 0.98649 0.85208 0.23227 0.0
H767 H 0.97776 0.69954 0.23227 0.0
H768 H 0.05225 0.6018 0.28076 0.0
H769 H 0.02087 0.63641 0.2669 0.0
H770 H 0.02895 0.78818 0.2664 0.0
C771 C 0.96918 0.83462 0.23037 0.0
C772 C 0.98862 0.71921 0.2398 0.0
C773 C 0.95149 0.85555 0.22252 0.0
C774 C 0.05618 0.63422 0.27643 0.0
C775 C 0.0382 0.65409 0.2685 0.0
C776 C 0.01804 0.76849 0.25888 0.0
C777 C 0.96503 0.7907 0.2351 0.0
C778 C 0.98453 0.76667 0.2425 0.0
C779 C 0.04207 0.69751 0.26337 0.0
C780 C 0.02221 0.72111 0.25614 0.0
H781 H 0.90778 0.77177 0.22212 0.0
H782 H 0.93831 0.73584 0.23601 0.0
H783 H 0.99659 0.82735 0.25463 0.0
H784 H 0.09963 0.7182 0.2756 0.0
H785 H 0.0686 0.75225 0.26166 0.0
C786 C 0.29541 0.82488 0.0422 0.0
C787 C 0.32082 0.82437 0.03964 0.0
C788 C 0.27892 0.80679 0.0324 0.0
C789 C 0.27446 0.72708 0.00178 0.0
H790 H 0.21347 0.79164 0.99618 0.0
C791 C 0.20895 0.67492 0.95742 0.0
C792 C 0.18355 0.67589 0.96001 0.0
C793 C 0.22556 0.69282 0.96718 0.0
C794 C 0.23026 0.77289 0.99773 0.0
H795 H 0.3487 0.80424 0.02465 0.0
H796 H 0.31977 0.77287 0.00747 0.0
H797 H 0.24305 0.82367 0.0128 0.0
H798 H 0.15583 0.69647 0.97505 0.0
H799 H 0.18496 0.72743 0.99217 0.0
H800 H 0.26167 0.67628 0.98671 0.0
C801 C 0.31271 0.78695 0.01717 0.0
C802 C 0.24725 0.79128 0.00725 0.0
C803 C 0.32929 0.80514 0.02699 0.0
C804 C 0.17522 0.69523 0.97267 0.0
C805 C 0.19192 0.7132 0.98246 0.0
C806 C 0.25746 0.70867 0.99226 0.0
C807 C 0.28732 0.78771 0.01976 0.0
C808 C 0.26954 0.76857 0.0094 0.0
C809 C 0.21729 0.71215 0.97982 0.0
C810 C 0.23516 0.73136 0.99012 0.0
H811 H 0.28811 0.83924 0.05181 0.0
H812 H 0.25954 0.80727 0.03483 0.0
H813 H 0.29127 0.70835 0.00333 0.0
H814 H 0.21613 0.66044 0.94779 0.0
H815 H 0.24492 0.69207 0.96472 0.0
C816 C 0.05411 0.61249 0.97304 0.0
C817 C 0.07621 0.59001 0.96947 0.0
C818 C 0.03674 0.59143 0.9811 0.0
C819 C 0.01794 0.47565 0.99057 0.0
H820 H 0.97827 0.54337 0.01777 0.0
C821 C 0.9522 0.38775 0.02753 0.0
C822 C 0.92999 0.41026 0.03082 0.0
C823 C 0.96982 0.40859 0.01957 0.0
C824 C 0.98899 0.52401 0.01008 0.0
H825 H 0.09799 0.52902 0.97219 0.0
H826 H 0.06805 0.49292 0.98641 0.0
H827 H 0.00998 0.58338 0.00567 0.0
H828 H 0.9083 0.4711 0.02772 0.0
H829 H 0.93871 0.50684 0.01371 0.0
H830 H 0.99695 0.41627 0.995 0.0
C831 C 0.06379 0.52622 0.98273 0.0
C832 C 0.00721 0.54699 0.00316 0.0
C833 C 0.08107 0.54716 0.97468 0.0
C834 C 0.92529 0.45292 0.02545 0.0
C835 C 0.94283 0.47366 0.01752 0.0
C836 C 0.99973 0.45266 0.9975 0.0
C837 C 0.04115 0.54751 0.98577 0.0
C838 C 0.02192 0.52312 0.99332 0.0
C839 C 0.96556 0.45234 0.01475 0.0
C840 C 0.98498 0.47657 0.00732 0.0
H841 H 0.04977 0.6454 0.96913 0.0
H842 H 0.01945 0.60874 0.98319 0.0
H843 H 0.02862 0.45629 0.98287 0.0
H844 H 0.95641 0.35498 0.03157 0.0
H845 H 0.98717 0.39127 0.01767 0.0
C846 C 0.30045 0.44034 0.20569 0.0
C847 C 0.32545 0.43603 0.20892 0.0
C848 C 0.28385 0.45923 0.21533 0.0
C849 C 0.27559 0.48069 0.25247 0.0
H850 H 0.22244 0.55922 0.24189 0.0
C851 C 0.2123 0.57647 0.29181 0.0
C852 C 0.18704 0.5778 0.28893 0.0
C853 C 0.22898 0.5592 0.28199 0.0
C854 C 0.23702 0.53691 0.24497 0.0
H855 H 0.3526 0.4494 0.22483 0.0
H856 H 0.32362 0.48301 0.2416 0.0
H857 H 0.25251 0.53126 0.22491 0.0
H858 H 0.1596 0.56174 0.27335 0.0
H859 H 0.18885 0.53136 0.25617 0.0
H860 H 0.26014 0.48649 0.27254 0.0
C861 C 0.31684 0.47102 0.23164 0.0
C862 C 0.25428 0.52092 0.23525 0.0
C863 C 0.3335 0.45204 0.22198 0.0
C864 C 0.1789 0.56123 0.27594 0.0
C865 C 0.19567 0.54409 0.26606 0.0
C866 C 0.25837 0.49677 0.26219 0.0
C867 C 0.29177 0.47443 0.22846 0.0
C868 C 0.27378 0.49257 0.23888 0.0
C869 C 0.2209 0.54289 0.26899 0.0
C870 C 0.23889 0.52507 0.25856 0.0
H871 H 0.29348 0.42828 0.19577 0.0
H872 H 0.26466 0.46074 0.21258 0.0
H873 H 0.29008 0.45822 0.25557 0.0
H874 H 0.21934 0.58897 0.30167 0.0
H875 H 0.24831 0.55934 0.28452 0.0
C876 C 0.67598 0.19552 0.97292 0.0
C877 C 0.68451 0.17524 0.96042 0.0
C878 C 0.69252 0.21479 0.98261 0.0
C879 C 0.7562 0.25896 0.98618 0.0
H880 H 0.74743 0.23657 0.02431 0.0
C881 C 0.83056 0.30414 0.02711 0.0
C882 C 0.82218 0.3243 0.03966 0.0
C883 C 0.81386 0.28604 0.01733 0.0
C884 C 0.75003 0.2435 0.01372 0.0
H885 H 0.71731 0.15946 0.94839 0.0
H886 H 0.74578 0.19239 0.96521 0.0
H887 H 0.7175 0.20653 0.00759 0.0
H888 H 0.78947 0.34143 0.05163 0.0
H889 H 0.76074 0.31041 0.03465 0.0
H890 H 0.78878 0.2958 0.99232 0.0
C891 C 0.72635 0.19412 0.96748 0.0
C892 C 0.73282 0.22639 0.00414 0.0
C893 C 0.70992 0.17493 0.95785 0.0
C894 C 0.79674 0.32597 0.04214 0.0
C895 C 0.78016 0.3079 0.03242 0.0
C896 C 0.77342 0.27603 0.99576 0.0
C897 C 0.71791 0.21426 0.97998 0.0
C898 C 0.73572 0.23383 0.99025 0.0
C899 C 0.78847 0.28762 0.01991 0.0
C900 C 0.77053 0.26853 0.00964 0.0
H901 H 0.65656 0.19642 0.97525 0.0
H902 H 0.68541 0.23044 0.99211 0.0
H903 H 0.75881 0.26586 0.97559 0.0
H904 H 0.84998 0.30224 0.02484 0.0
H905 H 0.82085 0.27029 0.00781 0.0
C906 C 0.70664 0.5736 0.79099 0.0
C907 C 0.68111 0.57059 0.78899 0.0
C908 C 0.72287 0.55484 0.78117 0.0
C909 C 0.72807 0.51641 0.7448 0.0
H910 H 0.78535 0.45188 0.75705 0.0
C911 C 0.79285 0.4143 0.70752 0.0
C912 C 0.81826 0.41778 0.70993 0.0
C913 C 0.77605 0.43292 0.71707 0.0
C914 C 0.76961 0.47026 0.75347 0.0
H915 H 0.65274 0.5458 0.77488 0.0
H916 H 0.68125 0.51257 0.75769 0.0
H917 H 0.75573 0.48356 0.7737 0.0
H918 H 0.84579 0.44373 0.72441 0.0
H919 H 0.81636 0.47654 0.74108 0.0
H920 H 0.74199 0.50306 0.72455 0.0
C921 C 0.6886 0.52988 0.7669 0.0
C922 C 0.7526 0.48837 0.76301 0.0
C923 C 0.67226 0.54876 0.77677 0.0
C924 C 0.82639 0.44031 0.72221 0.0
C925 C 0.80952 0.45893 0.73179 0.0
C926 C 0.74509 0.49825 0.73525 0.0
C927 C 0.7141 0.53243 0.76905 0.0
C928 C 0.73168 0.51187 0.7588 0.0
C929 C 0.78414 0.45551 0.72932 0.0
C930 C 0.7661 0.47507 0.73947 0.0
H931 H 0.71425 0.59053 0.80018 0.0
H932 H 0.74237 0.55828 0.78304 0.0
H933 H 0.71234 0.53485 0.74123 0.0
H934 H 0.78581 0.39702 0.69823 0.0
H935 H 0.75665 0.42903 0.71494 0.0
C936 C 0.58094 0.04539 0.97551 0.0
C937 C 0.57669 0.0876 0.96978 0.0
C938 C 0.56312 0.02591 0.98355 0.0
C939 C 0.49629 0.02655 0.9892 0.0
H940 H 0.51303 0.95728 0.02024 0.0
C941 C 0.42381 0.9545 0.02519 0.0
C942 C 0.42829 0.91156 0.03044 0.0
C943 C 0.44143 0.97507 0.01725 0.0
C944 C 0.50808 0.97595 0.01148 0.0
H945 H 0.55076 0.1435 0.96851 0.0
H946 H 0.51966 0.10976 0.98278 0.0
H947 H 0.54504 0.99812 0.00864 0.0
H948 H 0.45437 0.85561 0.03096 0.0
H949 H 0.48511 0.89135 0.01693 0.0
H950 H 0.45929 0.00444 0.99208 0.0
C951 C 0.53669 0.09137 0.98084 0.0
C952 C 0.52643 0.99955 0.00485 0.0
C953 C 0.5546 0.11095 0.97279 0.0
C954 C 0.45035 0.88868 0.02706 0.0
C955 C 0.46806 0.90939 0.01914 0.0
C956 C 0.47792 0.00302 0.99585 0.0
C957 C 0.54054 0.04812 0.98608 0.0
C958 C 0.5208 0.02502 0.9936 0.0
C959 C 0.46401 0.95328 0.01439 0.0
C960 C 0.4836 0.9773 0.00704 0.0
H961 H 0.59774 0.02642 0.97338 0.0
H962 H 0.56667 0.99242 0.98729 0.0
H963 H 0.49134 0.0451 0.98042 0.0
H964 H 0.40701 0.9731 0.02762 0.0
H965 H 0.43774 0.00897 0.01384 0.0
C966 C 0.42525 0.29429 0.22577 0.0
C967 C 0.43052 0.33641 0.2202 0.0
C968 C 0.44265 0.27286 0.23363 0.0
C969 C 0.50944 0.26709 0.23845 0.0
H970 H 0.49254 0.20077 0.27007 0.0
C971 C 0.58198 0.19666 0.27425 0.0
C972 C 0.57728 0.15523 0.28034 0.0
C973 C 0.56432 0.21609 0.26612 0.0
C974 C 0.4975 0.21849 0.26112 0.0
H975 H 0.45778 0.39018 0.21908 0.0
H976 H 0.48813 0.35298 0.23297 0.0
H977 H 0.46087 0.24306 0.25865 0.0
H978 H 0.55079 0.10051 0.28211 0.0
H979 H 0.51992 0.13423 0.26769 0.0
H980 H 0.54605 0.24258 0.24091 0.0
C981 C 0.47063 0.3362 0.23106 0.0
C982 C 0.47936 0.24296 0.25462 0.0
C983 C 0.45315 0.35776 0.22323 0.0
C984 C 0.55497 0.13242 0.27754 0.0
C985 C 0.5372 0.15201 0.26941 0.0
C986 C 0.52756 0.24258 0.24494 0.0
C987 C 0.46579 0.29296 0.23608 0.0
C988 C 0.48513 0.26777 0.24324 0.0
C989 C 0.54147 0.19463 0.26386 0.0
C990 C 0.52186 0.21816 0.2564 0.0
H991 H 0.40799 0.27687 0.22363 0.0
H992 H 0.43834 0.2395 0.23725 0.0
H993 H 0.51442 0.28497 0.22954 0.0
H994 H 0.59899 0.21515 0.2762 0.0
H995 H 0.56821 0.24908 0.26213 0.0
C996 C 0.42425 0.79677 0.72468 0.0
C997 C 0.4286 0.8398 0.71946 0.0
C998 C 0.44179 0.77662 0.73273 0.0
C999 C 0.49777 0.79931 0.75333 0.0
H1000 H 0.50997 0.66952 0.74456 0.0
C1001 C 0.57937 0.70624 0.77652 0.0
C1002 C 0.57478 0.66259 0.78127 0.0
C1003 C 0.56212 0.72738 0.7685 0.0
C1004 C 0.50664 0.70563 0.74724 0.0
H1005 H 0.45435 0.89639 0.71913 0.0
H1006 H 0.4851 0.86111 0.73324 0.0
H1007 H 0.47819 0.70878 0.73236 0.0
H1008 H 0.54882 0.6062 0.7809 0.0
H1009 H 0.51859 0.64318 0.76693 0.0
H1010 H 0.52618 0.79611 0.76825 0.0
C1011 C 0.46803 0.84304 0.73112 0.0
C1012 C 0.48839 0.72818 0.74026 0.0
C1013 C 0.45041 0.86329 0.72304 0.0
C1014 C 0.55296 0.63974 0.77735 0.0
C1015 C 0.53564 0.66096 0.76933 0.0
C1016 C 0.51602 0.77674 0.76034 0.0
C1017 C 0.46416 0.79892 0.73576 0.0
C1018 C 0.48366 0.77525 0.74325 0.0
C1019 C 0.53981 0.70546 0.76504 0.0
C1020 C 0.52067 0.72958 0.75739 0.0
H1021 H 0.40757 0.77786 0.72219 0.0
H1022 H 0.43797 0.74311 0.7364 0.0
H1023 H 0.49443 0.83544 0.75599 0.0
H1024 H 0.59606 0.72473 0.7793 0.0
H1025 H 0.56617 0.76121 0.76513 0.0
C1026 C 0.44899 0.38564 0.52691 0.0
C1027 C 0.42669 0.40847 0.52976 0.0
C1028 C 0.46701 0.4058 0.51905 0.0
C1029 C 0.48686 0.52054 0.50956 0.0
H1030 H 0.52779 0.45238 0.48308 0.0
C1031 C 0.5536 0.60865 0.47342 0.0
C1032 C 0.57579 0.58616 0.47009 0.0
C1033 C 0.53594 0.5876 0.48129 0.0
C1034 C 0.51675 0.47184 0.49059 0.0
H1035 H 0.40519 0.46884 0.52586 0.0
H1036 H 0.43629 0.50338 0.51204 0.0
H1037 H 0.49545 0.41256 0.49477 0.0
H1038 H 0.59746 0.5252 0.47306 0.0
H1039 H 0.56701 0.48915 0.48698 0.0
H1040 H 0.50815 0.57977 0.50543 0.0
C1041 C 0.44018 0.47054 0.51613 0.0
C1042 C 0.49816 0.44898 0.49725 0.0
C1043 C 0.42225 0.45049 0.52396 0.0
C1044 C 0.58047 0.54334 0.47536 0.0
C1045 C 0.5629 0.52243 0.48324 0.0
C1046 C 0.50546 0.54337 0.50292 0.0
C1047 C 0.46303 0.44914 0.5139 0.0
C1048 C 0.48291 0.4731 0.50677 0.0
C1049 C 0.54016 0.54371 0.48601 0.0
C1050 C 0.52063 0.51935 0.49333 0.0
H1051 H 0.453 0.35334 0.53129 0.0
H1052 H 0.48444 0.38843 0.51754 0.0
H1053 H 0.47575 0.54001 0.51704 0.0
H1054 H 0.5494 0.64152 0.46944 0.0
H1055 H 0.51858 0.6049 0.48316 0.0
C1056 C 0.1263 0.75895 0.33333 0.0
C1057 C 0.11491 0.71785 0.33643 0.0
C1058 C 0.12454 0.79788 0.34232 0.0
C1059 C 0.10994 0.83179 0.37843 0.0
H1060 H 0.10987 0.95433 0.3653 0.0
C1061 C 0.12413 0.99327 0.41445 0.0
C1062 C 0.11216 0.03385 0.41143 0.0
C1063 C 0.12312 0.95457 0.40535 0.0
C1064 C 0.1095 0.92038 0.36915 0.0
H1065 H 0.0907 0.68572 0.35039 0.0
H1066 H 0.08708 0.75404 0.36611 0.0
H1067 H 0.10935 0.88782 0.34904 0.0
H1068 H 0.08776 0.06519 0.39742 0.0
H1069 H 0.08546 0.99715 0.38147 0.0
H1070 H 0.10901 0.86428 0.39854 0.0
C1071 C 0.09837 0.75587 0.3571 0.0
C1072 C 0.10963 0.88216 0.35981 0.0
C1073 C 0.10028 0.71687 0.34811 0.0
C1074 C 0.09776 0.03448 0.39966 0.0
C1075 C 0.0966 0.99566 0.39055 0.0
C1076 C 0.10942 0.86998 0.38777 0.0
C1077 C 0.11084 0.79665 0.35443 0.0
C1078 C 0.10997 0.83738 0.36433 0.0
C1079 C 0.10958 0.95543 0.39319 0.0
C1080 C 0.10934 0.91476 0.38325 0.0
H1081 H 0.13684 0.76076 0.32404 0.0
H1082 H 0.1345 0.82847 0.33993 0.0
H1083 H 0.11065 0.79789 0.3823 0.0
H1084 H 0.13455 0.9917 0.42379 0.0
H1085 H 0.13348 0.92444 0.40771 0.0
C1086 C 0.10371 0.25051 0.40874 0.0
C1087 C 0.12732 0.23562 0.41215 0.0
C1088 C 0.10077 0.28805 0.40065 0.0
C1089 C 0.13266 0.3906 0.38972 0.0
H1090 H 0.09597 0.37328 0.35596 0.0
C1091 C 0.15174 0.50284 0.34579 0.0
C1092 C 0.132 0.52009 0.33849 0.0
C1093 C 0.14806 0.469 0.35494 0.0
C1094 C 0.10595 0.37896 0.36545 0.0
H1095 H 0.16621 0.24927 0.41023 0.0
H1096 H 0.16107 0.31498 0.39649 0.0
H1097 H 0.09435 0.31439 0.37266 0.0
H1098 H 0.09294 0.51369 0.3347 0.0
H1099 H 0.08645 0.45414 0.35086 0.0
H1100 H 0.14459 0.45454 0.38259 0.0
C1101 C 0.14485 0.29766 0.39993 0.0
C1102 C 0.10499 0.34531 0.375 0.0
C1103 C 0.14779 0.25989 0.40776 0.0
C1104 C 0.10855 0.50103 0.34014 0.0
C1105 C 0.10482 0.46702 0.34941 0.0
C1106 C 0.13351 0.42417 0.38026 0.0
C1107 C 0.12136 0.31181 0.39613 0.0
C1108 C 0.11895 0.35025 0.38704 0.0
C1109 C 0.12449 0.45153 0.35716 0.0
C1110 C 0.12083 0.41812 0.36781 0.0
H1111 H 0.08762 0.23216 0.41189 0.0
H1112 H 0.08246 0.29837 0.39787 0.0
H1113 H 0.14327 0.39565 0.39902 0.0
H1114 H 0.17012 0.51618 0.34465 0.0
H1115 H 0.16375 0.45687 0.36042 0.0
C1116 C 0.09922 0.22129 0.84843 0.0
C1117 C 0.11368 0.22212 0.83668 0.0
C1118 C 0.09754 0.26029 0.85742 0.0
C1119 C 0.10906 0.38643 0.86011 0.0
H1120 H 0.10904 0.36841 0.89883 0.0
C1121 C 0.09776 0.53852 0.9001 0.0
C1122 C 0.11241 0.53784 0.91177 0.0
C1123 C 0.09646 0.49976 0.89097 0.0
C1124 C 0.10929 0.37415 0.88806 0.0
H1125 H 0.13556 0.2648 0.82419 0.0
H1126 H 0.13361 0.33255 0.84011 0.0
H1127 H 0.11039 0.30207 0.88256 0.0
H1128 H 0.13513 0.49568 0.92396 0.0
H1129 H 0.13379 0.42851 0.90784 0.0
H1130 H 0.1094 0.45859 0.86562 0.0
C1131 C 0.12361 0.30205 0.84253 0.0
C1132 C 0.10964 0.336 0.87871 0.0
C1133 C 0.12514 0.2631 0.83353 0.0
C1134 C 0.1245 0.49728 0.91469 0.0
C1135 C 0.12334 0.45863 0.90557 0.0
C1136 C 0.10909 0.42462 0.86946 0.0
C1137 C 0.11008 0.30093 0.8547 0.0
C1138 C 0.10945 0.34164 0.86462 0.0
C1139 C 0.10954 0.45955 0.8935 0.0
C1140 C 0.10914 0.41894 0.88355 0.0
H1141 H 0.08957 0.19025 0.85075 0.0
H1142 H 0.08637 0.25858 0.86648 0.0
H1143 H 0.10863 0.39213 0.84934 0.0
H1144 H 0.08767 0.56923 0.89794 0.0
H1145 H 0.08514 0.50128 0.88197 0.0
C1146 C 0.14764 0.76404 0.90805 0.0
C1147 C 0.12732 0.73969 0.91259 0.0
C1148 C 0.14445 0.80187 0.90027 0.0
C1149 C 0.10388 0.8496 0.87569 0.0
H1150 H 0.14365 0.95878 0.88298 0.0
C1151 C 0.10665 0.00546 0.84081 0.0
C1152 C 0.13009 0.02429 0.83897 0.0
C1153 C 0.1031 0.97148 0.85012 0.0
C1154 C 0.13251 0.92844 0.88074 0.0
H1155 H 0.08763 0.73613 0.91264 0.0
H1156 H 0.08202 0.80244 0.8987 0.0
H1157 H 0.14278 0.89984 0.8994 0.0
H1158 H 0.16837 0.02 0.8448 0.0
H1159 H 0.16228 0.96081 0.86064 0.0
H1160 H 0.09435 0.87766 0.85673 0.0
C1161 C 0.10041 0.79214 0.90133 0.0
C1162 C 0.13192 0.89483 0.89019 0.0
C1163 C 0.10361 0.75455 0.90937 0.0
C1164 C 0.14999 0.00686 0.8461 0.0
C1165 C 0.14648 0.97308 0.85529 0.0
C1166 C 0.10457 0.88329 0.86613 0.0
C1167 C 0.12086 0.81599 0.89666 0.0
C1168 C 0.11816 0.85449 0.88761 0.0
C1169 C 0.12293 0.95582 0.85771 0.0
C1170 C 0.11951 0.92243 0.86838 0.0
H1171 H 0.16614 0.75345 0.91036 0.0
H1172 H 0.16056 0.81924 0.8967 0.0
H1173 H 0.0932 0.8187 0.87342 0.0
H1174 H 0.09093 0.01823 0.8355 0.0
H1175 H 0.08474 0.95875 0.85172 0.0
C1176 C 0.90636 0.27911 0.65134 0.0
C1177 C 0.89165 0.27797 0.66298 0.0
C1178 C 0.90843 0.24013 0.64235 0.0
C1179 C 0.89713 0.11382 0.6395 0.0
H1180 H 0.89736 0.13223 0.60081 0.0
C1181 C 0.90736 0.96166 0.59949 0.0
C1182 C 0.8927 0.96274 0.58783 0.0
C1183 C 0.90904 0.00041 0.6086 0.0
C1184 C 0.89706 0.12639 0.61157 0.0
H1185 H 0.86977 0.23485 0.67534 0.0
H1186 H 0.87238 0.16719 0.65944 0.0
H1187 H 0.89615 0.19844 0.61712 0.0
H1188 H 0.8704 0.00557 0.57563 0.0
H1189 H 0.87235 0.07276 0.59172 0.0
H1190 H 0.89652 0.04173 0.63394 0.0
C1191 C 0.88229 0.19785 0.65708 0.0
C1192 C 0.8968 0.16446 0.62095 0.0
C1193 C 0.88038 0.23676 0.66607 0.0
C1194 C 0.88101 0.00368 0.5849 0.0
C1195 C 0.88253 0.04232 0.594 0.0
C1196 C 0.897 0.07573 0.63012 0.0
C1197 C 0.89602 0.19926 0.64499 0.0
C1198 C 0.89686 0.15867 0.63504 0.0
C1199 C 0.89631 0.04101 0.60606 0.0
C1200 C 0.89699 0.08154 0.61604 0.0
H1201 H 0.91587 0.31036 0.64907 0.0
H1202 H 0.91974 0.24208 0.63335 0.0
H1203 H 0.89749 0.108 0.65027 0.0
H1204 H 0.91716 0.93064 0.60165 0.0
H1205 H 0.92035 0.99856 0.61759 0.0
C1206 C 0.85333 0.494 0.65415 0.0
C1207 C 0.87345 0.47596 0.66095 0.0
C1208 C 0.85659 0.52823 0.64508 0.0
C1209 C 0.89867 0.61747 0.63392 0.0
H1210 H 0.85894 0.60299 0.60117 0.0
C1211 C 0.89969 0.74591 0.59059 0.0
C1212 C 0.87609 0.76188 0.5876 0.0
C1213 C 0.90265 0.70839 0.59869 0.0
C1214 C 0.87021 0.60743 0.61023 0.0
H1215 H 0.91275 0.48131 0.66397 0.0
H1216 H 0.91851 0.54147 0.64792 0.0
H1217 H 0.85814 0.5438 0.6175 0.0
H1218 H 0.83717 0.75018 0.59033 0.0
H1219 H 0.84232 0.68452 0.60408 0.0
H1220 H 0.91046 0.6817 0.62655 0.0
C1221 C 0.90017 0.52896 0.64971 0.0
C1222 C 0.86966 0.57369 0.61964 0.0
C1223 C 0.89687 0.4946 0.65891 0.0
C1224 C 0.85559 0.73874 0.59246 0.0
C1225 C 0.85853 0.70099 0.60029 0.0
C1226 C 0.89933 0.65128 0.6244 0.0
C1227 C 0.8801 0.54526 0.64243 0.0
C1228 C 0.88325 0.57893 0.63181 0.0
C1229 C 0.88204 0.68572 0.60364 0.0
C1230 C 0.88454 0.64714 0.61267 0.0
H1231 H 0.83497 0.48098 0.65562 0.0
H1232 H 0.84061 0.54098 0.63998 0.0
H1233 H 0.90936 0.62254 0.64318 0.0
H1234 H 0.91581 0.76336 0.58708 0.0
H1235 H 0.92098 0.69719 0.6011 0.0
C1236 C 0.87919 0.50617 0.08422 0.0
C1237 C 0.89142 0.46633 0.08767 0.0
C1238 C 0.88032 0.54611 0.09281 0.0
C1239 C 0.91591 0.60487 0.1207 0.0
H1240 H 0.8546 0.66822 0.12867 0.0
C1241 C 0.90535 0.78376 0.1505 0.0
C1242 C 0.88928 0.78327 0.16164 0.0
C1243 C 0.90696 0.74558 0.14116 0.0
C1244 C 0.8718 0.65091 0.1265 0.0
H1245 H 0.91588 0.43719 0.1021 0.0
H1246 H 0.9176 0.50712 0.11743 0.0
H1247 H 0.85517 0.60165 0.11242 0.0
H1248 H 0.86414 0.74166 0.1726 0.0
H1249 H 0.8659 0.6756 0.15586 0.0
H1250 H 0.93251 0.65563 0.13465 0.0
C1251 C 0.907 0.50746 0.10812 0.0
C1252 C 0.87218 0.61275 0.11722 0.0
C1253 C 0.90587 0.46746 0.09947 0.0
C1254 C 0.87566 0.74353 0.16368 0.0
C1255 C 0.87692 0.70571 0.15424 0.0
C1256 C 0.91559 0.64387 0.12981 0.0
C1257 C 0.89403 0.54705 0.10493 0.0
C1258 C 0.89413 0.58884 0.11436 0.0
C1259 C 0.89255 0.70651 0.14291 0.0
C1260 C 0.89343 0.66672 0.13288 0.0
H1261 H 0.86876 0.50642 0.07484 0.0
H1262 H 0.87052 0.57631 0.08994 0.0
H1263 H 0.93317 0.58748 0.11856 0.0
H1264 H 0.91652 0.81376 0.14899 0.0
H1265 H 0.91916 0.74674 0.13249 0.0
C1266 C 0.90154 0.99771 0.15993 0.0
C1267 C 0.87761 0.98303 0.16277 0.0
C1268 C 0.90531 0.03492 0.15179 0.0
C1269 C 0.87441 0.13698 0.13984 0.0
H1270 H 0.91403 0.1197 0.10709 0.0
C1271 C 0.85742 0.24538 0.09505 0.0
C1272 C 0.8775 0.26526 0.08866 0.0
C1273 C 0.86095 0.21154 0.1042 0.0
C1274 C 0.90323 0.12531 0.1163 0.0
H1275 H 0.83897 0.99669 0.15975 0.0
H1276 H 0.84551 0.06163 0.14591 0.0
H1277 H 0.91447 0.06122 0.12398 0.0
H1278 H 0.91703 0.26323 0.08634 0.0
H1279 H 0.92322 0.20337 0.10249 0.0
H1280 H 0.86268 0.20022 0.13217 0.0
C1281 C 0.86137 0.04447 0.14985 0.0
C1282 C 0.90352 0.09195 0.12596 0.0
C1283 C 0.85762 0.0071 0.15773 0.0
C1284 C 0.90119 0.24851 0.09108 0.0
C1285 C 0.90474 0.21439 0.10034 0.0
C1286 C 0.87418 0.17016 0.13026 0.0
C1287 C 0.8852 0.05852 0.14665 0.0
C1288 C 0.88847 0.09686 0.1376 0.0
C1289 C 0.88465 0.19665 0.1073 0.0
C1290 C 0.88789 0.164 0.11816 0.0
H1291 H 0.91728 0.97953 0.16359 0.0
H1292 H 0.92386 0.04516 0.14949 0.0
H1293 H 0.86297 0.14204 0.14883 0.0
H1294 H 0.83888 0.25689 0.09327 0.0
H1295 H 0.84503 0.19758 0.10907 0.0
C1296 C 0.62752 0.74892 0.83645 0.0
C1297 C 0.61409 0.70941 0.83899 0.0
C1298 C 0.62676 0.78741 0.84564 0.0
C1299 C 0.58976 0.84661 0.87242 0.0
H1300 H 0.65171 0.90124 0.88401 0.0
C1301 C 0.60053 0.02531 0.90179 0.0
C1302 C 0.61631 0.02645 0.91307 0.0
C1303 C 0.59888 0.98569 0.89302 0.0
C1304 C 0.63431 0.88645 0.88084 0.0
H1305 H 0.58788 0.67971 0.85241 0.0
H1306 H 0.58649 0.74746 0.86867 0.0
H1307 H 0.65142 0.83506 0.86763 0.0
H1308 H 0.64083 0.98646 0.9249 0.0
H1309 H 0.6388 0.91761 0.90925 0.0
H1310 H 0.57269 0.89973 0.88534 0.0
C1311 C 0.59793 0.74831 0.85968 0.0
C1312 C 0.63413 0.84845 0.87149 0.0
C1313 C 0.59884 0.70962 0.85049 0.0
C1314 C 0.62949 0.98691 0.91587 0.0
C1315 C 0.6281 0.94753 0.90703 0.0
C1316 C 0.58994 0.88557 0.88155 0.0
C1317 C 0.61207 0.78739 0.85738 0.0
C1318 C 0.61191 0.82791 0.86726 0.0
C1319 C 0.61288 0.94668 0.89549 0.0
C1320 C 0.61228 0.90561 0.88587 0.0
H1321 H 0.63852 0.7501 0.82729 0.0
H1322 H 0.6375 0.81738 0.8435 0.0
H1323 H 0.57235 0.83162 0.86921 0.0
H1324 H 0.58973 0.05522 0.89969 0.0
H1325 H 0.58706 0.98581 0.88417 0.0
C1326 C 0.60558 0.24305 0.9089 0.0
C1327 C 0.6291 0.22384 0.91009 0.0
C1328 C 0.60124 0.27645 0.89951 0.0
C1329 C 0.62746 0.31653 0.86769 0.0
H1330 H 0.59186 0.42993 0.87625 0.0
C1331 C 0.64473 0.4798 0.84035 0.0
C1332 C 0.62482 0.50657 0.83651 0.0
C1333 C 0.64104 0.44186 0.84802 0.0
C1334 C 0.60144 0.39799 0.87364 0.0
H1335 H 0.66674 0.22686 0.90295 0.0
H1336 H 0.65926 0.28485 0.88694 0.0
H1337 H 0.59336 0.37107 0.89297 0.0
H1338 H 0.58533 0.51433 0.83753 0.0
H1339 H 0.57887 0.44781 0.85129 0.0
H1340 H 0.63642 0.34398 0.84866 0.0
C1341 C 0.64399 0.27336 0.8929 0.0
C1342 C 0.60233 0.36437 0.8832 0.0
C1343 C 0.6483 0.24025 0.90218 0.0
C1344 C 0.60098 0.49399 0.84026 0.0
C1345 C 0.59731 0.45628 0.8482 0.0
C1346 C 0.62667 0.35003 0.85821 0.0
C1347 C 0.62033 0.29105 0.89117 0.0
C1348 C 0.61608 0.32398 0.88049 0.0
C1349 C 0.61737 0.43007 0.85221 0.0
C1350 C 0.61432 0.39169 0.86125 0.0
H1351 H 0.59039 0.23111 0.91482 0.0
H1352 H 0.58282 0.28965 0.89845 0.0
H1353 H 0.63766 0.28523 0.86514 0.0
H1354 H 0.66331 0.48867 0.83761 0.0
H1355 H 0.65688 0.42262 0.85107 0.0
C1356 C 0.59771 0.21791 0.34908 0.0
C1357 C 0.61243 0.21867 0.33743 0.0
C1358 C 0.59569 0.2571 0.35798 0.0
C1359 C 0.6074 0.38332 0.36069 0.0
H1360 H 0.60744 0.36513 0.3994 0.0
C1361 C 0.59758 0.53544 0.40082 0.0
C1362 C 0.61225 0.53418 0.41247 0.0
C1363 C 0.59595 0.49685 0.39164 0.0
C1364 C 0.60768 0.3709 0.38863 0.0
H1365 H 0.63432 0.26137 0.32496 0.0
H1366 H 0.6318 0.32943 0.34071 0.0
H1367 H 0.60827 0.29884 0.38312 0.0
H1368 H 0.6347 0.49124 0.42455 0.0
H1369 H 0.63282 0.42436 0.40835 0.0
H1370 H 0.60831 0.45544 0.36623 0.0
C1371 C 0.62185 0.29888 0.34314 0.0
C1372 C 0.60771 0.33279 0.37927 0.0
C1373 C 0.62371 0.25976 0.33424 0.0
C1374 C 0.62407 0.49328 0.4153 0.0
C1375 C 0.62259 0.4548 0.40614 0.0
C1376 C 0.60776 0.42146 0.37005 0.0
C1377 C 0.60817 0.29781 0.35526 0.0
C1378 C 0.60754 0.3385 0.36518 0.0
C1379 C 0.60873 0.45624 0.39411 0.0
C1380 C 0.60788 0.41571 0.38414 0.0
H1381 H 0.58818 0.18676 0.35143 0.0
H1382 H 0.58441 0.25541 0.367 0.0
H1383 H 0.60699 0.38907 0.34992 0.0
H1384 H 0.5877 0.56644 0.39872 0.0
H1385 H 0.58459 0.4988 0.38267 0.0
C1386 C 0.64838 0.75962 0.40898 0.0
C1387 C 0.628 0.73546 0.41354 0.0
C1388 C 0.64526 0.79756 0.40125 0.0
C1389 C 0.60478 0.84578 0.37676 0.0
H1390 H 0.64442 0.95503 0.38422 0.0
C1391 C 0.60722 0.00188 0.34206 0.0
C1392 C 0.63057 0.02118 0.3403 0.0
C1393 C 0.60379 0.96779 0.35133 0.0
C1394 C 0.63332 0.92465 0.38193 0.0
H1395 H 0.58829 0.73234 0.41366 0.0
H1396 H 0.58282 0.79881 0.39978 0.0
H1397 H 0.64363 0.89576 0.40054 0.0
H1398 H 0.66883 0.01766 0.34623 0.0
H1399 H 0.66296 0.95817 0.36199 0.0
H1400 H 0.59524 0.87407 0.35784 0.0
C1401 C 0.60119 0.78829 0.40237 0.0
C1402 C 0.63278 0.89087 0.39133 0.0
C1403 C 0.60432 0.7506 0.41038 0.0
C1404 C 0.65051 0.00413 0.34747 0.0
C1405 C 0.64712 0.97019 0.35662 0.0
C1406 C 0.60545 0.87962 0.36726 0.0
C1407 C 0.62169 0.81195 0.39769 0.0
C1408 C 0.61904 0.85054 0.38869 0.0
C1409 C 0.62366 0.95243 0.35896 0.0
C1410 C 0.62033 0.9188 0.36957 0.0
H1411 H 0.66686 0.7488 0.41126 0.0
H1412 H 0.6614 0.81483 0.39767 0.0
H1413 H 0.59412 0.81487 0.37445 0.0
H1414 H 0.59147 0.01439 0.33671 0.0
H1415 H 0.58548 0.95469 0.35288 0.0
C1416 C 0.37959 0.24029 0.16611 0.0
C1417 C 0.39274 0.27978 0.16323 0.0
C1418 C 0.38037 0.20124 0.15711 0.0
C1419 C 0.39506 0.16591 0.12121 0.0
H1420 H 0.39243 0.04329 0.13423 0.0
C1421 C 0.37878 0.00531 0.08509 0.0
C1422 C 0.3908 0.96464 0.08797 0.0
C1423 C 0.37991 0.0438 0.09427 0.0
C1424 C 0.39348 0.07727 0.13042 0.0
H1425 H 0.41886 0.30875 0.14964 0.0
H1426 H 0.4206 0.24026 0.13387 0.0
H1427 H 0.39377 0.10972 0.15057 0.0
H1428 H 0.41526 0.93282 0.10186 0.0
H1429 H 0.41761 0.00043 0.11798 0.0
H1430 H 0.39564 0.13348 0.10108 0.0
C1431 C 0.40884 0.23987 0.14274 0.0
C1432 C 0.39388 0.1154 0.13979 0.0
C1433 C 0.40798 0.27893 0.15175 0.0
C1434 C 0.40525 0.96363 0.09971 0.0
C1435 C 0.40646 0.00217 0.10892 0.0
C1436 C 0.39492 0.1278 0.11185 0.0
C1437 C 0.39473 0.20082 0.14521 0.0
C1438 C 0.39465 0.16018 0.13529 0.0
C1439 C 0.39354 0.04253 0.10638 0.0
C1440 C 0.39408 0.08303 0.11634 0.0
H1441 H 0.36847 0.23985 0.17524 0.0
H1442 H 0.3692 0.17192 0.15932 0.0
H1443 H 0.39521 0.19992 0.11738 0.0
H1444 H 0.36828 0.00714 0.07578 0.0
H1445 H 0.36962 0.07414 0.09201 0.0
C1446 C 0.38559 0.52068 0.1645 0.0
C1447 C 0.38725 0.47458 0.15948 0.0
C1448 C 0.3888 0.55613 0.15566 0.0
C1449 C 0.37943 0.57534 0.11978 0.0
H1450 H 0.41325 0.69116 0.12763 0.0
C1451 C 0.35783 0.73934 0.09271 0.0
C1452 C 0.37762 0.76429 0.08779 0.0
C1453 C 0.36188 0.70243 0.10077 0.0
C1454 C 0.40394 0.65876 0.12527 0.0
H1455 H 0.39581 0.42919 0.1418 0.0
H1456 H 0.40106 0.49061 0.12638 0.0
H1457 H 0.41629 0.63026 0.14369 0.0
H1458 H 0.41724 0.77006 0.0874 0.0
H1459 H 0.42434 0.70557 0.10181 0.0
H1460 H 0.36648 0.60405 0.10162 0.0
C1461 C 0.39681 0.49959 0.137 0.0
C1462 C 0.40551 0.62416 0.13449 0.0
C1463 C 0.39369 0.46443 0.14579 0.0
C1464 C 0.40165 0.75113 0.09095 0.0
C1465 C 0.40571 0.71461 0.09927 0.0
C1466 C 0.37758 0.61002 0.1107 0.0
C1467 C 0.39363 0.54575 0.14172 0.0
C1468 C 0.39316 0.58217 0.13184 0.0
C1469 C 0.38582 0.69008 0.10429 0.0
C1470 C 0.38963 0.65219 0.1134 0.0
H1471 H 0.38059 0.52919 0.17503 0.0
H1472 H 0.38619 0.59142 0.15957 0.0
H1473 H 0.36948 0.54355 0.11752 0.0
H1474 H 0.33911 0.74869 0.09046 0.0
H1475 H 0.34622 0.68429 0.10457 0.0
C1476 C 0.40665 0.78547 0.65021 0.0
C1477 C 0.39213 0.78462 0.66194 0.0
C1478 C 0.40807 0.74667 0.6411 0.0
C1479 C 0.39554 0.62082 0.63821 0.0
H1480 H 0.39573 0.63904 0.59951 0.0
C1481 C 0.37874 0.51027 0.5837 0.0
C1482 C 0.39004 0.4691 0.58678 0.0
C1483 C 0.38052 0.54915 0.59271 0.0
C1484 C 0.39543 0.63327 0.61027 0.0
H1485 H 0.36982 0.7421 0.67425 0.0
H1486 H 0.37133 0.67485 0.65818 0.0
H1487 H 0.39512 0.70539 0.61582 0.0
H1488 H 0.41418 0.43682 0.60073 0.0
H1489 H 0.41786 0.50503 0.61647 0.0
H1490 H 0.39434 0.54877 0.63269 0.0
C1491 C 0.3816 0.70514 0.65584 0.0
C1492 C 0.3955 0.6714 0.61965 0.0
C1493 C 0.38033 0.74383 0.66494 0.0
C1494 C 0.40464 0.46801 0.59846 0.0
C1495 C 0.40659 0.50695 0.60747 0.0
C1496 C 0.39506 0.58272 0.62885 0.0
C1497 C 0.39522 0.70624 0.64371 0.0
C1498 C 0.39561 0.66566 0.63374 0.0
C1499 C 0.39419 0.54779 0.60482 0.0
C1500 C 0.39506 0.58844 0.61476 0.0
H1501 H 0.41653 0.81636 0.64798 0.0
H1502 H 0.41927 0.74836 0.63205 0.0
H1503 H 0.39592 0.61501 0.64898 0.0
H1504 H 0.36823 0.51217 0.57441 0.0
H1505 H 0.37062 0.57979 0.59034 0.0
C1506 C 0.3961 0.25261 0.59079 0.0
C1507 C 0.37267 0.27132 0.58889 0.0
C1508 C 0.39955 0.21844 0.60003 0.0
C1509 C 0.36965 0.17431 0.63039 0.0
H1510 H 0.40987 0.06573 0.62318 0.0
C1511 C 0.35544 0.0093 0.65758 0.0
C1512 C 0.37593 0.98584 0.66228 0.0
C1513 C 0.35839 0.04711 0.64976 0.0
C1514 C 0.39892 0.09631 0.62541 0.0
H1515 H 0.3343 0.26663 0.59452 0.0
H1516 H 0.3402 0.20699 0.61024 0.0
H1517 H 0.40862 0.12485 0.60655 0.0
H1518 H 0.41565 0.98384 0.66257 0.0
H1519 H 0.42083 0.0501 0.64857 0.0
H1520 H 0.35922 0.14519 0.64895 0.0
C1521 C 0.35608 0.21953 0.605 0.0
C1522 C 0.39817 0.13009 0.6159 0.0
C1523 C 0.35267 0.25356 0.59588 0.0
C1524 C 0.39954 0.00155 0.65917 0.0
C1525 C 0.40251 0.03912 0.65109 0.0
C1526 C 0.37028 0.14059 0.6398 0.0
C1527 C 0.37962 0.20241 0.60749 0.0
C1528 C 0.38294 0.16883 0.61811 0.0
C1529 C 0.38191 0.0621 0.64628 0.0
C1530 C 0.38439 0.10068 0.63726 0.0
H1531 H 0.41189 0.26567 0.58558 0.0
H1532 H 0.41791 0.20585 0.6017 0.0
H1533 H 0.35828 0.20435 0.6326 0.0
H1534 H 0.33701 0.99807 0.65981 0.0
H1535 H 0.34218 0.06383 0.64609 0.0
loop_
_geom_bond_atom_site_label_1
_geom_bond_atom_site_label_2
_geom_bond_distance
_geom_bond_site_symmetry_2
_ccdc_geom_bond_type
Mn0 O5 2.095 . S
Mn0 O15 2.162 . S
Mn0 O16 2.297 . S
Mn0 O24 2.385 . S
Mn0 O25 2.209 . S
Mn0 O26 2.094 . S
Mn1 O6 2.121 . S
Mn1 N8 2.257 . S
Mn1 N17 2.282 . S
Mn1 O25 2.215 . S
Mn1 O27 2.117 . S
C2 O24 1.234 . S
C2 O25 1.283 . S
C3 O15 1.281 . S
C3 O16 1.236 . S
C4 O26 1.240 . S
C4 O27 1.264 . S
O5 Mn0 2.095 . S
O5 C14 1.250 . S
O6 Mn1 2.121 . S
O6 C14 1.258 . S
C7 N8 1.326 . S
C7 C11 1.460 . S
C7 H13 0.929 . S
N8 Mn1 2.257 . S
N8 C7 1.326 . S
N8 C12 1.362 . S
C9 C10 1.258 . S
C9 C12 1.431 . S
C9 C29 1.449 1_545 S
C10 C9 1.258 . S
C10 C11 1.477 . S
C10 H30 0.931 1_545 S
C11 C7 1.460 . S
C11 C10 1.477 . S
C11 H31 0.930 . S
C12 N8 1.362 . S
C12 C9 1.431 . S
C12 C22 1.476 . S
H13 C7 0.929 . S
C14 O5 1.250 . S
C14 O6 1.258 . S
O15 Mn0 2.162 . S
O15 C3 1.281 . S
O16 Mn0 2.297 . S
O16 C3 1.236 . S
N17 Mn1 2.282 . S
N17 C18 1.328 . S
N17 C22 1.318 . S
C18 N17 1.328 . S
C18 C19 1.457 . S
C18 H23 0.929 . S
C19 C18 1.457 . S
C19 C20 1.291 . S
C19 H32 0.931 . S
C20 C19 1.291 . S
C20 C21 1.373 . S
C20 H33 0.929 . S
C21 C20 1.373 . S
C21 C22 1.396 . S
C21 C28 1.403 . S
C22 C12 1.476 . S
C22 N17 1.318 . S
C22 C21 1.396 . S
H23 C18 0.929 . S
O24 Mn0 2.385 . S
O24 C2 1.234 . S
O25 Mn0 2.209 . S
O25 Mn1 2.215 . S
O25 C2 1.283 . S
O26 Mn0 2.094 . S
O26 C4 1.240 . S
O27 Mn1 2.117 . S
O27 C4 1.264 . S
C28 C21 1.403 . S
C28 C29 1.399 1_545 S
C28 H34 0.929 1_545 S
C29 C9 1.449 1_565 S
C29 C28 1.399 1_565 S
C29 H35 0.930 . S
H30 C10 0.931 1_565 S
H31 C11 0.930 . S
H32 C19 0.931 . S
H33 C20 0.929 . S
H34 C28 0.929 1_565 S
H35 C29 0.930 . S
Mn36 O41 2.095 . S
Mn36 O51 2.162 . S
Mn36 O52 2.297 . S
Mn36 O60 2.385 . S
Mn36 O61 2.209 . S
Mn36 O62 2.094 . S
Mn37 O42 2.121 . S
Mn37 N44 2.257 . S
Mn37 N53 2.282 . S
Mn37 O61 2.215 . S
Mn37 O63 2.117 . S
C38 O60 1.234 . S
C38 O61 1.283 . S
C39 O51 1.281 . S
C39 O52 1.236 . S
C40 O62 1.240 . S
C40 O63 1.264 . S
O41 Mn36 2.095 . S
O41 C50 1.250 . S
O42 Mn37 2.121 . S
O42 C50 1.258 . S
C43 N44 1.326 . S
C43 C47 1.460 . S
C43 H49 0.929 . S
N44 Mn37 2.257 . S
N44 C43 1.326 . S
N44 C48 1.362 . S
C45 C46 1.258 . S
C45 C48 1.431 . S
C45 C65 1.449 . S
C46 C45 1.258 . S
C46 C47 1.477 . S
C46 H66 0.931 . S
C47 C43 1.460 . S
C47 C46 1.477 . S
C47 H67 0.930 . S
C48 N44 1.362 . S
C48 C45 1.431 . S
C48 C58 1.476 . S
H49 C43 0.929 . S
C50 O41 1.250 . S
C50 O42 1.258 . S
O51 Mn36 2.162 . S
O51 C39 1.281 . S
O52 Mn36 2.297 . S
O52 C39 1.236 . S
N53 Mn37 2.282 . S
N53 C54 1.328 . S
N53 C58 1.318 . S
C54 N53 1.328 . S
C54 C55 1.457 . S
C54 H59 0.929 . S
C55 C54 1.457 . S
C55 C56 1.291 . S
C55 H68 0.931 . S
C56 C55 1.291 . S
C56 C57 1.373 . S
C56 H69 0.929 . S
C57 C56 1.373 . S
C57 C58 1.396 . S
C57 C64 1.403 . S
C58 C48 1.476 . S
C58 N53 1.318 . S
C58 C57 1.396 . S
H59 C54 0.929 . S
O60 Mn36 2.385 . S
O60 C38 1.234 . S
O61 Mn36 2.209 . S
O61 Mn37 2.215 . S
O61 C38 1.283 . S
O62 Mn36 2.094 . S
O62 C40 1.240 . S
O63 Mn37 2.117 . S
O63 C40 1.264 . S
C64 C57 1.403 . S
C64 C65 1.399 . S
C64 H70 0.929 . S
C65 C45 1.449 . S
C65 C64 1.399 . S
C65 H71 0.930 . S
H66 C46 0.931 . S
H67 C47 0.930 . S
H68 C55 0.931 . S
H69 C56 0.929 . S
H70 C64 0.929 . S
H71 C65 0.930 . S
Mn72 O77 2.095 . S
Mn72 O87 2.162 . S
Mn72 O88 2.297 . S
Mn72 O96 2.385 . S
Mn72 O97 2.209 . S
Mn72 O98 2.094 . S
Mn73 O78 2.121 . S
Mn73 N80 2.257 . S
Mn73 N89 2.282 . S
Mn73 O97 2.215 . S
Mn73 O99 2.117 . S
C74 O96 1.234 . S
C74 O97 1.283 . S
C75 O87 1.281 . S
C75 O88 1.236 . S
C76 O98 1.240 . S
C76 O99 1.264 . S
O77 Mn72 2.095 . S
O77 C86 1.250 . S
O78 Mn73 2.121 . S
O78 C86 1.258 . S
C79 N80 1.326 . S
C79 C83 1.460 . S
C79 H85 0.929 . S
N80 Mn73 2.257 . S
N80 C79 1.326 . S
N80 C84 1.362 . S
C81 C82 1.258 . S
C81 C84 1.431 . S
C81 C101 1.449 1_565 S
C82 C81 1.258 . S
C82 C83 1.477 . S
C82 H102 0.931 1_565 S
C83 C79 1.460 . S
C83 C82 1.477 . S
C83 H103 0.930 . S
C84 N80 1.362 . S
C84 C81 1.431 . S
C84 C94 1.476 . S
H85 C79 0.929 . S
C86 O77 1.250 . S
C86 O78 1.258 . S
O87 Mn72 2.162 . S
O87 C75 1.281 . S
O88 Mn72 2.297 . S
O88 C75 1.236 . S
N89 Mn73 2.282 . S
N89 C90 1.328 . S
N89 C94 1.318 . S
C90 N89 1.328 . S
C90 C91 1.457 . S
C90 H95 0.929 . S
C91 C90 1.457 . S
C91 C92 1.291 . S
C91 H104 0.931 . S
C92 C91 1.291 . S
C92 C93 1.373 . S
C92 H105 0.929 . S
C93 C92 1.373 . S
C93 C94 1.396 . S
C93 C100 1.403 . S
C94 C84 1.476 . S
C94 N89 1.318 . S
C94 C93 1.396 . S
H95 C90 0.929 . S
O96 Mn72 2.385 . S
O96 C74 1.234 . S
O97 Mn72 2.209 . S
O97 Mn73 2.215 . S
O97 C74 1.283 . S
O98 Mn72 2.094 . S
O98 C76 1.240 . S
O99 Mn73 2.117 . S
O99 C76 1.264 . S
C100 C93 1.403 . S
C100 C101 1.399 1_565 S
C100 H106 0.929 1_565 S
C101 C81 1.449 1_545 S
C101 C100 1.399 1_545 S
C101 H107 0.930 . S
H102 C82 0.931 1_545 S
H103 C83 0.930 . S
H104 C91 0.931 . S
H105 C92 0.929 . S
H106 C100 0.929 1_545 S
H107 C101 0.930 . S
Mn108 O113 2.095 . S
Mn108 O123 2.162 . S
Mn108 O124 2.297 . S
Mn108 O132 2.385 . S
Mn108 O133 2.209 . S
Mn108 O134 2.094 . S
Mn109 O114 2.121 . S
Mn109 N116 2.257 . S
Mn109 N125 2.282 . S
Mn109 O133 2.215 . S
Mn109 O135 2.117 . S
C110 O132 1.234 . S
C110 O133 1.283 . S
C111 O123 1.281 . S
C111 O124 1.236 . S
C112 O134 1.240 . S
C112 O135 1.264 . S
O113 Mn108 2.095 . S
O113 C122 1.250 . S
O114 Mn109 2.121 . S
O114 C122 1.258 . S
C115 N116 1.326 . S
C115 C119 1.460 . S
C115 H121 0.929 . S
N116 Mn109 2.257 . S
N116 C115 1.326 . S
N116 C120 1.362 . S
C117 C118 1.258 . S
C117 C120 1.431 . S
C117 C137 1.449 . S
C118 C117 1.258 . S
C118 C119 1.477 . S
C118 H138 0.931 . S
C119 C115 1.460 . S
C119 C118 1.477 . S
C119 H139 0.930 . S
C120 N116 1.362 . S
C120 C117 1.431 . S
C120 C130 1.476 . S
H121 C115 0.929 . S
C122 O113 1.250 . S
C122 O114 1.258 . S
O123 Mn108 2.162 . S
O123 C111 1.281 . S
O124 Mn108 2.297 . S
O124 C111 1.236 . S
N125 Mn109 2.282 . S
N125 C126 1.328 . S
N125 C130 1.318 . S
C126 N125 1.328 . S
C126 C127 1.457 . S
C126 H131 0.929 . S
C127 C126 1.457 . S
C127 C128 1.291 . S
C127 H140 0.931 . S
C128 C127 1.291 . S
C128 C129 1.373 . S
C128 H141 0.929 . S
C129 C128 1.373 . S
C129 C130 1.396 . S
C129 C136 1.403 . S
C130 C120 1.476 . S
C130 N125 1.318 . S
C130 C129 1.396 . S
H131 C126 0.929 . S
O132 Mn108 2.385 . S
O132 C110 1.234 . S
O133 Mn108 2.209 . S
O133 Mn109 2.215 . S
O133 C110 1.283 . S
O134 Mn108 2.094 . S
O134 C112 1.240 . S
O135 Mn109 2.117 . S
O135 C112 1.264 . S
C136 C129 1.403 . S
C136 C137 1.399 . S
C136 H142 0.929 . S
C137 C117 1.449 . S
C137 C136 1.399 . S
C137 H143 0.930 . S
H138 C118 0.931 . S
H139 C119 0.930 . S
H140 C127 0.931 . S
H141 C128 0.929 . S
H142 C136 0.929 . S
H143 C137 0.930 . S
Mn144 O149 2.095 . S
Mn144 O159 2.162 . S
Mn144 O160 2.297 . S
Mn144 O168 2.385 . S
Mn144 O169 2.209 . S
Mn144 O170 2.094 . S
Mn145 O150 2.121 . S
Mn145 N152 2.257 . S
Mn145 N161 2.282 . S
Mn145 O169 2.215 . S
Mn145 O171 2.117 . S
C146 O168 1.234 . S
C146 O169 1.283 . S
C147 O159 1.281 . S
C147 O160 1.236 . S
C148 O170 1.240 . S
C148 O171 1.264 . S
O149 Mn144 2.095 . S
O149 C158 1.250 . S
O150 Mn145 2.121 . S
O150 C158 1.258 . S
C151 N152 1.326 . S
C151 C155 1.460 . S
C151 H157 0.929 . S
N152 Mn145 2.257 . S
N152 C151 1.326 . S
N152 C156 1.362 . S
C153 C154 1.258 . S
C153 C156 1.431 . S
C153 C173 1.449 . S
C154 C153 1.258 . S
C154 C155 1.477 . S
C154 H174 0.931 . S
C155 C151 1.460 . S
C155 C154 1.477 . S
C155 H175 0.930 . S
C156 N152 1.362 . S
C156 C153 1.431 . S
C156 C166 1.476 . S
H157 C151 0.929 . S
C158 O149 1.250 . S
C158 O150 1.258 . S
O159 Mn144 2.162 . S
O159 C147 1.281 . S
O160 Mn144 2.297 . S
O160 C147 1.236 . S
N161 Mn145 2.282 . S
N161 C162 1.328 . S
N161 C166 1.318 . S
C162 N161 1.328 . S
C162 C163 1.457 . S
C162 H167 0.929 . S
C163 C162 1.457 . S
C163 C164 1.291 . S
C163 H176 0.931 . S
C164 C163 1.291 . S
C164 C165 1.373 . S
C164 H177 0.929 . S
C165 C164 1.373 . S
C165 C166 1.396 . S
C165 C172 1.403 . S
C166 C156 1.476 . S
C166 N161 1.318 . S
C166 C165 1.396 . S
H167 C162 0.929 . S
O168 Mn144 2.385 . S
O168 C146 1.234 . S
O169 Mn144 2.209 . S
O169 Mn145 2.215 . S
O169 C146 1.283 . S
O170 Mn144 2.094 . S
O170 C148 1.240 . S
O171 Mn145 2.117 . S
O171 C148 1.264 . S
C172 C165 1.403 . S
C172 C173 1.399 . S
C172 H178 0.929 . S
C173 C153 1.449 . S
C173 C172 1.399 . S
C173 H179 0.930 . S
H174 C154 0.931 . S
H175 C155 0.930 . S
H176 C163 0.931 . S
H177 C164 0.929 . S
H178 C172 0.929 . S
H179 C173 0.930 . S
Mn180 O185 2.095 . S
Mn180 O195 2.162 . S
Mn180 O196 2.297 . S
Mn180 O204 2.385 . S
Mn180 O205 2.209 . S
Mn180 O206 2.094 . S
Mn181 O186 2.121 . S
Mn181 N188 2.257 . S
Mn181 N197 2.282 . S
Mn181 O205 2.215 . S
Mn181 O207 2.117 . S
C182 O204 1.234 . S
C182 O205 1.283 . S
C183 O195 1.281 . S
C183 O196 1.236 . S
C184 O206 1.240 . S
C184 O207 1.264 . S
O185 Mn180 2.095 . S
O185 C194 1.250 . S
O186 Mn181 2.121 . S
O186 C194 1.258 . S
C187 N188 1.326 . S
C187 C191 1.460 . S
C187 H193 0.929 . S
N188 Mn181 2.257 . S
N188 C187 1.326 . S
N188 C192 1.362 . S
C189 C190 1.258 . S
C189 C192 1.431 . S
C189 C209 1.449 . S
C190 C189 1.258 . S
C190 C191 1.477 . S
C190 H210 0.931 . S
C191 C187 1.460 . S
C191 C190 1.477 . S
C191 H211 0.930 . S
C192 N188 1.362 . S
C192 C189 1.431 . S
C192 C202 1.476 . S
H193 C187 0.929 . S
C194 O185 1.250 . S
C194 O186 1.258 . S
O195 Mn180 2.162 . S
O195 C183 1.281 . S
O196 Mn180 2.297 . S
O196 C183 1.236 . S
N197 Mn181 2.282 . S
N197 C198 1.328 . S
N197 C202 1.318 . S
C198 N197 1.328 . S
C198 C199 1.457 . S
C198 H203 0.929 . S
C199 C198 1.457 . S
C199 C200 1.291 . S
C199 H212 0.931 . S
C200 C199 1.291 . S
C200 C201 1.373 . S
C200 H213 0.929 . S
C201 C200 1.373 . S
C201 C202 1.396 . S
C201 C208 1.403 . S
C202 C192 1.476 . S
C202 N197 1.318 . S
C202 C201 1.396 . S
H203 C198 0.929 . S
O204 Mn180 2.385 . S
O204 C182 1.234 . S
O205 Mn180 2.209 . S
O205 Mn181 2.215 . S
O205 C182 1.283 . S
O206 Mn180 2.094 . S
O206 C184 1.240 . S
O207 Mn181 2.117 . S
O207 C184 1.264 . S
C208 C201 1.403 . S
C208 C209 1.399 . S
C208 H214 0.929 . S
C209 C189 1.449 . S
C209 C208 1.399 . S
C209 H215 0.930 . S
H210 C190 0.931 . S
H211 C191 0.930 . S
H212 C199 0.931 . S
H213 C200 0.929 . S
H214 C208 0.929 . S
H215 C209 0.930 . S
Mn216 O221 2.095 . S
Mn216 O231 2.162 . S
Mn216 O232 2.297 . S
Mn216 O240 2.385 . S
Mn216 O241 2.209 . S
Mn216 O242 2.094 . S
Mn217 O222 2.121 . S
Mn217 N224 2.257 . S
Mn217 N233 2.282 . S
Mn217 O241 2.215 . S
Mn217 O243 2.117 . S
C218 O240 1.234 . S
C218 O241 1.283 . S
C219 O231 1.281 . S
C219 O232 1.236 . S
C220 O242 1.240 . S
C220 O243 1.264 . S
O221 Mn216 2.095 . S
O221 C230 1.250 . S
O222 Mn217 2.121 . S
O222 C230 1.258 . S
C223 N224 1.326 . S
C223 C227 1.460 . S
C223 H229 0.929 . S
N224 Mn217 2.257 . S
N224 C223 1.326 . S
N224 C228 1.362 . S
C225 C226 1.258 . S
C225 C228 1.431 . S
C225 C245 1.449 . S
C226 C225 1.258 . S
C226 C227 1.477 . S
C226 H246 0.931 . S
C227 C223 1.460 . S
C227 C226 1.477 . S
C227 H247 0.930 . S
C228 N224 1.362 . S
C228 C225 1.431 . S
C228 C238 1.476 . S
H229 C223 0.929 . S
C230 O221 1.250 . S
C230 O222 1.258 . S
O231 Mn216 2.162 . S
O231 C219 1.281 . S
O232 Mn216 2.297 . S
O232 C219 1.236 . S
N233 Mn217 2.282 . S
N233 C234 1.328 . S
N233 C238 1.318 . S
C234 N233 1.328 . S
C234 C235 1.457 . S
C234 H239 0.929 . S
C235 C234 1.457 . S
C235 C236 1.291 . S
C235 H248 0.931 . S
C236 C235 1.291 . S
C236 C237 1.373 . S
C236 H249 0.929 . S
C237 C236 1.373 . S
C237 C238 1.396 . S
C237 C244 1.403 . S
C238 C228 1.476 . S
C238 N233 1.318 . S
C238 C237 1.396 . S
H239 C234 0.929 . S
O240 Mn216 2.385 . S
O240 C218 1.234 . S
O241 Mn216 2.209 . S
O241 Mn217 2.215 . S
O241 C218 1.283 . S
O242 Mn216 2.094 . S
O242 C220 1.240 . S
O243 Mn217 2.117 . S
O243 C220 1.264 . S
C244 C237 1.403 . S
C244 C245 1.399 . S
C244 H250 0.929 . S
C245 C225 1.449 . S
C245 C244 1.399 . S
C245 H251 0.930 . S
H246 C226 0.931 . S
H247 C227 0.930 . S
H248 C235 0.931 . S
H249 C236 0.929 . S
H250 C244 0.929 . S
H251 C245 0.930 . S
Mn252 O257 2.095 . S
Mn252 O267 2.162 . S
Mn252 O268 2.297 . S
Mn252 O276 2.385 . S
Mn252 O277 2.209 . S
Mn252 O278 2.094 . S
Mn253 O258 2.121 . S
Mn253 N260 2.257 . S
Mn253 N269 2.282 . S
Mn253 O277 2.215 . S
Mn253 O279 2.117 . S
C254 O276 1.234 . S
C254 O277 1.283 . S
C255 O267 1.281 . S
C255 O268 1.236 . S
C256 O278 1.240 . S
C256 O279 1.264 . S
O257 Mn252 2.095 . S
O257 C266 1.250 . S
O258 Mn253 2.121 . S
O258 C266 1.258 . S
C259 N260 1.326 . S
C259 C263 1.460 . S
C259 H265 0.929 . S
N260 Mn253 2.257 . S
N260 C259 1.326 . S
N260 C264 1.362 . S
C261 C262 1.258 . S
C261 C264 1.431 . S
C261 C281 1.449 . S
C262 C261 1.258 . S
C262 C263 1.477 . S
C262 H282 0.931 . S
C263 C259 1.460 . S
C263 C262 1.477 . S
C263 H283 0.930 . S
C264 N260 1.362 . S
C264 C261 1.431 . S
C264 C274 1.476 . S
H265 C259 0.929 . S
C266 O257 1.250 . S
C266 O258 1.258 . S
O267 Mn252 2.162 . S
O267 C255 1.281 . S
O268 Mn252 2.297 . S
O268 C255 1.236 . S
N269 Mn253 2.282 . S
N269 C270 1.328 . S
N269 C274 1.318 . S
C270 N269 1.328 . S
C270 C271 1.457 . S
C270 H275 0.929 . S
C271 C270 1.457 . S
C271 C272 1.291 . S
C271 H284 0.931 . S
C272 C271 1.291 . S
C272 C273 1.373 . S
C272 H285 0.929 . S
C273 C272 1.373 . S
C273 C274 1.396 . S
C273 C280 1.403 . S
C274 C264 1.476 . S
C274 N269 1.318 . S
C274 C273 1.396 . S
H275 C270 0.929 . S
O276 Mn252 2.385 . S
O276 C254 1.234 . S
O277 Mn252 2.209 . S
O277 Mn253 2.215 . S
O277 C254 1.283 . S
O278 Mn252 2.094 . S
O278 C256 1.240 . S
O279 Mn253 2.117 . S
O279 C256 1.264 . S
C280 C273 1.403 . S
C280 C281 1.399 . S
C280 H286 0.929 . S
C281 C261 1.449 . S
C281 C280 1.399 . S
C281 H287 0.930 . S
H282 C262 0.931 . S
H283 C263 0.930 . S
H284 C271 0.931 . S
H285 C272 0.929 . S
H286 C280 0.929 . S
H287 C281 0.930 . S
Mn288 O293 2.095 . S
Mn288 O303 2.162 . S
Mn288 O304 2.297 . S
Mn288 O312 2.385 . S
Mn288 O313 2.209 . S
Mn288 O314 2.094 . S
Mn289 O294 2.121 . S
Mn289 N296 2.257 . S
Mn289 N305 2.282 . S
Mn289 O313 2.215 . S
Mn289 O315 2.117 . S
C290 O312 1.234 . S
C290 O313 1.283 . S
C291 O303 1.281 . S
C291 O304 1.236 . S
C292 O314 1.240 . S
C292 O315 1.264 . S
O293 Mn288 2.095 . S
O293 C302 1.250 . S
O294 Mn289 2.121 . S
O294 C302 1.258 . S
C295 N296 1.326 . S
C295 C299 1.460 . S
C295 H301 0.929 . S
N296 Mn289 2.257 . S
N296 C295 1.326 . S
N296 C300 1.362 . S
C297 C298 1.258 . S
C297 C300 1.431 . S
C297 C317 1.449 1_545 S
C298 C297 1.258 . S
C298 C299 1.477 . S
C298 H318 0.931 1_545 S
C299 C295 1.460 . S
C299 C298 1.477 . S
C299 H319 0.930 . S
C300 N296 1.362 . S
C300 C297 1.431 . S
C300 C310 1.476 . S
H301 C295 0.929 . S
C302 O293 1.250 . S
C302 O294 1.258 . S
O303 Mn288 2.162 . S
O303 C291 1.281 . S
O304 Mn288 2.297 . S
O304 C291 1.236 . S
N305 Mn289 2.282 . S
N305 C306 1.328 . S
N305 C310 1.318 . S
C306 N305 1.328 . S
C306 C307 1.457 . S
C306 H311 0.929 . S
C307 C306 1.457 . S
C307 C308 1.291 . S
C307 H320 0.931 . S
C308 C307 1.291 . S
C308 C309 1.373 . S
C308 H321 0.929 . S
C309 C308 1.373 . S
C309 C310 1.396 . S
C309 C316 1.403 . S
C310 C300 1.476 . S
C310 N305 1.318 . S
C310 C309 1.396 . S
H311 C306 0.929 . S
O312 Mn288 2.385 . S
O312 C290 1.234 . S
O313 Mn288 2.209 . S
O313 Mn289 2.215 . S
O313 C290 1.283 . S
O314 Mn288 2.094 . S
O314 C292 1.240 . S
O315 Mn289 2.117 . S
O315 C292 1.264 . S
C316 C309 1.403 . S
C316 C317 1.399 1_545 S
C316 H322 0.929 1_545 S
C317 C297 1.449 1_565 S
C317 C316 1.399 1_565 S
C317 H323 0.930 . S
H318 C298 0.931 1_565 S
H319 C299 0.930 . S
H320 C307 0.931 . S
H321 C308 0.929 . S
H322 C316 0.929 1_565 S
H323 C317 0.930 . S
Mn324 O329 2.095 . S
Mn324 O339 2.162 . S
Mn324 O340 2.297 . S
Mn324 O348 2.385 . S
Mn324 O349 2.209 . S
Mn324 O350 2.094 . S
Mn325 O330 2.121 . S
Mn325 N332 2.257 . S
Mn325 N341 2.282 . S
Mn325 O349 2.215 . S
Mn325 O351 2.117 . S
C326 O348 1.234 . S
C326 O349 1.283 . S
C327 O339 1.281 . S
C327 O340 1.236 . S
C328 O350 1.240 . S
C328 O351 1.264 . S
O329 Mn324 2.095 . S
O329 C338 1.250 . S
O330 Mn325 2.121 . S
O330 C338 1.258 . S
C331 N332 1.326 . S
C331 C335 1.460 . S
C331 H337 0.929 . S
N332 Mn325 2.257 . S
N332 C331 1.326 . S
N332 C336 1.362 . S
C333 C334 1.258 . S
C333 C336 1.431 . S
C333 C353 1.449 . S
C334 C333 1.258 . S
C334 C335 1.477 . S
C334 H354 0.931 . S
C335 C331 1.460 . S
C335 C334 1.477 . S
C335 H355 0.930 . S
C336 N332 1.362 . S
C336 C333 1.431 . S
C336 C346 1.476 . S
H337 C331 0.929 . S
C338 O329 1.250 . S
C338 O330 1.258 . S
O339 Mn324 2.162 . S
O339 C327 1.281 . S
O340 Mn324 2.297 . S
O340 C327 1.236 . S
N341 Mn325 2.282 . S
N341 C342 1.328 . S
N341 C346 1.318 . S
C342 N341 1.328 . S
C342 C343 1.457 . S
C342 H347 0.929 . S
C343 C342 1.457 . S
C343 C344 1.291 . S
C343 H356 0.931 . S
C344 C343 1.291 . S
C344 C345 1.373 . S
C344 H357 0.929 . S
C345 C344 1.373 . S
C345 C346 1.396 . S
C345 C352 1.403 . S
C346 C336 1.476 . S
C346 N341 1.318 . S
C346 C345 1.396 . S
H347 C342 0.929 . S
O348 Mn324 2.385 . S
O348 C326 1.234 . S
O349 Mn324 2.209 . S
O349 Mn325 2.215 . S
O349 C326 1.283 . S
O350 Mn324 2.094 . S
O350 C328 1.240 . S
O351 Mn325 2.117 . S
O351 C328 1.264 . S
C352 C345 1.403 . S
C352 C353 1.399 . S
C352 H358 0.929 . S
C353 C333 1.449 . S
C353 C352 1.399 . S
C353 H359 0.930 . S
H354 C334 0.931 . S
H355 C335 0.930 . S
H356 C343 0.931 . S
H357 C344 0.929 . S
H358 C352 0.929 . S
H359 C353 0.930 . S
Mn360 O365 2.095 . S
Mn360 O375 2.162 . S
Mn360 O376 2.297 . S
Mn360 O384 2.385 . S
Mn360 O385 2.209 . S
Mn360 O386 2.094 . S
Mn361 O366 2.121 . S
Mn361 N368 2.257 . S
Mn361 N377 2.282 . S
Mn361 O385 2.215 . S
Mn361 O387 2.117 . S
C362 O384 1.234 . S
C362 O385 1.283 . S
C363 O375 1.281 . S
C363 O376 1.236 . S
C364 O386 1.240 . S
C364 O387 1.264 . S
O365 Mn360 2.095 . S
O365 C374 1.250 . S
O366 Mn361 2.121 . S
O366 C374 1.258 . S
C367 N368 1.326 . S
C367 C371 1.460 . S
C367 H373 0.929 . S
N368 Mn361 2.257 . S
N368 C367 1.326 . S
N368 C372 1.362 . S
C369 C370 1.258 . S
C369 C372 1.431 . S
C369 C389 1.449 1_565 S
C370 C369 1.258 . S
C370 C371 1.477 . S
C370 H390 0.931 1_565 S
C371 C367 1.460 . S
C371 C370 1.477 . S
C371 H391 0.930 . S
C372 N368 1.362 . S
C372 C369 1.431 . S
C372 C382 1.476 . S
H373 C367 0.929 . S
C374 O365 1.250 . S
C374 O366 1.258 . S
O375 Mn360 2.162 . S
O375 C363 1.281 . S
O376 Mn360 2.297 . S
O376 C363 1.236 . S
N377 Mn361 2.282 . S
N377 C378 1.328 . S
N377 C382 1.318 . S
C378 N377 1.328 . S
C378 C379 1.457 . S
C378 H383 0.929 . S
C379 C378 1.457 . S
C379 C380 1.291 . S
C379 H392 0.931 . S
C380 C379 1.291 . S
C380 C381 1.373 . S
C380 H393 0.929 . S
C381 C380 1.373 . S
C381 C382 1.396 . S
C381 C388 1.403 . S
C382 C372 1.476 . S
C382 N377 1.318 . S
C382 C381 1.396 . S
H383 C378 0.929 . S
O384 Mn360 2.385 . S
O384 C362 1.234 . S
O385 Mn360 2.209 . S
O385 Mn361 2.215 . S
O385 C362 1.283 . S
O386 Mn360 2.094 . S
O386 C364 1.240 . S
O387 Mn361 2.117 . S
O387 C364 1.264 . S
C388 C381 1.403 . S
C388 C389 1.399 1_565 S
C388 H394 0.929 1_565 S
C389 C369 1.449 1_545 S
C389 C388 1.399 1_545 S
C389 H395 0.930 . S
H390 C370 0.931 1_545 S
H391 C371 0.930 . S
H392 C379 0.931 . S
H393 C380 0.929 . S
H394 C388 0.929 1_545 S
H395 C389 0.930 . S
Mn396 O401 2.095 . S
Mn396 O411 2.162 . S
Mn396 O412 2.297 . S
Mn396 O420 2.385 . S
Mn396 O421 2.209 . S
Mn396 O422 2.094 . S
Mn397 O402 2.121 . S
Mn397 N404 2.257 . S
Mn397 N413 2.282 . S
Mn397 O421 2.215 . S
Mn397 O423 2.117 . S
C398 O420 1.234 . S
C398 O421 1.283 . S
C399 O411 1.281 . S
C399 O412 1.236 . S
C400 O422 1.240 . S
C400 O423 1.264 . S
O401 Mn396 2.095 . S
O401 C410 1.250 . S
O402 Mn397 2.121 . S
O402 C410 1.258 . S
C403 N404 1.326 . S
C403 C407 1.460 . S
C403 H409 0.929 . S
N404 Mn397 2.257 . S
N404 C403 1.326 . S
N404 C408 1.362 . S
C405 C406 1.258 . S
C405 C408 1.431 . S
C405 C425 1.449 . S
C406 C405 1.258 . S
C406 C407 1.477 . S
C406 H426 0.931 . S
C407 C403 1.460 . S
C407 C406 1.477 . S
C407 H427 0.930 . S
C408 N404 1.362 . S
C408 C405 1.431 . S
C408 C418 1.476 . S
H409 C403 0.929 . S
C410 O401 1.250 . S
C410 O402 1.258 . S
O411 Mn396 2.162 . S
O411 C399 1.281 . S
O412 Mn396 2.297 . S
O412 C399 1.236 . S
N413 Mn397 2.282 . S
N413 C414 1.328 . S
N413 C418 1.318 . S
C414 N413 1.328 . S
C414 C415 1.457 . S
C414 H419 0.929 . S
C415 C414 1.457 . S
C415 C416 1.291 . S
C415 H428 0.931 . S
C416 C415 1.291 . S
C416 C417 1.373 . S
C416 H429 0.929 . S
C417 C416 1.373 . S
C417 C418 1.396 . S
C417 C424 1.403 . S
C418 C408 1.476 . S
C418 N413 1.318 . S
C418 C417 1.396 . S
H419 C414 0.929 . S
O420 Mn396 2.385 . S
O420 C398 1.234 . S
O421 Mn396 2.209 . S
O421 Mn397 2.215 . S
O421 C398 1.283 . S
O422 Mn396 2.094 . S
O422 C400 1.240 . S
O423 Mn397 2.117 . S
O423 C400 1.264 . S
C424 C417 1.403 . S
C424 C425 1.399 . S
C424 H430 0.929 . S
C425 C405 1.449 . S
C425 C424 1.399 . S
C425 H431 0.930 . S
H426 C406 0.931 . S
H427 C407 0.930 . S
H428 C415 0.931 . S
H429 C416 0.929 . S
H430 C424 0.929 . S
H431 C425 0.930 . S
Mn432 O437 2.095 . S
Mn432 O447 2.162 . S
Mn432 O448 2.297 . S
Mn432 O456 2.385 . S
Mn432 O457 2.209 . S
Mn432 O458 2.094 . S
Mn433 O438 2.121 . S
Mn433 N440 2.257 . S
Mn433 N449 2.282 . S
Mn433 O457 2.215 . S
Mn433 O459 2.117 . S
C434 O456 1.234 . S
C434 O457 1.283 . S
C435 O447 1.281 . S
C435 O448 1.236 . S
C436 O458 1.240 . S
C436 O459 1.264 . S
O437 Mn432 2.095 . S
O437 C446 1.250 . S
O438 Mn433 2.121 . S
O438 C446 1.258 . S
C439 N440 1.326 . S
C439 C443 1.460 . S
C439 H445 0.929 . S
N440 Mn433 2.257 . S
N440 C439 1.326 . S
N440 C444 1.362 . S
C441 C442 1.258 . S
C441 C444 1.431 . S
C441 C461 1.449 . S
C442 C441 1.258 . S
C442 C443 1.477 . S
C442 H462 0.931 . S
C443 C439 1.460 . S
C443 C442 1.477 . S
C443 H463 0.930 . S
C444 N440 1.362 . S
C444 C441 1.431 . S
C444 C454 1.476 . S
H445 C439 0.929 . S
C446 O437 1.250 . S
C446 O438 1.258 . S
O447 Mn432 2.162 . S
O447 C435 1.281 . S
O448 Mn432 2.297 . S
O448 C435 1.236 . S
N449 Mn433 2.282 . S
N449 C450 1.328 . S
N449 C454 1.318 . S
C450 N449 1.328 . S
C450 C451 1.457 . S
C450 H455 0.929 . S
C451 C450 1.457 . S
C451 C452 1.291 . S
C451 H464 0.931 . S
C452 C451 1.291 . S
C452 C453 1.373 . S
C452 H465 0.929 . S
C453 C452 1.373 . S
C453 C454 1.396 . S
C453 C460 1.403 . S
C454 C444 1.476 . S
C454 N449 1.318 . S
C454 C453 1.396 . S
H455 C450 0.929 . S
O456 Mn432 2.385 . S
O456 C434 1.234 . S
O457 Mn432 2.209 . S
O457 Mn433 2.215 . S
O457 C434 1.283 . S
O458 Mn432 2.094 . S
O458 C436 1.240 . S
O459 Mn433 2.117 . S
O459 C436 1.264 . S
C460 C453 1.403 . S
C460 C461 1.399 . S
C460 H466 0.929 . S
C461 C441 1.449 . S
C461 C460 1.399 . S
C461 H467 0.930 . S
H462 C442 0.931 . S
H463 C443 0.930 . S
H464 C451 0.931 . S
H465 C452 0.929 . S
H466 C460 0.929 . S
H467 C461 0.930 . S
Mn468 O473 2.095 . S
Mn468 O483 2.162 . S
Mn468 O484 2.297 . S
Mn468 O492 2.385 . S
Mn468 O493 2.209 . S
Mn468 O494 2.094 . S
Mn469 O474 2.121 . S
Mn469 N476 2.257 . S
Mn469 N485 2.282 . S
Mn469 O493 2.215 . S
Mn469 O495 2.117 . S
C470 O492 1.234 . S
C470 O493 1.283 . S
C471 O483 1.281 . S
C471 O484 1.236 . S
C472 O494 1.240 . S
C472 O495 1.264 . S
O473 Mn468 2.095 . S
O473 C482 1.250 . S
O474 Mn469 2.121 . S
O474 C482 1.258 . S
C475 N476 1.326 . S
C475 C479 1.460 . S
C475 H481 0.929 . S
N476 Mn469 2.257 . S
N476 C475 1.326 . S
N476 C480 1.362 . S
C477 C478 1.258 . S
C477 C480 1.431 . S
C477 C497 1.449 . S
C478 C477 1.258 . S
C478 C479 1.477 . S
C478 H498 0.931 . S
C479 C475 1.460 . S
C479 C478 1.477 . S
C479 H499 0.930 . S
C480 N476 1.362 . S
C480 C477 1.431 . S
C480 C490 1.476 . S
H481 C475 0.929 . S
C482 O473 1.250 . S
C482 O474 1.258 . S
O483 Mn468 2.162 . S
O483 C471 1.281 . S
O484 Mn468 2.297 . S
O484 C471 1.236 . S
N485 Mn469 2.282 . S
N485 C486 1.328 . S
N485 C490 1.318 . S
C486 N485 1.328 . S
C486 C487 1.457 . S
C486 H491 0.929 . S
C487 C486 1.457 . S
C487 C488 1.291 . S
C487 H500 0.931 . S
C488 C487 1.291 . S
C488 C489 1.373 . S
C488 H501 0.929 . S
C489 C488 1.373 . S
C489 C490 1.396 . S
C489 C496 1.403 . S
C490 C480 1.476 . S
C490 N485 1.318 . S
C490 C489 1.396 . S
H491 C486 0.929 . S
O492 Mn468 2.385 . S
O492 C470 1.234 . S
O493 Mn468 2.209 . S
O493 Mn469 2.215 . S
O493 C470 1.283 . S
O494 Mn468 2.094 . S
O494 C472 1.240 . S
O495 Mn469 2.117 . S
O495 C472 1.264 . S
C496 C489 1.403 . S
C496 C497 1.399 . S
C496 H502 0.929 . S
C497 C477 1.449 . S
C497 C496 1.399 . S
C497 H503 0.930 . S
H498 C478 0.931 . S
H499 C479 0.930 . S
H500 C487 0.931 . S
H501 C488 0.929 . S
H502 C496 0.929 . S
H503 C497 0.930 . S
Mn504 O509 2.095 . S
Mn504 O519 2.162 . S
Mn504 O520 2.297 . S
Mn504 O528 2.385 . S
Mn504 O529 2.209 . S
Mn504 O530 2.094 . S
Mn505 O510 2.121 . S
Mn505 N512 2.257 . S
Mn505 N521 2.282 . S
Mn505 O529 2.215 . S
Mn505 O531 2.117 . S
C506 O528 1.234 . S
C506 O529 1.283 . S
C507 O519 1.281 . S
C507 O520 1.236 . S
C508 O530 1.240 . S
C508 O531 1.264 . S
O509 Mn504 2.095 . S
O509 C518 1.250 . S
O510 Mn505 2.121 . S
O510 C518 1.258 . S
C511 N512 1.326 . S
C511 C515 1.460 . S
C511 H517 0.929 . S
N512 Mn505 2.257 . S
N512 C511 1.326 . S
N512 C516 1.362 . S
C513 C514 1.258 . S
C513 C516 1.431 . S
C513 C533 1.449 . S
C514 C513 1.258 . S
C514 C515 1.477 . S
C514 H534 0.931 . S
C515 C511 1.460 . S
C515 C514 1.477 . S
C515 H535 0.930 . S
C516 N512 1.362 . S
C516 C513 1.431 . S
C516 C526 1.476 . S
H517 C511 0.929 . S
C518 O509 1.250 . S
C518 O510 1.258 . S
O519 Mn504 2.162 . S
O519 C507 1.281 . S
O520 Mn504 2.297 . S
O520 C507 1.236 . S
N521 Mn505 2.282 . S
N521 C522 1.328 . S
N521 C526 1.318 . S
C522 N521 1.328 . S
C522 C523 1.457 . S
C522 H527 0.929 . S
C523 C522 1.457 . S
C523 C524 1.291 . S
C523 H536 0.931 . S
C524 C523 1.291 . S
C524 C525 1.373 . S
C524 H537 0.929 . S
C525 C524 1.373 . S
C525 C526 1.396 . S
C525 C532 1.403 . S
C526 C516 1.476 . S
C526 N521 1.318 . S
C526 C525 1.396 . S
H527 C522 0.929 . S
O528 Mn504 2.385 . S
O528 C506 1.234 . S
O529 Mn504 2.209 . S
O529 Mn505 2.215 . S
O529 C506 1.283 . S
O530 Mn504 2.094 . S
O530 C508 1.240 . S
O531 Mn505 2.117 . S
O531 C508 1.264 . S
C532 C525 1.403 . S
C532 C533 1.399 . S
C532 H538 0.929 . S
C533 C513 1.449 . S
C533 C532 1.399 . S
C533 H539 0.930 . S
H534 C514 0.931 . S
H535 C515 0.930 . S
H536 C523 0.931 . S
H537 C524 0.929 . S
H538 C532 0.929 . S
H539 C533 0.930 . S
Mn540 O545 2.095 . S
Mn540 O555 2.162 . S
Mn540 O556 2.297 . S
Mn540 O564 2.385 . S
Mn540 O565 2.209 . S
Mn540 O566 2.094 . S
Mn541 O546 2.121 . S
Mn541 N548 2.257 . S
Mn541 N557 2.282 . S
Mn541 O565 2.215 . S
Mn541 O567 2.117 . S
C542 O564 1.234 . S
C542 O565 1.283 . S
C543 O555 1.281 . S
C543 O556 1.236 . S
C544 O566 1.240 . S
C544 O567 1.264 . S
O545 Mn540 2.095 . S
O545 C554 1.250 . S
O546 Mn541 2.121 . S
O546 C554 1.258 . S
C547 N548 1.326 . S
C547 C551 1.460 . S
C547 H553 0.929 . S
N548 Mn541 2.257 . S
N548 C547 1.326 . S
N548 C552 1.362 . S
C549 C550 1.258 . S
C549 C552 1.431 . S
C549 C569 1.449 . S
C550 C549 1.258 . S
C550 C551 1.477 . S
C550 H570 0.931 . S
C551 C547 1.460 . S
C551 C550 1.477 . S
C551 H571 0.930 . S
C552 N548 1.362 . S
C552 C549 1.431 . S
C552 C562 1.476 . S
H553 C547 0.929 . S
C554 O545 1.250 . S
C554 O546 1.258 . S
O555 Mn540 2.162 . S
O555 C543 1.281 . S
O556 Mn540 2.297 . S
O556 C543 1.236 . S
N557 Mn541 2.282 . S
N557 C558 1.328 . S
N557 C562 1.318 . S
C558 N557 1.328 . S
C558 C559 1.457 . S
C558 H563 0.929 . S
C559 C558 1.457 . S
C559 C560 1.291 . S
C559 H572 0.931 . S
C560 C559 1.291 . S
C560 C561 1.373 . S
C560 H573 0.929 . S
C561 C560 1.373 . S
C561 C562 1.396 . S
C561 C568 1.403 . S
C562 C552 1.476 . S
C562 N557 1.318 . S
C562 C561 1.396 . S
H563 C558 0.929 . S
O564 Mn540 2.385 . S
O564 C542 1.234 . S
O565 Mn540 2.209 . S
O565 Mn541 2.215 . S
O565 C542 1.283 . S
O566 Mn540 2.094 . S
O566 C544 1.240 . S
O567 Mn541 2.117 . S
O567 C544 1.264 . S
C568 C561 1.403 . S
C568 C569 1.399 . S
C568 H574 0.929 . S
C569 C549 1.449 . S
C569 C568 1.399 . S
C569 H575 0.930 . S
H570 C550 0.931 . S
H571 C551 0.930 . S
H572 C559 0.931 . S
H573 C560 0.929 . S
H574 C568 0.929 . S
H575 C569 0.930 . S
C576 C577 1.349 . S
C576 C578 1.327 . S
C576 H601 0.950 . S
C577 C576 1.349 . S
C577 C593 1.349 . S
C578 C576 1.327 . S
C578 C597 1.429 . S
C578 H602 0.950 . S
C579 C596 1.574 . S
C579 C598 1.368 . S
C579 H603 0.949 . S
H580 C584 0.949 . S
C581 C582 1.349 . S
C581 C583 1.327 . S
C581 H604 0.950 . S
C582 C581 1.349 . S
C582 C594 1.349 . S
C583 C581 1.327 . S
C583 C599 1.429 . S
C583 H605 0.950 . S
C584 H580 0.949 . S
C584 C592 1.574 . S
C584 C600 1.368 . S
H585 C593 0.950 . S
H586 C591 0.950 . S
H587 C592 0.949 . S
H588 C594 0.950 . S
H589 C595 0.950 . S
H590 C596 0.949 . S
C591 H586 0.950 . S
C591 C593 1.327 . S
C591 C597 1.429 . S
C592 C584 1.574 . S
C592 H587 0.949 . S
C592 C598 1.368 . S
C593 C577 1.349 . S
C593 H585 0.950 . S
C593 C591 1.327 . S
C594 C582 1.349 . S
C594 H588 0.950 . S
C594 C595 1.327 . S
C595 H589 0.950 . S
C595 C594 1.327 . S
C595 C599 1.429 . S
C596 C579 1.574 . S
C596 H590 0.949 . S
C596 C600 1.368 . S
C597 C578 1.429 . S
C597 C591 1.429 . S
C597 C598 1.523 . S
C598 C579 1.368 . S
C598 C592 1.368 . S
C598 C597 1.523 . S
C599 C583 1.429 . S
C599 C595 1.429 . S
C599 C600 1.523 . S
C600 C584 1.368 . S
C600 C596 1.368 . S
C600 C599 1.523 . S
H601 C576 0.950 . S
H602 C578 0.950 . S
H603 C579 0.949 . S
H604 C581 0.950 . S
H605 C583 0.950 . S
C606 C607 1.349 . S
C606 C608 1.327 . S
C606 H631 0.950 . S
C607 C606 1.349 . S
C607 C623 1.349 . S
C608 C606 1.327 . S
C608 C627 1.429 . S
C608 H632 0.950 . S
C609 C626 1.574 . S
C609 C628 1.368 1_455 S
C609 H633 0.949 . S
H610 C614 0.949 . S
C611 C612 1.349 . S
C611 C613 1.327 . S
C611 H634 0.950 . S
C612 C611 1.349 . S
C612 C624 1.349 . S
C613 C611 1.327 . S
C613 C629 1.429 . S
C613 H635 0.950 . S
C614 H610 0.949 . S
C614 C622 1.574 . S
C614 C630 1.368 1_655 S
H615 C623 0.950 . S
H616 C621 0.950 . S
H617 C622 0.949 . S
H618 C624 0.950 . S
H619 C625 0.950 . S
H620 C626 0.949 . S
C621 H616 0.950 . S
C621 C623 1.327 . S
C621 C627 1.429 . S
C622 C614 1.574 . S
C622 H617 0.949 . S
C622 C628 1.368 1_545 S
C623 C607 1.349 . S
C623 H615 0.950 . S
C623 C621 1.327 . S
C624 C612 1.349 . S
C624 H618 0.950 . S
C624 C625 1.327 . S
C625 H619 0.950 . S
C625 C624 1.327 . S
C625 C629 1.429 . S
C626 C609 1.574 . S
C626 H620 0.949 . S
C626 C630 1.368 1_565 S
C627 C608 1.429 . S
C627 C621 1.429 . S
C627 C628 1.523 . S
C628 C609 1.368 1_655 S
C628 C622 1.368 1_565 S
C628 C627 1.523 . S
C629 C613 1.429 . S
C629 C625 1.429 . S
C629 C630 1.523 . S
C630 C614 1.368 1_455 S
C630 C626 1.368 1_545 S
C630 C629 1.523 . S
H631 C606 0.950 . S
H632 C608 0.950 . S
H633 C609 0.949 . S
H634 C611 0.950 . S
H635 C613 0.950 . S
C636 C637 1.349 . S
C636 C638 1.327 . S
C636 H661 0.950 . S
C637 C636 1.349 . S
C637 C653 1.349 . S
C638 C636 1.327 . S
C638 C657 1.429 . S
C638 H662 0.950 . S
C639 C656 1.574 . S
C639 C658 1.368 1_545 S
C639 H663 0.949 . S
H640 C644 0.949 . S
C641 C642 1.349 . S
C641 C643 1.327 . S
C641 H664 0.950 . S
C642 C641 1.349 . S
C642 C654 1.349 . S
C643 C641 1.327 . S
C643 C659 1.429 . S
C643 H665 0.950 . S
C644 H640 0.949 . S
C644 C652 1.574 . S
C644 C660 1.368 1_565 S
H645 C653 0.950 . S
H646 C651 0.950 . S
H647 C652 0.949 . S
H648 C654 0.950 . S
H649 C655 0.950 . S
H650 C656 0.949 . S
C651 H646 0.950 . S
C651 C653 1.327 . S
C651 C657 1.429 . S
C652 C644 1.574 . S
C652 H647 0.949 . S
C652 C658 1.368 . S
C653 C637 1.349 . S
C653 H645 0.950 . S
C653 C651 1.327 . S
C654 C642 1.349 . S
C654 H648 0.950 . S
C654 C655 1.327 . S
C655 H649 0.950 . S
C655 C654 1.327 . S
C655 C659 1.429 . S
C656 C639 1.574 . S
C656 H650 0.949 . S
C656 C660 1.368 . S
C657 C638 1.429 . S
C657 C651 1.429 . S
C657 C658 1.523 . S
C658 C639 1.368 1_565 S
C658 C652 1.368 . S
C658 C657 1.523 . S
C659 C643 1.429 . S
C659 C655 1.429 . S
C659 C660 1.523 . S
C660 C644 1.368 1_545 S
C660 C656 1.368 . S
C660 C659 1.523 . S
H661 C636 0.950 . S
H662 C638 0.950 . S
H663 C639 0.949 . S
H664 C641 0.950 . S
H665 C643 0.950 . S
C666 C667 1.349 . S
C666 C668 1.327 . S
C666 H691 0.950 . S
C667 C666 1.349 . S
C667 C683 1.349 . S
C668 C666 1.327 . S
C668 C687 1.429 . S
C668 H692 0.950 . S
C669 C686 1.574 . S
C669 C688 1.368 1_655 S
C669 H693 0.949 . S
H670 C674 0.949 . S
C671 C672 1.349 . S
C671 C673 1.327 . S
C671 H694 0.950 . S
C672 C671 1.349 . S
C672 C684 1.349 . S
C673 C671 1.327 . S
C673 C689 1.429 . S
C673 H695 0.950 . S
C674 H670 0.949 . S
C674 C682 1.574 . S
C674 C690 1.368 1_455 S
H675 C683 0.950 . S
H676 C681 0.950 . S
H677 C682 0.949 . S
H678 C684 0.950 . S
H679 C685 0.950 . S
H680 C686 0.949 . S
C681 H676 0.950 . S
C681 C683 1.327 . S
C681 C687 1.429 . S
C682 C674 1.574 . S
C682 H677 0.949 . S
C682 C688 1.368 . S
C683 C667 1.349 . S
C683 H675 0.950 . S
C683 C681 1.327 . S
C684 C672 1.349 . S
C684 H678 0.950 . S
C684 C685 1.327 . S
C685 H679 0.950 . S
C685 C684 1.327 . S
C685 C689 1.429 . S
C686 C669 1.574 . S
C686 H680 0.949 . S
C686 C690 1.368 . S
C687 C668 1.429 . S
C687 C681 1.429 . S
C687 C688 1.523 . S
C688 C669 1.368 1_455 S
C688 C682 1.368 . S
C688 C687 1.523 . S
C689 C673 1.429 . S
C689 C685 1.429 . S
C689 C690 1.523 . S
C690 C674 1.368 1_655 S
C690 C686 1.368 . S
C690 C689 1.523 . S
H691 C666 0.950 . S
H692 C668 0.950 . S
H693 C669 0.949 . S
H694 C671 0.950 . S
H695 C673 0.950 . S
C696 C697 1.349 . S
C696 C698 1.327 . S
C696 H721 0.950 . S
C697 C696 1.349 . S
C697 C713 1.349 . S
C698 C696 1.327 . S
C698 C717 1.429 . S
C698 H722 0.950 . S
C699 C716 1.574 . S
C699 C718 1.368 . S
C699 H723 0.949 . S
H700 C704 0.949 . S
C701 C702 1.349 . S
C701 C703 1.327 . S
C701 H724 0.950 . S
C702 C701 1.349 . S
C702 C714 1.349 . S
C703 C701 1.327 . S
C703 C719 1.429 . S
C703 H725 0.950 . S
C704 H700 0.949 . S
C704 C712 1.574 . S
C704 C720 1.368 . S
H705 C713 0.950 . S
H706 C711 0.950 . S
H707 C712 0.949 . S
H708 C714 0.950 . S
H709 C715 0.950 . S
H710 C716 0.949 . S
C711 H706 0.950 . S
C711 C713 1.327 . S
C711 C717 1.429 . S
C712 C704 1.574 . S
C712 H707 0.949 . S
C712 C718 1.368 . S
C713 C697 1.349 . S
C713 H705 0.950 . S
C713 C711 1.327 . S
C714 C702 1.349 . S
C714 H708 0.950 . S
C714 C715 1.327 . S
C715 H709 0.950 . S
C715 C714 1.327 . S
C715 C719 1.429 . S
C716 C699 1.574 . S
C716 H710 0.949 . S
C716 C720 1.368 . S
C717 C698 1.429 . S
C717 C711 1.429 . S
C717 C718 1.523 . S
C718 C699 1.368 . S
C718 C712 1.368 . S
C718 C717 1.523 . S
C719 C703 1.429 . S
C719 C715 1.429 . S
C719 C720 1.523 . S
C720 C704 1.368 . S
C720 C716 1.368 . S
C720 C719 1.523 . S
H721 C696 0.950 . S
H722 C698 0.950 . S
H723 C699 0.949 . S
H724 C701 0.950 . S
H725 C703 0.950 . S
C726 C727 1.349 . S
C726 C728 1.327 . S
C726 H751 0.950 . S
C727 C726 1.349 . S
C727 C743 1.349 . S
C728 C726 1.327 . S
C728 C747 1.429 . S
C728 H752 0.950 . S
C729 C746 1.566 1_545 S
C729 C748 1.368 . S
C729 H753 0.949 . S
H730 C734 0.949 . S
C731 C732 1.349 . S
C731 C733 1.327 . S
C731 H754 0.950 . S
C732 C731 1.349 . S
C732 C744 1.349 . S
C733 C731 1.327 . S
C733 C749 1.429 . S
C733 H755 0.950 . S
C734 H730 0.949 . S
C734 C742 1.566 1_565 S
C734 C750 1.368 . S
H735 C743 0.950 . S
H736 C741 0.950 . S
H737 C742 0.950 . S
H738 C744 0.950 . S
H739 C745 0.950 . S
H740 C746 0.951 . S
C741 H736 0.950 . S
C741 C743 1.327 . S
C741 C747 1.429 . S
C742 C734 1.566 1_545 S
C742 H737 0.950 . S
C742 C748 1.375 . S
C743 C727 1.349 . S
C743 H735 0.950 . S
C743 C741 1.327 . S
C744 C732 1.349 . S
C744 H738 0.950 . S
C744 C745 1.327 . S
C745 H739 0.950 . S
C745 C744 1.327 . S
C745 C749 1.429 . S
C746 C729 1.566 1_565 S
C746 H740 0.951 . S
C746 C750 1.375 . S
C747 C728 1.429 . S
C747 C741 1.429 . S
C747 C748 1.523 . S
C748 C729 1.368 . S
C748 C742 1.375 . S
C748 C747 1.523 . S
C749 C733 1.429 . S
C749 C745 1.429 . S
C749 C750 1.523 . S
C750 C734 1.368 . S
C750 C746 1.375 . S
C750 C749 1.523 . S
H751 C726 0.950 . S
H752 C728 0.950 . S
H753 C729 0.949 . S
H754 C731 0.950 . S
H755 C733 0.950 . S
C756 C757 1.349 . S
C756 C758 1.327 . S
C756 H781 0.950 . S
C757 C756 1.349 . S
C757 C773 1.349 . S
C758 C756 1.327 . S
C758 C777 1.429 . S
C758 H782 0.950 . S
C759 C776 1.574 1_655 S
C759 C778 1.368 . S
C759 H783 0.949 . S
H760 C764 0.949 . S
C761 C762 1.349 . S
C761 C763 1.327 . S
C761 H784 0.950 . S
C762 C761 1.349 . S
C762 C774 1.349 . S
C763 C761 1.327 . S
C763 C779 1.429 . S
C763 H785 0.950 . S
C764 H760 0.949 . S
C764 C772 1.574 1_455 S
C764 C780 1.368 . S
H765 C773 0.950 . S
H766 C771 0.950 . S
H767 C772 0.949 . S
H768 C774 0.950 . S
H769 C775 0.950 . S
H770 C776 0.949 . S
C771 H766 0.950 . S
C771 C773 1.327 . S
C771 C777 1.429 . S
C772 C764 1.574 1_655 S
C772 H767 0.949 . S
C772 C778 1.368 . S
C773 C757 1.349 . S
C773 H765 0.950 . S
C773 C771 1.327 . S
C774 C762 1.349 . S
C774 H768 0.950 . S
C774 C775 1.327 . S
C775 H769 0.950 . S
C775 C774 1.327 . S
C775 C779 1.429 . S
C776 C759 1.574 1_455 S
C776 H770 0.949 . S
C776 C780 1.368 . S
C777 C758 1.429 . S
C777 C771 1.429 . S
C777 C778 1.523 . S
C778 C759 1.368 . S
C778 C772 1.368 . S
C778 C777 1.523 . S
C779 C763 1.429 . S
C779 C775 1.429 . S
C779 C780 1.523 . S
C780 C764 1.368 . S
C780 C776 1.368 . S
C780 C779 1.523 . S
H781 C756 0.950 . S
H782 C758 0.950 . S
H783 C759 0.949 . S
H784 C761 0.950 . S
H785 C763 0.950 . S
C786 C787 1.349 . S
C786 C788 1.327 . S
C786 H811 0.950 . S
C787 C786 1.349 . S
C787 C803 1.349 . S
C788 C786 1.327 . S
C788 C807 1.429 . S
C788 H812 0.950 . S
C789 C806 1.574 . S
C789 C808 1.368 1_556 S
C789 H813 0.949 . S
H790 C794 0.949 . S
C791 C792 1.349 . S
C791 C793 1.327 . S
C791 H814 0.950 . S
C792 C791 1.349 . S
C792 C804 1.349 . S
C793 C791 1.327 . S
C793 C809 1.429 . S
C793 H815 0.950 . S
C794 H790 0.949 . S
C794 C802 1.574 . S
C794 C810 1.368 1_554 S
H795 C803 0.950 . S
H796 C801 0.950 . S
H797 C802 0.949 . S
H798 C804 0.950 . S
H799 C805 0.950 . S
H800 C806 0.949 . S
C801 H796 0.950 . S
C801 C803 1.327 . S
C801 C807 1.429 . S
C802 C794 1.574 . S
C802 H797 0.949 . S
C802 C808 1.368 . S
C803 C787 1.349 . S
C803 H795 0.950 . S
C803 C801 1.327 . S
C804 C792 1.349 . S
C804 H798 0.950 . S
C804 C805 1.327 . S
C805 H799 0.950 . S
C805 C804 1.327 . S
C805 C809 1.429 . S
C806 C789 1.574 . S
C806 H800 0.949 . S
C806 C810 1.368 . S
C807 C788 1.429 . S
C807 C801 1.429 . S
C807 C808 1.523 . S
C808 C789 1.368 1_554 S
C808 C802 1.368 . S
C808 C807 1.523 . S
C809 C793 1.429 . S
C809 C805 1.429 . S
C809 C810 1.523 . S
C810 C794 1.368 1_556 S
C810 C806 1.368 . S
C810 C809 1.523 . S
H811 C786 0.950 . S
H812 C788 0.950 . S
H813 C789 0.949 . S
H814 C791 0.950 . S
H815 C793 0.950 . S
C816 C817 1.349 . S
C816 C818 1.327 . S
C816 H841 0.950 . S
C817 C816 1.349 . S
C817 C833 1.349 . S
C818 C816 1.327 . S
C818 C837 1.429 . S
C818 H842 0.950 . S
C819 C836 1.574 1_556 S
C819 C838 1.368 . S
C819 H843 0.949 . S
H820 C824 0.949 . S
C821 C822 1.349 . S
C821 C823 1.327 . S
C821 H844 0.950 . S
C822 C821 1.349 . S
C822 C834 1.349 . S
C823 C821 1.327 . S
C823 C839 1.429 . S
C823 H845 0.950 . S
C824 H820 0.949 . S
C824 C832 1.574 1_554 S
C824 C840 1.368 . S
H825 C833 0.950 . S
H826 C831 0.950 . S
H827 C832 0.949 . S
H828 C834 0.950 . S
H829 C835 0.950 . S
H830 C836 0.949 . S
C831 H826 0.950 . S
C831 C833 1.327 . S
C831 C837 1.429 . S
C832 C824 1.574 1_556 S
C832 H827 0.949 . S
C832 C838 1.368 1_655 S
C833 C817 1.349 . S
C833 H825 0.950 . S
C833 C831 1.327 . S
C834 C822 1.349 . S
C834 H828 0.950 . S
C834 C835 1.327 . S
C835 H829 0.950 . S
C835 C834 1.327 . S
C835 C839 1.429 . S
C836 C819 1.574 1_554 S
C836 H830 0.949 . S
C836 C840 1.368 1_455 S
C837 C818 1.429 . S
C837 C831 1.429 . S
C837 C838 1.523 . S
C838 C819 1.368 . S
C838 C832 1.368 1_455 S
C838 C837 1.523 . S
C839 C823 1.429 . S
C839 C835 1.429 . S
C839 C840 1.523 . S
C840 C824 1.368 . S
C840 C836 1.368 1_655 S
C840 C839 1.523 . S
H841 C816 0.950 . S
H842 C818 0.950 . S
H843 C819 0.949 . S
H844 C821 0.950 . S
H845 C823 0.950 . S
C846 C847 1.349 . S
C846 C848 1.327 . S
C846 H871 0.950 . S
C847 C846 1.349 . S
C847 C863 1.349 . S
C848 C846 1.327 . S
C848 C867 1.429 . S
C848 H872 0.950 . S
C849 C866 1.574 . S
C849 C868 1.368 . S
C849 H873 0.949 . S
H850 C854 0.949 . S
C851 C852 1.349 . S
C851 C853 1.327 . S
C851 H874 0.950 . S
C852 C851 1.349 . S
C852 C864 1.349 . S
C853 C851 1.327 . S
C853 C869 1.429 . S
C853 H875 0.950 . S
C854 H850 0.949 . S
C854 C862 1.574 . S
C854 C870 1.368 . S
H855 C863 0.950 . S
H856 C861 0.950 . S
H857 C862 0.949 . S
H858 C864 0.950 . S
H859 C865 0.950 . S
H860 C866 0.949 . S
C861 H856 0.950 . S
C861 C863 1.327 . S
C861 C867 1.429 . S
C862 C854 1.574 . S
C862 H857 0.949 . S
C862 C868 1.368 . S
C863 C847 1.349 . S
C863 H855 0.950 . S
C863 C861 1.327 . S
C864 C852 1.349 . S
C864 H858 0.950 . S
C864 C865 1.327 . S
C865 H859 0.950 . S
C865 C864 1.327 . S
C865 C869 1.429 . S
C866 C849 1.574 . S
C866 H860 0.949 . S
C866 C870 1.368 . S
C867 C848 1.429 . S
C867 C861 1.429 . S
C867 C868 1.523 . S
C868 C849 1.368 . S
C868 C862 1.368 . S
C868 C867 1.523 . S
C869 C853 1.429 . S
C869 C865 1.429 . S
C869 C870 1.523 . S
C870 C854 1.368 . S
C870 C866 1.368 . S
C870 C869 1.523 . S
H871 C846 0.950 . S
H872 C848 0.950 . S
H873 C849 0.949 . S
H874 C851 0.950 . S
H875 C853 0.950 . S
C876 C877 1.349 . S
C876 C878 1.327 . S
C876 H901 0.950 . S
C877 C876 1.349 . S
C877 C893 1.349 . S
C878 C876 1.327 . S
C878 C897 1.429 . S
C878 H902 0.950 . S
C879 C896 1.574 . S
C879 C898 1.368 . S
C879 H903 0.949 . S
H880 C884 0.949 . S
C881 C882 1.349 . S
C881 C883 1.327 . S
C881 H904 0.950 . S
C882 C881 1.349 . S
C882 C894 1.349 . S
C883 C881 1.327 . S
C883 C899 1.429 . S
C883 H905 0.950 . S
C884 H880 0.949 . S
C884 C892 1.574 . S
C884 C900 1.368 . S
H885 C893 0.950 . S
H886 C891 0.950 . S
H887 C892 0.949 . S
H888 C894 0.950 . S
H889 C895 0.950 . S
H890 C896 0.949 . S
C891 H886 0.950 . S
C891 C893 1.327 . S
C891 C897 1.429 . S
C892 C884 1.574 . S
C892 H887 0.949 . S
C892 C898 1.368 1_554 S
C893 C877 1.349 . S
C893 H885 0.950 . S
C893 C891 1.327 . S
C894 C882 1.349 . S
C894 H888 0.950 . S
C894 C895 1.327 . S
C895 H889 0.950 . S
C895 C894 1.327 . S
C895 C899 1.429 . S
C896 C879 1.574 . S
C896 H890 0.949 . S
C896 C900 1.368 1_556 S
C897 C878 1.429 . S
C897 C891 1.429 . S
C897 C898 1.523 . S
C898 C879 1.368 . S
C898 C892 1.368 1_556 S
C898 C897 1.523 . S
C899 C883 1.429 . S
C899 C895 1.429 . S
C899 C900 1.523 . S
C900 C884 1.368 . S
C900 C896 1.368 1_554 S
C900 C899 1.523 . S
H901 C876 0.950 . S
H902 C878 0.950 . S
H903 C879 0.949 . S
H904 C881 0.950 . S
H905 C883 0.950 . S
C906 C907 1.349 . S
C906 C908 1.327 . S
C906 H931 0.950 . S
C907 C906 1.349 . S
C907 C923 1.349 . S
C908 C906 1.327 . S
C908 C927 1.429 . S
C908 H932 0.950 . S
C909 C926 1.574 . S
C909 C928 1.368 . S
C909 H933 0.949 . S
H910 C914 0.949 . S
C911 C912 1.349 . S
C911 C913 1.327 . S
C911 H934 0.950 . S
C912 C911 1.349 . S
C912 C924 1.349 . S
C913 C911 1.327 . S
C913 C929 1.429 . S
C913 H935 0.950 . S
C914 H910 0.949 . S
C914 C922 1.574 . S
C914 C930 1.368 . S
H915 C923 0.950 . S
H916 C921 0.950 . S
H917 C922 0.949 . S
H918 C924 0.950 . S
H919 C925 0.950 . S
H920 C926 0.949 . S
C921 H916 0.950 . S
C921 C923 1.327 . S
C921 C927 1.429 . S
C922 C914 1.574 . S
C922 H917 0.949 . S
C922 C928 1.368 . S
C923 C907 1.349 . S
C923 H915 0.950 . S
C923 C921 1.327 . S
C924 C912 1.349 . S
C924 H918 0.950 . S
C924 C925 1.327 . S
C925 H919 0.950 . S
C925 C924 1.327 . S
C925 C929 1.429 . S
C926 C909 1.574 . S
C926 H920 0.949 . S
C926 C930 1.368 . S
C927 C908 1.429 . S
C927 C921 1.429 . S
C927 C928 1.523 . S
C928 C909 1.368 . S
C928 C922 1.368 . S
C928 C927 1.523 . S
C929 C913 1.429 . S
C929 C925 1.429 . S
C929 C930 1.523 . S
C930 C914 1.368 . S
C930 C926 1.368 . S
C930 C929 1.523 . S
H931 C906 0.950 . S
H932 C908 0.950 . S
H933 C909 0.949 . S
H934 C911 0.950 . S
H935 C913 0.950 . S
C936 C937 1.349 . S
C936 C938 1.327 . S
C936 H961 0.950 . S
C937 C936 1.349 . S
C937 C953 1.349 . S
C938 C936 1.327 . S
C938 C957 1.429 . S
C938 H962 0.950 . S
C939 C956 1.574 . S
C939 C958 1.368 1_565 S
C939 H963 0.949 . S
H940 C944 0.949 . S
C941 C942 1.349 . S
C941 C943 1.327 . S
C941 H964 0.950 . S
C942 C941 1.349 . S
C942 C954 1.349 . S
C943 C941 1.327 . S
C943 C959 1.429 . S
C943 H965 0.950 . S
C944 H940 0.949 . S
C944 C952 1.574 . S
C944 C960 1.368 1_545 S
H945 C953 0.950 . S
H946 C951 0.950 . S
H947 C952 0.949 . S
H948 C954 0.950 . S
H949 C955 0.950 . S
H950 C956 0.949 . S
C951 H946 0.950 . S
C951 C953 1.327 . S
C951 C957 1.429 . S
C952 C944 1.574 . S
C952 H947 0.949 . S
C952 C958 1.368 1_554 S
C953 C937 1.349 . S
C953 H945 0.950 . S
C953 C951 1.327 . S
C954 C942 1.349 . S
C954 H948 0.950 . S
C954 C955 1.327 . S
C955 H949 0.950 . S
C955 C954 1.327 . S
C955 C959 1.429 . S
C956 C939 1.574 . S
C956 H950 0.949 . S
C956 C960 1.368 1_556 S
C957 C938 1.429 . S
C957 C951 1.429 . S
C957 C958 1.523 . S
C958 C939 1.368 1_545 S
C958 C952 1.368 1_556 S
C958 C957 1.523 . S
C959 C943 1.429 . S
C959 C955 1.429 . S
C959 C960 1.523 . S
C960 C944 1.368 1_565 S
C960 C956 1.368 1_554 S
C960 C959 1.523 . S
H961 C936 0.950 . S
H962 C938 0.950 . S
H963 C939 0.949 . S
H964 C941 0.950 . S
H965 C943 0.950 . S
C966 C967 1.349 . S
C966 C968 1.327 . S
C966 H991 0.950 . S
C967 C966 1.349 . S
C967 C983 1.349 . S
C968 C966 1.327 . S
C968 C987 1.429 . S
C968 H992 0.950 . S
C969 C986 1.574 . S
C969 C988 1.368 . S
C969 H993 0.949 . S
H970 C974 0.949 . S
C971 C972 1.349 . S
C971 C973 1.327 . S
C971 H994 0.950 . S
C972 C971 1.349 . S
C972 C984 1.349 . S
C973 C971 1.327 . S
C973 C989 1.429 . S
C973 H995 0.950 . S
C974 H970 0.949 . S
C974 C982 1.574 . S
C974 C990 1.368 . S
H975 C983 0.950 . S
H976 C981 0.950 . S
H977 C982 0.949 . S
H978 C984 0.950 . S
H979 C985 0.950 . S
H980 C986 0.949 . S
C981 H976 0.950 . S
C981 C983 1.327 . S
C981 C987 1.429 . S
C982 C974 1.574 . S
C982 H977 0.949 . S
C982 C988 1.368 . S
C983 C967 1.349 . S
C983 H975 0.950 . S
C983 C981 1.327 . S
C984 C972 1.349 . S
C984 H978 0.950 . S
C984 C985 1.327 . S
C985 H979 0.950 . S
C985 C984 1.327 . S
C985 C989 1.429 . S
C986 C969 1.574 . S
C986 H980 0.949 . S
C986 C990 1.368 . S
C987 C968 1.429 . S
C987 C981 1.429 . S
C987 C988 1.523 . S
C988 C969 1.368 . S
C988 C982 1.368 . S
C988 C987 1.523 . S
C989 C973 1.429 . S
C989 C985 1.429 . S
C989 C990 1.523 . S
C990 C974 1.368 . S
C990 C986 1.368 . S
C990 C989 1.523 . S
H991 C966 0.950 . S
H992 C968 0.950 . S
H993 C969 0.949 . S
H994 C971 0.950 . S
H995 C973 0.950 . S
C996 C997 1.349 . S
C996 C998 1.327 . S
C996 H1021 0.950 . S
C997 C996 1.349 . S
C997 C1013 1.349 . S
C998 C996 1.327 . S
C998 C1017 1.429 . S
C998 H1022 0.950 . S
C999 C1016 1.574 . S
C999 C1018 1.368 . S
C999 H1023 0.949 . S
H1000 C1004 0.949 . S
C1001 C1002 1.349 . S
C1001 C1003 1.327 . S
C1001 H1024 0.950 . S
C1002 C1001 1.349 . S
C1002 C1014 1.349 . S
C1003 C1001 1.327 . S
C1003 C1019 1.429 . S
C1003 H1025 0.950 . S
C1004 H1000 0.949 . S
C1004 C1012 1.574 . S
C1004 C1020 1.368 . S
H1005 C1013 0.950 . S
H1006 C1011 0.950 . S
H1007 C1012 0.949 . S
H1008 C1014 0.950 . S
H1009 C1015 0.950 . S
H1010 C1016 0.949 . S
C1011 H1006 0.950 . S
C1011 C1013 1.327 . S
C1011 C1017 1.429 . S
C1012 C1004 1.574 . S
C1012 H1007 0.949 . S
C1012 C1018 1.368 . S
C1013 C997 1.349 . S
C1013 H1005 0.950 . S
C1013 C1011 1.327 . S
C1014 C1002 1.349 . S
C1014 H1008 0.950 . S
C1014 C1015 1.327 . S
C1015 H1009 0.950 . S
C1015 C1014 1.327 . S
C1015 C1019 1.429 . S
C1016 C999 1.574 . S
C1016 H1010 0.949 . S
C1016 C1020 1.368 . S
C1017 C998 1.429 . S
C1017 C1011 1.429 . S
C1017 C1018 1.523 . S
C1018 C999 1.368 . S
C1018 C1012 1.368 . S
C1018 C1017 1.523 . S
C1019 C1003 1.429 . S
C1019 C1015 1.429 . S
C1019 C1020 1.523 . S
C1020 C1004 1.368 . S
C1020 C1016 1.368 . S
C1020 C1019 1.523 . S
H1021 C996 0.950 . S
H1022 C998 0.950 . S
H1023 C999 0.949 . S
H1024 C1001 0.950 . S
H1025 C1003 0.950 . S
C1026 C1027 1.349 . S
C1026 C1028 1.327 . S
C1026 H1051 0.950 . S
C1027 C1026 1.349 . S
C1027 C1043 1.349 . S
C1028 C1026 1.327 . S
C1028 C1047 1.429 . S
C1028 H1052 0.950 . S
C1029 C1046 1.574 . S
C1029 C1048 1.368 . S
C1029 H1053 0.949 . S
H1030 C1034 0.949 . S
C1031 C1032 1.349 . S
C1031 C1033 1.327 . S
C1031 H1054 0.950 . S
C1032 C1031 1.349 . S
C1032 C1044 1.349 . S
C1033 C1031 1.327 . S
C1033 C1049 1.429 . S
C1033 H1055 0.950 . S
C1034 H1030 0.949 . S
C1034 C1042 1.574 . S
C1034 C1050 1.368 . S
H1035 C1043 0.950 . S
H1036 C1041 0.950 . S
H1037 C1042 0.949 . S
H1038 C1044 0.950 . S
H1039 C1045 0.950 . S
H1040 C1046 0.949 . S
C1041 H1036 0.950 . S
C1041 C1043 1.327 . S
C1041 C1047 1.429 . S
C1042 C1034 1.574 . S
C1042 H1037 0.949 . S
C1042 C1048 1.368 . S
C1043 C1027 1.349 . S
C1043 H1035 0.950 . S
C1043 C1041 1.327 . S
C1044 C1032 1.349 . S
C1044 H1038 0.950 . S
C1044 C1045 1.327 . S
C1045 H1039 0.950 . S
C1045 C1044 1.327 . S
C1045 C1049 1.429 . S
C1046 C1029 1.574 . S
C1046 H1040 0.949 . S
C1046 C1050 1.368 . S
C1047 C1028 1.429 . S
C1047 C1041 1.429 . S
C1047 C1048 1.523 . S
C1048 C1029 1.368 . S
C1048 C1042 1.368 . S
C1048 C1047 1.523 . S
C1049 C1033 1.429 . S
C1049 C1045 1.429 . S
C1049 C1050 1.523 . S
C1050 C1034 1.368 . S
C1050 C1046 1.368 . S
C1050 C1049 1.523 . S
H1051 C1026 0.950 . S
H1052 C1028 0.950 . S
H1053 C1029 0.949 . S
H1054 C1031 0.950 . S
H1055 C1033 0.950 . S
C1056 C1057 1.349 . S
C1056 C1058 1.327 . S
C1056 H1081 0.950 . S
C1057 C1056 1.349 . S
C1057 C1073 1.349 . S
C1058 C1056 1.327 . S
C1058 C1077 1.429 . S
C1058 H1082 0.950 . S
C1059 C1076 1.574 . S
C1059 C1078 1.368 . S
C1059 H1083 0.949 . S
H1060 C1064 0.949 . S
C1061 C1062 1.349 1_565 S
C1061 C1063 1.327 . S
C1061 H1084 0.950 . S
C1062 C1061 1.349 1_545 S
C1062 C1074 1.349 . S
C1063 C1061 1.327 . S
C1063 C1079 1.429 . S
C1063 H1085 0.950 . S
C1064 H1060 0.949 . S
C1064 C1072 1.574 . S
C1064 C1080 1.368 . S
H1065 C1073 0.950 . S
H1066 C1071 0.950 . S
H1067 C1072 0.949 . S
H1068 C1074 0.950 . S
H1069 C1075 0.950 1_545 S
H1070 C1076 0.949 . S
C1071 H1066 0.950 . S
C1071 C1073 1.327 . S
C1071 C1077 1.429 . S
C1072 C1064 1.574 . S
C1072 H1067 0.949 . S
C1072 C1078 1.368 . S
C1073 C1057 1.349 . S
C1073 H1065 0.950 . S
C1073 C1071 1.327 . S
C1074 C1062 1.349 . S
C1074 H1068 0.950 . S
C1074 C1075 1.327 1_545 S
C1075 H1069 0.950 1_565 S
C1075 C1074 1.327 1_565 S
C1075 C1079 1.429 . S
C1076 C1059 1.574 . S
C1076 H1070 0.949 . S
C1076 C1080 1.368 . S
C1077 C1058 1.429 . S
C1077 C1071 1.429 . S
C1077 C1078 1.523 . S
C1078 C1059 1.368 . S
C1078 C1072 1.368 . S
C1078 C1077 1.523 . S
C1079 C1063 1.429 . S
C1079 C1075 1.429 . S
C1079 C1080 1.523 . S
C1080 C1064 1.368 . S
C1080 C1076 1.368 . S
C1080 C1079 1.523 . S
H1081 C1056 0.950 . S
H1082 C1058 0.950 . S
H1083 C1059 0.949 . S
H1084 C1061 0.950 . S
H1085 C1063 0.950 . S
C1086 C1087 1.349 . S
C1086 C1088 1.327 . S
C1086 H1111 0.950 . S
C1087 C1086 1.349 . S
C1087 C1103 1.349 . S
C1088 C1086 1.327 . S
C1088 C1107 1.429 . S
C1088 H1112 0.950 . S
C1089 C1106 1.574 . S
C1089 C1108 1.368 . S
C1089 H1113 0.949 . S
H1090 C1094 0.949 . S
C1091 C1092 1.349 . S
C1091 C1093 1.327 . S
C1091 H1114 0.950 . S
C1092 C1091 1.349 . S
C1092 C1104 1.349 . S
C1093 C1091 1.327 . S
C1093 C1109 1.429 . S
C1093 H1115 0.950 . S
C1094 H1090 0.949 . S
C1094 C1102 1.574 . S
C1094 C1110 1.368 . S
H1095 C1103 0.950 . S
H1096 C1101 0.950 . S
H1097 C1102 0.949 . S
H1098 C1104 0.950 . S
H1099 C1105 0.950 . S
H1100 C1106 0.949 . S
C1101 H1096 0.950 . S
C1101 C1103 1.327 . S
C1101 C1107 1.429 . S
C1102 C1094 1.574 . S
C1102 H1097 0.949 . S
C1102 C1108 1.368 . S
C1103 C1087 1.349 . S
C1103 H1095 0.950 . S
C1103 C1101 1.327 . S
C1104 C1092 1.349 . S
C1104 H1098 0.950 . S
C1104 C1105 1.327 . S
C1105 H1099 0.950 . S
C1105 C1104 1.327 . S
C1105 C1109 1.429 . S
C1106 C1089 1.574 . S
C1106 H1100 0.949 . S
C1106 C1110 1.368 . S
C1107 C1088 1.429 . S
C1107 C1101 1.429 . S
C1107 C1108 1.523 . S
C1108 C1089 1.368 . S
C1108 C1102 1.368 . S
C1108 C1107 1.523 . S
C1109 C1093 1.429 . S
C1109 C1105 1.429 . S
C1109 C1110 1.523 . S
C1110 C1094 1.368 . S
C1110 C1106 1.368 . S
C1110 C1109 1.523 . S
H1111 C1086 0.950 . S
H1112 C1088 0.950 . S
H1113 C1089 0.949 . S
H1114 C1091 0.950 . S
H1115 C1093 0.950 . S
C1116 C1117 1.349 . S
C1116 C1118 1.327 . S
C1116 H1141 0.950 . S
C1117 C1116 1.349 . S
C1117 C1133 1.349 . S
C1118 C1116 1.327 . S
C1118 C1137 1.429 . S
C1118 H1142 0.950 . S
C1119 C1136 1.574 . S
C1119 C1138 1.368 . S
C1119 H1143 0.949 . S
H1120 C1124 0.949 . S
C1121 C1122 1.349 . S
C1121 C1123 1.327 . S
C1121 H1144 0.950 . S
C1122 C1121 1.349 . S
C1122 C1134 1.349 . S
C1123 C1121 1.327 . S
C1123 C1139 1.429 . S
C1123 H1145 0.950 . S
C1124 H1120 0.949 . S
C1124 C1132 1.574 . S
C1124 C1140 1.368 . S
H1125 C1133 0.950 . S
H1126 C1131 0.950 . S
H1127 C1132 0.949 . S
H1128 C1134 0.950 . S
H1129 C1135 0.950 . S
H1130 C1136 0.949 . S
C1131 H1126 0.950 . S
C1131 C1133 1.327 . S
C1131 C1137 1.429 . S
C1132 C1124 1.574 . S
C1132 H1127 0.949 . S
C1132 C1138 1.368 . S
C1133 C1117 1.349 . S
C1133 H1125 0.950 . S
C1133 C1131 1.327 . S
C1134 C1122 1.349 . S
C1134 H1128 0.950 . S
C1134 C1135 1.327 . S
C1135 H1129 0.950 . S
C1135 C1134 1.327 . S
C1135 C1139 1.429 . S
C1136 C1119 1.574 . S
C1136 H1130 0.949 . S
C1136 C1140 1.368 . S
C1137 C1118 1.429 . S
C1137 C1131 1.429 . S
C1137 C1138 1.523 . S
C1138 C1119 1.368 . S
C1138 C1132 1.368 . S
C1138 C1137 1.523 . S
C1139 C1123 1.429 . S
C1139 C1135 1.429 . S
C1139 C1140 1.523 . S
C1140 C1124 1.368 . S
C1140 C1136 1.368 . S
C1140 C1139 1.523 . S
H1141 C1116 0.950 . S
H1142 C1118 0.950 . S
H1143 C1119 0.949 . S
H1144 C1121 0.950 . S
H1145 C1123 0.950 . S
C1146 C1147 1.349 . S
C1146 C1148 1.327 . S
C1146 H1171 0.950 . S
C1147 C1146 1.349 . S
C1147 C1163 1.349 . S
C1148 C1146 1.327 . S
C1148 C1167 1.429 . S
C1148 H1172 0.950 . S
C1149 C1166 1.574 . S
C1149 C1168 1.368 . S
C1149 H1173 0.949 . S
H1150 C1154 0.949 . S
C1151 C1152 1.349 1_565 S
C1151 C1153 1.327 . S
C1151 H1174 0.950 . S
C1152 C1151 1.349 1_545 S
C1152 C1164 1.349 . S
C1153 C1151 1.327 . S
C1153 C1169 1.429 . S
C1153 H1175 0.950 . S
C1154 H1150 0.949 . S
C1154 C1162 1.574 . S
C1154 C1170 1.368 . S
H1155 C1163 0.950 . S
H1156 C1161 0.950 . S
H1157 C1162 0.949 . S
H1158 C1164 0.950 . S
H1159 C1165 0.950 . S
H1160 C1166 0.949 . S
C1161 H1156 0.950 . S
C1161 C1163 1.327 . S
C1161 C1167 1.429 . S
C1162 C1154 1.574 . S
C1162 H1157 0.949 . S
C1162 C1168 1.368 . S
C1163 C1147 1.349 . S
C1163 H1155 0.950 . S
C1163 C1161 1.327 . S
C1164 C1152 1.349 . S
C1164 H1158 0.950 . S
C1164 C1165 1.327 1_545 S
C1165 H1159 0.950 . S
C1165 C1164 1.327 1_565 S
C1165 C1169 1.429 . S
C1166 C1149 1.574 . S
C1166 H1160 0.949 . S
C1166 C1170 1.368 . S
C1167 C1148 1.429 . S
C1167 C1161 1.429 . S
C1167 C1168 1.523 . S
C1168 C1149 1.368 . S
C1168 C1162 1.368 . S
C1168 C1167 1.523 . S
C1169 C1153 1.429 . S
C1169 C1165 1.429 . S
C1169 C1170 1.523 . S
C1170 C1154 1.368 . S
C1170 C1166 1.368 . S
C1170 C1169 1.523 . S
H1171 C1146 0.950 . S
H1172 C1148 0.950 . S
H1173 C1149 0.949 . S
H1174 C1151 0.950 . S
H1175 C1153 0.950 . S
C1176 C1177 1.349 . S
C1176 C1178 1.327 . S
C1176 H1201 0.950 . S
C1177 C1176 1.349 . S
C1177 C1193 1.349 . S
C1178 C1176 1.327 . S
C1178 C1197 1.429 . S
C1178 H1202 0.950 . S
C1179 C1196 1.574 . S
C1179 C1198 1.368 . S
C1179 H1203 0.949 . S
H1180 C1184 0.949 . S
C1181 C1182 1.349 . S
C1181 C1183 1.327 1_565 S
C1181 H1204 0.950 . S
C1182 C1181 1.349 . S
C1182 C1194 1.349 1_565 S
C1183 C1181 1.327 1_545 S
C1183 C1199 1.429 . S
C1183 H1205 0.950 1_545 S
C1184 H1180 0.949 . S
C1184 C1192 1.574 . S
C1184 C1200 1.368 . S
H1185 C1193 0.950 . S
H1186 C1191 0.950 . S
H1187 C1192 0.949 . S
H1188 C1194 0.950 . S
H1189 C1195 0.950 . S
H1190 C1196 0.949 . S
C1191 H1186 0.950 . S
C1191 C1193 1.327 . S
C1191 C1197 1.429 . S
C1192 C1184 1.574 . S
C1192 H1187 0.949 . S
C1192 C1198 1.368 . S
C1193 C1177 1.349 . S
C1193 H1185 0.950 . S
C1193 C1191 1.327 . S
C1194 C1182 1.349 1_545 S
C1194 H1188 0.950 . S
C1194 C1195 1.327 . S
C1195 H1189 0.950 . S
C1195 C1194 1.327 . S
C1195 C1199 1.429 . S
C1196 C1179 1.574 . S
C1196 H1190 0.949 . S
C1196 C1200 1.368 . S
C1197 C1178 1.429 . S
C1197 C1191 1.429 . S
C1197 C1198 1.523 . S
C1198 C1179 1.368 . S
C1198 C1192 1.368 . S
C1198 C1197 1.523 . S
C1199 C1183 1.429 . S
C1199 C1195 1.429 . S
C1199 C1200 1.523 . S
C1200 C1184 1.368 . S
C1200 C1196 1.368 . S
C1200 C1199 1.523 . S
H1201 C1176 0.950 . S
H1202 C1178 0.950 . S
H1203 C1179 0.949 . S
H1204 C1181 0.950 . S
H1205 C1183 0.950 1_565 S
C1206 C1207 1.349 . S
C1206 C1208 1.327 . S
C1206 H1231 0.950 . S
C1207 C1206 1.349 . S
C1207 C1223 1.349 . S
C1208 C1206 1.327 . S
C1208 C1227 1.429 . S
C1208 H1232 0.950 . S
C1209 C1226 1.574 . S
C1209 C1228 1.368 . S
C1209 H1233 0.949 . S
H1210 C1214 0.949 . S
C1211 C1212 1.349 . S
C1211 C1213 1.327 . S
C1211 H1234 0.950 . S
C1212 C1211 1.349 . S
C1212 C1224 1.349 . S
C1213 C1211 1.327 . S
C1213 C1229 1.429 . S
C1213 H1235 0.950 . S
C1214 H1210 0.949 . S
C1214 C1222 1.574 . S
C1214 C1230 1.368 . S
H1215 C1223 0.950 . S
H1216 C1221 0.950 . S
H1217 C1222 0.949 . S
H1218 C1224 0.950 . S
H1219 C1225 0.950 . S
H1220 C1226 0.949 . S
C1221 H1216 0.950 . S
C1221 C1223 1.327 . S
C1221 C1227 1.429 . S
C1222 C1214 1.574 . S
C1222 H1217 0.949 . S
C1222 C1228 1.368 . S
C1223 C1207 1.349 . S
C1223 H1215 0.950 . S
C1223 C1221 1.327 . S
C1224 C1212 1.349 . S
C1224 H1218 0.950 . S
C1224 C1225 1.327 . S
C1225 H1219 0.950 . S
C1225 C1224 1.327 . S
C1225 C1229 1.429 . S
C1226 C1209 1.574 . S
C1226 H1220 0.949 . S
C1226 C1230 1.368 . S
C1227 C1208 1.429 . S
C1227 C1221 1.429 . S
C1227 C1228 1.523 . S
C1228 C1209 1.368 . S
C1228 C1222 1.368 . S
C1228 C1227 1.523 . S
C1229 C1213 1.429 . S
C1229 C1225 1.429 . S
C1229 C1230 1.523 . S
C1230 C1214 1.368 . S
C1230 C1226 1.368 . S
C1230 C1229 1.523 . S
H1231 C1206 0.950 . S
H1232 C1208 0.950 . S
H1233 C1209 0.949 . S
H1234 C1211 0.950 . S
H1235 C1213 0.950 . S
C1236 C1237 1.349 . S
C1236 C1238 1.327 . S
C1236 H1261 0.950 . S
C1237 C1236 1.349 . S
C1237 C1253 1.349 . S
C1238 C1236 1.327 . S
C1238 C1257 1.429 . S
C1238 H1262 0.950 . S
C1239 C1256 1.574 . S
C1239 C1258 1.368 . S
C1239 H1263 0.949 . S
H1240 C1244 0.949 . S
C1241 C1242 1.349 . S
C1241 C1243 1.327 . S
C1241 H1264 0.950 . S
C1242 C1241 1.349 . S
C1242 C1254 1.349 . S
C1243 C1241 1.327 . S
C1243 C1259 1.429 . S
C1243 H1265 0.950 . S
C1244 H1240 0.949 . S
C1244 C1252 1.574 . S
C1244 C1260 1.368 . S
H1245 C1253 0.950 . S
H1246 C1251 0.950 . S
H1247 C1252 0.949 . S
H1248 C1254 0.950 . S
H1249 C1255 0.950 . S
H1250 C1256 0.949 . S
C1251 H1246 0.950 . S
C1251 C1253 1.327 . S
C1251 C1257 1.429 . S
C1252 C1244 1.574 . S
C1252 H1247 0.949 . S
C1252 C1258 1.368 . S
C1253 C1237 1.349 . S
C1253 H1245 0.950 . S
C1253 C1251 1.327 . S
C1254 C1242 1.349 . S
C1254 H1248 0.950 . S
C1254 C1255 1.327 . S
C1255 H1249 0.950 . S
C1255 C1254 1.327 . S
C1255 C1259 1.429 . S
C1256 C1239 1.574 . S
C1256 H1250 0.949 . S
C1256 C1260 1.368 . S
C1257 C1238 1.429 . S
C1257 C1251 1.429 . S
C1257 C1258 1.523 . S
C1258 C1239 1.368 . S
C1258 C1252 1.368 . S
C1258 C1257 1.523 . S
C1259 C1243 1.429 . S
C1259 C1255 1.429 . S
C1259 C1260 1.523 . S
C1260 C1244 1.368 . S
C1260 C1256 1.368 . S
C1260 C1259 1.523 . S
H1261 C1236 0.950 . S
H1262 C1238 0.950 . S
H1263 C1239 0.949 . S
H1264 C1241 0.950 . S
H1265 C1243 0.950 . S
C1266 C1267 1.349 1_545 S
C1266 C1268 1.327 . S
C1266 H1291 0.950 . S
C1267 C1266 1.349 1_565 S
C1267 C1283 1.349 . S
C1268 C1266 1.327 . S
C1268 C1287 1.429 . S
C1268 H1292 0.950 . S
C1269 C1286 1.574 . S
C1269 C1288 1.368 . S
C1269 H1293 0.949 . S
H1270 C1274 0.949 . S
C1271 C1272 1.349 . S
C1271 C1273 1.327 . S
C1271 H1294 0.950 . S
C1272 C1271 1.349 . S
C1272 C1284 1.349 . S
C1273 C1271 1.327 . S
C1273 C1289 1.429 . S
C1273 H1295 0.950 . S
C1274 H1270 0.949 . S
C1274 C1282 1.574 . S
C1274 C1290 1.368 . S
H1275 C1283 0.950 . S
H1276 C1281 0.950 . S
H1277 C1282 0.949 . S
H1278 C1284 0.950 . S
H1279 C1285 0.950 . S
H1280 C1286 0.949 . S
C1281 H1276 0.950 . S
C1281 C1283 1.327 1_545 S
C1281 C1287 1.429 . S
C1282 C1274 1.574 . S
C1282 H1277 0.949 . S
C1282 C1288 1.368 . S
C1283 C1267 1.349 . S
C1283 H1275 0.950 . S
C1283 C1281 1.327 1_565 S
C1284 C1272 1.349 . S
C1284 H1278 0.950 . S
C1284 C1285 1.327 . S
C1285 H1279 0.950 . S
C1285 C1284 1.327 . S
C1285 C1289 1.429 . S
C1286 C1269 1.574 . S
C1286 H1280 0.949 . S
C1286 C1290 1.368 . S
C1287 C1268 1.429 . S
C1287 C1281 1.429 . S
C1287 C1288 1.523 . S
C1288 C1269 1.368 . S
C1288 C1282 1.368 . S
C1288 C1287 1.523 . S
C1289 C1273 1.429 . S
C1289 C1285 1.429 . S
C1289 C1290 1.523 . S
C1290 C1274 1.368 . S
C1290 C1286 1.368 . S
C1290 C1289 1.523 . S
H1291 C1266 0.950 . S
H1292 C1268 0.950 . S
H1293 C1269 0.949 . S
H1294 C1271 0.950 . S
H1295 C1273 0.950 . S
C1296 C1297 1.349 . S
C1296 C1298 1.327 . S
C1296 H1321 0.950 . S
C1297 C1296 1.349 . S
C1297 C1313 1.349 . S
C1298 C1296 1.327 . S
C1298 C1317 1.429 . S
C1298 H1322 0.950 . S
C1299 C1316 1.574 . S
C1299 C1318 1.368 . S
C1299 H1323 0.949 . S
H1300 C1304 0.949 . S
C1301 C1302 1.349 . S
C1301 C1303 1.327 1_545 S
C1301 H1324 0.950 . S
C1302 C1301 1.349 . S
C1302 C1314 1.349 . S
C1303 C1301 1.327 1_565 S
C1303 C1319 1.429 . S
C1303 H1325 0.950 . S
C1304 H1300 0.949 . S
C1304 C1312 1.574 . S
C1304 C1320 1.368 . S
H1305 C1313 0.950 . S
H1306 C1311 0.950 . S
H1307 C1312 0.949 . S
H1308 C1314 0.950 . S
H1309 C1315 0.950 . S
H1310 C1316 0.949 . S
C1311 H1306 0.950 . S
C1311 C1313 1.327 . S
C1311 C1317 1.429 . S
C1312 C1304 1.574 . S
C1312 H1307 0.949 . S
C1312 C1318 1.368 . S
C1313 C1297 1.349 . S
C1313 H1305 0.950 . S
C1313 C1311 1.327 . S
C1314 C1302 1.349 . S
C1314 H1308 0.950 . S
C1314 C1315 1.327 1_545 S
C1315 H1309 0.950 . S
C1315 C1314 1.327 1_565 S
C1315 C1319 1.429 . S
C1316 C1299 1.574 . S
C1316 H1310 0.949 . S
C1316 C1320 1.368 . S
C1317 C1298 1.429 . S
C1317 C1311 1.429 . S
C1317 C1318 1.523 . S
C1318 C1299 1.368 . S
C1318 C1312 1.368 . S
C1318 C1317 1.523 . S
C1319 C1303 1.429 . S
C1319 C1315 1.429 . S
C1319 C1320 1.523 . S
C1320 C1304 1.368 . S
C1320 C1316 1.368 . S
C1320 C1319 1.523 . S
H1321 C1296 0.950 . S
H1322 C1298 0.950 . S
H1323 C1299 0.949 . S
H1324 C1301 0.950 . S
H1325 C1303 0.950 . S
C1326 C1327 1.349 . S
C1326 C1328 1.327 . S
C1326 H1351 0.950 . S
C1327 C1326 1.349 . S
C1327 C1343 1.349 . S
C1328 C1326 1.327 . S
C1328 C1347 1.429 . S
C1328 H1352 0.950 . S
C1329 C1346 1.574 . S
C1329 C1348 1.368 . S
C1329 H1353 0.949 . S
H1330 C1334 0.949 . S
C1331 C1332 1.349 . S
C1331 C1333 1.327 . S
C1331 H1354 0.950 . S
C1332 C1331 1.349 . S
C1332 C1344 1.349 . S
C1333 C1331 1.327 . S
C1333 C1349 1.429 . S
C1333 H1355 0.950 . S
C1334 H1330 0.949 . S
C1334 C1342 1.574 . S
C1334 C1350 1.368 . S
H1335 C1343 0.950 . S
H1336 C1341 0.950 . S
H1337 C1342 0.949 . S
H1338 C1344 0.950 . S
H1339 C1345 0.950 . S
H1340 C1346 0.949 . S
C1341 H1336 0.950 . S
C1341 C1343 1.327 . S
C1341 C1347 1.429 . S
C1342 C1334 1.574 . S
C1342 H1337 0.949 . S
C1342 C1348 1.368 . S
C1343 C1327 1.349 . S
C1343 H1335 0.950 . S
C1343 C1341 1.327 . S
C1344 C1332 1.349 . S
C1344 H1338 0.950 . S
C1344 C1345 1.327 . S
C1345 H1339 0.950 . S
C1345 C1344 1.327 . S
C1345 C1349 1.429 . S
C1346 C1329 1.574 . S
C1346 H1340 0.949 . S
C1346 C1350 1.368 . S
C1347 C1328 1.429 . S
C1347 C1341 1.429 . S
C1347 C1348 1.523 . S
C1348 C1329 1.368 . S
C1348 C1342 1.368 . S
C1348 C1347 1.523 . S
C1349 C1333 1.429 . S
C1349 C1345 1.429 . S
C1349 C1350 1.523 . S
C1350 C1334 1.368 . S
C1350 C1346 1.368 . S
C1350 C1349 1.523 . S
H1351 C1326 0.950 . S
H1352 C1328 0.950 . S
H1353 C1329 0.949 . S
H1354 C1331 0.950 . S
H1355 C1333 0.950 . S
C1356 C1357 1.349 . S
C1356 C1358 1.327 . S
C1356 H1381 0.950 . S
C1357 C1356 1.349 . S
C1357 C1373 1.349 . S
C1358 C1356 1.327 . S
C1358 C1377 1.429 . S
C1358 H1382 0.950 . S
C1359 C1376 1.574 . S
C1359 C1378 1.368 . S
C1359 H1383 0.949 . S
H1360 C1364 0.949 . S
C1361 C1362 1.349 . S
C1361 C1363 1.327 . S
C1361 H1384 0.950 . S
C1362 C1361 1.349 . S
C1362 C1374 1.349 . S
C1363 C1361 1.327 . S
C1363 C1379 1.429 . S
C1363 H1385 0.950 . S
C1364 H1360 0.949 . S
C1364 C1372 1.574 . S
C1364 C1380 1.368 . S
H1365 C1373 0.950 . S
H1366 C1371 0.950 . S
H1367 C1372 0.949 . S
H1368 C1374 0.950 . S
H1369 C1375 0.950 . S
H1370 C1376 0.949 . S
C1371 H1366 0.950 . S
C1371 C1373 1.327 . S
C1371 C1377 1.429 . S
C1372 C1364 1.574 . S
C1372 H1367 0.949 . S
C1372 C1378 1.368 . S
C1373 C1357 1.349 . S
C1373 H1365 0.950 . S
C1373 C1371 1.327 . S
C1374 C1362 1.349 . S
C1374 H1368 0.950 . S
C1374 C1375 1.327 . S
C1375 H1369 0.950 . S
C1375 C1374 1.327 . S
C1375 C1379 1.429 . S
C1376 C1359 1.574 . S
C1376 H1370 0.949 . S
C1376 C1380 1.368 . S
C1377 C1358 1.429 . S
C1377 C1371 1.429 . S
C1377 C1378 1.523 . S
C1378 C1359 1.368 . S
C1378 C1372 1.368 . S
C1378 C1377 1.523 . S
C1379 C1363 1.429 . S
C1379 C1375 1.429 . S
C1379 C1380 1.523 . S
C1380 C1364 1.368 . S
C1380 C1376 1.368 . S
C1380 C1379 1.523 . S
H1381 C1356 0.950 . S
H1382 C1358 0.950 . S
H1383 C1359 0.949 . S
H1384 C1361 0.950 . S
H1385 C1363 0.950 . S
C1386 C1387 1.349 . S
C1386 C1388 1.327 . S
C1386 H1411 0.950 . S
C1387 C1386 1.349 . S
C1387 C1403 1.349 . S
C1388 C1386 1.327 . S
C1388 C1407 1.429 . S
C1388 H1412 0.950 . S
C1389 C1406 1.574 . S
C1389 C1408 1.368 . S
C1389 H1413 0.949 . S
H1390 C1394 0.949 . S
C1391 C1392 1.349 1_565 S
C1391 C1393 1.327 . S
C1391 H1414 0.950 . S
C1392 C1391 1.349 1_545 S
C1392 C1404 1.349 . S
C1393 C1391 1.327 . S
C1393 C1409 1.429 . S
C1393 H1415 0.950 . S
C1394 H1390 0.949 . S
C1394 C1402 1.574 . S
C1394 C1410 1.368 . S
H1395 C1403 0.950 . S
H1396 C1401 0.950 . S
H1397 C1402 0.949 . S
H1398 C1404 0.950 . S
H1399 C1405 0.950 . S
H1400 C1406 0.949 . S
C1401 H1396 0.950 . S
C1401 C1403 1.327 . S
C1401 C1407 1.429 . S
C1402 C1394 1.574 . S
C1402 H1397 0.949 . S
C1402 C1408 1.368 . S
C1403 C1387 1.349 . S
C1403 H1395 0.950 . S
C1403 C1401 1.327 . S
C1404 C1392 1.349 . S
C1404 H1398 0.950 . S
C1404 C1405 1.327 1_545 S
C1405 H1399 0.950 . S
C1405 C1404 1.327 1_565 S
C1405 C1409 1.429 . S
C1406 C1389 1.574 . S
C1406 H1400 0.949 . S
C1406 C1410 1.368 . S
C1407 C1388 1.429 . S
C1407 C1401 1.429 . S
C1407 C1408 1.523 . S
C1408 C1389 1.368 . S
C1408 C1402 1.368 . S
C1408 C1407 1.523 . S
C1409 C1393 1.429 . S
C1409 C1405 1.429 . S
C1409 C1410 1.523 . S
C1410 C1394 1.368 . S
C1410 C1406 1.368 . S
C1410 C1409 1.523 . S
H1411 C1386 0.950 . S
H1412 C1388 0.950 . S
H1413 C1389 0.949 . S
H1414 C1391 0.950 . S
H1415 C1393 0.950 . S
C1416 C1417 1.349 . S
C1416 C1418 1.327 . S
C1416 H1441 0.950 . S
C1417 C1416 1.349 . S
C1417 C1433 1.349 . S
C1418 C1416 1.327 . S
C1418 C1437 1.429 . S
C1418 H1442 0.950 . S
C1419 C1436 1.574 . S
C1419 C1438 1.368 . S
C1419 H1443 0.949 . S
H1420 C1424 0.949 . S
C1421 C1422 1.349 1_545 S
C1421 C1423 1.327 . S
C1421 H1444 0.950 . S
C1422 C1421 1.349 1_565 S
C1422 C1434 1.349 . S
C1423 C1421 1.327 . S
C1423 C1439 1.429 . S
C1423 H1445 0.950 . S
C1424 H1420 0.949 . S
C1424 C1432 1.574 . S
C1424 C1440 1.368 . S
H1425 C1433 0.950 . S
H1426 C1431 0.950 . S
H1427 C1432 0.949 . S
H1428 C1434 0.950 . S
H1429 C1435 0.950 1_565 S
H1430 C1436 0.949 . S
C1431 H1426 0.950 . S
C1431 C1433 1.327 . S
C1431 C1437 1.429 . S
C1432 C1424 1.574 . S
C1432 H1427 0.949 . S
C1432 C1438 1.368 . S
C1433 C1417 1.349 . S
C1433 H1425 0.950 . S
C1433 C1431 1.327 . S
C1434 C1422 1.349 . S
C1434 H1428 0.950 . S
C1434 C1435 1.327 1_565 S
C1435 H1429 0.950 1_545 S
C1435 C1434 1.327 1_545 S
C1435 C1439 1.429 . S
C1436 C1419 1.574 . S
C1436 H1430 0.949 . S
C1436 C1440 1.368 . S
C1437 C1418 1.429 . S
C1437 C1431 1.429 . S
C1437 C1438 1.523 . S
C1438 C1419 1.368 . S
C1438 C1432 1.368 . S
C1438 C1437 1.523 . S
C1439 C1423 1.429 . S
C1439 C1435 1.429 . S
C1439 C1440 1.523 . S
C1440 C1424 1.368 . S
C1440 C1436 1.368 . S
C1440 C1439 1.523 . S
H1441 C1416 0.950 . S
H1442 C1418 0.950 . S
H1443 C1419 0.949 . S
H1444 C1421 0.950 . S
H1445 C1423 0.950 . S
C1446 C1447 1.349 . S
C1446 C1448 1.327 . S
C1446 H1471 0.950 . S
C1447 C1446 1.349 . S
C1447 C1463 1.349 . S
C1448 C1446 1.327 . S
C1448 C1467 1.429 . S
C1448 H1472 0.950 . S
C1449 C1466 1.574 . S
C1449 C1468 1.368 . S
C1449 H1473 0.949 . S
H1450 C1454 0.949 . S
C1451 C1452 1.349 . S
C1451 C1453 1.327 . S
C1451 H1474 0.950 . S
C1452 C1451 1.349 . S
C1452 C1464 1.349 . S
C1453 C1451 1.327 . S
C1453 C1469 1.429 . S
C1453 H1475 0.950 . S
C1454 H1450 0.949 . S
C1454 C1462 1.574 . S
C1454 C1470 1.368 . S
H1455 C1463 0.950 . S
H1456 C1461 0.950 . S
H1457 C1462 0.949 . S
H1458 C1464 0.950 . S
H1459 C1465 0.950 . S
H1460 C1466 0.949 . S
C1461 H1456 0.950 . S
C1461 C1463 1.327 . S
C1461 C1467 1.429 . S
C1462 C1454 1.574 . S
C1462 H1457 0.949 . S
C1462 C1468 1.368 . S
C1463 C1447 1.349 . S
C1463 H1455 0.950 . S
C1463 C1461 1.327 . S
C1464 C1452 1.349 . S
C1464 H1458 0.950 . S
C1464 C1465 1.327 . S
C1465 H1459 0.950 . S
C1465 C1464 1.327 . S
C1465 C1469 1.429 . S
C1466 C1449 1.574 . S
C1466 H1460 0.949 . S
C1466 C1470 1.368 . S
C1467 C1448 1.429 . S
C1467 C1461 1.429 . S
C1467 C1468 1.523 . S
C1468 C1449 1.368 . S
C1468 C1462 1.368 . S
C1468 C1467 1.523 . S
C1469 C1453 1.429 . S
C1469 C1465 1.429 . S
C1469 C1470 1.523 . S
C1470 C1454 1.368 . S
C1470 C1466 1.368 . S
C1470 C1469 1.523 . S
H1471 C1446 0.950 . S
H1472 C1448 0.950 . S
H1473 C1449 0.949 . S
H1474 C1451 0.950 . S
H1475 C1453 0.950 . S
C1476 C1477 1.349 . S
C1476 C1478 1.327 . S
C1476 H1501 0.950 . S
C1477 C1476 1.349 . S
C1477 C1493 1.349 . S
C1478 C1476 1.327 . S
C1478 C1497 1.429 . S
C1478 H1502 0.950 . S
C1479 C1496 1.574 . S
C1479 C1498 1.368 . S
C1479 H1503 0.949 . S
H1480 C1484 0.949 . S
C1481 C1482 1.349 . S
C1481 C1483 1.327 . S
C1481 H1504 0.950 . S
C1482 C1481 1.349 . S
C1482 C1494 1.349 . S
C1483 C1481 1.327 . S
C1483 C1499 1.429 . S
C1483 H1505 0.950 . S
C1484 H1480 0.949 . S
C1484 C1492 1.574 . S
C1484 C1500 1.368 . S
H1485 C1493 0.950 . S
H1486 C1491 0.950 . S
H1487 C1492 0.949 . S
H1488 C1494 0.950 . S
H1489 C1495 0.950 . S
H1490 C1496 0.949 . S
C1491 H1486 0.950 . S
C1491 C1493 1.327 . S
C1491 C1497 1.429 . S
C1492 C1484 1.574 . S
C1492 H1487 0.949 . S
C1492 C1498 1.368 . S
C1493 C1477 1.349 . S
C1493 H1485 0.950 . S
C1493 C1491 1.327 . S
C1494 C1482 1.349 . S
C1494 H1488 0.950 . S
C1494 C1495 1.327 . S
C1495 H1489 0.950 . S
C1495 C1494 1.327 . S
C1495 C1499 1.429 . S
C1496 C1479 1.574 . S
C1496 H1490 0.949 . S
C1496 C1500 1.368 . S
C1497 C1478 1.429 . S
C1497 C1491 1.429 . S
C1497 C1498 1.523 . S
C1498 C1479 1.368 . S
C1498 C1492 1.368 . S
C1498 C1497 1.523 . S
C1499 C1483 1.429 . S
C1499 C1495 1.429 . S
C1499 C1500 1.523 . S
C1500 C1484 1.368 . S
C1500 C1496 1.368 . S
C1500 C1499 1.523 . S
H1501 C1476 0.950 . S
H1502 C1478 0.950 . S
H1503 C1479 0.949 . S
H1504 C1481 0.950 . S
H1505 C1483 0.950 . S
C1506 C1507 1.349 . S
C1506 C1508 1.327 . S
C1506 H1531 0.950 . S
C1507 C1506 1.349 . S
C1507 C1523 1.349 . S
C1508 C1506 1.327 . S
C1508 C1527 1.429 . S
C1508 H1532 0.950 . S
C1509 C1526 1.574 . S
C1509 C1528 1.368 . S
C1509 H1533 0.949 . S
H1510 C1514 0.949 . S
C1511 C1512 1.349 1_545 S
C1511 C1513 1.327 . S
C1511 H1534 0.950 . S
C1512 C1511 1.349 1_565 S
C1512 C1524 1.349 . S
C1513 C1511 1.327 . S
C1513 C1529 1.429 . S
C1513 H1535 0.950 . S
C1514 H1510 0.949 . S
C1514 C1522 1.574 . S
C1514 C1530 1.368 . S
H1515 C1523 0.950 . S
H1516 C1521 0.950 . S
H1517 C1522 0.949 . S
H1518 C1524 0.950 . S
H1519 C1525 0.950 . S
H1520 C1526 0.949 . S
C1521 H1516 0.950 . S
C1521 C1523 1.327 . S
C1521 C1527 1.429 . S
C1522 C1514 1.574 . S
C1522 H1517 0.949 . S
C1522 C1528 1.368 . S
C1523 C1507 1.349 . S
C1523 H1515 0.950 . S
C1523 C1521 1.327 . S
C1524 C1512 1.349 . S
C1524 H1518 0.950 . S
C1524 C1525 1.327 1_565 S
C1525 H1519 0.950 . S
C1525 C1524 1.327 1_545 S
C1525 C1529 1.429 . S
C1526 C1509 1.574 . S
C1526 H1520 0.949 . S
C1526 C1530 1.368 . S
C1527 C1508 1.429 . S
C1527 C1521 1.429 . S
C1527 C1528 1.523 . S
C1528 C1509 1.368 . S
C1528 C1522 1.368 . S
C1528 C1527 1.523 . S
C1529 C1513 1.429 . S
C1529 C1525 1.429 . S
C1529 C1530 1.523 . S
C1530 C1514 1.368 . S
C1530 C1526 1.368 . S
C1530 C1529 1.523 . S
H1531 C1506 0.950 . S
H1532 C1508 0.950 . S
H1533 C1509 0.949 . S
H1534 C1511 0.950 . S
H1535 C1513 0.950 . S
C577 C518 1.449 . S
C582 C14 1.449 . S
C607 C75 1.495 . S
C612 C3 1.495 . S
C637 C410 1.449 . S
C642 C50 1.449 . S
C667 C39 1.496 . S
C672 C255 1.496 . S
C697 C86 1.449 . S
C702 C446 1.449 . S
C727 C338 1.449 . S
C732 C122 1.449 . S
C757 C111 1.495 . S
C762 C183 1.495 . S
C787 C374 1.449 . S
C792 C158 1.449 . S
C817 C147 1.495 . S
C822 C219 1.495 . S
C847 C554 1.449 . S
C852 C194 1.449 . S
C877 C302 1.449 . S
C882 C230 1.449 . S
C907 C482 1.449 . S
C912 C266 1.449 . S
C937 C291 1.495 . S
C942 C363 1.495 . S
C967 C543 1.495 . S
C972 C327 1.495 . S
C997 C399 1.495 . S
C1002 C471 1.495 . S
C1027 C507 1.495 . S
C1032 C435 1.495 . S
C1057 C182 1.280 . S
C1062 C2 1.280 . S
C1087 C4 1.351 . S
C1092 C184 1.351 . S
C1117 C38 1.280 . S
C1122 C146 1.280 . S
C1147 C148 1.352 . S
C1152 C40 1.352 . S
C1177 C254 1.280 . S
C1182 C74 1.280 . S
C1207 C256 1.351 . S
C1212 C76 1.351 . S
C1237 C218 1.280 . S
C1242 C110 1.280 . S
C1267 C112 1.352 . S
C1272 C220 1.352 . S
C1297 C470 1.280 . S
C1302 C290 1.280 . S
C1327 C292 1.352 . S
C1332 C472 1.352 . S
C1357 C326 1.280 . S
C1362 C434 1.280 . S
C1387 C436 1.351 . S
C1392 C328 1.351 . S
C1417 C542 1.280 . S
C1422 C362 1.280 . S
C1447 C544 1.352 . S
C1452 C364 1.352 . S
C1477 C398 1.280 . S
C1482 C506 1.280 . S
C1507 C508 1.351 . S
C1512 C400 1.351 . S
