# Generated by pormake.
# Topology lcy-e, (6)-cn, num edge types: 1
# Building blocks:
#     Node 0, Type 0, BuildingBlock: BETGAK_clean_sbu_0, # of connection points: 6
#     Node 1, Type 0, BuildingBlock: BETGAK_clean_sbu_0, # of connection points: 6
#     Node 2, Type 0, BuildingBlock: BETGAK_clean_sbu_0, # of connection points: 6
#     Node 3, Type 0, BuildingBlock: BETGAK_clean_sbu_0, # of connection points: 6
#     Node 4, Type 0, BuildingBlock: BETGAK_clean_sbu_0, # of connection points: 6
#     Node 5, Type 0, BuildingBlock: BETGAK_clean_sbu_0, # of connection points: 6
#     Node 6, Type 0, BuildingBlock: BETGAK_clean_sbu_0, # of connection points: 6
#     Node 7, Type 0, BuildingBlock: BETGAK_clean_sbu_0, # of connection points: 6
#     Node 8, Type 0, BuildingBlock: BETGAK_clean_sbu_0, # of connection points: 6
#     Node 9, Type 0, BuildingBlock: BETGAK_clean_sbu_0, # of connection points: 6
#     Node 10, Type 0, BuildingBlock: BETGAK_clean_sbu_0, # of connection points: 6
#     Node 11, Type 0, BuildingBlock: BETGAK_clean_sbu_0, # of connection points: 6
#     Edge 12, Type (0, 0), BuildingBlock: TEMPAE_clean_linker_10, # of connection points: 2
#     Edge 13, Type (0, 0), BuildingBlock: TEMPAE_clean_linker_10, # of connection points: 2
#     Edge 14, Type (0, 0), BuildingBlock: TEMPAE_clean_linker_10, # of connection points: 2
#     Edge 15, Type (0, 0), BuildingBlock: TEMPAE_clean_linker_10, # of connection points: 2
#     Edge 16, Type (0, 0), BuildingBlock: TEMPAE_clean_linker_10, # of connection points: 2
#     Edge 17, Type (0, 0), BuildingBlock: TEMPAE_clean_linker_10, # of connection points: 2
#     Edge 18, Type (0, 0), BuildingBlock: TEMPAE_clean_linker_10, # of connection points: 2
#     Edge 19, Type (0, 0), BuildingBlock: TEMPAE_clean_linker_10, # of connection points: 2
#     Edge 20, Type (0, 0), BuildingBlock: TEMPAE_clean_linker_10, # of connection points: 2
#     Edge 21, Type (0, 0), BuildingBlock: TEMPAE_clean_linker_10, # of connection points: 2
#     Edge 22, Type (0, 0), BuildingBlock: TEMPAE_clean_linker_10, # of connection points: 2
#     Edge 23, Type (0, 0), BuildingBlock: TEMPAE_clean_linker_10, # of connection points: 2
#     Edge 24, Type (0, 0), BuildingBlock: TEMPAE_clean_linker_10, # of connection points: 2
#     Edge 25, Type (0, 0), BuildingBlock: TEMPAE_clean_linker_10, # of connection points: 2
#     Edge 26, Type (0, 0), BuildingBlock: TEMPAE_clean_linker_10, # of connection points: 2
#     Edge 27, Type (0, 0), BuildingBlock: TEMPAE_clean_linker_10, # of connection points: 2
#     Edge 28, Type (0, 0), BuildingBlock: TEMPAE_clean_linker_10, # of connection points: 2
#     Edge 29, Type (0, 0), BuildingBlock: TEMPAE_clean_linker_10, # of connection points: 2
#     Edge 30, Type (0, 0), BuildingBlock: TEMPAE_clean_linker_10, # of connection points: 2
#     Edge 31, Type (0, 0), BuildingBlock: TEMPAE_clean_linker_10, # of connection points: 2
#     Edge 32, Type (0, 0), BuildingBlock: TEMPAE_clean_linker_10, # of connection points: 2
#     Edge 33, Type (0, 0), BuildingBlock: TEMPAE_clean_linker_10, # of connection points: 2
#     Edge 34, Type (0, 0), BuildingBlock: TEMPAE_clean_linker_10, # of connection points: 2
#     Edge 35, Type (0, 0), BuildingBlock: TEMPAE_clean_linker_10, # of connection points: 2
#     Edge 36, Type (0, 0), BuildingBlock: TEMPAE_clean_linker_10, # of connection points: 2
#     Edge 37, Type (0, 0), BuildingBlock: TEMPAE_clean_linker_10, # of connection points: 2
#     Edge 38, Type (0, 0), BuildingBlock: TEMPAE_clean_linker_10, # of connection points: 2
#     Edge 39, Type (0, 0), BuildingBlock: TEMPAE_clean_linker_10, # of connection points: 2
#     Edge 40, Type (0, 0), BuildingBlock: TEMPAE_clean_linker_10, # of connection points: 2
#     Edge 41, Type (0, 0), BuildingBlock: TEMPAE_clean_linker_10, # of connection points: 2
#     Edge 42, Type (0, 0), BuildingBlock: TEMPAE_clean_linker_10, # of connection points: 2
#     Edge 43, Type (0, 0), BuildingBlock: TEMPAE_clean_linker_10, # of connection points: 2
#     Edge 44, Type (0, 0), BuildingBlock: TEMPAE_clean_linker_10, # of connection points: 2
#     Edge 45, Type (0, 0), BuildingBlock: TEMPAE_clean_linker_10, # of connection points: 2
#     Edge 46, Type (0, 0), BuildingBlock: TEMPAE_clean_linker_10, # of connection points: 2
#     Edge 47, Type (0, 0), BuildingBlock: TEMPAE_clean_linker_10, # of connection points: 2
# Relax obj value: 0.200
# Max RMSD: 0.311
# Mean RMSD: 0.287
data_MOF--net-lcy-e--node1-BETGAK_clean_sbu_0--edge1-TEMPAE_clean_linker_10
_symmetry_space_group_name_H-M    P1
_symmetry_Int_Tables_number       1
_symmetry_cell_setting            triclinic
loop_
_symmetry_equiv_pos_as_xyz
'x, y, z'
_cell_length_a     45.720977
_cell_length_b     42.238734
_cell_length_c     45.634396
_cell_angle_alpha  89.261142
_cell_angle_beta   90.959395
_cell_angle_gamma 88.380311
loop_
_atom_site_label
_atom_site_type_symbol
_atom_site_fract_x
_atom_site_fract_y
_atom_site_fract_z
_atom_type_partial_charge
La0 La 0.14524 0.27241 0.48299 0.0
La1 La 0.1638 0.22105 0.52517 0.0
C2 C 0.14404 0.31835 0.44696 0.0
C3 C 0.15452 0.32432 0.41674 0.0
C4 C 0.13523 0.32229 0.39255 0.0
C5 C 0.14441 0.32964 0.36421 0.0
C6 C 0.17307 0.33953 0.35927 0.0
C7 C 0.19255 0.34095 0.38341 0.0
C8 C 0.1834 0.3335 0.41177 0.0
C9 C 0.11001 0.2244 0.4831 0.0
C10 C 0.19844 0.22379 0.46732 0.0
C11 C 0.1679 0.1731 0.55887 0.0
C12 C 0.15047 0.15072 0.57575 0.0
C13 C 0.16535 0.12687 0.5921 0.0
C14 C 0.14995 0.10323 0.60623 0.0
C15 C 0.11924 0.10293 0.60438 0.0
C16 C 0.1042 0.12743 0.58861 0.0
C17 C 0.11974 0.1511 0.5742 0.0
C18 C 0.19427 0.27429 0.52773 0.0
C19 C 0.11438 0.26935 0.54334 0.0
O20 O 0.12272 0.29857 0.44978 0.0
O21 O 0.16388 0.31436 0.46782 0.0
O22 O 0.10197 0.25374 0.4788 0.0
O23 O 0.13779 0.22201 0.48522 0.0
O24 O 0.1828 0.24984 0.46043 0.0
O25 O 0.19333 0.20709 0.49111 0.0
O26 O 0.16916 0.20228 0.56803 0.0
O27 O 0.16523 0.17171 0.53035 0.0
O28 O 0.20545 0.24623 0.53322 0.0
O29 O 0.16749 0.27124 0.52359 0.0
O30 O 0.12269 0.23911 0.54371 0.0
O31 O 0.12473 0.28916 0.52342 0.0
H32 H 0.11281 0.31544 0.39556 0.0
H33 H 0.12888 0.32789 0.34616 0.0
H34 H 0.21465 0.34893 0.3806 0.0
H35 H 0.19883 0.33559 0.42986 0.0
H36 H 0.18905 0.12615 0.59347 0.0
H37 H 0.16214 0.08502 0.61858 0.0
H38 H 0.08054 0.12776 0.58676 0.0
H39 H 0.10789 0.16923 0.56143 0.0
La40 La 1.00387 0.86435 0.7425 0.0
La41 La 0.05327 0.8828 0.78414 0.0
C42 C 0.96109 0.86261 0.7066 0.0
C43 C 0.95111 0.87905 0.67899 0.0
C44 C 0.94592 0.86102 0.65389 0.0
C45 C 0.93549 0.87541 0.62778 0.0
C46 C 0.92975 0.9083 0.62603 0.0
C47 C 0.93524 0.92648 0.65113 0.0
C48 C 0.94589 0.91205 0.67728 0.0
C49 C 0.05069 0.8268 0.74164 0.0
C50 C 0.04442 0.92327 0.72694 0.0
C51 C 0.10012 0.8842 0.81465 0.0
C52 C 0.12367 0.86561 0.83079 0.0
C53 C 0.12617 0.86787 0.86143 0.0
C54 C 0.15091 0.85536 0.87661 0.0
C55 C 0.17388 0.84013 0.86159 0.0
C56 C 0.17088 0.83674 0.83105 0.0
C57 C 0.14626 0.8496 0.81582 0.0
C58 C 1.00338 0.91691 0.78787 0.0
C59 C 1.00999 0.83005 0.80369 0.0
O60 O 0.98462 0.84446 0.70501 0.0
O61 O 0.96069 0.87866 0.73093 0.0
O62 O 0.02405 0.81783 0.73801 0.0
O63 O 0.05081 0.8567 0.744 0.0
O64 O 0.02057 0.90715 0.72119 0.0
O65 O 0.0619 0.91633 0.74953 0.0
O66 O 0.07389 0.88625 0.82578 0.0
O67 O 0.09915 0.8826 0.78602 0.0
O68 O 0.02883 0.927 0.79585 0.0
O69 O 1.00683 0.88814 0.78254 0.0
O70 O 0.03761 0.83879 0.80337 0.0
O71 O 0.9909 0.84027 0.78305 0.0
H72 H 0.94958 0.83556 0.65458 0.0
H73 H 0.93111 0.86053 0.60915 0.0
H74 H 0.9313 0.95188 0.65055 0.0
H75 H 0.9498 0.92672 0.69615 0.0
H76 H 0.10947 0.88046 0.87362 0.0
H77 H 0.1523 0.85811 0.90016 0.0
H78 H 0.1882 0.82543 0.81872 0.0
H79 H 0.14558 0.84807 0.79216 0.0
La80 La 0.39296 0.77958 0.02888 0.0
La81 La 0.40533 0.73747 0.97695 0.0
C82 C 0.39046 0.81692 0.07156 0.0
C83 C 0.40693 0.84124 0.08725 0.0
C84 C 0.39099 0.86591 0.10035 0.0
C85 C 0.4053 0.89001 0.11494 0.0
C86 C 0.43601 0.89 0.11689 0.0
C87 C 0.4521 0.86502 0.10397 0.0
C88 C 0.43766 0.84091 0.08904 0.0
C89 C 0.35115 0.77903 0.98804 0.0
C90 C 0.44373 0.79824 0.98432 0.0
C91 C 0.40691 0.71815 0.9247 0.0
C92 C 0.3959 0.69631 0.90208 0.0
C93 C 0.41574 0.68339 0.88204 0.0
C94 C 0.40579 0.66767 0.85709 0.0
C95 C 0.37563 0.66447 0.85146 0.0
C96 C 0.35579 0.67647 0.87217 0.0
C97 C 0.36578 0.69225 0.89715 0.0
C98 C 0.43397 0.72127 0.02652 0.0
C99 C 0.36505 0.71242 0.02561 0.0
O100 O 0.38155 0.82446 0.0449 0.0
O101 O 0.39956 0.78724 0.07399 0.0
O102 O 0.34677 0.78019 1.01584 0.0
O103 O 0.37839 0.77905 0.98379 0.0
O104 O 0.42915 0.80527 1.00848 0.0
O105 O 0.43804 0.77278 0.96893 0.0
O106 O 0.42497 0.70749 0.9454 0.0
O107 O 0.3885 0.73982 0.93415 0.0
O108 O 0.42542 0.70106 1.00702 0.0
O109 O 0.42788 0.74879 1.01681 0.0
O110 O 0.36893 0.71359 0.9969 0.0
O111 O 0.37647 0.73362 0.04352 0.0
H112 H 0.36728 0.86661 0.09922 0.0
H113 H 0.39224 0.90858 0.12498 0.0
H114 H 0.47579 0.86445 0.10496 0.0
H115 H 0.45042 0.82222 0.07884 0.0
H116 H 0.43902 0.68669 0.885 0.0
H117 H 0.42178 0.65915 0.84161 0.0
H118 H 0.33245 0.67402 0.86891 0.0
H119 H 0.34989 0.70217 0.91206 0.0
La120 La 0.55715 0.1305 0.24309 0.0
La121 La 0.5078 0.11961 0.28639 0.0
C122 C 0.60157 0.12196 0.21172 0.0
C123 C 0.60844 0.11125 0.18161 0.0
C124 C 0.60709 0.13246 0.15756 0.0
C125 C 0.61548 0.12255 0.12966 0.0
C126 C 0.62564 0.09125 0.12514 0.0
C127 C 0.62654 0.06995 0.14912 0.0
C128 C 0.61815 0.07985 0.17698 0.0
C129 C 0.51022 0.1663 0.23257 0.0
C130 C 0.51382 0.07184 0.23493 0.0
C131 C 0.46181 0.12852 0.31504 0.0
C132 C 0.43375 0.13408 0.33049 0.0
C133 C 0.43323 0.1383 0.36097 0.0
C134 C 0.40715 0.14738 0.37483 0.0
C135 C 0.38093 0.15269 0.35853 0.0
C136 C 0.38148 0.14777 0.32808 0.0
C137 C 0.40746 0.13854 0.3143 0.0
C138 C 0.55874 0.08902 0.29889 0.0
C139 C 0.55053 0.17527 0.29628 0.0
O140 O 0.58786 0.14944 0.21442 0.0
O141 O 0.59177 0.10058 0.22987 0.0
O142 O 0.53639 0.17337 0.22481 0.0
O143 O 0.51045 0.138 0.24233 0.0
O144 O 0.53645 0.08807 0.22577 0.0
O145 O 0.49859 0.08013 0.25813 0.0
O146 O 0.48787 0.12881 0.32748 0.0
O147 O 0.46204 0.12104 0.2873 0.0
O148 O 0.53344 0.07942 0.30763 0.0
O149 O 0.55423 0.11561 0.28712 0.0
O150 O 0.52272 0.16756 0.29478 0.0
O151 O 0.57013 0.15984 0.28018 0.0
H152 H 0.60004 0.15692 0.16034 0.0
H153 H 0.61486 0.1397 0.1118 0.0
H154 H 0.6339 0.04559 0.14641 0.0
H155 H 0.61969 0.06294 0.19503 0.0
H156 H 0.45312 0.13524 0.37405 0.0
H157 H 0.40761 0.15038 0.39836 0.0
H158 H 0.36201 0.15204 0.31462 0.0
H159 H 0.40712 0.13598 0.29071 0.0
La160 La 0.64579 0.2457 0.55535 0.0
La161 La 0.66323 0.30267 0.51843 0.0
C162 C 0.64165 0.19738 0.58831 0.0
C163 C 0.65663 0.18195 0.61396 0.0
C164 C 0.6738 0.19908 0.6337 0.0
C165 C 0.68509 0.18459 0.65953 0.0
C166 C 0.6794 0.15268 0.66621 0.0
C167 C 0.6628 0.13552 0.64588 0.0
C168 C 0.65162 0.14999 0.62011 0.0
C169 C 0.60793 0.29359 0.55391 0.0
C170 C 0.69584 0.29202 0.57792 0.0
C171 C 0.6646 0.35454 0.4901 0.0
C172 C 0.64728 0.37859 0.47274 0.0
C173 C 0.62737 0.37062 0.45041 0.0
C174 C 0.61332 0.39446 0.43306 0.0
C175 C 0.61897 0.42674 0.43761 0.0
C176 C 0.63858 0.4344 0.46038 0.0
C177 C 0.65245 0.41068 0.47768 0.0
C178 C 0.69872 0.25162 0.51613 0.0
C179 C 0.61896 0.25424 0.49214 0.0
O180 O 0.62859 0.22477 0.59295 0.0
O181 O 0.65523 0.19707 0.56328 0.0
O182 O 0.60111 0.26409 0.55473 0.0
O183 O 0.63545 0.29586 0.55536 0.0
O184 O 0.68403 0.2637 0.57951 0.0
O185 O 0.68816 0.31292 0.55734 0.0
O186 O 0.67001 0.32678 0.47855 0.0
O187 O 0.65935 0.35243 0.51815 0.0
O188 O 0.70698 0.28025 0.51082 0.0
O189 O 0.67154 0.25282 0.51828 0.0
O190 O 0.62587 0.28437 0.49432 0.0
O191 O 0.62753 0.23291 0.51246 0.0
H192 H 0.67789 0.22384 0.6295 0.0
H193 H 0.69809 0.19849 0.67436 0.0
H194 H 0.65753 0.11111 0.65032 0.0
H195 H 0.63825 0.13638 0.60534 0.0
H196 H 0.62299 0.34606 0.44609 0.0
H197 H 0.59814 0.38756 0.416 0.0
H198 H 0.64404 0.45877 0.46433 0.0
H199 H 0.66791 0.41744 0.49458 0.0
La200 La 0.99738 0.39339 0.746 0.0
La201 La 0.03798 0.36678 0.79285 0.0
C202 C 0.96244 0.40076 0.70278 0.0
C203 C 0.93407 0.38765 0.69421 0.0
C204 C 0.92571 0.38756 0.66457 0.0
C205 C 0.89959 0.37381 0.65574 0.0
C206 C 0.88135 0.35956 0.67639 0.0
C207 C 0.88976 0.35994 0.70622 0.0
C208 C 0.91585 0.37392 0.71503 0.0
C209 C 0.99792 0.42664 0.79417 0.0
C210 C 0.97894 0.3331 0.78479 0.0
C211 C 0.0696 0.35646 0.8381 0.0
C212 C 0.08469 0.37211 0.86237 0.0
C213 C 0.09693 0.35302 0.88495 0.0
C214 C 0.10898 0.36663 0.90991 0.0
C215 C 0.1091 0.3997 0.91281 0.0
C216 C 0.09749 0.41895 0.88974 0.0
C217 C 0.08514 0.40522 0.86472 0.0
C218 C 0.04136 0.33832 0.74098 0.0
C219 C 0.05863 0.42334 0.75358 0.0
O220 O 0.96262 0.4193 0.72552 0.0
O221 O 0.98454 0.38049 0.70351 0.0
O222 O 0.99474 0.43838 0.76791 0.0
O223 O 0.99894 0.39657 0.79323 0.0
O224 O 0.97358 0.35197 0.76182 0.0
O225 O 1.00236 0.33596 0.80154 0.0
O226 O 0.08008 0.35947 0.81173 0.0
O227 O 0.04104 0.35866 0.83813 0.0
O228 O 0.04674 0.32412 0.76593 0.0
O229 O 0.03713 0.367 0.74619 0.0
O230 O 0.05826 0.41133 0.78054 0.0
O231 O 0.0381 0.4161 0.73397 0.0
H232 H 0.93948 0.39802 0.64818 0.0
H233 H 0.89359 0.3746 0.63268 0.0
H234 H 0.87643 0.34903 0.72271 0.0
H235 H 0.9219 0.37378 0.73807 0.0
H236 H 0.09665 0.32744 0.88356 0.0
H237 H 0.11817 0.3512 0.92706 0.0
H238 H 0.09725 0.44451 0.89143 0.0
H239 H 0.07548 0.4203 0.84756 0.0
La240 La 0.89423 0.76605 0.05495 0.0
La241 La 0.88164 0.71076 1.01503 0.0
C242 C 0.88937 0.8162 0.08455 0.0
C243 C 0.88083 0.82649 0.11412 0.0
C244 C 0.88106 0.85881 0.12061 0.0
C245 C 0.87213 0.86963 0.148 0.0
C246 C 0.86268 0.84834 0.16964 0.0
C247 C 0.86274 0.81578 0.16313 0.0
C248 C 0.87164 0.80497 0.13557 0.0
C249 C 0.93001 0.71723 0.06322 0.0
C250 C 0.84205 0.71872 0.06972 0.0
C251 C 0.88174 0.65983 0.98649 0.0
C252 C 0.89851 0.63435 0.97186 0.0
C253 C 0.88452 0.60575 0.96697 0.0
C254 C 0.89843 0.5813 0.95176 0.0
C255 C 0.92681 0.58478 0.941 0.0
C256 C 0.94129 0.61317 0.94672 0.0
C257 C 0.92719 0.63787 0.96197 0.0
C258 C 0.85071 0.76456 1.00402 0.0
C259 C 0.93073 0.75709 0.99772 0.0
O260 O 0.91371 0.79935 0.08254 0.0
O261 O 0.86848 0.80521 0.06795 0.0
O262 O 0.93658 0.74636 0.06796 0.0
O263 O 0.90287 0.71557 0.05722 0.0
O264 O 0.85671 0.74435 0.07653 0.0
O265 O 0.84886 0.70104 0.04711 0.0
O266 O 0.88031 0.68806 0.97424 0.0
O267 O 0.88346 0.66095 1.01511 0.0
O268 O 0.84127 0.73656 0.99835 0.0
O269 O 0.87662 0.76098 1.01257 0.0
O270 O 0.92387 0.72692 0.99991 0.0
O271 O 0.91785 0.77859 1.01478 0.0
H272 H 0.88805 0.87582 0.10437 0.0
H273 H 0.87286 0.89475 0.15231 0.0
H274 H 0.85539 0.79874 0.17913 0.0
H275 H 0.87112 0.7799 0.13093 0.0
H276 H 0.86246 0.60247 0.97456 0.0
H277 H 0.8868 0.55966 0.94819 0.0
H278 H 0.96311 0.61666 0.93863 0.0
H279 H 0.93841 0.65975 0.96559 0.0
La280 La 0.54426 0.63081 0.24401 0.0
La281 La 0.50246 0.64669 0.29226 0.0
C282 C 0.57262 0.62058 0.19778 0.0
C283 C 0.60127 0.63089 0.1873 0.0
C284 C 0.62227 0.64272 0.20682 0.0
C285 C 0.64886 0.65376 0.19641 0.0
C286 C 0.65486 0.65346 0.16624 0.0
C287 C 0.63367 0.64157 0.14684 0.0
C288 C 0.60718 0.63043 0.15728 0.0
C289 C 0.55648 0.60338 0.29567 0.0
C290 C 0.55943 0.68869 0.28307 0.0
C291 C 0.48093 0.65418 0.34254 0.0
C292 C 0.46745 0.63669 0.36691 0.0
C293 C 0.45897 0.65355 0.39175 0.0
C294 C 0.44726 0.63796 0.41591 0.0
C295 C 0.44371 0.60496 0.4159 0.0
C296 C 0.45198 0.58804 0.39074 0.0
C297 C 0.46386 0.60376 0.36648 0.0
C298 C 0.48838 0.67292 0.24051 0.0
C299 C 0.48435 0.59461 0.25082 0.0
O300 O 0.57296 0.60121 0.22039 0.0
O301 O 0.55273 0.64308 0.20027 0.0
O302 O 0.57578 0.614 0.27787 0.0
O303 O 0.53156 0.60763 0.28393 0.0
O304 O 0.56533 0.67362 0.25855 0.0
O305 O 0.53701 0.68105 0.29955 0.0
O306 O 0.46582 0.65777 0.31802 0.0
O307 O 0.50865 0.64781 0.33791 0.0
O308 O 0.46956 0.66547 0.26025 0.0
O309 O 0.51373 0.66861 0.25149 0.0
O310 O 0.48534 0.60217 0.27875 0.0
O311 O 0.50383 0.6057 0.23225 0.0
H312 H 0.61798 0.64371 0.23007 0.0
H313 H 0.66449 0.66308 0.21192 0.0
H314 H 0.63767 0.64064 0.12353 0.0
H315 H 0.59118 0.62162 0.14184 0.0
H316 H 0.46156 0.67896 0.39257 0.0
H317 H 0.44068 0.6519 0.43455 0.0
H318 H 0.4497 0.56261 0.38999 0.0
H319 H 0.47041 0.59024 0.34755 0.0
La320 La 0.23187 0.51445 0.14741 0.0
La321 La 0.27253 0.45836 0.13537 0.0
C322 C 0.19759 0.56226 0.14194 0.0
C323 C 0.16654 0.56875 0.13271 0.0
C324 C 0.1436 0.56613 0.1527 0.0
C325 C 0.11469 0.57425 0.14426 0.0
C326 C 0.10793 0.58538 0.11564 0.0
C327 C 0.13083 0.58738 0.09552 0.0
C328 C 0.15972 0.57928 0.10396 0.0
C329 C 0.22767 0.46718 0.18456 0.0
C330 C 0.21648 0.46554 0.09601 0.0
C331 C 0.30277 0.40727 0.13868 0.0
C332 C 0.32049 0.38509 0.1579 0.0
C333 C 0.35052 0.38956 0.16296 0.0
C334 C 0.36823 0.36558 0.1762 0.0
C335 C 0.35642 0.33642 0.18451 0.0
C336 C 0.32612 0.3326 0.1807 0.0
C337 C 0.30843 0.35657 0.16751 0.0
C338 C 0.27972 0.50977 0.10186 0.0
C339 C 0.29187 0.50903 0.18122 0.0
O340 O 0.20247 0.54689 0.16674 0.0
O341 O 0.21553 0.55274 0.12159 0.0
O342 O 0.22345 0.4967 0.19091 0.0
O343 O 0.23145 0.46438 0.15723 0.0
O344 O 0.20964 0.49156 0.11058 0.0
O345 O 0.23962 0.44747 0.10291 0.0
O346 O 0.31346 0.43478 0.13176 0.0
O347 O 0.27444 0.40908 0.14251 0.0
O348 O 0.28566 0.48104 0.09353 0.0
O349 O 0.27306 0.50822 0.12823 0.0
O350 O 0.29068 0.47837 0.17562 0.0
O351 O 0.27257 0.52947 0.16874 0.0
H352 H 0.14798 0.55824 0.17506 0.0
H353 H 0.09764 0.57209 0.16029 0.0
H354 H 0.12664 0.59632 0.07345 0.0
H355 H 0.17684 0.58192 0.08806 0.0
H356 H 0.36067 0.41102 0.15554 0.0
H357 H 0.39149 0.36932 0.17853 0.0
H358 H 0.31616 0.3107 0.18722 0.0
H359 H 0.28546 0.35217 0.16371 0.0
La360 La 0.74014 0.9803 0.8872 0.0
La361 La 0.77845 0.0359 0.89813 0.0
C362 C 0.71455 0.92802 0.88507 0.0
C363 C 0.68629 0.91732 0.89656 0.0
C364 C 0.66529 0.93919 0.90695 0.0
C365 C 0.63882 0.92883 0.91834 0.0
C366 C 0.63273 0.89632 0.91968 0.0
C367 C 0.65396 0.87454 0.90927 0.0
C368 C 0.68041 0.88494 0.8979 0.0
C369 C 0.72724 0.03178 0.85491 0.0
C370 C 0.71936 0.02916 0.93446 0.0
C371 C 0.7987 0.09074 0.90187 0.0
C372 C 0.81624 0.11378 0.8858 0.0
C373 C 0.82734 0.13944 0.90113 0.0
C374 C 0.84277 0.16279 0.88658 0.0
C375 C 0.84742 0.16111 0.85622 0.0
C376 C 0.83668 0.13496 0.84091 0.0
C377 C 0.82116 0.11148 0.85559 0.0
C378 C 0.79187 0.98374 0.92883 0.0
C379 C 0.80225 0.98659 0.85562 0.0
O380 O 0.71307 0.94942 0.86406 0.0
O381 O 0.73442 0.93463 0.90483 0.0
O382 O 0.70819 0.01263 0.86524 0.0
O383 O 0.7524 0.02106 0.8619 0.0
O384 O 0.71602 1.00056 0.92364 0.0
O385 O 0.74101 0.04721 0.92609 0.0
O386 O 0.81233 0.06516 0.91213 0.0
O387 O 0.77284 0.08481 0.89078 0.0
O388 O 0.81108 1.00323 0.91929 0.0
O389 O 0.76679 0.99492 0.92253 0.0
O390 O 0.79974 0.01733 0.86015 0.0
O391 O 0.78264 0.96684 0.86636 0.0
H392 H 0.66939 0.96431 0.90634 0.0
H393 H 0.6233 0.94631 0.92646 0.0
H394 H 0.64999 0.84939 0.90952 0.0
H395 H 0.6963 0.86764 0.89011 0.0
H396 H 0.82384 0.14158 0.92446 0.0
H397 H 0.85124 0.18215 0.89921 0.0
H398 H 0.83978 0.13295 0.81753 0.0
H399 H 0.81278 0.09179 0.84337 0.0
La400 La 0.76188 0.9751 0.4087 0.0
La401 La 0.81638 0.01786 0.39679 0.0
C402 C 0.71268 0.94944 0.40608 0.0
C403 C 0.69797 0.92472 0.38897 0.0
C404 C 0.68682 0.8988 0.40427 0.0
C405 C 0.67406 0.87397 0.38929 0.0
C406 C 0.67185 0.87445 0.35855 0.0
C407 C 0.68239 0.90079 0.34311 0.0
C408 C 0.69552 0.92566 0.35819 0.0
C409 C 0.80487 0.96465 0.44866 0.0
C410 C 0.80751 0.95399 0.35989 0.0
C411 C 0.86816 0.03719 0.39356 0.0
C412 C 0.89169 0.05462 0.409 0.0
C413 C 0.89702 0.08622 0.40121 0.0
C414 C 0.92183 0.10134 0.41197 0.0
C415 C 0.94228 0.08524 0.43067 0.0
C416 C 0.9364 0.05396 0.43932 0.0
C417 C 0.91155 0.03881 0.42852 0.0
C418 C 0.76645 0.03272 0.36872 0.0
C419 C 0.77091 0.04054 0.44202 0.0
O420 O 0.73462 0.93914 0.42264 0.0
O421 O 0.718 0.97665 0.39336 0.0
O422 O 0.78032 0.95019 0.44806 0.0
O423 O 0.80375 0.98334 0.42706 0.0
O424 O 0.7832 0.94753 0.37418 0.0
O425 O 0.8229 0.97966 0.36513 0.0
O426 O 0.84508 0.05326 0.38343 0.0
O427 O 0.86142 1.00927 0.4039 0.0
O428 O 0.78549 0.05343 0.37674 0.0
O429 O 0.77678 1.00549 0.37492 0.0
O430 O 0.79925 0.03859 0.43626 0.0
O431 O 0.75179 0.02027 0.43103 0.0
H432 H 0.68829 0.89758 0.42799 0.0
H433 H 0.66571 0.85437 0.40188 0.0
H434 H 0.68101 0.90182 0.3194 0.0
H435 H 0.70402 0.94531 0.3458 0.0
H436 H 0.88247 0.09905 0.38599 0.0
H437 H 0.9252 0.12562 0.40524 0.0
H438 H 0.95163 0.04067 0.45351 0.0
H439 H 0.90848 0.01429 0.43469 0.0
La440 La 0.31097 0.48597 0.64523 0.0
La441 La 0.27218 0.54004 0.6254 0.0
C442 C 0.34452 0.43764 0.64743 0.0
C443 C 0.37428 0.43 0.63671 0.0
C444 C 0.39719 0.42384 0.65702 0.0
C445 C 0.42542 0.41632 0.64754 0.0
C446 C 0.43141 0.41434 0.61745 0.0
C447 C 0.40852 0.42104 0.59709 0.0
C448 C 0.38029 0.42885 0.6066 0.0
C449 C 0.31356 0.53504 0.67952 0.0
C450 C 0.32966 0.53106 0.59111 0.0
C451 C 0.24137 0.59069 0.62286 0.0
C452 C 0.22627 0.61354 0.64242 0.0
C453 C 0.19726 0.60921 0.65109 0.0
C454 C 0.18218 0.63278 0.66664 0.0
C455 C 0.19567 0.66132 0.67374 0.0
C456 C 0.22498 0.66514 0.66588 0.0
C457 C 0.24002 0.64163 0.65036 0.0
C458 C 0.26636 0.4861 0.59601 0.0
C459 C 0.25115 0.49519 0.67598 0.0
O460 O 0.34292 0.45851 0.6683 0.0
O461 O 0.32352 0.44197 0.62775 0.0
O462 O 0.31586 0.50582 0.68826 0.0
O463 O 0.31186 0.53655 0.65167 0.0
O464 O 0.33499 0.50521 0.6074 0.0
O465 O 0.3068 0.54986 0.5956 0.0
O466 O 0.23062 0.56245 0.61994 0.0
O467 O 0.26999 0.58964 0.62425 0.0
O468 O 0.2627 0.51407 0.58412 0.0
O469 O 0.27059 0.48984 0.62278 0.0
O470 O 0.25246 0.52485 0.66651 0.0
O471 O 0.27029 0.47337 0.66682 0.0
H472 H 0.39323 0.42476 0.68034 0.0
H473 H 0.44255 0.41189 0.66388 0.0
H474 H 0.41216 0.4194 0.57377 0.0
H475 H 0.36317 0.43363 0.59032 0.0
H476 H 0.18588 0.58803 0.64512 0.0
H477 H 0.15954 0.62914 0.67204 0.0
H478 H 0.2362 0.68658 0.67133 0.0
H479 H 0.26228 0.64589 0.64389 0.0
C480 C 0.23774 0.30825 0.53909 0.0
C481 C 0.20758 0.30531 0.53425 0.0
C482 C 0.24956 0.33779 0.5464 0.0
C483 C 0.23072 0.36483 0.54954 0.0
C484 C 0.20033 0.3619 0.5442 0.0
C485 C 0.18928 0.33245 0.53634 0.0
C486 C 0.28214 0.33993 0.55136 0.0
C487 C 0.17918 0.38963 0.54797 0.0
C488 C 0.25185 0.42994 0.60222 0.0
C489 C 0.2584 0.45513 0.58326 0.0
C490 C 0.24339 0.40049 0.59152 0.0
C491 C 0.24205 0.39547 0.56092 0.0
C492 C 0.24943 0.42053 0.54156 0.0
C493 C 0.25719 0.45021 0.55294 0.0
C494 C 0.23496 0.37503 0.61311 0.0
C495 C 0.24881 0.41607 0.50882 0.0
H496 H 0.25205 0.28749 0.53732 0.0
H497 H 0.16596 0.33057 0.53261 0.0
H498 H 0.29068 0.36002 0.53847 0.0
H499 H 0.28684 0.34458 0.57481 0.0
H500 H 0.29412 0.31782 0.54519 0.0
H501 H 0.15635 0.3838 0.54188 0.0
H502 H 0.17963 0.39723 0.57115 0.0
H503 H 0.18577 0.41007 0.53435 0.0
H504 H 0.25261 0.43344 0.62569 0.0
H505 H 0.26244 0.46946 0.53818 0.0
H506 H 0.24855 0.35322 0.60989 0.0
H507 H 0.2118 0.36883 0.60927 0.0
H508 H 0.23759 0.38251 0.63623 0.0
H509 H 0.26191 0.39458 0.5031 0.0
H510 H 0.25746 0.43677 0.49683 0.0
H511 H 0.22602 0.41242 0.50114 0.0
C512 C 0.83804 0.94272 0.84124 0.0
C513 C 0.82978 0.97497 0.84163 0.0
C514 C 0.86606 0.93278 0.8317 0.0
C515 C 0.88645 0.95563 0.82278 0.0
C516 C 0.87793 0.98808 0.82258 0.0
C517 C 0.84979 0.99723 0.8316 0.0
C518 C 0.87406 0.89788 0.8317 0.0
C519 C 0.89894 0.01338 0.81381 0.0
C520 C 0.96854 0.93534 0.82623 0.0
C521 C 0.97473 0.93055 0.79664 0.0
C522 C 0.93989 0.94331 0.83511 0.0
C523 C 0.91683 0.94605 0.8139 0.0
C524 C 0.92325 0.94157 0.78394 0.0
C525 C 0.95216 0.93437 0.77571 0.0
C526 C 0.93424 0.94857 0.8672 0.0
C527 C 0.89951 0.94401 0.76054 0.0
H528 H 0.82297 0.92532 0.84914 0.0
H529 H 0.84389 0.02226 0.83168 0.0
H530 H 0.88208 0.89093 0.80981 0.0
H531 H 0.89211 0.89275 0.84776 0.0
H532 H 0.85527 0.88302 0.83739 0.0
H533 H 0.88896 0.03762 0.81491 0.0
H534 H 0.91857 0.0121 0.82846 0.0
H535 H 0.90651 1.00942 0.79116 0.0
H536 H 0.98594 0.93198 0.8425 0.0
H537 H 0.95715 0.93155 0.7528 0.0
H538 H 0.91824 0.93135 0.87522 0.0
H539 H 0.92451 0.97263 0.87031 0.0
H540 H 0.95453 0.94601 0.88086 0.0
H541 H 0.8815 0.92803 0.76608 0.0
H542 H 0.90776 0.93778 0.73853 0.0
H543 H 0.89008 0.96849 0.75948 0.0
C544 C 0.32668 0.67167 0.02283 0.0
C545 C 0.35054 0.68442 0.03777 0.0
C546 C 0.31434 0.64333 0.03244 0.0
C547 C 0.32692 0.62665 0.0569 0.0
C548 C 0.35117 0.63944 0.072 0.0
C549 C 0.36235 0.66849 0.06256 0.0
C550 C 0.28774 0.63134 1.01649 0.0
C551 C 0.36581 0.62208 0.09767 0.0
C552 C 0.28219 0.56855 0.1004 0.0
C553 C 0.29036 0.53932 0.08828 0.0
C554 C 0.29317 0.59707 0.08976 0.0
C555 C 0.31407 0.59642 0.06727 0.0
C556 C 0.32273 0.56693 0.05504 0.0
C557 C 0.31038 0.53873 0.06537 0.0
C558 C 0.28258 0.62788 0.10292 0.0
C559 C 0.34568 0.56511 0.0317 0.0
H560 H 0.31759 0.68399 1.00362 0.0
H561 H 0.38112 0.67806 0.07383 0.0
H562 H 0.29285 0.60786 1.00694 0.0
H563 H 0.26969 0.62815 0.03213 0.0
H564 H 0.27993 0.64773 0.99861 0.0
H565 H 0.38493 0.63479 0.10646 0.0
H566 H 0.35001 0.61893 0.11557 0.0
H567 H 0.37329 0.59808 0.09089 0.0
H568 H 0.26743 0.56921 0.11866 0.0
H569 H 0.31721 0.51617 0.05628 0.0
H570 H 0.27507 0.64475 0.08533 0.0
H571 H 0.3008 0.63896 0.11498 0.0
H572 H 0.26431 0.6245 0.1183 0.0
H573 H 0.3385 0.57946 1.01224 0.0
H574 H 0.35032 0.5404 0.0247 0.0
H575 H 0.36631 0.57521 0.04008 0.0
C576 C 0.59242 0.0549 0.33191 0.0
C577 C 0.58842 0.0777 0.30945 0.0
C578 C 0.62077 0.04653 0.34302 0.0
C579 C 0.64578 0.06057 0.33079 0.0
C580 C 0.64172 0.08303 0.30767 0.0
C581 C 0.61328 0.09176 0.29788 0.0
C582 C 0.62393 0.02333 0.36836 0.0
C583 C 0.66747 0.09809 0.29324 0.0
C584 C 0.71983 0.06558 0.37086 0.0
C585 C 0.73561 0.03981 0.35932 0.0
C586 C 0.69022 0.07168 0.36289 0.0
C587 C 0.67626 0.05225 0.34199 0.0
C588 C 0.69232 0.02628 0.33019 0.0
C589 C 0.72156 0.0201 0.33937 0.0
C590 C 0.67385 0.09892 0.37692 0.0
C591 C 0.67887 1.00544 0.30729 0.0
H592 H 0.5734 0.04428 0.34139 0.0
H593 H 0.61057 0.11002 0.28115 0.0
H594 H 0.63805 1.00277 0.36224 0.0
H595 H 0.6348 0.03483 0.38719 0.0
H596 H 0.60249 0.01454 0.37552 0.0
H597 H 0.66075 0.11311 0.27399 0.0
H598 H 0.6791 0.11301 0.30922 0.0
H599 H 0.68327 0.0795 0.28594 0.0
H600 H 0.7305 0.0806 0.38663 0.0
H601 H 0.73369 1.00008 0.33049 0.0
H602 H 0.65353 0.09039 0.38695 0.0
H603 H 0.66724 0.11698 0.36004 0.0
H604 H 0.68719 0.11048 0.39408 0.0
H605 H 0.65949 0.99373 0.31628 0.0
H606 H 0.6945 0.98684 0.29962 0.0
H607 H 0.67121 0.02007 0.28813 0.0
C608 C 0.72494 0.21772 0.48002 0.0
C609 C 0.71467 0.22212 0.50843 0.0
C610 C 0.73463 0.18756 0.47076 0.0
C611 C 0.73384 0.16127 0.4904 0.0
C612 C 0.7245 0.16604 0.5195 0.0
C613 C 0.71524 0.19647 0.52816 0.0
C614 C 0.7447 0.18362 0.43966 0.0
C615 C 0.72335 0.13885 0.54121 0.0
C616 C 0.73091 0.07932 0.45617 0.0
C617 C 0.76036 0.06906 0.458 0.0
C618 C 0.72183 0.10896 0.4672 0.0
C619 C 0.74266 0.12882 0.48043 0.0
C620 C 0.77215 0.11802 0.48334 0.0
C621 C 0.7806 0.08836 0.47218 0.0
C622 C 0.69011 0.11948 0.4638 0.0
C623 C 0.79509 0.13833 0.49725 0.0
H624 H 0.72412 0.23753 0.46465 0.0
H625 H 0.70791 0.20016 0.55032 0.0
H626 H 0.76687 0.17225 0.43955 0.0
H627 H 0.72976 0.16782 0.42773 0.0
H628 H 0.7453 0.20659 0.42757 0.0
H629 H 0.71592 0.14662 0.5631 0.0
H630 H 0.70817 0.12085 0.53292 0.0
H631 H 0.74527 0.1271 0.54375 0.0
H632 H 0.71513 0.06482 0.44503 0.0
H633 H 0.8034 0.08072 0.47384 0.0
H634 H 0.68824 0.14058 0.44908 0.0
H635 H 0.68125 0.12651 0.48533 0.0
H636 H 0.67635 0.10065 0.45454 0.0
H637 H 0.79747 0.16025 0.48393 0.0
H638 H 0.81679 0.12589 0.49915 0.0
H639 H 0.78826 0.14566 0.51942 0.0
C640 C 0.10799 0.44503 0.76456 0.0
C641 C 0.0854 0.43955 0.74414 0.0
C642 C 0.13543 0.45526 0.75553 0.0
C643 C 0.14047 0.46036 0.72535 0.0
C644 C 0.11738 0.45626 0.70474 0.0
C645 C 0.09015 0.44589 0.71437 0.0
C646 C 0.15939 0.45939 0.77822 0.0
C647 C 0.12176 0.46174 0.67236 0.0
C648 C 0.20452 0.50942 0.70122 0.0
C649 C 0.22481 0.48598 0.69234 0.0
C650 C 0.17728 0.50143 0.71251 0.0
C651 C 0.17008 0.46918 0.71521 0.0
C652 C 0.1909 0.44535 0.70742 0.0
C653 C 0.218 0.45403 0.69606 0.0
C654 C 0.15577 0.52758 0.7205 0.0
C655 C 0.18415 0.41066 0.71014 0.0
H656 H 0.10464 0.44025 0.78763 0.0
H657 H 0.07295 0.44161 0.69838 0.0
H658 H 0.17753 0.44198 0.77447 0.0
H659 H 0.16855 0.48335 0.7762 0.0
H660 H 0.15154 0.45606 0.80094 0.0
H661 H 0.10121 0.45925 0.65936 0.0
H662 H 0.13018 0.48577 0.6684 0.0
H663 H 0.13836 0.44446 0.66424 0.0
H664 H 0.20951 0.53421 0.69849 0.0
H665 H 0.23339 0.43575 0.6891 0.0
H666 H 0.14854 0.52428 0.7434 0.0
H667 H 0.13601 0.52666 0.70612 0.0
H668 H 0.16517 0.55145 0.71826 0.0
H669 H 0.17739 0.40497 0.7328 0.0
H670 H 0.20317 0.39505 0.70461 0.0
H671 H 0.16557 0.40518 0.69527 0.0
C672 C 0.78121 0.93673 0.96023 0.0
C673 C 0.79819 0.95068 0.9386 0.0
C674 C 0.78741 0.90557 0.97031 0.0
C675 C 0.81029 0.88742 0.95746 0.0
C676 C 0.82654 0.90106 0.93452 0.0
C677 C 0.82076 0.93277 0.92588 0.0
C678 C 0.77038 0.89264 0.99564 0.0
C679 C 0.85029 0.88231 0.91928 0.0
C680 C 0.85215 0.82339 1.00141 0.0
C681 C 0.83841 0.79556 0.99301 0.0
C682 C 0.84237 0.85326 0.99098 0.0
C683 C 0.81926 0.85557 0.96999 0.0
C684 C 0.80555 0.82751 0.96078 0.0
C685 C 0.81492 0.79784 0.97285 0.0
C686 C 0.85713 0.88236 1.00229 0.0
C687 C 0.78176 0.82875 0.93745 0.0
H688 H 0.76369 0.95062 0.96998 0.0
H689 H 0.8336 0.94341 0.90881 0.0
H690 H 0.76061 0.86982 0.98974 0.0
H691 H 0.78542 0.88791 1.01464 0.0
H692 H 0.75262 0.90929 1.00251 0.0
H693 H 0.85833 0.89497 0.89962 0.0
H694 H 0.86908 0.87768 0.93456 0.0
H695 H 0.84207 0.859 0.91248 0.0
H696 H 0.87102 0.82192 1.016 0.0
H697 H 0.8046 0.7764 0.96574 0.0
H698 H 0.84052 0.90022 1.00936 0.0
H699 H 0.86987 0.89333 0.98457 0.0
H700 H 0.87225 0.87677 0.02109 0.0
H701 H 0.76351 0.84483 0.94403 0.0
H702 H 0.77294 0.80501 0.93302 0.0
H703 H 0.79056 0.83853 0.9168 0.0
C704 C 0.45086 0.57724 0.21023 0.0
C705 C 0.45829 0.57777 0.24016 0.0
C706 C 0.42378 0.56572 0.20064 0.0
C707 C 0.40363 0.55477 0.22152 0.0
C708 C 0.41135 0.5546 0.25166 0.0
C709 C 0.4386 0.56581 0.26055 0.0
C710 C 0.41646 0.56597 0.16825 0.0
C711 C 0.39041 0.54352 0.27467 0.0
C712 C 0.32279 0.55296 0.19994 0.0
C713 C 0.31925 0.52063 0.19472 0.0
C714 C 0.3501 0.56444 0.20885 0.0
C715 C 0.37453 0.54316 0.21206 0.0
C716 C 0.37099 0.5105 0.20713 0.0
C717 C 0.3434 0.49961 0.19891 0.0
C718 C 0.35289 0.59936 0.21452 0.0
C719 C 0.39654 0.4871 0.20982 0.0
H720 H 0.46574 0.58679 0.19435 0.0
H721 H 0.44405 0.56613 0.28376 0.0
H722 H 0.40977 0.5421 0.16135 0.0
H723 H 0.39771 0.58261 0.16357 0.0
H724 H 0.43519 0.57326 0.15476 0.0
H725 H 0.39968 0.54515 0.29725 0.0
H726 H 0.36981 0.55803 0.27327 0.0
H727 H 0.38463 0.51859 0.27072 0.0
H728 H 0.30436 0.56938 0.19658 0.0
H729 H 0.34112 0.4746 0.19468 0.0
H730 H 0.36178 0.60292 0.23699 0.0
H731 H 0.33161 0.61257 0.21215 0.0
H732 H 0.36853 0.6097 0.199 0.0
H733 H 0.41416 0.49423 0.19487 0.0
H734 H 0.39028 0.46258 0.20447 0.0
H735 H 0.40578 0.48709 0.23244 0.0
C736 C 0.58997 0.19511 0.32961 0.0
C737 C 0.56017 0.19338 0.32218 0.0
C738 C 0.59898 0.20624 0.35714 0.0
C739 C 0.57767 0.21553 0.37779 0.0
C740 C 0.54763 0.21512 0.36993 0.0
C741 C 0.53928 0.20441 0.34215 0.0
C742 C 0.63126 0.20695 0.36452 0.0
C743 C 0.52422 0.22455 0.39137 0.0
C744 C 0.60038 0.21225 0.45852 0.0
C745 C 0.60527 0.24424 0.46414 0.0
C746 C 0.59093 0.20258 0.4306 0.0
C747 C 0.5867 0.2254 0.40774 0.0
C748 C 0.59102 0.25774 0.41347 0.0
C749 C 0.59991 0.26676 0.4416 0.0
C750 C 0.58602 0.16789 0.42542 0.0
C751 C 0.58712 0.28277 0.38966 0.0
H752 H 0.60627 0.18653 0.31444 0.0
H753 H 0.51617 0.20322 0.33671 0.0
H754 H 0.63699 0.2306 0.37283 0.0
H755 H 0.63674 0.18937 0.38219 0.0
H756 H 0.64503 0.20143 0.34531 0.0
H757 H 0.50185 0.22367 0.38158 0.0
H758 H 0.52552 0.20842 0.41076 0.0
H759 H 0.52773 0.24887 0.39932 0.0
H760 H 0.60452 0.19466 0.47571 0.0
H761 H 0.60357 0.29157 0.44558 0.0
H762 H 0.60171 0.15879 0.40905 0.0
H763 H 0.56367 0.16465 0.4163 0.0
H764 H 0.58876 0.15339 0.44582 0.0
H765 H 0.60231 0.27756 0.37153 0.0
H766 H 0.5913 0.30695 0.39776 0.0
H767 H 0.56456 0.28253 0.38035 0.0
C768 C 0.11636 0.30184 0.58815 0.0
C769 C 0.10054 0.28177 0.56998 0.0
C770 C 0.10634 0.30972 0.61616 0.0
C771 C 0.07922 0.29824 0.62581 0.0
C772 C 0.06266 0.27887 0.60696 0.0
C773 C 0.07392 0.27016 0.57957 0.0
C774 C 0.12528 0.32948 0.63579 0.0
C775 C 0.03307 0.26736 0.61572 0.0
C776 C 0.06361 0.29693 0.70801 0.0
C777 C 0.04964 0.32656 0.71158 0.0
C778 C 0.0734 0.28729 0.68023 0.0
C779 C 0.06802 0.30723 0.6553 0.0
C780 C 0.05307 0.33668 0.65878 0.0
C781 C 0.045 0.34633 0.68689 0.0
C782 C 0.09041 0.25634 0.67774 0.0
C783 C 0.04594 0.35835 0.63289 0.0
H784 H 0.13737 0.31007 0.58101 0.0
H785 H 0.06196 0.25424 0.56563 0.0
H786 H 0.11361 0.35199 0.6411 0.0
H787 H 0.12992 0.31664 0.6568 0.0
H788 H 0.1464 0.33519 0.62555 0.0
H789 H 0.02214 0.25425 0.59786 0.0
H790 H 0.0354 0.25153 0.63524 0.0
H791 H 1.0187 0.28776 0.62184 0.0
H792 H 0.06777 0.28175 0.72704 0.0
H793 H 0.03542 0.36978 0.68947 0.0
H794 H 0.11249 0.26082 0.66911 0.0
H795 H 0.07935 0.24069 0.66197 0.0
H796 H 0.09292 0.24363 0.69913 0.0
H797 H 0.06631 0.36851 0.62448 0.0
H798 H 0.03075 0.37819 0.63871 0.0
H799 H 0.03585 0.34487 0.61481 0.0
C800 C 0.01944 0.80792 0.85423 0.0
C801 C 0.99963 0.81435 0.83086 0.0
C802 C 1.00978 0.79829 0.8819 0.0
C803 C 0.97955 0.7944 0.88639 0.0
C804 C 0.9595 0.79951 0.86263 0.0
C805 C 0.96975 0.80958 0.83519 0.0
C806 C 0.03188 0.7934 0.90664 0.0
C807 C 0.92712 0.79512 0.86638 0.0
C808 C 0.95677 0.74408 0.95142 0.0
C809 C 0.94694 0.76705 0.97129 0.0
C810 C 0.96747 0.75265 0.92387 0.0
C811 C 0.96897 0.78506 0.916 0.0
C812 C 0.96033 0.80845 0.9364 0.0
C813 C 0.94927 0.79918 0.96374 0.0
C814 C 0.97618 0.72693 0.90276 0.0
C815 C 0.96205 0.84329 0.92904 0.0
H816 H 0.04258 0.81156 0.85131 0.0
H817 H 0.95422 0.81461 0.81742 0.0
H818 H 0.02694 0.81021 0.9245 0.0
H819 H 0.03049 0.76913 0.916 0.0
H820 H 0.05467 0.79694 0.89946 0.0
H821 H 0.91462 0.79822 0.8454 0.0
H822 H 0.92318 0.77115 0.87546 0.0
H823 H 0.91844 0.81254 0.88226 0.0
H824 H 0.95511 0.71916 0.9569 0.0
H825 H 0.94161 0.81712 0.97878 0.0
H826 H 0.99916 0.72971 0.896 0.0
H827 H 0.96224 0.72897 0.88264 0.0
H828 H 0.97401 0.70281 0.91235 0.0
H829 H 0.98451 0.84888 0.92216 0.0
H830 H 0.95612 0.85848 0.94785 0.0
H831 H 0.94703 0.84943 0.91035 0.0
C832 C 0.45229 0.67745 0.19836 0.0
C833 C 0.48098 0.68059 0.20914 0.0
C834 C 0.44485 0.68387 0.16869 0.0
C835 C 0.46692 0.69249 0.14874 0.0
C836 C 0.49604 0.6953 0.15958 0.0
C837 C 0.50243 0.69038 0.18969 0.0
C838 C 0.41318 0.68115 0.15935 0.0
C839 C 0.52065 0.70352 0.13947 0.0
C840 C 0.44656 0.68204 0.06744 0.0
C841 C 0.44405 0.71348 0.05718 0.0
C842 C 0.45482 0.67486 0.09683 0.0
C843 C 0.45952 0.69972 0.11695 0.0
C844 C 0.45698 0.73154 0.1065 0.0
C845 C 0.45036 0.73782 0.0767 0.0
C846 C 0.4585 0.6406 0.10629 0.0
C847 C 0.46077 0.75953 0.12634 0.0
H848 H 0.43542 0.67004 0.21317 0.0
H849 H 0.52435 0.69419 0.19799 0.0
H850 H 0.40777 0.69342 0.13824 0.0
H851 H 0.40809 0.65573 0.15729 0.0
H852 H 0.39861 0.69104 0.17641 0.0
H853 H 0.54241 0.69739 0.14953 0.0
H854 H 0.51863 0.69095 0.11834 0.0
H855 H 0.51972 0.72933 0.1347 0.0
H856 H 0.44205 0.66299 0.05249 0.0
H857 H 0.44964 0.76211 0.06878 0.0
H858 H 0.43995 0.63397 0.1202 0.0
H859 H 0.47894 0.63689 0.11953 0.0
H860 H 0.45915 0.62445 0.08728 0.0
H861 H 0.44338 0.77784 0.12154 0.0
H862 H 0.48201 0.7705 0.12174 0.0
H863 H 0.46007 0.7533 0.14998 0.0
C864 C 0.21039 0.34416 0.3193 0.0
C865 C 0.18201 0.35049 0.32951 0.0
C866 C 0.21993 0.35754 0.29282 0.0
C867 C 0.20069 0.37786 0.27614 0.0
C868 C 0.17152 0.38275 0.28543 0.0
C869 C 0.16259 0.36914 0.31194 0.0
C870 C 0.25111 0.35142 0.28363 0.0
C871 C 0.15022 0.40422 0.2684 0.0
C872 C 0.22878 0.44971 0.23637 0.0
C873 C 0.2252 0.44169 0.20685 0.0
C874 C 0.22244 0.42841 0.25897 0.0
C875 C 0.21204 0.39814 0.25201 0.0
C876 C 0.21005 0.38908 0.22218 0.0
C877 C 0.21677 0.41103 0.19981 0.0
C878 C 0.22533 0.43912 0.29034 0.0
C879 C 0.19934 0.35693 0.21385 0.0
H880 H 0.22542 0.32928 0.33237 0.0
H881 H 0.14073 0.37451 0.31961 0.0
H882 H 0.25203 0.34654 0.25982 0.0
H883 H 0.26401 0.37283 0.28771 0.0
H884 H 0.26165 0.33119 0.29595 0.0
H885 H 0.12751 0.40252 0.27645 0.0
H886 H 0.15697 0.42915 0.27042 0.0
H887 H 0.15034 0.39835 0.24478 0.0
H888 H 0.23572 0.47327 0.24189 0.0
H889 H 0.21404 0.40476 0.17699 0.0
H890 H 0.23843 0.42145 0.30356 0.0
H891 H 0.20333 0.44111 0.30018 0.0
H892 H 0.23585 0.46243 0.29207 0.0
H893 H 0.20985 0.33814 0.22796 0.0
H894 H 0.20371 0.35154 0.19054 0.0
H895 H 0.1754 0.35621 0.21725 0.0
C896 C 0.92632 0.91319 0.57086 0.0
C897 C 0.91676 0.92299 0.59851 0.0
C898 C 0.91188 0.92375 0.54486 0.0
C899 C 0.88705 0.94447 0.54638 0.0
C900 C 0.87844 0.956 0.57408 0.0
C901 C 0.89337 0.94519 0.59973 0.0
C902 C 0.92217 0.9112 0.51588 0.0
C903 C 0.85222 0.97821 0.57682 0.0
C904 C 0.8505 0.98067 0.47665 0.0
C905 C 0.82781 0.95959 0.47184 0.0
C906 C 0.87029 0.97613 0.50064 0.0
C907 C 0.86736 0.94979 0.52 0.0
C908 C 0.84478 0.92825 0.51465 0.0
C909 C 0.82541 0.93345 0.49083 0.0
C910 C 0.89418 0.99954 0.50527 0.0
C911 C 0.84062 0.89983 0.53448 0.0
H912 H 0.94474 0.89658 0.56956 0.0
H913 H 0.88569 0.9529 0.62089 0.0
H914 H 0.90612 0.8943 0.50723 0.0
H915 H 0.92357 0.93079 0.49958 0.0
H916 H 0.94388 0.8988 0.5179 0.0
H917 H 0.85055 0.98817 0.59916 0.0
H918 H 0.85328 0.99803 0.5607 0.0
H919 H 0.83196 0.96526 0.57191 0.0
H920 H 0.85233 1.00105 0.46221 0.0
H921 H 0.80796 0.917 0.48726 0.0
H922 H 0.91554 0.98832 0.49959 0.0
H923 H 0.89561 1.00651 0.5286 0.0
H924 H 0.89069 0.02122 0.49147 0.0
H925 H 0.86092 0.88479 0.53543 0.0
H926 H 0.82227 0.88507 0.52702 0.0
H927 H 0.83618 0.90776 0.5571 0.0
C928 C 0.33364 0.58767 0.69436 0.0
C929 C 0.31675 0.56129 0.70042 0.0
C930 C 0.3419 0.60827 0.71705 0.0
C931 C 0.33276 0.60239 0.7462 0.0
C932 C 0.31386 0.57709 0.75169 0.0
C933 C 0.30631 0.55685 0.72884 0.0
C934 C 0.36194 0.63502 0.71019 0.0
C935 C 0.30311 0.57005 0.78215 0.0
C936 C 0.38006 0.62283 0.81249 0.0
C937 C 0.36506 0.64933 0.82382 0.0
C938 C 0.37044 0.60827 0.78665 0.0
C939 C 0.34502 0.62024 0.77158 0.0
C940 C 0.33003 0.6473 0.78253 0.0
C941 C 0.34021 0.66149 0.80844 0.0
C942 C 0.38707 0.57939 0.77594 0.0
C943 C 0.30285 0.66083 0.76725 0.0
H944 H 0.34194 0.591 0.67246 0.0
H945 H 0.29308 0.53652 0.73352 0.0
H946 H 0.35407 0.65722 0.72056 0.0
H947 H 0.3841 0.62924 0.71937 0.0
H948 H 0.36375 0.63923 0.68622 0.0
H949 H 0.28623 0.55164 0.78219 0.0
H950 H 0.32177 0.56162 0.79633 0.0
H951 H 0.29375 0.59183 0.79209 0.0
H952 H 0.39905 0.61293 0.82423 0.0
H953 H 0.3287 0.68228 0.81657 0.0
H954 H 0.39269 0.58257 0.75255 0.0
H955 H 0.3731 0.55838 0.7775 0.0
H956 H 0.40756 0.5744 0.78881 0.0
H957 H 0.30711 0.6652 0.7437 0.0
H958 H 0.295 0.68334 0.77716 0.0
H959 H 0.2851 0.6435 0.76844 0.0
C960 C 0.62167 0.09098 0.06992 0.0
C961 C 0.63644 0.0812 0.09587 0.0
C962 C 0.63238 0.08256 0.04225 0.0
C963 C 0.65859 0.06403 0.04041 0.0
C964 C 0.67332 0.05368 0.06652 0.0
C965 C 0.6621 0.06237 0.09384 0.0
C966 C 0.6159 0.09389 1.01499 0.0
C967 C 0.7014 0.03404 0.06561 0.0
C968 C 0.67991 0.01991 0.97119 0.0
C969 C 0.70107 0.03968 0.95942 0.0
C970 C 0.66505 0.02807 0.99692 0.0
C971 C 0.67152 0.05662 1.01133 0.0
C972 C 0.69194 0.07726 0.99887 0.0
C973 C 0.70637 0.06861 0.97311 0.0
C974 C 0.64325 1.00551 1.00929 0.0
C975 C 0.6995 0.10795 1.01344 0.0
H976 H 0.60164 0.1052 0.07124 0.0
H977 H 0.67393 0.05506 0.11368 0.0
H978 H 0.62974 0.10987 1.00205 0.0
H979 H 0.6108 0.07348 1.0009 0.0
H980 H 0.59515 0.1068 0.02012 0.0
H981 H 0.7096 0.02686 0.08784 0.0
H982 H 0.69804 0.01238 0.05262 0.0
H983 H 0.71854 0.04772 0.0546 0.0
H984 H 0.67551 0.99757 0.9608 0.0
H985 H 0.72254 0.08419 0.96424 0.0
H986 H 0.62241 0.01832 1.01412 0.0
H987 H 0.65193 0.99517 0.03027 0.0
H988 H 0.63857 0.98587 0.99409 0.0
H989 H 0.67932 0.1223 1.01753 0.0
H990 H 0.71441 0.12231 1.00004 0.0
H991 H 0.71026 0.10281 0.03502 0.0
C992 C 0.68843 0.15444 0.72099 0.0
C993 C 0.68955 0.13754 0.69467 0.0
C994 C 0.69588 0.13976 0.74812 0.0
C995 C 0.70454 0.10728 0.74916 0.0
C996 C 0.70649 0.09033 0.72263 0.0
C997 C 0.69909 0.10562 0.69582 0.0
C998 C 0.69366 0.15881 0.77579 0.0
C999 C 0.7157 0.05571 0.72261 0.0
C1000 C 0.74389 0.06955 0.81604 0.0
C1001 C 0.72109 0.05383 0.82976 0.0
C1002 C 0.73873 0.08793 0.79038 0.0
C1003 C 0.7101 0.09046 0.77795 0.0
C1004 C 0.68686 0.07547 0.79233 0.0
C1005 C 0.69262 0.05748 0.81806 0.0
C1006 C 0.7641 0.1038 0.7761 0.0
C1007 C 0.65602 0.07749 0.77996 0.0
H1008 H 0.68082 0.17897 0.72056 0.0
H1009 H 0.70062 0.09241 0.67568 0.0
H1010 H 0.67603 0.1495 0.78961 0.0
H1011 H 0.71437 0.15649 0.78877 0.0
H1012 H 0.68883 0.18433 0.77117 0.0
H1013 H 0.71716 0.04616 0.70009 0.0
H1014 H 0.73731 0.05221 0.73378 0.0
H1015 H 0.69975 0.04171 0.735 0.0
H1016 H 0.76593 0.06688 0.825 0.0
H1017 H 0.67488 0.04546 0.82856 0.0
H1018 H 0.75868 0.12922 0.77182 0.0
H1019 H 0.76844 0.09274 0.75462 0.0
H1020 H 0.78441 0.10187 0.78979 0.0
H1021 H 0.64891 0.10261 0.7766 0.0
H1022 H 0.64017 0.06582 0.79446 0.0
H1023 H 0.65529 0.06601 0.75823 0.0
C1024 C 0.17277 0.47485 0.06243 0.0
C1025 C 0.1982 0.45702 0.07019 0.0
C1026 C 0.15631 0.46792 0.03709 0.0
C1027 C 0.16558 0.4427 1.01897 0.0
C1028 C 0.19112 0.42457 0.02677 0.0
C1029 C 0.20701 0.43185 0.05226 0.0
C1030 C 0.12907 0.48763 0.02967 0.0
C1031 C 0.20183 0.39754 1.00803 0.0
C1032 C 0.1136 0.40107 0.9675 0.0
C1033 C 0.12119 0.41353 0.9401 0.0
C1034 C 0.1269 0.41143 0.99347 0.0
C1035 C 0.14852 0.4347 0.99204 0.0
C1036 C 0.15542 0.44834 0.96455 0.0
C1037 C 0.14155 0.43769 0.93889 0.0
C1038 C 0.11862 0.39653 0.02231 0.0
C1039 C 0.17843 0.47312 0.96208 0.0
H1040 H 0.16576 0.49439 0.07604 0.0
H1041 H 0.22667 0.418 0.05787 0.0
H1042 H 0.13115 0.49899 1.00778 0.0
H1043 H 0.10983 0.47222 0.02852 0.0
H1044 H 0.12478 0.50639 0.04603 0.0
H1045 H 0.2223 0.38601 1.01692 0.0
H1046 H 0.18482 0.37939 1.00639 0.0
H1047 H 0.2059 0.40628 0.98547 0.0
H1048 H 0.0975 0.38274 0.96858 0.0
H1049 H 0.14756 0.4473 0.91775 0.0
H1050 H 0.11321 0.41514 0.03845 0.0
H1051 H 0.13746 0.38227 0.03144 0.0
H1052 H 0.09962 0.38087 0.01997 0.0
H1053 H 0.17396 0.49264 0.97755 0.0
H1054 H 0.17953 0.48323 0.93955 0.0
H1055 H 0.20017 0.46242 0.96816 0.0
C1056 C 0.84265 0.93918 0.32022 0.0
C1057 C 0.81627 0.93388 0.33463 0.0
C1058 C 0.85 0.92294 0.29453 0.0
C1059 C 0.83055 0.90071 0.28271 0.0
C1060 C 0.80436 0.89438 0.29766 0.0
C1061 C 0.79755 0.91097 0.3234 0.0
C1062 C 0.87819 0.93041 0.27947 0.0
C1063 C 0.78302 0.87087 0.2859 0.0
C1064 C 0.83562 0.88833 0.20029 0.0
C1065 C 0.85286 0.86037 0.19871 0.0
C1066 C 0.82757 0.90114 0.2274 0.0
C1067 C 0.83694 0.88571 0.25381 0.0
C1068 C 0.85366 0.85699 0.25242 0.0
C1069 C 0.86137 0.84466 0.22494 0.0
C1070 C 0.80957 0.93166 0.22773 0.0
C1071 C 0.86414 0.83977 0.27998 0.0
H1072 H 0.85743 0.95663 0.32865 0.0
H1073 H 0.77709 0.90664 0.33421 0.0
H1074 H 0.89122 0.90832 0.27577 0.0
H1075 H 0.87324 0.94142 0.25768 0.0
H1076 H 0.89178 0.94683 0.29234 0.0
H1077 H 0.7647 0.86691 0.3011 0.0
H1078 H 0.77375 0.87959 0.26457 0.0
H1079 H 0.79441 0.84783 0.28189 0.0
H1080 H 0.82843 0.90037 0.18021 0.0
H1081 H 0.87485 0.82318 0.22404 0.0
H1082 H 0.82238 0.95044 0.23829 0.0
H1083 H 0.78964 0.92852 0.24087 0.0
H1084 H 0.80284 0.93994 0.20535 0.0
H1085 H 0.87971 0.85464 0.29216 0.0
H1086 H 0.87522 0.81669 0.27527 0.0
H1087 H 0.84546 0.83552 0.29459 0.0
C1088 C 0.34242 0.56597 0.54858 0.0
C1089 C 0.34916 0.53917 0.56628 0.0
C1090 C 0.35946 0.57386 0.52438 0.0
C1091 C 0.3842 0.55465 0.51742 0.0
C1092 C 0.39136 0.52761 0.5352 0.0
C1093 C 0.37374 0.52015 0.55936 0.0
C1094 C 0.35087 0.60288 0.50616 0.0
C1095 C 0.41759 0.50655 0.52869 0.0
C1096 C 0.40957 0.56591 0.43869 0.0
C1097 C 0.431 0.58883 0.44203 0.0
C1098 C 0.39524 0.55324 0.46316 0.0
C1099 C 0.40251 0.56361 0.49176 0.0
C1100 C 0.42519 0.58548 0.49533 0.0
C1101 C 0.43907 0.59778 0.47053 0.0
C1102 C 0.37123 0.53002 0.45825 0.0
C1103 C 0.43388 0.59709 0.5253 0.0
H1104 H 0.32352 0.58092 0.55346 0.0
H1105 H 0.37919 0.49935 0.57273 0.0
H1106 H 0.36895 0.61986 0.50637 0.0
H1107 H 0.34697 0.59614 0.48303 0.0
H1108 H 0.33081 0.61514 0.51423 0.0
H1109 H 0.42019 0.48636 0.54446 0.0
H1110 H 0.41553 0.49707 0.50622 0.0
H1111 H 0.43777 0.52053 0.52946 0.0
H1112 H 0.40304 0.55887 0.41684 0.0
H1113 H 0.45601 0.61497 0.47346 0.0
H1114 H 0.34979 0.54149 0.46327 0.0
H1115 H 0.37428 0.50924 0.47321 0.0
H1116 H 0.37041 0.5216 0.43529 0.0
H1117 H 0.41577 0.61191 0.53421 0.0
H1118 H 0.45387 0.61143 0.52474 0.0
H1119 H 0.43782 0.57681 0.54068 0.0
C1120 C 0.23189 0.23114 0.42421 0.0
C1121 C 0.22349 0.21336 0.44875 0.0
C1122 C 0.25675 0.22217 0.40797 0.0
C1123 C 0.27376 0.19484 0.41649 0.0
C1124 C 0.26508 0.17659 0.44091 0.0
C1125 C 0.24017 0.18598 0.4566 0.0
C1126 C 0.26507 0.2422 0.38196 0.0
C1127 C 0.28246 0.14735 0.4509 0.0
C1128 C 0.32588 0.15317 0.3638 0.0
C1129 C 0.35332 0.16398 0.37301 0.0
C1130 C 0.29982 0.16369 0.37711 0.0
C1131 C 0.30101 0.18545 0.40045 0.0
C1132 C 0.32855 0.19671 0.40968 0.0
C1133 C 0.35424 0.18596 0.39586 0.0
C1134 C 0.27102 0.15102 0.36652 0.0
C1135 C 0.33093 0.21981 0.43452 0.0
H1136 H 0.2193 0.25234 0.4179 0.0
H1137 H 0.23406 0.17193 0.47545 0.0
H1138 H 0.28693 0.25222 0.38593 0.0
H1139 H 0.26667 0.22736 0.36214 0.0
H1140 H 0.24904 0.26201 0.37746 0.0
H1141 H 0.27251 0.13536 0.46995 0.0
H1142 H 0.28414 0.13025 0.43272 0.0
H1143 H 0.30506 0.15383 0.45712 0.0
H1144 H 0.32474 0.13594 0.34647 0.0
H1145 H 0.37511 0.19506 0.40286 0.0
H1146 H 0.25542 0.17089 0.36099 0.0
H1147 H 0.26116 0.13685 0.38424 0.0
H1148 H 0.27353 0.13587 0.34696 0.0
H1149 H 0.31699 0.24124 0.42975 0.0
H1150 H 0.35378 0.2272 0.43844 0.0
H1151 H 0.32284 0.20889 0.45497 0.0
C1152 C 0.07949 0.08295 0.63675 0.0
C1153 C 0.10345 0.07669 0.61871 0.0
C1154 C 0.06669 0.05845 0.65288 0.0
C1155 C 0.07797 0.02696 0.6507 0.0
C1156 C 0.10114 0.02037 0.6313 0.0
C1157 C 0.11362 0.04527 0.61565 0.0
C1158 C 0.04209 0.06652 0.67337 0.0
C1159 C 0.11367 0.98716 0.62803 0.0
C1160 C 0.07457 0.9704 0.71589 0.0
C1161 C 0.05195 0.95038 0.7076 0.0
C1162 C 0.08258 0.99582 0.69793 0.0
C1163 C 0.06781 1.00145 0.67077 0.0
C1164 C 0.04461 0.98172 0.6624 0.0
C1165 C 0.03688 0.95648 0.68096 0.0
C1166 C 0.10728 0.01637 0.70787 0.0
C1167 C 0.0284 0.98682 0.63357 0.0
H1168 H 0.07159 0.10718 0.63925 0.0
H1169 H 0.1318 0.04022 0.60133 0.0
H1170 H 0.02372 0.05027 0.67009 0.0
H1171 H 0.04996 0.0634 0.69639 0.0
H1172 H 0.03373 0.09131 0.67024 0.0
H1173 H 0.12974 0.98551 0.61007 0.0
H1174 H 0.1248 0.97937 0.64879 0.0
H1175 H 0.09592 0.97042 0.6236 0.0
H1176 H 0.08621 0.96621 0.73652 0.0
H1177 H 0.01931 0.94126 0.67435 0.0
H1178 H 0.0999 0.04163 0.70775 0.0
H1179 H 0.1257 0.01417 0.69244 0.0
H1180 H 0.11556 1.00986 0.73023 0.0
H1181 H 0.02013 0.0117 0.63149 0.0
H1182 H 1.00966 0.97082 0.63114 0.0
H1183 H 0.04359 0.98258 0.61523 0.0
C1184 C 0.21484 0.79976 0.87216 0.0
C1185 C 0.20141 0.82941 0.87756 0.0
C1186 C 0.24046 0.78944 0.8876 0.0
C1187 C 0.2533 0.80937 0.90873 0.0
C1188 C 0.24024 0.83963 0.91367 0.0
C1189 C 0.21449 0.84915 0.89822 0.0
C1190 C 0.25333 0.75686 0.88187 0.0
C1191 C 0.25324 0.86189 0.93566 0.0
C1192 C 0.29849 0.77652 0.97375 0.0
C1193 C 0.32719 0.78317 0.96575 0.0
C1194 C 0.27453 0.7835 0.95483 0.0
C1195 C 0.27914 0.79803 0.92721 0.0
C1196 C 0.30825 0.8037 0.9185 0.0
C1197 C 0.33198 0.79599 0.9378 0.0
C1198 C 0.2441 0.77641 0.96497 0.0
C1199 C 0.31424 0.81927 0.88936 0.0
H1200 H 0.20489 0.78427 0.85633 0.0
H1201 H 0.20467 0.87233 0.90218 0.0
H1202 H 0.27686 0.75834 0.87663 0.0
H1203 H 0.25187 0.74187 0.90191 0.0
H1204 H 0.24189 0.74499 0.86356 0.0
H1205 H 0.24157 0.88532 0.93566 0.0
H1206 H 0.25228 0.85132 0.958 0.0
H1207 H 0.27662 0.86554 0.93087 0.0
H1208 H 0.29467 0.76635 0.99524 0.0
H1209 H 0.35409 0.80129 0.93154 0.0
H1210 H 0.23218 0.76304 0.94799 0.0
H1211 H 0.2316 0.79892 0.96836 0.0
H1212 H 0.24439 0.76248 0.98579 0.0
H1213 H 0.30282 0.80689 0.8714 0.0
H1214 H 0.338 0.81947 0.88466 0.0
H1215 H 0.30558 0.84408 0.88933 0.0
C1216 C 0.48107 0.02578 0.22674 0.0
C1217 C 0.5047 0.04387 0.21777 0.0
C1218 C 0.47168 0.99992 0.21027 0.0
C1219 C 0.48615 0.99186 0.18406 0.0
C1220 C 0.51032 1.00965 0.17512 0.0
C1221 C 0.51931 0.03535 0.19205 0.0
C1222 C 0.44588 0.98154 0.22067 0.0
C1223 C 0.52633 1.00195 0.14732 0.0
C1224 C 0.47333 0.90971 0.15307 0.0
C1225 C 0.45076 0.91616 0.13247 0.0
C1226 C 0.4855 0.93415 0.16966 0.0
C1227 C 0.47501 0.96582 0.16537 0.0
C1228 C 0.45293 0.97253 0.14387 0.0
C1229 C 0.44106 0.94768 0.12779 0.0
C1230 C 0.50894 0.92595 0.1924 0.0
C1231 C 0.44132 1.00593 0.13829 0.0
H1232 H 0.46965 0.03194 0.24658 0.0
H1233 H 0.53765 0.04901 0.18486 0.0
H1234 H 0.42766 0.98391 0.20435 0.0
H1235 H 0.45196 0.95598 0.22267 0.0
H1236 H 0.43784 0.98985 0.24217 0.0
H1237 H 0.54555 0.01706 0.14411 0.0
H1238 H 0.53389 0.97676 0.14768 0.0
H1239 H 0.51124 1.00531 0.12816 0.0
H1240 H 0.4808 0.88541 0.15695 0.0
H1241 H 0.42394 0.95291 0.11158 0.0
H1242 H 0.5007 0.93144 0.21455 0.0
H1243 H 0.52839 0.94055 0.18885 0.0
H1244 H 0.51585 0.90054 0.19198 0.0
H1245 H 0.43072 0.01508 0.1583 0.0
H1246 H 0.4251 1.00739 0.11989 0.0
H1247 H 0.45957 0.02174 0.13321 0.0
C1248 C 0.82788 0.34862 0.6828 0.0
C1249 C 0.8536 0.3448 0.66665 0.0
C1250 C 0.8011 0.33718 0.67236 0.0
C1251 C 0.79991 0.32183 0.64497 0.0
C1252 C 0.82602 0.31654 0.62929 0.0
C1253 C 0.8525 0.32791 0.64037 0.0
C1254 C 0.77384 0.34293 0.68994 0.0
C1255 C 0.82579 0.3003 0.6 0.0
C1256 C 0.73359 0.27747 0.61715 0.0
C1257 C 0.72025 0.30018 0.59815 0.0
C1258 C 0.75885 0.2845 0.63367 0.0
C1259 C 0.77117 0.31481 0.63088 0.0
C1260 C 0.75706 0.33814 0.61269 0.0
C1261 C 0.7318 0.33062 0.59674 0.0
C1262 C 0.77296 0.25913 0.6532 0.0
C1263 C 0.76938 0.37076 0.60898 0.0
H1264 H 0.82838 0.36169 0.70307 0.0
H1265 H 0.87234 0.32405 0.6281 0.0
H1266 H 0.75974 0.3614 0.67883 0.0
H1267 H 0.761 0.32108 0.69136 0.0
H1268 H 0.77899 0.35094 0.71249 0.0
H1269 H 0.84821 0.29577 0.59169 0.0
H1270 H 0.81457 0.27742 0.60164 0.0
H1271 H 0.8134 0.31532 0.58367 0.0
H1272 H 0.72489 0.25391 0.61845 0.0
H1273 H 0.72162 0.34853 0.5824 0.0
H1274 H 0.77843 0.26882 0.67504 0.0
H1275 H 0.79374 0.25061 0.64341 0.0
H1276 H 0.75863 0.23856 0.65617 0.0
H1277 H 0.77253 0.38187 0.63064 0.0
H1278 H 0.75499 0.38669 0.59515 0.0
H1279 H 0.79115 0.36881 0.59864 0.0
C1280 C 0.98445 0.43452 0.84714 0.0
C1281 C 0.9942 0.44662 0.8204 0.0
C1282 C 0.9764 0.45511 0.86999 0.0
C1283 C 0.97832 0.4884 0.86591 0.0
C1284 C 0.9901 0.50033 0.83964 0.0
C1285 C 0.99783 0.47935 0.81732 0.0
C1286 C 0.96427 0.44139 0.89776 0.0
C1287 C 0.99279 0.53548 0.83423 0.0
C1288 C 0.9234 0.54512 0.90076 0.0
C1289 C 0.94025 0.55931 0.9227 0.0
C1290 C 0.93529 0.5213 0.88297 0.0
C1291 C 0.96488 0.51111 0.88712 0.0
C1292 C 0.98193 0.52486 0.9096 0.0
C1293 C 0.96949 0.54897 0.92698 0.0
C1294 C 0.91636 0.50777 0.85902 0.0
C1295 C 1.01345 0.51452 0.91492 0.0
H1296 H 0.98172 0.40922 0.84966 0.0
H1297 H 1.00575 0.4888 0.79681 0.0
H1298 H 0.97418 0.4526 0.91727 0.0
H1299 H 0.94033 0.44639 0.89826 0.0
H1300 H 0.96819 0.41534 0.89941 0.0
H1301 H 1.00503 0.54072 0.81399 0.0
H1302 H 0.97063 0.54677 0.83205 0.0
H1303 H 1.00403 0.54661 0.85302 0.0
H1304 H 0.90093 0.55321 0.897 0.0
H1305 H 0.98257 0.55956 0.94407 0.0
H1306 H 0.91638 0.48157 0.86095 0.0
H1307 H 0.92538 0.51381 0.8373 0.0
H1308 H 0.89337 0.51695 0.85969 0.0
H1309 H 1.01532 0.48836 0.91725 0.0
H1310 H 0.02295 0.52534 0.93486 0.0
H1311 H 0.0267 0.52134 0.89582 0.0
C1312 C 0.80464 0.72986 0.10864 0.0
C1313 C 0.81646 0.70956 0.08747 0.0
C1314 C 0.77906 0.72215 0.1237 0.0
C1315 C 0.76499 0.69342 0.11755 0.0
C1316 C 0.77733 0.67247 0.09686 0.0
C1317 C 0.80277 0.68077 0.08212 0.0
C1318 C 0.76665 0.74514 0.14561 0.0
C1319 C 0.76325 0.64151 0.08972 0.0
C1320 C 0.70973 0.65765 0.16931 0.0
C1321 C 0.68304 0.66543 0.15493 0.0
C1322 C 0.73652 0.66744 0.15796 0.0
C1323 C 0.7367 0.6856 0.13164 0.0
C1324 C 0.70977 0.69436 0.11754 0.0
C1325 C 0.68336 0.68414 0.12929 0.0
C1326 C 0.76468 0.65744 0.17362 0.0
C1327 C 0.70889 0.71387 0.08956 0.0
H1328 H 0.81496 0.75215 0.11297 0.0
H1329 H 0.8117 0.66473 0.066 0.0
H1330 H 0.74499 0.75449 0.13764 0.0
H1331 H 0.76318 0.7329 0.16687 0.0
H1332 H 0.78115 0.76542 0.14936 0.0
H1333 H 0.77629 0.62717 0.07413 0.0
H1334 H 0.76044 0.62729 0.11004 0.0
H1335 H 0.74114 0.64621 0.07995 0.0
H1336 H 0.70977 0.64303 0.18901 0.0
H1337 H 0.66285 0.69076 0.1183 0.0
H1338 H 0.77835 0.67831 0.17754 0.0
H1339 H 0.77743 0.64095 0.15967 0.0
H1340 H 0.76078 0.64547 0.19496 0.0
H1341 H 0.72122 0.73587 0.09257 0.0
H1342 H 0.68617 0.72041 0.08232 0.0
H1343 H 0.71962 0.70033 0.07184 0.0
C1344 C 0.59764 0.48212 0.42956 0.0
C1345 C 0.60568 0.45241 0.41812 0.0
C1346 C 0.58776 0.5074 0.41119 0.0
C1347 C 0.5855 0.503 0.38053 0.0
C1348 C 0.59243 0.47277 0.36894 0.0
C1349 C 0.60251 0.44797 0.38778 0.0
C1350 C 0.58061 0.53915 0.42455 0.0
C1351 C 0.59009 0.46687 0.33644 0.0
C1352 C 0.54127 0.56203 0.33199 0.0
C1353 C 0.56342 0.57976 0.31938 0.0
C1354 C 0.54799 0.53739 0.35233 0.0
C1355 C 0.57758 0.53036 0.36039 0.0
C1356 C 0.5999 0.54901 0.34846 0.0
C1357 C 0.59257 0.57337 0.32809 0.0
C1358 C 0.52346 0.51825 0.36447 0.0
C1359 C 0.63168 0.54277 0.35671 0.0
H1360 H 0.59935 0.48579 0.45297 0.0
H1361 H 0.60889 0.42536 0.37852 0.0
H1362 H 0.59608 0.55694 0.41651 0.0
H1363 H 0.55828 0.5475 0.4177 0.0
H1364 H 0.58193 0.53832 0.44888 0.0
H1365 H 0.59424 0.44158 0.33108 0.0
H1366 H 0.56799 0.47422 0.32801 0.0
H1367 H 0.60616 0.48136 0.32471 0.0
H1368 H 0.51869 0.56683 0.32536 0.0
H1369 H 0.60978 0.58706 0.31852 0.0
H1370 H 0.52487 0.51727 0.38875 0.0
H1371 H 0.52553 0.49354 0.35663 0.0
H1372 H 0.50155 0.52814 0.35774 0.0
H1373 H 0.63467 0.54339 0.38087 0.0
H1374 H 0.64626 0.56031 0.34662 0.0
H1375 H 0.63866 0.51875 0.34955 0.0
C1376 C 0.37171 0.27864 0.1847 0.0
C1377 C 0.37592 0.3094 0.19506 0.0
C1378 C 0.39127 0.25342 0.19231 0.0
C1379 C 0.41576 0.25894 0.21077 0.0
C1380 C 0.41953 0.28963 0.22222 0.0
C1381 C 0.39966 0.31445 0.21418 0.0
C1382 C 0.38642 0.22117 0.17954 0.0
C1383 C 0.44511 0.29651 0.24225 0.0
C1384 C 0.46038 0.18924 0.24475 0.0
C1385 C 0.48434 0.18739 0.22606 0.0
C1386 C 0.43769 0.21218 0.24005 0.0
C1387 C 0.43887 0.23352 0.21584 0.0
C1388 C 0.46278 0.23118 0.19658 0.0
C1389 C 0.48524 0.20841 0.20208 0.0
C1390 C 0.41275 0.21393 0.26127 0.0
C1391 C 0.46501 0.25322 0.17042 0.0
H1392 H 0.3537 0.27445 0.16964 0.0
H1393 H 0.40291 0.33796 0.22267 0.0
H1394 H 0.40427 0.21518 0.16421 0.0
H1395 H 0.38708 0.20281 0.19716 0.0
H1396 H 0.36517 0.22007 0.16749 0.0
H1397 H 0.44367 0.32082 0.25122 0.0
H1398 H 0.4463 0.27923 0.26079 0.0
H1399 H 0.46581 0.29388 0.23005 0.0
H1400 H 0.46001 0.17387 0.26378 0.0
H1401 H 0.50382 0.20724 0.18762 0.0
H1402 H 0.39239 0.20635 0.25019 0.0
H1403 H 0.40889 0.23864 0.26854 0.0
H1404 H 0.41692 0.19857 0.28092 0.0
H1405 H 0.44508 0.25193 0.15634 0.0
H1406 H 0.48443 0.24753 0.15694 0.0
H1407 H 0.46645 0.27802 0.17791 0.0
C1408 C 0.9635 0.28855 0.8173 0.0
C1409 C 0.95817 0.30779 0.79233 0.0
C1410 C 0.94438 0.26457 0.82514 0.0
C1411 C 0.91911 0.25949 0.80767 0.0
C1412 C 0.91364 0.27856 0.78226 0.0
C1413 C 0.93323 0.30247 0.77489 0.0
C1414 C 0.95112 0.24484 0.85241 0.0
C1415 C 0.88695 0.27395 0.76305 0.0
C1416 C 0.88502 0.17922 0.8203 0.0
C1417 C 0.86364 0.18661 0.84105 0.0
C1418 C 0.90232 0.20294 0.8081 0.0
C1419 C 0.89818 0.23482 0.81684 0.0
C1420 C 0.87571 0.24258 0.83671 0.0
C1421 C 0.85873 0.21847 0.84848 0.0
C1422 C 0.92594 0.19364 0.78689 0.0
C1423 C 0.87042 0.27622 0.84657 0.0
H1424 H 0.98267 0.29225 0.83098 0.0
H1425 H 0.92896 0.31695 0.75546 0.0
H1426 H 0.93322 0.24798 0.86832 0.0
H1427 H 0.95247 0.21936 0.84685 0.0
H1428 H 0.97203 0.25128 0.86325 0.0
H1429 H 0.8868 0.28926 0.74307 0.0
H1430 H 0.88588 0.24886 0.75632 0.0
H1431 H 0.8669 0.27949 0.77558 0.0
H1432 H 0.88909 0.15472 0.81448 0.0
H1433 H 0.84184 0.22454 0.86399 0.0
H1434 H 0.94773 0.19668 0.79737 0.0
H1435 H 0.92469 0.20926 0.76715 0.0
H1436 H 0.92435 0.16864 0.77991 0.0
H1437 H 0.88956 0.28393 0.85965 0.0
H1438 H 0.85059 0.27878 0.86016 0.0
H1439 H 0.86798 0.29246 0.82733 0.0
C1440 C 0.06115 0.61526 0.12693 0.0
C1441 C 0.07762 0.59696 0.10733 0.0
C1442 C 0.03415 0.62957 0.11841 0.0
C1443 C 0.02316 0.62569 0.08949 0.0
C1444 C 0.03875 0.60568 0.07014 0.0
C1445 C 0.06578 0.59165 0.07924 0.0
C1446 C 1.01838 0.65071 0.13982 0.0
C1447 C 0.02777 0.60058 0.03924 0.0
C1448 C 0.9459 0.6604 0.07445 0.0
C1449 C 0.95235 0.69119 0.06534 0.0
C1450 C 0.96868 0.63797 0.08114 0.0
C1451 C 0.99833 0.64666 0.07838 0.0
C1452 C 1.00458 0.67711 0.06725 0.0
C1453 C 0.9816 0.69888 0.06101 0.0
C1454 C 0.96107 0.60568 0.09265 0.0
C1455 C 0.03568 0.68746 0.06346 0.0
H1456 H 0.07006 0.61983 0.14857 0.0
H1457 H 0.07799 0.57706 0.06407 0.0
H1458 H 0.01996 0.67579 0.13262 0.0
H1459 H 0.99482 0.64519 0.14037 0.0
H1460 H 0.02775 0.64824 0.16238 0.0
H1461 H 0.03951 0.58048 0.02868 0.0
H1462 H 1.00399 0.59604 0.03896 0.0
H1463 H 0.03102 0.6223 0.02589 0.0
H1464 H 0.92329 0.65439 0.07781 0.0
H1465 H 0.98666 0.72256 0.05356 0.0
H1466 H 0.96603 0.60423 0.11652 0.0
H1467 H 0.97447 0.58694 0.082 0.0
H1468 H 0.93754 0.60078 0.0891 0.0
H1469 H 0.04676 0.6887 0.08522 0.0
H1470 H 0.03674 0.71104 0.05252 0.0
H1471 H 0.04816 0.66998 0.05031 0.0
C1472 C 0.63679 0.85252 0.32132 0.0
C1473 C 0.65844 0.84737 0.34313 0.0
C1474 C 0.62179 0.82703 0.30909 0.0
C1475 C 0.62879 0.79562 0.31872 0.0
C1476 C 0.65162 0.79025 0.33971 0.0
C1477 C 0.66606 0.81613 0.35168 0.0
C1478 C 0.59756 0.83383 0.28684 0.0
C1479 C 0.66006 0.75721 0.35039 0.0
C1480 C 0.56973 0.7339 0.31649 0.0
C1481 C 0.57729 0.7161 0.29182 0.0
C1482 C 0.58605 0.75998 0.32512 0.0
C1483 C 0.61075 0.76862 0.30882 0.0
C1484 C 0.61853 0.75086 0.28383 0.0
C1485 C 0.60171 0.72487 0.2756 0.0
C1486 C 0.57693 0.77819 0.3519 0.0
C1487 C 0.64477 0.75917 0.26594 0.0
H1488 H 0.6307 0.87659 0.31471 0.0
H1489 H 0.6831 0.81194 0.3682 0.0
H1490 H 0.60063 0.81888 0.26726 0.0
H1491 H 0.57624 0.82779 0.29642 0.0
H1492 H 0.59648 0.8591 0.27976 0.0
H1493 H 0.67984 0.75681 0.36489 0.0
H1494 H 0.64172 0.74717 0.36277 0.0
H1495 H 0.66428 0.74149 0.33155 0.0
H1496 H 0.55092 0.7275 0.3292 0.0
H1497 H 0.60781 0.71135 0.25651 0.0
H1498 H 0.57306 0.80357 0.34609 0.0
H1499 H 0.59475 0.77686 0.36872 0.0
H1500 H 0.55674 0.769 0.36174 0.0
H1501 H 0.6425 0.78402 0.25788 0.0
H1502 H 0.64764 0.7434 0.24685 0.0
H1503 H 0.66488 0.75742 0.27988 0.0
C1504 C 0.59182 0.34714 0.57201 0.0
C1505 C 0.58578 0.31934 0.55694 0.0
C1506 C 0.56889 0.36811 0.58008 0.0
C1507 C 0.53956 0.36104 0.5726 0.0
C1508 C 0.53389 0.33436 0.55516 0.0
C1509 C 0.55704 0.3138 0.54771 0.0
C1510 C 0.57587 0.39644 0.59844 0.0
C1511 C 0.50309 0.32606 0.54627 0.0
C1512 C 0.47629 0.37906 0.62278 0.0
C1513 C 0.46091 0.40346 0.60745 0.0
C1514 C 0.5029 0.36654 0.61257 0.0
C1515 C 0.51445 0.37838 0.58612 0.0
C1516 C 0.49977 0.40391 0.57114 0.0
C1517 C 0.47319 0.41618 0.58199 0.0
C1518 C 0.51781 0.33934 0.62931 0.0
C1519 C 0.51139 0.41727 0.54295 0.0
H1520 H 0.61409 0.35143 0.57912 0.0
H1521 H 0.55245 0.29246 0.5357 0.0
H1522 H 0.56285 0.41764 0.59087 0.0
H1523 H 0.57 0.39157 0.62153 0.0
H1524 H 0.59949 0.40187 0.59786 0.0
H1525 H 0.50273 0.30676 0.52996 0.0
H1526 H 0.49107 0.31825 0.56589 0.0
H1527 H 0.4911 0.3471 0.53683 0.0
H1528 H 0.46694 0.36868 0.6422 0.0
H1529 H 0.4618 0.43542 0.57025 0.0
H1530 H 0.54133 0.34405 0.63294 0.0
H1531 H 0.51646 0.31739 0.61631 0.0
H1532 H 0.50768 0.33504 0.65091 0.0
H1533 H 0.53517 0.42143 0.54513 0.0
H1534 H 0.49993 0.43983 0.5363 0.0
H1535 H 0.50845 0.39992 0.52517 0.0
C1536 C 0.18147 0.71909 0.67753 0.0
C1537 C 0.1787 0.68774 0.68758 0.0
C1538 C 0.16375 0.74387 0.68841 0.0
C1539 C 0.14262 0.73724 0.70976 0.0
C1540 C 0.14081 0.70601 0.72116 0.0
C1541 C 0.15874 0.68163 0.70986 0.0
C1542 C 0.16675 0.77694 0.67614 0.0
C1543 C 0.11926 0.69821 0.74469 0.0
C1544 C 0.10229 0.80535 0.74814 0.0
C1545 C 0.07567 0.8065 0.73253 0.0
C1546 C 0.1245 0.78292 0.74121 0.0
C1547 C 0.12011 0.76193 0.71755 0.0
C1548 C 0.09351 0.76395 0.7012 0.0
C1549 C 0.07158 0.78586 0.70913 0.0
C1550 C 0.15233 0.78189 0.75947 0.0
C1551 C 0.08794 0.74251 0.67556 0.0
H1552 H 0.19668 0.72413 0.66024 0.0
H1553 H 0.15689 0.65766 0.71824 0.0
H1554 H 0.14646 0.78425 0.66387 0.0
H1555 H 0.16963 0.79389 0.69427 0.0
H1556 H 0.18558 0.7787 0.66117 0.0
H1557 H 0.12236 0.67355 0.75317 0.0
H1558 H 0.12151 0.71479 0.76322 0.0
H1559 H 0.09661 0.70121 0.73576 0.0
H1560 H 0.10527 0.82101 0.76649 0.0
H1561 H 0.05098 0.78677 0.69697 0.0
H1562 H 0.16727 0.79993 0.75086 0.0
H1563 H 0.16386 0.75845 0.75909 0.0
H1564 H 0.14771 0.78778 0.78262 0.0
H1565 H 0.10557 0.74477 0.65931 0.0
H1566 H 0.06659 0.74801 0.66439 0.0
H1567 H 0.08818 0.71746 0.6832 0.0
C1568 C 0.48195 0.83927 0.99414 0.0
C1569 C 0.46932 0.81718 0.97535 0.0
C1570 C 0.50788 0.85463 0.98657 0.0
C1571 C 0.52154 0.84784 0.95956 0.0
C1572 C 0.50833 0.82633 0.94019 0.0
C1573 C 0.48255 0.81138 0.94827 0.0
C1574 C 0.52111 0.87749 1.00783 0.0
C1575 C 0.5219 0.81836 0.91114 0.0
C1576 C 0.57782 0.90162 0.92509 0.0
C1577 C 0.60433 0.88511 0.93156 0.0
C1578 C 0.55087 0.89048 0.93495 0.0
C1579 C 0.55019 0.86204 0.95173 0.0
C1580 C 0.57691 0.84575 0.95904 0.0
C1581 C 0.60353 0.85743 0.94892 0.0
C1582 C 0.523 0.90861 0.92656 0.0
C1583 C 0.57734 0.81541 0.97692 0.0
H1584 H 0.47206 0.84392 1.01513 0.0
H1585 H 0.47301 0.79458 0.9334 0.0
H1586 H 0.54274 0.86802 1.01575 0.0
H1587 H 0.52482 0.90049 0.99669 0.0
H1588 H 0.50701 0.88171 0.02707 0.0
H1589 H 0.50834 0.80213 0.89804 0.0
H1590 H 0.52501 0.8403 0.89808 0.0
H1591 H 0.54382 0.80696 0.91491 0.0
H1592 H 0.57799 0.92285 0.9115 0.0
H1593 H 0.62381 0.84475 0.95459 0.0
H1594 H 0.50968 0.91312 0.94626 0.0
H1595 H 0.5097 0.89429 0.91142 0.0
H1596 H 0.52731 0.93163 0.91565 0.0
H1597 H 0.56541 0.81902 0.99763 0.0
H1598 H 0.59995 0.80664 0.98233 0.0
H1599 H 0.56595 0.79681 0.96457 0.0
C1600 C 0.98142 0.09688 0.46879 0.0
C1601 C 0.96997 0.1008 0.44014 0.0
C1602 C 1.00669 0.11269 0.47804 0.0
C1603 C 0.02096 0.13304 0.45824 0.0
C1604 C 1.01016 0.13608 0.42901 0.0
C1605 C 0.98498 0.11997 0.42036 0.0
C1606 C 1.0174 0.10863 0.50935 0.0
C1607 C 0.02454 0.15743 0.40707 0.0
C1608 C 0.05898 0.20643 0.48476 0.0
C1609 C 0.08869 0.19858 0.48091 0.0
C1610 C 0.03701 0.18479 0.47885 0.0
C1611 C 0.04472 0.15421 0.46869 0.0
C1612 C 0.07484 0.1454 0.46632 0.0
C1613 C 0.09656 0.16772 0.47254 0.0
C1614 C 1.00539 0.19536 0.48204 0.0
C1615 C 0.08405 0.11296 0.45589 0.0
H1616 H 0.97009 0.08223 0.48435 0.0
H1617 H 0.97692 0.1226 0.39797 0.0
H1618 H 0.04141 0.10401 0.51018 0.0
H1619 H 1.01295 0.13083 0.52145 0.0
H1620 H 1.00652 0.08896 0.52085 0.0
H1621 H 1.01502 0.15528 0.38465 0.0
H1622 H 0.02191 0.18245 0.41393 0.0
H1623 H 0.04836 0.15178 0.4063 0.0
H1624 H 0.05273 0.23013 0.49162 0.0
H1625 H 0.11947 0.16149 0.46957 0.0
H1626 H 0.9936 0.17801 0.49556 0.0
H1627 H 0.99446 0.19655 0.46014 0.0
H1628 H 1.00312 0.219 0.49228 0.0
H1629 H 0.07212 0.09439 0.46779 0.0
H1630 H 0.10796 0.10829 0.4589 0.0
H1631 H 0.07841 0.11093 0.43227 0.0
loop_
_geom_bond_atom_site_label_1
_geom_bond_atom_site_label_2
_geom_bond_distance
_geom_bond_site_symmetry_2
_ccdc_geom_bond_type
La0 C2 2.928 . S
La0 O20 2.521 . S
La0 O21 2.628 . S
La0 O22 2.554 . S
La0 O23 2.757 . S
La0 O24 2.470 . S
La0 O29 2.482 . S
La0 O31 2.503 . S
La1 C11 2.928 . S
La1 O23 2.482 . S
La1 O25 2.503 . S
La1 O26 2.521 . S
La1 O27 2.628 . S
La1 O28 2.554 . S
La1 O29 2.757 . S
La1 O30 2.470 . S
C2 La0 2.928 . S
C2 C3 1.503 . S
C2 O20 1.261 . S
C2 O21 1.243 . S
C3 C2 1.503 . S
C3 C4 1.394 . S
C3 C8 1.373 . S
C4 C3 1.394 . S
C4 C5 1.380 . S
C4 H32 0.930 . S
C5 C4 1.380 . S
C5 C6 1.376 . S
C5 H33 0.930 . S
C6 C5 1.376 . S
C6 C7 1.370 . S
C7 C6 1.370 . S
C7 C8 1.396 . S
C7 H34 0.929 . S
C8 C3 1.373 . S
C8 C7 1.396 . S
C8 H35 0.929 . S
C9 O22 1.240 . S
C9 O23 1.289 . S
C10 O24 1.258 . S
C10 O25 1.256 . S
C11 La1 2.928 . S
C11 C12 1.503 . S
C11 O26 1.261 . S
C11 O27 1.243 . S
C12 C11 1.503 . S
C12 C13 1.394 . S
C12 C17 1.373 . S
C13 C12 1.394 . S
C13 C14 1.380 . S
C13 H36 0.930 . S
C14 C13 1.380 . S
C14 C15 1.376 . S
C14 H37 0.930 . S
C15 C14 1.376 . S
C15 C16 1.370 . S
C16 C15 1.370 . S
C16 C17 1.396 . S
C16 H38 0.929 . S
C17 C12 1.373 . S
C17 C16 1.396 . S
C17 H39 0.929 . S
C18 O28 1.240 . S
C18 O29 1.289 . S
C19 O30 1.258 . S
C19 O31 1.256 . S
O20 La0 2.521 . S
O20 C2 1.261 . S
O21 La0 2.628 . S
O21 C2 1.243 . S
O22 La0 2.554 . S
O22 C9 1.240 . S
O23 La0 2.757 . S
O23 La1 2.482 . S
O23 C9 1.289 . S
O24 La0 2.470 . S
O24 C10 1.258 . S
O25 La1 2.503 . S
O25 C10 1.256 . S
O26 La1 2.521 . S
O26 C11 1.261 . S
O27 La1 2.628 . S
O27 C11 1.243 . S
O28 La1 2.554 . S
O28 C18 1.240 . S
O29 La0 2.482 . S
O29 La1 2.757 . S
O29 C18 1.289 . S
O30 La1 2.470 . S
O30 C19 1.258 . S
O31 La0 2.503 . S
O31 C19 1.256 . S
H32 C4 0.930 . S
H33 C5 0.930 . S
H34 C7 0.929 . S
H35 C8 0.929 . S
H36 C13 0.930 . S
H37 C14 0.930 . S
H38 C16 0.929 . S
H39 C17 0.929 . S
La40 C42 2.928 . S
La40 O60 2.521 . S
La40 O61 2.628 . S
La40 O62 2.554 1_655 S
La40 O63 2.757 1_655 S
La40 O64 2.470 1_655 S
La40 O69 2.482 . S
La40 O71 2.503 . S
La41 C51 2.928 . S
La41 O63 2.482 . S
La41 O65 2.503 . S
La41 O66 2.521 . S
La41 O67 2.628 . S
La41 O68 2.554 1_455 S
La41 O69 2.757 1_455 S
La41 O70 2.470 . S
C42 La40 2.928 . S
C42 C43 1.503 . S
C42 O60 1.261 . S
C42 O61 1.243 . S
C43 C42 1.503 . S
C43 C44 1.394 . S
C43 C48 1.373 . S
C44 C43 1.394 . S
C44 C45 1.380 . S
C44 H72 0.930 . S
C45 C44 1.380 . S
C45 C46 1.376 . S
C45 H73 0.930 . S
C46 C45 1.376 . S
C46 C47 1.370 . S
C47 C46 1.370 . S
C47 C48 1.396 . S
C47 H74 0.929 . S
C48 C43 1.373 . S
C48 C47 1.396 . S
C48 H75 0.929 . S
C49 O62 1.240 . S
C49 O63 1.289 . S
C50 O64 1.258 . S
C50 O65 1.256 . S
C51 La41 2.928 . S
C51 C52 1.503 . S
C51 O66 1.261 . S
C51 O67 1.243 . S
C52 C51 1.503 . S
C52 C53 1.394 . S
C52 C57 1.373 . S
C53 C52 1.394 . S
C53 C54 1.380 . S
C53 H76 0.930 . S
C54 C53 1.380 . S
C54 C55 1.376 . S
C54 H77 0.930 . S
C55 C54 1.376 . S
C55 C56 1.370 . S
C56 C55 1.370 . S
C56 C57 1.396 . S
C56 H78 0.929 . S
C57 C52 1.373 . S
C57 C56 1.396 . S
C57 H79 0.929 . S
C58 O68 1.240 . S
C58 O69 1.289 . S
C59 O70 1.258 1_655 S
C59 O71 1.256 . S
O60 La40 2.521 . S
O60 C42 1.261 . S
O61 La40 2.628 . S
O61 C42 1.243 . S
O62 La40 2.554 1_455 S
O62 C49 1.240 . S
O63 La40 2.757 1_455 S
O63 La41 2.482 . S
O63 C49 1.289 . S
O64 La40 2.470 1_455 S
O64 C50 1.258 . S
O65 La41 2.503 . S
O65 C50 1.256 . S
O66 La41 2.521 . S
O66 C51 1.261 . S
O67 La41 2.628 . S
O67 C51 1.243 . S
O68 La41 2.554 1_655 S
O68 C58 1.240 . S
O69 La40 2.482 . S
O69 La41 2.757 1_655 S
O69 C58 1.289 . S
O70 La41 2.470 . S
O70 C59 1.258 1_455 S
O71 La40 2.503 . S
O71 C59 1.256 . S
H72 C44 0.930 . S
H73 C45 0.930 . S
H74 C47 0.929 . S
H75 C48 0.929 . S
H76 C53 0.930 . S
H77 C54 0.930 . S
H78 C56 0.929 . S
H79 C57 0.929 . S
La80 C82 2.928 . S
La80 O100 2.521 . S
La80 O101 2.628 . S
La80 O102 2.554 1_554 S
La80 O103 2.757 1_554 S
La80 O104 2.470 1_554 S
La80 O109 2.482 . S
La80 O111 2.503 . S
La81 C91 2.928 . S
La81 O103 2.482 . S
La81 O105 2.503 . S
La81 O106 2.521 . S
La81 O107 2.628 . S
La81 O108 2.554 . S
La81 O109 2.757 1_556 S
La81 O110 2.470 . S
C82 La80 2.928 . S
C82 C83 1.503 . S
C82 O100 1.261 . S
C82 O101 1.243 . S
C83 C82 1.503 . S
C83 C84 1.394 . S
C83 C88 1.373 . S
C84 C83 1.394 . S
C84 C85 1.380 . S
C84 H112 0.930 . S
C85 C84 1.380 . S
C85 C86 1.376 . S
C85 H113 0.930 . S
C86 C85 1.376 . S
C86 C87 1.370 . S
C87 C86 1.370 . S
C87 C88 1.396 . S
C87 H114 0.929 . S
C88 C83 1.373 . S
C88 C87 1.396 . S
C88 H115 0.929 . S
C89 O102 1.240 . S
C89 O103 1.289 . S
C90 O104 1.258 . S
C90 O105 1.256 . S
C91 La81 2.928 . S
C91 C92 1.503 . S
C91 O106 1.261 . S
C91 O107 1.243 . S
C92 C91 1.503 . S
C92 C93 1.394 . S
C92 C97 1.373 . S
C93 C92 1.394 . S
C93 C94 1.380 . S
C93 H116 0.930 . S
C94 C93 1.380 . S
C94 C95 1.376 . S
C94 H117 0.930 . S
C95 C94 1.376 . S
C95 C96 1.370 . S
C96 C95 1.370 . S
C96 C97 1.396 . S
C96 H118 0.929 . S
C97 C92 1.373 . S
C97 C96 1.396 . S
C97 H119 0.929 . S
C98 O108 1.240 1_554 S
C98 O109 1.289 . S
C99 O110 1.258 1_554 S
C99 O111 1.256 . S
O100 La80 2.521 . S
O100 C82 1.261 . S
O101 La80 2.628 . S
O101 C82 1.243 . S
O102 La80 2.554 1_556 S
O102 C89 1.240 . S
O103 La80 2.757 1_556 S
O103 La81 2.482 . S
O103 C89 1.289 . S
O104 La80 2.470 1_556 S
O104 C90 1.258 . S
O105 La81 2.503 . S
O105 C90 1.256 . S
O106 La81 2.521 . S
O106 C91 1.261 . S
O107 La81 2.628 . S
O107 C91 1.243 . S
O108 La81 2.554 . S
O108 C98 1.240 1_556 S
O109 La80 2.482 . S
O109 La81 2.757 1_554 S
O109 C98 1.289 . S
O110 La81 2.470 . S
O110 C99 1.258 1_556 S
O111 La80 2.503 . S
O111 C99 1.256 . S
H112 C84 0.930 . S
H113 C85 0.930 . S
H114 C87 0.929 . S
H115 C88 0.929 . S
H116 C93 0.930 . S
H117 C94 0.930 . S
H118 C96 0.929 . S
H119 C97 0.929 . S
La120 C122 2.928 . S
La120 O140 2.521 . S
La120 O141 2.628 . S
La120 O142 2.554 . S
La120 O143 2.757 . S
La120 O144 2.470 . S
La120 O149 2.482 . S
La120 O151 2.503 . S
La121 C131 2.928 . S
La121 O143 2.482 . S
La121 O145 2.503 . S
La121 O146 2.521 . S
La121 O147 2.628 . S
La121 O148 2.554 . S
La121 O149 2.757 . S
La121 O150 2.470 . S
C122 La120 2.928 . S
C122 C123 1.503 . S
C122 O140 1.261 . S
C122 O141 1.243 . S
C123 C122 1.503 . S
C123 C124 1.394 . S
C123 C128 1.373 . S
C124 C123 1.394 . S
C124 C125 1.380 . S
C124 H152 0.930 . S
C125 C124 1.380 . S
C125 C126 1.376 . S
C125 H153 0.930 . S
C126 C125 1.376 . S
C126 C127 1.370 . S
C127 C126 1.370 . S
C127 C128 1.396 . S
C127 H154 0.929 . S
C128 C123 1.373 . S
C128 C127 1.396 . S
C128 H155 0.929 . S
C129 O142 1.240 . S
C129 O143 1.289 . S
C130 O144 1.258 . S
C130 O145 1.256 . S
C131 La121 2.928 . S
C131 C132 1.503 . S
C131 O146 1.261 . S
C131 O147 1.243 . S
C132 C131 1.503 . S
C132 C133 1.394 . S
C132 C137 1.373 . S
C133 C132 1.394 . S
C133 C134 1.380 . S
C133 H156 0.930 . S
C134 C133 1.380 . S
C134 C135 1.376 . S
C134 H157 0.930 . S
C135 C134 1.376 . S
C135 C136 1.370 . S
C136 C135 1.370 . S
C136 C137 1.396 . S
C136 H158 0.929 . S
C137 C132 1.373 . S
C137 C136 1.396 . S
C137 H159 0.929 . S
C138 O148 1.240 . S
C138 O149 1.289 . S
C139 O150 1.258 . S
C139 O151 1.256 . S
O140 La120 2.521 . S
O140 C122 1.261 . S
O141 La120 2.628 . S
O141 C122 1.243 . S
O142 La120 2.554 . S
O142 C129 1.240 . S
O143 La120 2.757 . S
O143 La121 2.482 . S
O143 C129 1.289 . S
O144 La120 2.470 . S
O144 C130 1.258 . S
O145 La121 2.503 . S
O145 C130 1.256 . S
O146 La121 2.521 . S
O146 C131 1.261 . S
O147 La121 2.628 . S
O147 C131 1.243 . S
O148 La121 2.554 . S
O148 C138 1.240 . S
O149 La120 2.482 . S
O149 La121 2.757 . S
O149 C138 1.289 . S
O150 La121 2.470 . S
O150 C139 1.258 . S
O151 La120 2.503 . S
O151 C139 1.256 . S
H152 C124 0.930 . S
H153 C125 0.930 . S
H154 C127 0.929 . S
H155 C128 0.929 . S
H156 C133 0.930 . S
H157 C134 0.930 . S
H158 C136 0.929 . S
H159 C137 0.929 . S
La160 C162 2.928 . S
La160 O180 2.521 . S
La160 O181 2.628 . S
La160 O182 2.554 . S
La160 O183 2.757 . S
La160 O184 2.470 . S
La160 O189 2.482 . S
La160 O191 2.503 . S
La161 C171 2.928 . S
La161 O183 2.482 . S
La161 O185 2.503 . S
La161 O186 2.521 . S
La161 O187 2.628 . S
La161 O188 2.554 . S
La161 O189 2.757 . S
La161 O190 2.470 . S
C162 La160 2.928 . S
C162 C163 1.503 . S
C162 O180 1.261 . S
C162 O181 1.243 . S
C163 C162 1.503 . S
C163 C164 1.394 . S
C163 C168 1.373 . S
C164 C163 1.394 . S
C164 C165 1.380 . S
C164 H192 0.930 . S
C165 C164 1.380 . S
C165 C166 1.376 . S
C165 H193 0.930 . S
C166 C165 1.376 . S
C166 C167 1.370 . S
C167 C166 1.370 . S
C167 C168 1.396 . S
C167 H194 0.929 . S
C168 C163 1.373 . S
C168 C167 1.396 . S
C168 H195 0.929 . S
C169 O182 1.240 . S
C169 O183 1.289 . S
C170 O184 1.258 . S
C170 O185 1.256 . S
C171 La161 2.928 . S
C171 C172 1.503 . S
C171 O186 1.261 . S
C171 O187 1.243 . S
C172 C171 1.503 . S
C172 C173 1.394 . S
C172 C177 1.373 . S
C173 C172 1.394 . S
C173 C174 1.380 . S
C173 H196 0.930 . S
C174 C173 1.380 . S
C174 C175 1.376 . S
C174 H197 0.930 . S
C175 C174 1.376 . S
C175 C176 1.370 . S
C176 C175 1.370 . S
C176 C177 1.396 . S
C176 H198 0.929 . S
C177 C172 1.373 . S
C177 C176 1.396 . S
C177 H199 0.929 . S
C178 O188 1.240 . S
C178 O189 1.289 . S
C179 O190 1.258 . S
C179 O191 1.256 . S
O180 La160 2.521 . S
O180 C162 1.261 . S
O181 La160 2.628 . S
O181 C162 1.243 . S
O182 La160 2.554 . S
O182 C169 1.240 . S
O183 La160 2.757 . S
O183 La161 2.482 . S
O183 C169 1.289 . S
O184 La160 2.470 . S
O184 C170 1.258 . S
O185 La161 2.503 . S
O185 C170 1.256 . S
O186 La161 2.521 . S
O186 C171 1.261 . S
O187 La161 2.628 . S
O187 C171 1.243 . S
O188 La161 2.554 . S
O188 C178 1.240 . S
O189 La160 2.482 . S
O189 La161 2.757 . S
O189 C178 1.289 . S
O190 La161 2.470 . S
O190 C179 1.258 . S
O191 La160 2.503 . S
O191 C179 1.256 . S
H192 C164 0.930 . S
H193 C165 0.930 . S
H194 C167 0.929 . S
H195 C168 0.929 . S
H196 C173 0.930 . S
H197 C174 0.930 . S
H198 C176 0.929 . S
H199 C177 0.929 . S
La200 C202 2.928 . S
La200 O220 2.521 . S
La200 O221 2.628 . S
La200 O222 2.554 . S
La200 O223 2.757 . S
La200 O224 2.470 . S
La200 O229 2.482 1_655 S
La200 O231 2.503 1_655 S
La201 C211 2.928 . S
La201 O223 2.482 1_455 S
La201 O225 2.503 1_455 S
La201 O226 2.521 . S
La201 O227 2.628 . S
La201 O228 2.554 . S
La201 O229 2.757 . S
La201 O230 2.470 . S
C202 La200 2.928 . S
C202 C203 1.503 . S
C202 O220 1.261 . S
C202 O221 1.243 . S
C203 C202 1.503 . S
C203 C204 1.394 . S
C203 C208 1.373 . S
C204 C203 1.394 . S
C204 C205 1.380 . S
C204 H232 0.930 . S
C205 C204 1.380 . S
C205 C206 1.376 . S
C205 H233 0.930 . S
C206 C205 1.376 . S
C206 C207 1.370 . S
C207 C206 1.370 . S
C207 C208 1.396 . S
C207 H234 0.929 . S
C208 C203 1.373 . S
C208 C207 1.396 . S
C208 H235 0.929 . S
C209 O222 1.240 . S
C209 O223 1.289 . S
C210 O224 1.258 . S
C210 O225 1.256 . S
C211 La201 2.928 . S
C211 C212 1.503 . S
C211 O226 1.261 . S
C211 O227 1.243 . S
C212 C211 1.503 . S
C212 C213 1.394 . S
C212 C217 1.373 . S
C213 C212 1.394 . S
C213 C214 1.380 . S
C213 H236 0.930 . S
C214 C213 1.380 . S
C214 C215 1.376 . S
C214 H237 0.930 . S
C215 C214 1.376 . S
C215 C216 1.370 . S
C216 C215 1.370 . S
C216 C217 1.396 . S
C216 H238 0.929 . S
C217 C212 1.373 . S
C217 C216 1.396 . S
C217 H239 0.929 . S
C218 O228 1.240 . S
C218 O229 1.289 . S
C219 O230 1.258 . S
C219 O231 1.256 . S
O220 La200 2.521 . S
O220 C202 1.261 . S
O221 La200 2.628 . S
O221 C202 1.243 . S
O222 La200 2.554 . S
O222 C209 1.240 . S
O223 La200 2.757 . S
O223 La201 2.482 1_655 S
O223 C209 1.289 . S
O224 La200 2.470 . S
O224 C210 1.258 . S
O225 La201 2.503 1_655 S
O225 C210 1.256 . S
O226 La201 2.521 . S
O226 C211 1.261 . S
O227 La201 2.628 . S
O227 C211 1.243 . S
O228 La201 2.554 . S
O228 C218 1.240 . S
O229 La200 2.482 1_455 S
O229 La201 2.757 . S
O229 C218 1.289 . S
O230 La201 2.470 . S
O230 C219 1.258 . S
O231 La200 2.503 1_455 S
O231 C219 1.256 . S
H232 C204 0.930 . S
H233 C205 0.930 . S
H234 C207 0.929 . S
H235 C208 0.929 . S
H236 C213 0.930 . S
H237 C214 0.930 . S
H238 C216 0.929 . S
H239 C217 0.929 . S
La240 C242 2.928 . S
La240 O260 2.521 . S
La240 O261 2.628 . S
La240 O262 2.554 . S
La240 O263 2.757 . S
La240 O264 2.470 . S
La240 O269 2.482 . S
La240 O271 2.503 1_554 S
La241 C251 2.928 . S
La241 O263 2.482 1_556 S
La241 O265 2.503 1_556 S
La241 O266 2.521 . S
La241 O267 2.628 . S
La241 O268 2.554 . S
La241 O269 2.757 1_556 S
La241 O270 2.470 . S
C242 La240 2.928 . S
C242 C243 1.503 . S
C242 O260 1.261 . S
C242 O261 1.243 . S
C243 C242 1.503 . S
C243 C244 1.394 . S
C243 C248 1.373 . S
C244 C243 1.394 . S
C244 C245 1.380 . S
C244 H272 0.930 . S
C245 C244 1.380 . S
C245 C246 1.376 . S
C245 H273 0.930 . S
C246 C245 1.376 . S
C246 C247 1.370 . S
C247 C246 1.370 . S
C247 C248 1.396 . S
C247 H274 0.929 . S
C248 C243 1.373 . S
C248 C247 1.396 . S
C248 H275 0.929 . S
C249 O262 1.240 . S
C249 O263 1.289 . S
C250 O264 1.258 . S
C250 O265 1.256 . S
C251 La241 2.928 . S
C251 C252 1.503 . S
C251 O266 1.261 . S
C251 O267 1.243 . S
C252 C251 1.503 . S
C252 C253 1.394 . S
C252 C257 1.373 . S
C253 C252 1.394 . S
C253 C254 1.380 . S
C253 H276 0.930 . S
C254 C253 1.380 . S
C254 C255 1.376 . S
C254 H277 0.930 . S
C255 C254 1.376 . S
C255 C256 1.370 . S
C256 C255 1.370 . S
C256 C257 1.396 . S
C256 H278 0.929 . S
C257 C252 1.373 . S
C257 C256 1.396 . S
C257 H279 0.929 . S
C258 O268 1.240 . S
C258 O269 1.289 1_556 S
C259 O270 1.258 . S
C259 O271 1.256 . S
O260 La240 2.521 . S
O260 C242 1.261 . S
O261 La240 2.628 . S
O261 C242 1.243 . S
O262 La240 2.554 . S
O262 C249 1.240 . S
O263 La240 2.757 . S
O263 La241 2.482 1_554 S
O263 C249 1.289 . S
O264 La240 2.470 . S
O264 C250 1.258 . S
O265 La241 2.503 1_554 S
O265 C250 1.256 . S
O266 La241 2.521 . S
O266 C251 1.261 . S
O267 La241 2.628 . S
O267 C251 1.243 . S
O268 La241 2.554 . S
O268 C258 1.240 . S
O269 La240 2.482 . S
O269 La241 2.757 1_554 S
O269 C258 1.289 1_554 S
O270 La241 2.470 . S
O270 C259 1.258 . S
O271 La240 2.503 1_556 S
O271 C259 1.256 . S
H272 C244 0.930 . S
H273 C245 0.930 . S
H274 C247 0.929 . S
H275 C248 0.929 . S
H276 C253 0.930 . S
H277 C254 0.930 . S
H278 C256 0.929 . S
H279 C257 0.929 . S
La280 C282 2.928 . S
La280 O300 2.521 . S
La280 O301 2.628 . S
La280 O302 2.554 . S
La280 O303 2.757 . S
La280 O304 2.470 . S
La280 O309 2.482 . S
La280 O311 2.503 . S
La281 C291 2.928 . S
La281 O303 2.482 . S
La281 O305 2.503 . S
La281 O306 2.521 . S
La281 O307 2.628 . S
La281 O308 2.554 . S
La281 O309 2.757 . S
La281 O310 2.470 . S
C282 La280 2.928 . S
C282 C283 1.503 . S
C282 O300 1.261 . S
C282 O301 1.243 . S
C283 C282 1.503 . S
C283 C284 1.394 . S
C283 C288 1.373 . S
C284 C283 1.394 . S
C284 C285 1.380 . S
C284 H312 0.930 . S
C285 C284 1.380 . S
C285 C286 1.376 . S
C285 H313 0.930 . S
C286 C285 1.376 . S
C286 C287 1.370 . S
C287 C286 1.370 . S
C287 C288 1.396 . S
C287 H314 0.929 . S
C288 C283 1.373 . S
C288 C287 1.396 . S
C288 H315 0.929 . S
C289 O302 1.240 . S
C289 O303 1.289 . S
C290 O304 1.258 . S
C290 O305 1.256 . S
C291 La281 2.928 . S
C291 C292 1.503 . S
C291 O306 1.261 . S
C291 O307 1.243 . S
C292 C291 1.503 . S
C292 C293 1.394 . S
C292 C297 1.373 . S
C293 C292 1.394 . S
C293 C294 1.380 . S
C293 H316 0.930 . S
C294 C293 1.380 . S
C294 C295 1.376 . S
C294 H317 0.930 . S
C295 C294 1.376 . S
C295 C296 1.370 . S
C296 C295 1.370 . S
C296 C297 1.396 . S
C296 H318 0.929 . S
C297 C292 1.373 . S
C297 C296 1.396 . S
C297 H319 0.929 . S
C298 O308 1.240 . S
C298 O309 1.289 . S
C299 O310 1.258 . S
C299 O311 1.256 . S
O300 La280 2.521 . S
O300 C282 1.261 . S
O301 La280 2.628 . S
O301 C282 1.243 . S
O302 La280 2.554 . S
O302 C289 1.240 . S
O303 La280 2.757 . S
O303 La281 2.482 . S
O303 C289 1.289 . S
O304 La280 2.470 . S
O304 C290 1.258 . S
O305 La281 2.503 . S
O305 C290 1.256 . S
O306 La281 2.521 . S
O306 C291 1.261 . S
O307 La281 2.628 . S
O307 C291 1.243 . S
O308 La281 2.554 . S
O308 C298 1.240 . S
O309 La280 2.482 . S
O309 La281 2.757 . S
O309 C298 1.289 . S
O310 La281 2.470 . S
O310 C299 1.258 . S
O311 La280 2.503 . S
O311 C299 1.256 . S
H312 C284 0.930 . S
H313 C285 0.930 . S
H314 C287 0.929 . S
H315 C288 0.929 . S
H316 C293 0.930 . S
H317 C294 0.930 . S
H318 C296 0.929 . S
H319 C297 0.929 . S
La320 C322 2.928 . S
La320 O340 2.521 . S
La320 O341 2.628 . S
La320 O342 2.554 . S
La320 O343 2.757 . S
La320 O344 2.470 . S
La320 O349 2.482 . S
La320 O351 2.503 . S
La321 C331 2.928 . S
La321 O343 2.482 . S
La321 O345 2.503 . S
La321 O346 2.521 . S
La321 O347 2.628 . S
La321 O348 2.554 . S
La321 O349 2.757 . S
La321 O350 2.470 . S
C322 La320 2.928 . S
C322 C323 1.503 . S
C322 O340 1.261 . S
C322 O341 1.243 . S
C323 C322 1.503 . S
C323 C324 1.394 . S
C323 C328 1.373 . S
C324 C323 1.394 . S
C324 C325 1.380 . S
C324 H352 0.930 . S
C325 C324 1.380 . S
C325 C326 1.376 . S
C325 H353 0.930 . S
C326 C325 1.376 . S
C326 C327 1.370 . S
C327 C326 1.370 . S
C327 C328 1.396 . S
C327 H354 0.929 . S
C328 C323 1.373 . S
C328 C327 1.396 . S
C328 H355 0.929 . S
C329 O342 1.240 . S
C329 O343 1.289 . S
C330 O344 1.258 . S
C330 O345 1.256 . S
C331 La321 2.928 . S
C331 C332 1.503 . S
C331 O346 1.261 . S
C331 O347 1.243 . S
C332 C331 1.503 . S
C332 C333 1.394 . S
C332 C337 1.373 . S
C333 C332 1.394 . S
C333 C334 1.380 . S
C333 H356 0.930 . S
C334 C333 1.380 . S
C334 C335 1.376 . S
C334 H357 0.930 . S
C335 C334 1.376 . S
C335 C336 1.370 . S
C336 C335 1.370 . S
C336 C337 1.396 . S
C336 H358 0.929 . S
C337 C332 1.373 . S
C337 C336 1.396 . S
C337 H359 0.929 . S
C338 O348 1.240 . S
C338 O349 1.289 . S
C339 O350 1.258 . S
C339 O351 1.256 . S
O340 La320 2.521 . S
O340 C322 1.261 . S
O341 La320 2.628 . S
O341 C322 1.243 . S
O342 La320 2.554 . S
O342 C329 1.240 . S
O343 La320 2.757 . S
O343 La321 2.482 . S
O343 C329 1.289 . S
O344 La320 2.470 . S
O344 C330 1.258 . S
O345 La321 2.503 . S
O345 C330 1.256 . S
O346 La321 2.521 . S
O346 C331 1.261 . S
O347 La321 2.628 . S
O347 C331 1.243 . S
O348 La321 2.554 . S
O348 C338 1.240 . S
O349 La320 2.482 . S
O349 La321 2.757 . S
O349 C338 1.289 . S
O350 La321 2.470 . S
O350 C339 1.258 . S
O351 La320 2.503 . S
O351 C339 1.256 . S
H352 C324 0.930 . S
H353 C325 0.930 . S
H354 C327 0.929 . S
H355 C328 0.929 . S
H356 C333 0.930 . S
H357 C334 0.930 . S
H358 C336 0.929 . S
H359 C337 0.929 . S
La360 C362 2.928 . S
La360 O380 2.521 . S
La360 O381 2.628 . S
La360 O382 2.554 1_565 S
La360 O383 2.757 1_565 S
La360 O384 2.470 1_565 S
La360 O389 2.482 . S
La360 O391 2.503 . S
La361 C371 2.928 . S
La361 O383 2.482 . S
La361 O385 2.503 . S
La361 O386 2.521 . S
La361 O387 2.628 . S
La361 O388 2.554 1_545 S
La361 O389 2.757 1_545 S
La361 O390 2.470 1_545 S
C362 La360 2.928 . S
C362 C363 1.503 . S
C362 O380 1.261 . S
C362 O381 1.243 . S
C363 C362 1.503 . S
C363 C364 1.394 . S
C363 C368 1.373 . S
C364 C363 1.394 . S
C364 C365 1.380 . S
C364 H392 0.930 . S
C365 C364 1.380 . S
C365 C366 1.376 . S
C365 H393 0.930 . S
C366 C365 1.376 . S
C366 C367 1.370 . S
C367 C366 1.370 . S
C367 C368 1.396 . S
C367 H394 0.929 . S
C368 C363 1.373 . S
C368 C367 1.396 . S
C368 H395 0.929 . S
C369 O382 1.240 . S
C369 O383 1.289 . S
C370 O384 1.258 . S
C370 O385 1.256 . S
C371 La361 2.928 . S
C371 C372 1.503 . S
C371 O386 1.261 . S
C371 O387 1.243 . S
C372 C371 1.503 . S
C372 C373 1.394 . S
C372 C377 1.373 . S
C373 C372 1.394 . S
C373 C374 1.380 . S
C373 H396 0.930 . S
C374 C373 1.380 . S
C374 C375 1.376 . S
C374 H397 0.930 . S
C375 C374 1.376 . S
C375 C376 1.370 . S
C376 C375 1.370 . S
C376 C377 1.396 . S
C376 H398 0.929 . S
C377 C372 1.373 . S
C377 C376 1.396 . S
C377 H399 0.929 . S
C378 O388 1.240 . S
C378 O389 1.289 . S
C379 O390 1.258 . S
C379 O391 1.256 . S
O380 La360 2.521 . S
O380 C362 1.261 . S
O381 La360 2.628 . S
O381 C362 1.243 . S
O382 La360 2.554 1_545 S
O382 C369 1.240 . S
O383 La360 2.757 1_545 S
O383 La361 2.482 . S
O383 C369 1.289 . S
O384 La360 2.470 1_545 S
O384 C370 1.258 . S
O385 La361 2.503 . S
O385 C370 1.256 . S
O386 La361 2.521 . S
O386 C371 1.261 . S
O387 La361 2.628 . S
O387 C371 1.243 . S
O388 La361 2.554 1_565 S
O388 C378 1.240 . S
O389 La360 2.482 . S
O389 La361 2.757 1_565 S
O389 C378 1.289 . S
O390 La361 2.470 1_565 S
O390 C379 1.258 . S
O391 La360 2.503 . S
O391 C379 1.256 . S
H392 C364 0.930 . S
H393 C365 0.930 . S
H394 C367 0.929 . S
H395 C368 0.929 . S
H396 C373 0.930 . S
H397 C374 0.930 . S
H398 C376 0.929 . S
H399 C377 0.929 . S
La400 C402 2.928 . S
La400 O420 2.521 . S
La400 O421 2.628 . S
La400 O422 2.554 . S
La400 O423 2.757 . S
La400 O424 2.470 . S
La400 O429 2.482 1_565 S
La400 O431 2.503 1_565 S
La401 C411 2.928 . S
La401 O423 2.482 1_545 S
La401 O425 2.503 1_545 S
La401 O426 2.521 . S
La401 O427 2.628 . S
La401 O428 2.554 . S
La401 O429 2.757 . S
La401 O430 2.470 . S
C402 La400 2.928 . S
C402 C403 1.503 . S
C402 O420 1.261 . S
C402 O421 1.243 . S
C403 C402 1.503 . S
C403 C404 1.394 . S
C403 C408 1.373 . S
C404 C403 1.394 . S
C404 C405 1.380 . S
C404 H432 0.930 . S
C405 C404 1.380 . S
C405 C406 1.376 . S
C405 H433 0.930 . S
C406 C405 1.376 . S
C406 C407 1.370 . S
C407 C406 1.370 . S
C407 C408 1.396 . S
C407 H434 0.929 . S
C408 C403 1.373 . S
C408 C407 1.396 . S
C408 H435 0.929 . S
C409 O422 1.240 . S
C409 O423 1.289 . S
C410 O424 1.258 . S
C410 O425 1.256 . S
C411 La401 2.928 . S
C411 C412 1.503 . S
C411 O426 1.261 . S
C411 O427 1.243 . S
C412 C411 1.503 . S
C412 C413 1.394 . S
C412 C417 1.373 . S
C413 C412 1.394 . S
C413 C414 1.380 . S
C413 H436 0.930 . S
C414 C413 1.380 . S
C414 C415 1.376 . S
C414 H437 0.930 . S
C415 C414 1.376 . S
C415 C416 1.370 . S
C416 C415 1.370 . S
C416 C417 1.396 . S
C416 H438 0.929 . S
C417 C412 1.373 . S
C417 C416 1.396 . S
C417 H439 0.929 . S
C418 O428 1.240 . S
C418 O429 1.289 . S
C419 O430 1.258 . S
C419 O431 1.256 . S
O420 La400 2.521 . S
O420 C402 1.261 . S
O421 La400 2.628 . S
O421 C402 1.243 . S
O422 La400 2.554 . S
O422 C409 1.240 . S
O423 La400 2.757 . S
O423 La401 2.482 1_565 S
O423 C409 1.289 . S
O424 La400 2.470 . S
O424 C410 1.258 . S
O425 La401 2.503 1_565 S
O425 C410 1.256 . S
O426 La401 2.521 . S
O426 C411 1.261 . S
O427 La401 2.628 . S
O427 C411 1.243 . S
O428 La401 2.554 . S
O428 C418 1.240 . S
O429 La400 2.482 1_545 S
O429 La401 2.757 . S
O429 C418 1.289 . S
O430 La401 2.470 . S
O430 C419 1.258 . S
O431 La400 2.503 1_545 S
O431 C419 1.256 . S
H432 C404 0.930 . S
H433 C405 0.930 . S
H434 C407 0.929 . S
H435 C408 0.929 . S
H436 C413 0.930 . S
H437 C414 0.930 . S
H438 C416 0.929 . S
H439 C417 0.929 . S
La440 C442 2.928 . S
La440 O460 2.521 . S
La440 O461 2.628 . S
La440 O462 2.554 . S
La440 O463 2.757 . S
La440 O464 2.470 . S
La440 O469 2.482 . S
La440 O471 2.503 . S
La441 C451 2.928 . S
La441 O463 2.482 . S
La441 O465 2.503 . S
La441 O466 2.521 . S
La441 O467 2.628 . S
La441 O468 2.554 . S
La441 O469 2.757 . S
La441 O470 2.470 . S
C442 La440 2.928 . S
C442 C443 1.503 . S
C442 O460 1.261 . S
C442 O461 1.243 . S
C443 C442 1.503 . S
C443 C444 1.394 . S
C443 C448 1.373 . S
C444 C443 1.394 . S
C444 C445 1.380 . S
C444 H472 0.930 . S
C445 C444 1.380 . S
C445 C446 1.376 . S
C445 H473 0.930 . S
C446 C445 1.376 . S
C446 C447 1.370 . S
C447 C446 1.370 . S
C447 C448 1.396 . S
C447 H474 0.929 . S
C448 C443 1.373 . S
C448 C447 1.396 . S
C448 H475 0.929 . S
C449 O462 1.240 . S
C449 O463 1.289 . S
C450 O464 1.258 . S
C450 O465 1.256 . S
C451 La441 2.928 . S
C451 C452 1.503 . S
C451 O466 1.261 . S
C451 O467 1.243 . S
C452 C451 1.503 . S
C452 C453 1.394 . S
C452 C457 1.373 . S
C453 C452 1.394 . S
C453 C454 1.380 . S
C453 H476 0.930 . S
C454 C453 1.380 . S
C454 C455 1.376 . S
C454 H477 0.930 . S
C455 C454 1.376 . S
C455 C456 1.370 . S
C456 C455 1.370 . S
C456 C457 1.396 . S
C456 H478 0.929 . S
C457 C452 1.373 . S
C457 C456 1.396 . S
C457 H479 0.929 . S
C458 O468 1.240 . S
C458 O469 1.289 . S
C459 O470 1.258 . S
C459 O471 1.256 . S
O460 La440 2.521 . S
O460 C442 1.261 . S
O461 La440 2.628 . S
O461 C442 1.243 . S
O462 La440 2.554 . S
O462 C449 1.240 . S
O463 La440 2.757 . S
O463 La441 2.482 . S
O463 C449 1.289 . S
O464 La440 2.470 . S
O464 C450 1.258 . S
O465 La441 2.503 . S
O465 C450 1.256 . S
O466 La441 2.521 . S
O466 C451 1.261 . S
O467 La441 2.628 . S
O467 C451 1.243 . S
O468 La441 2.554 . S
O468 C458 1.240 . S
O469 La440 2.482 . S
O469 La441 2.757 . S
O469 C458 1.289 . S
O470 La441 2.470 . S
O470 C459 1.258 . S
O471 La440 2.503 . S
O471 C459 1.256 . S
H472 C444 0.930 . S
H473 C445 0.930 . S
H474 C447 0.929 . S
H475 C448 0.929 . S
H476 C453 0.930 . S
H477 C454 0.930 . S
H478 C456 0.929 . S
H479 C457 0.929 . S
C480 C481 1.391 . S
C480 C482 1.394 . S
C480 H496 0.931 . S
C481 C480 1.391 . S
C481 C485 1.376 . S
C482 C480 1.394 . S
C482 C483 1.369 . S
C482 C486 1.531 . S
C483 C482 1.369 . S
C483 C484 1.410 . S
C483 C491 1.503 . S
C484 C483 1.410 . S
C484 C485 1.392 . S
C484 C487 1.511 . S
C485 C481 1.376 . S
C485 C484 1.392 . S
C485 H497 0.929 . S
C486 C482 1.531 . S
C486 H498 0.960 . S
C486 H499 0.962 . S
C486 H500 0.960 . S
C487 C484 1.511 . S
C487 H501 0.961 . S
C487 H502 0.961 . S
C487 H503 0.961 . S
C488 C489 1.370 . S
C488 C490 1.363 . S
C488 H504 0.931 . S
C489 C488 1.370 . S
C489 C493 1.408 . S
C490 C488 1.363 . S
C490 C491 1.370 . S
C490 C494 1.524 . S
C491 C483 1.503 . S
C491 C490 1.370 . S
C491 C492 1.403 . S
C492 C491 1.403 . S
C492 C493 1.404 . S
C492 C495 1.539 . S
C493 C489 1.408 . S
C493 C492 1.404 . S
C493 H505 0.930 . S
C494 C490 1.524 . S
C494 H506 0.956 . S
C494 H507 0.961 . S
C494 H508 0.961 . S
C495 C492 1.539 . S
C495 H509 0.958 . S
C495 H510 0.961 . S
C495 H511 0.960 . S
H496 C480 0.931 . S
H497 C485 0.929 . S
H498 C486 0.960 . S
H499 C486 0.962 . S
H500 C486 0.960 . S
H501 C487 0.961 . S
H502 C487 0.961 . S
H503 C487 0.961 . S
H504 C488 0.931 . S
H505 C493 0.930 . S
H506 C494 0.956 . S
H507 C494 0.961 . S
H508 C494 0.961 . S
H509 C495 0.958 . S
H510 C495 0.961 . S
H511 C495 0.960 . S
C512 C513 1.391 . S
C512 C514 1.394 . S
C512 H528 0.931 . S
C513 C512 1.391 . S
C513 C517 1.376 . S
C514 C512 1.394 . S
C514 C515 1.369 . S
C514 C518 1.531 . S
C515 C514 1.369 . S
C515 C516 1.410 . S
C515 C523 1.503 . S
C516 C515 1.410 . S
C516 C517 1.392 . S
C516 C519 1.511 . S
C517 C513 1.376 . S
C517 C516 1.392 . S
C517 H529 0.929 1_565 S
C518 C514 1.531 . S
C518 H530 0.960 . S
C518 H531 0.962 . S
C518 H532 0.960 . S
C519 C516 1.511 . S
C519 H533 0.966 . S
C519 H534 0.961 . S
C519 H535 0.961 1_565 S
C520 C521 1.370 . S
C520 C522 1.363 . S
C520 H536 0.931 . S
C521 C520 1.370 . S
C521 C525 1.408 . S
C522 C520 1.363 . S
C522 C523 1.370 . S
C522 C526 1.524 . S
C523 C515 1.503 . S
C523 C522 1.370 . S
C523 C524 1.403 . S
C524 C523 1.403 . S
C524 C525 1.404 . S
C524 C527 1.539 . S
C525 C521 1.408 . S
C525 C524 1.404 . S
C525 H537 0.930 . S
C526 C522 1.524 . S
C526 H538 0.956 . S
C526 H539 0.961 . S
C526 H540 0.961 . S
C527 C524 1.539 . S
C527 H541 0.958 . S
C527 H542 0.961 1_565 S
C527 H543 0.960 1_565 S
H528 C512 0.931 . S
H529 C517 0.929 1_545 S
H530 C518 0.960 . S
H531 C518 0.962 . S
H532 C518 0.960 . S
H533 C519 0.966 . S
H534 C519 0.961 . S
H535 C519 0.961 1_545 S
H536 C520 0.931 . S
H537 C525 0.930 . S
H538 C526 0.956 . S
H539 C526 0.961 . S
H540 C526 0.961 . S
H541 C527 0.958 . S
H542 C527 0.961 1_545 S
H543 C527 0.960 1_545 S
C544 C545 1.384 1_556 S
C544 C546 1.388 1_556 S
C544 H560 0.944 . S
C545 C544 1.384 1_554 S
C545 C549 1.376 . S
C546 C544 1.388 1_554 S
C546 C547 1.369 . S
C546 C550 1.531 1_554 S
C547 C546 1.369 . S
C547 C548 1.410 . S
C547 C555 1.503 . S
C548 C547 1.410 . S
C548 C549 1.392 . S
C548 C551 1.511 . S
C549 C545 1.376 . S
C549 C548 1.392 . S
C549 H561 0.929 . S
C550 C546 1.531 1_556 S
C550 H562 0.960 . S
C550 H563 0.962 1_556 S
C550 H564 0.960 . S
C551 C548 1.511 . S
C551 H565 0.961 . S
C551 H566 0.961 . S
C551 H567 0.961 . S
C552 C553 1.370 . S
C552 C554 1.363 . S
C552 H568 0.931 . S
C553 C552 1.370 . S
C553 C557 1.408 . S
C554 C552 1.363 . S
C554 C555 1.370 . S
C554 C558 1.524 . S
C555 C547 1.503 . S
C555 C554 1.370 . S
C555 C556 1.403 . S
C556 C555 1.403 . S
C556 C557 1.404 . S
C556 C559 1.539 1_554 S
C557 C553 1.408 . S
C557 C556 1.404 . S
C557 H569 0.930 . S
C558 C554 1.524 . S
C558 H570 0.956 . S
C558 H571 0.961 . S
C558 H572 0.961 . S
C559 C556 1.539 1_556 S
C559 H573 0.958 . S
C559 H574 0.961 . S
C559 H575 0.960 . S
H560 C544 0.944 . S
H561 C549 0.929 . S
H562 C550 0.960 . S
H563 C550 0.962 1_554 S
H564 C550 0.960 . S
H565 C551 0.961 . S
H566 C551 0.961 . S
H567 C551 0.961 . S
H568 C552 0.931 . S
H569 C557 0.930 . S
H570 C558 0.956 . S
H571 C558 0.961 . S
H572 C558 0.961 . S
H573 C559 0.958 . S
H574 C559 0.961 . S
H575 C559 0.960 . S
C576 C577 1.391 . S
C576 C578 1.394 . S
C576 H592 0.931 . S
C577 C576 1.391 . S
C577 C581 1.376 . S
C578 C576 1.394 . S
C578 C579 1.369 . S
C578 C582 1.531 . S
C579 C578 1.369 . S
C579 C580 1.410 . S
C579 C587 1.503 . S
C580 C579 1.410 . S
C580 C581 1.392 . S
C580 C583 1.511 . S
C581 C577 1.376 . S
C581 C580 1.392 . S
C581 H593 0.929 . S
C582 C578 1.531 . S
C582 H594 0.960 . S
C582 H595 0.962 . S
C582 H596 0.960 . S
C583 C580 1.511 . S
C583 H597 0.961 . S
C583 H598 0.961 . S
C583 H599 0.961 . S
C584 C585 1.370 . S
C584 C586 1.363 . S
C584 H600 0.931 . S
C585 C584 1.370 . S
C585 C589 1.408 . S
C586 C584 1.363 . S
C586 C587 1.370 . S
C586 C590 1.524 . S
C587 C579 1.503 . S
C587 C586 1.370 . S
C587 C588 1.403 . S
C588 C587 1.403 . S
C588 C589 1.404 . S
C588 C591 1.539 1_545 S
C589 C585 1.408 . S
C589 C588 1.404 . S
C589 H601 0.930 1_545 S
C590 C586 1.524 . S
C590 H602 0.956 . S
C590 H603 0.961 . S
C590 H604 0.961 . S
C591 C588 1.539 1_565 S
C591 H605 0.958 . S
C591 H606 0.961 . S
C591 H607 0.960 1_565 S
H592 C576 0.931 . S
H593 C581 0.929 . S
H594 C582 0.960 . S
H595 C582 0.962 . S
H596 C582 0.960 . S
H597 C583 0.961 . S
H598 C583 0.961 . S
H599 C583 0.961 . S
H600 C584 0.931 . S
H601 C589 0.930 1_565 S
H602 C590 0.956 . S
H603 C590 0.961 . S
H604 C590 0.961 . S
H605 C591 0.958 . S
H606 C591 0.961 . S
H607 C591 0.960 1_545 S
C608 C609 1.391 . S
C608 C610 1.394 . S
C608 H624 0.931 . S
C609 C608 1.391 . S
C609 C613 1.376 . S
C610 C608 1.394 . S
C610 C611 1.369 . S
C610 C614 1.531 . S
C611 C610 1.369 . S
C611 C612 1.410 . S
C611 C619 1.503 . S
C612 C611 1.410 . S
C612 C613 1.392 . S
C612 C615 1.511 . S
C613 C609 1.376 . S
C613 C612 1.392 . S
C613 H625 0.929 . S
C614 C610 1.531 . S
C614 H626 0.960 . S
C614 H627 0.962 . S
C614 H628 0.960 . S
C615 C612 1.511 . S
C615 H629 0.961 . S
C615 H630 0.961 . S
C615 H631 0.961 . S
C616 C617 1.370 . S
C616 C618 1.363 . S
C616 H632 0.931 . S
C617 C616 1.370 . S
C617 C621 1.408 . S
C618 C616 1.363 . S
C618 C619 1.370 . S
C618 C622 1.524 . S
C619 C611 1.503 . S
C619 C618 1.370 . S
C619 C620 1.403 . S
C620 C619 1.403 . S
C620 C621 1.404 . S
C620 C623 1.539 . S
C621 C617 1.408 . S
C621 C620 1.404 . S
C621 H633 0.930 . S
C622 C618 1.524 . S
C622 H634 0.956 . S
C622 H635 0.961 . S
C622 H636 0.961 . S
C623 C620 1.539 . S
C623 H637 0.958 . S
C623 H638 0.961 . S
C623 H639 0.960 . S
H624 C608 0.931 . S
H625 C613 0.929 . S
H626 C614 0.960 . S
H627 C614 0.962 . S
H628 C614 0.960 . S
H629 C615 0.961 . S
H630 C615 0.961 . S
H631 C615 0.961 . S
H632 C616 0.931 . S
H633 C621 0.930 . S
H634 C622 0.956 . S
H635 C622 0.961 . S
H636 C622 0.961 . S
H637 C623 0.958 . S
H638 C623 0.961 . S
H639 C623 0.960 . S
C640 C641 1.391 . S
C640 C642 1.394 . S
C640 H656 0.931 . S
C641 C640 1.391 . S
C641 C645 1.376 . S
C642 C640 1.394 . S
C642 C643 1.369 . S
C642 C646 1.531 . S
C643 C642 1.369 . S
C643 C644 1.410 . S
C643 C651 1.503 . S
C644 C643 1.410 . S
C644 C645 1.392 . S
C644 C647 1.511 . S
C645 C641 1.376 . S
C645 C644 1.392 . S
C645 H657 0.929 . S
C646 C642 1.531 . S
C646 H658 0.960 . S
C646 H659 0.962 . S
C646 H660 0.960 . S
C647 C644 1.511 . S
C647 H661 0.961 . S
C647 H662 0.961 . S
C647 H663 0.961 . S
C648 C649 1.370 . S
C648 C650 1.363 . S
C648 H664 0.931 . S
C649 C648 1.370 . S
C649 C653 1.408 . S
C650 C648 1.363 . S
C650 C651 1.370 . S
C650 C654 1.524 . S
C651 C643 1.503 . S
C651 C650 1.370 . S
C651 C652 1.403 . S
C652 C651 1.403 . S
C652 C653 1.404 . S
C652 C655 1.539 . S
C653 C649 1.408 . S
C653 C652 1.404 . S
C653 H665 0.930 . S
C654 C650 1.524 . S
C654 H666 0.956 . S
C654 H667 0.961 . S
C654 H668 0.961 . S
C655 C652 1.539 . S
C655 H669 0.958 . S
C655 H670 0.961 . S
C655 H671 0.960 . S
H656 C640 0.931 . S
H657 C645 0.929 . S
H658 C646 0.960 . S
H659 C646 0.962 . S
H660 C646 0.960 . S
H661 C647 0.961 . S
H662 C647 0.961 . S
H663 C647 0.961 . S
H664 C648 0.931 . S
H665 C653 0.930 . S
H666 C654 0.956 . S
H667 C654 0.961 . S
H668 C654 0.961 . S
H669 C655 0.958 . S
H670 C655 0.961 . S
H671 C655 0.960 . S
C672 C673 1.391 . S
C672 C674 1.394 . S
C672 H688 0.931 . S
C673 C672 1.391 . S
C673 C677 1.376 . S
C674 C672 1.394 . S
C674 C675 1.369 . S
C674 C678 1.531 . S
C675 C674 1.369 . S
C675 C676 1.410 . S
C675 C683 1.503 . S
C676 C675 1.410 . S
C676 C677 1.392 . S
C676 C679 1.511 . S
C677 C673 1.376 . S
C677 C676 1.392 . S
C677 H689 0.929 . S
C678 C674 1.531 . S
C678 H690 0.960 . S
C678 H691 0.962 . S
C678 H692 0.960 . S
C679 C676 1.511 . S
C679 H693 0.961 . S
C679 H694 0.961 . S
C679 H695 0.961 . S
C680 C681 1.370 . S
C680 C682 1.363 . S
C680 H696 0.931 1_556 S
C681 C680 1.370 . S
C681 C685 1.408 . S
C682 C680 1.363 . S
C682 C683 1.370 . S
C682 C686 1.524 . S
C683 C675 1.503 . S
C683 C682 1.370 . S
C683 C684 1.403 . S
C684 C683 1.403 . S
C684 C685 1.404 . S
C684 C687 1.539 . S
C685 C681 1.408 . S
C685 C684 1.404 . S
C685 H697 0.930 . S
C686 C682 1.524 . S
C686 H698 0.956 1_556 S
C686 H699 0.961 . S
C686 H700 0.961 1_556 S
C687 C684 1.539 . S
C687 H701 0.958 . S
C687 H702 0.961 . S
C687 H703 0.960 . S
H688 C672 0.931 . S
H689 C677 0.929 . S
H690 C678 0.960 . S
H691 C678 0.962 . S
H692 C678 0.960 . S
H693 C679 0.961 . S
H694 C679 0.961 . S
H695 C679 0.961 . S
H696 C680 0.931 1_554 S
H697 C685 0.930 . S
H698 C686 0.956 1_554 S
H699 C686 0.961 . S
H700 C686 0.961 1_554 S
H701 C687 0.958 . S
H702 C687 0.961 . S
H703 C687 0.960 . S
C704 C705 1.391 . S
C704 C706 1.394 . S
C704 H720 0.931 . S
C705 C704 1.391 . S
C705 C709 1.376 . S
C706 C704 1.394 . S
C706 C707 1.369 . S
C706 C710 1.531 . S
C707 C706 1.369 . S
C707 C708 1.410 . S
C707 C715 1.503 . S
C708 C707 1.410 . S
C708 C709 1.392 . S
C708 C711 1.511 . S
C709 C705 1.376 . S
C709 C708 1.392 . S
C709 H721 0.929 . S
C710 C706 1.531 . S
C710 H722 0.960 . S
C710 H723 0.962 . S
C710 H724 0.960 . S
C711 C708 1.511 . S
C711 H725 0.961 . S
C711 H726 0.961 . S
C711 H727 0.961 . S
C712 C713 1.370 . S
C712 C714 1.363 . S
C712 H728 0.931 . S
C713 C712 1.370 . S
C713 C717 1.408 . S
C714 C712 1.363 . S
C714 C715 1.370 . S
C714 C718 1.524 . S
C715 C707 1.503 . S
C715 C714 1.370 . S
C715 C716 1.403 . S
C716 C715 1.403 . S
C716 C717 1.404 . S
C716 C719 1.539 . S
C717 C713 1.408 . S
C717 C716 1.404 . S
C717 H729 0.930 . S
C718 C714 1.524 . S
C718 H730 0.956 . S
C718 H731 0.961 . S
C718 H732 0.961 . S
C719 C716 1.539 . S
C719 H733 0.958 . S
C719 H734 0.961 . S
C719 H735 0.960 . S
H720 C704 0.931 . S
H721 C709 0.929 . S
H722 C710 0.960 . S
H723 C710 0.962 . S
H724 C710 0.960 . S
H725 C711 0.961 . S
H726 C711 0.961 . S
H727 C711 0.961 . S
H728 C712 0.931 . S
H729 C717 0.930 . S
H730 C718 0.956 . S
H731 C718 0.961 . S
H732 C718 0.961 . S
H733 C719 0.958 . S
H734 C719 0.961 . S
H735 C719 0.960 . S
C736 C737 1.391 . S
C736 C738 1.394 . S
C736 H752 0.931 . S
C737 C736 1.391 . S
C737 C741 1.376 . S
C738 C736 1.394 . S
C738 C739 1.369 . S
C738 C742 1.531 . S
C739 C738 1.369 . S
C739 C740 1.410 . S
C739 C747 1.503 . S
C740 C739 1.410 . S
C740 C741 1.392 . S
C740 C743 1.511 . S
C741 C737 1.376 . S
C741 C740 1.392 . S
C741 H753 0.929 . S
C742 C738 1.531 . S
C742 H754 0.960 . S
C742 H755 0.962 . S
C742 H756 0.960 . S
C743 C740 1.511 . S
C743 H757 0.961 . S
C743 H758 0.961 . S
C743 H759 0.961 . S
C744 C745 1.370 . S
C744 C746 1.363 . S
C744 H760 0.931 . S
C745 C744 1.370 . S
C745 C749 1.408 . S
C746 C744 1.363 . S
C746 C747 1.370 . S
C746 C750 1.524 . S
C747 C739 1.503 . S
C747 C746 1.370 . S
C747 C748 1.403 . S
C748 C747 1.403 . S
C748 C749 1.404 . S
C748 C751 1.539 . S
C749 C745 1.408 . S
C749 C748 1.404 . S
C749 H761 0.930 . S
C750 C746 1.524 . S
C750 H762 0.956 . S
C750 H763 0.961 . S
C750 H764 0.961 . S
C751 C748 1.539 . S
C751 H765 0.958 . S
C751 H766 0.961 . S
C751 H767 0.960 . S
H752 C736 0.931 . S
H753 C741 0.929 . S
H754 C742 0.960 . S
H755 C742 0.962 . S
H756 C742 0.960 . S
H757 C743 0.961 . S
H758 C743 0.961 . S
H759 C743 0.961 . S
H760 C744 0.931 . S
H761 C749 0.930 . S
H762 C750 0.956 . S
H763 C750 0.961 . S
H764 C750 0.961 . S
H765 C751 0.958 . S
H766 C751 0.961 . S
H767 C751 0.960 . S
C768 C769 1.391 . S
C768 C770 1.394 . S
C768 H784 0.931 . S
C769 C768 1.391 . S
C769 C773 1.376 . S
C770 C768 1.394 . S
C770 C771 1.369 . S
C770 C774 1.531 . S
C771 C770 1.369 . S
C771 C772 1.410 . S
C771 C779 1.503 . S
C772 C771 1.410 . S
C772 C773 1.392 . S
C772 C775 1.511 . S
C773 C769 1.376 . S
C773 C772 1.392 . S
C773 H785 0.929 . S
C774 C770 1.531 . S
C774 H786 0.960 . S
C774 H787 0.962 . S
C774 H788 0.960 . S
C775 C772 1.511 . S
C775 H789 0.961 1_455 S
C775 H790 0.961 . S
C775 H791 0.961 1_455 S
C776 C777 1.370 . S
C776 C778 1.363 . S
C776 H792 0.931 . S
C777 C776 1.370 . S
C777 C781 1.408 . S
C778 C776 1.363 . S
C778 C779 1.370 . S
C778 C782 1.524 . S
C779 C771 1.503 . S
C779 C778 1.370 . S
C779 C780 1.403 . S
C780 C779 1.403 . S
C780 C781 1.404 . S
C780 C783 1.539 . S
C781 C777 1.408 . S
C781 C780 1.404 . S
C781 H793 0.930 . S
C782 C778 1.524 . S
C782 H794 0.956 . S
C782 H795 0.961 . S
C782 H796 0.961 . S
C783 C780 1.539 . S
C783 H797 0.958 . S
C783 H798 0.961 1_455 S
C783 H799 0.960 . S
H784 C768 0.931 . S
H785 C773 0.929 . S
H786 C774 0.960 . S
H787 C774 0.962 . S
H788 C774 0.960 . S
H789 C775 0.961 1_655 S
H790 C775 0.961 . S
H791 C775 0.961 1_655 S
H792 C776 0.931 . S
H793 C781 0.930 . S
H794 C782 0.956 . S
H795 C782 0.961 . S
H796 C782 0.961 . S
H797 C783 0.958 . S
H798 C783 0.961 1_655 S
H799 C783 0.960 . S
C800 C801 1.391 1_455 S
C800 C802 1.394 1_455 S
C800 H816 0.931 . S
C801 C800 1.391 1_655 S
C801 C805 1.376 . S
C802 C800 1.394 1_655 S
C802 C803 1.369 . S
C802 C806 1.531 1_655 S
C803 C802 1.369 . S
C803 C804 1.410 . S
C803 C811 1.503 . S
C804 C803 1.410 . S
C804 C805 1.392 . S
C804 C807 1.511 . S
C805 C801 1.376 . S
C805 C804 1.392 . S
C805 H817 0.929 . S
C806 C802 1.531 1_455 S
C806 H818 0.960 1_455 S
C806 H819 0.962 . S
C806 H820 0.960 . S
C807 C804 1.511 . S
C807 H821 0.961 . S
C807 H822 0.961 . S
C807 H823 0.961 . S
C808 C809 1.370 . S
C808 C810 1.363 . S
C808 H824 0.931 . S
C809 C808 1.370 . S
C809 C813 1.408 . S
C810 C808 1.363 . S
C810 C811 1.370 . S
C810 C814 1.524 . S
C811 C803 1.503 . S
C811 C810 1.370 . S
C811 C812 1.403 . S
C812 C811 1.403 . S
C812 C813 1.404 . S
C812 C815 1.539 . S
C813 C809 1.408 . S
C813 C812 1.404 . S
C813 H825 0.930 . S
C814 C810 1.524 . S
C814 H826 0.956 . S
C814 H827 0.961 . S
C814 H828 0.961 . S
C815 C812 1.539 . S
C815 H829 0.958 . S
C815 H830 0.961 . S
C815 H831 0.960 . S
H816 C800 0.931 . S
H817 C805 0.929 . S
H818 C806 0.960 1_655 S
H819 C806 0.962 . S
H820 C806 0.960 . S
H821 C807 0.961 . S
H822 C807 0.961 . S
H823 C807 0.961 . S
H824 C808 0.931 . S
H825 C813 0.930 . S
H826 C814 0.956 . S
H827 C814 0.961 . S
H828 C814 0.961 . S
H829 C815 0.958 . S
H830 C815 0.961 . S
H831 C815 0.960 . S
C832 C833 1.391 . S
C832 C834 1.394 . S
C832 H848 0.931 . S
C833 C832 1.391 . S
C833 C837 1.376 . S
C834 C832 1.394 . S
C834 C835 1.369 . S
C834 C838 1.531 . S
C835 C834 1.369 . S
C835 C836 1.410 . S
C835 C843 1.503 . S
C836 C835 1.410 . S
C836 C837 1.392 . S
C836 C839 1.511 . S
C837 C833 1.376 . S
C837 C836 1.392 . S
C837 H849 0.929 . S
C838 C834 1.531 . S
C838 H850 0.960 . S
C838 H851 0.962 . S
C838 H852 0.960 . S
C839 C836 1.511 . S
C839 H853 0.961 . S
C839 H854 0.961 . S
C839 H855 0.961 . S
C840 C841 1.370 . S
C840 C842 1.363 . S
C840 H856 0.931 . S
C841 C840 1.370 . S
C841 C845 1.408 . S
C842 C840 1.363 . S
C842 C843 1.370 . S
C842 C846 1.524 . S
C843 C835 1.503 . S
C843 C842 1.370 . S
C843 C844 1.403 . S
C844 C843 1.403 . S
C844 C845 1.404 . S
C844 C847 1.539 . S
C845 C841 1.408 . S
C845 C844 1.404 . S
C845 H857 0.930 . S
C846 C842 1.524 . S
C846 H858 0.956 . S
C846 H859 0.961 . S
C846 H860 0.961 . S
C847 C844 1.539 . S
C847 H861 0.958 . S
C847 H862 0.961 . S
C847 H863 0.960 . S
H848 C832 0.931 . S
H849 C837 0.929 . S
H850 C838 0.960 . S
H851 C838 0.962 . S
H852 C838 0.960 . S
H853 C839 0.961 . S
H854 C839 0.961 . S
H855 C839 0.961 . S
H856 C840 0.931 . S
H857 C845 0.930 . S
H858 C846 0.956 . S
H859 C846 0.961 . S
H860 C846 0.961 . S
H861 C847 0.958 . S
H862 C847 0.961 . S
H863 C847 0.960 . S
C864 C865 1.391 . S
C864 C866 1.394 . S
C864 H880 0.931 . S
C865 C864 1.391 . S
C865 C869 1.376 . S
C866 C864 1.394 . S
C866 C867 1.369 . S
C866 C870 1.531 . S
C867 C866 1.369 . S
C867 C868 1.410 . S
C867 C875 1.503 . S
C868 C867 1.410 . S
C868 C869 1.392 . S
C868 C871 1.511 . S
C869 C865 1.376 . S
C869 C868 1.392 . S
C869 H881 0.929 . S
C870 C866 1.531 . S
C870 H882 0.960 . S
C870 H883 0.962 . S
C870 H884 0.960 . S
C871 C868 1.511 . S
C871 H885 0.961 . S
C871 H886 0.961 . S
C871 H887 0.961 . S
C872 C873 1.370 . S
C872 C874 1.363 . S
C872 H888 0.931 . S
C873 C872 1.370 . S
C873 C877 1.408 . S
C874 C872 1.363 . S
C874 C875 1.370 . S
C874 C878 1.524 . S
C875 C867 1.503 . S
C875 C874 1.370 . S
C875 C876 1.403 . S
C876 C875 1.403 . S
C876 C877 1.404 . S
C876 C879 1.539 . S
C877 C873 1.408 . S
C877 C876 1.404 . S
C877 H889 0.930 . S
C878 C874 1.524 . S
C878 H890 0.956 . S
C878 H891 0.961 . S
C878 H892 0.961 . S
C879 C876 1.539 . S
C879 H893 0.958 . S
C879 H894 0.961 . S
C879 H895 0.960 . S
H880 C864 0.931 . S
H881 C869 0.929 . S
H882 C870 0.960 . S
H883 C870 0.962 . S
H884 C870 0.960 . S
H885 C871 0.961 . S
H886 C871 0.961 . S
H887 C871 0.961 . S
H888 C872 0.931 . S
H889 C877 0.930 . S
H890 C878 0.956 . S
H891 C878 0.961 . S
H892 C878 0.961 . S
H893 C879 0.958 . S
H894 C879 0.961 . S
H895 C879 0.960 . S
C896 C897 1.391 . S
C896 C898 1.394 . S
C896 H912 0.931 . S
C897 C896 1.391 . S
C897 C901 1.376 . S
C898 C896 1.394 . S
C898 C899 1.369 . S
C898 C902 1.531 . S
C899 C898 1.369 . S
C899 C900 1.410 . S
C899 C907 1.503 . S
C900 C899 1.410 . S
C900 C901 1.392 . S
C900 C903 1.511 . S
C901 C897 1.376 . S
C901 C900 1.392 . S
C901 H913 0.929 . S
C902 C898 1.531 . S
C902 H914 0.960 . S
C902 H915 0.962 . S
C902 H916 0.960 . S
C903 C900 1.511 . S
C903 H917 0.961 . S
C903 H918 0.961 . S
C903 H919 0.961 . S
C904 C905 1.370 . S
C904 C906 1.363 . S
C904 H920 0.931 . S
C905 C904 1.370 . S
C905 C909 1.408 . S
C906 C904 1.363 . S
C906 C907 1.370 . S
C906 C910 1.524 . S
C907 C899 1.503 . S
C907 C906 1.370 . S
C907 C908 1.403 . S
C908 C907 1.403 . S
C908 C909 1.404 . S
C908 C911 1.539 . S
C909 C905 1.408 . S
C909 C908 1.404 . S
C909 H921 0.930 . S
C910 C906 1.524 . S
C910 H922 0.956 . S
C910 H923 0.961 . S
C910 H924 0.964 1_565 S
C911 C908 1.539 . S
C911 H925 0.958 . S
C911 H926 0.961 . S
C911 H927 0.960 . S
H912 C896 0.931 . S
H913 C901 0.929 . S
H914 C902 0.960 . S
H915 C902 0.962 . S
H916 C902 0.960 . S
H917 C903 0.961 . S
H918 C903 0.961 . S
H919 C903 0.961 . S
H920 C904 0.931 . S
H921 C909 0.930 . S
H922 C910 0.956 . S
H923 C910 0.961 . S
H924 C910 0.964 1_545 S
H925 C911 0.958 . S
H926 C911 0.961 . S
H927 C911 0.960 . S
C928 C929 1.391 . S
C928 C930 1.394 . S
C928 H944 0.931 . S
C929 C928 1.391 . S
C929 C933 1.376 . S
C930 C928 1.394 . S
C930 C931 1.369 . S
C930 C934 1.531 . S
C931 C930 1.369 . S
C931 C932 1.410 . S
C931 C939 1.503 . S
C932 C931 1.410 . S
C932 C933 1.392 . S
C932 C935 1.511 . S
C933 C929 1.376 . S
C933 C932 1.392 . S
C933 H945 0.929 . S
C934 C930 1.531 . S
C934 H946 0.960 . S
C934 H947 0.962 . S
C934 H948 0.960 . S
C935 C932 1.511 . S
C935 H949 0.961 . S
C935 H950 0.961 . S
C935 H951 0.961 . S
C936 C937 1.370 . S
C936 C938 1.363 . S
C936 H952 0.931 . S
C937 C936 1.370 . S
C937 C941 1.408 . S
C938 C936 1.363 . S
C938 C939 1.370 . S
C938 C942 1.524 . S
C939 C931 1.503 . S
C939 C938 1.370 . S
C939 C940 1.403 . S
C940 C939 1.403 . S
C940 C941 1.404 . S
C940 C943 1.539 . S
C941 C937 1.408 . S
C941 C940 1.404 . S
C941 H953 0.930 . S
C942 C938 1.524 . S
C942 H954 0.956 . S
C942 H955 0.961 . S
C942 H956 0.961 . S
C943 C940 1.539 . S
C943 H957 0.958 . S
C943 H958 0.961 . S
C943 H959 0.960 . S
H944 C928 0.931 . S
H945 C933 0.929 . S
H946 C934 0.960 . S
H947 C934 0.962 . S
H948 C934 0.960 . S
H949 C935 0.961 . S
H950 C935 0.961 . S
H951 C935 0.961 . S
H952 C936 0.931 . S
H953 C941 0.930 . S
H954 C942 0.956 . S
H955 C942 0.961 . S
H956 C942 0.961 . S
H957 C943 0.958 . S
H958 C943 0.961 . S
H959 C943 0.960 . S
C960 C961 1.391 . S
C960 C962 1.394 . S
C960 H976 0.931 . S
C961 C960 1.391 . S
C961 C965 1.376 . S
C962 C960 1.394 . S
C962 C963 1.369 . S
C962 C966 1.531 1_554 S
C963 C962 1.369 . S
C963 C964 1.410 . S
C963 C971 1.503 1_554 S
C964 C963 1.410 . S
C964 C965 1.392 . S
C964 C967 1.511 . S
C965 C961 1.376 . S
C965 C964 1.392 . S
C965 H977 0.929 . S
C966 C962 1.531 1_556 S
C966 H978 0.960 . S
C966 H979 0.962 . S
C966 H980 0.960 . S
C967 C964 1.511 . S
C967 H981 0.961 . S
C967 H982 0.961 . S
C967 H983 0.961 . S
C968 C969 1.370 . S
C968 C970 1.363 . S
C968 H984 0.931 . S
C969 C968 1.370 . S
C969 C973 1.408 . S
C970 C968 1.363 . S
C970 C971 1.370 . S
C970 C974 1.524 . S
C971 C963 1.503 1_556 S
C971 C970 1.370 . S
C971 C972 1.403 . S
C972 C971 1.403 . S
C972 C973 1.404 . S
C972 C975 1.539 . S
C973 C969 1.408 . S
C973 C972 1.404 . S
C973 H985 0.930 . S
C974 C970 1.524 . S
C974 H986 0.956 . S
C974 H987 0.993 . S
C974 H988 0.961 . S
C975 C972 1.539 . S
C975 H989 0.958 . S
C975 H990 0.961 . S
C975 H991 0.960 1_556 S
H976 C960 0.931 . S
H977 C965 0.929 . S
H978 C966 0.960 . S
H979 C966 0.962 . S
H980 C966 0.960 . S
H981 C967 0.961 . S
H982 C967 0.961 . S
H983 C967 0.961 . S
H984 C968 0.931 . S
H985 C973 0.930 . S
H986 C974 0.956 . S
H987 C974 0.993 . S
H988 C974 0.961 . S
H989 C975 0.958 . S
H990 C975 0.961 . S
H991 C975 0.960 1_554 S
C992 C993 1.391 . S
C992 C994 1.394 . S
C992 H1008 0.931 . S
C993 C992 1.391 . S
C993 C997 1.376 . S
C994 C992 1.394 . S
C994 C995 1.369 . S
C994 C998 1.531 . S
C995 C994 1.369 . S
C995 C996 1.410 . S
C995 C1003 1.503 . S
C996 C995 1.410 . S
C996 C997 1.392 . S
C996 C999 1.511 . S
C997 C993 1.376 . S
C997 C996 1.392 . S
C997 H1009 0.929 . S
C998 C994 1.531 . S
C998 H1010 0.960 . S
C998 H1011 0.962 . S
C998 H1012 0.960 . S
C999 C996 1.511 . S
C999 H1013 0.961 . S
C999 H1014 0.961 . S
C999 H1015 0.961 . S
C1000 C1001 1.370 . S
C1000 C1002 1.363 . S
C1000 H1016 0.931 . S
C1001 C1000 1.370 . S
C1001 C1005 1.408 . S
C1002 C1000 1.363 . S
C1002 C1003 1.370 . S
C1002 C1006 1.524 . S
C1003 C995 1.503 . S
C1003 C1002 1.370 . S
C1003 C1004 1.403 . S
C1004 C1003 1.403 . S
C1004 C1005 1.404 . S
C1004 C1007 1.539 . S
C1005 C1001 1.408 . S
C1005 C1004 1.404 . S
C1005 H1017 0.930 . S
C1006 C1002 1.524 . S
C1006 H1018 0.956 . S
C1006 H1019 0.961 . S
C1006 H1020 0.961 . S
C1007 C1004 1.539 . S
C1007 H1021 0.958 . S
C1007 H1022 0.961 . S
C1007 H1023 0.960 . S
H1008 C992 0.931 . S
H1009 C997 0.929 . S
H1010 C998 0.960 . S
H1011 C998 0.962 . S
H1012 C998 0.960 . S
H1013 C999 0.961 . S
H1014 C999 0.961 . S
H1015 C999 0.961 . S
H1016 C1000 0.931 . S
H1017 C1005 0.930 . S
H1018 C1006 0.956 . S
H1019 C1006 0.961 . S
H1020 C1006 0.961 . S
H1021 C1007 0.958 . S
H1022 C1007 0.961 . S
H1023 C1007 0.960 . S
C1024 C1025 1.391 . S
C1024 C1026 1.394 1_554 S
C1024 H1040 0.931 . S
C1025 C1024 1.391 . S
C1025 C1029 1.376 . S
C1026 C1024 1.394 1_556 S
C1026 C1027 1.369 . S
C1026 C1030 1.531 . S
C1027 C1026 1.369 . S
C1027 C1028 1.410 . S
C1027 C1035 1.503 . S
C1028 C1027 1.410 . S
C1028 C1029 1.392 1_556 S
C1028 C1031 1.511 . S
C1029 C1025 1.376 . S
C1029 C1028 1.392 1_554 S
C1029 H1041 0.929 . S
C1030 C1026 1.531 . S
C1030 H1042 0.960 . S
C1030 H1043 0.962 . S
C1030 H1044 0.960 . S
C1031 C1028 1.511 . S
C1031 H1045 0.961 . S
C1031 H1046 0.961 . S
C1031 H1047 0.961 . S
C1032 C1033 1.370 . S
C1032 C1034 1.363 . S
C1032 H1048 0.931 . S
C1033 C1032 1.370 . S
C1033 C1037 1.408 . S
C1034 C1032 1.363 . S
C1034 C1035 1.370 . S
C1034 C1038 1.524 . S
C1035 C1027 1.503 . S
C1035 C1034 1.370 . S
C1035 C1036 1.403 . S
C1036 C1035 1.403 . S
C1036 C1037 1.404 . S
C1036 C1039 1.539 . S
C1037 C1033 1.408 . S
C1037 C1036 1.404 . S
C1037 H1049 0.930 . S
C1038 C1034 1.524 . S
C1038 H1050 0.956 . S
C1038 H1051 0.961 . S
C1038 H1052 0.961 . S
C1039 C1036 1.539 . S
C1039 H1053 0.958 . S
C1039 H1054 0.961 . S
C1039 H1055 0.960 . S
H1040 C1024 0.931 . S
H1041 C1029 0.929 . S
H1042 C1030 0.960 . S
H1043 C1030 0.962 . S
H1044 C1030 0.960 . S
H1045 C1031 0.961 . S
H1046 C1031 0.961 . S
H1047 C1031 0.961 . S
H1048 C1032 0.931 . S
H1049 C1037 0.930 . S
H1050 C1038 0.956 . S
H1051 C1038 0.961 . S
H1052 C1038 0.961 . S
H1053 C1039 0.958 . S
H1054 C1039 0.961 . S
H1055 C1039 0.960 . S
C1056 C1057 1.391 . S
C1056 C1058 1.394 . S
C1056 H1072 0.931 . S
C1057 C1056 1.391 . S
C1057 C1061 1.376 . S
C1058 C1056 1.394 . S
C1058 C1059 1.369 . S
C1058 C1062 1.531 . S
C1059 C1058 1.369 . S
C1059 C1060 1.410 . S
C1059 C1067 1.503 . S
C1060 C1059 1.410 . S
C1060 C1061 1.392 . S
C1060 C1063 1.511 . S
C1061 C1057 1.376 . S
C1061 C1060 1.392 . S
C1061 H1073 0.929 . S
C1062 C1058 1.531 . S
C1062 H1074 0.960 . S
C1062 H1075 0.962 . S
C1062 H1076 0.960 . S
C1063 C1060 1.511 . S
C1063 H1077 0.961 . S
C1063 H1078 0.961 . S
C1063 H1079 0.961 . S
C1064 C1065 1.370 . S
C1064 C1066 1.363 . S
C1064 H1080 0.931 . S
C1065 C1064 1.370 . S
C1065 C1069 1.408 . S
C1066 C1064 1.363 . S
C1066 C1067 1.370 . S
C1066 C1070 1.524 . S
C1067 C1059 1.503 . S
C1067 C1066 1.370 . S
C1067 C1068 1.403 . S
C1068 C1067 1.403 . S
C1068 C1069 1.404 . S
C1068 C1071 1.539 . S
C1069 C1065 1.408 . S
C1069 C1068 1.404 . S
C1069 H1081 0.930 . S
C1070 C1066 1.524 . S
C1070 H1082 0.956 . S
C1070 H1083 0.961 . S
C1070 H1084 0.961 . S
C1071 C1068 1.539 . S
C1071 H1085 0.958 . S
C1071 H1086 0.961 . S
C1071 H1087 0.960 . S
H1072 C1056 0.931 . S
H1073 C1061 0.929 . S
H1074 C1062 0.960 . S
H1075 C1062 0.962 . S
H1076 C1062 0.960 . S
H1077 C1063 0.961 . S
H1078 C1063 0.961 . S
H1079 C1063 0.961 . S
H1080 C1064 0.931 . S
H1081 C1069 0.930 . S
H1082 C1070 0.956 . S
H1083 C1070 0.961 . S
H1084 C1070 0.961 . S
H1085 C1071 0.958 . S
H1086 C1071 0.961 . S
H1087 C1071 0.960 . S
C1088 C1089 1.391 . S
C1088 C1090 1.394 . S
C1088 H1104 0.931 . S
C1089 C1088 1.391 . S
C1089 C1093 1.376 . S
C1090 C1088 1.394 . S
C1090 C1091 1.369 . S
C1090 C1094 1.531 . S
C1091 C1090 1.369 . S
C1091 C1092 1.410 . S
C1091 C1099 1.503 . S
C1092 C1091 1.410 . S
C1092 C1093 1.392 . S
C1092 C1095 1.511 . S
C1093 C1089 1.376 . S
C1093 C1092 1.392 . S
C1093 H1105 0.929 . S
C1094 C1090 1.531 . S
C1094 H1106 0.960 . S
C1094 H1107 0.962 . S
C1094 H1108 0.960 . S
C1095 C1092 1.511 . S
C1095 H1109 0.961 . S
C1095 H1110 0.961 . S
C1095 H1111 0.961 . S
C1096 C1097 1.370 . S
C1096 C1098 1.363 . S
C1096 H1112 0.931 . S
C1097 C1096 1.370 . S
C1097 C1101 1.408 . S
C1098 C1096 1.363 . S
C1098 C1099 1.370 . S
C1098 C1102 1.524 . S
C1099 C1091 1.503 . S
C1099 C1098 1.370 . S
C1099 C1100 1.403 . S
C1100 C1099 1.403 . S
C1100 C1101 1.404 . S
C1100 C1103 1.539 . S
C1101 C1097 1.408 . S
C1101 C1100 1.404 . S
C1101 H1113 0.930 . S
C1102 C1098 1.524 . S
C1102 H1114 0.956 . S
C1102 H1115 0.961 . S
C1102 H1116 0.961 . S
C1103 C1100 1.539 . S
C1103 H1117 0.958 . S
C1103 H1118 0.961 . S
C1103 H1119 0.960 . S
H1104 C1088 0.931 . S
H1105 C1093 0.929 . S
H1106 C1094 0.960 . S
H1107 C1094 0.962 . S
H1108 C1094 0.960 . S
H1109 C1095 0.961 . S
H1110 C1095 0.961 . S
H1111 C1095 0.961 . S
H1112 C1096 0.931 . S
H1113 C1101 0.930 . S
H1114 C1102 0.956 . S
H1115 C1102 0.961 . S
H1116 C1102 0.961 . S
H1117 C1103 0.958 . S
H1118 C1103 0.961 . S
H1119 C1103 0.960 . S
C1120 C1121 1.391 . S
C1120 C1122 1.394 . S
C1120 H1136 0.931 . S
C1121 C1120 1.391 . S
C1121 C1125 1.376 . S
C1122 C1120 1.394 . S
C1122 C1123 1.369 . S
C1122 C1126 1.531 . S
C1123 C1122 1.369 . S
C1123 C1124 1.410 . S
C1123 C1131 1.503 . S
C1124 C1123 1.410 . S
C1124 C1125 1.392 . S
C1124 C1127 1.511 . S
C1125 C1121 1.376 . S
C1125 C1124 1.392 . S
C1125 H1137 0.929 . S
C1126 C1122 1.531 . S
C1126 H1138 0.960 . S
C1126 H1139 0.962 . S
C1126 H1140 0.960 . S
C1127 C1124 1.511 . S
C1127 H1141 0.961 . S
C1127 H1142 0.961 . S
C1127 H1143 0.961 . S
C1128 C1129 1.370 . S
C1128 C1130 1.363 . S
C1128 H1144 0.931 . S
C1129 C1128 1.370 . S
C1129 C1133 1.408 . S
C1130 C1128 1.363 . S
C1130 C1131 1.370 . S
C1130 C1134 1.524 . S
C1131 C1123 1.503 . S
C1131 C1130 1.370 . S
C1131 C1132 1.403 . S
C1132 C1131 1.403 . S
C1132 C1133 1.404 . S
C1132 C1135 1.539 . S
C1133 C1129 1.408 . S
C1133 C1132 1.404 . S
C1133 H1145 0.930 . S
C1134 C1130 1.524 . S
C1134 H1146 0.956 . S
C1134 H1147 0.961 . S
C1134 H1148 0.961 . S
C1135 C1132 1.539 . S
C1135 H1149 0.958 . S
C1135 H1150 0.961 . S
C1135 H1151 0.960 . S
H1136 C1120 0.931 . S
H1137 C1125 0.929 . S
H1138 C1126 0.960 . S
H1139 C1126 0.962 . S
H1140 C1126 0.960 . S
H1141 C1127 0.961 . S
H1142 C1127 0.961 . S
H1143 C1127 0.961 . S
H1144 C1128 0.931 . S
H1145 C1133 0.930 . S
H1146 C1134 0.956 . S
H1147 C1134 0.961 . S
H1148 C1134 0.961 . S
H1149 C1135 0.958 . S
H1150 C1135 0.961 . S
H1151 C1135 0.960 . S
C1152 C1153 1.391 . S
C1152 C1154 1.394 . S
C1152 H1168 0.931 . S
C1153 C1152 1.391 . S
C1153 C1157 1.376 . S
C1154 C1152 1.394 . S
C1154 C1155 1.369 . S
C1154 C1158 1.531 . S
C1155 C1154 1.369 . S
C1155 C1156 1.410 . S
C1155 C1163 1.503 . S
C1156 C1155 1.410 . S
C1156 C1157 1.392 . S
C1156 C1159 1.511 . S
C1157 C1153 1.376 . S
C1157 C1156 1.392 . S
C1157 H1169 0.929 . S
C1158 C1154 1.531 . S
C1158 H1170 0.960 . S
C1158 H1171 0.962 1_455 S
C1158 H1172 0.960 1_455 S
C1159 C1156 1.511 . S
C1159 H1173 0.961 . S
C1159 H1174 0.961 . S
C1159 H1175 0.961 . S
C1160 C1161 1.370 . S
C1160 C1162 1.363 1_565 S
C1160 H1176 0.931 . S
C1161 C1160 1.370 . S
C1161 C1165 1.408 . S
C1162 C1160 1.363 1_545 S
C1162 C1163 1.370 . S
C1162 C1166 1.524 . S
C1163 C1155 1.503 . S
C1163 C1162 1.370 . S
C1163 C1164 1.403 1_545 S
C1164 C1163 1.403 1_565 S
C1164 C1165 1.404 . S
C1164 C1167 1.539 . S
C1165 C1161 1.408 . S
C1165 C1164 1.404 . S
C1165 H1177 0.930 . S
C1166 C1162 1.524 . S
C1166 H1178 0.956 . S
C1166 H1179 0.961 . S
C1166 H1180 0.961 . S
C1167 C1164 1.539 . S
C1167 H1181 0.958 1_565 S
C1167 H1182 0.961 . S
C1167 H1183 0.960 1_565 S
H1168 C1152 0.931 . S
H1169 C1157 0.929 . S
H1170 C1158 0.960 . S
H1171 C1158 0.962 1_655 S
H1172 C1158 0.960 1_655 S
H1173 C1159 0.961 . S
H1174 C1159 0.961 . S
H1175 C1159 0.961 . S
H1176 C1160 0.931 . S
H1177 C1165 0.930 . S
H1178 C1166 0.956 . S
H1179 C1166 0.961 . S
H1180 C1166 0.961 . S
H1181 C1167 0.958 1_545 S
H1182 C1167 0.961 . S
H1183 C1167 0.960 1_545 S
C1184 C1185 1.391 . S
C1184 C1186 1.394 . S
C1184 H1200 0.931 . S
C1185 C1184 1.391 . S
C1185 C1189 1.376 . S
C1186 C1184 1.394 . S
C1186 C1187 1.369 . S
C1186 C1190 1.531 . S
C1187 C1186 1.369 . S
C1187 C1188 1.410 . S
C1187 C1195 1.503 . S
C1188 C1187 1.410 . S
C1188 C1189 1.392 . S
C1188 C1191 1.511 . S
C1189 C1185 1.376 . S
C1189 C1188 1.392 . S
C1189 H1201 0.929 . S
C1190 C1186 1.531 . S
C1190 H1202 0.960 . S
C1190 H1203 0.962 . S
C1190 H1204 0.960 . S
C1191 C1188 1.511 . S
C1191 H1205 0.961 . S
C1191 H1206 0.961 . S
C1191 H1207 0.961 . S
C1192 C1193 1.370 . S
C1192 C1194 1.363 . S
C1192 H1208 0.931 . S
C1193 C1192 1.370 . S
C1193 C1197 1.408 . S
C1194 C1192 1.363 . S
C1194 C1195 1.370 . S
C1194 C1198 1.524 . S
C1195 C1187 1.503 . S
C1195 C1194 1.370 . S
C1195 C1196 1.403 . S
C1196 C1195 1.403 . S
C1196 C1197 1.404 . S
C1196 C1199 1.539 . S
C1197 C1193 1.408 . S
C1197 C1196 1.404 . S
C1197 H1209 0.930 . S
C1198 C1194 1.524 . S
C1198 H1210 0.956 . S
C1198 H1211 0.961 . S
C1198 H1212 0.961 . S
C1199 C1196 1.539 . S
C1199 H1213 0.958 . S
C1199 H1214 0.961 . S
C1199 H1215 0.960 . S
H1200 C1184 0.931 . S
H1201 C1189 0.929 . S
H1202 C1190 0.960 . S
H1203 C1190 0.962 . S
H1204 C1190 0.960 . S
H1205 C1191 0.961 . S
H1206 C1191 0.961 . S
H1207 C1191 0.961 . S
H1208 C1192 0.931 . S
H1209 C1197 0.930 . S
H1210 C1198 0.956 . S
H1211 C1198 0.961 . S
H1212 C1198 0.961 . S
H1213 C1199 0.958 . S
H1214 C1199 0.961 . S
H1215 C1199 0.960 . S
C1216 C1217 1.391 . S
C1216 C1218 1.394 . S
C1216 H1232 0.931 . S
C1217 C1216 1.391 . S
C1217 C1221 1.376 . S
C1218 C1216 1.394 . S
C1218 C1219 1.369 . S
C1218 C1222 1.531 . S
C1219 C1218 1.369 . S
C1219 C1220 1.410 . S
C1219 C1227 1.503 1_545 S
C1220 C1219 1.410 . S
C1220 C1221 1.392 . S
C1220 C1223 1.511 . S
C1221 C1217 1.376 . S
C1221 C1220 1.392 . S
C1221 H1233 0.929 . S
C1222 C1218 1.531 . S
C1222 H1234 0.960 . S
C1222 H1235 0.962 . S
C1222 H1236 0.960 . S
C1223 C1220 1.511 . S
C1223 H1237 0.961 . S
C1223 H1238 0.961 1_545 S
C1223 H1239 0.961 . S
C1224 C1225 1.370 . S
C1224 C1226 1.363 . S
C1224 H1240 0.931 . S
C1225 C1224 1.370 . S
C1225 C1229 1.408 . S
C1226 C1224 1.363 . S
C1226 C1227 1.370 . S
C1226 C1230 1.524 . S
C1227 C1219 1.503 1_565 S
C1227 C1226 1.370 . S
C1227 C1228 1.403 . S
C1228 C1227 1.403 . S
C1228 C1229 1.404 . S
C1228 C1231 1.539 1_565 S
C1229 C1225 1.408 . S
C1229 C1228 1.404 . S
C1229 H1241 0.930 . S
C1230 C1226 1.524 . S
C1230 H1242 0.956 . S
C1230 H1243 0.961 . S
C1230 H1244 0.961 . S
C1231 C1228 1.539 1_545 S
C1231 H1245 0.958 . S
C1231 H1246 0.961 . S
C1231 H1247 0.960 . S
H1232 C1216 0.931 . S
H1233 C1221 0.929 . S
H1234 C1222 0.960 . S
H1235 C1222 0.962 . S
H1236 C1222 0.960 . S
H1237 C1223 0.961 . S
H1238 C1223 0.961 1_565 S
H1239 C1223 0.961 . S
H1240 C1224 0.931 . S
H1241 C1229 0.930 . S
H1242 C1230 0.956 . S
H1243 C1230 0.961 . S
H1244 C1230 0.961 . S
H1245 C1231 0.958 . S
H1246 C1231 0.961 . S
H1247 C1231 0.960 . S
C1248 C1249 1.391 . S
C1248 C1250 1.394 . S
C1248 H1264 0.931 . S
C1249 C1248 1.391 . S
C1249 C1253 1.376 . S
C1250 C1248 1.394 . S
C1250 C1251 1.369 . S
C1250 C1254 1.531 . S
C1251 C1250 1.369 . S
C1251 C1252 1.410 . S
C1251 C1259 1.503 . S
C1252 C1251 1.410 . S
C1252 C1253 1.392 . S
C1252 C1255 1.511 . S
C1253 C1249 1.376 . S
C1253 C1252 1.392 . S
C1253 H1265 0.929 . S
C1254 C1250 1.531 . S
C1254 H1266 0.960 . S
C1254 H1267 0.962 . S
C1254 H1268 0.960 . S
C1255 C1252 1.511 . S
C1255 H1269 0.961 . S
C1255 H1270 0.961 . S
C1255 H1271 0.961 . S
C1256 C1257 1.370 . S
C1256 C1258 1.363 . S
C1256 H1272 0.931 . S
C1257 C1256 1.370 . S
C1257 C1261 1.408 . S
C1258 C1256 1.363 . S
C1258 C1259 1.370 . S
C1258 C1262 1.524 . S
C1259 C1251 1.503 . S
C1259 C1258 1.370 . S
C1259 C1260 1.403 . S
C1260 C1259 1.403 . S
C1260 C1261 1.404 . S
C1260 C1263 1.539 . S
C1261 C1257 1.408 . S
C1261 C1260 1.404 . S
C1261 H1273 0.930 . S
C1262 C1258 1.524 . S
C1262 H1274 0.956 . S
C1262 H1275 0.961 . S
C1262 H1276 0.961 . S
C1263 C1260 1.539 . S
C1263 H1277 0.958 . S
C1263 H1278 0.961 . S
C1263 H1279 0.960 . S
H1264 C1248 0.931 . S
H1265 C1253 0.929 . S
H1266 C1254 0.960 . S
H1267 C1254 0.962 . S
H1268 C1254 0.960 . S
H1269 C1255 0.961 . S
H1270 C1255 0.961 . S
H1271 C1255 0.961 . S
H1272 C1256 0.931 . S
H1273 C1261 0.930 . S
H1274 C1262 0.956 . S
H1275 C1262 0.961 . S
H1276 C1262 0.961 . S
H1277 C1263 0.958 . S
H1278 C1263 0.961 . S
H1279 C1263 0.960 . S
C1280 C1281 1.391 . S
C1280 C1282 1.394 . S
C1280 H1296 0.931 . S
C1281 C1280 1.391 . S
C1281 C1285 1.376 . S
C1282 C1280 1.394 . S
C1282 C1283 1.369 . S
C1282 C1286 1.531 . S
C1283 C1282 1.369 . S
C1283 C1284 1.410 . S
C1283 C1291 1.503 . S
C1284 C1283 1.410 . S
C1284 C1285 1.392 . S
C1284 C1287 1.511 . S
C1285 C1281 1.376 . S
C1285 C1284 1.392 . S
C1285 H1297 0.929 1_655 S
C1286 C1282 1.531 . S
C1286 H1298 0.960 . S
C1286 H1299 0.962 . S
C1286 H1300 0.960 . S
C1287 C1284 1.511 . S
C1287 H1301 0.961 1_655 S
C1287 H1302 0.961 . S
C1287 H1303 0.961 1_655 S
C1288 C1289 1.370 . S
C1288 C1290 1.363 . S
C1288 H1304 0.931 . S
C1289 C1288 1.370 . S
C1289 C1293 1.408 . S
C1290 C1288 1.363 . S
C1290 C1291 1.370 . S
C1290 C1294 1.524 . S
C1291 C1283 1.503 . S
C1291 C1290 1.370 . S
C1291 C1292 1.403 . S
C1292 C1291 1.403 . S
C1292 C1293 1.404 . S
C1292 C1295 1.539 . S
C1293 C1289 1.408 . S
C1293 C1292 1.404 . S
C1293 H1305 0.930 . S
C1294 C1290 1.524 . S
C1294 H1306 0.956 . S
C1294 H1307 0.961 . S
C1294 H1308 0.961 . S
C1295 C1292 1.539 . S
C1295 H1309 0.958 . S
C1295 H1310 0.961 . S
C1295 H1311 0.960 . S
H1296 C1280 0.931 . S
H1297 C1285 0.929 1_455 S
H1298 C1286 0.960 . S
H1299 C1286 0.962 . S
H1300 C1286 0.960 . S
H1301 C1287 0.961 1_455 S
H1302 C1287 0.961 . S
H1303 C1287 0.961 1_455 S
H1304 C1288 0.931 . S
H1305 C1293 0.930 . S
H1306 C1294 0.956 . S
H1307 C1294 0.961 . S
H1308 C1294 0.961 . S
H1309 C1295 0.958 . S
H1310 C1295 0.961 . S
H1311 C1295 0.960 . S
C1312 C1313 1.391 . S
C1312 C1314 1.394 . S
C1312 H1328 0.931 . S
C1313 C1312 1.391 . S
C1313 C1317 1.376 . S
C1314 C1312 1.394 . S
C1314 C1315 1.369 . S
C1314 C1318 1.531 . S
C1315 C1314 1.369 . S
C1315 C1316 1.410 . S
C1315 C1323 1.503 . S
C1316 C1315 1.410 . S
C1316 C1317 1.392 . S
C1316 C1319 1.511 . S
C1317 C1313 1.376 . S
C1317 C1316 1.392 . S
C1317 H1329 0.929 . S
C1318 C1314 1.531 . S
C1318 H1330 0.960 . S
C1318 H1331 0.962 . S
C1318 H1332 0.960 . S
C1319 C1316 1.511 . S
C1319 H1333 0.961 . S
C1319 H1334 0.961 . S
C1319 H1335 0.961 . S
C1320 C1321 1.370 . S
C1320 C1322 1.363 . S
C1320 H1336 0.931 . S
C1321 C1320 1.370 . S
C1321 C1325 1.408 . S
C1322 C1320 1.363 . S
C1322 C1323 1.370 . S
C1322 C1326 1.524 . S
C1323 C1315 1.503 . S
C1323 C1322 1.370 . S
C1323 C1324 1.403 . S
C1324 C1323 1.403 . S
C1324 C1325 1.404 . S
C1324 C1327 1.539 . S
C1325 C1321 1.408 . S
C1325 C1324 1.404 . S
C1325 H1337 0.930 . S
C1326 C1322 1.524 . S
C1326 H1338 0.956 . S
C1326 H1339 0.961 . S
C1326 H1340 0.961 . S
C1327 C1324 1.539 . S
C1327 H1341 0.958 . S
C1327 H1342 0.961 . S
C1327 H1343 0.960 . S
H1328 C1312 0.931 . S
H1329 C1317 0.929 . S
H1330 C1318 0.960 . S
H1331 C1318 0.962 . S
H1332 C1318 0.960 . S
H1333 C1319 0.961 . S
H1334 C1319 0.961 . S
H1335 C1319 0.961 . S
H1336 C1320 0.931 . S
H1337 C1325 0.930 . S
H1338 C1326 0.956 . S
H1339 C1326 0.961 . S
H1340 C1326 0.961 . S
H1341 C1327 0.958 . S
H1342 C1327 0.961 . S
H1343 C1327 0.960 . S
C1344 C1345 1.391 . S
C1344 C1346 1.394 . S
C1344 H1360 0.931 . S
C1345 C1344 1.391 . S
C1345 C1349 1.376 . S
C1346 C1344 1.394 . S
C1346 C1347 1.369 . S
C1346 C1350 1.531 . S
C1347 C1346 1.369 . S
C1347 C1348 1.410 . S
C1347 C1355 1.503 . S
C1348 C1347 1.410 . S
C1348 C1349 1.392 . S
C1348 C1351 1.511 . S
C1349 C1345 1.376 . S
C1349 C1348 1.392 . S
C1349 H1361 0.929 . S
C1350 C1346 1.531 . S
C1350 H1362 0.960 . S
C1350 H1363 0.962 . S
C1350 H1364 0.960 . S
C1351 C1348 1.511 . S
C1351 H1365 0.961 . S
C1351 H1366 0.961 . S
C1351 H1367 0.961 . S
C1352 C1353 1.370 . S
C1352 C1354 1.363 . S
C1352 H1368 0.931 . S
C1353 C1352 1.370 . S
C1353 C1357 1.408 . S
C1354 C1352 1.363 . S
C1354 C1355 1.370 . S
C1354 C1358 1.524 . S
C1355 C1347 1.503 . S
C1355 C1354 1.370 . S
C1355 C1356 1.403 . S
C1356 C1355 1.403 . S
C1356 C1357 1.404 . S
C1356 C1359 1.539 . S
C1357 C1353 1.408 . S
C1357 C1356 1.404 . S
C1357 H1369 0.930 . S
C1358 C1354 1.524 . S
C1358 H1370 0.956 . S
C1358 H1371 0.961 . S
C1358 H1372 0.961 . S
C1359 C1356 1.539 . S
C1359 H1373 0.958 . S
C1359 H1374 0.961 . S
C1359 H1375 0.960 . S
H1360 C1344 0.931 . S
H1361 C1349 0.929 . S
H1362 C1350 0.960 . S
H1363 C1350 0.962 . S
H1364 C1350 0.960 . S
H1365 C1351 0.961 . S
H1366 C1351 0.961 . S
H1367 C1351 0.961 . S
H1368 C1352 0.931 . S
H1369 C1357 0.930 . S
H1370 C1358 0.956 . S
H1371 C1358 0.961 . S
H1372 C1358 0.961 . S
H1373 C1359 0.958 . S
H1374 C1359 0.961 . S
H1375 C1359 0.960 . S
C1376 C1377 1.391 . S
C1376 C1378 1.394 . S
C1376 H1392 0.931 . S
C1377 C1376 1.391 . S
C1377 C1381 1.376 . S
C1378 C1376 1.394 . S
C1378 C1379 1.369 . S
C1378 C1382 1.531 . S
C1379 C1378 1.369 . S
C1379 C1380 1.410 . S
C1379 C1387 1.503 . S
C1380 C1379 1.410 . S
C1380 C1381 1.392 . S
C1380 C1383 1.511 . S
C1381 C1377 1.376 . S
C1381 C1380 1.392 . S
C1381 H1393 0.929 . S
C1382 C1378 1.531 . S
C1382 H1394 0.960 . S
C1382 H1395 0.962 . S
C1382 H1396 0.960 . S
C1383 C1380 1.511 . S
C1383 H1397 0.961 . S
C1383 H1398 0.961 . S
C1383 H1399 0.961 . S
C1384 C1385 1.370 . S
C1384 C1386 1.363 . S
C1384 H1400 0.931 . S
C1385 C1384 1.370 . S
C1385 C1389 1.408 . S
C1386 C1384 1.363 . S
C1386 C1387 1.370 . S
C1386 C1390 1.524 . S
C1387 C1379 1.503 . S
C1387 C1386 1.370 . S
C1387 C1388 1.403 . S
C1388 C1387 1.403 . S
C1388 C1389 1.404 . S
C1388 C1391 1.539 . S
C1389 C1385 1.408 . S
C1389 C1388 1.404 . S
C1389 H1401 0.930 . S
C1390 C1386 1.524 . S
C1390 H1402 0.956 . S
C1390 H1403 0.961 . S
C1390 H1404 0.961 . S
C1391 C1388 1.539 . S
C1391 H1405 0.958 . S
C1391 H1406 0.961 . S
C1391 H1407 0.960 . S
H1392 C1376 0.931 . S
H1393 C1381 0.929 . S
H1394 C1382 0.960 . S
H1395 C1382 0.962 . S
H1396 C1382 0.960 . S
H1397 C1383 0.961 . S
H1398 C1383 0.961 . S
H1399 C1383 0.961 . S
H1400 C1384 0.931 . S
H1401 C1389 0.930 . S
H1402 C1390 0.956 . S
H1403 C1390 0.961 . S
H1404 C1390 0.961 . S
H1405 C1391 0.958 . S
H1406 C1391 0.961 . S
H1407 C1391 0.960 . S
C1408 C1409 1.391 . S
C1408 C1410 1.394 . S
C1408 H1424 0.931 . S
C1409 C1408 1.391 . S
C1409 C1413 1.376 . S
C1410 C1408 1.394 . S
C1410 C1411 1.369 . S
C1410 C1414 1.531 . S
C1411 C1410 1.369 . S
C1411 C1412 1.410 . S
C1411 C1419 1.503 . S
C1412 C1411 1.410 . S
C1412 C1413 1.392 . S
C1412 C1415 1.511 . S
C1413 C1409 1.376 . S
C1413 C1412 1.392 . S
C1413 H1425 0.929 . S
C1414 C1410 1.531 . S
C1414 H1426 0.960 . S
C1414 H1427 0.962 . S
C1414 H1428 0.960 . S
C1415 C1412 1.511 . S
C1415 H1429 0.961 . S
C1415 H1430 0.961 . S
C1415 H1431 0.961 . S
C1416 C1417 1.370 . S
C1416 C1418 1.363 . S
C1416 H1432 0.931 . S
C1417 C1416 1.370 . S
C1417 C1421 1.408 . S
C1418 C1416 1.363 . S
C1418 C1419 1.370 . S
C1418 C1422 1.524 . S
C1419 C1411 1.503 . S
C1419 C1418 1.370 . S
C1419 C1420 1.403 . S
C1420 C1419 1.403 . S
C1420 C1421 1.404 . S
C1420 C1423 1.539 . S
C1421 C1417 1.408 . S
C1421 C1420 1.404 . S
C1421 H1433 0.930 . S
C1422 C1418 1.524 . S
C1422 H1434 0.956 . S
C1422 H1435 0.961 . S
C1422 H1436 0.961 . S
C1423 C1420 1.539 . S
C1423 H1437 0.958 . S
C1423 H1438 0.961 . S
C1423 H1439 0.960 . S
H1424 C1408 0.931 . S
H1425 C1413 0.929 . S
H1426 C1414 0.960 . S
H1427 C1414 0.962 . S
H1428 C1414 0.960 . S
H1429 C1415 0.961 . S
H1430 C1415 0.961 . S
H1431 C1415 0.961 . S
H1432 C1416 0.931 . S
H1433 C1421 0.930 . S
H1434 C1422 0.956 . S
H1435 C1422 0.961 . S
H1436 C1422 0.961 . S
H1437 C1423 0.958 . S
H1438 C1423 0.961 . S
H1439 C1423 0.960 . S
C1440 C1441 1.391 . S
C1440 C1442 1.394 . S
C1440 H1456 0.931 . S
C1441 C1440 1.391 . S
C1441 C1445 1.376 . S
C1442 C1440 1.394 . S
C1442 C1443 1.369 . S
C1442 C1446 1.531 . S
C1443 C1442 1.369 . S
C1443 C1444 1.410 . S
C1443 C1451 1.503 1_455 S
C1444 C1443 1.410 . S
C1444 C1445 1.392 . S
C1444 C1447 1.511 . S
C1445 C1441 1.376 . S
C1445 C1444 1.392 . S
C1445 H1457 0.929 . S
C1446 C1442 1.531 . S
C1446 H1458 0.960 . S
C1446 H1459 0.962 . S
C1446 H1460 0.960 . S
C1447 C1444 1.511 . S
C1447 H1461 0.961 . S
C1447 H1462 0.961 1_455 S
C1447 H1463 0.961 . S
C1448 C1449 1.370 . S
C1448 C1450 1.363 . S
C1448 H1464 0.931 . S
C1449 C1448 1.370 . S
C1449 C1453 1.408 . S
C1450 C1448 1.363 . S
C1450 C1451 1.370 . S
C1450 C1454 1.524 . S
C1451 C1443 1.503 1_655 S
C1451 C1450 1.370 . S
C1451 C1452 1.403 . S
C1452 C1451 1.403 . S
C1452 C1453 1.404 . S
C1452 C1455 1.539 1_654 S
C1453 C1449 1.408 . S
C1453 C1452 1.404 . S
C1453 H1465 0.930 . S
C1454 C1450 1.524 . S
C1454 H1466 0.956 . S
C1454 H1467 0.961 . S
C1454 H1468 0.961 . S
C1455 C1452 1.539 1_456 S
C1455 H1469 0.958 1_556 S
C1455 H1470 0.961 1_455 S
C1455 H1471 0.960 . S
H1456 C1440 0.931 . S
H1457 C1445 0.929 . S
H1458 C1446 0.960 . S
H1459 C1446 0.962 . S
H1460 C1446 0.960 . S
H1461 C1447 0.961 . S
H1462 C1447 0.961 1_655 S
H1463 C1447 0.961 . S
H1464 C1448 0.931 . S
H1465 C1453 0.930 . S
H1466 C1454 0.956 . S
H1467 C1454 0.961 . S
H1468 C1454 0.961 . S
H1469 C1455 0.958 1_554 S
H1470 C1455 0.961 1_655 S
H1471 C1455 0.960 . S
C1472 C1473 1.391 . S
C1472 C1474 1.394 . S
C1472 H1488 0.931 . S
C1473 C1472 1.391 . S
C1473 C1477 1.376 . S
C1474 C1472 1.394 . S
C1474 C1475 1.369 . S
C1474 C1478 1.531 . S
C1475 C1474 1.369 . S
C1475 C1476 1.410 . S
C1475 C1483 1.503 . S
C1476 C1475 1.410 . S
C1476 C1477 1.392 . S
C1476 C1479 1.511 . S
C1477 C1473 1.376 . S
C1477 C1476 1.392 . S
C1477 H1489 0.929 . S
C1478 C1474 1.531 . S
C1478 H1490 0.960 . S
C1478 H1491 0.962 . S
C1478 H1492 0.960 . S
C1479 C1476 1.511 . S
C1479 H1493 0.961 . S
C1479 H1494 0.961 . S
C1479 H1495 0.961 . S
C1480 C1481 1.370 . S
C1480 C1482 1.363 . S
C1480 H1496 0.931 . S
C1481 C1480 1.370 . S
C1481 C1485 1.408 . S
C1482 C1480 1.363 . S
C1482 C1483 1.370 . S
C1482 C1486 1.524 . S
C1483 C1475 1.503 . S
C1483 C1482 1.370 . S
C1483 C1484 1.403 . S
C1484 C1483 1.403 . S
C1484 C1485 1.404 . S
C1484 C1487 1.539 . S
C1485 C1481 1.408 . S
C1485 C1484 1.404 . S
C1485 H1497 0.930 . S
C1486 C1482 1.524 . S
C1486 H1498 0.956 . S
C1486 H1499 0.961 . S
C1486 H1500 0.961 . S
C1487 C1484 1.539 . S
C1487 H1501 0.958 . S
C1487 H1502 0.961 . S
C1487 H1503 0.960 . S
H1488 C1472 0.931 . S
H1489 C1477 0.929 . S
H1490 C1478 0.960 . S
H1491 C1478 0.962 . S
H1492 C1478 0.960 . S
H1493 C1479 0.961 . S
H1494 C1479 0.961 . S
H1495 C1479 0.961 . S
H1496 C1480 0.931 . S
H1497 C1485 0.930 . S
H1498 C1486 0.956 . S
H1499 C1486 0.961 . S
H1500 C1486 0.961 . S
H1501 C1487 0.958 . S
H1502 C1487 0.961 . S
H1503 C1487 0.960 . S
C1504 C1505 1.391 . S
C1504 C1506 1.394 . S
C1504 H1520 0.931 . S
C1505 C1504 1.391 . S
C1505 C1509 1.376 . S
C1506 C1504 1.394 . S
C1506 C1507 1.369 . S
C1506 C1510 1.531 . S
C1507 C1506 1.369 . S
C1507 C1508 1.410 . S
C1507 C1515 1.503 . S
C1508 C1507 1.410 . S
C1508 C1509 1.392 . S
C1508 C1511 1.511 . S
C1509 C1505 1.376 . S
C1509 C1508 1.392 . S
C1509 H1521 0.929 . S
C1510 C1506 1.531 . S
C1510 H1522 0.960 . S
C1510 H1523 0.962 . S
C1510 H1524 0.960 . S
C1511 C1508 1.511 . S
C1511 H1525 0.961 . S
C1511 H1526 0.961 . S
C1511 H1527 0.961 . S
C1512 C1513 1.370 . S
C1512 C1514 1.363 . S
C1512 H1528 0.931 . S
C1513 C1512 1.370 . S
C1513 C1517 1.408 . S
C1514 C1512 1.363 . S
C1514 C1515 1.370 . S
C1514 C1518 1.524 . S
C1515 C1507 1.503 . S
C1515 C1514 1.370 . S
C1515 C1516 1.403 . S
C1516 C1515 1.403 . S
C1516 C1517 1.404 . S
C1516 C1519 1.539 . S
C1517 C1513 1.408 . S
C1517 C1516 1.404 . S
C1517 H1529 0.930 . S
C1518 C1514 1.524 . S
C1518 H1530 0.956 . S
C1518 H1531 0.961 . S
C1518 H1532 0.961 . S
C1519 C1516 1.539 . S
C1519 H1533 0.958 . S
C1519 H1534 0.961 . S
C1519 H1535 0.960 . S
H1520 C1504 0.931 . S
H1521 C1509 0.929 . S
H1522 C1510 0.960 . S
H1523 C1510 0.962 . S
H1524 C1510 0.960 . S
H1525 C1511 0.961 . S
H1526 C1511 0.961 . S
H1527 C1511 0.961 . S
H1528 C1512 0.931 . S
H1529 C1517 0.930 . S
H1530 C1518 0.956 . S
H1531 C1518 0.961 . S
H1532 C1518 0.961 . S
H1533 C1519 0.958 . S
H1534 C1519 0.961 . S
H1535 C1519 0.960 . S
C1536 C1537 1.391 . S
C1536 C1538 1.394 . S
C1536 H1552 0.931 . S
C1537 C1536 1.391 . S
C1537 C1541 1.376 . S
C1538 C1536 1.394 . S
C1538 C1539 1.369 . S
C1538 C1542 1.531 . S
C1539 C1538 1.369 . S
C1539 C1540 1.410 . S
C1539 C1547 1.503 . S
C1540 C1539 1.410 . S
C1540 C1541 1.392 . S
C1540 C1543 1.511 . S
C1541 C1537 1.376 . S
C1541 C1540 1.392 . S
C1541 H1553 0.929 . S
C1542 C1538 1.531 . S
C1542 H1554 0.960 . S
C1542 H1555 0.962 . S
C1542 H1556 0.960 . S
C1543 C1540 1.511 . S
C1543 H1557 0.961 . S
C1543 H1558 0.961 . S
C1543 H1559 0.961 . S
C1544 C1545 1.370 . S
C1544 C1546 1.363 . S
C1544 H1560 0.931 . S
C1545 C1544 1.370 . S
C1545 C1549 1.408 . S
C1546 C1544 1.363 . S
C1546 C1547 1.370 . S
C1546 C1550 1.524 . S
C1547 C1539 1.503 . S
C1547 C1546 1.370 . S
C1547 C1548 1.403 . S
C1548 C1547 1.403 . S
C1548 C1549 1.404 . S
C1548 C1551 1.539 . S
C1549 C1545 1.408 . S
C1549 C1548 1.404 . S
C1549 H1561 0.930 . S
C1550 C1546 1.524 . S
C1550 H1562 0.956 . S
C1550 H1563 0.961 . S
C1550 H1564 0.961 . S
C1551 C1548 1.539 . S
C1551 H1565 0.958 . S
C1551 H1566 0.961 . S
C1551 H1567 0.960 . S
H1552 C1536 0.931 . S
H1553 C1541 0.929 . S
H1554 C1542 0.960 . S
H1555 C1542 0.962 . S
H1556 C1542 0.960 . S
H1557 C1543 0.961 . S
H1558 C1543 0.961 . S
H1559 C1543 0.961 . S
H1560 C1544 0.931 . S
H1561 C1549 0.930 . S
H1562 C1550 0.956 . S
H1563 C1550 0.961 . S
H1564 C1550 0.961 . S
H1565 C1551 0.958 . S
H1566 C1551 0.961 . S
H1567 C1551 0.960 . S
C1568 C1569 1.391 . S
C1568 C1570 1.394 . S
C1568 H1584 0.931 . S
C1569 C1568 1.391 . S
C1569 C1573 1.376 . S
C1570 C1568 1.394 . S
C1570 C1571 1.369 . S
C1570 C1574 1.531 . S
C1571 C1570 1.369 . S
C1571 C1572 1.410 . S
C1571 C1579 1.503 . S
C1572 C1571 1.410 . S
C1572 C1573 1.392 . S
C1572 C1575 1.511 . S
C1573 C1569 1.376 . S
C1573 C1572 1.392 . S
C1573 H1585 0.929 . S
C1574 C1570 1.531 . S
C1574 H1586 0.960 . S
C1574 H1587 0.962 . S
C1574 H1588 0.960 . S
C1575 C1572 1.511 . S
C1575 H1589 0.961 . S
C1575 H1590 0.961 . S
C1575 H1591 0.961 . S
C1576 C1577 1.370 . S
C1576 C1578 1.363 . S
C1576 H1592 0.931 . S
C1577 C1576 1.370 . S
C1577 C1581 1.408 . S
C1578 C1576 1.363 . S
C1578 C1579 1.370 . S
C1578 C1582 1.524 . S
C1579 C1571 1.503 . S
C1579 C1578 1.370 . S
C1579 C1580 1.403 . S
C1580 C1579 1.403 . S
C1580 C1581 1.404 . S
C1580 C1583 1.539 . S
C1581 C1577 1.408 . S
C1581 C1580 1.404 . S
C1581 H1593 0.930 . S
C1582 C1578 1.524 . S
C1582 H1594 0.956 . S
C1582 H1595 0.961 . S
C1582 H1596 0.961 . S
C1583 C1580 1.539 . S
C1583 H1597 0.958 . S
C1583 H1598 0.961 . S
C1583 H1599 0.960 . S
H1584 C1568 0.931 . S
H1585 C1573 0.929 . S
H1586 C1574 0.960 . S
H1587 C1574 0.962 . S
H1588 C1574 0.960 . S
H1589 C1575 0.961 . S
H1590 C1575 0.961 . S
H1591 C1575 0.961 . S
H1592 C1576 0.931 . S
H1593 C1581 0.930 . S
H1594 C1582 0.956 . S
H1595 C1582 0.961 . S
H1596 C1582 0.961 . S
H1597 C1583 0.958 . S
H1598 C1583 0.961 . S
H1599 C1583 0.960 . S
C1600 C1601 1.391 . S
C1600 C1602 1.394 . S
C1600 H1616 0.931 . S
C1601 C1600 1.391 . S
C1601 C1605 1.376 . S
C1602 C1600 1.394 . S
C1602 C1603 1.369 . S
C1602 C1606 1.531 . S
C1603 C1602 1.369 . S
C1603 C1604 1.410 . S
C1603 C1611 1.503 . S
C1604 C1603 1.410 . S
C1604 C1605 1.392 . S
C1604 C1607 1.511 . S
C1605 C1601 1.376 . S
C1605 C1604 1.392 . S
C1605 H1617 0.929 . S
C1606 C1602 1.531 . S
C1606 H1618 0.960 . S
C1606 H1619 0.962 . S
C1606 H1620 0.960 . S
C1607 C1604 1.511 . S
C1607 H1621 0.961 . S
C1607 H1622 0.961 . S
C1607 H1623 0.961 . S
C1608 C1609 1.370 . S
C1608 C1610 1.363 . S
C1608 H1624 0.931 . S
C1609 C1608 1.370 . S
C1609 C1613 1.408 . S
C1610 C1608 1.363 . S
C1610 C1611 1.370 1_455 S
C1610 C1614 1.524 1_455 S
C1611 C1603 1.503 . S
C1611 C1610 1.370 1_655 S
C1611 C1612 1.403 1_655 S
C1612 C1611 1.403 1_455 S
C1612 C1613 1.404 . S
C1612 C1615 1.539 . S
C1613 C1609 1.408 . S
C1613 C1612 1.404 . S
C1613 H1625 0.930 . S
C1614 C1610 1.524 1_655 S
C1614 H1626 0.956 . S
C1614 H1627 0.961 . S
C1614 H1628 0.961 . S
C1615 C1612 1.539 . S
C1615 H1629 0.958 1_455 S
C1615 H1630 0.961 . S
C1615 H1631 0.960 1_455 S
H1616 C1600 0.931 . S
H1617 C1605 0.929 . S
H1618 C1606 0.960 . S
H1619 C1606 0.962 . S
H1620 C1606 0.960 . S
H1621 C1607 0.961 . S
H1622 C1607 0.961 . S
H1623 C1607 0.961 . S
H1624 C1608 0.931 . S
H1625 C1613 0.930 . S
H1626 C1614 0.956 . S
H1627 C1614 0.961 . S
H1628 C1614 0.961 . S
H1629 C1615 0.958 1_655 S
H1630 C1615 0.961 . S
H1631 C1615 0.960 1_655 S
C481 C18 1.067 . S
C489 C458 1.049 . S
C513 C379 1.669 . S
C521 C58 1.750 . S
C545 C99 1.248 . S
C553 C338 1.328 . S
C577 C138 2.039 . S
C585 C418 2.032 . S
C609 C178 1.648 . S
C617 C419 1.594 . S
C641 C219 1.431 . S
C649 C459 1.467 . S
C673 C378 1.805 . S
C681 C258 1.810 . S
C705 C299 1.678 . S
C713 C339 1.728 . S
C737 C139 1.748 . S
C745 C179 1.768 . S
C769 C19 1.552 . S
C777 C218 1.635 . S
C801 C59 1.554 . S
C809 C259 1.586 . S
C833 C298 1.887 . S
C841 C98 1.893 . S
C865 C6 1.571 . S
C873 C329 1.489 . S
C897 C46 1.812 . S
C905 C409 1.706 . S
C929 C449 1.938 . S
C937 C95 1.941 . S
C961 C126 1.553 . S
C969 C370 1.503 . S
C993 C166 1.229 . S
C1001 C369 1.158 . S
C1025 C330 1.929 . S
C1033 C215 1.854 . S
C1057 C410 1.350 . S
C1065 C246 1.359 . S
C1089 C450 2.633 . S
C1097 C295 2.554 . S
C1121 C10 2.716 . S
C1129 C135 2.641 . S
C1153 C15 1.940 . S
C1161 C50 2.047 . S
C1185 C55 2.234 . S
C1193 C89 2.241 . S
C1217 C130 1.674 . S
C1225 C86 1.713 . S
C1249 C206 1.455 . S
C1257 C170 1.431 . S
C1281 C209 1.329 . S
C1289 C255 1.310 . S
C1313 C250 1.478 . S
C1321 C286 1.481 . S
C1345 C175 0.797 . S
C1353 C289 0.866 . S
C1377 C335 0.836 . S
C1385 C129 0.776 . S
C1409 C210 1.653 . S
C1417 C375 1.596 . S
C1441 C326 1.372 . S
C1449 C249 1.292 . S
C1473 C406 1.804 . S
C1481 C290 1.790 . S
C1505 C169 1.288 . S
C1513 C446 1.320 . S
C1537 C455 1.672 . S
C1545 C49 1.616 . S
C1569 C90 1.516 . S
C1577 C366 1.522 . S
C1601 C415 1.716 . S
C1609 C9 1.733 . S
