# Generated by pormake.
# Topology umx, (4)-cn, num edge types: 1
# Building blocks:
#     Node 0, Type 0, BuildingBlock: CEKHIL_clean_sbu_0, # of connection points: 4
#     Node 1, Type 0, BuildingBlock: CEKHIL_clean_sbu_0, # of connection points: 4
#     Node 2, Type 0, BuildingBlock: CEKHIL_clean_sbu_0, # of connection points: 4
#     Node 3, Type 0, BuildingBlock: CEKHIL_clean_sbu_0, # of connection points: 4
#     Node 4, Type 0, BuildingBlock: CEKHIL_clean_sbu_0, # of connection points: 4
#     Node 5, Type 0, BuildingBlock: CEKHIL_clean_sbu_0, # of connection points: 4
#     Node 6, Type 0, BuildingBlock: CEKHIL_clean_sbu_0, # of connection points: 4
#     Node 7, Type 0, BuildingBlock: CEKHIL_clean_sbu_0, # of connection points: 4
#     Edge 8, Type (0, 0), BuildingBlock: FUNLAD_clean_linker_1, # of connection points: 2
#     Edge 9, Type (0, 0), BuildingBlock: FUNLAD_clean_linker_1, # of connection points: 2
#     Edge 10, Type (0, 0), BuildingBlock: FUNLAD_clean_linker_1, # of connection points: 2
#     Edge 11, Type (0, 0), BuildingBlock: FUNLAD_clean_linker_1, # of connection points: 2
#     Edge 12, Type (0, 0), BuildingBlock: FUNLAD_clean_linker_1, # of connection points: 2
#     Edge 13, Type (0, 0), BuildingBlock: FUNLAD_clean_linker_1, # of connection points: 2
#     Edge 14, Type (0, 0), BuildingBlock: FUNLAD_clean_linker_1, # of connection points: 2
#     Edge 15, Type (0, 0), BuildingBlock: FUNLAD_clean_linker_1, # of connection points: 2
#     Edge 16, Type (0, 0), BuildingBlock: FUNLAD_clean_linker_1, # of connection points: 2
#     Edge 17, Type (0, 0), BuildingBlock: FUNLAD_clean_linker_1, # of connection points: 2
#     Edge 18, Type (0, 0), BuildingBlock: FUNLAD_clean_linker_1, # of connection points: 2
#     Edge 19, Type (0, 0), BuildingBlock: FUNLAD_clean_linker_1, # of connection points: 2
#     Edge 20, Type (0, 0), BuildingBlock: FUNLAD_clean_linker_1, # of connection points: 2
#     Edge 21, Type (0, 0), BuildingBlock: FUNLAD_clean_linker_1, # of connection points: 2
#     Edge 22, Type (0, 0), BuildingBlock: FUNLAD_clean_linker_1, # of connection points: 2
#     Edge 23, Type (0, 0), BuildingBlock: FUNLAD_clean_linker_1, # of connection points: 2
# Relax obj value: 0.076
# Max RMSD: 0.187
# Mean RMSD: 0.187
data_MOF--net-umx--node1-CEKHIL_clean_sbu_0--edge1-FUNLAD_clean_linker_1
_symmetry_space_group_name_H-M    P1
_symmetry_Int_Tables_number       1
_symmetry_cell_setting            triclinic
loop_
_symmetry_equiv_pos_as_xyz
'x, y, z'
_cell_length_a     40.312629
_cell_length_b     40.552221
_cell_length_c     28.927409
_cell_angle_alpha  89.934971
_cell_angle_beta   89.977708
_cell_angle_gamma 89.604814
loop_
_atom_site_label
_atom_site_type_symbol
_atom_site_fract_x
_atom_site_fract_y
_atom_site_fract_z
_atom_type_partial_charge
Co0 Co 0.18514 0.43759 0.01291 0.0
O1 O 0.22147 0.40669 0.01294 0.0
O2 O 0.1702 0.39394 0.03243 0.0
C3 C 0.19638 0.45858 0.94255 0.0
O4 O 0.14135 0.46396 0.01431 0.0
Co5 Co 0.20219 0.51198 0.01122 0.0
O6 O 0.15402 0.51695 -0.0013 0.0
C7 C 0.20919 0.47519 0.09808 0.0
C8 C 0.20069 0.38425 0.02549 0.0
C9 C 0.13294 0.49415 0.00533 0.0
O10 O 0.19501 0.45033 0.07907 0.0
O11 O 0.21721 0.50128 0.07586 0.0
O12 O 0.17952 0.4316 0.94668 0.0
O13 O 0.20869 0.47011 0.98042 0.0
Co14 Co 0.57792 0.19678 0.50699 0.0
O15 O 0.59594 0.24044 0.50496 0.0
O16 O 0.6231 0.1967 0.53131 0.0
C17 C 0.55875 0.19639 0.43354 0.0
O18 O 0.56674 0.14757 0.51213 0.0
Co19 Co 0.50267 0.18955 0.50079 0.0
O20 O 0.51308 0.14224 0.49225 0.0
C21 C 0.53093 0.20828 0.59004 0.0
C22 C 0.62296 0.22815 0.52202 0.0
C23 C 0.54123 0.12977 0.50249 0.0
O24 O 0.55974 0.20559 0.57126 0.0
O25 O 0.504 0.20451 0.56728 0.0
O26 O 0.58942 0.18962 0.4429 0.0
O27 O 0.54102 0.20711 0.46808 0.0
Co28 Co 0.81468 0.565 0.01057 0.0
O29 O 0.77207 0.58604 0.01602 0.0
O30 O 0.81959 0.61093 0.03027 0.0
C31 C 0.80559 0.54232 0.94094 0.0
O32 O 0.86335 0.54928 0.00684 0.0
Co33 Co 0.81505 0.48775 0.00668 0.0
O34 O 0.86151 0.4954 0.98686 0.0
C35 C 0.80355 0.52163 0.09514 0.0
C36 C 0.78733 0.61268 0.02759 0.0
C37 C 0.87743 0.52195 0.99405 0.0
O38 O 0.81162 0.54929 0.07661 0.0
O39 O 0.80029 0.4948 0.07231 0.0
O40 O 0.81479 0.57284 0.94399 0.0
O41 O 0.79866 0.52806 0.97956 0.0
Co42 Co 0.43302 0.81691 0.50661 0.0
O43 O 0.40776 0.77682 0.50385 0.0
O44 O 0.38722 0.82534 0.52447 0.0
C45 C 0.45787 0.81065 0.43763 0.0
O46 O 0.45149 0.86384 0.5109 0.0
Co47 Co 0.51017 0.81394 0.50742 0.0
O48 O 0.5064 0.86206 0.49646 0.0
C49 C 0.47324 0.80013 0.59323 0.0
C50 C 0.38216 0.79423 0.51618 0.0
C51 C 0.47953 0.87807 0.50338 0.0
O52 O 0.44577 0.80759 0.57297 0.0
O53 O 0.50126 0.79899 0.57237 0.0
O54 O 0.428 0.8227 0.44017 0.0
O55 O 0.47039 0.79988 0.47589 0.0
Co56 Co 0.19886 0.5513 0.52694 0.0
O57 O 0.24004 0.57419 0.53195 0.0
O58 O 0.19499 0.59542 0.49965 0.0
C59 C 0.19731 0.534 0.60074 0.0
O60 O 0.15173 0.53346 0.51837 0.0
Co61 Co 0.20271 0.47542 0.53998 0.0
O62 O 0.15365 0.47971 0.53907 0.0
C63 C 0.22547 0.50406 0.45296 0.0
C64 C 0.22586 0.59905 0.51208 0.0
C65 C 0.13766 0.50553 0.52694 0.0
O66 O 0.21324 0.53206 0.46553 0.0
O67 O 0.22723 0.47899 0.47969 0.0
O68 O 0.18682 0.56325 0.58987 0.0
O69 O 0.21187 0.51767 0.56805 0.0
Co70 Co 0.43728 0.19005 0.03122 0.0
O71 O 0.4142 0.23116 0.03892 0.0
O72 O 0.39126 0.18669 0.00925 0.0
C73 C 0.45842 0.18843 0.10378 0.0
O74 O 0.45517 0.14289 0.02045 0.0
Co75 Co 0.513 0.19377 0.03341 0.0
O76 O 0.51064 0.14527 0.03057 0.0
C77 C 0.47971 0.21012 0.94659 0.0
C78 C 0.38814 0.21739 0.02208 0.0
C79 C 0.48422 0.12919 0.02296 0.0
O80 O 0.4521 0.2038 0.96695 0.0
O81 O 0.50762 0.20928 0.96763 0.0
O82 O 0.42878 0.17824 0.09492 0.0
O83 O 0.47336 0.20315 0.06974 0.0
Co84 Co 0.8254 0.44996 0.52679 0.0
O85 O 0.78813 0.42084 0.52967 0.0
O86 O 0.83797 0.40621 0.50481 0.0
C87 C 0.8188 0.47082 0.59806 0.0
O88 O 0.8698 0.47401 0.52111 0.0
Co89 Co 0.81172 0.52566 0.53235 0.0
O90 O 0.86081 0.52787 0.53688 0.0
C91 C 0.79531 0.48935 0.44796 0.0
C92 C 0.80756 0.39782 0.51416 0.0
C93 C 0.88018 0.50367 0.52824 0.0
O94 O 0.81205 0.46431 0.46262 0.0
O95 O 0.7888 0.51471 0.47267 0.0
O96 O 0.83414 0.44286 0.59235 0.0
O97 O 0.80532 0.48335 0.56159 0.0
Co98 Co 0.56745 0.82102 0.03046 0.0
O99 O 0.59641 0.78311 0.03102 0.0
O100 O 0.61216 0.8332 0.01114 0.0
C101 C 0.54497 0.81189 0.10038 0.0
O102 O 0.54349 0.86614 0.02836 0.0
Co103 Co 0.49107 0.80932 0.03234 0.0
O104 O 0.4903 0.85672 0.04873 0.0
C105 C 0.5277 0.80092 0.94494 0.0
C106 C 0.62014 0.8024 0.01812 0.0
C107 C 0.51414 0.87626 0.04014 0.0
O108 O 0.55433 0.81137 0.96442 0.0
O109 O 0.50046 0.79625 0.96671 0.0
O110 O 0.57345 0.82642 0.09686 0.0
O111 O 0.53293 0.80033 0.06241 0.0
H112 H 0.1954 0.4603 0.16861 0.0
C113 C 0.21292 0.47492 0.14887 0.0
H114 H 0.25315 0.50753 0.1509 0.0
H115 H 0.228 0.57173 0.34487 0.0
H116 H 0.23235 0.61877 0.29369 0.0
H117 H 0.23666 0.61121 0.20934 0.0
H118 H 0.23738 0.55673 0.17578 0.0
C119 C 0.23561 0.49328 0.17109 0.0
C120 C 0.23502 0.49762 0.22257 0.0
C121 C 0.23365 0.52992 0.24155 0.0
C122 C 0.22981 0.53438 0.29012 0.0
C123 C 0.22983 0.56687 0.30819 0.0
C124 C 0.23245 0.59416 0.27922 0.0
C125 C 0.23497 0.58989 0.23177 0.0
C126 C 0.23549 0.55829 0.21296 0.0
H127 H 0.25667 0.48328 0.39707 0.0
C128 C 0.23589 0.49965 0.40445 0.0
H129 H 0.19668 0.52818 0.37746 0.0
H130 H 0.24735 0.43293 0.20074 0.0
H131 H 0.23932 0.38565 0.25086 0.0
H132 H 0.22163 0.3931 0.33186 0.0
H133 H 0.21359 0.44766 0.36371 0.0
C134 C 0.2178 0.51234 0.36955 0.0
C135 C 0.22573 0.50671 0.31962 0.0
C136 C 0.22731 0.47438 0.30066 0.0
C137 C 0.23404 0.46994 0.2527 0.0
C138 C 0.23957 0.43756 0.23593 0.0
C139 C 0.23541 0.41023 0.26446 0.0
C140 C 0.22569 0.41444 0.31012 0.0
C141 C 0.22158 0.44604 0.32816 0.0
H142 H 0.55322 0.21847 0.65836 0.0
C143 C 0.52978 0.21442 0.64074 0.0
H144 H 0.47838 0.20718 0.64945 0.0
H145 H 0.48925 0.1557 0.8553 0.0
H146 H 0.47504 0.10571 0.81435 0.0
H147 H 0.47311 0.10465 0.72915 0.0
H148 H 0.4855 0.15356 0.68436 0.0
C149 C 0.50178 0.21286 0.66616 0.0
C150 C 0.50245 0.21417 0.71806 0.0
C151 C 0.49448 0.18554 0.74403 0.0
C152 C 0.49534 0.18622 0.79335 0.0
C153 C 0.48837 0.15686 0.81798 0.0
C154 C 0.48032 0.12788 0.79488 0.0
C155 C 0.47924 0.12728 0.74692 0.0
C156 C 0.48632 0.15562 0.72163 0.0
H157 H 0.45442 0.21636 0.87926 0.0
C158 C 0.47865 0.21565 0.89574 0.0
H159 H 0.53048 0.21532 0.8843 0.0
H160 H 0.51639 0.27426 0.67987 0.0
H161 H 0.53109 0.32415 0.72098 0.0
H162 H 0.53366 0.32494 0.80616 0.0
H163 H 0.52127 0.27584 0.85089 0.0
C164 C 0.50596 0.21606 0.86878 0.0
C165 C 0.50377 0.21569 0.817 0.0
C166 C 0.51165 0.24431 0.7911 0.0
C167 C 0.5107 0.24368 0.74174 0.0
C168 C 0.51756 0.27306 0.71718 0.0
C169 C 0.52584 0.30195 0.74038 0.0
C170 C 0.52725 0.3024 0.78836 0.0
C171 C 0.52016 0.27404 0.8136 0.0
H172 H 0.76082 0.50099 0.39101 0.0
C173 C 0.78488 0.49029 0.39935 0.0
H174 H 0.83051 0.47237 0.37419 0.0
H175 H 0.79759 0.43512 0.17163 0.0
H176 H 0.81315 0.38247 0.20457 0.0
H177 H 0.82058 0.37602 0.28871 0.0
H178 H 0.81315 0.42248 0.34026 0.0
C179 C 0.8062 0.48235 0.36543 0.0
C180 C 0.79776 0.48604 0.31549 0.0
C181 C 0.80078 0.45829 0.28594 0.0
C182 C 0.79528 0.46176 0.23759 0.0
C183 C 0.80045 0.43394 0.20872 0.0
C184 C 0.80952 0.40345 0.22717 0.0
C185 C 0.81378 0.39983 0.27451 0.0
C186 C 0.80954 0.4268 0.3037 0.0
H187 H 0.81484 0.53829 0.16562 0.0
C188 C 0.80092 0.5203 0.14584 0.0
H189 H 0.7692 0.47933 0.14782 0.0
H190 H 0.79548 0.54634 0.35966 0.0
H191 H 0.77339 0.59729 0.32845 0.0
H192 H 0.75324 0.60021 0.24801 0.0
H193 H 0.75677 0.55241 0.19779 0.0
C194 C 0.78324 0.49706 0.16786 0.0
C195 C 0.78532 0.49273 0.21906 0.0
C196 C 0.77961 0.51977 0.24923 0.0
C197 C 0.7879 0.51707 0.29687 0.0
C198 C 0.78674 0.54596 0.32438 0.0
C199 C 0.77451 0.57561 0.3067 0.0
C200 C 0.7634 0.57732 0.26135 0.0
C201 C 0.76589 0.54981 0.23278 0.0
H202 H 0.5517 0.79932 0.87621 0.0
C203 C 0.52835 0.79591 0.89435 0.0
H204 H 0.4768 0.78781 0.88718 0.0
H205 H 0.48193 0.85238 0.68608 0.0
H206 H 0.46437 0.89993 0.73049 0.0
H207 H 0.46271 0.89788 0.81569 0.0
H208 H 0.47902 0.84826 0.85693 0.0
C209 C 0.50065 0.78988 0.86997 0.0
C210 C 0.50083 0.79037 0.81861 0.0
C211 C 0.49008 0.81914 0.79496 0.0
C212 C 0.4902 0.82 0.74581 0.0
C213 C 0.48116 0.84978 0.72325 0.0
C214 C 0.47127 0.87744 0.74837 0.0
C215 C 0.47039 0.87631 0.79632 0.0
C216 C 0.47976 0.84763 0.81954 0.0
H217 H 0.44872 0.79587 0.66136 0.0
C218 C 0.47256 0.79499 0.64381 0.0
H219 H 0.5246 0.79106 0.65203 0.0
H220 H 0.52265 0.73141 0.85348 0.0
H221 H 0.54053 0.68364 0.80922 0.0
H222 H 0.53993 0.68468 0.72394 0.0
H223 H 0.52144 0.73347 0.68235 0.0
C224 C 0.50056 0.79237 0.66894 0.0
C225 C 0.50006 0.79162 0.7204 0.0
C226 C 0.51102 0.76294 0.74414 0.0
C227 C 0.51139 0.76231 0.79332 0.0
C228 C 0.52211 0.73325 0.81617 0.0
C229 C 0.53236 0.70564 0.79119 0.0
C230 C 0.53203 0.70624 0.74317 0.0
C231 C 0.52143 0.73443 0.71973 0.0
H232 H 0.80485 0.51146 0.64474 0.0
C233 C 0.81652 0.48724 0.6431 0.0
H234 H 0.83814 0.44804 0.68123 0.0
H235 H 0.86067 0.56782 0.83034 0.0
H236 H 0.90743 0.58119 0.78142 0.0
H237 H 0.91613 0.55262 0.70711 0.0
H238 H 0.87814 0.51024 0.68153 0.0
C239 C 0.82738 0.47268 0.68191 0.0
C240 C 0.82278 0.48906 0.7272 0.0
C241 C 0.84504 0.51389 0.74143 0.0
C242 C 0.83977 0.53054 0.78401 0.0
C243 C 0.86295 0.55472 0.79794 0.0
C244 C 0.89006 0.56258 0.77026 0.0
C245 C 0.89498 0.54649 0.72844 0.0
C246 C 0.8729 0.52231 0.7141 0.0
H247 H 0.80745 0.49743 0.89815 0.0
C248 C 0.8066 0.52421 0.89709 0.0
H249 H 0.80632 0.56698 0.85578 0.0
H250 H 0.77679 0.44125 0.71058 0.0
H251 H 0.72848 0.42904 0.75751 0.0
H252 H 0.71663 0.46083 0.82836 0.0
H253 H 0.75325 0.50445 0.85313 0.0
C254 C 0.807 0.54018 0.85644 0.0
C255 C 0.81196 0.52253 0.81192 0.0
C256 C 0.78931 0.49802 0.79706 0.0
C257 C 0.79531 0.48065 0.75522 0.0
C258 C 0.77307 0.45554 0.74176 0.0
C259 C 0.74523 0.4483 0.76832 0.0
C260 C 0.73863 0.46612 0.80828 0.0
C261 C 0.76015 0.49088 0.82243 0.0
H262 H 0.50152 0.80068 0.14385 0.0
C263 C 0.52657 0.81042 0.1442 0.0
H264 H 0.56484 0.83109 0.18437 0.0
H265 H 0.47518 0.88313 0.34658 0.0
H266 H 0.49534 0.93412 0.31332 0.0
H267 H 0.52719 0.93383 0.2405 0.0
H268 H 0.53889 0.88264 0.20031 0.0
C269 C 0.54008 0.82066 0.18407 0.0
C270 C 0.52103 0.8205 0.22809 0.0
C271 C 0.51396 0.8508 0.25063 0.0
C272 C 0.49526 0.85104 0.29229 0.0
C273 C 0.48896 0.88157 0.31454 0.0
C274 C 0.50044 0.91103 0.29588 0.0
C275 C 0.51834 0.91087 0.25485 0.0
C276 C 0.52499 0.88123 0.23224 0.0
H277 H 0.50165 0.79939 0.39462 0.0
C278 C 0.47678 0.80992 0.39423 0.0
H279 H 0.43957 0.83315 0.35405 0.0
H280 H 0.53463 0.75761 0.19794 0.0
H281 H 0.51303 0.70691 0.23003 0.0
H282 H 0.47648 0.70785 0.29845 0.0
H283 H 0.46198 0.75948 0.33572 0.0
C284 C 0.46398 0.8216 0.35461 0.0
C285 C 0.48348 0.82106 0.31108 0.0
C286 C 0.49042 0.79076 0.28852 0.0
C287 C 0.51 0.79038 0.24766 0.0
C288 C 0.51847 0.75957 0.22766 0.0
C289 C 0.50648 0.7302 0.24599 0.0
C290 C 0.48602 0.73071 0.2846 0.0
C291 C 0.47803 0.76054 0.3058 0.0
H292 H 0.22192 0.49254 0.89477 0.0
C293 C 0.20315 0.47351 0.89714 0.0
H294 H 0.16907 0.44367 0.86154 0.0
H295 H 0.21282 0.5622 0.71138 0.0
H296 H 0.19297 0.60191 0.76769 0.0
H297 H 0.17196 0.58362 0.84356 0.0
H298 H 0.17208 0.52574 0.86417 0.0
C299 C 0.18737 0.46315 0.85892 0.0
C300 C 0.19656 0.47457 0.81166 0.0
C301 C 0.19384 0.50831 0.79909 0.0
C302 C 0.20307 0.51857 0.75387 0.0
C303 C 0.20366 0.55279 0.74391 0.0
C304 C 0.19271 0.5759 0.77615 0.0
C305 C 0.18109 0.56563 0.81895 0.0
C306 C 0.1816 0.53228 0.83049 0.0
H307 H 0.16947 0.52798 0.66525 0.0
C308 C 0.19218 0.52093 0.64746 0.0
H309 H 0.23915 0.49824 0.65297 0.0
H310 H 0.20763 0.40844 0.82534 0.0
H311 H 0.22469 0.36857 0.76764 0.0
H312 H 0.23509 0.38564 0.6871 0.0
H313 H 0.22904 0.44277 0.66399 0.0
C314 C 0.21609 0.5046 0.67042 0.0
C315 C 0.21154 0.49471 0.71976 0.0
C316 C 0.2145 0.46104 0.73243 0.0
C317 C 0.20752 0.45105 0.77857 0.0
C318 C 0.21173 0.41737 0.79057 0.0
C319 C 0.22166 0.39418 0.75781 0.0
C320 C 0.22757 0.4038 0.7125 0.0
C321 C 0.22404 0.43676 0.69973 0.0
H322 H 0.56586 0.18544 0.36025 0.0
C323 C 0.54749 0.19415 0.38503 0.0
H324 H 0.49897 0.21311 0.39279 0.0
H325 H 0.49105 0.26394 0.18507 0.0
H326 H 0.48699 0.3148 0.22859 0.0
H327 H 0.49417 0.31499 0.31324 0.0
H328 H 0.50506 0.26424 0.35502 0.0
C329 C 0.5174 0.203 0.36925 0.0
C330 C 0.51052 0.20232 0.31822 0.0
C331 C 0.50453 0.23225 0.29404 0.0
C332 C 0.501 0.23222 0.24494 0.0
C333 C 0.4944 0.26248 0.22211 0.0
C334 C 0.49197 0.29191 0.24669 0.0
C335 C 0.49598 0.29201 0.29435 0.0
C336 C 0.50222 0.26265 0.31792 0.0
H337 H 0.4553 0.17255 0.17585 0.0
C338 C 0.47068 0.18636 0.15186 0.0
H339 H 0.512 0.21763 0.14595 0.0
H340 H 0.51638 0.13987 0.35357 0.0
H341 H 0.5227 0.08918 0.30997 0.0
H342 H 0.52229 0.08983 0.22467 0.0
H343 H 0.51478 0.14108 0.18255 0.0
C344 C 0.49725 0.20215 0.16858 0.0
C345 C 0.50374 0.20228 0.21974 0.0
C346 C 0.51011 0.17236 0.24392 0.0
C347 C 0.51238 0.17224 0.29313 0.0
C348 C 0.51621 0.14163 0.31626 0.0
C349 C 0.51958 0.11229 0.29165 0.0
C350 C 0.51919 0.11264 0.24365 0.0
C351 C 0.51457 0.14222 0.2199 0.0
H352 H 0.92271 0.49801 0.96862 0.0
C353 C 0.91379 0.51912 0.98836 0.0
H354 H 0.92792 0.55704 0.03392 0.0
H355 H 0.05684 0.47774 0.09675 0.0
H356 H 0.02472 0.48029 0.16754 0.0
H357 H 0.96807 0.50362 0.16782 0.0
H358 H 0.94327 0.52488 0.09748 0.0
C359 C 0.93615 0.53738 0.01106 0.0
C360 C 0.97184 0.52661 0.0116 0.0
C361 C 0.98606 0.5142 0.05307 0.0
C362 C 0.01863 0.5002 0.05278 0.0
C363 C 0.03215 0.48827 0.09483 0.0
C364 C 0.01399 0.4896 0.13576 0.0
C365 C 0.9821 0.50277 0.13592 0.0
C366 C 0.96817 0.51491 0.09522 0.0
H367 H 0.09272 0.53024 0.99493 0.0
C368 C 0.09765 0.50448 0.00318 0.0
H369 H 0.07571 0.45923 0.02166 0.0
H370 H 0.95421 0.55209 0.92753 0.0
H371 H 0.9854 0.54772 0.85601 0.0
H372 H 0.03983 0.51957 0.85416 0.0
H373 H 0.06366 0.49615 0.92386 0.0
C374 C 0.07169 0.48473 0.01143 0.0
C375 C 0.03704 0.49844 0.01102 0.0
C376 C 0.0228 0.51088 0.96951 0.0
C377 C 0.99062 0.52569 0.97007 0.0
C378 C 0.97789 0.53939 0.92862 0.0
C379 C 0.99563 0.53726 0.88741 0.0
C380 C 0.02633 0.52153 0.88641 0.0
C381 C 0.03985 0.50841 0.92681 0.0
H382 H 0.45812 0.92848 0.5092 0.0
C383 C 0.48097 0.9146 0.50398 0.0
H384 H 0.53274 0.91718 0.49277 0.0
H385 H 0.53802 0.06178 0.41556 0.0
H386 H 0.54931 0.03011 0.34611 0.0
H387 H 0.54384 0.96957 0.34594 0.0
H388 H 0.52669 0.94029 0.41501 0.0
C389 C 0.5099 0.93081 0.49912 0.0
C390 C 0.51215 0.96753 0.49935 0.0
C391 C 0.52241 0.98425 0.45869 0.0
C392 C 0.52558 0.01921 0.45872 0.0
C393 C 0.53529 0.03529 0.41744 0.0
C394 C 0.54185 0.01741 0.37733 0.0
C395 C 0.53876 0.98332 0.37724 0.0
C396 C 0.52905 0.96681 0.41724 0.0
H397 H 0.56812 0.08201 0.51085 0.0
C398 C 0.54408 0.09328 0.50407 0.0
H399 H 0.493 0.08508 0.49177 0.0
H400 H 0.49613 0.94317 0.58499 0.0
H401 H 0.48485 0.97504 0.6541 0.0
H402 H 0.48853 0.03574 0.65321 0.0
H403 H 0.504 0.06491 0.58318 0.0
C404 C 0.51726 0.07407 0.4977 0.0
C405 C 0.51858 0.03741 0.49939 0.0
C406 C 0.50897 0.0207 0.54027 0.0
C407 C 0.50612 0.98571 0.54047 0.0
C408 C 0.4977 0.96971 0.58237 0.0
C409 C 0.49136 0.98771 0.62244 0.0
C410 C 0.49347 0.02188 0.62196 0.0
C411 C 0.50226 0.03831 0.58151 0.0
H412 H 0.09191 0.47668 0.52633 0.0
C413 C 0.10133 0.50169 0.5234 0.0
H414 H 0.08766 0.5519 0.51671 0.0
H415 H 0.94535 0.51276 0.4364 0.0
H416 H 0.9702 0.53991 0.37019 0.0
H417 H 0.02853 0.55786 0.37221 0.0
H418 H 0.06241 0.54885 0.44049 0.0
C419 C 0.07935 0.5266 0.52026 0.0
C420 C 0.04297 0.51941 0.52104 0.0
C421 C 0.02339 0.52518 0.48111 0.0
C422 C 0.98966 0.5149 0.48 0.0
C423 C 0.97092 0.5204 0.4393 0.0
C424 C 0.98492 0.53584 0.40099 0.0
C425 C 0.01778 0.54593 0.40212 0.0
C426 C 0.03694 0.54062 0.44153 0.0
H427 H 0.92302 0.53691 0.53132 0.0
C428 C 0.91596 0.51133 0.52604 0.0
H429 H 0.93402 0.46297 0.51434 0.0
H430 H 0.07142 0.50989 0.60614 0.0
H431 H 0.04633 0.48333 0.67251 0.0
H432 H 0.98873 0.46331 0.66925 0.0
H433 H 0.95577 0.47001 0.59966 0.0
C434 C 0.93994 0.48889 0.51845 0.0
C435 C 0.97547 0.49902 0.51894 0.0
C436 C 0.99475 0.49404 0.55931 0.0
C437 C 0.02829 0.50478 0.56071 0.0
C438 C 0.04632 0.50101 0.60244 0.0
C439 C 0.0321 0.4861 0.64099 0.0
C440 C 0.99965 0.47489 0.63919 0.0
C441 C 0.98103 0.47887 0.59901 0.0
H442 H 0.48191 0.9179 0.05894 0.0
C443 C 0.50578 0.91176 0.04347 0.0
H444 H 0.547 0.93113 0.00787 0.0
H445 H 0.4632 0.05597 0.94034 0.0
H446 H 0.47271 0.0269 0.86816 0.0
H447 H 0.49926 0.9719 0.86759 0.0
H448 H 0.51665 0.94568 0.93907 0.0
C449 C 0.52401 0.93642 0.02609 0.0
C450 C 0.51042 0.97092 0.02639 0.0
C451 C 0.50064 0.98609 0.98424 0.0
C452 C 0.48537 0.01792 0.98451 0.0
C453 C 0.47537 0.03213 0.94198 0.0
C454 C 0.48051 0.01563 0.90035 0.0
C455 C 0.49544 0.98465 0.90004 0.0
C456 C 0.50534 0.96989 0.94136 0.0
H457 H 0.51391 0.08623 0.00289 0.0
C458 C 0.48933 0.09359 0.0148 0.0
H459 H 0.44444 0.07603 0.04282 0.0
H460 H 0.52895 0.95075 0.11305 0.0
H461 H 0.51953 0.98006 0.18495 0.0
H462 H 0.49163 0.03433 0.18551 0.0
H463 H 0.47312 0.05984 0.11408 0.0
C464 C 0.46812 0.06981 0.02703 0.0
C465 C 0.48006 0.03476 0.02687 0.0
C466 C 0.4897 0.01958 0.06902 0.0
C467 C 0.50527 0.9879 0.06877 0.0
C468 C 0.51609 0.97422 0.11129 0.0
C469 C 0.51107 0.99088 0.15282 0.0
C470 C 0.49542 0.02149 0.15313 0.0
C471 C 0.48492 0.03584 0.11184 0.0
H472 H 0.19419 0.33082 0.04152 0.0
C473 C 0.21152 0.34924 0.02919 0.0
H474 H 0.25896 0.35873 0.0016 0.0
H475 H 0.31338 0.22522 0.09691 0.0
H476 H 0.29743 0.24902 0.17088 0.0
H477 H 0.26242 0.29911 0.17432 0.0
H478 H 0.24276 0.32548 0.10409 0.0
C479 C 0.24239 0.34027 0.0158 0.0
C480 C 0.25549 0.3057 0.01533 0.0
C481 C 0.26643 0.29043 0.05678 0.0
C482 C 0.28737 0.26197 0.0548 0.0
C483 C 0.29808 0.24727 0.09663 0.0
C484 C 0.28899 0.26058 0.13921 0.0
C485 C 0.26923 0.28876 0.14114 0.0
C486 C 0.25809 0.30366 0.10053 0.0
H487 H 0.3594 0.2628 0.03011 0.0
C488 C 0.35716 0.23707 0.01998 0.0
H489 H 0.32333 0.20052 -0.00185 0.0
H490 H 0.23441 0.3254 0.93002 0.0
H491 H 0.24957 0.30079 0.85627 0.0
H492 H 0.2866 0.25213 0.853 0.0
H493 H 0.30872 0.22768 0.92347 0.0
C494 C 0.32688 0.22583 0.00918 0.0
C495 C 0.29799 0.24926 0.01148 0.0
C496 C 0.28446 0.26259 0.97031 0.0
C497 C 0.26326 0.29083 0.97224 0.0
C498 C 0.25091 0.30421 0.93039 0.0
C499 C 0.25929 0.29026 0.88793 0.0
C500 C 0.28014 0.26283 0.88609 0.0
C501 C 0.2927 0.24909 0.9267 0.0
H502 H 0.8137 0.34357 0.50596 0.0
C503 C 0.79576 0.36338 0.51077 0.0
H504 H 0.74594 0.37671 0.52268 0.0
H505 H 0.71306 0.2262 0.45429 0.0
H506 H 0.74282 0.23795 0.38319 0.0
H507 H 0.77542 0.28887 0.37499 0.0
H508 H 0.77878 0.32818 0.43776 0.0
C509 C 0.76336 0.35655 0.51684 0.0
C510 C 0.74976 0.32269 0.52323 0.0
C511 C 0.74825 0.29992 0.48605 0.0
C512 C 0.72881 0.2708 0.49039 0.0
C513 C 0.72725 0.24872 0.45264 0.0
C514 C 0.7442 0.25516 0.41168 0.0
C515 C 0.76261 0.28382 0.4071 0.0
C516 C 0.76449 0.30614 0.44358 0.0
H517 H 0.64633 0.27638 0.52907 0.0
C518 C 0.65154 0.25002 0.52928 0.0
H519 H 0.68953 0.21382 0.52821 0.0
H520 H 0.7517 0.35813 0.60368 0.0
H521 H 0.72284 0.34546 0.67509 0.0
H522 H 0.68861 0.29547 0.6818 0.0
H523 H 0.68308 0.2578 0.617 0.0
C524 C 0.68328 0.23983 0.53119 0.0
C525 C 0.71019 0.26505 0.53119 0.0
C526 C 0.71395 0.28634 0.56957 0.0
C527 C 0.73372 0.31513 0.56562 0.0
C528 C 0.73661 0.33616 0.60448 0.0
C529 C 0.72034 0.32909 0.64578 0.0
C530 C 0.70106 0.30095 0.64956 0.0
C531 C 0.69792 0.27967 0.61207 0.0
H532 H 0.74138 0.6391 0.04415 0.0
C533 C 0.76747 0.64282 0.03624 0.0
H534 H 0.80323 0.67808 0.01702 0.0
H535 H 0.6825 0.76528 0.93783 0.0
H536 H 0.71416 0.75338 0.86853 0.0
H537 H 0.76425 0.7182 0.87175 0.0
H538 H 0.78291 0.69449 0.94437 0.0
C539 C 0.778 0.67373 0.02861 0.0
C540 C 0.75322 0.70152 0.02874 0.0
C541 C 0.74343 0.71647 0.98644 0.0
C542 C 0.71466 0.7372 0.98468 0.0
C543 C 0.70438 0.74997 0.94141 0.0
C544 C 0.72229 0.74323 0.90128 0.0
C545 C 0.7505 0.72339 0.90308 0.0
C546 C 0.76094 0.70995 0.945 0.0
H547 H 0.6745 0.80678 0.00555 0.0
C548 C 0.65473 0.78978 0.01416 0.0
H549 H 0.64195 0.74136 0.03342 0.0
H550 H 0.76921 0.68265 0.11653 0.0
H551 H 0.73896 0.69629 0.18672 0.0
H552 H 0.68921 0.73203 0.1839 0.0
H553 H 0.66944 0.75445 0.11097 0.0
C554 C 0.66182 0.75781 0.02319 0.0
C555 C 0.69609 0.74346 0.02548 0.0
C556 C 0.70776 0.73095 0.06838 0.0
C557 C 0.73634 0.71013 0.07004 0.0
C558 C 0.74725 0.69799 0.11336 0.0
C559 C 0.73026 0.70581 0.15388 0.0
C560 C 0.70225 0.72594 0.15229 0.0
C561 C 0.69107 0.73849 0.11019 0.0
H562 H 0.32829 0.79393 0.53276 0.0
C563 C 0.34871 0.7794 0.51888 0.0
H564 H 0.36347 0.73476 0.4874 0.0
H565 H 0.23415 0.67028 0.58624 0.0
H566 H 0.25976 0.6844 0.6596 0.0
H567 H 0.30894 0.72023 0.66222 0.0
H568 H 0.33256 0.74249 0.59185 0.0
C569 C 0.3433 0.74859 0.50331 0.0
C570 C 0.31014 0.7324 0.5035 0.0
C571 C 0.29663 0.71975 0.54513 0.0
C572 C 0.26884 0.69827 0.54356 0.0
C573 C 0.25572 0.68602 0.58555 0.0
C574 C 0.27007 0.69405 0.62782 0.0
C575 C 0.29772 0.71428 0.6293 0.0
C576 C 0.311 0.72698 0.58857 0.0
H577 H 0.27161 0.6274 0.51367 0.0
C578 C 0.24519 0.62954 0.50646 0.0
H579 H 0.2063 0.66321 0.49098 0.0
H580 H 0.32668 0.75607 0.41819 0.0
H581 H 0.30042 0.74224 0.34515 0.0
H582 H 0.25308 0.70401 0.3426 0.0
H583 H 0.23155 0.67945 0.41318 0.0
C584 C 0.23253 0.65965 0.49808 0.0
C585 C 0.25521 0.68865 0.50042 0.0
C586 C 0.26696 0.70338 0.45926 0.0
C587 C 0.29446 0.72524 0.46077 0.0
C588 C 0.30613 0.73904 0.4189 0.0
C589 C 0.29121 0.7314 0.37683 0.0
C590 C 0.26453 0.70988 0.37539 0.0
C591 C 0.25248 0.69591 0.41604 0.0
loop_
_geom_bond_atom_site_label_1
_geom_bond_atom_site_label_2
_geom_bond_distance
_geom_bond_site_symmetry_2
_ccdc_geom_bond_type
Co0 O1 2.216 . S
Co0 O2 2.091 . S
Co0 O4 2.004 . S
Co0 O10 2.021 . S
Co0 O12 2.137 1_554 S
Co0 O13 2.244 1_554 S
O1 Co0 2.216 . S
O1 C8 1.247 . S
O2 Co0 2.091 . S
O2 C8 1.261 . S
C3 O12 1.247 . S
C3 O13 1.272 . S
O4 Co0 2.004 . S
O4 C9 1.259 . S
Co5 O6 2.061 . S
Co5 O11 2.052 . S
Co5 O13 2.135 1_554 S
O6 Co5 2.061 . S
O6 C9 1.235 . S
C7 O10 1.238 . S
C7 O11 1.241 . S
C8 O1 1.247 . S
C8 O2 1.261 . S
C9 O4 1.259 . S
C9 O6 1.235 . S
O10 Co0 2.021 . S
O10 C7 1.238 . S
O11 Co5 2.052 . S
O11 C7 1.241 . S
O12 Co0 2.137 1_556 S
O12 C3 1.247 . S
O13 Co0 2.244 1_556 S
O13 C3 1.272 . S
O13 Co5 2.135 1_556 S
Co14 O15 2.216 . S
Co14 O16 2.091 . S
Co14 O18 2.004 . S
Co14 O24 2.021 . S
Co14 O26 2.137 . S
Co14 O27 2.244 . S
O15 Co14 2.216 . S
O15 C22 1.247 . S
O16 Co14 2.091 . S
O16 C22 1.261 . S
C17 O26 1.247 . S
C17 O27 1.272 . S
O18 Co14 2.004 . S
O18 C23 1.259 . S
Co19 O20 2.061 . S
Co19 O25 2.052 . S
Co19 O27 2.135 . S
O20 Co19 2.061 . S
O20 C23 1.235 . S
C21 O24 1.238 . S
C21 O25 1.241 . S
C22 O15 1.247 . S
C22 O16 1.261 . S
C23 O18 1.259 . S
C23 O20 1.235 . S
O24 Co14 2.021 . S
O24 C21 1.238 . S
O25 Co19 2.052 . S
O25 C21 1.241 . S
O26 Co14 2.137 . S
O26 C17 1.247 . S
O27 Co14 2.244 . S
O27 C17 1.272 . S
O27 Co19 2.135 . S
Co28 O29 2.216 . S
Co28 O30 2.091 . S
Co28 O32 2.004 . S
Co28 O38 2.021 . S
Co28 O40 2.137 1_554 S
Co28 O41 2.244 1_554 S
O29 Co28 2.216 . S
O29 C36 1.247 . S
O30 Co28 2.091 . S
O30 C36 1.261 . S
C31 O40 1.247 . S
C31 O41 1.272 . S
O32 Co28 2.004 . S
O32 C37 1.259 . S
Co33 O34 2.061 . S
Co33 O39 2.052 . S
Co33 O41 2.135 1_554 S
O34 Co33 2.061 . S
O34 C37 1.235 . S
C35 O38 1.238 . S
C35 O39 1.241 . S
C36 O29 1.247 . S
C36 O30 1.261 . S
C37 O32 1.259 . S
C37 O34 1.235 . S
O38 Co28 2.021 . S
O38 C35 1.238 . S
O39 Co33 2.052 . S
O39 C35 1.241 . S
O40 Co28 2.137 1_556 S
O40 C31 1.247 . S
O41 Co28 2.244 1_556 S
O41 C31 1.272 . S
O41 Co33 2.135 1_556 S
Co42 O43 2.216 . S
Co42 O44 2.091 . S
Co42 O46 2.004 . S
Co42 O52 2.021 . S
Co42 O54 2.137 . S
Co42 O55 2.244 . S
O43 Co42 2.216 . S
O43 C50 1.247 . S
O44 Co42 2.091 . S
O44 C50 1.261 . S
C45 O54 1.247 . S
C45 O55 1.272 . S
O46 Co42 2.004 . S
O46 C51 1.259 . S
Co47 O48 2.061 . S
Co47 O53 2.052 . S
Co47 O55 2.135 . S
O48 Co47 2.061 . S
O48 C51 1.235 . S
C49 O52 1.238 . S
C49 O53 1.241 . S
C50 O43 1.247 . S
C50 O44 1.261 . S
C51 O46 1.259 . S
C51 O48 1.235 . S
O52 Co42 2.021 . S
O52 C49 1.238 . S
O53 Co47 2.052 . S
O53 C49 1.241 . S
O54 Co42 2.137 . S
O54 C45 1.247 . S
O55 Co42 2.244 . S
O55 C45 1.272 . S
O55 Co47 2.135 . S
Co56 O57 2.216 . S
Co56 O58 2.091 . S
Co56 O60 2.004 . S
Co56 O66 2.021 . S
Co56 O68 2.137 . S
Co56 O69 2.244 . S
O57 Co56 2.216 . S
O57 C64 1.247 . S
O58 Co56 2.091 . S
O58 C64 1.261 . S
C59 O68 1.247 . S
C59 O69 1.272 . S
O60 Co56 2.004 . S
O60 C65 1.259 . S
Co61 O62 2.061 . S
Co61 O67 2.052 . S
Co61 O69 2.135 . S
O62 Co61 2.061 . S
O62 C65 1.235 . S
C63 O66 1.238 . S
C63 O67 1.241 . S
C64 O57 1.247 . S
C64 O58 1.261 . S
C65 O60 1.259 . S
C65 O62 1.235 . S
O66 Co56 2.021 . S
O66 C63 1.238 . S
O67 Co61 2.052 . S
O67 C63 1.241 . S
O68 Co56 2.137 . S
O68 C59 1.247 . S
O69 Co56 2.244 . S
O69 C59 1.272 . S
O69 Co61 2.135 . S
Co70 O71 2.216 . S
Co70 O72 2.091 . S
Co70 O74 2.004 . S
Co70 O80 2.021 1_554 S
Co70 O82 2.137 . S
Co70 O83 2.244 . S
O71 Co70 2.216 . S
O71 C78 1.247 . S
O72 Co70 2.091 . S
O72 C78 1.261 . S
C73 O82 1.247 . S
C73 O83 1.272 . S
O74 Co70 2.004 . S
O74 C79 1.259 . S
Co75 O76 2.061 . S
Co75 O81 2.052 1_554 S
Co75 O83 2.135 . S
O76 Co75 2.061 . S
O76 C79 1.235 . S
C77 O80 1.238 . S
C77 O81 1.241 . S
C78 O71 1.247 . S
C78 O72 1.261 . S
C79 O74 1.259 . S
C79 O76 1.235 . S
O80 Co70 2.021 1_556 S
O80 C77 1.238 . S
O81 Co75 2.052 1_556 S
O81 C77 1.241 . S
O82 Co70 2.137 . S
O82 C73 1.247 . S
O83 Co70 2.244 . S
O83 C73 1.272 . S
O83 Co75 2.135 . S
Co84 O85 2.216 . S
Co84 O86 2.091 . S
Co84 O88 2.004 . S
Co84 O94 2.021 . S
Co84 O96 2.137 . S
Co84 O97 2.244 . S
O85 Co84 2.216 . S
O85 C92 1.247 . S
O86 Co84 2.091 . S
O86 C92 1.261 . S
C87 O96 1.247 . S
C87 O97 1.272 . S
O88 Co84 2.004 . S
O88 C93 1.259 . S
Co89 O90 2.061 . S
Co89 O95 2.052 . S
Co89 O97 2.135 . S
O90 Co89 2.061 . S
O90 C93 1.235 . S
C91 O94 1.238 . S
C91 O95 1.241 . S
C92 O85 1.247 . S
C92 O86 1.261 . S
C93 O88 1.259 . S
C93 O90 1.235 . S
O94 Co84 2.021 . S
O94 C91 1.238 . S
O95 Co89 2.052 . S
O95 C91 1.241 . S
O96 Co84 2.137 . S
O96 C87 1.247 . S
O97 Co84 2.244 . S
O97 C87 1.272 . S
O97 Co89 2.135 . S
Co98 O99 2.216 . S
Co98 O100 2.091 . S
Co98 O102 2.004 . S
Co98 O108 2.021 1_554 S
Co98 O110 2.137 . S
Co98 O111 2.244 . S
O99 Co98 2.216 . S
O99 C106 1.247 . S
O100 Co98 2.091 . S
O100 C106 1.261 . S
C101 O110 1.247 . S
C101 O111 1.272 . S
O102 Co98 2.004 . S
O102 C107 1.259 . S
Co103 O104 2.061 . S
Co103 O109 2.052 1_554 S
Co103 O111 2.135 . S
O104 Co103 2.061 . S
O104 C107 1.235 . S
C105 O108 1.238 . S
C105 O109 1.241 . S
C106 O99 1.247 . S
C106 O100 1.261 . S
C107 O102 1.259 . S
C107 O104 1.235 . S
O108 Co98 2.021 1_556 S
O108 C105 1.238 . S
O109 Co103 2.052 1_556 S
O109 C105 1.241 . S
O110 Co98 2.137 . S
O110 C101 1.247 . S
O111 Co98 2.244 . S
O111 C101 1.272 . S
O111 Co103 2.135 . S
H112 C113 0.951 . S
C113 H112 0.951 . S
C113 C119 1.265 . S
H114 C119 0.950 . S
H115 C123 0.949 . S
H116 C124 0.950 . S
H117 C125 0.951 . S
H118 C126 0.951 . S
C119 C113 1.265 . S
C119 H114 0.950 . S
C119 C120 1.478 . S
C120 C119 1.478 . S
C120 C121 1.397 . S
C120 C137 1.394 . S
C121 C120 1.397 . S
C121 C122 1.438 . S
C121 C126 1.429 . S
C122 C121 1.438 . S
C122 C123 1.428 . S
C122 C135 1.394 . S
C123 H115 0.949 . S
C123 C122 1.428 . S
C123 C124 1.345 . S
C124 H116 0.950 . S
C124 C123 1.345 . S
C124 C125 1.424 . S
C125 H117 0.951 . S
C125 C124 1.424 . S
C125 C126 1.347 . S
C126 H118 0.951 . S
C126 C121 1.429 . S
C126 C125 1.347 . S
H127 C128 0.951 . S
C128 H127 0.951 . S
C128 C134 1.265 . S
H129 C134 0.950 . S
H130 C138 0.949 . S
H131 C139 0.950 . S
H132 C140 0.951 . S
H133 C141 0.951 . S
C134 C128 1.265 . S
C134 H129 0.950 . S
C134 C135 1.478 . S
C135 C122 1.394 . S
C135 C134 1.478 . S
C135 C136 1.397 . S
C136 C135 1.397 . S
C136 C137 1.438 . S
C136 C141 1.429 . S
C137 C120 1.394 . S
C137 C136 1.438 . S
C137 C138 1.428 . S
C138 H130 0.949 . S
C138 C137 1.428 . S
C138 C139 1.345 . S
C139 H131 0.950 . S
C139 C138 1.345 . S
C139 C140 1.424 . S
C140 H132 0.951 . S
C140 C139 1.424 . S
C140 C141 1.347 . S
C141 H133 0.951 . S
C141 C136 1.429 . S
C141 C140 1.347 . S
H142 C143 0.951 . S
C143 H142 0.951 . S
C143 C149 1.265 . S
H144 C149 0.950 . S
H145 C153 0.949 . S
H146 C154 0.950 . S
H147 C155 0.951 . S
H148 C156 0.951 . S
C149 C143 1.265 . S
C149 H144 0.950 . S
C149 C150 1.478 . S
C150 C149 1.478 . S
C150 C151 1.397 . S
C150 C167 1.394 . S
C151 C150 1.397 . S
C151 C152 1.438 . S
C151 C156 1.429 . S
C152 C151 1.438 . S
C152 C153 1.428 . S
C152 C165 1.394 . S
C153 H145 0.949 . S
C153 C152 1.428 . S
C153 C154 1.345 . S
C154 H146 0.950 . S
C154 C153 1.345 . S
C154 C155 1.424 . S
C155 H147 0.951 . S
C155 C154 1.424 . S
C155 C156 1.347 . S
C156 H148 0.951 . S
C156 C151 1.429 . S
C156 C155 1.347 . S
H157 C158 0.951 . S
C158 H157 0.951 . S
C158 C164 1.265 . S
H159 C164 0.950 . S
H160 C168 0.949 . S
H161 C169 0.950 . S
H162 C170 0.951 . S
H163 C171 0.951 . S
C164 C158 1.265 . S
C164 H159 0.950 . S
C164 C165 1.478 . S
C165 C152 1.394 . S
C165 C164 1.478 . S
C165 C166 1.397 . S
C166 C165 1.397 . S
C166 C167 1.438 . S
C166 C171 1.429 . S
C167 C150 1.394 . S
C167 C166 1.438 . S
C167 C168 1.428 . S
C168 H160 0.949 . S
C168 C167 1.428 . S
C168 C169 1.345 . S
C169 H161 0.950 . S
C169 C168 1.345 . S
C169 C170 1.424 . S
C170 H162 0.951 . S
C170 C169 1.424 . S
C170 C171 1.347 . S
C171 H163 0.951 . S
C171 C166 1.429 . S
C171 C170 1.347 . S
H172 C173 0.951 . S
C173 H172 0.951 . S
C173 C179 1.265 . S
H174 C179 0.950 . S
H175 C183 0.949 . S
H176 C184 0.950 . S
H177 C185 0.951 . S
H178 C186 0.951 . S
C179 C173 1.265 . S
C179 H174 0.950 . S
C179 C180 1.478 . S
C180 C179 1.478 . S
C180 C181 1.397 . S
C180 C197 1.394 . S
C181 C180 1.397 . S
C181 C182 1.438 . S
C181 C186 1.429 . S
C182 C181 1.438 . S
C182 C183 1.428 . S
C182 C195 1.394 . S
C183 H175 0.949 . S
C183 C182 1.428 . S
C183 C184 1.345 . S
C184 H176 0.950 . S
C184 C183 1.345 . S
C184 C185 1.424 . S
C185 H177 0.951 . S
C185 C184 1.424 . S
C185 C186 1.347 . S
C186 H178 0.951 . S
C186 C181 1.429 . S
C186 C185 1.347 . S
H187 C188 0.951 . S
C188 H187 0.951 . S
C188 C194 1.265 . S
H189 C194 0.950 . S
H190 C198 0.949 . S
H191 C199 0.950 . S
H192 C200 0.951 . S
H193 C201 0.951 . S
C194 C188 1.265 . S
C194 H189 0.950 . S
C194 C195 1.478 . S
C195 C182 1.394 . S
C195 C194 1.478 . S
C195 C196 1.397 . S
C196 C195 1.397 . S
C196 C197 1.438 . S
C196 C201 1.429 . S
C197 C180 1.394 . S
C197 C196 1.438 . S
C197 C198 1.428 . S
C198 H190 0.949 . S
C198 C197 1.428 . S
C198 C199 1.345 . S
C199 H191 0.950 . S
C199 C198 1.345 . S
C199 C200 1.424 . S
C200 H192 0.951 . S
C200 C199 1.424 . S
C200 C201 1.347 . S
C201 H193 0.951 . S
C201 C196 1.429 . S
C201 C200 1.347 . S
H202 C203 0.951 . S
C203 H202 0.951 . S
C203 C209 1.265 . S
H204 C209 0.950 . S
H205 C213 0.949 . S
H206 C214 0.950 . S
H207 C215 0.951 . S
H208 C216 0.951 . S
C209 C203 1.265 . S
C209 H204 0.950 . S
C209 C210 1.478 . S
C210 C209 1.478 . S
C210 C211 1.397 . S
C210 C227 1.394 . S
C211 C210 1.397 . S
C211 C212 1.438 . S
C211 C216 1.429 . S
C212 C211 1.438 . S
C212 C213 1.428 . S
C212 C225 1.394 . S
C213 H205 0.949 . S
C213 C212 1.428 . S
C213 C214 1.345 . S
C214 H206 0.950 . S
C214 C213 1.345 . S
C214 C215 1.424 . S
C215 H207 0.951 . S
C215 C214 1.424 . S
C215 C216 1.347 . S
C216 H208 0.951 . S
C216 C211 1.429 . S
C216 C215 1.347 . S
H217 C218 0.951 . S
C218 H217 0.951 . S
C218 C224 1.265 . S
H219 C224 0.950 . S
H220 C228 0.949 . S
H221 C229 0.950 . S
H222 C230 0.951 . S
H223 C231 0.951 . S
C224 C218 1.265 . S
C224 H219 0.950 . S
C224 C225 1.478 . S
C225 C212 1.394 . S
C225 C224 1.478 . S
C225 C226 1.397 . S
C226 C225 1.397 . S
C226 C227 1.438 . S
C226 C231 1.429 . S
C227 C210 1.394 . S
C227 C226 1.438 . S
C227 C228 1.428 . S
C228 H220 0.949 . S
C228 C227 1.428 . S
C228 C229 1.345 . S
C229 H221 0.950 . S
C229 C228 1.345 . S
C229 C230 1.424 . S
C230 H222 0.951 . S
C230 C229 1.424 . S
C230 C231 1.347 . S
C231 H223 0.951 . S
C231 C226 1.429 . S
C231 C230 1.347 . S
H232 C233 0.951 . S
C233 H232 0.951 . S
C233 C239 1.265 . S
H234 C239 0.950 . S
H235 C243 0.949 . S
H236 C244 0.950 . S
H237 C245 0.951 . S
H238 C246 0.951 . S
C239 C233 1.265 . S
C239 H234 0.950 . S
C239 C240 1.478 . S
C240 C239 1.478 . S
C240 C241 1.397 . S
C240 C257 1.394 . S
C241 C240 1.397 . S
C241 C242 1.438 . S
C241 C246 1.429 . S
C242 C241 1.438 . S
C242 C243 1.428 . S
C242 C255 1.394 . S
C243 H235 0.949 . S
C243 C242 1.428 . S
C243 C244 1.345 . S
C244 H236 0.950 . S
C244 C243 1.345 . S
C244 C245 1.424 . S
C245 H237 0.951 . S
C245 C244 1.424 . S
C245 C246 1.347 . S
C246 H238 0.951 . S
C246 C241 1.429 . S
C246 C245 1.347 . S
H247 C248 0.951 . S
C248 H247 0.951 . S
C248 C254 1.265 . S
H249 C254 0.950 . S
H250 C258 0.949 . S
H251 C259 0.950 . S
H252 C260 0.951 . S
H253 C261 0.951 . S
C254 C248 1.265 . S
C254 H249 0.950 . S
C254 C255 1.478 . S
C255 C242 1.394 . S
C255 C254 1.478 . S
C255 C256 1.397 . S
C256 C255 1.397 . S
C256 C257 1.438 . S
C256 C261 1.429 . S
C257 C240 1.394 . S
C257 C256 1.438 . S
C257 C258 1.428 . S
C258 H250 0.949 . S
C258 C257 1.428 . S
C258 C259 1.345 . S
C259 H251 0.950 . S
C259 C258 1.345 . S
C259 C260 1.424 . S
C260 H252 0.951 . S
C260 C259 1.424 . S
C260 C261 1.347 . S
C261 H253 0.951 . S
C261 C256 1.429 . S
C261 C260 1.347 . S
H262 C263 0.951 . S
C263 H262 0.951 . S
C263 C269 1.265 . S
H264 C269 0.950 . S
H265 C273 0.949 . S
H266 C274 0.950 . S
H267 C275 0.951 . S
H268 C276 0.951 . S
C269 C263 1.265 . S
C269 H264 0.950 . S
C269 C270 1.478 . S
C270 C269 1.478 . S
C270 C271 1.397 . S
C270 C287 1.394 . S
C271 C270 1.397 . S
C271 C272 1.438 . S
C271 C276 1.429 . S
C272 C271 1.438 . S
C272 C273 1.428 . S
C272 C285 1.394 . S
C273 H265 0.949 . S
C273 C272 1.428 . S
C273 C274 1.345 . S
C274 H266 0.950 . S
C274 C273 1.345 . S
C274 C275 1.424 . S
C275 H267 0.951 . S
C275 C274 1.424 . S
C275 C276 1.347 . S
C276 H268 0.951 . S
C276 C271 1.429 . S
C276 C275 1.347 . S
H277 C278 0.951 . S
C278 H277 0.951 . S
C278 C284 1.265 . S
H279 C284 0.950 . S
H280 C288 0.949 . S
H281 C289 0.950 . S
H282 C290 0.951 . S
H283 C291 0.951 . S
C284 C278 1.265 . S
C284 H279 0.950 . S
C284 C285 1.478 . S
C285 C272 1.394 . S
C285 C284 1.478 . S
C285 C286 1.397 . S
C286 C285 1.397 . S
C286 C287 1.438 . S
C286 C291 1.429 . S
C287 C270 1.394 . S
C287 C286 1.438 . S
C287 C288 1.428 . S
C288 H280 0.949 . S
C288 C287 1.428 . S
C288 C289 1.345 . S
C289 H281 0.950 . S
C289 C288 1.345 . S
C289 C290 1.424 . S
C290 H282 0.951 . S
C290 C289 1.424 . S
C290 C291 1.347 . S
C291 H283 0.951 . S
C291 C286 1.429 . S
C291 C290 1.347 . S
H292 C293 0.951 . S
C293 H292 0.951 . S
C293 C299 1.265 . S
H294 C299 0.950 . S
H295 C303 0.949 . S
H296 C304 0.950 . S
H297 C305 0.951 . S
H298 C306 0.951 . S
C299 C293 1.265 . S
C299 H294 0.950 . S
C299 C300 1.478 . S
C300 C299 1.478 . S
C300 C301 1.397 . S
C300 C317 1.394 . S
C301 C300 1.397 . S
C301 C302 1.438 . S
C301 C306 1.429 . S
C302 C301 1.438 . S
C302 C303 1.428 . S
C302 C315 1.394 . S
C303 H295 0.949 . S
C303 C302 1.428 . S
C303 C304 1.345 . S
C304 H296 0.950 . S
C304 C303 1.345 . S
C304 C305 1.424 . S
C305 H297 0.951 . S
C305 C304 1.424 . S
C305 C306 1.347 . S
C306 H298 0.951 . S
C306 C301 1.429 . S
C306 C305 1.347 . S
H307 C308 0.951 . S
C308 H307 0.951 . S
C308 C314 1.265 . S
H309 C314 0.950 . S
H310 C318 0.949 . S
H311 C319 0.950 . S
H312 C320 0.951 . S
H313 C321 0.951 . S
C314 C308 1.265 . S
C314 H309 0.950 . S
C314 C315 1.478 . S
C315 C302 1.394 . S
C315 C314 1.478 . S
C315 C316 1.397 . S
C316 C315 1.397 . S
C316 C317 1.438 . S
C316 C321 1.429 . S
C317 C300 1.394 . S
C317 C316 1.438 . S
C317 C318 1.428 . S
C318 H310 0.949 . S
C318 C317 1.428 . S
C318 C319 1.345 . S
C319 H311 0.950 . S
C319 C318 1.345 . S
C319 C320 1.424 . S
C320 H312 0.951 . S
C320 C319 1.424 . S
C320 C321 1.347 . S
C321 H313 0.951 . S
C321 C316 1.429 . S
C321 C320 1.347 . S
H322 C323 0.951 . S
C323 H322 0.951 . S
C323 C329 1.265 . S
H324 C329 0.950 . S
H325 C333 0.949 . S
H326 C334 0.950 . S
H327 C335 0.951 . S
H328 C336 0.951 . S
C329 C323 1.265 . S
C329 H324 0.950 . S
C329 C330 1.478 . S
C330 C329 1.478 . S
C330 C331 1.397 . S
C330 C347 1.394 . S
C331 C330 1.397 . S
C331 C332 1.438 . S
C331 C336 1.429 . S
C332 C331 1.438 . S
C332 C333 1.428 . S
C332 C345 1.394 . S
C333 H325 0.949 . S
C333 C332 1.428 . S
C333 C334 1.345 . S
C334 H326 0.950 . S
C334 C333 1.345 . S
C334 C335 1.424 . S
C335 H327 0.951 . S
C335 C334 1.424 . S
C335 C336 1.347 . S
C336 H328 0.951 . S
C336 C331 1.429 . S
C336 C335 1.347 . S
H337 C338 0.951 . S
C338 H337 0.951 . S
C338 C344 1.265 . S
H339 C344 0.950 . S
H340 C348 0.949 . S
H341 C349 0.950 . S
H342 C350 0.951 . S
H343 C351 0.951 . S
C344 C338 1.265 . S
C344 H339 0.950 . S
C344 C345 1.478 . S
C345 C332 1.394 . S
C345 C344 1.478 . S
C345 C346 1.397 . S
C346 C345 1.397 . S
C346 C347 1.438 . S
C346 C351 1.429 . S
C347 C330 1.394 . S
C347 C346 1.438 . S
C347 C348 1.428 . S
C348 H340 0.949 . S
C348 C347 1.428 . S
C348 C349 1.345 . S
C349 H341 0.950 . S
C349 C348 1.345 . S
C349 C350 1.424 . S
C350 H342 0.951 . S
C350 C349 1.424 . S
C350 C351 1.347 . S
C351 H343 0.951 . S
C351 C346 1.429 . S
C351 C350 1.347 . S
H352 C353 0.951 1_556 S
C353 H352 0.951 1_554 S
C353 C359 1.265 . S
H354 C359 0.950 . S
H355 C363 0.949 . S
H356 C364 0.950 . S
H357 C365 0.951 . S
H358 C366 0.951 . S
C359 C353 1.265 . S
C359 H354 0.950 . S
C359 C360 1.478 . S
C360 C359 1.478 . S
C360 C361 1.397 . S
C360 C377 1.394 1_554 S
C361 C360 1.397 . S
C361 C362 1.438 1_655 S
C361 C366 1.429 . S
C362 C361 1.438 1_455 S
C362 C363 1.428 . S
C362 C375 1.394 . S
C363 H355 0.949 . S
C363 C362 1.428 . S
C363 C364 1.345 . S
C364 H356 0.950 . S
C364 C363 1.345 . S
C364 C365 1.424 1_455 S
C365 H357 0.951 . S
C365 C364 1.424 1_655 S
C365 C366 1.347 . S
C366 H358 0.951 . S
C366 C361 1.429 . S
C366 C365 1.347 . S
H367 C368 0.951 . S
C368 H367 0.951 . S
C368 C374 1.265 . S
H369 C374 0.950 1_556 S
H370 C378 0.949 . S
H371 C379 0.950 . S
H372 C380 0.951 . S
H373 C381 0.951 . S
C374 C368 1.265 . S
C374 H369 0.950 1_554 S
C374 C375 1.478 . S
C375 C362 1.394 . S
C375 C374 1.478 . S
C375 C376 1.397 1_554 S
C376 C375 1.397 1_556 S
C376 C377 1.438 1_455 S
C376 C381 1.429 . S
C377 C360 1.394 1_556 S
C377 C376 1.438 1_655 S
C377 C378 1.428 . S
C378 H370 0.949 . S
C378 C377 1.428 . S
C378 C379 1.345 . S
C379 H371 0.950 . S
C379 C378 1.345 . S
C379 C380 1.424 1_655 S
C380 H372 0.951 . S
C380 C379 1.424 1_455 S
C380 C381 1.347 . S
C381 H373 0.951 . S
C381 C376 1.429 . S
C381 C380 1.347 . S
H382 C383 0.951 . S
C383 H382 0.951 . S
C383 C389 1.265 . S
H384 C389 0.950 . S
H385 C393 0.949 . S
H386 C394 0.950 . S
H387 C395 0.951 . S
H388 C396 0.951 . S
C389 C383 1.265 . S
C389 H384 0.950 . S
C389 C390 1.478 . S
C390 C389 1.478 . S
C390 C391 1.397 . S
C390 C407 1.394 . S
C391 C390 1.397 . S
C391 C392 1.438 1_565 S
C391 C396 1.429 . S
C392 C391 1.438 1_545 S
C392 C393 1.428 . S
C392 C405 1.394 . S
C393 H385 0.949 . S
C393 C392 1.428 . S
C393 C394 1.345 . S
C394 H386 0.950 . S
C394 C393 1.345 . S
C394 C395 1.424 1_545 S
C395 H387 0.951 . S
C395 C394 1.424 1_565 S
C395 C396 1.347 . S
C396 H388 0.951 . S
C396 C391 1.429 . S
C396 C395 1.347 . S
H397 C398 0.951 . S
C398 H397 0.951 . S
C398 C404 1.265 . S
H399 C404 0.950 . S
H400 C408 0.949 . S
H401 C409 0.950 . S
H402 C410 0.951 . S
H403 C411 0.951 . S
C404 C398 1.265 . S
C404 H399 0.950 . S
C404 C405 1.478 . S
C405 C392 1.394 . S
C405 C404 1.478 . S
C405 C406 1.397 . S
C406 C405 1.397 . S
C406 C407 1.438 1_545 S
C406 C411 1.429 . S
C407 C390 1.394 . S
C407 C406 1.438 1_565 S
C407 C408 1.428 . S
C408 H400 0.949 . S
C408 C407 1.428 . S
C408 C409 1.345 . S
C409 H401 0.950 . S
C409 C408 1.345 . S
C409 C410 1.424 1_565 S
C410 H402 0.951 . S
C410 C409 1.424 1_545 S
C410 C411 1.347 . S
C411 H403 0.951 . S
C411 C406 1.429 . S
C411 C410 1.347 . S
H412 C413 0.951 . S
C413 H412 0.951 . S
C413 C419 1.265 . S
H414 C419 0.950 . S
H415 C423 0.949 . S
H416 C424 0.950 . S
H417 C425 0.951 . S
H418 C426 0.951 . S
C419 C413 1.265 . S
C419 H414 0.950 . S
C419 C420 1.478 . S
C420 C419 1.478 . S
C420 C421 1.397 . S
C420 C437 1.394 . S
C421 C420 1.397 . S
C421 C422 1.438 1_455 S
C421 C426 1.429 . S
C422 C421 1.438 1_655 S
C422 C423 1.428 . S
C422 C435 1.394 . S
C423 H415 0.949 . S
C423 C422 1.428 . S
C423 C424 1.345 . S
C424 H416 0.950 . S
C424 C423 1.345 . S
C424 C425 1.424 . S
C425 H417 0.951 . S
C425 C424 1.424 . S
C425 C426 1.347 1_655 S
C426 H418 0.951 . S
C426 C421 1.429 . S
C426 C425 1.347 1_455 S
H427 C428 0.951 . S
C428 H427 0.951 . S
C428 C434 1.265 . S
H429 C434 0.950 . S
H430 C438 0.949 . S
H431 C439 0.950 . S
H432 C440 0.951 . S
H433 C441 0.951 . S
C434 C428 1.265 . S
C434 H429 0.950 . S
C434 C435 1.478 . S
C435 C422 1.394 . S
C435 C434 1.478 . S
C435 C436 1.397 . S
C436 C435 1.397 . S
C436 C437 1.438 1_655 S
C436 C441 1.429 . S
C437 C420 1.394 . S
C437 C436 1.438 1_455 S
C437 C438 1.428 . S
C438 H430 0.949 . S
C438 C437 1.428 . S
C438 C439 1.345 . S
C439 H431 0.950 . S
C439 C438 1.345 . S
C439 C440 1.424 . S
C440 H432 0.951 . S
C440 C439 1.424 . S
C440 C441 1.347 1_455 S
C441 H433 0.951 . S
C441 C436 1.429 . S
C441 C440 1.347 1_655 S
H442 C443 0.951 . S
C443 H442 0.951 . S
C443 C449 1.265 . S
H444 C449 0.950 . S
H445 C453 0.949 . S
H446 C454 0.950 . S
H447 C455 0.950 1_565 S
H448 C456 0.951 . S
C449 C443 1.265 . S
C449 H444 0.950 . S
C449 C450 1.478 . S
C450 C449 1.478 . S
C450 C451 1.397 1_554 S
C450 C467 1.394 . S
C451 C450 1.397 1_556 S
C451 C452 1.438 1_565 S
C451 C456 1.429 . S
C452 C451 1.438 1_545 S
C452 C453 1.428 . S
C452 C465 1.394 1_556 S
C453 H445 0.949 . S
C453 C452 1.428 . S
C453 C454 1.345 . S
C454 H446 0.950 . S
C454 C453 1.345 . S
C454 C455 1.427 . S
C455 H447 0.950 1_545 S
C455 C454 1.427 . S
C455 C456 1.345 1_545 S
C456 H448 0.951 . S
C456 C451 1.429 . S
C456 C455 1.345 1_565 S
H457 C458 0.951 . S
C458 H457 0.951 . S
C458 C464 1.265 . S
H459 C464 0.950 . S
H460 C468 0.949 . S
H461 C469 0.950 . S
H462 C470 0.950 1_545 S
H463 C471 0.951 . S
C464 C458 1.265 . S
C464 H459 0.950 . S
C464 C465 1.478 . S
C465 C452 1.394 1_554 S
C465 C464 1.478 . S
C465 C466 1.397 . S
C466 C465 1.397 . S
C466 C467 1.438 1_545 S
C466 C471 1.429 . S
C467 C450 1.394 . S
C467 C466 1.438 1_565 S
C467 C468 1.428 . S
C468 H460 0.949 . S
C468 C467 1.428 . S
C468 C469 1.345 . S
C469 H461 0.950 . S
C469 C468 1.345 . S
C469 C470 1.427 . S
C470 H462 0.950 1_565 S
C470 C469 1.427 . S
C470 C471 1.345 1_565 S
C471 H463 0.951 . S
C471 C466 1.429 . S
C471 C470 1.345 1_545 S
H472 C473 0.951 . S
C473 H472 0.951 . S
C473 C479 1.265 . S
H474 C479 0.950 . S
H475 C483 0.949 . S
H476 C484 0.950 . S
H477 C485 0.951 . S
H478 C486 0.951 . S
C479 C473 1.265 . S
C479 H474 0.950 . S
C479 C480 1.478 . S
C480 C479 1.478 . S
C480 C481 1.397 . S
C480 C497 1.394 1_554 S
C481 C480 1.397 . S
C481 C482 1.438 . S
C481 C486 1.429 . S
C482 C481 1.438 . S
C482 C483 1.428 . S
C482 C495 1.394 . S
C483 H475 0.949 . S
C483 C482 1.428 . S
C483 C484 1.345 . S
C484 H476 0.950 . S
C484 C483 1.345 . S
C484 C485 1.424 . S
C485 H477 0.951 . S
C485 C484 1.424 . S
C485 C486 1.347 . S
C486 H478 0.951 . S
C486 C481 1.429 . S
C486 C485 1.347 . S
H487 C488 0.951 . S
C488 H487 0.951 . S
C488 C494 1.265 . S
H489 C494 0.950 1_556 S
H490 C498 0.949 . S
H491 C499 0.950 . S
H492 C500 0.951 . S
H493 C501 0.951 . S
C494 C488 1.265 . S
C494 H489 0.950 1_554 S
C494 C495 1.478 . S
C495 C482 1.394 . S
C495 C494 1.478 . S
C495 C496 1.397 1_554 S
C496 C495 1.397 1_556 S
C496 C497 1.438 . S
C496 C501 1.429 . S
C497 C480 1.394 1_556 S
C497 C496 1.438 . S
C497 C498 1.428 . S
C498 H490 0.949 . S
C498 C497 1.428 . S
C498 C499 1.345 . S
C499 H491 0.950 . S
C499 C498 1.345 . S
C499 C500 1.424 . S
C500 H492 0.951 . S
C500 C499 1.424 . S
C500 C501 1.347 . S
C501 H493 0.951 . S
C501 C496 1.429 . S
C501 C500 1.347 . S
H502 C503 0.951 . S
C503 H502 0.951 . S
C503 C509 1.265 . S
H504 C509 0.950 . S
H505 C513 0.949 . S
H506 C514 0.950 . S
H507 C515 0.951 . S
H508 C516 0.951 . S
C509 C503 1.265 . S
C509 H504 0.950 . S
C509 C510 1.478 . S
C510 C509 1.478 . S
C510 C511 1.397 . S
C510 C527 1.394 . S
C511 C510 1.397 . S
C511 C512 1.438 . S
C511 C516 1.429 . S
C512 C511 1.438 . S
C512 C513 1.428 . S
C512 C525 1.394 . S
C513 H505 0.949 . S
C513 C512 1.428 . S
C513 C514 1.345 . S
C514 H506 0.950 . S
C514 C513 1.345 . S
C514 C515 1.424 . S
C515 H507 0.951 . S
C515 C514 1.424 . S
C515 C516 1.347 . S
C516 H508 0.951 . S
C516 C511 1.429 . S
C516 C515 1.347 . S
H517 C518 0.951 . S
C518 H517 0.951 . S
C518 C524 1.265 . S
H519 C524 0.950 . S
H520 C528 0.949 . S
H521 C529 0.950 . S
H522 C530 0.951 . S
H523 C531 0.951 . S
C524 C518 1.265 . S
C524 H519 0.950 . S
C524 C525 1.478 . S
C525 C512 1.394 . S
C525 C524 1.478 . S
C525 C526 1.397 . S
C526 C525 1.397 . S
C526 C527 1.438 . S
C526 C531 1.429 . S
C527 C510 1.394 . S
C527 C526 1.438 . S
C527 C528 1.428 . S
C528 H520 0.949 . S
C528 C527 1.428 . S
C528 C529 1.345 . S
C529 H521 0.950 . S
C529 C528 1.345 . S
C529 C530 1.424 . S
C530 H522 0.951 . S
C530 C529 1.424 . S
C530 C531 1.347 . S
C531 H523 0.951 . S
C531 C526 1.429 . S
C531 C530 1.347 . S
H532 C533 0.951 . S
C533 H532 0.951 . S
C533 C539 1.265 . S
H534 C539 0.950 . S
H535 C543 0.949 . S
H536 C544 0.950 . S
H537 C545 0.951 . S
H538 C546 0.951 . S
C539 C533 1.265 . S
C539 H534 0.950 . S
C539 C540 1.478 . S
C540 C539 1.478 . S
C540 C541 1.397 1_554 S
C540 C557 1.394 . S
C541 C540 1.397 1_556 S
C541 C542 1.438 . S
C541 C546 1.429 . S
C542 C541 1.438 . S
C542 C543 1.428 . S
C542 C555 1.394 1_556 S
C543 H535 0.949 . S
C543 C542 1.428 . S
C543 C544 1.345 . S
C544 H536 0.950 . S
C544 C543 1.345 . S
C544 C545 1.424 . S
C545 H537 0.951 . S
C545 C544 1.424 . S
C545 C546 1.347 . S
C546 H538 0.951 . S
C546 C541 1.429 . S
C546 C545 1.347 . S
H547 C548 0.951 . S
C548 H547 0.951 . S
C548 C554 1.265 . S
H549 C554 0.950 . S
H550 C558 0.949 . S
H551 C559 0.950 . S
H552 C560 0.951 . S
H553 C561 0.951 . S
C554 C548 1.265 . S
C554 H549 0.950 . S
C554 C555 1.478 . S
C555 C542 1.394 1_554 S
C555 C554 1.478 . S
C555 C556 1.397 . S
C556 C555 1.397 . S
C556 C557 1.438 . S
C556 C561 1.429 . S
C557 C540 1.394 . S
C557 C556 1.438 . S
C557 C558 1.428 . S
C558 H550 0.949 . S
C558 C557 1.428 . S
C558 C559 1.345 . S
C559 H551 0.950 . S
C559 C558 1.345 . S
C559 C560 1.424 . S
C560 H552 0.951 . S
C560 C559 1.424 . S
C560 C561 1.347 . S
C561 H553 0.951 . S
C561 C556 1.429 . S
C561 C560 1.347 . S
H562 C563 0.951 . S
C563 H562 0.951 . S
C563 C569 1.265 . S
H564 C569 0.950 . S
H565 C573 0.949 . S
H566 C574 0.950 . S
H567 C575 0.951 . S
H568 C576 0.951 . S
C569 C563 1.265 . S
C569 H564 0.950 . S
C569 C570 1.478 . S
C570 C569 1.478 . S
C570 C571 1.397 . S
C570 C587 1.394 . S
C571 C570 1.397 . S
C571 C572 1.438 . S
C571 C576 1.429 . S
C572 C571 1.438 . S
C572 C573 1.428 . S
C572 C585 1.394 . S
C573 H565 0.949 . S
C573 C572 1.428 . S
C573 C574 1.345 . S
C574 H566 0.950 . S
C574 C573 1.345 . S
C574 C575 1.424 . S
C575 H567 0.951 . S
C575 C574 1.424 . S
C575 C576 1.347 . S
C576 H568 0.951 . S
C576 C571 1.429 . S
C576 C575 1.347 . S
H577 C578 0.951 . S
C578 H577 0.951 . S
C578 C584 1.265 . S
H579 C584 0.950 . S
H580 C588 0.949 . S
H581 C589 0.950 . S
H582 C590 0.951 . S
H583 C591 0.951 . S
C584 C578 1.265 . S
C584 H579 0.950 . S
C584 C585 1.478 . S
C585 C572 1.394 . S
C585 C584 1.478 . S
C585 C586 1.397 . S
C586 C585 1.397 . S
C586 C587 1.438 . S
C586 C591 1.429 . S
C587 C570 1.394 . S
C587 C586 1.438 . S
C587 C588 1.428 . S
C588 H580 0.949 . S
C588 C587 1.428 . S
C588 C589 1.345 . S
C589 H581 0.950 . S
C589 C588 1.345 . S
C589 C590 1.424 . S
C590 H582 0.951 . S
C590 C589 1.424 . S
C590 C591 1.347 . S
C591 H583 0.951 . S
C591 C586 1.429 . S
C591 C590 1.347 . S
C113 C7 1.255 . S
C128 C63 1.327 . S
C143 C21 1.296 . S
C158 C77 1.291 . S
C173 C91 1.327 . S
C188 C35 1.255 . S
C203 C105 1.293 . S
C218 C49 1.293 . S
C233 C87 1.195 . S
C248 C31 1.154 . S
C263 C101 1.233 . S
C278 C45 1.231 . S
C293 C3 1.201 . S
C308 C59 1.160 . S
C323 C17 1.130 . S
C338 C73 1.132 . S
C353 C37 1.288 . S
C368 C9 1.291 . S
C383 C51 1.384 . S
C398 C23 1.384 . S
C413 C65 1.284 . S
C428 C93 1.283 . S
C443 C107 1.284 . S
C458 C79 1.285 . S
C473 C8 1.344 . S
C488 C78 1.337 . S
C503 C92 1.335 . S
C518 C22 1.335 . S
C533 C36 1.340 . S
C548 C106 1.347 . S
C563 C50 1.346 . S
C578 C64 1.339 . S
