# Generated by pormake.
# Topology wgd, (5)-cn, num edge types: 1
# Building blocks:
#     Node 0, Type 0, BuildingBlock: BEQFEK_clean_sbu_0, # of connection points: 5
#     Node 1, Type 0, BuildingBlock: BEQFEK_clean_sbu_0, # of connection points: 5
#     Node 2, Type 0, BuildingBlock: BEQFEK_clean_sbu_0, # of connection points: 5
#     Node 3, Type 0, BuildingBlock: BEQFEK_clean_sbu_0, # of connection points: 5
#     Node 4, Type 0, BuildingBlock: BEQFEK_clean_sbu_0, # of connection points: 5
#     Node 5, Type 0, BuildingBlock: BEQFEK_clean_sbu_0, # of connection points: 5
#     Node 6, Type 0, BuildingBlock: BEQFEK_clean_sbu_0, # of connection points: 5
#     Node 7, Type 0, BuildingBlock: BEQFEK_clean_sbu_0, # of connection points: 5
#     Node 8, Type 0, BuildingBlock: BEQFEK_clean_sbu_0, # of connection points: 5
#     Node 9, Type 0, BuildingBlock: BEQFEK_clean_sbu_0, # of connection points: 5
#     Node 10, Type 0, BuildingBlock: BEQFEK_clean_sbu_0, # of connection points: 5
#     Node 11, Type 0, BuildingBlock: BEQFEK_clean_sbu_0, # of connection points: 5
#     Node 12, Type 0, BuildingBlock: BEQFEK_clean_sbu_0, # of connection points: 5
#     Node 13, Type 0, BuildingBlock: BEQFEK_clean_sbu_0, # of connection points: 5
#     Node 14, Type 0, BuildingBlock: BEQFEK_clean_sbu_0, # of connection points: 5
#     Node 15, Type 0, BuildingBlock: BEQFEK_clean_sbu_0, # of connection points: 5
#     Node 16, Type 0, BuildingBlock: BEQFEK_clean_sbu_0, # of connection points: 5
#     Node 17, Type 0, BuildingBlock: BEQFEK_clean_sbu_0, # of connection points: 5
#     Node 18, Type 0, BuildingBlock: BEQFEK_clean_sbu_0, # of connection points: 5
#     Node 19, Type 0, BuildingBlock: BEQFEK_clean_sbu_0, # of connection points: 5
#     Node 20, Type 0, BuildingBlock: BEQFEK_clean_sbu_0, # of connection points: 5
#     Node 21, Type 0, BuildingBlock: BEQFEK_clean_sbu_0, # of connection points: 5
#     Node 22, Type 0, BuildingBlock: BEQFEK_clean_sbu_0, # of connection points: 5
#     Node 23, Type 0, BuildingBlock: BEQFEK_clean_sbu_0, # of connection points: 5
#     Node 24, Type 0, BuildingBlock: BEQFEK_clean_sbu_0, # of connection points: 5
#     Node 25, Type 0, BuildingBlock: BEQFEK_clean_sbu_0, # of connection points: 5
#     Node 26, Type 0, BuildingBlock: BEQFEK_clean_sbu_0, # of connection points: 5
#     Node 27, Type 0, BuildingBlock: BEQFEK_clean_sbu_0, # of connection points: 5
#     Node 28, Type 0, BuildingBlock: BEQFEK_clean_sbu_0, # of connection points: 5
#     Node 29, Type 0, BuildingBlock: BEQFEK_clean_sbu_0, # of connection points: 5
#     Node 30, Type 0, BuildingBlock: BEQFEK_clean_sbu_0, # of connection points: 5
#     Node 31, Type 0, BuildingBlock: BEQFEK_clean_sbu_0, # of connection points: 5
#     Edge 32, Type (0, 0), BuildingBlock: ZUJKAS_clean_linker_0, # of connection points: 2
#     Edge 33, Type (0, 0), BuildingBlock: ZUJKAS_clean_linker_0, # of connection points: 2
#     Edge 34, Type (0, 0), BuildingBlock: ZUJKAS_clean_linker_0, # of connection points: 2
#     Edge 35, Type (0, 0), BuildingBlock: ZUJKAS_clean_linker_0, # of connection points: 2
#     Edge 36, Type (0, 0), BuildingBlock: ZUJKAS_clean_linker_0, # of connection points: 2
#     Edge 37, Type (0, 0), BuildingBlock: ZUJKAS_clean_linker_0, # of connection points: 2
#     Edge 38, Type (0, 0), BuildingBlock: ZUJKAS_clean_linker_0, # of connection points: 2
#     Edge 39, Type (0, 0), BuildingBlock: ZUJKAS_clean_linker_0, # of connection points: 2
#     Edge 40, Type (0, 0), BuildingBlock: ZUJKAS_clean_linker_0, # of connection points: 2
#     Edge 41, Type (0, 0), BuildingBlock: ZUJKAS_clean_linker_0, # of connection points: 2
#     Edge 42, Type (0, 0), BuildingBlock: ZUJKAS_clean_linker_0, # of connection points: 2
#     Edge 43, Type (0, 0), BuildingBlock: ZUJKAS_clean_linker_0, # of connection points: 2
#     Edge 44, Type (0, 0), BuildingBlock: ZUJKAS_clean_linker_0, # of connection points: 2
#     Edge 45, Type (0, 0), BuildingBlock: ZUJKAS_clean_linker_0, # of connection points: 2
#     Edge 46, Type (0, 0), BuildingBlock: ZUJKAS_clean_linker_0, # of connection points: 2
#     Edge 47, Type (0, 0), BuildingBlock: ZUJKAS_clean_linker_0, # of connection points: 2
#     Edge 48, Type (0, 0), BuildingBlock: ZUJKAS_clean_linker_0, # of connection points: 2
#     Edge 49, Type (0, 0), BuildingBlock: ZUJKAS_clean_linker_0, # of connection points: 2
#     Edge 50, Type (0, 0), BuildingBlock: ZUJKAS_clean_linker_0, # of connection points: 2
#     Edge 51, Type (0, 0), BuildingBlock: ZUJKAS_clean_linker_0, # of connection points: 2
#     Edge 52, Type (0, 0), BuildingBlock: ZUJKAS_clean_linker_0, # of connection points: 2
#     Edge 53, Type (0, 0), BuildingBlock: ZUJKAS_clean_linker_0, # of connection points: 2
#     Edge 54, Type (0, 0), BuildingBlock: ZUJKAS_clean_linker_0, # of connection points: 2
#     Edge 55, Type (0, 0), BuildingBlock: ZUJKAS_clean_linker_0, # of connection points: 2
#     Edge 56, Type (0, 0), BuildingBlock: ZUJKAS_clean_linker_0, # of connection points: 2
#     Edge 57, Type (0, 0), BuildingBlock: ZUJKAS_clean_linker_0, # of connection points: 2
#     Edge 58, Type (0, 0), BuildingBlock: ZUJKAS_clean_linker_0, # of connection points: 2
#     Edge 59, Type (0, 0), BuildingBlock: ZUJKAS_clean_linker_0, # of connection points: 2
#     Edge 60, Type (0, 0), BuildingBlock: ZUJKAS_clean_linker_0, # of connection points: 2
#     Edge 61, Type (0, 0), BuildingBlock: ZUJKAS_clean_linker_0, # of connection points: 2
#     Edge 62, Type (0, 0), BuildingBlock: ZUJKAS_clean_linker_0, # of connection points: 2
#     Edge 63, Type (0, 0), BuildingBlock: ZUJKAS_clean_linker_0, # of connection points: 2
#     Edge 64, Type (0, 0), BuildingBlock: ZUJKAS_clean_linker_0, # of connection points: 2
#     Edge 65, Type (0, 0), BuildingBlock: ZUJKAS_clean_linker_0, # of connection points: 2
#     Edge 66, Type (0, 0), BuildingBlock: ZUJKAS_clean_linker_0, # of connection points: 2
#     Edge 67, Type (0, 0), BuildingBlock: ZUJKAS_clean_linker_0, # of connection points: 2
#     Edge 68, Type (0, 0), BuildingBlock: ZUJKAS_clean_linker_0, # of connection points: 2
#     Edge 69, Type (0, 0), BuildingBlock: ZUJKAS_clean_linker_0, # of connection points: 2
#     Edge 70, Type (0, 0), BuildingBlock: ZUJKAS_clean_linker_0, # of connection points: 2
#     Edge 71, Type (0, 0), BuildingBlock: ZUJKAS_clean_linker_0, # of connection points: 2
#     Edge 72, Type (0, 0), BuildingBlock: ZUJKAS_clean_linker_0, # of connection points: 2
#     Edge 73, Type (0, 0), BuildingBlock: ZUJKAS_clean_linker_0, # of connection points: 2
#     Edge 74, Type (0, 0), BuildingBlock: ZUJKAS_clean_linker_0, # of connection points: 2
#     Edge 75, Type (0, 0), BuildingBlock: ZUJKAS_clean_linker_0, # of connection points: 2
#     Edge 76, Type (0, 0), BuildingBlock: ZUJKAS_clean_linker_0, # of connection points: 2
#     Edge 77, Type (0, 0), BuildingBlock: ZUJKAS_clean_linker_0, # of connection points: 2
#     Edge 78, Type (0, 0), BuildingBlock: ZUJKAS_clean_linker_0, # of connection points: 2
#     Edge 79, Type (0, 0), BuildingBlock: ZUJKAS_clean_linker_0, # of connection points: 2
#     Edge 80, Type (0, 0), BuildingBlock: ZUJKAS_clean_linker_0, # of connection points: 2
#     Edge 81, Type (0, 0), BuildingBlock: ZUJKAS_clean_linker_0, # of connection points: 2
#     Edge 82, Type (0, 0), BuildingBlock: ZUJKAS_clean_linker_0, # of connection points: 2
#     Edge 83, Type (0, 0), BuildingBlock: ZUJKAS_clean_linker_0, # of connection points: 2
#     Edge 84, Type (0, 0), BuildingBlock: ZUJKAS_clean_linker_0, # of connection points: 2
#     Edge 85, Type (0, 0), BuildingBlock: ZUJKAS_clean_linker_0, # of connection points: 2
#     Edge 86, Type (0, 0), BuildingBlock: ZUJKAS_clean_linker_0, # of connection points: 2
#     Edge 87, Type (0, 0), BuildingBlock: ZUJKAS_clean_linker_0, # of connection points: 2
#     Edge 88, Type (0, 0), BuildingBlock: ZUJKAS_clean_linker_0, # of connection points: 2
#     Edge 89, Type (0, 0), BuildingBlock: ZUJKAS_clean_linker_0, # of connection points: 2
#     Edge 90, Type (0, 0), BuildingBlock: ZUJKAS_clean_linker_0, # of connection points: 2
#     Edge 91, Type (0, 0), BuildingBlock: ZUJKAS_clean_linker_0, # of connection points: 2
#     Edge 92, Type (0, 0), BuildingBlock: ZUJKAS_clean_linker_0, # of connection points: 2
#     Edge 93, Type (0, 0), BuildingBlock: ZUJKAS_clean_linker_0, # of connection points: 2
#     Edge 94, Type (0, 0), BuildingBlock: ZUJKAS_clean_linker_0, # of connection points: 2
#     Edge 95, Type (0, 0), BuildingBlock: ZUJKAS_clean_linker_0, # of connection points: 2
#     Edge 96, Type (0, 0), BuildingBlock: ZUJKAS_clean_linker_0, # of connection points: 2
#     Edge 97, Type (0, 0), BuildingBlock: ZUJKAS_clean_linker_0, # of connection points: 2
#     Edge 98, Type (0, 0), BuildingBlock: ZUJKAS_clean_linker_0, # of connection points: 2
#     Edge 99, Type (0, 0), BuildingBlock: ZUJKAS_clean_linker_0, # of connection points: 2
#     Edge 100, Type (0, 0), BuildingBlock: ZUJKAS_clean_linker_0, # of connection points: 2
#     Edge 101, Type (0, 0), BuildingBlock: ZUJKAS_clean_linker_0, # of connection points: 2
#     Edge 102, Type (0, 0), BuildingBlock: ZUJKAS_clean_linker_0, # of connection points: 2
#     Edge 103, Type (0, 0), BuildingBlock: ZUJKAS_clean_linker_0, # of connection points: 2
#     Edge 104, Type (0, 0), BuildingBlock: ZUJKAS_clean_linker_0, # of connection points: 2
#     Edge 105, Type (0, 0), BuildingBlock: ZUJKAS_clean_linker_0, # of connection points: 2
#     Edge 106, Type (0, 0), BuildingBlock: ZUJKAS_clean_linker_0, # of connection points: 2
#     Edge 107, Type (0, 0), BuildingBlock: ZUJKAS_clean_linker_0, # of connection points: 2
#     Edge 108, Type (0, 0), BuildingBlock: ZUJKAS_clean_linker_0, # of connection points: 2
#     Edge 109, Type (0, 0), BuildingBlock: ZUJKAS_clean_linker_0, # of connection points: 2
#     Edge 110, Type (0, 0), BuildingBlock: ZUJKAS_clean_linker_0, # of connection points: 2
#     Edge 111, Type (0, 0), BuildingBlock: ZUJKAS_clean_linker_0, # of connection points: 2
# Relax obj value: 0.262
# Max RMSD: 0.221
# Mean RMSD: 0.221
data_MOF--net-wgd--node1-BEQFEK_clean_sbu_0--edge1-ZUJKAS_clean_linker_0
_symmetry_space_group_name_H-M    P1
_symmetry_Int_Tables_number       1
_symmetry_cell_setting            triclinic
loop_
_symmetry_equiv_pos_as_xyz
'x, y, z'
_cell_length_a     130.02768
_cell_length_b     130.0235
_cell_length_c     22.441429
_cell_angle_alpha  90.012151
_cell_angle_beta   89.992494
_cell_angle_gamma 90.000626
loop_
_atom_site_label
_atom_site_type_symbol
_atom_site_fract_x
_atom_site_fract_y
_atom_site_fract_z
_atom_type_partial_charge
Co0 Co 0.18228 0.17502 0.0826 0.0
Co1 Co 0.19334 0.17425 0.95965 0.0
C2 C 0.18565 0.1941 0.01552 0.0
O3 O 0.18172 0.18963 0.0604 0.0
O4 O 0.19039 0.18903 0.97552 0.0
C5 C 0.16824 0.1789 0.18044 0.0
O6 O 0.16506 0.18697 0.15037 0.0
C7 C 0.19187 0.17757 0.83335 0.0
C8 C 0.20321 0.16672 0.79561 0.0
C9 C 0.19531 0.17338 0.78021 0.0
N10 N 0.19718 0.17329 0.87817 0.0
N11 N 0.20413 0.16699 0.85545 0.0
C12 C 0.18352 0.18537 0.8423 0.0
H13 H 0.18661 0.19193 0.86809 0.0
H14 H 0.17716 0.18191 0.8685 0.0
H15 H 0.18056 0.18847 0.79964 0.0
C16 C 0.16847 0.16026 0.02392 0.0
N17 N 0.17662 0.16662 0.02342 0.0
N18 N 0.18144 0.16584 0.97209 0.0
C19 C 0.17654 0.15876 0.93842 0.0
C20 C 0.16814 0.15508 0.97009 0.0
C21 C 0.16158 0.15874 0.07662 0.0
H22 H 0.16627 0.15641 0.11563 0.0
H23 H 0.15776 0.16613 0.08764 0.0
H24 H 0.15566 0.15276 0.06834 0.0
O25 O 0.19663 0.17089 0.09854 0.0
O26 O 0.20482 0.16978 0.01193 0.0
H27 H 0.18809 0.1542 0.87572 0.0
H28 H 0.17558 0.14875 0.86109 0.0
C29 C 0.17971 0.15568 0.87683 0.0
H30 H 0.17791 0.16203 0.8457 0.0
H31 H 0.20908 0.16245 0.88083 0.0
O32 O 0.17505 0.17306 0.15821 0.0
C33 C 0.20471 0.16897 0.06853 0.0
Co34 Co 0.07257 0.93082 0.33011 0.0
Co35 Co 0.07374 0.94311 0.211 0.0
C36 C 0.05384 0.93421 0.25846 0.0
O37 O 0.05817 0.93014 0.30345 0.0
O38 O 0.05896 0.93944 0.22078 0.0
C39 C 0.06715 0.9188 0.43337 0.0
O40 O 0.05789 0.91856 0.41003 0.0
C41 C 0.07162 0.94337 0.0836 0.0
C42 C 0.08114 0.95658 0.05553 0.0
C43 C 0.07525 0.94851 0.03388 0.0
N44 N 0.07518 0.94815 0.13231 0.0
N45 N 0.08073 0.95616 0.11551 0.0
C46 C 0.06597 0.93333 0.08531 0.0
H47 H 0.06724 0.92938 0.12848 0.0
H48 H 0.06848 0.92825 0.04835 0.0
H49 H 0.05761 0.93482 0.08028 0.0
C50 C 0.08806 0.91807 0.26938 0.0
N51 N 0.08153 0.92608 0.27072 0.0
N52 N 0.08241 0.93141 0.22119 0.0
C53 C 0.08973 0.92702 0.18695 0.0
C54 C 0.09348 0.9184 0.21626 0.0
C55 C 0.08879 0.91014 0.3175 0.0
H56 H 0.08097 0.90817 0.3337 0.0
H57 H 0.09266 0.90305 0.3015 0.0
H58 H 0.0932 0.91336 0.35549 0.0
O59 O 0.07612 0.94512 0.35212 0.0
O60 O 0.0774 0.95407 0.26831 0.0
H61 H 0.1015 0.92851 0.1194 0.0
H62 H 0.08847 0.92911 0.0928 0.0
C63 C 0.09366 0.9314 0.12964 0.0
H64 H 0.0939 0.9399 0.1323 0.0
H65 H 0.08461 0.96103 0.14481 0.0
O66 O 0.07442 0.92301 0.4045 0.0
C67 C 0.07791 0.95352 0.32488 0.0
Co68 Co 0.31379 0.82411 0.56959 0.0
Co69 Co 0.30337 0.82496 0.44491 0.0
C70 C 0.31067 0.80507 0.50121 0.0
O71 O 0.31439 0.80954 0.54672 0.0
O72 O 0.30611 0.81015 0.46059 0.0
C73 C 0.32786 0.82007 0.66671 0.0
O74 O 0.33125 0.81231 0.63487 0.0
C75 C 0.305 0.82146 0.31882 0.0
C76 C 0.29426 0.83278 0.27999 0.0
C77 C 0.30187 0.82575 0.26536 0.0
N78 N 0.2998 0.82603 0.36314 0.0
N79 N 0.29319 0.83261 0.33975 0.0
C80 C 0.31294 0.81327 0.32857 0.0
H81 H 0.30937 0.80675 0.35254 0.0
H82 H 0.31923 0.81634 0.35689 0.0
H83 H 0.31609 0.81022 0.28626 0.0
C84 C 0.32797 0.83886 0.51328 0.0
N85 N 0.31977 0.83255 0.51152 0.0
N86 N 0.3153 0.83323 0.4591 0.0
C87 C 0.3205 0.84015 0.42585 0.0
C88 C 0.32871 0.84388 0.45906 0.0
C89 C 0.33455 0.84045 0.56721 0.0
H90 H 0.32961 0.84247 0.60576 0.0
H91 H 0.3386 0.83318 0.5779 0.0
H92 H 0.34028 0.84666 0.56046 0.0
O93 O 0.29938 0.8283 0.58387 0.0
O94 O 0.29175 0.82953 0.49567 0.0
H95 H 0.3096 0.84488 0.35984 0.0
H96 H 0.32248 0.8495 0.34634 0.0
C97 C 0.31788 0.84294 0.36296 0.0
H98 H 0.31948 0.83627 0.33378 0.0
H99 H 0.28841 0.83741 0.36466 0.0
O100 O 0.32083 0.82583 0.64596 0.0
C101 C 0.2915 0.8303 0.55228 0.0
Co102 Co 0.42382 0.0635 0.83158 0.0
Co103 Co 0.42475 0.05441 0.70314 0.0
C104 C 0.44373 0.06157 0.76572 0.0
O105 O 0.43862 0.06455 0.81089 0.0
O106 O 0.43931 0.05734 0.72155 0.0
C107 C 0.42747 0.07783 0.9264 0.0
O108 O 0.43461 0.08157 0.89118 0.0
C109 C 0.42954 0.05474 0.57677 0.0
C110 C 0.41638 0.04645 0.53735 0.0
C111 C 0.42493 0.05231 0.52298 0.0
N112 N 0.42378 0.05086 0.62101 0.0
N113 N 0.41607 0.04566 0.59721 0.0
C114 C 0.43905 0.06102 0.58651 0.0
H115 H 0.4447 0.05632 0.61142 0.0
H116 H 0.43721 0.06787 0.61395 0.0
H117 H 0.44269 0.06341 0.54404 0.0
C118 C 0.4083 0.07692 0.77601 0.0
N119 N 0.41543 0.06945 0.77309 0.0
N120 N 0.41637 0.06628 0.71776 0.0
C121 C 0.41025 0.07212 0.68284 0.0
C122 C 0.40479 0.07898 0.71868 0.0
C123 C 0.40433 0.08124 0.83346 0.0
H124 H 0.40433 0.07521 0.86834 0.0
H125 H 0.40945 0.08758 0.84822 0.0
H126 H 0.39638 0.08422 0.82854 0.0
O127 O 0.41993 0.0491 0.84285 0.0
O128 O 0.42006 0.04238 0.75191 0.0
H129 H 0.40612 0.06501 0.60022 0.0
H130 H 0.40711 0.07888 0.59623 0.0
C131 C 0.41043 0.07183 0.61616 0.0
H132 H 0.41847 0.07128 0.60068 0.0
H133 H 0.41025 0.04214 0.62183 0.0
O134 O 0.42194 0.07039 0.90861 0.0
C135 C 0.41859 0.04152 0.80792 0.0
Co136 Co 0.17906 0.82172 0.91205 0.0
Co137 Co 0.19226 0.82455 0.02705 0.0
C138 C 0.18381 0.80388 0.98869 0.0
O139 O 0.17908 0.80765 0.94414 0.0
O140 O 0.18925 0.80952 0.02264 0.0
C141 C 0.17026 0.8146 0.80484 0.0
O142 O 0.17361 0.80572 0.82485 0.0
C143 C 0.19399 0.82291 0.15439 0.0
C144 C 0.20625 0.83396 0.17769 0.0
C145 C 0.19916 0.82721 0.20221 0.0
N146 N 0.19782 0.8269 0.10401 0.0
N147 N 0.20528 0.83338 0.11794 0.0
C148 C 0.1846 0.81622 0.15631 0.0
H149 H 0.17992 0.81729 0.11547 0.0
H150 H 0.17981 0.81801 0.19592 0.0
H151 H 0.18701 0.80805 0.15885 0.0
C152 C 0.16634 0.83752 0.97012 0.0
N153 N 0.17447 0.83115 0.96929 0.0
N154 N 0.18008 0.83262 0.01733 0.0
C155 C 0.17571 0.84013 0.0502 0.0
C156 C 0.16684 0.84344 0.0214 0.0
C157 C 0.15868 0.83831 0.92052 0.0
H158 H 0.16277 0.84017 0.87849 0.0
H159 H 0.15487 0.83075 0.91433 0.0
H160 H 0.15281 0.84431 0.92914 0.0
O161 O 0.19298 0.82557 0.88529 0.0
O162 O 0.20259 0.8282 0.96548 0.0
H163 H 0.18809 0.84572 0.10418 0.0
H164 H 0.17565 0.85078 0.12496 0.0
C165 C 0.1798 0.84389 0.10864 0.0
H166 H 0.17891 0.83776 0.14246 0.0
H167 H 0.20937 0.83772 0.08693 0.0
O168 O 0.17082 0.82244 0.8385 0.0
C169 C 0.2015 0.82807 0.90907 0.0
Co170 Co 0.42705 0.92828 0.15895 0.0
Co171 Co 0.42373 0.94161 0.27313 0.0
C172 C 0.44461 0.93319 0.23662 0.0
O173 O 0.44109 0.92839 0.19165 0.0
O174 O 0.43876 0.9386 0.26964 0.0
C175 C 0.434 0.91961 0.05072 0.0
O176 O 0.4429 0.92311 0.06964 0.0
C177 C 0.4249 0.94279 0.40069 0.0
C178 C 0.41438 0.95548 0.42449 0.0
C179 C 0.4207 0.94798 0.4487 0.0
N180 N 0.42128 0.94702 0.35042 0.0
N181 N 0.4151 0.95471 0.36467 0.0
C182 C 0.43122 0.93316 0.40218 0.0
H183 H 0.43022 0.92872 0.36038 0.0
H184 H 0.42904 0.92828 0.44073 0.0
H185 H 0.43946 0.93525 0.40661 0.0
C186 C 0.4115 0.91528 0.21752 0.0
N187 N 0.4176 0.92363 0.21593 0.0
N188 N 0.41584 0.92936 0.26313 0.0
C189 C 0.4084 0.92489 0.29599 0.0
C190 C 0.40546 0.9158 0.26835 0.0
C191 C 0.41172 0.9069 0.17186 0.0
H192 H 0.40729 0.90941 0.13216 0.0
H193 H 0.41976 0.90543 0.15769 0.0
H194 H 0.40831 0.89969 0.18941 0.0
O195 O 0.42318 0.94221 0.13209 0.0
O196 O 0.42012 0.95191 0.21138 0.0
H197 H 0.39585 0.92635 0.35878 0.0
H198 H 0.40852 0.92806 0.38943 0.0
C199 C 0.40359 0.9296 0.35014 0.0
H200 H 0.40288 0.93803 0.34421 0.0
H201 H 0.41108 0.95914 0.33377 0.0
O202 O 0.42628 0.92009 0.08521 0.0
C203 C 0.4205 0.95074 0.15506 0.0
Co204 Co 0.31915 0.17632 0.40421 0.0
Co205 Co 0.30749 0.17502 0.52548 0.0
C206 C 0.31554 0.19502 0.47954 0.0
O207 O 0.31953 0.19066 0.43433 0.0
O208 O 0.31045 0.1899 0.51781 0.0
C209 C 0.32971 0.1833 0.29973 0.0
O210 O 0.32819 0.19248 0.32249 0.0
C211 C 0.30472 0.17724 0.65357 0.0
C212 C 0.29455 0.16412 0.6748 0.0
C213 C 0.30018 0.17201 0.70053 0.0
N214 N 0.30198 0.17259 0.60257 0.0
N215 N 0.2957 0.1649 0.61535 0.0
C216 C 0.3128 0.18545 0.65728 0.0
H217 H 0.31792 0.18515 0.61786 0.0
H218 H 0.31753 0.18457 0.69807 0.0
H219 H 0.30899 0.19308 0.65857 0.0
C220 C 0.33152 0.15988 0.45993 0.0
N221 N 0.32399 0.16696 0.46157 0.0
N222 N 0.31962 0.16689 0.51439 0.0
C223 C 0.32459 0.16006 0.54926 0.0
C224 C 0.33224 0.15526 0.51572 0.0
C225 C 0.3372 0.15704 0.40425 0.0
H226 H 0.33196 0.15749 0.36536 0.0
H227 H 0.34359 0.16257 0.3972 0.0
H228 H 0.34036 0.14913 0.40685 0.0
O229 O 0.30506 0.17267 0.38117 0.0
O230 O 0.29668 0.17111 0.46671 0.0
H231 H 0.31527 0.15452 0.62107 0.0
H232 H 0.3289 0.15471 0.63764 0.0
C233 C 0.32257 0.15878 0.61455 0.0
H234 H 0.32186 0.16642 0.63554 0.0
H235 H 0.29268 0.15985 0.58376 0.0
O236 O 0.32713 0.17542 0.32969 0.0
C237 C 0.29689 0.17067 0.41001 0.0
Co238 Co 0.0731 0.06821 0.66067 0.0
Co239 Co 0.07398 0.05644 0.78141 0.0
C240 C 0.05416 0.06493 0.73091 0.0
O241 O 0.05863 0.0688 0.68579 0.0
O242 O 0.05918 0.05993 0.7701 0.0
C243 C 0.06794 0.08078 0.55893 0.0
O244 O 0.05883 0.08164 0.58375 0.0
C245 C 0.0717 0.0564 0.9088 0.0
C246 C 0.0813 0.0433 0.93775 0.0
C247 C 0.07535 0.05137 0.95885 0.0
N248 N 0.07533 0.05157 0.86044 0.0
N249 N 0.08092 0.04363 0.87776 0.0
C250 C 0.06598 0.0664 0.90642 0.0
H251 H 0.06718 0.07024 0.86285 0.0
H252 H 0.0685 0.07159 0.94284 0.0
H253 H 0.05764 0.06487 0.91193 0.0
C254 C 0.08821 0.0814 0.72149 0.0
N255 N 0.08181 0.07328 0.72041 0.0
N256 N 0.08259 0.06816 0.77073 0.0
C257 C 0.08974 0.07278 0.80516 0.0
C258 C 0.09347 0.08135 0.77523 0.0
C259 C 0.08892 0.08921 0.67269 0.0
H260 H 0.0934 0.08594 0.63515 0.0
H261 H 0.0811 0.09106 0.65606 0.0
H262 H 0.09268 0.09639 0.68817 0.0
O263 O 0.07683 0.05386 0.64023 0.0
O264 O 0.07789 0.04536 0.72568 0.0
H265 H 0.09385 0.06014 0.86184 0.0
H266 H 0.10136 0.07161 0.87373 0.0
C267 C 0.09357 0.06864 0.86334 0.0
H268 H 0.08828 0.07105 0.89949 0.0
H269 H 0.08485 0.03873 0.84879 0.0
O270 O 0.075 0.07591 0.58604 0.0
C271 C 0.07858 0.04561 0.66912 0.0
Co272 Co 0.81864 0.82163 0.9108 0.0
Co273 Co 0.80594 0.82353 0.02815 0.0
C274 C 0.81505 0.80335 0.98565 0.0
O275 O 0.81932 0.8074 0.94037 0.0
O276 O 0.80964 0.80871 0.02135 0.0
C277 C 0.82971 0.8155 0.80624 0.0
O278 O 0.82879 0.80619 0.82829 0.0
C279 C 0.80555 0.82175 0.15538 0.0
C280 C 0.79229 0.83124 0.18294 0.0
C281 C 0.80035 0.82536 0.2049 0.0
N282 N 0.80081 0.82527 0.10648 0.0
N283 N 0.79278 0.83083 0.12294 0.0
C284 C 0.81561 0.81612 0.15406 0.0
H285 H 0.81965 0.81747 0.11126 0.0
H286 H 0.82061 0.81859 0.19147 0.0
H287 H 0.81414 0.80775 0.1585 0.0
C288 C 0.83124 0.83742 0.96996 0.0
N289 N 0.82319 0.83093 0.96882 0.0
N290 N 0.81768 0.83212 0.01751 0.0
C291 C 0.822 0.83958 0.05095 0.0
C292 C 0.83075 0.84313 0.02206 0.0
C293 C 0.83936 0.83782 0.92279 0.0
H294 H 0.83636 0.84216 0.88391 0.0
H295 H 0.84124 0.82992 0.90775 0.0
H296 H 0.84645 0.84162 0.93925 0.0
O297 O 0.80439 0.82501 0.88689 0.0
O298 O 0.79513 0.8269 0.9692 0.0
H299 H 0.80897 0.84404 0.10363 0.0
H300 H 0.82033 0.85168 0.1164 0.0
C301 C 0.81746 0.84381 0.10716 0.0
H302 H 0.81962 0.83878 0.14505 0.0
H303 H 0.78792 0.83465 0.09344 0.0
O304 O 0.8266 0.82312 0.8367 0.0
C305 C 0.7959 0.82702 0.91262 0.0
Co306 Co 0.92456 0.06607 0.66409 0.0
Co307 Co 0.92437 0.05508 0.78761 0.0
C308 C 0.94389 0.06306 0.72948 0.0
O309 O 0.93921 0.0669 0.68506 0.0
O310 O 0.93903 0.05824 0.76996 0.0
C311 C 0.92822 0.08002 0.56622 0.0
O312 O 0.93618 0.08325 0.59706 0.0
C313 C 0.92821 0.05694 0.91327 0.0
C314 C 0.91813 0.0452 0.95376 0.0
C315 C 0.92455 0.05338 0.96742 0.0
N316 N 0.92387 0.05139 0.86957 0.0
N317 N 0.91803 0.04421 0.89392 0.0
C318 C 0.93559 0.0656 0.9023 0.0
H319 H 0.94228 0.06265 0.87701 0.0
H320 H 0.93182 0.07159 0.87475 0.0
H321 H 0.93856 0.069 0.94415 0.0
C322 C 0.9096 0.07956 0.72411 0.0
N323 N 0.91621 0.0716 0.7241 0.0
N324 N 0.91573 0.0668 0.77563 0.0
C325 C 0.90861 0.0715 0.80992 0.0
C326 C 0.90456 0.07975 0.77848 0.0
C327 C 0.9077 0.08635 0.67141 0.0
H328 H 0.90544 0.08154 0.63271 0.0
H329 H 0.91492 0.0904 0.6596 0.0
H330 H 0.90155 0.09206 0.68013 0.0
O331 O 0.92063 0.05162 0.64918 0.0
O332 O 0.9198 0.04352 0.73619 0.0
H333 H 0.90464 0.05983 0.87325 0.0
H334 H 0.89883 0.07216 0.88846 0.0
C335 C 0.90583 0.06826 0.87188 0.0
H336 H 0.91221 0.07029 0.90228 0.0
H337 H 0.91355 0.03903 0.86973 0.0
O338 O 0.92235 0.0732 0.5881 0.0
C339 C 0.91886 0.04354 0.67962 0.0
Co340 Co 0.6828 0.17519 0.41989 0.0
Co341 Co 0.69378 0.17427 0.54327 0.0
C342 C 0.6853 0.19401 0.49228 0.0
O343 O 0.68218 0.18968 0.44487 0.0
O344 O 0.68979 0.18895 0.53325 0.0
C345 C 0.66958 0.18034 0.32141 0.0
O346 O 0.6675 0.18872 0.35186 0.0
C347 C 0.69257 0.17678 0.66983 0.0
C348 C 0.70595 0.16823 0.70471 0.0
C349 C 0.69744 0.17392 0.72205 0.0
N350 N 0.69795 0.17304 0.62377 0.0
N351 N 0.70602 0.16801 0.6446 0.0
C352 C 0.68234 0.18197 0.66347 0.0
H353 H 0.67886 0.18022 0.61954 0.0
H354 H 0.67703 0.17951 0.69943 0.0
H355 H 0.68343 0.19041 0.66688 0.0
C356 C 0.66944 0.15977 0.47734 0.0
N357 N 0.67744 0.16632 0.47822 0.0
N358 N 0.68235 0.16544 0.52919 0.0
C359 C 0.67771 0.15811 0.56213 0.0
C360 C 0.66934 0.15433 0.53052 0.0
C361 C 0.66189 0.15906 0.42717 0.0
H362 H 0.66549 0.15487 0.38945 0.0
H363 H 0.65988 0.1669 0.41154 0.0
H364 H 0.65476 0.15501 0.4408 0.0
O365 O 0.6972 0.17148 0.40256 0.0
O366 O 0.70541 0.17086 0.48922 0.0
H367 H 0.67887 0.14629 0.62955 0.0
H368 H 0.67886 0.1593 0.65688 0.0
C369 C 0.68164 0.15421 0.62062 0.0
H370 H 0.69016 0.15421 0.62076 0.0
H371 H 0.71139 0.16421 0.61799 0.0
O372 O 0.67545 0.17357 0.34387 0.0
C373 C 0.70537 0.17001 0.43263 0.0
Co374 Co 0.57187 0.93179 0.17529 0.0
Co375 Co 0.57431 0.9442 0.29301 0.0
C376 C 0.55391 0.93517 0.25194 0.0
O377 O 0.55782 0.93089 0.20635 0.0
O378 O 0.55938 0.94059 0.28697 0.0
C379 C 0.56535 0.92156 0.0692 0.0
O380 O 0.55608 0.92361 0.08913 0.0
C381 C 0.57473 0.94264 0.42035 0.0
C382 C 0.58125 0.95744 0.45051 0.0
C383 C 0.5779 0.94792 0.47047 0.0
N384 N 0.57635 0.94861 0.37257 0.0
N385 N 0.58017 0.9575 0.39068 0.0
C386 C 0.57 0.93212 0.41787 0.0
H387 H 0.56571 0.93098 0.37583 0.0
H388 H 0.57609 0.92618 0.41995 0.0
H389 H 0.56479 0.93095 0.45646 0.0
C390 C 0.58793 0.91904 0.23088 0.0
N391 N 0.58139 0.92705 0.2314 0.0
N392 N 0.58305 0.93268 0.27907 0.0
C393 C 0.59105 0.92863 0.30935 0.0
C394 C 0.59426 0.91977 0.28038 0.0
C395 C 0.58786 0.91077 0.18449 0.0
H396 H 0.57984 0.90912 0.17052 0.0
H397 H 0.59147 0.9036 0.20132 0.0
H398 H 0.59219 0.91348 0.14489 0.0
O399 O 0.57514 0.94621 0.15284 0.0
O400 O 0.57745 0.95528 0.23568 0.0
H401 H 0.60482 0.93205 0.35893 0.0
H402 H 0.59341 0.93086 0.40297 0.0
C403 C 0.59646 0.93379 0.36015 0.0
H404 H 0.59537 0.94224 0.35811 0.0
H405 H 0.58222 0.9635 0.36226 0.0
O406 O 0.5731 0.92391 0.10088 0.0
C407 C 0.57728 0.95465 0.17902 0.0
Co408 Co 0.81953 0.17713 0.08205 0.0
Co409 Co 0.80693 0.1744 0.96522 0.0
C410 C 0.8157 0.19496 0.00481 0.0
O411 O 0.82009 0.19119 0.05042 0.0
O412 O 0.81036 0.18935 0.97014 0.0
C413 C 0.83008 0.18404 0.18622 0.0
O414 O 0.82849 0.19322 0.16367 0.0
C415 C 0.80796 0.17404 0.83786 0.0
C416 C 0.79289 0.16796 0.80925 0.0
C417 C 0.80235 0.17127 0.78824 0.0
N418 N 0.80223 0.17228 0.88637 0.0
N419 N 0.79318 0.16868 0.86924 0.0
C420 C 0.81848 0.17876 0.83915 0.0
H421 H 0.82051 0.18139 0.88459 0.0
H422 H 0.82431 0.17306 0.82469 0.0
H423 H 0.81881 0.18533 0.8076 0.0
C424 C 0.83229 0.16105 0.02631 0.0
N425 N 0.82426 0.16757 0.0259 0.0
N426 N 0.8186 0.16587 0.9784 0.0
C427 C 0.82267 0.1579 0.94798 0.0
C428 C 0.83155 0.15471 0.97681 0.0
C429 C 0.84053 0.16107 0.07284 0.0
H430 H 0.83775 0.15681 0.11254 0.0
H431 H 0.84224 0.16909 0.0866 0.0
H432 H 0.84766 0.15737 0.05625 0.0
O433 O 0.80521 0.17371 0.10595 0.0
O434 O 0.79608 0.17116 0.02367 0.0
H435 H 0.81939 0.14419 0.89732 0.0
H436 H 0.82035 0.15575 0.85434 0.0
C437 C 0.81753 0.15253 0.89698 0.0
H438 H 0.80907 0.15348 0.8995 0.0
H439 H 0.78727 0.16667 0.89836 0.0
O440 O 0.8275 0.17616 0.1563 0.0
C441 C 0.79678 0.17141 0.08028 0.0
Co442 Co 0.57296 0.06897 0.83579 0.0
Co443 Co 0.57331 0.05712 0.71503 0.0
C444 C 0.55382 0.06617 0.7663 0.0
O445 O 0.55848 0.06996 0.81102 0.0
O446 O 0.55863 0.06101 0.72696 0.0
C447 C 0.56804 0.08173 0.93706 0.0
O448 O 0.55905 0.08295 0.9114 0.0
C449 C 0.57055 0.05665 0.58764 0.0
C450 C 0.58037 0.04368 0.55915 0.0
C451 C 0.57418 0.05154 0.53772 0.0
N452 N 0.57446 0.05208 0.63615 0.0
N453 N 0.58017 0.0442 0.6191 0.0
C454 C 0.56464 0.06654 0.58958 0.0
H455 H 0.56603 0.07062 0.63224 0.0
H456 H 0.56683 0.07161 0.55191 0.0
H457 H 0.5563 0.06481 0.58608 0.0
C458 C 0.58858 0.08152 0.77473 0.0
N459 N 0.58181 0.0737 0.77576 0.0
N460 N 0.58231 0.06859 0.72525 0.0
C461 C 0.58962 0.07293 0.69065 0.0
C462 C 0.59376 0.08129 0.72079 0.0
C463 C 0.59038 0.08865 0.82605 0.0
H464 H 0.59265 0.08409 0.86573 0.0
H465 H 0.5831 0.09269 0.837 0.0
H466 H 0.59648 0.09436 0.81633 0.0
O467 O 0.57621 0.05452 0.85648 0.0
O468 O 0.57693 0.04596 0.77109 0.0
H469 H 0.59343 0.0608 0.62982 0.0
H470 H 0.59961 0.0729 0.61303 0.0
C471 C 0.59245 0.06926 0.62954 0.0
H472 H 0.5862 0.07125 0.59813 0.0
H473 H 0.5843 0.0395 0.64817 0.0
O474 O 0.57501 0.07667 0.91036 0.0
C475 C 0.57766 0.04621 0.82765 0.0
Co476 Co 0.68185 0.82334 0.57319 0.0
Co477 Co 0.69295 0.82505 0.45071 0.0
C478 C 0.68442 0.80496 0.49761 0.0
O479 O 0.68073 0.80906 0.54438 0.0
O480 O 0.68939 0.81027 0.45972 0.0
C481 C 0.66874 0.81779 0.67211 0.0
O482 O 0.6666 0.80945 0.64143 0.0
C483 C 0.69221 0.82229 0.32416 0.0
C484 C 0.70466 0.8322 0.28971 0.0
C485 C 0.6968 0.82566 0.2721 0.0
N486 N 0.69713 0.82657 0.37039 0.0
N487 N 0.70467 0.83239 0.34981 0.0
C488 C 0.68249 0.81618 0.3302 0.0
H489 H 0.67857 0.81802 0.37278 0.0
H490 H 0.67718 0.81777 0.29265 0.0
H491 H 0.6844 0.80786 0.32995 0.0
C492 C 0.66873 0.83936 0.51969 0.0
N493 N 0.67663 0.8327 0.51716 0.0
N494 N 0.6814 0.83369 0.46581 0.0
C495 C 0.67672 0.84116 0.43402 0.0
C496 C 0.66852 0.84495 0.4671 0.0
C497 C 0.66196 0.84068 0.57309 0.0
H498 H 0.6668 0.8423 0.61272 0.0
H499 H 0.65776 0.8334 0.58158 0.0
H500 H 0.65638 0.84705 0.56726 0.0
O501 O 0.69637 0.82667 0.59139 0.0
O502 O 0.70446 0.82849 0.50494 0.0
H503 H 0.68825 0.84575 0.37122 0.0
H504 H 0.67574 0.8513 0.35716 0.0
C505 C 0.67985 0.84433 0.37247 0.0
H506 H 0.67804 0.83803 0.34095 0.0
H507 H 0.70957 0.83675 0.37659 0.0
O508 O 0.67457 0.8246 0.64958 0.0
C509 C 0.70448 0.82863 0.56171 0.0
Co510 Co 0.92483 0.93067 0.3335 0.0
Co511 Co 0.92367 0.94278 0.21381 0.0
C512 C 0.94374 0.93492 0.26671 0.0
O513 O 0.93941 0.93048 0.31054 0.0
O514 O 0.93851 0.93994 0.22858 0.0
C515 C 0.92933 0.91718 0.43327 0.0
O516 O 0.93807 0.91509 0.40658 0.0
C517 C 0.92687 0.94231 0.087 0.0
C518 C 0.91565 0.95358 0.0525 0.0
C519 C 0.92247 0.94596 0.03491 0.0
N520 N 0.92255 0.94721 0.13327 0.0
N521 N 0.91605 0.95415 0.11248 0.0
C522 C 0.93486 0.93408 0.09359 0.0
H523 H 0.94134 0.93708 0.12036 0.0
H524 H 0.93154 0.92741 0.11775 0.0
H525 H 0.93804 0.93158 0.05012 0.0
C526 C 0.91015 0.91719 0.27192 0.0
N527 N 0.91643 0.92539 0.2732 0.0
N528 N 0.91548 0.93064 0.22341 0.0
C529 C 0.90836 0.92597 0.18899 0.0
C530 C 0.90481 0.91728 0.21853 0.0
C531 C 0.90878 0.90991 0.32298 0.0
H532 H 0.90606 0.91425 0.36252 0.0
H533 H 0.91632 0.90643 0.33444 0.0
H534 H 0.90316 0.90375 0.31275 0.0
O535 O 0.92052 0.94481 0.35308 0.0
O536 O 0.91902 0.95375 0.26927 0.0
H537 H 0.90339 0.93799 0.13051 0.0
H538 H 0.89823 0.92551 0.11197 0.0
C539 C 0.90508 0.92965 0.12873 0.0
H540 H 0.91141 0.92832 0.09671 0.0
H541 H 0.91142 0.9588 0.13921 0.0
O542 O 0.92287 0.92304 0.40789 0.0
C543 C 0.91835 0.95312 0.32582 0.0
Co544 Co 0.68018 0.67756 0.57474 0.0
Co545 Co 0.69215 0.67515 0.4554 0.0
C546 C 0.68289 0.69539 0.49513 0.0
O547 O 0.67899 0.69152 0.54192 0.0
O548 O 0.6882 0.68994 0.45944 0.0
C549 C 0.67039 0.68448 0.68095 0.0
O550 O 0.67298 0.69363 0.66117 0.0
C551 C 0.69156 0.67572 0.32804 0.0
C552 C 0.70499 0.66651 0.29981 0.0
C553 C 0.69642 0.67167 0.27853 0.0
N554 N 0.69685 0.67291 0.37658 0.0
N555 N 0.70498 0.66754 0.35965 0.0
C556 C 0.68205 0.68222 0.33016 0.0
H557 H 0.68424 0.69016 0.34283 0.0
H558 H 0.67675 0.67929 0.36503 0.0
H559 H 0.67804 0.68258 0.28668 0.0
C560 C 0.66782 0.66081 0.52311 0.0
N561 N 0.67556 0.66765 0.52032 0.0
N562 N 0.68077 0.66626 0.47077 0.0
C563 C 0.67661 0.65827 0.44084 0.0
C564 C 0.66822 0.65463 0.47286 0.0
C565 C 0.66058 0.65992 0.57473 0.0
H566 H 0.66505 0.6583 0.61578 0.0
H567 H 0.65655 0.66736 0.58125 0.0
H568 H 0.65487 0.65369 0.56819 0.0
O569 O 0.69464 0.67467 0.59724 0.0
O570 O 0.70332 0.6724 0.51302 0.0
H571 H 0.68889 0.654 0.38201 0.0
H572 H 0.67722 0.64676 0.3706 0.0
C573 C 0.68038 0.65442 0.38188 0.0
H574 H 0.6779 0.65983 0.34667 0.0
H575 H 0.71027 0.66426 0.38893 0.0
O576 O 0.67229 0.67663 0.64917 0.0
C577 C 0.70297 0.67265 0.56975 0.0
Co578 Co 0.57444 0.43323 0.8328 0.0
Co579 Co 0.57436 0.44358 0.70763 0.0
C580 C 0.55505 0.43534 0.7668 0.0
O581 O 0.55984 0.4319 0.8119 0.0
O582 O 0.55977 0.44007 0.72539 0.0
C583 C 0.57122 0.41914 0.93007 0.0
O584 O 0.56365 0.41543 0.8978 0.0
C585 C 0.57072 0.44106 0.58228 0.0
C586 C 0.5803 0.45308 0.54039 0.0
C587 C 0.5742 0.4446 0.52773 0.0
N588 N 0.57483 0.44692 0.62529 0.0
N589 N 0.58038 0.45425 0.60012 0.0
C590 C 0.56364 0.43219 0.59429 0.0
H591 H 0.55681 0.43502 0.61881 0.0
H592 H 0.56758 0.42647 0.62299 0.0
H593 H 0.56085 0.42849 0.5529 0.0
C594 C 0.58957 0.41967 0.77463 0.0
N595 N 0.58293 0.42761 0.77373 0.0
N596 N 0.58335 0.43219 0.72153 0.0
C597 C 0.59051 0.4274 0.68784 0.0
C598 C 0.59458 0.41928 0.72026 0.0
C599 C 0.5914 0.41296 0.82773 0.0
H600 H 0.59352 0.41782 0.86646 0.0
H601 H 0.5842 0.40883 0.83899 0.0
H602 H 0.59763 0.40729 0.81963 0.0
O603 O 0.57788 0.44788 0.84571 0.0
O604 O 0.57845 0.45553 0.75726 0.0
H605 H 0.59406 0.43887 0.62242 0.0
H606 H 0.60056 0.42677 0.6107 0.0
C607 C 0.59329 0.4304 0.62551 0.0
H608 H 0.58712 0.42785 0.59491 0.0
H609 H 0.58463 0.4597 0.6237 0.0
O610 O 0.57673 0.42638 0.90948 0.0
C611 C 0.57935 0.45585 0.81381 0.0
Co612 Co 0.81429 0.32354 0.06333 0.0
Co613 Co 0.80308 0.32432 0.94098 0.0
C614 C 0.81194 0.30465 0.99407 0.0
O615 O 0.81576 0.30909 0.03942 0.0
O616 O 0.80683 0.30967 0.95544 0.0
C617 C 0.82824 0.32034 0.16274 0.0
O618 O 0.83175 0.31228 0.13387 0.0
C619 C 0.80569 0.32224 0.81475 0.0
C620 C 0.7928 0.33114 0.77666 0.0
C621 C 0.80181 0.32604 0.76171 0.0
N622 N 0.79951 0.32529 0.85923 0.0
N623 N 0.79169 0.33043 0.83629 0.0
C624 C 0.81521 0.31592 0.82382 0.0
H625 H 0.81349 0.30932 0.85323 0.0
H626 H 0.82119 0.32067 0.84586 0.0
H627 H 0.81822 0.3128 0.78129 0.0
C628 C 0.82738 0.3391 0.00586 0.0
N629 N 0.81947 0.33244 0.00519 0.0
N630 N 0.81443 0.33332 0.95471 0.0
C631 C 0.81886 0.34083 0.92205 0.0
C632 C 0.82725 0.34465 0.95315 0.0
C633 C 0.83507 0.33981 0.05531 0.0
H634 H 0.83741 0.33196 0.06909 0.0
H635 H 0.84201 0.34418 0.04173 0.0
H636 H 0.83146 0.34365 0.09422 0.0
O637 O 0.79963 0.32674 0.07917 0.0
O638 O 0.79134 0.32797 0.99297 0.0
H639 H 0.81709 0.35308 0.85783 0.0
H640 H 0.81759 0.34033 0.82719 0.0
C641 C 0.81465 0.34499 0.86486 0.0
H642 H 0.80614 0.34467 0.86525 0.0
H643 H 0.78591 0.3339 0.86147 0.0
O644 O 0.82129 0.32587 0.13933 0.0
C645 C 0.79143 0.32843 0.0497 0.0
Co646 Co 0.92499 0.56609 0.32615 0.0
Co647 Co 0.9234 0.55453 0.20483 0.0
C648 C 0.94355 0.56275 0.25335 0.0
O649 O 0.93938 0.56666 0.29931 0.0
O650 O 0.93825 0.55783 0.21517 0.0
C651 C 0.93055 0.57906 0.42553 0.0
O652 O 0.93906 0.58088 0.39583 0.0
C653 C 0.9263 0.55515 0.07833 0.0
C654 C 0.91648 0.54262 0.04393 0.0
C655 C 0.92296 0.55054 0.02626 0.0
N656 N 0.92205 0.55021 0.12458 0.0
N657 N 0.91629 0.54262 0.10403 0.0
C658 C 0.93235 0.56491 0.08437 0.0
H659 H 0.9306 0.56875 0.12731 0.0
H660 H 0.93062 0.57026 0.0472 0.0
H661 H 0.94068 0.56306 0.0833 0.0
C662 C 0.90974 0.57956 0.26861 0.0
N663 N 0.91607 0.57138 0.26821 0.0
N664 N 0.91496 0.56632 0.21786 0.0
C665 C 0.90768 0.57104 0.18489 0.0
C666 C 0.90421 0.57961 0.21586 0.0
C667 C 0.90869 0.5868 0.32008 0.0
H668 H 0.90627 0.58243 0.36014 0.0
H669 H 0.91629 0.5903 0.32988 0.0
H670 H 0.90298 0.59295 0.31116 0.0
O671 O 0.92116 0.55174 0.34509 0.0
O672 O 0.91956 0.54323 0.25982 0.0
H673 H 0.90313 0.55911 0.12448 0.0
H674 H 0.89706 0.57137 0.11028 0.0
C675 C 0.90427 0.56755 0.12444 0.0
H676 H 0.91031 0.56947 0.09142 0.0
H677 H 0.91195 0.53771 0.13081 0.0
O678 O 0.92358 0.57354 0.40199 0.0
C679 C 0.91915 0.54352 0.31652 0.0
Co680 Co 0.6787 0.32108 0.41982 0.0
Co681 Co 0.69208 0.32398 0.53368 0.0
C682 C 0.68259 0.30353 0.49851 0.0
O683 O 0.67762 0.30727 0.45484 0.0
O684 O 0.68863 0.30902 0.52984 0.0
C685 C 0.6703 0.31419 0.31186 0.0
O686 O 0.67389 0.30538 0.33155 0.0
C687 C 0.69353 0.32256 0.66103 0.0
C688 C 0.70625 0.33308 0.68446 0.0
C689 C 0.69882 0.32669 0.70889 0.0
N690 N 0.69762 0.32629 0.61068 0.0
N691 N 0.70534 0.33246 0.62468 0.0
C692 C 0.68387 0.31628 0.66277 0.0
H693 H 0.67928 0.31751 0.62169 0.0
H694 H 0.67912 0.31831 0.70217 0.0
H695 H 0.68593 0.30802 0.66562 0.0
C696 C 0.66653 0.33752 0.4759 0.0
N697 N 0.67457 0.33102 0.47518 0.0
N698 N 0.68026 0.33251 0.52287 0.0
C699 C 0.67609 0.34022 0.5551 0.0
C700 C 0.66724 0.34358 0.52651 0.0
C701 C 0.65862 0.3381 0.42759 0.0
H702 H 0.66247 0.33998 0.38482 0.0
H703 H 0.65491 0.33047 0.42235 0.0
H704 H 0.65269 0.34401 0.43701 0.0
O705 O 0.69298 0.32385 0.39276 0.0
O706 O 0.70253 0.32704 0.47252 0.0
H707 H 0.68871 0.34536 0.6087 0.0
H708 H 0.67658 0.35134 0.62725 0.0
C709 C 0.68032 0.34409 0.61295 0.0
H710 H 0.67898 0.33825 0.64803 0.0
H711 H 0.70968 0.33655 0.59366 0.0
O712 O 0.67059 0.32197 0.346 0.0
C713 C 0.70155 0.32631 0.41624 0.0
Co714 Co 0.92569 0.42947 0.66368 0.0
Co715 Co 0.92395 0.44164 0.78299 0.0
C716 C 0.94406 0.43274 0.73912 0.0
O717 O 0.93991 0.4287 0.69346 0.0
O718 O 0.93879 0.43801 0.77595 0.0
C719 C 0.93192 0.4182 0.5595 0.0
O720 O 0.94121 0.41888 0.58213 0.0
C721 C 0.92591 0.44252 0.9106 0.0
C722 C 0.91531 0.45504 0.93656 0.0
C723 C 0.92182 0.44757 0.95948 0.0
N724 N 0.92201 0.44679 0.86114 0.0
N725 N 0.91582 0.45439 0.87668 0.0
C726 C 0.93227 0.43292 0.9105 0.0
H727 H 0.93103 0.42852 0.86875 0.0
H728 H 0.93035 0.42797 0.9492 0.0
H729 H 0.94052 0.43504 0.91333 0.0
C730 C 0.90962 0.4169 0.72045 0.0
N731 N 0.91633 0.42477 0.7211 0.0
N732 N 0.91531 0.42996 0.77106 0.0
C733 C 0.90776 0.42561 0.80369 0.0
C734 C 0.90395 0.41718 0.77273 0.0
C735 C 0.90829 0.40974 0.66882 0.0
H736 H 0.90632 0.41426 0.62847 0.0
H737 H 0.91567 0.40573 0.66 0.0
H738 H 0.90214 0.40399 0.67689 0.0
O739 O 0.9224 0.44379 0.6408 0.0
O740 O 0.92057 0.45257 0.7249 0.0
H741 H 0.90288 0.4377 0.86206 0.0
H742 H 0.89741 0.42529 0.8798 0.0
C743 C 0.90439 0.42932 0.86379 0.0
H744 H 0.91062 0.42789 0.89641 0.0
H745 H 0.9116 0.45881 0.8466 0.0
O746 O 0.92433 0.42159 0.5892 0.0
C747 C 0.92043 0.45214 0.66821 0.0
Co748 Co 0.81703 0.67518 0.91263 0.0
Co749 Co 0.80543 0.67348 0.03377 0.0
C750 C 0.81379 0.69364 0.98637 0.0
O751 O 0.8177 0.68952 0.94028 0.0
O752 O 0.80882 0.68831 0.02422 0.0
C753 C 0.82989 0.68085 0.813 0.0
O754 O 0.83158 0.68942 0.84244 0.0
C755 C 0.80595 0.67625 0.16038 0.0
C756 C 0.7934 0.66639 0.19412 0.0
C757 C 0.80128 0.67288 0.2122 0.0
N758 N 0.80106 0.67202 0.11385 0.0
N759 N 0.79346 0.66624 0.13401 0.0
C760 C 0.8157 0.68232 0.15485 0.0
H761 H 0.81962 0.68056 0.11214 0.0
H762 H 0.821 0.68061 0.19232 0.0
H763 H 0.81384 0.69064 0.15576 0.0
C764 C 0.83038 0.65975 0.96945 0.0
N765 N 0.82224 0.66612 0.97012 0.0
N766 N 0.81718 0.66499 0.02042 0.0
C767 C 0.82186 0.65765 0.05312 0.0
C768 C 0.83041 0.65416 0.02199 0.0
C769 C 0.83761 0.65873 0.9179 0.0
H770 H 0.83322 0.65641 0.87772 0.0
H771 H 0.84117 0.66632 0.90852 0.0
H772 H 0.84371 0.65296 0.92648 0.0
O773 O 0.80266 0.67151 0.89332 0.0
O774 O 0.79412 0.66983 0.97843 0.0
H775 H 0.80994 0.65304 0.1134 0.0
H776 H 0.82222 0.64702 0.12772 0.0
C777 C 0.81838 0.65422 0.11353 0.0
H778 H 0.82025 0.66026 0.14658 0.0
H779 H 0.78858 0.66191 0.10696 0.0
O780 O 0.82449 0.67383 0.83679 0.0
C781 C 0.79441 0.66953 0.92171 0.0
Co782 Co 0.57141 0.56962 0.16754 0.0
Co783 Co 0.57406 0.55655 0.28284 0.0
C784 C 0.55356 0.56567 0.24388 0.0
O785 O 0.55736 0.57029 0.19912 0.0
O786 O 0.55913 0.56008 0.27747 0.0
C787 C 0.56484 0.57871 0.0596 0.0
O788 O 0.55582 0.57541 0.07775 0.0
C789 C 0.57458 0.55769 0.41036 0.0
C790 C 0.58123 0.54286 0.43886 0.0
C791 C 0.57787 0.55231 0.45987 0.0
N792 N 0.57615 0.55186 0.36195 0.0
N793 N 0.58004 0.54294 0.37909 0.0
C794 C 0.56985 0.56821 0.40902 0.0
H795 H 0.56524 0.56933 0.36814 0.0
H796 H 0.57597 0.57414 0.40934 0.0
H797 H 0.56493 0.56942 0.44888 0.0
C798 C 0.58765 0.58201 0.22445 0.0
N799 N 0.58101 0.57408 0.22407 0.0
N800 N 0.58271 0.56818 0.27061 0.0
C801 C 0.59081 0.57199 0.30104 0.0
C802 C 0.59406 0.58096 0.27342 0.0
C803 C 0.58773 0.59041 0.1789 0.0
H804 H 0.57974 0.59225 0.16518 0.0
H805 H 0.59151 0.59744 0.19641 0.0
H806 H 0.59199 0.58772 0.13897 0.0
O807 O 0.57475 0.55535 0.14283 0.0
O808 O 0.57731 0.54578 0.22349 0.0
H809 H 0.60467 0.56818 0.34885 0.0
H810 H 0.59337 0.56919 0.39395 0.0
C811 C 0.5963 0.56649 0.35034 0.0
H812 H 0.59515 0.55808 0.34666 0.0
H813 H 0.58209 0.53702 0.35003 0.0
O814 O 0.57255 0.5777 0.09377 0.0
C815 C 0.57704 0.54678 0.167 0.0
Co816 Co 0.31699 0.3244 0.41758 0.0
Co817 Co 0.30514 0.3249 0.53803 0.0
C818 C 0.31371 0.30524 0.48319 0.0
O819 O 0.31785 0.30983 0.43934 0.0
O820 O 0.30854 0.31018 0.522 0.0
C821 C 0.33079 0.32093 0.31797 0.0
O822 O 0.33361 0.31243 0.34501 0.0
C823 C 0.30691 0.32239 0.66459 0.0
C824 C 0.29413 0.33167 0.70075 0.0
C825 C 0.30287 0.32626 0.71711 0.0
N826 N 0.30108 0.32569 0.61915 0.0
N827 N 0.2933 0.33105 0.64094 0.0
C828 C 0.31628 0.3158 0.65688 0.0
H829 H 0.31463 0.30947 0.62548 0.0
H830 H 0.32261 0.32049 0.63779 0.0
H831 H 0.31879 0.31234 0.6996 0.0
C832 C 0.33014 0.33935 0.4795 0.0
N833 N 0.32211 0.33284 0.47804 0.0
N834 N 0.31682 0.33364 0.52776 0.0
C835 C 0.32122 0.34095 0.56203 0.0
C836 C 0.32984 0.34472 0.53279 0.0
C837 C 0.33802 0.34015 0.43116 0.0
H838 H 0.33474 0.34453 0.39323 0.0
H839 H 0.34005 0.33235 0.41503 0.0
H840 H 0.3451 0.34406 0.44694 0.0
O841 O 0.30257 0.32815 0.39968 0.0
O842 O 0.29381 0.32916 0.4844 0.0
H843 H 0.30822 0.34494 0.61635 0.0
H844 H 0.31929 0.35309 0.62689 0.0
C845 C 0.31673 0.34507 0.61862 0.0
H846 H 0.31931 0.34026 0.65648 0.0
H847 H 0.28779 0.33476 0.6149 0.0
O848 O 0.32436 0.32688 0.34286 0.0
C849 C 0.29425 0.32993 0.42784 0.0
Co850 Co 0.42612 0.56835 0.17067 0.0
Co851 Co 0.42394 0.5556 0.28756 0.0
C852 C 0.44412 0.56508 0.24853 0.0
O853 O 0.44016 0.56936 0.20308 0.0
O854 O 0.43874 0.55947 0.28303 0.0
C855 C 0.43278 0.57834 0.06472 0.0
O856 O 0.44198 0.57628 0.08578 0.0
C857 C 0.42573 0.55429 0.41494 0.0
C858 C 0.4153 0.54156 0.43947 0.0
C859 C 0.42173 0.54902 0.46324 0.0
N860 N 0.42188 0.55015 0.36499 0.0
N861 N 0.41578 0.54243 0.37965 0.0
C862 C 0.43196 0.56399 0.41599 0.0
H863 H 0.43062 0.56854 0.37495 0.0
H864 H 0.43001 0.56876 0.4554 0.0
H865 H 0.44025 0.56197 0.41826 0.0
C866 C 0.40965 0.58049 0.22703 0.0
N867 N 0.41635 0.57262 0.22708 0.0
N868 N 0.41521 0.56722 0.27618 0.0
C869 C 0.4076 0.57146 0.30893 0.0
C870 C 0.40387 0.58003 0.27891 0.0
C871 C 0.40853 0.58794 0.17659 0.0
H872 H 0.40707 0.58363 0.13477 0.0
H873 H 0.41585 0.59222 0.17087 0.0
H874 H 0.40214 0.59344 0.18399 0.0
O875 O 0.42325 0.55408 0.14535 0.0
O876 O 0.42096 0.54486 0.22742 0.0
H877 H 0.40284 0.55923 0.36666 0.0
H878 H 0.39727 0.57155 0.38521 0.0
C879 C 0.40428 0.56762 0.36885 0.0
H880 H 0.41049 0.56905 0.40151 0.0
H881 H 0.41163 0.53805 0.34906 0.0
O882 O 0.42496 0.5764 0.09668 0.0
C883 C 0.42119 0.54558 0.17083 0.0
Co884 Co 0.1812 0.67598 0.92456 0.0
Co885 Co 0.19353 0.67361 0.04265 0.0
C886 C 0.18478 0.69404 0.00026 0.0
O887 O 0.18047 0.69007 0.95495 0.0
O888 O 0.19012 0.68858 0.03582 0.0
C889 C 0.17116 0.68249 0.818 0.0
O890 O 0.17346 0.69175 0.83723 0.0
C891 C 0.19187 0.67326 0.16999 0.0
C892 C 0.20645 0.66628 0.20035 0.0
C893 C 0.197 0.66984 0.22014 0.0
N894 N 0.19786 0.67157 0.12237 0.0
N895 N 0.20663 0.66749 0.14062 0.0
C896 C 0.18146 0.6782 0.16726 0.0
H897 H 0.18072 0.68309 0.12718 0.0
H898 H 0.17543 0.67219 0.16474 0.0
H899 H 0.18005 0.68289 0.20779 0.0
C900 C 0.16836 0.66003 0.98008 0.0
N901 N 0.17636 0.66658 0.98092 0.0
N902 N 0.18194 0.66494 0.0288 0.0
C903 C 0.17786 0.65694 0.05896 0.0
C904 C 0.16904 0.6537 0.0296 0.0
C905 C 0.16018 0.66004 0.93317 0.0
H906 H 0.15848 0.66805 0.91928 0.0
H907 H 0.15302 0.65634 0.94946 0.0
H908 H 0.16301 0.65576 0.89364 0.0
O909 O 0.19558 0.67254 0.90251 0.0
O910 O 0.20462 0.67031 0.98555 0.0
H911 H 0.18116 0.64319 0.10898 0.0
H912 H 0.18003 0.65464 0.15265 0.0
C913 C 0.18296 0.65153 0.10996 0.0
H914 H 0.19141 0.65256 0.10798 0.0
H915 H 0.2126 0.6653 0.1123 0.0
O916 O 0.17332 0.67476 0.85017 0.0
C917 C 0.20399 0.67038 0.92887 0.0
Co918 Co 0.0725 0.43095 0.66613 0.0
Co919 Co 0.07394 0.44295 0.78595 0.0
C920 C 0.05402 0.43381 0.74106 0.0
O921 O 0.05826 0.42992 0.69525 0.0
O922 O 0.05918 0.43909 0.77834 0.0
C923 C 0.0666 0.41906 0.56344 0.0
O924 O 0.05739 0.41903 0.58751 0.0
C925 C 0.0718 0.44347 0.91327 0.0
C926 C 0.08189 0.45628 0.94096 0.0
C927 C 0.07561 0.44853 0.96284 0.0
N928 N 0.07565 0.44799 0.86445 0.0
N929 N 0.08154 0.45576 0.881 0.0
C930 C 0.06576 0.43366 0.91188 0.0
H931 H 0.06716 0.42945 0.86966 0.0
H932 H 0.06782 0.42863 0.95001 0.0
H933 H 0.05744 0.4355 0.9148 0.0
C934 C 0.08847 0.41833 0.7235 0.0
N935 N 0.08185 0.42627 0.72368 0.0
N936 N 0.08278 0.43143 0.77381 0.0
C937 C 0.09022 0.42699 0.80696 0.0
C938 C 0.094 0.41852 0.77624 0.0
C939 C 0.08971 0.41104 0.67239 0.0
H940 H 0.09174 0.41545 0.63173 0.0
H941 H 0.08227 0.40712 0.66382 0.0
H942 H 0.09578 0.40523 0.68092 0.0
O943 O 0.0756 0.44536 0.64397 0.0
O944 O 0.07717 0.45404 0.72861 0.0
H945 H 0.09452 0.43902 0.8673 0.0
H946 H 0.10058 0.42683 0.88294 0.0
C947 C 0.09341 0.43058 0.86764 0.0
H948 H 0.08727 0.42868 0.90003 0.0
H949 H 0.08565 0.46041 0.85156 0.0
O950 O 0.07402 0.42314 0.59157 0.0
C951 C 0.07738 0.4537 0.67191 0.0
Co952 Co 0.31739 0.67685 0.5759 0.0
Co953 Co 0.30542 0.67456 0.45659 0.0
C954 C 0.31396 0.69497 0.50042 0.0
O955 O 0.31816 0.69097 0.54594 0.0
O956 O 0.30874 0.68953 0.46417 0.0
C957 C 0.32755 0.68336 0.68226 0.0
O958 O 0.32538 0.69264 0.66292 0.0
C959 C 0.30724 0.67429 0.32927 0.0
C960 C 0.29285 0.667 0.29844 0.0
C961 C 0.30226 0.67071 0.27899 0.0
N962 N 0.30122 0.67252 0.37665 0.0
N963 N 0.29256 0.66827 0.3581 0.0
C964 C 0.31758 0.67939 0.33244 0.0
H965 H 0.31803 0.68461 0.37127 0.0
H966 H 0.32366 0.67349 0.3377 0.0
H967 H 0.31915 0.68379 0.29103 0.0
C968 C 0.33039 0.66092 0.52113 0.0
N969 N 0.3224 0.66749 0.5197 0.0
N970 N 0.31699 0.66591 0.47113 0.0
C971 C 0.32115 0.65794 0.44108 0.0
C972 C 0.32986 0.65466 0.47124 0.0
C973 C 0.3384 0.66083 0.56898 0.0
H974 H 0.34019 0.66882 0.58281 0.0
H975 H 0.34555 0.657 0.55367 0.0
H976 H 0.33535 0.65665 0.60832 0.0
O977 O 0.30293 0.67343 0.59694 0.0
O978 O 0.29425 0.67117 0.51268 0.0
H979 H 0.31805 0.64426 0.3899 0.0
H980 H 0.31918 0.65581 0.34711 0.0
C981 C 0.3162 0.65259 0.38938 0.0
H982 H 0.30774 0.65355 0.39087 0.0
H983 H 0.2866 0.66597 0.3862 0.0
O984 O 0.32519 0.67563 0.65052 0.0
C985 C 0.29463 0.67126 0.56941 0.0
Co986 Co 0.07171 0.56789 0.32432 0.0
Co987 Co 0.07345 0.55568 0.20513 0.0
C988 C 0.05334 0.56458 0.24894 0.0
O989 O 0.05747 0.56864 0.29465 0.0
O990 O 0.05864 0.55933 0.21219 0.0
C991 C 0.06548 0.57922 0.42842 0.0
O992 O 0.0562 0.57862 0.40558 0.0
C993 C 0.0714 0.55476 0.07753 0.0
C994 C 0.08202 0.54228 0.05139 0.0
C995 C 0.07547 0.54972 0.02857 0.0
N996 N 0.07535 0.55052 0.12693 0.0
N997 N 0.08156 0.54294 0.11129 0.0
C998 C 0.065 0.56434 0.0777 0.0
H999 H 0.06625 0.56876 0.11938 0.0
H1000 H 0.06689 0.56929 0.03894 0.0
H1001 H 0.05676 0.56219 0.07502 0.0
C1002 C 0.08778 0.58045 0.26746 0.0
N1003 N 0.08108 0.57257 0.26688 0.0
N1004 N 0.08209 0.56738 0.21689 0.0
C1005 C 0.08958 0.57178 0.18402 0.0
C1006 C 0.09339 0.58022 0.21497 0.0
C1007 C 0.08914 0.58758 0.31925 0.0
H1008 H 0.09088 0.58301 0.35976 0.0
H1009 H 0.08183 0.59175 0.3274 0.0
H1010 H 0.09544 0.59317 0.31184 0.0
O1011 O 0.07506 0.55361 0.34715 0.0
O1012 O 0.0768 0.54472 0.26336 0.0
H1013 H 0.09441 0.5598 0.12479 0.0
H1014 H 0.09969 0.57227 0.1068 0.0
C1015 C 0.09281 0.56817 0.12347 0.0
H1016 H 0.08647 0.56956 0.09154 0.0
H1017 H 0.08582 0.53854 0.14129 0.0
O1018 O 0.07306 0.57577 0.39886 0.0
C1019 C 0.077 0.54523 0.32002 0.0
Co1020 Co 0.18054 0.32311 0.08727 0.0
Co1021 Co 0.19215 0.32428 0.96584 0.0
C1022 C 0.18406 0.30428 0.01688 0.0
O1023 O 0.18009 0.30861 0.06215 0.0
O1024 O 0.18896 0.30946 0.97805 0.0
C1025 C 0.16759 0.31773 0.18667 0.0
O1026 O 0.16585 0.30918 0.1571 0.0
C1027 C 0.19128 0.32127 0.83948 0.0
C1028 C 0.20432 0.33032 0.80439 0.0
C1029 C 0.19605 0.32426 0.78713 0.0
N1030 N 0.19647 0.32532 0.88543 0.0
N1031 N 0.20435 0.33062 0.86447 0.0
C1032 C 0.18127 0.31567 0.84616 0.0
H1033 H 0.17765 0.31749 0.88965 0.0
H1034 H 0.1759 0.31774 0.80964 0.0
H1035 H 0.18272 0.30727 0.84435 0.0
C1036 C 0.16712 0.3382 0.02754 0.0
N1037 N 0.17524 0.3318 0.02804 0.0
N1038 N 0.18031 0.33267 0.97761 0.0
C1039 C 0.17566 0.33985 0.94364 0.0
C1040 C 0.16712 0.34353 0.974 0.0
C1041 C 0.15944 0.33896 0.07702 0.0
H1042 H 0.15759 0.33115 0.09378 0.0
H1043 H 0.15226 0.34278 0.06217 0.0
H1044 H 0.16285 0.34341 0.1143 0.0
O1045 O 0.19489 0.32706 0.10595 0.0
O1046 O 0.20336 0.32846 0.02043 0.0
H1047 H 0.17685 0.3516 0.87574 0.0
H1048 H 0.17738 0.33855 0.84924 0.0
C1049 C 0.1798 0.34378 0.88567 0.0
H1050 H 0.18831 0.34403 0.8871 0.0
H1051 H 0.20952 0.33471 0.89095 0.0
O1052 O 0.17306 0.32472 0.16304 0.0
C1053 C 0.20309 0.32905 0.07709 0.0
Co1054 Co 0.42541 0.43168 0.83513 0.0
Co1055 Co 0.42537 0.44236 0.71077 0.0
C1056 C 0.44479 0.43428 0.76955 0.0
O1057 O 0.44004 0.43062 0.81427 0.0
O1058 O 0.43999 0.43904 0.72855 0.0
C1059 C 0.42881 0.41765 0.93272 0.0
O1060 O 0.43656 0.41414 0.90112 0.0
C1061 C 0.42905 0.44008 0.58525 0.0
C1062 C 0.41929 0.45202 0.544 0.0
C1063 C 0.42548 0.44363 0.53088 0.0
N1064 N 0.42488 0.44584 0.62856 0.0
N1065 N 0.41922 0.45312 0.60377 0.0
C1066 C 0.43621 0.43126 0.59677 0.0
H1067 H 0.44296 0.43408 0.62204 0.0
H1068 H 0.43227 0.4254 0.62457 0.0
H1069 H 0.43911 0.42772 0.55514 0.0
C1070 C 0.41027 0.41825 0.77648 0.0
N1071 N 0.41699 0.42612 0.7757 0.0
N1072 N 0.41653 0.43082 0.72388 0.0
C1073 C 0.40929 0.42615 0.69021 0.0
C1074 C 0.40517 0.41802 0.72236 0.0
C1075 C 0.40832 0.4116 0.82971 0.0
H1076 H 0.40616 0.41651 0.86814 0.0
H1077 H 0.41549 0.40746 0.84155 0.0
H1078 H 0.40208 0.40595 0.82154 0.0
O1079 O 0.42171 0.44623 0.84881 0.0
O1080 O 0.4211 0.45417 0.76122 0.0
H1081 H 0.40547 0.43781 0.62649 0.0
H1082 H 0.39923 0.42563 0.61298 0.0
C1083 C 0.40641 0.42935 0.62835 0.0
H1084 H 0.41263 0.42707 0.59736 0.0
H1085 H 0.41491 0.45848 0.62763 0.0
O1086 O 0.42315 0.42471 0.91152 0.0
C1087 C 0.42014 0.45428 0.81776 0.0
H1088 H 0.19198 0.29227 0.92773 0.0
H1089 H 0.19134 0.27352 0.91973 0.0
H1090 H 0.17381 0.27197 0.0826 0.0
H1091 H 0.17433 0.29069 0.09099 0.0
H1092 H 0.19914 0.25966 0.0056 0.0
H1093 H 0.15741 0.25364 0.96679 0.0
H1094 H 0.16361 0.26594 0.95597 0.0
H1095 H 0.16034 0.26167 0.02973 0.0
C1096 C 0.1879 0.28796 0.96161 0.0
C1097 C 0.18322 0.29299 0.01009 0.0
C1098 C 0.18754 0.27725 0.9569 0.0
C1099 C 0.18242 0.2714 0.00018 0.0
C1100 C 0.17763 0.27638 0.04814 0.0
H1101 H 0.17572 0.20744 0.09033 0.0
H1102 H 0.17499 0.22619 0.08321 0.0
C1103 C 0.178 0.28708 0.05302 0.0
C1104 C 0.18265 0.26004 -0.00263 0.0
H1105 H 0.16728 0.23879 0.99112 0.0
C1106 C 0.19219 0.25508 0.00182 0.0
C1107 C 0.17356 0.25413 0.99267 0.0
C1108 C 0.16315 0.2591 0.98547 0.0
C1109 C 0.19288 0.24432 0.00353 0.0
C1110 C 0.18378 0.2384 -0.00046 0.0
C1111 C 0.17424 0.24337 0.99425 0.0
C1112 C 0.18399 0.22704 0.00229 0.0
C1113 C 0.2033 0.23939 0.01158 0.0
C1114 C 0.18916 0.22133 0.95857 0.0
C1115 C 0.18964 0.21062 0.96258 0.0
C1116 C 0.18488 0.20543 0.01019 0.0
C1117 C 0.17951 0.21119 0.0532 0.0
C1118 C 0.17905 0.2219 0.04917 0.0
H1119 H 0.20911 0.24498 0.0281 0.0
H1120 H 0.20287 0.23286 0.04332 0.0
H1121 H 0.20601 0.23638 0.96806 0.0
H1122 H 0.19286 0.22515 0.92146 0.0
H1123 H 0.19383 0.20644 0.92864 0.0
H1124 H 0.04043 0.92359 0.32942 0.0
H1125 H 0.02172 0.92294 0.3215 0.0
H1126 H 0.02294 0.94186 0.16386 0.0
H1127 H 0.04169 0.94262 0.17144 0.0
H1128 H 0.00924 0.94887 0.25292 0.0
H1129 H 0.00316 0.90753 0.20257 0.0
H1130 H 0.01133 0.9099 0.26562 0.0
H1131 H 0.01543 0.91383 0.19259 0.0
C1132 C 0.03675 0.92752 0.29262 0.0
C1133 C 0.04257 0.93318 0.25116 0.0
C1134 C 0.02606 0.92709 0.28799 0.0
C1135 C 0.02098 0.93225 0.24171 0.0
C1136 C 0.02674 0.93777 0.1997 0.0
H1137 H 0.95574 0.94406 0.18154 0.0
H1138 H 0.97442 0.94329 0.17187 0.0
C1139 C 0.03745 0.9382 0.20416 0.0
C1140 C 0.00962 0.93248 0.23985 0.0
H1141 H 0.98837 0.91713 0.23188 0.0
C1142 C 0.00466 0.94196 0.24766 0.0
C1143 C 0.00371 0.92343 0.23326 0.0
C1144 C 0.00866 0.9131 0.22249 0.0
C1145 C 0.99391 0.9426 0.25099 0.0
C1146 C 0.98799 0.93353 0.24518 0.0
C1147 C 0.99295 0.92406 0.23642 0.0
C1148 C 0.97664 0.93368 0.24953 0.0
C1149 C 0.989 0.95293 0.26274 0.0
C1150 C 0.97169 0.92829 0.29542 0.0
C1151 C 0.96099 0.92863 0.30083 0.0
C1152 C 0.95505 0.93434 0.2602 0.0
C1153 C 0.96005 0.93959 0.21364 0.0
C1154 C 0.97075 0.93922 0.20823 0.0
H1155 H 0.99464 0.95859 0.28028 0.0
H1156 H 0.98583 0.95601 0.22046 0.0
H1157 H 0.98258 0.95221 0.2951 0.0
H1158 H 0.97612 0.92394 0.3276 0.0
H1159 H 0.9574 0.92447 0.33709 0.0
H1160 H 0.30187 0.7926 0.41701 0.0
H1161 H 0.30279 0.77384 0.41069 0.0
H1162 H 0.32229 0.77318 0.56604 0.0
H1163 H 0.32136 0.7919 0.57319 0.0
H1164 H 0.31999 0.76058 0.40003 0.0
H1165 H 0.29843 0.75393 0.60998 0.0
H1166 H 0.29866 0.76624 0.57285 0.0
H1167 H 0.30934 0.76228 0.61828 0.0
C1168 C 0.30639 0.78848 0.44973 0.0
C1169 C 0.31149 0.79375 0.49586 0.0
C1170 C 0.30691 0.77776 0.44599 0.0
C1171 C 0.31248 0.77214 0.4884 0.0
C1172 C 0.31779 0.77739 0.53355 0.0
H1173 H 0.3247 0.70879 0.56766 0.0
H1174 H 0.32467 0.72748 0.559 0.0
C1175 C 0.31727 0.78809 0.53744 0.0
C1176 C 0.31266 0.76078 0.48606 0.0
H1177 H 0.30654 0.73939 0.56653 0.0
C1178 C 0.317 0.75592 0.43618 0.0
C1179 C 0.30867 0.75476 0.53317 0.0
C1180 C 0.30342 0.75955 0.58637 0.0
C1181 C 0.31778 0.74516 0.43312 0.0
C1182 C 0.31401 0.73917 0.4809 0.0
C1183 C 0.3095 0.74403 0.5302 0.0
C1184 C 0.31477 0.72783 0.4816 0.0
C1185 C 0.32288 0.74029 0.37972 0.0
C1186 C 0.30929 0.72184 0.44044 0.0
C1187 C 0.30928 0.71111 0.4452 0.0
C1188 C 0.3147 0.70623 0.49153 0.0
C1189 C 0.32041 0.71228 0.53159 0.0
C1190 C 0.32041 0.72297 0.52674 0.0
H1191 H 0.3273 0.74599 0.35315 0.0
H1192 H 0.32815 0.73402 0.39374 0.0
H1193 H 0.31689 0.73689 0.3505 0.0
H1194 H 0.30475 0.72546 0.40584 0.0
H1195 H 0.30479 0.70668 0.41365 0.0
H1196 H 0.4556 0.07272 0.84321 0.0
H1197 H 0.47429 0.075 0.84072 0.0
H1198 H 0.47607 0.05587 0.68408 0.0
H1199 H 0.45747 0.05353 0.68613 0.0
H1200 H 0.48924 0.05941 0.84658 0.0
H1201 H 0.49249 0.08156 0.63602 0.0
H1202 H 0.48048 0.0801 0.6756 0.0
H1203 H 0.48526 0.06985 0.62951 0.0
C1204 C 0.45996 0.06904 0.80804 0.0
C1205 C 0.45502 0.06303 0.76444 0.0
C1206 C 0.47062 0.07037 0.80664 0.0
C1207 C 0.47651 0.06577 0.76154 0.0
C1208 C 0.47163 0.05971 0.71833 0.0
H1209 H 0.54092 0.05783 0.68272 0.0
H1210 H 0.52211 0.0584 0.68168 0.0
C1211 C 0.46098 0.05836 0.71968 0.0
C1212 C 0.48783 0.06684 0.7613 0.0
H1213 H 0.50809 0.07501 0.67682 0.0
C1214 C 0.49337 0.06291 0.8098 0.0
C1215 C 0.49316 0.07137 0.71301 0.0
C1216 C 0.48755 0.07605 0.66078 0.0
C1217 C 0.50415 0.06312 0.81063 0.0
C1218 C 0.5095 0.06758 0.76215 0.0
C1219 C 0.50395 0.0716 0.71387 0.0
C1220 C 0.52086 0.06792 0.76041 0.0
C1221 C 0.50973 0.05828 0.86252 0.0
C1222 C 0.52636 0.07334 0.80401 0.0
C1223 C 0.53708 0.07301 0.80495 0.0
C1224 C 0.54252 0.06729 0.76196 0.0
C1225 C 0.53698 0.06225 0.7167 0.0
C1226 C 0.52624 0.06257 0.71596 0.0
H1227 H 0.50466 0.05304 0.88834 0.0
H1228 H 0.51654 0.05386 0.84705 0.0
H1229 H 0.51245 0.06442 0.89304 0.0
H1230 H 0.52234 0.0777 0.83793 0.0
H1231 H 0.5411 0.07707 0.84008 0.0
H1232 H 0.19385 0.70568 0.08779 0.0
H1233 H 0.19357 0.72445 0.09738 0.0
H1234 H 0.17359 0.72653 0.94452 0.0
H1235 H 0.17387 0.70787 0.93413 0.0
H1236 H 0.19178 0.73873 0.93883 0.0
H1237 H 0.17035 0.74444 0.15114 0.0
H1238 H 0.18085 0.73543 0.15247 0.0
H1239 H 0.16963 0.73263 0.10893 0.0
C1240 C 0.1893 0.71012 0.05665 0.0
C1241 C 0.18394 0.70527 0.00995 0.0
C1242 C 0.1891 0.72084 0.06244 0.0
C1243 C 0.18351 0.72684 0.02188 0.0
C1244 C 0.17794 0.722 0.97632 0.0
H1245 H 0.17313 0.78951 0.92492 0.0
H1246 H 0.17331 0.77089 0.93795 0.0
C1247 C 0.17812 0.71133 0.97047 0.0
C1248 C 0.18403 0.73819 0.02355 0.0
H1249 H 0.1767 0.75934 0.10323 0.0
C1250 C 0.18851 0.74324 0.97484 0.0
C1251 C 0.17985 0.74401 0.07094 0.0
C1252 C 0.17483 0.7389 0.12379 0.0
C1253 C 0.18878 0.75399 0.97169 0.0
C1254 C 0.18428 0.75983 0.018 0.0
C1255 C 0.18008 0.7548 0.0677 0.0
C1256 C 0.18354 0.77114 0.01391 0.0
C1257 C 0.19388 0.75902 0.91876 0.0
C1258 C 0.18896 0.77744 0.05374 0.0
C1259 C 0.18886 0.78813 0.04656 0.0
C1260 C 0.1833 0.79266 -0.00047 0.0
C1261 C 0.17756 0.7863 0.96126 0.0
C1262 C 0.17767 0.77565 0.96851 0.0
H1263 H 0.19923 0.75367 0.89571 0.0
H1264 H 0.1879 0.7614 0.88632 0.0
H1265 H 0.19822 0.76599 0.93249 0.0
H1266 H 0.19348 0.77408 0.08927 0.0
H1267 H 0.19331 0.79281 0.07706 0.0
H1268 H 0.54249 0.94392 0.34141 0.0
H1269 H 0.52386 0.94276 0.35594 0.0
H1270 H 0.52148 0.92295 0.20241 0.0
H1271 H 0.54002 0.92396 0.18775 0.0
H1272 H 0.50906 0.94897 0.27344 0.0
H1273 H 0.50446 0.90769 0.32754 0.0
H1274 H 0.5167 0.91422 0.33206 0.0
H1275 H 0.51192 0.90979 0.26134 0.0
C1276 C 0.53802 0.93922 0.31113 0.0
C1277 C 0.54275 0.93404 0.26333 0.0
C1278 C 0.52738 0.93856 0.31957 0.0
C1279 C 0.52133 0.93265 0.28079 0.0
C1280 C 0.52604 0.92737 0.23364 0.0
H1281 H 0.45958 0.92328 0.17315 0.0
H1282 H 0.47806 0.92321 0.19233 0.0
C1283 C 0.53665 0.92803 0.22507 0.0
C1284 C 0.50999 0.93259 0.2863 0.0
H1285 H 0.48928 0.91653 0.29433 0.0
C1286 C 0.50471 0.94192 0.27909 0.0
C1287 C 0.50438 0.92337 0.2937 0.0
C1288 C 0.50966 0.91321 0.3047 0.0
C1289 C 0.49394 0.94219 0.27575 0.0
C1290 C 0.48835 0.9329 0.28071 0.0
C1291 C 0.49361 0.92363 0.29028 0.0
C1292 C 0.47708 0.93256 0.27188 0.0
C1293 C 0.48867 0.95233 0.26397 0.0
C1294 C 0.47041 0.93769 0.31096 0.0
C1295 C 0.45983 0.93779 0.30005 0.0
C1296 C 0.45575 0.9327 0.24998 0.0
C1297 C 0.46245 0.92731 0.21196 0.0
C1298 C 0.47302 0.92724 0.22289 0.0
H1299 H 0.49419 0.95839 0.24993 0.0
H1300 H 0.48272 0.95147 0.22884 0.0
H1301 H 0.4848 0.95497 0.30529 0.0
H1302 H 0.4734 0.9417 0.34957 0.0
H1303 H 0.45488 0.94193 0.33053 0.0
H1304 H 0.30697 0.20723 0.56588 0.0
H1305 H 0.30732 0.22602 0.57163 0.0
H1306 H 0.32651 0.22715 0.41509 0.0
H1307 H 0.32614 0.20842 0.40842 0.0
H1308 H 0.32407 0.24023 0.57886 0.0
H1309 H 0.30134 0.24488 0.37113 0.0
H1310 H 0.30227 0.23278 0.41016 0.0
H1311 H 0.31262 0.23703 0.36308 0.0
C1312 C 0.31131 0.21146 0.53281 0.0
C1313 C 0.31642 0.20631 0.48619 0.0
C1314 C 0.31151 0.22219 0.53627 0.0
C1315 C 0.31678 0.22795 0.49316 0.0
C1316 C 0.32223 0.22284 0.44808 0.0
H1317 H 0.32414 0.29219 0.40915 0.0
H1318 H 0.32525 0.27348 0.41574 0.0
C1319 C 0.32203 0.21212 0.44448 0.0
C1320 C 0.31636 0.23931 0.49414 0.0
H1321 H 0.30849 0.26002 0.4128 0.0
C1322 C 0.32063 0.24458 0.54277 0.0
C1323 C 0.31181 0.24492 0.44706 0.0
C1324 C 0.30666 0.23963 0.39512 0.0
C1325 C 0.32073 0.25538 0.54473 0.0
C1326 C 0.3163 0.26098 0.49719 0.0
C1327 C 0.31193 0.25569 0.44896 0.0
C1328 C 0.31613 0.27235 0.49608 0.0
C1329 C 0.32577 0.2607 0.59683 0.0
C1330 C 0.31061 0.2779 0.53912 0.0
C1331 C 0.30996 0.28861 0.53556 0.0
C1332 C 0.31475 0.29394 0.48858 0.0
C1333 C 0.32035 0.28834 0.44589 0.0
C1334 C 0.321 0.27765 0.44956 0.0
H1335 H 0.33092 0.25543 0.62191 0.0
H1336 H 0.33031 0.26745 0.58171 0.0
H1337 H 0.31974 0.26348 0.62786 0.0
H1338 H 0.30663 0.27393 0.57472 0.0
H1339 H 0.30556 0.29267 0.5691 0.0
H1340 H 0.95665 0.0549 0.81432 0.0
H1341 H 0.97537 0.05616 0.81944 0.0
H1342 H 0.97553 0.07467 0.66008 0.0
H1343 H 0.9568 0.07343 0.65418 0.0
H1344 H 0.98928 0.058 0.65807 0.0
H1345 H 0.99344 0.08087 0.86586 0.0
H1346 H 0.98545 0.06964 0.8724 0.0
H1347 H 0.98148 0.08007 0.82519 0.0
C1348 C 0.96063 0.05934 0.78065 0.0
C1349 C 0.95521 0.06409 0.73389 0.0
C1350 C 0.97134 0.06008 0.78387 0.0
C1351 C 0.9768 0.06563 0.74065 0.0
C1352 C 0.97143 0.07041 0.69408 0.0
H1353 H 0.04104 0.07531 0.65715 0.0
H1354 H 0.0223 0.07579 0.66172 0.0
C1355 C 0.96073 0.06968 0.69079 0.0
C1356 C 0.98816 0.06595 0.74194 0.0
H1357 H 0.00874 0.07386 0.82466 0.0
C1358 C 0.99355 0.06151 0.69429 0.0
C1359 C 0.99366 0.07048 0.78956 0.0
C1360 C 0.98824 0.07562 0.84099 0.0
C1361 C 0.00432 0.06137 0.69322 0.0
C1362 C 0.00984 0.06597 0.74054 0.0
C1363 C 0.00446 0.07036 0.78843 0.0
C1364 C 0.0212 0.06632 0.74069 0.0
C1365 C 0.00971 0.0561 0.64202 0.0
C1366 C 0.02679 0.06116 0.78501 0.0
C1367 C 0.03753 0.06092 0.78283 0.0
C1368 C 0.04285 0.06585 0.73627 0.0
C1369 C 0.0372 0.07134 0.69328 0.0
C1370 C 0.02648 0.07159 0.69562 0.0
H1371 H 0.0045 0.05074 0.61797 0.0
H1372 H 0.01239 0.06199 0.60979 0.0
H1373 H 0.01651 0.05173 0.65785 0.0
H1374 H 0.02283 0.05711 0.8204 0.0
H1375 H 0.04164 0.05668 0.81686 0.0
H1376 H 0.80665 0.70515 0.07993 0.0
H1377 H 0.80773 0.72381 0.09228 0.0
H1378 H 0.82419 0.72622 0.92608 0.0
H1379 H 0.82328 0.70758 0.91348 0.0
H1380 H 0.83257 0.73817 0.02139 0.0
H1381 H 0.79047 0.74417 0.99259 0.0
H1382 H 0.79418 0.73514 0.04925 0.0
H1383 H 0.79676 0.7323 0.97237 0.0
C1384 C 0.81054 0.70963 0.04605 0.0
C1385 C 0.81481 0.70487 0.99544 0.0
C1386 C 0.81111 0.72029 0.05314 0.0
C1387 C 0.81591 0.72637 0.00967 0.0
C1388 C 0.82042 0.72164 0.96 0.0
H1389 H 0.82528 0.78936 0.9166 0.0
H1390 H 0.82604 0.77076 0.92989 0.0
C1391 C 0.81987 0.71099 0.95285 0.0
C1392 C 0.81605 0.7377 0.01493 0.0
H1393 H 0.80055 0.75886 0.01086 0.0
C1394 C 0.82557 0.74271 0.01942 0.0
C1395 C 0.8069 0.74356 0.01257 0.0
C1396 C 0.79648 0.73856 0.00598 0.0
C1397 C 0.8262 0.75348 0.02101 0.0
C1398 C 0.81707 0.75935 0.0169 0.0
C1399 C 0.80753 0.75432 0.01406 0.0
C1400 C 0.81724 0.77069 0.01174 0.0
C1401 C 0.83662 0.75848 0.02709 0.0
C1402 C 0.81192 0.7768 0.05298 0.0
C1403 C 0.81139 0.78745 0.04531 0.0
C1404 C 0.81612 0.79216 0.99592 0.0
C1405 C 0.82158 0.786 0.95521 0.0
C1406 C 0.82209 0.77536 0.96295 0.0
H1407 H 0.8423 0.75316 0.04753 0.0
H1408 H 0.83949 0.76061 0.98221 0.0
H1409 H 0.83617 0.76557 0.05455 0.0
H1410 H 0.80807 0.77331 0.09071 0.0
H1411 H 0.80714 0.79196 0.07756 0.0
H1412 H 0.66523 0.29188 0.4978 0.0
H1413 H 0.66394 0.27327 0.51271 0.0
H1414 H 0.6969 0.27166 0.53556 0.0
H1415 H 0.69801 0.29032 0.52583 0.0
H1416 H 0.67006 0.25904 0.44968 0.0
H1417 H 0.68952 0.25302 0.66442 0.0
H1418 H 0.68617 0.2657 0.63852 0.0
H1419 H 0.6981 0.25974 0.6158 0.0
C1420 C 0.67214 0.28753 0.5074 0.0
C1421 C 0.6817 0.29247 0.51116 0.0
C1422 C 0.67142 0.27691 0.51577 0.0
C1423 C 0.6803 0.271 0.52637 0.0
C1424 C 0.68987 0.27601 0.52993 0.0
H1425 H 0.68715 0.20864 0.40688 0.0
H1426 H 0.68533 0.22722 0.41857 0.0
C1427 C 0.69053 0.28667 0.52369 0.0
C1428 C 0.67968 0.25957 0.52798 0.0
H1429 H 0.68943 0.23835 0.59731 0.0
C1430 C 0.67414 0.25454 0.4828 0.0
C1431 C 0.68477 0.25359 0.57175 0.0
C1432 C 0.68985 0.25833 0.62566 0.0
C1433 C 0.6739 0.24379 0.47872 0.0
C1434 C 0.67987 0.23786 0.51878 0.0
C1435 C 0.68503 0.24285 0.56559 0.0
C1436 C 0.6811 0.22656 0.51199 0.0
C1437 C 0.6671 0.23897 0.43187 0.0
C1438 C 0.67991 0.21998 0.56124 0.0
C1439 C 0.68139 0.20938 0.55508 0.0
C1440 C 0.68387 0.20517 0.49931 0.0
C1441 C 0.68507 0.21171 0.45012 0.0
C1442 C 0.68392 0.22232 0.4567 0.0
H1443 H 0.66033 0.24392 0.42224 0.0
H1444 H 0.6715 0.23816 0.38976 0.0
H1445 H 0.66428 0.23128 0.44581 0.0
H1446 H 0.67781 0.22303 0.60448 0.0
H1447 H 0.68042 0.20447 0.59361 0.0
H1448 H 0.82538 0.20945 0.07301 0.0
H1449 H 0.82544 0.22805 0.0586 0.0
H1450 H 0.80799 0.22449 0.89653 0.0
H1451 H 0.80774 0.20583 0.91086 0.0
H1452 H 0.83251 0.24036 0.96339 0.0
H1453 H 0.79028 0.24401 -0.00228 0.0
H1454 H 0.79727 0.23246 0.0163 0.0
H1455 H 0.79418 0.23526 0.94 0.0
C1456 C 0.82159 0.21259 0.03408 0.0
C1457 C 0.81644 0.20615 0.99346 0.0
C1458 C 0.82166 0.22323 0.02589 0.0
C1459 C 0.81658 0.22763 0.97706 0.0
C1460 C 0.81178 0.22123 0.93513 0.0
H1461 H 0.80444 0.29246 0.9046 0.0
H1462 H 0.80619 0.27382 0.89425 0.0
C1463 C 0.81168 0.21057 0.94332 0.0
C1464 C 0.81607 0.23895 0.97152 0.0
H1465 H 0.79943 0.25922 0.97731 0.0
C1466 C 0.82528 0.2445 0.9661 0.0
C1467 C 0.80662 0.2443 0.97506 0.0
C1468 C 0.79652 0.23874 0.98307 0.0
C1469 C 0.8253 0.25528 0.96459 0.0
C1470 C 0.81587 0.26062 0.96956 0.0
C1471 C 0.80664 0.25508 0.97346 0.0
C1472 C 0.8154 0.27196 0.97376 0.0
C1473 C 0.83539 0.26087 0.95762 0.0
C1474 C 0.81997 0.27706 0.02208 0.0
C1475 C 0.81897 0.2877 0.02828 0.0
C1476 C 0.81333 0.29343 0.98638 0.0
C1477 C 0.80884 0.28829 0.93769 0.0
C1478 C 0.80983 0.27765 0.93162 0.0
H1479 H 0.84139 0.25584 0.93785 0.0
H1480 H 0.8345 0.2678 0.92918 0.0
H1481 H 0.83813 0.26339 0.00213 0.0
H1482 H 0.82412 0.27277 0.05576 0.0
H1483 H 0.82251 0.29139 0.06638 0.0
H1484 H 0.69036 0.7066 0.40108 0.0
H1485 H 0.68952 0.72525 0.38744 0.0
H1486 H 0.67209 0.72809 0.55012 0.0
H1487 H 0.67272 0.70949 0.56372 0.0
H1488 H 0.66471 0.74051 0.45647 0.0
H1489 H 0.70692 0.74486 0.48935 0.0
H1490 H 0.70311 0.73622 0.43087 0.0
H1491 H 0.70018 0.73312 0.50699 0.0
C1492 C 0.68626 0.71118 0.43371 0.0
C1493 C 0.68169 0.70655 0.48384 0.0
C1494 C 0.68584 0.72183 0.42595 0.0
C1495 C 0.6809 0.72804 0.46834 0.0
C1496 C 0.67598 0.72342 0.51705 0.0
H1497 H 0.67407 0.79116 0.56754 0.0
H1498 H 0.67265 0.77259 0.55319 0.0
C1499 C 0.67637 0.71278 0.5248 0.0
C1500 C 0.68119 0.73939 0.46371 0.0
H1501 H 0.69745 0.75995 0.47127 0.0
C1502 C 0.67187 0.74477 0.45932 0.0
C1503 C 0.69055 0.7449 0.46744 0.0
C1504 C 0.70076 0.73952 0.4744 0.0
C1505 C 0.67164 0.75556 0.45918 0.0
C1506 C 0.68098 0.76106 0.46446 0.0
C1507 C 0.69031 0.75568 0.46717 0.0
C1508 C 0.68123 0.77238 0.47059 0.0
C1509 C 0.66144 0.76099 0.45347 0.0
C1510 C 0.68665 0.77839 0.42928 0.0
C1511 C 0.68753 0.789 0.43746 0.0
C1512 C 0.68308 0.79379 0.4875 0.0
C1513 C 0.67757 0.78774 0.52848 0.0
C1514 C 0.67668 0.77713 0.52014 0.0
H1515 H 0.65551 0.75592 0.43319 0.0
H1516 H 0.65871 0.76325 0.49845 0.0
H1517 H 0.66217 0.76806 0.42604 0.0
H1518 H 0.69028 0.77484 0.39099 0.0
H1519 H 0.69184 0.79342 0.40503 0.0
H1520 H 0.45754 0.42395 0.84589 0.0
H1521 H 0.4763 0.42303 0.84254 0.0
H1522 H 0.47647 0.44143 0.68272 0.0
H1523 H 0.4577 0.44232 0.68514 0.0
H1524 H 0.48988 0.42423 0.6791 0.0
H1525 H 0.49504 0.44743 0.88494 0.0
H1526 H 0.48683 0.43642 0.89326 0.0
H1527 H 0.48297 0.4468 0.84542 0.0
C1528 C 0.46155 0.42778 0.80987 0.0
C1529 C 0.45611 0.43327 0.76601 0.0
C1530 C 0.47227 0.42727 0.8082 0.0
C1531 C 0.47775 0.4323 0.76295 0.0
C1532 C 0.47236 0.43753 0.71816 0.0
H1533 H 0.54199 0.44285 0.68147 0.0
H1534 H 0.52327 0.44145 0.67866 0.0
C1535 C 0.46163 0.43804 0.71969 0.0
C1536 C 0.48912 0.43226 0.76289 0.0
H1537 H 0.51001 0.44007 0.84298 0.0
C1538 C 0.4943 0.4277 0.71482 0.0
C1539 C 0.49483 0.43682 0.80957 0.0
C1540 C 0.48966 0.44223 0.86101 0.0
C1541 C 0.50509 0.42744 0.71263 0.0
C1542 C 0.51079 0.432 0.75934 0.0
C1543 C 0.5056 0.43654 0.80741 0.0
C1544 C 0.52216 0.43232 0.75901 0.0
C1545 C 0.51028 0.42214 0.66094 0.0
C1546 C 0.52772 0.42777 0.80559 0.0
C1547 C 0.53842 0.4286 0.8076 0.0
C1548 C 0.54375 0.43406 0.76316 0.0
C1549 C 0.53815 0.43853 0.7162 0.0
C1550 C 0.52744 0.4377 0.7143 0.0
H1551 H 0.50498 0.41677 0.63767 0.0
H1552 H 0.51285 0.42801 0.62829 0.0
H1553 H 0.51715 0.41778 0.67604 0.0
H1554 H 0.52376 0.42364 0.8407 0.0
H1555 H 0.54249 0.42506 0.84439 0.0
H1556 H 0.04174 0.55682 0.15748 0.0
H1557 H 0.02305 0.55766 0.14615 0.0
H1558 H 0.02086 0.57535 0.30821 0.0
H1559 H 0.0395 0.57467 0.31968 0.0
H1560 H 0.00891 0.5499 0.22714 0.0
H1561 H 0.00278 0.59167 0.19327 0.0
H1562 H 0.01521 0.58565 0.18468 0.0
H1563 H 0.01044 0.58879 0.25769 0.0
C1564 C 0.0373 0.561 0.19036 0.0
C1565 C 0.04213 0.56566 0.23958 0.0
C1566 C 0.02663 0.56147 0.18375 0.0
C1567 C 0.0206 0.56668 0.22589 0.0
C1568 C 0.02539 0.57148 0.27448 0.0
H1569 H 0.95744 0.57215 0.32695 0.0
H1570 H 0.97608 0.57316 0.31451 0.0
C1571 C 0.03605 0.57102 0.28116 0.0
C1572 C 0.00925 0.56643 0.22185 0.0
H1573 H 0.98794 0.58175 0.21957 0.0
C1574 C 0.00431 0.55685 0.22462 0.0
C1575 C 0.0033 0.57552 0.2187 0.0
C1576 C 0.0082 0.58599 0.21283 0.0
C1577 C 0.99356 0.55612 0.22679 0.0
C1578 C 0.98761 0.56522 0.22519 0.0
C1579 C 0.99254 0.5748 0.22095 0.0
C1580 C 0.97629 0.56497 0.23062 0.0
C1581 C 0.98866 0.54565 0.23318 0.0
C1582 C 0.97024 0.56018 0.18697 0.0
C1583 C 0.95958 0.55956 0.19396 0.0
C1584 C 0.95479 0.56376 0.24465 0.0
C1585 C 0.96087 0.56879 0.2875 0.0
C1586 C 0.97152 0.5694 0.28045 0.0
H1587 H 0.99434 0.53968 0.24629 0.0
H1588 H 0.98241 0.54583 0.26692 0.0
H1589 H 0.98523 0.54335 0.18991 0.0
H1590 H 0.97377 0.55687 0.1477 0.0
H1591 H 0.95512 0.5557 0.15987 0.0
H1592 H 0.04202 0.44153 0.83111 0.0
H1593 H 0.02329 0.44053 0.84004 0.0
H1594 H 0.02192 0.42223 0.67996 0.0
H1595 H 0.04058 0.42326 0.67015 0.0
H1596 H 0.00904 0.43963 0.67983 0.0
H1597 H 0.00413 0.41648 0.88631 0.0
H1598 H 0.01264 0.42734 0.89205 0.0
H1599 H 0.01603 0.41673 0.84478 0.0
C1600 C 0.03775 0.43719 0.79816 0.0
C1601 C 0.0428 0.43252 0.74969 0.0
C1602 C 0.02706 0.43658 0.80359 0.0
C1603 C 0.02126 0.43123 0.76095 0.0
C1604 C 0.02629 0.42636 0.71343 0.0
H1605 H 0.95768 0.42205 0.67006 0.0
H1606 H 0.97636 0.42154 0.6794 0.0
C1607 C 0.03695 0.42697 0.70791 0.0
C1608 C 0.00989 0.43137 0.76283 0.0
H1609 H 0.98903 0.42349 0.84329 0.0
C1610 C 0.00466 0.43608 0.7155 0.0
C1611 C 0.00424 0.42683 0.80978 0.0
C1612 C 0.00951 0.42148 0.86099 0.0
C1613 C 0.9939 0.43635 0.71364 0.0
C1614 C 0.98823 0.43161 0.75983 0.0
C1615 C 0.99344 0.42707 0.80785 0.0
C1616 C 0.97688 0.43117 0.75794 0.0
C1617 C 0.98869 0.4418 0.6625 0.0
C1618 C 0.97099 0.43644 0.80043 0.0
C1619 C 0.96027 0.43672 0.79541 0.0
C1620 C 0.9553 0.43171 0.74782 0.0
C1621 C 0.96124 0.42608 0.70688 0.0
C1622 C 0.97193 0.42579 0.71202 0.0
H1623 H 0.99399 0.4472 0.63947 0.0
H1624 H 0.98605 0.43603 0.62945 0.0
H1625 H 0.98186 0.44617 0.67818 0.0
H1626 H 0.97469 0.44058 0.83639 0.0
H1627 H 0.95592 0.44108 0.82794 0.0
H1628 H 0.45547 0.55658 0.33887 0.0
H1629 H 0.47406 0.55777 0.35385 0.0
H1630 H 0.47658 0.57734 0.19946 0.0
H1631 H 0.45803 0.57631 0.18436 0.0
H1632 H 0.48876 0.55131 0.27191 0.0
H1633 H 0.49374 0.59266 0.32385 0.0
H1634 H 0.48144 0.58625 0.3284 0.0
H1635 H 0.48635 0.59044 0.25751 0.0
C1636 C 0.45995 0.56125 0.3085 0.0
C1637 C 0.45525 0.56633 0.26029 0.0
C1638 C 0.47057 0.56192 0.31721 0.0
C1639 C 0.47666 0.56775 0.27826 0.0
C1640 C 0.47199 0.57298 0.2308 0.0
H1641 H 0.53916 0.57602 0.17844 0.0
H1642 H 0.52061 0.57657 0.1947 0.0
C1643 C 0.46138 0.57231 0.22199 0.0
C1644 C 0.488 0.56771 0.28397 0.0
H1645 H 0.5089 0.5835 0.2938 0.0
C1646 C 0.49318 0.55831 0.27768 0.0
C1647 C 0.49371 0.57688 0.29145 0.0
C1648 C 0.48853 0.58712 0.30128 0.0
C1649 C 0.50395 0.55789 0.27571 0.0
C1650 C 0.50966 0.5671 0.28121 0.0
C1651 C 0.50448 0.57646 0.28947 0.0
C1652 C 0.52097 0.56724 0.27447 0.0
C1653 C 0.50912 0.54765 0.26496 0.0
C1654 C 0.52733 0.56198 0.31472 0.0
C1655 C 0.53796 0.56161 0.30548 0.0
C1656 C 0.5424 0.56655 0.25594 0.0
C1657 C 0.53601 0.5721 0.21688 0.0
C1658 C 0.5254 0.57244 0.22614 0.0
H1659 H 0.50358 0.54169 0.24983 0.0
H1660 H 0.51529 0.5484 0.23103 0.0
H1661 H 0.51269 0.54495 0.30703 0.0
H1662 H 0.52406 0.55807 0.35288 0.0
H1663 H 0.54266 0.55736 0.33674 0.0
H1664 H 0.15816 0.19243 0.25421 0.0
H1665 H 0.15795 0.1918 0.3634 0.0
H1666 H 0.17262 0.16205 0.35845 0.0
H1667 H 0.17246 0.16241 0.25032 0.0
H1668 H 0.16 0.16361 0.45246 0.0
H1669 H 0.18562 0.19787 0.4375 0.0
H1670 H 0.1728 0.19958 0.40957 0.0
H1671 H 0.18146 0.19091 0.37244 0.0
C1672 C 0.16104 0.18563 0.27648 0.0
C1673 C 0.16562 0.1776 0.24389 0.0
C1674 C 0.16099 0.18531 0.33879 0.0
C1675 C 0.16561 0.17705 0.36884 0.0
C1676 C 0.16913 0.16856 0.33616 0.0
H1677 H 0.2047 0.17455 0.67216 0.0
H1678 H 0.19643 0.17549 0.57402 0.0
C1679 C 0.16909 0.16882 0.27423 0.0
C1680 C 0.16815 0.17762 0.43295 0.0
H1681 H 0.18391 0.1901 0.53071 0.0
C1682 C 0.16511 0.16948 0.47 0.0
C1683 C 0.17498 0.1852 0.45513 0.0
C1684 C 0.17899 0.19385 0.41665 0.0
C1685 C 0.16906 0.16844 0.52782 0.0
C1686 C 0.17596 0.17596 0.54968 0.0
C1687 C 0.17864 0.18434 0.51359 0.0
C1688 C 0.18089 0.1751 0.60881 0.0
C1689 C 0.16623 0.15901 0.5635 0.0
C1690 C 0.1749 0.17451 0.66056 0.0
C1691 C 0.1796 0.17379 0.71614 0.0
C1692 C 0.19038 0.17405 0.72119 0.0
C1693 C 0.19639 0.17452 0.6694 0.0
C1694 C 0.19167 0.17508 0.61357 0.0
H1695 H 0.16327 0.15273 0.53458 0.0
H1696 H 0.17294 0.15606 0.58885 0.0
H1697 H 0.16008 0.16103 0.59572 0.0
H1698 H 0.16659 0.17465 0.65805 0.0
H1699 H 0.17477 0.17297 0.7551 0.0
H1700 H 0.08528 0.91799 0.49417 0.0
H1701 H 0.08741 0.92 0.60157 0.0
H1702 H 0.0546 0.91763 0.62544 0.0
H1703 H 0.05237 0.91556 0.51806 0.0
H1704 H 0.07739 0.93776 0.64866 0.0
H1705 H 0.06669 0.90232 0.77236 0.0
H1706 H 0.0709 0.90211 0.69559 0.0
H1707 H 0.05804 0.90605 0.71365 0.0
C1708 C 0.07854 0.91754 0.52241 0.0
C1709 C 0.06863 0.91684 0.49759 0.0
C1710 C 0.07978 0.91867 0.58376 0.0
C1711 C 0.07116 0.91901 0.62119 0.0
C1712 C 0.06135 0.91727 0.59726 0.0
H1713 H 0.05826 0.94164 0.97481 0.0
H1714 H 0.05755 0.9345 0.87386 0.0
C1715 C 0.06009 0.91613 0.53579 0.0
C1716 C 0.07222 0.92312 0.68215 0.0
H1717 H 0.06807 0.91775 0.82885 0.0
C1718 C 0.07547 0.93336 0.68821 0.0
C1719 C 0.06954 0.91739 0.73319 0.0
C1720 C 0.06616 0.90632 0.72874 0.0
C1721 C 0.07592 0.93812 0.74407 0.0
C1722 C 0.07329 0.93239 0.79535 0.0
C1723 C 0.07009 0.92211 0.78936 0.0
C1724 C 0.07371 0.93696 0.85559 0.0
C1725 C 0.07888 0.94934 0.74735 0.0
C1726 C 0.08301 0.94078 0.87838 0.0
C1727 C 0.08341 0.94492 0.93571 0.0
C1728 C 0.07455 0.94511 0.97144 0.0
C1729 C 0.06522 0.94143 0.94833 0.0
C1730 C 0.06481 0.93736 0.89083 0.0
H1731 H 0.07785 0.95327 0.70378 0.0
H1732 H 0.07425 0.95346 0.78141 0.0
H1733 H 0.08711 0.94996 0.75986 0.0
H1734 H 0.09 0.94038 0.85225 0.0
H1735 H 0.09071 0.94763 0.95289 0.0
H1736 H 0.33839 0.80645 0.7376 0.0
H1737 H 0.33917 0.80681 0.84678 0.0
H1738 H 0.32412 0.83639 0.847 0.0
H1739 H 0.32367 0.83628 0.73888 0.0
H1740 H 0.3375 0.83466 0.93854 0.0
H1741 H 0.31187 0.80036 0.92525 0.0
H1742 H 0.32456 0.79888 0.89486 0.0
H1743 H 0.31559 0.80752 0.86002 0.0
C1744 C 0.33554 0.81316 0.76098 0.0
C1745 C 0.33069 0.8212 0.72994 0.0
C1746 C 0.33593 0.81332 0.82327 0.0
C1747 C 0.33139 0.82147 0.85484 0.0
C1748 C 0.32757 0.82997 0.82353 0.0
H1749 H 0.2927 0.82468 0.15673 0.0
H1750 H 0.30117 0.82337 0.0593 0.0
C1751 C 0.32725 0.82986 0.76163 0.0
C1752 C 0.32921 0.82073 0.91929 0.0
H1753 H 0.3136 0.80827 0.0179 0.0
C1754 C 0.33242 0.82881 0.95637 0.0
C1755 C 0.32244 0.81314 0.94188 0.0
C1756 C 0.31833 0.80452 0.90354 0.0
C1757 C 0.3286 0.82983 0.01452 0.0
C1758 C 0.32165 0.82236 0.03652 0.0
C1759 C 0.31889 0.81399 0.00058 0.0
C1760 C 0.31663 0.82337 0.0953 0.0
C1761 C 0.33158 0.8392 0.05034 0.0
C1762 C 0.32252 0.82385 0.14745 0.0
C1763 C 0.31771 0.82477 0.20265 0.0
C1764 C 0.30692 0.82484 0.20683 0.0
C1765 C 0.30102 0.82446 0.15461 0.0
C1766 C 0.30585 0.82369 0.0992 0.0
H1767 H 0.33477 0.84539 0.02169 0.0
H1768 H 0.32487 0.84231 0.07508 0.0
H1769 H 0.33758 0.83703 0.08317 0.0
H1770 H 0.33084 0.8235 0.14554 0.0
H1771 H 0.32247 0.82549 0.24199 0.0
H1772 H 0.41185 0.07431 0.00399 0.0
H1773 H 0.41275 0.07513 0.11213 0.0
H1774 H 0.44302 0.08859 0.10093 0.0
H1775 H 0.44222 0.08768 0.992 0.0
H1776 H 0.44279 0.07068 0.16282 0.0
H1777 H 0.41179 0.09572 0.24704 0.0
H1778 H 0.40695 0.08706 0.19156 0.0
H1779 H 0.41648 0.0965 0.17135 0.0
C1780 C 0.41858 0.07773 0.02444 0.0
C1781 C 0.42703 0.08078 0.98971 0.0
C1782 C 0.41904 0.07829 0.08633 0.0
C1783 C 0.42793 0.08197 0.11454 0.0
C1784 C 0.43607 0.08578 0.07986 0.0
H1785 H 0.42803 0.07263 0.5006 0.0
H1786 H 0.43039 0.08091 0.4039 0.0
C1787 C 0.43559 0.08527 0.01771 0.0
C1788 C 0.42934 0.07999 0.17881 0.0
H1789 H 0.41672 0.08143 0.31164 0.0
C1790 C 0.43725 0.07324 0.19576 0.0
C1791 C 0.42217 0.08339 0.22178 0.0
C1792 C 0.41394 0.09116 0.20705 0.0
C1793 C 0.43772 0.06922 0.25356 0.0
C1794 C 0.42998 0.07189 0.29492 0.0
C1795 C 0.42253 0.07923 0.27936 0.0
C1796 C 0.42917 0.06678 0.35347 0.0
C1797 C 0.44634 0.06195 0.26932 0.0
C1798 C 0.42759 0.05611 0.35697 0.0
C1799 C 0.42637 0.05134 0.41229 0.0
C1800 C 0.42677 0.05718 0.46472 0.0
C1801 C 0.42814 0.06788 0.46097 0.0
C1802 C 0.42938 0.07264 0.40581 0.0
H1803 H 0.45316 0.06319 0.24034 0.0
H1804 H 0.44871 0.06287 0.31656 0.0
H1805 H 0.4437 0.05391 0.26271 0.0
H1806 H 0.42711 0.0515 0.31685 0.0
H1807 H 0.42507 0.04311 0.41415 0.0
H1808 H 0.1709 0.79999 0.71744 0.0
H1809 H 0.17361 0.80311 0.61125 0.0
H1810 H 0.16946 0.83565 0.63911 0.0
H1811 H 0.16676 0.83265 0.74547 0.0
H1812 H 0.16258 0.81509 0.51535 0.0
H1813 H 0.20049 0.83083 0.587 0.0
H1814 H 0.19263 0.823 0.63532 0.0
H1815 H 0.18921 0.83616 0.62172 0.0
C1816 C 0.17026 0.80778 0.70083 0.0
C1817 C 0.16886 0.8161 0.74009 0.0
C1818 C 0.17181 0.80954 0.64013 0.0
C1819 C 0.17195 0.81961 0.618 0.0
C1820 C 0.16951 0.82783 0.65585 0.0
H1821 H 0.19722 0.84256 0.28368 0.0
H1822 H 0.1904 0.84114 0.38531 0.0
C1823 C 0.16794 0.82609 0.71654 0.0
C1824 C 0.17594 0.82157 0.55757 0.0
H1825 H 0.1972 0.83028 0.48406 0.0
C1826 C 0.17011 0.81847 0.50828 0.0
C1827 C 0.18579 0.82595 0.54898 0.0
C1828 C 0.19246 0.82913 0.6009 0.0
C1829 C 0.1739 0.81964 0.45014 0.0
C1830 C 0.18386 0.8238 0.44158 0.0
C1831 C 0.18959 0.82707 0.49093 0.0
C1832 C 0.18854 0.8246 0.38178 0.0
C1833 C 0.16718 0.8165 0.39842 0.0
C1834 C 0.19015 0.81574 0.34741 0.0
C1835 C 0.19405 0.81654 0.2897 0.0
C1836 C 0.19644 0.82621 0.26566 0.0
C1837 C 0.19541 0.83502 0.30131 0.0
C1838 C 0.19146 0.83422 0.35904 0.0
H1839 H 0.15893 0.81626 0.41121 0.0
H1840 H 0.1681 0.82187 0.3603 0.0
H1841 H 0.16943 0.80869 0.38338 0.0
H1842 H 0.18827 0.80821 0.36495 0.0
H1843 H 0.19502 0.80962 0.26346 0.0
H1844 H 0.41574 0.91641 0.99318 0.0
H1845 H 0.41257 0.91862 0.88671 0.0
H1846 H 0.44514 0.92176 0.85576 0.0
H1847 H 0.44842 0.91958 0.96214 0.0
H1848 H 0.41937 0.93791 0.83644 0.0
H1849 H 0.43463 0.90421 0.71255 0.0
H1850 H 0.43087 0.90355 0.79001 0.0
H1851 H 0.44294 0.90924 0.76959 0.0
C1852 C 0.42227 0.91723 0.96358 0.0
C1853 C 0.43234 0.918 0.98624 0.0
C1854 C 0.42043 0.91851 0.90276 0.0
C1855 C 0.42862 0.92038 0.86363 0.0
C1856 C 0.43873 0.92022 0.88527 0.0
H1857 H 0.43817 0.94351 0.51005 0.0
H1858 H 0.43948 0.93696 0.61199 0.0
C1859 C 0.44059 0.91901 0.94616 0.0
C1860 C 0.42655 0.92416 0.80278 0.0
H1861 H 0.43109 0.91928 0.65591 0.0
C1862 C 0.4218 0.93379 0.79678 0.0
C1863 C 0.42985 0.9188 0.75158 0.0
C1864 C 0.43479 0.90833 0.75591 0.0
C1865 C 0.42057 0.9384 0.74081 0.0
C1866 C 0.42396 0.93309 0.68943 0.0
C1867 C 0.42852 0.92335 0.69542 0.0
C1868 C 0.42311 0.93761 0.62911 0.0
C1869 C 0.41605 0.94909 0.73756 0.0
C1870 C 0.41348 0.94029 0.60531 0.0
C1871 C 0.41275 0.94414 0.54731 0.0
C1872 C 0.4216 0.94514 0.51202 0.0
C1873 C 0.43123 0.94267 0.53627 0.0
C1874 C 0.43198 0.93893 0.59434 0.0
H1875 H 0.41646 0.95311 0.78119 0.0
H1876 H 0.42009 0.95383 0.70371 0.0
H1877 H 0.40783 0.94854 0.7247 0.0
H1878 H 0.40652 0.93916 0.63097 0.0
H1879 H 0.40523 0.94591 0.52922 0.0
H1880 H 0.3049 0.15644 0.77596 0.0
H1881 H 0.31178 0.15788 0.87707 0.0
H1882 H 0.3086 0.19088 0.86893 0.0
H1883 H 0.30174 0.18947 0.76743 0.0
H1884 H 0.32819 0.1842 0.90542 0.0
H1885 H 0.29712 0.16478 0.03287 0.0
H1886 H 0.30207 0.15742 0.97153 0.0
H1887 H 0.29536 0.16926 0.95745 0.0
C1888 C 0.30547 0.16398 0.79629 0.0
C1889 C 0.30288 0.17286 0.76405 0.0
C1890 C 0.30941 0.16479 0.85389 0.0
C1891 C 0.31066 0.17448 0.88035 0.0
C1892 C 0.30772 0.18334 0.84901 0.0
H1893 H 0.32989 0.19837 0.215 0.0
H1894 H 0.32762 0.19584 0.10823 0.0
C1895 C 0.30381 0.18253 0.79129 0.0
C1896 C 0.31545 0.17541 0.93974 0.0
H1897 H 0.31234 0.16879 0.08545 0.0
C1898 C 0.32474 0.18084 0.9449 0.0
C1899 C 0.31094 0.17095 0.99085 0.0
C1900 C 0.30078 0.16535 0.98824 0.0
C1901 C 0.32967 0.18194 0.00014 0.0
C1902 C 0.3251 0.17757 0.0513 0.0
C1903 C 0.31588 0.17203 0.04591 0.0
C1904 C 0.32918 0.17928 0.1119 0.0
C1905 C 0.33972 0.1877 0.00325 0.0
C1906 C 0.33121 0.17084 0.14898 0.0
C1907 C 0.33242 0.17225 0.21019 0.0
C1908 C 0.33154 0.18213 0.23518 0.0
C1909 C 0.33056 0.19066 0.19716 0.0
C1910 C 0.32931 0.18923 0.13595 0.0
H1911 H 0.34369 0.18779 0.9594 0.0
H1912 H 0.33819 0.19579 0.01629 0.0
H1913 H 0.34495 0.18426 0.03693 0.0
H1914 H 0.33116 0.16309 0.13112 0.0
H1915 H 0.33328 0.16553 0.23828 0.0
H1916 H 0.08596 0.08165 0.49746 0.0
H1917 H 0.08792 0.07991 0.38978 0.0
H1918 H 0.05508 0.08259 0.36786 0.0
H1919 H 0.05304 0.08442 0.47554 0.0
H1920 H 0.07771 0.0623 0.34325 0.0
H1921 H 0.06699 0.09781 0.22028 0.0
H1922 H 0.07131 0.09799 0.29686 0.0
H1923 H 0.05841 0.0941 0.27937 0.0
C1924 C 0.07919 0.08224 0.46957 0.0
C1925 C 0.06933 0.08295 0.49494 0.0
C1926 C 0.08033 0.08127 0.40809 0.0
C1927 C 0.07165 0.08107 0.37112 0.0
C1928 C 0.06189 0.08285 0.39568 0.0
H1929 H 0.05838 0.05835 0.0178 0.0
H1930 H 0.05771 0.0656 0.11852 0.0
C1931 C 0.06073 0.08385 0.4573 0.0
C1932 C 0.07258 0.07697 0.31008 0.0
H1933 H 0.06827 0.08239 0.1636 0.0
C1934 C 0.07577 0.06672 0.30382 0.0
C1935 C 0.06984 0.08272 0.25921 0.0
C1936 C 0.06651 0.0938 0.2639 0.0
C1937 C 0.07614 0.06197 0.24793 0.0
C1938 C 0.07348 0.06773 0.19681 0.0
C1939 C 0.07032 0.07801 0.20299 0.0
C1940 C 0.07388 0.06318 0.13656 0.0
C1941 C 0.07906 0.05074 0.24447 0.0
C1942 C 0.08318 0.05937 0.11372 0.0
C1943 C 0.08355 0.05516 0.05655 0.0
C1944 C 0.07468 0.0549 0.02103 0.0
C1945 C 0.06536 0.05861 0.04413 0.0
C1946 C 0.06497 0.06274 0.10148 0.0
H1947 H 0.07803 0.04681 0.288 0.0
H1948 H 0.0744 0.04665 0.21044 0.0
H1949 H 0.08728 0.05009 0.23181 0.0
H1950 H 0.09018 0.0598 0.13973 0.0
H1951 H 0.09085 0.05244 0.03938 0.0
H1952 H 0.83188 0.83364 0.74629 0.0
H1953 H 0.82956 0.83614 0.63926 0.0
H1954 H 0.82895 0.80331 0.61325 0.0
H1955 H 0.8313 0.80068 0.72022 0.0
H1956 H 0.83884 0.81662 0.51646 0.0
H1957 H 0.79923 0.8275 0.58736 0.0
H1958 H 0.80971 0.83414 0.62277 0.0
H1959 H 0.80795 0.82064 0.63565 0.0
C1960 C 0.83157 0.82694 0.71765 0.0
C1961 C 0.8315 0.81696 0.74183 0.0
C1962 C 0.83025 0.8284 0.65657 0.0
C1963 C 0.82887 0.8199 0.61901 0.0
C1964 C 0.82994 0.80994 0.64192 0.0
H1965 H 0.80707 0.80824 0.26288 0.0
H1966 H 0.81434 0.80731 0.3633 0.0
C1967 C 0.83128 0.80846 0.70306 0.0
C1968 C 0.82475 0.82136 0.55846 0.0
H1969 H 0.80271 0.82769 0.48467 0.0
C1970 C 0.83097 0.81908 0.50926 0.0
C1971 C 0.81446 0.82455 0.54972 0.0
C1972 C 0.80738 0.82679 0.60151 0.0
C1973 C 0.82715 0.81997 0.451 0.0
C1974 C 0.81679 0.82298 0.44231 0.0
C1975 C 0.81063 0.82538 0.49162 0.0
C1976 C 0.8121 0.82347 0.38244 0.0
C1977 C 0.83425 0.81779 0.39934 0.0
C1978 C 0.80796 0.83275 0.36127 0.0
C1979 C 0.80373 0.83327 0.30415 0.0
C1980 C 0.80363 0.82453 0.26749 0.0
C1981 C 0.80733 0.81514 0.2898 0.0
C1982 C 0.81151 0.81462 0.34693 0.0
H1983 H 0.84246 0.81845 0.41255 0.0
H1984 H 0.83293 0.80982 0.3834 0.0
H1985 H 0.83277 0.82313 0.36172 0.0
H1986 H 0.80822 0.83963 0.38846 0.0
H1987 H 0.8009 0.84058 0.28786 0.0
H1988 H 0.92297 0.07384 0.99245 0.0
H1989 H 0.92481 0.08222 0.08901 0.0
H1990 H 0.92852 0.05259 0.17281 0.0
H1991 H 0.92727 0.04418 0.07519 0.0
H1992 H 0.91343 0.08108 0.18514 0.0
H1993 H 0.95266 0.06793 0.2411 0.0
H1994 H 0.94729 0.06654 0.16738 0.0
H1995 H 0.94441 0.05725 0.22462 0.0
C1996 C 0.92451 0.06913 0.03116 0.0
C1997 C 0.92546 0.05839 0.02615 0.0
C1998 C 0.92543 0.07393 0.08642 0.0
C1999 C 0.92711 0.06806 0.13786 0.0
C2000 C 0.9276 0.05729 0.13335 0.0
H2001 H 0.91211 0.07549 0.49369 0.0
H2002 H 0.91203 0.07583 0.38562 0.0
C2003 C 0.92679 0.05248 0.07782 0.0
C2004 C 0.92789 0.07318 0.19657 0.0
H2005 H 0.94225 0.07374 0.32341 0.0
C2006 C 0.91982 0.07962 0.21505 0.0
C2007 C 0.93637 0.07157 0.23485 0.0
C2008 C 0.94572 0.06554 0.21568 0.0
C2009 C 0.91966 0.08388 0.27244 0.0
C2010 C 0.92764 0.08139 0.31272 0.0
C2011 C 0.93606 0.07557 0.29276 0.0
C2012 C 0.92679 0.08342 0.37741 0.0
C2013 C 0.91086 0.09082 0.28956 0.0
C2014 C 0.93505 0.08775 0.4091 0.0
C2015 C 0.93519 0.08741 0.47137 0.0
C2016 C 0.92711 0.08267 0.50262 0.0
C2017 C 0.9185 0.07912 0.47089 0.0
C2018 C 0.91838 0.07942 0.4089 0.0
H2019 H 0.90807 0.09524 0.25037 0.0
H2020 H 0.90435 0.08607 0.30585 0.0
H2021 H 0.91309 0.09632 0.32514 0.0
H2022 H 0.94163 0.09085 0.38558 0.0
H2023 H 0.94192 0.09024 0.49462 0.0
H2024 H 0.66316 0.19586 0.24797 0.0
H2025 H 0.6638 0.19575 0.13903 0.0
H2026 H 0.6716 0.1635 0.14146 0.0
H2027 H 0.67086 0.16351 0.24982 0.0
H2028 H 0.68253 0.19146 0.08881 0.0
H2029 H 0.65316 0.16523 0.99583 0.0
H2030 H 0.65217 0.17064 0.06982 0.0
H2031 H 0.66004 0.15947 0.05653 0.0
C2032 C 0.66463 0.18866 0.22522 0.0
C2033 C 0.66715 0.17973 0.25734 0.0
C2034 C 0.66499 0.18862 0.163 0.0
C2035 C 0.66774 0.17962 0.13225 0.0
C2036 C 0.6693 0.17049 0.16417 0.0
H2037 H 0.69713 0.16003 0.81244 0.0
H2038 H 0.68946 0.16223 0.91155 0.0
C2039 C 0.66897 0.17053 0.22623 0.0
C2040 C 0.67091 0.18013 0.06914 0.0
H2041 H 0.66834 0.16794 0.9354 0.0
C2042 C 0.67928 0.18649 0.05482 0.0
C2043 C 0.66673 0.17356 0.02527 0.0
C2044 C 0.65746 0.16692 0.03749 0.0
C2045 C 0.68394 0.18606 -0.00138 0.0
C2046 C 0.68 0.1792 0.9555 0.0
C2047 C 0.67139 0.17312 0.96896 0.0
C2048 C 0.68489 0.17803 0.89661 0.0
C2049 C 0.69333 0.19257 0.98679 0.0
C2050 C 0.68497 0.18623 0.85615 0.0
C2051 C 0.6894 0.18501 0.80002 0.0
C2052 C 0.6937 0.17553 0.7833 0.0
C2053 C 0.69387 0.16741 0.82442 0.0
C2054 C 0.68942 0.16863 0.88063 0.0
H2055 H 0.69665 0.19576 0.02851 0.0
H2056 H 0.69935 0.18803 0.96355 0.0
H2057 H 0.69117 0.19911 0.9576 0.0
H2058 H 0.68148 0.19353 0.8677 0.0
H2059 H 0.6894 0.19147 0.76958 0.0
H2060 H 0.55109 0.92163 0.97995 0.0
H2061 H 0.5547 0.92243 0.87353 0.0
H2062 H 0.58685 0.91681 0.90805 0.0
H2063 H 0.58334 0.91617 0.01487 0.0
H2064 H 0.58343 0.93504 0.85266 0.0
H2065 H 0.56252 0.90411 0.73429 0.0
H2066 H 0.55444 0.91091 0.7858 0.0
H2067 H 0.56519 0.90358 0.81325 0.0
C2068 C 0.55887 0.92021 0.96486 0.0
C2069 C 0.56696 0.91906 0.00579 0.0
C2070 C 0.56091 0.92061 0.90387 0.0
C2071 C 0.57105 0.91971 0.88299 0.0
C2072 C 0.57898 0.91755 0.9234 0.0
H2073 H 0.58543 0.92953 0.50812 0.0
H2074 H 0.58469 0.92238 0.60865 0.0
C2075 C 0.57696 0.9172 0.98439 0.0
C2076 C 0.57355 0.92285 0.82147 0.0
H2077 H 0.56701 0.91905 0.67606 0.0
C2078 C 0.57999 0.93143 0.81392 0.0
C2079 C 0.56906 0.91812 0.77113 0.0
C2080 C 0.5625 0.90861 0.77641 0.0
C2081 C 0.58175 0.93566 0.75749 0.0
C2082 C 0.57678 0.93129 0.70759 0.0
C2083 C 0.57069 0.92246 0.7147 0.0
C2084 C 0.57767 0.93587 0.64767 0.0
C2085 C 0.58884 0.94479 0.7519 0.0
C2086 C 0.57405 0.94587 0.63663 0.0
C2087 C 0.57442 0.94996 0.57909 0.0
C2088 C 0.57824 0.94402 0.53193 0.0
C2089 C 0.58213 0.93414 0.54344 0.0
C2090 C 0.58179 0.93007 0.60082 0.0
H2091 H 0.59416 0.94536 0.7905 0.0
H2092 H 0.59345 0.94436 0.71035 0.0
H2093 H 0.58418 0.95194 0.75046 0.0
H2094 H 0.57072 0.95041 0.67221 0.0
H2095 H 0.5714 0.9576 0.57109 0.0
H2096 H 0.83442 0.16632 0.24639 0.0
H2097 H 0.83239 0.16361 0.3535 0.0
H2098 H 0.82767 0.19615 0.37866 0.0
H2099 H 0.82982 0.19898 0.27182 0.0
H2100 H 0.83827 0.18582 0.47514 0.0
H2101 H 0.80179 0.16689 0.4059 0.0
H2102 H 0.8133 0.16159 0.37394 0.0
H2103 H 0.80948 0.17447 0.3554 0.0
C2104 C 0.83326 0.17294 0.27493 0.0
C2105 C 0.832 0.18283 0.25059 0.0
C2106 C 0.83208 0.17137 0.336 0.0
C2107 C 0.82959 0.17965 0.37331 0.0
C2108 C 0.82949 0.18966 0.35022 0.0
H2109 H 0.79276 0.18013 0.69369 0.0
H2110 H 0.7996 0.18203 0.59216 0.0
C2111 C 0.83073 0.19126 0.28914 0.0
C2112 C 0.82569 0.17776 0.43398 0.0
H2113 H 0.80537 0.16732 0.50881 0.0
C2114 C 0.83112 0.18173 0.48274 0.0
C2115 C 0.81622 0.17263 0.44319 0.0
C2116 C 0.80979 0.16872 0.39193 0.0
C2117 C 0.82736 0.1806 0.54096 0.0
C2118 C 0.81802 0.17524 0.55023 0.0
C2119 C 0.81256 0.17135 0.50137 0.0
C2120 C 0.81369 0.17371 0.61035 0.0
C2121 C 0.83327 0.18536 0.59183 0.0
C2122 C 0.81918 0.1681 0.65309 0.0
C2123 C 0.8153 0.16704 0.71061 0.0
C2124 C 0.80586 0.17153 0.72608 0.0
C2125 C 0.80009 0.17668 0.68257 0.0
C2126 C 0.80401 0.17779 0.62495 0.0
H2127 H 0.83874 0.19134 0.57601 0.0
H2128 H 0.82797 0.18889 0.62482 0.0
H2129 H 0.83777 0.1793 0.61482 0.0
H2130 H 0.8265 0.16461 0.64205 0.0
H2131 H 0.81969 0.16272 0.74303 0.0
H2132 H 0.55711 0.0584 0.47896 0.0
H2133 H 0.55634 0.06553 0.37794 0.0
H2134 H 0.58875 0.05955 0.35555 0.0
H2135 H 0.58953 0.05237 0.45618 0.0
H2136 H 0.56711 0.08231 0.33268 0.0
H2137 H 0.57626 0.04666 0.20745 0.0
H2138 H 0.57262 0.04652 0.28504 0.0
H2139 H 0.58557 0.04973 0.26371 0.0
C2140 C 0.56404 0.05859 0.4523 0.0
C2141 C 0.57339 0.05491 0.47525 0.0
C2142 C 0.5636 0.06265 0.39477 0.0
C2143 C 0.57247 0.06301 0.35931 0.0
C2144 C 0.58178 0.05918 0.38187 0.0
H2145 H 0.58585 0.08176 0.00095 0.0
H2146 H 0.58731 0.07958 0.10863 0.0
C2147 C 0.58221 0.05507 0.43923 0.0
C2148 C 0.57207 0.06758 0.29911 0.0
H2149 H 0.57643 0.06224 0.15267 0.0
C2150 C 0.56911 0.07793 0.2932 0.0
C2151 C 0.57466 0.06183 0.24788 0.0
C2152 C 0.57736 0.05054 0.25109 0.0
C2153 C 0.56885 0.08273 0.23716 0.0
C2154 C 0.57158 0.07699 0.18619 0.0
C2155 C 0.57449 0.06665 0.19217 0.0
C2156 C 0.57101 0.08124 0.12533 0.0
C2157 C 0.5658 0.09389 0.23283 0.0
C2158 C 0.56142 0.08344 0.09973 0.0
C2159 C 0.56055 0.08471 0.03812 0.0
C2160 C 0.56926 0.08364 0.00147 0.0
C2161 C 0.57898 0.08249 0.02802 0.0
C2162 C 0.57984 0.08126 0.08951 0.0
H2163 H 0.56625 0.09782 0.27672 0.0
H2164 H 0.57079 0.09802 0.20058 0.0
H2165 H 0.55776 0.09441 0.2166 0.0
H2166 H 0.5545 0.08333 0.12663 0.0
H2167 H 0.55296 0.08561 0.01898 0.0
H2168 H 0.6703 0.8345 0.74443 0.0
H2169 H 0.67149 0.83431 0.85281 0.0
H2170 H 0.66349 0.80212 0.85453 0.0
H2171 H 0.66244 0.80218 0.74556 0.0
H2172 H 0.65932 0.82812 0.95297 0.0
H2173 H 0.69361 0.80326 0.91433 0.0
H2174 H 0.68721 0.80993 0.85447 0.0
H2175 H 0.68154 0.7986 0.88624 0.0
C2176 C 0.66854 0.82743 0.76787 0.0
C2177 C 0.66654 0.81829 0.7365 0.0
C2178 C 0.66918 0.82735 0.82982 0.0
C2179 C 0.66783 0.81814 0.86126 0.0
C2180 C 0.66474 0.80926 0.83067 0.0
H2181 H 0.69059 0.80755 0.22264 0.0
H2182 H 0.68259 0.80508 0.12488 0.0
C2183 C 0.66409 0.80932 0.7685 0.0
C2184 C 0.67114 0.81766 0.92409 0.0
H2185 H 0.69079 0.80904 0.01168 0.0
C2186 C 0.66611 0.82384 0.96616 0.0
C2187 C 0.68006 0.81211 0.94077 0.0
C2188 C 0.686 0.80564 0.89669 0.0
C2189 C 0.66989 0.82479 0.02442 0.0
C2190 C 0.67902 0.81956 0.04031 0.0
C2191 C 0.68382 0.81307 -0.00101 0.0
C2192 C 0.68397 0.82104 0.09883 0.0
C2193 C 0.66416 0.83145 0.06831 0.0
C2194 C 0.68771 0.83076 0.11539 0.0
C2195 C 0.69228 0.83218 0.17107 0.0
C2196 C 0.69312 0.82391 0.2109 0.0
C2197 C 0.68979 0.8141 0.19316 0.0
C2198 C 0.68525 0.81267 0.13746 0.0
H2199 H 0.65602 0.83259 0.05474 0.0
H2200 H 0.66432 0.82803 0.11365 0.0
H2201 H 0.66789 0.83912 0.07048 0.0
H2202 H 0.68703 0.83724 0.08538 0.0
H2203 H 0.69483 0.8398 0.18374 0.0
H2204 H 0.92285 0.95587 0.92806 0.0
H2205 H 0.92362 0.94806 0.82854 0.0
H2206 H 0.92411 0.91785 0.90818 0.0
H2207 H 0.92255 0.92554 0.00651 0.0
H2208 H 0.9383 0.93651 0.78085 0.0
H2209 H 0.90217 0.91395 0.78675 0.0
H2210 H 0.90524 0.92348 0.8423 0.0
H2211 H 0.91068 0.91077 0.84679 0.0
C2212 C 0.92306 0.94757 0.92403 0.0
C2213 C 0.92302 0.94133 0.97497 0.0
C2214 C 0.92352 0.94311 0.86739 0.0
C2215 C 0.92387 0.93236 0.86097 0.0
C2216 C 0.9237 0.92614 0.9119 0.0
H2217 H 0.9433 0.90907 0.51216 0.0
H2218 H 0.9422 0.91002 0.62102 0.0
C2219 C 0.92306 0.93057 0.96826 0.0
C2220 C 0.92475 0.92767 0.8011 0.0
H2221 H 0.91343 0.91065 0.70567 0.0
C2222 C 0.93287 0.93085 0.76435 0.0
C2223 C 0.91763 0.9203 0.7798 0.0
C2224 C 0.90838 0.917 0.81575 0.0
C2225 C 0.93394 0.92708 0.70623 0.0
C2226 C 0.9269 0.9196 0.68513 0.0
C2227 C 0.91892 0.91623 0.72242 0.0
C2228 C 0.92681 0.91638 0.6219 0.0
C2229 C 0.94227 0.93156 0.66714 0.0
C2230 C 0.91819 0.91871 0.58703 0.0
C2231 C 0.9187 0.91797 0.52526 0.0
C2232 C 0.92791 0.915 0.49725 0.0
C2233 C 0.93616 0.91156 0.53246 0.0
C2234 C 0.93558 0.91218 0.59459 0.0
H2235 H 0.94555 0.93873 0.6862 0.0
H2236 H 0.94861 0.92591 0.66259 0.0
H2237 H 0.93926 0.93331 0.62197 0.0
H2238 H 0.91129 0.92183 0.60721 0.0
H2239 H 0.91212 0.92047 0.49942 0.0
H2240 H 0.67767 0.66498 0.2428 0.0
H2241 H 0.67044 0.66557 0.1423 0.0
H2242 H 0.69899 0.67806 0.07599 0.0
H2243 H 0.70627 0.67743 0.17701 0.0
H2244 H 0.66785 0.68322 0.07372 0.0
H2245 H 0.69258 0.65455 0.95992 0.0
H2246 H 0.69174 0.65547 0.04007 0.0
H2247 H 0.69972 0.66426 -0.00104 0.0
C2248 C 0.68239 0.66783 0.20668 0.0
C2249 C 0.69244 0.67135 0.21733 0.0
C2250 C 0.67827 0.66814 0.14945 0.0
C2251 C 0.68419 0.67184 0.10192 0.0
C2252 C 0.69435 0.67506 0.11213 0.0
H2253 H 0.67113 0.69873 0.77016 0.0
H2254 H 0.67169 0.69509 0.87657 0.0
C2255 C 0.69849 0.67473 0.16957 0.0
C2256 C 0.67954 0.67279 0.04224 0.0
H2257 H 0.68275 0.6657 0.89746 0.0
C2258 C 0.67101 0.6793 0.03517 0.0
C2259 C 0.68357 0.66751 0.99249 0.0
C2260 C 0.69234 0.65998 -0.00183 0.0
C2261 C 0.66669 0.68105 0.97884 0.0
C2262 C 0.67113 0.67626 0.92857 0.0
C2263 C 0.67936 0.66939 0.93614 0.0
C2264 C 0.66812 0.67891 0.86705 0.0
C2265 C 0.65751 0.68808 0.97359 0.0
C2266 C 0.66558 0.67109 0.82661 0.0
C2267 C 0.66537 0.67312 0.76562 0.0
C2268 C 0.66776 0.68301 0.74428 0.0
C2269 C 0.6693 0.69104 0.78522 0.0
C2270 C 0.66956 0.68898 0.8462 0.0
H2271 H 0.65303 0.68828 0.01572 0.0
H2272 H 0.66022 0.69602 0.9643 0.0
H2273 H 0.65236 0.68566 0.93674 0.0
H2274 H 0.66443 0.66327 0.84196 0.0
H2275 H 0.66404 0.6668 0.73512 0.0
H2276 H 0.58694 0.42417 0.00415 0.0
H2277 H 0.58696 0.4232 0.11208 0.0
H2278 H 0.55816 0.4067 0.10813 0.0
H2279 H 0.55794 0.40792 -0.00078 0.0
H2280 H 0.55665 0.42343 0.17341 0.0
H2281 H 0.59175 0.40326 0.24395 0.0
H2282 H 0.5951 0.41279 0.1898 0.0
H2283 H 0.58682 0.40226 0.16893 0.0
C2284 C 0.58073 0.42009 0.02601 0.0
C2285 C 0.57234 0.41629 0.99331 0.0
C2286 C 0.58082 0.41943 0.08788 0.0
C2287 C 0.5726 0.41481 0.11826 0.0
C2288 C 0.5646 0.41027 0.08546 0.0
H2289 H 0.5765 0.42417 0.50367 0.0
H2290 H 0.57473 0.41558 0.40761 0.0
C2291 C 0.56449 0.41096 0.02329 0.0
C2292 C 0.5716 0.41645 0.18321 0.0
H2293 H 0.58586 0.41708 0.31053 0.0
C2294 C 0.56292 0.4218 0.20381 0.0
C2295 C 0.57969 0.41419 0.2232 0.0
C2296 C 0.5888 0.4077 0.2053 0.0
C2297 C 0.56248 0.42565 0.26202 0.0
C2298 C 0.57107 0.42436 0.2999 0.0
C2299 C 0.57939 0.41831 0.2809 0.0
C2300 C 0.57175 0.42957 0.35837 0.0
C2301 C 0.55289 0.43123 0.28181 0.0
C2302 C 0.57087 0.44032 0.36241 0.0
C2303 C 0.57164 0.44524 0.41759 0.0
C2304 C 0.57335 0.43946 0.46939 0.0
C2305 C 0.57468 0.42876 0.46484 0.0
C2306 C 0.5738 0.42385 0.4099 0.0
H2307 H 0.54603 0.42851 0.25682 0.0
H2308 H 0.55147 0.43017 0.33021 0.0
H2309 H 0.55379 0.43957 0.27274 0.0
H2310 H 0.56967 0.44493 0.32281 0.0
H2311 H 0.57085 0.45352 0.41987 0.0
H2312 H 0.82214 0.32919 0.73685 0.0
H2313 H 0.8306 0.32795 0.64029 0.0
H2314 H 0.80117 0.32308 0.55593 0.0
H2315 H 0.79273 0.32355 0.65361 0.0
H2316 H 0.81518 0.30957 0.51759 0.0
H2317 H 0.83189 0.34885 0.51032 0.0
H2318 H 0.83588 0.34141 0.57351 0.0
H2319 H 0.8226 0.34504 0.56569 0.0
C2320 C 0.81749 0.32762 0.69792 0.0
C2321 C 0.80682 0.32605 0.70281 0.0
C2322 C 0.82232 0.32714 0.64258 0.0
C2323 C 0.81652 0.32549 0.5909 0.0
C2324 C 0.8058 0.32431 0.59544 0.0
H2325 H 0.82267 0.33662 0.23123 0.0
H2326 H 0.82299 0.33751 0.33912 0.0
C2327 C 0.80098 0.32462 0.65101 0.0
C2328 C 0.82159 0.32462 0.53215 0.0
H2329 H 0.83604 0.33775 0.43065 0.0
C2330 C 0.81979 0.3157 0.49858 0.0
C2331 C 0.82767 0.33262 0.50794 0.0
C2332 C 0.82956 0.34256 0.54096 0.0
C2333 C 0.8234 0.31478 0.44006 0.0
C2334 C 0.82932 0.32286 0.41527 0.0
C2335 C 0.83161 0.33153 0.4501 0.0
C2336 C 0.83146 0.3233 0.35062 0.0
C2337 C 0.82022 0.30546 0.40424 0.0
C2338 C 0.83668 0.31534 0.32102 0.0
C2339 C 0.83633 0.31469 0.25881 0.0
C2340 C 0.83088 0.32209 0.22582 0.0
C2341 C 0.82673 0.33066 0.25544 0.0
C2342 C 0.82697 0.33123 0.31726 0.0
H2343 H 0.81416 0.30089 0.427 0.0
H2344 H 0.81727 0.30779 0.35981 0.0
H2345 H 0.82698 0.30039 0.39752 0.0
H2346 H 0.84046 0.30931 0.34605 0.0
H2347 H 0.83975 0.30809 0.23708 0.0
H2348 H 0.94095 0.55704 0.97637 0.0
H2349 H 0.94325 0.56502 0.87838 0.0
H2350 H 0.91114 0.56004 0.83951 0.0
H2351 H 0.90876 0.55226 0.93807 0.0
H2352 H 0.93932 0.55663 0.76525 0.0
H2353 H 0.91531 0.59111 0.80808 0.0
H2354 H 0.92004 0.58293 0.86709 0.0
H2355 H 0.90899 0.57915 0.82425 0.0
C2356 C 0.93438 0.55772 0.94701 0.0
C2357 C 0.92463 0.55425 0.96499 0.0
C2358 C 0.9357 0.56224 0.89116 0.0
C2359 C 0.9273 0.56336 0.8526 0.0
C2360 C 0.91765 0.55948 0.86943 0.0
H2361 H 0.91376 0.57735 0.4974 0.0
H2362 H 0.91387 0.57592 0.60569 0.0
C2363 C 0.91633 0.55493 0.92526 0.0
C2364 C 0.92867 0.56829 0.7939 0.0
H2365 H 0.91987 0.58788 0.70648 0.0
C2366 C 0.93521 0.56355 0.75254 0.0
C2367 C 0.92332 0.57734 0.77794 0.0
C2368 C 0.91659 0.583 0.82182 0.0
C2369 C 0.93611 0.56732 0.69428 0.0
C2370 C 0.93047 0.57618 0.67759 0.0
C2371 C 0.92422 0.58113 0.71965 0.0
C2372 C 0.93003 0.57955 0.61484 0.0
C2373 C 0.94263 0.56144 0.65021 0.0
C2374 C 0.93894 0.58271 0.58468 0.0
C2375 C 0.93892 0.5835 0.52256 0.0
C2376 C 0.92998 0.58112 0.49011 0.0
C2377 C 0.92081 0.57906 0.52113 0.0
C2378 C 0.92085 0.57828 0.58304 0.0
H2379 H 0.94502 0.55381 0.66766 0.0
H2380 H 0.9384 0.56026 0.60778 0.0
H2381 H 0.94968 0.56593 0.64021 0.0
H2382 H 0.94605 0.58392 0.60881 0.0
H2383 H 0.94608 0.5852 0.49996 0.0
H2384 H 0.69415 0.30923 0.76992 0.0
H2385 H 0.68738 0.30799 0.87143 0.0
H2386 H 0.69043 0.34085 0.89199 0.0
H2387 H 0.6973 0.3421 0.79035 0.0
H2388 H 0.69693 0.32995 0.99038 0.0
H2389 H 0.65836 0.31662 0.91875 0.0
H2390 H 0.66863 0.30877 0.89074 0.0
H2391 H 0.66762 0.32197 0.86744 0.0
C2392 C 0.69337 0.31618 0.79621 0.0
C2393 C 0.69604 0.32578 0.77227 0.0
C2394 C 0.68947 0.31547 0.85392 0.0
C2395 C 0.68811 0.32437 0.88837 0.0
C2396 C 0.69129 0.33391 0.86567 0.0
H2397 H 0.66661 0.33226 0.2531 0.0
H2398 H 0.66917 0.33536 0.14671 0.0
C2399 C 0.69526 0.33461 0.80795 0.0
C2400 C 0.68345 0.32366 0.94829 0.0
H2401 H 0.66217 0.31514 0.02276 0.0
C2402 C 0.68928 0.32684 -0.00253 0.0
C2403 C 0.67344 0.31964 0.95717 0.0
C2404 C 0.6666 0.31665 0.90569 0.0
C2405 C 0.68554 0.32571 0.05565 0.0
C2406 C 0.67567 0.32142 0.06455 0.0
C2407 C 0.66973 0.31844 0.01545 0.0
C2408 C 0.67178 0.31937 0.12508 0.0
C2409 C 0.6923 0.32879 0.10739 0.0
C2410 C 0.67179 0.30928 0.14696 0.0
C2411 C 0.67033 0.30746 0.20767 0.0
C2412 C 0.66887 0.31573 0.24718 0.0
C2413 C 0.66783 0.32573 0.22395 0.0
C2414 C 0.66931 0.32754 0.16325 0.0
H2415 H 0.70029 0.33057 0.09313 0.0
H2416 H 0.68905 0.33573 0.12912 0.0
H2417 H 0.69256 0.32256 0.1412 0.0
H2418 H 0.67362 0.3029 0.11783 0.0
H2419 H 0.67108 0.29966 0.22406 0.0
H2420 H 0.9063 0.4455 0.03937 0.0
H2421 H 0.90738 0.43837 0.14019 0.0
H2422 H 0.94029 0.43543 0.1215 0.0
H2423 H 0.9392 0.44243 0.02032 0.0
H2424 H 0.93116 0.41775 0.1643 0.0
H2425 H 0.91789 0.45198 0.29074 0.0
H2426 H 0.90914 0.44796 0.23353 0.0
H2427 H 0.92168 0.45266 0.21349 0.0
C2428 C 0.91377 0.44348 0.05728 0.0
C2429 C 0.92266 0.44443 0.02229 0.0
C2430 C 0.91438 0.43941 0.11472 0.0
C2431 C 0.92392 0.43643 0.13831 0.0
C2432 C 0.93285 0.43764 0.10391 0.0
H2433 H 0.94682 0.41627 0.47416 0.0
H2434 H 0.94433 0.41832 0.36702 0.0
C2435 C 0.93222 0.44164 0.04633 0.0
C2436 C 0.92459 0.4318 0.1983 0.0
H2437 H 0.91973 0.4365 0.34499 0.0
C2438 C 0.92867 0.42183 0.2039 0.0
C2439 C 0.92132 0.43716 0.2497 0.0
C2440 C 0.91735 0.44807 0.24683 0.0
C2441 C 0.92954 0.41707 0.25979 0.0
C2442 C 0.92627 0.42245 0.31101 0.0
C2443 C 0.92211 0.43236 0.30532 0.0
C2444 C 0.9277 0.41839 0.37182 0.0
C2445 C 0.93388 0.40634 0.26372 0.0
C2446 C 0.91917 0.41731 0.40948 0.0
C2447 C 0.92057 0.41619 0.47074 0.0
C2448 C 0.93052 0.41624 0.49521 0.0
C2449 C 0.93905 0.41626 0.45671 0.0
C2450 C 0.93765 0.41739 0.39536 0.0
H2451 H 0.9336 0.40233 0.22003 0.0
H2452 H 0.94204 0.40678 0.27801 0.0
H2453 H 0.92962 0.4017 0.29716 0.0
H2454 H 0.91144 0.41806 0.39196 0.0
H2455 H 0.91384 0.41606 0.4992 0.0
H2456 H 0.80756 0.6909 0.26246 0.0
H2457 H 0.81543 0.69324 0.3607 0.0
H2458 H 0.81072 0.66107 0.39908 0.0
H2459 H 0.80303 0.65865 0.30028 0.0
H2460 H 0.807 0.68911 0.47393 0.0
H2461 H 0.8418 0.6656 0.43041 0.0
H2462 H 0.83358 0.67031 0.37153 0.0
H2463 H 0.8299 0.65918 0.41397 0.0
C2464 C 0.80827 0.68433 0.29179 0.0
C2465 C 0.8049 0.67456 0.27362 0.0
C2466 C 0.81273 0.68568 0.34778 0.0
C2467 C 0.8139 0.67727 0.38625 0.0
C2468 C 0.81012 0.66759 0.36923 0.0
H2469 H 0.82842 0.66399 0.74153 0.0
H2470 H 0.82686 0.66402 0.6333 0.0
C2471 C 0.80562 0.66625 0.31328 0.0
C2472 C 0.81881 0.67866 0.44498 0.0
H2473 H 0.8386 0.67017 0.53193 0.0
C2474 C 0.81399 0.68511 0.48649 0.0
C2475 C 0.82795 0.67345 0.46073 0.0
C2476 C 0.83368 0.66682 0.41668 0.0
C2477 C 0.81777 0.68606 0.54467 0.0
C2478 C 0.82674 0.68058 0.56111 0.0
C2479 C 0.83177 0.67441 0.51893 0.0
C2480 C 0.8302 0.68023 0.62373 0.0
C2481 C 0.81182 0.69249 0.58891 0.0
C2482 C 0.83324 0.68921 0.65359 0.0
C2483 C 0.83409 0.68924 0.71568 0.0
C2484 C 0.83191 0.68028 0.74838 0.0
C2485 C 0.82998 0.67106 0.71761 0.0
C2486 C 0.82912 0.67105 0.65573 0.0
H2487 H 0.80413 0.69472 0.5717 0.0
H2488 H 0.81077 0.68824 0.63141 0.0
H2489 H 0.81618 0.69962 0.59869 0.0
H2490 H 0.8343 0.69633 0.62929 0.0
H2491 H 0.8357 0.69644 0.73808 0.0
H2492 H 0.58533 0.5707 0.49813 0.0
H2493 H 0.58471 0.5777 0.59906 0.0
H2494 H 0.57122 0.5494 0.66211 0.0
H2495 H 0.57179 0.54236 0.56056 0.0
H2496 H 0.56703 0.58071 0.66636 0.0
H2497 H 0.59451 0.55478 0.78101 0.0
H2498 H 0.59382 0.55579 0.70085 0.0
H2499 H 0.58465 0.54806 0.74076 0.0
C2500 C 0.58218 0.566 0.53343 0.0
C2501 C 0.57837 0.55609 0.52162 0.0
C2502 C 0.58191 0.56997 0.59106 0.0
C2503 C 0.57794 0.56406 0.63789 0.0
C2504 C 0.57444 0.55402 0.62657 0.0
H2505 H 0.55079 0.5779 0.96933 0.0
H2506 H 0.55461 0.57687 0.86322 0.0
C2507 C 0.57474 0.55003 0.56877 0.0
C2508 C 0.57697 0.56861 0.69791 0.0
H2509 H 0.58357 0.56492 0.84318 0.0
C2510 C 0.57074 0.57735 0.70503 0.0
C2511 C 0.58196 0.5643 0.7479 0.0
C2512 C 0.58919 0.55528 0.74234 0.0
C2513 C 0.569 0.58163 0.76149 0.0
C2514 C 0.57351 0.57695 0.81188 0.0
C2515 C 0.5801 0.56848 0.80438 0.0
C2516 C 0.57087 0.58003 0.87335 0.0
C2517 C 0.56227 0.59103 0.76674 0.0
C2518 C 0.57868 0.58247 0.91401 0.0
C2519 C 0.57653 0.58299 0.97485 0.0
C2520 C 0.56655 0.58097 0.9959 0.0
C2521 C 0.55857 0.57944 0.95458 0.0
C2522 C 0.56073 0.57891 0.89376 0.0
H2523 H 0.56222 0.59553 0.72463 0.0
H2524 H 0.55426 0.5886 0.77614 0.0
H2525 H 0.56488 0.59611 0.80359 0.0
H2526 H 0.58655 0.58337 0.89899 0.0
H2527 H 0.58284 0.58428 0.00554 0.0
H2528 H 0.29327 0.32462 0.82439 0.0
H2529 H 0.30129 0.32436 0.92331 0.0
H2530 H 0.33123 0.32747 0.84218 0.0
H2531 H 0.32324 0.32856 0.74446 0.0
H2532 H 0.31435 0.3107 0.96728 0.0
H2533 H 0.33312 0.34899 0.96763 0.0
H2534 H 0.3239 0.34526 0.91171 0.0
H2535 H 0.33707 0.34109 0.90626 0.0
C2536 C 0.30155 0.32534 0.82795 0.0
C2537 C 0.30766 0.32624 0.77672 0.0
C2538 C 0.30613 0.32516 0.88425 0.0
C2539 C 0.31687 0.32593 0.89009 0.0
C2540 C 0.32294 0.32701 0.83892 0.0
H2541 H 0.34077 0.30796 0.24046 0.0
H2542 H 0.34048 0.30913 0.13148 0.0
C2543 C 0.31836 0.32737 0.78287 0.0
C2544 C 0.32171 0.32521 0.94958 0.0
H2545 H 0.33729 0.33785 0.04764 0.0
C2546 C 0.31938 0.31663 0.9849 0.0
C2547 C 0.32829 0.33295 0.97221 0.0
C2548 C 0.33067 0.34263 0.93771 0.0
C2549 C 0.32312 0.31573 0.04316 0.0
C2550 C 0.32973 0.32345 0.06584 0.0
C2551 C 0.33236 0.33186 0.02971 0.0
C2552 C 0.33255 0.32378 0.12965 0.0
C2553 C 0.31944 0.30682 0.08079 0.0
C2554 C 0.32908 0.33205 0.16426 0.0
C2555 C 0.32944 0.33151 0.2261 0.0
C2556 C 0.33316 0.32261 0.25444 0.0
C2557 C 0.33769 0.31482 0.21982 0.0
C2558 C 0.33745 0.31545 0.15761 0.0
H2559 H 0.31279 0.30279 0.06029 0.0
H2560 H 0.32576 0.30116 0.08584 0.0
H2561 H 0.31713 0.30949 0.12586 0.0
H2562 H 0.32539 0.33862 0.14362 0.0
H2563 H 0.32609 0.33775 0.25153 0.0
H2564 H 0.40638 0.55037 0.54504 0.0
H2565 H 0.40757 0.55745 0.64616 0.0
H2566 H 0.44033 0.56117 0.6245 0.0
H2567 H 0.43916 0.55415 0.52351 0.0
H2568 H 0.41888 0.55123 0.74433 0.0
H2569 H 0.4309 0.59013 0.67054 0.0
H2570 H 0.42569 0.58067 0.61996 0.0
H2571 H 0.43893 0.57998 0.64266 0.0
C2572 C 0.41384 0.55259 0.56228 0.0
C2573 C 0.42265 0.55192 0.52642 0.0
C2574 C 0.4145 0.55669 0.61969 0.0
C2575 C 0.42399 0.56012 0.64189 0.0
C2576 C 0.43289 0.55889 0.60732 0.0
H2577 H 0.44757 0.57883 0.97815 0.0
H2578 H 0.44474 0.57629 0.87155 0.0
C2579 C 0.43222 0.55484 0.54992 0.0
C2580 C 0.42462 0.56488 0.70153 0.0
H2581 H 0.43223 0.58662 0.77477 0.0
C2582 C 0.42168 0.559 0.75101 0.0
C2583 C 0.42827 0.57504 0.70982 0.0
C2584 C 0.43104 0.58187 0.6579 0.0
C2585 C 0.42262 0.56289 0.80894 0.0
C2586 C 0.42647 0.57296 0.81729 0.0
C2587 C 0.42926 0.57892 0.76788 0.0
C2588 C 0.42816 0.57708 0.87765 0.0
C2589 C 0.41982 0.55607 0.86098 0.0
C2590 C 0.41978 0.57902 0.91525 0.0
C2591 C 0.42136 0.58047 0.97616 0.0
C2592 C 0.43135 0.57996 0.00013 0.0
C2593 C 0.43978 0.57915 0.96119 0.0
C2594 C 0.43819 0.5777 0.90026 0.0
H2595 H 0.41861 0.54795 0.84727 0.0
H2596 H 0.42593 0.55631 0.89555 0.0
H2597 H 0.41259 0.55891 0.88153 0.0
H2598 H 0.412 0.5787 0.89815 0.0
H2599 H 0.4147 0.58123 0.00488 0.0
H2600 H 0.17153 0.69656 0.72781 0.0
H2601 H 0.172 0.69273 0.62163 0.0
H2602 H 0.16544 0.66084 0.6585 0.0
H2603 H 0.16516 0.66456 0.76516 0.0
H2604 H 0.18345 0.66337 0.6012 0.0
H2605 H 0.15326 0.68546 0.48421 0.0
H2606 H 0.16046 0.69342 0.53439 0.0
H2607 H 0.15282 0.68302 0.56342 0.0
C2608 C 0.16983 0.6888 0.71332 0.0
C2609 C 0.16852 0.68082 0.75483 0.0
C2610 C 0.17004 0.68663 0.65245 0.0
C2611 C 0.16877 0.6765 0.63224 0.0
C2612 C 0.16646 0.6687 0.67331 0.0
H2613 H 0.17823 0.66289 0.2555 0.0
H2614 H 0.17095 0.66335 0.35577 0.0
C2615 C 0.16632 0.67085 0.7342 0.0
C2616 C 0.17169 0.6738 0.57057 0.0
H2617 H 0.16814 0.68069 0.42551 0.0
C2618 C 0.17997 0.66701 0.56265 0.0
C2619 C 0.16712 0.67851 0.52043 0.0
C2620 C 0.15785 0.68543 0.52597 0.0
C2621 C 0.18412 0.66516 0.50612 0.0
C2622 C 0.17999 0.6704 0.45651 0.0
C2623 C 0.17139 0.6768 0.46392 0.0
C2624 C 0.18465 0.66958 0.39675 0.0
C2625 C 0.19296 0.6577 0.50014 0.0
C2626 C 0.19481 0.67285 0.38685 0.0
C2627 C 0.19897 0.67264 0.32947 0.0
C2628 C 0.19296 0.66934 0.28131 0.0
C2629 C 0.18291 0.66579 0.29164 0.0
C2630 C 0.17877 0.66597 0.34887 0.0
H2631 H 0.1932 0.65221 0.53802 0.0
H2632 H 0.19243 0.65328 0.45792 0.0
H2633 H 0.2003 0.66205 0.49995 0.0
H2634 H 0.19942 0.67581 0.42323 0.0
H2635 H 0.20675 0.67538 0.32242 0.0
H2636 H 0.0909 0.44738 0.04492 0.0
H2637 H 0.08986 0.43997 0.14519 0.0
H2638 H 0.05732 0.43495 0.12164 0.0
H2639 H 0.05833 0.44233 0.02144 0.0
H2640 H 0.07814 0.44585 0.24205 0.0
H2641 H 0.06776 0.40639 0.16918 0.0
H2642 H 0.07269 0.41599 0.11851 0.0
H2643 H 0.05941 0.41624 0.14086 0.0
C2644 C 0.08352 0.44478 0.06149 0.0
C2645 C 0.07473 0.44522 0.02535 0.0
C2646 C 0.08295 0.44049 0.11842 0.0
C2647 C 0.07357 0.43664 0.13991 0.0
C2648 C 0.06468 0.43756 0.10497 0.0
H2649 H 0.05153 0.41709 0.47924 0.0
H2650 H 0.05382 0.41935 0.37192 0.0
C2651 C 0.06526 0.44181 0.04801 0.0
C2652 C 0.07305 0.43191 0.19961 0.0
H2653 H 0.06653 0.40987 0.2734 0.0
C2654 C 0.0757 0.43796 0.24892 0.0
C2655 C 0.06985 0.4216 0.20813 0.0
C2656 C 0.06735 0.41463 0.15635 0.0
C2657 C 0.07498 0.43407 0.30689 0.0
C2658 C 0.07168 0.42381 0.31551 0.0
C2659 C 0.0691 0.41771 0.26629 0.0
C2660 C 0.07043 0.41961 0.37603 0.0
C2661 C 0.07749 0.44106 0.35868 0.0
C2662 C 0.07905 0.41833 0.41276 0.0
C2663 C 0.07778 0.41709 0.47403 0.0
C2664 C 0.06787 0.4171 0.49914 0.0
C2665 C 0.05926 0.41714 0.46125 0.0
C2666 C 0.06055 0.41844 0.39993 0.0
H2667 H 0.07807 0.44924 0.34489 0.0
H2668 H 0.07154 0.44041 0.39402 0.0
H2669 H 0.08498 0.43874 0.37824 0.0
H2670 H 0.08674 0.41907 0.39467 0.0
H2671 H 0.08456 0.4169 0.50207 0.0
H2672 H 0.29254 0.67567 0.17569 0.0
H2673 H 0.3 0.67594 0.07522 0.0
H2674 H 0.32869 0.66446 0.14536 0.0
H2675 H 0.32127 0.66416 0.24532 0.0
H2676 H 0.33115 0.68163 0.07411 0.0
H2677 H 0.30703 0.65222 0.96295 0.0
H2678 H 0.29956 0.66193 -0.00018 0.0
H2679 H 0.30765 0.65352 0.04299 0.0
C2680 C 0.30039 0.67311 0.16931 0.0
C2681 C 0.30642 0.67013 0.21811 0.0
C2682 C 0.30463 0.67323 0.11212 0.0
C2683 C 0.31488 0.67019 0.10307 0.0
C2684 C 0.32079 0.66689 0.1516 0.0
H2685 H 0.33406 0.66553 0.73397 0.0
H2686 H 0.33416 0.66172 0.84054 0.0
C2687 C 0.31657 0.66681 0.20865 0.0
C2688 C 0.3196 0.67097 0.04347 0.0
H2689 H 0.31635 0.66366 0.89911 0.0
C2690 C 0.32803 0.67759 0.03586 0.0
C2691 C 0.31565 0.66553 0.9941 0.0
C2692 C 0.30704 0.65782 0.00036 0.0
C2693 C 0.33225 0.67936 0.9793 0.0
C2694 C 0.32781 0.67448 0.92931 0.0
C2695 C 0.31974 0.66743 0.93751 0.0
C2696 C 0.33055 0.67729 0.86755 0.0
C2697 C 0.34132 0.68653 0.97355 0.0
C2698 C 0.32899 0.6874 0.84775 0.0
C2699 C 0.32899 0.68962 0.78694 0.0
C2700 C 0.33037 0.6817 0.74512 0.0
C2701 C 0.33285 0.67177 0.76524 0.0
C2702 C 0.33292 0.66958 0.82606 0.0
H2703 H 0.34598 0.68661 0.01506 0.0
H2704 H 0.34635 0.68432 0.93568 0.0
H2705 H 0.33848 0.69446 0.96582 0.0
H2706 H 0.32696 0.69344 0.87889 0.0
H2707 H 0.32708 0.69735 0.77281 0.0
H2708 H 0.05805 0.5549 0.96812 0.0
H2709 H 0.05691 0.56189 0.86695 0.0
H2710 H 0.08978 0.55879 0.8473 0.0
H2711 H 0.09093 0.5517 0.94817 0.0
H2712 H 0.06615 0.57956 0.82376 0.0
H2713 H 0.07899 0.54518 0.69718 0.0
H2714 H 0.07525 0.54455 0.77451 0.0
H2715 H 0.08783 0.54912 0.75422 0.0
C2716 C 0.06501 0.55566 0.94194 0.0
C2717 C 0.07458 0.55284 0.96574 0.0
C2718 C 0.06435 0.55965 0.88434 0.0
C2719 C 0.07325 0.56081 0.84967 0.0
C2720 C 0.0828 0.55779 0.873 0.0
H2721 H 0.08355 0.58116 0.48915 0.0
H2722 H 0.08585 0.57909 0.5964 0.0
C2723 C 0.08345 0.55374 0.93047 0.0
C2724 C 0.07257 0.56544 0.78967 0.0
H2725 H 0.07731 0.56068 0.64292 0.0
C2726 C 0.06858 0.57544 0.78412 0.0
C2727 C 0.07574 0.56003 0.73823 0.0
C2728 C 0.0796 0.54909 0.74106 0.0
C2729 C 0.06774 0.58021 0.72824 0.0
C2730 C 0.07093 0.5748 0.67698 0.0
C2731 C 0.07499 0.56485 0.68262 0.0
C2732 C 0.06958 0.57891 0.6162 0.0
C2733 C 0.06352 0.59099 0.72434 0.0
C2734 C 0.05966 0.58 0.59247 0.0
C2735 C 0.0583 0.58118 0.5311 0.0
C2736 C 0.06686 0.58114 0.49277 0.0
C2737 C 0.0768 0.58108 0.51747 0.0
C2738 C 0.07814 0.57992 0.57873 0.0
H2739 H 0.0638 0.59498 0.7681 0.0
H2740 H 0.06786 0.5956 0.69112 0.0
H2741 H 0.05537 0.59065 0.70975 0.0
H2742 H 0.05295 0.57912 0.62065 0.0
H2743 H 0.05055 0.58124 0.51349 0.0
H2744 H 0.16167 0.30215 0.26106 0.0
H2745 H 0.16268 0.30226 0.36988 0.0
H2746 H 0.17011 0.33459 0.36655 0.0
H2747 H 0.16898 0.33458 0.25828 0.0
H2748 H 0.18141 0.30675 0.41947 0.0
H2749 H 0.15187 0.33274 0.5129 0.0
H2750 H 0.15088 0.32732 0.43897 0.0
H2751 H 0.15868 0.33853 0.45205 0.0
C2752 C 0.16314 0.30936 0.28361 0.0
C2753 C 0.16542 0.31832 0.25113 0.0
C2754 C 0.16374 0.30941 0.34578 0.0
C2755 C 0.16647 0.31843 0.37623 0.0
C2756 C 0.16783 0.32758 0.34409 0.0
H2757 H 0.19557 0.33818 0.6969 0.0
H2758 H 0.18799 0.33593 0.59768 0.0
C2759 C 0.16727 0.32754 0.28207 0.0
C2760 C 0.16972 0.31798 0.43928 0.0
H2761 H 0.16702 0.33005 0.57331 0.0
C2762 C 0.17813 0.31168 0.45353 0.0
C2763 C 0.16548 0.32449 0.48329 0.0
C2764 C 0.15616 0.33108 0.47119 0.0
C2765 C 0.18277 0.3121 0.50983 0.0
C2766 C 0.17876 0.31889 0.55313 0.0
C2767 C 0.17012 0.32492 0.53967 0.0
C2768 C 0.18363 0.32006 0.61215 0.0
C2769 C 0.19219 0.30563 0.5216 0.0
C2770 C 0.18379 0.31183 0.65249 0.0
C2771 C 0.18817 0.31308 0.70878 0.0
C2772 C 0.19233 0.32261 0.7258 0.0
C2773 C 0.19241 0.33075 0.68477 0.0
C2774 C 0.18802 0.32951 0.62845 0.0
H2775 H 0.19555 0.30251 0.47983 0.0
H2776 H 0.19817 0.31019 0.54509 0.0
H2777 H 0.19006 0.29905 0.55054 0.0
H2778 H 0.1804 0.3045 0.64073 0.0
H2779 H 0.18823 0.30661 0.73911 0.0
H2780 H 0.44224 0.40684 0.00306 0.0
H2781 H 0.44196 0.40588 0.11203 0.0
H2782 H 0.41282 0.42178 0.11397 0.0
H2783 H 0.4129 0.42248 0.00597 0.0
H2784 H 0.44309 0.42276 0.176 0.0
H2785 H 0.40832 0.40208 0.24731 0.0
H2786 H 0.4133 0.40104 0.17242 0.0
H2787 H 0.40484 0.41147 0.19257 0.0
C2788 C 0.43561 0.4098 0.02671 0.0
C2789 C 0.42767 0.41488 0.9961 0.0
C2790 C 0.43546 0.40925 0.08894 0.0
C2791 C 0.42735 0.41371 0.12119 0.0
C2792 C 0.41906 0.41808 0.09023 0.0
H2793 H 0.42857 0.45267 0.42302 0.0
H2794 H 0.42976 0.44414 0.32573 0.0
C2795 C 0.41918 0.41858 0.0283 0.0
C2796 C 0.42827 0.41552 0.18604 0.0
H2797 H 0.41399 0.41605 0.31336 0.0
C2798 C 0.43684 0.42106 0.20645 0.0
C2799 C 0.4202 0.41318 0.22609 0.0
C2800 C 0.41122 0.40651 0.20845 0.0
C2801 C 0.43722 0.42497 0.26453 0.0
C2802 C 0.42866 0.42356 0.30251 0.0
C2803 C 0.42044 0.41736 0.28366 0.0
C2804 C 0.42793 0.42874 0.36107 0.0
C2805 C 0.44672 0.43072 0.28414 0.0
C2806 C 0.42602 0.42296 0.41258 0.0
C2807 C 0.42514 0.42783 0.46765 0.0
C2808 C 0.42633 0.43855 0.47237 0.0
C2809 C 0.42789 0.44437 0.42061 0.0
C2810 C 0.42867 0.4395 0.36529 0.0
H2811 H 0.45361 0.42813 0.25902 0.0
H2812 H 0.44566 0.43905 0.2751 0.0
H2813 H 0.44819 0.42969 0.3325 0.0
H2814 H 0.4252 0.41468 0.41018 0.0
H2815 H 0.42343 0.42319 0.50646 0.0
H2816 H 0.27763 0.16649 0.45398 0.0
H2817 H 0.2619 0.16338 0.39672 0.0
H2818 H 0.27902 0.16617 0.23294 0.0
H2819 H 0.29474 0.16911 0.28931 0.0
H2820 H 0.25352 0.17722 0.3176 0.0
H2821 H 0.26194 0.14049 0.20216 0.0
H2822 H 0.26925 0.1449 0.26568 0.0
H2823 H 0.27182 0.14998 0.19265 0.0
C2824 C 0.27807 0.16629 0.4058 0.0
C2825 C 0.28745 0.16808 0.37629 0.0
C2826 C 0.26909 0.1645 0.37319 0.0
C2827 C 0.26933 0.16439 0.31063 0.0
C2828 C 0.2787 0.16597 0.28115 0.0
H2829 H 0.2246 0.16881 0.02702 0.0
H2830 H 0.24031 0.16666 0.08631 0.0
C2831 C 0.28767 0.16775 0.3136 0.0
C2832 C 0.25968 0.16363 0.276 0.0
H2833 H 0.24777 0.1503 0.16439 0.0
C2834 C 0.2522 0.17126 0.28465 0.0
C2835 C 0.25804 0.1559 0.23263 0.0
C2836 C 0.26565 0.14729 0.22302 0.0
C2837 C 0.24324 0.17153 0.25006 0.0
C2838 C 0.24164 0.16386 0.20635 0.0
C2839 C 0.24906 0.15617 0.19792 0.0
C2840 C 0.23227 0.16382 0.16909 0.0
C2841 C 0.2357 0.18021 0.25944 0.0
C2842 C 0.22261 0.16255 0.19574 0.0
C2843 C 0.21367 0.16383 0.1623 0.0
C2844 C 0.21422 0.16632 0.10135 0.0
C2845 C 0.22392 0.16695 0.07389 0.0
C2846 C 0.23289 0.16571 0.10763 0.0
H2847 H 0.23919 0.18672 0.28436 0.0
H2848 H 0.23277 0.18314 0.21616 0.0
H2849 H 0.22904 0.17735 0.28558 0.0
H2850 H 0.22199 0.16089 0.24292 0.0
H2851 H 0.20632 0.16313 0.1847 0.0
H2852 H 0.08191 0.02628 0.71388 0.0
H2853 H 0.08443 0.01037 0.65746 0.0
H2854 H 0.08295 0.02742 0.4929 0.0
H2855 H 0.08056 0.04335 0.54856 0.0
H2856 H 0.0702 0.00277 0.57683 0.0
H2857 H 0.10784 0.00881 0.46614 0.0
H2858 H 0.10367 0.01636 0.52929 0.0
H2859 H 0.09898 0.01925 0.45581 0.0
C2860 C 0.08227 0.02667 0.66571 0.0
C2861 C 0.08099 0.03609 0.63576 0.0
C2862 C 0.08373 0.01758 0.6336 0.0
C2863 C 0.084 0.01775 0.57109 0.0
C2864 C 0.08298 0.02715 0.54114 0.0
H2865 H 0.07926 0.97349 0.28622 0.0
H2866 H 0.08155 0.98892 0.34757 0.0
C2867 C 0.08153 0.03624 0.57313 0.0
C2868 C 0.08431 0.00802 0.53699 0.0
H2869 H 0.0974 0.99515 0.42813 0.0
C2870 C 0.07621 0.00103 0.54486 0.0
C2871 C 0.09212 0.00585 0.49498 0.0
C2872 C 0.1012 0.01292 0.48633 0.0
C2873 C 0.07554 0.99205 0.51062 0.0
C2874 C 0.0833 0.98991 0.46818 0.0
C2875 C 0.09147 0.99683 0.46071 0.0
C2876 C 0.0829 0.98058 0.43063 0.0
C2877 C 0.06635 0.98509 0.51884 0.0
C2878 C 0.0832 0.97081 0.45694 0.0
C2879 C 0.08183 0.96202 0.42224 0.0
C2880 C 0.08023 0.96282 0.3604 0.0
C2881 C 0.08043 0.97261 0.33374 0.0
C2882 C 0.08175 0.98142 0.36865 0.0
H2883 H 0.05994 0.98905 0.54222 0.0
H2884 H 0.06349 0.98224 0.47525 0.0
H2885 H 0.06863 0.97834 0.54606 0.0
H2886 H 0.08429 0.97 0.50457 0.0
H2887 H 0.08186 0.9546 0.44417 0.0
H2888 H 0.27225 0.83263 0.50364 0.0
H2889 H 0.25605 0.83536 0.5573 0.0
H2890 H 0.27262 0.83657 0.72361 0.0
H2891 H 0.28876 0.83401 0.67081 0.0
H2892 H 0.2487 0.8219 0.64186 0.0
H2893 H 0.25293 0.86065 0.74085 0.0
H2894 H 0.26087 0.8562 0.68002 0.0
H2895 H 0.26381 0.85256 0.75549 0.0
C2896 C 0.27246 0.83368 0.5515 0.0
C2897 C 0.28179 0.83304 0.58293 0.0
C2898 C 0.2632 0.83524 0.58205 0.0
C2899 C 0.26316 0.8363 0.64433 0.0
C2900 C 0.27249 0.83601 0.67546 0.0
H2901 H 0.22176 0.8309 0.93949 0.0
H2902 H 0.23626 0.8338 0.87174 0.0
C2903 C 0.28172 0.83444 0.64512 0.0
C2904 C 0.25335 0.83653 0.6778 0.0
H2905 H 0.24038 0.84954 0.78656 0.0
C2906 C 0.24677 0.82803 0.67273 0.0
C2907 C 0.25092 0.8445 0.71831 0.0
C2908 C 0.25746 0.85404 0.72363 0.0
C2909 C 0.23806 0.82704 0.70904 0.0
C2910 C 0.23578 0.83488 0.75078 0.0
C2911 C 0.24219 0.84353 0.75471 0.0
C2912 C 0.22693 0.83402 0.79189 0.0
C2913 C 0.23161 0.81742 0.70416 0.0
C2914 C 0.21689 0.83345 0.76944 0.0
C2915 C 0.20864 0.83172 0.80779 0.0
C2916 C 0.21024 0.83062 0.86953 0.0
C2917 C 0.22027 0.83165 0.89221 0.0
C2918 C 0.22855 0.83334 0.85362 0.0
H2919 H 0.23573 0.81117 0.68022 0.0
H2920 H 0.22938 0.81456 0.74895 0.0
H2921 H 0.22448 0.81918 0.67901 0.0
H2922 H 0.21547 0.83417 0.72206 0.0
H2923 H 0.201 0.83111 0.78882 0.0
H2924 H 0.41867 0.95014 0.03398 0.0
H2925 H 0.41571 0.96448 0.96617 0.0
H2926 H 0.41377 0.98527 0.11545 0.0
H2927 H 0.41663 0.9709 0.18426 0.0
H2928 H 0.39848 0.98837 0.0229 0.0
H2929 H 0.43838 0.98599 0.93399 0.0
H2930 H 0.43102 0.9743 0.93105 0.0
H2931 H 0.43454 0.97965 0.00198 0.0
C2932 C 0.41758 0.95774 0.05267 0.0
C2933 C 0.41802 0.95939 0.11466 0.0
C2934 C 0.4159 0.96593 0.0137 0.0
C2935 C 0.4147 0.97593 0.0358 0.0
C2936 C 0.41473 0.97758 0.09763 0.0
H2937 H 0.41275 0.03777 0.92237 0.0
H2938 H 0.41017 0.02121 0.97011 0.0
C2939 C 0.41639 0.96938 0.13683 0.0
C2940 C 0.41386 0.98472 0.99434 0.0
H2941 H 0.42757 0.99857 0.89255 0.0
C2942 C 0.40481 0.99058 0.99411 0.0
C2943 C 0.4221 0.9875 0.95643 0.0
C2944 C 0.4321 0.9816 0.95592 0.0
C2945 C 0.40383 -0.00071 0.95758 0.0
C2946 C 0.41222 0.0023 0.92138 0.0
C2947 C 0.42113 0.99622 0.92012 0.0
C2948 C 0.41244 0.01229 0.88977 0.0
C2949 C 0.39386 0.00521 0.95835 0.0
C2950 C 0.41465 0.01281 0.82855 0.0
C2951 C 0.41624 0.02233 0.80091 0.0
C2952 C 0.41577 0.03147 0.83434 0.0
C2953 C 0.41321 0.0309 0.89519 0.0
C2954 C 0.41162 0.02142 0.92259 0.0
H2955 H 0.38729 0.00017 0.97058 0.0
H2956 H 0.39436 0.01141 0.99226 0.0
H2957 H 0.39226 0.00879 0.91439 0.0
H2958 H 0.41541 0.00582 0.80257 0.0
H2959 H 0.41821 0.0225 0.75401 0.0
H2960 H 0.77576 0.82874 0.94791 0.0
H2961 H 0.76067 0.83105 0.88391 0.0
H2962 H 0.78034 0.83283 0.72955 0.0
H2963 H 0.79541 0.83037 0.79259 0.0
H2964 H 0.75513 0.84671 0.80213 0.0
H2965 H 0.76092 0.80907 0.68949 0.0
H2966 H 0.7676 0.81254 0.75702 0.0
H2967 H 0.77179 0.81756 0.68646 0.0
C2968 C 0.77688 0.82968 0.90039 0.0
C2969 C 0.78678 0.82923 0.8753 0.0
C2970 C 0.76826 0.83101 0.86394 0.0
C2971 C 0.7694 0.83191 0.80197 0.0
C2972 C 0.77929 0.83192 0.77714 0.0
H2973 H 0.72386 0.83152 0.51598 0.0
H2974 H 0.73989 0.83377 0.57185 0.0
C2975 C 0.78789 0.83054 0.81337 0.0
C2976 C 0.76024 0.83247 0.76303 0.0
H2977 H 0.74747 0.81952 0.65339 0.0
C2978 C 0.75344 0.84078 0.76952 0.0
C2979 C 0.75811 0.82474 0.72042 0.0
C2980 C 0.76492 0.81542 0.71309 0.0
C2981 C 0.74454 0.84156 0.73441 0.0
C2982 C 0.74234 0.83374 0.6925 0.0
C2983 C 0.74923 0.82554 0.68532 0.0
C2984 C 0.7326 0.83348 0.65849 0.0
C2985 C 0.7376 0.85076 0.74228 0.0
C2986 C 0.72321 0.83259 0.68877 0.0
C2987 C 0.71407 0.83129 0.65715 0.0
C2988 C 0.71413 0.83077 0.5945 0.0
C2989 C 0.72354 0.83189 0.56416 0.0
C2990 C 0.7327 0.83318 0.59597 0.0
H2991 H 0.74179 0.85737 0.76208 0.0
H2992 H 0.73422 0.8532 0.69909 0.0
H2993 H 0.73122 0.8487 0.77286 0.0
H2994 H 0.72299 0.83257 0.73702 0.0
H2995 H 0.70698 0.83045 0.68204 0.0
H2996 H 0.91555 0.04131 0.56035 0.0
H2997 H 0.91246 0.0255 0.50538 0.0
H2998 H 0.91253 0.0083 0.66967 0.0
H2999 H 0.91583 0.02417 0.72558 0.0
H3000 H 0.92558 0.00044 0.58586 0.0
H3001 H 0.88749 0.0073 0.48333 0.0
H3002 H 0.8963 0.01767 0.46994 0.0
H3003 H 0.89226 0.01487 0.54494 0.0
C3004 C 0.91478 0.0342 0.58517 0.0
C3005 C 0.916 0.03401 0.64749 0.0
C3006 C 0.9129 0.02517 0.55354 0.0
C3007 C 0.91209 0.01575 0.58347 0.0
C3008 C 0.91304 0.01553 0.64582 0.0
H3009 H 0.91299 0.95344 0.44311 0.0
H3010 H 0.91025 0.96844 0.50629 0.0
C3011 C 0.91494 0.02459 0.67766 0.0
C3012 C 0.9114 0.00609 0.54879 0.0
H3013 H 0.89789 0.9941 0.43815 0.0
C3014 C 0.91944 0.99897 0.55427 0.0
C3015 C 0.90341 0.00424 0.50725 0.0
C3016 C 0.89433 0.01138 0.50138 0.0
C3017 C 0.91993 0.99023 0.51783 0.0
C3018 C 0.91208 0.98851 0.47537 0.0
C3019 C 0.90391 0.9955 0.47058 0.0
C3020 C 0.91237 0.97948 0.43536 0.0
C3021 C 0.92904 0.9831 0.52364 0.0
C3022 C 0.91402 0.98075 0.37397 0.0
C3023 C 0.91555 0.97216 0.33738 0.0
C3024 C 0.91547 0.9622 0.36188 0.0
C3025 C 0.91326 0.961 0.42289 0.0
C3026 C 0.91169 0.96956 0.45918 0.0
H3027 H 0.93545 0.98668 0.54892 0.0
H3028 H 0.92664 0.97604 0.54773 0.0
H3029 H 0.93193 0.98077 0.47907 0.0
H3030 H 0.91452 0.98838 0.35485 0.0
H3031 H 0.91719 0.97334 0.29056 0.0
H3032 H 0.72519 0.17049 0.47505 0.0
H3033 H 0.74106 0.16886 0.4166 0.0
H3034 H 0.72318 0.16283 0.25864 0.0
H3035 H 0.70736 0.16456 0.31599 0.0
H3036 H 0.74904 0.15275 0.33955 0.0
H3037 H 0.74001 0.18884 0.21779 0.0
H3038 H 0.73348 0.18517 0.28551 0.0
H3039 H 0.72999 0.17935 0.21575 0.0
C3040 C 0.72465 0.1687 0.42802 0.0
C3041 C 0.71501 0.16782 0.39999 0.0
C3042 C 0.73371 0.16776 0.39477 0.0
C3043 C 0.73325 0.16592 0.3332 0.0
C3044 C 0.72367 0.16445 0.30591 0.0
H3045 H 0.7772 0.16694 0.04303 0.0
H3046 H 0.76193 0.16447 0.10514 0.0
C3047 C 0.71464 0.16544 0.33886 0.0
C3048 C 0.74269 0.16611 0.29652 0.0
H3049 H 0.75426 0.17924 0.18324 0.0
C3050 C 0.75022 0.15855 0.30548 0.0
C3051 C 0.74418 0.17371 0.25222 0.0
C3052 C 0.73654 0.18229 0.24243 0.0
C3053 C 0.75916 0.15826 0.27028 0.0
C3054 C 0.7606 0.16583 0.22577 0.0
C3055 C 0.75307 0.1734 0.21707 0.0
C3056 C 0.77 0.16632 0.18876 0.0
C3057 C 0.76688 0.14977 0.28024 0.0
C3058 C 0.77959 0.16816 0.21529 0.0
C3059 C 0.78831 0.16959 0.18002 0.0
C3060 C 0.78761 0.16928 0.11743 0.0
C3061 C 0.77801 0.16724 0.09103 0.0
C3062 C 0.76929 0.16581 0.12642 0.0
H3063 H 0.76341 0.14314 0.30414 0.0
H3064 H 0.77011 0.14702 0.23729 0.0
H3065 H 0.77331 0.15276 0.30778 0.0
H3066 H 0.78027 0.1688 0.26325 0.0
H3067 H 0.79557 0.17115 0.20192 0.0
H3068 H 0.58075 0.0268 0.78306 0.0
H3069 H 0.58281 0.01085 0.83967 0.0
H3070 H 0.58122 0.02791 0.00417 0.0
H3071 H 0.57929 0.04389 0.94834 0.0
H3072 H 0.59662 0.01233 0.00248 0.0
H3073 H 0.55835 0.99793 0.92949 0.0
H3074 H 0.56703 0.0014 0.87055 0.0
H3075 H 0.56224 0.01115 0.91999 0.0
C3076 C 0.58092 0.02718 0.83127 0.0
C3077 C 0.57974 0.03662 0.86114 0.0
C3078 C 0.58206 0.01805 0.8635 0.0
C3079 C 0.582 0.01821 0.92602 0.0
C3080 C 0.58125 0.02764 0.9559 0.0
H3081 H 0.57985 0.97459 0.21639 0.0
H3082 H 0.58204 0.98987 0.15402 0.0
C3083 C 0.58011 0.03676 0.92383 0.0
C3084 C 0.58221 0.00853 0.9606 0.0
H3085 H 0.56817 0.98699 0.99061 0.0
C3086 C 0.59043 0.00676 -0.00017 0.0
C3087 C 0.5741 0.00132 0.95707 0.0
C3088 C 0.56487 0.00304 0.91743 0.0
C3089 C 0.59077 0.99789 0.0355 0.0
C3090 C 0.58259 0.99074 0.03246 0.0
C3091 C 0.57444 0.99248 0.99272 0.0
C3092 C 0.58215 0.98148 0.07069 0.0
C3093 C 0.59994 0.99619 0.07554 0.0
C3094 C 0.58138 0.97172 0.04449 0.0
C3095 C 0.58001 0.96301 0.07985 0.0
C3096 C 0.57936 0.96387 0.14226 0.0
C3097 C 0.58036 0.97364 0.16853 0.0
C3098 C 0.58168 0.98238 0.13298 0.0
H3099 H 0.6067 0.00074 0.06071 0.0
H3100 H 0.59796 0.99866 0.12147 0.0
H3101 H 0.60211 0.98793 0.07694 0.0
H3102 H 0.58167 0.97087 -0.00352 0.0
H3103 H 0.57932 0.9556 0.05806 0.0
H3104 H 0.77449 0.66868 0.96206 0.0
H3105 H 0.75888 0.66706 0.90172 0.0
H3106 H 0.77737 0.66385 0.74326 0.0
H3107 H 0.79296 0.6656 0.8027 0.0
H3108 H 0.76285 0.67908 0.73453 0.0
H3109 H 0.74511 0.64291 0.81639 0.0
H3110 H 0.74834 0.65193 0.87409 0.0
H3111 H 0.7584 0.64617 0.83039 0.0
C3112 C 0.77523 0.66745 0.91452 0.0
C3113 C 0.78497 0.66735 0.88717 0.0
C3114 C 0.76631 0.66647 0.88015 0.0
C3115 C 0.76698 0.66525 0.81809 0.0
C3116 C 0.77669 0.66476 0.79109 0.0
H3117 H 0.72229 0.66804 0.52843 0.0
H3118 H 0.73793 0.66549 0.58735 0.0
C3119 C 0.78559 0.66579 0.82522 0.0
C3120 C 0.75764 0.6655 0.78044 0.0
H3121 H 0.73472 0.65353 0.75412 0.0
C3122 C 0.75674 0.67344 0.73841 0.0
C3123 C 0.74968 0.65815 0.78588 0.0
C3124 C 0.75044 0.64925 0.82874 0.0
C3125 C 0.74798 0.67437 0.70246 0.0
C3126 C 0.73999 0.66707 0.70808 0.0
C3127 C 0.7409 0.65909 0.74988 0.0
C3128 C 0.73046 0.66787 0.67243 0.0
C3129 C 0.74722 0.68335 0.66004 0.0
C3130 C 0.72106 0.66974 0.70095 0.0
C3131 C 0.71212 0.67117 0.66756 0.0
C3132 C 0.71241 0.67071 0.6049 0.0
C3133 C 0.72181 0.66853 0.57653 0.0
C3134 C 0.73076 0.6671 0.61007 0.0
H3135 H 0.75291 0.68946 0.67067 0.0
H3136 H 0.74874 0.68064 0.614 0.0
H3137 H 0.7394 0.68677 0.66107 0.0
H3138 H 0.72069 0.67034 0.74907 0.0
H3139 H 0.70502 0.67277 0.69096 0.0
H3140 H 0.58234 0.45898 0.93273 0.0
H3141 H 0.58422 0.47531 0.98467 0.0
H3142 H 0.58354 0.49145 0.81688 0.0
H3143 H 0.58147 0.47507 0.76404 0.0
H3144 H 0.59872 0.49134 0.97703 0.0
H3145 H 0.55943 0.50394 0.91066 0.0
H3146 H 0.56379 0.49086 0.90142 0.0
H3147 H 0.56798 0.50068 0.85066 0.0
C3148 C 0.58265 0.46598 0.90657 0.0
C3149 C 0.5816 0.46572 0.84415 0.0
C3150 C 0.58377 0.47531 0.93645 0.0
C3151 C 0.58385 0.48458 0.9047 0.0
C3152 C 0.58331 0.48436 0.84222 0.0
H3153 H 0.57848 0.54668 0.04565 0.0
H3154 H 0.5814 0.53199 0.98033 0.0
C3155 C 0.58217 0.475 0.81212 0.0
C3156 C 0.58391 0.49441 0.93786 0.0
H3157 H 0.56886 0.51507 0.97222 0.0
C3158 C 0.59223 0.49658 0.9757 0.0
C3159 C 0.57542 0.5012 0.93611 0.0
C3160 C 0.5661 0.49906 0.89796 0.0
C3161 C 0.59225 0.50535 0.01228 0.0
C3162 C 0.58364 0.51198 0.01158 0.0
C3163 C 0.57544 0.50995 0.97264 0.0
C3164 C 0.58277 0.52095 0.05194 0.0
C3165 C 0.60148 0.50744 0.05116 0.0
C3166 C 0.58258 0.51961 0.11403 0.0
C3167 C 0.58091 0.52801 0.15176 0.0
C3168 C 0.57931 0.53788 0.12791 0.0
C3169 C 0.57965 0.53919 0.06565 0.0
C3170 C 0.58134 0.53081 0.02812 0.0
H3171 H 0.60844 0.50341 0.03445 0.0
H3172 H 0.60313 0.5158 0.05372 0.0
H3173 H 0.59989 0.50461 0.09691 0.0
H3174 H 0.58344 0.51202 0.13326 0.0
H3175 H 0.58067 0.52673 0.19942 0.0
H3176 H 0.70218 0.32538 0.29449 0.0
H3177 H 0.71718 0.32733 0.22999 0.0
H3178 H 0.73617 0.3334 0.38353 0.0
H3179 H 0.72123 0.33136 0.44877 0.0
H3180 H 0.73138 0.344 0.21533 0.0
H3181 H 0.74994 0.3085 0.30163 0.0
H3182 H 0.73656 0.31145 0.3147 0.0
H3183 H 0.74639 0.31769 0.35782 0.0
C3184 C 0.70953 0.32716 0.3147 0.0
C3185 C 0.71053 0.32809 0.37698 0.0
C3186 C 0.71808 0.32831 0.27766 0.0
C3187 C 0.72778 0.33036 0.30213 0.0
C3188 C 0.72876 0.33165 0.36396 0.0
H3189 H 0.78957 0.33297 0.16767 0.0
H3190 H 0.77383 0.33452 0.22574 0.0
C3191 C 0.72021 0.3305 0.40113 0.0
C3192 C 0.73694 0.33077 0.26318 0.0
H3193 H 0.75972 0.31869 0.23541 0.0
C3194 C 0.73759 0.33847 0.21949 0.0
C3195 C 0.74495 0.32348 0.26859 0.0
C3196 C 0.74443 0.31475 0.31281 0.0
C3197 C 0.74621 0.33924 0.18198 0.0
C3198 C 0.75426 0.33201 0.18794 0.0
C3199 C 0.75354 0.32426 0.23122 0.0
C3200 C 0.76364 0.33233 0.15061 0.0
C3201 C 0.74674 0.34789 0.13731 0.0
C3202 C 0.76313 0.33075 0.08878 0.0
C3203 C 0.77216 0.32988 0.05515 0.0
C3204 C 0.78183 0.33047 0.08309 0.0
C3205 C 0.78226 0.3324 0.14473 0.0
C3206 C 0.77327 0.33331 0.17807 0.0
H3207 H 0.74117 0.35411 0.14785 0.0
H3208 H 0.7546 0.35122 0.13562 0.0
H3209 H 0.74487 0.34485 0.09239 0.0
H3210 H 0.75577 0.3298 0.06691 0.0
H3211 H 0.77156 0.32837 0.00782 0.0
H3212 H 0.92003 0.45404 0.54694 0.0
H3213 H 0.91771 0.46971 0.4887 0.0
H3214 H 0.91343 0.48712 0.6504 0.0
H3215 H 0.9159 0.47148 0.70945 0.0
H3216 H 0.90139 0.48423 0.48319 0.0
H3217 H 0.9378 0.50136 0.56721 0.0
H3218 H 0.93468 0.48794 0.57709 0.0
H3219 H 0.92883 0.49752 0.62387 0.0
C3220 C 0.91855 0.46118 0.57031 0.0
C3221 C 0.91828 0.46152 0.633 0.0
C3222 C 0.91719 0.47012 0.53684 0.0
C3223 C 0.91555 0.47957 0.56532 0.0
C3224 C 0.91487 0.4799 0.6277 0.0
H3225 H 0.91506 0.5421 0.43535 0.0
H3226 H 0.91283 0.52654 0.49446 0.0
C3227 C 0.91625 0.47096 0.66133 0.0
C3228 C 0.91504 0.48912 0.52963 0.0
H3229 H 0.92773 0.51161 0.50336 0.0
C3230 C 0.90712 0.49024 0.48757 0.0
C3231 C 0.92257 0.49689 0.53534 0.0
C3232 C 0.93151 0.49587 0.5779 0.0
C3233 C 0.90648 0.49905 0.45146 0.0
C3234 C 0.91404 0.50679 0.45711 0.0
C3235 C 0.92192 0.50566 0.49935 0.0
C3236 C 0.91409 0.51615 0.41955 0.0
C3237 C 0.89765 0.50005 0.40826 0.0
C3238 C 0.91539 0.51546 0.35756 0.0
C3239 C 0.91665 0.52438 0.32337 0.0
C3240 C 0.91674 0.5341 0.35085 0.0
C3241 C 0.9151 0.53474 0.41273 0.0
C3242 C 0.91381 0.52585 0.44667 0.0
H3243 H 0.89117 0.49487 0.42019 0.0
H3244 H 0.89477 0.50809 0.40671 0.0
H3245 H 0.90033 0.49793 0.36296 0.0
H3246 H 0.91583 0.50803 0.33592 0.0
H3247 H 0.91793 0.52362 0.27588 0.0
H3248 H 0.27418 0.33061 0.46619 0.0
H3249 H 0.25878 0.33287 0.40437 0.0
H3250 H 0.27787 0.33732 0.24943 0.0
H3251 H 0.29323 0.33498 0.31016 0.0
H3252 H 0.25228 0.34921 0.32305 0.0
H3253 H 0.25984 0.31198 0.20921 0.0
H3254 H 0.26612 0.31558 0.27782 0.0
H3255 H 0.27034 0.32095 0.20824 0.0
C3256 C 0.2751 0.33219 0.41909 0.0
C3257 C 0.28493 0.33245 0.39296 0.0
C3258 C 0.2663 0.33348 0.38391 0.0
C3259 C 0.26723 0.33507 0.32228 0.0
C3260 C 0.27702 0.33591 0.29676 0.0
H3261 H 0.22251 0.3326 0.03359 0.0
H3262 H 0.23822 0.33558 0.09132 0.0
C3263 C 0.28578 0.33458 0.33165 0.0
C3264 C 0.258 0.33523 0.28386 0.0
H3265 H 0.24596 0.32184 0.17332 0.0
C3266 C 0.25087 0.34325 0.29026 0.0
C3267 C 0.25624 0.32744 0.24107 0.0
C3268 C 0.26348 0.31844 0.23379 0.0
C3269 C 0.24201 0.3437 0.25453 0.0
C3270 C 0.2402 0.33584 0.21223 0.0
C3271 C 0.24741 0.3279 0.20548 0.0
C3272 C 0.23059 0.33525 0.17704 0.0
C3273 C 0.23473 0.35264 0.26198 0.0
C3274 C 0.22113 0.33412 0.20614 0.0
C3275 C 0.21217 0.33241 0.17344 0.0
C3276 C 0.21251 0.3317 0.11087 0.0
C3277 C 0.22198 0.33309 0.08167 0.0
C3278 C 0.23095 0.33481 0.11455 0.0
H3279 H 0.23864 0.35941 0.28198 0.0
H3280 H 0.23133 0.35495 0.21861 0.0
H3281 H 0.22838 0.35035 0.29225 0.0
H3282 H 0.22071 0.33419 0.25435 0.0
H3283 H 0.20502 0.33137 0.19748 0.0
H3284 H 0.4149 0.45651 0.93451 0.0
H3285 H 0.41296 0.47244 0.99039 0.0
H3286 H 0.4181 0.48998 0.83008 0.0
H3287 H 0.41999 0.47398 0.77314 0.0
H3288 H 0.42911 0.48681 -0.00254 0.0
H3289 H 0.39323 0.50451 0.90983 0.0
H3290 H 0.39613 0.491 0.90091 0.0
H3291 H 0.40242 0.50038 0.85492 0.0
C3292 C 0.41547 0.46373 0.91072 0.0
C3293 C 0.4177 0.46397 0.84936 0.0
C3294 C 0.41433 0.47283 0.94282 0.0
C3295 C 0.41534 0.48236 0.91434 0.0
C3296 C 0.41714 0.48268 0.85268 0.0
H3297 H 0.42133 0.5444 0.04919 0.0
H3298 H 0.41934 0.52908 0.98743 0.0
C3299 C 0.41827 0.47354 0.82029 0.0
C3300 C 0.41556 0.49185 0.95067 0.0
H3301 H 0.40315 0.51454 0.97685 0.0
C3302 C 0.42341 0.49286 0.99318 0.0
C3303 C 0.40815 0.49973 0.94451 0.0
C3304 C 0.39944 0.49887 0.90043 0.0
C3305 C 0.42411 0.50158 0.02958 0.0
C3306 C 0.41663 0.50941 0.02408 0.0
C3307 C 0.40882 0.50847 0.98118 0.0
C3308 C 0.417 0.51875 0.06167 0.0
C3309 C 0.43298 0.50243 0.07268 0.0
C3310 C 0.41611 0.51802 0.12387 0.0
C3311 C 0.41729 0.52676 0.15951 0.0
C3312 C 0.41933 0.53638 0.13343 0.0
C3313 C 0.41984 0.53711 0.07088 0.0
C3314 C 0.41867 0.52837 0.03538 0.0
H3315 H 0.43931 0.49704 0.06126 0.0
H3316 H 0.4361 0.51038 0.07346 0.0
H3317 H 0.43025 0.50052 0.11821 0.0
H3318 H 0.41464 0.51067 0.14487 0.0
H3319 H 0.41676 0.52594 0.20744 0.0
H3320 H 0.20483 0.66754 0.80852 0.0
H3321 H 0.22007 0.66537 0.74655 0.0
H3322 H 0.2393 0.66655 0.90298 0.0
H3323 H 0.22404 0.66855 0.96579 0.0
H3324 H 0.23552 0.67947 0.73726 0.0
H3325 H 0.25116 0.64201 0.81321 0.0
H3326 H 0.2382 0.64611 0.82979 0.0
H3327 H 0.24884 0.65098 0.87253 0.0
C3328 C 0.21228 0.66721 0.83001 0.0
C3329 C 0.21322 0.66826 0.89219 0.0
C3330 C 0.22099 0.66595 0.79443 0.0
C3331 C 0.2308 0.66569 0.82018 0.0
C3332 C 0.23178 0.66651 0.88231 0.0
H3333 H 0.29272 0.6707 0.69066 0.0
H3334 H 0.27701 0.66854 0.74882 0.0
C3335 C 0.22305 0.66773 0.91811 0.0
C3336 C 0.24001 0.66547 0.78142 0.0
H3337 H 0.26214 0.65227 0.75209 0.0
C3338 C 0.24129 0.67346 0.74005 0.0
C3339 C 0.24753 0.65764 0.78536 0.0
C3340 C 0.24635 0.64864 0.82722 0.0
C3341 C 0.25001 0.674 0.7035 0.0
C3342 C 0.25758 0.66623 0.70787 0.0
C3343 C 0.25629 0.65818 0.74883 0.0
C3344 C 0.26712 0.66666 0.67213 0.0
C3345 C 0.25121 0.68304 0.66188 0.0
C3346 C 0.26677 0.66608 0.60973 0.0
C3347 C 0.27574 0.66735 0.57615 0.0
C3348 C 0.28521 0.66918 0.60455 0.0
C3349 C 0.28556 0.66937 0.66724 0.0
C3350 C 0.2766 0.6681 0.70066 0.0
H3351 H 0.24581 0.68939 0.67297 0.0
H3352 H 0.25919 0.68607 0.66329 0.0
H3353 H 0.24959 0.68051 0.61558 0.0
H3354 H 0.25954 0.66481 0.587 0.0
H3355 H 0.27521 0.66708 0.52801 0.0
H3356 H 0.0799 0.54406 0.44025 0.0
H3357 H 0.08223 0.52865 0.5006 0.0
H3358 H 0.08112 0.50988 0.34227 0.0
H3359 H 0.07894 0.5253 0.28107 0.0
H3360 H 0.06819 0.51296 0.50794 0.0
H3361 H 0.10592 0.4981 0.43085 0.0
H3362 H 0.10167 0.51108 0.41608 0.0
H3363 H 0.09693 0.50057 0.37185 0.0
C3364 C 0.08027 0.53667 0.418 0.0
C3365 C 0.07918 0.53591 0.35575 0.0
C3366 C 0.08162 0.52787 0.45265 0.0
C3367 C 0.08195 0.51814 0.42589 0.0
C3368 C 0.0811 0.51734 0.36369 0.0
H3369 H 0.07814 0.45579 0.55077 0.0
H3370 H 0.08003 0.47163 0.49352 0.0
C3371 C 0.07978 0.52616 0.32883 0.0
C3372 C 0.08229 0.50882 0.46368 0.0
H3373 H 0.09586 0.48685 0.4913 0.0
C3374 C 0.07429 0.5073 0.50474 0.0
C3375 C 0.09025 0.50145 0.45916 0.0
C3376 C 0.09924 0.5029 0.41751 0.0
C3377 C 0.07389 0.49847 0.54047 0.0
C3378 C 0.08179 0.49106 0.53565 0.0
C3379 C 0.08984 0.49259 0.49493 0.0
C3380 C 0.08154 0.48144 0.57082 0.0
C3381 C 0.06484 0.49701 0.58174 0.0
C3382 C 0.08202 0.48171 0.63326 0.0
C3383 C 0.0809 0.47267 0.66631 0.0
C3384 C 0.07933 0.4632 0.63734 0.0
C3385 C 0.07926 0.46294 0.57462 0.0
C3386 C 0.08038 0.47198 0.54172 0.0
H3387 H 0.05837 0.50226 0.57061 0.0
H3388 H 0.062 0.48896 0.57993 0.0
H3389 H 0.06727 0.49865 0.62817 0.0
H3390 H 0.08309 0.48894 0.65644 0.0
H3391 H 0.08107 0.47313 0.71449 0.0
H3392 H 0.14754 0.1576 0.96019 0.0
H3393 H 0.1348 0.14474 0.9291 0.0
H3394 H 0.15905 0.12244 0.90542 0.0
H3395 H 0.17175 0.13524 0.93796 0.0
H3396 H 0.13376 0.13424 0.82106 0.0
H3397 H 0.13829 0.10731 0.01124 0.0
H3398 H 0.14321 0.12029 0.01264 0.0
H3399 H 0.15008 0.11037 0.97349 0.0
C3400 C 0.15009 0.14992 0.94863 0.0
C3401 C 0.16055 0.14735 0.95111 0.0
C3402 C 0.14285 0.14262 0.93082 0.0
C3403 C 0.14599 0.13263 0.91566 0.0
C3404 C 0.15647 0.13007 0.91791 0.0
H3405 H 0.11055 0.08775 0.71593 0.0
H3406 H 0.12341 0.10024 0.74995 0.0
C3407 C 0.1637 0.13737 0.93586 0.0
C3408 C 0.1383 0.12498 0.89609 0.0
H3409 H 0.12804 0.10155 0.93017 0.0
C3410 C 0.13248 0.1271 0.84493 0.0
C3411 C 0.1366 0.11574 0.92783 0.0
C3412 C 0.1423 0.1133 0.98468 0.0
C3413 C 0.12506 0.12016 0.82413 0.0
C3414 C 0.12357 0.11078 0.85486 0.0
C3415 C 0.12929 0.10871 0.90647 0.0
C3416 C 0.11597 0.10309 0.83467 0.0
C3417 C 0.11876 0.123 0.77011 0.0
C3418 C 0.10772 0.10038 0.87175 0.0
C3419 C 0.10042 0.09325 0.85248 0.0
C3420 C 0.1013 0.08872 0.79596 0.0
C3421 C 0.10965 0.09129 0.75931 0.0
C3422 C 0.11697 0.09841 0.77863 0.0
H3423 H 0.119 0.1314 0.76113 0.0
H3424 H 0.12189 0.11897 0.73048 0.0
H3425 H 0.11061 0.12063 0.77577 0.0
H3426 H 0.10685 0.1039 0.91524 0.0
H3427 H 0.094 0.09139 0.88132 0.0
H3428 H 0.1711 0.8635 0.04488 0.0
H3429 H 0.15909 0.87675 0.08004 0.0
H3430 H 0.13428 0.85474 0.0735 0.0
H3431 H 0.14634 0.84142 0.0402 0.0
H3432 H 0.1417 0.88446 0.0266 0.0
H3433 H 0.13214 0.86604 0.24245 0.0
H3434 H 0.14288 0.86199 0.19727 0.0
H3435 H 0.13007 0.85779 0.17944 0.0
C3436 C 0.16309 0.86151 0.05161 0.0
C3437 C 0.1596 0.85147 0.04079 0.0
C3438 C 0.15625 0.86906 0.07131 0.0
C3439 C 0.14585 0.86666 0.08036 0.0
C3440 C 0.14232 0.85667 0.06809 0.0
H3441 H 0.09439 0.90843 0.1101 0.0
H3442 H 0.10756 0.89625 0.07654 0.0
C3443 C 0.14917 0.84912 0.04866 0.0
C3444 C 0.13865 0.87464 0.1018 0.0
H3445 H 0.12161 0.88013 0.2129 0.0
C3446 C 0.13734 0.88356 0.06749 0.0
C3447 C 0.13312 0.87349 0.15566 0.0
C3448 C 0.13468 0.86436 0.19619 0.0
C3449 C 0.13044 0.89129 0.08491 0.0
C3450 C 0.12456 0.88992 0.13736 0.0
C3451 C 0.12606 0.8811 0.17238 0.0
C3452 C 0.11676 0.89749 0.15669 0.0
C3453 C 0.12961 0.90088 0.04741 0.0
C3454 C 0.11745 0.90202 0.21333 0.0
C3455 C 0.10989 0.90887 0.23266 0.0
C3456 C 0.10153 0.91126 0.19566 0.0
C3457 C 0.10085 0.90676 0.13901 0.0
C3458 C 0.10837 0.89986 0.11979 0.0
H3459 H 0.1366 0.90207 0.01977 0.0
H3460 H 0.12295 0.90013 0.01682 0.0
H3461 H 0.12841 0.9078 0.0756 0.0
H3462 H 0.12385 0.90025 0.24252 0.0
H3463 H 0.11059 0.91233 0.27638 0.0
H3464 H 0.32557 0.8635 0.4216 0.0
H3465 H 0.33861 0.87587 0.38811 0.0
H3466 H 0.36245 0.85367 0.42483 0.0
H3467 H 0.34938 0.84121 0.45667 0.0
H3468 H 0.35514 0.88409 0.44956 0.0
H3469 H 0.36819 0.86192 0.25216 0.0
H3470 H 0.35646 0.85895 0.29166 0.0
H3471 H 0.36867 0.85481 0.3207 0.0
C3472 C 0.3336 0.86128 0.4219 0.0
C3473 C 0.33653 0.85142 0.44072 0.0
C3474 C 0.34102 0.86833 0.40315 0.0
C3475 C 0.35146 0.8656 0.40305 0.0
C3476 C 0.35441 0.85583 0.42336 0.0
H3477 H 0.40361 0.90697 0.37747 0.0
H3478 H 0.39032 0.8949 0.4108 0.0
C3479 C 0.34698 0.84877 0.4419 0.0
C3480 C 0.35927 0.87303 0.38224 0.0
H3481 H 0.37818 0.87651 0.27883 0.0
C3482 C 0.36017 0.88247 0.41212 0.0
C3483 C 0.36568 0.87092 0.33286 0.0
C3484 C 0.36466 0.86115 0.29705 0.0
C3485 C 0.36746 0.88981 0.39451 0.0
C3486 C 0.37413 0.88754 0.34648 0.0
C3487 C 0.37311 0.87817 0.31601 0.0
C3488 C 0.38216 0.89481 0.32667 0.0
C3489 C 0.36783 0.89998 0.42682 0.0
C3490 C 0.38213 0.89852 0.26793 0.0
C3491 C 0.38975 0.90532 0.24881 0.0
C3492 C 0.39751 0.90849 0.28813 0.0
C3493 C 0.39761 0.90471 0.34668 0.0
C3494 C 0.39002 0.89787 0.36574 0.0
H3495 H 0.36052 0.90159 0.45073 0.0
H3496 H 0.37411 0.89979 0.46028 0.0
H3497 H 0.36938 0.9064 0.39545 0.0
H3498 H 0.37615 0.89622 0.23708 0.0
H3499 H 0.3895 0.90822 0.20357 0.0
H3500 H 0.40178 0.0984 0.76244 0.0
H3501 H 0.38846 0.11062 0.7348 0.0
H3502 H 0.37805 0.08984 0.59718 0.0
H3503 H 0.39001 0.07688 0.63262 0.0
H3504 H 0.38542 0.12135 0.65114 0.0
H3505 H 0.35109 0.09666 0.65267 0.0
H3506 H 0.36325 0.09211 0.68026 0.0
H3507 H 0.36016 0.09123 0.60179 0.0
C3508 C 0.39637 0.09626 0.72795 0.0
C3509 C 0.39693 0.08661 0.70014 0.0
C3510 C 0.38885 0.10336 0.71127 0.0
C3511 C 0.382 0.10116 0.66443 0.0
C3512 C 0.38285 0.09165 0.63512 0.0
H3513 H 0.35261 0.1531 0.48705 0.0
H3514 H 0.36434 0.13959 0.51872 0.0
C3515 C 0.38996 0.08432 0.65423 0.0
C3516 C 0.37437 0.10901 0.64458 0.0
H3517 H 0.34988 0.11203 0.59322 0.0
C3518 C 0.37758 0.1193 0.63983 0.0
C3519 C 0.36403 0.10653 0.63064 0.0
C3520 C 0.35943 0.09605 0.64239 0.0
C3521 C 0.37083 0.1271 0.62165 0.0
C3522 C 0.3608 0.12444 0.60207 0.0
C3523 C 0.35758 0.11415 0.60704 0.0
C3524 C 0.35343 0.13217 0.5779 0.0
C3525 C 0.37449 0.1381 0.62631 0.0
C3526 C 0.34307 0.13202 0.59577 0.0
C3527 C 0.33611 0.13922 0.5734 0.0
C3528 C 0.33945 0.14708 0.53515 0.0
C3529 C 0.34976 0.14714 0.51639 0.0
C3530 C 0.35658 0.13957 0.53598 0.0
H3531 H 0.38029 0.13896 0.66235 0.0
H3532 H 0.37829 0.14036 0.58401 0.0
H3533 H 0.36807 0.14348 0.63566 0.0
H3534 H 0.34031 0.12637 0.62744 0.0
H3535 H 0.32813 0.13869 0.58678 0.0
H3536 H 0.84028 0.84446 0.1294 0.0
H3537 H 0.8524 0.85771 0.16258 0.0
H3538 H 0.84933 0.87316 0.99333 0.0
H3539 H 0.83729 0.85984 0.95986 0.0
H3540 H 0.86932 0.87102 0.02705 0.0
H3541 H 0.84631 0.88705 0.21315 0.0
H3542 H 0.84818 0.87341 0.21876 0.0
H3543 H 0.84088 0.8786 0.15764 0.0
C3544 C 0.84214 0.85076 0.09965 0.0
C3545 C 0.8379 0.8512 0.04225 0.0
C3546 C 0.84901 0.85832 0.11865 0.0
C3547 C 0.85162 0.8665 0.08074 0.0
C3548 C 0.84738 0.86693 0.02329 0.0
H3549 H 0.88494 0.92138 0.18983 0.0
H3550 H 0.87194 0.90918 0.15374 0.0
C3551 C 0.84055 0.85933 0.00419 0.0
C3552 C 0.85911 0.87438 0.10011 0.0
H3553 H 0.86395 0.89209 0.20875 0.0
C3554 C 0.86812 0.87568 0.06656 0.0
C3555 C 0.85745 0.88054 0.15119 0.0
C3556 C 0.84764 0.87992 0.18695 0.0
C3557 C 0.87565 0.88282 0.08348 0.0
C3558 C 0.8742 0.88864 0.13606 0.0
C3559 C 0.86508 0.88752 0.16885 0.0
C3560 C 0.88205 0.89596 0.15772 0.0
C3561 C 0.88501 0.88416 0.04449 0.0
C3562 C 0.89195 0.89252 0.17266 0.0
C3563 C 0.89936 0.89947 0.19265 0.0
C3564 C 0.89694 0.90993 0.19837 0.0
C3565 C 0.88698 0.91334 0.18479 0.0
C3566 C 0.87958 0.9064 0.16454 0.0
H3567 H 0.88361 0.88135 -0.00157 0.0
H3568 H 0.88739 0.89235 0.04234 0.0
H3569 H 0.89148 0.87965 0.06339 0.0
H3570 H 0.89393 0.88445 0.169 0.0
H3571 H 0.90701 0.89671 0.2033 0.0
H3572 H 0.83999 0.15203 0.86758 0.0
H3573 H 0.85176 0.13842 0.8357 0.0
H3574 H 0.85067 0.12515 0.01186 0.0
H3575 H 0.83894 0.13887 0.04403 0.0
H3576 H 0.87019 0.12672 0.96975 0.0
H3577 H 0.84521 0.10862 0.79953 0.0
H3578 H 0.8469 0.12215 0.78734 0.0
H3579 H 0.8404 0.11774 0.85338 0.0
C3580 C 0.8422 0.14614 0.89922 0.0
C3581 C 0.83859 0.14644 0.9581 0.0
C3582 C 0.84888 0.13836 0.88097 0.0
C3583 C 0.85193 0.13068 0.92113 0.0
C3584 C 0.84835 0.13099 0.98014 0.0
H3585 H 0.88503 0.07543 0.8137 0.0
H3586 H 0.87212 0.08757 0.85142 0.0
C3587 C 0.84171 0.13882 -0.00149 0.0
C3588 C 0.85919 0.12258 0.90206 0.0
H3589 H 0.86303 0.104 0.79698 0.0
C3590 C 0.86859 0.12168 0.93231 0.0
C3591 C 0.85702 0.11593 0.85378 0.0
C3592 C 0.84679 0.11607 0.82202 0.0
C3593 C 0.87603 0.11451 0.91441 0.0
C3594 C 0.87408 0.10826 0.8641 0.0
C3595 C 0.86455 0.10892 0.835 0.0
C3596 C 0.88183 0.10097 0.84091 0.0
C3597 C 0.88585 0.11365 0.94986 0.0
C3598 C 0.89146 0.10454 0.82149 0.0
C3599 C 0.89883 0.09762 0.80059 0.0
C3600 C 0.89663 0.08707 0.79841 0.0
C3601 C 0.88691 0.08354 0.81603 0.0
C3602 C 0.87955 0.09044 0.83724 0.0
H3603 H 0.8849 0.11672 0.99575 0.0
H3604 H 0.88847 0.10553 0.95278 0.0
H3605 H 0.89196 0.1182 0.92757 0.0
H3606 H 0.89327 0.11267 0.82256 0.0
H3607 H 0.90628 0.10048 0.78675 0.0
H3608 H 0.65886 0.15329 0.63499 0.0
H3609 H 0.64657 0.14005 0.66619 0.0
H3610 H 0.6511 0.12411 0.49959 0.0
H3611 H 0.66341 0.13736 0.4683 0.0
H3612 H 0.63055 0.12663 0.52951 0.0
H3613 H 0.65269 0.11057 0.71912 0.0
H3614 H 0.651 0.12425 0.72291 0.0
H3615 H 0.65844 0.11876 0.66336 0.0
C3616 C 0.65729 0.1469 0.60541 0.0
C3617 C 0.66203 0.14629 0.54937 0.0
C3618 C 0.65031 0.13934 0.62327 0.0
C3619 C 0.64806 0.13104 0.58552 0.0
C3620 C 0.65278 0.13045 0.5294 0.0
H3621 H 0.6134 0.07657 0.68957 0.0
H3622 H 0.62673 0.08843 0.6536 0.0
C3623 C 0.65975 0.13801 0.51151 0.0
C3624 C 0.64047 0.12318 0.60371 0.0
H3625 H 0.6351 0.10552 0.71179 0.0
C3626 C 0.63156 0.12196 0.56913 0.0
C3627 C 0.6419 0.11702 0.65497 0.0
C3628 C 0.65157 0.11762 0.69196 0.0
C3629 C 0.62389 0.11492 0.58538 0.0
C3630 C 0.62512 0.10909 0.63808 0.0
C3631 C 0.63415 0.1101 0.67176 0.0
C3632 C 0.61707 0.10195 0.65927 0.0
C3633 C 0.61458 0.11373 0.54581 0.0
C3634 C 0.60731 0.10568 0.67503 0.0
C3635 C 0.59972 0.09893 0.6952 0.0
C3636 C 0.60182 0.08839 0.70007 0.0
C3637 C 0.61162 0.08468 0.68529 0.0
C3638 C 0.61921 0.09142 0.66508 0.0
H3639 H 0.61608 0.11662 0.50003 0.0
H3640 H 0.61216 0.10555 0.54299 0.0
H3641 H 0.60811 0.11823 0.56476 0.0
H3642 H 0.60559 0.11382 0.672 0.0
H3643 H 0.5922 0.10193 0.70674 0.0
H3644 H 0.61011 0.91212 0.21425 0.0
H3645 H 0.62325 0.89976 0.24636 0.0
H3646 H 0.60964 0.89889 0.42172 0.0
H3647 H 0.59661 0.91133 0.3899 0.0
H3648 H 0.63055 0.9002 0.42596 0.0
H3649 H 0.61841 0.86921 0.27105 0.0
H3650 H 0.62156 0.88108 0.23456 0.0
H3651 H 0.61072 0.88053 0.28428 0.0
C3652 C 0.60994 0.90924 0.25951 0.0
C3653 C 0.60236 0.91257 0.2996 0.0
C3654 C 0.6174 0.90218 0.27775 0.0
C3655 C 0.61729 0.89828 0.33609 0.0
C3656 C 0.60984 0.90179 0.37646 0.0
H3657 H 0.64777 0.84326 0.46183 0.0
H3658 H 0.63537 0.85654 0.4323 0.0
C3659 C 0.60243 0.90889 0.35836 0.0
C3660 C 0.62491 0.89051 0.35528 0.0
H3661 H 0.63377 0.86635 0.32561 0.0
C3662 C 0.63126 0.89279 0.40412 0.0
C3663 C 0.62569 0.88081 0.32719 0.0
C3664 C 0.61867 0.87769 0.27674 0.0
C3665 C 0.63844 0.88563 0.42542 0.0
C3666 C 0.63943 0.87604 0.39616 0.0
C3667 C 0.63304 0.87375 0.3476 0.0
C3668 C 0.64693 0.86819 0.41576 0.0
C3669 C 0.64471 0.8883 0.47985 0.0
C3670 C 0.65751 0.87035 0.41607 0.0
C3671 C 0.66455 0.86282 0.43351 0.0
C3672 C 0.66111 0.85299 0.44991 0.0
C3673 C 0.65055 0.85082 0.4495 0.0
C3674 C 0.6435 0.85836 0.43248 0.0
H3675 H 0.64108 0.89456 0.5062 0.0
H3676 H 0.64574 0.8815 0.50913 0.0
H3677 H 0.65243 0.891 0.46563 0.0
H3678 H 0.66033 0.87781 0.40225 0.0
H3679 H 0.67267 0.86465 0.43401 0.0
H3680 H 0.61012 0.58824 0.20765 0.0
H3681 H 0.6239 0.59976 0.24136 0.0
H3682 H 0.6102 0.60081 0.41651 0.0
H3683 H 0.59662 0.58914 0.38324 0.0
H3684 H 0.62267 0.61894 0.28097 0.0
H3685 H 0.63957 0.5947 0.45817 0.0
H3686 H 0.63052 0.58973 0.40446 0.0
H3687 H 0.62605 0.59659 0.46921 0.0
C3688 C 0.61012 0.59093 0.25333 0.0
C3689 C 0.60239 0.58784 0.29305 0.0
C3690 C 0.61798 0.59746 0.2726 0.0
C3691 C 0.61819 0.60098 0.33178 0.0
C3692 C 0.61038 0.59795 0.37121 0.0
H3693 H 0.6476 0.65628 0.45849 0.0
H3694 H 0.63566 0.64293 0.42447 0.0
C3695 C 0.6026 0.59134 0.35214 0.0
C3696 C 0.62623 0.60828 0.3515 0.0
H3697 H 0.64399 0.61263 0.4606 0.0
C3698 C 0.62741 0.61752 0.3199 0.0
C3699 C 0.63253 0.60634 0.4017 0.0
C3700 C 0.63219 0.59625 0.43492 0.0
C3701 C 0.63448 0.62501 0.33819 0.0
C3702 C 0.6403 0.62334 0.39056 0.0
C3703 C 0.63938 0.61396 0.42105 0.0
C3704 C 0.64739 0.63123 0.41435 0.0
C3705 C 0.63571 0.63458 0.30081 0.0
C3706 C 0.65784 0.62892 0.42277 0.0
C3707 C 0.6646 0.63647 0.44337 0.0
C3708 C 0.66101 0.64643 0.45542 0.0
C3709 C 0.65052 0.64865 0.449 0.0
C3710 C 0.64374 0.64108 0.429 0.0
H3711 H 0.6332 0.63327 0.2541 0.0
H3712 H 0.63086 0.64081 0.31967 0.0
H3713 H 0.64382 0.63725 0.30036 0.0
H3714 H 0.66079 0.62134 0.41242 0.0
H3715 H 0.67265 0.63458 0.44917 0.0
H3716 H 0.67116 0.36388 0.54395 0.0
H3717 H 0.65905 0.37711 0.57877 0.0
H3718 H 0.63496 0.35434 0.5875 0.0
H3719 H 0.64708 0.34111 0.5532 0.0
H3720 H 0.63957 0.38274 0.52391 0.0
H3721 H 0.63527 0.36813 0.75537 0.0
H3722 H 0.6459 0.36453 0.7079 0.0
H3723 H 0.63349 0.35873 0.69755 0.0
C3724 C 0.66328 0.36175 0.5537 0.0
C3725 C 0.65999 0.35155 0.54654 0.0
C3726 C 0.6564 0.36927 0.57332 0.0
C3727 C 0.64618 0.36664 0.58637 0.0
C3728 C 0.64286 0.35646 0.5785 0.0
H3729 H 0.59213 0.39868 0.71018 0.0
H3730 H 0.60491 0.38605 0.67658 0.0
C3731 C 0.64974 0.34895 0.55868 0.0
C3732 C 0.63891 0.37457 0.60723 0.0
H3733 H 0.62398 0.38148 0.72562 0.0
C3734 C 0.6362 0.38253 0.56809 0.0
C3735 C 0.63454 0.37421 0.66484 0.0
C3736 C 0.63749 0.366 0.70917 0.0
C3737 C 0.62899 0.39003 0.5846 0.0
C3738 C 0.62458 0.38965 0.64219 0.0
C3739 C 0.62737 0.38173 0.68148 0.0
C3740 C 0.61693 0.3973 0.66236 0.0
C3741 C 0.62595 0.39812 0.53972 0.0
C3742 C 0.61954 0.40776 0.66625 0.0
C3743 C 0.61225 0.41494 0.68521 0.0
C3744 C 0.60232 0.41174 0.70083 0.0
C3745 C 0.59977 0.40128 0.69806 0.0
C3746 C 0.60703 0.3941 0.67894 0.0
H3747 H 0.628 0.39581 0.49355 0.0
H3748 H 0.61755 0.39966 0.54162 0.0
H3749 H 0.63005 0.40539 0.54998 0.0
H3750 H 0.62721 0.41035 0.65501 0.0
H3751 H 0.61438 0.42298 0.68803 0.0
H3752 H 0.88414 0.42205 0.79899 0.0
H3753 H 0.87047 0.41031 0.83188 0.0
H3754 H 0.89149 0.38473 0.81792 0.0
H3755 H 0.90521 0.3965 0.78646 0.0
H3756 H 0.86219 0.39332 0.77318 0.0
H3757 H 0.88017 0.38213 0.98781 0.0
H3758 H 0.88444 0.39309 0.94504 0.0
H3759 H 0.88839 0.38033 0.92437 0.0
C3760 C 0.88581 0.41392 0.80352 0.0
C3761 C 0.89568 0.41013 0.79104 0.0
C3762 C 0.87803 0.40724 0.82196 0.0
C3763 C 0.88004 0.3967 0.82823 0.0
C3764 C 0.88986 0.39288 0.81452 0.0
H3765 H 0.83754 0.34588 0.84818 0.0
H3766 H 0.84986 0.3591 0.81737 0.0
C3767 C 0.89764 0.39956 0.7962 0.0
C3768 C 0.87183 0.38965 0.84828 0.0
H3769 H 0.86574 0.37226 0.95638 0.0
C3770 C 0.86292 0.38875 0.8134 0.0
C3771 C 0.87276 0.38385 0.90125 0.0
C3772 C 0.88191 0.38495 0.94216 0.0
C3773 C 0.85501 0.38195 0.82931 0.0
C3774 C 0.85615 0.37581 0.88087 0.0
C3775 C 0.86494 0.37692 0.91656 0.0
C3776 C 0.8484 0.36806 0.89831 0.0
C3777 C 0.84547 0.38148 0.79111 0.0
C3778 C 0.84366 0.36862 0.95439 0.0
C3779 C 0.83669 0.36105 0.9721 0.0
C3780 C 0.83442 0.35279 0.9341 0.0
C3781 C 0.83911 0.35225 0.87789 0.0
C3782 C 0.84611 0.35981 0.86024 0.0
H3783 H 0.84451 0.38858 0.76414 0.0
H3784 H 0.84611 0.37489 0.75991 0.0
H3785 H 0.83848 0.38037 0.81876 0.0
H3786 H 0.84536 0.37492 0.98443 0.0
H3787 H 0.83306 0.36165 0.01543 0.0
H3788 H 0.90702 0.60001 0.19793 0.0
H3789 H 0.89415 0.61264 0.16512 0.0
H3790 H 0.87122 0.58869 0.15784 0.0
H3791 H 0.88406 0.57609 0.19122 0.0
H3792 H 0.8821 0.6116 0.05635 0.0
H3793 H 0.85811 0.61181 0.26161 0.0
H3794 H 0.87115 0.60703 0.26061 0.0
H3795 H 0.8609 0.59935 0.23077 0.0
C3796 C 0.89921 0.59751 0.18955 0.0
C3797 C 0.89646 0.58715 0.19677 0.0
C3798 C 0.8919 0.60467 0.17078 0.0
C3799 C 0.88175 0.60158 0.15966 0.0
C3800 C 0.879 0.59122 0.16696 0.0
H3801 H 0.82678 0.63403 0.04665 0.0
H3802 H 0.83936 0.62105 0.07841 0.0
C3803 C 0.88631 0.58405 0.18555 0.0
C3804 C 0.87409 0.60916 0.13909 0.0
H3805 H 0.85185 0.62124 0.17911 0.0
C3806 C 0.87549 0.61375 0.08314 0.0
C3807 C 0.86548 0.61186 0.17422 0.0
C3808 C 0.86381 0.60734 0.23538 0.0
C3809 C 0.86842 0.62092 0.06093 0.0
C3810 C 0.85985 0.62371 0.09631 0.0
C3811 C 0.85843 0.61907 0.15217 0.0
C3812 C 0.85232 0.6315 0.07645 0.0
C3813 C 0.87006 0.6253 -0.00062 0.0
C3814 C 0.85546 0.64165 0.06548 0.0
C3815 C 0.84831 0.64902 0.0474 0.0
C3816 C 0.83793 0.64635 0.04072 0.0
C3817 C 0.83477 0.63623 0.05199 0.0
C3818 C 0.84192 0.62885 0.06994 0.0
H3819 H 0.87524 0.62038 0.97226 0.0
H3820 H 0.86264 0.62618 0.97539 0.0
H3821 H 0.87366 0.63301 0.00326 0.0
H3822 H 0.86341 0.6439 0.07148 0.0
H3823 H 0.85085 0.65683 0.03921 0.0
H3824 H 0.3395 0.34592 0.63982 0.0
H3825 H 0.35168 0.35913 0.67306 0.0
H3826 H 0.34821 0.37493 0.50515 0.0
H3827 H 0.33606 0.3617 0.47181 0.0
H3828 H 0.36846 0.37208 0.53757 0.0
H3829 H 0.34602 0.38874 0.72442 0.0
H3830 H 0.34754 0.37504 0.72893 0.0
H3831 H 0.34031 0.38054 0.66856 0.0
C3832 C 0.34128 0.35229 0.61043 0.0
C3833 C 0.33692 0.35283 0.55332 0.0
C3834 C 0.34818 0.35983 0.62945 0.0
C3835 C 0.35073 0.36806 0.59181 0.0
C3836 C 0.34631 0.36864 0.53485 0.0
H3837 H 0.38553 0.42258 0.6906 0.0
H3838 H 0.37217 0.41054 0.65717 0.0
C3839 C 0.33943 0.36109 0.5158 0.0
C3840 C 0.35838 0.3758 0.61064 0.0
H3841 H 0.36366 0.39365 0.71788 0.0
C3842 C 0.3674 0.37684 0.57679 0.0
C3843 C 0.3569 0.38207 0.66143 0.0
C3844 C 0.34713 0.38164 0.69767 0.0
C3845 C 0.37508 0.38385 0.59311 0.0
C3846 C 0.37378 0.38982 0.64519 0.0
C3847 C 0.36467 0.38896 0.67833 0.0
C3848 C 0.38178 0.39704 0.66591 0.0
C3849 C 0.38449 0.38488 0.55413 0.0
C3850 C 0.39152 0.39338 0.68265 0.0
C3851 C 0.39913 0.40023 0.70131 0.0
C3852 C 0.39707 0.4108 0.70363 0.0
C3853 C 0.38728 0.41445 0.68819 0.0
C3854 C 0.37967 0.4076 0.66946 0.0
H3855 H 0.38312 0.38179 0.50864 0.0
H3856 H 0.38691 0.39304 0.55039 0.0
H3857 H 0.39092 0.38047 0.57424 0.0
H3858 H 0.39322 0.38522 0.68129 0.0
H3859 H 0.40664 0.39729 0.7135 0.0
H3860 H 0.38409 0.5757 0.30975 0.0
H3861 H 0.37098 0.58781 0.3453 0.0
H3862 H 0.39254 0.61282 0.32552 0.0
H3863 H 0.40576 0.60065 0.29248 0.0
H3864 H 0.38239 0.61363 0.43108 0.0
H3865 H 0.35474 0.60802 0.24547 0.0
H3866 H 0.35804 0.59636 0.28383 0.0
H3867 H 0.36775 0.60321 0.24283 0.0
C3868 C 0.386 0.58378 0.31342 0.0
C3869 C 0.39588 0.5873 0.29874 0.0
C3870 C 0.3785 0.59069 0.33303 0.0
C3871 C 0.38075 0.60123 0.33718 0.0
C3872 C 0.39064 0.60473 0.32242 0.0
H3873 H 0.33891 0.65233 0.36344 0.0
H3874 H 0.35114 0.639 0.33299 0.0
C3875 C 0.39815 0.59781 0.30332 0.0
C3876 C 0.37289 0.60863 0.35801 0.0
H3877 H 0.3491 0.61828 0.3265 0.0
C3878 C 0.37511 0.61466 0.40825 0.0
C3879 C 0.36345 0.61 0.3277 0.0
C3880 C 0.36087 0.60413 0.27164 0.0
C3881 C 0.36815 0.62208 0.42899 0.0
C3882 C 0.35861 0.6233 0.39948 0.0
C3883 C 0.35639 0.61725 0.34933 0.0
C3884 C 0.35105 0.63116 0.41812 0.0
C3885 C 0.37122 0.62875 0.48113 0.0
C3886 C 0.34684 0.63107 0.47575 0.0
C3887 C 0.33992 0.63872 0.49326 0.0
C3888 C 0.33703 0.64646 0.45308 0.0
C3889 C 0.34103 0.64639 0.39504 0.0
C3890 C 0.348 0.63881 0.37771 0.0
H3891 H 0.37967 0.62867 0.48843 0.0
H3892 H 0.36871 0.63683 0.47438 0.0
H3893 H 0.36749 0.62579 0.52218 0.0
H3894 H 0.34889 0.62508 0.5071 0.0
H3895 H 0.33677 0.63854 0.53793 0.0
H3896 H 0.11306 0.57562 0.18326 0.0
H3897 H 0.12646 0.58762 0.15017 0.0
H3898 H 0.10546 0.61299 0.17427 0.0
H3899 H 0.09195 0.60094 0.20495 0.0
H3900 H 0.11565 0.6141 0.06895 0.0
H3901 H 0.14314 0.60696 0.25344 0.0
H3902 H 0.13958 0.59555 0.2134 0.0
H3903 H 0.13002 0.60245 0.25532 0.0
C3904 C 0.11134 0.58376 0.18106 0.0
C3905 C 0.10153 0.58741 0.19626 0.0
C3906 C 0.119 0.5906 0.16287 0.0
C3907 C 0.11699 0.6012 0.16067 0.0
C3908 C 0.10717 0.60484 0.17592 0.0
H3909 H 0.16033 0.65126 0.13833 0.0
H3910 H 0.14785 0.63816 0.16874 0.0
C3911 C 0.0995 0.59799 0.19362 0.0
C3912 C 0.12502 0.60851 0.14111 0.0
H3913 H 0.14911 0.61731 0.17346 0.0
C3914 C 0.12296 0.61482 0.0918 0.0
C3915 C 0.1345 0.6095 0.17148 0.0
C3916 C 0.13693 0.60333 0.22669 0.0
C3917 C 0.13014 0.6221 0.0719 0.0
C3918 C 0.13973 0.62289 0.10127 0.0
C3919 C 0.14179 0.6166 0.15067 0.0
C3920 C 0.14756 0.63051 0.08305 0.0
C3921 C 0.12725 0.62906 0.02073 0.0
C3922 C 0.15168 0.63041 0.02519 0.0
C3923 C 0.15874 0.63792 0.00773 0.0
C3924 C 0.16188 0.64553 0.04816 0.0
C3925 C 0.15802 0.64543 0.10653 0.0
C3926 C 0.1509 0.63798 0.12383 0.0
H3927 H 0.11879 0.62932 0.01384 0.0
H3928 H 0.13006 0.63701 0.02832 0.0
H3929 H 0.13081 0.62611 0.97915 0.0
H3930 H 0.1494 0.62455 0.99354 0.0
H3931 H 0.16177 0.63777 0.96278 0.0
H3932 H 0.15691 0.34446 0.86861 0.0
H3933 H 0.14493 0.35782 0.83522 0.0
H3934 H 0.14915 0.374 0.00138 0.0
H3935 H 0.1611 0.36059 0.03494 0.0
H3936 H 0.12879 0.37206 0.96949 0.0
H3937 H 0.15191 0.38692 0.78045 0.0
H3938 H 0.14975 0.37329 0.77734 0.0
H3939 H 0.15724 0.37864 0.83714 0.0
C3940 C 0.15531 0.35092 0.89768 0.0
C3941 C 0.15988 0.35155 0.9542 0.0
C3942 C 0.14853 0.35855 0.87856 0.0
C3943 C 0.1463 0.36697 0.91548 0.0
C3944 C 0.15081 0.36757 0.97218 0.0
H3945 H 0.1139 0.42243 0.80577 0.0
H3946 H 0.12675 0.41006 0.84192 0.0
C3947 C 0.15758 0.35992 0.99137 0.0
C3948 C 0.13899 0.37498 0.89577 0.0
H3949 H 0.13448 0.39256 0.78595 0.0
C3950 C 0.13005 0.37659 0.92956 0.0
C3951 C 0.14074 0.38096 0.84412 0.0
C3952 C 0.15048 0.37996 0.80794 0.0
C3953 C 0.12268 0.38387 0.91228 0.0
C3954 C 0.12423 0.38953 0.85924 0.0
C3955 C 0.13328 0.38811 0.82623 0.0
C3956 C 0.11652 0.39695 0.8372 0.0
C3957 C 0.11337 0.3855 0.95125 0.0
C3958 C 0.1066 0.39362 0.82178 0.0
C3959 C 0.09929 0.40066 0.80162 0.0
C3960 C 0.10182 0.4111 0.79629 0.0
C3961 C 0.11179 0.41441 0.81042 0.0
C3962 C 0.11911 0.40737 0.83072 0.0
H3963 H 0.11468 0.38269 -0.00263 0.0
H3964 H 0.11124 0.39377 0.95322 0.0
H3965 H 0.10676 0.38118 0.9324 0.0
H3966 H 0.10453 0.38557 0.8253 0.0
H3967 H 0.09163 0.39797 0.79063 0.0
loop_
_geom_bond_atom_site_label_1
_geom_bond_atom_site_label_2
_geom_bond_distance
_geom_bond_site_symmetry_2
_ccdc_geom_bond_type
Co0 O3 1.970 . S
Co0 N17 1.989 . S
Co0 O25 1.967 . S
Co0 O32 1.920 . S
Co1 O4 1.966 . S
Co1 N10 2.022 . S
Co1 N18 1.993 . S
Co1 O26 1.941 . S
C2 O3 1.258 . S
C2 O4 1.263 1_554 S
O3 Co0 1.970 . S
O3 C2 1.258 . S
O4 Co1 1.966 . S
O4 C2 1.263 1_556 S
C5 O6 1.235 . S
C5 O32 1.289 . S
O6 C5 1.235 . S
C7 C9 1.400 . S
C7 N10 1.351 . S
C7 C12 1.501 . S
C8 C9 1.387 . S
C8 N11 1.341 . S
C9 C7 1.400 . S
C9 C8 1.387 . S
N10 Co1 2.022 . S
N10 C7 1.351 . S
N10 N11 1.365 . S
N11 C8 1.341 . S
N11 N10 1.365 . S
N11 H31 0.862 . S
C12 C7 1.501 . S
C12 H13 0.961 . S
C12 H14 0.961 . S
C12 H15 0.960 . S
H13 C12 0.961 . S
H14 C12 0.961 . S
H15 C12 0.960 . S
C16 N17 1.342 . S
C16 C20 1.401 1_554 S
C16 C21 1.499 . S
N17 Co0 1.989 . S
N17 C16 1.342 . S
N17 N18 1.388 1_554 S
N18 Co1 1.993 . S
N18 N17 1.388 1_556 S
N18 C19 1.346 . S
C19 N18 1.346 . S
C19 C20 1.396 . S
C19 C29 1.510 . S
C20 C16 1.401 1_556 S
C20 C19 1.396 . S
C21 C16 1.499 . S
C21 H22 0.959 . S
C21 H23 0.960 . S
C21 H24 0.961 . S
H22 C21 0.959 . S
H23 C21 0.960 . S
H24 C21 0.961 . S
O25 Co0 1.967 . S
O25 C33 1.258 . S
O26 Co1 1.941 . S
O26 C33 1.266 1_556 S
H27 C29 0.959 . S
H28 C29 0.961 . S
C29 C19 1.510 . S
C29 H27 0.959 . S
C29 H28 0.961 . S
C29 H30 0.960 . S
H30 C29 0.960 . S
H31 N11 0.862 . S
O32 Co0 1.920 . S
O32 C5 1.289 . S
C33 O25 1.258 . S
C33 O26 1.266 1_554 S
Co34 O37 1.970 . S
Co34 N51 1.989 . S
Co34 O59 1.967 . S
Co34 O66 1.920 . S
Co35 O38 1.966 . S
Co35 N44 2.022 . S
Co35 N52 1.993 . S
Co35 O60 1.941 . S
C36 O37 1.258 . S
C36 O38 1.263 . S
O37 Co34 1.970 . S
O37 C36 1.258 . S
O38 Co35 1.966 . S
O38 C36 1.263 . S
C39 O40 1.235 . S
C39 O66 1.289 . S
O40 C39 1.235 . S
C41 C43 1.400 . S
C41 N44 1.351 . S
C41 C46 1.501 . S
C42 C43 1.387 . S
C42 N45 1.341 . S
C43 C41 1.400 . S
C43 C42 1.387 . S
N44 Co35 2.022 . S
N44 C41 1.351 . S
N44 N45 1.365 . S
N45 C42 1.341 . S
N45 N44 1.365 . S
N45 H65 0.862 . S
C46 C41 1.501 . S
C46 H47 0.961 . S
C46 H48 0.961 . S
C46 H49 0.960 . S
H47 C46 0.961 . S
H48 C46 0.961 . S
H49 C46 0.960 . S
C50 N51 1.342 . S
C50 C54 1.401 . S
C50 C55 1.499 . S
N51 Co34 1.989 . S
N51 C50 1.342 . S
N51 N52 1.388 . S
N52 Co35 1.993 . S
N52 N51 1.388 . S
N52 C53 1.346 . S
C53 N52 1.346 . S
C53 C54 1.396 . S
C53 C63 1.510 . S
C54 C50 1.401 . S
C54 C53 1.396 . S
C55 C50 1.499 . S
C55 H56 0.959 . S
C55 H57 0.960 . S
C55 H58 0.961 . S
H56 C55 0.959 . S
H57 C55 0.960 . S
H58 C55 0.961 . S
O59 Co34 1.967 . S
O59 C67 1.258 . S
O60 Co35 1.941 . S
O60 C67 1.266 . S
H61 C63 0.959 . S
H62 C63 0.961 . S
C63 C53 1.510 . S
C63 H61 0.959 . S
C63 H62 0.961 . S
C63 H64 0.960 . S
H64 C63 0.960 . S
H65 N45 0.862 . S
O66 Co34 1.920 . S
O66 C39 1.289 . S
C67 O59 1.258 . S
C67 O60 1.266 . S
Co68 O71 1.970 . S
Co68 N85 1.989 . S
Co68 O93 1.967 . S
Co68 O100 1.920 . S
Co69 O72 1.966 . S
Co69 N78 2.022 . S
Co69 N86 1.993 . S
Co69 O94 1.941 . S
C70 O71 1.258 . S
C70 O72 1.263 . S
O71 Co68 1.970 . S
O71 C70 1.258 . S
O72 Co69 1.966 . S
O72 C70 1.263 . S
C73 O74 1.235 . S
C73 O100 1.289 . S
O74 C73 1.235 . S
C75 C77 1.400 . S
C75 N78 1.351 . S
C75 C80 1.501 . S
C76 C77 1.387 . S
C76 N79 1.341 . S
C77 C75 1.400 . S
C77 C76 1.387 . S
N78 Co69 2.022 . S
N78 C75 1.351 . S
N78 N79 1.365 . S
N79 C76 1.341 . S
N79 N78 1.365 . S
N79 H99 0.862 . S
C80 C75 1.501 . S
C80 H81 0.961 . S
C80 H82 0.961 . S
C80 H83 0.960 . S
H81 C80 0.961 . S
H82 C80 0.961 . S
H83 C80 0.960 . S
C84 N85 1.342 . S
C84 C88 1.401 . S
C84 C89 1.499 . S
N85 Co68 1.989 . S
N85 C84 1.342 . S
N85 N86 1.388 . S
N86 Co69 1.993 . S
N86 N85 1.388 . S
N86 C87 1.346 . S
C87 N86 1.346 . S
C87 C88 1.396 . S
C87 C97 1.510 . S
C88 C84 1.401 . S
C88 C87 1.396 . S
C89 C84 1.499 . S
C89 H90 0.959 . S
C89 H91 0.960 . S
C89 H92 0.961 . S
H90 C89 0.959 . S
H91 C89 0.960 . S
H92 C89 0.961 . S
O93 Co68 1.967 . S
O93 C101 1.258 . S
O94 Co69 1.941 . S
O94 C101 1.266 . S
H95 C97 0.959 . S
H96 C97 0.961 . S
C97 C87 1.510 . S
C97 H95 0.959 . S
C97 H96 0.961 . S
C97 H98 0.960 . S
H98 C97 0.960 . S
H99 N79 0.862 . S
O100 Co68 1.920 . S
O100 C73 1.289 . S
C101 O93 1.258 . S
C101 O94 1.266 . S
Co102 O105 1.970 . S
Co102 N119 1.989 . S
Co102 O127 1.967 . S
Co102 O134 1.920 . S
Co103 O106 1.966 . S
Co103 N112 2.022 . S
Co103 N120 1.993 . S
Co103 O128 1.941 . S
C104 O105 1.258 . S
C104 O106 1.263 . S
O105 Co102 1.970 . S
O105 C104 1.258 . S
O106 Co103 1.966 . S
O106 C104 1.263 . S
C107 O108 1.235 . S
C107 O134 1.289 . S
O108 C107 1.235 . S
C109 C111 1.400 . S
C109 N112 1.351 . S
C109 C114 1.501 . S
C110 C111 1.387 . S
C110 N113 1.341 . S
C111 C109 1.400 . S
C111 C110 1.387 . S
N112 Co103 2.022 . S
N112 C109 1.351 . S
N112 N113 1.365 . S
N113 C110 1.341 . S
N113 N112 1.365 . S
N113 H133 0.862 . S
C114 C109 1.501 . S
C114 H115 0.961 . S
C114 H116 0.961 . S
C114 H117 0.960 . S
H115 C114 0.961 . S
H116 C114 0.961 . S
H117 C114 0.960 . S
C118 N119 1.342 . S
C118 C122 1.401 . S
C118 C123 1.499 . S
N119 Co102 1.989 . S
N119 C118 1.342 . S
N119 N120 1.388 . S
N120 Co103 1.993 . S
N120 N119 1.388 . S
N120 C121 1.346 . S
C121 N120 1.346 . S
C121 C122 1.396 . S
C121 C131 1.510 . S
C122 C118 1.401 . S
C122 C121 1.396 . S
C123 C118 1.499 . S
C123 H124 0.959 . S
C123 H125 0.960 . S
C123 H126 0.961 . S
H124 C123 0.959 . S
H125 C123 0.960 . S
H126 C123 0.961 . S
O127 Co102 1.967 . S
O127 C135 1.258 . S
O128 Co103 1.941 . S
O128 C135 1.266 . S
H129 C131 0.959 . S
H130 C131 0.961 . S
C131 C121 1.510 . S
C131 H129 0.959 . S
C131 H130 0.961 . S
C131 H132 0.960 . S
H132 C131 0.960 . S
H133 N113 0.862 . S
O134 Co102 1.920 . S
O134 C107 1.289 . S
C135 O127 1.258 . S
C135 O128 1.266 . S
Co136 O139 1.970 . S
Co136 N153 1.989 . S
Co136 O161 1.967 . S
Co136 O168 1.920 . S
Co137 O140 1.966 . S
Co137 N146 2.022 . S
Co137 N154 1.993 . S
Co137 O162 1.941 . S
C138 O139 1.258 . S
C138 O140 1.263 1_556 S
O139 Co136 1.970 . S
O139 C138 1.258 . S
O140 Co137 1.966 . S
O140 C138 1.263 1_554 S
C141 O142 1.235 . S
C141 O168 1.289 . S
O142 C141 1.235 . S
C143 C145 1.400 . S
C143 N146 1.351 . S
C143 C148 1.501 . S
C144 C145 1.387 . S
C144 N147 1.341 . S
C145 C143 1.400 . S
C145 C144 1.387 . S
N146 Co137 2.022 . S
N146 C143 1.351 . S
N146 N147 1.365 . S
N147 C144 1.341 . S
N147 N146 1.365 . S
N147 H167 0.862 . S
C148 C143 1.501 . S
C148 H149 0.961 . S
C148 H150 0.961 . S
C148 H151 0.960 . S
H149 C148 0.961 . S
H150 C148 0.961 . S
H151 C148 0.960 . S
C152 N153 1.342 . S
C152 C156 1.401 1_556 S
C152 C157 1.499 . S
N153 Co136 1.989 . S
N153 C152 1.342 . S
N153 N154 1.388 1_556 S
N154 Co137 1.993 . S
N154 N153 1.388 1_554 S
N154 C155 1.346 . S
C155 N154 1.346 . S
C155 C156 1.396 . S
C155 C165 1.510 . S
C156 C152 1.401 1_554 S
C156 C155 1.396 . S
C157 C152 1.499 . S
C157 H158 0.959 . S
C157 H159 0.960 . S
C157 H160 0.961 . S
H158 C157 0.959 . S
H159 C157 0.960 . S
H160 C157 0.961 . S
O161 Co136 1.967 . S
O161 C169 1.258 . S
O162 Co137 1.941 . S
O162 C169 1.266 1_554 S
H163 C165 0.959 . S
H164 C165 0.961 . S
C165 C155 1.510 . S
C165 H163 0.959 . S
C165 H164 0.961 . S
C165 H166 0.960 . S
H166 C165 0.960 . S
H167 N147 0.862 . S
O168 Co136 1.920 . S
O168 C141 1.289 . S
C169 O161 1.258 . S
C169 O162 1.266 1_556 S
Co170 O173 1.970 . S
Co170 N187 1.989 . S
Co170 O195 1.967 . S
Co170 O202 1.920 . S
Co171 O174 1.966 . S
Co171 N180 2.022 . S
Co171 N188 1.993 . S
Co171 O196 1.941 . S
C172 O173 1.258 . S
C172 O174 1.263 . S
O173 Co170 1.970 . S
O173 C172 1.258 . S
O174 Co171 1.966 . S
O174 C172 1.263 . S
C175 O176 1.235 . S
C175 O202 1.289 . S
O176 C175 1.235 . S
C177 C179 1.400 . S
C177 N180 1.351 . S
C177 C182 1.501 . S
C178 C179 1.387 . S
C178 N181 1.341 . S
C179 C177 1.400 . S
C179 C178 1.387 . S
N180 Co171 2.022 . S
N180 C177 1.351 . S
N180 N181 1.365 . S
N181 C178 1.341 . S
N181 N180 1.365 . S
N181 H201 0.862 . S
C182 C177 1.501 . S
C182 H183 0.961 . S
C182 H184 0.961 . S
C182 H185 0.960 . S
H183 C182 0.961 . S
H184 C182 0.961 . S
H185 C182 0.960 . S
C186 N187 1.342 . S
C186 C190 1.401 . S
C186 C191 1.499 . S
N187 Co170 1.989 . S
N187 C186 1.342 . S
N187 N188 1.388 . S
N188 Co171 1.993 . S
N188 N187 1.388 . S
N188 C189 1.346 . S
C189 N188 1.346 . S
C189 C190 1.396 . S
C189 C199 1.510 . S
C190 C186 1.401 . S
C190 C189 1.396 . S
C191 C186 1.499 . S
C191 H192 0.959 . S
C191 H193 0.960 . S
C191 H194 0.961 . S
H192 C191 0.959 . S
H193 C191 0.960 . S
H194 C191 0.961 . S
O195 Co170 1.967 . S
O195 C203 1.258 . S
O196 Co171 1.941 . S
O196 C203 1.266 . S
H197 C199 0.959 . S
H198 C199 0.961 . S
C199 C189 1.510 . S
C199 H197 0.959 . S
C199 H198 0.961 . S
C199 H200 0.960 . S
H200 C199 0.960 . S
H201 N181 0.862 . S
O202 Co170 1.920 . S
O202 C175 1.289 . S
C203 O195 1.258 . S
C203 O196 1.266 . S
Co204 O207 1.970 . S
Co204 N221 1.989 . S
Co204 O229 1.967 . S
Co204 O236 1.920 . S
Co205 O208 1.966 . S
Co205 N214 2.022 . S
Co205 N222 1.993 . S
Co205 O230 1.941 . S
C206 O207 1.258 . S
C206 O208 1.263 . S
O207 Co204 1.970 . S
O207 C206 1.258 . S
O208 Co205 1.966 . S
O208 C206 1.263 . S
C209 O210 1.235 . S
C209 O236 1.289 . S
O210 C209 1.235 . S
C211 C213 1.400 . S
C211 N214 1.351 . S
C211 C216 1.501 . S
C212 C213 1.387 . S
C212 N215 1.341 . S
C213 C211 1.400 . S
C213 C212 1.387 . S
N214 Co205 2.022 . S
N214 C211 1.351 . S
N214 N215 1.365 . S
N215 C212 1.341 . S
N215 N214 1.365 . S
N215 H235 0.862 . S
C216 C211 1.501 . S
C216 H217 0.961 . S
C216 H218 0.961 . S
C216 H219 0.960 . S
H217 C216 0.961 . S
H218 C216 0.961 . S
H219 C216 0.960 . S
C220 N221 1.342 . S
C220 C224 1.401 . S
C220 C225 1.499 . S
N221 Co204 1.989 . S
N221 C220 1.342 . S
N221 N222 1.388 . S
N222 Co205 1.993 . S
N222 N221 1.388 . S
N222 C223 1.346 . S
C223 N222 1.346 . S
C223 C224 1.396 . S
C223 C233 1.510 . S
C224 C220 1.401 . S
C224 C223 1.396 . S
C225 C220 1.499 . S
C225 H226 0.959 . S
C225 H227 0.960 . S
C225 H228 0.961 . S
H226 C225 0.959 . S
H227 C225 0.960 . S
H228 C225 0.961 . S
O229 Co204 1.967 . S
O229 C237 1.258 . S
O230 Co205 1.941 . S
O230 C237 1.266 . S
H231 C233 0.959 . S
H232 C233 0.961 . S
C233 C223 1.510 . S
C233 H231 0.959 . S
C233 H232 0.961 . S
C233 H234 0.960 . S
H234 C233 0.960 . S
H235 N215 0.862 . S
O236 Co204 1.920 . S
O236 C209 1.289 . S
C237 O229 1.258 . S
C237 O230 1.266 . S
Co238 O241 1.970 . S
Co238 N255 1.989 . S
Co238 O263 1.967 . S
Co238 O270 1.920 . S
Co239 O242 1.966 . S
Co239 N248 2.022 . S
Co239 N256 1.993 . S
Co239 O264 1.941 . S
C240 O241 1.258 . S
C240 O242 1.263 . S
O241 Co238 1.970 . S
O241 C240 1.258 . S
O242 Co239 1.966 . S
O242 C240 1.263 . S
C243 O244 1.235 . S
C243 O270 1.289 . S
O244 C243 1.235 . S
C245 C247 1.400 . S
C245 N248 1.351 . S
C245 C250 1.501 . S
C246 C247 1.387 . S
C246 N249 1.341 . S
C247 C245 1.400 . S
C247 C246 1.387 . S
N248 Co239 2.022 . S
N248 C245 1.351 . S
N248 N249 1.365 . S
N249 C246 1.341 . S
N249 N248 1.365 . S
N249 H269 0.862 . S
C250 C245 1.501 . S
C250 H251 0.961 . S
C250 H252 0.961 . S
C250 H253 0.960 . S
H251 C250 0.961 . S
H252 C250 0.961 . S
H253 C250 0.960 . S
C254 N255 1.342 . S
C254 C258 1.401 . S
C254 C259 1.499 . S
N255 Co238 1.989 . S
N255 C254 1.342 . S
N255 N256 1.388 . S
N256 Co239 1.993 . S
N256 N255 1.388 . S
N256 C257 1.346 . S
C257 N256 1.346 . S
C257 C258 1.396 . S
C257 C267 1.510 . S
C258 C254 1.401 . S
C258 C257 1.396 . S
C259 C254 1.499 . S
C259 H260 0.959 . S
C259 H261 0.960 . S
C259 H262 0.961 . S
H260 C259 0.959 . S
H261 C259 0.960 . S
H262 C259 0.961 . S
O263 Co238 1.967 . S
O263 C271 1.258 . S
O264 Co239 1.941 . S
O264 C271 1.266 . S
H265 C267 0.959 . S
H266 C267 0.961 . S
C267 C257 1.510 . S
C267 H265 0.959 . S
C267 H266 0.961 . S
C267 H268 0.960 . S
H268 C267 0.960 . S
H269 N249 0.862 . S
O270 Co238 1.920 . S
O270 C243 1.289 . S
C271 O263 1.258 . S
C271 O264 1.266 . S
Co272 O275 1.970 . S
Co272 N289 1.989 . S
Co272 O297 1.967 . S
Co272 O304 1.920 . S
Co273 O276 1.966 . S
Co273 N282 2.022 . S
Co273 N290 1.993 . S
Co273 O298 1.941 . S
C274 O275 1.258 . S
C274 O276 1.263 1_556 S
O275 Co272 1.970 . S
O275 C274 1.258 . S
O276 Co273 1.966 . S
O276 C274 1.263 1_554 S
C277 O278 1.235 . S
C277 O304 1.289 . S
O278 C277 1.235 . S
C279 C281 1.400 . S
C279 N282 1.351 . S
C279 C284 1.501 . S
C280 C281 1.387 . S
C280 N283 1.341 . S
C281 C279 1.400 . S
C281 C280 1.387 . S
N282 Co273 2.022 . S
N282 C279 1.351 . S
N282 N283 1.365 . S
N283 C280 1.341 . S
N283 N282 1.365 . S
N283 H303 0.862 . S
C284 C279 1.501 . S
C284 H285 0.961 . S
C284 H286 0.961 . S
C284 H287 0.960 . S
H285 C284 0.961 . S
H286 C284 0.961 . S
H287 C284 0.960 . S
C288 N289 1.342 . S
C288 C292 1.401 1_556 S
C288 C293 1.499 . S
N289 Co272 1.989 . S
N289 C288 1.342 . S
N289 N290 1.388 1_556 S
N290 Co273 1.993 . S
N290 N289 1.388 1_554 S
N290 C291 1.346 . S
C291 N290 1.346 . S
C291 C292 1.396 . S
C291 C301 1.510 . S
C292 C288 1.401 1_554 S
C292 C291 1.396 . S
C293 C288 1.499 . S
C293 H294 0.959 . S
C293 H295 0.960 . S
C293 H296 0.961 . S
H294 C293 0.959 . S
H295 C293 0.960 . S
H296 C293 0.961 . S
O297 Co272 1.967 . S
O297 C305 1.258 . S
O298 Co273 1.941 . S
O298 C305 1.266 1_554 S
H299 C301 0.959 . S
H300 C301 0.961 . S
C301 C291 1.510 . S
C301 H299 0.959 . S
C301 H300 0.961 . S
C301 H302 0.960 . S
H302 C301 0.960 . S
H303 N283 0.862 . S
O304 Co272 1.920 . S
O304 C277 1.289 . S
C305 O297 1.258 . S
C305 O298 1.266 1_556 S
Co306 O309 1.970 . S
Co306 N323 1.989 . S
Co306 O331 1.967 . S
Co306 O338 1.920 . S
Co307 O310 1.966 . S
Co307 N316 2.022 . S
Co307 N324 1.993 . S
Co307 O332 1.941 . S
C308 O309 1.258 . S
C308 O310 1.263 . S
O309 Co306 1.970 . S
O309 C308 1.258 . S
O310 Co307 1.966 . S
O310 C308 1.263 . S
C311 O312 1.235 . S
C311 O338 1.289 . S
O312 C311 1.235 . S
C313 C315 1.400 . S
C313 N316 1.351 . S
C313 C318 1.501 . S
C314 C315 1.387 . S
C314 N317 1.341 . S
C315 C313 1.400 . S
C315 C314 1.387 . S
N316 Co307 2.022 . S
N316 C313 1.351 . S
N316 N317 1.365 . S
N317 C314 1.341 . S
N317 N316 1.365 . S
N317 H337 0.862 . S
C318 C313 1.501 . S
C318 H319 0.961 . S
C318 H320 0.961 . S
C318 H321 0.960 . S
H319 C318 0.961 . S
H320 C318 0.961 . S
H321 C318 0.960 . S
C322 N323 1.342 . S
C322 C326 1.401 . S
C322 C327 1.499 . S
N323 Co306 1.989 . S
N323 C322 1.342 . S
N323 N324 1.388 . S
N324 Co307 1.993 . S
N324 N323 1.388 . S
N324 C325 1.346 . S
C325 N324 1.346 . S
C325 C326 1.396 . S
C325 C335 1.510 . S
C326 C322 1.401 . S
C326 C325 1.396 . S
C327 C322 1.499 . S
C327 H328 0.959 . S
C327 H329 0.960 . S
C327 H330 0.961 . S
H328 C327 0.959 . S
H329 C327 0.960 . S
H330 C327 0.961 . S
O331 Co306 1.967 . S
O331 C339 1.258 . S
O332 Co307 1.941 . S
O332 C339 1.266 . S
H333 C335 0.959 . S
H334 C335 0.961 . S
C335 C325 1.510 . S
C335 H333 0.959 . S
C335 H334 0.961 . S
C335 H336 0.960 . S
H336 C335 0.960 . S
H337 N317 0.862 . S
O338 Co306 1.920 . S
O338 C311 1.289 . S
C339 O331 1.258 . S
C339 O332 1.266 . S
Co340 O343 1.970 . S
Co340 N357 1.989 . S
Co340 O365 1.967 . S
Co340 O372 1.920 . S
Co341 O344 1.966 . S
Co341 N350 2.022 . S
Co341 N358 1.993 . S
Co341 O366 1.941 . S
C342 O343 1.258 . S
C342 O344 1.263 . S
O343 Co340 1.970 . S
O343 C342 1.258 . S
O344 Co341 1.966 . S
O344 C342 1.263 . S
C345 O346 1.235 . S
C345 O372 1.289 . S
O346 C345 1.235 . S
C347 C349 1.400 . S
C347 N350 1.351 . S
C347 C352 1.501 . S
C348 C349 1.387 . S
C348 N351 1.341 . S
C349 C347 1.400 . S
C349 C348 1.387 . S
N350 Co341 2.022 . S
N350 C347 1.351 . S
N350 N351 1.365 . S
N351 C348 1.341 . S
N351 N350 1.365 . S
N351 H371 0.862 . S
C352 C347 1.501 . S
C352 H353 0.961 . S
C352 H354 0.961 . S
C352 H355 0.960 . S
H353 C352 0.961 . S
H354 C352 0.961 . S
H355 C352 0.960 . S
C356 N357 1.342 . S
C356 C360 1.401 . S
C356 C361 1.499 . S
N357 Co340 1.989 . S
N357 C356 1.342 . S
N357 N358 1.388 . S
N358 Co341 1.993 . S
N358 N357 1.388 . S
N358 C359 1.346 . S
C359 N358 1.346 . S
C359 C360 1.396 . S
C359 C369 1.510 . S
C360 C356 1.401 . S
C360 C359 1.396 . S
C361 C356 1.499 . S
C361 H362 0.959 . S
C361 H363 0.960 . S
C361 H364 0.961 . S
H362 C361 0.959 . S
H363 C361 0.960 . S
H364 C361 0.961 . S
O365 Co340 1.967 . S
O365 C373 1.258 . S
O366 Co341 1.941 . S
O366 C373 1.266 . S
H367 C369 0.959 . S
H368 C369 0.961 . S
C369 C359 1.510 . S
C369 H367 0.959 . S
C369 H368 0.961 . S
C369 H370 0.960 . S
H370 C369 0.960 . S
H371 N351 0.862 . S
O372 Co340 1.920 . S
O372 C345 1.289 . S
C373 O365 1.258 . S
C373 O366 1.266 . S
Co374 O377 1.970 . S
Co374 N391 1.989 . S
Co374 O399 1.967 . S
Co374 O406 1.920 . S
Co375 O378 1.966 . S
Co375 N384 2.022 . S
Co375 N392 1.993 . S
Co375 O400 1.941 . S
C376 O377 1.258 . S
C376 O378 1.263 . S
O377 Co374 1.970 . S
O377 C376 1.258 . S
O378 Co375 1.966 . S
O378 C376 1.263 . S
C379 O380 1.235 . S
C379 O406 1.289 . S
O380 C379 1.235 . S
C381 C383 1.400 . S
C381 N384 1.351 . S
C381 C386 1.501 . S
C382 C383 1.387 . S
C382 N385 1.341 . S
C383 C381 1.400 . S
C383 C382 1.387 . S
N384 Co375 2.022 . S
N384 C381 1.351 . S
N384 N385 1.365 . S
N385 C382 1.341 . S
N385 N384 1.365 . S
N385 H405 0.862 . S
C386 C381 1.501 . S
C386 H387 0.961 . S
C386 H388 0.961 . S
C386 H389 0.960 . S
H387 C386 0.961 . S
H388 C386 0.961 . S
H389 C386 0.960 . S
C390 N391 1.342 . S
C390 C394 1.401 . S
C390 C395 1.499 . S
N391 Co374 1.989 . S
N391 C390 1.342 . S
N391 N392 1.388 . S
N392 Co375 1.993 . S
N392 N391 1.388 . S
N392 C393 1.346 . S
C393 N392 1.346 . S
C393 C394 1.396 . S
C393 C403 1.510 . S
C394 C390 1.401 . S
C394 C393 1.396 . S
C395 C390 1.499 . S
C395 H396 0.959 . S
C395 H397 0.960 . S
C395 H398 0.961 . S
H396 C395 0.959 . S
H397 C395 0.960 . S
H398 C395 0.961 . S
O399 Co374 1.967 . S
O399 C407 1.258 . S
O400 Co375 1.941 . S
O400 C407 1.266 . S
H401 C403 0.959 . S
H402 C403 0.961 . S
C403 C393 1.510 . S
C403 H401 0.959 . S
C403 H402 0.961 . S
C403 H404 0.960 . S
H404 C403 0.960 . S
H405 N385 0.862 . S
O406 Co374 1.920 . S
O406 C379 1.289 . S
C407 O399 1.258 . S
C407 O400 1.266 . S
Co408 O411 1.970 . S
Co408 N425 1.989 . S
Co408 O433 1.967 . S
Co408 O440 1.920 . S
Co409 O412 1.966 . S
Co409 N418 2.022 . S
Co409 N426 1.993 . S
Co409 O434 1.941 . S
C410 O411 1.258 . S
C410 O412 1.263 1_554 S
O411 Co408 1.970 . S
O411 C410 1.258 . S
O412 Co409 1.966 . S
O412 C410 1.263 1_556 S
C413 O414 1.235 . S
C413 O440 1.289 . S
O414 C413 1.235 . S
C415 C417 1.400 . S
C415 N418 1.351 . S
C415 C420 1.501 . S
C416 C417 1.387 . S
C416 N419 1.341 . S
C417 C415 1.400 . S
C417 C416 1.387 . S
N418 Co409 2.022 . S
N418 C415 1.351 . S
N418 N419 1.365 . S
N419 C416 1.341 . S
N419 N418 1.365 . S
N419 H439 0.862 . S
C420 C415 1.501 . S
C420 H421 0.961 . S
C420 H422 0.961 . S
C420 H423 0.960 . S
H421 C420 0.961 . S
H422 C420 0.961 . S
H423 C420 0.960 . S
C424 N425 1.342 . S
C424 C428 1.401 1_554 S
C424 C429 1.499 . S
N425 Co408 1.989 . S
N425 C424 1.342 . S
N425 N426 1.388 1_554 S
N426 Co409 1.993 . S
N426 N425 1.388 1_556 S
N426 C427 1.346 . S
C427 N426 1.346 . S
C427 C428 1.396 . S
C427 C437 1.510 . S
C428 C424 1.401 1_556 S
C428 C427 1.396 . S
C429 C424 1.499 . S
C429 H430 0.959 . S
C429 H431 0.960 . S
C429 H432 0.961 . S
H430 C429 0.959 . S
H431 C429 0.960 . S
H432 C429 0.961 . S
O433 Co408 1.967 . S
O433 C441 1.258 . S
O434 Co409 1.941 . S
O434 C441 1.266 1_556 S
H435 C437 0.959 . S
H436 C437 0.961 . S
C437 C427 1.510 . S
C437 H435 0.959 . S
C437 H436 0.961 . S
C437 H438 0.960 . S
H438 C437 0.960 . S
H439 N419 0.862 . S
O440 Co408 1.920 . S
O440 C413 1.289 . S
C441 O433 1.258 . S
C441 O434 1.266 1_554 S
Co442 O445 1.970 . S
Co442 N459 1.989 . S
Co442 O467 1.967 . S
Co442 O474 1.920 . S
Co443 O446 1.966 . S
Co443 N452 2.022 . S
Co443 N460 1.993 . S
Co443 O468 1.941 . S
C444 O445 1.258 . S
C444 O446 1.263 . S
O445 Co442 1.970 . S
O445 C444 1.258 . S
O446 Co443 1.966 . S
O446 C444 1.263 . S
C447 O448 1.235 . S
C447 O474 1.289 . S
O448 C447 1.235 . S
C449 C451 1.400 . S
C449 N452 1.351 . S
C449 C454 1.501 . S
C450 C451 1.387 . S
C450 N453 1.341 . S
C451 C449 1.400 . S
C451 C450 1.387 . S
N452 Co443 2.022 . S
N452 C449 1.351 . S
N452 N453 1.365 . S
N453 C450 1.341 . S
N453 N452 1.365 . S
N453 H473 0.862 . S
C454 C449 1.501 . S
C454 H455 0.961 . S
C454 H456 0.961 . S
C454 H457 0.960 . S
H455 C454 0.961 . S
H456 C454 0.961 . S
H457 C454 0.960 . S
C458 N459 1.342 . S
C458 C462 1.401 . S
C458 C463 1.499 . S
N459 Co442 1.989 . S
N459 C458 1.342 . S
N459 N460 1.388 . S
N460 Co443 1.993 . S
N460 N459 1.388 . S
N460 C461 1.346 . S
C461 N460 1.346 . S
C461 C462 1.396 . S
C461 C471 1.510 . S
C462 C458 1.401 . S
C462 C461 1.396 . S
C463 C458 1.499 . S
C463 H464 0.959 . S
C463 H465 0.960 . S
C463 H466 0.961 . S
H464 C463 0.959 . S
H465 C463 0.960 . S
H466 C463 0.961 . S
O467 Co442 1.967 . S
O467 C475 1.258 . S
O468 Co443 1.941 . S
O468 C475 1.266 . S
H469 C471 0.959 . S
H470 C471 0.961 . S
C471 C461 1.510 . S
C471 H469 0.959 . S
C471 H470 0.961 . S
C471 H472 0.960 . S
H472 C471 0.960 . S
H473 N453 0.862 . S
O474 Co442 1.920 . S
O474 C447 1.289 . S
C475 O467 1.258 . S
C475 O468 1.266 . S
Co476 O479 1.970 . S
Co476 N493 1.989 . S
Co476 O501 1.967 . S
Co476 O508 1.920 . S
Co477 O480 1.966 . S
Co477 N486 2.022 . S
Co477 N494 1.993 . S
Co477 O502 1.941 . S
C478 O479 1.258 . S
C478 O480 1.263 . S
O479 Co476 1.970 . S
O479 C478 1.258 . S
O480 Co477 1.966 . S
O480 C478 1.263 . S
C481 O482 1.235 . S
C481 O508 1.289 . S
O482 C481 1.235 . S
C483 C485 1.400 . S
C483 N486 1.351 . S
C483 C488 1.501 . S
C484 C485 1.387 . S
C484 N487 1.341 . S
C485 C483 1.400 . S
C485 C484 1.387 . S
N486 Co477 2.022 . S
N486 C483 1.351 . S
N486 N487 1.365 . S
N487 C484 1.341 . S
N487 N486 1.365 . S
N487 H507 0.862 . S
C488 C483 1.501 . S
C488 H489 0.961 . S
C488 H490 0.961 . S
C488 H491 0.960 . S
H489 C488 0.961 . S
H490 C488 0.961 . S
H491 C488 0.960 . S
C492 N493 1.342 . S
C492 C496 1.401 . S
C492 C497 1.499 . S
N493 Co476 1.989 . S
N493 C492 1.342 . S
N493 N494 1.388 . S
N494 Co477 1.993 . S
N494 N493 1.388 . S
N494 C495 1.346 . S
C495 N494 1.346 . S
C495 C496 1.396 . S
C495 C505 1.510 . S
C496 C492 1.401 . S
C496 C495 1.396 . S
C497 C492 1.499 . S
C497 H498 0.959 . S
C497 H499 0.960 . S
C497 H500 0.961 . S
H498 C497 0.959 . S
H499 C497 0.960 . S
H500 C497 0.961 . S
O501 Co476 1.967 . S
O501 C509 1.258 . S
O502 Co477 1.941 . S
O502 C509 1.266 . S
H503 C505 0.959 . S
H504 C505 0.961 . S
C505 C495 1.510 . S
C505 H503 0.959 . S
C505 H504 0.961 . S
C505 H506 0.960 . S
H506 C505 0.960 . S
H507 N487 0.862 . S
O508 Co476 1.920 . S
O508 C481 1.289 . S
C509 O501 1.258 . S
C509 O502 1.266 . S
Co510 O513 1.970 . S
Co510 N527 1.989 . S
Co510 O535 1.967 . S
Co510 O542 1.920 . S
Co511 O514 1.966 . S
Co511 N520 2.022 . S
Co511 N528 1.993 . S
Co511 O536 1.941 . S
C512 O513 1.258 . S
C512 O514 1.263 . S
O513 Co510 1.970 . S
O513 C512 1.258 . S
O514 Co511 1.966 . S
O514 C512 1.263 . S
C515 O516 1.235 . S
C515 O542 1.289 . S
O516 C515 1.235 . S
C517 C519 1.400 . S
C517 N520 1.351 . S
C517 C522 1.501 . S
C518 C519 1.387 . S
C518 N521 1.341 . S
C519 C517 1.400 . S
C519 C518 1.387 . S
N520 Co511 2.022 . S
N520 C517 1.351 . S
N520 N521 1.365 . S
N521 C518 1.341 . S
N521 N520 1.365 . S
N521 H541 0.862 . S
C522 C517 1.501 . S
C522 H523 0.961 . S
C522 H524 0.961 . S
C522 H525 0.960 . S
H523 C522 0.961 . S
H524 C522 0.961 . S
H525 C522 0.960 . S
C526 N527 1.342 . S
C526 C530 1.401 . S
C526 C531 1.499 . S
N527 Co510 1.989 . S
N527 C526 1.342 . S
N527 N528 1.388 . S
N528 Co511 1.993 . S
N528 N527 1.388 . S
N528 C529 1.346 . S
C529 N528 1.346 . S
C529 C530 1.396 . S
C529 C539 1.510 . S
C530 C526 1.401 . S
C530 C529 1.396 . S
C531 C526 1.499 . S
C531 H532 0.959 . S
C531 H533 0.960 . S
C531 H534 0.961 . S
H532 C531 0.959 . S
H533 C531 0.960 . S
H534 C531 0.961 . S
O535 Co510 1.967 . S
O535 C543 1.258 . S
O536 Co511 1.941 . S
O536 C543 1.266 . S
H537 C539 0.959 . S
H538 C539 0.961 . S
C539 C529 1.510 . S
C539 H537 0.959 . S
C539 H538 0.961 . S
C539 H540 0.960 . S
H540 C539 0.960 . S
H541 N521 0.862 . S
O542 Co510 1.920 . S
O542 C515 1.289 . S
C543 O535 1.258 . S
C543 O536 1.266 . S
Co544 O547 1.970 . S
Co544 N561 1.989 . S
Co544 O569 1.967 . S
Co544 O576 1.920 . S
Co545 O548 1.966 . S
Co545 N554 2.022 . S
Co545 N562 1.993 . S
Co545 O570 1.941 . S
C546 O547 1.258 . S
C546 O548 1.263 . S
O547 Co544 1.970 . S
O547 C546 1.258 . S
O548 Co545 1.966 . S
O548 C546 1.263 . S
C549 O550 1.235 . S
C549 O576 1.289 . S
O550 C549 1.235 . S
C551 C553 1.400 . S
C551 N554 1.351 . S
C551 C556 1.501 . S
C552 C553 1.387 . S
C552 N555 1.341 . S
C553 C551 1.400 . S
C553 C552 1.387 . S
N554 Co545 2.022 . S
N554 C551 1.351 . S
N554 N555 1.365 . S
N555 C552 1.341 . S
N555 N554 1.365 . S
N555 H575 0.862 . S
C556 C551 1.501 . S
C556 H557 0.961 . S
C556 H558 0.961 . S
C556 H559 0.960 . S
H557 C556 0.961 . S
H558 C556 0.961 . S
H559 C556 0.960 . S
C560 N561 1.342 . S
C560 C564 1.401 . S
C560 C565 1.499 . S
N561 Co544 1.989 . S
N561 C560 1.342 . S
N561 N562 1.388 . S
N562 Co545 1.993 . S
N562 N561 1.388 . S
N562 C563 1.346 . S
C563 N562 1.346 . S
C563 C564 1.396 . S
C563 C573 1.510 . S
C564 C560 1.401 . S
C564 C563 1.396 . S
C565 C560 1.499 . S
C565 H566 0.959 . S
C565 H567 0.960 . S
C565 H568 0.961 . S
H566 C565 0.959 . S
H567 C565 0.960 . S
H568 C565 0.961 . S
O569 Co544 1.967 . S
O569 C577 1.258 . S
O570 Co545 1.941 . S
O570 C577 1.266 . S
H571 C573 0.959 . S
H572 C573 0.961 . S
C573 C563 1.510 . S
C573 H571 0.959 . S
C573 H572 0.961 . S
C573 H574 0.960 . S
H574 C573 0.960 . S
H575 N555 0.862 . S
O576 Co544 1.920 . S
O576 C549 1.289 . S
C577 O569 1.258 . S
C577 O570 1.266 . S
Co578 O581 1.970 . S
Co578 N595 1.989 . S
Co578 O603 1.967 . S
Co578 O610 1.920 . S
Co579 O582 1.966 . S
Co579 N588 2.022 . S
Co579 N596 1.993 . S
Co579 O604 1.941 . S
C580 O581 1.258 . S
C580 O582 1.263 . S
O581 Co578 1.970 . S
O581 C580 1.258 . S
O582 Co579 1.966 . S
O582 C580 1.263 . S
C583 O584 1.235 . S
C583 O610 1.289 . S
O584 C583 1.235 . S
C585 C587 1.400 . S
C585 N588 1.351 . S
C585 C590 1.501 . S
C586 C587 1.387 . S
C586 N589 1.341 . S
C587 C585 1.400 . S
C587 C586 1.387 . S
N588 Co579 2.022 . S
N588 C585 1.351 . S
N588 N589 1.365 . S
N589 C586 1.341 . S
N589 N588 1.365 . S
N589 H609 0.862 . S
C590 C585 1.501 . S
C590 H591 0.961 . S
C590 H592 0.961 . S
C590 H593 0.960 . S
H591 C590 0.961 . S
H592 C590 0.961 . S
H593 C590 0.960 . S
C594 N595 1.342 . S
C594 C598 1.401 . S
C594 C599 1.499 . S
N595 Co578 1.989 . S
N595 C594 1.342 . S
N595 N596 1.388 . S
N596 Co579 1.993 . S
N596 N595 1.388 . S
N596 C597 1.346 . S
C597 N596 1.346 . S
C597 C598 1.396 . S
C597 C607 1.510 . S
C598 C594 1.401 . S
C598 C597 1.396 . S
C599 C594 1.499 . S
C599 H600 0.959 . S
C599 H601 0.960 . S
C599 H602 0.961 . S
H600 C599 0.959 . S
H601 C599 0.960 . S
H602 C599 0.961 . S
O603 Co578 1.967 . S
O603 C611 1.258 . S
O604 Co579 1.941 . S
O604 C611 1.266 . S
H605 C607 0.959 . S
H606 C607 0.961 . S
C607 C597 1.510 . S
C607 H605 0.959 . S
C607 H606 0.961 . S
C607 H608 0.960 . S
H608 C607 0.960 . S
H609 N589 0.862 . S
O610 Co578 1.920 . S
O610 C583 1.289 . S
C611 O603 1.258 . S
C611 O604 1.266 . S
Co612 O615 1.970 . S
Co612 N629 1.989 . S
Co612 O637 1.967 . S
Co612 O644 1.920 . S
Co613 O616 1.966 . S
Co613 N622 2.022 . S
Co613 N630 1.993 . S
Co613 O638 1.941 . S
C614 O615 1.258 . S
C614 O616 1.263 1_554 S
O615 Co612 1.970 . S
O615 C614 1.258 . S
O616 Co613 1.966 . S
O616 C614 1.263 1_556 S
C617 O618 1.235 . S
C617 O644 1.289 . S
O618 C617 1.235 . S
C619 C621 1.400 . S
C619 N622 1.351 . S
C619 C624 1.501 . S
C620 C621 1.387 . S
C620 N623 1.341 . S
C621 C619 1.400 . S
C621 C620 1.387 . S
N622 Co613 2.022 . S
N622 C619 1.351 . S
N622 N623 1.365 . S
N623 C620 1.341 . S
N623 N622 1.365 . S
N623 H643 0.862 . S
C624 C619 1.501 . S
C624 H625 0.961 . S
C624 H626 0.961 . S
C624 H627 0.960 . S
H625 C624 0.961 . S
H626 C624 0.961 . S
H627 C624 0.960 . S
C628 N629 1.342 . S
C628 C632 1.401 1_554 S
C628 C633 1.499 . S
N629 Co612 1.989 . S
N629 C628 1.342 . S
N629 N630 1.388 1_554 S
N630 Co613 1.993 . S
N630 N629 1.388 1_556 S
N630 C631 1.346 . S
C631 N630 1.346 . S
C631 C632 1.396 . S
C631 C641 1.510 . S
C632 C628 1.401 1_556 S
C632 C631 1.396 . S
C633 C628 1.499 . S
C633 H634 0.959 . S
C633 H635 0.960 . S
C633 H636 0.961 . S
H634 C633 0.959 . S
H635 C633 0.960 . S
H636 C633 0.961 . S
O637 Co612 1.967 . S
O637 C645 1.258 . S
O638 Co613 1.941 . S
O638 C645 1.266 1_556 S
H639 C641 0.959 . S
H640 C641 0.961 . S
C641 C631 1.510 . S
C641 H639 0.959 . S
C641 H640 0.961 . S
C641 H642 0.960 . S
H642 C641 0.960 . S
H643 N623 0.862 . S
O644 Co612 1.920 . S
O644 C617 1.289 . S
C645 O637 1.258 . S
C645 O638 1.266 1_554 S
Co646 O649 1.970 . S
Co646 N663 1.989 . S
Co646 O671 1.967 . S
Co646 O678 1.920 . S
Co647 O650 1.966 . S
Co647 N656 2.022 . S
Co647 N664 1.993 . S
Co647 O672 1.941 . S
C648 O649 1.258 . S
C648 O650 1.263 . S
O649 Co646 1.970 . S
O649 C648 1.258 . S
O650 Co647 1.966 . S
O650 C648 1.263 . S
C651 O652 1.235 . S
C651 O678 1.289 . S
O652 C651 1.235 . S
C653 C655 1.400 . S
C653 N656 1.351 . S
C653 C658 1.501 . S
C654 C655 1.387 . S
C654 N657 1.341 . S
C655 C653 1.400 . S
C655 C654 1.387 . S
N656 Co647 2.022 . S
N656 C653 1.351 . S
N656 N657 1.365 . S
N657 C654 1.341 . S
N657 N656 1.365 . S
N657 H677 0.862 . S
C658 C653 1.501 . S
C658 H659 0.961 . S
C658 H660 0.961 . S
C658 H661 0.960 . S
H659 C658 0.961 . S
H660 C658 0.961 . S
H661 C658 0.960 . S
C662 N663 1.342 . S
C662 C666 1.401 . S
C662 C667 1.499 . S
N663 Co646 1.989 . S
N663 C662 1.342 . S
N663 N664 1.388 . S
N664 Co647 1.993 . S
N664 N663 1.388 . S
N664 C665 1.346 . S
C665 N664 1.346 . S
C665 C666 1.396 . S
C665 C675 1.510 . S
C666 C662 1.401 . S
C666 C665 1.396 . S
C667 C662 1.499 . S
C667 H668 0.959 . S
C667 H669 0.960 . S
C667 H670 0.961 . S
H668 C667 0.959 . S
H669 C667 0.960 . S
H670 C667 0.961 . S
O671 Co646 1.967 . S
O671 C679 1.258 . S
O672 Co647 1.941 . S
O672 C679 1.266 . S
H673 C675 0.959 . S
H674 C675 0.961 . S
C675 C665 1.510 . S
C675 H673 0.959 . S
C675 H674 0.961 . S
C675 H676 0.960 . S
H676 C675 0.960 . S
H677 N657 0.862 . S
O678 Co646 1.920 . S
O678 C651 1.289 . S
C679 O671 1.258 . S
C679 O672 1.266 . S
Co680 O683 1.970 . S
Co680 N697 1.989 . S
Co680 O705 1.967 . S
Co680 O712 1.920 . S
Co681 O684 1.966 . S
Co681 N690 2.022 . S
Co681 N698 1.993 . S
Co681 O706 1.941 . S
C682 O683 1.258 . S
C682 O684 1.263 . S
O683 Co680 1.970 . S
O683 C682 1.258 . S
O684 Co681 1.966 . S
O684 C682 1.263 . S
C685 O686 1.235 . S
C685 O712 1.289 . S
O686 C685 1.235 . S
C687 C689 1.400 . S
C687 N690 1.351 . S
C687 C692 1.501 . S
C688 C689 1.387 . S
C688 N691 1.341 . S
C689 C687 1.400 . S
C689 C688 1.387 . S
N690 Co681 2.022 . S
N690 C687 1.351 . S
N690 N691 1.365 . S
N691 C688 1.341 . S
N691 N690 1.365 . S
N691 H711 0.862 . S
C692 C687 1.501 . S
C692 H693 0.961 . S
C692 H694 0.961 . S
C692 H695 0.960 . S
H693 C692 0.961 . S
H694 C692 0.961 . S
H695 C692 0.960 . S
C696 N697 1.342 . S
C696 C700 1.401 . S
C696 C701 1.499 . S
N697 Co680 1.989 . S
N697 C696 1.342 . S
N697 N698 1.388 . S
N698 Co681 1.993 . S
N698 N697 1.388 . S
N698 C699 1.346 . S
C699 N698 1.346 . S
C699 C700 1.396 . S
C699 C709 1.510 . S
C700 C696 1.401 . S
C700 C699 1.396 . S
C701 C696 1.499 . S
C701 H702 0.959 . S
C701 H703 0.960 . S
C701 H704 0.961 . S
H702 C701 0.959 . S
H703 C701 0.960 . S
H704 C701 0.961 . S
O705 Co680 1.967 . S
O705 C713 1.258 . S
O706 Co681 1.941 . S
O706 C713 1.266 . S
H707 C709 0.959 . S
H708 C709 0.961 . S
C709 C699 1.510 . S
C709 H707 0.959 . S
C709 H708 0.961 . S
C709 H710 0.960 . S
H710 C709 0.960 . S
H711 N691 0.862 . S
O712 Co680 1.920 . S
O712 C685 1.289 . S
C713 O705 1.258 . S
C713 O706 1.266 . S
Co714 O717 1.970 . S
Co714 N731 1.989 . S
Co714 O739 1.967 . S
Co714 O746 1.920 . S
Co715 O718 1.966 . S
Co715 N724 2.022 . S
Co715 N732 1.993 . S
Co715 O740 1.941 . S
C716 O717 1.258 . S
C716 O718 1.263 . S
O717 Co714 1.970 . S
O717 C716 1.258 . S
O718 Co715 1.966 . S
O718 C716 1.263 . S
C719 O720 1.235 . S
C719 O746 1.289 . S
O720 C719 1.235 . S
C721 C723 1.400 . S
C721 N724 1.351 . S
C721 C726 1.501 . S
C722 C723 1.387 . S
C722 N725 1.341 . S
C723 C721 1.400 . S
C723 C722 1.387 . S
N724 Co715 2.022 . S
N724 C721 1.351 . S
N724 N725 1.365 . S
N725 C722 1.341 . S
N725 N724 1.365 . S
N725 H745 0.862 . S
C726 C721 1.501 . S
C726 H727 0.961 . S
C726 H728 0.961 . S
C726 H729 0.960 . S
H727 C726 0.961 . S
H728 C726 0.961 . S
H729 C726 0.960 . S
C730 N731 1.342 . S
C730 C734 1.401 . S
C730 C735 1.499 . S
N731 Co714 1.989 . S
N731 C730 1.342 . S
N731 N732 1.388 . S
N732 Co715 1.993 . S
N732 N731 1.388 . S
N732 C733 1.346 . S
C733 N732 1.346 . S
C733 C734 1.396 . S
C733 C743 1.510 . S
C734 C730 1.401 . S
C734 C733 1.396 . S
C735 C730 1.499 . S
C735 H736 0.959 . S
C735 H737 0.960 . S
C735 H738 0.961 . S
H736 C735 0.959 . S
H737 C735 0.960 . S
H738 C735 0.961 . S
O739 Co714 1.967 . S
O739 C747 1.258 . S
O740 Co715 1.941 . S
O740 C747 1.266 . S
H741 C743 0.959 . S
H742 C743 0.961 . S
C743 C733 1.510 . S
C743 H741 0.959 . S
C743 H742 0.961 . S
C743 H744 0.960 . S
H744 C743 0.960 . S
H745 N725 0.862 . S
O746 Co714 1.920 . S
O746 C719 1.289 . S
C747 O739 1.258 . S
C747 O740 1.266 . S
Co748 O751 1.970 . S
Co748 N765 1.989 . S
Co748 O773 1.967 . S
Co748 O780 1.920 . S
Co749 O752 1.966 . S
Co749 N758 2.022 . S
Co749 N766 1.993 . S
Co749 O774 1.941 . S
C750 O751 1.258 . S
C750 O752 1.263 1_556 S
O751 Co748 1.970 . S
O751 C750 1.258 . S
O752 Co749 1.966 . S
O752 C750 1.263 1_554 S
C753 O754 1.235 . S
C753 O780 1.289 . S
O754 C753 1.235 . S
C755 C757 1.400 . S
C755 N758 1.351 . S
C755 C760 1.501 . S
C756 C757 1.387 . S
C756 N759 1.341 . S
C757 C755 1.400 . S
C757 C756 1.387 . S
N758 Co749 2.022 . S
N758 C755 1.351 . S
N758 N759 1.365 . S
N759 C756 1.341 . S
N759 N758 1.365 . S
N759 H779 0.862 . S
C760 C755 1.501 . S
C760 H761 0.961 . S
C760 H762 0.961 . S
C760 H763 0.960 . S
H761 C760 0.961 . S
H762 C760 0.961 . S
H763 C760 0.960 . S
C764 N765 1.342 . S
C764 C768 1.401 1_556 S
C764 C769 1.499 . S
N765 Co748 1.989 . S
N765 C764 1.342 . S
N765 N766 1.388 1_556 S
N766 Co749 1.993 . S
N766 N765 1.388 1_554 S
N766 C767 1.346 . S
C767 N766 1.346 . S
C767 C768 1.396 . S
C767 C777 1.510 . S
C768 C764 1.401 1_554 S
C768 C767 1.396 . S
C769 C764 1.499 . S
C769 H770 0.959 . S
C769 H771 0.960 . S
C769 H772 0.961 . S
H770 C769 0.959 . S
H771 C769 0.960 . S
H772 C769 0.961 . S
O773 Co748 1.967 . S
O773 C781 1.258 . S
O774 Co749 1.941 . S
O774 C781 1.266 1_554 S
H775 C777 0.959 . S
H776 C777 0.961 . S
C777 C767 1.510 . S
C777 H775 0.959 . S
C777 H776 0.961 . S
C777 H778 0.960 . S
H778 C777 0.960 . S
H779 N759 0.862 . S
O780 Co748 1.920 . S
O780 C753 1.289 . S
C781 O773 1.258 . S
C781 O774 1.266 1_556 S
Co782 O785 1.970 . S
Co782 N799 1.989 . S
Co782 O807 1.967 . S
Co782 O814 1.920 . S
Co783 O786 1.966 . S
Co783 N792 2.022 . S
Co783 N800 1.993 . S
Co783 O808 1.941 . S
C784 O785 1.258 . S
C784 O786 1.263 . S
O785 Co782 1.970 . S
O785 C784 1.258 . S
O786 Co783 1.966 . S
O786 C784 1.263 . S
C787 O788 1.235 . S
C787 O814 1.289 . S
O788 C787 1.235 . S
C789 C791 1.400 . S
C789 N792 1.351 . S
C789 C794 1.501 . S
C790 C791 1.387 . S
C790 N793 1.341 . S
C791 C789 1.400 . S
C791 C790 1.387 . S
N792 Co783 2.022 . S
N792 C789 1.351 . S
N792 N793 1.365 . S
N793 C790 1.341 . S
N793 N792 1.365 . S
N793 H813 0.862 . S
C794 C789 1.501 . S
C794 H795 0.961 . S
C794 H796 0.961 . S
C794 H797 0.960 . S
H795 C794 0.961 . S
H796 C794 0.961 . S
H797 C794 0.960 . S
C798 N799 1.342 . S
C798 C802 1.401 . S
C798 C803 1.499 . S
N799 Co782 1.989 . S
N799 C798 1.342 . S
N799 N800 1.388 . S
N800 Co783 1.993 . S
N800 N799 1.388 . S
N800 C801 1.346 . S
C801 N800 1.346 . S
C801 C802 1.396 . S
C801 C811 1.510 . S
C802 C798 1.401 . S
C802 C801 1.396 . S
C803 C798 1.499 . S
C803 H804 0.959 . S
C803 H805 0.960 . S
C803 H806 0.961 . S
H804 C803 0.959 . S
H805 C803 0.960 . S
H806 C803 0.961 . S
O807 Co782 1.967 . S
O807 C815 1.258 . S
O808 Co783 1.941 . S
O808 C815 1.266 . S
H809 C811 0.959 . S
H810 C811 0.961 . S
C811 C801 1.510 . S
C811 H809 0.959 . S
C811 H810 0.961 . S
C811 H812 0.960 . S
H812 C811 0.960 . S
H813 N793 0.862 . S
O814 Co782 1.920 . S
O814 C787 1.289 . S
C815 O807 1.258 . S
C815 O808 1.266 . S
Co816 O819 1.970 . S
Co816 N833 1.989 . S
Co816 O841 1.967 . S
Co816 O848 1.920 . S
Co817 O820 1.966 . S
Co817 N826 2.022 . S
Co817 N834 1.993 . S
Co817 O842 1.941 . S
C818 O819 1.258 . S
C818 O820 1.263 . S
O819 Co816 1.970 . S
O819 C818 1.258 . S
O820 Co817 1.966 . S
O820 C818 1.263 . S
C821 O822 1.235 . S
C821 O848 1.289 . S
O822 C821 1.235 . S
C823 C825 1.400 . S
C823 N826 1.351 . S
C823 C828 1.501 . S
C824 C825 1.387 . S
C824 N827 1.341 . S
C825 C823 1.400 . S
C825 C824 1.387 . S
N826 Co817 2.022 . S
N826 C823 1.351 . S
N826 N827 1.365 . S
N827 C824 1.341 . S
N827 N826 1.365 . S
N827 H847 0.862 . S
C828 C823 1.501 . S
C828 H829 0.961 . S
C828 H830 0.961 . S
C828 H831 0.960 . S
H829 C828 0.961 . S
H830 C828 0.961 . S
H831 C828 0.960 . S
C832 N833 1.342 . S
C832 C836 1.401 . S
C832 C837 1.499 . S
N833 Co816 1.989 . S
N833 C832 1.342 . S
N833 N834 1.388 . S
N834 Co817 1.993 . S
N834 N833 1.388 . S
N834 C835 1.346 . S
C835 N834 1.346 . S
C835 C836 1.396 . S
C835 C845 1.510 . S
C836 C832 1.401 . S
C836 C835 1.396 . S
C837 C832 1.499 . S
C837 H838 0.959 . S
C837 H839 0.960 . S
C837 H840 0.961 . S
H838 C837 0.959 . S
H839 C837 0.960 . S
H840 C837 0.961 . S
O841 Co816 1.967 . S
O841 C849 1.258 . S
O842 Co817 1.941 . S
O842 C849 1.266 . S
H843 C845 0.959 . S
H844 C845 0.961 . S
C845 C835 1.510 . S
C845 H843 0.959 . S
C845 H844 0.961 . S
C845 H846 0.960 . S
H846 C845 0.960 . S
H847 N827 0.862 . S
O848 Co816 1.920 . S
O848 C821 1.289 . S
C849 O841 1.258 . S
C849 O842 1.266 . S
Co850 O853 1.970 . S
Co850 N867 1.989 . S
Co850 O875 1.967 . S
Co850 O882 1.920 . S
Co851 O854 1.966 . S
Co851 N860 2.022 . S
Co851 N868 1.993 . S
Co851 O876 1.941 . S
C852 O853 1.258 . S
C852 O854 1.263 . S
O853 Co850 1.970 . S
O853 C852 1.258 . S
O854 Co851 1.966 . S
O854 C852 1.263 . S
C855 O856 1.235 . S
C855 O882 1.289 . S
O856 C855 1.235 . S
C857 C859 1.400 . S
C857 N860 1.351 . S
C857 C862 1.501 . S
C858 C859 1.387 . S
C858 N861 1.341 . S
C859 C857 1.400 . S
C859 C858 1.387 . S
N860 Co851 2.022 . S
N860 C857 1.351 . S
N860 N861 1.365 . S
N861 C858 1.341 . S
N861 N860 1.365 . S
N861 H881 0.862 . S
C862 C857 1.501 . S
C862 H863 0.961 . S
C862 H864 0.961 . S
C862 H865 0.960 . S
H863 C862 0.961 . S
H864 C862 0.961 . S
H865 C862 0.960 . S
C866 N867 1.342 . S
C866 C870 1.401 . S
C866 C871 1.499 . S
N867 Co850 1.989 . S
N867 C866 1.342 . S
N867 N868 1.388 . S
N868 Co851 1.993 . S
N868 N867 1.388 . S
N868 C869 1.346 . S
C869 N868 1.346 . S
C869 C870 1.396 . S
C869 C879 1.510 . S
C870 C866 1.401 . S
C870 C869 1.396 . S
C871 C866 1.499 . S
C871 H872 0.959 . S
C871 H873 0.960 . S
C871 H874 0.961 . S
H872 C871 0.959 . S
H873 C871 0.960 . S
H874 C871 0.961 . S
O875 Co850 1.967 . S
O875 C883 1.258 . S
O876 Co851 1.941 . S
O876 C883 1.266 . S
H877 C879 0.959 . S
H878 C879 0.961 . S
C879 C869 1.510 . S
C879 H877 0.959 . S
C879 H878 0.961 . S
C879 H880 0.960 . S
H880 C879 0.960 . S
H881 N861 0.862 . S
O882 Co850 1.920 . S
O882 C855 1.289 . S
C883 O875 1.258 . S
C883 O876 1.266 . S
Co884 O887 1.970 . S
Co884 N901 1.989 . S
Co884 O909 1.967 . S
Co884 O916 1.920 . S
Co885 O888 1.966 . S
Co885 N894 2.022 . S
Co885 N902 1.993 . S
Co885 O910 1.941 . S
C886 O887 1.258 . S
C886 O888 1.263 1_556 S
O887 Co884 1.970 . S
O887 C886 1.258 . S
O888 Co885 1.966 . S
O888 C886 1.263 1_554 S
C889 O890 1.235 . S
C889 O916 1.289 . S
O890 C889 1.235 . S
C891 C893 1.400 . S
C891 N894 1.351 . S
C891 C896 1.501 . S
C892 C893 1.387 . S
C892 N895 1.341 . S
C893 C891 1.400 . S
C893 C892 1.387 . S
N894 Co885 2.022 . S
N894 C891 1.351 . S
N894 N895 1.365 . S
N895 C892 1.341 . S
N895 N894 1.365 . S
N895 H915 0.862 . S
C896 C891 1.501 . S
C896 H897 0.961 . S
C896 H898 0.961 . S
C896 H899 0.960 . S
H897 C896 0.961 . S
H898 C896 0.961 . S
H899 C896 0.960 . S
C900 N901 1.342 . S
C900 C904 1.401 1_556 S
C900 C905 1.499 . S
N901 Co884 1.989 . S
N901 C900 1.342 . S
N901 N902 1.388 1_556 S
N902 Co885 1.993 . S
N902 N901 1.388 1_554 S
N902 C903 1.346 . S
C903 N902 1.346 . S
C903 C904 1.396 . S
C903 C913 1.510 . S
C904 C900 1.401 1_554 S
C904 C903 1.396 . S
C905 C900 1.499 . S
C905 H906 0.959 . S
C905 H907 0.960 . S
C905 H908 0.961 . S
H906 C905 0.959 . S
H907 C905 0.960 . S
H908 C905 0.961 . S
O909 Co884 1.967 . S
O909 C917 1.258 . S
O910 Co885 1.941 . S
O910 C917 1.266 1_554 S
H911 C913 0.959 . S
H912 C913 0.961 . S
C913 C903 1.510 . S
C913 H911 0.959 . S
C913 H912 0.961 . S
C913 H914 0.960 . S
H914 C913 0.960 . S
H915 N895 0.862 . S
O916 Co884 1.920 . S
O916 C889 1.289 . S
C917 O909 1.258 . S
C917 O910 1.266 1_556 S
Co918 O921 1.970 . S
Co918 N935 1.989 . S
Co918 O943 1.967 . S
Co918 O950 1.920 . S
Co919 O922 1.966 . S
Co919 N928 2.022 . S
Co919 N936 1.993 . S
Co919 O944 1.941 . S
C920 O921 1.258 . S
C920 O922 1.263 . S
O921 Co918 1.970 . S
O921 C920 1.258 . S
O922 Co919 1.966 . S
O922 C920 1.263 . S
C923 O924 1.235 . S
C923 O950 1.289 . S
O924 C923 1.235 . S
C925 C927 1.400 . S
C925 N928 1.351 . S
C925 C930 1.501 . S
C926 C927 1.387 . S
C926 N929 1.341 . S
C927 C925 1.400 . S
C927 C926 1.387 . S
N928 Co919 2.022 . S
N928 C925 1.351 . S
N928 N929 1.365 . S
N929 C926 1.341 . S
N929 N928 1.365 . S
N929 H949 0.862 . S
C930 C925 1.501 . S
C930 H931 0.961 . S
C930 H932 0.961 . S
C930 H933 0.960 . S
H931 C930 0.961 . S
H932 C930 0.961 . S
H933 C930 0.960 . S
C934 N935 1.342 . S
C934 C938 1.401 . S
C934 C939 1.499 . S
N935 Co918 1.989 . S
N935 C934 1.342 . S
N935 N936 1.388 . S
N936 Co919 1.993 . S
N936 N935 1.388 . S
N936 C937 1.346 . S
C937 N936 1.346 . S
C937 C938 1.396 . S
C937 C947 1.510 . S
C938 C934 1.401 . S
C938 C937 1.396 . S
C939 C934 1.499 . S
C939 H940 0.959 . S
C939 H941 0.960 . S
C939 H942 0.961 . S
H940 C939 0.959 . S
H941 C939 0.960 . S
H942 C939 0.961 . S
O943 Co918 1.967 . S
O943 C951 1.258 . S
O944 Co919 1.941 . S
O944 C951 1.266 . S
H945 C947 0.959 . S
H946 C947 0.961 . S
C947 C937 1.510 . S
C947 H945 0.959 . S
C947 H946 0.961 . S
C947 H948 0.960 . S
H948 C947 0.960 . S
H949 N929 0.862 . S
O950 Co918 1.920 . S
O950 C923 1.289 . S
C951 O943 1.258 . S
C951 O944 1.266 . S
Co952 O955 1.970 . S
Co952 N969 1.989 . S
Co952 O977 1.967 . S
Co952 O984 1.920 . S
Co953 O956 1.966 . S
Co953 N962 2.022 . S
Co953 N970 1.993 . S
Co953 O978 1.941 . S
C954 O955 1.258 . S
C954 O956 1.263 . S
O955 Co952 1.970 . S
O955 C954 1.258 . S
O956 Co953 1.966 . S
O956 C954 1.263 . S
C957 O958 1.235 . S
C957 O984 1.289 . S
O958 C957 1.235 . S
C959 C961 1.400 . S
C959 N962 1.351 . S
C959 C964 1.501 . S
C960 C961 1.387 . S
C960 N963 1.341 . S
C961 C959 1.400 . S
C961 C960 1.387 . S
N962 Co953 2.022 . S
N962 C959 1.351 . S
N962 N963 1.365 . S
N963 C960 1.341 . S
N963 N962 1.365 . S
N963 H983 0.862 . S
C964 C959 1.501 . S
C964 H965 0.961 . S
C964 H966 0.961 . S
C964 H967 0.960 . S
H965 C964 0.961 . S
H966 C964 0.961 . S
H967 C964 0.960 . S
C968 N969 1.342 . S
C968 C972 1.401 . S
C968 C973 1.499 . S
N969 Co952 1.989 . S
N969 C968 1.342 . S
N969 N970 1.388 . S
N970 Co953 1.993 . S
N970 N969 1.388 . S
N970 C971 1.346 . S
C971 N970 1.346 . S
C971 C972 1.396 . S
C971 C981 1.510 . S
C972 C968 1.401 . S
C972 C971 1.396 . S
C973 C968 1.499 . S
C973 H974 0.959 . S
C973 H975 0.960 . S
C973 H976 0.961 . S
H974 C973 0.959 . S
H975 C973 0.960 . S
H976 C973 0.961 . S
O977 Co952 1.967 . S
O977 C985 1.258 . S
O978 Co953 1.941 . S
O978 C985 1.266 . S
H979 C981 0.959 . S
H980 C981 0.961 . S
C981 C971 1.510 . S
C981 H979 0.959 . S
C981 H980 0.961 . S
C981 H982 0.960 . S
H982 C981 0.960 . S
H983 N963 0.862 . S
O984 Co952 1.920 . S
O984 C957 1.289 . S
C985 O977 1.258 . S
C985 O978 1.266 . S
Co986 O989 1.970 . S
Co986 N1003 1.989 . S
Co986 O1011 1.967 . S
Co986 O1018 1.920 . S
Co987 O990 1.966 . S
Co987 N996 2.022 . S
Co987 N1004 1.993 . S
Co987 O1012 1.941 . S
C988 O989 1.258 . S
C988 O990 1.263 . S
O989 Co986 1.970 . S
O989 C988 1.258 . S
O990 Co987 1.966 . S
O990 C988 1.263 . S
C991 O992 1.235 . S
C991 O1018 1.289 . S
O992 C991 1.235 . S
C993 C995 1.400 . S
C993 N996 1.351 . S
C993 C998 1.501 . S
C994 C995 1.387 . S
C994 N997 1.341 . S
C995 C993 1.400 . S
C995 C994 1.387 . S
N996 Co987 2.022 . S
N996 C993 1.351 . S
N996 N997 1.365 . S
N997 C994 1.341 . S
N997 N996 1.365 . S
N997 H1017 0.862 . S
C998 C993 1.501 . S
C998 H999 0.961 . S
C998 H1000 0.961 . S
C998 H1001 0.960 . S
H999 C998 0.961 . S
H1000 C998 0.961 . S
H1001 C998 0.960 . S
C1002 N1003 1.342 . S
C1002 C1006 1.401 . S
C1002 C1007 1.499 . S
N1003 Co986 1.989 . S
N1003 C1002 1.342 . S
N1003 N1004 1.388 . S
N1004 Co987 1.993 . S
N1004 N1003 1.388 . S
N1004 C1005 1.346 . S
C1005 N1004 1.346 . S
C1005 C1006 1.396 . S
C1005 C1015 1.510 . S
C1006 C1002 1.401 . S
C1006 C1005 1.396 . S
C1007 C1002 1.499 . S
C1007 H1008 0.959 . S
C1007 H1009 0.960 . S
C1007 H1010 0.961 . S
H1008 C1007 0.959 . S
H1009 C1007 0.960 . S
H1010 C1007 0.961 . S
O1011 Co986 1.967 . S
O1011 C1019 1.258 . S
O1012 Co987 1.941 . S
O1012 C1019 1.266 . S
H1013 C1015 0.959 . S
H1014 C1015 0.961 . S
C1015 C1005 1.510 . S
C1015 H1013 0.959 . S
C1015 H1014 0.961 . S
C1015 H1016 0.960 . S
H1016 C1015 0.960 . S
H1017 N997 0.862 . S
O1018 Co986 1.920 . S
O1018 C991 1.289 . S
C1019 O1011 1.258 . S
C1019 O1012 1.266 . S
Co1020 O1023 1.970 . S
Co1020 N1037 1.989 . S
Co1020 O1045 1.967 . S
Co1020 O1052 1.920 . S
Co1021 O1024 1.966 . S
Co1021 N1030 2.022 . S
Co1021 N1038 1.993 . S
Co1021 O1046 1.941 . S
C1022 O1023 1.258 . S
C1022 O1024 1.263 1_554 S
O1023 Co1020 1.970 . S
O1023 C1022 1.258 . S
O1024 Co1021 1.966 . S
O1024 C1022 1.263 1_556 S
C1025 O1026 1.235 . S
C1025 O1052 1.289 . S
O1026 C1025 1.235 . S
C1027 C1029 1.400 . S
C1027 N1030 1.351 . S
C1027 C1032 1.501 . S
C1028 C1029 1.387 . S
C1028 N1031 1.341 . S
C1029 C1027 1.400 . S
C1029 C1028 1.387 . S
N1030 Co1021 2.022 . S
N1030 C1027 1.351 . S
N1030 N1031 1.365 . S
N1031 C1028 1.341 . S
N1031 N1030 1.365 . S
N1031 H1051 0.862 . S
C1032 C1027 1.501 . S
C1032 H1033 0.961 . S
C1032 H1034 0.961 . S
C1032 H1035 0.960 . S
H1033 C1032 0.961 . S
H1034 C1032 0.961 . S
H1035 C1032 0.960 . S
C1036 N1037 1.342 . S
C1036 C1040 1.401 1_554 S
C1036 C1041 1.499 . S
N1037 Co1020 1.989 . S
N1037 C1036 1.342 . S
N1037 N1038 1.388 1_554 S
N1038 Co1021 1.993 . S
N1038 N1037 1.388 1_556 S
N1038 C1039 1.346 . S
C1039 N1038 1.346 . S
C1039 C1040 1.396 . S
C1039 C1049 1.510 . S
C1040 C1036 1.401 1_556 S
C1040 C1039 1.396 . S
C1041 C1036 1.499 . S
C1041 H1042 0.959 . S
C1041 H1043 0.960 . S
C1041 H1044 0.961 . S
H1042 C1041 0.959 . S
H1043 C1041 0.960 . S
H1044 C1041 0.961 . S
O1045 Co1020 1.967 . S
O1045 C1053 1.258 . S
O1046 Co1021 1.941 . S
O1046 C1053 1.266 1_556 S
H1047 C1049 0.959 . S
H1048 C1049 0.961 . S
C1049 C1039 1.510 . S
C1049 H1047 0.959 . S
C1049 H1048 0.961 . S
C1049 H1050 0.960 . S
H1050 C1049 0.960 . S
H1051 N1031 0.862 . S
O1052 Co1020 1.920 . S
O1052 C1025 1.289 . S
C1053 O1045 1.258 . S
C1053 O1046 1.266 1_554 S
Co1054 O1057 1.970 . S
Co1054 N1071 1.989 . S
Co1054 O1079 1.967 . S
Co1054 O1086 1.920 . S
Co1055 O1058 1.966 . S
Co1055 N1064 2.022 . S
Co1055 N1072 1.993 . S
Co1055 O1080 1.941 . S
C1056 O1057 1.258 . S
C1056 O1058 1.263 . S
O1057 Co1054 1.970 . S
O1057 C1056 1.258 . S
O1058 Co1055 1.966 . S
O1058 C1056 1.263 . S
C1059 O1060 1.235 . S
C1059 O1086 1.289 . S
O1060 C1059 1.235 . S
C1061 C1063 1.400 . S
C1061 N1064 1.351 . S
C1061 C1066 1.501 . S
C1062 C1063 1.387 . S
C1062 N1065 1.341 . S
C1063 C1061 1.400 . S
C1063 C1062 1.387 . S
N1064 Co1055 2.022 . S
N1064 C1061 1.351 . S
N1064 N1065 1.365 . S
N1065 C1062 1.341 . S
N1065 N1064 1.365 . S
N1065 H1085 0.862 . S
C1066 C1061 1.501 . S
C1066 H1067 0.961 . S
C1066 H1068 0.961 . S
C1066 H1069 0.960 . S
H1067 C1066 0.961 . S
H1068 C1066 0.961 . S
H1069 C1066 0.960 . S
C1070 N1071 1.342 . S
C1070 C1074 1.401 . S
C1070 C1075 1.499 . S
N1071 Co1054 1.989 . S
N1071 C1070 1.342 . S
N1071 N1072 1.388 . S
N1072 Co1055 1.993 . S
N1072 N1071 1.388 . S
N1072 C1073 1.346 . S
C1073 N1072 1.346 . S
C1073 C1074 1.396 . S
C1073 C1083 1.510 . S
C1074 C1070 1.401 . S
C1074 C1073 1.396 . S
C1075 C1070 1.499 . S
C1075 H1076 0.959 . S
C1075 H1077 0.960 . S
C1075 H1078 0.961 . S
H1076 C1075 0.959 . S
H1077 C1075 0.960 . S
H1078 C1075 0.961 . S
O1079 Co1054 1.967 . S
O1079 C1087 1.258 . S
O1080 Co1055 1.941 . S
O1080 C1087 1.266 . S
H1081 C1083 0.959 . S
H1082 C1083 0.961 . S
C1083 C1073 1.510 . S
C1083 H1081 0.959 . S
C1083 H1082 0.961 . S
C1083 H1084 0.960 . S
H1084 C1083 0.960 . S
H1085 N1065 0.862 . S
O1086 Co1054 1.920 . S
O1086 C1059 1.289 . S
C1087 O1079 1.258 . S
C1087 O1080 1.266 . S
H1088 C1096 0.929 . S
H1089 C1098 0.930 . S
H1090 C1100 0.930 . S
H1091 C1103 0.929 . S
H1092 C1106 0.930 . S
H1093 C1108 0.960 . S
H1094 C1108 0.960 1_556 S
H1095 C1108 0.960 . S
C1096 H1088 0.929 . S
C1096 C1097 1.377 1_556 S
C1096 C1098 1.384 . S
C1097 C1096 1.377 1_554 S
C1097 C1103 1.390 . S
C1098 H1089 0.930 . S
C1098 C1096 1.384 . S
C1098 C1099 1.372 1_556 S
C1099 C1098 1.372 1_554 S
C1099 C1100 1.400 . S
C1099 C1104 1.490 . S
C1100 H1090 0.930 . S
C1100 C1099 1.400 . S
C1100 C1103 1.386 . S
H1101 C1117 0.930 . S
H1102 C1118 0.931 . S
C1103 H1091 0.929 . S
C1103 C1097 1.390 . S
C1103 C1100 1.386 . S
C1104 C1099 1.490 . S
C1104 C1106 1.395 . S
C1104 C1107 1.403 . S
H1105 C1111 0.930 . S
C1106 H1092 0.930 . S
C1106 C1104 1.395 . S
C1106 C1109 1.403 . S
C1107 C1104 1.403 . S
C1107 C1108 1.524 . S
C1107 C1111 1.400 . S
C1108 H1093 0.960 . S
C1108 H1094 0.960 1_554 S
C1108 H1095 0.960 . S
C1108 C1107 1.524 . S
C1109 C1106 1.403 . S
C1109 C1110 1.392 . S
C1109 C1113 1.495 . S
C1110 C1109 1.392 . S
C1110 C1111 1.385 . S
C1110 C1112 1.478 . S
C1111 H1105 0.930 . S
C1111 C1107 1.400 . S
C1111 C1110 1.385 . S
C1112 C1110 1.478 . S
C1112 C1114 1.381 1_554 S
C1112 C1118 1.383 . S
C1113 C1109 1.495 . S
C1113 H1119 0.959 . S
C1113 H1120 0.961 . S
C1113 H1121 0.960 1_554 S
C1114 C1112 1.381 1_556 S
C1114 C1115 1.394 . S
C1114 H1122 0.930 . S
C1115 C1114 1.394 . S
C1115 C1116 1.383 1_556 S
C1115 H1123 0.929 . S
C1116 C1115 1.383 1_554 S
C1116 C1117 1.377 . S
C1117 H1101 0.930 . S
C1117 C1116 1.377 . S
C1117 C1118 1.379 . S
C1118 H1102 0.931 . S
C1118 C1112 1.383 . S
C1118 C1117 1.379 . S
H1119 C1113 0.959 . S
H1120 C1113 0.961 . S
H1121 C1113 0.960 1_556 S
H1122 C1114 0.930 . S
H1123 C1115 0.929 . S
H1124 C1132 0.929 . S
H1125 C1134 0.930 . S
H1126 C1136 0.930 . S
H1127 C1139 0.929 . S
H1128 C1142 0.930 . S
H1129 C1144 0.960 . S
H1130 C1144 0.960 . S
H1131 C1144 0.960 . S
C1132 H1124 0.929 . S
C1132 C1133 1.377 . S
C1132 C1134 1.384 . S
C1133 C1132 1.377 . S
C1133 C1139 1.390 . S
C1134 H1125 0.930 . S
C1134 C1132 1.384 . S
C1134 C1135 1.372 . S
C1135 C1134 1.372 . S
C1135 C1136 1.400 . S
C1135 C1140 1.490 . S
C1136 H1126 0.930 . S
C1136 C1135 1.400 . S
C1136 C1139 1.386 . S
H1137 C1153 0.930 . S
H1138 C1154 0.931 . S
C1139 H1127 0.929 . S
C1139 C1133 1.390 . S
C1139 C1136 1.386 . S
C1140 C1135 1.490 . S
C1140 C1142 1.395 . S
C1140 C1143 1.403 . S
H1141 C1147 0.930 . S
C1142 H1128 0.930 . S
C1142 C1140 1.395 . S
C1142 C1145 1.403 1_455 S
C1143 C1140 1.403 . S
C1143 C1144 1.524 . S
C1143 C1147 1.400 1_455 S
C1144 H1129 0.960 . S
C1144 H1130 0.960 . S
C1144 H1131 0.960 . S
C1144 C1143 1.524 . S
C1145 C1142 1.403 1_655 S
C1145 C1146 1.392 . S
C1145 C1149 1.495 . S
C1146 C1145 1.392 . S
C1146 C1147 1.385 . S
C1146 C1148 1.478 . S
C1147 H1141 0.930 . S
C1147 C1143 1.400 1_655 S
C1147 C1146 1.385 . S
C1148 C1146 1.478 . S
C1148 C1150 1.381 . S
C1148 C1154 1.383 . S
C1149 C1145 1.495 . S
C1149 H1155 0.959 . S
C1149 H1156 0.961 . S
C1149 H1157 0.960 . S
C1150 C1148 1.381 . S
C1150 C1151 1.394 . S
C1150 H1158 0.930 . S
C1151 C1150 1.394 . S
C1151 C1152 1.383 . S
C1151 H1159 0.929 . S
C1152 C1151 1.383 . S
C1152 C1153 1.377 . S
C1153 H1137 0.930 . S
C1153 C1152 1.377 . S
C1153 C1154 1.379 . S
C1154 H1138 0.931 . S
C1154 C1148 1.383 . S
C1154 C1153 1.379 . S
H1155 C1149 0.959 . S
H1156 C1149 0.961 . S
H1157 C1149 0.960 . S
H1158 C1150 0.930 . S
H1159 C1151 0.929 . S
H1160 C1168 0.929 . S
H1161 C1170 0.930 . S
H1162 C1172 0.930 . S
H1163 C1175 0.929 . S
H1164 C1178 0.930 . S
H1165 C1180 0.960 . S
H1166 C1180 0.960 . S
H1167 C1180 0.960 . S
C1168 H1160 0.929 . S
C1168 C1169 1.377 . S
C1168 C1170 1.384 . S
C1169 C1168 1.377 . S
C1169 C1175 1.390 . S
C1170 H1161 0.930 . S
C1170 C1168 1.384 . S
C1170 C1171 1.372 . S
C1171 C1170 1.372 . S
C1171 C1172 1.400 . S
C1171 C1176 1.490 . S
C1172 H1162 0.930 . S
C1172 C1171 1.400 . S
C1172 C1175 1.386 . S
H1173 C1189 0.930 . S
H1174 C1190 0.931 . S
C1175 H1163 0.929 . S
C1175 C1169 1.390 . S
C1175 C1172 1.386 . S
C1176 C1171 1.490 . S
C1176 C1178 1.395 . S
C1176 C1179 1.403 . S
H1177 C1183 0.930 . S
C1178 H1164 0.930 . S
C1178 C1176 1.395 . S
C1178 C1181 1.403 . S
C1179 C1176 1.403 . S
C1179 C1180 1.524 . S
C1179 C1183 1.400 . S
C1180 H1165 0.960 . S
C1180 H1166 0.960 . S
C1180 H1167 0.960 . S
C1180 C1179 1.524 . S
C1181 C1178 1.403 . S
C1181 C1182 1.392 . S
C1181 C1185 1.495 . S
C1182 C1181 1.392 . S
C1182 C1183 1.385 . S
C1182 C1184 1.478 . S
C1183 H1177 0.930 . S
C1183 C1179 1.400 . S
C1183 C1182 1.385 . S
C1184 C1182 1.478 . S
C1184 C1186 1.381 . S
C1184 C1190 1.383 . S
C1185 C1181 1.495 . S
C1185 H1191 0.959 . S
C1185 H1192 0.961 . S
C1185 H1193 0.960 . S
C1186 C1184 1.381 . S
C1186 C1187 1.394 . S
C1186 H1194 0.930 . S
C1187 C1186 1.394 . S
C1187 C1188 1.383 . S
C1187 H1195 0.929 . S
C1188 C1187 1.383 . S
C1188 C1189 1.377 . S
C1189 H1173 0.930 . S
C1189 C1188 1.377 . S
C1189 C1190 1.379 . S
C1190 H1174 0.931 . S
C1190 C1184 1.383 . S
C1190 C1189 1.379 . S
H1191 C1185 0.959 . S
H1192 C1185 0.961 . S
H1193 C1185 0.960 . S
H1194 C1186 0.930 . S
H1195 C1187 0.929 . S
H1196 C1204 0.929 . S
H1197 C1206 0.930 . S
H1198 C1208 0.930 . S
H1199 C1211 0.929 . S
H1200 C1214 0.930 . S
H1201 C1216 0.960 . S
H1202 C1216 0.960 . S
H1203 C1216 0.960 . S
C1204 H1196 0.929 . S
C1204 C1205 1.377 . S
C1204 C1206 1.384 . S
C1205 C1204 1.377 . S
C1205 C1211 1.390 . S
C1206 H1197 0.930 . S
C1206 C1204 1.384 . S
C1206 C1207 1.372 . S
C1207 C1206 1.372 . S
C1207 C1208 1.400 . S
C1207 C1212 1.490 . S
C1208 H1198 0.930 . S
C1208 C1207 1.400 . S
C1208 C1211 1.386 . S
H1209 C1225 0.930 . S
H1210 C1226 0.931 . S
C1211 H1199 0.929 . S
C1211 C1205 1.390 . S
C1211 C1208 1.386 . S
C1212 C1207 1.490 . S
C1212 C1214 1.395 . S
C1212 C1215 1.403 . S
H1213 C1219 0.930 . S
C1214 H1200 0.930 . S
C1214 C1212 1.395 . S
C1214 C1217 1.403 . S
C1215 C1212 1.403 . S
C1215 C1216 1.524 . S
C1215 C1219 1.400 . S
C1216 H1201 0.960 . S
C1216 H1202 0.960 . S
C1216 H1203 0.960 . S
C1216 C1215 1.524 . S
C1217 C1214 1.403 . S
C1217 C1218 1.392 . S
C1217 C1221 1.495 . S
C1218 C1217 1.392 . S
C1218 C1219 1.385 . S
C1218 C1220 1.478 . S
C1219 H1213 0.930 . S
C1219 C1215 1.400 . S
C1219 C1218 1.385 . S
C1220 C1218 1.478 . S
C1220 C1222 1.381 . S
C1220 C1226 1.383 . S
C1221 C1217 1.495 . S
C1221 H1227 0.959 . S
C1221 H1228 0.961 . S
C1221 H1229 0.960 . S
C1222 C1220 1.381 . S
C1222 C1223 1.394 . S
C1222 H1230 0.930 . S
C1223 C1222 1.394 . S
C1223 C1224 1.383 . S
C1223 H1231 0.929 . S
C1224 C1223 1.383 . S
C1224 C1225 1.377 . S
C1225 H1209 0.930 . S
C1225 C1224 1.377 . S
C1225 C1226 1.379 . S
C1226 H1210 0.931 . S
C1226 C1220 1.383 . S
C1226 C1225 1.379 . S
H1227 C1221 0.959 . S
H1228 C1221 0.961 . S
H1229 C1221 0.960 . S
H1230 C1222 0.930 . S
H1231 C1223 0.929 . S
H1232 C1240 0.929 . S
H1233 C1242 0.930 . S
H1234 C1244 0.923 1_554 S
H1235 C1247 0.924 1_554 S
H1236 C1250 0.930 . S
H1237 C1252 0.960 . S
H1238 C1252 0.960 . S
H1239 C1252 0.960 . S
C1240 H1232 0.929 . S
C1240 C1241 1.377 . S
C1240 C1242 1.384 . S
C1241 C1240 1.377 . S
C1241 C1247 1.395 . S
C1242 H1233 0.930 . S
C1242 C1240 1.384 . S
C1242 C1243 1.372 . S
C1243 C1242 1.372 . S
C1243 C1244 1.407 . S
C1243 C1248 1.490 . S
C1244 H1234 0.923 1_556 S
C1244 C1243 1.407 . S
C1244 C1247 1.386 . S
H1245 C1261 0.934 . S
H1246 C1262 0.931 . S
C1247 H1235 0.924 1_556 S
C1247 C1241 1.395 . S
C1247 C1244 1.386 . S
C1248 C1243 1.490 . S
C1248 C1250 1.395 . S
C1248 C1251 1.403 1_556 S
H1249 C1255 0.930 . S
C1250 H1236 0.930 . S
C1250 C1248 1.395 . S
C1250 C1253 1.403 . S
C1251 C1248 1.403 1_554 S
C1251 C1252 1.524 . S
C1251 C1255 1.400 . S
C1252 H1237 0.960 . S
C1252 H1238 0.960 . S
C1252 H1239 0.960 . S
C1252 C1251 1.524 . S
C1253 C1250 1.403 . S
C1253 C1254 1.392 . S
C1253 C1257 1.495 . S
C1254 C1253 1.392 . S
C1254 C1255 1.385 1_556 S
C1254 C1256 1.478 . S
C1255 H1249 0.930 . S
C1255 C1251 1.400 . S
C1255 C1254 1.385 1_554 S
C1256 C1254 1.478 . S
C1256 C1258 1.381 . S
C1256 C1262 1.383 . S
C1257 C1253 1.495 . S
C1257 H1263 0.959 . S
C1257 H1264 0.961 . S
C1257 H1265 0.960 . S
C1258 C1256 1.381 . S
C1258 C1259 1.394 . S
C1258 H1266 0.930 . S
C1259 C1258 1.394 . S
C1259 C1260 1.383 . S
C1259 H1267 0.929 . S
C1260 C1259 1.383 . S
C1260 C1261 1.377 . S
C1261 H1245 0.934 . S
C1261 C1260 1.377 . S
C1261 C1262 1.379 . S
C1262 H1246 0.931 . S
C1262 C1256 1.383 . S
C1262 C1261 1.379 . S
H1263 C1257 0.959 . S
H1264 C1257 0.961 . S
H1265 C1257 0.960 . S
H1266 C1258 0.930 . S
H1267 C1259 0.929 . S
H1268 C1276 0.929 . S
H1269 C1278 0.930 . S
H1270 C1280 0.930 . S
H1271 C1283 0.929 . S
H1272 C1286 0.930 . S
H1273 C1288 0.960 . S
H1274 C1288 0.960 . S
H1275 C1288 0.960 . S
C1276 H1268 0.929 . S
C1276 C1277 1.377 . S
C1276 C1278 1.384 . S
C1277 C1276 1.377 . S
C1277 C1283 1.390 . S
C1278 H1269 0.930 . S
C1278 C1276 1.384 . S
C1278 C1279 1.372 . S
C1279 C1278 1.372 . S
C1279 C1280 1.400 . S
C1279 C1284 1.490 . S
C1280 H1270 0.930 . S
C1280 C1279 1.400 . S
C1280 C1283 1.386 . S
H1281 C1297 0.930 . S
H1282 C1298 0.931 . S
C1283 H1271 0.929 . S
C1283 C1277 1.390 . S
C1283 C1280 1.386 . S
C1284 C1279 1.490 . S
C1284 C1286 1.395 . S
C1284 C1287 1.403 . S
H1285 C1291 0.930 . S
C1286 H1272 0.930 . S
C1286 C1284 1.395 . S
C1286 C1289 1.403 . S
C1287 C1284 1.403 . S
C1287 C1288 1.524 . S
C1287 C1291 1.400 . S
C1288 H1273 0.960 . S
C1288 H1274 0.960 . S
C1288 H1275 0.960 . S
C1288 C1287 1.524 . S
C1289 C1286 1.403 . S
C1289 C1290 1.392 . S
C1289 C1293 1.495 . S
C1290 C1289 1.392 . S
C1290 C1291 1.385 . S
C1290 C1292 1.478 . S
C1291 H1285 0.930 . S
C1291 C1287 1.400 . S
C1291 C1290 1.385 . S
C1292 C1290 1.478 . S
C1292 C1294 1.381 . S
C1292 C1298 1.383 . S
C1293 C1289 1.495 . S
C1293 H1299 0.959 . S
C1293 H1300 0.961 . S
C1293 H1301 0.960 . S
C1294 C1292 1.381 . S
C1294 C1295 1.394 . S
C1294 H1302 0.930 . S
C1295 C1294 1.394 . S
C1295 C1296 1.383 . S
C1295 H1303 0.929 . S
C1296 C1295 1.383 . S
C1296 C1297 1.377 . S
C1297 H1281 0.930 . S
C1297 C1296 1.377 . S
C1297 C1298 1.379 . S
C1298 H1282 0.931 . S
C1298 C1292 1.383 . S
C1298 C1297 1.379 . S
H1299 C1293 0.959 . S
H1300 C1293 0.961 . S
H1301 C1293 0.960 . S
H1302 C1294 0.930 . S
H1303 C1295 0.929 . S
H1304 C1312 0.929 . S
H1305 C1314 0.930 . S
H1306 C1316 0.930 . S
H1307 C1319 0.929 . S
H1308 C1322 0.930 . S
H1309 C1324 0.960 . S
H1310 C1324 0.960 . S
H1311 C1324 0.960 . S
C1312 H1304 0.929 . S
C1312 C1313 1.377 . S
C1312 C1314 1.384 . S
C1313 C1312 1.377 . S
C1313 C1319 1.390 . S
C1314 H1305 0.930 . S
C1314 C1312 1.384 . S
C1314 C1315 1.372 . S
C1315 C1314 1.372 . S
C1315 C1316 1.400 . S
C1315 C1320 1.490 . S
C1316 H1306 0.930 . S
C1316 C1315 1.400 . S
C1316 C1319 1.386 . S
H1317 C1333 0.930 . S
H1318 C1334 0.931 . S
C1319 H1307 0.929 . S
C1319 C1313 1.390 . S
C1319 C1316 1.386 . S
C1320 C1315 1.490 . S
C1320 C1322 1.395 . S
C1320 C1323 1.403 . S
H1321 C1327 0.930 . S
C1322 H1308 0.930 . S
C1322 C1320 1.395 . S
C1322 C1325 1.403 . S
C1323 C1320 1.403 . S
C1323 C1324 1.524 . S
C1323 C1327 1.400 . S
C1324 H1309 0.960 . S
C1324 H1310 0.960 . S
C1324 H1311 0.960 . S
C1324 C1323 1.524 . S
C1325 C1322 1.403 . S
C1325 C1326 1.392 . S
C1325 C1329 1.495 . S
C1326 C1325 1.392 . S
C1326 C1327 1.385 . S
C1326 C1328 1.478 . S
C1327 H1321 0.930 . S
C1327 C1323 1.400 . S
C1327 C1326 1.385 . S
C1328 C1326 1.478 . S
C1328 C1330 1.381 . S
C1328 C1334 1.383 . S
C1329 C1325 1.495 . S
C1329 H1335 0.959 . S
C1329 H1336 0.961 . S
C1329 H1337 0.960 . S
C1330 C1328 1.381 . S
C1330 C1331 1.394 . S
C1330 H1338 0.930 . S
C1331 C1330 1.394 . S
C1331 C1332 1.383 . S
C1331 H1339 0.929 . S
C1332 C1331 1.383 . S
C1332 C1333 1.377 . S
C1333 H1317 0.930 . S
C1333 C1332 1.377 . S
C1333 C1334 1.379 . S
C1334 H1318 0.931 . S
C1334 C1328 1.383 . S
C1334 C1333 1.379 . S
H1335 C1329 0.959 . S
H1336 C1329 0.961 . S
H1337 C1329 0.960 . S
H1338 C1330 0.930 . S
H1339 C1331 0.929 . S
H1340 C1348 0.929 . S
H1341 C1350 0.930 . S
H1342 C1352 0.930 . S
H1343 C1355 0.929 . S
H1344 C1358 0.930 . S
H1345 C1360 0.960 . S
H1346 C1360 0.960 . S
H1347 C1360 0.960 . S
C1348 H1340 0.929 . S
C1348 C1349 1.377 . S
C1348 C1350 1.384 . S
C1349 C1348 1.377 . S
C1349 C1355 1.390 . S
C1350 H1341 0.930 . S
C1350 C1348 1.384 . S
C1350 C1351 1.372 . S
C1351 C1350 1.372 . S
C1351 C1352 1.400 . S
C1351 C1356 1.490 . S
C1352 H1342 0.930 . S
C1352 C1351 1.400 . S
C1352 C1355 1.386 . S
H1353 C1369 0.930 . S
H1354 C1370 0.931 . S
C1355 H1343 0.929 . S
C1355 C1349 1.390 . S
C1355 C1352 1.386 . S
C1356 C1351 1.490 . S
C1356 C1358 1.395 . S
C1356 C1359 1.403 . S
H1357 C1363 0.930 . S
C1358 H1344 0.930 . S
C1358 C1356 1.395 . S
C1358 C1361 1.403 1_655 S
C1359 C1356 1.403 . S
C1359 C1360 1.524 . S
C1359 C1363 1.400 1_655 S
C1360 H1345 0.960 . S
C1360 H1346 0.960 . S
C1360 H1347 0.960 . S
C1360 C1359 1.524 . S
C1361 C1358 1.403 1_455 S
C1361 C1362 1.392 . S
C1361 C1365 1.495 . S
C1362 C1361 1.392 . S
C1362 C1363 1.385 . S
C1362 C1364 1.478 . S
C1363 H1357 0.930 . S
C1363 C1359 1.400 1_455 S
C1363 C1362 1.385 . S
C1364 C1362 1.478 . S
C1364 C1366 1.381 . S
C1364 C1370 1.383 . S
C1365 C1361 1.495 . S
C1365 H1371 0.959 . S
C1365 H1372 0.961 . S
C1365 H1373 0.960 . S
C1366 C1364 1.381 . S
C1366 C1367 1.394 . S
C1366 H1374 0.930 . S
C1367 C1366 1.394 . S
C1367 C1368 1.383 . S
C1367 H1375 0.929 . S
C1368 C1367 1.383 . S
C1368 C1369 1.377 . S
C1369 H1353 0.930 . S
C1369 C1368 1.377 . S
C1369 C1370 1.379 . S
C1370 H1354 0.931 . S
C1370 C1364 1.383 . S
C1370 C1369 1.379 . S
H1371 C1365 0.959 . S
H1372 C1365 0.961 . S
H1373 C1365 0.960 . S
H1374 C1366 0.930 . S
H1375 C1367 0.929 . S
H1376 C1384 0.929 . S
H1377 C1386 0.930 . S
H1378 C1388 0.930 . S
H1379 C1391 0.929 . S
H1380 C1394 0.930 . S
H1381 C1396 0.960 . S
H1382 C1396 0.960 . S
H1383 C1396 0.960 1_556 S
C1384 H1376 0.929 . S
C1384 C1385 1.377 1_554 S
C1384 C1386 1.384 . S
C1385 C1384 1.377 1_556 S
C1385 C1391 1.390 . S
C1386 H1377 0.930 . S
C1386 C1384 1.384 . S
C1386 C1387 1.372 1_554 S
C1387 C1386 1.372 1_556 S
C1387 C1388 1.400 . S
C1387 C1392 1.490 . S
C1388 H1378 0.930 . S
C1388 C1387 1.400 . S
C1388 C1391 1.386 . S
H1389 C1405 0.930 . S
H1390 C1406 0.931 . S
C1391 H1379 0.929 . S
C1391 C1385 1.390 . S
C1391 C1388 1.386 . S
C1392 C1387 1.490 . S
C1392 C1394 1.395 . S
C1392 C1395 1.403 . S
H1393 C1399 0.930 1_554 S
C1394 H1380 0.930 . S
C1394 C1392 1.395 . S
C1394 C1397 1.403 . S
C1395 C1392 1.403 . S
C1395 C1396 1.524 1_556 S
C1395 C1399 1.400 . S
C1396 H1381 0.960 . S
C1396 H1382 0.960 . S
C1396 H1383 0.960 1_554 S
C1396 C1395 1.524 1_554 S
C1397 C1394 1.403 . S
C1397 C1398 1.392 . S
C1397 C1401 1.495 . S
C1398 C1397 1.392 . S
C1398 C1399 1.385 . S
C1398 C1400 1.478 . S
C1399 H1393 0.930 1_556 S
C1399 C1395 1.400 . S
C1399 C1398 1.385 . S
C1400 C1398 1.478 . S
C1400 C1402 1.381 1_556 S
C1400 C1406 1.383 . S
C1401 C1397 1.495 . S
C1401 H1407 0.959 . S
C1401 H1408 0.961 . S
C1401 H1409 0.960 . S
C1402 C1400 1.381 1_554 S
C1402 C1403 1.394 . S
C1402 H1410 0.930 . S
C1403 C1402 1.394 . S
C1403 C1404 1.383 1_554 S
C1403 H1411 0.929 . S
C1404 C1403 1.383 1_556 S
C1404 C1405 1.377 . S
C1405 H1389 0.930 . S
C1405 C1404 1.377 . S
C1405 C1406 1.379 . S
C1406 H1390 0.931 . S
C1406 C1400 1.383 . S
C1406 C1405 1.379 . S
H1407 C1401 0.959 . S
H1408 C1401 0.961 . S
H1409 C1401 0.960 . S
H1410 C1402 0.930 . S
H1411 C1403 0.929 . S
H1412 C1420 0.929 . S
H1413 C1422 0.930 . S
H1414 C1424 0.930 . S
H1415 C1427 0.929 . S
H1416 C1430 0.930 . S
H1417 C1432 0.960 . S
H1418 C1432 0.960 . S
H1419 C1432 0.960 . S
C1420 H1412 0.929 . S
C1420 C1421 1.377 . S
C1420 C1422 1.384 . S
C1421 C1420 1.377 . S
C1421 C1427 1.390 . S
C1422 H1413 0.930 . S
C1422 C1420 1.384 . S
C1422 C1423 1.372 . S
C1423 C1422 1.372 . S
C1423 C1424 1.400 . S
C1423 C1428 1.490 . S
C1424 H1414 0.930 . S
C1424 C1423 1.400 . S
C1424 C1427 1.386 . S
H1425 C1441 0.930 . S
H1426 C1442 0.931 . S
C1427 H1415 0.929 . S
C1427 C1421 1.390 . S
C1427 C1424 1.386 . S
C1428 C1423 1.490 . S
C1428 C1430 1.395 . S
C1428 C1431 1.403 . S
H1429 C1435 0.930 . S
C1430 H1416 0.930 . S
C1430 C1428 1.395 . S
C1430 C1433 1.403 . S
C1431 C1428 1.403 . S
C1431 C1432 1.524 . S
C1431 C1435 1.400 . S
C1432 H1417 0.960 . S
C1432 H1418 0.960 . S
C1432 H1419 0.960 . S
C1432 C1431 1.524 . S
C1433 C1430 1.403 . S
C1433 C1434 1.392 . S
C1433 C1437 1.495 . S
C1434 C1433 1.392 . S
C1434 C1435 1.385 . S
C1434 C1436 1.478 . S
C1435 H1429 0.930 . S
C1435 C1431 1.400 . S
C1435 C1434 1.385 . S
C1436 C1434 1.478 . S
C1436 C1438 1.381 . S
C1436 C1442 1.383 . S
C1437 C1433 1.495 . S
C1437 H1443 0.959 . S
C1437 H1444 0.961 . S
C1437 H1445 0.960 . S
C1438 C1436 1.381 . S
C1438 C1439 1.394 . S
C1438 H1446 0.930 . S
C1439 C1438 1.394 . S
C1439 C1440 1.383 . S
C1439 H1447 0.929 . S
C1440 C1439 1.383 . S
C1440 C1441 1.377 . S
C1441 H1425 0.930 . S
C1441 C1440 1.377 . S
C1441 C1442 1.379 . S
C1442 H1426 0.931 . S
C1442 C1436 1.383 . S
C1442 C1441 1.379 . S
H1443 C1437 0.959 . S
H1444 C1437 0.961 . S
H1445 C1437 0.960 . S
H1446 C1438 0.930 . S
H1447 C1439 0.929 . S
H1448 C1456 0.929 . S
H1449 C1458 0.930 . S
H1450 C1460 0.930 . S
H1451 C1463 0.929 . S
H1452 C1466 0.930 1_556 S
H1453 C1468 0.960 . S
H1454 C1468 0.960 . S
H1455 C1468 0.960 . S
C1456 H1448 0.929 . S
C1456 C1457 1.377 . S
C1456 C1458 1.384 . S
C1457 C1456 1.377 . S
C1457 C1463 1.390 1_554 S
C1458 H1449 0.930 . S
C1458 C1456 1.384 . S
C1458 C1459 1.372 . S
C1459 C1458 1.372 . S
C1459 C1460 1.400 1_554 S
C1459 C1464 1.490 . S
C1460 H1450 0.930 . S
C1460 C1459 1.400 1_556 S
C1460 C1463 1.386 . S
H1461 C1477 0.930 . S
H1462 C1478 0.931 . S
C1463 H1451 0.929 . S
C1463 C1457 1.390 1_556 S
C1463 C1460 1.386 . S
C1464 C1459 1.490 . S
C1464 C1466 1.395 . S
C1464 C1467 1.403 . S
H1465 C1471 0.930 . S
C1466 H1452 0.930 1_554 S
C1466 C1464 1.395 . S
C1466 C1469 1.403 . S
C1467 C1464 1.403 . S
C1467 C1468 1.524 . S
C1467 C1471 1.400 . S
C1468 H1453 0.960 . S
C1468 H1454 0.960 . S
C1468 H1455 0.960 . S
C1468 C1467 1.524 . S
C1469 C1466 1.403 . S
C1469 C1470 1.392 . S
C1469 C1473 1.495 1_554 S
C1470 C1469 1.392 . S
C1470 C1471 1.385 . S
C1470 C1472 1.478 . S
C1471 H1465 0.930 . S
C1471 C1467 1.400 . S
C1471 C1470 1.385 . S
C1472 C1470 1.478 . S
C1472 C1474 1.381 . S
C1472 C1478 1.383 1_554 S
C1473 C1469 1.495 1_556 S
C1473 H1479 0.959 . S
C1473 H1480 0.961 . S
C1473 H1481 0.960 1_556 S
C1474 C1472 1.381 . S
C1474 C1475 1.394 . S
C1474 H1482 0.930 . S
C1475 C1474 1.394 . S
C1475 C1476 1.383 . S
C1475 H1483 0.929 . S
C1476 C1475 1.383 . S
C1476 C1477 1.377 1_554 S
C1477 H1461 0.930 . S
C1477 C1476 1.377 1_556 S
C1477 C1478 1.379 . S
C1478 H1462 0.931 . S
C1478 C1472 1.383 1_556 S
C1478 C1477 1.379 . S
H1479 C1473 0.959 . S
H1480 C1473 0.961 . S
H1481 C1473 0.960 1_554 S
H1482 C1474 0.930 . S
H1483 C1475 0.929 . S
H1484 C1492 0.929 . S
H1485 C1494 0.930 . S
H1486 C1496 0.930 . S
H1487 C1499 0.929 . S
H1488 C1502 0.930 . S
H1489 C1504 0.960 . S
H1490 C1504 0.960 . S
H1491 C1504 0.960 . S
C1492 H1484 0.929 . S
C1492 C1493 1.377 . S
C1492 C1494 1.384 . S
C1493 C1492 1.377 . S
C1493 C1499 1.390 . S
C1494 H1485 0.930 . S
C1494 C1492 1.384 . S
C1494 C1495 1.372 . S
C1495 C1494 1.372 . S
C1495 C1496 1.400 . S
C1495 C1500 1.490 . S
C1496 H1486 0.930 . S
C1496 C1495 1.400 . S
C1496 C1499 1.386 . S
H1497 C1513 0.930 . S
H1498 C1514 0.931 . S
C1499 H1487 0.929 . S
C1499 C1493 1.390 . S
C1499 C1496 1.386 . S
C1500 C1495 1.490 . S
C1500 C1502 1.395 . S
C1500 C1503 1.403 . S
H1501 C1507 0.930 . S
C1502 H1488 0.930 . S
C1502 C1500 1.395 . S
C1502 C1505 1.403 . S
C1503 C1500 1.403 . S
C1503 C1504 1.524 . S
C1503 C1507 1.400 . S
C1504 H1489 0.960 . S
C1504 H1490 0.960 . S
C1504 H1491 0.960 . S
C1504 C1503 1.524 . S
C1505 C1502 1.403 . S
C1505 C1506 1.392 . S
C1505 C1509 1.495 . S
C1506 C1505 1.392 . S
C1506 C1507 1.385 . S
C1506 C1508 1.478 . S
C1507 H1501 0.930 . S
C1507 C1503 1.400 . S
C1507 C1506 1.385 . S
C1508 C1506 1.478 . S
C1508 C1510 1.381 . S
C1508 C1514 1.383 . S
C1509 C1505 1.495 . S
C1509 H1515 0.959 . S
C1509 H1516 0.961 . S
C1509 H1517 0.960 . S
C1510 C1508 1.381 . S
C1510 C1511 1.394 . S
C1510 H1518 0.930 . S
C1511 C1510 1.394 . S
C1511 C1512 1.383 . S
C1511 H1519 0.929 . S
C1512 C1511 1.383 . S
C1512 C1513 1.377 . S
C1513 H1497 0.930 . S
C1513 C1512 1.377 . S
C1513 C1514 1.379 . S
C1514 H1498 0.931 . S
C1514 C1508 1.383 . S
C1514 C1513 1.379 . S
H1515 C1509 0.959 . S
H1516 C1509 0.961 . S
H1517 C1509 0.960 . S
H1518 C1510 0.930 . S
H1519 C1511 0.929 . S
H1520 C1528 0.929 . S
H1521 C1530 0.930 . S
H1522 C1532 0.930 . S
H1523 C1535 0.929 . S
H1524 C1538 0.930 . S
H1525 C1540 0.960 . S
H1526 C1540 0.960 . S
H1527 C1540 0.960 . S
C1528 H1520 0.929 . S
C1528 C1529 1.377 . S
C1528 C1530 1.384 . S
C1529 C1528 1.377 . S
C1529 C1535 1.390 . S
C1530 H1521 0.930 . S
C1530 C1528 1.384 . S
C1530 C1531 1.372 . S
C1531 C1530 1.372 . S
C1531 C1532 1.400 . S
C1531 C1536 1.490 . S
C1532 H1522 0.930 . S
C1532 C1531 1.400 . S
C1532 C1535 1.386 . S
H1533 C1549 0.930 . S
H1534 C1550 0.931 . S
C1535 H1523 0.929 . S
C1535 C1529 1.390 . S
C1535 C1532 1.386 . S
C1536 C1531 1.490 . S
C1536 C1538 1.395 . S
C1536 C1539 1.403 . S
H1537 C1543 0.930 . S
C1538 H1524 0.930 . S
C1538 C1536 1.395 . S
C1538 C1541 1.403 . S
C1539 C1536 1.403 . S
C1539 C1540 1.524 . S
C1539 C1543 1.400 . S
C1540 H1525 0.960 . S
C1540 H1526 0.960 . S
C1540 H1527 0.960 . S
C1540 C1539 1.524 . S
C1541 C1538 1.403 . S
C1541 C1542 1.392 . S
C1541 C1545 1.495 . S
C1542 C1541 1.392 . S
C1542 C1543 1.385 . S
C1542 C1544 1.478 . S
C1543 H1537 0.930 . S
C1543 C1539 1.400 . S
C1543 C1542 1.385 . S
C1544 C1542 1.478 . S
C1544 C1546 1.381 . S
C1544 C1550 1.383 . S
C1545 C1541 1.495 . S
C1545 H1551 0.959 . S
C1545 H1552 0.961 . S
C1545 H1553 0.960 . S
C1546 C1544 1.381 . S
C1546 C1547 1.394 . S
C1546 H1554 0.930 . S
C1547 C1546 1.394 . S
C1547 C1548 1.383 . S
C1547 H1555 0.929 . S
C1548 C1547 1.383 . S
C1548 C1549 1.377 . S
C1549 H1533 0.930 . S
C1549 C1548 1.377 . S
C1549 C1550 1.379 . S
C1550 H1534 0.931 . S
C1550 C1544 1.383 . S
C1550 C1549 1.379 . S
H1551 C1545 0.959 . S
H1552 C1545 0.961 . S
H1553 C1545 0.960 . S
H1554 C1546 0.930 . S
H1555 C1547 0.929 . S
H1556 C1564 0.929 . S
H1557 C1566 0.930 . S
H1558 C1568 0.930 . S
H1559 C1571 0.929 . S
H1560 C1574 0.930 . S
H1561 C1576 0.960 . S
H1562 C1576 0.960 . S
H1563 C1576 0.960 . S
C1564 H1556 0.929 . S
C1564 C1565 1.377 . S
C1564 C1566 1.384 . S
C1565 C1564 1.377 . S
C1565 C1571 1.390 . S
C1566 H1557 0.930 . S
C1566 C1564 1.384 . S
C1566 C1567 1.372 . S
C1567 C1566 1.372 . S
C1567 C1568 1.400 . S
C1567 C1572 1.490 . S
C1568 H1558 0.930 . S
C1568 C1567 1.400 . S
C1568 C1571 1.386 . S
H1569 C1585 0.930 . S
H1570 C1586 0.931 . S
C1571 H1559 0.929 . S
C1571 C1565 1.390 . S
C1571 C1568 1.386 . S
C1572 C1567 1.490 . S
C1572 C1574 1.395 . S
C1572 C1575 1.403 . S
H1573 C1579 0.930 . S
C1574 H1560 0.930 . S
C1574 C1572 1.395 . S
C1574 C1577 1.403 1_455 S
C1575 C1572 1.403 . S
C1575 C1576 1.524 . S
C1575 C1579 1.400 1_455 S
C1576 H1561 0.960 . S
C1576 H1562 0.960 . S
C1576 H1563 0.960 . S
C1576 C1575 1.524 . S
C1577 C1574 1.403 1_655 S
C1577 C1578 1.392 . S
C1577 C1581 1.495 . S
C1578 C1577 1.392 . S
C1578 C1579 1.385 . S
C1578 C1580 1.478 . S
C1579 H1573 0.930 . S
C1579 C1575 1.400 1_655 S
C1579 C1578 1.385 . S
C1580 C1578 1.478 . S
C1580 C1582 1.381 . S
C1580 C1586 1.383 . S
C1581 C1577 1.495 . S
C1581 H1587 0.959 . S
C1581 H1588 0.961 . S
C1581 H1589 0.960 . S
C1582 C1580 1.381 . S
C1582 C1583 1.394 . S
C1582 H1590 0.930 . S
C1583 C1582 1.394 . S
C1583 C1584 1.383 . S
C1583 H1591 0.929 . S
C1584 C1583 1.383 . S
C1584 C1585 1.377 . S
C1585 H1569 0.930 . S
C1585 C1584 1.377 . S
C1585 C1586 1.379 . S
C1586 H1570 0.931 . S
C1586 C1580 1.383 . S
C1586 C1585 1.379 . S
H1587 C1581 0.959 . S
H1588 C1581 0.961 . S
H1589 C1581 0.960 . S
H1590 C1582 0.930 . S
H1591 C1583 0.929 . S
H1592 C1600 0.929 . S
H1593 C1602 0.930 . S
H1594 C1604 0.930 . S
H1595 C1607 0.929 . S
H1596 C1610 0.930 . S
H1597 C1612 0.960 . S
H1598 C1612 0.960 . S
H1599 C1612 0.960 . S
C1600 H1592 0.929 . S
C1600 C1601 1.377 . S
C1600 C1602 1.384 . S
C1601 C1600 1.377 . S
C1601 C1607 1.390 . S
C1602 H1593 0.930 . S
C1602 C1600 1.384 . S
C1602 C1603 1.372 . S
C1603 C1602 1.372 . S
C1603 C1604 1.400 . S
C1603 C1608 1.490 . S
C1604 H1594 0.930 . S
C1604 C1603 1.400 . S
C1604 C1607 1.386 . S
H1605 C1621 0.930 . S
H1606 C1622 0.931 . S
C1607 H1595 0.929 . S
C1607 C1601 1.390 . S
C1607 C1604 1.386 . S
C1608 C1603 1.490 . S
C1608 C1610 1.395 . S
C1608 C1611 1.403 . S
H1609 C1615 0.930 . S
C1610 H1596 0.930 . S
C1610 C1608 1.395 . S
C1610 C1613 1.403 1_455 S
C1611 C1608 1.403 . S
C1611 C1612 1.524 . S
C1611 C1615 1.400 1_455 S
C1612 H1597 0.960 . S
C1612 H1598 0.960 . S
C1612 H1599 0.960 . S
C1612 C1611 1.524 . S
C1613 C1610 1.403 1_655 S
C1613 C1614 1.392 . S
C1613 C1617 1.495 . S
C1614 C1613 1.392 . S
C1614 C1615 1.385 . S
C1614 C1616 1.478 . S
C1615 H1609 0.930 . S
C1615 C1611 1.400 1_655 S
C1615 C1614 1.385 . S
C1616 C1614 1.478 . S
C1616 C1618 1.381 . S
C1616 C1622 1.383 . S
C1617 C1613 1.495 . S
C1617 H1623 0.959 . S
C1617 H1624 0.961 . S
C1617 H1625 0.960 . S
C1618 C1616 1.381 . S
C1618 C1619 1.394 . S
C1618 H1626 0.930 . S
C1619 C1618 1.394 . S
C1619 C1620 1.383 . S
C1619 H1627 0.929 . S
C1620 C1619 1.383 . S
C1620 C1621 1.377 . S
C1621 H1605 0.930 . S
C1621 C1620 1.377 . S
C1621 C1622 1.379 . S
C1622 H1606 0.931 . S
C1622 C1616 1.383 . S
C1622 C1621 1.379 . S
H1623 C1617 0.959 . S
H1624 C1617 0.961 . S
H1625 C1617 0.960 . S
H1626 C1618 0.930 . S
H1627 C1619 0.929 . S
H1628 C1636 0.929 . S
H1629 C1638 0.930 . S
H1630 C1640 0.930 . S
H1631 C1643 0.929 . S
H1632 C1646 0.930 . S
H1633 C1648 0.960 . S
H1634 C1648 0.960 . S
H1635 C1648 0.960 . S
C1636 H1628 0.929 . S
C1636 C1637 1.377 . S
C1636 C1638 1.384 . S
C1637 C1636 1.377 . S
C1637 C1643 1.390 . S
C1638 H1629 0.930 . S
C1638 C1636 1.384 . S
C1638 C1639 1.372 . S
C1639 C1638 1.372 . S
C1639 C1640 1.400 . S
C1639 C1644 1.490 . S
C1640 H1630 0.930 . S
C1640 C1639 1.400 . S
C1640 C1643 1.386 . S
H1641 C1657 0.930 . S
H1642 C1658 0.931 . S
C1643 H1631 0.929 . S
C1643 C1637 1.390 . S
C1643 C1640 1.386 . S
C1644 C1639 1.490 . S
C1644 C1646 1.395 . S
C1644 C1647 1.403 . S
H1645 C1651 0.930 . S
C1646 H1632 0.930 . S
C1646 C1644 1.395 . S
C1646 C1649 1.403 . S
C1647 C1644 1.403 . S
C1647 C1648 1.524 . S
C1647 C1651 1.400 . S
C1648 H1633 0.960 . S
C1648 H1634 0.960 . S
C1648 H1635 0.960 . S
C1648 C1647 1.524 . S
C1649 C1646 1.403 . S
C1649 C1650 1.392 . S
C1649 C1653 1.495 . S
C1650 C1649 1.392 . S
C1650 C1651 1.385 . S
C1650 C1652 1.478 . S
C1651 H1645 0.930 . S
C1651 C1647 1.400 . S
C1651 C1650 1.385 . S
C1652 C1650 1.478 . S
C1652 C1654 1.381 . S
C1652 C1658 1.383 . S
C1653 C1649 1.495 . S
C1653 H1659 0.959 . S
C1653 H1660 0.961 . S
C1653 H1661 0.960 . S
C1654 C1652 1.381 . S
C1654 C1655 1.394 . S
C1654 H1662 0.930 . S
C1655 C1654 1.394 . S
C1655 C1656 1.383 . S
C1655 H1663 0.929 . S
C1656 C1655 1.383 . S
C1656 C1657 1.377 . S
C1657 H1641 0.930 . S
C1657 C1656 1.377 . S
C1657 C1658 1.379 . S
C1658 H1642 0.931 . S
C1658 C1652 1.383 . S
C1658 C1657 1.379 . S
H1659 C1653 0.959 . S
H1660 C1653 0.961 . S
H1661 C1653 0.960 . S
H1662 C1654 0.930 . S
H1663 C1655 0.929 . S
H1664 C1672 0.929 . S
H1665 C1674 0.930 . S
H1666 C1676 0.930 . S
H1667 C1679 0.929 . S
H1668 C1682 0.930 . S
H1669 C1684 0.960 . S
H1670 C1684 0.960 . S
H1671 C1684 0.960 . S
C1672 H1664 0.929 . S
C1672 C1673 1.377 . S
C1672 C1674 1.384 . S
C1673 C1672 1.377 . S
C1673 C1679 1.390 . S
C1674 H1665 0.930 . S
C1674 C1672 1.384 . S
C1674 C1675 1.372 . S
C1675 C1674 1.372 . S
C1675 C1676 1.400 . S
C1675 C1680 1.490 . S
C1676 H1666 0.930 . S
C1676 C1675 1.400 . S
C1676 C1679 1.386 . S
H1677 C1693 0.930 . S
H1678 C1694 0.931 . S
C1679 H1667 0.929 . S
C1679 C1673 1.390 . S
C1679 C1676 1.386 . S
C1680 C1675 1.490 . S
C1680 C1682 1.395 . S
C1680 C1683 1.403 . S
H1681 C1687 0.930 . S
C1682 H1668 0.930 . S
C1682 C1680 1.395 . S
C1682 C1685 1.403 . S
C1683 C1680 1.403 . S
C1683 C1684 1.524 . S
C1683 C1687 1.400 . S
C1684 H1669 0.960 . S
C1684 H1670 0.960 . S
C1684 H1671 0.960 . S
C1684 C1683 1.524 . S
C1685 C1682 1.403 . S
C1685 C1686 1.392 . S
C1685 C1689 1.495 . S
C1686 C1685 1.392 . S
C1686 C1687 1.385 . S
C1686 C1688 1.478 . S
C1687 H1681 0.930 . S
C1687 C1683 1.400 . S
C1687 C1686 1.385 . S
C1688 C1686 1.478 . S
C1688 C1690 1.381 . S
C1688 C1694 1.383 . S
C1689 C1685 1.495 . S
C1689 H1695 0.959 . S
C1689 H1696 0.961 . S
C1689 H1697 0.960 . S
C1690 C1688 1.381 . S
C1690 C1691 1.394 . S
C1690 H1698 0.930 . S
C1691 C1690 1.394 . S
C1691 C1692 1.383 . S
C1691 H1699 0.929 . S
C1692 C1691 1.383 . S
C1692 C1693 1.377 . S
C1693 H1677 0.930 . S
C1693 C1692 1.377 . S
C1693 C1694 1.379 . S
C1694 H1678 0.931 . S
C1694 C1688 1.383 . S
C1694 C1693 1.379 . S
H1695 C1689 0.959 . S
H1696 C1689 0.961 . S
H1697 C1689 0.960 . S
H1698 C1690 0.930 . S
H1699 C1691 0.929 . S
H1700 C1708 0.929 . S
H1701 C1710 0.930 . S
H1702 C1712 0.930 . S
H1703 C1715 0.929 . S
H1704 C1718 0.930 . S
H1705 C1720 0.960 . S
H1706 C1720 0.960 . S
H1707 C1720 0.960 . S
C1708 H1700 0.929 . S
C1708 C1709 1.377 . S
C1708 C1710 1.384 . S
C1709 C1708 1.377 . S
C1709 C1715 1.390 . S
C1710 H1701 0.930 . S
C1710 C1708 1.384 . S
C1710 C1711 1.372 . S
C1711 C1710 1.372 . S
C1711 C1712 1.400 . S
C1711 C1716 1.490 . S
C1712 H1702 0.930 . S
C1712 C1711 1.400 . S
C1712 C1715 1.386 . S
H1713 C1729 0.930 . S
H1714 C1730 0.931 . S
C1715 H1703 0.929 . S
C1715 C1709 1.390 . S
C1715 C1712 1.386 . S
C1716 C1711 1.490 . S
C1716 C1718 1.395 . S
C1716 C1719 1.403 . S
H1717 C1723 0.930 . S
C1718 H1704 0.930 . S
C1718 C1716 1.395 . S
C1718 C1721 1.403 . S
C1719 C1716 1.403 . S
C1719 C1720 1.524 . S
C1719 C1723 1.400 . S
C1720 H1705 0.960 . S
C1720 H1706 0.960 . S
C1720 H1707 0.960 . S
C1720 C1719 1.524 . S
C1721 C1718 1.403 . S
C1721 C1722 1.392 . S
C1721 C1725 1.495 . S
C1722 C1721 1.392 . S
C1722 C1723 1.385 . S
C1722 C1724 1.478 . S
C1723 H1717 0.930 . S
C1723 C1719 1.400 . S
C1723 C1722 1.385 . S
C1724 C1722 1.478 . S
C1724 C1726 1.381 . S
C1724 C1730 1.383 . S
C1725 C1721 1.495 . S
C1725 H1731 0.959 . S
C1725 H1732 0.961 . S
C1725 H1733 0.960 . S
C1726 C1724 1.381 . S
C1726 C1727 1.394 . S
C1726 H1734 0.930 . S
C1727 C1726 1.394 . S
C1727 C1728 1.383 . S
C1727 H1735 0.929 . S
C1728 C1727 1.383 . S
C1728 C1729 1.377 . S
C1729 H1713 0.930 . S
C1729 C1728 1.377 . S
C1729 C1730 1.379 . S
C1730 H1714 0.931 . S
C1730 C1724 1.383 . S
C1730 C1729 1.379 . S
H1731 C1725 0.959 . S
H1732 C1725 0.961 . S
H1733 C1725 0.960 . S
H1734 C1726 0.930 . S
H1735 C1727 0.929 . S
H1736 C1744 0.929 . S
H1737 C1746 0.930 . S
H1738 C1748 0.930 . S
H1739 C1751 0.929 . S
H1740 C1754 0.930 . S
H1741 C1756 0.960 . S
H1742 C1756 0.960 . S
H1743 C1756 0.960 . S
C1744 H1736 0.929 . S
C1744 C1745 1.377 . S
C1744 C1746 1.384 . S
C1745 C1744 1.377 . S
C1745 C1751 1.390 . S
C1746 H1737 0.930 . S
C1746 C1744 1.384 . S
C1746 C1747 1.372 . S
C1747 C1746 1.372 . S
C1747 C1748 1.400 . S
C1747 C1752 1.490 . S
C1748 H1738 0.930 . S
C1748 C1747 1.400 . S
C1748 C1751 1.386 . S
H1749 C1765 0.930 . S
H1750 C1766 0.931 . S
C1751 H1739 0.929 . S
C1751 C1745 1.390 . S
C1751 C1748 1.386 . S
C1752 C1747 1.490 . S
C1752 C1754 1.395 . S
C1752 C1755 1.403 . S
H1753 C1759 0.930 . S
C1754 H1740 0.930 . S
C1754 C1752 1.395 . S
C1754 C1757 1.403 1_556 S
C1755 C1752 1.403 . S
C1755 C1756 1.524 . S
C1755 C1759 1.400 1_556 S
C1756 H1741 0.960 . S
C1756 H1742 0.960 . S
C1756 H1743 0.960 . S
C1756 C1755 1.524 . S
C1757 C1754 1.403 1_554 S
C1757 C1758 1.392 . S
C1757 C1761 1.495 . S
C1758 C1757 1.392 . S
C1758 C1759 1.385 . S
C1758 C1760 1.478 . S
C1759 H1753 0.930 . S
C1759 C1755 1.400 1_554 S
C1759 C1758 1.385 . S
C1760 C1758 1.478 . S
C1760 C1762 1.381 . S
C1760 C1766 1.383 . S
C1761 C1757 1.495 . S
C1761 H1767 0.959 . S
C1761 H1768 0.961 . S
C1761 H1769 0.960 . S
C1762 C1760 1.381 . S
C1762 C1763 1.394 . S
C1762 H1770 0.930 . S
C1763 C1762 1.394 . S
C1763 C1764 1.383 . S
C1763 H1771 0.929 . S
C1764 C1763 1.383 . S
C1764 C1765 1.377 . S
C1765 H1749 0.930 . S
C1765 C1764 1.377 . S
C1765 C1766 1.379 . S
C1766 H1750 0.931 . S
C1766 C1760 1.383 . S
C1766 C1765 1.379 . S
H1767 C1761 0.959 . S
H1768 C1761 0.961 . S
H1769 C1761 0.960 . S
H1770 C1762 0.930 . S
H1771 C1763 0.929 . S
H1772 C1780 0.929 1_556 S
H1773 C1782 0.930 . S
H1774 C1784 0.930 . S
H1775 C1787 0.929 . S
H1776 C1790 0.930 . S
H1777 C1792 0.960 . S
H1778 C1792 0.960 . S
H1779 C1792 0.960 . S
C1780 H1772 0.929 1_554 S
C1780 C1781 1.377 1_554 S
C1780 C1782 1.384 . S
C1781 C1780 1.377 1_556 S
C1781 C1787 1.390 1_556 S
C1782 H1773 0.930 . S
C1782 C1780 1.384 . S
C1782 C1783 1.372 . S
C1783 C1782 1.372 . S
C1783 C1784 1.400 . S
C1783 C1788 1.490 . S
C1784 H1774 0.930 . S
C1784 C1783 1.400 . S
C1784 C1787 1.386 . S
H1785 C1801 0.930 . S
H1786 C1802 0.931 . S
C1787 H1775 0.929 . S
C1787 C1781 1.390 1_554 S
C1787 C1784 1.386 . S
C1788 C1783 1.490 . S
C1788 C1790 1.395 . S
C1788 C1791 1.403 . S
H1789 C1795 0.930 . S
C1790 H1776 0.930 . S
C1790 C1788 1.395 . S
C1790 C1793 1.403 . S
C1791 C1788 1.403 . S
C1791 C1792 1.524 . S
C1791 C1795 1.400 . S
C1792 H1777 0.960 . S
C1792 H1778 0.960 . S
C1792 H1779 0.960 . S
C1792 C1791 1.524 . S
C1793 C1790 1.403 . S
C1793 C1794 1.392 . S
C1793 C1797 1.495 . S
C1794 C1793 1.392 . S
C1794 C1795 1.385 . S
C1794 C1796 1.478 . S
C1795 H1789 0.930 . S
C1795 C1791 1.400 . S
C1795 C1794 1.385 . S
C1796 C1794 1.478 . S
C1796 C1798 1.381 . S
C1796 C1802 1.383 . S
C1797 C1793 1.495 . S
C1797 H1803 0.959 . S
C1797 H1804 0.961 . S
C1797 H1805 0.960 . S
C1798 C1796 1.381 . S
C1798 C1799 1.394 . S
C1798 H1806 0.930 . S
C1799 C1798 1.394 . S
C1799 C1800 1.383 . S
C1799 H1807 0.929 . S
C1800 C1799 1.383 . S
C1800 C1801 1.377 . S
C1801 H1785 0.930 . S
C1801 C1800 1.377 . S
C1801 C1802 1.379 . S
C1802 H1786 0.931 . S
C1802 C1796 1.383 . S
C1802 C1801 1.379 . S
H1803 C1797 0.959 . S
H1804 C1797 0.961 . S
H1805 C1797 0.960 . S
H1806 C1798 0.930 . S
H1807 C1799 0.929 . S
H1808 C1816 0.929 . S
H1809 C1818 0.930 . S
H1810 C1820 0.930 . S
H1811 C1823 0.929 . S
H1812 C1826 0.930 . S
H1813 C1828 0.960 . S
H1814 C1828 0.960 . S
H1815 C1828 0.960 . S
C1816 H1808 0.929 . S
C1816 C1817 1.377 . S
C1816 C1818 1.384 . S
C1817 C1816 1.377 . S
C1817 C1823 1.390 . S
C1818 H1809 0.930 . S
C1818 C1816 1.384 . S
C1818 C1819 1.372 . S
C1819 C1818 1.372 . S
C1819 C1820 1.400 . S
C1819 C1824 1.490 . S
C1820 H1810 0.930 . S
C1820 C1819 1.400 . S
C1820 C1823 1.386 . S
H1821 C1837 0.930 . S
H1822 C1838 0.931 . S
C1823 H1811 0.929 . S
C1823 C1817 1.390 . S
C1823 C1820 1.386 . S
C1824 C1819 1.490 . S
C1824 C1826 1.395 . S
C1824 C1827 1.403 . S
H1825 C1831 0.930 . S
C1826 H1812 0.930 . S
C1826 C1824 1.395 . S
C1826 C1829 1.403 . S
C1827 C1824 1.403 . S
C1827 C1828 1.524 . S
C1827 C1831 1.400 . S
C1828 H1813 0.960 . S
C1828 H1814 0.960 . S
C1828 H1815 0.960 . S
C1828 C1827 1.524 . S
C1829 C1826 1.403 . S
C1829 C1830 1.392 . S
C1829 C1833 1.495 . S
C1830 C1829 1.392 . S
C1830 C1831 1.385 . S
C1830 C1832 1.478 . S
C1831 H1825 0.930 . S
C1831 C1827 1.400 . S
C1831 C1830 1.385 . S
C1832 C1830 1.478 . S
C1832 C1834 1.381 . S
C1832 C1838 1.383 . S
C1833 C1829 1.495 . S
C1833 H1839 0.959 . S
C1833 H1840 0.961 . S
C1833 H1841 0.960 . S
C1834 C1832 1.381 . S
C1834 C1835 1.394 . S
C1834 H1842 0.930 . S
C1835 C1834 1.394 . S
C1835 C1836 1.383 . S
C1835 H1843 0.929 . S
C1836 C1835 1.383 . S
C1836 C1837 1.377 . S
C1837 H1821 0.930 . S
C1837 C1836 1.377 . S
C1837 C1838 1.379 . S
C1838 H1822 0.931 . S
C1838 C1832 1.383 . S
C1838 C1837 1.379 . S
H1839 C1833 0.959 . S
H1840 C1833 0.961 . S
H1841 C1833 0.960 . S
H1842 C1834 0.930 . S
H1843 C1835 0.929 . S
H1844 C1852 0.929 . S
H1845 C1854 0.930 . S
H1846 C1856 0.930 . S
H1847 C1859 0.929 1_554 S
H1848 C1862 0.930 . S
H1849 C1864 0.960 . S
H1850 C1864 0.960 . S
H1851 C1864 0.960 . S
C1852 H1844 0.929 . S
C1852 C1853 1.377 1_556 S
C1852 C1854 1.384 . S
C1853 C1852 1.377 1_554 S
C1853 C1859 1.390 1_554 S
C1854 H1845 0.930 . S
C1854 C1852 1.384 . S
C1854 C1855 1.372 . S
C1855 C1854 1.372 . S
C1855 C1856 1.400 . S
C1855 C1860 1.490 . S
C1856 H1846 0.930 . S
C1856 C1855 1.400 . S
C1856 C1859 1.386 . S
H1857 C1873 0.930 . S
H1858 C1874 0.931 . S
C1859 H1847 0.929 1_556 S
C1859 C1853 1.390 1_556 S
C1859 C1856 1.386 . S
C1860 C1855 1.490 . S
C1860 C1862 1.395 . S
C1860 C1863 1.403 . S
H1861 C1867 0.930 . S
C1862 H1848 0.930 . S
C1862 C1860 1.395 . S
C1862 C1865 1.403 . S
C1863 C1860 1.403 . S
C1863 C1864 1.524 . S
C1863 C1867 1.400 . S
C1864 H1849 0.960 . S
C1864 H1850 0.960 . S
C1864 H1851 0.960 . S
C1864 C1863 1.524 . S
C1865 C1862 1.403 . S
C1865 C1866 1.392 . S
C1865 C1869 1.495 . S
C1866 C1865 1.392 . S
C1866 C1867 1.385 . S
C1866 C1868 1.478 . S
C1867 H1861 0.930 . S
C1867 C1863 1.400 . S
C1867 C1866 1.385 . S
C1868 C1866 1.478 . S
C1868 C1870 1.381 . S
C1868 C1874 1.383 . S
C1869 C1865 1.495 . S
C1869 H1875 0.959 . S
C1869 H1876 0.961 . S
C1869 H1877 0.960 . S
C1870 C1868 1.381 . S
C1870 C1871 1.394 . S
C1870 H1878 0.930 . S
C1871 C1870 1.394 . S
C1871 C1872 1.383 . S
C1871 H1879 0.929 . S
C1872 C1871 1.383 . S
C1872 C1873 1.377 . S
C1873 H1857 0.930 . S
C1873 C1872 1.377 . S
C1873 C1874 1.379 . S
C1874 H1858 0.931 . S
C1874 C1868 1.383 . S
C1874 C1873 1.379 . S
H1875 C1869 0.959 . S
H1876 C1869 0.961 . S
H1877 C1869 0.960 . S
H1878 C1870 0.930 . S
H1879 C1871 0.929 . S
H1880 C1888 0.929 . S
H1881 C1890 0.930 . S
H1882 C1892 0.930 . S
H1883 C1895 0.929 . S
H1884 C1898 0.930 . S
H1885 C1900 0.960 1_554 S
H1886 C1900 0.960 . S
H1887 C1900 0.960 . S
C1888 H1880 0.929 . S
C1888 C1889 1.377 . S
C1888 C1890 1.384 . S
C1889 C1888 1.377 . S
C1889 C1895 1.390 . S
C1890 H1881 0.930 . S
C1890 C1888 1.384 . S
C1890 C1891 1.372 . S
C1891 C1890 1.372 . S
C1891 C1892 1.400 . S
C1891 C1896 1.490 . S
C1892 H1882 0.930 . S
C1892 C1891 1.400 . S
C1892 C1895 1.386 . S
H1893 C1909 0.930 . S
H1894 C1910 0.931 . S
C1895 H1883 0.929 . S
C1895 C1889 1.390 . S
C1895 C1892 1.386 . S
C1896 C1891 1.490 . S
C1896 C1898 1.395 . S
C1896 C1899 1.403 . S
H1897 C1903 0.930 . S
C1898 H1884 0.930 . S
C1898 C1896 1.395 . S
C1898 C1901 1.403 1_556 S
C1899 C1896 1.403 . S
C1899 C1900 1.524 . S
C1899 C1903 1.400 1_556 S
C1900 H1885 0.960 1_556 S
C1900 H1886 0.960 . S
C1900 H1887 0.960 . S
C1900 C1899 1.524 . S
C1901 C1898 1.403 1_554 S
C1901 C1902 1.392 . S
C1901 C1905 1.495 . S
C1902 C1901 1.392 . S
C1902 C1903 1.385 . S
C1902 C1904 1.478 . S
C1903 H1897 0.930 . S
C1903 C1899 1.400 1_554 S
C1903 C1902 1.385 . S
C1904 C1902 1.478 . S
C1904 C1906 1.381 . S
C1904 C1910 1.383 . S
C1905 C1901 1.495 . S
C1905 H1911 0.959 . S
C1905 H1912 0.961 . S
C1905 H1913 0.960 . S
C1906 C1904 1.381 . S
C1906 C1907 1.394 . S
C1906 H1914 0.930 . S
C1907 C1906 1.394 . S
C1907 C1908 1.383 . S
C1907 H1915 0.929 . S
C1908 C1907 1.383 . S
C1908 C1909 1.377 . S
C1909 H1893 0.930 . S
C1909 C1908 1.377 . S
C1909 C1910 1.379 . S
C1910 H1894 0.931 . S
C1910 C1904 1.383 . S
C1910 C1909 1.379 . S
H1911 C1905 0.959 . S
H1912 C1905 0.961 . S
H1913 C1905 0.960 . S
H1914 C1906 0.930 . S
H1915 C1907 0.929 . S
H1916 C1924 0.929 . S
H1917 C1926 0.930 . S
H1918 C1928 0.930 . S
H1919 C1931 0.929 . S
H1920 C1934 0.930 . S
H1921 C1936 0.960 . S
H1922 C1936 0.960 . S
H1923 C1936 0.960 . S
C1924 H1916 0.929 . S
C1924 C1925 1.377 . S
C1924 C1926 1.384 . S
C1925 C1924 1.377 . S
C1925 C1931 1.390 . S
C1926 H1917 0.930 . S
C1926 C1924 1.384 . S
C1926 C1927 1.372 . S
C1927 C1926 1.372 . S
C1927 C1928 1.400 . S
C1927 C1932 1.490 . S
C1928 H1918 0.930 . S
C1928 C1927 1.400 . S
C1928 C1931 1.386 . S
H1929 C1945 0.930 . S
H1930 C1946 0.931 . S
C1931 H1919 0.929 . S
C1931 C1925 1.390 . S
C1931 C1928 1.386 . S
C1932 C1927 1.490 . S
C1932 C1934 1.395 . S
C1932 C1935 1.403 . S
H1933 C1939 0.930 . S
C1934 H1920 0.930 . S
C1934 C1932 1.395 . S
C1934 C1937 1.403 . S
C1935 C1932 1.403 . S
C1935 C1936 1.524 . S
C1935 C1939 1.400 . S
C1936 H1921 0.960 . S
C1936 H1922 0.960 . S
C1936 H1923 0.960 . S
C1936 C1935 1.524 . S
C1937 C1934 1.403 . S
C1937 C1938 1.392 . S
C1937 C1941 1.495 . S
C1938 C1937 1.392 . S
C1938 C1939 1.385 . S
C1938 C1940 1.478 . S
C1939 H1933 0.930 . S
C1939 C1935 1.400 . S
C1939 C1938 1.385 . S
C1940 C1938 1.478 . S
C1940 C1942 1.381 . S
C1940 C1946 1.383 . S
C1941 C1937 1.495 . S
C1941 H1947 0.959 . S
C1941 H1948 0.961 . S
C1941 H1949 0.960 . S
C1942 C1940 1.381 . S
C1942 C1943 1.394 . S
C1942 H1950 0.930 . S
C1943 C1942 1.394 . S
C1943 C1944 1.383 . S
C1943 H1951 0.929 . S
C1944 C1943 1.383 . S
C1944 C1945 1.377 . S
C1945 H1929 0.930 . S
C1945 C1944 1.377 . S
C1945 C1946 1.379 . S
C1946 H1930 0.931 . S
C1946 C1940 1.383 . S
C1946 C1945 1.379 . S
H1947 C1941 0.959 . S
H1948 C1941 0.961 . S
H1949 C1941 0.960 . S
H1950 C1942 0.930 . S
H1951 C1943 0.929 . S
H1952 C1960 0.929 . S
H1953 C1962 0.930 . S
H1954 C1964 0.930 . S
H1955 C1967 0.929 . S
H1956 C1970 0.930 . S
H1957 C1972 0.960 . S
H1958 C1972 0.960 . S
H1959 C1972 0.960 . S
C1960 H1952 0.929 . S
C1960 C1961 1.377 . S
C1960 C1962 1.384 . S
C1961 C1960 1.377 . S
C1961 C1967 1.390 . S
C1962 H1953 0.930 . S
C1962 C1960 1.384 . S
C1962 C1963 1.372 . S
C1963 C1962 1.372 . S
C1963 C1964 1.400 . S
C1963 C1968 1.490 . S
C1964 H1954 0.930 . S
C1964 C1963 1.400 . S
C1964 C1967 1.386 . S
H1965 C1981 0.930 . S
H1966 C1982 0.931 . S
C1967 H1955 0.929 . S
C1967 C1961 1.390 . S
C1967 C1964 1.386 . S
C1968 C1963 1.490 . S
C1968 C1970 1.395 . S
C1968 C1971 1.403 . S
H1969 C1975 0.930 . S
C1970 H1956 0.930 . S
C1970 C1968 1.395 . S
C1970 C1973 1.403 . S
C1971 C1968 1.403 . S
C1971 C1972 1.524 . S
C1971 C1975 1.400 . S
C1972 H1957 0.960 . S
C1972 H1958 0.960 . S
C1972 H1959 0.960 . S
C1972 C1971 1.524 . S
C1973 C1970 1.403 . S
C1973 C1974 1.392 . S
C1973 C1977 1.495 . S
C1974 C1973 1.392 . S
C1974 C1975 1.385 . S
C1974 C1976 1.478 . S
C1975 H1969 0.930 . S
C1975 C1971 1.400 . S
C1975 C1974 1.385 . S
C1976 C1974 1.478 . S
C1976 C1978 1.381 . S
C1976 C1982 1.383 . S
C1977 C1973 1.495 . S
C1977 H1983 0.959 . S
C1977 H1984 0.961 . S
C1977 H1985 0.960 . S
C1978 C1976 1.381 . S
C1978 C1979 1.394 . S
C1978 H1986 0.930 . S
C1979 C1978 1.394 . S
C1979 C1980 1.383 . S
C1979 H1987 0.929 . S
C1980 C1979 1.383 . S
C1980 C1981 1.377 . S
C1981 H1965 0.930 . S
C1981 C1980 1.377 . S
C1981 C1982 1.379 . S
C1982 H1966 0.931 . S
C1982 C1976 1.383 . S
C1982 C1981 1.379 . S
H1983 C1977 0.959 . S
H1984 C1977 0.961 . S
H1985 C1977 0.960 . S
H1986 C1978 0.930 . S
H1987 C1979 0.929 . S
H1988 C1996 0.929 . S
H1989 C1998 0.930 . S
H1990 C2000 0.930 . S
H1991 C2003 0.929 . S
H1992 C2006 0.930 . S
H1993 C2008 0.960 . S
H1994 C2008 0.960 . S
H1995 C2008 0.960 . S
C1996 H1988 0.929 . S
C1996 C1997 1.377 . S
C1996 C1998 1.384 . S
C1997 C1996 1.377 . S
C1997 C2003 1.390 . S
C1998 H1989 0.930 . S
C1998 C1996 1.384 . S
C1998 C1999 1.372 . S
C1999 C1998 1.372 . S
C1999 C2000 1.400 . S
C1999 C2004 1.490 . S
C2000 H1990 0.930 . S
C2000 C1999 1.400 . S
C2000 C2003 1.386 . S
H2001 C2017 0.930 . S
H2002 C2018 0.931 . S
C2003 H1991 0.929 . S
C2003 C1997 1.390 . S
C2003 C2000 1.386 . S
C2004 C1999 1.490 . S
C2004 C2006 1.395 . S
C2004 C2007 1.403 . S
H2005 C2011 0.930 . S
C2006 H1992 0.930 . S
C2006 C2004 1.395 . S
C2006 C2009 1.403 . S
C2007 C2004 1.403 . S
C2007 C2008 1.524 . S
C2007 C2011 1.400 . S
C2008 H1993 0.960 . S
C2008 H1994 0.960 . S
C2008 H1995 0.960 . S
C2008 C2007 1.524 . S
C2009 C2006 1.403 . S
C2009 C2010 1.392 . S
C2009 C2013 1.495 . S
C2010 C2009 1.392 . S
C2010 C2011 1.385 . S
C2010 C2012 1.478 . S
C2011 H2005 0.930 . S
C2011 C2007 1.400 . S
C2011 C2010 1.385 . S
C2012 C2010 1.478 . S
C2012 C2014 1.381 . S
C2012 C2018 1.383 . S
C2013 C2009 1.495 . S
C2013 H2019 0.959 . S
C2013 H2020 0.961 . S
C2013 H2021 0.960 . S
C2014 C2012 1.381 . S
C2014 C2015 1.394 . S
C2014 H2022 0.930 . S
C2015 C2014 1.394 . S
C2015 C2016 1.383 . S
C2015 H2023 0.929 . S
C2016 C2015 1.383 . S
C2016 C2017 1.377 . S
C2017 H2001 0.930 . S
C2017 C2016 1.377 . S
C2017 C2018 1.379 . S
C2018 H2002 0.931 . S
C2018 C2012 1.383 . S
C2018 C2017 1.379 . S
H2019 C2013 0.959 . S
H2020 C2013 0.961 . S
H2021 C2013 0.960 . S
H2022 C2014 0.930 . S
H2023 C2015 0.929 . S
H2024 C2032 0.929 . S
H2025 C2034 0.930 . S
H2026 C2036 0.930 . S
H2027 C2039 0.929 . S
H2028 C2042 0.930 . S
H2029 C2044 0.960 . S
H2030 C2044 0.960 . S
H2031 C2044 0.960 . S
C2032 H2024 0.929 . S
C2032 C2033 1.377 . S
C2032 C2034 1.384 . S
C2033 C2032 1.377 . S
C2033 C2039 1.390 . S
C2034 H2025 0.930 . S
C2034 C2032 1.384 . S
C2034 C2035 1.372 . S
C2035 C2034 1.372 . S
C2035 C2036 1.400 . S
C2035 C2040 1.490 . S
C2036 H2026 0.930 . S
C2036 C2035 1.400 . S
C2036 C2039 1.386 . S
H2037 C2053 0.930 . S
H2038 C2054 0.931 . S
C2039 H2027 0.929 . S
C2039 C2033 1.390 . S
C2039 C2036 1.386 . S
C2040 C2035 1.490 . S
C2040 C2042 1.395 . S
C2040 C2043 1.403 . S
H2041 C2047 0.930 . S
C2042 H2028 0.930 . S
C2042 C2040 1.395 . S
C2042 C2045 1.403 1_554 S
C2043 C2040 1.403 . S
C2043 C2044 1.524 . S
C2043 C2047 1.400 1_554 S
C2044 H2029 0.960 . S
C2044 H2030 0.960 . S
C2044 H2031 0.960 . S
C2044 C2043 1.524 . S
C2045 C2042 1.403 1_556 S
C2045 C2046 1.392 . S
C2045 C2049 1.495 . S
C2046 C2045 1.392 . S
C2046 C2047 1.385 . S
C2046 C2048 1.478 . S
C2047 H2041 0.930 . S
C2047 C2043 1.400 1_556 S
C2047 C2046 1.385 . S
C2048 C2046 1.478 . S
C2048 C2050 1.381 . S
C2048 C2054 1.383 . S
C2049 C2045 1.495 . S
C2049 H2055 0.959 1_556 S
C2049 H2056 0.961 . S
C2049 H2057 0.960 . S
C2050 C2048 1.381 . S
C2050 C2051 1.394 . S
C2050 H2058 0.930 . S
C2051 C2050 1.394 . S
C2051 C2052 1.383 . S
C2051 H2059 0.929 . S
C2052 C2051 1.383 . S
C2052 C2053 1.377 . S
C2053 H2037 0.930 . S
C2053 C2052 1.377 . S
C2053 C2054 1.379 . S
C2054 H2038 0.931 . S
C2054 C2048 1.383 . S
C2054 C2053 1.379 . S
H2055 C2049 0.959 1_554 S
H2056 C2049 0.961 . S
H2057 C2049 0.960 . S
H2058 C2050 0.930 . S
H2059 C2051 0.929 . S
H2060 C2068 0.929 1_554 S
H2061 C2070 0.930 . S
H2062 C2072 0.930 . S
H2063 C2075 0.929 . S
H2064 C2078 0.930 . S
H2065 C2080 0.960 . S
H2066 C2080 0.960 . S
H2067 C2080 0.960 . S
C2068 H2060 0.929 1_556 S
C2068 C2069 1.377 1_556 S
C2068 C2070 1.384 . S
C2069 C2068 1.377 1_554 S
C2069 C2075 1.390 1_554 S
C2070 H2061 0.930 . S
C2070 C2068 1.384 . S
C2070 C2071 1.372 . S
C2071 C2070 1.372 . S
C2071 C2072 1.400 . S
C2071 C2076 1.490 . S
C2072 H2062 0.930 . S
C2072 C2071 1.400 . S
C2072 C2075 1.386 . S
H2073 C2089 0.930 . S
H2074 C2090 0.931 . S
C2075 H2063 0.929 . S
C2075 C2069 1.390 1_556 S
C2075 C2072 1.386 . S
C2076 C2071 1.490 . S
C2076 C2078 1.395 . S
C2076 C2079 1.403 . S
H2077 C2083 0.930 . S
C2078 H2064 0.930 . S
C2078 C2076 1.395 . S
C2078 C2081 1.403 . S
C2079 C2076 1.403 . S
C2079 C2080 1.524 . S
C2079 C2083 1.400 . S
C2080 H2065 0.960 . S
C2080 H2066 0.960 . S
C2080 H2067 0.960 . S
C2080 C2079 1.524 . S
C2081 C2078 1.403 . S
C2081 C2082 1.392 . S
C2081 C2085 1.495 . S
C2082 C2081 1.392 . S
C2082 C2083 1.385 . S
C2082 C2084 1.478 . S
C2083 H2077 0.930 . S
C2083 C2079 1.400 . S
C2083 C2082 1.385 . S
C2084 C2082 1.478 . S
C2084 C2086 1.381 . S
C2084 C2090 1.383 . S
C2085 C2081 1.495 . S
C2085 H2091 0.959 . S
C2085 H2092 0.961 . S
C2085 H2093 0.960 . S
C2086 C2084 1.381 . S
C2086 C2087 1.394 . S
C2086 H2094 0.930 . S
C2087 C2086 1.394 . S
C2087 C2088 1.383 . S
C2087 H2095 0.929 . S
C2088 C2087 1.383 . S
C2088 C2089 1.377 . S
C2089 H2073 0.930 . S
C2089 C2088 1.377 . S
C2089 C2090 1.379 . S
C2090 H2074 0.931 . S
C2090 C2084 1.383 . S
C2090 C2089 1.379 . S
H2091 C2085 0.959 . S
H2092 C2085 0.961 . S
H2093 C2085 0.960 . S
H2094 C2086 0.930 . S
H2095 C2087 0.929 . S
H2096 C2104 0.929 . S
H2097 C2106 0.930 . S
H2098 C2108 0.930 . S
H2099 C2111 0.929 . S
H2100 C2114 0.930 . S
H2101 C2116 0.960 . S
H2102 C2116 0.960 . S
H2103 C2116 0.960 . S
C2104 H2096 0.929 . S
C2104 C2105 1.377 . S
C2104 C2106 1.384 . S
C2105 C2104 1.377 . S
C2105 C2111 1.390 . S
C2106 H2097 0.930 . S
C2106 C2104 1.384 . S
C2106 C2107 1.372 . S
C2107 C2106 1.372 . S
C2107 C2108 1.400 . S
C2107 C2112 1.490 . S
C2108 H2098 0.930 . S
C2108 C2107 1.400 . S
C2108 C2111 1.386 . S
H2109 C2125 0.930 . S
H2110 C2126 0.931 . S
C2111 H2099 0.929 . S
C2111 C2105 1.390 . S
C2111 C2108 1.386 . S
C2112 C2107 1.490 . S
C2112 C2114 1.395 . S
C2112 C2115 1.403 . S
H2113 C2119 0.930 . S
C2114 H2100 0.930 . S
C2114 C2112 1.395 . S
C2114 C2117 1.403 . S
C2115 C2112 1.403 . S
C2115 C2116 1.524 . S
C2115 C2119 1.400 . S
C2116 H2101 0.960 . S
C2116 H2102 0.960 . S
C2116 H2103 0.960 . S
C2116 C2115 1.524 . S
C2117 C2114 1.403 . S
C2117 C2118 1.392 . S
C2117 C2121 1.495 . S
C2118 C2117 1.392 . S
C2118 C2119 1.385 . S
C2118 C2120 1.478 . S
C2119 H2113 0.930 . S
C2119 C2115 1.400 . S
C2119 C2118 1.385 . S
C2120 C2118 1.478 . S
C2120 C2122 1.381 . S
C2120 C2126 1.383 . S
C2121 C2117 1.495 . S
C2121 H2127 0.959 . S
C2121 H2128 0.961 . S
C2121 H2129 0.960 . S
C2122 C2120 1.381 . S
C2122 C2123 1.394 . S
C2122 H2130 0.930 . S
C2123 C2122 1.394 . S
C2123 C2124 1.383 . S
C2123 H2131 0.929 . S
C2124 C2123 1.383 . S
C2124 C2125 1.377 . S
C2125 H2109 0.930 . S
C2125 C2124 1.377 . S
C2125 C2126 1.379 . S
C2126 H2110 0.931 . S
C2126 C2120 1.383 . S
C2126 C2125 1.379 . S
H2127 C2121 0.959 . S
H2128 C2121 0.961 . S
H2129 C2121 0.960 . S
H2130 C2122 0.930 . S
H2131 C2123 0.929 . S
H2132 C2140 0.929 . S
H2133 C2142 0.930 . S
H2134 C2144 0.930 . S
H2135 C2147 0.929 . S
H2136 C2150 0.930 . S
H2137 C2152 0.960 . S
H2138 C2152 0.960 . S
H2139 C2152 0.960 . S
C2140 H2132 0.929 . S
C2140 C2141 1.377 . S
C2140 C2142 1.384 . S
C2141 C2140 1.377 . S
C2141 C2147 1.390 . S
C2142 H2133 0.930 . S
C2142 C2140 1.384 . S
C2142 C2143 1.372 . S
C2143 C2142 1.372 . S
C2143 C2144 1.400 . S
C2143 C2148 1.490 . S
C2144 H2134 0.930 . S
C2144 C2143 1.400 . S
C2144 C2147 1.386 . S
H2145 C2161 0.930 . S
H2146 C2162 0.931 . S
C2147 H2135 0.929 . S
C2147 C2141 1.390 . S
C2147 C2144 1.386 . S
C2148 C2143 1.490 . S
C2148 C2150 1.395 . S
C2148 C2151 1.403 . S
H2149 C2155 0.930 . S
C2150 H2136 0.930 . S
C2150 C2148 1.395 . S
C2150 C2153 1.403 . S
C2151 C2148 1.403 . S
C2151 C2152 1.524 . S
C2151 C2155 1.400 . S
C2152 H2137 0.960 . S
C2152 H2138 0.960 . S
C2152 H2139 0.960 . S
C2152 C2151 1.524 . S
C2153 C2150 1.403 . S
C2153 C2154 1.392 . S
C2153 C2157 1.495 . S
C2154 C2153 1.392 . S
C2154 C2155 1.385 . S
C2154 C2156 1.478 . S
C2155 H2149 0.930 . S
C2155 C2151 1.400 . S
C2155 C2154 1.385 . S
C2156 C2154 1.478 . S
C2156 C2158 1.381 . S
C2156 C2162 1.383 . S
C2157 C2153 1.495 . S
C2157 H2163 0.959 . S
C2157 H2164 0.961 . S
C2157 H2165 0.960 . S
C2158 C2156 1.381 . S
C2158 C2159 1.394 . S
C2158 H2166 0.930 . S
C2159 C2158 1.394 . S
C2159 C2160 1.383 1_554 S
C2159 H2167 0.929 1_554 S
C2160 C2159 1.383 1_556 S
C2160 C2161 1.377 1_556 S
C2161 H2145 0.930 . S
C2161 C2160 1.377 1_554 S
C2161 C2162 1.379 . S
C2162 H2146 0.931 . S
C2162 C2156 1.383 . S
C2162 C2161 1.379 . S
H2163 C2157 0.959 . S
H2164 C2157 0.961 . S
H2165 C2157 0.960 . S
H2166 C2158 0.930 . S
H2167 C2159 0.929 1_556 S
H2168 C2176 0.929 . S
H2169 C2178 0.930 . S
H2170 C2180 0.930 . S
H2171 C2183 0.929 . S
H2172 C2186 0.930 . S
H2173 C2188 0.960 . S
H2174 C2188 0.960 . S
H2175 C2188 0.960 . S
C2176 H2168 0.929 . S
C2176 C2177 1.377 . S
C2176 C2178 1.384 . S
C2177 C2176 1.377 . S
C2177 C2183 1.390 . S
C2178 H2169 0.930 . S
C2178 C2176 1.384 . S
C2178 C2179 1.372 . S
C2179 C2178 1.372 . S
C2179 C2180 1.400 . S
C2179 C2184 1.490 . S
C2180 H2170 0.930 . S
C2180 C2179 1.400 . S
C2180 C2183 1.386 . S
H2181 C2197 0.930 . S
H2182 C2198 0.931 . S
C2183 H2171 0.929 . S
C2183 C2177 1.390 . S
C2183 C2180 1.386 . S
C2184 C2179 1.490 . S
C2184 C2186 1.395 . S
C2184 C2187 1.403 . S
H2185 C2191 0.930 . S
C2186 H2172 0.930 . S
C2186 C2184 1.395 . S
C2186 C2189 1.403 1_556 S
C2187 C2184 1.403 . S
C2187 C2188 1.524 . S
C2187 C2191 1.400 1_556 S
C2188 H2173 0.960 . S
C2188 H2174 0.960 . S
C2188 H2175 0.960 . S
C2188 C2187 1.524 . S
C2189 C2186 1.403 1_554 S
C2189 C2190 1.392 . S
C2189 C2193 1.495 . S
C2190 C2189 1.392 . S
C2190 C2191 1.385 . S
C2190 C2192 1.478 . S
C2191 H2185 0.930 . S
C2191 C2187 1.400 1_554 S
C2191 C2190 1.385 . S
C2192 C2190 1.478 . S
C2192 C2194 1.381 . S
C2192 C2198 1.383 . S
C2193 C2189 1.495 . S
C2193 H2199 0.959 . S
C2193 H2200 0.961 . S
C2193 H2201 0.960 . S
C2194 C2192 1.381 . S
C2194 C2195 1.394 . S
C2194 H2202 0.930 . S
C2195 C2194 1.394 . S
C2195 C2196 1.383 . S
C2195 H2203 0.929 . S
C2196 C2195 1.383 . S
C2196 C2197 1.377 . S
C2197 H2181 0.930 . S
C2197 C2196 1.377 . S
C2197 C2198 1.379 . S
C2198 H2182 0.931 . S
C2198 C2192 1.383 . S
C2198 C2197 1.379 . S
H2199 C2193 0.959 . S
H2200 C2193 0.961 . S
H2201 C2193 0.960 . S
H2202 C2194 0.930 . S
H2203 C2195 0.929 . S
H2204 C2212 0.929 . S
H2205 C2214 0.930 . S
H2206 C2216 0.930 . S
H2207 C2219 0.929 . S
H2208 C2222 0.930 . S
H2209 C2224 0.960 . S
H2210 C2224 0.960 . S
H2211 C2224 0.960 . S
C2212 H2204 0.929 . S
C2212 C2213 1.377 . S
C2212 C2214 1.384 . S
C2213 C2212 1.377 . S
C2213 C2219 1.390 . S
C2214 H2205 0.930 . S
C2214 C2212 1.384 . S
C2214 C2215 1.372 . S
C2215 C2214 1.372 . S
C2215 C2216 1.400 . S
C2215 C2220 1.490 . S
C2216 H2206 0.930 . S
C2216 C2215 1.400 . S
C2216 C2219 1.386 . S
H2217 C2233 0.930 . S
H2218 C2234 0.931 . S
C2219 H2207 0.929 . S
C2219 C2213 1.390 . S
C2219 C2216 1.386 . S
C2220 C2215 1.490 . S
C2220 C2222 1.395 . S
C2220 C2223 1.403 . S
H2221 C2227 0.930 . S
C2222 H2208 0.930 . S
C2222 C2220 1.395 . S
C2222 C2225 1.403 . S
C2223 C2220 1.403 . S
C2223 C2224 1.524 . S
C2223 C2227 1.400 . S
C2224 H2209 0.960 . S
C2224 H2210 0.960 . S
C2224 H2211 0.960 . S
C2224 C2223 1.524 . S
C2225 C2222 1.403 . S
C2225 C2226 1.392 . S
C2225 C2229 1.495 . S
C2226 C2225 1.392 . S
C2226 C2227 1.385 . S
C2226 C2228 1.478 . S
C2227 H2221 0.930 . S
C2227 C2223 1.400 . S
C2227 C2226 1.385 . S
C2228 C2226 1.478 . S
C2228 C2230 1.381 . S
C2228 C2234 1.383 . S
C2229 C2225 1.495 . S
C2229 H2235 0.959 . S
C2229 H2236 0.961 . S
C2229 H2237 0.960 . S
C2230 C2228 1.381 . S
C2230 C2231 1.394 . S
C2230 H2238 0.930 . S
C2231 C2230 1.394 . S
C2231 C2232 1.383 . S
C2231 H2239 0.929 . S
C2232 C2231 1.383 . S
C2232 C2233 1.377 . S
C2233 H2217 0.930 . S
C2233 C2232 1.377 . S
C2233 C2234 1.379 . S
C2234 H2218 0.931 . S
C2234 C2228 1.383 . S
C2234 C2233 1.379 . S
H2235 C2229 0.959 . S
H2236 C2229 0.961 . S
H2237 C2229 0.960 . S
H2238 C2230 0.930 . S
H2239 C2231 0.929 . S
H2240 C2248 0.929 . S
H2241 C2250 0.930 . S
H2242 C2252 0.930 . S
H2243 C2255 0.929 . S
H2244 C2258 0.930 . S
H2245 C2260 0.967 . S
H2246 C2260 0.960 . S
H2247 C2260 0.960 . S
C2248 H2240 0.929 . S
C2248 C2249 1.377 . S
C2248 C2250 1.384 . S
C2249 C2248 1.377 . S
C2249 C2255 1.390 . S
C2250 H2241 0.930 . S
C2250 C2248 1.384 . S
C2250 C2251 1.372 . S
C2251 C2250 1.372 . S
C2251 C2252 1.400 . S
C2251 C2256 1.490 . S
C2252 H2242 0.930 . S
C2252 C2251 1.400 . S
C2252 C2255 1.386 . S
H2253 C2269 0.930 . S
H2254 C2270 0.931 . S
C2255 H2243 0.929 . S
C2255 C2249 1.390 . S
C2255 C2252 1.386 . S
C2256 C2251 1.490 . S
C2256 C2258 1.395 . S
C2256 C2259 1.403 . S
H2257 C2263 0.930 . S
C2258 H2244 0.930 . S
C2258 C2256 1.395 . S
C2258 C2261 1.403 1_554 S
C2259 C2256 1.403 . S
C2259 C2260 1.524 . S
C2259 C2263 1.400 1_554 S
C2260 H2245 0.967 . S
C2260 H2246 0.960 . S
C2260 H2247 0.960 . S
C2260 C2259 1.524 . S
C2261 C2258 1.403 1_556 S
C2261 C2262 1.392 . S
C2261 C2265 1.495 . S
C2262 C2261 1.392 . S
C2262 C2263 1.385 . S
C2262 C2264 1.478 . S
C2263 H2257 0.930 . S
C2263 C2259 1.400 1_556 S
C2263 C2262 1.385 . S
C2264 C2262 1.478 . S
C2264 C2266 1.381 . S
C2264 C2270 1.383 . S
C2265 C2261 1.495 . S
C2265 H2271 0.959 . S
C2265 H2272 0.961 . S
C2265 H2273 0.960 . S
C2266 C2264 1.381 . S
C2266 C2267 1.394 . S
C2266 H2274 0.930 . S
C2267 C2266 1.394 . S
C2267 C2268 1.383 . S
C2267 H2275 0.929 . S
C2268 C2267 1.383 . S
C2268 C2269 1.377 . S
C2269 H2253 0.930 . S
C2269 C2268 1.377 . S
C2269 C2270 1.379 . S
C2270 H2254 0.931 . S
C2270 C2264 1.383 . S
C2270 C2269 1.379 . S
H2271 C2265 0.959 . S
H2272 C2265 0.961 . S
H2273 C2265 0.960 . S
H2274 C2266 0.930 . S
H2275 C2267 0.929 . S
H2276 C2284 0.929 1_556 S
H2277 C2286 0.930 . S
H2278 C2288 0.930 . S
H2279 C2291 0.929 . S
H2280 C2294 0.930 . S
H2281 C2296 0.960 . S
H2282 C2296 0.960 . S
H2283 C2296 0.960 . S
C2284 H2276 0.929 1_554 S
C2284 C2285 1.377 1_554 S
C2284 C2286 1.384 . S
C2285 C2284 1.377 1_556 S
C2285 C2291 1.390 1_556 S
C2286 H2277 0.930 . S
C2286 C2284 1.384 . S
C2286 C2287 1.372 . S
C2287 C2286 1.372 . S
C2287 C2288 1.400 . S
C2287 C2292 1.490 . S
C2288 H2278 0.930 . S
C2288 C2287 1.400 . S
C2288 C2291 1.386 . S
H2289 C2305 0.930 . S
H2290 C2306 0.931 . S
C2291 H2279 0.929 . S
C2291 C2285 1.390 1_554 S
C2291 C2288 1.386 . S
C2292 C2287 1.490 . S
C2292 C2294 1.395 . S
C2292 C2295 1.403 . S
H2293 C2299 0.930 . S
C2294 H2280 0.930 . S
C2294 C2292 1.395 . S
C2294 C2297 1.403 . S
C2295 C2292 1.403 . S
C2295 C2296 1.524 . S
C2295 C2299 1.400 . S
C2296 H2281 0.960 . S
C2296 H2282 0.960 . S
C2296 H2283 0.960 . S
C2296 C2295 1.524 . S
C2297 C2294 1.403 . S
C2297 C2298 1.392 . S
C2297 C2301 1.495 . S
C2298 C2297 1.392 . S
C2298 C2299 1.385 . S
C2298 C2300 1.478 . S
C2299 H2293 0.930 . S
C2299 C2295 1.400 . S
C2299 C2298 1.385 . S
C2300 C2298 1.478 . S
C2300 C2302 1.381 . S
C2300 C2306 1.383 . S
C2301 C2297 1.495 . S
C2301 H2307 0.959 . S
C2301 H2308 0.961 . S
C2301 H2309 0.960 . S
C2302 C2300 1.381 . S
C2302 C2303 1.394 . S
C2302 H2310 0.930 . S
C2303 C2302 1.394 . S
C2303 C2304 1.383 . S
C2303 H2311 0.929 . S
C2304 C2303 1.383 . S
C2304 C2305 1.377 . S
C2305 H2289 0.930 . S
C2305 C2304 1.377 . S
C2305 C2306 1.379 . S
C2306 H2290 0.931 . S
C2306 C2300 1.383 . S
C2306 C2305 1.379 . S
H2307 C2301 0.959 . S
H2308 C2301 0.961 . S
H2309 C2301 0.960 . S
H2310 C2302 0.930 . S
H2311 C2303 0.929 . S
H2312 C2320 0.929 . S
H2313 C2322 0.930 . S
H2314 C2324 0.930 . S
H2315 C2327 0.929 . S
H2316 C2330 0.930 . S
H2317 C2332 0.960 . S
H2318 C2332 0.960 . S
H2319 C2332 0.960 . S
C2320 H2312 0.929 . S
C2320 C2321 1.377 . S
C2320 C2322 1.384 . S
C2321 C2320 1.377 . S
C2321 C2327 1.390 . S
C2322 H2313 0.930 . S
C2322 C2320 1.384 . S
C2322 C2323 1.372 . S
C2323 C2322 1.372 . S
C2323 C2324 1.400 . S
C2323 C2328 1.490 . S
C2324 H2314 0.930 . S
C2324 C2323 1.400 . S
C2324 C2327 1.386 . S
H2325 C2341 0.930 . S
H2326 C2342 0.931 . S
C2327 H2315 0.929 . S
C2327 C2321 1.390 . S
C2327 C2324 1.386 . S
C2328 C2323 1.490 . S
C2328 C2330 1.395 . S
C2328 C2331 1.403 . S
H2329 C2335 0.930 . S
C2330 H2316 0.930 . S
C2330 C2328 1.395 . S
C2330 C2333 1.403 . S
C2331 C2328 1.403 . S
C2331 C2332 1.524 . S
C2331 C2335 1.400 . S
C2332 H2317 0.960 . S
C2332 H2318 0.960 . S
C2332 H2319 0.960 . S
C2332 C2331 1.524 . S
C2333 C2330 1.403 . S
C2333 C2334 1.392 . S
C2333 C2337 1.495 . S
C2334 C2333 1.392 . S
C2334 C2335 1.385 . S
C2334 C2336 1.478 . S
C2335 H2329 0.930 . S
C2335 C2331 1.400 . S
C2335 C2334 1.385 . S
C2336 C2334 1.478 . S
C2336 C2338 1.381 . S
C2336 C2342 1.383 . S
C2337 C2333 1.495 . S
C2337 H2343 0.959 . S
C2337 H2344 0.961 . S
C2337 H2345 0.960 . S
C2338 C2336 1.381 . S
C2338 C2339 1.394 . S
C2338 H2346 0.930 . S
C2339 C2338 1.394 . S
C2339 C2340 1.383 . S
C2339 H2347 0.929 . S
C2340 C2339 1.383 . S
C2340 C2341 1.377 . S
C2341 H2325 0.930 . S
C2341 C2340 1.377 . S
C2341 C2342 1.379 . S
C2342 H2326 0.931 . S
C2342 C2336 1.383 . S
C2342 C2341 1.379 . S
H2343 C2337 0.959 . S
H2344 C2337 0.961 . S
H2345 C2337 0.960 . S
H2346 C2338 0.930 . S
H2347 C2339 0.929 . S
H2348 C2356 0.929 . S
H2349 C2358 0.930 . S
H2350 C2360 0.930 . S
H2351 C2363 0.929 . S
H2352 C2366 0.930 . S
H2353 C2368 0.960 . S
H2354 C2368 0.960 . S
H2355 C2368 0.960 . S
C2356 H2348 0.929 . S
C2356 C2357 1.377 . S
C2356 C2358 1.384 . S
C2357 C2356 1.377 . S
C2357 C2363 1.390 . S
C2358 H2349 0.930 . S
C2358 C2356 1.384 . S
C2358 C2359 1.372 . S
C2359 C2358 1.372 . S
C2359 C2360 1.400 . S
C2359 C2364 1.490 . S
C2360 H2350 0.930 . S
C2360 C2359 1.400 . S
C2360 C2363 1.386 . S
H2361 C2377 0.930 . S
H2362 C2378 0.931 . S
C2363 H2351 0.929 . S
C2363 C2357 1.390 . S
C2363 C2360 1.386 . S
C2364 C2359 1.490 . S
C2364 C2366 1.395 . S
C2364 C2367 1.403 . S
H2365 C2371 0.930 . S
C2366 H2352 0.930 . S
C2366 C2364 1.395 . S
C2366 C2369 1.403 . S
C2367 C2364 1.403 . S
C2367 C2368 1.524 . S
C2367 C2371 1.400 . S
C2368 H2353 0.960 . S
C2368 H2354 0.960 . S
C2368 H2355 0.960 . S
C2368 C2367 1.524 . S
C2369 C2366 1.403 . S
C2369 C2370 1.392 . S
C2369 C2373 1.495 . S
C2370 C2369 1.392 . S
C2370 C2371 1.385 . S
C2370 C2372 1.478 . S
C2371 H2365 0.930 . S
C2371 C2367 1.400 . S
C2371 C2370 1.385 . S
C2372 C2370 1.478 . S
C2372 C2374 1.381 . S
C2372 C2378 1.383 . S
C2373 C2369 1.495 . S
C2373 H2379 0.959 . S
C2373 H2380 0.961 . S
C2373 H2381 0.960 . S
C2374 C2372 1.381 . S
C2374 C2375 1.394 . S
C2374 H2382 0.930 . S
C2375 C2374 1.394 . S
C2375 C2376 1.383 . S
C2375 H2383 0.929 . S
C2376 C2375 1.383 . S
C2376 C2377 1.377 . S
C2377 H2361 0.930 . S
C2377 C2376 1.377 . S
C2377 C2378 1.379 . S
C2378 H2362 0.931 . S
C2378 C2372 1.383 . S
C2378 C2377 1.379 . S
H2379 C2373 0.959 . S
H2380 C2373 0.961 . S
H2381 C2373 0.960 . S
H2382 C2374 0.930 . S
H2383 C2375 0.929 . S
H2384 C2392 0.929 . S
H2385 C2394 0.930 . S
H2386 C2396 0.930 . S
H2387 C2399 0.929 . S
H2388 C2402 0.930 . S
H2389 C2404 0.960 . S
H2390 C2404 0.960 . S
H2391 C2404 0.960 . S
C2392 H2384 0.929 . S
C2392 C2393 1.377 . S
C2392 C2394 1.384 . S
C2393 C2392 1.377 . S
C2393 C2399 1.390 . S
C2394 H2385 0.930 . S
C2394 C2392 1.384 . S
C2394 C2395 1.372 . S
C2395 C2394 1.372 . S
C2395 C2396 1.400 . S
C2395 C2400 1.490 . S
C2396 H2386 0.930 . S
C2396 C2395 1.400 . S
C2396 C2399 1.386 . S
H2397 C2413 0.930 . S
H2398 C2414 0.931 . S
C2399 H2387 0.929 . S
C2399 C2393 1.390 . S
C2399 C2396 1.386 . S
C2400 C2395 1.490 . S
C2400 C2402 1.395 . S
C2400 C2403 1.403 . S
H2401 C2407 0.930 . S
C2402 H2388 0.930 . S
C2402 C2400 1.395 . S
C2402 C2405 1.403 1_556 S
C2403 C2400 1.403 . S
C2403 C2404 1.524 . S
C2403 C2407 1.400 1_556 S
C2404 H2389 0.960 . S
C2404 H2390 0.960 . S
C2404 H2391 0.960 . S
C2404 C2403 1.524 . S
C2405 C2402 1.403 1_554 S
C2405 C2406 1.392 . S
C2405 C2409 1.495 . S
C2406 C2405 1.392 . S
C2406 C2407 1.385 . S
C2406 C2408 1.478 . S
C2407 H2401 0.930 . S
C2407 C2403 1.400 1_554 S
C2407 C2406 1.385 . S
C2408 C2406 1.478 . S
C2408 C2410 1.381 . S
C2408 C2414 1.383 . S
C2409 C2405 1.495 . S
C2409 H2415 0.959 . S
C2409 H2416 0.961 . S
C2409 H2417 0.960 . S
C2410 C2408 1.381 . S
C2410 C2411 1.394 . S
C2410 H2418 0.930 . S
C2411 C2410 1.394 . S
C2411 C2412 1.383 . S
C2411 H2419 0.929 . S
C2412 C2411 1.383 . S
C2412 C2413 1.377 . S
C2413 H2397 0.930 . S
C2413 C2412 1.377 . S
C2413 C2414 1.379 . S
C2414 H2398 0.931 . S
C2414 C2408 1.383 . S
C2414 C2413 1.379 . S
H2415 C2409 0.959 . S
H2416 C2409 0.961 . S
H2417 C2409 0.960 . S
H2418 C2410 0.930 . S
H2419 C2411 0.929 . S
H2420 C2428 0.929 . S
H2421 C2430 0.930 . S
H2422 C2432 0.930 . S
H2423 C2435 0.929 . S
H2424 C2438 0.930 . S
H2425 C2440 0.960 . S
H2426 C2440 0.960 . S
H2427 C2440 0.960 . S
C2428 H2420 0.929 . S
C2428 C2429 1.377 . S
C2428 C2430 1.384 . S
C2429 C2428 1.377 . S
C2429 C2435 1.390 . S
C2430 H2421 0.930 . S
C2430 C2428 1.384 . S
C2430 C2431 1.372 . S
C2431 C2430 1.372 . S
C2431 C2432 1.400 . S
C2431 C2436 1.490 . S
C2432 H2422 0.930 . S
C2432 C2431 1.400 . S
C2432 C2435 1.386 . S
H2433 C2449 0.930 . S
H2434 C2450 0.931 . S
C2435 H2423 0.929 . S
C2435 C2429 1.390 . S
C2435 C2432 1.386 . S
C2436 C2431 1.490 . S
C2436 C2438 1.395 . S
C2436 C2439 1.403 . S
H2437 C2443 0.930 . S
C2438 H2424 0.930 . S
C2438 C2436 1.395 . S
C2438 C2441 1.403 . S
C2439 C2436 1.403 . S
C2439 C2440 1.524 . S
C2439 C2443 1.400 . S
C2440 H2425 0.960 . S
C2440 H2426 0.960 . S
C2440 H2427 0.960 . S
C2440 C2439 1.524 . S
C2441 C2438 1.403 . S
C2441 C2442 1.392 . S
C2441 C2445 1.495 . S
C2442 C2441 1.392 . S
C2442 C2443 1.385 . S
C2442 C2444 1.478 . S
C2443 H2437 0.930 . S
C2443 C2439 1.400 . S
C2443 C2442 1.385 . S
C2444 C2442 1.478 . S
C2444 C2446 1.381 . S
C2444 C2450 1.383 . S
C2445 C2441 1.495 . S
C2445 H2451 0.959 . S
C2445 H2452 0.961 . S
C2445 H2453 0.960 . S
C2446 C2444 1.381 . S
C2446 C2447 1.394 . S
C2446 H2454 0.930 . S
C2447 C2446 1.394 . S
C2447 C2448 1.383 . S
C2447 H2455 0.929 . S
C2448 C2447 1.383 . S
C2448 C2449 1.377 . S
C2449 H2433 0.930 . S
C2449 C2448 1.377 . S
C2449 C2450 1.379 . S
C2450 H2434 0.931 . S
C2450 C2444 1.383 . S
C2450 C2449 1.379 . S
H2451 C2445 0.959 . S
H2452 C2445 0.961 . S
H2453 C2445 0.960 . S
H2454 C2446 0.930 . S
H2455 C2447 0.929 . S
H2456 C2464 0.929 . S
H2457 C2466 0.930 . S
H2458 C2468 0.930 . S
H2459 C2471 0.929 . S
H2460 C2474 0.930 . S
H2461 C2476 0.960 . S
H2462 C2476 0.960 . S
H2463 C2476 0.960 . S
C2464 H2456 0.929 . S
C2464 C2465 1.377 . S
C2464 C2466 1.384 . S
C2465 C2464 1.377 . S
C2465 C2471 1.390 . S
C2466 H2457 0.930 . S
C2466 C2464 1.384 . S
C2466 C2467 1.372 . S
C2467 C2466 1.372 . S
C2467 C2468 1.400 . S
C2467 C2472 1.490 . S
C2468 H2458 0.930 . S
C2468 C2467 1.400 . S
C2468 C2471 1.386 . S
H2469 C2485 0.930 . S
H2470 C2486 0.931 . S
C2471 H2459 0.929 . S
C2471 C2465 1.390 . S
C2471 C2468 1.386 . S
C2472 C2467 1.490 . S
C2472 C2474 1.395 . S
C2472 C2475 1.403 . S
H2473 C2479 0.930 . S
C2474 H2460 0.930 . S
C2474 C2472 1.395 . S
C2474 C2477 1.403 . S
C2475 C2472 1.403 . S
C2475 C2476 1.524 . S
C2475 C2479 1.400 . S
C2476 H2461 0.960 . S
C2476 H2462 0.960 . S
C2476 H2463 0.960 . S
C2476 C2475 1.524 . S
C2477 C2474 1.403 . S
C2477 C2478 1.392 . S
C2477 C2481 1.495 . S
C2478 C2477 1.392 . S
C2478 C2479 1.385 . S
C2478 C2480 1.478 . S
C2479 H2473 0.930 . S
C2479 C2475 1.400 . S
C2479 C2478 1.385 . S
C2480 C2478 1.478 . S
C2480 C2482 1.381 . S
C2480 C2486 1.383 . S
C2481 C2477 1.495 . S
C2481 H2487 0.959 . S
C2481 H2488 0.961 . S
C2481 H2489 0.960 . S
C2482 C2480 1.381 . S
C2482 C2483 1.394 . S
C2482 H2490 0.930 . S
C2483 C2482 1.394 . S
C2483 C2484 1.383 . S
C2483 H2491 0.929 . S
C2484 C2483 1.383 . S
C2484 C2485 1.377 . S
C2485 H2469 0.930 . S
C2485 C2484 1.377 . S
C2485 C2486 1.379 . S
C2486 H2470 0.931 . S
C2486 C2480 1.383 . S
C2486 C2485 1.379 . S
H2487 C2481 0.959 . S
H2488 C2481 0.961 . S
H2489 C2481 0.960 . S
H2490 C2482 0.930 . S
H2491 C2483 0.929 . S
H2492 C2500 0.929 . S
H2493 C2502 0.930 . S
H2494 C2504 0.930 . S
H2495 C2507 0.929 . S
H2496 C2510 0.930 . S
H2497 C2512 0.960 . S
H2498 C2512 0.960 . S
H2499 C2512 0.960 . S
C2500 H2492 0.929 . S
C2500 C2501 1.377 . S
C2500 C2502 1.384 . S
C2501 C2500 1.377 . S
C2501 C2507 1.390 . S
C2502 H2493 0.930 . S
C2502 C2500 1.384 . S
C2502 C2503 1.372 . S
C2503 C2502 1.372 . S
C2503 C2504 1.400 . S
C2503 C2508 1.490 . S
C2504 H2494 0.930 . S
C2504 C2503 1.400 . S
C2504 C2507 1.386 . S
H2505 C2521 0.930 1_554 S
H2506 C2522 0.931 . S
C2507 H2495 0.929 . S
C2507 C2501 1.390 . S
C2507 C2504 1.386 . S
C2508 C2503 1.490 . S
C2508 C2510 1.395 . S
C2508 C2511 1.403 . S
H2509 C2515 0.930 . S
C2510 H2496 0.930 . S
C2510 C2508 1.395 . S
C2510 C2513 1.403 . S
C2511 C2508 1.403 . S
C2511 C2512 1.524 . S
C2511 C2515 1.400 . S
C2512 H2497 0.960 . S
C2512 H2498 0.960 . S
C2512 H2499 0.960 . S
C2512 C2511 1.524 . S
C2513 C2510 1.403 . S
C2513 C2514 1.392 . S
C2513 C2517 1.495 . S
C2514 C2513 1.392 . S
C2514 C2515 1.385 . S
C2514 C2516 1.478 . S
C2515 H2509 0.930 . S
C2515 C2511 1.400 . S
C2515 C2514 1.385 . S
C2516 C2514 1.478 . S
C2516 C2518 1.381 . S
C2516 C2522 1.383 . S
C2517 C2513 1.495 . S
C2517 H2523 0.959 . S
C2517 H2524 0.961 . S
C2517 H2525 0.960 . S
C2518 C2516 1.381 . S
C2518 C2519 1.394 . S
C2518 H2526 0.930 . S
C2519 C2518 1.394 . S
C2519 C2520 1.383 1_556 S
C2519 H2527 0.929 . S
C2520 C2519 1.383 1_554 S
C2520 C2521 1.377 1_554 S
C2521 H2505 0.930 1_556 S
C2521 C2520 1.377 1_556 S
C2521 C2522 1.379 . S
C2522 H2506 0.931 . S
C2522 C2516 1.383 . S
C2522 C2521 1.379 . S
H2523 C2517 0.959 . S
H2524 C2517 0.961 . S
H2525 C2517 0.960 . S
H2526 C2518 0.930 . S
H2527 C2519 0.929 . S
H2528 C2536 0.929 . S
H2529 C2538 0.930 . S
H2530 C2540 0.930 . S
H2531 C2543 0.929 . S
H2532 C2546 0.930 . S
H2533 C2548 0.960 . S
H2534 C2548 0.960 . S
H2535 C2548 0.960 . S
C2536 H2528 0.929 . S
C2536 C2537 1.377 . S
C2536 C2538 1.384 . S
C2537 C2536 1.377 . S
C2537 C2543 1.390 . S
C2538 H2529 0.930 . S
C2538 C2536 1.384 . S
C2538 C2539 1.372 . S
C2539 C2538 1.372 . S
C2539 C2540 1.400 . S
C2539 C2544 1.490 . S
C2540 H2530 0.930 . S
C2540 C2539 1.400 . S
C2540 C2543 1.386 . S
H2541 C2557 0.930 . S
H2542 C2558 0.931 . S
C2543 H2531 0.929 . S
C2543 C2537 1.390 . S
C2543 C2540 1.386 . S
C2544 C2539 1.490 . S
C2544 C2546 1.395 . S
C2544 C2547 1.403 . S
H2545 C2551 0.930 . S
C2546 H2532 0.930 . S
C2546 C2544 1.395 . S
C2546 C2549 1.403 1_556 S
C2547 C2544 1.403 . S
C2547 C2548 1.524 . S
C2547 C2551 1.400 1_556 S
C2548 H2533 0.960 . S
C2548 H2534 0.960 . S
C2548 H2535 0.960 . S
C2548 C2547 1.524 . S
C2549 C2546 1.403 1_554 S
C2549 C2550 1.392 . S
C2549 C2553 1.495 . S
C2550 C2549 1.392 . S
C2550 C2551 1.385 . S
C2550 C2552 1.478 . S
C2551 H2545 0.930 . S
C2551 C2547 1.400 1_554 S
C2551 C2550 1.385 . S
C2552 C2550 1.478 . S
C2552 C2554 1.381 . S
C2552 C2558 1.383 . S
C2553 C2549 1.495 . S
C2553 H2559 0.959 . S
C2553 H2560 0.961 . S
C2553 H2561 0.960 . S
C2554 C2552 1.381 . S
C2554 C2555 1.394 . S
C2554 H2562 0.930 . S
C2555 C2554 1.394 . S
C2555 C2556 1.383 . S
C2555 H2563 0.929 . S
C2556 C2555 1.383 . S
C2556 C2557 1.377 . S
C2557 H2541 0.930 . S
C2557 C2556 1.377 . S
C2557 C2558 1.379 . S
C2558 H2542 0.931 . S
C2558 C2552 1.383 . S
C2558 C2557 1.379 . S
H2559 C2553 0.959 . S
H2560 C2553 0.961 . S
H2561 C2553 0.960 . S
H2562 C2554 0.930 . S
H2563 C2555 0.929 . S
H2564 C2572 0.929 . S
H2565 C2574 0.930 . S
H2566 C2576 0.930 . S
H2567 C2579 0.929 . S
H2568 C2582 0.930 . S
H2569 C2584 0.960 . S
H2570 C2584 0.960 . S
H2571 C2584 0.960 . S
C2572 H2564 0.929 . S
C2572 C2573 1.377 . S
C2572 C2574 1.384 . S
C2573 C2572 1.377 . S
C2573 C2579 1.390 . S
C2574 H2565 0.930 . S
C2574 C2572 1.384 . S
C2574 C2575 1.372 . S
C2575 C2574 1.372 . S
C2575 C2576 1.400 . S
C2575 C2580 1.490 . S
C2576 H2566 0.930 . S
C2576 C2575 1.400 . S
C2576 C2579 1.386 . S
H2577 C2593 0.930 . S
H2578 C2594 0.931 . S
C2579 H2567 0.929 . S
C2579 C2573 1.390 . S
C2579 C2576 1.386 . S
C2580 C2575 1.490 . S
C2580 C2582 1.395 . S
C2580 C2583 1.403 . S
H2581 C2587 0.930 . S
C2582 H2568 0.930 . S
C2582 C2580 1.395 . S
C2582 C2585 1.403 . S
C2583 C2580 1.403 . S
C2583 C2584 1.524 . S
C2583 C2587 1.400 . S
C2584 H2569 0.960 . S
C2584 H2570 0.960 . S
C2584 H2571 0.960 . S
C2584 C2583 1.524 . S
C2585 C2582 1.403 . S
C2585 C2586 1.392 . S
C2585 C2589 1.495 . S
C2586 C2585 1.392 . S
C2586 C2587 1.385 . S
C2586 C2588 1.478 . S
C2587 H2581 0.930 . S
C2587 C2583 1.400 . S
C2587 C2586 1.385 . S
C2588 C2586 1.478 . S
C2588 C2590 1.381 . S
C2588 C2594 1.383 . S
C2589 C2585 1.495 . S
C2589 H2595 0.959 . S
C2589 H2596 0.961 . S
C2589 H2597 0.960 . S
C2590 C2588 1.381 . S
C2590 C2591 1.394 . S
C2590 H2598 0.930 . S
C2591 C2590 1.394 . S
C2591 C2592 1.383 1_556 S
C2591 H2599 0.929 1_556 S
C2592 C2591 1.383 1_554 S
C2592 C2593 1.377 1_554 S
C2593 H2577 0.930 . S
C2593 C2592 1.377 1_556 S
C2593 C2594 1.379 . S
C2594 H2578 0.931 . S
C2594 C2588 1.383 . S
C2594 C2593 1.379 . S
H2595 C2589 0.959 . S
H2596 C2589 0.961 . S
H2597 C2589 0.960 . S
H2598 C2590 0.930 . S
H2599 C2591 0.929 1_554 S
H2600 C2608 0.929 . S
H2601 C2610 0.930 . S
H2602 C2612 0.930 . S
H2603 C2615 0.929 . S
H2604 C2618 0.930 . S
H2605 C2620 0.960 . S
H2606 C2620 0.960 . S
H2607 C2620 0.960 . S
C2608 H2600 0.929 . S
C2608 C2609 1.377 . S
C2608 C2610 1.384 . S
C2609 C2608 1.377 . S
C2609 C2615 1.390 . S
C2610 H2601 0.930 . S
C2610 C2608 1.384 . S
C2610 C2611 1.372 . S
C2611 C2610 1.372 . S
C2611 C2612 1.400 . S
C2611 C2616 1.490 . S
C2612 H2602 0.930 . S
C2612 C2611 1.400 . S
C2612 C2615 1.386 . S
H2613 C2629 0.930 . S
H2614 C2630 0.931 . S
C2615 H2603 0.929 . S
C2615 C2609 1.390 . S
C2615 C2612 1.386 . S
C2616 C2611 1.490 . S
C2616 C2618 1.395 . S
C2616 C2619 1.403 . S
H2617 C2623 0.930 . S
C2618 H2604 0.930 . S
C2618 C2616 1.395 . S
C2618 C2621 1.403 . S
C2619 C2616 1.403 . S
C2619 C2620 1.524 . S
C2619 C2623 1.400 . S
C2620 H2605 0.960 . S
C2620 H2606 0.960 . S
C2620 H2607 0.960 . S
C2620 C2619 1.524 . S
C2621 C2618 1.403 . S
C2621 C2622 1.392 . S
C2621 C2625 1.495 . S
C2622 C2621 1.392 . S
C2622 C2623 1.385 . S
C2622 C2624 1.478 . S
C2623 H2617 0.930 . S
C2623 C2619 1.400 . S
C2623 C2622 1.385 . S
C2624 C2622 1.478 . S
C2624 C2626 1.381 . S
C2624 C2630 1.383 . S
C2625 C2621 1.495 . S
C2625 H2631 0.959 . S
C2625 H2632 0.961 . S
C2625 H2633 0.960 . S
C2626 C2624 1.381 . S
C2626 C2627 1.394 . S
C2626 H2634 0.930 . S
C2627 C2626 1.394 . S
C2627 C2628 1.383 . S
C2627 H2635 0.929 . S
C2628 C2627 1.383 . S
C2628 C2629 1.377 . S
C2629 H2613 0.930 . S
C2629 C2628 1.377 . S
C2629 C2630 1.379 . S
C2630 H2614 0.931 . S
C2630 C2624 1.383 . S
C2630 C2629 1.379 . S
H2631 C2625 0.959 . S
H2632 C2625 0.961 . S
H2633 C2625 0.960 . S
H2634 C2626 0.930 . S
H2635 C2627 0.929 . S
H2636 C2644 0.929 . S
H2637 C2646 0.930 . S
H2638 C2648 0.930 . S
H2639 C2651 0.929 . S
H2640 C2654 0.930 . S
H2641 C2656 0.960 . S
H2642 C2656 0.960 . S
H2643 C2656 0.960 . S
C2644 H2636 0.929 . S
C2644 C2645 1.377 . S
C2644 C2646 1.384 . S
C2645 C2644 1.377 . S
C2645 C2651 1.390 . S
C2646 H2637 0.930 . S
C2646 C2644 1.384 . S
C2646 C2647 1.372 . S
C2647 C2646 1.372 . S
C2647 C2648 1.400 . S
C2647 C2652 1.490 . S
C2648 H2638 0.930 . S
C2648 C2647 1.400 . S
C2648 C2651 1.386 . S
H2649 C2665 0.930 . S
H2650 C2666 0.931 . S
C2651 H2639 0.929 . S
C2651 C2645 1.390 . S
C2651 C2648 1.386 . S
C2652 C2647 1.490 . S
C2652 C2654 1.395 . S
C2652 C2655 1.403 . S
H2653 C2659 0.930 . S
C2654 H2640 0.930 . S
C2654 C2652 1.395 . S
C2654 C2657 1.403 . S
C2655 C2652 1.403 . S
C2655 C2656 1.524 . S
C2655 C2659 1.400 . S
C2656 H2641 0.960 . S
C2656 H2642 0.960 . S
C2656 H2643 0.960 . S
C2656 C2655 1.524 . S
C2657 C2654 1.403 . S
C2657 C2658 1.392 . S
C2657 C2661 1.495 . S
C2658 C2657 1.392 . S
C2658 C2659 1.385 . S
C2658 C2660 1.478 . S
C2659 H2653 0.930 . S
C2659 C2655 1.400 . S
C2659 C2658 1.385 . S
C2660 C2658 1.478 . S
C2660 C2662 1.381 . S
C2660 C2666 1.383 . S
C2661 C2657 1.495 . S
C2661 H2667 0.959 . S
C2661 H2668 0.961 . S
C2661 H2669 0.960 . S
C2662 C2660 1.381 . S
C2662 C2663 1.394 . S
C2662 H2670 0.930 . S
C2663 C2662 1.394 . S
C2663 C2664 1.383 . S
C2663 H2671 0.929 . S
C2664 C2663 1.383 . S
C2664 C2665 1.377 . S
C2665 H2649 0.930 . S
C2665 C2664 1.377 . S
C2665 C2666 1.379 . S
C2666 H2650 0.931 . S
C2666 C2660 1.383 . S
C2666 C2665 1.379 . S
H2667 C2661 0.959 . S
H2668 C2661 0.961 . S
H2669 C2661 0.960 . S
H2670 C2662 0.930 . S
H2671 C2663 0.929 . S
H2672 C2680 0.929 . S
H2673 C2682 0.930 . S
H2674 C2684 0.930 . S
H2675 C2687 0.929 . S
H2676 C2690 0.930 . S
H2677 C2692 0.960 . S
H2678 C2692 0.960 . S
H2679 C2692 0.960 . S
C2680 H2672 0.929 . S
C2680 C2681 1.377 . S
C2680 C2682 1.384 . S
C2681 C2680 1.377 . S
C2681 C2687 1.390 . S
C2682 H2673 0.930 . S
C2682 C2680 1.384 . S
C2682 C2683 1.372 . S
C2683 C2682 1.372 . S
C2683 C2684 1.400 . S
C2683 C2688 1.490 . S
C2684 H2674 0.930 . S
C2684 C2683 1.400 . S
C2684 C2687 1.386 . S
H2685 C2701 0.930 . S
H2686 C2702 0.931 . S
C2687 H2675 0.929 . S
C2687 C2681 1.390 . S
C2687 C2684 1.386 . S
C2688 C2683 1.490 . S
C2688 C2690 1.395 . S
C2688 C2691 1.403 . S
H2689 C2695 0.930 . S
C2690 H2676 0.930 . S
C2690 C2688 1.395 . S
C2690 C2693 1.403 1_554 S
C2691 C2688 1.403 . S
C2691 C2692 1.524 . S
C2691 C2695 1.400 1_554 S
C2692 H2677 0.960 . S
C2692 H2678 0.960 . S
C2692 H2679 0.960 . S
C2692 C2691 1.524 . S
C2693 C2690 1.403 1_556 S
C2693 C2694 1.392 . S
C2693 C2697 1.495 . S
C2694 C2693 1.392 . S
C2694 C2695 1.385 . S
C2694 C2696 1.478 . S
C2695 H2689 0.930 . S
C2695 C2691 1.400 1_556 S
C2695 C2694 1.385 . S
C2696 C2694 1.478 . S
C2696 C2698 1.381 . S
C2696 C2702 1.383 . S
C2697 C2693 1.495 . S
C2697 H2703 0.959 . S
C2697 H2704 0.961 . S
C2697 H2705 0.960 . S
C2698 C2696 1.381 . S
C2698 C2699 1.394 . S
C2698 H2706 0.930 . S
C2699 C2698 1.394 . S
C2699 C2700 1.383 . S
C2699 H2707 0.929 . S
C2700 C2699 1.383 . S
C2700 C2701 1.377 . S
C2701 H2685 0.930 . S
C2701 C2700 1.377 . S
C2701 C2702 1.379 . S
C2702 H2686 0.931 . S
C2702 C2696 1.383 . S
C2702 C2701 1.379 . S
H2703 C2697 0.959 . S
H2704 C2697 0.961 . S
H2705 C2697 0.960 . S
H2706 C2698 0.930 . S
H2707 C2699 0.929 . S
H2708 C2716 0.929 . S
H2709 C2718 0.930 . S
H2710 C2720 0.930 . S
H2711 C2723 0.929 . S
H2712 C2726 0.930 . S
H2713 C2728 0.960 . S
H2714 C2728 0.960 . S
H2715 C2728 0.960 . S
C2716 H2708 0.929 . S
C2716 C2717 1.377 . S
C2716 C2718 1.384 . S
C2717 C2716 1.377 . S
C2717 C2723 1.390 . S
C2718 H2709 0.930 . S
C2718 C2716 1.384 . S
C2718 C2719 1.372 . S
C2719 C2718 1.372 . S
C2719 C2720 1.400 . S
C2719 C2724 1.490 . S
C2720 H2710 0.930 . S
C2720 C2719 1.400 . S
C2720 C2723 1.386 . S
H2721 C2737 0.930 . S
H2722 C2738 0.931 . S
C2723 H2711 0.929 . S
C2723 C2717 1.390 . S
C2723 C2720 1.386 . S
C2724 C2719 1.490 . S
C2724 C2726 1.395 . S
C2724 C2727 1.403 . S
H2725 C2731 0.930 . S
C2726 H2712 0.930 . S
C2726 C2724 1.395 . S
C2726 C2729 1.403 . S
C2727 C2724 1.403 . S
C2727 C2728 1.524 . S
C2727 C2731 1.400 . S
C2728 H2713 0.960 . S
C2728 H2714 0.960 . S
C2728 H2715 0.960 . S
C2728 C2727 1.524 . S
C2729 C2726 1.403 . S
C2729 C2730 1.392 . S
C2729 C2733 1.495 . S
C2730 C2729 1.392 . S
C2730 C2731 1.385 . S
C2730 C2732 1.478 . S
C2731 H2725 0.930 . S
C2731 C2727 1.400 . S
C2731 C2730 1.385 . S
C2732 C2730 1.478 . S
C2732 C2734 1.381 . S
C2732 C2738 1.383 . S
C2733 C2729 1.495 . S
C2733 H2739 0.959 . S
C2733 H2740 0.961 . S
C2733 H2741 0.960 . S
C2734 C2732 1.381 . S
C2734 C2735 1.394 . S
C2734 H2742 0.930 . S
C2735 C2734 1.394 . S
C2735 C2736 1.383 . S
C2735 H2743 0.929 . S
C2736 C2735 1.383 . S
C2736 C2737 1.377 . S
C2737 H2721 0.930 . S
C2737 C2736 1.377 . S
C2737 C2738 1.379 . S
C2738 H2722 0.931 . S
C2738 C2732 1.383 . S
C2738 C2737 1.379 . S
H2739 C2733 0.959 . S
H2740 C2733 0.961 . S
H2741 C2733 0.960 . S
H2742 C2734 0.930 . S
H2743 C2735 0.929 . S
H2744 C2752 0.929 . S
H2745 C2754 0.930 . S
H2746 C2756 0.930 . S
H2747 C2759 0.929 . S
H2748 C2762 0.930 . S
H2749 C2764 0.960 . S
H2750 C2764 0.960 . S
H2751 C2764 0.960 . S
C2752 H2744 0.929 . S
C2752 C2753 1.377 . S
C2752 C2754 1.384 . S
C2753 C2752 1.377 . S
C2753 C2759 1.390 . S
C2754 H2745 0.930 . S
C2754 C2752 1.384 . S
C2754 C2755 1.372 . S
C2755 C2754 1.372 . S
C2755 C2756 1.400 . S
C2755 C2760 1.490 . S
C2756 H2746 0.930 . S
C2756 C2755 1.400 . S
C2756 C2759 1.386 . S
H2757 C2773 0.930 . S
H2758 C2774 0.931 . S
C2759 H2747 0.929 . S
C2759 C2753 1.390 . S
C2759 C2756 1.386 . S
C2760 C2755 1.490 . S
C2760 C2762 1.395 . S
C2760 C2763 1.403 . S
H2761 C2767 0.930 . S
C2762 H2748 0.930 . S
C2762 C2760 1.395 . S
C2762 C2765 1.403 . S
C2763 C2760 1.403 . S
C2763 C2764 1.524 . S
C2763 C2767 1.400 . S
C2764 H2749 0.960 . S
C2764 H2750 0.960 . S
C2764 H2751 0.960 . S
C2764 C2763 1.524 . S
C2765 C2762 1.403 . S
C2765 C2766 1.392 . S
C2765 C2769 1.495 . S
C2766 C2765 1.392 . S
C2766 C2767 1.385 . S
C2766 C2768 1.478 . S
C2767 H2761 0.930 . S
C2767 C2763 1.400 . S
C2767 C2766 1.385 . S
C2768 C2766 1.478 . S
C2768 C2770 1.381 . S
C2768 C2774 1.383 . S
C2769 C2765 1.495 . S
C2769 H2775 0.959 . S
C2769 H2776 0.961 . S
C2769 H2777 0.960 . S
C2770 C2768 1.381 . S
C2770 C2771 1.394 . S
C2770 H2778 0.930 . S
C2771 C2770 1.394 . S
C2771 C2772 1.383 . S
C2771 H2779 0.929 . S
C2772 C2771 1.383 . S
C2772 C2773 1.377 . S
C2773 H2757 0.930 . S
C2773 C2772 1.377 . S
C2773 C2774 1.379 . S
C2774 H2758 0.931 . S
C2774 C2768 1.383 . S
C2774 C2773 1.379 . S
H2775 C2769 0.959 . S
H2776 C2769 0.961 . S
H2777 C2769 0.960 . S
H2778 C2770 0.930 . S
H2779 C2771 0.929 . S
H2780 C2788 0.929 . S
H2781 C2790 0.930 . S
H2782 C2792 0.930 . S
H2783 C2795 0.929 1_556 S
H2784 C2798 0.930 . S
H2785 C2800 0.960 . S
H2786 C2800 0.960 . S
H2787 C2800 0.960 . S
C2788 H2780 0.929 . S
C2788 C2789 1.377 1_554 S
C2788 C2790 1.384 . S
C2789 C2788 1.377 1_556 S
C2789 C2795 1.390 1_556 S
C2790 H2781 0.930 . S
C2790 C2788 1.384 . S
C2790 C2791 1.372 . S
C2791 C2790 1.372 . S
C2791 C2792 1.400 . S
C2791 C2796 1.490 . S
C2792 H2782 0.930 . S
C2792 C2791 1.400 . S
C2792 C2795 1.386 . S
H2793 C2809 0.930 . S
H2794 C2810 0.931 . S
C2795 H2783 0.929 1_554 S
C2795 C2789 1.390 1_554 S
C2795 C2792 1.386 . S
C2796 C2791 1.490 . S
C2796 C2798 1.395 . S
C2796 C2799 1.403 . S
H2797 C2803 0.930 . S
C2798 H2784 0.930 . S
C2798 C2796 1.395 . S
C2798 C2801 1.403 . S
C2799 C2796 1.403 . S
C2799 C2800 1.524 . S
C2799 C2803 1.400 . S
C2800 H2785 0.960 . S
C2800 H2786 0.960 . S
C2800 H2787 0.960 . S
C2800 C2799 1.524 . S
C2801 C2798 1.403 . S
C2801 C2802 1.392 . S
C2801 C2805 1.495 . S
C2802 C2801 1.392 . S
C2802 C2803 1.385 . S
C2802 C2804 1.478 . S
C2803 H2797 0.930 . S
C2803 C2799 1.400 . S
C2803 C2802 1.385 . S
C2804 C2802 1.478 . S
C2804 C2806 1.381 . S
C2804 C2810 1.383 . S
C2805 C2801 1.495 . S
C2805 H2811 0.959 . S
C2805 H2812 0.961 . S
C2805 H2813 0.960 . S
C2806 C2804 1.381 . S
C2806 C2807 1.394 . S
C2806 H2814 0.930 . S
C2807 C2806 1.394 . S
C2807 C2808 1.383 . S
C2807 H2815 0.929 . S
C2808 C2807 1.383 . S
C2808 C2809 1.377 . S
C2809 H2793 0.930 . S
C2809 C2808 1.377 . S
C2809 C2810 1.379 . S
C2810 H2794 0.931 . S
C2810 C2804 1.383 . S
C2810 C2809 1.379 . S
H2811 C2805 0.959 . S
H2812 C2805 0.961 . S
H2813 C2805 0.960 . S
H2814 C2806 0.930 . S
H2815 C2807 0.929 . S
H2816 C2824 0.929 . S
H2817 C2826 0.930 . S
H2818 C2828 0.930 . S
H2819 C2831 0.929 . S
H2820 C2834 0.930 . S
H2821 C2836 0.960 . S
H2822 C2836 0.960 . S
H2823 C2836 0.960 . S
C2824 H2816 0.929 . S
C2824 C2825 1.377 . S
C2824 C2826 1.384 . S
C2825 C2824 1.377 . S
C2825 C2831 1.390 . S
C2826 H2817 0.930 . S
C2826 C2824 1.384 . S
C2826 C2827 1.372 . S
C2827 C2826 1.372 . S
C2827 C2828 1.400 . S
C2827 C2832 1.490 . S
C2828 H2818 0.930 . S
C2828 C2827 1.400 . S
C2828 C2831 1.386 . S
H2829 C2845 0.930 . S
H2830 C2846 0.931 . S
C2831 H2819 0.929 . S
C2831 C2825 1.390 . S
C2831 C2828 1.386 . S
C2832 C2827 1.490 . S
C2832 C2834 1.395 . S
C2832 C2835 1.403 . S
H2833 C2839 0.930 . S
C2834 H2820 0.930 . S
C2834 C2832 1.395 . S
C2834 C2837 1.403 . S
C2835 C2832 1.403 . S
C2835 C2836 1.524 . S
C2835 C2839 1.400 . S
C2836 H2821 0.960 . S
C2836 H2822 0.960 . S
C2836 H2823 0.960 . S
C2836 C2835 1.524 . S
C2837 C2834 1.403 . S
C2837 C2838 1.392 . S
C2837 C2841 1.495 . S
C2838 C2837 1.392 . S
C2838 C2839 1.385 . S
C2838 C2840 1.478 . S
C2839 H2833 0.930 . S
C2839 C2835 1.400 . S
C2839 C2838 1.385 . S
C2840 C2838 1.478 . S
C2840 C2842 1.381 . S
C2840 C2846 1.383 . S
C2841 C2837 1.495 . S
C2841 H2847 0.959 . S
C2841 H2848 0.961 . S
C2841 H2849 0.960 . S
C2842 C2840 1.381 . S
C2842 C2843 1.394 . S
C2842 H2850 0.930 . S
C2843 C2842 1.394 . S
C2843 C2844 1.383 . S
C2843 H2851 0.929 . S
C2844 C2843 1.383 . S
C2844 C2845 1.377 . S
C2845 H2829 0.930 . S
C2845 C2844 1.377 . S
C2845 C2846 1.379 . S
C2846 H2830 0.931 . S
C2846 C2840 1.383 . S
C2846 C2845 1.379 . S
H2847 C2841 0.959 . S
H2848 C2841 0.961 . S
H2849 C2841 0.960 . S
H2850 C2842 0.930 . S
H2851 C2843 0.929 . S
H2852 C2860 0.929 . S
H2853 C2862 0.930 . S
H2854 C2864 0.930 . S
H2855 C2867 0.929 . S
H2856 C2870 0.930 . S
H2857 C2872 0.960 . S
H2858 C2872 0.960 . S
H2859 C2872 0.960 . S
C2860 H2852 0.929 . S
C2860 C2861 1.377 . S
C2860 C2862 1.384 . S
C2861 C2860 1.377 . S
C2861 C2867 1.390 . S
C2862 H2853 0.930 . S
C2862 C2860 1.384 . S
C2862 C2863 1.372 . S
C2863 C2862 1.372 . S
C2863 C2864 1.400 . S
C2863 C2868 1.490 . S
C2864 H2854 0.930 . S
C2864 C2863 1.400 . S
C2864 C2867 1.386 . S
H2865 C2881 0.930 . S
H2866 C2882 0.931 . S
C2867 H2855 0.929 . S
C2867 C2861 1.390 . S
C2867 C2864 1.386 . S
C2868 C2863 1.490 . S
C2868 C2870 1.395 1_545 S
C2868 C2871 1.403 . S
H2869 C2875 0.929 . S
C2870 H2856 0.930 . S
C2870 C2868 1.395 1_565 S
C2870 C2873 1.403 . S
C2871 C2868 1.403 . S
C2871 C2872 1.524 . S
C2871 C2875 1.364 1_545 S
C2872 H2857 0.960 . S
C2872 H2858 0.960 . S
C2872 H2859 0.960 . S
C2872 C2871 1.524 . S
C2873 C2870 1.403 . S
C2873 C2874 1.392 . S
C2873 C2877 1.495 . S
C2874 C2873 1.392 . S
C2874 C2875 1.424 . S
C2874 C2876 1.478 . S
C2875 H2869 0.929 . S
C2875 C2871 1.364 1_565 S
C2875 C2874 1.424 . S
C2876 C2874 1.478 . S
C2876 C2878 1.381 . S
C2876 C2882 1.383 . S
C2877 C2873 1.495 . S
C2877 H2883 0.959 . S
C2877 H2884 0.961 . S
C2877 H2885 0.960 . S
C2878 C2876 1.381 . S
C2878 C2879 1.394 . S
C2878 H2886 0.930 . S
C2879 C2878 1.394 . S
C2879 C2880 1.383 . S
C2879 H2887 0.929 . S
C2880 C2879 1.383 . S
C2880 C2881 1.377 . S
C2881 H2865 0.930 . S
C2881 C2880 1.377 . S
C2881 C2882 1.379 . S
C2882 H2866 0.931 . S
C2882 C2876 1.383 . S
C2882 C2881 1.379 . S
H2883 C2877 0.959 . S
H2884 C2877 0.961 . S
H2885 C2877 0.960 . S
H2886 C2878 0.930 . S
H2887 C2879 0.929 . S
H2888 C2896 0.929 . S
H2889 C2898 0.930 . S
H2890 C2900 0.930 . S
H2891 C2903 0.929 . S
H2892 C2906 0.930 . S
H2893 C2908 0.960 . S
H2894 C2908 0.960 . S
H2895 C2908 0.960 . S
C2896 H2888 0.929 . S
C2896 C2897 1.377 . S
C2896 C2898 1.384 . S
C2897 C2896 1.377 . S
C2897 C2903 1.390 . S
C2898 H2889 0.930 . S
C2898 C2896 1.384 . S
C2898 C2899 1.372 . S
C2899 C2898 1.372 . S
C2899 C2900 1.400 . S
C2899 C2904 1.490 . S
C2900 H2890 0.930 . S
C2900 C2899 1.400 . S
C2900 C2903 1.386 . S
H2901 C2917 0.930 . S
H2902 C2918 0.931 . S
C2903 H2891 0.929 . S
C2903 C2897 1.390 . S
C2903 C2900 1.386 . S
C2904 C2899 1.490 . S
C2904 C2906 1.395 . S
C2904 C2907 1.403 . S
H2905 C2911 0.930 . S
C2906 H2892 0.930 . S
C2906 C2904 1.395 . S
C2906 C2909 1.403 . S
C2907 C2904 1.403 . S
C2907 C2908 1.524 . S
C2907 C2911 1.400 . S
C2908 H2893 0.960 . S
C2908 H2894 0.960 . S
C2908 H2895 0.960 . S
C2908 C2907 1.524 . S
C2909 C2906 1.403 . S
C2909 C2910 1.392 . S
C2909 C2913 1.495 . S
C2910 C2909 1.392 . S
C2910 C2911 1.385 . S
C2910 C2912 1.478 . S
C2911 H2905 0.930 . S
C2911 C2907 1.400 . S
C2911 C2910 1.385 . S
C2912 C2910 1.478 . S
C2912 C2914 1.381 . S
C2912 C2918 1.383 . S
C2913 C2909 1.495 . S
C2913 H2919 0.959 . S
C2913 H2920 0.961 . S
C2913 H2921 0.960 . S
C2914 C2912 1.381 . S
C2914 C2915 1.394 . S
C2914 H2922 0.930 . S
C2915 C2914 1.394 . S
C2915 C2916 1.383 . S
C2915 H2923 0.929 . S
C2916 C2915 1.383 . S
C2916 C2917 1.377 . S
C2917 H2901 0.930 . S
C2917 C2916 1.377 . S
C2917 C2918 1.379 . S
C2918 H2902 0.931 . S
C2918 C2912 1.383 . S
C2918 C2917 1.379 . S
H2919 C2913 0.959 . S
H2920 C2913 0.961 . S
H2921 C2913 0.960 . S
H2922 C2914 0.930 . S
H2923 C2915 0.929 . S
H2924 C2932 0.929 . S
H2925 C2934 0.930 . S
H2926 C2936 0.930 . S
H2927 C2939 0.929 . S
H2928 C2942 0.948 . S
H2929 C2944 0.960 . S
H2930 C2944 0.960 . S
H2931 C2944 0.960 1_554 S
C2932 H2924 0.929 . S
C2932 C2933 1.377 . S
C2932 C2934 1.384 . S
C2933 C2932 1.377 . S
C2933 C2939 1.390 . S
C2934 H2925 0.930 . S
C2934 C2932 1.384 . S
C2934 C2935 1.372 . S
C2935 C2934 1.372 . S
C2935 C2936 1.400 . S
C2935 C2940 1.490 . S
C2936 H2926 0.930 . S
C2936 C2935 1.400 . S
C2936 C2939 1.386 . S
H2937 C2953 0.930 . S
H2938 C2954 0.931 . S
C2939 H2927 0.929 . S
C2939 C2933 1.390 . S
C2939 C2936 1.386 . S
C2940 C2935 1.490 . S
C2940 C2942 1.464 . S
C2940 C2943 1.403 1_554 S
H2941 C2947 0.930 . S
C2942 H2928 0.948 . S
C2942 C2940 1.464 . S
C2942 C2945 1.326 1_565 S
C2943 C2940 1.403 1_556 S
C2943 C2944 1.524 . S
C2943 C2947 1.400 1_565 S
C2944 H2929 0.960 . S
C2944 H2930 0.960 . S
C2944 H2931 0.960 1_556 S
C2944 C2943 1.524 . S
C2945 C2942 1.326 1_545 S
C2945 C2946 1.392 1_554 S
C2945 C2949 1.495 . S
C2946 C2945 1.392 1_556 S
C2946 C2947 1.385 . S
C2946 C2948 1.478 . S
C2947 H2941 0.930 . S
C2947 C2943 1.400 1_545 S
C2947 C2946 1.385 . S
C2948 C2946 1.478 . S
C2948 C2950 1.381 . S
C2948 C2954 1.383 . S
C2949 C2945 1.495 . S
C2949 H2955 0.959 . S
C2949 H2956 0.961 . S
C2949 H2957 0.960 1_554 S
C2950 C2948 1.381 . S
C2950 C2951 1.394 . S
C2950 H2958 0.930 . S
C2951 C2950 1.394 . S
C2951 C2952 1.383 . S
C2951 H2959 0.929 . S
C2952 C2951 1.383 . S
C2952 C2953 1.377 . S
C2953 H2937 0.930 . S
C2953 C2952 1.377 . S
C2953 C2954 1.379 . S
C2954 H2938 0.931 . S
C2954 C2948 1.383 . S
C2954 C2953 1.379 . S
H2955 C2949 0.959 . S
H2956 C2949 0.961 . S
H2957 C2949 0.960 1_556 S
H2958 C2950 0.930 . S
H2959 C2951 0.929 . S
H2960 C2968 0.929 . S
H2961 C2970 0.930 . S
H2962 C2972 0.930 . S
H2963 C2975 0.929 . S
H2964 C2978 0.930 . S
H2965 C2980 0.960 . S
H2966 C2980 0.960 . S
H2967 C2980 0.960 . S
C2968 H2960 0.929 . S
C2968 C2969 1.377 . S
C2968 C2970 1.384 . S
C2969 C2968 1.377 . S
C2969 C2975 1.390 . S
C2970 H2961 0.930 . S
C2970 C2968 1.384 . S
C2970 C2971 1.372 . S
C2971 C2970 1.372 . S
C2971 C2972 1.400 . S
C2971 C2976 1.490 . S
C2972 H2962 0.930 . S
C2972 C2971 1.400 . S
C2972 C2975 1.386 . S
H2973 C2989 0.930 . S
H2974 C2990 0.931 . S
C2975 H2963 0.929 . S
C2975 C2969 1.390 . S
C2975 C2972 1.386 . S
C2976 C2971 1.490 . S
C2976 C2978 1.395 . S
C2976 C2979 1.403 . S
H2977 C2983 0.930 . S
C2978 H2964 0.930 . S
C2978 C2976 1.395 . S
C2978 C2981 1.403 . S
C2979 C2976 1.403 . S
C2979 C2980 1.524 . S
C2979 C2983 1.400 . S
C2980 H2965 0.960 . S
C2980 H2966 0.960 . S
C2980 H2967 0.960 . S
C2980 C2979 1.524 . S
C2981 C2978 1.403 . S
C2981 C2982 1.392 . S
C2981 C2985 1.495 . S
C2982 C2981 1.392 . S
C2982 C2983 1.385 . S
C2982 C2984 1.478 . S
C2983 H2977 0.930 . S
C2983 C2979 1.400 . S
C2983 C2982 1.385 . S
C2984 C2982 1.478 . S
C2984 C2986 1.381 . S
C2984 C2990 1.383 . S
C2985 C2981 1.495 . S
C2985 H2991 0.959 . S
C2985 H2992 0.961 . S
C2985 H2993 0.960 . S
C2986 C2984 1.381 . S
C2986 C2987 1.394 . S
C2986 H2994 0.930 . S
C2987 C2986 1.394 . S
C2987 C2988 1.383 . S
C2987 H2995 0.929 . S
C2988 C2987 1.383 . S
C2988 C2989 1.377 . S
C2989 H2973 0.930 . S
C2989 C2988 1.377 . S
C2989 C2990 1.379 . S
C2990 H2974 0.931 . S
C2990 C2984 1.383 . S
C2990 C2989 1.379 . S
H2991 C2985 0.959 . S
H2992 C2985 0.961 . S
H2993 C2985 0.960 . S
H2994 C2986 0.930 . S
H2995 C2987 0.929 . S
H2996 C3004 0.929 . S
H2997 C3006 0.930 . S
H2998 C3008 0.930 . S
H2999 C3011 0.929 . S
H3000 C3014 0.930 . S
H3001 C3016 0.960 . S
H3002 C3016 0.960 . S
H3003 C3016 0.960 . S
C3004 H2996 0.929 . S
C3004 C3005 1.377 . S
C3004 C3006 1.384 . S
C3005 C3004 1.377 . S
C3005 C3011 1.390 . S
C3006 H2997 0.930 . S
C3006 C3004 1.384 . S
C3006 C3007 1.372 . S
C3007 C3006 1.372 . S
C3007 C3008 1.400 . S
C3007 C3012 1.490 . S
C3008 H2998 0.930 . S
C3008 C3007 1.400 . S
C3008 C3011 1.386 . S
H3009 C3025 0.930 . S
H3010 C3026 0.931 . S
C3011 H2999 0.929 . S
C3011 C3005 1.390 . S
C3011 C3008 1.386 . S
C3012 C3007 1.490 . S
C3012 C3014 1.395 1_545 S
C3012 C3015 1.403 . S
H3013 C3019 0.928 . S
C3014 H3000 0.930 . S
C3014 C3012 1.395 1_565 S
C3014 C3017 1.403 . S
C3015 C3012 1.403 . S
C3015 C3016 1.524 . S
C3015 C3019 1.402 . S
C3016 H3001 0.960 . S
C3016 H3002 0.960 . S
C3016 H3003 0.960 . S
C3016 C3015 1.524 . S
C3017 C3014 1.403 . S
C3017 C3018 1.392 . S
C3017 C3021 1.495 . S
C3018 C3017 1.392 . S
C3018 C3019 1.383 1_565 S
C3018 C3020 1.478 . S
C3019 H3013 0.928 . S
C3019 C3015 1.402 . S
C3019 C3018 1.383 1_545 S
C3020 C3018 1.478 . S
C3020 C3022 1.381 . S
C3020 C3026 1.383 . S
C3021 C3017 1.495 . S
C3021 H3027 0.959 . S
C3021 H3028 0.961 . S
C3021 H3029 0.960 . S
C3022 C3020 1.381 . S
C3022 C3023 1.394 . S
C3022 H3030 0.930 . S
C3023 C3022 1.394 . S
C3023 C3024 1.383 . S
C3023 H3031 0.929 . S
C3024 C3023 1.383 . S
C3024 C3025 1.377 . S
C3025 H3009 0.930 . S
C3025 C3024 1.377 . S
C3025 C3026 1.379 . S
C3026 H3010 0.931 . S
C3026 C3020 1.383 . S
C3026 C3025 1.379 . S
H3027 C3021 0.959 . S
H3028 C3021 0.961 . S
H3029 C3021 0.960 . S
H3030 C3022 0.930 . S
H3031 C3023 0.929 . S
H3032 C3040 0.929 . S
H3033 C3042 0.930 . S
H3034 C3044 0.930 . S
H3035 C3047 0.929 . S
H3036 C3050 0.930 . S
H3037 C3052 0.960 . S
H3038 C3052 0.960 . S
H3039 C3052 0.960 . S
C3040 H3032 0.929 . S
C3040 C3041 1.377 . S
C3040 C3042 1.384 . S
C3041 C3040 1.377 . S
C3041 C3047 1.390 . S
C3042 H3033 0.930 . S
C3042 C3040 1.384 . S
C3042 C3043 1.372 . S
C3043 C3042 1.372 . S
C3043 C3044 1.400 . S
C3043 C3048 1.490 . S
C3044 H3034 0.930 . S
C3044 C3043 1.400 . S
C3044 C3047 1.386 . S
H3045 C3061 0.930 . S
H3046 C3062 0.931 . S
C3047 H3035 0.929 . S
C3047 C3041 1.390 . S
C3047 C3044 1.386 . S
C3048 C3043 1.490 . S
C3048 C3050 1.395 . S
C3048 C3051 1.403 . S
H3049 C3055 0.930 . S
C3050 H3036 0.930 . S
C3050 C3048 1.395 . S
C3050 C3053 1.403 . S
C3051 C3048 1.403 . S
C3051 C3052 1.524 . S
C3051 C3055 1.400 . S
C3052 H3037 0.960 . S
C3052 H3038 0.960 . S
C3052 H3039 0.960 . S
C3052 C3051 1.524 . S
C3053 C3050 1.403 . S
C3053 C3054 1.392 . S
C3053 C3057 1.495 . S
C3054 C3053 1.392 . S
C3054 C3055 1.385 . S
C3054 C3056 1.478 . S
C3055 H3049 0.930 . S
C3055 C3051 1.400 . S
C3055 C3054 1.385 . S
C3056 C3054 1.478 . S
C3056 C3058 1.381 . S
C3056 C3062 1.383 . S
C3057 C3053 1.495 . S
C3057 H3063 0.959 . S
C3057 H3064 0.961 . S
C3057 H3065 0.960 . S
C3058 C3056 1.381 . S
C3058 C3059 1.394 . S
C3058 H3066 0.930 . S
C3059 C3058 1.394 . S
C3059 C3060 1.383 . S
C3059 H3067 0.929 . S
C3060 C3059 1.383 . S
C3060 C3061 1.377 . S
C3061 H3045 0.930 . S
C3061 C3060 1.377 . S
C3061 C3062 1.379 . S
C3062 H3046 0.931 . S
C3062 C3056 1.383 . S
C3062 C3061 1.379 . S
H3063 C3057 0.959 . S
H3064 C3057 0.961 . S
H3065 C3057 0.960 . S
H3066 C3058 0.930 . S
H3067 C3059 0.929 . S
H3068 C3076 0.929 . S
H3069 C3078 0.930 . S
H3070 C3080 0.930 . S
H3071 C3083 0.929 . S
H3072 C3086 0.930 . S
H3073 C3088 0.960 . S
H3074 C3088 0.960 . S
H3075 C3088 0.955 . S
C3076 H3068 0.929 . S
C3076 C3077 1.377 . S
C3076 C3078 1.384 . S
C3077 C3076 1.377 . S
C3077 C3083 1.390 . S
C3078 H3069 0.930 . S
C3078 C3076 1.384 . S
C3078 C3079 1.372 . S
C3079 C3078 1.372 . S
C3079 C3080 1.400 . S
C3079 C3084 1.490 . S
C3080 H3070 0.930 . S
C3080 C3079 1.400 . S
C3080 C3083 1.386 . S
H3081 C3097 0.930 . S
H3082 C3098 0.931 . S
C3083 H3071 0.929 . S
C3083 C3077 1.390 . S
C3083 C3080 1.386 . S
C3084 C3079 1.490 . S
C3084 C3086 1.395 1_556 S
C3084 C3087 1.403 1_545 S
H3085 C3091 0.930 . S
C3086 H3072 0.930 . S
C3086 C3084 1.395 1_554 S
C3086 C3089 1.403 . S
C3087 C3084 1.403 1_565 S
C3087 C3088 1.524 . S
C3087 C3091 1.400 . S
C3088 H3073 0.960 . S
C3088 H3074 0.960 . S
C3088 H3075 0.955 . S
C3088 C3087 1.524 . S
C3089 C3086 1.403 . S
C3089 C3090 1.392 1_545 S
C3089 C3093 1.495 . S
C3090 C3089 1.392 1_565 S
C3090 C3091 1.385 1_554 S
C3090 C3092 1.478 . S
C3091 H3085 0.930 . S
C3091 C3087 1.400 . S
C3091 C3090 1.385 1_556 S
C3092 C3090 1.478 . S
C3092 C3094 1.381 . S
C3092 C3098 1.383 . S
C3093 C3089 1.495 . S
C3093 H3099 0.959 . S
C3093 H3100 0.961 . S
C3093 H3101 0.998 . S
C3094 C3092 1.381 . S
C3094 C3095 1.394 . S
C3094 H3102 0.930 . S
C3095 C3094 1.394 . S
C3095 C3096 1.383 . S
C3095 H3103 0.929 . S
C3096 C3095 1.383 . S
C3096 C3097 1.377 . S
C3097 H3081 0.930 . S
C3097 C3096 1.377 . S
C3097 C3098 1.379 . S
C3098 H3082 0.931 . S
C3098 C3092 1.383 . S
C3098 C3097 1.379 . S
H3099 C3093 0.959 . S
H3100 C3093 0.961 . S
H3101 C3093 0.998 . S
H3102 C3094 0.930 . S
H3103 C3095 0.929 . S
H3104 C3112 0.929 . S
H3105 C3114 0.930 . S
H3106 C3116 0.930 . S
H3107 C3119 0.929 . S
H3108 C3122 0.930 . S
H3109 C3124 0.960 . S
H3110 C3124 0.960 . S
H3111 C3124 0.960 . S
C3112 H3104 0.929 . S
C3112 C3113 1.377 . S
C3112 C3114 1.384 . S
C3113 C3112 1.377 . S
C3113 C3119 1.390 . S
C3114 H3105 0.930 . S
C3114 C3112 1.384 . S
C3114 C3115 1.372 . S
C3115 C3114 1.372 . S
C3115 C3116 1.400 . S
C3115 C3120 1.490 . S
C3116 H3106 0.930 . S
C3116 C3115 1.400 . S
C3116 C3119 1.386 . S
H3117 C3133 0.930 . S
H3118 C3134 0.931 . S
C3119 H3107 0.929 . S
C3119 C3113 1.390 . S
C3119 C3116 1.386 . S
C3120 C3115 1.490 . S
C3120 C3122 1.395 . S
C3120 C3123 1.403 . S
H3121 C3127 0.930 . S
C3122 H3108 0.930 . S
C3122 C3120 1.395 . S
C3122 C3125 1.403 . S
C3123 C3120 1.403 . S
C3123 C3124 1.524 . S
C3123 C3127 1.400 . S
C3124 H3109 0.960 . S
C3124 H3110 0.960 . S
C3124 H3111 0.960 . S
C3124 C3123 1.524 . S
C3125 C3122 1.403 . S
C3125 C3126 1.392 . S
C3125 C3129 1.495 . S
C3126 C3125 1.392 . S
C3126 C3127 1.385 . S
C3126 C3128 1.478 . S
C3127 H3121 0.930 . S
C3127 C3123 1.400 . S
C3127 C3126 1.385 . S
C3128 C3126 1.478 . S
C3128 C3130 1.381 . S
C3128 C3134 1.383 . S
C3129 C3125 1.495 . S
C3129 H3135 0.959 . S
C3129 H3136 0.961 . S
C3129 H3137 0.960 . S
C3130 C3128 1.381 . S
C3130 C3131 1.394 . S
C3130 H3138 0.930 . S
C3131 C3130 1.394 . S
C3131 C3132 1.383 . S
C3131 H3139 0.929 . S
C3132 C3131 1.383 . S
C3132 C3133 1.377 . S
C3133 H3117 0.930 . S
C3133 C3132 1.377 . S
C3133 C3134 1.379 . S
C3134 H3118 0.931 . S
C3134 C3128 1.383 . S
C3134 C3133 1.379 . S
H3135 C3129 0.959 . S
H3136 C3129 0.961 . S
H3137 C3129 0.960 . S
H3138 C3130 0.930 . S
H3139 C3131 0.929 . S
H3140 C3148 0.929 . S
H3141 C3150 0.930 . S
H3142 C3152 0.930 . S
H3143 C3155 0.929 . S
H3144 C3158 0.930 . S
H3145 C3160 0.960 . S
H3146 C3160 0.960 . S
H3147 C3160 0.960 . S
C3148 H3140 0.929 . S
C3148 C3149 1.377 . S
C3148 C3150 1.384 . S
C3149 C3148 1.377 . S
C3149 C3155 1.390 . S
C3150 H3141 0.930 . S
C3150 C3148 1.384 . S
C3150 C3151 1.372 . S
C3151 C3150 1.372 . S
C3151 C3152 1.400 . S
C3151 C3156 1.490 . S
C3152 H3142 0.930 . S
C3152 C3151 1.400 . S
C3152 C3155 1.386 . S
H3153 C3169 0.930 . S
H3154 C3170 0.931 . S
C3155 H3143 0.929 . S
C3155 C3149 1.390 . S
C3155 C3152 1.386 . S
C3156 C3151 1.490 . S
C3156 C3158 1.395 1_556 S
C3156 C3159 1.403 . S
H3157 C3163 0.930 . S
C3158 H3144 0.930 . S
C3158 C3156 1.395 1_554 S
C3158 C3161 1.403 . S
C3159 C3156 1.403 . S
C3159 C3160 1.524 . S
C3159 C3163 1.400 1_556 S
C3160 H3145 0.960 . S
C3160 H3146 0.960 . S
C3160 H3147 0.960 . S
C3160 C3159 1.524 . S
C3161 C3158 1.403 . S
C3161 C3162 1.392 . S
C3161 C3165 1.495 . S
C3162 C3161 1.392 . S
C3162 C3163 1.385 . S
C3162 C3164 1.478 . S
C3163 H3157 0.930 . S
C3163 C3159 1.400 1_554 S
C3163 C3162 1.385 . S
C3164 C3162 1.478 . S
C3164 C3166 1.381 . S
C3164 C3170 1.383 . S
C3165 C3161 1.495 . S
C3165 H3171 0.959 . S
C3165 H3172 0.961 . S
C3165 H3173 0.960 . S
C3166 C3164 1.381 . S
C3166 C3167 1.394 . S
C3166 H3174 0.930 . S
C3167 C3166 1.394 . S
C3167 C3168 1.383 . S
C3167 H3175 0.929 . S
C3168 C3167 1.383 . S
C3168 C3169 1.377 . S
C3169 H3153 0.930 . S
C3169 C3168 1.377 . S
C3169 C3170 1.379 . S
C3170 H3154 0.931 . S
C3170 C3164 1.383 . S
C3170 C3169 1.379 . S
H3171 C3165 0.959 . S
H3172 C3165 0.961 . S
H3173 C3165 0.960 . S
H3174 C3166 0.930 . S
H3175 C3167 0.929 . S
H3176 C3184 0.929 . S
H3177 C3186 0.930 . S
H3178 C3188 0.930 . S
H3179 C3191 0.929 . S
H3180 C3194 0.930 . S
H3181 C3196 0.960 . S
H3182 C3196 0.960 . S
H3183 C3196 0.960 . S
C3184 H3176 0.929 . S
C3184 C3185 1.377 . S
C3184 C3186 1.384 . S
C3185 C3184 1.377 . S
C3185 C3191 1.390 . S
C3186 H3177 0.930 . S
C3186 C3184 1.384 . S
C3186 C3187 1.372 . S
C3187 C3186 1.372 . S
C3187 C3188 1.400 . S
C3187 C3192 1.490 . S
C3188 H3178 0.930 . S
C3188 C3187 1.400 . S
C3188 C3191 1.386 . S
H3189 C3205 0.930 . S
H3190 C3206 0.931 . S
C3191 H3179 0.929 . S
C3191 C3185 1.390 . S
C3191 C3188 1.386 . S
C3192 C3187 1.490 . S
C3192 C3194 1.395 . S
C3192 C3195 1.403 . S
H3193 C3199 0.930 . S
C3194 H3180 0.930 . S
C3194 C3192 1.395 . S
C3194 C3197 1.403 . S
C3195 C3192 1.403 . S
C3195 C3196 1.524 . S
C3195 C3199 1.400 . S
C3196 H3181 0.960 . S
C3196 H3182 0.960 . S
C3196 H3183 0.960 . S
C3196 C3195 1.524 . S
C3197 C3194 1.403 . S
C3197 C3198 1.392 . S
C3197 C3201 1.495 . S
C3198 C3197 1.392 . S
C3198 C3199 1.385 . S
C3198 C3200 1.478 . S
C3199 H3193 0.930 . S
C3199 C3195 1.400 . S
C3199 C3198 1.385 . S
C3200 C3198 1.478 . S
C3200 C3202 1.381 . S
C3200 C3206 1.383 . S
C3201 C3197 1.495 . S
C3201 H3207 0.959 . S
C3201 H3208 0.961 . S
C3201 H3209 0.960 . S
C3202 C3200 1.381 . S
C3202 C3203 1.394 . S
C3202 H3210 0.930 . S
C3203 C3202 1.394 . S
C3203 C3204 1.383 . S
C3203 H3211 0.929 . S
C3204 C3203 1.383 . S
C3204 C3205 1.377 . S
C3205 H3189 0.930 . S
C3205 C3204 1.377 . S
C3205 C3206 1.379 . S
C3206 H3190 0.931 . S
C3206 C3200 1.383 . S
C3206 C3205 1.379 . S
H3207 C3201 0.959 . S
H3208 C3201 0.961 . S
H3209 C3201 0.960 . S
H3210 C3202 0.930 . S
H3211 C3203 0.929 . S
H3212 C3220 0.929 . S
H3213 C3222 0.930 . S
H3214 C3224 0.930 . S
H3215 C3227 0.929 . S
H3216 C3230 0.930 . S
H3217 C3232 0.960 . S
H3218 C3232 0.960 . S
H3219 C3232 0.960 . S
C3220 H3212 0.929 . S
C3220 C3221 1.377 . S
C3220 C3222 1.384 . S
C3221 C3220 1.377 . S
C3221 C3227 1.390 . S
C3222 H3213 0.930 . S
C3222 C3220 1.384 . S
C3222 C3223 1.372 . S
C3223 C3222 1.372 . S
C3223 C3224 1.400 . S
C3223 C3228 1.490 . S
C3224 H3214 0.930 . S
C3224 C3223 1.400 . S
C3224 C3227 1.386 . S
H3225 C3241 0.930 . S
H3226 C3242 0.931 . S
C3227 H3215 0.929 . S
C3227 C3221 1.390 . S
C3227 C3224 1.386 . S
C3228 C3223 1.490 . S
C3228 C3230 1.395 . S
C3228 C3231 1.403 . S
H3229 C3235 0.930 . S
C3230 H3216 0.930 . S
C3230 C3228 1.395 . S
C3230 C3233 1.403 . S
C3231 C3228 1.403 . S
C3231 C3232 1.524 . S
C3231 C3235 1.400 . S
C3232 H3217 0.960 . S
C3232 H3218 0.960 . S
C3232 H3219 0.960 . S
C3232 C3231 1.524 . S
C3233 C3230 1.403 . S
C3233 C3234 1.392 . S
C3233 C3237 1.495 . S
C3234 C3233 1.392 . S
C3234 C3235 1.385 . S
C3234 C3236 1.478 . S
C3235 H3229 0.930 . S
C3235 C3231 1.400 . S
C3235 C3234 1.385 . S
C3236 C3234 1.478 . S
C3236 C3238 1.381 . S
C3236 C3242 1.383 . S
C3237 C3233 1.495 . S
C3237 H3243 0.959 . S
C3237 H3244 0.961 . S
C3237 H3245 0.960 . S
C3238 C3236 1.381 . S
C3238 C3239 1.394 . S
C3238 H3246 0.930 . S
C3239 C3238 1.394 . S
C3239 C3240 1.383 . S
C3239 H3247 0.929 . S
C3240 C3239 1.383 . S
C3240 C3241 1.377 . S
C3241 H3225 0.930 . S
C3241 C3240 1.377 . S
C3241 C3242 1.379 . S
C3242 H3226 0.931 . S
C3242 C3236 1.383 . S
C3242 C3241 1.379 . S
H3243 C3237 0.959 . S
H3244 C3237 0.961 . S
H3245 C3237 0.960 . S
H3246 C3238 0.930 . S
H3247 C3239 0.929 . S
H3248 C3256 0.929 . S
H3249 C3258 0.930 . S
H3250 C3260 0.930 . S
H3251 C3263 0.929 . S
H3252 C3266 0.930 . S
H3253 C3268 0.960 . S
H3254 C3268 0.960 . S
H3255 C3268 0.960 . S
C3256 H3248 0.929 . S
C3256 C3257 1.377 . S
C3256 C3258 1.384 . S
C3257 C3256 1.377 . S
C3257 C3263 1.390 . S
C3258 H3249 0.930 . S
C3258 C3256 1.384 . S
C3258 C3259 1.372 . S
C3259 C3258 1.372 . S
C3259 C3260 1.400 . S
C3259 C3264 1.490 . S
C3260 H3250 0.930 . S
C3260 C3259 1.400 . S
C3260 C3263 1.386 . S
H3261 C3277 0.930 . S
H3262 C3278 0.931 . S
C3263 H3251 0.929 . S
C3263 C3257 1.390 . S
C3263 C3260 1.386 . S
C3264 C3259 1.490 . S
C3264 C3266 1.395 . S
C3264 C3267 1.403 . S
H3265 C3271 0.930 . S
C3266 H3252 0.930 . S
C3266 C3264 1.395 . S
C3266 C3269 1.403 . S
C3267 C3264 1.403 . S
C3267 C3268 1.524 . S
C3267 C3271 1.400 . S
C3268 H3253 0.960 . S
C3268 H3254 0.960 . S
C3268 H3255 0.960 . S
C3268 C3267 1.524 . S
C3269 C3266 1.403 . S
C3269 C3270 1.392 . S
C3269 C3273 1.495 . S
C3270 C3269 1.392 . S
C3270 C3271 1.385 . S
C3270 C3272 1.478 . S
C3271 H3265 0.930 . S
C3271 C3267 1.400 . S
C3271 C3270 1.385 . S
C3272 C3270 1.478 . S
C3272 C3274 1.381 . S
C3272 C3278 1.383 . S
C3273 C3269 1.495 . S
C3273 H3279 0.959 . S
C3273 H3280 0.961 . S
C3273 H3281 0.960 . S
C3274 C3272 1.381 . S
C3274 C3275 1.394 . S
C3274 H3282 0.930 . S
C3275 C3274 1.394 . S
C3275 C3276 1.383 . S
C3275 H3283 0.929 . S
C3276 C3275 1.383 . S
C3276 C3277 1.377 . S
C3277 H3261 0.930 . S
C3277 C3276 1.377 . S
C3277 C3278 1.379 . S
C3278 H3262 0.931 . S
C3278 C3272 1.383 . S
C3278 C3277 1.379 . S
H3279 C3273 0.959 . S
H3280 C3273 0.961 . S
H3281 C3273 0.960 . S
H3282 C3274 0.930 . S
H3283 C3275 0.929 . S
H3284 C3292 0.929 . S
H3285 C3294 0.930 . S
H3286 C3296 0.930 . S
H3287 C3299 0.929 . S
H3288 C3302 0.930 . S
H3289 C3304 0.960 1_554 S
H3290 C3304 0.960 . S
H3291 C3304 0.960 . S
C3292 H3284 0.929 . S
C3292 C3293 1.377 . S
C3292 C3294 1.384 . S
C3293 C3292 1.377 . S
C3293 C3299 1.390 . S
C3294 H3285 0.930 . S
C3294 C3292 1.384 . S
C3294 C3295 1.372 . S
C3295 C3294 1.372 . S
C3295 C3296 1.400 . S
C3295 C3300 1.490 . S
C3296 H3286 0.930 . S
C3296 C3295 1.400 . S
C3296 C3299 1.386 . S
H3297 C3313 0.930 . S
H3298 C3314 0.931 . S
C3299 H3287 0.929 . S
C3299 C3293 1.390 . S
C3299 C3296 1.386 . S
C3300 C3295 1.490 . S
C3300 C3302 1.395 . S
C3300 C3303 1.403 . S
H3301 C3307 0.930 . S
C3302 H3288 0.930 . S
C3302 C3300 1.395 . S
C3302 C3305 1.403 1_556 S
C3303 C3300 1.403 . S
C3303 C3304 1.524 . S
C3303 C3307 1.400 1_556 S
C3304 H3289 0.960 1_556 S
C3304 H3290 0.960 . S
C3304 H3291 0.960 . S
C3304 C3303 1.524 . S
C3305 C3302 1.403 1_554 S
C3305 C3306 1.392 . S
C3305 C3309 1.495 . S
C3306 C3305 1.392 . S
C3306 C3307 1.385 . S
C3306 C3308 1.478 . S
C3307 H3301 0.930 . S
C3307 C3303 1.400 1_554 S
C3307 C3306 1.385 . S
C3308 C3306 1.478 . S
C3308 C3310 1.381 . S
C3308 C3314 1.383 . S
C3309 C3305 1.495 . S
C3309 H3315 0.959 . S
C3309 H3316 0.961 . S
C3309 H3317 0.960 . S
C3310 C3308 1.381 . S
C3310 C3311 1.394 . S
C3310 H3318 0.930 . S
C3311 C3310 1.394 . S
C3311 C3312 1.383 . S
C3311 H3319 0.929 . S
C3312 C3311 1.383 . S
C3312 C3313 1.377 . S
C3313 H3297 0.930 . S
C3313 C3312 1.377 . S
C3313 C3314 1.379 . S
C3314 H3298 0.931 . S
C3314 C3308 1.383 . S
C3314 C3313 1.379 . S
H3315 C3309 0.959 . S
H3316 C3309 0.961 . S
H3317 C3309 0.960 . S
H3318 C3310 0.930 . S
H3319 C3311 0.929 . S
H3320 C3328 0.929 . S
H3321 C3330 0.930 . S
H3322 C3332 0.930 . S
H3323 C3335 0.929 . S
H3324 C3338 0.930 . S
H3325 C3340 0.960 . S
H3326 C3340 0.960 . S
H3327 C3340 0.960 . S
C3328 H3320 0.929 . S
C3328 C3329 1.377 . S
C3328 C3330 1.384 . S
C3329 C3328 1.377 . S
C3329 C3335 1.390 . S
C3330 H3321 0.930 . S
C3330 C3328 1.384 . S
C3330 C3331 1.372 . S
C3331 C3330 1.372 . S
C3331 C3332 1.400 . S
C3331 C3336 1.490 . S
C3332 H3322 0.930 . S
C3332 C3331 1.400 . S
C3332 C3335 1.386 . S
H3333 C3349 0.930 . S
H3334 C3350 0.931 . S
C3335 H3323 0.929 . S
C3335 C3329 1.390 . S
C3335 C3332 1.386 . S
C3336 C3331 1.490 . S
C3336 C3338 1.395 . S
C3336 C3339 1.403 . S
H3337 C3343 0.930 . S
C3338 H3324 0.930 . S
C3338 C3336 1.395 . S
C3338 C3341 1.403 . S
C3339 C3336 1.403 . S
C3339 C3340 1.524 . S
C3339 C3343 1.400 . S
C3340 H3325 0.960 . S
C3340 H3326 0.960 . S
C3340 H3327 0.960 . S
C3340 C3339 1.524 . S
C3341 C3338 1.403 . S
C3341 C3342 1.392 . S
C3341 C3345 1.495 . S
C3342 C3341 1.392 . S
C3342 C3343 1.385 . S
C3342 C3344 1.478 . S
C3343 H3337 0.930 . S
C3343 C3339 1.400 . S
C3343 C3342 1.385 . S
C3344 C3342 1.478 . S
C3344 C3346 1.381 . S
C3344 C3350 1.383 . S
C3345 C3341 1.495 . S
C3345 H3351 0.959 . S
C3345 H3352 0.961 . S
C3345 H3353 0.960 . S
C3346 C3344 1.381 . S
C3346 C3347 1.394 . S
C3346 H3354 0.930 . S
C3347 C3346 1.394 . S
C3347 C3348 1.383 . S
C3347 H3355 0.929 . S
C3348 C3347 1.383 . S
C3348 C3349 1.377 . S
C3349 H3333 0.930 . S
C3349 C3348 1.377 . S
C3349 C3350 1.379 . S
C3350 H3334 0.931 . S
C3350 C3344 1.383 . S
C3350 C3349 1.379 . S
H3351 C3345 0.959 . S
H3352 C3345 0.961 . S
H3353 C3345 0.960 . S
H3354 C3346 0.930 . S
H3355 C3347 0.929 . S
H3356 C3364 0.929 . S
H3357 C3366 0.930 . S
H3358 C3368 0.930 . S
H3359 C3371 0.929 . S
H3360 C3374 0.930 . S
H3361 C3376 0.960 . S
H3362 C3376 0.960 . S
H3363 C3376 0.960 . S
C3364 H3356 0.929 . S
C3364 C3365 1.377 . S
C3364 C3366 1.384 . S
C3365 C3364 1.377 . S
C3365 C3371 1.390 . S
C3366 H3357 0.930 . S
C3366 C3364 1.384 . S
C3366 C3367 1.372 . S
C3367 C3366 1.372 . S
C3367 C3368 1.400 . S
C3367 C3372 1.490 . S
C3368 H3358 0.930 . S
C3368 C3367 1.400 . S
C3368 C3371 1.386 . S
H3369 C3385 0.930 . S
H3370 C3386 0.931 . S
C3371 H3359 0.929 . S
C3371 C3365 1.390 . S
C3371 C3368 1.386 . S
C3372 C3367 1.490 . S
C3372 C3374 1.395 . S
C3372 C3375 1.403 . S
H3373 C3379 0.930 . S
C3374 H3360 0.930 . S
C3374 C3372 1.395 . S
C3374 C3377 1.403 . S
C3375 C3372 1.403 . S
C3375 C3376 1.524 . S
C3375 C3379 1.400 . S
C3376 H3361 0.960 . S
C3376 H3362 0.960 . S
C3376 H3363 0.960 . S
C3376 C3375 1.524 . S
C3377 C3374 1.403 . S
C3377 C3378 1.392 . S
C3377 C3381 1.495 . S
C3378 C3377 1.392 . S
C3378 C3379 1.385 . S
C3378 C3380 1.478 . S
C3379 H3373 0.930 . S
C3379 C3375 1.400 . S
C3379 C3378 1.385 . S
C3380 C3378 1.478 . S
C3380 C3382 1.381 . S
C3380 C3386 1.383 . S
C3381 C3377 1.495 . S
C3381 H3387 0.959 . S
C3381 H3388 0.961 . S
C3381 H3389 0.960 . S
C3382 C3380 1.381 . S
C3382 C3383 1.394 . S
C3382 H3390 0.930 . S
C3383 C3382 1.394 . S
C3383 C3384 1.383 . S
C3383 H3391 0.929 . S
C3384 C3383 1.383 . S
C3384 C3385 1.377 . S
C3385 H3369 0.930 . S
C3385 C3384 1.377 . S
C3385 C3386 1.379 . S
C3386 H3370 0.931 . S
C3386 C3380 1.383 . S
C3386 C3385 1.379 . S
H3387 C3381 0.959 . S
H3388 C3381 0.961 . S
H3389 C3381 0.960 . S
H3390 C3382 0.930 . S
H3391 C3383 0.929 . S
H3392 C3400 0.929 1_554 S
H3393 C3402 0.930 . S
H3394 C3404 0.930 . S
H3395 C3407 0.929 . S
H3396 C3410 0.930 . S
H3397 C3412 0.960 . S
H3398 C3412 0.960 . S
H3399 C3412 0.960 . S
C3400 H3392 0.929 1_556 S
C3400 C3401 1.377 . S
C3400 C3402 1.384 . S
C3401 C3400 1.377 . S
C3401 C3407 1.390 . S
C3402 H3393 0.930 . S
C3402 C3400 1.384 . S
C3402 C3403 1.372 . S
C3403 C3402 1.372 . S
C3403 C3404 1.400 . S
C3403 C3408 1.490 . S
C3404 H3394 0.930 . S
C3404 C3403 1.400 . S
C3404 C3407 1.386 . S
H3405 C3421 0.930 . S
H3406 C3422 0.931 . S
C3407 H3395 0.929 . S
C3407 C3401 1.390 . S
C3407 C3404 1.386 . S
C3408 C3403 1.490 . S
C3408 C3410 1.395 . S
C3408 C3411 1.403 . S
H3409 C3415 0.930 . S
C3410 H3396 0.930 . S
C3410 C3408 1.395 . S
C3410 C3413 1.403 . S
C3411 C3408 1.403 . S
C3411 C3412 1.524 . S
C3411 C3415 1.400 . S
C3412 H3397 0.960 . S
C3412 H3398 0.960 . S
C3412 H3399 0.960 . S
C3412 C3411 1.524 . S
C3413 C3410 1.403 . S
C3413 C3414 1.392 . S
C3413 C3417 1.495 . S
C3414 C3413 1.392 . S
C3414 C3415 1.385 . S
C3414 C3416 1.478 . S
C3415 H3409 0.930 . S
C3415 C3411 1.400 . S
C3415 C3414 1.385 . S
C3416 C3414 1.478 . S
C3416 C3418 1.381 . S
C3416 C3422 1.383 . S
C3417 C3413 1.495 . S
C3417 H3423 0.959 . S
C3417 H3424 0.961 . S
C3417 H3425 0.960 . S
C3418 C3416 1.381 . S
C3418 C3419 1.394 . S
C3418 H3426 0.930 . S
C3419 C3418 1.394 . S
C3419 C3420 1.383 . S
C3419 H3427 0.929 . S
C3420 C3419 1.383 . S
C3420 C3421 1.377 . S
C3421 H3405 0.930 . S
C3421 C3420 1.377 . S
C3421 C3422 1.379 . S
C3422 H3406 0.931 . S
C3422 C3416 1.383 . S
C3422 C3421 1.379 . S
H3423 C3417 0.959 . S
H3424 C3417 0.961 . S
H3425 C3417 0.960 . S
H3426 C3418 0.930 . S
H3427 C3419 0.929 . S
H3428 C3436 0.929 . S
H3429 C3438 0.930 . S
H3430 C3440 0.930 . S
H3431 C3443 0.929 . S
H3432 C3446 0.930 . S
H3433 C3448 0.960 . S
H3434 C3448 0.960 . S
H3435 C3448 0.960 . S
C3436 H3428 0.929 . S
C3436 C3437 1.377 . S
C3436 C3438 1.384 . S
C3437 C3436 1.377 . S
C3437 C3443 1.390 1_554 S
C3438 H3429 0.930 . S
C3438 C3436 1.384 . S
C3438 C3439 1.372 . S
C3439 C3438 1.372 . S
C3439 C3440 1.400 . S
C3439 C3444 1.490 . S
C3440 H3430 0.930 . S
C3440 C3439 1.400 . S
C3440 C3443 1.386 1_554 S
H3441 C3457 0.930 . S
H3442 C3458 0.931 . S
C3443 H3431 0.929 . S
C3443 C3437 1.390 1_556 S
C3443 C3440 1.386 1_556 S
C3444 C3439 1.490 . S
C3444 C3446 1.395 . S
C3444 C3447 1.403 . S
H3445 C3451 0.930 . S
C3446 H3432 0.930 . S
C3446 C3444 1.395 . S
C3446 C3449 1.403 . S
C3447 C3444 1.403 . S
C3447 C3448 1.524 . S
C3447 C3451 1.400 . S
C3448 H3433 0.960 . S
C3448 H3434 0.960 . S
C3448 H3435 0.960 . S
C3448 C3447 1.524 . S
C3449 C3446 1.403 . S
C3449 C3450 1.392 . S
C3449 C3453 1.495 . S
C3450 C3449 1.392 . S
C3450 C3451 1.385 . S
C3450 C3452 1.478 . S
C3451 H3445 0.930 . S
C3451 C3447 1.400 . S
C3451 C3450 1.385 . S
C3452 C3450 1.478 . S
C3452 C3454 1.381 . S
C3452 C3458 1.383 . S
C3453 C3449 1.495 . S
C3453 H3459 0.959 . S
C3453 H3460 0.961 . S
C3453 H3461 0.960 . S
C3454 C3452 1.381 . S
C3454 C3455 1.394 . S
C3454 H3462 0.930 . S
C3455 C3454 1.394 . S
C3455 C3456 1.383 . S
C3455 H3463 0.929 . S
C3456 C3455 1.383 . S
C3456 C3457 1.377 . S
C3457 H3441 0.930 . S
C3457 C3456 1.377 . S
C3457 C3458 1.379 . S
C3458 H3442 0.931 . S
C3458 C3452 1.383 . S
C3458 C3457 1.379 . S
H3459 C3453 0.959 . S
H3460 C3453 0.961 . S
H3461 C3453 0.960 . S
H3462 C3454 0.930 . S
H3463 C3455 0.929 . S
H3464 C3472 0.929 . S
H3465 C3474 0.930 . S
H3466 C3476 0.930 . S
H3467 C3479 0.929 . S
H3468 C3482 0.930 . S
H3469 C3484 0.960 . S
H3470 C3484 0.960 . S
H3471 C3484 0.960 . S
C3472 H3464 0.929 . S
C3472 C3473 1.377 . S
C3472 C3474 1.384 . S
C3473 C3472 1.377 . S
C3473 C3479 1.390 . S
C3474 H3465 0.930 . S
C3474 C3472 1.384 . S
C3474 C3475 1.372 . S
C3475 C3474 1.372 . S
C3475 C3476 1.400 . S
C3475 C3480 1.490 . S
C3476 H3466 0.930 . S
C3476 C3475 1.400 . S
C3476 C3479 1.386 . S
H3477 C3493 0.930 . S
H3478 C3494 0.931 . S
C3479 H3467 0.929 . S
C3479 C3473 1.390 . S
C3479 C3476 1.386 . S
C3480 C3475 1.490 . S
C3480 C3482 1.395 . S
C3480 C3483 1.403 . S
H3481 C3487 0.930 . S
C3482 H3468 0.930 . S
C3482 C3480 1.395 . S
C3482 C3485 1.403 . S
C3483 C3480 1.403 . S
C3483 C3484 1.524 . S
C3483 C3487 1.400 . S
C3484 H3469 0.960 . S
C3484 H3470 0.960 . S
C3484 H3471 0.960 . S
C3484 C3483 1.524 . S
C3485 C3482 1.403 . S
C3485 C3486 1.392 . S
C3485 C3489 1.495 . S
C3486 C3485 1.392 . S
C3486 C3487 1.385 . S
C3486 C3488 1.478 . S
C3487 H3481 0.930 . S
C3487 C3483 1.400 . S
C3487 C3486 1.385 . S
C3488 C3486 1.478 . S
C3488 C3490 1.381 . S
C3488 C3494 1.383 . S
C3489 C3485 1.495 . S
C3489 H3495 0.959 . S
C3489 H3496 0.961 . S
C3489 H3497 0.960 . S
C3490 C3488 1.381 . S
C3490 C3491 1.394 . S
C3490 H3498 0.930 . S
C3491 C3490 1.394 . S
C3491 C3492 1.383 . S
C3491 H3499 0.929 . S
C3492 C3491 1.383 . S
C3492 C3493 1.377 . S
C3493 H3477 0.930 . S
C3493 C3492 1.377 . S
C3493 C3494 1.379 . S
C3494 H3478 0.931 . S
C3494 C3488 1.383 . S
C3494 C3493 1.379 . S
H3495 C3489 0.959 . S
H3496 C3489 0.961 . S
H3497 C3489 0.960 . S
H3498 C3490 0.930 . S
H3499 C3491 0.929 . S
H3500 C3508 0.929 . S
H3501 C3510 0.930 . S
H3502 C3512 0.930 . S
H3503 C3515 0.929 . S
H3504 C3518 0.930 . S
H3505 C3520 0.960 . S
H3506 C3520 0.960 . S
H3507 C3520 0.960 . S
C3508 H3500 0.929 . S
C3508 C3509 1.377 . S
C3508 C3510 1.384 . S
C3509 C3508 1.377 . S
C3509 C3515 1.390 . S
C3510 H3501 0.930 . S
C3510 C3508 1.384 . S
C3510 C3511 1.372 . S
C3511 C3510 1.372 . S
C3511 C3512 1.400 . S
C3511 C3516 1.490 . S
C3512 H3502 0.930 . S
C3512 C3511 1.400 . S
C3512 C3515 1.386 . S
H3513 C3529 0.930 . S
H3514 C3530 0.931 . S
C3515 H3503 0.929 . S
C3515 C3509 1.390 . S
C3515 C3512 1.386 . S
C3516 C3511 1.490 . S
C3516 C3518 1.395 . S
C3516 C3519 1.403 . S
H3517 C3523 0.930 . S
C3518 H3504 0.930 . S
C3518 C3516 1.395 . S
C3518 C3521 1.403 . S
C3519 C3516 1.403 . S
C3519 C3520 1.524 . S
C3519 C3523 1.400 . S
C3520 H3505 0.960 . S
C3520 H3506 0.960 . S
C3520 H3507 0.960 . S
C3520 C3519 1.524 . S
C3521 C3518 1.403 . S
C3521 C3522 1.392 . S
C3521 C3525 1.495 . S
C3522 C3521 1.392 . S
C3522 C3523 1.385 . S
C3522 C3524 1.478 . S
C3523 H3517 0.930 . S
C3523 C3519 1.400 . S
C3523 C3522 1.385 . S
C3524 C3522 1.478 . S
C3524 C3526 1.381 . S
C3524 C3530 1.383 . S
C3525 C3521 1.495 . S
C3525 H3531 0.959 . S
C3525 H3532 0.961 . S
C3525 H3533 0.960 . S
C3526 C3524 1.381 . S
C3526 C3527 1.394 . S
C3526 H3534 0.930 . S
C3527 C3526 1.394 . S
C3527 C3528 1.383 . S
C3527 H3535 0.929 . S
C3528 C3527 1.383 . S
C3528 C3529 1.377 . S
C3529 H3513 0.930 . S
C3529 C3528 1.377 . S
C3529 C3530 1.379 . S
C3530 H3514 0.931 . S
C3530 C3524 1.383 . S
C3530 C3529 1.379 . S
H3531 C3525 0.959 . S
H3532 C3525 0.961 . S
H3533 C3525 0.960 . S
H3534 C3526 0.930 . S
H3535 C3527 0.929 . S
H3536 C3544 0.929 . S
H3537 C3546 0.930 . S
H3538 C3548 0.930 . S
H3539 C3551 0.929 . S
H3540 C3554 0.930 . S
H3541 C3556 0.960 . S
H3542 C3556 0.960 . S
H3543 C3556 0.960 . S
C3544 H3536 0.929 . S
C3544 C3545 1.377 . S
C3544 C3546 1.384 . S
C3545 C3544 1.377 . S
C3545 C3551 1.390 . S
C3546 H3537 0.930 . S
C3546 C3544 1.384 . S
C3546 C3547 1.372 . S
C3547 C3546 1.372 . S
C3547 C3548 1.400 . S
C3547 C3552 1.490 . S
C3548 H3538 0.930 . S
C3548 C3547 1.400 . S
C3548 C3551 1.386 . S
H3549 C3565 0.930 . S
H3550 C3566 0.931 . S
C3551 H3539 0.929 . S
C3551 C3545 1.390 . S
C3551 C3548 1.386 . S
C3552 C3547 1.490 . S
C3552 C3554 1.395 . S
C3552 C3555 1.403 . S
H3553 C3559 0.930 . S
C3554 H3540 0.930 . S
C3554 C3552 1.395 . S
C3554 C3557 1.403 . S
C3555 C3552 1.403 . S
C3555 C3556 1.524 . S
C3555 C3559 1.400 . S
C3556 H3541 0.960 . S
C3556 H3542 0.960 . S
C3556 H3543 0.960 . S
C3556 C3555 1.524 . S
C3557 C3554 1.403 . S
C3557 C3558 1.392 . S
C3557 C3561 1.495 . S
C3558 C3557 1.392 . S
C3558 C3559 1.385 . S
C3558 C3560 1.478 . S
C3559 H3553 0.930 . S
C3559 C3555 1.400 . S
C3559 C3558 1.385 . S
C3560 C3558 1.478 . S
C3560 C3562 1.381 . S
C3560 C3566 1.383 . S
C3561 C3557 1.495 . S
C3561 H3567 0.959 . S
C3561 H3568 0.961 . S
C3561 H3569 0.960 . S
C3562 C3560 1.381 . S
C3562 C3563 1.394 . S
C3562 H3570 0.930 . S
C3563 C3562 1.394 . S
C3563 C3564 1.383 . S
C3563 H3571 0.929 . S
C3564 C3563 1.383 . S
C3564 C3565 1.377 . S
C3565 H3549 0.930 . S
C3565 C3564 1.377 . S
C3565 C3566 1.379 . S
C3566 H3550 0.931 . S
C3566 C3560 1.383 . S
C3566 C3565 1.379 . S
H3567 C3561 0.959 . S
H3568 C3561 0.961 . S
H3569 C3561 0.960 . S
H3570 C3562 0.930 . S
H3571 C3563 0.929 . S
H3572 C3580 0.929 . S
H3573 C3582 0.930 . S
H3574 C3584 0.930 . S
H3575 C3587 0.929 . S
H3576 C3590 0.930 . S
H3577 C3592 0.960 . S
H3578 C3592 0.960 . S
H3579 C3592 0.960 . S
C3580 H3572 0.929 . S
C3580 C3581 1.377 . S
C3580 C3582 1.384 . S
C3581 C3580 1.377 . S
C3581 C3587 1.390 1_556 S
C3582 H3573 0.930 . S
C3582 C3580 1.384 . S
C3582 C3583 1.372 . S
C3583 C3582 1.372 . S
C3583 C3584 1.400 . S
C3583 C3588 1.490 . S
C3584 H3574 0.930 . S
C3584 C3583 1.400 . S
C3584 C3587 1.386 1_556 S
H3585 C3601 0.930 . S
H3586 C3602 0.931 . S
C3587 H3575 0.929 . S
C3587 C3581 1.390 1_554 S
C3587 C3584 1.386 1_554 S
C3588 C3583 1.490 . S
C3588 C3590 1.395 . S
C3588 C3591 1.403 . S
H3589 C3595 0.930 . S
C3590 H3576 0.930 . S
C3590 C3588 1.395 . S
C3590 C3593 1.403 . S
C3591 C3588 1.403 . S
C3591 C3592 1.524 . S
C3591 C3595 1.400 . S
C3592 H3577 0.960 . S
C3592 H3578 0.960 . S
C3592 H3579 0.960 . S
C3592 C3591 1.524 . S
C3593 C3590 1.403 . S
C3593 C3594 1.392 . S
C3593 C3597 1.495 . S
C3594 C3593 1.392 . S
C3594 C3595 1.385 . S
C3594 C3596 1.478 . S
C3595 H3589 0.930 . S
C3595 C3591 1.400 . S
C3595 C3594 1.385 . S
C3596 C3594 1.478 . S
C3596 C3598 1.381 . S
C3596 C3602 1.383 . S
C3597 C3593 1.495 . S
C3597 H3603 0.959 . S
C3597 H3604 0.961 . S
C3597 H3605 0.960 . S
C3598 C3596 1.381 . S
C3598 C3599 1.394 . S
C3598 H3606 0.930 . S
C3599 C3598 1.394 . S
C3599 C3600 1.383 . S
C3599 H3607 0.929 . S
C3600 C3599 1.383 . S
C3600 C3601 1.377 . S
C3601 H3585 0.930 . S
C3601 C3600 1.377 . S
C3601 C3602 1.379 . S
C3602 H3586 0.931 . S
C3602 C3596 1.383 . S
C3602 C3601 1.379 . S
H3603 C3597 0.959 . S
H3604 C3597 0.961 . S
H3605 C3597 0.960 . S
H3606 C3598 0.930 . S
H3607 C3599 0.929 . S
H3608 C3616 0.929 . S
H3609 C3618 0.930 . S
H3610 C3620 0.930 . S
H3611 C3623 0.929 . S
H3612 C3626 0.930 . S
H3613 C3628 0.960 . S
H3614 C3628 0.960 . S
H3615 C3628 0.960 . S
C3616 H3608 0.929 . S
C3616 C3617 1.377 . S
C3616 C3618 1.384 . S
C3617 C3616 1.377 . S
C3617 C3623 1.390 . S
C3618 H3609 0.930 . S
C3618 C3616 1.384 . S
C3618 C3619 1.372 . S
C3619 C3618 1.372 . S
C3619 C3620 1.400 . S
C3619 C3624 1.490 . S
C3620 H3610 0.930 . S
C3620 C3619 1.400 . S
C3620 C3623 1.386 . S
H3621 C3637 0.930 . S
H3622 C3638 0.931 . S
C3623 H3611 0.929 . S
C3623 C3617 1.390 . S
C3623 C3620 1.386 . S
C3624 C3619 1.490 . S
C3624 C3626 1.395 . S
C3624 C3627 1.403 . S
H3625 C3631 0.930 . S
C3626 H3612 0.930 . S
C3626 C3624 1.395 . S
C3626 C3629 1.403 . S
C3627 C3624 1.403 . S
C3627 C3628 1.524 . S
C3627 C3631 1.400 . S
C3628 H3613 0.960 . S
C3628 H3614 0.960 . S
C3628 H3615 0.960 . S
C3628 C3627 1.524 . S
C3629 C3626 1.403 . S
C3629 C3630 1.392 . S
C3629 C3633 1.495 . S
C3630 C3629 1.392 . S
C3630 C3631 1.385 . S
C3630 C3632 1.478 . S
C3631 H3625 0.930 . S
C3631 C3627 1.400 . S
C3631 C3630 1.385 . S
C3632 C3630 1.478 . S
C3632 C3634 1.381 . S
C3632 C3638 1.383 . S
C3633 C3629 1.495 . S
C3633 H3639 0.959 . S
C3633 H3640 0.961 . S
C3633 H3641 0.960 . S
C3634 C3632 1.381 . S
C3634 C3635 1.394 . S
C3634 H3642 0.930 . S
C3635 C3634 1.394 . S
C3635 C3636 1.383 . S
C3635 H3643 0.929 . S
C3636 C3635 1.383 . S
C3636 C3637 1.377 . S
C3637 H3621 0.930 . S
C3637 C3636 1.377 . S
C3637 C3638 1.379 . S
C3638 H3622 0.931 . S
C3638 C3632 1.383 . S
C3638 C3637 1.379 . S
H3639 C3633 0.959 . S
H3640 C3633 0.961 . S
H3641 C3633 0.960 . S
H3642 C3634 0.930 . S
H3643 C3635 0.929 . S
H3644 C3652 0.929 . S
H3645 C3654 0.930 . S
H3646 C3656 0.930 . S
H3647 C3659 0.929 . S
H3648 C3662 0.930 . S
H3649 C3664 0.960 . S
H3650 C3664 0.960 . S
H3651 C3664 0.960 . S
C3652 H3644 0.929 . S
C3652 C3653 1.377 . S
C3652 C3654 1.384 . S
C3653 C3652 1.377 . S
C3653 C3659 1.390 . S
C3654 H3645 0.930 . S
C3654 C3652 1.384 . S
C3654 C3655 1.372 . S
C3655 C3654 1.372 . S
C3655 C3656 1.400 . S
C3655 C3660 1.490 . S
C3656 H3646 0.930 . S
C3656 C3655 1.400 . S
C3656 C3659 1.386 . S
H3657 C3673 0.930 . S
H3658 C3674 0.931 . S
C3659 H3647 0.929 . S
C3659 C3653 1.390 . S
C3659 C3656 1.386 . S
C3660 C3655 1.490 . S
C3660 C3662 1.395 . S
C3660 C3663 1.403 . S
H3661 C3667 0.930 . S
C3662 H3648 0.930 . S
C3662 C3660 1.395 . S
C3662 C3665 1.403 . S
C3663 C3660 1.403 . S
C3663 C3664 1.524 . S
C3663 C3667 1.400 . S
C3664 H3649 0.960 . S
C3664 H3650 0.960 . S
C3664 H3651 0.960 . S
C3664 C3663 1.524 . S
C3665 C3662 1.403 . S
C3665 C3666 1.392 . S
C3665 C3669 1.495 . S
C3666 C3665 1.392 . S
C3666 C3667 1.385 . S
C3666 C3668 1.478 . S
C3667 H3661 0.930 . S
C3667 C3663 1.400 . S
C3667 C3666 1.385 . S
C3668 C3666 1.478 . S
C3668 C3670 1.381 . S
C3668 C3674 1.383 . S
C3669 C3665 1.495 . S
C3669 H3675 0.959 . S
C3669 H3676 0.961 . S
C3669 H3677 0.960 . S
C3670 C3668 1.381 . S
C3670 C3671 1.394 . S
C3670 H3678 0.930 . S
C3671 C3670 1.394 . S
C3671 C3672 1.383 . S
C3671 H3679 0.929 . S
C3672 C3671 1.383 . S
C3672 C3673 1.377 . S
C3673 H3657 0.930 . S
C3673 C3672 1.377 . S
C3673 C3674 1.379 . S
C3674 H3658 0.931 . S
C3674 C3668 1.383 . S
C3674 C3673 1.379 . S
H3675 C3669 0.959 . S
H3676 C3669 0.961 . S
H3677 C3669 0.960 . S
H3678 C3670 0.930 . S
H3679 C3671 0.929 . S
H3680 C3688 0.929 . S
H3681 C3690 0.930 . S
H3682 C3692 0.930 . S
H3683 C3695 0.929 . S
H3684 C3698 0.930 . S
H3685 C3700 0.960 . S
H3686 C3700 0.960 . S
H3687 C3700 0.960 . S
C3688 H3680 0.929 . S
C3688 C3689 1.377 . S
C3688 C3690 1.384 . S
C3689 C3688 1.377 . S
C3689 C3695 1.390 . S
C3690 H3681 0.930 . S
C3690 C3688 1.384 . S
C3690 C3691 1.372 . S
C3691 C3690 1.372 . S
C3691 C3692 1.400 . S
C3691 C3696 1.490 . S
C3692 H3682 0.930 . S
C3692 C3691 1.400 . S
C3692 C3695 1.386 . S
H3693 C3709 0.930 . S
H3694 C3710 0.931 . S
C3695 H3683 0.929 . S
C3695 C3689 1.390 . S
C3695 C3692 1.386 . S
C3696 C3691 1.490 . S
C3696 C3698 1.395 . S
C3696 C3699 1.403 . S
H3697 C3703 0.930 . S
C3698 H3684 0.930 . S
C3698 C3696 1.395 . S
C3698 C3701 1.403 . S
C3699 C3696 1.403 . S
C3699 C3700 1.524 . S
C3699 C3703 1.400 . S
C3700 H3685 0.960 . S
C3700 H3686 0.960 . S
C3700 H3687 0.960 . S
C3700 C3699 1.524 . S
C3701 C3698 1.403 . S
C3701 C3702 1.392 . S
C3701 C3705 1.495 . S
C3702 C3701 1.392 . S
C3702 C3703 1.385 . S
C3702 C3704 1.478 . S
C3703 H3697 0.930 . S
C3703 C3699 1.400 . S
C3703 C3702 1.385 . S
C3704 C3702 1.478 . S
C3704 C3706 1.381 . S
C3704 C3710 1.383 . S
C3705 C3701 1.495 . S
C3705 H3711 0.959 . S
C3705 H3712 0.961 . S
C3705 H3713 0.960 . S
C3706 C3704 1.381 . S
C3706 C3707 1.394 . S
C3706 H3714 0.930 . S
C3707 C3706 1.394 . S
C3707 C3708 1.383 . S
C3707 H3715 0.929 . S
C3708 C3707 1.383 . S
C3708 C3709 1.377 . S
C3709 H3693 0.930 . S
C3709 C3708 1.377 . S
C3709 C3710 1.379 . S
C3710 H3694 0.931 . S
C3710 C3704 1.383 . S
C3710 C3709 1.379 . S
H3711 C3705 0.959 . S
H3712 C3705 0.961 . S
H3713 C3705 0.960 . S
H3714 C3706 0.930 . S
H3715 C3707 0.929 . S
H3716 C3724 0.929 . S
H3717 C3726 0.930 . S
H3718 C3728 0.930 . S
H3719 C3731 0.929 . S
H3720 C3734 0.930 . S
H3721 C3736 0.960 . S
H3722 C3736 0.960 . S
H3723 C3736 0.960 . S
C3724 H3716 0.929 . S
C3724 C3725 1.377 . S
C3724 C3726 1.384 . S
C3725 C3724 1.377 . S
C3725 C3731 1.390 . S
C3726 H3717 0.930 . S
C3726 C3724 1.384 . S
C3726 C3727 1.372 . S
C3727 C3726 1.372 . S
C3727 C3728 1.400 . S
C3727 C3732 1.490 . S
C3728 H3718 0.930 . S
C3728 C3727 1.400 . S
C3728 C3731 1.386 . S
H3729 C3745 0.930 . S
H3730 C3746 0.931 . S
C3731 H3719 0.929 . S
C3731 C3725 1.390 . S
C3731 C3728 1.386 . S
C3732 C3727 1.490 . S
C3732 C3734 1.395 . S
C3732 C3735 1.403 . S
H3733 C3739 0.930 . S
C3734 H3720 0.930 . S
C3734 C3732 1.395 . S
C3734 C3737 1.403 . S
C3735 C3732 1.403 . S
C3735 C3736 1.524 . S
C3735 C3739 1.400 . S
C3736 H3721 0.960 . S
C3736 H3722 0.960 . S
C3736 H3723 0.960 . S
C3736 C3735 1.524 . S
C3737 C3734 1.403 . S
C3737 C3738 1.392 . S
C3737 C3741 1.495 . S
C3738 C3737 1.392 . S
C3738 C3739 1.385 . S
C3738 C3740 1.478 . S
C3739 H3733 0.930 . S
C3739 C3735 1.400 . S
C3739 C3738 1.385 . S
C3740 C3738 1.478 . S
C3740 C3742 1.381 . S
C3740 C3746 1.383 . S
C3741 C3737 1.495 . S
C3741 H3747 0.959 . S
C3741 H3748 0.961 . S
C3741 H3749 0.960 . S
C3742 C3740 1.381 . S
C3742 C3743 1.394 . S
C3742 H3750 0.930 . S
C3743 C3742 1.394 . S
C3743 C3744 1.383 . S
C3743 H3751 0.929 . S
C3744 C3743 1.383 . S
C3744 C3745 1.377 . S
C3745 H3729 0.930 . S
C3745 C3744 1.377 . S
C3745 C3746 1.379 . S
C3746 H3730 0.931 . S
C3746 C3740 1.383 . S
C3746 C3745 1.379 . S
H3747 C3741 0.959 . S
H3748 C3741 0.961 . S
H3749 C3741 0.960 . S
H3750 C3742 0.930 . S
H3751 C3743 0.929 . S
H3752 C3760 0.929 . S
H3753 C3762 0.930 . S
H3754 C3764 0.930 . S
H3755 C3767 0.929 . S
H3756 C3770 0.930 . S
H3757 C3772 0.960 . S
H3758 C3772 0.960 . S
H3759 C3772 0.960 . S
C3760 H3752 0.929 . S
C3760 C3761 1.377 . S
C3760 C3762 1.384 . S
C3761 C3760 1.377 . S
C3761 C3767 1.390 . S
C3762 H3753 0.930 . S
C3762 C3760 1.384 . S
C3762 C3763 1.372 . S
C3763 C3762 1.372 . S
C3763 C3764 1.400 . S
C3763 C3768 1.490 . S
C3764 H3754 0.930 . S
C3764 C3763 1.400 . S
C3764 C3767 1.386 . S
H3765 C3781 0.930 . S
H3766 C3782 0.931 . S
C3767 H3755 0.929 . S
C3767 C3761 1.390 . S
C3767 C3764 1.386 . S
C3768 C3763 1.490 . S
C3768 C3770 1.395 . S
C3768 C3771 1.403 . S
H3769 C3775 0.930 . S
C3770 H3756 0.930 . S
C3770 C3768 1.395 . S
C3770 C3773 1.403 . S
C3771 C3768 1.403 . S
C3771 C3772 1.524 . S
C3771 C3775 1.400 . S
C3772 H3757 0.960 . S
C3772 H3758 0.960 . S
C3772 H3759 0.960 . S
C3772 C3771 1.524 . S
C3773 C3770 1.403 . S
C3773 C3774 1.392 . S
C3773 C3777 1.495 . S
C3774 C3773 1.392 . S
C3774 C3775 1.385 . S
C3774 C3776 1.478 . S
C3775 H3769 0.930 . S
C3775 C3771 1.400 . S
C3775 C3774 1.385 . S
C3776 C3774 1.478 . S
C3776 C3778 1.381 . S
C3776 C3782 1.383 . S
C3777 C3773 1.495 . S
C3777 H3783 0.959 . S
C3777 H3784 0.961 . S
C3777 H3785 0.960 . S
C3778 C3776 1.381 . S
C3778 C3779 1.394 1_556 S
C3778 H3786 0.930 1_556 S
C3779 C3778 1.394 1_554 S
C3779 C3780 1.383 1_554 S
C3779 H3787 0.929 . S
C3780 C3779 1.383 1_556 S
C3780 C3781 1.377 . S
C3781 H3765 0.930 . S
C3781 C3780 1.377 . S
C3781 C3782 1.379 . S
C3782 H3766 0.931 . S
C3782 C3776 1.383 . S
C3782 C3781 1.379 . S
H3783 C3777 0.959 . S
H3784 C3777 0.961 . S
H3785 C3777 0.960 . S
H3786 C3778 0.930 1_554 S
H3787 C3779 0.929 . S
H3788 C3796 0.929 . S
H3789 C3798 0.930 . S
H3790 C3800 0.930 . S
H3791 C3803 0.929 . S
H3792 C3806 0.930 . S
H3793 C3808 0.960 . S
H3794 C3808 0.960 . S
H3795 C3808 0.960 . S
C3796 H3788 0.929 . S
C3796 C3797 1.377 . S
C3796 C3798 1.384 . S
C3797 C3796 1.377 . S
C3797 C3803 1.390 . S
C3798 H3789 0.930 . S
C3798 C3796 1.384 . S
C3798 C3799 1.372 . S
C3799 C3798 1.372 . S
C3799 C3800 1.400 . S
C3799 C3804 1.490 . S
C3800 H3790 0.930 . S
C3800 C3799 1.400 . S
C3800 C3803 1.386 . S
H3801 C3817 0.930 . S
H3802 C3818 0.931 . S
C3803 H3791 0.929 . S
C3803 C3797 1.390 . S
C3803 C3800 1.386 . S
C3804 C3799 1.490 . S
C3804 C3806 1.395 . S
C3804 C3807 1.403 . S
H3805 C3811 0.930 . S
C3806 H3792 0.930 . S
C3806 C3804 1.395 . S
C3806 C3809 1.403 . S
C3807 C3804 1.403 . S
C3807 C3808 1.524 . S
C3807 C3811 1.400 . S
C3808 H3793 0.960 . S
C3808 H3794 0.960 . S
C3808 H3795 0.960 . S
C3808 C3807 1.524 . S
C3809 C3806 1.403 . S
C3809 C3810 1.392 . S
C3809 C3813 1.495 1_554 S
C3810 C3809 1.392 . S
C3810 C3811 1.385 . S
C3810 C3812 1.478 . S
C3811 H3805 0.930 . S
C3811 C3807 1.400 . S
C3811 C3810 1.385 . S
C3812 C3810 1.478 . S
C3812 C3814 1.381 . S
C3812 C3818 1.383 . S
C3813 C3809 1.495 1_556 S
C3813 H3819 0.959 . S
C3813 H3820 0.961 . S
C3813 H3821 0.960 . S
C3814 C3812 1.381 . S
C3814 C3815 1.394 . S
C3814 H3822 0.930 . S
C3815 C3814 1.394 . S
C3815 C3816 1.383 . S
C3815 H3823 0.929 . S
C3816 C3815 1.383 . S
C3816 C3817 1.377 . S
C3817 H3801 0.930 . S
C3817 C3816 1.377 . S
C3817 C3818 1.379 . S
C3818 H3802 0.931 . S
C3818 C3812 1.383 . S
C3818 C3817 1.379 . S
H3819 C3813 0.959 . S
H3820 C3813 0.961 . S
H3821 C3813 0.960 . S
H3822 C3814 0.930 . S
H3823 C3815 0.929 . S
H3824 C3832 0.929 . S
H3825 C3834 0.930 . S
H3826 C3836 0.930 . S
H3827 C3839 0.929 . S
H3828 C3842 0.930 . S
H3829 C3844 0.960 . S
H3830 C3844 0.960 . S
H3831 C3844 0.960 . S
C3832 H3824 0.929 . S
C3832 C3833 1.377 . S
C3832 C3834 1.384 . S
C3833 C3832 1.377 . S
C3833 C3839 1.390 . S
C3834 H3825 0.930 . S
C3834 C3832 1.384 . S
C3834 C3835 1.372 . S
C3835 C3834 1.372 . S
C3835 C3836 1.400 . S
C3835 C3840 1.490 . S
C3836 H3826 0.930 . S
C3836 C3835 1.400 . S
C3836 C3839 1.386 . S
H3837 C3853 0.930 . S
H3838 C3854 0.931 . S
C3839 H3827 0.929 . S
C3839 C3833 1.390 . S
C3839 C3836 1.386 . S
C3840 C3835 1.490 . S
C3840 C3842 1.395 . S
C3840 C3843 1.403 . S
H3841 C3847 0.930 . S
C3842 H3828 0.930 . S
C3842 C3840 1.395 . S
C3842 C3845 1.403 . S
C3843 C3840 1.403 . S
C3843 C3844 1.524 . S
C3843 C3847 1.400 . S
C3844 H3829 0.960 . S
C3844 H3830 0.960 . S
C3844 H3831 0.960 . S
C3844 C3843 1.524 . S
C3845 C3842 1.403 . S
C3845 C3846 1.392 . S
C3845 C3849 1.495 . S
C3846 C3845 1.392 . S
C3846 C3847 1.385 . S
C3846 C3848 1.478 . S
C3847 H3841 0.930 . S
C3847 C3843 1.400 . S
C3847 C3846 1.385 . S
C3848 C3846 1.478 . S
C3848 C3850 1.381 . S
C3848 C3854 1.383 . S
C3849 C3845 1.495 . S
C3849 H3855 0.959 . S
C3849 H3856 0.961 . S
C3849 H3857 0.960 . S
C3850 C3848 1.381 . S
C3850 C3851 1.394 . S
C3850 H3858 0.930 . S
C3851 C3850 1.394 . S
C3851 C3852 1.383 . S
C3851 H3859 0.929 . S
C3852 C3851 1.383 . S
C3852 C3853 1.377 . S
C3853 H3837 0.930 . S
C3853 C3852 1.377 . S
C3853 C3854 1.379 . S
C3854 H3838 0.931 . S
C3854 C3848 1.383 . S
C3854 C3853 1.379 . S
H3855 C3849 0.959 . S
H3856 C3849 0.961 . S
H3857 C3849 0.960 . S
H3858 C3850 0.930 . S
H3859 C3851 0.929 . S
H3860 C3868 0.929 . S
H3861 C3870 0.930 . S
H3862 C3872 0.930 . S
H3863 C3875 0.929 . S
H3864 C3878 0.930 . S
H3865 C3880 0.960 . S
H3866 C3880 0.960 . S
H3867 C3880 0.960 . S
C3868 H3860 0.929 . S
C3868 C3869 1.377 . S
C3868 C3870 1.384 . S
C3869 C3868 1.377 . S
C3869 C3875 1.390 . S
C3870 H3861 0.930 . S
C3870 C3868 1.384 . S
C3870 C3871 1.372 . S
C3871 C3870 1.372 . S
C3871 C3872 1.400 . S
C3871 C3876 1.490 . S
C3872 H3862 0.930 . S
C3872 C3871 1.400 . S
C3872 C3875 1.386 . S
H3873 C3889 0.930 . S
H3874 C3890 0.931 . S
C3875 H3863 0.929 . S
C3875 C3869 1.390 . S
C3875 C3872 1.386 . S
C3876 C3871 1.490 . S
C3876 C3878 1.395 . S
C3876 C3879 1.403 . S
H3877 C3883 0.930 . S
C3878 H3864 0.930 . S
C3878 C3876 1.395 . S
C3878 C3881 1.403 . S
C3879 C3876 1.403 . S
C3879 C3880 1.524 . S
C3879 C3883 1.400 . S
C3880 H3865 0.960 . S
C3880 H3866 0.960 . S
C3880 H3867 0.960 . S
C3880 C3879 1.524 . S
C3881 C3878 1.403 . S
C3881 C3882 1.392 . S
C3881 C3885 1.495 . S
C3882 C3881 1.392 . S
C3882 C3883 1.385 . S
C3882 C3884 1.478 . S
C3883 H3877 0.930 . S
C3883 C3879 1.400 . S
C3883 C3882 1.385 . S
C3884 C3882 1.478 . S
C3884 C3886 1.381 . S
C3884 C3890 1.383 . S
C3885 C3881 1.495 . S
C3885 H3891 0.959 . S
C3885 H3892 0.961 . S
C3885 H3893 0.960 . S
C3886 C3884 1.381 . S
C3886 C3887 1.394 . S
C3886 H3894 0.930 . S
C3887 C3886 1.394 . S
C3887 C3888 1.383 . S
C3887 H3895 0.929 . S
C3888 C3887 1.383 . S
C3888 C3889 1.377 . S
C3889 H3873 0.930 . S
C3889 C3888 1.377 . S
C3889 C3890 1.379 . S
C3890 H3874 0.931 . S
C3890 C3884 1.383 . S
C3890 C3889 1.379 . S
H3891 C3885 0.959 . S
H3892 C3885 0.961 . S
H3893 C3885 0.960 . S
H3894 C3886 0.930 . S
H3895 C3887 0.929 . S
H3896 C3904 0.929 . S
H3897 C3906 0.930 . S
H3898 C3908 0.930 . S
H3899 C3911 0.929 . S
H3900 C3914 0.930 . S
H3901 C3916 0.960 . S
H3902 C3916 0.960 . S
H3903 C3916 0.960 . S
C3904 H3896 0.929 . S
C3904 C3905 1.377 . S
C3904 C3906 1.384 . S
C3905 C3904 1.377 . S
C3905 C3911 1.390 . S
C3906 H3897 0.930 . S
C3906 C3904 1.384 . S
C3906 C3907 1.372 . S
C3907 C3906 1.372 . S
C3907 C3908 1.400 . S
C3907 C3912 1.490 . S
C3908 H3898 0.930 . S
C3908 C3907 1.400 . S
C3908 C3911 1.386 . S
H3909 C3925 0.930 . S
H3910 C3926 0.931 . S
C3911 H3899 0.929 . S
C3911 C3905 1.390 . S
C3911 C3908 1.386 . S
C3912 C3907 1.490 . S
C3912 C3914 1.395 . S
C3912 C3915 1.403 . S
H3913 C3919 0.930 . S
C3914 H3900 0.930 . S
C3914 C3912 1.395 . S
C3914 C3917 1.403 . S
C3915 C3912 1.403 . S
C3915 C3916 1.524 . S
C3915 C3919 1.400 . S
C3916 H3901 0.960 . S
C3916 H3902 0.960 . S
C3916 H3903 0.960 . S
C3916 C3915 1.524 . S
C3917 C3914 1.403 . S
C3917 C3918 1.392 . S
C3917 C3921 1.495 . S
C3918 C3917 1.392 . S
C3918 C3919 1.385 . S
C3918 C3920 1.478 . S
C3919 H3913 0.930 . S
C3919 C3915 1.400 . S
C3919 C3918 1.385 . S
C3920 C3918 1.478 . S
C3920 C3922 1.381 . S
C3920 C3926 1.383 . S
C3921 C3917 1.495 . S
C3921 H3927 0.961 . S
C3921 H3928 0.961 . S
C3921 H3929 0.960 1_554 S
C3922 C3920 1.381 . S
C3922 C3923 1.394 1_554 S
C3922 H3930 0.930 1_554 S
C3923 C3922 1.394 1_556 S
C3923 C3924 1.383 1_556 S
C3923 H3931 0.929 . S
C3924 C3923 1.383 1_554 S
C3924 C3925 1.377 . S
C3925 H3909 0.930 . S
C3925 C3924 1.377 . S
C3925 C3926 1.379 . S
C3926 H3910 0.931 . S
C3926 C3920 1.383 . S
C3926 C3925 1.379 . S
H3927 C3921 0.961 . S
H3928 C3921 0.961 . S
H3929 C3921 0.960 1_556 S
H3930 C3922 0.930 1_556 S
H3931 C3923 0.929 . S
H3932 C3940 0.929 . S
H3933 C3942 0.930 . S
H3934 C3944 0.930 1_554 S
H3935 C3947 0.929 . S
H3936 C3950 0.930 . S
H3937 C3952 0.960 . S
H3938 C3952 0.960 . S
H3939 C3952 0.960 . S
C3940 H3932 0.929 . S
C3940 C3941 1.377 . S
C3940 C3942 1.384 . S
C3941 C3940 1.377 . S
C3941 C3947 1.390 1_556 S
C3942 H3933 0.930 . S
C3942 C3940 1.384 . S
C3942 C3943 1.372 . S
C3943 C3942 1.372 . S
C3943 C3944 1.400 . S
C3943 C3948 1.490 . S
C3944 H3934 0.930 1_556 S
C3944 C3943 1.400 . S
C3944 C3947 1.386 1_556 S
H3945 C3961 0.930 . S
H3946 C3962 0.931 . S
C3947 H3935 0.929 . S
C3947 C3941 1.390 1_554 S
C3947 C3944 1.386 1_554 S
C3948 C3943 1.490 . S
C3948 C3950 1.395 . S
C3948 C3951 1.403 . S
H3949 C3955 0.930 . S
C3950 H3936 0.930 . S
C3950 C3948 1.395 . S
C3950 C3953 1.403 . S
C3951 C3948 1.403 . S
C3951 C3952 1.524 . S
C3951 C3955 1.400 . S
C3952 H3937 0.960 . S
C3952 H3938 0.960 . S
C3952 H3939 0.960 . S
C3952 C3951 1.524 . S
C3953 C3950 1.403 . S
C3953 C3954 1.392 . S
C3953 C3957 1.495 . S
C3954 C3953 1.392 . S
C3954 C3955 1.385 . S
C3954 C3956 1.478 . S
C3955 H3949 0.930 . S
C3955 C3951 1.400 . S
C3955 C3954 1.385 . S
C3956 C3954 1.478 . S
C3956 C3958 1.381 . S
C3956 C3962 1.383 . S
C3957 C3953 1.495 . S
C3957 H3963 0.959 . S
C3957 H3964 0.961 . S
C3957 H3965 0.960 . S
C3958 C3956 1.381 . S
C3958 C3959 1.394 . S
C3958 H3966 0.930 . S
C3959 C3958 1.394 . S
C3959 C3960 1.383 . S
C3959 H3967 0.929 . S
C3960 C3959 1.383 . S
C3960 C3961 1.377 . S
C3961 H3945 0.930 . S
C3961 C3960 1.377 . S
C3961 C3962 1.379 . S
C3962 H3946 0.931 . S
C3962 C3956 1.383 . S
C3962 C3961 1.379 . S
H3963 C3957 0.959 . S
H3964 C3957 0.961 . S
H3965 C3957 0.960 . S
H3966 C3958 0.930 . S
H3967 C3959 0.929 . S
C1097 C1022 1.794 . S
C1116 C2 1.791 . S
C1133 C36 1.794 . S
C1152 C512 1.792 . S
C1169 C70 1.794 . S
C1188 C954 1.792 . S
C1205 C104 1.794 . S
C1224 C444 1.788 . S
C1241 C886 1.794 . S
C1260 C138 1.788 . S
C1277 C376 1.794 . S
C1296 C172 1.792 . S
C1313 C206 1.794 . S
C1332 C818 1.792 . S
C1349 C308 1.795 . S
C1368 C240 1.789 . S
C1385 C750 1.794 . S
C1404 C274 1.788 . S
C1421 C682 1.794 . S
C1440 C342 1.788 . S
C1457 C410 1.794 . S
C1476 C614 1.790 . S
C1493 C546 1.794 . S
C1512 C478 1.789 . S
C1529 C1056 1.794 . S
C1548 C580 1.792 . S
C1565 C988 1.794 . S
C1584 C648 1.791 . S
C1601 C920 1.794 . S
C1620 C716 1.789 . S
C1637 C852 1.795 . S
C1656 C784 1.790 . S
C1673 C5 0.776 . S
C1692 C9 0.749 . S
C1709 C39 0.780 . S
C1728 C43 0.746 1_556 S
C1745 C73 0.774 . S
C1764 C77 0.765 . S
C1781 C107 0.778 . S
C1800 C111 0.763 . S
C1817 C141 0.771 . S
C1836 C145 0.812 . S
C1853 C175 0.779 . S
C1872 C179 0.730 . S
C1889 C213 0.767 . S
C1908 C209 0.785 . S
C1925 C243 0.780 . S
C1944 C247 0.739 1_554 S
C1961 C277 0.775 . S
C1980 C281 0.795 . S
C1997 C315 0.782 1_554 S
C2016 C311 0.798 . S
C2033 C345 0.776 . S
C2052 C349 0.755 . S
C2069 C379 0.773 . S
C2088 C383 0.738 . S
C2105 C413 0.778 . S
C2124 C417 0.811 . S
C2141 C451 0.776 . S
C2160 C447 0.794 . S
C2177 C481 0.773 . S
C2196 C485 0.781 . S
C2213 C519 0.767 1_556 S
C2232 C515 0.750 . S
C2249 C553 0.769 . S
C2268 C549 0.777 . S
C2285 C583 0.776 . S
C2304 C587 0.781 . S
C2321 C621 0.773 . S
C2340 C617 0.767 . S
C2357 C655 0.782 1_556 S
C2376 C651 0.752 . S
C2393 C689 0.781 . S
C2412 C685 0.759 . S
C2429 C723 0.766 1_554 S
C2448 C719 0.789 . S
C2465 C757 0.782 . S
C2484 C753 0.752 . S
C2501 C791 0.767 . S
C2520 C787 0.786 . S
C2537 C825 0.767 . S
C2556 C821 0.750 . S
C2573 C859 0.768 . S
C2592 C855 0.751 . S
C2609 C889 0.771 . S
C2628 C893 0.730 . S
C2645 C927 0.771 1_554 S
C2664 C923 0.757 . S
C2681 C961 0.765 . S
C2700 C957 0.762 . S
C2717 C995 0.775 1_556 S
C2736 C991 0.791 . S
C2753 C1025 0.778 . S
C2772 C1029 0.773 . S
C2789 C1059 0.780 . S
C2808 C1063 0.806 . S
C2825 C237 1.207 . S
C2844 C33 1.182 . S
C2861 C271 1.211 . S
C2880 C67 1.180 . S
C2897 C101 1.211 . S
C2916 C169 1.179 . S
C2933 C203 1.203 . S
C2952 C135 1.200 . S
C2969 C305 1.204 . S
C2988 C509 1.184 . S
C3005 C339 1.203 . S
C3024 C543 1.179 . S
C3041 C373 1.203 . S
C3060 C441 1.182 . S
C3077 C475 1.213 . S
C3096 C407 1.232 . S
C3113 C781 1.211 . S
C3132 C577 1.218 . S
C3149 C611 1.204 . S
C3168 C815 1.228 . S
C3185 C713 1.207 . S
C3204 C645 1.230 . S
C3221 C747 1.207 . S
C3240 C679 1.231 . S
C3257 C849 1.205 . S
C3276 C1053 1.188 . S
C3293 C1087 1.204 . S
C3312 C883 1.188 . S
C3329 C917 1.212 . S
C3348 C985 1.227 . S
C3365 C1019 1.208 . S
C3384 C951 1.211 . S
C3401 C20 1.626 . S
C3420 C258 1.616 . S
C3437 C156 1.621 . S
C3456 C54 1.629 . S
C3473 C88 1.621 . S
C3492 C190 1.627 . S
C3509 C122 1.627 . S
C3528 C224 1.607 . S
C3545 C292 1.621 . S
C3564 C530 1.605 . S
C3581 C428 1.622 . S
C3600 C326 1.608 . S
C3617 C360 1.622 . S
C3636 C462 1.608 . S
C3653 C394 1.624 . S
C3672 C496 1.628 . S
C3689 C802 1.627 . S
C3708 C564 1.605 . S
C3725 C700 1.622 . S
C3744 C598 1.619 . S
C3761 C734 1.620 . S
C3780 C632 1.632 . S
C3797 C666 1.624 . S
C3816 C768 1.627 . S
C3833 C836 1.621 . S
C3852 C1074 1.605 . S
C3869 C870 1.624 . S
C3888 C972 1.615 . S
C3905 C1006 1.625 . S
C3924 C904 1.621 . S
C3941 C1040 1.623 . S
C3960 C938 1.611 . S
