# Generated by pormake.
# Topology dei, (4)-cn, num edge types: 1
# Building blocks:
#     Node 0, Type 0, BuildingBlock: CEKHIL_clean_sbu_0, # of connection points: 4
#     Node 1, Type 0, BuildingBlock: CEKHIL_clean_sbu_0, # of connection points: 4
#     Node 2, Type 0, BuildingBlock: CEKHIL_clean_sbu_0, # of connection points: 4
#     Node 3, Type 0, BuildingBlock: CEKHIL_clean_sbu_0, # of connection points: 4
#     Node 4, Type 0, BuildingBlock: CEKHIL_clean_sbu_0, # of connection points: 4
#     Node 5, Type 0, BuildingBlock: CEKHIL_clean_sbu_0, # of connection points: 4
#     Node 6, Type 0, BuildingBlock: CEKHIL_clean_sbu_0, # of connection points: 4
#     Node 7, Type 0, BuildingBlock: CEKHIL_clean_sbu_0, # of connection points: 4
#     Node 8, Type 0, BuildingBlock: CEKHIL_clean_sbu_0, # of connection points: 4
#     Node 9, Type 0, BuildingBlock: CEKHIL_clean_sbu_0, # of connection points: 4
#     Node 10, Type 0, BuildingBlock: CEKHIL_clean_sbu_0, # of connection points: 4
#     Node 11, Type 0, BuildingBlock: CEKHIL_clean_sbu_0, # of connection points: 4
#     Node 12, Type 0, BuildingBlock: CEKHIL_clean_sbu_0, # of connection points: 4
#     Node 13, Type 0, BuildingBlock: CEKHIL_clean_sbu_0, # of connection points: 4
#     Node 14, Type 0, BuildingBlock: CEKHIL_clean_sbu_0, # of connection points: 4
#     Node 15, Type 0, BuildingBlock: CEKHIL_clean_sbu_0, # of connection points: 4
#     Node 16, Type 0, BuildingBlock: CEKHIL_clean_sbu_0, # of connection points: 4
#     Node 17, Type 0, BuildingBlock: CEKHIL_clean_sbu_0, # of connection points: 4
#     Node 18, Type 0, BuildingBlock: CEKHIL_clean_sbu_0, # of connection points: 4
#     Node 19, Type 0, BuildingBlock: CEKHIL_clean_sbu_0, # of connection points: 4
#     Node 20, Type 0, BuildingBlock: CEKHIL_clean_sbu_0, # of connection points: 4
#     Node 21, Type 0, BuildingBlock: CEKHIL_clean_sbu_0, # of connection points: 4
#     Node 22, Type 0, BuildingBlock: CEKHIL_clean_sbu_0, # of connection points: 4
#     Node 23, Type 0, BuildingBlock: CEKHIL_clean_sbu_0, # of connection points: 4
#     Node 24, Type 0, BuildingBlock: CEKHIL_clean_sbu_0, # of connection points: 4
#     Node 25, Type 0, BuildingBlock: CEKHIL_clean_sbu_0, # of connection points: 4
#     Node 26, Type 0, BuildingBlock: CEKHIL_clean_sbu_0, # of connection points: 4
#     Node 27, Type 0, BuildingBlock: CEKHIL_clean_sbu_0, # of connection points: 4
#     Node 28, Type 0, BuildingBlock: CEKHIL_clean_sbu_0, # of connection points: 4
#     Node 29, Type 0, BuildingBlock: CEKHIL_clean_sbu_0, # of connection points: 4
#     Node 30, Type 0, BuildingBlock: CEKHIL_clean_sbu_0, # of connection points: 4
#     Node 31, Type 0, BuildingBlock: CEKHIL_clean_sbu_0, # of connection points: 4
#     Edge 32, Type (0, 0), BuildingBlock: EZIPEK_clean_linker_0, # of connection points: 2
#     Edge 33, Type (0, 0), BuildingBlock: EZIPEK_clean_linker_0, # of connection points: 2
#     Edge 34, Type (0, 0), BuildingBlock: EZIPEK_clean_linker_0, # of connection points: 2
#     Edge 35, Type (0, 0), BuildingBlock: EZIPEK_clean_linker_0, # of connection points: 2
#     Edge 36, Type (0, 0), BuildingBlock: EZIPEK_clean_linker_0, # of connection points: 2
#     Edge 37, Type (0, 0), BuildingBlock: EZIPEK_clean_linker_0, # of connection points: 2
#     Edge 38, Type (0, 0), BuildingBlock: EZIPEK_clean_linker_0, # of connection points: 2
#     Edge 39, Type (0, 0), BuildingBlock: EZIPEK_clean_linker_0, # of connection points: 2
#     Edge 40, Type (0, 0), BuildingBlock: EZIPEK_clean_linker_0, # of connection points: 2
#     Edge 41, Type (0, 0), BuildingBlock: EZIPEK_clean_linker_0, # of connection points: 2
#     Edge 42, Type (0, 0), BuildingBlock: EZIPEK_clean_linker_0, # of connection points: 2
#     Edge 43, Type (0, 0), BuildingBlock: EZIPEK_clean_linker_0, # of connection points: 2
#     Edge 44, Type (0, 0), BuildingBlock: EZIPEK_clean_linker_0, # of connection points: 2
#     Edge 45, Type (0, 0), BuildingBlock: EZIPEK_clean_linker_0, # of connection points: 2
#     Edge 46, Type (0, 0), BuildingBlock: EZIPEK_clean_linker_0, # of connection points: 2
#     Edge 47, Type (0, 0), BuildingBlock: EZIPEK_clean_linker_0, # of connection points: 2
#     Edge 48, Type (0, 0), BuildingBlock: EZIPEK_clean_linker_0, # of connection points: 2
#     Edge 49, Type (0, 0), BuildingBlock: EZIPEK_clean_linker_0, # of connection points: 2
#     Edge 50, Type (0, 0), BuildingBlock: EZIPEK_clean_linker_0, # of connection points: 2
#     Edge 51, Type (0, 0), BuildingBlock: EZIPEK_clean_linker_0, # of connection points: 2
#     Edge 52, Type (0, 0), BuildingBlock: EZIPEK_clean_linker_0, # of connection points: 2
#     Edge 53, Type (0, 0), BuildingBlock: EZIPEK_clean_linker_0, # of connection points: 2
#     Edge 54, Type (0, 0), BuildingBlock: EZIPEK_clean_linker_0, # of connection points: 2
#     Edge 55, Type (0, 0), BuildingBlock: EZIPEK_clean_linker_0, # of connection points: 2
#     Edge 56, Type (0, 0), BuildingBlock: EZIPEK_clean_linker_0, # of connection points: 2
#     Edge 57, Type (0, 0), BuildingBlock: EZIPEK_clean_linker_0, # of connection points: 2
#     Edge 58, Type (0, 0), BuildingBlock: EZIPEK_clean_linker_0, # of connection points: 2
#     Edge 59, Type (0, 0), BuildingBlock: EZIPEK_clean_linker_0, # of connection points: 2
#     Edge 60, Type (0, 0), BuildingBlock: EZIPEK_clean_linker_0, # of connection points: 2
#     Edge 61, Type (0, 0), BuildingBlock: EZIPEK_clean_linker_0, # of connection points: 2
#     Edge 62, Type (0, 0), BuildingBlock: EZIPEK_clean_linker_0, # of connection points: 2
#     Edge 63, Type (0, 0), BuildingBlock: EZIPEK_clean_linker_0, # of connection points: 2
#     Edge 64, Type (0, 0), BuildingBlock: EZIPEK_clean_linker_0, # of connection points: 2
#     Edge 65, Type (0, 0), BuildingBlock: EZIPEK_clean_linker_0, # of connection points: 2
#     Edge 66, Type (0, 0), BuildingBlock: EZIPEK_clean_linker_0, # of connection points: 2
#     Edge 67, Type (0, 0), BuildingBlock: EZIPEK_clean_linker_0, # of connection points: 2
#     Edge 68, Type (0, 0), BuildingBlock: EZIPEK_clean_linker_0, # of connection points: 2
#     Edge 69, Type (0, 0), BuildingBlock: EZIPEK_clean_linker_0, # of connection points: 2
#     Edge 70, Type (0, 0), BuildingBlock: EZIPEK_clean_linker_0, # of connection points: 2
#     Edge 71, Type (0, 0), BuildingBlock: EZIPEK_clean_linker_0, # of connection points: 2
#     Edge 72, Type (0, 0), BuildingBlock: EZIPEK_clean_linker_0, # of connection points: 2
#     Edge 73, Type (0, 0), BuildingBlock: EZIPEK_clean_linker_0, # of connection points: 2
#     Edge 74, Type (0, 0), BuildingBlock: EZIPEK_clean_linker_0, # of connection points: 2
#     Edge 75, Type (0, 0), BuildingBlock: EZIPEK_clean_linker_0, # of connection points: 2
#     Edge 76, Type (0, 0), BuildingBlock: EZIPEK_clean_linker_0, # of connection points: 2
#     Edge 77, Type (0, 0), BuildingBlock: EZIPEK_clean_linker_0, # of connection points: 2
#     Edge 78, Type (0, 0), BuildingBlock: EZIPEK_clean_linker_0, # of connection points: 2
#     Edge 79, Type (0, 0), BuildingBlock: EZIPEK_clean_linker_0, # of connection points: 2
#     Edge 80, Type (0, 0), BuildingBlock: EZIPEK_clean_linker_0, # of connection points: 2
#     Edge 81, Type (0, 0), BuildingBlock: EZIPEK_clean_linker_0, # of connection points: 2
#     Edge 82, Type (0, 0), BuildingBlock: EZIPEK_clean_linker_0, # of connection points: 2
#     Edge 83, Type (0, 0), BuildingBlock: EZIPEK_clean_linker_0, # of connection points: 2
#     Edge 84, Type (0, 0), BuildingBlock: EZIPEK_clean_linker_0, # of connection points: 2
#     Edge 85, Type (0, 0), BuildingBlock: EZIPEK_clean_linker_0, # of connection points: 2
#     Edge 86, Type (0, 0), BuildingBlock: EZIPEK_clean_linker_0, # of connection points: 2
#     Edge 87, Type (0, 0), BuildingBlock: EZIPEK_clean_linker_0, # of connection points: 2
#     Edge 88, Type (0, 0), BuildingBlock: EZIPEK_clean_linker_0, # of connection points: 2
#     Edge 89, Type (0, 0), BuildingBlock: EZIPEK_clean_linker_0, # of connection points: 2
#     Edge 90, Type (0, 0), BuildingBlock: EZIPEK_clean_linker_0, # of connection points: 2
#     Edge 91, Type (0, 0), BuildingBlock: EZIPEK_clean_linker_0, # of connection points: 2
#     Edge 92, Type (0, 0), BuildingBlock: EZIPEK_clean_linker_0, # of connection points: 2
#     Edge 93, Type (0, 0), BuildingBlock: EZIPEK_clean_linker_0, # of connection points: 2
#     Edge 94, Type (0, 0), BuildingBlock: EZIPEK_clean_linker_0, # of connection points: 2
#     Edge 95, Type (0, 0), BuildingBlock: EZIPEK_clean_linker_0, # of connection points: 2
# Relax obj value: 0.239
# Max RMSD: 0.067
# Mean RMSD: 0.067
data_MOF--net-dei--node1-CEKHIL_clean_sbu_0--edge1-EZIPEK_clean_linker_0
_symmetry_space_group_name_H-M    P1
_symmetry_Int_Tables_number       1
_symmetry_cell_setting            triclinic
loop_
_symmetry_equiv_pos_as_xyz
'x, y, z'
_cell_length_a     42.662366
_cell_length_b     42.683107
_cell_length_c     54.49391
_cell_angle_alpha  89.99622
_cell_angle_beta   90.006358
_cell_angle_gamma 89.993241
loop_
_atom_site_label
_atom_site_type_symbol
_atom_site_fract_x
_atom_site_fract_y
_atom_site_fract_z
_atom_type_partial_charge
Co0 Co 0.12279 0.61289 0.02737 0.0
O1 O 0.11444 0.56902 0.03175 0.0
O2 O 0.14393 0.58704 0.00223 0.0
C3 C 0.13142 0.61871 0.06807 0.0
O4 O 0.13743 0.65838 0.01876 0.0
Co5 Co 0.08122 0.66142 0.05425 0.0
O6 O 0.11446 0.69144 0.04562 0.0
C7 C 0.05862 0.6315 0.00831 0.0
C8 C 0.13144 0.56266 0.01293 0.0
C9 C 0.13372 0.68609 0.02832 0.0
O10 O 0.08493 0.61732 0.0053 0.0
O11 O 0.05231 0.64839 0.02711 0.0
O12 O 0.15398 0.61001 0.05359 0.0
O13 O 0.10463 0.62311 0.05773 0.0
Co14 Co 0.6374 0.88131 0.27872 0.0
O15 O 0.68192 0.87464 0.2808 0.0
O16 O 0.65967 0.90261 0.25172 0.0
C17 C 0.63395 0.89183 0.31925 0.0
O18 O 0.59073 0.89328 0.2716 0.0
Co19 Co 0.59253 0.83937 0.30952 0.0
O20 O 0.55944 0.86849 0.29884 0.0
C21 C 0.62704 0.8139 0.26678 0.0
C22 C 0.68535 0.89146 0.26137 0.0
C23 C 0.5634 0.88772 0.28129 0.0
O24 O 0.63379 0.84153 0.25904 0.0
O25 O 0.61355 0.80842 0.28731 0.0
O26 O 0.64071 0.91408 0.30383 0.0
O27 O 0.63006 0.86448 0.30988 0.0
Co28 Co 0.3813 0.38555 0.52979 0.0
O29 O 0.38754 0.43016 0.53244 0.0
O30 O 0.35855 0.40826 0.50377 0.0
C31 C 0.3724 0.38095 0.57074 0.0
O32 O 0.36956 0.33892 0.5225 0.0
Co33 Co 0.42676 0.34194 0.55801 0.0
O34 O 0.40085 0.30742 0.54514 0.0
C35 C 0.44846 0.37633 0.5146 0.0
C36 C 0.36992 0.43382 0.51345 0.0
C37 C 0.37857 0.31138 0.52997 0.0
O38 O 0.42006 0.3829 0.5086 0.0
O39 O 0.45608 0.36295 0.5347 0.0
O40 O 0.34951 0.38734 0.55581 0.0
O41 O 0.39944 0.37794 0.56048 0.0
Co42 Co 0.86591 0.13419 0.77616 0.0
O43 O 0.82196 0.1424 0.78085 0.0
O44 O 0.83979 0.11229 0.75164 0.0
C45 C 0.87312 0.12663 0.81677 0.0
O46 O 0.91121 0.1195 0.76725 0.0
Co47 Co 0.91532 0.17631 0.8021 0.0
O48 O 0.94458 0.14224 0.79402 0.0
C49 C 0.88427 0.19796 0.7563 0.0
C50 C 0.81544 0.12476 0.76239 0.0
C51 C 0.93892 0.12288 0.77686 0.0
O52 O 0.86975 0.17174 0.7537 0.0
O53 O 0.90167 0.20446 0.77476 0.0
O54 O 0.86382 0.10363 0.80294 0.0
O55 O 0.87698 0.15311 0.80593 0.0
Co56 Co 0.1298 0.38457 0.96562 0.0
O57 O 0.12376 0.42921 0.96318 0.0
O58 O 0.15241 0.40661 0.99185 0.0
C59 C 0.13876 0.37969 0.92477 0.0
O60 O 0.1417 0.33809 0.9727 0.0
Co61 Co 0.08415 0.34099 0.93754 0.0
O62 O 0.10982 0.30645 0.95073 0.0
C63 C 0.06254 0.376 0.98059 0.0
C64 C 0.14122 0.43234 0.98235 0.0
C65 C 0.13256 0.31056 0.96544 0.0
O66 O 0.091 0.3819 0.98682 0.0
O67 O 0.05493 0.36287 0.96039 0.0
O68 O 0.16162 0.38638 0.93965 0.0
O69 O 0.11167 0.37686 0.93499 0.0
Co70 Co 0.86338 0.88414 0.21305 0.0
O71 O 0.81896 0.87713 0.2103 0.0
O72 O 0.84049 0.90389 0.24041 0.0
C73 C 0.86782 0.89666 0.17288 0.0
O74 O 0.90971 0.89603 0.22117 0.0
Co75 Co 0.90932 0.8442 0.18137 0.0
O76 O 0.94181 0.87308 0.19351 0.0
C77 C 0.8745 0.81635 0.22306 0.0
C78 C 0.81508 0.89298 0.23018 0.0
C79 C 0.93729 0.89118 0.21171 0.0
O80 O 0.86711 0.84347 0.23154 0.0
O81 O 0.88838 0.81206 0.20252 0.0
O82 O 0.8603 0.91811 0.18877 0.0
O83 O 0.8716 0.86895 0.18155 0.0
Co84 Co 0.38299 0.61149 0.46415 0.0
O85 O 0.39059 0.5671 0.46277 0.0
O86 O 0.36246 0.58933 0.49167 0.0
C87 C 0.37178 0.61309 0.42365 0.0
O88 O 0.37008 0.65823 0.47025 0.0
Co89 Co 0.42358 0.65595 0.43183 0.0
O90 O 0.39344 0.6886 0.44161 0.0
C91 C 0.45021 0.62529 0.47597 0.0
C92 C 0.37387 0.56361 0.48225 0.0
C93 C 0.37473 0.68516 0.45959 0.0
O94 O 0.42292 0.61686 0.48352 0.0
O95 O 0.45528 0.63834 0.4552 0.0
O96 O 0.34996 0.60645 0.43946 0.0
O97 O 0.39917 0.61804 0.43269 0.0
Co98 Co 0.63762 0.12804 0.71523 0.0
O99 O 0.68245 0.13278 0.71256 0.0
O100 O 0.65931 0.10411 0.74091 0.0
C101 C 0.63251 0.12071 0.67415 0.0
O102 O 0.59078 0.11743 0.72265 0.0
Co103 Co 0.59447 0.17505 0.68814 0.0
O104 O 0.55948 0.14965 0.70069 0.0
C105 C 0.63114 0.19486 0.73114 0.0
C106 C 0.68528 0.11489 0.7315 0.0
C107 C 0.5633 0.12702 0.71553 0.0
O108 O 0.63657 0.16624 0.73706 0.0
O109 O 0.61758 0.203 0.71122 0.0
O110 O 0.63828 0.0971 0.68855 0.0
O111 O 0.63019 0.14742 0.685 0.0
Co112 Co 0.88019 0.39236 0.96431 0.0
O113 O 0.88732 0.43695 0.96231 0.0
O114 O 0.85573 0.4151 0.98914 0.0
C115 C 0.8736 0.38837 0.92326 0.0
O116 O 0.86714 0.34589 0.9711 0.0
Co117 Co 0.9244 0.34669 0.93676 0.0
O118 O 0.89363 0.31409 0.9453 0.0
C119 C 0.9452 0.37856 0.98244 0.0
C120 C 0.8678 0.44073 0.98013 0.0
C121 C 0.87307 0.3184 0.96185 0.0
O122 O 0.91739 0.3886 0.98696 0.0
O123 O 0.95274 0.36381 0.96284 0.0
O124 O 0.85008 0.39537 0.93734 0.0
O125 O 0.90013 0.38459 0.93415 0.0
Co126 Co 0.36357 0.12996 0.71599 0.0
O127 O 0.31923 0.13688 0.71329 0.0
O128 O 0.3407 0.1093 0.74297 0.0
C129 C 0.36769 0.11847 0.67571 0.0
O130 O 0.41008 0.11803 0.72356 0.0
Co131 Co 0.40862 0.17154 0.68494 0.0
O132 O 0.44125 0.14189 0.69572 0.0
C133 C 0.37511 0.19744 0.72801 0.0
C134 C 0.31529 0.12039 0.73284 0.0
C135 C 0.43734 0.12318 0.71363 0.0
O136 O 0.36725 0.16994 0.73539 0.0
O137 O 0.38892 0.20287 0.7076 0.0
O138 O 0.36048 0.09665 0.69135 0.0
O139 O 0.37141 0.14606 0.68472 0.0
Co140 Co 0.63691 0.62363 0.46611 0.0
O141 O 0.6317 0.57883 0.46379 0.0
O142 O 0.66008 0.60211 0.49228 0.0
C143 C 0.64526 0.62797 0.42509 0.0
O144 O 0.64811 0.67037 0.47327 0.0
Co145 Co 0.59142 0.66724 0.43791 0.0
O146 O 0.61733 0.70191 0.45032 0.0
C147 C 0.56973 0.63191 0.48103 0.0
C148 C 0.64931 0.57612 0.48292 0.0
C149 C 0.6394 0.69789 0.46564 0.0
O150 O 0.59809 0.62559 0.48733 0.0
O151 O 0.56239 0.64551 0.46095 0.0
O152 O 0.66847 0.62213 0.43987 0.0
O153 O 0.61835 0.6309 0.43556 0.0
Co154 Co 0.13619 0.88204 0.21422 0.0
O155 O 0.18067 0.87544 0.21035 0.0
O156 O 0.16025 0.90382 0.24002 0.0
C157 C 0.12967 0.89173 0.17367 0.0
O158 O 0.09 0.89414 0.2228 0.0
Co159 Co 0.09032 0.83793 0.18602 0.0
O160 O 0.05704 0.86377 0.20058 0.0
C161 C 0.12836 0.81456 0.22718 0.0
C162 C 0.18531 0.89241 0.22959 0.0
C163 C 0.06205 0.88567 0.21589 0.0
O164 O 0.13413 0.84259 0.23457 0.0
O165 O 0.11438 0.80821 0.20704 0.0
O166 O 0.13735 0.91435 0.18849 0.0
O167 O 0.1267 0.86467 0.18376 0.0
Co168 Co 0.87762 0.61849 0.02837 0.0
O169 O 0.8843 0.57383 0.03019 0.0
O170 O 0.85323 0.596 0.00319 0.0
C171 C 0.87034 0.62187 0.06986 0.0
O172 O 0.8653 0.66526 0.02225 0.0
Co173 Co 0.92395 0.66118 0.05591 0.0
O174 O 0.89648 0.69588 0.04565 0.0
C175 C 0.94316 0.63073 0.00994 0.0
C176 C 0.86526 0.57023 0.01205 0.0
C177 C 0.87401 0.69248 0.03058 0.0
O178 O 0.91486 0.62204 0.00559 0.0
O179 O 0.95178 0.64399 0.02985 0.0
O180 O 0.84713 0.61614 0.05519 0.0
O181 O 0.89705 0.62501 0.05898 0.0
Co182 Co 0.13641 0.12803 0.77815 0.0
O183 O 0.18067 0.13599 0.78073 0.0
O184 O 0.15965 0.10716 0.75153 0.0
C185 C 0.13231 0.11727 0.81863 0.0
O186 O 0.09043 0.11469 0.77041 0.0
Co187 Co 0.0897 0.1686 0.80836 0.0
O188 O 0.05792 0.13811 0.79747 0.0
C189 C 0.12194 0.19481 0.7648 0.0
C190 C 0.18484 0.11891 0.7615 0.0
C191 C 0.06279 0.11928 0.77978 0.0
O192 O 0.13171 0.16756 0.75821 0.0
O193 O 0.10726 0.20016 0.78485 0.0
O194 O 0.14019 0.09535 0.80327 0.0
O195 O 0.12789 0.14457 0.80925 0.0
Co196 Co 0.62972 0.39566 0.52758 0.0
O197 O 0.62306 0.43966 0.5333 0.0
O198 O 0.65171 0.42187 0.50317 0.0
C199 C 0.63829 0.38761 0.5683 0.0
O200 O 0.64282 0.35021 0.51771 0.0
Co201 Co 0.58547 0.34832 0.55287 0.0
O202 O 0.61418 0.31619 0.54021 0.0
C203 C 0.56452 0.38105 0.5081 0.0
C204 C 0.64007 0.44622 0.51449 0.0
C205 C 0.63572 0.32198 0.52479 0.0
O206 O 0.59156 0.39395 0.5054 0.0
O207 O 0.55716 0.36406 0.52655 0.0
O208 O 0.66114 0.39558 0.55384 0.0
O209 O 0.61138 0.38488 0.55774 0.0
Co210 Co 0.36334 0.88286 0.27878 0.0
O211 O 0.31878 0.87586 0.28057 0.0
O212 O 0.34128 0.9024 0.25082 0.0
C213 C 0.3661 0.8957 0.3189 0.0
O214 O 0.41009 0.89464 0.27175 0.0
Co215 Co 0.4082 0.84362 0.31214 0.0
O216 O 0.44097 0.87261 0.30073 0.0
C217 C 0.37573 0.81508 0.26948 0.0
C218 C 0.31549 0.89167 0.26059 0.0
C219 C 0.43725 0.89018 0.2821 0.0
O220 O 0.3679 0.84195 0.26071 0.0
O221 O 0.38896 0.8112 0.29034 0.0
O222 O 0.35922 0.91707 0.30277 0.0
O223 O 0.37034 0.86797 0.31047 0.0
Co224 Co 0.63522 0.12383 0.52779 0.0
O225 O 0.62995 0.07916 0.53137 0.0
O226 O 0.65796 0.1011 0.50203 0.0
C227 C 0.64391 0.13015 0.56859 0.0
O228 O 0.64626 0.17019 0.5192 0.0
Co229 Co 0.58984 0.16868 0.55515 0.0
O230 O 0.61523 0.20273 0.5411 0.0
C231 C 0.56792 0.13093 0.51335 0.0
C232 C 0.64717 0.07557 0.51211 0.0
C233 C 0.63728 0.19802 0.52588 0.0
O234 O 0.59623 0.12489 0.50682 0.0
O235 O 0.56075 0.1452 0.53319 0.0
O236 O 0.66702 0.12346 0.55392 0.0
O237 O 0.61695 0.1326 0.55817 0.0
Co238 Co 0.1413 0.37821 0.77809 0.0
O239 O 0.18527 0.37067 0.78349 0.0
O240 O 0.16763 0.39945 0.75337 0.0
C241 C 0.13373 0.38731 0.81877 0.0
O242 O 0.09604 0.39225 0.76856 0.0
Co243 Co 0.09329 0.33505 0.80417 0.0
O244 O 0.06157 0.36368 0.79075 0.0
C245 C 0.12523 0.31298 0.75939 0.0
C246 C 0.19191 0.3875 0.76459 0.0
C247 C 0.0677 0.38535 0.77553 0.0
O248 O 0.1384 0.33982 0.75621 0.0
O249 O 0.10853 0.30615 0.77812 0.0
O250 O 0.14227 0.40985 0.80422 0.0
O251 O 0.13034 0.36044 0.80833 0.0
Co252 Co 0.87886 0.893 0.02682 0.0
O253 O 0.88638 0.93748 0.02721 0.0
O254 O 0.85703 0.91385 -0.00045 0.0
C255 C 0.86934 0.89215 0.06761 0.0
O256 O 0.86594 0.84615 0.02168 0.0
Co257 Co 0.92137 0.84962 0.05827 0.0
O258 O 0.8914 0.81628 0.04951 0.0
C259 C 0.94535 0.87889 0.01267 0.0
C260 C 0.8688 0.93987 0.00808 0.0
C261 C 0.87165 0.81933 0.03218 0.0
O262 O 0.91762 0.88724 0.00619 0.0
O263 O 0.95176 0.8662 0.03335 0.0
O264 O 0.84692 0.89846 0.05225 0.0
O265 O 0.89646 0.88725 0.05798 0.0
Co266 Co 0.36789 0.62423 0.27864 0.0
O267 O 0.32351 0.6313 0.281 0.0
O268 O 0.34541 0.60531 0.25067 0.0
C269 C 0.37122 0.61067 0.31861 0.0
O270 O 0.41441 0.61246 0.27099 0.0
Co271 Co 0.41314 0.66322 0.31161 0.0
O272 O 0.44576 0.6344 0.29967 0.0
C273 C 0.37954 0.69219 0.26976 0.0
C274 C 0.31987 0.61604 0.26082 0.0
C275 C 0.44172 0.61691 0.28104 0.0
O276 O 0.37209 0.66532 0.26085 0.0
O277 O 0.39302 0.69597 0.29052 0.0
O278 O 0.36415 0.58965 0.30226 0.0
O279 O 0.37537 0.63859 0.31046 0.0
Co280 Co 0.62889 0.89558 0.46558 0.0
O281 O 0.61976 0.93954 0.46242 0.0
O282 O 0.64964 0.92065 0.49139 0.0
C283 C 0.6377 0.8917 0.4248 0.0
O284 O 0.64423 0.85011 0.47328 0.0
Co285 Co 0.58945 0.84673 0.43667 0.0
O286 O 0.62311 0.81729 0.44534 0.0
C287 C 0.56522 0.87416 0.48321 0.0
C288 C 0.63706 0.94534 0.48122 0.0
C289 C 0.64144 0.82258 0.46325 0.0
O290 O 0.59079 0.88938 0.48706 0.0
O291 O 0.56003 0.85782 0.46392 0.0
O292 O 0.66015 0.90023 0.43947 0.0
O293 O 0.6111 0.88617 0.435 0.0
Co294 Co 0.37022 0.38342 0.71737 0.0
O295 O 0.32543 0.3785 0.71413 0.0
O296 O 0.348 0.40659 0.74314 0.0
C297 C 0.37668 0.39185 0.67653 0.0
O298 O 0.41675 0.39411 0.72553 0.0
Co299 Co 0.41417 0.33702 0.68994 0.0
O300 O 0.44863 0.3613 0.70461 0.0
C301 C 0.37733 0.31624 0.73252 0.0
C302 C 0.32223 0.39596 0.7333 0.0
C303 C 0.44437 0.38406 0.71926 0.0
O304 O 0.37125 0.34467 0.73865 0.0
O305 O 0.39116 0.30857 0.71261 0.0
O306 O 0.36994 0.41504 0.69109 0.0
O307 O 0.37868 0.36491 0.68702 0.0
Co308 Co 0.88515 0.12037 0.96331 0.0
O309 O 0.89379 0.07657 0.95861 0.0
O310 O 0.86311 0.09401 0.98766 0.0
C311 C 0.87772 0.12727 0.92264 0.0
O312 O 0.87038 0.16582 0.97206 0.0
Co313 Co 0.928 0.1691 0.93784 0.0
O314 O 0.89449 0.19906 0.94592 0.0
C315 C 0.94874 0.13829 0.98395 0.0
C316 C 0.8761 0.06988 0.97697 0.0
C317 C 0.87455 0.19361 0.96272 0.0
O318 O 0.92225 0.12424 0.98619 0.0
O319 O 0.95585 0.15543 0.96546 0.0
O320 O 0.85474 0.11816 0.93654 0.0
O321 O 0.90427 0.13115 0.93346 0.0
Co322 Co 0.14131 0.62739 0.21429 0.0
O323 O 0.18578 0.634 0.21101 0.0
O324 O 0.1646 0.60575 0.24048 0.0
C325 C 0.13543 0.61735 0.17385 0.0
O326 O 0.09517 0.61541 0.22283 0.0
Co327 Co 0.09473 0.66958 0.18499 0.0
O328 O 0.06243 0.64018 0.19663 0.0
C329 C 0.13078 0.69454 0.22719 0.0
C330 C 0.18988 0.61693 0.23026 0.0
C331 C 0.06739 0.62095 0.21404 0.0
O332 O 0.13855 0.66692 0.23436 0.0
O333 O 0.11615 0.70021 0.20717 0.0
O334 O 0.14323 0.5949 0.1888 0.0
O335 O 0.13222 0.64456 0.18357 0.0
Co336 Co 0.37963 0.88596 0.46402 0.0
O337 O 0.38752 0.93036 0.46367 0.0
O338 O 0.35889 0.90708 0.49187 0.0
C339 C 0.36847 0.88608 0.42346 0.0
O340 O 0.36675 0.83906 0.4692 0.0
Co341 Co 0.42032 0.84274 0.43091 0.0
O342 O 0.3912 0.80924 0.44077 0.0
C343 C 0.44646 0.87064 0.47631 0.0
C344 C 0.37049 0.93304 0.48305 0.0
C345 C 0.37227 0.81222 0.45866 0.0
O346 O 0.41921 0.87964 0.48349 0.0
O347 O 0.45186 0.85804 0.45542 0.0
O348 O 0.3467 0.89205 0.43946 0.0
O349 O 0.39587 0.88062 0.43237 0.0
Co350 Co 0.86879 0.6255 0.21509 0.0
O351 O 0.82428 0.63122 0.21077 0.0
O352 O 0.84492 0.60617 0.24214 0.0
C353 C 0.8758 0.61189 0.17531 0.0
O354 O 0.91503 0.61473 0.22439 0.0
Co355 Co 0.91429 0.66728 0.18417 0.0
O356 O 0.94767 0.64314 0.20034 0.0
C357 C 0.87635 0.6942 0.22405 0.0
C358 C 0.81974 0.6162 0.23102 0.0
C359 C 0.94287 0.62275 0.21692 0.0
O360 O 0.87048 0.66691 0.23297 0.0
O361 O 0.89031 0.69872 0.2036 0.0
O362 O 0.86799 0.5907 0.19134 0.0
O363 O 0.87836 0.63986 0.18376 0.0
Co364 Co 0.12818 0.11233 0.96529 0.0
O365 O 0.11922 0.06808 0.96381 0.0
O366 O 0.15179 0.08914 0.99036 0.0
C367 C 0.13507 0.11525 0.92427 0.0
O368 O 0.14299 0.15827 0.97153 0.0
Co369 Co 0.08596 0.15904 0.93652 0.0
O370 O 0.11794 0.19047 0.94516 0.0
C371 C 0.06422 0.13063 0.98342 0.0
C372 C 0.13887 0.06384 0.98149 0.0
C373 C 0.13803 0.18577 0.96201 0.0
O374 O 0.09124 0.11853 0.98787 0.0
O375 O 0.05739 0.14518 0.96357 0.0
O376 O 0.15825 0.10748 0.93843 0.0
O377 O 0.1087 0.12024 0.93503 0.0
Co378 Co 0.64288 0.38084 0.71483 0.0
O379 O 0.68724 0.37486 0.71026 0.0
O380 O 0.66708 0.40203 0.74076 0.0
C381 C 0.63523 0.39201 0.67451 0.0
O382 O 0.59696 0.39222 0.72434 0.0
Co383 Co 0.59719 0.33694 0.68662 0.0
O384 O 0.56385 0.36157 0.70255 0.0
C385 C 0.63496 0.31285 0.7275 0.0
C386 C 0.69205 0.39126 0.72979 0.0
C387 C 0.56898 0.38332 0.71797 0.0
O388 O 0.64149 0.34083 0.73464 0.0
O389 O 0.62063 0.30658 0.70751 0.0
O390 O 0.64304 0.41405 0.6898 0.0
O391 O 0.63294 0.36449 0.684 0.0
Co392 Co 0.3811 0.11158 0.53015 0.0
O393 O 0.38835 0.06725 0.53303 0.0
O394 O 0.3608 0.08822 0.50317 0.0
C395 C 0.36932 0.11578 0.57039 0.0
O396 O 0.36895 0.15807 0.52243 0.0
Co397 Co 0.42204 0.15705 0.56144 0.0
O398 O 0.39223 0.18941 0.55047 0.0
C399 C 0.44852 0.12409 0.51829 0.0
C400 C 0.37201 0.06295 0.51345 0.0
C401 C 0.37382 0.1854 0.53237 0.0
O402 O 0.42121 0.11554 0.51091 0.0
O403 O 0.45364 0.13806 0.53868 0.0
O404 O 0.34762 0.10834 0.5547 0.0
O405 O 0.39693 0.11964 0.56147 0.0
Co406 Co 0.64129 0.62612 0.27888 0.0
O407 O 0.68593 0.63259 0.28166 0.0
O408 O 0.6641 0.60428 0.25252 0.0
C409 C 0.6364 0.61628 0.31968 0.0
O410 O 0.59486 0.61407 0.27115 0.0
Co411 Co 0.59626 0.66974 0.30813 0.0
O412 O 0.56237 0.6445 0.29367 0.0
C413 C 0.63186 0.69363 0.26589 0.0
C414 C 0.68962 0.61545 0.26238 0.0
C415 C 0.56704 0.62267 0.27825 0.0
O416 O 0.63836 0.66569 0.2586 0.0
O417 O 0.61843 0.69982 0.28627 0.0
O418 O 0.6434 0.59374 0.30459 0.0
O419 O 0.63298 0.64335 0.30967 0.0
Co420 Co 0.12908 0.88487 0.02696 0.0
O421 O 0.12275 0.92945 0.03013 0.0
O422 O 0.15296 0.90824 0.00205 0.0
C423 C 0.13722 0.87959 0.06814 0.0
O424 O 0.1411 0.83845 0.01925 0.0
Co425 Co 0.0835 0.84069 0.05385 0.0
O426 O 0.11091 0.80661 0.04243 0.0
C427 C 0.0629 0.87436 0.00956 0.0
C428 C 0.1413 0.93367 0.01175 0.0
C429 C 0.13289 0.81084 0.02706 0.0
O430 O 0.09117 0.88281 0.00479 0.0
O431 O 0.05493 0.85994 0.02915 0.0
O432 O 0.16019 0.88583 0.05336 0.0
O433 O 0.11027 0.87691 0.05755 0.0
Co434 Co 0.87053 0.38206 0.77665 0.0
O435 O 0.82616 0.3741 0.77862 0.0
O436 O 0.84775 0.40392 0.75029 0.0
C437 C 0.87428 0.39112 0.81743 0.0
O438 O 0.91657 0.39566 0.76951 0.0
Co439 Co 0.91712 0.34053 0.80642 0.0
O440 O 0.94895 0.37134 0.79619 0.0
C441 C 0.88536 0.31584 0.76207 0.0
C442 C 0.82236 0.39184 0.75968 0.0
C443 C 0.94416 0.39074 0.77886 0.0
O444 O 0.87554 0.34325 0.75591 0.0
O445 O 0.8998 0.30989 0.78211 0.0
O446 O 0.86648 0.41371 0.80263 0.0
O447 O 0.87879 0.36429 0.80736 0.0
C448 C 0.15926 0.63181 0.13358 0.0
C449 C 0.13664 0.61419 0.14685 0.0
C450 C 0.11442 0.59529 0.10825 0.0
C451 C 0.1341 0.61641 0.09512 0.0
N452 N 0.17279 0.65749 0.09541 0.0
N453 N 0.09057 0.58166 0.14719 0.0
C454 C 0.15603 0.63528 0.1078 0.0
C455 C 0.11373 0.59643 0.1343 0.0
N456 N 0.18438 0.64452 0.14555 0.0
N457 N 0.09732 0.57326 0.09592 0.0
H458 H 0.08983 0.58148 0.1663 0.0
H459 H 0.07096 0.57159 0.13898 0.0
H460 H 0.09772 0.57093 0.07691 0.0
H461 H 0.08516 0.55526 0.10463 0.0
H462 H 0.20323 0.65493 0.13656 0.0
H463 H 0.18798 0.64184 0.16433 0.0
H464 H 0.18642 0.67446 0.10405 0.0
H465 H 0.17095 0.66067 0.07652 0.0
C466 C 0.66036 0.87511 0.38437 0.0
C467 C 0.63993 0.89473 0.39782 0.0
C468 C 0.61666 0.91434 0.35956 0.0
C469 C 0.63768 0.89538 0.3461 0.0
N470 N 0.68473 0.86388 0.34529 0.0
N471 N 0.60436 0.9388 0.3984 0.0
C472 C 0.66114 0.87761 0.35839 0.0
C473 C 0.61978 0.91612 0.38546 0.0
N474 N 0.67799 0.85313 0.39628 0.0
N475 N 0.59285 0.92956 0.34776 0.0
H476 H 0.60663 0.94142 0.4173 0.0
H477 H 0.59189 0.95696 0.39017 0.0
H478 H 0.59029 0.92919 0.32875 0.0
H479 H 0.57442 0.94057 0.35684 0.0
H480 H 0.69039 0.83552 0.38729 0.0
H481 H 0.67838 0.85104 0.41533 0.0
H482 H 0.70417 0.85332 0.35337 0.0
H483 H 0.68657 0.86581 0.32631 0.0
C484 C 0.39756 0.37413 0.63638 0.0
C485 C 0.37658 0.39378 0.64924 0.0
C486 C 0.35301 0.40821 0.60973 0.0
C487 C 0.37017 0.38376 0.59796 0.0
N488 N 0.40106 0.33693 0.6035 0.0
N489 N 0.32866 0.4245 0.64766 0.0
C490 C 0.39012 0.36471 0.61234 0.0
C491 C 0.3526 0.40952 0.63587 0.0
N492 N 0.42518 0.36525 0.64678 0.0
N493 N 0.33848 0.43115 0.59646 0.0
H494 H 0.32632 0.42527 0.66664 0.0
H495 H 0.3093 0.43349 0.63832 0.0
H496 H 0.33962 0.43284 0.57745 0.0
H497 H 0.32827 0.45069 0.6047 0.0
H498 H 0.44197 0.35211 0.6374 0.0
H499 H 0.43281 0.37513 0.66318 0.0
H500 H 0.41445 0.32158 0.61409 0.0
H501 H 0.39273 0.32758 0.58713 0.0
C502 C 0.85525 0.14685 0.88306 0.0
C503 C 0.87562 0.12614 0.89556 0.0
C504 C 0.89478 0.10558 0.85625 0.0
C505 C 0.87295 0.12485 0.84385 0.0
N506 N 0.82756 0.15868 0.84548 0.0
N507 N 0.90996 0.08106 0.89443 0.0
C508 C 0.85176 0.14403 0.85727 0.0
C509 C 0.89407 0.10414 0.88228 0.0
N510 N 0.84017 0.17003 0.89569 0.0
N511 N 0.91697 0.08957 0.84323 0.0
H512 H 0.90978 0.07875 0.91343 0.0
H513 H 0.92094 0.06241 0.88559 0.0
H514 H 0.91783 0.08981 0.82414 0.0
H515 H 0.93591 0.07815 0.85132 0.0
H516 H 0.82784 0.18811 0.88724 0.0
H517 H 0.84233 0.17273 0.9146 0.0
H518 H 0.80953 0.17026 0.85464 0.0
H519 H 0.82369 0.15669 0.82669 0.0
C520 C 0.12156 0.36145 0.8836 0.0
C521 C 0.1412 0.38129 0.89754 0.0
C522 C 0.15869 0.40552 0.85906 0.0
C523 C 0.13455 0.38938 0.84607 0.0
N524 N 0.08615 0.36052 0.84946 0.0
N525 N 0.17267 0.42882 0.8979 0.0
C526 C 0.11383 0.36997 0.85943 0.0
C527 C 0.15822 0.40533 0.8852 0.0
N528 N 0.1112 0.33378 0.89301 0.0
N529 N 0.18293 0.41964 0.847 0.0
H530 H 0.17163 0.43116 0.91688 0.0
H531 H 0.18277 0.44808 0.88918 0.0
H532 H 0.1859 0.41897 0.82808 0.0
H533 H 0.20217 0.42904 0.85624 0.0
H534 H 0.098 0.31786 0.88279 0.0
H535 H 0.11999 0.3251 0.90945 0.0
H536 H 0.06965 0.3475 0.85925 0.0
H537 H 0.0781 0.36985 0.83301 0.0
C538 C 0.88686 0.91767 0.10678 0.0
C539 C 0.866 0.89693 0.09442 0.0
C540 C 0.8406 0.88494 0.1335 0.0
C541 C 0.86488 0.90105 0.14607 0.0
N542 N 0.91232 0.93147 0.14508 0.0
N543 N 0.82419 0.85899 0.09619 0.0
C544 C 0.88823 0.91733 0.13283 0.0
C545 C 0.84291 0.88032 0.10779 0.0
N546 N 0.90444 0.93858 0.09369 0.0
N547 N 0.81494 0.87463 0.14613 0.0
H548 H 0.82494 0.85519 0.07734 0.0
H549 H 0.80963 0.84338 0.10546 0.0
H550 H 0.81208 0.8786 0.16484 0.0
H551 H 0.79511 0.86533 0.13771 0.0
H552 H 0.91785 0.95612 0.10182 0.0
H553 H 0.903 0.94068 0.07467 0.0
H554 H 0.93216 0.94035 0.13637 0.0
H555 H 0.9133 0.93252 0.16417 0.0
C556 C 0.3882 0.58717 0.38447 0.0
C557 C 0.36783 0.60829 0.39692 0.0
C558 C 0.34345 0.62205 0.35784 0.0
C559 C 0.36751 0.60556 0.34527 0.0
N560 N 0.41375 0.57335 0.34623 0.0
N561 N 0.32699 0.64727 0.39548 0.0
C562 C 0.38998 0.58805 0.35846 0.0
C563 C 0.34538 0.62584 0.38366 0.0
N564 N 0.40505 0.56556 0.39745 0.0
N565 N 0.31839 0.63352 0.34509 0.0
H566 H 0.32743 0.65034 0.41443 0.0
H567 H 0.31299 0.66353 0.38638 0.0
H568 H 0.31579 0.63018 0.32628 0.0
H569 H 0.29869 0.64323 0.35343 0.0
H570 H 0.41803 0.54775 0.38925 0.0
H571 H 0.4034 0.56329 0.41644 0.0
H572 H 0.43313 0.56354 0.35497 0.0
H573 H 0.415 0.57267 0.32714 0.0
C574 C 0.65972 0.10297 0.63469 0.0
C575 C 0.63524 0.11958 0.64689 0.0
C576 C 0.62581 0.1489 0.60928 0.0
C577 C 0.64566 0.12865 0.59588 0.0
N578 N 0.67617 0.08052 0.59612 0.0
N579 N 0.58853 0.15084 0.64223 0.0
C580 C 0.66124 0.10393 0.60856 0.0
C581 C 0.6163 0.14027 0.63308 0.0
N582 N 0.68246 0.08763 0.6476 0.0
N583 N 0.61671 0.17689 0.59962 0.0
H584 H 0.57919 0.14183 0.6584 0.0
H585 H 0.57316 0.16471 0.63205 0.0
H586 H 0.62631 0.18527 0.58333 0.0
H587 H 0.6035 0.19319 0.60945 0.0
H588 H 0.70209 0.07786 0.63915 0.0
H589 H 0.68385 0.08756 0.66665 0.0
H590 H 0.68501 0.06069 0.60491 0.0
H591 H 0.67702 0.07902 0.57709 0.0
C592 C 0.892 0.41341 0.85784 0.0
C593 C 0.87165 0.39358 0.84446 0.0
C594 C 0.8524 0.37027 0.88277 0.0
C595 C 0.87178 0.39096 0.89621 0.0
N596 N 0.90428 0.43734 0.89693 0.0
N597 N 0.82676 0.35909 0.84417 0.0
C598 C 0.88993 0.41406 0.88387 0.0
C599 C 0.85011 0.37377 0.85693 0.0
N600 N 0.91415 0.43064 0.84578 0.0
N601 N 0.83719 0.34643 0.89452 0.0
H602 H 0.82366 0.36186 0.82534 0.0
H603 H 0.80855 0.34687 0.85256 0.0
H604 H 0.83834 0.34324 0.91345 0.0
H605 H 0.82568 0.32836 0.88537 0.0
H606 H 0.93219 0.44256 0.85466 0.0
H607 H 0.91582 0.43119 0.82672 0.0
H608 H 0.91508 0.45659 0.88879 0.0
H609 H 0.90278 0.43912 0.91596 0.0
C610 C 0.3852 0.09341 0.63639 0.0
C611 C 0.36487 0.11414 0.64889 0.0
C612 C 0.34494 0.13426 0.60969 0.0
C613 C 0.36493 0.1132 0.59721 0.0
N614 N 0.39751 0.06695 0.59835 0.0
N615 N 0.31938 0.14785 0.64784 0.0
C616 C 0.38306 0.09097 0.61048 0.0
C617 C 0.34288 0.13263 0.63565 0.0
N618 N 0.40749 0.07715 0.6491 0.0
N619 N 0.329 0.15669 0.59689 0.0
H620 H 0.31645 0.14641 0.66677 0.0
H621 H 0.30092 0.15918 0.63901 0.0
H622 H 0.32942 0.158 0.57781 0.0
H623 H 0.31718 0.17522 0.60519 0.0
H624 H 0.42554 0.06469 0.64071 0.0
H625 H 0.40929 0.07795 0.66815 0.0
H626 H 0.4085 0.04833 0.60722 0.0
H627 H 0.39572 0.06384 0.57945 0.0
C628 C 0.66383 0.60065 0.38579 0.0
C629 C 0.6469 0.62504 0.39784 0.0
C630 C 0.61715 0.63332 0.36036 0.0
C631 C 0.63774 0.6139 0.34694 0.0
N632 N 0.68612 0.5838 0.34721 0.0
N633 N 0.61533 0.67144 0.39261 0.0
C634 C 0.66272 0.59876 0.35965 0.0
C635 C 0.62596 0.6435 0.38389 0.0
N636 N 0.67964 0.57835 0.39882 0.0
N637 N 0.58871 0.64139 0.35095 0.0
H638 H 0.62473 0.68139 0.40841 0.0
H639 H 0.60108 0.68632 0.38229 0.0
H640 H 0.58028 0.63101 0.33497 0.0
H641 H 0.5723 0.65445 0.3608 0.0
H642 H 0.68963 0.55875 0.3905 0.0
H643 H 0.68 0.57732 0.41787 0.0
H644 H 0.70617 0.57537 0.35594 0.0
H645 H 0.6872 0.58231 0.32819 0.0
C646 C 0.15799 0.90562 0.13413 0.0
C647 C 0.1311 0.89383 0.1465 0.0
C648 C 0.11631 0.86592 0.10941 0.0
C649 C 0.13929 0.88203 0.09554 0.0
N650 N 0.17959 0.92277 0.09562 0.0
N651 N 0.07985 0.87078 0.14281 0.0
C652 C 0.15951 0.90356 0.10803 0.0
C653 C 0.10866 0.87668 0.13307 0.0
N654 N 0.18297 0.91712 0.14698 0.0
N655 N 0.10308 0.83911 0.10068 0.0
H656 H 0.07279 0.88098 0.15927 0.0
H657 H 0.06211 0.85958 0.13297 0.0
H658 H 0.11189 0.82801 0.08515 0.0
H659 H 0.0873 0.82574 0.1109 0.0
H660 H 0.20433 0.92248 0.13869 0.0
H661 H 0.18375 0.91853 0.16602 0.0
H662 H 0.19127 0.94128 0.10414 0.0
H663 H 0.18334 0.92217 0.07686 0.0
C664 C 0.84775 0.59769 0.10964 0.0
C665 C 0.86863 0.61874 0.09726 0.0
C666 C 0.89912 0.62287 0.13494 0.0
C667 C 0.8757 0.60717 0.14835 0.0
N668 N 0.82359 0.58458 0.14847 0.0
N669 N 0.90618 0.66046 0.10285 0.0
C670 C 0.84884 0.59575 0.13577 0.0
C671 C 0.89213 0.63392 0.11126 0.0
N672 N 0.82749 0.57881 0.0971 0.0
N673 N 0.92801 0.62753 0.14492 0.0
H674 H 0.89738 0.67234 0.08768 0.0
H675 H 0.92249 0.67303 0.11317 0.0
H676 H 0.93427 0.61707 0.16149 0.0
H677 H 0.94635 0.63788 0.13519 0.0
H678 H 0.8151 0.56075 0.10559 0.0
H679 H 0.82451 0.57898 0.07826 0.0
H680 H 0.80216 0.57975 0.14008 0.0
H681 H 0.82297 0.58246 0.16747 0.0
C682 C 0.15734 0.13301 0.85825 0.0
C683 C 0.1356 0.11366 0.84552 0.0
C684 C 0.11879 0.0908 0.88454 0.0
C685 C 0.13702 0.11347 0.89725 0.0
N686 N 0.17139 0.15817 0.89649 0.0
N687 N 0.09396 0.07559 0.84635 0.0
C688 C 0.15587 0.135 0.88419 0.0
C689 C 0.11604 0.09271 0.85859 0.0
N690 N 0.18016 0.14862 0.84559 0.0
N691 N 0.10493 0.06688 0.8972 0.0
H692 H 0.09188 0.07593 0.82731 0.0
H693 H 0.07642 0.06281 0.85508 0.0
H694 H 0.1069 0.06437 0.91616 0.0
H695 H 0.09404 0.0479 0.88876 0.0
H696 H 0.19852 0.16053 0.85406 0.0
H697 H 0.18275 0.14697 0.82664 0.0
H698 H 0.18238 0.17693 0.88781 0.0
H699 H 0.17118 0.15995 0.91555 0.0
C700 C 0.65763 0.41265 0.6082 0.0
C701 C 0.64023 0.38902 0.59563 0.0
C702 C 0.61337 0.37718 0.63393 0.0
C703 C 0.63484 0.39567 0.64733 0.0
N704 N 0.68312 0.42591 0.64634 0.0
N705 N 0.60888 0.34222 0.59968 0.0
C706 C 0.65869 0.41208 0.63432 0.0
C707 C 0.62026 0.36929 0.60944 0.0
N708 N 0.67169 0.43663 0.59578 0.0
N709 N 0.58586 0.36788 0.64428 0.0
H710 H 0.61693 0.33373 0.58295 0.0
H711 H 0.59548 0.32636 0.60979 0.0
H712 H 0.57869 0.37665 0.66119 0.0
H713 H 0.56872 0.35561 0.63457 0.0
H714 H 0.68219 0.45548 0.60477 0.0
H715 H 0.66967 0.44 0.57696 0.0
H716 H 0.70229 0.43539 0.63707 0.0
H717 H 0.6861 0.42517 0.66527 0.0
C718 C 0.33802 0.88425 0.3578 0.0
C719 C 0.36271 0.90018 0.34561 0.0
C720 C 0.38559 0.91397 0.38519 0.0
C721 C 0.36447 0.89292 0.39698 0.0
N722 N 0.32126 0.85662 0.39431 0.0
N723 N 0.41084 0.92938 0.34721 0.0
C724 C 0.34053 0.87799 0.38331 0.0
C725 C 0.38659 0.91513 0.35917 0.0
N726 N 0.31197 0.87548 0.34495 0.0
N727 N 0.40383 0.93371 0.39882 0.0
H728 H 0.41143 0.93172 0.32818 0.0
H729 H 0.43106 0.93718 0.35601 0.0
H730 H 0.40267 0.9348 0.41789 0.0
H731 H 0.41751 0.9514 0.39118 0.0
H732 H 0.29194 0.86625 0.35313 0.0
H733 H 0.30914 0.88071 0.3264 0.0
H734 H 0.3059 0.84224 0.38463 0.0
H735 H 0.32224 0.85151 0.41298 0.0
C736 C 0.01619 0.65479 0.98349 0.0
C737 C 0.03287 0.62755 0.99031 0.0
C738 C 0.98453 0.59749 0.99176 0.0
C739 C 0.96801 0.62617 0.99156 0.0
N740 N 0.96504 0.67895 0.97707 0.0
N741 N 0.03503 0.57175 0.98655 0.0
C742 C 0.98295 0.65366 0.98315 0.0
C743 C 0.01767 0.59825 0.98928 0.0
N744 N 0.03236 0.68189 0.97962 0.0
N745 N 0.96882 0.57033 -0.00354 0.0
H746 H 0.05917 0.57294 0.98359 0.0
H747 H 0.0253 0.54951 0.98463 0.0
H748 H 0.9444 0.56979 -0.00231 0.0
H749 H 0.97988 0.54893 -0.0005 0.0
H750 H 0.02195 0.70354 0.9764 0.0
H751 H 0.05683 0.68208 0.97968 0.0
H752 H 0.97401 0.69997 0.97043 0.0
H753 H 0.94059 0.67763 0.97737 0.0
C754 C 0.66761 0.73786 0.26139 0.0
C755 C 0.6419 0.72114 0.25168 0.0
C756 C 0.6178 0.76998 0.23799 0.0
C757 C 0.63874 0.78618 0.25356 0.0
N758 N 0.6864 0.78762 0.2771 0.0
N759 N 0.59691 0.71917 0.22557 0.0
C760 C 0.66541 0.77089 0.26341 0.0
C761 C 0.61892 0.73665 0.23751 0.0
N762 N 0.69242 0.72164 0.2708 0.0
N763 N 0.59594 0.78658 0.22514 0.0
H764 H 0.59827 0.69473 0.22515 0.0
H765 H 0.57781 0.72845 0.2162 0.0
H766 H 0.59527 0.81104 0.22575 0.0
H767 H 0.57995 0.77665 0.21301 0.0
H768 H 0.71313 0.73197 0.27679 0.0
H769 H 0.69269 0.69722 0.27118 0.0
H770 H 0.7049 0.77779 0.28685 0.0
H771 H 0.68463 0.81183 0.27923 0.0
C772 C 0.48915 0.3603 0.48488 0.0
C773 C 0.47453 0.38473 0.49821 0.0
C774 C 0.52241 0.41546 0.49508 0.0
C775 C 0.53882 0.38754 0.4907 0.0
N776 N 0.53891 0.33609 0.47361 0.0
N777 N 0.47656 0.43713 0.51481 0.0
C778 C 0.52226 0.36117 0.48199 0.0
C779 C 0.49057 0.41339 0.50214 0.0
N780 N 0.47155 0.33577 0.47667 0.0
N781 N 0.53801 0.44319 0.49407 0.0
H782 H 0.4535 0.43563 0.52105 0.0
H783 H 0.4884 0.45735 0.5202 0.0
H784 H 0.56137 0.44391 0.48836 0.0
H785 H 0.527 0.46483 0.49618 0.0
H786 H 0.48044 0.31744 0.46618 0.0
H787 H 0.44727 0.33526 0.47907 0.0
H788 H 0.52902 0.31462 0.46895 0.0
H789 H 0.56326 0.33732 0.47173 0.0
C790 C 0.85057 0.27176 0.74953 0.0
C791 C 0.87888 0.28867 0.74625 0.0
C792 C 0.90481 0.24139 0.73146 0.0
C793 C 0.87835 0.22418 0.73921 0.0
N794 N 0.82244 0.22366 0.74051 0.0
N795 N 0.92884 0.29273 0.72624 0.0
C796 C 0.84975 0.23987 0.74252 0.0
C797 C 0.90449 0.27454 0.73396 0.0
N798 N 0.82591 0.28493 0.76168 0.0
N799 N 0.93086 0.22545 0.72414 0.0
H800 H 0.92839 0.31704 0.72824 0.0
H801 H 0.94795 0.28422 0.71642 0.0
H802 H 0.9304 0.2011 0.72221 0.0
H803 H 0.95236 0.23591 0.72038 0.0
H804 H 0.80592 0.27239 0.7666 0.0
H805 H 0.82647 0.3079 0.76818 0.0
H806 H 0.80048 0.23427 0.7417 0.0
H807 H 0.82247 0.20028 0.73485 0.0
C808 C 0.98736 0.41428 0.99438 0.0
C809 C 0.97133 0.38605 -0.00087 0.0
C810 C 0.02075 0.36038 0.00914 0.0
C811 C 0.03631 0.38489 -0.00329 0.0
N812 N 0.03662 0.43775 0.9816 0.0
N813 N 0.97053 0.33557 0.01801 0.0
C814 C 0.02043 0.41327 0.99155 0.0
C815 C 0.98745 0.36049 0.00968 0.0
N816 N 0.97051 0.44104 0.99078 0.0
N817 N 0.03798 0.33633 0.01863 0.0
H818 H 0.94607 0.33637 0.01857 0.0
H819 H 0.9803 0.31473 0.0243 0.0
H820 H 0.06246 0.33651 0.01786 0.0
H821 H 0.02851 0.31761 0.02833 0.0
H822 H 0.98058 0.46299 0.98815 0.0
H823 H 0.94614 0.44125 0.9926 0.0
H824 H 0.02618 0.4582 0.97518 0.0
H825 H 0.06087 0.43693 0.97924 0.0
C826 C 0.83853 0.77161 0.22439 0.0
C827 C 0.86367 0.78778 0.23555 0.0
C828 C 0.88374 0.73873 0.2524 0.0
C829 C 0.86398 0.72258 0.23589 0.0
N830 N 0.81977 0.72196 0.20853 0.0
N831 N 0.9063 0.78903 0.26414 0.0
C832 C 0.8395 0.73847 0.22349 0.0
C833 C 0.8845 0.77205 0.25153 0.0
N834 N 0.81541 0.78822 0.21294 0.0
N835 N 0.90288 0.72193 0.26755 0.0
H836 H 0.90627 0.8135 0.26386 0.0
H837 H 0.92418 0.77924 0.27462 0.0
H838 H 0.90231 0.69747 0.26787 0.0
H839 H 0.91749 0.73187 0.2807 0.0
H840 H 0.79501 0.77827 0.20597 0.0
H841 H 0.81587 0.81262 0.21195 0.0
H842 H 0.80336 0.73211 0.19686 0.0
H843 H 0.82079 0.69761 0.20711 0.0
C844 C 0.49688 0.59189 0.48303 0.0
C845 C 0.4783 0.61772 0.49053 0.0
C846 C 0.52442 0.64384 0.50728 0.0
C847 C 0.54311 0.6208 0.49582 0.0
N848 N 0.54839 0.56755 0.48284 0.0
N849 N 0.47174 0.66246 0.51664 0.0
C850 C 0.5295 0.5925 0.48787 0.0
C851 C 0.49123 0.64146 0.50553 0.0
N852 N 0.48396 0.56877 0.46895 0.0
N853 N 0.53878 0.66911 0.51769 0.0
H854 H 0.4474 0.66058 0.51515 0.0
H855 H 0.47932 0.67996 0.52852 0.0
H856 H 0.56319 0.67031 0.51908 0.0
H857 H 0.52695 0.68856 0.52452 0.0
H858 H 0.49689 0.55095 0.46074 0.0
H859 H 0.4602 0.56846 0.46444 0.0
H860 H 0.53998 0.54536 0.47839 0.0
H861 H 0.5726 0.56885 0.48528 0.0
C862 C 0.6708 0.23486 0.73707 0.0
C863 C 0.64337 0.2207 0.74619 0.0
C864 C 0.62326 0.27194 0.75816 0.0
C865 C 0.64521 0.28555 0.7419 0.0
N866 N 0.69181 0.28098 0.71718 0.0
N867 N 0.59717 0.22375 0.77082 0.0
C868 C 0.67049 0.26754 0.73263 0.0
C869 C 0.62132 0.23871 0.75936 0.0
N870 N 0.69546 0.21645 0.73038 0.0
N871 N 0.6032 0.29086 0.77082 0.0
H872 H 0.59628 0.1993 0.77169 0.0
H873 H 0.57831 0.23515 0.77899 0.0
H874 H 0.60459 0.31523 0.76957 0.0
H875 H 0.58706 0.28271 0.78364 0.0
H876 H 0.71711 0.22531 0.72492 0.0
H877 H 0.69461 0.19217 0.73244 0.0
H878 H 0.7089 0.26842 0.70774 0.0
H879 H 0.69117 0.30476 0.71279 0.0
C880 C 0.33877 0.27532 0.73888 0.0
C881 C 0.36619 0.28994 0.74756 0.0
C882 C 0.38832 0.23897 0.758 0.0
C883 C 0.36583 0.22519 0.74229 0.0
N884 N 0.31755 0.22887 0.71951 0.0
N885 N 0.41335 0.28755 0.77107 0.0
C886 C 0.3396 0.24271 0.7341 0.0
C887 C 0.38926 0.27219 0.75985 0.0
N888 N 0.31345 0.29332 0.73305 0.0
N889 N 0.40957 0.2203 0.76967 0.0
H890 H 0.4135 0.31198 0.77241 0.0
H891 H 0.43283 0.27653 0.77866 0.0
H892 H 0.40875 0.19593 0.7681 0.0
H893 H 0.42625 0.22853 0.78202 0.0
H894 H 0.29179 0.28415 0.72794 0.0
H895 H 0.31386 0.31757 0.73543 0.0
H896 H 0.29955 0.24106 0.71085 0.0
H897 H 0.31826 0.20508 0.71516 0.0
C898 C 0.1675 0.73843 0.23022 0.0
C899 C 0.14185 0.72227 0.24064 0.0
C900 C 0.12074 0.77135 0.25656 0.0
C901 C 0.14108 0.78738 0.24043 0.0
N902 N 0.18707 0.78815 0.21503 0.0
N903 N 0.09847 0.72096 0.26845 0.0
C904 C 0.1665 0.77158 0.2292 0.0
C905 C 0.12041 0.73803 0.25608 0.0
N906 N 0.191 0.72178 0.21931 0.0
N907 N 0.10058 0.78827 0.27077 0.0
H908 H 0.09883 0.69649 0.26829 0.0
H909 H 0.08034 0.73064 0.27871 0.0
H910 H 0.10093 0.81275 0.27072 0.0
H911 H 0.08519 0.77848 0.28343 0.0
H912 H 0.21165 0.73165 0.21272 0.0
H913 H 0.19042 0.69741 0.21823 0.0
H914 H 0.20458 0.77816 0.20431 0.0
H915 H 0.18582 0.81246 0.21346 0.0
C916 C 0.15752 0.23872 0.75305 0.0
C917 C 0.12889 0.22241 0.74953 0.0
C918 C 0.10426 0.27019 0.73432 0.0
C919 C 0.131 0.28685 0.74223 0.0
N920 N 0.18679 0.28624 0.74426 0.0
N921 N 0.07901 0.21941 0.72921 0.0
C922 C 0.15915 0.27057 0.74597 0.0
C923 C 0.10373 0.23705 0.73702 0.0
N924 N 0.18174 0.22503 0.76539 0.0
N925 N 0.07866 0.28671 0.72678 0.0
H926 H 0.07874 0.19511 0.73137 0.0
H927 H 0.06025 0.22831 0.71919 0.0
H928 H 0.07962 0.31107 0.7249 0.0
H929 H 0.05697 0.27673 0.72287 0.0
H930 H 0.20193 0.23714 0.77046 0.0
H931 H 0.18066 0.20206 0.77185 0.0
H932 H 0.20854 0.27528 0.7458 0.0
H933 H 0.18724 0.30959 0.73851 0.0
C934 C 0.38926 0.73723 0.24212 0.0
C935 C 0.36844 0.72098 0.25776 0.0
C936 C 0.34089 0.76957 0.26725 0.0
C937 C 0.36633 0.78613 0.25687 0.0
N938 N 0.4107 0.7879 0.23003 0.0
N939 N 0.32171 0.71968 0.28241 0.0
C940 C 0.38876 0.77057 0.24219 0.0
C941 C 0.34254 0.73647 0.2686 0.0
N942 N 0.41033 0.72058 0.22851 0.0
N943 N 0.31673 0.78589 0.2776 0.0
H944 H 0.32293 0.69535 0.2839 0.0
H945 H 0.30387 0.7295 0.29288 0.0
H946 H 0.31665 0.8103 0.27833 0.0
H947 H 0.29618 0.7757 0.28405 0.0
H948 H 0.42607 0.73055 0.2162 0.0
H949 H 0.41053 0.69611 0.22863 0.0
H950 H 0.42949 0.77849 0.22037 0.0
H951 H 0.40968 0.81235 0.2297 0.0
C952 C 0.49509 0.09033 0.51268 0.0
C953 C 0.47652 0.11556 0.50403 0.0
C954 C 0.52264 0.14078 0.48653 0.0
C955 C 0.5413 0.11873 0.49915 0.0
N956 N 0.54681 0.06665 0.5148 0.0
N957 N 0.46996 0.15839 0.47605 0.0
C958 C 0.5278 0.09094 0.50828 0.0
C959 C 0.48946 0.13832 0.48814 0.0
N960 N 0.48197 0.06796 0.52738 0.0
N961 N 0.53698 0.16533 0.47509 0.0
H962 H 0.44562 0.15641 0.47743 0.0
H963 H 0.47755 0.17516 0.46354 0.0
H964 H 0.56139 0.16658 0.47381 0.0
H965 H 0.52513 0.18414 0.46726 0.0
H966 H 0.49477 0.05071 0.53642 0.0
H967 H 0.45808 0.06768 0.53145 0.0
H968 H 0.53856 0.04474 0.52015 0.0
H969 H 0.57107 0.06807 0.51278 0.0
C970 C 0.98615 0.85888 0.9847 0.0
C971 C 0.97222 0.88495 0.99636 0.0
C972 C 0.02265 0.91186 -0.00309 0.0
C973 C 0.03703 0.88258 0.99288 0.0
N974 N 0.03481 0.83123 0.97559 0.0
N975 N 0.97472 0.93895 0.00856 0.0
C976 C 0.01937 0.85736 0.98343 0.0
C977 C 0.98959 0.91283 0.0 0.0
N978 N 0.96746 0.83516 0.9765 0.0
N979 N 0.04103 0.93779 -0.00048 0.0
H980 H 0.95044 0.93967 0.0108 0.0
H981 H 0.98616 0.95945 0.01371 0.0
H982 H 0.06533 0.93653 -0.00259 0.0
H983 H 0.03232 0.96038 0.00177 0.0
H984 H 0.97566 0.81526 0.96757 0.0
H985 H 0.94307 0.83675 0.97753 0.0
H986 H 0.02386 0.81068 0.96996 0.0
H987 H 0.05928 0.83069 0.97473 0.0
C988 C 0.48997 0.90501 0.49076 0.0
C989 C 0.47394 0.87595 0.49207 0.0
C990 C 0.52172 0.85007 0.50588 0.0
C991 C 0.53825 0.87771 0.49997 0.0
N992 N 0.53717 0.93356 0.50177 0.0
N993 N 0.4711 0.82392 0.50871 0.0
C994 C 0.52178 0.90607 0.49804 0.0
C995 C 0.48864 0.84957 0.50284 0.0
N996 N 0.47601 0.9305 0.48033 0.0
N997 N 0.53835 0.82393 0.51196 0.0
H998 H 0.44682 0.82369 0.50633 0.0
H999 H 0.48003 0.80412 0.5174 0.0
H1000 H 0.56264 0.82496 0.51428 0.0
H1001 H 0.52854 0.80182 0.51436 0.0
H1002 H 0.48791 0.95133 0.47676 0.0
H1003 H 0.45299 0.93003 0.4739 0.0
H1004 H 0.52599 0.95527 0.5017 0.0
H1005 H 0.56044 0.93367 0.50772 0.0
C1006 C 0.02034 0.10054 0.00171 0.0
C1007 C 0.03857 0.12819 0.00142 0.0
C1008 C 0.99211 0.15989 0.00871 0.0
C1009 C 0.97391 0.13348 0.00234 0.0
N1010 N 0.96852 0.07815 0.00804 0.0
N1011 N 0.04452 0.18106 0.01514 0.0
C1012 C 0.98733 0.1034 0.00423 0.0
C1013 C 0.02521 0.15676 0.00926 0.0
N1014 N 0.03425 0.0723 -0.00254 0.0
N1015 N 0.97755 0.18803 0.01194 0.0
H1016 H 0.06881 0.17816 0.01516 0.0
H1017 H 0.03676 0.20275 0.0214 0.0
H1018 H 0.95313 0.1897 0.01172 0.0
H1019 H 0.98923 0.20912 0.01473 0.0
H1020 H 0.02176 0.05164 0.99468 0.0
H1021 H 0.05857 0.07005 0.99628 0.0
H1022 H 0.97705 0.05556 0.01082 0.0
H1023 H 0.9445 0.08086 0.01101 0.0
C1024 C 0.11757 0.47404 0.00797 0.0
C1025 C 0.14352 0.46374 0.99417 0.0
C1026 C 0.16439 0.51764 0.99478 0.0
C1027 C 0.13564 0.52891 0.00504 0.0
N1028 N 0.08193 0.51461 0.01701 0.0
N1029 N 0.19034 0.47628 0.9717 0.0
C1030 C 0.11163 0.50641 0.01047 0.0
C1031 C 0.16658 0.48573 0.98676 0.0
N1032 N 0.09721 0.4528 0.01783 0.0
N1033 N 0.19027 0.53645 0.99401 0.0
H1034 H 0.19335 0.45292 0.96654 0.0
H1035 H 0.20574 0.49188 0.96327 0.0
H1036 H 0.19084 0.55899 0.00124 0.0
H1037 H 0.21231 0.52835 0.98877 0.0
H1038 H 0.07748 0.45948 0.0279 0.0
H1039 H 0.10124 0.42872 0.01718 0.0
H1040 H 0.07315 0.53736 0.01715 0.0
H1041 H 0.07315 0.53736 0.01715 0.0
C1042 C 0.76696 0.86638 0.24509 0.0
C1043 C 0.78296 0.89494 0.24102 0.0
C1044 C 0.73366 0.9233 0.24937 0.0
C1045 C 0.71733 0.89427 0.25038 0.0
N1046 N 0.71773 0.83901 0.24165 0.0
N1047 N 0.78075 0.95102 0.23637 0.0
C1048 C 0.73383 0.86608 0.24593 0.0
C1049 C 0.76611 0.92365 0.24238 0.0
N1050 N 0.78355 0.83952 0.24908 0.0
N1051 N 0.71857 0.95028 0.25577 0.0
H1052 H 0.80448 0.95202 0.23183 0.0
H1053 H 0.76896 0.97226 0.23447 0.0
H1054 H 0.69484 0.95079 0.26035 0.0
H1055 H 0.73 0.97167 0.25794 0.0
H1056 H 0.77302 0.81842 0.25409 0.0
H1057 H 0.80796 0.83942 0.25025 0.0
H1058 H 0.72863 0.8182 0.23638 0.0
H1059 H 0.69332 0.83849 0.24051 0.0
C1060 C 0.34028 0.48473 0.50536 0.0
C1061 C 0.36738 0.46572 0.50232 0.0
C1062 C 0.39812 0.51255 0.49333 0.0
C1063 C 0.37076 0.53137 0.49301 0.0
N1064 N 0.31432 0.53398 0.49554 0.0
N1065 N 0.41929 0.46117 0.48557 0.0
C1066 C 0.34128 0.51714 0.49822 0.0
C1067 C 0.39538 0.47957 0.4938 0.0
N1068 N 0.31392 0.47207 0.51549 0.0
N1069 N 0.42697 0.52627 0.49438 0.0
H1070 H 0.41732 0.43684 0.48456 0.0
H1071 H 0.43934 0.47034 0.4773 0.0
H1072 H 0.4296 0.5504 0.49665 0.0
H1073 H 0.44765 0.51346 0.49634 0.0
H1074 H 0.29453 0.4854 0.5206 0.0
H1075 H 0.31232 0.44837 0.52001 0.0
H1076 H 0.29209 0.52398 0.49666 0.0
H1077 H 0.31422 0.55754 0.49052 0.0
C1078 C 0.77079 0.09184 0.74337 0.0
C1079 C 0.78157 0.12001 0.75481 0.0
C1080 C 0.72638 0.13652 0.75881 0.0
C1081 C 0.71663 0.11193 0.74336 0.0
N1082 N 0.73021 0.06744 0.71848 0.0
N1083 N 0.76758 0.17325 0.76688 0.0
C1084 C 0.73907 0.08996 0.73484 0.0
C1085 C 0.75879 0.14342 0.7609 0.0
N1086 N 0.78986 0.06624 0.74177 0.0
N1087 N 0.70462 0.15388 0.77117 0.0
H1088 H 0.79055 0.18118 0.76615 0.0
H1089 H 0.75151 0.19141 0.7692 0.0
H1090 H 0.68067 0.14916 0.77012 0.0
H1091 H 0.71069 0.17056 0.78432 0.0
H1092 H 0.78207 0.04457 0.73542 0.0
H1093 H 0.81216 0.06532 0.74946 0.0
H1094 H 0.74621 0.05299 0.70949 0.0
H1095 H 0.70697 0.06462 0.7129 0.0
C1096 C 0.8596 0.52952 0.97781 0.0
C1097 C 0.85823 0.53764 0.00306 0.0
C1098 C 0.85985 0.48148 0.01388 0.0
C1099 C 0.86001 0.47331 0.98864 0.0
N1100 N 0.84904 0.48982 0.94712 0.0
N1101 N 0.84583 0.52052 0.04412 0.0
C1102 C 0.85632 0.49746 0.97079 0.0
C1103 C 0.85469 0.51329 0.02073 0.0
N1104 N 0.86596 0.55178 0.96052 0.0
N1105 N 0.8666 0.45961 0.0314 0.0
H1106 H 0.84036 0.54333 0.04937 0.0
H1107 H 0.84028 0.50362 0.05722 0.0
H1108 H 0.8716 0.43629 0.02742 0.0
H1109 H 0.87018 0.46536 0.04977 0.0
H1110 H 0.87076 0.54631 0.94227 0.0
H1111 H 0.86919 0.57536 0.96466 0.0
H1112 H 0.84349 0.5065 0.93385 0.0
H1113 H 0.84488 0.4668 0.94155 0.0
C1114 C 0.23468 0.0881 0.75231 0.0
C1115 C 0.21706 0.11634 0.75105 0.0
C1116 C 0.26549 0.14583 0.74519 0.0
C1117 C 0.28296 0.11775 0.74322 0.0
N1118 N 0.28329 0.06129 0.74185 0.0
N1119 N 0.2153 0.17027 0.73845 0.0
C1120 C 0.26736 0.0885 0.74599 0.0
C1121 C 0.23241 0.14463 0.74506 0.0
N1122 N 0.22052 0.06122 0.7601 0.0
N1123 N 0.28058 0.17375 0.74816 0.0
H1124 H 0.19095 0.1694 0.73666 0.0
H1125 H 0.22553 0.19089 0.73202 0.0
H1126 H 0.30485 0.17504 0.75035 0.0
H1127 H 0.26879 0.19472 0.7515 0.0
H1128 H 0.23278 0.04068 0.7639 0.0
H1129 H 0.19663 0.06013 0.76409 0.0
H1130 H 0.27244 0.03945 0.74109 0.0
H1131 H 0.30714 0.06085 0.73767 0.0
C1132 C 0.67245 0.49068 0.49481 0.0
C1133 C 0.64469 0.48008 0.50692 0.0
C1134 C 0.62834 0.53533 0.51089 0.0
C1135 C 0.6524 0.54484 0.49484 0.0
N1136 N 0.69609 0.53093 0.46919 0.0
N1137 N 0.59194 0.49429 0.52024 0.0
C1138 C 0.67408 0.52228 0.48605 0.0
C1139 C 0.62153 0.50296 0.51344 0.0
N1140 N 0.69793 0.4715 0.49276 0.0
N1141 N 0.61135 0.55728 0.52336 0.0
H1142 H 0.58392 0.47135 0.52002 0.0
H1143 H 0.57386 0.5104 0.52281 0.0
H1144 H 0.61584 0.58123 0.52186 0.0
H1145 H 0.5952 0.55144 0.53698 0.0
H1146 H 0.7194 0.47914 0.48588 0.0
H1147 H 0.69902 0.4493 0.50058 0.0
H1148 H 0.71023 0.51483 0.46 0.0
H1149 H 0.69881 0.5541 0.46342 0.0
C1150 C 0.23362 0.86636 0.24512 0.0
C1151 C 0.21781 0.89473 0.23986 0.0
C1152 C 0.26742 0.92316 0.24707 0.0
C1153 C 0.28353 0.89409 0.24936 0.0
N1154 N 0.28264 0.83841 0.24262 0.0
N1155 N 0.22059 0.95036 0.23278 0.0
C1156 C 0.26676 0.86583 0.24594 0.0
C1157 C 0.23496 0.92332 0.23999 0.0
N1158 N 0.21688 0.83998 0.2504 0.0
N1159 N 0.28271 0.9504 0.25237 0.0
H1160 H 0.19688 0.95123 0.22813 0.0
H1161 H 0.23257 0.97132 0.23001 0.0
H1162 H 0.30642 0.95102 0.25702 0.0
H1163 H 0.27146 0.97201 0.25357 0.0
H1164 H 0.22732 0.81921 0.25629 0.0
H1165 H 0.19249 0.84017 0.25172 0.0
H1166 H 0.27153 0.8174 0.23818 0.0
H1167 H 0.30704 0.83769 0.24136 0.0
C1168 C 0.67178 0.0216 0.50905 0.0
C1169 C 0.64949 0.04388 0.50076 0.0
C1170 C 0.61774 1.00144 0.48396 0.0
C1171 C 0.64152 0.9789 0.48956 0.0
N1172 N 0.69557 0.97086 0.50206 0.0
N1173 N 0.60657 0.05541 0.47368 0.0
C1174 C 0.66987 0.98982 0.50066 0.0
C1175 C 0.62444 0.03388 0.48585 0.0
N1176 N 0.69466 0.03066 0.52504 0.0
N1177 N 0.58785 0.99229 0.47852 0.0
H1178 H 0.61115 0.07939 0.4745 0.0
H1179 H 0.58949 0.04911 0.46091 0.0
H1180 H 0.58035 0.96918 0.47939 0.0
H1181 H 0.56941 0.00813 0.47651 0.0
H1182 H 0.70941 0.0148 0.53389 0.0
H1183 H 0.69751 0.05393 0.53051 0.0
H1184 H 0.71736 0.97879 0.50806 0.0
H1185 H 0.69637 0.94842 0.49467 0.0
C1186 C 0.23669 0.41944 0.74487 0.0
C1187 C 0.22579 0.39172 0.75688 0.0
C1188 C 0.28088 0.3747 0.76071 0.0
C1189 C 0.29068 0.39886 0.74486 0.0
N1190 N 0.27723 0.44287 0.71939 0.0
N1191 N 0.23937 0.33875 0.76994 0.0
C1192 C 0.26834 0.42081 0.73613 0.0
C1193 C 0.24841 0.36825 0.76324 0.0
N1194 N 0.21779 0.44513 0.74294 0.0
N1195 N 0.30262 0.35735 0.77312 0.0
H1196 H 0.2163 0.3311 0.76983 0.0
H1197 H 0.25525 0.32043 0.77237 0.0
H1198 H 0.32663 0.36162 0.77173 0.0
H1199 H 0.29658 0.34112 0.78661 0.0
H1200 H 0.22566 0.46656 0.73617 0.0
H1201 H 0.19557 0.4464 0.75074 0.0
H1202 H 0.26127 0.45723 0.71027 0.0
H1203 H 0.30042 0.44536 0.71361 0.0
C1204 C 0.84169 0.99212 0.002 0.0
C1205 C 0.86606 0.97093 0.99581 0.0
C1206 C 0.89757 0.0146 0.98059 0.0
C1207 C 0.87227 0.03605 0.98465 0.0
N1208 N 0.81691 0.04205 0.99346 0.0
N1209 N 0.91278 0.96089 0.97263 0.0
C1210 C 0.8433 0.02397 0.99377 0.0
C1211 C 0.89238 0.98188 0.98278 0.0
N1212 N 0.81727 0.98201 0.0161 0.0
N1213 N 0.92732 0.02515 0.97629 0.0
H1214 H 0.90934 0.93673 0.97378 0.0
H1215 H 0.93098 0.9675 0.96096 0.0
H1216 H 0.93354 0.04866 0.97637 0.0
H1217 H 0.94675 0.01036 0.97575 0.0
H1218 H 0.80068 0.99712 0.02364 0.0
H1219 H 0.81478 0.95863 0.02137 0.0
H1220 H 0.79478 0.03338 -0.00215 0.0
H1221 H 0.81631 0.06462 0.98625 0.0
C1222 C 0.27193 0.58538 0.24609 0.0
C1223 C 0.28777 0.61432 0.24986 0.0
C1224 C 0.2376 0.64195 0.24745 0.0
C1225 C 0.2221 0.61398 0.24071 0.0
N1226 N 0.22519 0.55912 0.23067 0.0
N1227 N 0.28629 0.67054 0.24636 0.0
C1228 C 0.23945 0.58558 0.2392 0.0
C1229 C 0.27072 0.64271 0.24818 0.0
N1230 N 0.28745 0.55784 0.24988 0.0
N1231 N 0.22057 0.66766 0.25404 0.0
H1232 H 0.31066 0.67164 0.24498 0.0
H1233 H 0.27496 0.6918 0.2432 0.0
H1234 H 0.19616 0.66717 0.25519 0.0
H1235 H 0.23077 0.688 0.26102 0.0
H1236 H 0.27635 0.53611 0.24997 0.0
H1237 H 0.31116 0.55696 0.25446 0.0
H1238 H 0.2373 0.53856 0.22666 0.0
H1239 H 0.2014 0.55843 0.22625 0.0
C1240 C 0.3974 0.01246 0.50226 0.0
C1241 C 0.36946 0.03039 0.50332 0.0
C1242 C 0.33967 0.98265 0.49276 0.0
C1243 C 0.36758 0.96458 0.49469 0.0
N1244 N 0.42081 0.96169 0.50886 0.0
N1245 N 0.31294 0.03136 0.50295 0.0
C1246 C 0.39571 0.97937 0.50189 0.0
C1247 C 0.34016 0.0152 0.49947 0.0
N1248 N 0.4257 0.02714 0.50035 0.0
N1249 N 0.31303 0.96903 0.48393 0.0
H1250 H 0.31252 0.05507 0.50754 0.0
H1251 H 0.29095 0.02076 0.50289 0.0
H1252 H 0.31181 0.9452 0.47974 0.0
H1253 H 0.29289 0.98165 0.47955 0.0
H1254 H 0.44669 0.01508 0.49769 0.0
H1255 H 0.42747 0.05136 0.4982 0.0
H1256 H 0.44122 0.97139 0.51616 0.0
H1257 H 0.41962 0.93729 0.50991 0.0
C1258 C 0.73604 0.64034 0.24291 0.0
C1259 C 0.72159 0.61258 0.25135 0.0
C1260 C 0.77221 0.58511 0.24651 0.0
C1261 C 0.78713 0.61417 0.24122 0.0
N1262 N 0.78374 0.67048 0.2425 0.0
N1263 N 0.72664 0.55875 0.26392 0.0
C1264 C 0.76912 0.64207 0.24174 0.0
C1265 C 0.73988 0.5849 0.25391 0.0
N1266 N 0.71808 0.66497 0.23537 0.0
N1267 N 0.78842 0.55778 0.24374 0.0
H1268 H 0.70297 0.55771 0.26869 0.0
H1269 H 0.73947 0.53891 0.26873 0.0
H1270 H 0.81196 0.5572 0.2386 0.0
H1271 H 0.77798 0.53578 0.2449 0.0
H1272 H 0.72751 0.68495 0.2272 0.0
H1273 H 0.69365 0.66377 0.23484 0.0
H1274 H 0.77167 0.69152 0.2448 0.0
H1275 H 0.80802 0.67246 0.24411 0.0
C1276 C 0.15193 0.99046 0.02116 0.0
C1277 C 0.148 0.9665 0.0032 0.0
C1278 C 0.14973 0.00728 0.97143 0.0
C1279 C 0.14645 0.03108 0.98959 0.0
N1280 N 0.14074 0.04409 0.03253 0.0
N1281 N 0.13917 0.95337 0.96057 0.0
C1282 C 0.14693 0.02244 0.01472 0.0
C1283 C 0.14621 0.97515 0.97808 0.0
N1284 N 0.16105 0.9827 0.04439 0.0
N1285 N 0.15686 0.0153 0.94781 0.0
H1286 H 0.13549 0.92978 0.96441 0.0
H1287 H 0.13414 0.95934 0.94244 0.0
H1288 H 0.16124 0.03837 0.94248 0.0
H1289 H 0.16211 0.99881 0.93431 0.0
H1290 H 0.16686 0.99931 0.05765 0.0
H1291 H 0.16646 0.95977 0.04935 0.0
H1292 H 0.1374 0.03808 0.05088 0.0
H1293 H 0.13604 0.06755 0.02881 0.0
C1294 C 0.77511 0.3666 0.74218 0.0
C1295 C 0.79039 0.39471 0.74873 0.0
C1296 C 0.74036 0.42283 0.74285 0.0
C1297 C 0.7247 0.39366 0.73969 0.0
N1298 N 0.72684 0.33766 0.74471 0.0
N1299 N 0.7869 0.44979 0.75793 0.0
C1300 C 0.74203 0.36552 0.7418 0.0
C1301 C 0.77286 0.42304 0.74976 0.0
N1302 N 0.79227 0.34099 0.73561 0.0
N1303 N 0.72463 0.45012 0.73858 0.0
H1304 H 0.81066 0.45072 0.76241 0.0
H1305 H 0.77463 0.47037 0.76156 0.0
H1306 H 0.70094 0.45065 0.73389 0.0
H1307 H 0.73556 0.47194 0.73816 0.0
H1308 H 0.78208 0.32051 0.72886 0.0
H1309 H 0.81665 0.34182 0.73413 0.0
H1310 H 0.73858 0.31668 0.74819 0.0
H1311 H 0.70258 0.33646 0.74685 0.0
C1312 C 0.16844 0.76501 0.03382 0.0
C1313 C 0.14776 0.78131 0.01793 0.0
C1314 C 0.13221 0.73126 -0.00098 0.0
C1315 C 0.14851 0.71498 0.01779 0.0
N1316 N 0.19085 0.71487 0.04641 0.0
N1317 N 0.11727 0.78162 0.98106 0.0
C1318 C 0.16989 0.73156 0.03279 0.0
C1319 C 0.13256 0.76484 -0.00128 0.0
N1320 N 0.18493 0.78159 0.05091 0.0
N1321 N 0.1149 0.71441 0.98262 0.0
H1322 H 0.11767 0.80609 0.98089 0.0
H1323 H 0.10599 0.7718 0.966 0.0
H1324 H 0.11559 0.68996 0.9823 0.0
H1325 H 0.10026 0.72418 0.96943 0.0
H1326 H 0.19809 0.7714 0.06486 0.0
H1327 H 0.18476 0.80606 0.05119 0.0
H1328 H 0.20823 0.7249 0.05725 0.0
H1329 H 0.19229 0.69053 0.04482 0.0
C1330 C 0.51768 0.92457 0.28379 0.0
C1331 C 0.53363 0.90067 0.27076 0.0
C1332 C 0.48327 0.88175 0.25438 0.0
C1333 C 0.46724 0.90175 0.271 0.0
N1334 N 0.46762 0.94792 0.29579 0.0
N1335 N 0.53333 0.86302 0.2382 0.0
C1336 C 0.48411 0.92542 0.28357 0.0
C1337 C 0.51684 0.88178 0.25387 0.0
N1338 N 0.53496 0.94546 0.29705 0.0
N1339 N 0.4662 0.86129 0.2405 0.0
H1340 H 0.5578 0.86316 0.2378 0.0
H1341 H 0.52326 0.84904 0.22472 0.0
H1342 H 0.44174 0.86192 0.24017 0.0
H1343 H 0.47579 0.84389 0.22947 0.0
H1344 H 0.52559 0.9625 0.30853 0.0
H1345 H 0.55937 0.94588 0.29582 0.0
H1346 H 0.47767 0.96625 0.30558 0.0
H1347 H 0.4432 0.94897 0.29472 0.0
C1348 C 0.37998 0.23087 0.50361 0.0
C1349 C 0.3615 0.21524 0.52149 0.0
C1350 C 0.34197 0.26611 0.53631 0.0
C1351 C 0.36389 0.28165 0.52099 0.0
N1352 N 0.39615 0.28042 0.48509 0.0
N1353 N 0.31712 0.21687 0.54818 0.0
C1354 C 0.37997 0.2644 0.50267 0.0
C1355 C 0.33958 0.23269 0.53542 0.0
N1356 N 0.39916 0.21353 0.48886 0.0
N1357 N 0.32507 0.2833 0.55278 0.0
H1358 H 0.31501 0.19257 0.54673 0.0
H1359 H 0.2992 0.22764 0.558 0.0
H1360 H 0.32585 0.30776 0.55294 0.0
H1361 H 0.31108 0.27357 0.56643 0.0
H1362 H 0.41594 0.22302 0.47718 0.0
H1363 H 0.39837 0.1891 0.48875 0.0
H1364 H 0.4074 0.26988 0.4703 0.0
H1365 H 0.39604 0.30488 0.48444 0.0
C1366 C 0.98532 0.12529 0.74913 0.0
C1367 C 0.96754 0.10781 0.76634 0.0
C1368 C 0.01593 0.08404 0.78215 0.0
C1369 C 0.03369 0.106 0.76847 0.0
N1370 N 0.03698 0.13954 0.73333 0.0
N1371 N 0.96427 0.06311 0.79252 0.0
C1372 C 0.01882 0.12357 0.74972 0.0
C1373 C 0.98248 0.08432 0.78041 0.0
N1374 N 0.96996 0.14516 0.73362 0.0
N1375 N 0.03133 0.06411 0.79755 0.0
H1376 H 0.93994 0.06301 0.79034 0.0
H1377 H 0.97295 0.04467 0.80298 0.0
H1378 H 0.05574 0.06264 0.79746 0.0
H1379 H 0.02036 0.04912 0.80991 0.0
H1380 H 0.98096 0.16106 0.72201 0.0
H1381 H 0.94553 0.14556 0.73261 0.0
H1382 H 0.02824 0.15227 0.71857 0.0
H1383 H 0.06139 0.13801 0.73368 0.0
C1384 C 0.13684 0.22986 0.99219 0.0
C1385 C 0.15228 0.21502 0.97233 0.0
C1386 C 0.16942 0.2664 0.957 0.0
C1387 C 0.14841 0.28112 0.97357 0.0
N1388 N 0.11662 0.27849 0.00975 0.0
N1389 N 0.19239 0.21761 0.94192 0.0
C1390 C 0.13427 0.2633 0.99256 0.0
C1391 C 0.17191 0.23299 0.95687 0.0
N1392 N 0.12396 0.21163 0.01011 0.0
N1393 N 0.18515 0.28448 0.94039 0.0
H1394 H 0.19497 0.19332 0.94299 0.0
H1395 H 0.20828 0.22855 0.93026 0.0
H1396 H 0.18412 0.30892 0.94091 0.0
H1397 H 0.19887 0.27565 0.92622 0.0
H1398 H 0.11296 0.2203 0.02572 0.0
H1399 H 0.12641 0.1873 0.00998 0.0
H1400 H 0.10318 0.26737 0.02306 0.0
H1401 H 0.11551 0.30292 0.01046 0.0
C1402 C 0.98166 0.88452 0.24138 0.0
C1403 C 0.96669 0.9033 0.22334 0.0
C1404 C 0.01796 0.92348 0.21011 0.0
C1405 C 0.03294 0.90101 0.22527 0.0
N1406 N 0.03066 0.86769 0.26051 0.0
N1407 N 0.96902 0.94806 0.19708 0.0
C1408 C 0.01515 0.88449 0.24299 0.0
C1409 C 0.9845 0.92561 0.21013 0.0
N1410 N 0.96382 0.86506 0.25553 0.0
N1411 N 0.03581 0.94098 0.19449 0.0
H1412 H 0.94462 0.94981 0.19769 0.0
H1413 H 0.98004 0.96618 0.18767 0.0
H1414 H 0.06027 0.94019 0.19496 0.0
H1415 H 0.02667 0.95559 0.18098 0.0
H1416 H 0.97291 0.8482 0.26734 0.0
H1417 H 0.93937 0.8657 0.25506 0.0
H1418 H 0.01972 0.85599 0.27489 0.0
H1419 H 0.05512 0.8676 0.26147 0.0
C1420 C 0.33852 0.73084 0.45468 0.0
C1421 C 0.36122 0.71526 0.46919 0.0
C1422 C 0.37639 0.76618 0.48705 0.0
C1423 C 0.35946 0.78181 0.46827 0.0
N1424 N 0.3205 0.77994 0.43666 0.0
N1425 N 0.39896 0.71715 0.50179 0.0
C1426 C 0.33871 0.76432 0.45322 0.0
C1427 C 0.37864 0.73267 0.48672 0.0
N1428 N 0.31737 0.71322 0.44197 0.0
N1429 N 0.39113 0.78363 0.50457 0.0
H1430 H 0.39983 0.69272 0.50242 0.0
H1431 H 0.4152 0.72813 0.51312 0.0
H1432 H 0.3894 0.80802 0.50494 0.0
H1433 H 0.40262 0.77417 0.51969 0.0
H1434 H 0.29904 0.72248 0.43167 0.0
H1435 H 0.31681 0.68888 0.44377 0.0
H1436 H 0.30715 0.76906 0.42315 0.0
H1437 H 0.31933 0.80436 0.43647 0.0
C1438 C 0.48299 0.1292 0.74216 0.0
C1439 C 0.46717 0.11074 0.72439 0.0
C1440 C 0.51778 0.09069 0.70952 0.0
C1441 C 0.53353 0.11266 0.72465 0.0
N1442 N 0.53278 0.14543 0.76029 0.0
N1443 N 0.46826 0.06621 0.69786 0.0
C1444 C 0.51653 0.12905 0.74294 0.0
C1445 C 0.48435 0.0886 0.71049 0.0
N1446 N 0.46582 0.1485 0.75694 0.0
N1447 N 0.5348 0.0735 0.69313 0.0
H1448 H 0.44394 0.06432 0.69938 0.0
H1449 H 0.47883 0.04817 0.68804 0.0
H1450 H 0.55927 0.07409 0.6929 0.0
H1451 H 0.52491 0.05939 0.67961 0.0
H1452 H 0.47544 0.16522 0.7686 0.0
H1453 H 0.44137 0.14784 0.75714 0.0
H1454 H 0.52242 0.15691 0.77504 0.0
H1455 H 0.55726 0.14539 0.76076 0.0
C1456 C 0.8372 0.27206 0.95817 0.0
C1457 C 0.8595 0.28883 0.97228 0.0
C1458 C 0.87672 0.23929 0.99122 0.0
C1459 C 0.8597 0.22251 0.97316 0.0
N1460 N 0.81672 0.22116 0.94516 0.0
N1461 N 0.895 0.29002 0.00632 0.0
C1462 C 0.83723 0.23851 0.95872 0.0
C1463 C 0.8769 0.27285 0.99063 0.0
N1464 N 0.81698 0.28858 0.94374 0.0
N1465 N 0.89372 0.22276 0.00803 0.0
H1466 H 0.8943 0.31446 0.00641 0.0
H1467 H 0.91006 0.28056 0.01936 0.0
H1468 H 0.8931 0.19832 0.00857 0.0
H1469 H 0.90695 0.23275 0.02201 0.0
H1470 H 0.80075 0.27859 0.93185 0.0
H1471 H 0.81596 0.313 0.94461 0.0
H1472 H 0.79986 0.23045 0.93347 0.0
H1473 H 0.8159 0.1968 0.94688 0.0
C1474 C 0.63938 0.77804 0.49304 0.0
C1475 C 0.65585 0.7937 0.47405 0.0
C1476 C 0.67558 0.74313 0.45892 0.0
C1477 C 0.65423 0.72747 0.47464 0.0
N1478 N 0.62174 0.72822 0.51044 0.0
N1479 N 0.69768 0.79286 0.44498 0.0
C1480 C 0.63866 0.74447 0.49339 0.0
C1481 C 0.67704 0.7766 0.45922 0.0
N1482 N 0.6232 0.79553 0.50975 0.0
N1483 N 0.69268 0.72583 0.44264 0.0
H1484 H 0.69903 0.81726 0.44593 0.0
H1485 H 0.71468 0.78258 0.43393 0.0
H1486 H 0.69234 0.70136 0.4429 0.0
H1487 H 0.70685 0.73532 0.42901 0.0
H1488 H 0.60974 0.78635 0.52392 0.0
H1489 H 0.62433 0.81995 0.50981 0.0
H1490 H 0.60876 0.73839 0.52447 0.0
H1491 H 0.62165 0.70375 0.51083 0.0
C1492 C 0.83961 0.73867 0.03951 0.0
C1493 C 0.85902 0.72254 0.02258 0.0
C1494 C 0.87393 0.77288 0.00378 0.0
C1495 C 0.85817 0.78903 0.02295 0.0
N1496 N 0.81766 0.78847 0.05323 0.0
N1497 N 0.8865 0.72287 0.98429 0.0
C1498 C 0.83792 0.77212 0.03872 0.0
C1499 C 0.87307 0.73933 0.00301 0.0
N1500 N 0.82448 0.7219 0.05725 0.0
N1501 N 0.8914 0.78968 0.98744 0.0
H1502 H 0.88568 0.69843 0.98372 0.0
H1503 H 0.89603 0.73308 0.96865 0.0
H1504 H 0.89101 0.81412 0.98714 0.0
H1505 H 0.90642 0.77974 0.97457 0.0
H1506 H 0.81257 0.73195 0.07194 0.0
H1507 H 0.8246 0.69743 0.05737 0.0
H1508 H 0.80093 0.77814 0.06452 0.0
H1509 H 0.81592 0.8128 0.05194 0.0
C1510 C 0.63624 0.27679 0.49603 0.0
C1511 C 0.65162 0.29341 0.51502 0.0
C1512 C 0.67302 0.24377 0.53077 0.0
C1513 C 0.65163 0.22721 0.51571 0.0
N1514 N 0.61732 0.22636 0.48092 0.0
N1515 N 0.68962 0.29432 0.54729 0.0
C1516 C 0.63535 0.24328 0.49682 0.0
C1517 C 0.67242 0.27729 0.53091 0.0
N1518 N 0.6212 0.29344 0.47819 0.0
N1519 N 0.69258 0.22711 0.54568 0.0
H1520 H 0.68966 0.3188 0.54694 0.0
H1521 H 0.70355 0.28466 0.561 0.0
H1522 H 0.69284 0.20263 0.54549 0.0
H1523 H 0.7096 0.23706 0.5569 0.0
H1524 H 0.60995 0.28346 0.46317 0.0
H1525 H 0.62197 0.3179 0.4778 0.0
H1526 H 0.60247 0.23613 0.46786 0.0
H1527 H 0.61733 0.20188 0.48107 0.0
C1528 C 0.99098 0.4254 0.78252 0.0
C1529 C 0.9733 0.40444 0.76794 0.0
C1530 C 0.02184 0.38746 0.74746 0.0
C1531 C 0.03943 0.40217 0.76624 0.0
N1532 N 0.04229 0.43974 0.79878 0.0
N1533 N 0.97037 0.371 0.73269 0.0
C1534 C 0.02442 0.42343 0.7824 0.0
C1535 C 0.98832 0.38788 0.74866 0.0
N1536 N 0.97536 0.44634 0.79693 0.0
N1537 N 0.03756 0.37178 0.72943 0.0
H1538 H 0.94594 0.37229 0.73296 0.0
H1539 H 0.97924 0.35615 0.71927 0.0
H1540 H 0.06204 0.37164 0.72874 0.0
H1541 H 0.02689 0.36071 0.71464 0.0
H1542 H 0.98621 0.46331 0.80766 0.0
H1543 H 0.95096 0.44809 0.79628 0.0
H1544 H 0.03323 0.45351 0.81284 0.0
H1545 H 0.06676 0.43893 0.79822 0.0
C1546 C 0.48674 0.62436 0.2521 0.0
C1547 C 0.47146 0.60516 0.26969 0.0
C1548 C 0.52254 0.58508 0.2835 0.0
C1549 C 0.53776 0.60779 0.26872 0.0
N1550 N 0.53605 0.64168 0.23378 0.0
N1551 N 0.47347 0.55999 0.29555 0.0
C1552 C 0.52026 0.62456 0.25094 0.0
C1553 C 0.48911 0.58275 0.28296 0.0
N1554 N 0.46914 0.64406 0.23796 0.0
N1555 N 0.5401 0.56745 0.29925 0.0
H1556 H 0.44909 0.55812 0.29456 0.0
H1557 H 0.48437 0.54177 0.30492 0.0
H1558 H 0.56457 0.56833 0.29915 0.0
H1559 H 0.53071 0.55266 0.31253 0.0
H1560 H 0.47843 0.66124 0.22654 0.0
H1561 H 0.44469 0.64333 0.23807 0.0
H1562 H 0.52534 0.65353 0.21936 0.0
H1563 H 0.56053 0.64189 0.23309 0.0
C1564 C 0.49028 0.41937 0.713 0.0
C1565 C 0.47385 0.39856 0.72867 0.0
C1566 C 0.52369 0.38142 0.74691 0.0
C1567 C 0.54005 0.39791 0.72831 0.0
N1568 N 0.54079 0.43945 0.69887 0.0
N1569 N 0.47327 0.36725 0.76508 0.0
C1570 C 0.5238 0.41971 0.71341 0.0
C1571 C 0.49019 0.38254 0.74751 0.0
N1572 N 0.47361 0.4369 0.6966 0.0
N1573 N 0.54038 0.36301 0.7627 0.0
H1574 H 0.4488 0.36815 0.76537 0.0
H1575 H 0.48306 0.35558 0.77997 0.0
H1576 H 0.56487 0.36293 0.76268 0.0
H1577 H 0.53042 0.34802 0.77556 0.0
H1578 H 0.48359 0.45073 0.68297 0.0
H1579 H 0.44913 0.43727 0.69675 0.0
H1580 H 0.53109 0.45686 0.68789 0.0
H1581 H 0.56528 0.43949 0.69921 0.0
C1582 C 0.98912 0.62619 0.24456 0.0
C1583 C 0.9721 0.60853 0.22706 0.0
C1584 C 0.02142 0.58487 0.21278 0.0
C1585 C 0.03833 0.60815 0.22567 0.0
N1586 N 0.03979 0.64716 0.25729 0.0
N1587 N 0.97075 0.56722 0.19733 0.0
C1588 C 0.02261 0.62697 0.24326 0.0
C1589 C 0.98792 0.58592 0.21257 0.0
N1590 N 0.97286 0.6433 0.26146 0.0
N1591 N 0.03776 0.56258 0.20023 0.0
H1592 H 0.94627 0.56728 0.19768 0.0
H1593 H 0.98043 0.55227 0.18429 0.0
H1594 H 0.06221 0.56165 0.20102 0.0
H1595 H 0.02746 0.54389 0.19101 0.0
H1596 H 0.98322 0.65602 0.27557 0.0
H1597 H 0.94839 0.64275 0.26219 0.0
H1598 H 0.03018 0.66393 0.26891 0.0
H1599 H 0.06426 0.64709 0.25697 0.0
loop_
_geom_bond_atom_site_label_1
_geom_bond_atom_site_label_2
_geom_bond_distance
_geom_bond_site_symmetry_2
_ccdc_geom_bond_type
Co0 O1 2.216 . S
Co0 O2 2.091 1_554 S
Co0 O4 2.004 . S
Co0 O10 2.021 . S
Co0 O12 2.137 . S
Co0 O13 2.244 . S
O1 Co0 2.216 . S
O1 C8 1.247 . S
O2 Co0 2.091 1_556 S
O2 C8 1.261 1_556 S
C3 O12 1.247 . S
C3 O13 1.272 . S
O4 Co0 2.004 . S
O4 C9 1.259 . S
Co5 O6 2.061 . S
Co5 O11 2.052 . S
Co5 O13 2.135 . S
O6 Co5 2.061 . S
O6 C9 1.235 . S
C7 O10 1.238 . S
C7 O11 1.241 . S
C8 O1 1.247 . S
C8 O2 1.261 1_554 S
C9 O4 1.259 . S
C9 O6 1.235 . S
O10 Co0 2.021 . S
O10 C7 1.238 . S
O11 Co5 2.052 . S
O11 C7 1.241 . S
O12 Co0 2.137 . S
O12 C3 1.247 . S
O13 Co0 2.244 . S
O13 C3 1.272 . S
O13 Co5 2.135 . S
Co14 O15 2.216 . S
Co14 O16 2.091 . S
Co14 O18 2.004 . S
Co14 O24 2.021 . S
Co14 O26 2.137 . S
Co14 O27 2.244 . S
O15 Co14 2.216 . S
O15 C22 1.247 . S
O16 Co14 2.091 . S
O16 C22 1.261 . S
C17 O26 1.247 . S
C17 O27 1.272 . S
O18 Co14 2.004 . S
O18 C23 1.259 . S
Co19 O20 2.061 . S
Co19 O25 2.052 . S
Co19 O27 2.135 . S
O20 Co19 2.061 . S
O20 C23 1.235 . S
C21 O24 1.238 . S
C21 O25 1.241 . S
C22 O15 1.247 . S
C22 O16 1.261 . S
C23 O18 1.259 . S
C23 O20 1.235 . S
O24 Co14 2.021 . S
O24 C21 1.238 . S
O25 Co19 2.052 . S
O25 C21 1.241 . S
O26 Co14 2.137 . S
O26 C17 1.247 . S
O27 Co14 2.244 . S
O27 C17 1.272 . S
O27 Co19 2.135 . S
Co28 O29 2.216 . S
Co28 O30 2.091 . S
Co28 O32 2.004 . S
Co28 O38 2.021 . S
Co28 O40 2.137 . S
Co28 O41 2.244 . S
O29 Co28 2.216 . S
O29 C36 1.247 . S
O30 Co28 2.091 . S
O30 C36 1.261 . S
C31 O40 1.247 . S
C31 O41 1.272 . S
O32 Co28 2.004 . S
O32 C37 1.259 . S
Co33 O34 2.061 . S
Co33 O39 2.052 . S
Co33 O41 2.135 . S
O34 Co33 2.061 . S
O34 C37 1.235 . S
C35 O38 1.238 . S
C35 O39 1.241 . S
C36 O29 1.247 . S
C36 O30 1.261 . S
C37 O32 1.259 . S
C37 O34 1.235 . S
O38 Co28 2.021 . S
O38 C35 1.238 . S
O39 Co33 2.052 . S
O39 C35 1.241 . S
O40 Co28 2.137 . S
O40 C31 1.247 . S
O41 Co28 2.244 . S
O41 C31 1.272 . S
O41 Co33 2.135 . S
Co42 O43 2.216 . S
Co42 O44 2.091 . S
Co42 O46 2.004 . S
Co42 O52 2.021 . S
Co42 O54 2.137 . S
Co42 O55 2.244 . S
O43 Co42 2.216 . S
O43 C50 1.247 . S
O44 Co42 2.091 . S
O44 C50 1.261 . S
C45 O54 1.247 . S
C45 O55 1.272 . S
O46 Co42 2.004 . S
O46 C51 1.259 . S
Co47 O48 2.061 . S
Co47 O53 2.052 . S
Co47 O55 2.135 . S
O48 Co47 2.061 . S
O48 C51 1.235 . S
C49 O52 1.238 . S
C49 O53 1.241 . S
C50 O43 1.247 . S
C50 O44 1.261 . S
C51 O46 1.259 . S
C51 O48 1.235 . S
O52 Co42 2.021 . S
O52 C49 1.238 . S
O53 Co47 2.052 . S
O53 C49 1.241 . S
O54 Co42 2.137 . S
O54 C45 1.247 . S
O55 Co42 2.244 . S
O55 C45 1.272 . S
O55 Co47 2.135 . S
Co56 O57 2.216 . S
Co56 O58 2.091 1_556 S
Co56 O60 2.004 . S
Co56 O66 2.021 . S
Co56 O68 2.137 . S
Co56 O69 2.244 . S
O57 Co56 2.216 . S
O57 C64 1.247 . S
O58 Co56 2.091 1_554 S
O58 C64 1.261 1_554 S
C59 O68 1.247 . S
C59 O69 1.272 . S
O60 Co56 2.004 . S
O60 C65 1.259 . S
Co61 O62 2.061 . S
Co61 O67 2.052 . S
Co61 O69 2.135 . S
O62 Co61 2.061 . S
O62 C65 1.235 . S
C63 O66 1.238 . S
C63 O67 1.241 . S
C64 O57 1.247 . S
C64 O58 1.261 1_556 S
C65 O60 1.259 . S
C65 O62 1.235 . S
O66 Co56 2.021 . S
O66 C63 1.238 . S
O67 Co61 2.052 . S
O67 C63 1.241 . S
O68 Co56 2.137 . S
O68 C59 1.247 . S
O69 Co56 2.244 . S
O69 C59 1.272 . S
O69 Co61 2.135 . S
Co70 O71 2.216 . S
Co70 O72 2.091 . S
Co70 O74 2.004 . S
Co70 O80 2.021 . S
Co70 O82 2.137 . S
Co70 O83 2.244 . S
O71 Co70 2.216 . S
O71 C78 1.247 . S
O72 Co70 2.091 . S
O72 C78 1.261 . S
C73 O82 1.247 . S
C73 O83 1.272 . S
O74 Co70 2.004 . S
O74 C79 1.259 . S
Co75 O76 2.061 . S
Co75 O81 2.052 . S
Co75 O83 2.135 . S
O76 Co75 2.061 . S
O76 C79 1.235 . S
C77 O80 1.238 . S
C77 O81 1.241 . S
C78 O71 1.247 . S
C78 O72 1.261 . S
C79 O74 1.259 . S
C79 O76 1.235 . S
O80 Co70 2.021 . S
O80 C77 1.238 . S
O81 Co75 2.052 . S
O81 C77 1.241 . S
O82 Co70 2.137 . S
O82 C73 1.247 . S
O83 Co70 2.244 . S
O83 C73 1.272 . S
O83 Co75 2.135 . S
Co84 O85 2.216 . S
Co84 O86 2.091 . S
Co84 O88 2.004 . S
Co84 O94 2.021 . S
Co84 O96 2.137 . S
Co84 O97 2.244 . S
O85 Co84 2.216 . S
O85 C92 1.247 . S
O86 Co84 2.091 . S
O86 C92 1.261 . S
C87 O96 1.247 . S
C87 O97 1.272 . S
O88 Co84 2.004 . S
O88 C93 1.259 . S
Co89 O90 2.061 . S
Co89 O95 2.052 . S
Co89 O97 2.135 . S
O90 Co89 2.061 . S
O90 C93 1.235 . S
C91 O94 1.238 . S
C91 O95 1.241 . S
C92 O85 1.247 . S
C92 O86 1.261 . S
C93 O88 1.259 . S
C93 O90 1.235 . S
O94 Co84 2.021 . S
O94 C91 1.238 . S
O95 Co89 2.052 . S
O95 C91 1.241 . S
O96 Co84 2.137 . S
O96 C87 1.247 . S
O97 Co84 2.244 . S
O97 C87 1.272 . S
O97 Co89 2.135 . S
Co98 O99 2.216 . S
Co98 O100 2.091 . S
Co98 O102 2.004 . S
Co98 O108 2.021 . S
Co98 O110 2.137 . S
Co98 O111 2.244 . S
O99 Co98 2.216 . S
O99 C106 1.247 . S
O100 Co98 2.091 . S
O100 C106 1.261 . S
C101 O110 1.247 . S
C101 O111 1.272 . S
O102 Co98 2.004 . S
O102 C107 1.259 . S
Co103 O104 2.061 . S
Co103 O109 2.052 . S
Co103 O111 2.135 . S
O104 Co103 2.061 . S
O104 C107 1.235 . S
C105 O108 1.238 . S
C105 O109 1.241 . S
C106 O99 1.247 . S
C106 O100 1.261 . S
C107 O102 1.259 . S
C107 O104 1.235 . S
O108 Co98 2.021 . S
O108 C105 1.238 . S
O109 Co103 2.052 . S
O109 C105 1.241 . S
O110 Co98 2.137 . S
O110 C101 1.247 . S
O111 Co98 2.244 . S
O111 C101 1.272 . S
O111 Co103 2.135 . S
Co112 O113 2.216 . S
Co112 O114 2.091 1_556 S
Co112 O116 2.004 . S
Co112 O122 2.021 . S
Co112 O124 2.137 . S
Co112 O125 2.244 . S
O113 Co112 2.216 . S
O113 C120 1.247 . S
O114 Co112 2.091 1_554 S
O114 C120 1.261 1_554 S
C115 O124 1.247 . S
C115 O125 1.272 . S
O116 Co112 2.004 . S
O116 C121 1.259 . S
Co117 O118 2.061 . S
Co117 O123 2.052 . S
Co117 O125 2.135 . S
O118 Co117 2.061 . S
O118 C121 1.235 . S
C119 O122 1.238 . S
C119 O123 1.241 . S
C120 O113 1.247 . S
C120 O114 1.261 1_556 S
C121 O116 1.259 . S
C121 O118 1.235 . S
O122 Co112 2.021 . S
O122 C119 1.238 . S
O123 Co117 2.052 . S
O123 C119 1.241 . S
O124 Co112 2.137 . S
O124 C115 1.247 . S
O125 Co112 2.244 . S
O125 C115 1.272 . S
O125 Co117 2.135 . S
Co126 O127 2.216 . S
Co126 O128 2.091 . S
Co126 O130 2.004 . S
Co126 O136 2.021 . S
Co126 O138 2.137 . S
Co126 O139 2.244 . S
O127 Co126 2.216 . S
O127 C134 1.247 . S
O128 Co126 2.091 . S
O128 C134 1.261 . S
C129 O138 1.247 . S
C129 O139 1.272 . S
O130 Co126 2.004 . S
O130 C135 1.259 . S
Co131 O132 2.061 . S
Co131 O137 2.052 . S
Co131 O139 2.135 . S
O132 Co131 2.061 . S
O132 C135 1.235 . S
C133 O136 1.238 . S
C133 O137 1.241 . S
C134 O127 1.247 . S
C134 O128 1.261 . S
C135 O130 1.259 . S
C135 O132 1.235 . S
O136 Co126 2.021 . S
O136 C133 1.238 . S
O137 Co131 2.052 . S
O137 C133 1.241 . S
O138 Co126 2.137 . S
O138 C129 1.247 . S
O139 Co126 2.244 . S
O139 C129 1.272 . S
O139 Co131 2.135 . S
Co140 O141 2.216 . S
Co140 O142 2.091 . S
Co140 O144 2.004 . S
Co140 O150 2.021 . S
Co140 O152 2.137 . S
Co140 O153 2.244 . S
O141 Co140 2.216 . S
O141 C148 1.247 . S
O142 Co140 2.091 . S
O142 C148 1.261 . S
C143 O152 1.247 . S
C143 O153 1.272 . S
O144 Co140 2.004 . S
O144 C149 1.259 . S
Co145 O146 2.061 . S
Co145 O151 2.052 . S
Co145 O153 2.135 . S
O146 Co145 2.061 . S
O146 C149 1.235 . S
C147 O150 1.238 . S
C147 O151 1.241 . S
C148 O141 1.247 . S
C148 O142 1.261 . S
C149 O144 1.259 . S
C149 O146 1.235 . S
O150 Co140 2.021 . S
O150 C147 1.238 . S
O151 Co145 2.052 . S
O151 C147 1.241 . S
O152 Co140 2.137 . S
O152 C143 1.247 . S
O153 Co140 2.244 . S
O153 C143 1.272 . S
O153 Co145 2.135 . S
Co154 O155 2.216 . S
Co154 O156 2.091 . S
Co154 O158 2.004 . S
Co154 O164 2.021 . S
Co154 O166 2.137 . S
Co154 O167 2.244 . S
O155 Co154 2.216 . S
O155 C162 1.247 . S
O156 Co154 2.091 . S
O156 C162 1.261 . S
C157 O166 1.247 . S
C157 O167 1.272 . S
O158 Co154 2.004 . S
O158 C163 1.259 . S
Co159 O160 2.061 . S
Co159 O165 2.052 . S
Co159 O167 2.135 . S
O160 Co159 2.061 . S
O160 C163 1.235 . S
C161 O164 1.238 . S
C161 O165 1.241 . S
C162 O155 1.247 . S
C162 O156 1.261 . S
C163 O158 1.259 . S
C163 O160 1.235 . S
O164 Co154 2.021 . S
O164 C161 1.238 . S
O165 Co159 2.052 . S
O165 C161 1.241 . S
O166 Co154 2.137 . S
O166 C157 1.247 . S
O167 Co154 2.244 . S
O167 C157 1.272 . S
O167 Co159 2.135 . S
Co168 O169 2.216 . S
Co168 O170 2.091 1_554 S
Co168 O172 2.004 . S
Co168 O178 2.021 . S
Co168 O180 2.137 . S
Co168 O181 2.244 . S
O169 Co168 2.216 . S
O169 C176 1.247 . S
O170 Co168 2.091 1_556 S
O170 C176 1.261 1_556 S
C171 O180 1.247 . S
C171 O181 1.272 . S
O172 Co168 2.004 . S
O172 C177 1.259 . S
Co173 O174 2.061 . S
Co173 O179 2.052 . S
Co173 O181 2.135 . S
O174 Co173 2.061 . S
O174 C177 1.235 . S
C175 O178 1.238 . S
C175 O179 1.241 . S
C176 O169 1.247 . S
C176 O170 1.261 1_554 S
C177 O172 1.259 . S
C177 O174 1.235 . S
O178 Co168 2.021 . S
O178 C175 1.238 . S
O179 Co173 2.052 . S
O179 C175 1.241 . S
O180 Co168 2.137 . S
O180 C171 1.247 . S
O181 Co168 2.244 . S
O181 C171 1.272 . S
O181 Co173 2.135 . S
Co182 O183 2.216 . S
Co182 O184 2.091 . S
Co182 O186 2.004 . S
Co182 O192 2.021 . S
Co182 O194 2.137 . S
Co182 O195 2.244 . S
O183 Co182 2.216 . S
O183 C190 1.247 . S
O184 Co182 2.091 . S
O184 C190 1.261 . S
C185 O194 1.247 . S
C185 O195 1.272 . S
O186 Co182 2.004 . S
O186 C191 1.259 . S
Co187 O188 2.061 . S
Co187 O193 2.052 . S
Co187 O195 2.135 . S
O188 Co187 2.061 . S
O188 C191 1.235 . S
C189 O192 1.238 . S
C189 O193 1.241 . S
C190 O183 1.247 . S
C190 O184 1.261 . S
C191 O186 1.259 . S
C191 O188 1.235 . S
O192 Co182 2.021 . S
O192 C189 1.238 . S
O193 Co187 2.052 . S
O193 C189 1.241 . S
O194 Co182 2.137 . S
O194 C185 1.247 . S
O195 Co182 2.244 . S
O195 C185 1.272 . S
O195 Co187 2.135 . S
Co196 O197 2.216 . S
Co196 O198 2.091 . S
Co196 O200 2.004 . S
Co196 O206 2.021 . S
Co196 O208 2.137 . S
Co196 O209 2.244 . S
O197 Co196 2.216 . S
O197 C204 1.247 . S
O198 Co196 2.091 . S
O198 C204 1.261 . S
C199 O208 1.247 . S
C199 O209 1.272 . S
O200 Co196 2.004 . S
O200 C205 1.259 . S
Co201 O202 2.061 . S
Co201 O207 2.052 . S
Co201 O209 2.135 . S
O202 Co201 2.061 . S
O202 C205 1.235 . S
C203 O206 1.238 . S
C203 O207 1.241 . S
C204 O197 1.247 . S
C204 O198 1.261 . S
C205 O200 1.259 . S
C205 O202 1.235 . S
O206 Co196 2.021 . S
O206 C203 1.238 . S
O207 Co201 2.052 . S
O207 C203 1.241 . S
O208 Co196 2.137 . S
O208 C199 1.247 . S
O209 Co196 2.244 . S
O209 C199 1.272 . S
O209 Co201 2.135 . S
Co210 O211 2.216 . S
Co210 O212 2.091 . S
Co210 O214 2.004 . S
Co210 O220 2.021 . S
Co210 O222 2.137 . S
Co210 O223 2.244 . S
O211 Co210 2.216 . S
O211 C218 1.247 . S
O212 Co210 2.091 . S
O212 C218 1.261 . S
C213 O222 1.247 . S
C213 O223 1.272 . S
O214 Co210 2.004 . S
O214 C219 1.259 . S
Co215 O216 2.061 . S
Co215 O221 2.052 . S
Co215 O223 2.135 . S
O216 Co215 2.061 . S
O216 C219 1.235 . S
C217 O220 1.238 . S
C217 O221 1.241 . S
C218 O211 1.247 . S
C218 O212 1.261 . S
C219 O214 1.259 . S
C219 O216 1.235 . S
O220 Co210 2.021 . S
O220 C217 1.238 . S
O221 Co215 2.052 . S
O221 C217 1.241 . S
O222 Co210 2.137 . S
O222 C213 1.247 . S
O223 Co210 2.244 . S
O223 C213 1.272 . S
O223 Co215 2.135 . S
Co224 O225 2.216 . S
Co224 O226 2.091 . S
Co224 O228 2.004 . S
Co224 O234 2.021 . S
Co224 O236 2.137 . S
Co224 O237 2.244 . S
O225 Co224 2.216 . S
O225 C232 1.247 . S
O226 Co224 2.091 . S
O226 C232 1.261 . S
C227 O236 1.247 . S
C227 O237 1.272 . S
O228 Co224 2.004 . S
O228 C233 1.259 . S
Co229 O230 2.061 . S
Co229 O235 2.052 . S
Co229 O237 2.135 . S
O230 Co229 2.061 . S
O230 C233 1.235 . S
C231 O234 1.238 . S
C231 O235 1.241 . S
C232 O225 1.247 . S
C232 O226 1.261 . S
C233 O228 1.259 . S
C233 O230 1.235 . S
O234 Co224 2.021 . S
O234 C231 1.238 . S
O235 Co229 2.052 . S
O235 C231 1.241 . S
O236 Co224 2.137 . S
O236 C227 1.247 . S
O237 Co224 2.244 . S
O237 C227 1.272 . S
O237 Co229 2.135 . S
Co238 O239 2.216 . S
Co238 O240 2.091 . S
Co238 O242 2.004 . S
Co238 O248 2.021 . S
Co238 O250 2.137 . S
Co238 O251 2.244 . S
O239 Co238 2.216 . S
O239 C246 1.247 . S
O240 Co238 2.091 . S
O240 C246 1.261 . S
C241 O250 1.247 . S
C241 O251 1.272 . S
O242 Co238 2.004 . S
O242 C247 1.259 . S
Co243 O244 2.061 . S
Co243 O249 2.052 . S
Co243 O251 2.135 . S
O244 Co243 2.061 . S
O244 C247 1.235 . S
C245 O248 1.238 . S
C245 O249 1.241 . S
C246 O239 1.247 . S
C246 O240 1.261 . S
C247 O242 1.259 . S
C247 O244 1.235 . S
O248 Co238 2.021 . S
O248 C245 1.238 . S
O249 Co243 2.052 . S
O249 C245 1.241 . S
O250 Co238 2.137 . S
O250 C241 1.247 . S
O251 Co238 2.244 . S
O251 C241 1.272 . S
O251 Co243 2.135 . S
Co252 O253 2.216 . S
Co252 O254 2.091 1_554 S
Co252 O256 2.004 . S
Co252 O262 2.021 . S
Co252 O264 2.137 . S
Co252 O265 2.244 . S
O253 Co252 2.216 . S
O253 C260 1.247 . S
O254 Co252 2.091 1_556 S
O254 C260 1.261 1_556 S
C255 O264 1.247 . S
C255 O265 1.272 . S
O256 Co252 2.004 . S
O256 C261 1.259 . S
Co257 O258 2.061 . S
Co257 O263 2.052 . S
Co257 O265 2.135 . S
O258 Co257 2.061 . S
O258 C261 1.235 . S
C259 O262 1.238 . S
C259 O263 1.241 . S
C260 O253 1.247 . S
C260 O254 1.261 1_554 S
C261 O256 1.259 . S
C261 O258 1.235 . S
O262 Co252 2.021 . S
O262 C259 1.238 . S
O263 Co257 2.052 . S
O263 C259 1.241 . S
O264 Co252 2.137 . S
O264 C255 1.247 . S
O265 Co252 2.244 . S
O265 C255 1.272 . S
O265 Co257 2.135 . S
Co266 O267 2.216 . S
Co266 O268 2.091 . S
Co266 O270 2.004 . S
Co266 O276 2.021 . S
Co266 O278 2.137 . S
Co266 O279 2.244 . S
O267 Co266 2.216 . S
O267 C274 1.247 . S
O268 Co266 2.091 . S
O268 C274 1.261 . S
C269 O278 1.247 . S
C269 O279 1.272 . S
O270 Co266 2.004 . S
O270 C275 1.259 . S
Co271 O272 2.061 . S
Co271 O277 2.052 . S
Co271 O279 2.135 . S
O272 Co271 2.061 . S
O272 C275 1.235 . S
C273 O276 1.238 . S
C273 O277 1.241 . S
C274 O267 1.247 . S
C274 O268 1.261 . S
C275 O270 1.259 . S
C275 O272 1.235 . S
O276 Co266 2.021 . S
O276 C273 1.238 . S
O277 Co271 2.052 . S
O277 C273 1.241 . S
O278 Co266 2.137 . S
O278 C269 1.247 . S
O279 Co266 2.244 . S
O279 C269 1.272 . S
O279 Co271 2.135 . S
Co280 O281 2.216 . S
Co280 O282 2.091 . S
Co280 O284 2.004 . S
Co280 O290 2.021 . S
Co280 O292 2.137 . S
Co280 O293 2.244 . S
O281 Co280 2.216 . S
O281 C288 1.247 . S
O282 Co280 2.091 . S
O282 C288 1.261 . S
C283 O292 1.247 . S
C283 O293 1.272 . S
O284 Co280 2.004 . S
O284 C289 1.259 . S
Co285 O286 2.061 . S
Co285 O291 2.052 . S
Co285 O293 2.135 . S
O286 Co285 2.061 . S
O286 C289 1.235 . S
C287 O290 1.238 . S
C287 O291 1.241 . S
C288 O281 1.247 . S
C288 O282 1.261 . S
C289 O284 1.259 . S
C289 O286 1.235 . S
O290 Co280 2.021 . S
O290 C287 1.238 . S
O291 Co285 2.052 . S
O291 C287 1.241 . S
O292 Co280 2.137 . S
O292 C283 1.247 . S
O293 Co280 2.244 . S
O293 C283 1.272 . S
O293 Co285 2.135 . S
Co294 O295 2.216 . S
Co294 O296 2.091 . S
Co294 O298 2.004 . S
Co294 O304 2.021 . S
Co294 O306 2.137 . S
Co294 O307 2.244 . S
O295 Co294 2.216 . S
O295 C302 1.247 . S
O296 Co294 2.091 . S
O296 C302 1.261 . S
C297 O306 1.247 . S
C297 O307 1.272 . S
O298 Co294 2.004 . S
O298 C303 1.259 . S
Co299 O300 2.061 . S
Co299 O305 2.052 . S
Co299 O307 2.135 . S
O300 Co299 2.061 . S
O300 C303 1.235 . S
C301 O304 1.238 . S
C301 O305 1.241 . S
C302 O295 1.247 . S
C302 O296 1.261 . S
C303 O298 1.259 . S
C303 O300 1.235 . S
O304 Co294 2.021 . S
O304 C301 1.238 . S
O305 Co299 2.052 . S
O305 C301 1.241 . S
O306 Co294 2.137 . S
O306 C297 1.247 . S
O307 Co294 2.244 . S
O307 C297 1.272 . S
O307 Co299 2.135 . S
Co308 O309 2.216 . S
Co308 O310 2.091 1_556 S
Co308 O312 2.004 . S
Co308 O318 2.021 . S
Co308 O320 2.137 . S
Co308 O321 2.244 . S
O309 Co308 2.216 . S
O309 C316 1.247 . S
O310 Co308 2.091 1_554 S
O310 C316 1.261 1_554 S
C311 O320 1.247 . S
C311 O321 1.272 . S
O312 Co308 2.004 . S
O312 C317 1.259 . S
Co313 O314 2.061 . S
Co313 O319 2.052 . S
Co313 O321 2.135 . S
O314 Co313 2.061 . S
O314 C317 1.235 . S
C315 O318 1.238 . S
C315 O319 1.241 . S
C316 O309 1.247 . S
C316 O310 1.261 1_556 S
C317 O312 1.259 . S
C317 O314 1.235 . S
O318 Co308 2.021 . S
O318 C315 1.238 . S
O319 Co313 2.052 . S
O319 C315 1.241 . S
O320 Co308 2.137 . S
O320 C311 1.247 . S
O321 Co308 2.244 . S
O321 C311 1.272 . S
O321 Co313 2.135 . S
Co322 O323 2.216 . S
Co322 O324 2.091 . S
Co322 O326 2.004 . S
Co322 O332 2.021 . S
Co322 O334 2.137 . S
Co322 O335 2.244 . S
O323 Co322 2.216 . S
O323 C330 1.247 . S
O324 Co322 2.091 . S
O324 C330 1.261 . S
C325 O334 1.247 . S
C325 O335 1.272 . S
O326 Co322 2.004 . S
O326 C331 1.259 . S
Co327 O328 2.061 . S
Co327 O333 2.052 . S
Co327 O335 2.135 . S
O328 Co327 2.061 . S
O328 C331 1.235 . S
C329 O332 1.238 . S
C329 O333 1.241 . S
C330 O323 1.247 . S
C330 O324 1.261 . S
C331 O326 1.259 . S
C331 O328 1.235 . S
O332 Co322 2.021 . S
O332 C329 1.238 . S
O333 Co327 2.052 . S
O333 C329 1.241 . S
O334 Co322 2.137 . S
O334 C325 1.247 . S
O335 Co322 2.244 . S
O335 C325 1.272 . S
O335 Co327 2.135 . S
Co336 O337 2.216 . S
Co336 O338 2.091 . S
Co336 O340 2.004 . S
Co336 O346 2.021 . S
Co336 O348 2.137 . S
Co336 O349 2.244 . S
O337 Co336 2.216 . S
O337 C344 1.247 . S
O338 Co336 2.091 . S
O338 C344 1.261 . S
C339 O348 1.247 . S
C339 O349 1.272 . S
O340 Co336 2.004 . S
O340 C345 1.259 . S
Co341 O342 2.061 . S
Co341 O347 2.052 . S
Co341 O349 2.135 . S
O342 Co341 2.061 . S
O342 C345 1.235 . S
C343 O346 1.238 . S
C343 O347 1.241 . S
C344 O337 1.247 . S
C344 O338 1.261 . S
C345 O340 1.259 . S
C345 O342 1.235 . S
O346 Co336 2.021 . S
O346 C343 1.238 . S
O347 Co341 2.052 . S
O347 C343 1.241 . S
O348 Co336 2.137 . S
O348 C339 1.247 . S
O349 Co336 2.244 . S
O349 C339 1.272 . S
O349 Co341 2.135 . S
Co350 O351 2.216 . S
Co350 O352 2.091 . S
Co350 O354 2.004 . S
Co350 O360 2.021 . S
Co350 O362 2.137 . S
Co350 O363 2.244 . S
O351 Co350 2.216 . S
O351 C358 1.247 . S
O352 Co350 2.091 . S
O352 C358 1.261 . S
C353 O362 1.247 . S
C353 O363 1.272 . S
O354 Co350 2.004 . S
O354 C359 1.259 . S
Co355 O356 2.061 . S
Co355 O361 2.052 . S
Co355 O363 2.135 . S
O356 Co355 2.061 . S
O356 C359 1.235 . S
C357 O360 1.238 . S
C357 O361 1.241 . S
C358 O351 1.247 . S
C358 O352 1.261 . S
C359 O354 1.259 . S
C359 O356 1.235 . S
O360 Co350 2.021 . S
O360 C357 1.238 . S
O361 Co355 2.052 . S
O361 C357 1.241 . S
O362 Co350 2.137 . S
O362 C353 1.247 . S
O363 Co350 2.244 . S
O363 C353 1.272 . S
O363 Co355 2.135 . S
Co364 O365 2.216 . S
Co364 O366 2.091 1_556 S
Co364 O368 2.004 . S
Co364 O374 2.021 . S
Co364 O376 2.137 . S
Co364 O377 2.244 . S
O365 Co364 2.216 . S
O365 C372 1.247 . S
O366 Co364 2.091 1_554 S
O366 C372 1.261 1_554 S
C367 O376 1.247 . S
C367 O377 1.272 . S
O368 Co364 2.004 . S
O368 C373 1.259 . S
Co369 O370 2.061 . S
Co369 O375 2.052 . S
Co369 O377 2.135 . S
O370 Co369 2.061 . S
O370 C373 1.235 . S
C371 O374 1.238 . S
C371 O375 1.241 . S
C372 O365 1.247 . S
C372 O366 1.261 1_556 S
C373 O368 1.259 . S
C373 O370 1.235 . S
O374 Co364 2.021 . S
O374 C371 1.238 . S
O375 Co369 2.052 . S
O375 C371 1.241 . S
O376 Co364 2.137 . S
O376 C367 1.247 . S
O377 Co364 2.244 . S
O377 C367 1.272 . S
O377 Co369 2.135 . S
Co378 O379 2.216 . S
Co378 O380 2.091 . S
Co378 O382 2.004 . S
Co378 O388 2.021 . S
Co378 O390 2.137 . S
Co378 O391 2.244 . S
O379 Co378 2.216 . S
O379 C386 1.247 . S
O380 Co378 2.091 . S
O380 C386 1.261 . S
C381 O390 1.247 . S
C381 O391 1.272 . S
O382 Co378 2.004 . S
O382 C387 1.259 . S
Co383 O384 2.061 . S
Co383 O389 2.052 . S
Co383 O391 2.135 . S
O384 Co383 2.061 . S
O384 C387 1.235 . S
C385 O388 1.238 . S
C385 O389 1.241 . S
C386 O379 1.247 . S
C386 O380 1.261 . S
C387 O382 1.259 . S
C387 O384 1.235 . S
O388 Co378 2.021 . S
O388 C385 1.238 . S
O389 Co383 2.052 . S
O389 C385 1.241 . S
O390 Co378 2.137 . S
O390 C381 1.247 . S
O391 Co378 2.244 . S
O391 C381 1.272 . S
O391 Co383 2.135 . S
Co392 O393 2.216 . S
Co392 O394 2.091 . S
Co392 O396 2.004 . S
Co392 O402 2.021 . S
Co392 O404 2.137 . S
Co392 O405 2.244 . S
O393 Co392 2.216 . S
O393 C400 1.247 . S
O394 Co392 2.091 . S
O394 C400 1.261 . S
C395 O404 1.247 . S
C395 O405 1.272 . S
O396 Co392 2.004 . S
O396 C401 1.259 . S
Co397 O398 2.061 . S
Co397 O403 2.052 . S
Co397 O405 2.135 . S
O398 Co397 2.061 . S
O398 C401 1.235 . S
C399 O402 1.238 . S
C399 O403 1.241 . S
C400 O393 1.247 . S
C400 O394 1.261 . S
C401 O396 1.259 . S
C401 O398 1.235 . S
O402 Co392 2.021 . S
O402 C399 1.238 . S
O403 Co397 2.052 . S
O403 C399 1.241 . S
O404 Co392 2.137 . S
O404 C395 1.247 . S
O405 Co392 2.244 . S
O405 C395 1.272 . S
O405 Co397 2.135 . S
Co406 O407 2.216 . S
Co406 O408 2.091 . S
Co406 O410 2.004 . S
Co406 O416 2.021 . S
Co406 O418 2.137 . S
Co406 O419 2.244 . S
O407 Co406 2.216 . S
O407 C414 1.247 . S
O408 Co406 2.091 . S
O408 C414 1.261 . S
C409 O418 1.247 . S
C409 O419 1.272 . S
O410 Co406 2.004 . S
O410 C415 1.259 . S
Co411 O412 2.061 . S
Co411 O417 2.052 . S
Co411 O419 2.135 . S
O412 Co411 2.061 . S
O412 C415 1.235 . S
C413 O416 1.238 . S
C413 O417 1.241 . S
C414 O407 1.247 . S
C414 O408 1.261 . S
C415 O410 1.259 . S
C415 O412 1.235 . S
O416 Co406 2.021 . S
O416 C413 1.238 . S
O417 Co411 2.052 . S
O417 C413 1.241 . S
O418 Co406 2.137 . S
O418 C409 1.247 . S
O419 Co406 2.244 . S
O419 C409 1.272 . S
O419 Co411 2.135 . S
Co420 O421 2.216 . S
Co420 O422 2.091 1_554 S
Co420 O424 2.004 . S
Co420 O430 2.021 . S
Co420 O432 2.137 . S
Co420 O433 2.244 . S
O421 Co420 2.216 . S
O421 C428 1.247 . S
O422 Co420 2.091 1_556 S
O422 C428 1.261 1_556 S
C423 O432 1.247 . S
C423 O433 1.272 . S
O424 Co420 2.004 . S
O424 C429 1.259 . S
Co425 O426 2.061 . S
Co425 O431 2.052 . S
Co425 O433 2.135 . S
O426 Co425 2.061 . S
O426 C429 1.235 . S
C427 O430 1.238 . S
C427 O431 1.241 . S
C428 O421 1.247 . S
C428 O422 1.261 1_554 S
C429 O424 1.259 . S
C429 O426 1.235 . S
O430 Co420 2.021 . S
O430 C427 1.238 . S
O431 Co425 2.052 . S
O431 C427 1.241 . S
O432 Co420 2.137 . S
O432 C423 1.247 . S
O433 Co420 2.244 . S
O433 C423 1.272 . S
O433 Co425 2.135 . S
Co434 O435 2.216 . S
Co434 O436 2.091 . S
Co434 O438 2.004 . S
Co434 O444 2.021 . S
Co434 O446 2.137 . S
Co434 O447 2.244 . S
O435 Co434 2.216 . S
O435 C442 1.247 . S
O436 Co434 2.091 . S
O436 C442 1.261 . S
C437 O446 1.247 . S
C437 O447 1.272 . S
O438 Co434 2.004 . S
O438 C443 1.259 . S
Co439 O440 2.061 . S
Co439 O445 2.052 . S
Co439 O447 2.135 . S
O440 Co439 2.061 . S
O440 C443 1.235 . S
C441 O444 1.238 . S
C441 O445 1.241 . S
C442 O435 1.247 . S
C442 O436 1.261 . S
C443 O438 1.259 . S
C443 O440 1.235 . S
O444 Co434 2.021 . S
O444 C441 1.238 . S
O445 Co439 2.052 . S
O445 C441 1.241 . S
O446 Co434 2.137 . S
O446 C437 1.247 . S
O447 Co434 2.244 . S
O447 C437 1.272 . S
O447 Co439 2.135 . S
C448 C449 1.363 . S
C448 C454 1.379 . S
C448 N456 1.356 . S
C449 C448 1.363 . S
C449 C455 1.363 . S
C450 C451 1.363 . S
C450 C455 1.379 . S
C450 N457 1.356 . S
C451 C450 1.363 . S
C451 C454 1.363 . S
N452 C454 1.356 . S
N452 H464 0.984 . S
N452 H465 0.985 . S
N453 C455 1.356 . S
N453 H458 0.984 . S
N453 H459 0.985 . S
C454 C448 1.379 . S
C454 C451 1.363 . S
C454 N452 1.356 . S
C455 C449 1.363 . S
C455 C450 1.379 . S
C455 N453 1.356 . S
N456 C448 1.356 . S
N456 H462 0.984 . S
N456 H463 0.984 . S
N457 C450 1.356 . S
N457 H460 0.984 . S
N457 H461 0.985 . S
H458 N453 0.984 . S
H459 N453 0.985 . S
H460 N457 0.984 . S
H461 N457 0.985 . S
H462 N456 0.984 . S
H463 N456 0.984 . S
H464 N452 0.984 . S
H465 N452 0.985 . S
C466 C467 1.363 . S
C466 C472 1.379 . S
C466 N474 1.356 . S
C467 C466 1.363 . S
C467 C473 1.363 . S
C468 C469 1.363 . S
C468 C473 1.379 . S
C468 N475 1.356 . S
C469 C468 1.363 . S
C469 C472 1.363 . S
N470 C472 1.356 . S
N470 H482 0.984 . S
N470 H483 0.985 . S
N471 C473 1.356 . S
N471 H476 0.984 . S
N471 H477 0.985 . S
C472 C466 1.379 . S
C472 C469 1.363 . S
C472 N470 1.356 . S
C473 C467 1.363 . S
C473 C468 1.379 . S
C473 N471 1.356 . S
N474 C466 1.356 . S
N474 H480 0.984 . S
N474 H481 0.984 . S
N475 C468 1.356 . S
N475 H478 0.984 . S
N475 H479 0.985 . S
H476 N471 0.984 . S
H477 N471 0.985 . S
H478 N475 0.984 . S
H479 N475 0.985 . S
H480 N474 0.984 . S
H481 N474 0.984 . S
H482 N470 0.984 . S
H483 N470 0.985 . S
C484 C485 1.363 . S
C484 C490 1.379 . S
C484 N492 1.356 . S
C485 C484 1.363 . S
C485 C491 1.363 . S
C486 C487 1.363 . S
C486 C491 1.379 . S
C486 N493 1.356 . S
C487 C486 1.363 . S
C487 C490 1.363 . S
N488 C490 1.356 . S
N488 H500 0.984 . S
N488 H501 0.985 . S
N489 C491 1.356 . S
N489 H494 0.984 . S
N489 H495 0.985 . S
C490 C484 1.379 . S
C490 C487 1.363 . S
C490 N488 1.356 . S
C491 C485 1.363 . S
C491 C486 1.379 . S
C491 N489 1.356 . S
N492 C484 1.356 . S
N492 H498 0.984 . S
N492 H499 0.984 . S
N493 C486 1.356 . S
N493 H496 0.984 . S
N493 H497 0.985 . S
H494 N489 0.984 . S
H495 N489 0.985 . S
H496 N493 0.984 . S
H497 N493 0.985 . S
H498 N492 0.984 . S
H499 N492 0.984 . S
H500 N488 0.984 . S
H501 N488 0.985 . S
C502 C503 1.363 . S
C502 C508 1.379 . S
C502 N510 1.356 . S
C503 C502 1.363 . S
C503 C509 1.363 . S
C504 C505 1.363 . S
C504 C509 1.379 . S
C504 N511 1.356 . S
C505 C504 1.363 . S
C505 C508 1.363 . S
N506 C508 1.356 . S
N506 H518 0.984 . S
N506 H519 0.985 . S
N507 C509 1.356 . S
N507 H512 0.984 . S
N507 H513 0.985 . S
C508 C502 1.379 . S
C508 C505 1.363 . S
C508 N506 1.356 . S
C509 C503 1.363 . S
C509 C504 1.379 . S
C509 N507 1.356 . S
N510 C502 1.356 . S
N510 H516 0.984 . S
N510 H517 0.984 . S
N511 C504 1.356 . S
N511 H514 0.984 . S
N511 H515 0.985 . S
H512 N507 0.984 . S
H513 N507 0.985 . S
H514 N511 0.984 . S
H515 N511 0.985 . S
H516 N510 0.984 . S
H517 N510 0.984 . S
H518 N506 0.984 . S
H519 N506 0.985 . S
C520 C521 1.363 . S
C520 C526 1.379 . S
C520 N528 1.356 . S
C521 C520 1.363 . S
C521 C527 1.363 . S
C522 C523 1.363 . S
C522 C527 1.379 . S
C522 N529 1.356 . S
C523 C522 1.363 . S
C523 C526 1.363 . S
N524 C526 1.356 . S
N524 H536 0.984 . S
N524 H537 0.985 . S
N525 C527 1.356 . S
N525 H530 0.984 . S
N525 H531 0.985 . S
C526 C520 1.379 . S
C526 C523 1.363 . S
C526 N524 1.356 . S
C527 C521 1.363 . S
C527 C522 1.379 . S
C527 N525 1.356 . S
N528 C520 1.356 . S
N528 H534 0.984 . S
N528 H535 0.984 . S
N529 C522 1.356 . S
N529 H532 0.984 . S
N529 H533 0.985 . S
H530 N525 0.984 . S
H531 N525 0.985 . S
H532 N529 0.984 . S
H533 N529 0.985 . S
H534 N528 0.984 . S
H535 N528 0.984 . S
H536 N524 0.984 . S
H537 N524 0.985 . S
C538 C539 1.363 . S
C538 C544 1.379 . S
C538 N546 1.356 . S
C539 C538 1.363 . S
C539 C545 1.363 . S
C540 C541 1.363 . S
C540 C545 1.379 . S
C540 N547 1.356 . S
C541 C540 1.363 . S
C541 C544 1.363 . S
N542 C544 1.356 . S
N542 H554 0.984 . S
N542 H555 0.985 . S
N543 C545 1.356 . S
N543 H548 0.984 . S
N543 H549 0.985 . S
C544 C538 1.379 . S
C544 C541 1.363 . S
C544 N542 1.356 . S
C545 C539 1.363 . S
C545 C540 1.379 . S
C545 N543 1.356 . S
N546 C538 1.356 . S
N546 H552 0.984 . S
N546 H553 0.984 . S
N547 C540 1.356 . S
N547 H550 0.984 . S
N547 H551 0.985 . S
H548 N543 0.984 . S
H549 N543 0.985 . S
H550 N547 0.984 . S
H551 N547 0.985 . S
H552 N546 0.984 . S
H553 N546 0.984 . S
H554 N542 0.984 . S
H555 N542 0.985 . S
C556 C557 1.363 . S
C556 C562 1.379 . S
C556 N564 1.356 . S
C557 C556 1.363 . S
C557 C563 1.363 . S
C558 C559 1.363 . S
C558 C563 1.379 . S
C558 N565 1.356 . S
C559 C558 1.363 . S
C559 C562 1.363 . S
N560 C562 1.356 . S
N560 H572 0.984 . S
N560 H573 0.985 . S
N561 C563 1.356 . S
N561 H566 0.984 . S
N561 H567 0.985 . S
C562 C556 1.379 . S
C562 C559 1.363 . S
C562 N560 1.356 . S
C563 C557 1.363 . S
C563 C558 1.379 . S
C563 N561 1.356 . S
N564 C556 1.356 . S
N564 H570 0.984 . S
N564 H571 0.984 . S
N565 C558 1.356 . S
N565 H568 0.984 . S
N565 H569 0.985 . S
H566 N561 0.984 . S
H567 N561 0.985 . S
H568 N565 0.984 . S
H569 N565 0.985 . S
H570 N564 0.984 . S
H571 N564 0.984 . S
H572 N560 0.984 . S
H573 N560 0.985 . S
C574 C575 1.363 . S
C574 C580 1.379 . S
C574 N582 1.356 . S
C575 C574 1.363 . S
C575 C581 1.363 . S
C576 C577 1.363 . S
C576 C581 1.379 . S
C576 N583 1.356 . S
C577 C576 1.363 . S
C577 C580 1.363 . S
N578 C580 1.356 . S
N578 H590 0.984 . S
N578 H591 0.985 . S
N579 C581 1.356 . S
N579 H584 0.984 . S
N579 H585 0.985 . S
C580 C574 1.379 . S
C580 C577 1.363 . S
C580 N578 1.356 . S
C581 C575 1.363 . S
C581 C576 1.379 . S
C581 N579 1.356 . S
N582 C574 1.356 . S
N582 H588 0.984 . S
N582 H589 0.984 . S
N583 C576 1.356 . S
N583 H586 0.984 . S
N583 H587 0.985 . S
H584 N579 0.984 . S
H585 N579 0.985 . S
H586 N583 0.984 . S
H587 N583 0.985 . S
H588 N582 0.984 . S
H589 N582 0.984 . S
H590 N578 0.984 . S
H591 N578 0.985 . S
C592 C593 1.363 . S
C592 C598 1.379 . S
C592 N600 1.356 . S
C593 C592 1.363 . S
C593 C599 1.363 . S
C594 C595 1.363 . S
C594 C599 1.379 . S
C594 N601 1.356 . S
C595 C594 1.363 . S
C595 C598 1.363 . S
N596 C598 1.356 . S
N596 H608 0.984 . S
N596 H609 0.985 . S
N597 C599 1.356 . S
N597 H602 0.984 . S
N597 H603 0.985 . S
C598 C592 1.379 . S
C598 C595 1.363 . S
C598 N596 1.356 . S
C599 C593 1.363 . S
C599 C594 1.379 . S
C599 N597 1.356 . S
N600 C592 1.356 . S
N600 H606 0.984 . S
N600 H607 0.984 . S
N601 C594 1.356 . S
N601 H604 0.984 . S
N601 H605 0.985 . S
H602 N597 0.984 . S
H603 N597 0.985 . S
H604 N601 0.984 . S
H605 N601 0.985 . S
H606 N600 0.984 . S
H607 N600 0.984 . S
H608 N596 0.984 . S
H609 N596 0.985 . S
C610 C611 1.363 . S
C610 C616 1.379 . S
C610 N618 1.356 . S
C611 C610 1.363 . S
C611 C617 1.363 . S
C612 C613 1.363 . S
C612 C617 1.379 . S
C612 N619 1.356 . S
C613 C612 1.363 . S
C613 C616 1.363 . S
N614 C616 1.356 . S
N614 H626 0.984 . S
N614 H627 0.985 . S
N615 C617 1.356 . S
N615 H620 0.984 . S
N615 H621 0.985 . S
C616 C610 1.379 . S
C616 C613 1.363 . S
C616 N614 1.356 . S
C617 C611 1.363 . S
C617 C612 1.379 . S
C617 N615 1.356 . S
N618 C610 1.356 . S
N618 H624 0.984 . S
N618 H625 0.984 . S
N619 C612 1.356 . S
N619 H622 0.984 . S
N619 H623 0.985 . S
H620 N615 0.984 . S
H621 N615 0.985 . S
H622 N619 0.984 . S
H623 N619 0.985 . S
H624 N618 0.984 . S
H625 N618 0.984 . S
H626 N614 0.984 . S
H627 N614 0.985 . S
C628 C629 1.363 . S
C628 C634 1.379 . S
C628 N636 1.356 . S
C629 C628 1.363 . S
C629 C635 1.363 . S
C630 C631 1.363 . S
C630 C635 1.379 . S
C630 N637 1.356 . S
C631 C630 1.363 . S
C631 C634 1.363 . S
N632 C634 1.356 . S
N632 H644 0.984 . S
N632 H645 0.985 . S
N633 C635 1.356 . S
N633 H638 0.984 . S
N633 H639 0.985 . S
C634 C628 1.379 . S
C634 C631 1.363 . S
C634 N632 1.356 . S
C635 C629 1.363 . S
C635 C630 1.379 . S
C635 N633 1.356 . S
N636 C628 1.356 . S
N636 H642 0.984 . S
N636 H643 0.984 . S
N637 C630 1.356 . S
N637 H640 0.984 . S
N637 H641 0.985 . S
H638 N633 0.984 . S
H639 N633 0.985 . S
H640 N637 0.984 . S
H641 N637 0.985 . S
H642 N636 0.984 . S
H643 N636 0.984 . S
H644 N632 0.984 . S
H645 N632 0.985 . S
C646 C647 1.363 . S
C646 C652 1.379 . S
C646 N654 1.356 . S
C647 C646 1.363 . S
C647 C653 1.363 . S
C648 C649 1.363 . S
C648 C653 1.379 . S
C648 N655 1.356 . S
C649 C648 1.363 . S
C649 C652 1.363 . S
N650 C652 1.356 . S
N650 H662 0.984 . S
N650 H663 0.985 . S
N651 C653 1.356 . S
N651 H656 0.984 . S
N651 H657 0.985 . S
C652 C646 1.379 . S
C652 C649 1.363 . S
C652 N650 1.356 . S
C653 C647 1.363 . S
C653 C648 1.379 . S
C653 N651 1.356 . S
N654 C646 1.356 . S
N654 H660 0.984 . S
N654 H661 0.984 . S
N655 C648 1.356 . S
N655 H658 0.984 . S
N655 H659 0.985 . S
H656 N651 0.984 . S
H657 N651 0.985 . S
H658 N655 0.984 . S
H659 N655 0.985 . S
H660 N654 0.984 . S
H661 N654 0.984 . S
H662 N650 0.984 . S
H663 N650 0.985 . S
C664 C665 1.363 . S
C664 C670 1.379 . S
C664 N672 1.356 . S
C665 C664 1.363 . S
C665 C671 1.363 . S
C666 C667 1.363 . S
C666 C671 1.379 . S
C666 N673 1.356 . S
C667 C666 1.363 . S
C667 C670 1.363 . S
N668 C670 1.356 . S
N668 H680 0.984 . S
N668 H681 0.985 . S
N669 C671 1.356 . S
N669 H674 0.984 . S
N669 H675 0.985 . S
C670 C664 1.379 . S
C670 C667 1.363 . S
C670 N668 1.356 . S
C671 C665 1.363 . S
C671 C666 1.379 . S
C671 N669 1.356 . S
N672 C664 1.356 . S
N672 H678 0.984 . S
N672 H679 0.984 . S
N673 C666 1.356 . S
N673 H676 0.984 . S
N673 H677 0.985 . S
H674 N669 0.984 . S
H675 N669 0.985 . S
H676 N673 0.984 . S
H677 N673 0.985 . S
H678 N672 0.984 . S
H679 N672 0.984 . S
H680 N668 0.984 . S
H681 N668 0.985 . S
C682 C683 1.363 . S
C682 C688 1.379 . S
C682 N690 1.356 . S
C683 C682 1.363 . S
C683 C689 1.363 . S
C684 C685 1.363 . S
C684 C689 1.379 . S
C684 N691 1.356 . S
C685 C684 1.363 . S
C685 C688 1.363 . S
N686 C688 1.356 . S
N686 H698 0.984 . S
N686 H699 0.985 . S
N687 C689 1.356 . S
N687 H692 0.984 . S
N687 H693 0.985 . S
C688 C682 1.379 . S
C688 C685 1.363 . S
C688 N686 1.356 . S
C689 C683 1.363 . S
C689 C684 1.379 . S
C689 N687 1.356 . S
N690 C682 1.356 . S
N690 H696 0.984 . S
N690 H697 0.984 . S
N691 C684 1.356 . S
N691 H694 0.984 . S
N691 H695 0.985 . S
H692 N687 0.984 . S
H693 N687 0.985 . S
H694 N691 0.984 . S
H695 N691 0.985 . S
H696 N690 0.984 . S
H697 N690 0.984 . S
H698 N686 0.984 . S
H699 N686 0.985 . S
C700 C701 1.363 . S
C700 C706 1.379 . S
C700 N708 1.356 . S
C701 C700 1.363 . S
C701 C707 1.363 . S
C702 C703 1.363 . S
C702 C707 1.379 . S
C702 N709 1.356 . S
C703 C702 1.363 . S
C703 C706 1.363 . S
N704 C706 1.356 . S
N704 H716 0.984 . S
N704 H717 0.985 . S
N705 C707 1.356 . S
N705 H710 0.984 . S
N705 H711 0.985 . S
C706 C700 1.379 . S
C706 C703 1.363 . S
C706 N704 1.356 . S
C707 C701 1.363 . S
C707 C702 1.379 . S
C707 N705 1.356 . S
N708 C700 1.356 . S
N708 H714 0.984 . S
N708 H715 0.984 . S
N709 C702 1.356 . S
N709 H712 0.984 . S
N709 H713 0.985 . S
H710 N705 0.984 . S
H711 N705 0.985 . S
H712 N709 0.984 . S
H713 N709 0.985 . S
H714 N708 0.984 . S
H715 N708 0.984 . S
H716 N704 0.984 . S
H717 N704 0.985 . S
C718 C719 1.363 . S
C718 C724 1.379 . S
C718 N726 1.356 . S
C719 C718 1.363 . S
C719 C725 1.363 . S
C720 C721 1.363 . S
C720 C725 1.379 . S
C720 N727 1.356 . S
C721 C720 1.363 . S
C721 C724 1.363 . S
N722 C724 1.356 . S
N722 H734 0.984 . S
N722 H735 0.985 . S
N723 C725 1.356 . S
N723 H728 0.984 . S
N723 H729 0.985 . S
C724 C718 1.379 . S
C724 C721 1.363 . S
C724 N722 1.356 . S
C725 C719 1.363 . S
C725 C720 1.379 . S
C725 N723 1.356 . S
N726 C718 1.356 . S
N726 H732 0.984 . S
N726 H733 0.984 . S
N727 C720 1.356 . S
N727 H730 0.984 . S
N727 H731 0.985 . S
H728 N723 0.984 . S
H729 N723 0.985 . S
H730 N727 0.984 . S
H731 N727 0.985 . S
H732 N726 0.984 . S
H733 N726 0.984 . S
H734 N722 0.984 . S
H735 N722 0.985 . S
C736 C737 1.363 . S
C736 C742 1.379 1_455 S
C736 N744 1.356 . S
C737 C736 1.363 . S
C737 C743 1.363 1_554 S
C738 C739 1.363 1_556 S
C738 C743 1.379 1_655 S
C738 N745 1.356 . S
C739 C738 1.363 1_554 S
C739 C742 1.363 . S
N740 C742 1.356 . S
N740 H752 0.984 . S
N740 H753 0.985 . S
N741 C743 1.356 . S
N741 H746 0.984 . S
N741 H747 0.985 . S
C742 C736 1.379 1_655 S
C742 C739 1.363 . S
C742 N740 1.356 . S
C743 C737 1.363 1_556 S
C743 C738 1.379 1_455 S
C743 N741 1.356 . S
N744 C736 1.356 . S
N744 H750 0.984 . S
N744 H751 0.984 . S
N745 C738 1.356 . S
N745 H748 0.984 . S
N745 H749 0.985 . S
H746 N741 0.984 . S
H747 N741 0.985 . S
H748 N745 0.984 . S
H749 N745 0.985 . S
H750 N744 0.984 . S
H751 N744 0.984 . S
H752 N740 0.984 . S
H753 N740 0.985 . S
C754 C755 1.363 . S
C754 C760 1.379 . S
C754 N762 1.356 . S
C755 C754 1.363 . S
C755 C761 1.363 . S
C756 C757 1.363 . S
C756 C761 1.379 . S
C756 N763 1.356 . S
C757 C756 1.363 . S
C757 C760 1.363 . S
N758 C760 1.356 . S
N758 H770 0.984 . S
N758 H771 0.985 . S
N759 C761 1.356 . S
N759 H764 0.984 . S
N759 H765 0.985 . S
C760 C754 1.379 . S
C760 C757 1.363 . S
C760 N758 1.356 . S
C761 C755 1.363 . S
C761 C756 1.379 . S
C761 N759 1.356 . S
N762 C754 1.356 . S
N762 H768 0.984 . S
N762 H769 0.984 . S
N763 C756 1.356 . S
N763 H766 0.984 . S
N763 H767 0.985 . S
H764 N759 0.984 . S
H765 N759 0.985 . S
H766 N763 0.984 . S
H767 N763 0.985 . S
H768 N762 0.984 . S
H769 N762 0.984 . S
H770 N758 0.984 . S
H771 N758 0.985 . S
C772 C773 1.363 . S
C772 C778 1.379 . S
C772 N780 1.356 . S
C773 C772 1.363 . S
C773 C779 1.363 . S
C774 C775 1.363 . S
C774 C779 1.379 . S
C774 N781 1.356 . S
C775 C774 1.363 . S
C775 C778 1.363 . S
N776 C778 1.356 . S
N776 H788 0.984 . S
N776 H789 0.985 . S
N777 C779 1.356 . S
N777 H782 0.984 . S
N777 H783 0.985 . S
C778 C772 1.379 . S
C778 C775 1.363 . S
C778 N776 1.356 . S
C779 C773 1.363 . S
C779 C774 1.379 . S
C779 N777 1.356 . S
N780 C772 1.356 . S
N780 H786 0.984 . S
N780 H787 0.984 . S
N781 C774 1.356 . S
N781 H784 0.984 . S
N781 H785 0.985 . S
H782 N777 0.984 . S
H783 N777 0.985 . S
H784 N781 0.984 . S
H785 N781 0.985 . S
H786 N780 0.984 . S
H787 N780 0.984 . S
H788 N776 0.984 . S
H789 N776 0.985 . S
C790 C791 1.363 . S
C790 C796 1.379 . S
C790 N798 1.356 . S
C791 C790 1.363 . S
C791 C797 1.363 . S
C792 C793 1.363 . S
C792 C797 1.379 . S
C792 N799 1.356 . S
C793 C792 1.363 . S
C793 C796 1.363 . S
N794 C796 1.356 . S
N794 H806 0.984 . S
N794 H807 0.985 . S
N795 C797 1.356 . S
N795 H800 0.984 . S
N795 H801 0.985 . S
C796 C790 1.379 . S
C796 C793 1.363 . S
C796 N794 1.356 . S
C797 C791 1.363 . S
C797 C792 1.379 . S
C797 N795 1.356 . S
N798 C790 1.356 . S
N798 H804 0.984 . S
N798 H805 0.984 . S
N799 C792 1.356 . S
N799 H802 0.984 . S
N799 H803 0.985 . S
H800 N795 0.984 . S
H801 N795 0.985 . S
H802 N799 0.984 . S
H803 N799 0.985 . S
H804 N798 0.984 . S
H805 N798 0.984 . S
H806 N794 0.984 . S
H807 N794 0.985 . S
C808 C809 1.363 . S
C808 C814 1.379 1_655 S
C808 N816 1.356 . S
C809 C808 1.363 . S
C809 C815 1.363 1_556 S
C810 C811 1.363 1_554 S
C810 C815 1.379 1_455 S
C810 N817 1.356 . S
C811 C810 1.363 1_556 S
C811 C814 1.363 . S
N812 C814 1.356 . S
N812 H824 0.984 . S
N812 H825 0.985 . S
N813 C815 1.356 . S
N813 H818 0.984 . S
N813 H819 0.985 . S
C814 C808 1.379 1_455 S
C814 C811 1.363 . S
C814 N812 1.356 . S
C815 C809 1.363 1_554 S
C815 C810 1.379 1_655 S
C815 N813 1.356 . S
N816 C808 1.356 . S
N816 H822 0.984 . S
N816 H823 0.984 . S
N817 C810 1.356 . S
N817 H820 0.984 . S
N817 H821 0.985 . S
H818 N813 0.984 . S
H819 N813 0.985 . S
H820 N817 0.984 . S
H821 N817 0.985 . S
H822 N816 0.984 . S
H823 N816 0.984 . S
H824 N812 0.984 . S
H825 N812 0.985 . S
C826 C827 1.363 . S
C826 C832 1.379 . S
C826 N834 1.356 . S
C827 C826 1.363 . S
C827 C833 1.363 . S
C828 C829 1.363 . S
C828 C833 1.379 . S
C828 N835 1.356 . S
C829 C828 1.363 . S
C829 C832 1.363 . S
N830 C832 1.356 . S
N830 H842 0.984 . S
N830 H843 0.985 . S
N831 C833 1.356 . S
N831 H836 0.984 . S
N831 H837 0.985 . S
C832 C826 1.379 . S
C832 C829 1.363 . S
C832 N830 1.356 . S
C833 C827 1.363 . S
C833 C828 1.379 . S
C833 N831 1.356 . S
N834 C826 1.356 . S
N834 H840 0.984 . S
N834 H841 0.984 . S
N835 C828 1.356 . S
N835 H838 0.984 . S
N835 H839 0.985 . S
H836 N831 0.984 . S
H837 N831 0.985 . S
H838 N835 0.984 . S
H839 N835 0.985 . S
H840 N834 0.984 . S
H841 N834 0.984 . S
H842 N830 0.984 . S
H843 N830 0.985 . S
C844 C845 1.363 . S
C844 C850 1.379 . S
C844 N852 1.356 . S
C845 C844 1.363 . S
C845 C851 1.363 . S
C846 C847 1.363 . S
C846 C851 1.379 . S
C846 N853 1.356 . S
C847 C846 1.363 . S
C847 C850 1.363 . S
N848 C850 1.356 . S
N848 H860 0.984 . S
N848 H861 0.985 . S
N849 C851 1.356 . S
N849 H854 0.984 . S
N849 H855 0.985 . S
C850 C844 1.379 . S
C850 C847 1.363 . S
C850 N848 1.356 . S
C851 C845 1.363 . S
C851 C846 1.379 . S
C851 N849 1.356 . S
N852 C844 1.356 . S
N852 H858 0.984 . S
N852 H859 0.984 . S
N853 C846 1.356 . S
N853 H856 0.984 . S
N853 H857 0.985 . S
H854 N849 0.984 . S
H855 N849 0.985 . S
H856 N853 0.984 . S
H857 N853 0.985 . S
H858 N852 0.984 . S
H859 N852 0.984 . S
H860 N848 0.984 . S
H861 N848 0.985 . S
C862 C863 1.363 . S
C862 C868 1.379 . S
C862 N870 1.356 . S
C863 C862 1.363 . S
C863 C869 1.363 . S
C864 C865 1.363 . S
C864 C869 1.379 . S
C864 N871 1.356 . S
C865 C864 1.363 . S
C865 C868 1.363 . S
N866 C868 1.356 . S
N866 H878 0.984 . S
N866 H879 0.985 . S
N867 C869 1.356 . S
N867 H872 0.984 . S
N867 H873 0.985 . S
C868 C862 1.379 . S
C868 C865 1.363 . S
C868 N866 1.356 . S
C869 C863 1.363 . S
C869 C864 1.379 . S
C869 N867 1.356 . S
N870 C862 1.356 . S
N870 H876 0.984 . S
N870 H877 0.984 . S
N871 C864 1.356 . S
N871 H874 0.984 . S
N871 H875 0.985 . S
H872 N867 0.984 . S
H873 N867 0.985 . S
H874 N871 0.984 . S
H875 N871 0.985 . S
H876 N870 0.984 . S
H877 N870 0.984 . S
H878 N866 0.984 . S
H879 N866 0.985 . S
C880 C881 1.363 . S
C880 C886 1.379 . S
C880 N888 1.356 . S
C881 C880 1.363 . S
C881 C887 1.363 . S
C882 C883 1.363 . S
C882 C887 1.379 . S
C882 N889 1.356 . S
C883 C882 1.363 . S
C883 C886 1.363 . S
N884 C886 1.356 . S
N884 H896 0.984 . S
N884 H897 0.985 . S
N885 C887 1.356 . S
N885 H890 0.984 . S
N885 H891 0.985 . S
C886 C880 1.379 . S
C886 C883 1.363 . S
C886 N884 1.356 . S
C887 C881 1.363 . S
C887 C882 1.379 . S
C887 N885 1.356 . S
N888 C880 1.356 . S
N888 H894 0.984 . S
N888 H895 0.984 . S
N889 C882 1.356 . S
N889 H892 0.984 . S
N889 H893 0.985 . S
H890 N885 0.984 . S
H891 N885 0.985 . S
H892 N889 0.984 . S
H893 N889 0.985 . S
H894 N888 0.984 . S
H895 N888 0.984 . S
H896 N884 0.984 . S
H897 N884 0.985 . S
C898 C899 1.363 . S
C898 C904 1.379 . S
C898 N906 1.356 . S
C899 C898 1.363 . S
C899 C905 1.363 . S
C900 C901 1.363 . S
C900 C905 1.379 . S
C900 N907 1.356 . S
C901 C900 1.363 . S
C901 C904 1.363 . S
N902 C904 1.356 . S
N902 H914 0.984 . S
N902 H915 0.985 . S
N903 C905 1.356 . S
N903 H908 0.984 . S
N903 H909 0.985 . S
C904 C898 1.379 . S
C904 C901 1.363 . S
C904 N902 1.356 . S
C905 C899 1.363 . S
C905 C900 1.379 . S
C905 N903 1.356 . S
N906 C898 1.356 . S
N906 H912 0.984 . S
N906 H913 0.984 . S
N907 C900 1.356 . S
N907 H910 0.984 . S
N907 H911 0.985 . S
H908 N903 0.984 . S
H909 N903 0.985 . S
H910 N907 0.984 . S
H911 N907 0.985 . S
H912 N906 0.984 . S
H913 N906 0.984 . S
H914 N902 0.984 . S
H915 N902 0.985 . S
C916 C917 1.363 . S
C916 C922 1.379 . S
C916 N924 1.356 . S
C917 C916 1.363 . S
C917 C923 1.363 . S
C918 C919 1.363 . S
C918 C923 1.379 . S
C918 N925 1.356 . S
C919 C918 1.363 . S
C919 C922 1.363 . S
N920 C922 1.356 . S
N920 H932 0.984 . S
N920 H933 0.985 . S
N921 C923 1.356 . S
N921 H926 0.984 . S
N921 H927 0.985 . S
C922 C916 1.379 . S
C922 C919 1.363 . S
C922 N920 1.356 . S
C923 C917 1.363 . S
C923 C918 1.379 . S
C923 N921 1.356 . S
N924 C916 1.356 . S
N924 H930 0.984 . S
N924 H931 0.984 . S
N925 C918 1.356 . S
N925 H928 0.984 . S
N925 H929 0.985 . S
H926 N921 0.984 . S
H927 N921 0.985 . S
H928 N925 0.984 . S
H929 N925 0.985 . S
H930 N924 0.984 . S
H931 N924 0.984 . S
H932 N920 0.984 . S
H933 N920 0.985 . S
C934 C935 1.363 . S
C934 C940 1.379 . S
C934 N942 1.356 . S
C935 C934 1.363 . S
C935 C941 1.363 . S
C936 C937 1.363 . S
C936 C941 1.379 . S
C936 N943 1.356 . S
C937 C936 1.363 . S
C937 C940 1.363 . S
N938 C940 1.356 . S
N938 H950 0.984 . S
N938 H951 0.985 . S
N939 C941 1.356 . S
N939 H944 0.984 . S
N939 H945 0.985 . S
C940 C934 1.379 . S
C940 C937 1.363 . S
C940 N938 1.356 . S
C941 C935 1.363 . S
C941 C936 1.379 . S
C941 N939 1.356 . S
N942 C934 1.356 . S
N942 H948 0.984 . S
N942 H949 0.984 . S
N943 C936 1.356 . S
N943 H946 0.984 . S
N943 H947 0.985 . S
H944 N939 0.984 . S
H945 N939 0.985 . S
H946 N943 0.984 . S
H947 N943 0.985 . S
H948 N942 0.984 . S
H949 N942 0.984 . S
H950 N938 0.984 . S
H951 N938 0.985 . S
C952 C953 1.363 . S
C952 C958 1.379 . S
C952 N960 1.356 . S
C953 C952 1.363 . S
C953 C959 1.363 . S
C954 C955 1.363 . S
C954 C959 1.379 . S
C954 N961 1.356 . S
C955 C954 1.363 . S
C955 C958 1.363 . S
N956 C958 1.356 . S
N956 H968 0.984 . S
N956 H969 0.985 . S
N957 C959 1.356 . S
N957 H962 0.984 . S
N957 H963 0.985 . S
C958 C952 1.379 . S
C958 C955 1.363 . S
C958 N956 1.356 . S
C959 C953 1.363 . S
C959 C954 1.379 . S
C959 N957 1.356 . S
N960 C952 1.356 . S
N960 H966 0.984 . S
N960 H967 0.984 . S
N961 C954 1.356 . S
N961 H964 0.984 . S
N961 H965 0.985 . S
H962 N957 0.984 . S
H963 N957 0.985 . S
H964 N961 0.984 . S
H965 N961 0.985 . S
H966 N960 0.984 . S
H967 N960 0.984 . S
H968 N956 0.984 . S
H969 N956 0.985 . S
C970 C971 1.363 . S
C970 C976 1.379 1_655 S
C970 N978 1.356 . S
C971 C970 1.363 . S
C971 C977 1.363 1_554 S
C972 C973 1.363 1_556 S
C972 C977 1.379 1_455 S
C972 N979 1.356 . S
C973 C972 1.363 1_554 S
C973 C976 1.363 . S
N974 C976 1.356 . S
N974 H986 0.984 . S
N974 H987 0.985 . S
N975 C977 1.356 . S
N975 H980 0.984 . S
N975 H981 0.985 . S
C976 C970 1.379 1_455 S
C976 C973 1.363 . S
C976 N974 1.356 . S
C977 C971 1.363 1_556 S
C977 C972 1.379 1_655 S
C977 N975 1.356 . S
N978 C970 1.356 . S
N978 H984 0.984 . S
N978 H985 0.984 . S
N979 C972 1.356 . S
N979 H982 0.984 . S
N979 H983 0.985 . S
H980 N975 0.984 . S
H981 N975 0.985 . S
H982 N979 0.984 . S
H983 N979 0.985 . S
H984 N978 0.984 . S
H985 N978 0.984 . S
H986 N974 0.984 . S
H987 N974 0.985 . S
C988 C989 1.363 . S
C988 C994 1.379 . S
C988 N996 1.356 . S
C989 C988 1.363 . S
C989 C995 1.363 . S
C990 C991 1.363 . S
C990 C995 1.379 . S
C990 N997 1.356 . S
C991 C990 1.363 . S
C991 C994 1.363 . S
N992 C994 1.356 . S
N992 H1004 0.984 . S
N992 H1005 0.985 . S
N993 C995 1.356 . S
N993 H998 0.984 . S
N993 H999 0.985 . S
C994 C988 1.379 . S
C994 C991 1.363 . S
C994 N992 1.356 . S
C995 C989 1.363 . S
C995 C990 1.379 . S
C995 N993 1.356 . S
N996 C988 1.356 . S
N996 H1002 0.984 . S
N996 H1003 0.984 . S
N997 C990 1.356 . S
N997 H1000 0.984 . S
N997 H1001 0.985 . S
H998 N993 0.984 . S
H999 N993 0.985 . S
H1000 N997 0.984 . S
H1001 N997 0.985 . S
H1002 N996 0.984 . S
H1003 N996 0.984 . S
H1004 N992 0.984 . S
H1005 N992 0.985 . S
C1006 C1007 1.363 . S
C1006 C1012 1.379 1_455 S
C1006 N1014 1.356 . S
C1007 C1006 1.363 . S
C1007 C1013 1.363 1_556 S
C1008 C1009 1.363 1_554 S
C1008 C1013 1.379 1_655 S
C1008 N1015 1.356 . S
C1009 C1008 1.363 1_556 S
C1009 C1012 1.363 . S
N1010 C1012 1.356 . S
N1010 H1022 0.984 . S
N1010 H1023 0.985 . S
N1011 C1013 1.356 . S
N1011 H1016 0.984 . S
N1011 H1017 0.985 . S
C1012 C1006 1.379 1_655 S
C1012 C1009 1.363 . S
C1012 N1010 1.356 . S
C1013 C1007 1.363 1_554 S
C1013 C1008 1.379 1_455 S
C1013 N1011 1.356 . S
N1014 C1006 1.356 . S
N1014 H1020 0.984 . S
N1014 H1021 0.984 . S
N1015 C1008 1.356 . S
N1015 H1018 0.984 . S
N1015 H1019 0.985 . S
H1016 N1011 0.984 . S
H1017 N1011 0.985 . S
H1018 N1015 0.984 . S
H1019 N1015 0.985 . S
H1020 N1014 0.984 . S
H1021 N1014 0.984 . S
H1022 N1010 0.984 . S
H1023 N1010 0.985 . S
C1024 C1025 1.346 1_554 S
C1024 C1030 1.379 . S
C1024 N1032 1.356 . S
C1025 C1024 1.346 1_556 S
C1025 C1031 1.380 . S
C1026 C1027 1.346 1_556 S
C1026 C1031 1.379 . S
C1026 N1033 1.356 . S
C1027 C1026 1.346 1_554 S
C1027 C1030 1.380 . S
N1028 C1030 1.356 . S
N1028 H1040 0.984 . S
N1028 H1041 0.985 . S
N1029 C1031 1.356 . S
N1029 H1034 0.984 . S
N1029 H1035 0.985 . S
C1030 C1024 1.379 . S
C1030 C1027 1.380 . S
C1030 N1028 1.356 . S
C1031 C1025 1.380 . S
C1031 C1026 1.379 . S
C1031 N1029 1.356 . S
N1032 C1024 1.356 . S
N1032 H1038 0.984 . S
N1032 H1039 0.984 . S
N1033 C1026 1.356 . S
N1033 H1036 0.984 . S
N1033 H1037 0.985 . S
H1034 N1029 0.984 . S
H1035 N1029 0.985 . S
H1036 N1033 0.984 . S
H1037 N1033 0.985 . S
H1038 N1032 0.984 . S
H1039 N1032 0.984 . S
H1040 N1028 0.984 . S
H1041 N1028 0.985 . S
C1042 C1043 1.363 . S
C1042 C1048 1.379 . S
C1042 N1050 1.356 . S
C1043 C1042 1.363 . S
C1043 C1049 1.363 . S
C1044 C1045 1.363 . S
C1044 C1049 1.379 . S
C1044 N1051 1.356 . S
C1045 C1044 1.363 . S
C1045 C1048 1.363 . S
N1046 C1048 1.356 . S
N1046 H1058 0.984 . S
N1046 H1059 0.985 . S
N1047 C1049 1.356 . S
N1047 H1052 0.984 . S
N1047 H1053 0.985 . S
C1048 C1042 1.379 . S
C1048 C1045 1.363 . S
C1048 N1046 1.356 . S
C1049 C1043 1.363 . S
C1049 C1044 1.379 . S
C1049 N1047 1.356 . S
N1050 C1042 1.356 . S
N1050 H1056 0.984 . S
N1050 H1057 0.984 . S
N1051 C1044 1.356 . S
N1051 H1054 0.984 . S
N1051 H1055 0.985 . S
H1052 N1047 0.984 . S
H1053 N1047 0.985 . S
H1054 N1051 0.984 . S
H1055 N1051 0.985 . S
H1056 N1050 0.984 . S
H1057 N1050 0.984 . S
H1058 N1046 0.984 . S
H1059 N1046 0.985 . S
C1060 C1061 1.363 . S
C1060 C1066 1.379 . S
C1060 N1068 1.356 . S
C1061 C1060 1.363 . S
C1061 C1067 1.363 . S
C1062 C1063 1.363 . S
C1062 C1067 1.379 . S
C1062 N1069 1.356 . S
C1063 C1062 1.363 . S
C1063 C1066 1.363 . S
N1064 C1066 1.356 . S
N1064 H1076 0.984 . S
N1064 H1077 0.985 . S
N1065 C1067 1.356 . S
N1065 H1070 0.984 . S
N1065 H1071 0.985 . S
C1066 C1060 1.379 . S
C1066 C1063 1.363 . S
C1066 N1064 1.356 . S
C1067 C1061 1.363 . S
C1067 C1062 1.379 . S
C1067 N1065 1.356 . S
N1068 C1060 1.356 . S
N1068 H1074 0.984 . S
N1068 H1075 0.984 . S
N1069 C1062 1.356 . S
N1069 H1072 0.984 . S
N1069 H1073 0.985 . S
H1070 N1065 0.984 . S
H1071 N1065 0.985 . S
H1072 N1069 0.984 . S
H1073 N1069 0.985 . S
H1074 N1068 0.984 . S
H1075 N1068 0.984 . S
H1076 N1064 0.984 . S
H1077 N1064 0.985 . S
C1078 C1079 1.363 . S
C1078 C1084 1.379 . S
C1078 N1086 1.356 . S
C1079 C1078 1.363 . S
C1079 C1085 1.363 . S
C1080 C1081 1.363 . S
C1080 C1085 1.379 . S
C1080 N1087 1.356 . S
C1081 C1080 1.363 . S
C1081 C1084 1.363 . S
N1082 C1084 1.356 . S
N1082 H1094 0.984 . S
N1082 H1095 0.985 . S
N1083 C1085 1.356 . S
N1083 H1088 0.984 . S
N1083 H1089 0.985 . S
C1084 C1078 1.379 . S
C1084 C1081 1.363 . S
C1084 N1082 1.356 . S
C1085 C1079 1.363 . S
C1085 C1080 1.379 . S
C1085 N1083 1.356 . S
N1086 C1078 1.356 . S
N1086 H1092 0.984 . S
N1086 H1093 0.984 . S
N1087 C1080 1.356 . S
N1087 H1090 0.984 . S
N1087 H1091 0.985 . S
H1088 N1083 0.984 . S
H1089 N1083 0.985 . S
H1090 N1087 0.984 . S
H1091 N1087 0.985 . S
H1092 N1086 0.984 . S
H1093 N1086 0.984 . S
H1094 N1082 0.984 . S
H1095 N1082 0.985 . S
C1096 C1097 1.346 1_556 S
C1096 C1102 1.379 . S
C1096 N1104 1.356 . S
C1097 C1096 1.346 1_554 S
C1097 C1103 1.380 . S
C1098 C1099 1.346 1_554 S
C1098 C1103 1.379 . S
C1098 N1105 1.356 . S
C1099 C1098 1.346 1_556 S
C1099 C1102 1.380 . S
N1100 C1102 1.356 . S
N1100 H1112 0.984 . S
N1100 H1113 0.985 . S
N1101 C1103 1.356 . S
N1101 H1106 0.984 . S
N1101 H1107 0.985 . S
C1102 C1096 1.379 . S
C1102 C1099 1.380 . S
C1102 N1100 1.356 . S
C1103 C1097 1.380 . S
C1103 C1098 1.379 . S
C1103 N1101 1.356 . S
N1104 C1096 1.356 . S
N1104 H1110 0.984 . S
N1104 H1111 0.984 . S
N1105 C1098 1.356 . S
N1105 H1108 0.984 . S
N1105 H1109 0.985 . S
H1106 N1101 0.984 . S
H1107 N1101 0.985 . S
H1108 N1105 0.984 . S
H1109 N1105 0.985 . S
H1110 N1104 0.984 . S
H1111 N1104 0.984 . S
H1112 N1100 0.984 . S
H1113 N1100 0.985 . S
C1114 C1115 1.363 . S
C1114 C1120 1.379 . S
C1114 N1122 1.356 . S
C1115 C1114 1.363 . S
C1115 C1121 1.363 . S
C1116 C1117 1.363 . S
C1116 C1121 1.379 . S
C1116 N1123 1.356 . S
C1117 C1116 1.363 . S
C1117 C1120 1.363 . S
N1118 C1120 1.356 . S
N1118 H1130 0.984 . S
N1118 H1131 0.985 . S
N1119 C1121 1.356 . S
N1119 H1124 0.984 . S
N1119 H1125 0.985 . S
C1120 C1114 1.379 . S
C1120 C1117 1.363 . S
C1120 N1118 1.356 . S
C1121 C1115 1.363 . S
C1121 C1116 1.379 . S
C1121 N1119 1.356 . S
N1122 C1114 1.356 . S
N1122 H1128 0.984 . S
N1122 H1129 0.984 . S
N1123 C1116 1.356 . S
N1123 H1126 0.984 . S
N1123 H1127 0.985 . S
H1124 N1119 0.984 . S
H1125 N1119 0.985 . S
H1126 N1123 0.984 . S
H1127 N1123 0.985 . S
H1128 N1122 0.984 . S
H1129 N1122 0.984 . S
H1130 N1118 0.984 . S
H1131 N1118 0.985 . S
C1132 C1133 1.363 . S
C1132 C1138 1.379 . S
C1132 N1140 1.356 . S
C1133 C1132 1.363 . S
C1133 C1139 1.363 . S
C1134 C1135 1.363 . S
C1134 C1139 1.379 . S
C1134 N1141 1.356 . S
C1135 C1134 1.363 . S
C1135 C1138 1.363 . S
N1136 C1138 1.356 . S
N1136 H1148 0.984 . S
N1136 H1149 0.985 . S
N1137 C1139 1.356 . S
N1137 H1142 0.984 . S
N1137 H1143 0.985 . S
C1138 C1132 1.379 . S
C1138 C1135 1.363 . S
C1138 N1136 1.356 . S
C1139 C1133 1.363 . S
C1139 C1134 1.379 . S
C1139 N1137 1.356 . S
N1140 C1132 1.356 . S
N1140 H1146 0.984 . S
N1140 H1147 0.984 . S
N1141 C1134 1.356 . S
N1141 H1144 0.984 . S
N1141 H1145 0.985 . S
H1142 N1137 0.984 . S
H1143 N1137 0.985 . S
H1144 N1141 0.984 . S
H1145 N1141 0.985 . S
H1146 N1140 0.984 . S
H1147 N1140 0.984 . S
H1148 N1136 0.984 . S
H1149 N1136 0.985 . S
C1150 C1151 1.363 . S
C1150 C1156 1.379 . S
C1150 N1158 1.356 . S
C1151 C1150 1.363 . S
C1151 C1157 1.363 . S
C1152 C1153 1.363 . S
C1152 C1157 1.379 . S
C1152 N1159 1.356 . S
C1153 C1152 1.363 . S
C1153 C1156 1.363 . S
N1154 C1156 1.356 . S
N1154 H1166 0.984 . S
N1154 H1167 0.985 . S
N1155 C1157 1.356 . S
N1155 H1160 0.984 . S
N1155 H1161 0.985 . S
C1156 C1150 1.379 . S
C1156 C1153 1.363 . S
C1156 N1154 1.356 . S
C1157 C1151 1.363 . S
C1157 C1152 1.379 . S
C1157 N1155 1.356 . S
N1158 C1150 1.356 . S
N1158 H1164 0.984 . S
N1158 H1165 0.984 . S
N1159 C1152 1.356 . S
N1159 H1162 0.984 . S
N1159 H1163 0.985 . S
H1160 N1155 0.984 . S
H1161 N1155 0.985 . S
H1162 N1159 0.984 . S
H1163 N1159 0.985 . S
H1164 N1158 0.984 . S
H1165 N1158 0.984 . S
H1166 N1154 0.984 . S
H1167 N1154 0.985 . S
C1168 C1169 1.363 . S
C1168 C1174 1.379 1_545 S
C1168 N1176 1.356 . S
C1169 C1168 1.363 . S
C1169 C1175 1.363 . S
C1170 C1171 1.363 . S
C1170 C1175 1.379 1_565 S
C1170 N1177 1.356 . S
C1171 C1170 1.363 . S
C1171 C1174 1.363 . S
N1172 C1174 1.356 . S
N1172 H1184 0.984 . S
N1172 H1185 0.985 . S
N1173 C1175 1.356 . S
N1173 H1178 0.984 . S
N1173 H1179 0.985 . S
C1174 C1168 1.379 1_565 S
C1174 C1171 1.363 . S
C1174 N1172 1.356 . S
C1175 C1169 1.363 . S
C1175 C1170 1.379 1_545 S
C1175 N1173 1.356 . S
N1176 C1168 1.356 . S
N1176 H1182 0.984 . S
N1176 H1183 0.984 . S
N1177 C1170 1.356 . S
N1177 H1180 0.984 . S
N1177 H1181 0.985 . S
H1178 N1173 0.984 . S
H1179 N1173 0.985 . S
H1180 N1177 0.984 . S
H1181 N1177 0.985 . S
H1182 N1176 0.984 . S
H1183 N1176 0.984 . S
H1184 N1172 0.984 . S
H1185 N1172 0.985 . S
C1186 C1187 1.363 . S
C1186 C1192 1.379 . S
C1186 N1194 1.356 . S
C1187 C1186 1.363 . S
C1187 C1193 1.363 . S
C1188 C1189 1.363 . S
C1188 C1193 1.379 . S
C1188 N1195 1.356 . S
C1189 C1188 1.363 . S
C1189 C1192 1.363 . S
N1190 C1192 1.356 . S
N1190 H1202 0.984 . S
N1190 H1203 0.985 . S
N1191 C1193 1.356 . S
N1191 H1196 0.984 . S
N1191 H1197 0.985 . S
C1192 C1186 1.379 . S
C1192 C1189 1.363 . S
C1192 N1190 1.356 . S
C1193 C1187 1.363 . S
C1193 C1188 1.379 . S
C1193 N1191 1.356 . S
N1194 C1186 1.356 . S
N1194 H1200 0.984 . S
N1194 H1201 0.984 . S
N1195 C1188 1.356 . S
N1195 H1198 0.984 . S
N1195 H1199 0.985 . S
H1196 N1191 0.984 . S
H1197 N1191 0.985 . S
H1198 N1195 0.984 . S
H1199 N1195 0.985 . S
H1200 N1194 0.984 . S
H1201 N1194 0.984 . S
H1202 N1190 0.984 . S
H1203 N1190 0.985 . S
C1204 C1205 1.380 . S
C1204 C1210 1.379 1_565 S
C1204 N1212 1.356 . S
C1205 C1204 1.380 . S
C1205 C1211 1.346 1_554 S
C1206 C1207 1.380 . S
C1206 C1211 1.379 1_545 S
C1206 N1213 1.356 . S
C1207 C1206 1.380 . S
C1207 C1210 1.346 1_556 S
N1208 C1210 1.356 . S
N1208 H1220 0.984 . S
N1208 H1221 0.985 . S
N1209 C1211 1.356 . S
N1209 H1214 0.984 . S
N1209 H1215 0.985 . S
C1210 C1204 1.379 1_545 S
C1210 C1207 1.346 1_554 S
C1210 N1208 1.356 . S
C1211 C1205 1.346 1_556 S
C1211 C1206 1.379 1_565 S
C1211 N1209 1.356 . S
N1212 C1204 1.356 . S
N1212 H1218 0.984 . S
N1212 H1219 0.984 . S
N1213 C1206 1.356 . S
N1213 H1216 0.984 . S
N1213 H1217 0.985 . S
H1214 N1209 0.984 . S
H1215 N1209 0.985 . S
H1216 N1213 0.984 . S
H1217 N1213 0.985 . S
H1218 N1212 0.984 . S
H1219 N1212 0.984 . S
H1220 N1208 0.984 . S
H1221 N1208 0.985 . S
C1222 C1223 1.363 . S
C1222 C1228 1.379 . S
C1222 N1230 1.356 . S
C1223 C1222 1.363 . S
C1223 C1229 1.363 . S
C1224 C1225 1.363 . S
C1224 C1229 1.379 . S
C1224 N1231 1.356 . S
C1225 C1224 1.363 . S
C1225 C1228 1.363 . S
N1226 C1228 1.356 . S
N1226 H1238 0.984 . S
N1226 H1239 0.985 . S
N1227 C1229 1.356 . S
N1227 H1232 0.984 . S
N1227 H1233 0.985 . S
C1228 C1222 1.379 . S
C1228 C1225 1.363 . S
C1228 N1226 1.356 . S
C1229 C1223 1.363 . S
C1229 C1224 1.379 . S
C1229 N1227 1.356 . S
N1230 C1222 1.356 . S
N1230 H1236 0.984 . S
N1230 H1237 0.984 . S
N1231 C1224 1.356 . S
N1231 H1234 0.984 . S
N1231 H1235 0.985 . S
H1232 N1227 0.984 . S
H1233 N1227 0.985 . S
H1234 N1231 0.984 . S
H1235 N1231 0.985 . S
H1236 N1230 0.984 . S
H1237 N1230 0.984 . S
H1238 N1226 0.984 . S
H1239 N1226 0.985 . S
C1240 C1241 1.363 . S
C1240 C1246 1.379 1_545 S
C1240 N1248 1.356 . S
C1241 C1240 1.363 . S
C1241 C1247 1.363 . S
C1242 C1243 1.363 . S
C1242 C1247 1.379 1_565 S
C1242 N1249 1.356 . S
C1243 C1242 1.363 . S
C1243 C1246 1.363 . S
N1244 C1246 1.356 . S
N1244 H1256 0.984 . S
N1244 H1257 0.985 . S
N1245 C1247 1.356 . S
N1245 H1250 0.984 . S
N1245 H1251 0.985 . S
C1246 C1240 1.379 1_565 S
C1246 C1243 1.363 . S
C1246 N1244 1.356 . S
C1247 C1241 1.363 . S
C1247 C1242 1.379 1_545 S
C1247 N1245 1.356 . S
N1248 C1240 1.356 . S
N1248 H1254 0.984 . S
N1248 H1255 0.984 . S
N1249 C1242 1.356 . S
N1249 H1252 0.984 . S
N1249 H1253 0.985 . S
H1250 N1245 0.984 . S
H1251 N1245 0.985 . S
H1252 N1249 0.984 . S
H1253 N1249 0.985 . S
H1254 N1248 0.984 . S
H1255 N1248 0.984 . S
H1256 N1244 0.984 . S
H1257 N1244 0.985 . S
C1258 C1259 1.363 . S
C1258 C1264 1.379 . S
C1258 N1266 1.356 . S
C1259 C1258 1.363 . S
C1259 C1265 1.363 . S
C1260 C1261 1.363 . S
C1260 C1265 1.379 . S
C1260 N1267 1.356 . S
C1261 C1260 1.363 . S
C1261 C1264 1.363 . S
N1262 C1264 1.356 . S
N1262 H1274 0.984 . S
N1262 H1275 0.985 . S
N1263 C1265 1.356 . S
N1263 H1268 0.984 . S
N1263 H1269 0.985 . S
C1264 C1258 1.379 . S
C1264 C1261 1.363 . S
C1264 N1262 1.356 . S
C1265 C1259 1.363 . S
C1265 C1260 1.379 . S
C1265 N1263 1.356 . S
N1266 C1258 1.356 . S
N1266 H1272 0.984 . S
N1266 H1273 0.984 . S
N1267 C1260 1.356 . S
N1267 H1270 0.984 . S
N1267 H1271 0.985 . S
H1268 N1263 0.984 . S
H1269 N1263 0.985 . S
H1270 N1267 0.984 . S
H1271 N1267 0.985 . S
H1272 N1266 0.984 . S
H1273 N1266 0.984 . S
H1274 N1262 0.984 . S
H1275 N1262 0.985 . S
C1276 C1277 1.380 . S
C1276 C1282 1.379 1_565 S
C1276 N1284 1.356 . S
C1277 C1276 1.380 . S
C1277 C1283 1.346 1_554 S
C1278 C1279 1.380 . S
C1278 C1283 1.379 1_545 S
C1278 N1285 1.356 . S
C1279 C1278 1.380 . S
C1279 C1282 1.346 1_556 S
N1280 C1282 1.356 . S
N1280 H1292 0.984 . S
N1280 H1293 0.985 . S
N1281 C1283 1.356 . S
N1281 H1286 0.984 . S
N1281 H1287 0.985 . S
C1282 C1276 1.379 1_545 S
C1282 C1279 1.346 1_554 S
C1282 N1280 1.356 . S
C1283 C1277 1.346 1_556 S
C1283 C1278 1.379 1_565 S
C1283 N1281 1.356 . S
N1284 C1276 1.356 . S
N1284 H1290 0.984 . S
N1284 H1291 0.984 . S
N1285 C1278 1.356 . S
N1285 H1288 0.984 . S
N1285 H1289 0.985 . S
H1286 N1281 0.984 . S
H1287 N1281 0.985 . S
H1288 N1285 0.984 . S
H1289 N1285 0.985 . S
H1290 N1284 0.984 . S
H1291 N1284 0.984 . S
H1292 N1280 0.984 . S
H1293 N1280 0.985 . S
C1294 C1295 1.363 . S
C1294 C1300 1.379 . S
C1294 N1302 1.356 . S
C1295 C1294 1.363 . S
C1295 C1301 1.363 . S
C1296 C1297 1.363 . S
C1296 C1301 1.379 . S
C1296 N1303 1.356 . S
C1297 C1296 1.363 . S
C1297 C1300 1.363 . S
N1298 C1300 1.356 . S
N1298 H1310 0.984 . S
N1298 H1311 0.985 . S
N1299 C1301 1.356 . S
N1299 H1304 0.984 . S
N1299 H1305 0.985 . S
C1300 C1294 1.379 . S
C1300 C1297 1.363 . S
C1300 N1298 1.356 . S
C1301 C1295 1.363 . S
C1301 C1296 1.379 . S
C1301 N1299 1.356 . S
N1302 C1294 1.356 . S
N1302 H1308 0.984 . S
N1302 H1309 0.984 . S
N1303 C1296 1.356 . S
N1303 H1306 0.984 . S
N1303 H1307 0.985 . S
H1304 N1299 0.984 . S
H1305 N1299 0.985 . S
H1306 N1303 0.984 . S
H1307 N1303 0.985 . S
H1308 N1302 0.984 . S
H1309 N1302 0.984 . S
H1310 N1298 0.984 . S
H1311 N1298 0.985 . S
C1312 C1313 1.363 . S
C1312 C1318 1.379 . S
C1312 N1320 1.356 . S
C1313 C1312 1.363 . S
C1313 C1319 1.363 1_554 S
C1314 C1315 1.363 1_556 S
C1314 C1319 1.379 . S
C1314 N1321 1.356 . S
C1315 C1314 1.363 1_554 S
C1315 C1318 1.363 . S
N1316 C1318 1.356 . S
N1316 H1328 0.984 . S
N1316 H1329 0.985 . S
N1317 C1319 1.356 . S
N1317 H1322 0.984 . S
N1317 H1323 0.985 . S
C1318 C1312 1.379 . S
C1318 C1315 1.363 . S
C1318 N1316 1.356 . S
C1319 C1313 1.363 1_556 S
C1319 C1314 1.379 . S
C1319 N1317 1.356 . S
N1320 C1312 1.356 . S
N1320 H1326 0.984 . S
N1320 H1327 0.984 . S
N1321 C1314 1.356 . S
N1321 H1324 0.984 . S
N1321 H1325 0.985 . S
H1322 N1317 0.984 . S
H1323 N1317 0.985 . S
H1324 N1321 0.984 . S
H1325 N1321 0.985 . S
H1326 N1320 0.984 . S
H1327 N1320 0.984 . S
H1328 N1316 0.984 . S
H1329 N1316 0.985 . S
C1330 C1331 1.363 . S
C1330 C1336 1.379 . S
C1330 N1338 1.356 . S
C1331 C1330 1.363 . S
C1331 C1337 1.363 . S
C1332 C1333 1.363 . S
C1332 C1337 1.379 . S
C1332 N1339 1.356 . S
C1333 C1332 1.363 . S
C1333 C1336 1.363 . S
N1334 C1336 1.356 . S
N1334 H1346 0.984 . S
N1334 H1347 0.985 . S
N1335 C1337 1.356 . S
N1335 H1340 0.984 . S
N1335 H1341 0.985 . S
C1336 C1330 1.379 . S
C1336 C1333 1.363 . S
C1336 N1334 1.356 . S
C1337 C1331 1.363 . S
C1337 C1332 1.379 . S
C1337 N1335 1.356 . S
N1338 C1330 1.356 . S
N1338 H1344 0.984 . S
N1338 H1345 0.984 . S
N1339 C1332 1.356 . S
N1339 H1342 0.984 . S
N1339 H1343 0.985 . S
H1340 N1335 0.984 . S
H1341 N1335 0.985 . S
H1342 N1339 0.984 . S
H1343 N1339 0.985 . S
H1344 N1338 0.984 . S
H1345 N1338 0.984 . S
H1346 N1334 0.984 . S
H1347 N1334 0.985 . S
C1348 C1349 1.363 . S
C1348 C1354 1.379 . S
C1348 N1356 1.356 . S
C1349 C1348 1.363 . S
C1349 C1355 1.363 . S
C1350 C1351 1.363 . S
C1350 C1355 1.379 . S
C1350 N1357 1.356 . S
C1351 C1350 1.363 . S
C1351 C1354 1.363 . S
N1352 C1354 1.356 . S
N1352 H1364 0.984 . S
N1352 H1365 0.985 . S
N1353 C1355 1.356 . S
N1353 H1358 0.984 . S
N1353 H1359 0.985 . S
C1354 C1348 1.379 . S
C1354 C1351 1.363 . S
C1354 N1352 1.356 . S
C1355 C1349 1.363 . S
C1355 C1350 1.379 . S
C1355 N1353 1.356 . S
N1356 C1348 1.356 . S
N1356 H1362 0.984 . S
N1356 H1363 0.984 . S
N1357 C1350 1.356 . S
N1357 H1360 0.984 . S
N1357 H1361 0.985 . S
H1358 N1353 0.984 . S
H1359 N1353 0.985 . S
H1360 N1357 0.984 . S
H1361 N1357 0.985 . S
H1362 N1356 0.984 . S
H1363 N1356 0.984 . S
H1364 N1352 0.984 . S
H1365 N1352 0.985 . S
C1366 C1367 1.363 . S
C1366 C1372 1.379 1_655 S
C1366 N1374 1.356 . S
C1367 C1366 1.363 . S
C1367 C1373 1.363 . S
C1368 C1369 1.363 . S
C1368 C1373 1.379 1_455 S
C1368 N1375 1.356 . S
C1369 C1368 1.363 . S
C1369 C1372 1.363 . S
N1370 C1372 1.356 . S
N1370 H1382 0.984 . S
N1370 H1383 0.985 . S
N1371 C1373 1.356 . S
N1371 H1376 0.984 . S
N1371 H1377 0.985 . S
C1372 C1366 1.379 1_455 S
C1372 C1369 1.363 . S
C1372 N1370 1.356 . S
C1373 C1367 1.363 . S
C1373 C1368 1.379 1_655 S
C1373 N1371 1.356 . S
N1374 C1366 1.356 . S
N1374 H1380 0.984 . S
N1374 H1381 0.984 . S
N1375 C1368 1.356 . S
N1375 H1378 0.984 . S
N1375 H1379 0.985 . S
H1376 N1371 0.984 . S
H1377 N1371 0.985 . S
H1378 N1375 0.984 . S
H1379 N1375 0.985 . S
H1380 N1374 0.984 . S
H1381 N1374 0.984 . S
H1382 N1370 0.984 . S
H1383 N1370 0.985 . S
C1384 C1385 1.363 1_554 S
C1384 C1390 1.379 . S
C1384 N1392 1.356 . S
C1385 C1384 1.363 1_556 S
C1385 C1391 1.363 . S
C1386 C1387 1.363 . S
C1386 C1391 1.379 . S
C1386 N1393 1.356 . S
C1387 C1386 1.363 . S
C1387 C1390 1.363 1_556 S
N1388 C1390 1.356 . S
N1388 H1400 0.984 . S
N1388 H1401 0.985 . S
N1389 C1391 1.356 . S
N1389 H1394 0.984 . S
N1389 H1395 0.985 . S
C1390 C1384 1.379 . S
C1390 C1387 1.363 1_554 S
C1390 N1388 1.356 . S
C1391 C1385 1.363 . S
C1391 C1386 1.379 . S
C1391 N1389 1.356 . S
N1392 C1384 1.356 . S
N1392 H1398 0.984 . S
N1392 H1399 0.984 . S
N1393 C1386 1.356 . S
N1393 H1396 0.984 . S
N1393 H1397 0.985 . S
H1394 N1389 0.984 . S
H1395 N1389 0.985 . S
H1396 N1393 0.984 . S
H1397 N1393 0.985 . S
H1398 N1392 0.984 . S
H1399 N1392 0.984 . S
H1400 N1388 0.984 . S
H1401 N1388 0.985 . S
C1402 C1403 1.363 . S
C1402 C1408 1.379 1_655 S
C1402 N1410 1.356 . S
C1403 C1402 1.363 . S
C1403 C1409 1.363 . S
C1404 C1405 1.363 . S
C1404 C1409 1.379 1_455 S
C1404 N1411 1.356 . S
C1405 C1404 1.363 . S
C1405 C1408 1.363 . S
N1406 C1408 1.356 . S
N1406 H1418 0.984 . S
N1406 H1419 0.985 . S
N1407 C1409 1.356 . S
N1407 H1412 0.984 . S
N1407 H1413 0.985 . S
C1408 C1402 1.379 1_455 S
C1408 C1405 1.363 . S
C1408 N1406 1.356 . S
C1409 C1403 1.363 . S
C1409 C1404 1.379 1_655 S
C1409 N1407 1.356 . S
N1410 C1402 1.356 . S
N1410 H1416 0.984 . S
N1410 H1417 0.984 . S
N1411 C1404 1.356 . S
N1411 H1414 0.984 . S
N1411 H1415 0.985 . S
H1412 N1407 0.984 . S
H1413 N1407 0.985 . S
H1414 N1411 0.984 . S
H1415 N1411 0.985 . S
H1416 N1410 0.984 . S
H1417 N1410 0.984 . S
H1418 N1406 0.984 . S
H1419 N1406 0.985 . S
C1420 C1421 1.363 . S
C1420 C1426 1.379 . S
C1420 N1428 1.356 . S
C1421 C1420 1.363 . S
C1421 C1427 1.363 . S
C1422 C1423 1.363 . S
C1422 C1427 1.379 . S
C1422 N1429 1.356 . S
C1423 C1422 1.363 . S
C1423 C1426 1.363 . S
N1424 C1426 1.356 . S
N1424 H1436 0.984 . S
N1424 H1437 0.985 . S
N1425 C1427 1.356 . S
N1425 H1430 0.984 . S
N1425 H1431 0.985 . S
C1426 C1420 1.379 . S
C1426 C1423 1.363 . S
C1426 N1424 1.356 . S
C1427 C1421 1.363 . S
C1427 C1422 1.379 . S
C1427 N1425 1.356 . S
N1428 C1420 1.356 . S
N1428 H1434 0.984 . S
N1428 H1435 0.984 . S
N1429 C1422 1.356 . S
N1429 H1432 0.984 . S
N1429 H1433 0.985 . S
H1430 N1425 0.984 . S
H1431 N1425 0.985 . S
H1432 N1429 0.984 . S
H1433 N1429 0.985 . S
H1434 N1428 0.984 . S
H1435 N1428 0.984 . S
H1436 N1424 0.984 . S
H1437 N1424 0.985 . S
C1438 C1439 1.363 . S
C1438 C1444 1.379 . S
C1438 N1446 1.356 . S
C1439 C1438 1.363 . S
C1439 C1445 1.363 . S
C1440 C1441 1.363 . S
C1440 C1445 1.379 . S
C1440 N1447 1.356 . S
C1441 C1440 1.363 . S
C1441 C1444 1.363 . S
N1442 C1444 1.356 . S
N1442 H1454 0.984 . S
N1442 H1455 0.985 . S
N1443 C1445 1.356 . S
N1443 H1448 0.984 . S
N1443 H1449 0.985 . S
C1444 C1438 1.379 . S
C1444 C1441 1.363 . S
C1444 N1442 1.356 . S
C1445 C1439 1.363 . S
C1445 C1440 1.379 . S
C1445 N1443 1.356 . S
N1446 C1438 1.356 . S
N1446 H1452 0.984 . S
N1446 H1453 0.984 . S
N1447 C1440 1.356 . S
N1447 H1450 0.984 . S
N1447 H1451 0.985 . S
H1448 N1443 0.984 . S
H1449 N1443 0.985 . S
H1450 N1447 0.984 . S
H1451 N1447 0.985 . S
H1452 N1446 0.984 . S
H1453 N1446 0.984 . S
H1454 N1442 0.984 . S
H1455 N1442 0.985 . S
C1456 C1457 1.363 . S
C1456 C1462 1.379 . S
C1456 N1464 1.356 . S
C1457 C1456 1.363 . S
C1457 C1463 1.363 1_556 S
C1458 C1459 1.363 1_554 S
C1458 C1463 1.379 . S
C1458 N1465 1.356 . S
C1459 C1458 1.363 1_556 S
C1459 C1462 1.363 . S
N1460 C1462 1.356 . S
N1460 H1472 0.984 . S
N1460 H1473 0.985 . S
N1461 C1463 1.356 . S
N1461 H1466 0.984 . S
N1461 H1467 0.985 . S
C1462 C1456 1.379 . S
C1462 C1459 1.363 . S
C1462 N1460 1.356 . S
C1463 C1457 1.363 1_554 S
C1463 C1458 1.379 . S
C1463 N1461 1.356 . S
N1464 C1456 1.356 . S
N1464 H1470 0.984 . S
N1464 H1471 0.984 . S
N1465 C1458 1.356 . S
N1465 H1468 0.984 . S
N1465 H1469 0.985 . S
H1466 N1461 0.984 . S
H1467 N1461 0.985 . S
H1468 N1465 0.984 . S
H1469 N1465 0.985 . S
H1470 N1464 0.984 . S
H1471 N1464 0.984 . S
H1472 N1460 0.984 . S
H1473 N1460 0.985 . S
C1474 C1475 1.363 . S
C1474 C1480 1.379 . S
C1474 N1482 1.356 . S
C1475 C1474 1.363 . S
C1475 C1481 1.363 . S
C1476 C1477 1.363 . S
C1476 C1481 1.379 . S
C1476 N1483 1.356 . S
C1477 C1476 1.363 . S
C1477 C1480 1.363 . S
N1478 C1480 1.356 . S
N1478 H1490 0.984 . S
N1478 H1491 0.985 . S
N1479 C1481 1.356 . S
N1479 H1484 0.984 . S
N1479 H1485 0.985 . S
C1480 C1474 1.379 . S
C1480 C1477 1.363 . S
C1480 N1478 1.356 . S
C1481 C1475 1.363 . S
C1481 C1476 1.379 . S
C1481 N1479 1.356 . S
N1482 C1474 1.356 . S
N1482 H1488 0.984 . S
N1482 H1489 0.984 . S
N1483 C1476 1.356 . S
N1483 H1486 0.984 . S
N1483 H1487 0.985 . S
H1484 N1479 0.984 . S
H1485 N1479 0.985 . S
H1486 N1483 0.984 . S
H1487 N1483 0.985 . S
H1488 N1482 0.984 . S
H1489 N1482 0.984 . S
H1490 N1478 0.984 . S
H1491 N1478 0.985 . S
C1492 C1493 1.363 . S
C1492 C1498 1.379 . S
C1492 N1500 1.356 . S
C1493 C1492 1.363 . S
C1493 C1499 1.363 1_554 S
C1494 C1495 1.363 1_556 S
C1494 C1499 1.379 . S
C1494 N1501 1.356 . S
C1495 C1494 1.363 1_554 S
C1495 C1498 1.363 . S
N1496 C1498 1.356 . S
N1496 H1508 0.984 . S
N1496 H1509 0.985 . S
N1497 C1499 1.356 . S
N1497 H1502 0.984 . S
N1497 H1503 0.985 . S
C1498 C1492 1.379 . S
C1498 C1495 1.363 . S
C1498 N1496 1.356 . S
C1499 C1493 1.363 1_556 S
C1499 C1494 1.379 . S
C1499 N1497 1.356 . S
N1500 C1492 1.356 . S
N1500 H1506 0.984 . S
N1500 H1507 0.984 . S
N1501 C1494 1.356 . S
N1501 H1504 0.984 . S
N1501 H1505 0.985 . S
H1502 N1497 0.984 . S
H1503 N1497 0.985 . S
H1504 N1501 0.984 . S
H1505 N1501 0.985 . S
H1506 N1500 0.984 . S
H1507 N1500 0.984 . S
H1508 N1496 0.984 . S
H1509 N1496 0.985 . S
C1510 C1511 1.363 . S
C1510 C1516 1.379 . S
C1510 N1518 1.356 . S
C1511 C1510 1.363 . S
C1511 C1517 1.363 . S
C1512 C1513 1.363 . S
C1512 C1517 1.379 . S
C1512 N1519 1.356 . S
C1513 C1512 1.363 . S
C1513 C1516 1.363 . S
N1514 C1516 1.356 . S
N1514 H1526 0.984 . S
N1514 H1527 0.985 . S
N1515 C1517 1.356 . S
N1515 H1520 0.984 . S
N1515 H1521 0.985 . S
C1516 C1510 1.379 . S
C1516 C1513 1.363 . S
C1516 N1514 1.356 . S
C1517 C1511 1.363 . S
C1517 C1512 1.379 . S
C1517 N1515 1.356 . S
N1518 C1510 1.356 . S
N1518 H1524 0.984 . S
N1518 H1525 0.984 . S
N1519 C1512 1.356 . S
N1519 H1522 0.984 . S
N1519 H1523 0.985 . S
H1520 N1515 0.984 . S
H1521 N1515 0.985 . S
H1522 N1519 0.984 . S
H1523 N1519 0.985 . S
H1524 N1518 0.984 . S
H1525 N1518 0.984 . S
H1526 N1514 0.984 . S
H1527 N1514 0.985 . S
C1528 C1529 1.363 . S
C1528 C1534 1.379 1_655 S
C1528 N1536 1.356 . S
C1529 C1528 1.363 . S
C1529 C1535 1.363 . S
C1530 C1531 1.363 . S
C1530 C1535 1.379 1_455 S
C1530 N1537 1.356 . S
C1531 C1530 1.363 . S
C1531 C1534 1.363 . S
N1532 C1534 1.356 . S
N1532 H1544 0.984 . S
N1532 H1545 0.985 . S
N1533 C1535 1.356 . S
N1533 H1538 0.984 . S
N1533 H1539 0.985 . S
C1534 C1528 1.379 1_455 S
C1534 C1531 1.363 . S
C1534 N1532 1.356 . S
C1535 C1529 1.363 . S
C1535 C1530 1.379 1_655 S
C1535 N1533 1.356 . S
N1536 C1528 1.356 . S
N1536 H1542 0.984 . S
N1536 H1543 0.984 . S
N1537 C1530 1.356 . S
N1537 H1540 0.984 . S
N1537 H1541 0.985 . S
H1538 N1533 0.984 . S
H1539 N1533 0.985 . S
H1540 N1537 0.984 . S
H1541 N1537 0.985 . S
H1542 N1536 0.984 . S
H1543 N1536 0.984 . S
H1544 N1532 0.984 . S
H1545 N1532 0.985 . S
C1546 C1547 1.363 . S
C1546 C1552 1.379 . S
C1546 N1554 1.356 . S
C1547 C1546 1.363 . S
C1547 C1553 1.363 . S
C1548 C1549 1.363 . S
C1548 C1553 1.379 . S
C1548 N1555 1.356 . S
C1549 C1548 1.363 . S
C1549 C1552 1.363 . S
N1550 C1552 1.356 . S
N1550 H1562 0.984 . S
N1550 H1563 0.985 . S
N1551 C1553 1.356 . S
N1551 H1556 0.984 . S
N1551 H1557 0.985 . S
C1552 C1546 1.379 . S
C1552 C1549 1.363 . S
C1552 N1550 1.356 . S
C1553 C1547 1.363 . S
C1553 C1548 1.379 . S
C1553 N1551 1.356 . S
N1554 C1546 1.356 . S
N1554 H1560 0.984 . S
N1554 H1561 0.984 . S
N1555 C1548 1.356 . S
N1555 H1558 0.984 . S
N1555 H1559 0.985 . S
H1556 N1551 0.984 . S
H1557 N1551 0.985 . S
H1558 N1555 0.984 . S
H1559 N1555 0.985 . S
H1560 N1554 0.984 . S
H1561 N1554 0.984 . S
H1562 N1550 0.984 . S
H1563 N1550 0.985 . S
C1564 C1565 1.363 . S
C1564 C1570 1.379 . S
C1564 N1572 1.356 . S
C1565 C1564 1.363 . S
C1565 C1571 1.363 . S
C1566 C1567 1.363 . S
C1566 C1571 1.379 . S
C1566 N1573 1.356 . S
C1567 C1566 1.363 . S
C1567 C1570 1.363 . S
N1568 C1570 1.356 . S
N1568 H1580 0.984 . S
N1568 H1581 0.985 . S
N1569 C1571 1.356 . S
N1569 H1574 0.984 . S
N1569 H1575 0.985 . S
C1570 C1564 1.379 . S
C1570 C1567 1.363 . S
C1570 N1568 1.356 . S
C1571 C1565 1.363 . S
C1571 C1566 1.379 . S
C1571 N1569 1.356 . S
N1572 C1564 1.356 . S
N1572 H1578 0.984 . S
N1572 H1579 0.984 . S
N1573 C1566 1.356 . S
N1573 H1576 0.984 . S
N1573 H1577 0.985 . S
H1574 N1569 0.984 . S
H1575 N1569 0.985 . S
H1576 N1573 0.984 . S
H1577 N1573 0.985 . S
H1578 N1572 0.984 . S
H1579 N1572 0.984 . S
H1580 N1568 0.984 . S
H1581 N1568 0.985 . S
C1582 C1583 1.363 . S
C1582 C1588 1.379 1_655 S
C1582 N1590 1.356 . S
C1583 C1582 1.363 . S
C1583 C1589 1.363 . S
C1584 C1585 1.363 . S
C1584 C1589 1.379 1_455 S
C1584 N1591 1.356 . S
C1585 C1584 1.363 . S
C1585 C1588 1.363 . S
N1586 C1588 1.356 . S
N1586 H1598 0.984 . S
N1586 H1599 0.985 . S
N1587 C1589 1.356 . S
N1587 H1592 0.984 . S
N1587 H1593 0.985 . S
C1588 C1582 1.379 1_455 S
C1588 C1585 1.363 . S
C1588 N1586 1.356 . S
C1589 C1583 1.363 . S
C1589 C1584 1.379 1_655 S
C1589 N1587 1.356 . S
N1590 C1582 1.356 . S
N1590 H1596 0.984 . S
N1590 H1597 0.984 . S
N1591 C1584 1.356 . S
N1591 H1594 0.984 . S
N1591 H1595 0.985 . S
H1592 N1587 0.984 . S
H1593 N1587 0.985 . S
H1594 N1591 0.984 . S
H1595 N1591 0.985 . S
H1596 N1590 0.984 . S
H1597 N1590 0.984 . S
H1598 N1586 0.984 . S
H1599 N1586 0.985 . S
C449 C325 1.729 . S
C451 C3 1.729 . S
C467 C283 1.729 . S
C469 C17 1.729 . S
C485 C297 1.729 . S
C487 C31 1.729 . S
C503 C311 1.729 . S
C505 C45 1.729 . S
C521 C59 1.729 . S
C523 C241 1.729 . S
C539 C255 1.729 . S
C541 C73 1.729 . S
C557 C87 1.729 . S
C559 C269 1.729 . S
C575 C101 1.729 . S
C577 C227 1.729 . S
C593 C437 1.729 . S
C595 C115 1.729 . S
C611 C129 1.729 . S
C613 C395 1.729 . S
C629 C143 1.729 . S
C631 C409 1.729 . S
C647 C157 1.729 . S
C649 C423 1.729 . S
C665 C171 1.729 . S
C667 C353 1.729 . S
C683 C185 1.729 . S
C685 C367 1.729 . S
C701 C199 1.729 . S
C703 C381 1.729 . S
C719 C213 1.729 . S
C721 C339 1.729 . S
C737 C7 1.361 . S
C739 C175 1.361 . S
C755 C413 1.361 . S
C757 C21 1.361 . S
C773 C35 1.361 . S
C775 C203 1.361 . S
C791 C441 1.361 . S
C793 C49 1.361 . S
C809 C119 1.361 . S
C811 C63 1.361 . S
C827 C77 1.361 . S
C829 C357 1.361 . S
C845 C91 1.361 . S
C847 C147 1.361 . S
C863 C105 1.361 . S
C865 C385 1.361 . S
C881 C301 1.361 . S
C883 C133 1.361 . S
C899 C329 1.361 . S
C901 C161 1.361 . S
C917 C189 1.361 . S
C919 C245 1.361 . S
C935 C273 1.361 . S
C937 C217 1.361 . S
C953 C399 1.361 . S
C955 C231 1.361 . S
C971 C259 1.361 . S
C973 C427 1.361 . S
C989 C343 1.361 . S
C991 C287 1.361 . S
C1007 C371 1.361 . S
C1009 C315 1.361 . S
C1025 C64 1.385 . S
C1027 C8 1.385 . S
C1043 C78 1.379 . S
C1045 C22 1.379 . S
C1061 C36 1.380 . S
C1063 C92 1.380 . S
C1079 C50 1.379 . S
C1081 C106 1.379 . S
C1097 C176 1.385 . S
C1099 C120 1.385 . S
C1115 C190 1.379 . S
C1117 C134 1.379 . S
C1133 C204 1.380 . S
C1135 C148 1.380 . S
C1151 C162 1.379 . S
C1153 C218 1.379 . S
C1169 C232 1.380 . S
C1171 C288 1.380 . S
C1187 C246 1.379 . S
C1189 C302 1.379 . S
C1205 C260 1.385 . S
C1207 C316 1.385 . S
C1223 C274 1.379 . S
C1225 C330 1.379 . S
C1241 C400 1.380 . S
C1243 C344 1.380 . S
C1259 C414 1.379 . S
C1261 C358 1.379 . S
C1277 C428 1.385 . S
C1279 C372 1.385 . S
C1295 C442 1.379 . S
C1297 C386 1.379 . S
C1313 C429 1.528 . S
C1315 C9 1.528 . S
C1331 C23 1.527 . S
C1333 C219 1.527 . S
C1349 C401 1.528 . S
C1351 C37 1.528 . S
C1367 C51 1.527 . S
C1369 C191 1.527 . S
C1385 C373 1.528 . S
C1387 C65 1.528 . S
C1403 C79 1.527 . S
C1405 C163 1.527 . S
C1421 C93 1.528 . S
C1423 C345 1.528 . S
C1439 C135 1.527 . S
C1441 C107 1.527 . S
C1457 C121 1.528 . S
C1459 C317 1.528 . S
C1475 C289 1.528 . S
C1477 C149 1.528 . S
C1493 C177 1.528 . S
C1495 C261 1.528 . S
C1511 C205 1.528 . S
C1513 C233 1.528 . S
C1529 C443 1.527 . S
C1531 C247 1.527 . S
C1547 C275 1.527 . S
C1549 C415 1.527 . S
C1565 C303 1.527 . S
C1567 C387 1.527 . S
C1583 C359 1.527 . S
C1585 C331 1.527 . S
