# Generated by pormake.
# Topology ilc, (8)-cn, num edge types: 1
# Building blocks:
#     Node 0, Type 0, BuildingBlock: NUHRAL_clean_sbu_3, # of connection points: 8
#     Node 1, Type 0, BuildingBlock: NUHRAL_clean_sbu_3, # of connection points: 8
#     Node 2, Type 0, BuildingBlock: NUHRAL_clean_sbu_3, # of connection points: 8
#     Edge 3, Type (0, 0), BuildingBlock: XUDNAN_clean_linker_2, # of connection points: 2
#     Edge 4, Type (0, 0), BuildingBlock: XUDNAN_clean_linker_2, # of connection points: 2
#     Edge 5, Type (0, 0), BuildingBlock: XUDNAN_clean_linker_2, # of connection points: 2
#     Edge 6, Type (0, 0), BuildingBlock: XUDNAN_clean_linker_2, # of connection points: 2
#     Edge 7, Type (0, 0), BuildingBlock: XUDNAN_clean_linker_2, # of connection points: 2
#     Edge 8, Type (0, 0), BuildingBlock: XUDNAN_clean_linker_2, # of connection points: 2
#     Edge 9, Type (0, 0), BuildingBlock: XUDNAN_clean_linker_2, # of connection points: 2
#     Edge 10, Type (0, 0), BuildingBlock: XUDNAN_clean_linker_2, # of connection points: 2
#     Edge 11, Type (0, 0), BuildingBlock: XUDNAN_clean_linker_2, # of connection points: 2
#     Edge 12, Type (0, 0), BuildingBlock: XUDNAN_clean_linker_2, # of connection points: 2
#     Edge 13, Type (0, 0), BuildingBlock: XUDNAN_clean_linker_2, # of connection points: 2
#     Edge 14, Type (0, 0), BuildingBlock: XUDNAN_clean_linker_2, # of connection points: 2
# Relax obj value: 0.164
# Max RMSD: 0.202
# Mean RMSD: 0.202
data_MOF--net-ilc--node1-NUHRAL_clean_sbu_3--edge1-XUDNAN_clean_linker_2
_symmetry_space_group_name_H-M    P1
_symmetry_Int_Tables_number       1
_symmetry_cell_setting            triclinic
loop_
_symmetry_equiv_pos_as_xyz
'x, y, z'
_cell_length_a     21.92891
_cell_length_b     30.673736
_cell_length_c     19.569829
_cell_angle_alpha  101.75559
_cell_angle_beta   73.87864
_cell_angle_gamma 141.51438
loop_
_atom_site_label
_atom_site_type_symbol
_atom_site_fract_x
_atom_site_fract_y
_atom_site_fract_z
_atom_type_partial_charge
C0 C 0.22483 0.04435 0.17089 0.0
C1 C 0.21935 0.07026 0.23687 0.0
C2 C 0.22583 0.05713 0.29668 0.0
C3 C 0.24432 0.02186 0.28945 0.0
C4 C 0.25232 0.99643 0.2245 0.0
C5 C 0.24042 1.00647 0.16422 0.0
O6 O 1.02574 0.04059 0.07216 0.0
Tb7 Tb 0.16541 0.10973 0.10491 0.0
O8 O 0.174 0.16351 0.20164 0.0
O9 O 0.89759 0.93062 0.04259 0.0
Eu10 Eu 0.98049 0.98498 0.93491 0.0
O11 O 0.27245 0.11847 0.09172 0.0
C12 C 0.93038 0.03486 0.91523 0.0
O13 O 0.11348 0.01862 0.12182 0.0
O14 O 0.14019 0.06358 0.94989 0.0
O15 O 0.24384 0.16762 1.00454 0.0
C16 C 0.20502 0.05309 0.1125 0.0
C17 C 0.93028 0.86108 0.85194 0.0
O18 O 0.91206 0.84111 0.91533 0.0
C19 C 0.94349 0.97492 0.0932 0.0
C20 C 0.21255 0.13266 0.9454 0.0
O21 O 0.95407 0.91519 0.84513 0.0
C22 C 0.88377 0.02029 0.85907 0.0
C23 C 0.86154 0.0571 0.77936 0.0
C24 C 0.88724 0.06517 0.84334 0.0
C25 C 0.85038 0.96618 0.81309 0.0
C26 C 0.84177 0.96547 0.74468 0.0
C27 C 0.84304 1.009 0.72988 0.0
C28 C 0.17727 0.20833 0.20164 0.0
O29 O 0.17872 0.22225 0.14159 0.0
O30 O 0.87336 0.98116 0.95766 0.0
O31 O 1.02116 0.06742 0.89309 0.0
H32 H 0.20327 0.0966 0.24251 0.0
H33 H 0.24239 1.00731 0.33676 0.0
H34 H 0.24137 0.98432 0.1138 0.0
H35 H 0.91175 0.10648 0.87942 0.0
H36 H 0.84612 0.93125 0.82678 0.0
H37 H 0.84032 1.01132 0.67659 0.0
C38 C 0.79073 0.31932 0.47922 0.0
C39 C 0.68754 0.26656 0.5054 0.0
C40 C 0.64258 0.21442 0.55094 0.0
C41 C 0.68955 0.1998 0.54786 0.0
C42 C 0.79271 0.25059 0.52053 0.0
C43 C 0.84377 0.31139 0.48683 0.0
O44 O 0.64848 0.35956 0.41583 0.0
Tb45 Tb 0.80131 0.43638 0.42997 0.0
O46 O 0.85201 0.5245 0.49209 0.0
O47 O 0.50749 0.24843 0.39805 0.0
Eu48 Eu 0.57811 0.28346 0.27984 0.0
O49 O 0.81756 0.41102 0.509 0.0
C50 C 0.54764 0.33871 0.23468 0.0
O51 O 0.85571 0.40015 0.39664 0.0
O52 O 0.73646 0.3635 0.29711 0.0
O53 O 0.87146 0.47629 0.32096 0.0
C54 C 0.84446 0.38862 0.46244 0.0
C55 C 0.56336 0.17318 0.19891 0.0
O56 O 0.57403 0.17018 0.25999 0.0
C57 C 0.56507 0.29663 0.4439 0.0
C58 C 0.81734 0.42917 0.27355 0.0
O59 O 0.55983 0.21322 0.19268 0.0
C60 C 0.54755 0.34584 0.16242 0.0
C61 C 0.53676 0.3872 0.07704 0.0
C62 C 0.53356 0.38088 0.14795 0.0
C63 C 0.56277 0.31676 0.10645 0.0
C64 C 0.56801 0.32451 0.03668 0.0
C65 C 0.55685 0.36052 0.02238 0.0
C66 C 0.85955 0.56626 0.46934 0.0
O67 O 0.84455 0.55838 0.40515 0.0
O68 O 0.47499 0.27411 0.2602 0.0
O69 O 0.63488 0.3751 0.24488 0.0
H70 H 0.64978 0.27658 0.50668 0.0
H71 H 0.65265 0.1581 0.58251 0.0
H72 H 0.92447 0.35393 0.4711 0.0
H73 H 0.51863 0.40154 0.19104 0.0
H74 H 0.57119 0.28847 0.11711 0.0
H75 H 0.55958 0.36523 0.96778 0.0
C76 C 0.51565 0.69498 0.80605 0.0
C77 C 0.46275 0.68805 0.87235 0.0
C78 C 0.44521 0.65717 0.92987 0.0
C79 C 0.48159 0.63408 0.92213 0.0
C80 C 0.53277 0.63873 0.85691 0.0
C81 C 0.54934 0.66878 0.79755 0.0
O82 O 0.31385 0.69316 0.79791 0.0
Tb83 Tb 0.46291 0.76239 0.73154 0.0
O84 O 0.51996 0.85551 0.78865 0.0
O85 O 0.23391 0.58919 0.74342 0.0
Eu86 Eu 0.28697 0.62716 0.63113 0.0
O87 O 0.57583 0.7916 0.76138 0.0
C88 C 0.23127 0.67201 0.60814 0.0
O89 O 0.45655 0.68916 0.71621 0.0
O90 O 0.44295 0.69799 0.56806 0.0
O91 O 0.50777 0.79745 0.62276 0.0
C92 C 0.53311 0.72918 0.74738 0.0
C93 C 0.22522 0.49414 0.58536 0.0
O94 O 0.24658 0.50539 0.64783 0.0
C95 C 0.2404 0.6241 0.7992 0.0
C96 C 0.50796 0.7658 0.56602 0.0
O97 O 0.23066 0.53522 0.56361 0.0
C98 C 0.26436 0.70978 0.54494 0.0
C99 C 0.26272 0.76569 0.47393 0.0
C100 C 0.23031 0.73305 0.53837 0.0
C101 C 0.32655 0.71714 0.48699 0.0
C102 C 0.3524 0.74478 0.42212 0.0
C103 C 0.32549 0.77276 0.41757 0.0
C104 C 0.50218 0.8573 0.85886 0.0
O105 O 0.45614 0.80389 0.89614 0.0
O106 O 0.18033 0.6071 0.59679 0.0
O107 O 0.30144 0.70716 0.64436 0.0
H108 H 0.43508 0.70658 0.87924 0.0
H109 H 0.46876 0.61116 0.96786 0.0
H110 H 0.58757 0.67181 0.74608 0.0
H111 H 0.17828 0.72457 0.58157 0.0
H112 H 0.34757 0.69544 0.49049 0.0
H113 H 0.34299 0.79269 0.36675 0.0
H114 H 0.79167 0.92364 0.61029 0.0
H115 H 0.95632 0.95496 0.73901 0.0
H116 H 0.06575 0.97708 0.63228 0.0
H117 H 0.86115 0.86762 0.43952 0.0
H118 H 0.87284 0.91578 0.3859 0.0
H119 H 0.78131 0.87243 0.46811 0.0
H120 H 0.86128 0.99449 0.50976 0.0
H121 H 0.95102 0.03417 0.42734 0.0
H122 H 0.99253 0.06784 0.5111 0.0
H123 H 0.19196 0.03856 0.52898 0.0
H124 H 0.30242 0.09815 0.41438 0.0
H125 H 0.06369 0.02581 0.34301 0.0
C126 C 0.84846 0.93261 0.61627 0.0
C127 C 0.8665 0.94014 0.68438 0.0
C128 C 0.93839 0.94818 0.68895 0.0
C129 C 1.00315 0.96215 0.62831 0.0
C130 C 0.99513 0.96753 0.56401 0.0
C131 C 0.91742 0.95006 0.55627 0.0
C132 C 0.93462 0.96888 0.48185 0.0
C133 C 0.85773 0.90216 0.44134 0.0
C134 C 0.93477 0.01925 0.48253 0.0
C135 C 0.03768 1.00503 0.4522 0.0
C136 C 0.07062 1.00359 0.50107 0.0
C137 C 0.16666 0.03903 0.48966 0.0
C138 C 0.22905 0.07337 0.42467 0.0
C139 C 0.18964 0.06308 0.36887 0.0
C140 C 0.0956 0.03347 0.38419 0.0
H141 H 0.73311 0.32562 0.63247 0.0
H142 H 0.46318 0.09999 0.63561 0.0
H143 H 0.42153 0.10134 0.76759 0.0
H144 H 0.78749 0.31906 0.78345 0.0
H145 H 0.85034 0.40437 0.81221 0.0
H146 H 0.85035 0.38447 0.71909 0.0
H147 H 0.77306 0.4176 0.71179 0.0
H148 H 0.78016 0.44086 0.80378 0.0
H149 H 0.66319 0.37889 0.77569 0.0
H150 H 0.41613 0.1302 0.89993 0.0
H151 H 0.4356 0.18501 0.01732 0.0
H152 H 0.71689 0.38906 0.92153 0.0
C153 C 0.66256 0.27664 0.66026 0.0
C154 C 0.59853 0.21291 0.6239 0.0
C155 C 0.5108 0.14944 0.66272 0.0
C156 C 0.48793 0.1498 0.73738 0.0
C157 C 0.556 0.21368 0.77145 0.0
C158 C 0.64154 0.2758 0.73372 0.0
C159 C 0.70825 0.33671 0.78143 0.0
C160 C 0.80474 0.36259 0.77356 0.0
C161 C 0.73244 0.39698 0.76731 0.0
C162 C 0.6418 0.30086 0.85265 0.0
C163 C 0.55613 0.22942 0.84628 0.0
C164 C 0.48279 0.18596 0.90535 0.0
C165 C 0.49432 0.21723 0.9717 0.0
C166 C 0.57656 0.29079 0.97731 0.0
C167 C 0.65373 0.33253 0.91806 0.0
H168 H 0.50203 0.76576 1.0049 0.0
H169 H 0.28682 0.54171 0.01526 0.0
H170 H 0.2518 0.54343 0.14628 0.0
H171 H 0.60781 0.81155 0.14022 0.0
H172 H 0.62052 0.87606 0.18113 0.0
H173 H 0.61892 0.85992 0.08753 0.0
H174 H 0.46832 0.82893 0.09761 0.0
H175 H 0.4747 0.85223 0.18981 0.0
H176 H 0.35913 0.76774 0.16568 0.0
H177 H 0.26211 0.57226 0.27239 0.0
H178 H 0.27334 0.61908 0.39201 0.0
H179 H 0.4836 0.82558 0.3005 0.0
C180 C 0.44386 0.7167 0.03482 0.0
C181 C 0.39715 0.65367 1.00108 0.0
C182 C 0.32283 0.59031 0.04116 0.0
C183 C 0.30358 0.59097 0.11523 0.0
C184 C 0.35759 0.6551 0.14735 0.0
C185 C 0.42288 0.7163 0.10883 0.0
C186 C 0.47221 0.77818 0.15694 0.0
C187 C 0.58658 0.83471 0.14049 0.0
C188 C 0.44172 0.80854 0.15229 0.0
C189 C 0.4265 0.74227 0.22808 0.0
C190 C 0.36169 0.67154 0.22107 0.0
C191 C 0.31125 0.62736 0.279 0.0
C192 C 0.32014 0.65498 0.34678 0.0
C193 C 0.37855 0.72591 0.35544 0.0
C194 C 0.43758 0.77101 0.29525 0.0
H195 H 0.35675 0.89554 0.46762 0.0
H196 H 0.09151 0.67792 0.42605 0.0
H197 H 0.07159 0.71357 0.34008 0.0
H198 H 0.27189 0.96077 0.44654 0.0
H199 H 0.39721 0.04153 0.4062 0.0
H200 H 0.37727 0.99613 0.47176 0.0
H201 H 0.48839 0.99551 0.3813 0.0
H202 H 0.50505 0.03856 0.31536 0.0
H203 H 0.45565 0.95612 0.29609 0.0
H204 H 0.08519 0.77558 0.25462 0.0
H205 H 0.12007 0.85743 0.19141 0.0
H206 H 0.38755 0.0326 0.27892 0.0
C207 C 0.29067 0.85547 0.44412 0.0
C208 C 0.22338 0.7839 0.45569 0.0
C209 C 0.1412 0.73287 0.42044 0.0
C210 C 0.13072 0.7528 0.37025 0.0
C211 C 0.20203 0.82403 0.35678 0.0
C212 C 0.27917 0.87451 0.39403 0.0
C213 C 0.34937 0.94747 0.3672 0.0
C214 C 0.34884 0.98888 0.42641 0.0
C215 C 0.45582 0.98662 0.33814 0.0
C216 C 0.30074 0.93029 0.30829 0.0
C217 C 0.21516 0.85893 0.30336 0.0
C218 C 0.1528 0.83156 0.25746 0.0
C219 C 0.17429 0.87841 0.22024 0.0
C220 C 0.2579 0.95162 0.2287 0.0
C221 C 0.32542 0.97717 0.26902 0.0
H222 H 0.21441 0.47193 0.44245 0.0
H223 H 0.18934 0.39371 0.62294 0.0
H224 H 0.16568 0.30852 0.54617 0.0
H225 H 1.03257 0.30211 0.35509 0.0
H226 H 0.10405 0.34011 0.2669 0.0
H227 H 0.11033 0.39107 0.33723 0.0
H228 H 0.30267 0.48745 0.31403 0.0
H229 H 0.29739 0.43692 0.2439 0.0
H230 H 0.35679 0.46462 0.31662 0.0
H231 H 0.15566 0.23652 0.44839 0.0
H232 H 0.15784 0.18237 0.33701 0.0
H233 H 0.19275 0.30809 0.21862 0.0
C234 C 0.2025 0.4362 0.46601 0.0
C235 C 0.2034 0.43957 0.53903 0.0
C236 C 0.18908 0.39244 0.5673 0.0
C237 C 0.17533 0.34359 0.52408 0.0
C238 C 0.17689 0.34257 0.45217 0.0
C239 C 0.18979 0.38744 0.42326 0.0
C240 C 0.19305 0.37757 0.34359 0.0
C241 C 0.10473 0.35113 0.32459 0.0
C242 C 0.29344 0.44569 0.30212 0.0
C243 C 0.18239 0.32144 0.3321 0.0
C244 C 0.17216 0.30151 0.39559 0.0
C245 C 0.16323 0.25155 0.39839 0.0
C246 C 0.16494 0.22122 0.3347 0.0
C247 C 0.17579 0.24095 0.26879 0.0
C248 C 0.18422 0.29165 0.26797 0.0
H249 H 0.53369 0.71996 0.43614 0.0
H250 H 0.63731 0.90287 0.54166 0.0
H251 H 0.75945 0.97413 0.43269 0.0
H252 H 0.76929 0.80323 0.33407 0.0
H253 H 0.72051 0.75315 0.25604 0.0
H254 H 0.64023 0.71676 0.34246 0.0
H255 H 0.51718 0.69565 0.29742 0.0
H256 H 0.60065 0.73227 0.21191 0.0
H257 H 0.56581 0.76885 0.25891 0.0
H258 H 0.88206 0.02894 0.32048 0.0
H259 H 0.97846 0.06104 0.19851 0.0
H260 H 0.79401 0.84369 0.15864 0.0
C261 C 0.58207 0.775 0.43622 0.0
C262 C 0.57757 0.8064 0.49831 0.0
C263 C 0.64086 0.87817 0.49558 0.0
C264 C 0.71005 0.91896 0.43378 0.0
C265 C 0.71535 0.88739 0.3747 0.0
C266 C 0.65206 0.81681 0.37443 0.0
C267 C 0.67363 0.7966 0.30245 0.0
C268 C 0.70267 0.76572 0.30934 0.0
C269 C 0.58381 0.7451 0.26549 0.0
C270 C 0.76138 0.86762 0.26388 0.0
C271 C 0.7842 0.919 0.30722 0.0
C272 C 0.86399 0.9891 0.28548 0.0
C273 C 0.91951 1.00704 0.21635 0.0
C274 C 0.89474 0.95521 0.16924 0.0
C275 C 0.81505 0.88452 0.19366 0.0
H276 H 0.74038 0.13602 0.51834 0.0
H277 H 0.9564 0.35157 0.5853 0.0
H278 H 1.0018 0.32848 0.66228 0.0
H279 H 0.6423 0.06621 0.68483 0.0
H280 H 0.61764 0.99426 0.65857 0.0
H281 H 0.62066 0.032 0.59649 0.0
H282 H 0.75298 0.05295 0.50689 0.0
H283 H 0.75828 0.01997 0.5686 0.0
H284 H 0.87015 0.10656 0.53047 0.0
H285 H 1.01639 0.27559 0.73736 0.0
H286 H 0.99425 0.20004 0.80022 0.0
H287 H 0.7382 1.01754 0.70357 0.0
C288 C 0.80033 0.1792 0.54685 0.0
C289 C 0.84555 0.24564 0.54507 0.0
C290 C 0.92234 0.30056 0.58434 0.0
C291 C 0.94772 0.28763 0.62899 0.0
C292 C 0.89556 0.21966 0.63371 0.0
C293 C 0.82335 0.16658 0.59338 0.0
C294 C 0.76834 0.09635 0.61363 0.0
C295 C 0.65562 0.0442 0.63994 0.0
C296 C 0.78857 0.06724 0.55111 0.0
C297 C 0.81805 0.11726 0.67321 0.0
C298 C 0.8941 0.18871 0.68272 0.0
C299 C 0.95596 0.21942 0.73078 0.0
C300 C 0.94193 0.176 0.76719 0.0
C301 C 0.86482 0.10264 0.75661 0.0
C302 C 0.79903 0.07343 0.71223 0.0
H303 H 0.82141 0.56504 0.61542 0.0
H304 H 0.93889 0.68571 0.43028 0.0
H305 H 0.97766 0.77641 0.50853 0.0
H306 H 0.69588 0.59833 0.71728 0.0
H307 H 0.71724 0.6003 0.80085 0.0
H308 H 0.70696 0.54825 0.72996 0.0
H309 H 0.87885 0.61305 0.73933 0.0
H310 H 0.8918 0.66729 0.80871 0.0
H311 H 0.98668 0.70717 0.72916 0.0
H312 H 1.01338 0.85705 0.60655 0.0
H313 H 1.01883 0.91374 0.71826 0.0
H314 H 0.85054 0.73233 0.83981 0.0
C315 C 0.85631 0.61098 0.59144 0.0
C316 C 0.88076 0.61976 0.51661 0.0
C317 C 0.92265 0.6791 0.48728 0.0
C318 C 0.94449 0.73071 0.53133 0.0
C319 C 0.92021 0.72077 0.60479 0.0
C320 C 0.87477 0.66164 0.63478 0.0
C321 C 0.84906 0.66128 0.71533 0.0
C322 C 0.73553 0.5983 0.74238 0.0
C323 C 0.9049 0.66224 0.75018 0.0
C324 C 0.88795 0.72982 0.72592 0.0
C325 C 0.93038 0.76373 0.66135 0.0
C326 C 0.97712 0.82978 0.65717 0.0
C327 C 0.97835 0.8612 0.72052 0.0
C328 C 0.93031 0.82619 0.78702 0.0
C329 C 0.88586 0.75987 0.78976 0.0
H330 H 0.38458 0.17448 0.51979 0.0
H331 H 0.66762 0.39067 0.54804 0.0
H332 H 0.61021 0.37348 0.67813 0.0
H333 H 0.24453 0.18021 0.66804 0.0
H334 H 0.14975 0.08946 0.69133 0.0
H335 H 0.21575 0.12042 0.60041 0.0
H336 H 0.28057 0.0703 0.60258 0.0
H337 H 0.19793 0.03526 0.6886 0.0
H338 H 0.32631 0.09092 0.68023 0.0
H339 H 0.51462 0.33289 0.80835 0.0
H340 H 0.40059 0.27034 0.92214 0.0
H341 H 0.17746 0.08125 0.80973 0.0
C342 C 0.43538 0.21778 0.55329 0.0
C343 C 0.53192 0.28363 0.52294 0.0
C344 C 0.59442 0.33932 0.56932 0.0
C345 C 0.5622 0.33006 0.64373 0.0
C346 C 0.46658 0.26469 0.67182 0.0
C347 C 0.40411 0.20955 0.62794 0.0
C348 C 0.30225 0.14644 0.67144 0.0
C349 C 0.22316 0.13289 0.6567 0.0
C350 C 0.27479 0.08185 0.65976 0.0
C351 C 0.31902 0.17228 0.7463 0.0
C352 C 0.4132 0.2415 0.74565 0.0
C353 C 0.44255 0.27803 0.80872 0.0
C354 C 0.37582 0.24219 0.87353 0.0
C355 C 0.27935 0.17059 0.87557 0.0
C356 C 0.2508 0.13564 0.81056 0.0
H357 H 0.64532 0.52476 0.07724 0.0
H358 H 0.37567 0.31341 0.02387 0.0
H359 H 0.36769 0.35974 0.942 0.0
H360 H 0.54626 0.58545 0.07619 0.0
H361 H 0.67031 0.67248 0.04667 0.0
H362 H 0.65177 0.62126 0.10176 0.0
H363 H 0.77806 0.63734 1.00621 0.0
H364 H 0.79539 0.68861 0.95288 0.0
H365 H 0.75822 0.6128 0.91603 0.0
H366 H 0.40183 0.42896 0.85416 0.0
H367 H 0.43351 0.5129 0.80082 0.0
H368 H 0.66844 0.67994 0.92036 0.0
C369 C 0.58245 0.4884 0.05059 0.0
C370 C 0.5122 0.41537 0.0555 0.0
C371 C 0.43109 0.36948 0.01966 0.0
C372 C 0.4266 0.39537 0.97249 0.0
C373 C 0.50128 0.46764 0.96425 0.0
C374 C 0.57394 0.51345 1.00554 0.0
C375 C 0.63905 0.58845 0.9909 0.0
C376 C 0.62604 0.61868 0.05783 0.0
C377 C 0.74921 0.63447 0.96478 0.0
C378 C 0.59461 0.57768 0.9325 0.0
C379 C 0.51638 0.50753 0.91717 0.0
C380 C 0.46229 0.48402 0.86616 0.0
C381 C 0.48245 0.5324 0.83459 0.0
C382 C 0.55445 0.60315 0.85523 0.0
C383 C 0.61508 0.62663 0.90179 0.0
H384 H 0.49413 0.88309 1.00201 0.0
H385 H 0.56072 0.96302 0.80074 0.0
H386 H 0.58256 0.05199 0.8648 0.0
H387 H 0.35566 0.90401 0.10452 0.0
H388 H 0.40444 0.9291 0.18299 0.0
H389 H 0.39475 0.87316 0.11988 0.0
H390 H 0.5851 0.96214 0.10926 0.0
H391 H 0.59238 1.01714 0.17256 0.0
H392 H 0.67353 0.05238 0.08628 0.0
H393 H 0.58388 0.1273 0.95442 0.0
H394 H 0.5855 0.19005 0.05763 0.0
H395 H 0.53135 0.06633 0.19846 0.0
C396 C 0.51416 0.91962 0.9712 0.0
C397 C 0.52506 0.91549 0.89614 0.0
C398 C 0.55176 0.96478 0.85814 0.0
C399 C 0.56392 1.01543 0.89423 0.0
C400 C 0.55035 1.01691 0.96848 0.0
C401 C 0.52778 0.97093 1.00629 0.0
C402 C 0.51829 0.98359 0.0856 0.0
C403 C 0.41198 0.9186 0.12554 0.0
C404 C 0.59699 1.00509 0.11516 0.0
C405 C 0.5391 0.044 0.08689 0.0
C406 C 0.55581 0.06184 0.01899 0.0
C407 C 0.57212 0.11413 1.00759 0.0
C408 C 0.5726 0.14945 0.06673 0.0
C409 C 0.55864 0.13346 0.13668 0.0
C410 C 0.54211 0.08003 0.14616 0.0
H411 H 0.2457 0.67114 0.93578 0.0
H412 H 0.05273 0.48664 0.80754 0.0
H413 H 0.91739 0.4199 0.91336 0.0
H414 H 0.16583 0.57952 0.08772 0.0
H415 H 0.17487 0.63534 0.151 0.0
H416 H 0.25336 0.6695 0.06396 0.0
H417 H 0.18707 0.70701 0.04419 0.0
H418 H 0.10701 0.67191 0.13081 0.0
H419 H 0.05449 0.64253 0.05294 0.0
H420 H 0.80425 0.37168 0.03353 0.0
H421 H 0.72878 0.34317 0.16143 0.0
H422 H 0.99457 0.55825 0.21175 0.0
C423 C 0.17458 0.61697 0.92975 0.0
C424 C 0.15971 0.58433 0.86318 0.0
C425 C 0.06609 0.51287 0.85792 0.0
C426 C 0.98836 0.47461 0.9176 0.0
C427 C 1.00523 0.50838 0.98232 0.0
C428 C 0.0963 0.57778 0.98896 0.0
C429 C 0.09733 0.60012 0.06566 0.0
C430 C 0.1776 0.62244 0.09375 0.0
C431 C 0.11233 0.65886 0.07384 0.0
C432 C 0.99288 0.53227 0.10107 0.0
C433 C 0.94059 0.48021 0.05195 0.0
C434 C 0.84434 0.41216 0.07243 0.0
C435 C 0.80174 0.39639 0.14524 0.0
C436 C 0.85509 0.44832 0.19669 0.0
C437 C 0.95106 0.51747 0.17381 0.0
loop_
_geom_bond_atom_site_label_1
_geom_bond_atom_site_label_2
_geom_bond_distance
_geom_bond_site_symmetry_2
_ccdc_geom_bond_type
C0 C1 1.387 . S
C0 C5 1.380 1_545 S
C0 C16 1.494 . S
C1 C0 1.387 . S
C1 C2 1.386 1_545 S
C1 H32 0.930 . S
C2 C1 1.386 1_565 S
C2 C3 1.397 . S
C3 C2 1.397 . S
C3 C4 1.393 . S
C3 H33 0.930 . S
C4 C3 1.393 . S
C4 C5 1.395 . S
C5 C0 1.380 1_565 S
C5 C4 1.395 . S
C5 H34 0.930 . S
O6 Tb7 2.295 1_655 S
O6 C19 1.242 1_545 S
Tb7 O6 2.295 1_455 S
Tb7 O8 2.312 . S
Tb7 O11 2.438 . S
Tb7 O13 2.472 . S
Tb7 O15 2.308 1_554 S
Tb7 C16 2.821 . S
O8 Tb7 2.312 . S
O8 C28 1.264 . S
O9 Eu10 2.308 1_554 S
O9 C19 1.243 . S
Eu10 O9 2.308 1_556 S
Eu10 C12 2.821 . S
Eu10 O14 2.295 1_655 S
Eu10 O21 2.312 . S
Eu10 O30 2.438 . S
Eu10 O31 2.472 . S
O11 Tb7 2.438 . S
O11 C16 1.263 . S
C12 Eu10 2.821 . S
C12 C22 1.494 . S
C12 O30 1.263 . S
C12 O31 1.264 . S
O13 Tb7 2.472 . S
O13 C16 1.264 . S
O14 Eu10 2.295 1_455 S
O14 C20 1.242 1_565 S
O15 Tb7 2.308 1_556 S
O15 C20 1.243 . S
C16 C0 1.494 . S
C16 Tb7 2.821 . S
C16 O11 1.263 . S
C16 O13 1.264 . S
C17 O18 1.260 . S
C17 O21 1.264 . S
O18 C17 1.260 . S
C19 O6 1.242 1_565 S
C19 O9 1.243 . S
C20 O14 1.242 1_545 S
C20 O15 1.243 . S
O21 Eu10 2.312 . S
O21 C17 1.264 . S
C22 C12 1.494 . S
C22 C24 1.380 1_565 S
C22 C25 1.387 . S
C23 C24 1.395 . S
C23 C27 1.393 . S
C24 C22 1.380 1_545 S
C24 C23 1.395 . S
C24 H35 0.930 . S
C25 C22 1.387 . S
C25 C26 1.386 1_565 S
C25 H36 0.930 . S
C26 C25 1.386 1_545 S
C26 C27 1.397 . S
C27 C23 1.393 . S
C27 C26 1.397 . S
C27 H37 0.930 . S
C28 O8 1.264 . S
C28 O29 1.260 . S
O29 C28 1.260 . S
O30 Eu10 2.438 . S
O30 C12 1.263 . S
O31 Eu10 2.472 . S
O31 C12 1.264 . S
H32 C1 0.930 . S
H33 C3 0.930 . S
H34 C5 0.930 . S
H35 C24 0.930 . S
H36 C25 0.930 . S
H37 C27 0.930 . S
C38 C39 1.387 . S
C38 C43 1.380 . S
C38 C54 1.494 . S
C39 C38 1.387 . S
C39 C40 1.386 . S
C39 H70 0.930 . S
C40 C39 1.386 . S
C40 C41 1.397 . S
C41 C40 1.397 . S
C41 C42 1.393 . S
C41 H71 0.930 . S
C42 C41 1.393 . S
C42 C43 1.395 . S
C43 C38 1.380 . S
C43 C42 1.395 . S
C43 H72 0.930 . S
O44 Tb45 2.295 . S
O44 C57 1.242 . S
Tb45 O44 2.295 . S
Tb45 O46 2.312 . S
Tb45 O49 2.438 . S
Tb45 O51 2.472 . S
Tb45 O53 2.308 . S
Tb45 C54 2.821 . S
O46 Tb45 2.312 . S
O46 C66 1.264 . S
O47 Eu48 2.308 . S
O47 C57 1.243 . S
Eu48 O47 2.308 . S
Eu48 C50 2.821 . S
Eu48 O52 2.295 . S
Eu48 O59 2.312 . S
Eu48 O68 2.438 . S
Eu48 O69 2.472 . S
O49 Tb45 2.438 . S
O49 C54 1.263 . S
C50 Eu48 2.821 . S
C50 C60 1.494 . S
C50 O68 1.263 . S
C50 O69 1.264 . S
O51 Tb45 2.472 . S
O51 C54 1.264 . S
O52 Eu48 2.295 . S
O52 C58 1.242 . S
O53 Tb45 2.308 . S
O53 C58 1.243 . S
C54 C38 1.494 . S
C54 Tb45 2.821 . S
C54 O49 1.263 . S
C54 O51 1.264 . S
C55 O56 1.260 . S
C55 O59 1.264 . S
O56 C55 1.260 . S
C57 O44 1.242 . S
C57 O47 1.243 . S
C58 O52 1.242 . S
C58 O53 1.243 . S
O59 Eu48 2.312 . S
O59 C55 1.264 . S
C60 C50 1.494 . S
C60 C62 1.380 . S
C60 C63 1.387 . S
C61 C62 1.395 . S
C61 C65 1.393 . S
C62 C60 1.380 . S
C62 C61 1.395 . S
C62 H73 0.930 . S
C63 C60 1.387 . S
C63 C64 1.386 . S
C63 H74 0.930 . S
C64 C63 1.386 . S
C64 C65 1.397 . S
C65 C61 1.393 . S
C65 C64 1.397 . S
C65 H75 0.930 . S
C66 O46 1.264 . S
C66 O67 1.260 . S
O67 C66 1.260 . S
O68 Eu48 2.438 . S
O68 C50 1.263 . S
O69 Eu48 2.472 . S
O69 C50 1.264 . S
H70 C39 0.930 . S
H71 C41 0.930 . S
H72 C43 0.930 . S
H73 C62 0.930 . S
H74 C63 0.930 . S
H75 C65 0.930 . S
C76 C77 1.387 . S
C76 C81 1.380 . S
C76 C92 1.494 . S
C77 C76 1.387 . S
C77 C78 1.386 . S
C77 H108 0.930 . S
C78 C77 1.386 . S
C78 C79 1.397 . S
C79 C78 1.397 . S
C79 C80 1.393 . S
C79 H109 0.930 . S
C80 C79 1.393 . S
C80 C81 1.395 . S
C81 C76 1.380 . S
C81 C80 1.395 . S
C81 H110 0.930 . S
O82 Tb83 2.295 . S
O82 C95 1.242 . S
Tb83 O82 2.295 . S
Tb83 O84 2.312 . S
Tb83 O87 2.438 . S
Tb83 O89 2.472 . S
Tb83 O91 2.308 . S
Tb83 C92 2.821 . S
O84 Tb83 2.312 . S
O84 C104 1.264 . S
O85 Eu86 2.308 . S
O85 C95 1.243 . S
Eu86 O85 2.308 . S
Eu86 C88 2.821 . S
Eu86 O90 2.295 . S
Eu86 O97 2.312 . S
Eu86 O106 2.438 . S
Eu86 O107 2.472 . S
O87 Tb83 2.438 . S
O87 C92 1.263 . S
C88 Eu86 2.821 . S
C88 C98 1.494 . S
C88 O106 1.263 . S
C88 O107 1.264 . S
O89 Tb83 2.472 . S
O89 C92 1.264 . S
O90 Eu86 2.295 . S
O90 C96 1.242 . S
O91 Tb83 2.308 . S
O91 C96 1.243 . S
C92 C76 1.494 . S
C92 Tb83 2.821 . S
C92 O87 1.263 . S
C92 O89 1.264 . S
C93 O94 1.260 . S
C93 O97 1.264 . S
O94 C93 1.260 . S
C95 O82 1.242 . S
C95 O85 1.243 . S
C96 O90 1.242 . S
C96 O91 1.243 . S
O97 Eu86 2.312 . S
O97 C93 1.264 . S
C98 C88 1.494 . S
C98 C100 1.380 . S
C98 C101 1.387 . S
C99 C100 1.395 . S
C99 C103 1.393 . S
C100 C98 1.380 . S
C100 C99 1.395 . S
C100 H111 0.930 . S
C101 C98 1.387 . S
C101 C102 1.386 . S
C101 H112 0.930 . S
C102 C101 1.386 . S
C102 C103 1.397 . S
C103 C99 1.393 . S
C103 C102 1.397 . S
C103 H113 0.930 . S
C104 O84 1.264 . S
C104 O105 1.260 . S
O105 C104 1.260 . S
O106 Eu86 2.438 . S
O106 C88 1.263 . S
O107 Eu86 2.472 . S
O107 C88 1.264 . S
H108 C77 0.930 . S
H109 C79 0.930 . S
H110 C81 0.930 . S
H111 C100 0.930 . S
H112 C101 0.930 . S
H113 C103 0.930 . S
H114 C126 0.930 . S
H115 C128 0.930 . S
H116 C129 0.930 1_455 S
H117 C133 0.959 . S
H118 C133 0.959 1_545 S
H119 C133 0.961 1_545 S
H120 C134 0.960 . S
H121 C134 0.961 . S
H122 C134 0.959 . S
H123 C137 0.929 . S
H124 C138 0.931 . S
H125 C140 0.930 . S
C126 H114 0.930 . S
C126 C127 1.399 . S
C126 C131 1.399 . S
C127 C126 1.399 . S
C127 C128 1.376 1_545 S
C128 H115 0.930 . S
C128 C127 1.376 1_565 S
C128 C129 1.388 . S
C129 H116 0.930 1_655 S
C129 C128 1.388 . S
C129 C130 1.390 . S
C130 C129 1.390 . S
C130 C131 1.394 1_565 S
C130 C136 1.465 1_655 S
C131 C126 1.399 . S
C131 C130 1.394 1_545 S
C131 C132 1.516 . S
C132 C131 1.516 . S
C132 C133 1.502 1_545 S
C132 C134 1.561 1_655 S
C132 C135 1.526 1_655 S
C133 H117 0.959 . S
C133 H118 0.959 1_565 S
C133 H119 0.961 1_565 S
C133 C132 1.502 1_565 S
C134 H120 0.960 . S
C134 H121 0.961 . S
C134 H122 0.959 . S
C134 C132 1.561 1_455 S
C135 C132 1.526 1_455 S
C135 C136 1.396 1_545 S
C135 C140 1.390 . S
C136 C130 1.465 1_455 S
C136 C135 1.396 1_565 S
C136 C137 1.399 . S
C137 H123 0.929 . S
C137 C136 1.399 . S
C137 C138 1.385 . S
C138 H124 0.931 . S
C138 C137 1.385 . S
C138 C139 1.389 . S
C139 C138 1.389 . S
C139 C140 1.387 1_565 S
C140 H125 0.930 . S
C140 C135 1.390 . S
C140 C139 1.387 1_545 S
H141 C153 0.930 . S
H142 C155 0.930 . S
H143 C156 0.930 . S
H144 C160 0.959 . S
H145 C160 0.959 . S
H146 C160 0.961 . S
H147 C161 0.960 . S
H148 C161 0.961 . S
H149 C161 0.959 . S
H150 C164 0.929 . S
H151 C165 0.931 1_554 S
H152 C167 0.930 . S
C153 H141 0.930 . S
C153 C154 1.399 . S
C153 C158 1.399 . S
C154 C153 1.399 . S
C154 C155 1.376 . S
C155 H142 0.930 . S
C155 C154 1.376 . S
C155 C156 1.388 . S
C156 H143 0.930 . S
C156 C155 1.388 . S
C156 C157 1.390 . S
C157 C156 1.390 . S
C157 C158 1.394 . S
C157 C163 1.465 . S
C158 C153 1.399 . S
C158 C157 1.394 . S
C158 C159 1.516 . S
C159 C158 1.516 . S
C159 C160 1.502 . S
C159 C161 1.561 . S
C159 C162 1.526 . S
C160 H144 0.959 . S
C160 H145 0.959 . S
C160 H146 0.961 . S
C160 C159 1.502 . S
C161 H147 0.960 . S
C161 H148 0.961 . S
C161 H149 0.959 . S
C161 C159 1.561 . S
C162 C159 1.526 . S
C162 C163 1.396 . S
C162 C167 1.390 . S
C163 C157 1.465 . S
C163 C162 1.396 . S
C163 C164 1.399 . S
C164 H150 0.929 . S
C164 C163 1.399 . S
C164 C165 1.385 . S
C165 H151 0.931 1_556 S
C165 C164 1.385 . S
C165 C166 1.389 . S
C166 C165 1.389 . S
C166 C167 1.387 . S
C167 H152 0.930 . S
C167 C162 1.390 . S
C167 C166 1.387 . S
H168 C180 0.930 . S
H169 C182 0.930 1_556 S
H170 C183 0.930 . S
H171 C187 0.959 . S
H172 C187 0.959 . S
H173 C187 0.961 . S
H174 C188 0.960 . S
H175 C188 0.961 . S
H176 C188 0.959 . S
H177 C191 0.929 . S
H178 C192 0.931 . S
H179 C194 0.930 . S
C180 H168 0.930 . S
C180 C181 1.399 . S
C180 C185 1.399 . S
C181 C180 1.399 . S
C181 C182 1.376 . S
C182 H169 0.930 1_554 S
C182 C181 1.376 . S
C182 C183 1.388 . S
C183 H170 0.930 . S
C183 C182 1.388 . S
C183 C184 1.390 . S
C184 C183 1.390 . S
C184 C185 1.394 . S
C184 C190 1.465 . S
C185 C180 1.399 . S
C185 C184 1.394 . S
C185 C186 1.516 . S
C186 C185 1.516 . S
C186 C187 1.502 . S
C186 C188 1.561 . S
C186 C189 1.526 . S
C187 H171 0.959 . S
C187 H172 0.959 . S
C187 H173 0.961 . S
C187 C186 1.502 . S
C188 H174 0.960 . S
C188 H175 0.961 . S
C188 H176 0.959 . S
C188 C186 1.561 . S
C189 C186 1.526 . S
C189 C190 1.396 . S
C189 C194 1.390 . S
C190 C184 1.465 . S
C190 C189 1.396 . S
C190 C191 1.399 . S
C191 H177 0.929 . S
C191 C190 1.399 . S
C191 C192 1.385 . S
C192 H178 0.931 . S
C192 C191 1.385 . S
C192 C193 1.389 . S
C193 C192 1.389 . S
C193 C194 1.387 . S
C194 H179 0.930 . S
C194 C189 1.390 . S
C194 C193 1.387 . S
H195 C207 0.930 . S
H196 C209 0.930 . S
H197 C210 0.930 . S
H198 C214 0.959 . S
H199 C214 0.959 . S
H200 C214 0.961 . S
H201 C215 0.960 . S
H202 C215 0.961 . S
H203 C215 0.959 . S
H204 C218 0.929 . S
H205 C219 0.931 . S
H206 C221 0.930 . S
C207 H195 0.930 . S
C207 C208 1.399 . S
C207 C212 1.399 . S
C208 C207 1.399 . S
C208 C209 1.376 . S
C209 H196 0.930 . S
C209 C208 1.376 . S
C209 C210 1.388 . S
C210 H197 0.930 . S
C210 C209 1.388 . S
C210 C211 1.390 . S
C211 C210 1.390 . S
C211 C212 1.394 . S
C211 C217 1.465 . S
C212 C207 1.399 . S
C212 C211 1.394 . S
C212 C213 1.516 . S
C213 C212 1.516 . S
C213 C214 1.502 . S
C213 C215 1.561 . S
C213 C216 1.526 . S
C214 H198 0.959 . S
C214 H199 0.959 . S
C214 H200 0.961 . S
C214 C213 1.502 . S
C215 H201 0.960 . S
C215 H202 0.961 . S
C215 H203 0.959 . S
C215 C213 1.561 . S
C216 C213 1.526 . S
C216 C217 1.396 . S
C216 C221 1.390 . S
C217 C211 1.465 . S
C217 C216 1.396 . S
C217 C218 1.399 . S
C218 H204 0.929 . S
C218 C217 1.399 . S
C218 C219 1.385 . S
C219 H205 0.931 . S
C219 C218 1.385 . S
C219 C220 1.389 . S
C220 C219 1.389 . S
C220 C221 1.387 . S
C221 H206 0.930 . S
C221 C216 1.390 . S
C221 C220 1.387 . S
H222 C234 0.930 . S
H223 C236 0.930 . S
H224 C237 0.930 . S
H225 C241 0.959 1_655 S
H226 C241 0.959 . S
H227 C241 0.961 . S
H228 C242 0.960 . S
H229 C242 0.961 . S
H230 C242 0.959 . S
H231 C245 0.929 . S
H232 C246 0.931 . S
H233 C248 0.930 . S
C234 H222 0.930 . S
C234 C235 1.399 . S
C234 C239 1.399 . S
C235 C234 1.399 . S
C235 C236 1.376 . S
C236 H223 0.930 . S
C236 C235 1.376 . S
C236 C237 1.388 . S
C237 H224 0.930 . S
C237 C236 1.388 . S
C237 C238 1.390 . S
C238 C237 1.390 . S
C238 C239 1.394 . S
C238 C244 1.465 . S
C239 C234 1.399 . S
C239 C238 1.394 . S
C239 C240 1.516 . S
C240 C239 1.516 . S
C240 C241 1.502 . S
C240 C242 1.561 . S
C240 C243 1.526 . S
C241 H225 0.959 1_455 S
C241 H226 0.959 . S
C241 H227 0.961 . S
C241 C240 1.502 . S
C242 H228 0.960 . S
C242 H229 0.961 . S
C242 H230 0.959 . S
C242 C240 1.561 . S
C243 C240 1.526 . S
C243 C244 1.396 . S
C243 C248 1.390 . S
C244 C238 1.465 . S
C244 C243 1.396 . S
C244 C245 1.399 . S
C245 H231 0.929 . S
C245 C244 1.399 . S
C245 C246 1.385 . S
C246 H232 0.931 . S
C246 C245 1.385 . S
C246 C247 1.389 . S
C247 C246 1.389 . S
C247 C248 1.387 . S
C248 H233 0.930 . S
C248 C243 1.390 . S
C248 C247 1.387 . S
H249 C261 0.930 . S
H250 C263 0.930 . S
H251 C264 0.930 . S
H252 C268 0.959 . S
H253 C268 0.959 . S
H254 C268 0.961 . S
H255 C269 0.960 . S
H256 C269 0.961 . S
H257 C269 0.959 . S
H258 C272 0.929 . S
H259 C273 0.931 1_545 S
H260 C275 0.930 . S
C261 H249 0.930 . S
C261 C262 1.399 . S
C261 C266 1.399 . S
C262 C261 1.399 . S
C262 C263 1.376 . S
C263 H250 0.930 . S
C263 C262 1.376 . S
C263 C264 1.388 . S
C264 H251 0.930 . S
C264 C263 1.388 . S
C264 C265 1.390 . S
C265 C264 1.390 . S
C265 C266 1.394 . S
C265 C271 1.465 . S
C266 C261 1.399 . S
C266 C265 1.394 . S
C266 C267 1.516 . S
C267 C266 1.516 . S
C267 C268 1.502 . S
C267 C269 1.561 . S
C267 C270 1.526 . S
C268 H252 0.959 . S
C268 H253 0.959 . S
C268 H254 0.961 . S
C268 C267 1.502 . S
C269 H255 0.960 . S
C269 H256 0.961 . S
C269 H257 0.959 . S
C269 C267 1.561 . S
C270 C267 1.526 . S
C270 C271 1.396 . S
C270 C275 1.390 . S
C271 C265 1.465 . S
C271 C270 1.396 . S
C271 C272 1.399 . S
C272 H258 0.929 . S
C272 C271 1.399 . S
C272 C273 1.385 . S
C273 H259 0.931 1_565 S
C273 C272 1.385 . S
C273 C274 1.389 . S
C274 C273 1.389 . S
C274 C275 1.387 . S
C275 H260 0.930 . S
C275 C270 1.390 . S
C275 C274 1.387 . S
H276 C288 0.930 . S
H277 C290 0.930 . S
H278 C291 0.930 . S
H279 C295 0.959 . S
H280 C295 0.959 1_565 S
H281 C295 0.961 . S
H282 C296 0.960 . S
H283 C296 0.961 . S
H284 C296 0.959 . S
H285 C299 0.929 1_455 S
H286 C300 0.931 1_455 S
H287 C302 0.930 . S
C288 H276 0.930 . S
C288 C289 1.399 . S
C288 C293 1.399 . S
C289 C288 1.399 . S
C289 C290 1.376 . S
C290 H277 0.930 . S
C290 C289 1.376 . S
C290 C291 1.388 . S
C291 H278 0.930 . S
C291 C290 1.388 . S
C291 C292 1.390 . S
C292 C291 1.390 . S
C292 C293 1.394 . S
C292 C298 1.465 . S
C293 C288 1.399 . S
C293 C292 1.394 . S
C293 C294 1.516 . S
C294 C293 1.516 . S
C294 C295 1.502 . S
C294 C296 1.561 . S
C294 C297 1.526 . S
C295 H279 0.959 . S
C295 H280 0.959 1_545 S
C295 H281 0.961 . S
C295 C294 1.502 . S
C296 H282 0.960 . S
C296 H283 0.961 . S
C296 H284 0.959 . S
C296 C294 1.561 . S
C297 C294 1.526 . S
C297 C298 1.396 . S
C297 C302 1.390 . S
C298 C292 1.465 . S
C298 C297 1.396 . S
C298 C299 1.399 . S
C299 H285 0.929 1_655 S
C299 C298 1.399 . S
C299 C300 1.385 . S
C300 H286 0.931 1_655 S
C300 C299 1.385 . S
C300 C301 1.389 . S
C301 C300 1.389 . S
C301 C302 1.387 . S
C302 H287 0.930 . S
C302 C297 1.390 . S
C302 C301 1.387 . S
H303 C315 0.930 . S
H304 C317 0.930 . S
H305 C318 0.930 . S
H306 C322 0.959 . S
H307 C322 0.959 . S
H308 C322 0.961 . S
H309 C323 0.960 . S
H310 C323 0.961 . S
H311 C323 0.959 . S
H312 C326 0.929 1_455 S
H313 C327 0.931 1_455 S
H314 C329 0.930 . S
C315 H303 0.930 . S
C315 C316 1.399 . S
C315 C320 1.399 . S
C316 C315 1.399 . S
C316 C317 1.376 . S
C317 H304 0.930 . S
C317 C316 1.376 . S
C317 C318 1.388 . S
C318 H305 0.930 . S
C318 C317 1.388 . S
C318 C319 1.390 . S
C319 C318 1.390 . S
C319 C320 1.394 . S
C319 C325 1.465 . S
C320 C315 1.399 . S
C320 C319 1.394 . S
C320 C321 1.516 . S
C321 C320 1.516 . S
C321 C322 1.502 . S
C321 C323 1.561 . S
C321 C324 1.526 . S
C322 H306 0.959 . S
C322 H307 0.959 . S
C322 H308 0.961 . S
C322 C321 1.502 . S
C323 H309 0.960 . S
C323 H310 0.961 . S
C323 H311 0.959 . S
C323 C321 1.561 . S
C324 C321 1.526 . S
C324 C325 1.396 . S
C324 C329 1.390 . S
C325 C319 1.465 . S
C325 C324 1.396 . S
C325 C326 1.399 . S
C326 H312 0.929 1_655 S
C326 C325 1.399 . S
C326 C327 1.385 . S
C327 H313 0.931 1_655 S
C327 C326 1.385 . S
C327 C328 1.389 . S
C328 C327 1.389 . S
C328 C329 1.387 . S
C329 H314 0.930 . S
C329 C324 1.390 . S
C329 C328 1.387 . S
H330 C342 0.930 . S
H331 C344 0.930 . S
H332 C345 0.930 . S
H333 C349 0.959 . S
H334 C349 0.959 . S
H335 C349 0.961 . S
H336 C350 0.960 . S
H337 C350 0.961 . S
H338 C350 0.959 . S
H339 C353 0.929 . S
H340 C354 0.931 . S
H341 C356 0.930 . S
C342 H330 0.930 . S
C342 C343 1.399 . S
C342 C347 1.399 . S
C343 C342 1.399 . S
C343 C344 1.376 . S
C344 H331 0.930 . S
C344 C343 1.376 . S
C344 C345 1.388 . S
C345 H332 0.930 . S
C345 C344 1.388 . S
C345 C346 1.390 . S
C346 C345 1.390 . S
C346 C347 1.394 . S
C346 C352 1.465 . S
C347 C342 1.399 . S
C347 C346 1.394 . S
C347 C348 1.516 . S
C348 C347 1.516 . S
C348 C349 1.502 . S
C348 C350 1.561 . S
C348 C351 1.526 . S
C349 H333 0.959 . S
C349 H334 0.959 . S
C349 H335 0.961 . S
C349 C348 1.502 . S
C350 H336 0.960 . S
C350 H337 0.961 . S
C350 H338 0.959 . S
C350 C348 1.561 . S
C351 C348 1.526 . S
C351 C352 1.396 . S
C351 C356 1.390 . S
C352 C346 1.465 . S
C352 C351 1.396 . S
C352 C353 1.399 . S
C353 H339 0.929 . S
C353 C352 1.399 . S
C353 C354 1.385 . S
C354 H340 0.931 . S
C354 C353 1.385 . S
C354 C355 1.389 . S
C355 C354 1.389 . S
C355 C356 1.387 . S
C356 H341 0.930 . S
C356 C351 1.390 . S
C356 C355 1.387 . S
H357 C369 0.930 . S
H358 C371 0.930 . S
H359 C372 0.930 . S
H360 C376 0.959 1_554 S
H361 C376 0.959 . S
H362 C376 0.961 . S
H363 C377 0.960 . S
H364 C377 0.961 . S
H365 C377 0.959 . S
H366 C380 0.929 1_554 S
H367 C381 0.931 . S
H368 C383 0.930 . S
C369 H357 0.930 . S
C369 C370 1.399 . S
C369 C374 1.399 . S
C370 C369 1.399 . S
C370 C371 1.376 . S
C371 H358 0.930 . S
C371 C370 1.376 . S
C371 C372 1.388 . S
C372 H359 0.930 . S
C372 C371 1.388 . S
C372 C373 1.390 . S
C373 C372 1.390 . S
C373 C374 1.394 . S
C373 C379 1.465 1_554 S
C374 C369 1.399 . S
C374 C373 1.394 . S
C374 C375 1.516 1_554 S
C375 C374 1.516 1_556 S
C375 C376 1.502 . S
C375 C377 1.561 . S
C375 C378 1.526 . S
C376 H360 0.959 1_556 S
C376 H361 0.959 . S
C376 H362 0.961 . S
C376 C375 1.502 . S
C377 H363 0.960 . S
C377 H364 0.961 . S
C377 H365 0.959 . S
C377 C375 1.561 . S
C378 C375 1.526 . S
C378 C379 1.396 . S
C378 C383 1.390 . S
C379 C373 1.465 1_556 S
C379 C378 1.396 . S
C379 C380 1.399 . S
C380 H366 0.929 1_556 S
C380 C379 1.399 . S
C380 C381 1.385 . S
C381 H367 0.931 . S
C381 C380 1.385 . S
C381 C382 1.389 . S
C382 C381 1.389 . S
C382 C383 1.387 . S
C383 H368 0.930 . S
C383 C378 1.390 . S
C383 C382 1.387 . S
H384 C396 0.930 . S
H385 C398 0.930 . S
H386 C399 0.930 . S
H387 C403 0.959 . S
H388 C403 0.959 . S
H389 C403 0.961 . S
H390 C404 0.960 . S
H391 C404 0.961 . S
H392 C404 0.959 . S
H393 C407 0.929 1_556 S
H394 C408 0.931 . S
H395 C410 0.930 . S
C396 H384 0.930 . S
C396 C397 1.399 . S
C396 C401 1.399 . S
C397 C396 1.399 . S
C397 C398 1.376 . S
C398 H385 0.930 . S
C398 C397 1.376 . S
C398 C399 1.388 1_565 S
C399 H386 0.930 . S
C399 C398 1.388 1_545 S
C399 C400 1.390 1_545 S
C400 C399 1.390 1_565 S
C400 C401 1.394 . S
C400 C406 1.465 1_566 S
C401 C396 1.399 . S
C401 C400 1.394 . S
C401 C402 1.516 1_556 S
C402 C401 1.516 1_554 S
C402 C403 1.502 . S
C402 C404 1.561 . S
C402 C405 1.526 1_565 S
C403 H387 0.959 . S
C403 H388 0.959 . S
C403 H389 0.961 . S
C403 C402 1.502 . S
C404 H390 0.960 . S
C404 H391 0.961 . S
C404 H392 0.959 . S
C404 C402 1.561 . S
C405 C402 1.526 1_545 S
C405 C406 1.396 . S
C405 C410 1.390 . S
C406 C400 1.465 1_544 S
C406 C405 1.396 . S
C406 C407 1.399 . S
C407 H393 0.929 1_554 S
C407 C406 1.399 . S
C407 C408 1.385 . S
C408 H394 0.931 . S
C408 C407 1.385 . S
C408 C409 1.389 . S
C409 C408 1.389 . S
C409 C410 1.387 . S
C410 H395 0.930 . S
C410 C405 1.390 . S
C410 C409 1.387 . S
H411 C423 0.930 . S
H412 C425 0.930 . S
H413 C426 0.930 . S
H414 C430 0.959 . S
H415 C430 0.959 . S
H416 C430 0.961 . S
H417 C431 0.960 . S
H418 C431 0.961 . S
H419 C431 0.959 . S
H420 C434 0.929 . S
H421 C435 0.931 . S
H422 C437 0.930 . S
C423 H411 0.930 . S
C423 C424 1.399 . S
C423 C428 1.399 . S
C424 C423 1.399 . S
C424 C425 1.376 . S
C425 H412 0.930 . S
C425 C424 1.376 . S
C425 C426 1.388 1_455 S
C426 H413 0.930 . S
C426 C425 1.388 1_655 S
C426 C427 1.390 . S
C427 C426 1.390 . S
C427 C428 1.394 1_655 S
C427 C433 1.465 1_556 S
C428 C423 1.399 . S
C428 C427 1.394 1_455 S
C428 C429 1.516 1_556 S
C429 C428 1.516 1_554 S
C429 C430 1.502 . S
C429 C431 1.561 . S
C429 C432 1.526 1_455 S
C430 H414 0.959 . S
C430 H415 0.959 . S
C430 H416 0.961 . S
C430 C429 1.502 . S
C431 H417 0.960 . S
C431 H418 0.961 . S
C431 H419 0.959 . S
C431 C429 1.561 . S
C432 C429 1.526 1_655 S
C432 C433 1.396 . S
C432 C437 1.390 . S
C433 C427 1.465 1_554 S
C433 C432 1.396 . S
C433 C434 1.399 . S
C434 H420 0.929 . S
C434 C433 1.399 . S
C434 C435 1.385 . S
C435 H421 0.931 . S
C435 C434 1.385 . S
C435 C436 1.389 . S
C436 C435 1.389 . S
C436 C437 1.387 . S
C437 H422 0.930 . S
C437 C432 1.390 . S
C437 C436 1.387 . S
C127 C26 0.688 . S
C139 C2 0.811 . S
C154 C40 0.708 . S
C166 C64 0.784 1_556 S
C181 C78 0.707 1_554 S
C193 C102 0.786 . S
C208 C99 2.375 . S
C220 C4 2.447 . S
C235 C93 1.345 . S
C247 C28 1.282 . S
C262 C96 1.559 . S
C274 C19 1.595 . S
C289 C42 2.399 . S
C301 C23 2.430 . S
C316 C66 1.251 . S
C328 C17 1.358 . S
C343 C57 1.578 . S
C355 C20 1.574 . S
C370 C61 2.390 . S
C382 C80 2.416 . S
C397 C104 1.251 . S
C409 C55 1.359 . S
C424 C95 1.580 . S
C436 C58 1.583 . S
