# Generated by pormake.
# Topology tfs, (6)-cn, num edge types: 1
# Building blocks:
#     Node 0, Type 0, BuildingBlock: NUHQIS_clean_sbu_0, # of connection points: 6
#     Node 1, Type 0, BuildingBlock: NUHQIS_clean_sbu_0, # of connection points: 6
#     Node 2, Type 0, BuildingBlock: NUHQIS_clean_sbu_0, # of connection points: 6
#     Node 3, Type 0, BuildingBlock: NUHQIS_clean_sbu_0, # of connection points: 6
#     Node 4, Type 0, BuildingBlock: NUHQIS_clean_sbu_0, # of connection points: 6
#     Node 5, Type 0, BuildingBlock: NUHQIS_clean_sbu_0, # of connection points: 6
#     Edge 6, Type (0, 0), BuildingBlock: ZUJKAS_clean_linker_0, # of connection points: 2
#     Edge 7, Type (0, 0), BuildingBlock: ZUJKAS_clean_linker_0, # of connection points: 2
#     Edge 8, Type (0, 0), BuildingBlock: ZUJKAS_clean_linker_0, # of connection points: 2
#     Edge 9, Type (0, 0), BuildingBlock: ZUJKAS_clean_linker_0, # of connection points: 2
#     Edge 10, Type (0, 0), BuildingBlock: ZUJKAS_clean_linker_0, # of connection points: 2
#     Edge 11, Type (0, 0), BuildingBlock: ZUJKAS_clean_linker_0, # of connection points: 2
#     Edge 12, Type (0, 0), BuildingBlock: ZUJKAS_clean_linker_0, # of connection points: 2
#     Edge 13, Type (0, 0), BuildingBlock: ZUJKAS_clean_linker_0, # of connection points: 2
#     Edge 14, Type (0, 0), BuildingBlock: ZUJKAS_clean_linker_0, # of connection points: 2
#     Edge 15, Type (0, 0), BuildingBlock: ZUJKAS_clean_linker_0, # of connection points: 2
#     Edge 16, Type (0, 0), BuildingBlock: ZUJKAS_clean_linker_0, # of connection points: 2
#     Edge 17, Type (0, 0), BuildingBlock: ZUJKAS_clean_linker_0, # of connection points: 2
#     Edge 18, Type (0, 0), BuildingBlock: ZUJKAS_clean_linker_0, # of connection points: 2
#     Edge 19, Type (0, 0), BuildingBlock: ZUJKAS_clean_linker_0, # of connection points: 2
#     Edge 20, Type (0, 0), BuildingBlock: ZUJKAS_clean_linker_0, # of connection points: 2
#     Edge 21, Type (0, 0), BuildingBlock: ZUJKAS_clean_linker_0, # of connection points: 2
#     Edge 22, Type (0, 0), BuildingBlock: ZUJKAS_clean_linker_0, # of connection points: 2
#     Edge 23, Type (0, 0), BuildingBlock: ZUJKAS_clean_linker_0, # of connection points: 2
# Relax obj value: 0.538
# Max RMSD: 0.384
# Mean RMSD: 0.332
data_MOF--net-tfs--node1-NUHQIS_clean_sbu_0--edge1-ZUJKAS_clean_linker_0
_symmetry_space_group_name_H-M    P1
_symmetry_Int_Tables_number       1
_symmetry_cell_setting            triclinic
loop_
_symmetry_equiv_pos_as_xyz
'x, y, z'
_cell_length_a     67.262036
_cell_length_b     60.020255
_cell_length_c     17.323252
_cell_angle_alpha  87.403249
_cell_angle_beta   90.58591
_cell_angle_gamma 120.60172
loop_
_atom_site_label
_atom_site_type_symbol
_atom_site_fract_x
_atom_site_fract_y
_atom_site_fract_z
_atom_type_partial_charge
Tb0 Tb 0.1722 0.41457 0.18604 0.0
Eu1 Eu 0.15626 0.45116 0.08787 0.0
C2 C 0.16525 0.41075 0.01104 0.0
C3 C 0.20929 0.47136 0.12524 0.0
C4 C 0.17684 0.36017 0.28465 0.0
C5 C 0.17813 0.32145 0.25864 0.0
C6 C 0.18285 0.34631 0.23614 0.0
C7 C 0.16525 0.34824 0.35496 0.0
C8 C 0.16047 0.3233 0.37742 0.0
C9 C 0.16737 0.30987 0.33034 0.0
C10 C 0.18463 0.38773 0.26588 0.0
O11 O 0.1756 0.44619 0.25134 0.0
O12 O 0.14336 0.44501 0.21052 0.0
O13 O 0.12464 0.41132 0.09659 0.0
O14 O 0.13462 0.39346 0.19975 0.0
C15 C 0.157 0.44689 0.26715 0.0
O16 O 0.14804 0.48184 0.08214 0.0
O17 O 0.14511 0.46101 0.97936 0.0
O18 O 0.17224 0.43552 0.00951 0.0
O19 O 0.15937 0.39698 0.07636 0.0
O20 O 0.20382 0.44698 0.13484 0.0
O21 O 0.1934 0.4779 0.11894 0.0
C22 C 0.11911 0.39351 0.15267 0.0
O23 O 0.19183 0.39651 0.19518 0.0
O24 O 0.17225 0.39678 0.29323 0.0
C25 C 0.15559 0.50499 0.96345 0.0
C26 C 0.17879 0.55651 0.90307 0.0
C27 C 0.15486 0.54337 0.91884 0.0
C28 C 0.1434 0.51784 0.94871 0.0
C29 C 0.17911 0.51728 0.94345 0.0
C30 C 0.1906 0.54283 0.91293 0.0
C31 C 0.1442 0.48023 0.00804 0.0
H32 H 0.18407 0.31191 0.22152 0.0
H33 H 0.19202 0.355 0.18196 0.0
H34 H 0.16054 0.35849 0.39387 0.0
H35 H 0.15198 0.31485 0.4327 0.0
H36 H 0.14521 0.5533 0.91339 0.0
H37 H 0.12525 0.50862 0.96434 0.0
H38 H 0.18877 0.50756 0.95474 0.0
H39 H 0.20895 0.55223 0.90049 0.0
Tb40 Tb 0.72356 0.22723 0.50979 0.0
Eu41 Eu 0.77514 0.25505 0.42475 0.0
C42 C 0.72911 0.2272 0.33341 0.0
C43 C 0.74534 0.19315 0.4628 0.0
C44 C 0.67556 0.21441 0.6462 0.0
C45 C 0.64023 0.20618 0.70813 0.0
C46 C 0.65145 0.20146 0.64956 0.0
C47 C 0.68847 0.23268 0.70129 0.0
C48 C 0.67721 0.23742 0.76032 0.0
C49 C 0.65293 0.22405 0.7646 0.0
C50 C 0.6866 0.20713 0.58783 0.0
O51 O 0.75179 0.25185 0.58309 0.0
O52 O 0.77745 0.24112 0.54503 0.0
O53 O 0.76915 0.28725 0.45871 0.0
O54 O 0.72944 0.26482 0.46729 0.0
C55 C 0.76698 0.24514 0.60102 0.0
O56 O 0.81165 0.28435 0.42462 0.0
O57 O 0.79711 0.26059 0.32495 0.0
O58 O 0.74773 0.24996 0.34045 0.0
O59 O 0.71804 0.21274 0.3948 0.0
O60 O 0.73224 0.19681 0.51056 0.0
O61 O 0.76122 0.21203 0.41777 0.0
C62 C 0.74936 0.28676 0.4621 0.0
O63 O 0.68884 0.21746 0.51812 0.0
O64 O 0.70496 0.20654 0.60958 0.0
C65 C 0.83692 0.27694 0.34935 0.0
C66 C 0.88018 0.28063 0.33161 0.0
C67 C 0.86942 0.27506 0.4049 0.0
C68 C 0.84794 0.27318 0.41371 0.0
C69 C 0.84719 0.2815 0.27594 0.0
C70 C 0.86857 0.28329 0.26705 0.0
C71 C 0.81579 0.27831 0.35749 0.0
H72 H 0.62153 0.19508 0.71058 0.0
H73 H 0.64125 0.18715 0.60793 0.0
H74 H 0.70718 0.24288 0.69954 0.0
H75 H 0.68744 0.25135 0.80276 0.0
H76 H 0.8778 0.27262 0.4556 0.0
H77 H 0.84029 0.26949 0.47101 0.0
H78 H 0.83901 0.28456 0.22562 0.0
H79 H 0.87647 0.28793 0.20997 0.0
Tb80 Tb 0.59643 0.79578 0.37688 0.0
Eu81 Eu 0.55519 0.74043 0.30431 0.0
C82 C 0.59027 0.78648 0.20466 0.0
C83 C 0.5481 0.78957 0.32328 0.0
C84 C 0.63809 0.86545 0.42396 0.0
C85 C 0.63696 0.90353 0.37595 0.0
C86 C 0.62729 0.87653 0.3806 0.0
C87 C 0.65857 0.88159 0.46244 0.0
C88 C 0.66824 0.90847 0.4578 0.0
C89 C 0.65763 0.91986 0.41436 0.0
C90 C 0.62863 0.83724 0.42988 0.0
O91 O 0.57789 0.76714 0.47029 0.0
O92 O 0.54188 0.74435 0.41752 0.0
O93 O 0.57908 0.73057 0.3679 0.0
O94 O 0.61168 0.77116 0.36432 0.0
C95 C 0.55523 0.75348 0.47744 0.0
O96 O 0.53094 0.69882 0.30771 0.0
O97 O 0.53694 0.7216 0.20014 0.0
O98 O 0.58674 0.76399 0.23038 0.0
O99 O 0.59236 0.80286 0.25565 0.0
O100 O 0.56653 0.80119 0.36727 0.0
O101 O 0.54263 0.7685 0.28651 0.0
C102 C 0.60153 0.7457 0.3739 0.0
O103 O 0.63072 0.82672 0.3685 0.0
O104 O 0.60837 0.82309 0.46309 0.0
C105 C 0.50001 0.68438 0.22067 0.0
C106 C 0.45205 0.65405 0.1963 0.0
C107 C 0.46092 0.67499 0.24545 0.0
C108 C 0.48473 0.69004 0.25758 0.0
C109 C 0.49134 0.66405 0.17008 0.0
C110 C 0.4676 0.64902 0.15793 0.0
C111 C 0.52491 0.69887 0.23577 0.0
H112 H 0.62842 0.91162 0.34151 0.0
H113 H 0.61147 0.86433 0.35028 0.0
H114 H 0.66711 0.87338 0.4964 0.0
H115 H 0.6839 0.92032 0.48926 0.0
H116 H 0.44942 0.67928 0.27627 0.0
H117 H 0.49119 0.70577 0.29674 0.0
H118 H 0.50293 0.65955 0.1407 0.0
H119 H 0.46141 0.63336 0.11867 0.0
Tb120 Tb 0.74421 0.57351 0.44933 0.0
Eu121 Eu 0.69412 0.53252 0.53961 0.0
C122 C 0.73907 0.56657 0.62492 0.0
C123 C 0.73165 0.51557 0.49896 0.0
C124 C 0.80633 0.61333 0.37762 0.0
C125 C 0.83947 0.6111 0.42536 0.0
C126 C 0.81579 0.60258 0.42911 0.0
C127 C 0.82068 0.63236 0.32205 0.0
C128 C 0.84424 0.64086 0.31823 0.0
C129 C 0.85402 0.63046 0.36996 0.0
C130 C 0.78189 0.60606 0.38232 0.0
O131 O 0.7163 0.55702 0.36671 0.0
O132 O 0.69339 0.51679 0.42444 0.0
O133 O 0.68972 0.56392 0.48189 0.0
O134 O 0.72785 0.59617 0.47444 0.0
C135 C 0.70216 0.53194 0.36224 0.0
O136 O 0.65663 0.51226 0.54904 0.0
O137 O 0.67664 0.51102 0.64689 0.0
O138 O 0.71933 0.56504 0.61062 0.0
O139 O 0.75114 0.56609 0.56714 0.0
O140 O 0.74361 0.53661 0.45348 0.0
O141 O 0.71434 0.5119 0.54352 0.0
C142 C 0.70566 0.58851 0.47322 0.0
O143 O 0.76672 0.58416 0.35342 0.0
O144 O 0.77479 0.6097 0.44783 0.0
C145 C 0.63777 0.47545 0.63753 0.0
C146 C 0.59979 0.42641 0.68429 0.0
C147 C 0.59951 0.43877 0.61372 0.0
C148 C 0.61823 0.463 0.59071 0.0
C149 C 0.63838 0.46275 0.70701 0.0
C150 C 0.61964 0.43842 0.72995 0.0
C151 C 0.65602 0.50268 0.61887 0.0
H152 H 0.84635 0.60248 0.4656 0.0
H153 H 0.80494 0.58785 0.47252 0.0
H154 H 0.81371 0.64101 0.2822 0.0
H155 H 0.85489 0.65608 0.27576 0.0
H156 H 0.58463 0.42986 0.57666 0.0
H157 H 0.61704 0.47228 0.5372 0.0
H158 H 0.65301 0.47198 0.74497 0.0
H159 H 0.62033 0.42952 0.78493 0.0
Tb160 Tb 0.21305 0.82901 0.1928 0.0
Eu161 Eu 0.2702 0.85313 0.20747 0.0
C162 C 0.24754 0.87171 0.07304 0.0
C163 C 0.23796 0.80298 0.12206 0.0
C164 C 0.14696 0.79599 0.21251 0.0
C165 C 0.10812 0.78925 0.21343 0.0
C166 C 0.13112 0.80338 0.18805 0.0
C167 C 0.13961 0.77478 0.26577 0.0
C168 C 0.11649 0.76061 0.29149 0.0
C169 C 0.10034 0.7673 0.26392 0.0
C170 C 0.16995 0.80894 0.17422 0.0
O171 O 0.21652 0.80748 0.29054 0.0
O172 O 0.2544 0.83503 0.323 0.0
O173 O 0.26261 0.88376 0.24135 0.0
O174 O 0.22479 0.8572 0.28259 0.0
C175 C 0.23323 0.81651 0.34095 0.0
O176 O 0.30258 0.87082 0.2713 0.0
O177 O 0.30247 0.86217 0.1512 0.0
O178 O 0.26381 0.86655 0.09163 0.0
O179 O 0.22866 0.86283 0.11477 0.0
O180 O 0.22525 0.81339 0.10568 0.0
O181 O 0.25289 0.81165 0.17791 0.0
C182 C 0.24443 0.87957 0.28172 0.0
O183 O 0.18392 0.83344 0.18526 0.0
O184 O 0.18087 0.79622 0.17171 0.0
C185 C 0.33145 0.86148 0.22973 0.0
C186 C 0.36648 0.84914 0.2571 0.0
C187 C 0.35434 0.85138 0.31915 0.0
C188 C 0.33703 0.8575 0.30565 0.0
C189 C 0.34347 0.85905 0.16788 0.0
C190 C 0.36068 0.85288 0.18132 0.0
C191 C 0.31462 0.87015 0.21376 0.0
H192 H 0.09626 0.79524 0.1922 0.0
H193 H 0.13637 0.81961 0.14689 0.0
H194 H 0.15148 0.76863 0.28545 0.0
H195 H 0.11106 0.74378 0.33024 0.0
H196 H 0.35822 0.84841 0.37823 0.0
H197 H 0.32827 0.85945 0.35472 0.0
H198 H 0.33989 0.86244 0.10878 0.0
H199 H 0.3699 0.85179 0.13214 0.0
Tb200 Tb 0.34678 0.15431 0.75679 0.0
Eu201 Eu 0.36969 0.12016 0.83351 0.0
C202 C 0.33053 0.12634 0.91752 0.0
C203 C 0.39417 0.18226 0.84455 0.0
C204 C 0.30983 0.17701 0.65911 0.0
C205 C 0.27177 0.17072 0.68444 0.0
C206 C 0.29185 0.17165 0.71108 0.0
C207 C 0.30696 0.18034 0.57991 0.0
C208 C 0.28684 0.17927 0.55323 0.0
C209 C 0.26926 0.17503 0.60543 0.0
C210 C 0.33211 0.18062 0.68621 0.0
O211 O 0.37754 0.15958 0.70115 0.0
O212 O 0.3705 0.11918 0.7042 0.0
O213 O 0.33463 0.09025 0.79398 0.0
O214 O 0.32495 0.11539 0.71477 0.0
C215 C 0.37572 0.14034 0.6636 0.0
O216 O 0.39494 0.10775 0.83121 0.0
O217 O 0.37055 0.09505 0.92705 0.0
O218 O 0.35053 0.12754 0.92441 0.0
O219 O 0.32392 0.13266 0.85302 0.0
O220 O 0.37407 0.18058 0.83262 0.0
O221 O 0.39703 0.16234 0.83746 0.0
C222 C 0.32156 0.0927 0.74116 0.0
O223 O 0.33531 0.18082 0.76077 0.0
O224 O 0.33986 0.16763 0.65162 0.0
C225 C 0.40846 0.10505 0.95386 0.0
C226 C 0.45011 0.12468 0.03466 0.0
C227 C 0.43796 0.09864 0.01391 0.0
C228 C 0.41732 0.08894 0.97343 0.0
C229 C 0.41957 0.13042 0.9794 0.0
C230 C 0.44023 0.14017 0.01958 0.0
C231 C 0.38923 0.09648 0.90017 0.0
H232 H 0.25839 0.16715 0.72585 0.0
H233 H 0.29347 0.16878 0.77248 0.0
H234 H 0.32059 0.18451 0.53876 0.0
H235 H 0.28555 0.18298 0.49215 0.0
H236 H 0.44503 0.08618 0.02551 0.0
H237 H 0.40887 0.06928 0.95431 0.0
H238 H 0.4129 0.14311 0.96459 0.0
H239 H 0.44926 0.16036 0.03384 0.0
H240 H 0.24295 0.15519 0.4767 0.0
H241 H 0.21417 0.16504 0.42362 0.0
H242 H 0.22296 0.2113 0.6186 0.0
H243 H 0.25135 0.20133 0.67218 0.0
H244 H 0.17719 0.18314 0.57198 0.0
H245 H 0.23714 0.23672 0.32314 0.0
H246 H 0.22784 0.20294 0.33607 0.0
H247 H 0.24592 0.22514 0.40692 0.0
C248 C 0.23849 0.16719 0.50858 0.0
C249 C 0.24954 0.17767 0.57825 0.0
C250 C 0.22209 0.1728 0.47822 0.0
C251 C 0.21677 0.18928 0.51651 0.0
C252 C 0.2268 0.19852 0.58815 0.0
H253 H 0.17595 0.2978 0.47595 0.0
H254 H 0.18087 0.26164 0.517 0.0
C255 C 0.24301 0.19276 0.61879 0.0
C256 C 0.20257 0.1991 0.47965 0.0
H257 H 0.20452 0.24055 0.33451 0.0
C258 C 0.1829 0.19534 0.51928 0.0
C259 C 0.21003 0.21494 0.41073 0.0
C260 C 0.23146 0.22041 0.3668 0.0
C261 C 0.17115 0.20799 0.49382 0.0
C262 C 0.17946 0.22501 0.42762 0.0
C263 C 0.19817 0.22742 0.38521 0.0
C264 C 0.17141 0.24332 0.40718 0.0
C265 C 0.15037 0.20363 0.53925 0.0
C266 C 0.16412 0.2449 0.332 0.0
C267 C 0.16124 0.26564 0.30823 0.0
C268 C 0.16588 0.28533 0.35902 0.0
C269 C 0.17186 0.28282 0.43563 0.0
C270 C 0.17465 0.26207 0.45934 0.0
H271 H 0.14154 0.18421 0.56963 0.0
H272 H 0.15607 0.21836 0.58368 0.0
H273 H 0.13778 0.20541 0.50132 0.0
H274 H 0.16166 0.2307 0.29073 0.0
H275 H 0.1563 0.26682 0.24915 0.0
H276 H 0.0992 0.36194 0.28232 0.0
H277 H 0.05801 0.33684 0.31597 0.0
H278 H 0.04173 0.35815 0.0934 0.0
H279 H 0.08276 0.38346 0.0595 0.0
H280 H 0.02365 0.37018 0.21794 0.0
H281 H 1.00311 0.26798 0.24556 0.0
H282 H 0.02791 0.29071 0.29795 0.0
H283 H 0.02843 0.29316 0.19421 0.0
C284 C 0.08683 0.36078 0.23975 0.0
C285 C 0.09429 0.37485 0.16835 0.0
C286 C 0.06328 0.34635 0.25908 0.0
C287 C 0.04682 0.34553 0.20701 0.0
C288 C 0.05417 0.35853 0.13437 0.0
H289 H 0.89771 0.26495 0.21754 0.0
H290 H 0.93834 0.27904 0.19302 0.0
C291 C 0.07765 0.373 0.11513 0.0
C292 C 0.02224 0.33355 0.23073 0.0
H293 H 0.97396 0.27631 0.28629 0.0
C294 C 0.01279 0.34965 0.23284 0.0
C295 C 1.00812 0.30677 0.2499 0.0
C296 C 0.01728 0.28853 0.24631 0.0
C297 C 0.9896 0.33974 0.25354 0.0
C298 C 0.97554 0.31303 0.27383 0.0
C299 C 0.98489 0.29683 0.27145 0.0
C300 C 0.95084 0.30169 0.29463 0.0
C301 C 0.98018 0.35784 0.25202 0.0
C302 C 0.94441 0.30912 0.36116 0.0
C303 C 0.92127 0.30125 0.37509 0.0
C304 C 0.90414 0.28576 0.32271 0.0
C305 C 0.91054 0.27719 0.25834 0.0
C306 C 0.9337 0.28505 0.24453 0.0
H307 H 0.99184 0.37648 0.21992 0.0
H308 H 0.96291 0.34874 0.22498 0.0
H309 H 0.97824 0.36219 0.31214 0.0
H310 H 0.95741 0.32179 0.40083 0.0
H311 H 0.91699 0.30837 0.42487 0.0
H312 H 0.75848 0.17318 0.34703 0.0
H313 H 0.74657 0.12759 0.33192 0.0
H314 H 0.70863 0.10665 0.5479 0.0
H315 H 0.7207 0.15194 0.56412 0.0
H316 H 0.73348 0.08192 0.53197 0.0
H317 H 0.68119 0.07211 0.27138 0.0
H318 H 0.71098 0.09747 0.2643 0.0
H319 H 0.69198 0.09951 0.33194 0.0
C320 C 0.74789 0.15891 0.39184 0.0
C321 C 0.74049 0.16624 0.45666 0.0
C322 C 0.74088 0.13282 0.38269 0.0
C323 C 0.72635 0.11362 0.43811 0.0
C324 C 0.71972 0.12107 0.50415 0.0
H325 H 0.63559 0.94776 0.41982 0.0
H326 H 0.65317 0.9949 0.42116 0.0
C327 C 0.72663 0.14703 0.51324 0.0
C328 C 0.71759 0.08566 0.42761 0.0
H329 H 0.6829 0.03522 0.31448 0.0
C330 C 0.72256 0.07174 0.48413 0.0
C331 C 0.70303 0.07231 0.36577 0.0
C332 C 0.69626 0.08598 0.30512 0.0
C333 C 0.71332 0.04488 0.48077 0.0
C334 C 0.69897 0.03157 0.41852 0.0
C335 C 0.69403 0.04548 0.36183 0.0
C336 C 0.68835 1.00308 0.41284 0.0
C337 C 0.71844 0.03085 0.54525 0.0
C338 C 0.70224 0.99202 0.40578 0.0
C339 C 0.69225 0.9651 0.40472 0.0
C340 C 0.6681 0.9486 0.41038 0.0
C341 C 0.6542 0.95983 0.41484 0.0
C342 C 0.66423 0.98678 0.41592 0.0
H343 H 0.72507 0.04259 0.5972 0.0
H344 H 0.70274 0.0121 0.56212 0.0
H345 H 0.73181 0.02672 0.52522 0.0
H346 H 0.72085 1.00422 0.40157 0.0
H347 H 0.70348 0.95721 0.39951 0.0
H348 H 0.73253 0.64168 0.4515 0.0
H349 H 0.71936 0.67309 0.44006 0.0
H350 H 0.64866 0.61066 0.46269 0.0
H351 H 0.66148 0.57936 0.47459 0.0
H352 H 0.68882 0.67674 0.33115 0.0
H353 H 0.65364 0.65966 0.62941 0.0
H354 H 0.67328 0.64934 0.60007 0.0
H355 H 0.64302 0.63034 0.57887 0.0
C356 C 0.71418 0.63464 0.45421 0.0
C357 C 0.69812 0.60792 0.46453 0.0
C358 C 0.70669 0.65264 0.44758 0.0
C359 C 0.68303 0.64428 0.45191 0.0
C360 C 0.66701 0.61764 0.46085 0.0
H361 H 0.58588 0.69433 0.40503 0.0
H362 H 0.60831 0.6731 0.42516 0.0
C363 C 0.67443 0.59972 0.46723 0.0
C364 C 0.67475 0.66308 0.44602 0.0
H365 H 0.64098 0.68113 0.53929 0.0
C366 C 0.67868 0.67807 0.37705 0.0
C367 C 0.66159 0.66488 0.50609 0.0
C368 C 0.6578 0.6504 0.58309 0.0
C369 C 0.66871 0.69366 0.36498 0.0
C370 C 0.65472 0.69456 0.42389 0.0
C371 C 0.6516 0.68038 0.49397 0.0
C372 C 0.64158 0.70828 0.41198 0.0
C373 C 0.67227 0.70803 0.28792 0.0
C374 C 0.65279 0.73531 0.39872 0.0
C375 C 0.63993 0.74767 0.38715 0.0
C376 C 0.6156 0.73321 0.38866 0.0
C377 C 0.60455 0.70619 0.40305 0.0
C378 C 0.61737 0.69394 0.41475 0.0
H379 H 0.68 0.70163 0.24399 0.0
H380 H 0.65562 0.70524 0.26591 0.0
H381 H 0.68408 0.72907 0.295 0.0
H382 H 0.67148 0.74686 0.39763 0.0
H383 H 0.64904 0.76849 0.37649 0.0
H384 H 0.06392 0.75198 0.16671 0.0
H385 H 0.02271 0.72565 0.19798 0.0
H386 H 0.03845 0.71811 0.43617 0.0
H387 H 0.07995 0.7449 0.40546 0.0
H388 H 0.99801 0.67328 0.26848 0.0
H389 H 0.99249 0.74579 0.4425 0.0
H390 H 0.01626 0.75472 0.37644 0.0
H391 H 0.01453 0.73825 0.46737 0.0
C392 C 0.05867 0.74497 0.22599 0.0
C393 C 0.07527 0.75082 0.28379 0.0
C394 C 0.03509 0.72975 0.24361 0.0
C395 C 0.0275 0.72014 0.31948 0.0
C396 C 0.04394 0.7256 0.37737 0.0
H397 H 0.88382 0.64042 0.49088 0.0
H398 H 0.92578 0.65923 0.48439 0.0
C399 C 0.06763 0.74075 0.35965 0.0
C400 C 1.00232 0.70443 0.33698 0.0
H401 H 0.95801 0.70652 0.42426 0.0
C402 C 0.98926 0.68043 0.30304 0.0
C403 C 0.99097 0.71372 0.3825 0.0
C404 C 1.00415 0.73959 0.41913 0.0
C405 C 0.96512 0.66564 0.3124 0.0
C406 C 0.95361 0.67541 0.35521 0.0
C407 C 0.96678 0.69904 0.39128 0.0
C408 C 0.92794 0.66228 0.35945 0.0
C409 C 0.9522 0.63963 0.27642 0.0
C410 C 0.91512 0.65767 0.29151 0.0
C411 C 0.89114 0.6467 0.29501 0.0
C412 C 0.87937 0.64035 0.36664 0.0
C413 C 0.89222 0.64473 0.43473 0.0
C414 C 0.91626 0.65567 0.43113 0.0
H415 H 0.96346 0.63127 0.26922 0.0
H416 H 0.93682 0.62565 0.31182 0.0
H417 H 0.94634 0.64206 0.2182 0.0
H418 H 0.92372 0.66309 0.23551 0.0
H419 H 0.88185 0.64339 0.24136 0.0
H420 H 0.20969 0.88298 0.35184 0.0
H421 H 0.2136 0.9185 0.4278 0.0
H422 H 0.28758 0.95842 0.39577 0.0
H423 H 0.28384 0.9236 0.31887 0.0
H424 H 0.23565 0.93737 0.56093 0.0
H425 H 0.27436 0.01486 0.33162 0.0
H426 H 0.26076 0.98098 0.31123 0.0
H427 H 0.29042 0.99855 0.3414 0.0
C428 C 0.22676 0.89945 0.36054 0.0
C429 C 0.24643 0.90064 0.32842 0.0
C430 C 0.22896 0.9197 0.40387 0.0
C431 C 0.25083 0.94144 0.4156 0.0
C432 C 0.27047 0.94229 0.38521 0.0
H433 H 0.31297 0.04341 0.76828 0.0
H434 H 0.28992 1.00614 0.6916 0.0
C435 C 0.2683 0.92224 0.34159 0.0
C436 C 0.25359 0.96291 0.46232 0.0
H437 H 0.28273 0.02886 0.46318 0.0
C438 C 0.24553 0.95738 0.5392 0.0
C439 C 0.26583 0.98898 0.43347 0.0
C440 C 0.27308 0.99616 0.3496 0.0
C441 C 0.25105 0.97733 0.58965 0.0
C442 C 0.26554 1.00344 0.56293 0.0
C443 C 0.27194 0.0089 0.48438 0.0
C444 C 0.27655 0.02511 0.61627 0.0
C445 C 0.24163 0.9701 0.67134 0.0
C446 C 0.27704 0.04852 0.59936 0.0
C447 C 0.29078 0.07028 0.64235 0.0
C448 C 0.30423 0.06899 0.70319 0.0
C449 C 0.30279 0.04517 0.7222 0.0
C450 C 0.28932 0.02361 0.67874 0.0
H451 H 0.22428 0.95226 0.67319 0.0
H452 H 0.2532 0.9659 0.70726 0.0
H453 H 0.24028 0.98588 0.6972 0.0
H454 H 0.26745 0.05022 0.55111 0.0
H455 H 0.29151 0.08831 0.62597 0.0
H456 H 0.2052 0.77517 0.0151 0.0
H457 H 0.19959 0.73666 0.95175 0.0
H458 H 0.26008 0.74404 0.06363 0.0
H459 H 0.26571 0.78217 0.12761 0.0
H460 H 0.23126 0.7262 0.85672 0.0
H461 H 0.20359 0.67269 0.14241 0.0
H462 H 0.20491 0.70321 0.12281 0.0
H463 H 0.23091 0.7025 0.14133 0.0
C464 C 0.21745 0.76876 0.02546 0.0
C465 C 0.23566 0.78142 0.07741 0.0
C466 C 0.21429 0.74688 -0.01107 0.0
C467 C 0.22932 0.7375 0.00378 0.0
C468 C 0.24821 0.75094 0.05211 0.0
H469 H 0.22069 0.59171 0.96038 0.0
H470 H 0.23657 0.63811 0.96655 0.0
C471 C 0.25132 0.77265 0.08884 0.0
C472 C 0.22406 0.71224 0.97573 0.0
H473 H 0.20793 0.65084 0.0404 0.0
C474 C 0.22613 0.70964 0.89654 0.0
C475 C 0.21726 0.69077 0.02808 0.0
C476 C 0.21382 0.69223 0.11334 0.0
C477 C 0.22204 0.68604 0.86858 0.0
C478 C 0.21555 0.6647 0.92131 0.0
C479 C 0.21327 0.66738 0.00024 0.0
C480 C 0.20996 0.63883 0.89725 0.0
C481 C 0.22503 0.6842 0.78342 0.0
C482 C 0.19042 0.62411 0.85254 0.0
C483 C 0.18142 0.59747 0.84781 0.0
C484 C 0.19161 0.58512 0.88885 0.0
C485 C 0.21241 0.60045 0.92752 0.0
C486 C 0.22149 0.62705 0.93156 0.0
H487 H 0.23573 0.70364 0.75424 0.0
H488 H 0.23317 0.67243 0.77365 0.0
H489 H 0.20782 0.67458 0.75607 0.0
H490 H 0.1811 0.63274 0.82629 0.0
H491 H 0.16563 0.5863 0.81627 0.0
H492 H 0.47218 0.16017 0.14689 0.0
H493 H 0.51406 0.18589 0.16707 0.0
H494 H 0.52465 0.14319 -0.00569 0.0
H495 H 0.48341 0.11743 0.97546 0.0
H496 H 0.55493 0.15479 0.11031 0.0
H497 H 0.55262 0.24311 0.01003 0.0
H498 H 0.53757 0.226 0.09791 0.0
H499 H 0.5272 0.21139 0.00676 0.0
C500 C 0.48352 0.15601 0.11456 0.0
C501 C 0.4745 0.13686 0.05928 0.0
C502 C 0.50741 0.17077 0.12589 0.0
C503 C 0.52255 0.16685 0.08108 0.0
C504 C 0.51336 0.14656 0.02989 0.0
H505 H 0.61384 0.22693 0.75744 0.0
H506 H 0.58824 0.22092 0.86412 0.0
C507 C 0.48966 0.13172 0.01924 0.0
C508 C 0.54788 0.18508 0.07866 0.0
H509 H 0.5867 0.2431 -0.00966 0.0
C510 C 0.5622 0.17445 0.08624 0.0
C511 C 0.55735 0.21092 0.0489 0.0
C512 C 0.54299 0.22366 0.04005 0.0
C513 C 0.58448 0.18717 0.05322 0.0
C514 C 0.59292 0.21174 0.01465 0.0
C515 C 0.58 0.2241 0.01876 0.0
C516 C 0.61117 0.22129 0.95366 0.0
C517 C 0.59743 0.17273 0.0519 0.0
C518 C 0.63321 0.22495 0.96811 0.0
C519 C 0.64769 0.22761 0.90641 0.0
C520 C 0.64046 0.22716 0.82962 0.0
C521 C 0.61958 0.22652 0.81586 0.0
C522 C 0.60503 0.22341 0.87709 0.0
H523 H 0.58725 0.15277 0.07828 0.0
H524 H 0.602 0.17137 -0.00841 0.0
H525 H 0.61363 0.18327 0.08476 0.0
H526 H 0.63866 0.22426 0.02671 0.0
H527 H 0.6638 0.2283 0.91896 0.0
H528 H 0.41898 0.66786 0.17968 0.0
H529 H 0.37714 0.63902 0.16707 0.0
H530 H 0.38613 0.57278 0.17775 0.0
H531 H 0.42769 0.60124 0.19229 0.0
H532 H 0.35252 0.60204 0.05235 0.0
H533 H 0.33714 0.55548 0.34671 0.0
H534 H 0.36328 0.5854 0.31978 0.0
H535 H 0.35963 0.5549 0.29353 0.0
C536 C 0.412 0.64713 0.18002 0.0
C537 C 0.42669 0.63686 0.18713 0.0
C538 C 0.38813 0.63072 0.17234 0.0
C539 C 0.37852 0.60376 0.17248 0.0
C540 C 0.39315 0.5935 0.17866 0.0
H541 H 0.24675 0.46509 0.13627 0.0
H542 H 0.28734 0.49863 0.14417 0.0
C543 C 0.41695 0.60984 0.18613 0.0
C544 C 0.35323 0.58618 0.16561 0.0
H545 H 0.30654 0.53508 0.25741 0.0
C546 C 0.34237 0.58755 0.0974 0.0
C547 C 0.34005 0.56737 0.22462 0.0
C548 C 0.35054 0.56578 0.30062 0.0
C549 C 0.31883 0.56988 0.08537 0.0
C550 C 0.3058 0.55064 0.14365 0.0
C551 C 0.31658 0.54973 0.21258 0.0
C552 C 0.28116 0.53065 0.13379 0.0
C553 C 0.30829 0.57134 0.00939 0.0
C554 C 0.26415 0.5375 0.12491 0.0
C555 C 0.24081 0.51831 0.12014 0.0
C556 C 0.23407 0.49189 0.12473 0.0
C557 C 0.25124 0.48519 0.13251 0.0
C558 C 0.2745 0.50436 0.13718 0.0
H559 H 0.32169 0.58326 0.96455 0.0
H560 H 0.29692 0.55168 0.98779 0.0
H561 H 0.29761 0.58031 0.0178 0.0
H562 H 0.26885 0.55766 0.12351 0.0
H563 H 0.22806 0.52418 0.11447 0.0
H564 H 0.75913 0.50985 0.39488 0.0
H565 H 0.76504 0.47299 0.38629 0.0
H566 H 0.72156 0.43605 0.58799 0.0
H567 H 0.71574 0.47282 0.59767 0.0
H568 H 0.76232 0.43334 0.58839 0.0
H569 H 0.71509 0.4016 0.31256 0.0
H570 H 0.73837 0.43471 0.3115 0.0
H571 H 0.71335 0.42458 0.37166 0.0
C572 C 0.75099 0.49402 0.43791 0.0
C573 C 0.73684 0.4943 0.49675 0.0
C574 C 0.75426 0.47285 0.43252 0.0
C575 C 0.74345 0.45156 0.48579 0.0
C576 C 0.72997 0.45219 0.546 0.0
H577 H 0.71204 0.29357 0.46275 0.0
H578 H 0.712 0.33417 0.46723 0.0
C579 C 0.72662 0.47324 0.55129 0.0
C580 C 0.74575 0.42836 0.4784 0.0
H581 H 0.73204 0.37797 0.36261 0.0
C582 C 0.75582 0.4213 0.53885 0.0
C583 C 0.737 0.41249 0.41415 0.0
C584 C 0.72516 0.4185 0.34894 0.0
C585 C 0.75738 0.39882 0.53682 0.0
C586 C 0.74882 0.38309 0.47223 0.0
C587 C 0.73876 0.39016 0.41177 0.0
C588 C 0.7492 0.35859 0.46794 0.0
C589 C 0.76755 0.39168 0.60483 0.0
C590 C 0.77016 0.35879 0.46575 0.0
C591 C 0.77027 0.33554 0.46302 0.0
C592 C 0.7494 0.3116 0.46233 0.0
C593 C 0.72846 0.31156 0.46339 0.0
C594 C 0.72838 0.3348 0.46586 0.0
H595 H 0.76873 0.4026 0.65646 0.0
H596 H 0.75704 0.37061 0.62027 0.0
H597 H 0.78523 0.39623 0.58928 0.0
H598 H 0.78645 0.37695 0.46605 0.0
H599 H 0.78673 0.33637 0.46202 0.0
H600 H 0.37627 0.81733 0.17744 0.0
H601 H 0.40887 0.8104 0.19469 0.0
H602 H 0.43272 0.86162 0.38416 0.0
H603 H 0.40021 0.86884 0.36698 0.0
H604 H 0.45591 0.84791 0.18425 0.0
H605 H 0.43313 0.79758 0.47496 0.0
H606 H 0.41261 0.8014 0.41639 0.0
H607 H 0.43425 0.82816 0.46819 0.0
C608 C 0.38843 0.82715 0.22282 0.0
C609 C 0.38557 0.84367 0.27078 0.0
C610 C 0.40703 0.82308 0.23278 0.0
C611 C 0.42314 0.83528 0.29118 0.0
C612 C 0.42027 0.85159 0.33969 0.0
H613 H 0.54583 0.82506 0.41253 0.0
H614 H 0.51725 0.839 0.4051 0.0
C615 C 0.40164 0.85567 0.3298 0.0
C616 C 0.44335 0.83159 0.29893 0.0
H617 H 0.46879 0.80714 0.42009 0.0
C618 C 0.45874 0.83904 0.2359 0.0
C619 C 0.44716 0.82022 0.36658 0.0
C620 C 0.43085 0.81116 0.43528 0.0
C621 C 0.4777 0.83523 0.23833 0.0
C622 C 0.48117 0.82322 0.30513 0.0
C623 C 0.46614 0.81638 0.36898 0.0
C624 C 0.49928 0.81598 0.30775 0.0
C625 C 0.49389 0.84417 0.16932 0.0
C626 C 0.49866 0.79842 0.25568 0.0
C627 C 0.51488 0.79046 0.25972 0.0
C628 C 0.53211 0.79977 0.3163 0.0
C629 C 0.53292 0.81765 0.36794 0.0
C630 C 0.51654 0.82554 0.364 0.0
H631 H 0.49315 0.85964 0.13401 0.0
H632 H 0.512 0.85155 0.1874 0.0
H633 H 0.48877 0.82758 0.13205 0.0
H634 H 0.48528 0.7904 0.21272 0.0
H635 H 0.51369 0.77669 0.21889 0.0
H636 H 0.55471 0.41392 0.67793 0.0
H637 H 0.52037 0.37329 0.72048 0.0
H638 H 0.56323 0.34227 0.79465 0.0
H639 H 0.59779 0.38307 0.7525 0.0
H640 H 0.50512 0.32545 0.66791 0.0
H641 H 0.52138 0.32488 0.9825 0.0
H642 H 0.53742 0.3534 0.91951 0.0
H643 H 0.54448 0.32823 0.92271 0.0
C644 C 0.55686 0.39844 0.70312 0.0
C645 C 0.579 0.4017 0.7115 0.0
C646 C 0.53721 0.37528 0.72788 0.0
C647 C 0.5392 0.35483 0.76178 0.0
C648 C 0.56128 0.35798 0.77042 0.0
H649 H 0.43842 0.19376 0.87434 0.0
H650 H 0.47359 0.23636 0.8619 0.0
C651 C 0.58101 0.38126 0.74598 0.0
C652 C 0.51803 0.32982 0.78383 0.0
H653 H 0.48985 0.28633 0.93493 0.0
C654 C 0.50173 0.31701 0.72642 0.0
C655 C 0.51366 0.31875 0.86018 0.0
C656 C 0.53004 0.33211 0.92501 0.0
C657 C 0.48135 0.29334 0.74291 0.0
C658 C 0.47695 0.2823 0.81916 0.0
C659 C 0.49325 0.29495 0.87664 0.0
C660 C 0.45566 0.25727 0.839 0.0
C661 C 0.46485 0.28004 0.67818 0.0
C662 C 0.43391 0.2551 0.83369 0.0
C663 C 0.41374 0.23079 0.84087 0.0
C664 C 0.41498 0.20819 0.85333 0.0
C665 C 0.4368 0.21071 0.86409 0.0
C666 C 0.45695 0.23505 0.8571 0.0
H667 H 0.47297 0.28826 0.62043 0.0
H668 H 0.45855 0.25895 0.68115 0.0
H669 H 0.44967 0.28251 0.68384 0.0
H670 H 0.43257 0.27211 0.82079 0.0
H671 H 0.39727 0.22965 0.83256 0.0
H672 H 0.12486 0.36769 0.978 0.0
H673 H 0.10991 0.35454 0.84771 0.0
H674 H 0.17603 0.41246 0.74985 0.0
H675 H 0.19065 0.42617 0.87915 0.0
H676 H 0.1121 0.39713 0.74908 0.0
H677 H 0.15268 0.34898 0.60835 0.0
H678 H 0.14761 0.34646 0.71172 0.0
H679 H 0.17243 0.3745 0.66812 0.0
C680 C 0.13643 0.37676 0.92859 0.0
C681 C 0.15886 0.39787 0.93773 0.0
C682 C 0.12787 0.36927 0.85452 0.0
C683 C 0.14196 0.38236 0.78961 0.0
C684 C 0.16505 0.40181 0.79946 0.0
H685 H 0.18154 0.46094 0.39806 0.0
H686 H 0.16885 0.43858 0.52484 0.0
C687 C 0.17338 0.40972 0.87307 0.0
C688 C 0.132 0.38039 0.7125 0.0
H689 H 0.14668 0.37926 0.52618 0.0
C690 C 0.11869 0.39215 0.69989 0.0
C691 C 0.14054 0.37374 0.64901 0.0
C692 C 0.15393 0.35996 0.65992 0.0
C693 C 0.11658 0.40081 0.62544 0.0
C694 C 0.12782 0.39719 0.56324 0.0
C695 C 0.13835 0.38227 0.57466 0.0
C696 C 0.13346 0.41326 0.4912 0.0
C697 C 0.10475 0.41634 0.61477 0.0
C698 C 0.11734 0.40725 0.43228 0.0
C699 C 0.12447 0.42046 0.36013 0.0
C700 C 0.14785 0.43932 0.34644 0.0
C701 C 0.16345 0.44652 0.40745 0.0
C702 C 0.15627 0.43364 0.47942 0.0
H703 H 0.09554 0.41596 0.66814 0.0
H704 H 0.11777 0.43678 0.59831 0.0
H705 H 0.09217 0.40864 0.56715 0.0
H706 H 0.09967 0.39151 0.4407 0.0
H707 H 0.11218 0.4144 0.31359 0.0
H708 H 0.70909 0.17568 0.30649 0.0
H709 H 0.71126 0.15731 0.18517 0.0
H710 H 0.74319 0.23341 0.07205 0.0
H711 H 0.74126 0.2519 0.1923 0.0
H712 H 0.69734 0.17001 0.00989 0.0
H713 H 0.78804 0.1982 0.06904 0.0
H714 H 0.76639 0.18862 0.14457 0.0
H715 H 0.78035 0.22094 0.10124 0.0
C716 C 0.71591 0.18833 0.25505 0.0
C717 C 0.72508 0.21525 0.25845 0.0
C718 C 0.7173 0.17782 0.18632 0.0
C719 C 0.72771 0.19417 0.12084 0.0
C720 C 0.73534 0.22065 0.12283 0.0
H721 H 0.75315 0.25699 0.73029 0.0
H722 H 0.74248 0.23252 0.85367 0.0
C723 C 0.73411 0.23115 0.19118 0.0
C724 C 0.73205 0.18478 0.04991 0.0
H725 H 0.77914 0.20378 0.93474 0.0
C726 C 0.71496 0.17598 -0.00635 0.0
C727 C 0.75492 0.19207 0.02956 0.0
C728 C 0.77347 0.20025 0.08951 0.0
C729 C 0.72105 0.17851 0.9154 0.0
C730 C 0.74466 0.19048 0.89442 0.0
C731 C 0.76108 0.19498 0.95123 0.0
C732 C 0.7529 0.20553 0.82066 0.0
C733 C 0.70264 0.17167 0.85548 0.0
C734 C 0.76356 0.19928 0.76339 0.0
C735 C 0.76993 0.2135 0.69257 0.0
C736 C 0.76573 0.23406 0.67928 0.0
C737 C 0.75647 0.24118 0.73894 0.0
C738 C 0.75015 0.22706 0.809 0.0
H739 H 0.68579 0.15519 0.87685 0.0
H740 H 0.70041 0.18857 0.84311 0.0
H741 H 0.7075 0.16657 0.80072 0.0
H742 H 0.76614 0.18295 0.7724 0.0
H743 H 0.77689 0.20752 0.64708 0.0
H744 H 0.57072 0.81526 0.15786 0.0
H745 H 0.54736 0.80884 0.04226 0.0
H746 H 0.56469 0.75324 0.96631 0.0
H747 H 0.58767 0.75921 0.08141 0.0
H748 H 0.55916 0.81459 0.88573 0.0
H749 H 0.49401 0.71298 0.95872 0.0
H750 H 0.51233 0.73496 0.03068 0.0
H751 H 0.52223 0.7177 0.97494 0.0
C752 C 0.56989 0.80203 0.11569 0.0
C753 C 0.58089 0.78756 0.12858 0.0
C754 C 0.55628 0.79815 0.05046 0.0
C755 C 0.55358 0.77978 -0.00215 0.0
C756 C 0.56584 0.76673 0.00812 0.0
H757 H 0.57225 0.74843 0.61453 0.0
H758 H 0.55969 0.7524 0.74216 0.0
C759 C 0.57928 0.77048 0.07306 0.0
C760 C 0.53925 0.77489 0.92879 0.0
H761 H 0.50593 0.72346 0.81908 0.0
C762 C 0.54654 0.79489 0.87176 0.0
C763 C 0.52229 0.74932 0.91143 0.0
C764 C 0.51208 0.72762 0.97274 0.0
C765 C 0.54037 0.78916 0.79468 0.0
C766 C 0.52696 0.76295 0.77549 0.0
C767 C 0.51654 0.74352 0.83415 0.0
C768 C 0.53069 0.75542 0.70006 0.0
C769 C 0.55098 0.81068 0.73292 0.0
C770 C 0.5179 0.75487 0.63517 0.0
C771 C 0.5249 0.75221 0.56206 0.0
C772 C 0.54492 0.75059 0.55389 0.0
C773 C 0.55682 0.74972 0.61961 0.0
C774 C 0.54963 0.75191 0.69226 0.0
H775 H 0.55713 0.82993 0.75704 0.0
H776 H 0.56595 0.81083 0.70589 0.0
H777 H 0.53828 0.80748 0.68698 0.0
H778 H 0.50336 0.75776 0.64062 0.0
H779 H 0.51564 0.75319 0.51171 0.0
H780 H 0.70084 0.48694 0.33466 0.0
H781 H 0.70747 0.47425 0.20879 0.0
H782 H 0.70624 0.53927 0.09736 0.0
H783 H 0.70018 0.55232 0.2223 0.0
H784 H 0.68162 0.47993 0.02604 0.0
H785 H 0.77517 0.53543 0.09432 0.0
H786 H 0.75332 0.51388 0.16458 0.0
H787 H 0.75693 0.54511 0.13975 0.0
C788 C 0.70115 0.49791 0.28277 0.0
C789 C 0.70002 0.52059 0.28745 0.0
C790 C 0.70504 0.49071 0.21138 0.0
C791 C 0.70737 0.50593 0.14462 0.0
C792 C 0.7044 0.52733 0.14875 0.0
H793 H 0.72505 0.57579 0.75881 0.0
H794 H 0.7207 0.55304 0.88345 0.0
C795 C 0.70094 0.53476 0.2198 0.0
C796 C 0.71585 0.50238 0.07122 0.0
H797 H 0.76492 0.53763 0.96229 0.0
C798 C 0.69992 0.49131 0.01197 0.0
C799 C 0.73975 0.51703 0.05357 0.0
C800 C 0.7574 0.52846 0.11633 0.0
C801 C 0.70712 0.49775 0.93458 0.0
C802 C 0.73058 0.51596 0.91742 0.0
C803 C 0.7469 0.52386 0.97614 0.0
C804 C 0.7368 0.532 0.84534 0.0
C805 C 0.68926 0.48768 0.8721 0.0
C806 C 0.74854 0.5287 0.78481 0.0
C807 C 0.75135 0.54202 0.71364 0.0
C808 C 0.74228 0.55853 0.70296 0.0
C809 C 0.73214 0.56317 0.76571 0.0
C810 C 0.7295 0.55007 0.83649 0.0
H811 H 0.67394 0.46877 0.89048 0.0
H812 H 0.68338 0.50171 0.85967 0.0
H813 H 0.6966 0.48541 0.81789 0.0
H814 H 0.7544 0.51493 0.79136 0.0
H815 H 0.75904 0.53792 0.66573 0.0
H816 H 0.19141 0.80297 0.4041 0.0
H817 H 0.18697 0.81733 0.52902 0.0
H818 H 0.25624 0.83682 0.58799 0.0
H819 H 0.26101 0.82277 0.46306 0.0
H820 H 0.19784 0.80963 0.69709 0.0
H821 H 0.25362 0.90714 0.55738 0.0
H822 H 0.23776 0.87817 0.50353 0.0
H823 H 0.2645 0.88554 0.54829 0.0
C824 C 0.20532 0.80907 0.44508 0.0
C825 C 0.22684 0.81245 0.42327 0.0
C826 C 0.20279 0.81755 0.51597 0.0
C827 C 0.22161 0.82895 0.56547 0.0
C828 C 0.24179 0.8286 0.54895 0.0
H829 H 0.2792 0.88446 0.95693 0.0
H830 H 0.27046 0.88398 0.82038 0.0
C831 C 0.24438 0.82029 0.47812 0.0
C832 C 0.22151 0.84389 0.6299 0.0
H833 H 0.25178 0.90481 0.69686 0.0
C834 C 0.20903 0.83051 0.69692 0.0
C835 C 0.23587 0.87117 0.62792 0.0
C836 C 0.24854 0.88643 0.55514 0.0
C837 C 0.21246 0.84347 0.76528 0.0
C838 C 0.22861 0.87046 0.76532 0.0
C839 C 0.23943 0.88418 0.69627 0.0
C840 C 0.23812 0.88275 0.83862 0.0
C841 C 0.20048 0.82777 0.83847 0.0
C842 C 0.22399 0.88499 0.8926 0.0
C843 C 0.22888 0.88512 0.97101 0.0
C844 C 0.24785 0.88286 -0.00471 0.0
C845 C 0.26412 0.88548 0.94007 0.0
C846 C 0.25921 0.88537 0.86182 0.0
H847 H 0.18956 0.80673 0.82872 0.0
H848 H 0.21342 0.83041 0.88296 0.0
H849 H 0.18927 0.83454 0.86186 0.0
H850 H 0.20783 0.88343 0.87511 0.0
H851 H 0.21636 0.88394 0.01235 0.0
H852 H 0.38198 0.18002 0.56642 0.0
H853 H 0.3619 0.17675 0.44629 0.0
H854 H 0.33401 0.09402 0.45507 0.0
H855 H 0.35271 0.09692 0.57891 0.0
H856 H 0.36573 0.16322 0.31554 0.0
H857 H 0.27616 0.09474 0.4145 0.0
H858 H 0.29981 0.10968 0.48082 0.0
H859 H 0.29416 0.08111 0.43224 0.0
C860 C 0.37166 0.16111 0.54261 0.0
C861 C 0.3686 0.13868 0.58262 0.0
C862 C 0.36004 0.15926 0.47426 0.0
C863 C 0.34572 0.13503 0.44332 0.0
C864 C 0.34412 0.11278 0.47984 0.0
H865 H 0.31889 0.08661 0.02024 0.0
H866 H 0.31042 0.08677 0.15646 0.0
C867 C 0.35531 0.11454 0.54953 0.0
C868 C 0.33396 0.13348 0.36969 0.0
H869 H 0.28313 0.09857 0.27527 0.0
C870 C 0.3475 0.14963 0.30739 0.0
C871 C 0.3101 0.11589 0.3594 0.0
C872 C 0.2942 0.09961 0.42567 0.0
C873 C 0.33834 0.14745 0.23372 0.0
C874 C 0.31496 0.12844 0.22206 0.0
C875 C 0.30097 0.11322 0.28493 0.0
C876 C 0.3071 0.12074 0.14321 0.0
C877 C 0.35431 0.16411 0.16772 0.0
C878 C 0.30556 0.13818 0.09024 0.0
C879 C 0.31032 0.13803 0.01201 0.0
C880 C 0.31663 0.12048 0.9877 0.0
C881 C 0.31434 0.10049 0.03865 0.0
C882 C 0.30926 0.10041 0.11621 0.0
H883 H 0.37234 0.17688 0.18665 0.0
H884 H 0.3545 0.15175 0.12228 0.0
H885 H 0.34805 0.17657 0.14137 0.0
H886 H 0.30388 0.15397 0.11054 0.0
H887 H 0.31194 0.15352 0.97304 0.0
loop_
_geom_bond_atom_site_label_1
_geom_bond_atom_site_label_2
_geom_bond_distance
_geom_bond_site_symmetry_2
_ccdc_geom_bond_type
Tb0 C10 2.825 1_556 S
Tb0 O11 2.347 1_556 S
Tb0 O14 2.366 1_556 S
Tb0 O19 2.418 . S
Tb0 O20 2.384 . S
Tb0 O23 2.479 . S
Tb0 O24 2.471 1_556 S
Eu1 O12 2.418 . S
Eu1 O13 2.384 . S
Eu1 O16 2.479 . S
Eu1 O17 2.471 1_554 S
Eu1 O18 2.347 1_554 S
Eu1 O21 2.366 1_554 S
Eu1 C31 2.825 1_554 S
C2 O18 1.259 . S
C2 O19 1.265 . S
C3 O20 1.255 . S
C3 O21 1.265 . S
C4 C6 1.380 . S
C4 C7 1.374 . S
C4 C10 1.507 . S
C5 C6 1.384 . S
C5 C9 1.387 . S
C5 H32 0.930 . S
C6 C4 1.380 . S
C6 C5 1.384 . S
C6 H33 0.931 1_554 S
C7 C4 1.374 . S
C7 C8 1.390 . S
C7 H34 0.930 . S
C8 C7 1.390 . S
C8 C9 1.391 . S
C8 H35 0.930 . S
C9 C5 1.387 . S
C9 C8 1.391 . S
C10 Tb0 2.825 1_554 S
C10 C4 1.507 . S
C10 O23 1.238 1_554 S
C10 O24 1.247 . S
O11 Tb0 2.347 1_554 S
O11 C15 1.259 . S
O12 Eu1 2.418 . S
O12 C15 1.265 . S
O13 Eu1 2.384 . S
O13 C22 1.255 . S
O14 Tb0 2.366 1_554 S
O14 C22 1.265 . S
C15 O11 1.259 . S
C15 O12 1.265 . S
O16 Eu1 2.479 . S
O16 C31 1.238 1_554 S
O17 Eu1 2.471 1_556 S
O17 C31 1.247 . S
O18 Eu1 2.347 1_556 S
O18 C2 1.259 . S
O19 Tb0 2.418 . S
O19 C2 1.265 . S
O20 Tb0 2.384 . S
O20 C3 1.255 . S
O21 Eu1 2.366 1_556 S
O21 C3 1.265 . S
C22 O13 1.255 . S
C22 O14 1.265 . S
O23 Tb0 2.479 . S
O23 C10 1.238 1_556 S
O24 Tb0 2.471 1_554 S
O24 C10 1.247 . S
C25 C28 1.380 . S
C25 C29 1.374 . S
C25 C31 1.507 . S
C26 C27 1.387 . S
C26 C30 1.391 . S
C27 C26 1.387 . S
C27 C28 1.384 . S
C27 H36 0.930 . S
C28 C25 1.380 . S
C28 C27 1.384 . S
C28 H37 0.931 1_556 S
C29 C25 1.374 . S
C29 C30 1.390 . S
C29 H38 0.930 . S
C30 C26 1.391 . S
C30 C29 1.390 . S
C30 H39 0.930 . S
C31 Eu1 2.825 1_556 S
C31 O16 1.238 1_556 S
C31 O17 1.247 . S
C31 C25 1.507 . S
H32 C5 0.930 . S
H33 C6 0.931 1_556 S
H34 C7 0.930 . S
H35 C8 0.930 . S
H36 C27 0.930 . S
H37 C28 0.931 1_554 S
H38 C29 0.930 . S
H39 C30 0.930 . S
Tb40 C50 2.825 . S
Tb40 O51 2.347 . S
Tb40 O54 2.366 . S
Tb40 O59 2.418 . S
Tb40 O60 2.384 . S
Tb40 O63 2.479 . S
Tb40 O64 2.471 . S
Eu41 O52 2.418 . S
Eu41 O53 2.384 . S
Eu41 O56 2.479 . S
Eu41 O57 2.471 . S
Eu41 O58 2.347 . S
Eu41 O61 2.366 . S
Eu41 C71 2.825 . S
C42 O58 1.259 . S
C42 O59 1.265 . S
C43 O60 1.255 . S
C43 O61 1.265 . S
C44 C46 1.380 . S
C44 C47 1.374 . S
C44 C50 1.507 . S
C45 C46 1.384 . S
C45 C49 1.387 . S
C45 H72 0.930 . S
C46 C44 1.380 . S
C46 C45 1.384 . S
C46 H73 0.931 . S
C47 C44 1.374 . S
C47 C48 1.390 . S
C47 H74 0.930 . S
C48 C47 1.390 . S
C48 C49 1.391 . S
C48 H75 0.930 1_556 S
C49 C45 1.387 . S
C49 C48 1.391 . S
C50 Tb40 2.825 . S
C50 C44 1.507 . S
C50 O63 1.238 . S
C50 O64 1.247 . S
O51 Tb40 2.347 . S
O51 C55 1.259 . S
O52 Eu41 2.418 . S
O52 C55 1.265 . S
O53 Eu41 2.384 . S
O53 C62 1.255 . S
O54 Tb40 2.366 . S
O54 C62 1.265 . S
C55 O51 1.259 . S
C55 O52 1.265 . S
O56 Eu41 2.479 . S
O56 C71 1.238 . S
O57 Eu41 2.471 . S
O57 C71 1.247 . S
O58 Eu41 2.347 . S
O58 C42 1.259 . S
O59 Tb40 2.418 . S
O59 C42 1.265 . S
O60 Tb40 2.384 . S
O60 C43 1.255 . S
O61 Eu41 2.366 . S
O61 C43 1.265 . S
C62 O53 1.255 . S
C62 O54 1.265 . S
O63 Tb40 2.479 . S
O63 C50 1.238 . S
O64 Tb40 2.471 . S
O64 C50 1.247 . S
C65 C68 1.380 . S
C65 C69 1.374 . S
C65 C71 1.507 . S
C66 C67 1.387 . S
C66 C70 1.391 . S
C67 C66 1.387 . S
C67 C68 1.384 . S
C67 H76 0.930 . S
C68 C65 1.380 . S
C68 C67 1.384 . S
C68 H77 0.931 . S
C69 C65 1.374 . S
C69 C70 1.390 . S
C69 H78 0.930 . S
C70 C66 1.391 . S
C70 C69 1.390 . S
C70 H79 0.930 . S
C71 Eu41 2.825 . S
C71 O56 1.238 . S
C71 O57 1.247 . S
C71 C65 1.507 . S
H72 C45 0.930 . S
H73 C46 0.931 . S
H74 C47 0.930 . S
H75 C48 0.930 1_554 S
H76 C67 0.930 . S
H77 C68 0.931 . S
H78 C69 0.930 . S
H79 C70 0.930 . S
Tb80 C90 2.825 . S
Tb80 O91 2.347 . S
Tb80 O94 2.366 . S
Tb80 O99 2.418 1_554 S
Tb80 O100 2.384 . S
Tb80 O103 2.479 . S
Tb80 O104 2.471 . S
Eu81 O92 2.418 . S
Eu81 O93 2.384 . S
Eu81 O96 2.479 . S
Eu81 O97 2.481 . S
Eu81 O98 2.338 1_554 S
Eu81 O101 2.366 . S
Eu81 C111 2.825 . S
C82 O98 1.269 . S
C82 O99 1.265 . S
C83 O100 1.255 . S
C83 O101 1.265 . S
C84 C86 1.380 . S
C84 C87 1.374 . S
C84 C90 1.507 . S
C85 C86 1.384 . S
C85 C89 1.387 . S
C85 H112 0.930 . S
C86 C84 1.380 . S
C86 C85 1.384 . S
C86 H113 0.931 . S
C87 C84 1.374 . S
C87 C88 1.390 . S
C87 H114 0.930 . S
C88 C87 1.390 . S
C88 C89 1.391 . S
C88 H115 0.930 . S
C89 C85 1.387 . S
C89 C88 1.391 . S
C90 Tb80 2.825 . S
C90 C84 1.507 . S
C90 O103 1.238 . S
C90 O104 1.247 . S
O91 Tb80 2.347 . S
O91 C95 1.259 . S
O92 Eu81 2.418 . S
O92 C95 1.265 . S
O93 Eu81 2.384 . S
O93 C102 1.255 . S
O94 Tb80 2.366 . S
O94 C102 1.265 . S
C95 O91 1.259 . S
C95 O92 1.265 . S
O96 Eu81 2.479 . S
O96 C111 1.238 . S
O97 Eu81 2.481 . S
O97 C111 1.257 . S
O98 Eu81 2.338 1_556 S
O98 C82 1.269 . S
O99 Tb80 2.418 1_556 S
O99 C82 1.265 . S
O100 Tb80 2.384 . S
O100 C83 1.255 . S
O101 Eu81 2.366 . S
O101 C83 1.265 . S
C102 O93 1.255 . S
C102 O94 1.265 . S
O103 Tb80 2.479 . S
O103 C90 1.238 . S
O104 Tb80 2.471 . S
O104 C90 1.247 . S
C105 C108 1.380 . S
C105 C109 1.374 1_554 S
C105 C111 1.507 . S
C106 C107 1.387 1_556 S
C106 C110 1.391 . S
C107 C106 1.387 1_554 S
C107 C108 1.384 . S
C107 H116 0.930 . S
C108 C105 1.380 . S
C108 C107 1.384 . S
C108 H117 0.931 . S
C109 C105 1.374 1_556 S
C109 C110 1.390 . S
C109 H118 0.930 . S
C110 C106 1.391 . S
C110 C109 1.390 . S
C110 H119 0.930 . S
C111 Eu81 2.825 . S
C111 O96 1.238 . S
C111 O97 1.257 . S
C111 C105 1.507 . S
H112 C85 0.930 . S
H113 C86 0.931 . S
H114 C87 0.930 . S
H115 C88 0.930 . S
H116 C107 0.930 . S
H117 C108 0.931 . S
H118 C109 0.930 . S
H119 C110 0.930 . S
Tb120 C130 2.825 . S
Tb120 O131 2.347 . S
Tb120 O134 2.366 . S
Tb120 O139 2.418 . S
Tb120 O140 2.384 . S
Tb120 O143 2.479 . S
Tb120 O144 2.471 . S
Eu121 O132 2.418 . S
Eu121 O133 2.384 . S
Eu121 O136 2.479 . S
Eu121 O137 2.471 . S
Eu121 O138 2.347 . S
Eu121 O141 2.366 . S
Eu121 C151 2.825 . S
C122 O138 1.259 . S
C122 O139 1.265 . S
C123 O140 1.255 . S
C123 O141 1.265 . S
C124 C126 1.380 . S
C124 C127 1.374 . S
C124 C130 1.507 . S
C125 C126 1.384 . S
C125 C129 1.387 . S
C125 H152 0.930 . S
C126 C124 1.380 . S
C126 C125 1.384 . S
C126 H153 0.931 . S
C127 C124 1.374 . S
C127 C128 1.390 . S
C127 H154 0.930 . S
C128 C127 1.390 . S
C128 C129 1.391 . S
C128 H155 0.930 . S
C129 C125 1.387 . S
C129 C128 1.391 . S
C130 Tb120 2.825 . S
C130 C124 1.507 . S
C130 O143 1.238 . S
C130 O144 1.247 . S
O131 Tb120 2.347 . S
O131 C135 1.259 . S
O132 Eu121 2.418 . S
O132 C135 1.265 . S
O133 Eu121 2.384 . S
O133 C142 1.255 . S
O134 Tb120 2.366 . S
O134 C142 1.265 . S
C135 O131 1.259 . S
C135 O132 1.265 . S
O136 Eu121 2.479 . S
O136 C151 1.238 . S
O137 Eu121 2.471 . S
O137 C151 1.247 . S
O138 Eu121 2.347 . S
O138 C122 1.259 . S
O139 Tb120 2.418 . S
O139 C122 1.265 . S
O140 Tb120 2.384 . S
O140 C123 1.255 . S
O141 Eu121 2.366 . S
O141 C123 1.265 . S
C142 O133 1.255 . S
C142 O134 1.265 . S
O143 Tb120 2.479 . S
O143 C130 1.238 . S
O144 Tb120 2.471 . S
O144 C130 1.247 . S
C145 C148 1.380 . S
C145 C149 1.374 . S
C145 C151 1.507 . S
C146 C147 1.387 . S
C146 C150 1.391 . S
C147 C146 1.387 . S
C147 C148 1.384 . S
C147 H156 0.930 . S
C148 C145 1.380 . S
C148 C147 1.384 . S
C148 H157 0.931 . S
C149 C145 1.374 . S
C149 C150 1.390 . S
C149 H158 0.930 . S
C150 C146 1.391 . S
C150 C149 1.390 . S
C150 H159 0.930 1_556 S
C151 Eu121 2.825 . S
C151 O136 1.238 . S
C151 O137 1.247 . S
C151 C145 1.507 . S
H152 C125 0.930 . S
H153 C126 0.931 . S
H154 C127 0.930 . S
H155 C128 0.930 . S
H156 C147 0.930 . S
H157 C148 0.931 . S
H158 C149 0.930 . S
H159 C150 0.930 1_554 S
Tb160 C170 2.825 . S
Tb160 O171 2.347 . S
Tb160 O174 2.366 . S
Tb160 O179 2.418 1_554 S
Tb160 O180 2.384 . S
Tb160 O183 2.479 . S
Tb160 O184 2.471 . S
Eu161 O172 2.418 . S
Eu161 O173 2.384 . S
Eu161 O176 2.479 . S
Eu161 O177 2.471 1_554 S
Eu161 O178 2.347 1_554 S
Eu161 O181 2.366 . S
Eu161 C191 2.825 . S
C162 O178 1.259 . S
C162 O179 1.265 . S
C163 O180 1.255 . S
C163 O181 1.265 . S
C164 C166 1.380 . S
C164 C167 1.374 . S
C164 C170 1.507 . S
C165 C166 1.384 . S
C165 C169 1.387 . S
C165 H192 0.930 . S
C166 C164 1.380 . S
C166 C165 1.384 . S
C166 H193 0.931 . S
C167 C164 1.374 . S
C167 C168 1.390 . S
C167 H194 0.930 . S
C168 C167 1.390 . S
C168 C169 1.391 . S
C168 H195 0.930 . S
C169 C165 1.387 . S
C169 C168 1.391 . S
C170 Tb160 2.825 . S
C170 C164 1.507 . S
C170 O183 1.238 . S
C170 O184 1.247 . S
O171 Tb160 2.347 . S
O171 C175 1.259 . S
O172 Eu161 2.418 . S
O172 C175 1.265 . S
O173 Eu161 2.384 . S
O173 C182 1.255 . S
O174 Tb160 2.366 . S
O174 C182 1.265 . S
C175 O171 1.259 . S
C175 O172 1.265 . S
O176 Eu161 2.479 . S
O176 C191 1.238 . S
O177 Eu161 2.471 1_556 S
O177 C191 1.247 1_556 S
O178 Eu161 2.347 1_556 S
O178 C162 1.259 . S
O179 Tb160 2.418 1_556 S
O179 C162 1.265 . S
O180 Tb160 2.384 . S
O180 C163 1.255 . S
O181 Eu161 2.366 . S
O181 C163 1.265 . S
C182 O173 1.255 . S
C182 O174 1.265 . S
O183 Tb160 2.479 . S
O183 C170 1.238 . S
O184 Tb160 2.471 . S
O184 C170 1.247 . S
C185 C188 1.380 1_556 S
C185 C189 1.374 . S
C185 C191 1.507 1_556 S
C186 C187 1.387 1_556 S
C186 C190 1.391 . S
C187 C186 1.387 1_554 S
C187 C188 1.384 . S
C187 H196 0.930 . S
C188 C185 1.380 1_554 S
C188 C187 1.384 . S
C188 H197 0.931 . S
C189 C185 1.374 . S
C189 C190 1.390 . S
C189 H198 0.930 . S
C190 C186 1.391 . S
C190 C189 1.390 . S
C190 H199 0.930 . S
C191 Eu161 2.825 . S
C191 O176 1.238 . S
C191 O177 1.247 1_554 S
C191 C185 1.507 1_554 S
H192 C165 0.930 . S
H193 C166 0.931 . S
H194 C167 0.930 . S
H195 C168 0.930 . S
H196 C187 0.930 . S
H197 C188 0.931 . S
H198 C189 0.930 . S
H199 C190 0.930 . S
Tb200 C210 2.825 . S
Tb200 O211 2.347 . S
Tb200 O214 2.366 . S
Tb200 O219 2.418 . S
Tb200 O220 2.384 . S
Tb200 O223 2.479 . S
Tb200 O224 2.471 . S
Eu201 O212 2.418 . S
Eu201 O213 2.384 . S
Eu201 O216 2.479 . S
Eu201 O217 2.471 . S
Eu201 O218 2.347 . S
Eu201 O221 2.366 . S
Eu201 C231 2.825 . S
C202 O218 1.259 . S
C202 O219 1.265 . S
C203 O220 1.255 . S
C203 O221 1.265 . S
C204 C206 1.380 . S
C204 C207 1.374 . S
C204 C210 1.507 . S
C205 C206 1.384 . S
C205 C209 1.387 . S
C205 H232 0.930 . S
C206 C204 1.380 . S
C206 C205 1.384 . S
C206 H233 0.931 . S
C207 C204 1.374 . S
C207 C208 1.390 . S
C207 H234 0.930 . S
C208 C207 1.390 . S
C208 C209 1.391 . S
C208 H235 0.930 . S
C209 C205 1.387 . S
C209 C208 1.391 . S
C210 Tb200 2.825 . S
C210 C204 1.507 . S
C210 O223 1.238 . S
C210 O224 1.247 . S
O211 Tb200 2.347 . S
O211 C215 1.259 . S
O212 Eu201 2.418 . S
O212 C215 1.265 . S
O213 Eu201 2.384 . S
O213 C222 1.255 . S
O214 Tb200 2.366 . S
O214 C222 1.265 . S
C215 O211 1.259 . S
C215 O212 1.265 . S
O216 Eu201 2.479 . S
O216 C231 1.238 . S
O217 Eu201 2.471 . S
O217 C231 1.247 . S
O218 Eu201 2.347 . S
O218 C202 1.259 . S
O219 Tb200 2.418 . S
O219 C202 1.265 . S
O220 Tb200 2.384 . S
O220 C203 1.255 . S
O221 Eu201 2.366 . S
O221 C203 1.265 . S
C222 O213 1.255 . S
C222 O214 1.265 . S
O223 Tb200 2.479 . S
O223 C210 1.238 . S
O224 Tb200 2.471 . S
O224 C210 1.247 . S
C225 C228 1.380 . S
C225 C229 1.374 . S
C225 C231 1.507 . S
C226 C227 1.387 . S
C226 C230 1.391 1_556 S
C227 C226 1.387 . S
C227 C228 1.384 . S
C227 H236 0.930 . S
C228 C225 1.380 . S
C228 C227 1.384 . S
C228 H237 0.931 . S
C229 C225 1.374 . S
C229 C230 1.390 1_556 S
C229 H238 0.930 1_556 S
C230 C226 1.391 1_554 S
C230 C229 1.390 1_554 S
C230 H239 0.930 . S
C231 Eu201 2.825 . S
C231 O216 1.238 . S
C231 O217 1.247 . S
C231 C225 1.507 . S
H232 C205 0.930 . S
H233 C206 0.931 . S
H234 C207 0.930 . S
H235 C208 0.930 . S
H236 C227 0.930 . S
H237 C228 0.931 . S
H238 C229 0.930 1_554 S
H239 C230 0.930 . S
H240 C248 0.929 . S
H241 C250 0.930 . S
H242 C252 0.930 . S
H243 C255 0.929 . S
H244 C258 0.930 . S
H245 C260 0.960 . S
H246 C260 0.960 . S
H247 C260 0.960 . S
C248 H240 0.929 . S
C248 C249 1.377 . S
C248 C250 1.384 . S
C249 C248 1.377 . S
C249 C255 1.390 . S
C250 H241 0.930 . S
C250 C248 1.384 . S
C250 C251 1.372 . S
C251 C250 1.372 . S
C251 C252 1.400 . S
C251 C256 1.490 . S
C252 H242 0.930 . S
C252 C251 1.400 . S
C252 C255 1.386 . S
H253 C269 0.930 . S
H254 C270 0.931 . S
C255 H243 0.929 . S
C255 C249 1.390 . S
C255 C252 1.386 . S
C256 C251 1.490 . S
C256 C258 1.395 . S
C256 C259 1.403 . S
H257 C263 0.930 . S
C258 H244 0.930 . S
C258 C256 1.395 . S
C258 C261 1.403 . S
C259 C256 1.403 . S
C259 C260 1.524 . S
C259 C263 1.400 . S
C260 H245 0.960 . S
C260 H246 0.960 . S
C260 H247 0.960 . S
C260 C259 1.524 . S
C261 C258 1.403 . S
C261 C262 1.392 . S
C261 C265 1.495 . S
C262 C261 1.392 . S
C262 C263 1.385 . S
C262 C264 1.478 . S
C263 H257 0.930 . S
C263 C259 1.400 . S
C263 C262 1.385 . S
C264 C262 1.478 . S
C264 C266 1.381 . S
C264 C270 1.383 . S
C265 C261 1.495 . S
C265 H271 0.959 . S
C265 H272 0.961 . S
C265 H273 0.960 . S
C266 C264 1.381 . S
C266 C267 1.394 . S
C266 H274 0.930 . S
C267 C266 1.394 . S
C267 C268 1.383 . S
C267 H275 0.929 . S
C268 C267 1.383 . S
C268 C269 1.377 . S
C269 H253 0.930 . S
C269 C268 1.377 . S
C269 C270 1.379 . S
C270 H254 0.931 . S
C270 C264 1.383 . S
C270 C269 1.379 . S
H271 C265 0.959 . S
H272 C265 0.961 . S
H273 C265 0.960 . S
H274 C266 0.930 . S
H275 C267 0.929 . S
H276 C284 0.929 . S
H277 C286 0.930 . S
H278 C288 0.930 . S
H279 C291 0.929 . S
H280 C294 0.930 . S
H281 C296 0.960 . S
H282 C296 0.960 . S
H283 C296 0.960 . S
C284 H276 0.929 . S
C284 C285 1.377 . S
C284 C286 1.384 . S
C285 C284 1.377 . S
C285 C291 1.390 . S
C286 H277 0.930 . S
C286 C284 1.384 . S
C286 C287 1.372 . S
C287 C286 1.372 . S
C287 C288 1.400 . S
C287 C292 1.490 . S
C288 H278 0.930 . S
C288 C287 1.400 . S
C288 C291 1.386 . S
H289 C305 0.930 . S
H290 C306 0.931 . S
C291 H279 0.929 . S
C291 C285 1.390 . S
C291 C288 1.386 . S
C292 C287 1.490 . S
C292 C294 1.395 . S
C292 C295 1.403 . S
H293 C299 0.930 . S
C294 H280 0.930 . S
C294 C292 1.395 . S
C294 C297 1.403 1_455 S
C295 C292 1.403 . S
C295 C296 1.524 . S
C295 C299 1.400 1_455 S
C296 H281 0.960 . S
C296 H282 0.960 . S
C296 H283 0.960 . S
C296 C295 1.524 . S
C297 C294 1.403 1_655 S
C297 C298 1.392 . S
C297 C301 1.495 . S
C298 C297 1.392 . S
C298 C299 1.385 . S
C298 C300 1.478 . S
C299 H293 0.930 . S
C299 C295 1.400 1_655 S
C299 C298 1.385 . S
C300 C298 1.478 . S
C300 C302 1.381 . S
C300 C306 1.383 . S
C301 C297 1.495 . S
C301 H307 0.959 . S
C301 H308 0.961 . S
C301 H309 0.960 . S
C302 C300 1.381 . S
C302 C303 1.394 . S
C302 H310 0.930 . S
C303 C302 1.394 . S
C303 C304 1.383 . S
C303 H311 0.929 . S
C304 C303 1.383 . S
C304 C305 1.377 . S
C305 H289 0.930 . S
C305 C304 1.377 . S
C305 C306 1.379 . S
C306 H290 0.931 . S
C306 C300 1.383 . S
C306 C305 1.379 . S
H307 C301 0.959 . S
H308 C301 0.961 . S
H309 C301 0.960 . S
H310 C302 0.930 . S
H311 C303 0.929 . S
H312 C320 0.929 . S
H313 C322 0.930 . S
H314 C324 0.930 . S
H315 C327 0.929 . S
H316 C330 0.930 . S
H317 C332 0.960 . S
H318 C332 0.960 . S
H319 C332 0.960 . S
C320 H312 0.929 . S
C320 C321 1.377 . S
C320 C322 1.384 . S
C321 C320 1.377 . S
C321 C327 1.390 . S
C322 H313 0.930 . S
C322 C320 1.384 . S
C322 C323 1.372 . S
C323 C322 1.372 . S
C323 C324 1.400 . S
C323 C328 1.490 . S
C324 H314 0.930 . S
C324 C323 1.400 . S
C324 C327 1.386 . S
H325 C341 0.930 . S
H326 C342 0.931 . S
C327 H315 0.929 . S
C327 C321 1.390 . S
C327 C324 1.386 . S
C328 C323 1.490 . S
C328 C330 1.395 . S
C328 C331 1.403 . S
H329 C335 0.930 . S
C330 H316 0.930 . S
C330 C328 1.395 . S
C330 C333 1.403 . S
C331 C328 1.403 . S
C331 C332 1.524 . S
C331 C335 1.400 . S
C332 H317 0.960 . S
C332 H318 0.960 . S
C332 H319 0.960 . S
C332 C331 1.524 . S
C333 C330 1.403 . S
C333 C334 1.392 . S
C333 C337 1.495 1_545 S
C334 C333 1.392 . S
C334 C335 1.385 . S
C334 C336 1.478 1_545 S
C335 H329 0.930 . S
C335 C331 1.400 . S
C335 C334 1.385 . S
C336 C334 1.478 1_565 S
C336 C338 1.381 . S
C336 C342 1.383 . S
C337 C333 1.495 1_565 S
C337 H343 0.959 . S
C337 H344 0.961 . S
C337 H345 0.960 . S
C338 C336 1.381 . S
C338 C339 1.394 . S
C338 H346 0.930 . S
C339 C338 1.394 . S
C339 C340 1.383 . S
C339 H347 0.929 . S
C340 C339 1.383 . S
C340 C341 1.377 . S
C341 H325 0.930 . S
C341 C340 1.377 . S
C341 C342 1.379 . S
C342 H326 0.931 . S
C342 C336 1.383 . S
C342 C341 1.379 . S
H343 C337 0.959 . S
H344 C337 0.961 . S
H345 C337 0.960 . S
H346 C338 0.930 . S
H347 C339 0.929 . S
H348 C356 0.929 . S
H349 C358 0.930 . S
H350 C360 0.930 . S
H351 C363 0.929 . S
H352 C366 0.930 . S
H353 C368 0.960 . S
H354 C368 0.960 . S
H355 C368 0.960 . S
C356 H348 0.929 . S
C356 C357 1.377 . S
C356 C358 1.384 . S
C357 C356 1.377 . S
C357 C363 1.390 . S
C358 H349 0.930 . S
C358 C356 1.384 . S
C358 C359 1.372 . S
C359 C358 1.372 . S
C359 C360 1.400 . S
C359 C364 1.490 . S
C360 H350 0.930 . S
C360 C359 1.400 . S
C360 C363 1.386 . S
H361 C377 0.930 . S
H362 C378 0.931 . S
C363 H351 0.929 . S
C363 C357 1.390 . S
C363 C360 1.386 . S
C364 C359 1.490 . S
C364 C366 1.395 . S
C364 C367 1.403 . S
H365 C371 0.930 . S
C366 H352 0.930 . S
C366 C364 1.395 . S
C366 C369 1.403 . S
C367 C364 1.403 . S
C367 C368 1.524 . S
C367 C371 1.400 . S
C368 H353 0.960 . S
C368 H354 0.960 . S
C368 H355 0.960 . S
C368 C367 1.524 . S
C369 C366 1.403 . S
C369 C370 1.392 . S
C369 C373 1.495 . S
C370 C369 1.392 . S
C370 C371 1.385 . S
C370 C372 1.478 . S
C371 H365 0.930 . S
C371 C367 1.400 . S
C371 C370 1.385 . S
C372 C370 1.478 . S
C372 C374 1.381 . S
C372 C378 1.383 . S
C373 C369 1.495 . S
C373 H379 0.959 . S
C373 H380 0.961 . S
C373 H381 0.960 . S
C374 C372 1.381 . S
C374 C375 1.394 . S
C374 H382 0.930 . S
C375 C374 1.394 . S
C375 C376 1.383 . S
C375 H383 0.929 . S
C376 C375 1.383 . S
C376 C377 1.377 . S
C377 H361 0.930 . S
C377 C376 1.377 . S
C377 C378 1.379 . S
C378 H362 0.931 . S
C378 C372 1.383 . S
C378 C377 1.379 . S
H379 C373 0.959 . S
H380 C373 0.961 . S
H381 C373 0.960 . S
H382 C374 0.930 . S
H383 C375 0.929 . S
H384 C392 0.929 . S
H385 C394 0.930 . S
H386 C396 0.930 . S
H387 C399 0.929 . S
H388 C402 0.930 . S
H389 C404 0.960 . S
H390 C404 0.960 . S
H391 C404 0.960 . S
C392 H384 0.929 . S
C392 C393 1.377 . S
C392 C394 1.384 1_455 S
C393 C392 1.377 . S
C393 C399 1.390 . S
C394 H385 0.930 . S
C394 C392 1.384 1_655 S
C394 C395 1.372 . S
C395 C394 1.372 . S
C395 C396 1.400 1_655 S
C395 C400 1.490 . S
C396 H386 0.930 . S
C396 C395 1.400 1_455 S
C396 C399 1.386 . S
H397 C413 0.930 . S
H398 C414 0.931 . S
C399 H387 0.929 . S
C399 C393 1.390 . S
C399 C396 1.386 . S
C400 C395 1.490 . S
C400 C402 1.395 . S
C400 C403 1.403 . S
H401 C407 0.930 . S
C402 H388 0.930 . S
C402 C400 1.395 . S
C402 C405 1.403 . S
C403 C400 1.403 . S
C403 C404 1.524 . S
C403 C407 1.400 . S
C404 H389 0.960 . S
C404 H390 0.960 . S
C404 H391 0.960 . S
C404 C403 1.524 . S
C405 C402 1.403 . S
C405 C406 1.392 . S
C405 C409 1.495 . S
C406 C405 1.392 . S
C406 C407 1.385 . S
C406 C408 1.478 . S
C407 H401 0.930 . S
C407 C403 1.400 . S
C407 C406 1.385 . S
C408 C406 1.478 . S
C408 C410 1.381 . S
C408 C414 1.383 . S
C409 C405 1.495 . S
C409 H415 0.959 . S
C409 H416 0.961 . S
C409 H417 0.960 . S
C410 C408 1.381 . S
C410 C411 1.394 . S
C410 H418 0.930 . S
C411 C410 1.394 . S
C411 C412 1.383 . S
C411 H419 0.929 . S
C412 C411 1.383 . S
C412 C413 1.377 . S
C413 H397 0.930 . S
C413 C412 1.377 . S
C413 C414 1.379 . S
C414 H398 0.931 . S
C414 C408 1.383 . S
C414 C413 1.379 . S
H415 C409 0.959 . S
H416 C409 0.961 . S
H417 C409 0.960 . S
H418 C410 0.930 . S
H419 C411 0.929 . S
H420 C428 0.929 . S
H421 C430 0.930 . S
H422 C432 0.930 . S
H423 C435 0.929 . S
H424 C438 0.930 . S
H425 C440 0.960 . S
H426 C440 0.960 1_565 S
H427 C440 0.960 . S
C428 H420 0.929 . S
C428 C429 1.377 . S
C428 C430 1.384 . S
C429 C428 1.377 . S
C429 C435 1.390 . S
C430 H421 0.930 . S
C430 C428 1.384 . S
C430 C431 1.372 . S
C431 C430 1.372 . S
C431 C432 1.400 . S
C431 C436 1.490 . S
C432 H422 0.930 . S
C432 C431 1.400 . S
C432 C435 1.386 . S
H433 C449 0.930 . S
H434 C450 0.931 . S
C435 H423 0.929 . S
C435 C429 1.390 . S
C435 C432 1.386 . S
C436 C431 1.490 . S
C436 C438 1.395 . S
C436 C439 1.403 . S
H437 C443 0.930 . S
C438 H424 0.930 . S
C438 C436 1.395 . S
C438 C441 1.403 . S
C439 C436 1.403 . S
C439 C440 1.524 1_565 S
C439 C443 1.400 1_565 S
C440 H425 0.960 . S
C440 H426 0.960 1_545 S
C440 H427 0.960 . S
C440 C439 1.524 1_545 S
C441 C438 1.403 . S
C441 C442 1.392 . S
C441 C445 1.495 . S
C442 C441 1.392 . S
C442 C443 1.385 1_565 S
C442 C444 1.478 1_565 S
C443 H437 0.930 . S
C443 C439 1.400 1_545 S
C443 C442 1.385 1_545 S
C444 C442 1.478 1_545 S
C444 C446 1.388 1_545 S
C444 C450 1.383 . S
C445 C441 1.495 . S
C445 H451 0.959 . S
C445 H452 0.961 . S
C445 H453 0.960 . S
C446 C444 1.388 1_565 S
C446 C447 1.371 1_565 S
C446 H454 0.948 . S
C447 C446 1.371 1_545 S
C447 C448 1.383 . S
C447 H455 0.929 . S
C448 C447 1.383 . S
C448 C449 1.377 . S
C449 H433 0.930 . S
C449 C448 1.377 . S
C449 C450 1.379 . S
C450 H434 0.931 . S
C450 C444 1.383 . S
C450 C449 1.379 . S
H451 C445 0.959 . S
H452 C445 0.961 . S
H453 C445 0.960 . S
H454 C446 0.948 . S
H455 C447 0.929 . S
H456 C464 0.929 . S
H457 C466 0.930 . S
H458 C468 0.930 . S
H459 C471 0.929 . S
H460 C474 0.930 . S
H461 C476 0.960 . S
H462 C476 0.960 . S
H463 C476 0.960 . S
C464 H456 0.929 . S
C464 C465 1.377 . S
C464 C466 1.384 . S
C465 C464 1.377 . S
C465 C471 1.390 1_554 S
C466 H457 0.930 . S
C466 C464 1.384 . S
C466 C467 1.372 1_554 S
C467 C466 1.372 1_556 S
C467 C468 1.400 . S
C467 C472 1.490 . S
C468 H458 0.930 . S
C468 C467 1.400 . S
C468 C471 1.386 . S
H469 C485 0.930 . S
H470 C486 0.931 . S
C471 H459 0.929 . S
C471 C465 1.390 1_556 S
C471 C468 1.386 . S
C472 C467 1.490 . S
C472 C474 1.395 . S
C472 C475 1.403 . S
H473 C479 0.930 . S
C474 H460 0.930 . S
C474 C472 1.395 . S
C474 C477 1.403 . S
C475 C472 1.403 . S
C475 C476 1.524 1_556 S
C475 C479 1.400 . S
C476 H461 0.960 . S
C476 H462 0.960 . S
C476 H463 0.960 . S
C476 C475 1.524 1_554 S
C477 C474 1.403 . S
C477 C478 1.392 . S
C477 C481 1.495 . S
C478 C477 1.392 . S
C478 C479 1.385 . S
C478 C480 1.478 . S
C479 H473 0.930 . S
C479 C475 1.400 . S
C479 C478 1.385 . S
C480 C478 1.478 . S
C480 C482 1.381 . S
C480 C486 1.383 . S
C481 C477 1.495 . S
C481 H487 0.959 . S
C481 H488 0.961 . S
C481 H489 0.960 . S
C482 C480 1.381 . S
C482 C483 1.394 . S
C482 H490 0.930 . S
C483 C482 1.394 . S
C483 C484 1.383 . S
C483 H491 0.929 . S
C484 C483 1.383 . S
C484 C485 1.377 . S
C485 H469 0.930 . S
C485 C484 1.377 . S
C485 C486 1.379 . S
C486 H470 0.931 . S
C486 C480 1.383 . S
C486 C485 1.379 . S
H487 C481 0.959 . S
H488 C481 0.961 . S
H489 C481 0.960 . S
H490 C482 0.930 . S
H491 C483 0.929 . S
H492 C500 0.929 . S
H493 C502 0.930 . S
H494 C504 0.930 . S
H495 C507 0.929 . S
H496 C510 0.930 1_554 S
H497 C512 0.960 . S
H498 C512 0.960 . S
H499 C512 0.960 . S
C500 H492 0.929 . S
C500 C501 1.377 1_554 S
C500 C502 1.384 . S
C501 C500 1.377 1_556 S
C501 C507 1.390 . S
C502 H493 0.930 . S
C502 C500 1.384 . S
C502 C503 1.372 1_554 S
C503 C502 1.372 1_556 S
C503 C504 1.400 . S
C503 C508 1.490 . S
C504 H494 0.930 . S
C504 C503 1.400 . S
C504 C507 1.386 . S
H505 C521 0.930 . S
H506 C522 0.931 . S
C507 H495 0.929 . S
C507 C501 1.390 . S
C507 C504 1.386 . S
C508 C503 1.490 . S
C508 C510 1.395 . S
C508 C511 1.403 . S
H509 C515 0.930 . S
C510 H496 0.930 1_556 S
C510 C508 1.395 . S
C510 C513 1.403 . S
C511 C508 1.403 . S
C511 C512 1.524 . S
C511 C515 1.400 . S
C512 H497 0.960 . S
C512 H498 0.960 . S
C512 H499 0.960 . S
C512 C511 1.524 . S
C513 C510 1.403 . S
C513 C514 1.392 . S
C513 C517 1.495 1_556 S
C514 C513 1.392 . S
C514 C515 1.385 . S
C514 C516 1.478 . S
C515 H509 0.930 . S
C515 C511 1.400 . S
C515 C514 1.385 . S
C516 C514 1.478 . S
C516 C518 1.381 1_556 S
C516 C522 1.383 . S
C517 C513 1.495 1_554 S
C517 H523 0.959 . S
C517 H524 0.961 1_554 S
C517 H525 0.960 . S
C518 C516 1.381 1_554 S
C518 C519 1.394 . S
C518 H526 0.930 . S
C519 C518 1.394 . S
C519 C520 1.383 1_554 S
C519 H527 0.929 . S
C520 C519 1.383 1_556 S
C520 C521 1.377 . S
C521 H505 0.930 . S
C521 C520 1.377 . S
C521 C522 1.379 . S
C522 H506 0.931 . S
C522 C516 1.383 . S
C522 C521 1.379 . S
H523 C517 0.959 . S
H524 C517 0.961 1_556 S
H525 C517 0.960 . S
H526 C518 0.930 . S
H527 C519 0.929 . S
H528 C536 0.929 . S
H529 C538 0.930 . S
H530 C540 0.930 . S
H531 C543 0.929 . S
H532 C546 0.930 . S
H533 C548 0.960 . S
H534 C548 0.960 . S
H535 C548 0.960 1_556 S
C536 H528 0.929 . S
C536 C537 1.377 1_554 S
C536 C538 1.384 . S
C537 C536 1.377 1_556 S
C537 C543 1.390 . S
C538 H529 0.930 . S
C538 C536 1.384 . S
C538 C539 1.372 1_554 S
C539 C538 1.372 1_556 S
C539 C540 1.400 . S
C539 C544 1.490 . S
C540 H530 0.930 . S
C540 C539 1.400 . S
C540 C543 1.386 . S
H541 C557 0.930 . S
H542 C558 0.931 . S
C543 H531 0.929 . S
C543 C537 1.390 . S
C543 C540 1.386 . S
C544 C539 1.490 . S
C544 C546 1.395 . S
C544 C547 1.403 . S
H545 C551 0.930 . S
C546 H532 0.930 . S
C546 C544 1.395 . S
C546 C549 1.403 . S
C547 C544 1.403 . S
C547 C548 1.524 1_556 S
C547 C551 1.400 . S
C548 H533 0.960 . S
C548 H534 0.960 . S
C548 H535 0.960 1_554 S
C548 C547 1.524 1_554 S
C549 C546 1.403 . S
C549 C550 1.392 . S
C549 C553 1.495 . S
C550 C549 1.392 . S
C550 C551 1.385 . S
C550 C552 1.478 . S
C551 H545 0.930 . S
C551 C547 1.400 . S
C551 C550 1.385 . S
C552 C550 1.478 . S
C552 C554 1.381 1_556 S
C552 C558 1.383 . S
C553 C549 1.495 . S
C553 H559 0.959 . S
C553 H560 0.961 . S
C553 H561 0.960 . S
C554 C552 1.381 1_554 S
C554 C555 1.394 . S
C554 H562 0.930 . S
C555 C554 1.394 . S
C555 C556 1.383 1_554 S
C555 H563 0.929 . S
C556 C555 1.383 1_556 S
C556 C557 1.377 . S
C557 H541 0.930 . S
C557 C556 1.377 . S
C557 C558 1.379 . S
C558 H542 0.931 . S
C558 C552 1.383 . S
C558 C557 1.379 . S
H559 C553 0.959 . S
H560 C553 0.961 . S
H561 C553 0.960 . S
H562 C554 0.930 . S
H563 C555 0.929 . S
H564 C572 0.929 . S
H565 C574 0.930 . S
H566 C576 0.930 . S
H567 C579 0.929 . S
H568 C582 0.930 . S
H569 C584 0.960 . S
H570 C584 0.960 . S
H571 C584 0.960 . S
C572 H564 0.929 . S
C572 C573 1.377 . S
C572 C574 1.384 . S
C573 C572 1.377 . S
C573 C579 1.390 . S
C574 H565 0.930 . S
C574 C572 1.384 . S
C574 C575 1.372 . S
C575 C574 1.372 . S
C575 C576 1.400 . S
C575 C580 1.490 . S
C576 H566 0.930 . S
C576 C575 1.400 . S
C576 C579 1.386 . S
H577 C593 0.930 . S
H578 C594 0.931 . S
C579 H567 0.929 . S
C579 C573 1.390 . S
C579 C576 1.386 . S
C580 C575 1.490 . S
C580 C582 1.395 . S
C580 C583 1.403 . S
H581 C587 0.930 . S
C582 H568 0.930 . S
C582 C580 1.395 . S
C582 C585 1.403 . S
C583 C580 1.403 . S
C583 C584 1.524 . S
C583 C587 1.400 . S
C584 H569 0.960 . S
C584 H570 0.960 . S
C584 H571 0.960 . S
C584 C583 1.524 . S
C585 C582 1.403 . S
C585 C586 1.392 . S
C585 C589 1.495 . S
C586 C585 1.392 . S
C586 C587 1.385 . S
C586 C588 1.478 . S
C587 H581 0.930 . S
C587 C583 1.400 . S
C587 C586 1.385 . S
C588 C586 1.478 . S
C588 C590 1.381 . S
C588 C594 1.383 . S
C589 C585 1.495 . S
C589 H595 0.959 1_556 S
C589 H596 0.961 1_556 S
C589 H597 0.960 . S
C590 C588 1.381 . S
C590 C591 1.394 . S
C590 H598 0.930 . S
C591 C590 1.394 . S
C591 C592 1.383 . S
C591 H599 0.929 . S
C592 C591 1.383 . S
C592 C593 1.377 . S
C593 H577 0.930 . S
C593 C592 1.377 . S
C593 C594 1.379 . S
C594 H578 0.931 . S
C594 C588 1.383 . S
C594 C593 1.379 . S
H595 C589 0.959 1_554 S
H596 C589 0.961 1_554 S
H597 C589 0.960 . S
H598 C590 0.930 . S
H599 C591 0.929 . S
H600 C608 0.929 . S
H601 C610 0.930 1_554 S
H602 C612 0.930 . S
H603 C615 0.929 . S
H604 C618 0.930 . S
H605 C620 0.960 . S
H606 C620 0.960 . S
H607 C620 0.960 . S
C608 H600 0.929 . S
C608 C609 1.377 . S
C608 C610 1.384 . S
C609 C608 1.377 . S
C609 C615 1.390 . S
C610 H601 0.930 1_556 S
C610 C608 1.384 . S
C610 C611 1.372 . S
C611 C610 1.372 . S
C611 C612 1.400 . S
C611 C616 1.490 . S
C612 H602 0.930 . S
C612 C611 1.400 . S
C612 C615 1.386 . S
H613 C629 0.930 . S
H614 C630 0.931 . S
C615 H603 0.929 . S
C615 C609 1.390 . S
C615 C612 1.386 . S
C616 C611 1.490 . S
C616 C618 1.395 . S
C616 C619 1.403 1_556 S
H617 C623 0.930 . S
C618 H604 0.930 . S
C618 C616 1.395 . S
C618 C621 1.403 . S
C619 C616 1.403 1_554 S
C619 C620 1.524 . S
C619 C623 1.400 . S
C620 H605 0.960 . S
C620 H606 0.960 . S
C620 H607 0.960 . S
C620 C619 1.524 . S
C621 C618 1.403 . S
C621 C622 1.392 . S
C621 C625 1.495 . S
C622 C621 1.392 . S
C622 C623 1.385 1_556 S
C622 C624 1.478 1_556 S
C623 H617 0.930 . S
C623 C619 1.400 . S
C623 C622 1.385 1_554 S
C624 C622 1.478 1_554 S
C624 C626 1.381 . S
C624 C630 1.383 1_554 S
C625 C621 1.495 . S
C625 H631 0.959 . S
C625 H632 0.961 . S
C625 H633 0.960 . S
C626 C624 1.381 . S
C626 C627 1.394 . S
C626 H634 0.930 . S
C627 C626 1.394 . S
C627 C628 1.383 . S
C627 H635 0.929 . S
C628 C627 1.383 . S
C628 C629 1.377 1_554 S
C629 H613 0.930 . S
C629 C628 1.377 1_556 S
C629 C630 1.379 . S
C630 H614 0.931 . S
C630 C624 1.383 1_556 S
C630 C629 1.379 . S
H631 C625 0.959 . S
H632 C625 0.961 . S
H633 C625 0.960 . S
H634 C626 0.930 . S
H635 C627 0.929 . S
H636 C644 0.929 . S
H637 C646 0.930 . S
H638 C648 0.930 . S
H639 C651 0.929 . S
H640 C654 0.930 . S
H641 C656 0.960 . S
H642 C656 0.960 . S
H643 C656 0.960 . S
C644 H636 0.929 . S
C644 C645 1.377 . S
C644 C646 1.384 . S
C645 C644 1.377 . S
C645 C651 1.390 . S
C646 H637 0.930 . S
C646 C644 1.384 . S
C646 C647 1.372 . S
C647 C646 1.372 . S
C647 C648 1.400 . S
C647 C652 1.490 . S
C648 H638 0.930 . S
C648 C647 1.400 . S
C648 C651 1.386 . S
H649 C665 0.930 . S
H650 C666 0.931 . S
C651 H639 0.929 . S
C651 C645 1.390 . S
C651 C648 1.386 . S
C652 C647 1.490 . S
C652 C654 1.395 . S
C652 C655 1.403 . S
H653 C659 0.930 . S
C654 H640 0.930 . S
C654 C652 1.395 . S
C654 C657 1.403 . S
C655 C652 1.403 . S
C655 C656 1.524 1_556 S
C655 C659 1.400 . S
C656 H641 0.960 . S
C656 H642 0.960 . S
C656 H643 0.960 . S
C656 C655 1.524 1_554 S
C657 C654 1.403 . S
C657 C658 1.392 . S
C657 C661 1.495 . S
C658 C657 1.392 . S
C658 C659 1.385 . S
C658 C660 1.478 . S
C659 H653 0.930 . S
C659 C655 1.400 . S
C659 C658 1.385 . S
C660 C658 1.478 . S
C660 C662 1.381 . S
C660 C666 1.383 . S
C661 C657 1.495 . S
C661 H667 0.959 . S
C661 H668 0.961 . S
C661 H669 0.960 . S
C662 C660 1.381 . S
C662 C663 1.394 . S
C662 H670 0.930 . S
C663 C662 1.394 . S
C663 C664 1.383 . S
C663 H671 0.929 . S
C664 C663 1.383 . S
C664 C665 1.377 . S
C665 H649 0.930 . S
C665 C664 1.377 . S
C665 C666 1.379 . S
C666 H650 0.931 . S
C666 C660 1.383 . S
C666 C665 1.379 . S
H667 C661 0.959 . S
H668 C661 0.961 . S
H669 C661 0.960 . S
H670 C662 0.930 . S
H671 C663 0.929 . S
H672 C680 0.929 . S
H673 C682 0.930 . S
H674 C684 0.930 . S
H675 C687 0.929 . S
H676 C690 0.930 . S
H677 C692 0.960 . S
H678 C692 0.960 . S
H679 C692 0.960 . S
C680 H672 0.929 . S
C680 C681 1.377 . S
C680 C682 1.384 . S
C681 C680 1.377 . S
C681 C687 1.390 . S
C682 H673 0.930 . S
C682 C680 1.384 . S
C682 C683 1.372 . S
C683 C682 1.372 . S
C683 C684 1.400 . S
C683 C688 1.490 . S
C684 H674 0.930 . S
C684 C683 1.400 . S
C684 C687 1.386 . S
H685 C701 0.930 . S
H686 C702 0.931 . S
C687 H675 0.929 . S
C687 C681 1.390 . S
C687 C684 1.386 . S
C688 C683 1.490 . S
C688 C690 1.395 . S
C688 C691 1.403 . S
H689 C695 0.930 . S
C690 H676 0.930 . S
C690 C688 1.395 . S
C690 C693 1.403 . S
C691 C688 1.403 . S
C691 C692 1.524 . S
C691 C695 1.400 . S
C692 H677 0.960 . S
C692 H678 0.960 . S
C692 H679 0.960 . S
C692 C691 1.524 . S
C693 C690 1.403 . S
C693 C694 1.392 . S
C693 C697 1.495 . S
C694 C693 1.392 . S
C694 C695 1.385 . S
C694 C696 1.478 . S
C695 H689 0.930 . S
C695 C691 1.400 . S
C695 C694 1.385 . S
C696 C694 1.478 . S
C696 C698 1.381 . S
C696 C702 1.383 . S
C697 C693 1.495 . S
C697 H703 0.959 . S
C697 H704 0.961 . S
C697 H705 0.960 . S
C698 C696 1.381 . S
C698 C699 1.394 . S
C698 H706 0.930 . S
C699 C698 1.394 . S
C699 C700 1.383 . S
C699 H707 0.929 . S
C700 C699 1.383 . S
C700 C701 1.377 . S
C701 H685 0.930 . S
C701 C700 1.377 . S
C701 C702 1.379 . S
C702 H686 0.931 . S
C702 C696 1.383 . S
C702 C701 1.379 . S
H703 C697 0.959 . S
H704 C697 0.961 . S
H705 C697 0.960 . S
H706 C698 0.930 . S
H707 C699 0.929 . S
H708 C716 0.929 . S
H709 C718 0.930 . S
H710 C720 0.930 . S
H711 C723 0.929 . S
H712 C726 0.930 . S
H713 C728 0.960 . S
H714 C728 0.960 . S
H715 C728 0.960 . S
C716 H708 0.929 . S
C716 C717 1.377 . S
C716 C718 1.384 . S
C717 C716 1.377 . S
C717 C723 1.390 . S
C718 H709 0.930 . S
C718 C716 1.384 . S
C718 C719 1.372 . S
C719 C718 1.372 . S
C719 C720 1.400 . S
C719 C724 1.490 . S
C720 H710 0.930 . S
C720 C719 1.400 . S
C720 C723 1.386 . S
H721 C737 0.930 1_556 S
H722 C738 0.931 . S
C723 H711 0.929 . S
C723 C717 1.390 . S
C723 C720 1.386 . S
C724 C719 1.490 . S
C724 C726 1.395 . S
C724 C727 1.403 . S
H725 C731 0.930 . S
C726 H712 0.930 . S
C726 C724 1.395 . S
C726 C729 1.403 . S
C727 C724 1.403 . S
C727 C728 1.524 . S
C727 C731 1.400 . S
C728 H713 0.960 . S
C728 H714 0.960 . S
C728 H715 0.960 . S
C728 C727 1.524 . S
C729 C726 1.403 . S
C729 C730 1.392 . S
C729 C733 1.495 . S
C730 C729 1.392 . S
C730 C731 1.385 . S
C730 C732 1.478 . S
C731 H725 0.930 . S
C731 C727 1.400 . S
C731 C730 1.385 . S
C732 C730 1.478 . S
C732 C734 1.381 . S
C732 C738 1.383 . S
C733 C729 1.495 . S
C733 H739 0.959 . S
C733 H740 0.961 . S
C733 H741 0.960 . S
C734 C732 1.381 . S
C734 C735 1.394 . S
C734 H742 0.930 . S
C735 C734 1.394 . S
C735 C736 1.383 1_554 S
C735 H743 0.929 . S
C736 C735 1.383 1_556 S
C736 C737 1.377 1_556 S
C737 H721 0.930 1_554 S
C737 C736 1.377 1_554 S
C737 C738 1.379 . S
C738 H722 0.931 . S
C738 C732 1.383 . S
C738 C737 1.379 . S
H739 C733 0.959 . S
H740 C733 0.961 . S
H741 C733 0.960 . S
H742 C734 0.930 . S
H743 C735 0.929 . S
H744 C752 0.929 . S
H745 C754 0.930 . S
H746 C756 0.930 . S
H747 C759 0.929 . S
H748 C762 0.930 . S
H749 C764 0.960 . S
H750 C764 0.960 . S
H751 C764 0.960 . S
C752 H744 0.929 . S
C752 C753 1.377 . S
C752 C754 1.384 . S
C753 C752 1.377 . S
C753 C759 1.390 . S
C754 H745 0.930 . S
C754 C752 1.384 . S
C754 C755 1.372 . S
C755 C754 1.372 . S
C755 C756 1.400 . S
C755 C760 1.490 . S
C756 H746 0.930 . S
C756 C755 1.400 . S
C756 C759 1.386 . S
H757 C773 0.930 . S
H758 C774 0.931 . S
C759 H747 0.929 . S
C759 C753 1.390 . S
C759 C756 1.386 . S
C760 C755 1.490 . S
C760 C762 1.395 . S
C760 C763 1.403 . S
H761 C767 0.930 . S
C762 H748 0.930 . S
C762 C760 1.395 . S
C762 C765 1.403 . S
C763 C760 1.403 . S
C763 C764 1.524 . S
C763 C767 1.400 . S
C764 H749 0.960 . S
C764 H750 0.960 . S
C764 H751 0.960 . S
C764 C763 1.524 . S
C765 C762 1.403 . S
C765 C766 1.392 . S
C765 C769 1.495 . S
C766 C765 1.392 . S
C766 C767 1.385 . S
C766 C768 1.478 . S
C767 H761 0.930 . S
C767 C763 1.400 . S
C767 C766 1.385 . S
C768 C766 1.478 . S
C768 C770 1.381 . S
C768 C774 1.383 . S
C769 C765 1.495 . S
C769 H775 0.959 . S
C769 H776 0.961 . S
C769 H777 0.960 . S
C770 C768 1.381 . S
C770 C771 1.394 . S
C770 H778 0.930 . S
C771 C770 1.394 . S
C771 C772 1.383 . S
C771 H779 0.929 . S
C772 C771 1.383 . S
C772 C773 1.377 . S
C773 H757 0.930 . S
C773 C772 1.377 . S
C773 C774 1.379 . S
C774 H758 0.931 . S
C774 C768 1.383 . S
C774 C773 1.379 . S
H775 C769 0.959 . S
H776 C769 0.961 . S
H777 C769 0.960 . S
H778 C770 0.930 . S
H779 C771 0.929 . S
H780 C788 0.929 . S
H781 C790 0.930 . S
H782 C792 0.930 . S
H783 C795 0.929 . S
H784 C798 0.930 . S
H785 C800 0.960 . S
H786 C800 0.960 . S
H787 C800 0.960 . S
C788 H780 0.929 . S
C788 C789 1.377 . S
C788 C790 1.384 . S
C789 C788 1.377 . S
C789 C795 1.390 . S
C790 H781 0.930 . S
C790 C788 1.384 . S
C790 C791 1.372 . S
C791 C790 1.372 . S
C791 C792 1.400 . S
C791 C796 1.490 . S
C792 H782 0.930 . S
C792 C791 1.400 . S
C792 C795 1.386 . S
H793 C809 0.930 . S
H794 C810 0.931 . S
C795 H783 0.929 . S
C795 C789 1.390 . S
C795 C792 1.386 . S
C796 C791 1.490 . S
C796 C798 1.395 . S
C796 C799 1.403 . S
H797 C803 0.930 . S
C798 H784 0.930 . S
C798 C796 1.395 . S
C798 C801 1.403 . S
C799 C796 1.403 . S
C799 C800 1.524 . S
C799 C803 1.400 . S
C800 H785 0.960 . S
C800 H786 0.960 . S
C800 H787 0.960 . S
C800 C799 1.524 . S
C801 C798 1.403 . S
C801 C802 1.392 . S
C801 C805 1.495 . S
C802 C801 1.392 . S
C802 C803 1.385 . S
C802 C804 1.478 . S
C803 H797 0.930 . S
C803 C799 1.400 . S
C803 C802 1.385 . S
C804 C802 1.478 . S
C804 C806 1.381 . S
C804 C810 1.383 . S
C805 C801 1.495 . S
C805 H811 0.959 . S
C805 H812 0.961 . S
C805 H813 0.960 . S
C806 C804 1.381 . S
C806 C807 1.394 1_554 S
C806 H814 0.930 . S
C807 C806 1.394 1_556 S
C807 C808 1.383 . S
C807 H815 0.929 . S
C808 C807 1.383 . S
C808 C809 1.377 . S
C809 H793 0.930 . S
C809 C808 1.377 . S
C809 C810 1.379 1_556 S
C810 H794 0.931 . S
C810 C804 1.383 . S
C810 C809 1.379 1_554 S
H811 C805 0.959 . S
H812 C805 0.961 . S
H813 C805 0.960 . S
H814 C806 0.930 . S
H815 C807 0.929 . S
H816 C824 0.929 . S
H817 C826 0.930 . S
H818 C828 0.930 . S
H819 C831 0.929 . S
H820 C834 0.930 . S
H821 C836 0.960 . S
H822 C836 0.960 . S
H823 C836 0.960 . S
C824 H816 0.929 . S
C824 C825 1.377 . S
C824 C826 1.384 . S
C825 C824 1.377 . S
C825 C831 1.390 . S
C826 H817 0.930 . S
C826 C824 1.384 . S
C826 C827 1.372 . S
C827 C826 1.372 . S
C827 C828 1.400 . S
C827 C832 1.490 . S
C828 H818 0.930 . S
C828 C827 1.400 . S
C828 C831 1.386 . S
H829 C845 0.930 . S
H830 C846 0.931 . S
C831 H819 0.929 . S
C831 C825 1.390 . S
C831 C828 1.386 . S
C832 C827 1.490 . S
C832 C834 1.395 . S
C832 C835 1.403 . S
H833 C839 0.930 . S
C834 H820 0.930 . S
C834 C832 1.395 . S
C834 C837 1.403 . S
C835 C832 1.403 . S
C835 C836 1.524 . S
C835 C839 1.400 . S
C836 H821 0.960 . S
C836 H822 0.960 . S
C836 H823 0.960 . S
C836 C835 1.524 . S
C837 C834 1.403 . S
C837 C838 1.392 . S
C837 C841 1.495 . S
C838 C837 1.392 . S
C838 C839 1.385 . S
C838 C840 1.478 . S
C839 H833 0.930 . S
C839 C835 1.400 . S
C839 C838 1.385 . S
C840 C838 1.478 . S
C840 C842 1.381 . S
C840 C846 1.383 . S
C841 C837 1.495 . S
C841 H847 0.959 . S
C841 H848 0.961 . S
C841 H849 0.960 . S
C842 C840 1.381 . S
C842 C843 1.394 . S
C842 H850 0.930 . S
C843 C842 1.394 . S
C843 C844 1.383 . S
C843 H851 0.929 . S
C844 C843 1.383 . S
C844 C845 1.377 . S
C845 H829 0.930 . S
C845 C844 1.377 . S
C845 C846 1.379 . S
C846 H830 0.931 . S
C846 C840 1.383 . S
C846 C845 1.379 . S
H847 C841 0.959 . S
H848 C841 0.961 . S
H849 C841 0.960 . S
H850 C842 0.930 . S
H851 C843 0.929 . S
H852 C860 0.929 . S
H853 C862 0.930 . S
H854 C864 0.930 . S
H855 C867 0.929 . S
H856 C870 0.930 . S
H857 C872 0.960 . S
H858 C872 0.960 . S
H859 C872 0.960 . S
C860 H852 0.929 . S
C860 C861 1.377 . S
C860 C862 1.384 . S
C861 C860 1.377 . S
C861 C867 1.390 . S
C862 H853 0.930 . S
C862 C860 1.384 . S
C862 C863 1.372 . S
C863 C862 1.372 . S
C863 C864 1.400 . S
C863 C868 1.490 . S
C864 H854 0.930 . S
C864 C863 1.400 . S
C864 C867 1.386 . S
H865 C881 0.930 . S
H866 C882 0.931 . S
C867 H855 0.929 . S
C867 C861 1.390 . S
C867 C864 1.386 . S
C868 C863 1.490 . S
C868 C870 1.395 . S
C868 C871 1.403 . S
H869 C875 0.930 . S
C870 H856 0.930 . S
C870 C868 1.395 . S
C870 C873 1.403 . S
C871 C868 1.403 . S
C871 C872 1.524 . S
C871 C875 1.400 . S
C872 H857 0.960 . S
C872 H858 0.960 . S
C872 H859 0.960 . S
C872 C871 1.524 . S
C873 C870 1.403 . S
C873 C874 1.392 . S
C873 C877 1.495 . S
C874 C873 1.392 . S
C874 C875 1.385 . S
C874 C876 1.478 . S
C875 H869 0.930 . S
C875 C871 1.400 . S
C875 C874 1.385 . S
C876 C874 1.478 . S
C876 C878 1.381 . S
C876 C882 1.383 . S
C877 C873 1.495 . S
C877 H883 0.959 . S
C877 H884 0.961 . S
C877 H885 0.960 . S
C878 C876 1.381 . S
C878 C879 1.394 . S
C878 H886 0.930 . S
C879 C878 1.394 . S
C879 C880 1.383 1_554 S
C879 H887 0.924 1_554 S
C880 C879 1.383 1_556 S
C880 C881 1.377 1_556 S
C881 H865 0.930 . S
C881 C880 1.377 1_554 S
C881 C882 1.379 . S
C882 H866 0.931 . S
C882 C876 1.383 . S
C882 C881 1.379 . S
H883 C877 0.959 . S
H884 C877 0.961 . S
H885 C877 0.960 . S
H886 C878 0.930 . S
H887 C879 0.924 1_556 S
C249 C209 1.743 . S
C268 C9 1.880 . S
C285 C22 3.254 . S
C304 C66 3.089 . S
C321 C43 2.205 . S
C340 C89 2.023 . S
C357 C142 4.126 . S
C376 C102 4.051 . S
C393 C169 2.499 . S
C412 C129 2.561 . S
C429 C182 2.283 . S
C448 C222 2.216 . S
C465 C163 1.495 . S
C484 C26 1.450 . S
C501 C226 1.112 . S
C520 C49 1.075 . S
C537 C106 2.240 . S
C556 C3 2.256 . S
C573 C123 3.904 . S
C592 C62 3.923 . S
C609 C186 3.088 . S
C628 C83 3.144 . S
C645 C146 2.224 . S
C664 C203 2.279 . S
C681 C2 0.390 . S
C700 C15 0.359 . S
C717 C42 0.434 . S
C736 C55 0.494 . S
C753 C82 0.367 . S
C772 C95 0.372 . S
C789 C135 0.385 . S
C808 C122 0.312 . S
C825 C175 0.421 . S
C844 C162 0.390 . S
C861 C215 0.421 . S
C880 C202 0.382 . S
