# Generated by pormake.
# Topology ske, (6)-cn, num edge types: 1
# Building blocks:
#     Node 0, Type 0, BuildingBlock: JUFBIX_clean_sbu_0, # of connection points: 6
#     Node 1, Type 0, BuildingBlock: JUFBIX_clean_sbu_0, # of connection points: 6
#     Node 2, Type 0, BuildingBlock: JUFBIX_clean_sbu_0, # of connection points: 6
#     Node 3, Type 0, BuildingBlock: JUFBIX_clean_sbu_0, # of connection points: 6
#     Node 4, Type 0, BuildingBlock: JUFBIX_clean_sbu_0, # of connection points: 6
#     Node 5, Type 0, BuildingBlock: JUFBIX_clean_sbu_0, # of connection points: 6
#     Node 6, Type 0, BuildingBlock: JUFBIX_clean_sbu_0, # of connection points: 6
#     Node 7, Type 0, BuildingBlock: JUFBIX_clean_sbu_0, # of connection points: 6
#     Edge 8, Type (0, 0), BuildingBlock: CIFDUS_clean_linker_0, # of connection points: 2
#     Edge 9, Type (0, 0), BuildingBlock: CIFDUS_clean_linker_0, # of connection points: 2
#     Edge 10, Type (0, 0), BuildingBlock: CIFDUS_clean_linker_0, # of connection points: 2
#     Edge 11, Type (0, 0), BuildingBlock: CIFDUS_clean_linker_0, # of connection points: 2
#     Edge 12, Type (0, 0), BuildingBlock: CIFDUS_clean_linker_0, # of connection points: 2
#     Edge 13, Type (0, 0), BuildingBlock: CIFDUS_clean_linker_0, # of connection points: 2
#     Edge 14, Type (0, 0), BuildingBlock: CIFDUS_clean_linker_0, # of connection points: 2
#     Edge 15, Type (0, 0), BuildingBlock: CIFDUS_clean_linker_0, # of connection points: 2
#     Edge 16, Type (0, 0), BuildingBlock: CIFDUS_clean_linker_0, # of connection points: 2
#     Edge 17, Type (0, 0), BuildingBlock: CIFDUS_clean_linker_0, # of connection points: 2
#     Edge 18, Type (0, 0), BuildingBlock: CIFDUS_clean_linker_0, # of connection points: 2
#     Edge 19, Type (0, 0), BuildingBlock: CIFDUS_clean_linker_0, # of connection points: 2
#     Edge 20, Type (0, 0), BuildingBlock: CIFDUS_clean_linker_0, # of connection points: 2
#     Edge 21, Type (0, 0), BuildingBlock: CIFDUS_clean_linker_0, # of connection points: 2
#     Edge 22, Type (0, 0), BuildingBlock: CIFDUS_clean_linker_0, # of connection points: 2
#     Edge 23, Type (0, 0), BuildingBlock: CIFDUS_clean_linker_0, # of connection points: 2
#     Edge 24, Type (0, 0), BuildingBlock: CIFDUS_clean_linker_0, # of connection points: 2
#     Edge 25, Type (0, 0), BuildingBlock: CIFDUS_clean_linker_0, # of connection points: 2
#     Edge 26, Type (0, 0), BuildingBlock: CIFDUS_clean_linker_0, # of connection points: 2
#     Edge 27, Type (0, 0), BuildingBlock: CIFDUS_clean_linker_0, # of connection points: 2
#     Edge 28, Type (0, 0), BuildingBlock: CIFDUS_clean_linker_0, # of connection points: 2
#     Edge 29, Type (0, 0), BuildingBlock: CIFDUS_clean_linker_0, # of connection points: 2
#     Edge 30, Type (0, 0), BuildingBlock: CIFDUS_clean_linker_0, # of connection points: 2
#     Edge 31, Type (0, 0), BuildingBlock: CIFDUS_clean_linker_0, # of connection points: 2
# Relax obj value: 0.309
# Max RMSD: 0.154
# Mean RMSD: 0.143
data_MOF--net-ske--node1-JUFBIX_clean_sbu_0--edge1-CIFDUS_clean_linker_0
_symmetry_space_group_name_H-M    P1
_symmetry_Int_Tables_number       1
_symmetry_cell_setting            triclinic
loop_
_symmetry_equiv_pos_as_xyz
'x, y, z'
_cell_length_a     60.799163
_cell_length_b     25.666586
_cell_length_c     14.419934
_cell_angle_alpha  89.662104
_cell_angle_beta   92.40942
_cell_angle_gamma 92.468433
loop_
_atom_site_label
_atom_site_type_symbol
_atom_site_fract_x
_atom_site_fract_y
_atom_site_fract_z
_atom_type_partial_charge
Co0 Co 0.15367 0.25223 0.7584 0.0
C1 C 0.16018 0.35405 0.68889 0.0
Co2 Co 0.16837 0.25505 0.62549 0.0
C3 C 0.13768 0.21957 0.93217 0.0
C4 C 0.11828 0.27826 0.86868 0.0
N5 N 0.13648 0.2509 0.8582 0.0
N6 N 0.12185 0.22831 0.99228 0.0
C7 C 0.10923 0.26436 0.95106 0.0
H8 H 0.15163 0.19556 0.94738 0.0
H9 H 0.1125 0.30796 0.82119 0.0
C10 C 0.15886 0.15303 0.68769 0.0
N11 N 0.18544 0.25605 0.52547 0.0
C12 C 0.18437 0.28747 0.45157 0.0
C13 C 0.20339 0.22793 0.51453 0.0
N14 N 0.20003 0.27807 0.39102 0.0
C15 C 0.21245 0.24155 0.43202 0.0
C16 C 0.19949 0.2559 0.78497 0.0
O17 O 0.15325 0.17709 0.75915 0.0
O18 O 0.1668 0.1798 0.62169 0.0
O19 O 0.19623 0.25534 0.69756 0.0
O20 O 0.18229 0.25545 0.83365 0.0
O21 O 0.16917 0.33 0.6249 0.0
H22 H 0.20893 0.19777 0.5616 0.0
H23 H 0.17057 0.31202 0.4367 0.0
O24 O 0.15307 0.32751 0.7569 0.0
O25 O 0.12655 0.24863 0.68855 0.0
O26 O 0.13975 0.25539 0.55124 0.0
C27 C 0.12293 0.2513 0.60197 0.0
H28 H 0.0964 0.28451 0.98418 0.0
H29 H 0.22506 0.22082 0.39855 0.0
Co30 Co 0.92167 0.26885 0.54682 0.0
C31 C 0.9007 0.36561 0.53368 0.0
Co32 Co 0.88457 0.26349 0.53632 0.0
C33 C 0.97181 0.25319 0.57599 0.0
C34 C 0.96212 0.31491 0.48573 0.0
N35 N 0.95356 0.27786 0.54233 0.0
N36 N 0.99108 0.27358 0.54155 0.0
C37 C 0.98463 0.31254 0.48525 0.0
H38 H 0.97094 0.22008 0.6227 0.0
H39 H 0.95248 0.34186 0.4449 0.0
C40 C 0.90465 0.16657 0.54044 0.0
N41 N 0.85304 0.25615 0.53989 0.0
C42 C 0.8394 0.26719 0.60965 0.0
C43 C 0.83936 0.23431 0.4738 0.0
N44 N 0.81786 0.25322 0.58936 0.0
C45 C 0.81803 0.23261 0.50341 0.0
C46 C 0.90295 0.2656 0.34439 0.0
O47 O 0.92281 0.19378 0.54468 0.0
O48 O 0.88648 0.18957 0.53977 0.0
O49 O 0.88448 0.262 0.3871 0.0
O50 O 0.92023 0.269 0.40035 0.0
O51 O 0.88301 0.33727 0.53001 0.0
H52 H 0.84458 0.21923 0.40879 0.0
H53 H 0.84515 0.28515 0.67438 0.0
O54 O 0.91914 0.34405 0.54612 0.0
O55 O 0.92192 0.26831 0.69592 0.0
O56 O 0.88611 0.26519 0.68266 0.0
C57 C 0.90342 0.26669 0.73861 0.0
H58 H 0.99546 0.33827 0.44648 0.0
H59 H 0.80379 0.21591 0.46496 0.0
Co60 Co 0.15583 0.75663 0.54243 0.0
C61 C 0.13583 0.85259 0.54868 0.0
Co62 Co 0.11926 0.74925 0.55071 0.0
C63 C 0.19866 0.74551 0.465 0.0
C64 C 0.20119 0.79499 0.58397 0.0
N65 N 0.18667 0.76438 0.5337 0.0
N66 N 0.21996 0.76367 0.46912 0.0
C67 C 0.22155 0.79468 0.54465 0.0
H68 H 0.19157 0.72067 0.41021 0.0
H69 H 0.19705 0.81774 0.64321 0.0
C70 C 0.14108 0.65346 0.55037 0.0
N71 N 0.08782 0.73969 0.55821 0.0
C72 C 0.06961 0.76141 0.51789 0.0
C73 C 0.07935 0.70523 0.61961 0.0
N74 N 0.05036 0.74191 0.55311 0.0
C75 C 0.05678 0.70646 0.61674 0.0
C76 C 0.13445 0.75252 0.34878 0.0
O77 O 0.15799 0.6836 0.54287 0.0
O78 O 0.12218 0.67319 0.55351 0.0
O79 O 0.1174 0.74866 0.40109 0.0
O80 O 0.153 0.75669 0.39578 0.0
O81 O 0.11774 0.82524 0.55122 0.0
H82 H 0.08906 0.68055 0.66481 0.0
H83 H 0.07046 0.79152 0.46515 0.0
O84 O 0.15385 0.8299 0.54263 0.0
O85 O 0.15765 0.75657 0.69215 0.0
O86 O 0.12197 0.75024 0.69738 0.0
C87 C 0.14056 0.75355 0.74438 0.0
H88 H 0.23628 0.81636 0.56929 0.0
H89 H 0.0459 0.68218 0.65787 0.0
Co90 Co 0.87232 0.75475 0.4985 0.0
C91 C 0.87773 0.86076 0.45958 0.0
Co92 Co 0.88296 0.76859 0.35794 0.0
C93 C 0.86677 0.77904 0.68011 0.0
C94 C 0.84087 0.72616 0.63228 0.0
N95 N 0.8617 0.74292 0.61529 0.0
N96 N 0.84908 0.79171 0.72696 0.0
C97 C 0.83292 0.7568 0.7003 0.0
H98 H 0.88235 0.80096 0.68211 0.0
H99 H 0.8309 0.6996 0.58836 0.0
C100 C 0.87926 0.6632 0.40457 0.0
N101 N 0.89265 0.78608 0.24325 0.0
C102 C 0.8839 0.82673 0.19857 0.0
C103 C 0.91132 0.77755 0.19967 0.0
N104 N 0.89617 0.84512 0.1295 0.0
C105 C 0.91339 0.81357 0.1285 0.0
C106 C 0.91859 0.76179 0.4885 0.0
O107 O 0.87401 0.68274 0.48072 0.0
O108 O 0.88302 0.69335 0.3353 0.0
O109 O 0.91306 0.76692 0.40318 0.0
O110 O 0.90322 0.75674 0.54641 0.0
O111 O 0.88394 0.8431 0.3839 0.0
H112 H 0.92314 0.74902 0.22093 0.0
H113 H 0.86921 0.84446 0.22055 0.0
O114 O 0.87072 0.82848 0.51869 0.0
O115 O 0.84211 0.75271 0.44912 0.0
O116 O 0.8517 0.76997 0.30889 0.0
C117 C 0.83631 0.76093 0.36491 0.0
H118 H 0.81607 0.75643 0.72165 0.0
H119 H 0.92635 0.81569 0.07924 0.0
Co120 Co 0.66349 0.75024 0.20471 0.0
C121 C 0.66449 0.8553 0.15544 0.0
Co122 Co 0.66755 0.76285 0.05749 0.0
C123 C 0.67044 0.68879 0.35779 0.0
C124 C 0.64163 0.73222 0.37381 0.0
N125 N 0.66036 0.73187 0.32711 0.0
N126 N 0.65776 0.65906 0.41291 0.0
C127 C 0.6399 0.68737 0.42606 0.0
H128 H 0.68538 0.67549 0.32929 0.0
H129 H 0.62879 0.75961 0.36203 0.0
C130 C 0.66448 0.65754 0.09813 0.0
N131 N 0.67051 0.77381 0.93366 0.0
C132 C 0.65877 0.74174 0.87568 0.0
C133 C 0.6888 0.78815 0.88864 0.0
N134 N 0.66989 0.73042 0.80098 0.0
C135 C 0.68851 0.76106 0.80644 0.0
C136 C 0.70857 0.75906 0.16048 0.0
O137 O 0.66207 0.67537 0.17824 0.0
O138 O 0.66824 0.68967 1.03403 0.0
O139 O 0.7001 0.76552 0.07886 0.0
O140 O 0.69536 0.75125 0.22557 0.0
O141 O 0.66699 0.83451 0.07718 0.0
H142 H 0.70285 0.81005 0.91917 0.0
H143 H 0.64456 0.71871 0.89713 0.0
O144 O 0.6634 0.82584 0.22757 0.0
O145 O 0.63263 0.7498 0.18707 0.0
O146 O 0.63448 0.7608 1.03833 0.0
C147 C 0.62269 0.75526 0.10915 0.0
H148 H 0.62613 0.67585 0.46791 0.0
H149 H 0.70199 0.75989 0.75994 0.0
Co150 Co 0.42196 0.76546 0.0571 0.0
C151 C 0.40072 0.86259 0.0559 0.0
Co152 Co 0.38538 0.76072 0.06485 0.0
C153 C 0.47149 0.75275 1.0311 0.0
C154 C 0.46225 0.81461 0.11804 0.0
N155 N 0.45345 0.77588 0.06347 0.0
N156 N 0.49086 0.77589 0.06463 0.0
C157 C 0.48474 0.8149 0.11848 0.0
H158 H 0.47046 0.71871 0.98694 0.0
H159 H 0.45286 0.84075 0.15773 0.0
C160 C 0.40523 0.66368 0.05776 0.0
N161 N 0.35445 0.75319 0.06956 0.0
C162 C 0.34212 0.77266 0.13655 0.0
C163 C 0.34017 0.72212 1.019 0.0
N164 N 0.32084 0.75442 0.13126 0.0
C165 C 0.3196 0.72274 0.05659 0.0
C166 C 0.40191 0.76292 0.86356 0.0
O167 O 0.42354 0.69015 0.05676 0.0
O168 O 0.38735 0.6871 0.06411 0.0
O169 O 0.38474 0.76101 0.91553 0.0
O170 O 0.42062 0.76506 0.9105 0.0
O171 O 0.38331 0.83423 0.0641 0.0
H172 H 0.34461 0.69875 0.96103 0.0
H173 H 0.34897 0.79787 0.19125 0.0
O174 O 0.4191 0.84068 0.05306 0.0
O175 O 0.42252 0.76555 0.20647 0.0
O176 O 0.38706 0.76033 0.21177 0.0
C177 C 0.40558 0.76304 0.25883 0.0
H178 H 0.49585 0.84173 0.15703 0.0
H179 H 0.305 0.70071 1.03156 0.0
Co180 Co 0.6565 0.25741 1.01979 0.0
C181 C 0.63554 0.3523 1.02631 0.0
Co182 Co 0.61953 0.24862 1.0299 0.0
C183 C 0.70132 0.25537 0.94163 0.0
C184 C 0.70164 0.28975 0.0764 0.0
N185 N 0.68787 0.2667 1.0119 0.0
N186 N 0.72286 0.2702 0.96032 0.0
C187 C 0.72284 0.2918 1.04551 0.0
H188 H 0.69545 0.23641 0.87794 0.0
H189 H 0.69656 0.30516 0.14139 0.0
C190 C 0.6422 0.15409 1.03154 0.0
N191 N 0.58767 0.23834 1.03873 0.0
C192 C 0.569 0.26104 1.00392 0.0
C193 C 0.57973 0.20302 0.09999 0.0
N194 N 0.5501 0.24133 1.04252 0.0
C195 C 0.55719 0.20474 0.10253 0.0
C196 C 0.635 0.25207 0.82722 0.0
O197 O 0.65896 0.1846 1.02171 0.0
O198 O 0.62309 0.17297 1.03382 0.0
O199 O 0.61794 0.24776 0.8798 0.0
O200 O 0.65363 0.25678 0.8737 0.0
O201 O 0.61771 0.32399 1.02987 0.0
H202 H 0.58983 0.17776 0.14242 0.0
H203 H 0.56931 0.29238 0.95339 0.0
O204 O 0.6538 0.33051 1.01924 0.0
O205 O 0.65799 0.25769 0.17011 0.0
O206 O 0.62232 0.24997 0.17616 0.0
C207 C 0.64095 0.25401 0.2227 0.0
H208 H 0.73711 0.30923 0.08269 0.0
H209 H 0.54676 0.18024 0.14527 0.0
Co210 Co 0.37054 0.26669 1.0305 0.0
C211 C 0.37963 0.3623 0.93675 0.0
Co212 Co 0.3803 0.25861 0.88881 0.0
C213 C 0.37469 0.32112 0.19379 0.0
C214 C 0.34306 0.28172 0.18726 0.0
N215 N 0.36276 0.28366 0.14757 0.0
N216 N 0.36336 0.34444 0.25863 0.0
C217 C 0.34347 0.31874 0.25657 0.0
H218 H 0.39092 0.33415 0.17377 0.0
H219 H 0.32887 0.25789 0.16328 0.0
C220 C 0.37314 0.16407 0.98912 0.0
N221 N 0.38981 0.24808 0.77285 0.0
C222 C 0.40618 0.27854 0.73911 0.0
C223 C 0.3822 0.21804 0.70164 0.0
N224 N 0.40824 0.27227 0.64805 0.0
C225 C 0.39351 0.23311 0.62435 0.0
C226 C 0.41739 0.26305 1.01297 0.0
O227 O 0.36743 0.19388 0.05332 0.0
O228 O 0.37898 0.18408 0.9122 0.0
O229 O 0.41082 0.26079 0.92894 0.0
O230 O 0.40256 0.26485 0.07317 0.0
O231 O 0.38238 0.33411 0.86668 0.0
H232 H 0.36804 0.19113 0.70357 0.0
H233 H 0.41423 0.31076 0.77726 0.0
O234 O 0.37384 0.3396 1.00988 0.0
O235 O 0.33917 0.26748 0.98748 0.0
O236 O 0.34883 0.2561 0.84526 0.0
C237 C 0.33338 0.26126 0.90204 0.0
H238 H 0.33013 0.32608 0.30138 0.0
H239 H 0.3888 0.22202 0.55369 0.0
H240 H 0.23801 0.25259 0.6909 0.0
H241 H 0.21555 0.2621 0.96963 0.0
H242 H 0.25406 0.26494 1.03012 0.0
H243 H 0.2949 0.26492 1.00405 0.0
H244 H 0.31619 0.25428 0.7233 0.0
H245 H 0.2779 0.25179 0.66509 0.0
C246 C 0.24133 0.25527 0.76519 0.0
C247 C 0.22329 0.25715 0.82499 0.0
C248 C 0.2637 0.25675 0.79974 0.0
C249 C 0.22861 0.26053 0.92102 0.0
C250 C 0.25083 0.2622 0.95582 0.0
C251 C 0.29124 0.26208 0.93002 0.0
C252 C 0.30906 0.2599 0.8687 0.0
C253 C 0.26866 0.26039 0.89599 0.0
C254 C 0.30339 0.25608 0.77306 0.0
C255 C 0.28126 0.25464 0.73932 0.0
H256 H 0.72448 0.26539 0.77046 0.0
H257 H 0.76554 0.26374 1.02159 0.0
H258 H 0.79835 0.26028 0.93091 0.0
H259 H 0.81612 0.25744 0.77918 0.0
H260 H 0.77511 0.25921 0.52786 0.0
H261 H 0.74229 0.26243 0.61851 0.0
C262 C 0.74055 0.26386 0.80555 0.0
C263 C 0.74216 0.26526 0.90381 0.0
C264 C 0.75974 0.2619 0.75233 0.0
C265 C 0.76344 0.26362 0.94673 0.0
C266 C 0.7824 0.26141 0.89458 0.0
C267 C 0.80006 0.25893 0.74397 0.0
C268 C 0.79848 0.25769 0.6457 0.0
C269 C 0.78088 0.26082 0.79714 0.0
C270 C 0.7772 0.25924 0.60272 0.0
C271 C 0.75823 0.26132 0.65487 0.0
H272 H 0.28432 0.69289 0.16488 0.0
H273 H 0.31837 0.83756 0.24581 0.0
H274 H 0.29055 0.85266 0.35847 0.0
H275 H 0.25626 0.8255 0.43421 0.0
H276 H 0.22212 0.68098 0.35321 0.0
H277 H 0.24988 0.66595 0.2401 0.0
C278 C 0.28562 0.72803 0.20628 0.0
C279 C 0.30371 0.76387 0.19611 0.0
C280 C 0.26939 0.73671 0.27139 0.0
C281 C 0.30499 0.80877 0.25217 0.0
C282 C 0.28894 0.81763 0.31669 0.0
C283 C 0.25492 0.79042 0.39266 0.0
C284 C 0.23688 0.75451 0.40314 0.0
C285 C 0.27109 0.78182 0.32731 0.0
C286 C 0.2355 0.70975 0.34674 0.0
C287 C 0.25151 0.70094 0.28196 0.0
H288 H 0.73099 0.74583 0.32824 0.0
H289 H 0.74258 0.77667 1.03993 0.0
H290 H 0.78252 0.78033 0.0748 0.0
H291 H 0.81491 0.77481 0.18917 0.0
H292 H 0.80179 0.744 0.47683 0.0
H293 H 0.76246 0.74047 0.44 0.0
C294 C 0.74215 0.75336 0.27253 0.0
C295 C 0.73334 0.76093 0.1811 0.0
C296 C 0.76525 0.75547 0.29318 0.0
C297 C 0.7485 0.7706 0.11088 0.0
C298 C 0.77152 0.77273 0.13097 0.0
C299 C 0.80348 0.76731 0.24386 0.0
C300 C 0.81188 0.75959 0.33631 0.0
C301 C 0.78023 0.76525 0.22212 0.0
C302 C 0.79636 0.75002 0.40523 0.0
C303 C 0.7736 0.74798 0.38424 0.0
H304 H 0.1288 0.91213 0.69986 0.0
H305 H 0.14775 0.92164 0.41577 0.0
H306 H 0.15714 0.01491 0.43365 0.0
H307 H 0.16163 0.09321 0.53208 0.0
H308 H 0.14374 0.08363 0.81825 0.0
H309 H 0.13267 0.9915 0.79819 0.0
C310 C 0.1344 0.93511 0.64135 0.0
C311 C 0.13692 0.91038 0.55563 0.0
C312 C 0.1405 0.98861 0.65325 0.0
C313 C 0.14509 0.9401 0.48152 0.0
C314 C 0.15072 0.99332 0.49214 0.0
C315 C 0.15547 0.07098 0.59041 0.0
C316 C 0.15378 0.09567 0.67697 0.0
C317 C 0.14887 0.01788 0.57812 0.0
C318 C 0.14546 0.06593 0.75108 0.0
C319 C 0.13896 0.01313 0.73948 0.0
H320 H 0.87452 0.41643 0.4078 0.0
H321 H 0.92573 0.44302 0.62025 0.0
H322 H 0.92443 0.53733 0.59449 0.0
H323 H 0.90765 0.61245 0.51608 0.0
H324 H 0.85844 0.58687 0.29573 0.0
H325 H 0.86024 0.49198 0.31831 0.0
C326 C 0.88533 0.443 0.44855 0.0
C327 C 0.89992 0.42283 0.51731 0.0
C328 C 0.885 0.49722 0.43099 0.0
C329 C 0.91424 0.45756 0.56778 0.0
C330 C 0.91353 0.51146 0.55285 0.0
C331 C 0.89764 0.58595 0.47179 0.0
C332 C 0.88304 0.60647 0.40382 0.0
C333 C 0.8989 0.53173 0.48508 0.0
C334 C 0.87004 0.57195 0.34733 0.0
C335 C 0.87092 0.51776 0.36109 0.0
H336 H 0.91034 0.93143 0.41309 0.0
H337 H 0.84997 0.9165 0.55922 0.0
H338 H 0.8532 1.00915 0.59939 0.0
H339 H 0.87283 0.09511 0.5905 0.0
H340 H 0.93502 0.10867 0.4575 0.0
H341 H 0.93169 0.01611 0.41611 0.0
C342 C 0.89784 0.94868 0.45313 0.0
C343 C 0.87966 0.91739 0.48134 0.0
C344 C 0.90028 1.00168 0.47923 0.0
C345 C 0.86393 0.93987 0.53558 0.0
C346 C 0.86583 0.99282 0.55888 0.0
C347 C 0.88578 0.07767 0.55332 0.0
C348 C 0.90414 0.10896 0.527 0.0
C349 C 0.88389 0.02418 0.53095 0.0
C350 C 0.92082 0.08555 0.47935 0.0
C351 C 0.91881 0.03265 0.45493 0.0
H352 H 0.1258 0.58525 0.6824 0.0
H353 H 0.16489 0.59466 0.44007 0.0
H354 H 0.17468 0.5038 0.46179 0.0
H355 H 0.17305 0.42194 0.55189 0.0
H356 H 0.13584 0.41355 0.8002 0.0
H357 H 0.12483 0.5032 0.77507 0.0
C358 C 0.13611 0.56695 0.63353 0.0
C359 C 0.14421 0.59636 0.55842 0.0
C360 C 0.14243 0.51497 0.64867 0.0
C361 C 0.15816 0.57264 0.49746 0.0
C362 C 0.16391 0.52076 0.51032 0.0
C363 C 0.16269 0.43977 0.60112 0.0
C364 C 0.15546 0.41065 0.67829 0.0
C365 C 0.15638 0.49164 0.58629 0.0
C366 C 0.1419 0.43479 0.74069 0.0
C367 C 0.13542 0.48613 0.72596 0.0
H368 H 0.63341 0.58708 0.16032 0.0
H369 H 0.6892 0.60182 0.98581 0.0
H370 H 0.68465 0.50942 0.94521 0.0
H371 H 0.66523 0.42399 0.96114 0.0
H372 H 0.60742 0.40982 0.12403 0.0
H373 H 0.61195 0.50235 0.16569 0.0
C374 C 0.64464 0.56978 0.11405 0.0
C375 C 0.66195 0.60091 0.07768 0.0
C376 C 0.64134 0.51691 0.08787 0.0
C377 C 0.67597 0.57849 1.01562 0.0
C378 C 0.6733 0.52573 0.99206 0.0
C379 C 0.65344 0.44129 1.00486 0.0
C380 C 0.636 0.40989 1.03944 0.0
C381 C 0.65606 0.49455 1.02772 0.0
C382 C 0.62084 0.43309 0.09564 0.0
C383 C 0.62358 0.48593 0.12026 0.0
H384 H 0.36783 0.9252 0.10477 0.0
H385 H 0.43028 0.92897 0.97299 0.0
H386 H 0.42662 0.02134 0.93581 0.0
H387 H 0.40541 0.10132 0.93852 0.0
H388 H 0.34471 0.09985 0.08251 0.0
H389 H 0.34779 1.00662 0.11635 0.0
C390 C 0.3807 0.94633 0.06841 0.0
C391 C 0.39929 0.91995 1.04154 0.0
C392 C 0.37867 0.99988 0.04856 0.0
C393 C 0.41587 0.94817 0.99506 0.0
C394 C 0.41372 1.00102 0.9732 0.0
C395 C 0.39278 0.08038 0.97661 0.0
C396 C 0.37463 0.10718 1.00653 0.0
C397 C 0.39512 0.02723 0.9989 0.0
C398 C 0.35871 0.07995 0.05803 0.0
C399 C 0.36051 0.02669 0.07758 0.0
H400 H 0.37986 0.42476 0.0875 0.0
H401 H 0.39312 0.42892 0.79583 0.0
H402 H 0.40437 0.5219 0.80905 0.0
H403 H 0.4095 0.60314 0.90449 0.0
H404 H 0.39569 0.59598 0.19498 0.0
H405 H 0.3861 0.5027 0.18183 0.0
C406 C 0.38512 0.44572 1.02621 0.0
C407 C 0.38536 0.41958 0.9403 0.0
C408 C 0.39186 0.49863 1.0348 0.0
C409 C 0.39249 0.44789 0.86251 0.0
C410 C 0.39907 0.50105 0.87031 0.0
C411 C 0.40495 0.58063 0.96514 0.0
C412 C 0.40388 0.606 0.05142 0.0
C413 C 0.39886 0.52691 0.95626 0.0
C414 C 0.39716 0.577 0.12873 0.0
C415 C 0.39144 0.52382 0.12087 0.0
H416 H 0.63131 0.08737 0.17442 0.0
H417 H 0.66262 0.09488 0.91166 0.0
H418 H 0.67357 1.00493 0.93096 0.0
H419 H 0.6748 0.92495 1.02167 0.0
H420 H 0.64451 0.91429 0.28656 0.0
H421 H 0.63328 1.005 0.2691 0.0
C422 C 0.64015 0.06874 0.12085 0.0
C423 C 0.64569 0.09732 1.04036 0.0
C424 C 0.64706 0.01699 0.13396 0.0
C425 C 0.65782 0.07342 0.97307 0.0
C426 C 0.66426 0.02214 0.98455 0.0
C427 C 0.66587 0.94233 0.07638 0.0
C428 C 0.66059 0.91249 0.15562 0.0
C429 C 0.65916 0.99377 0.06487 0.0
C430 C 0.64909 0.93626 0.22545 0.0
C431 C 0.64241 0.988 0.21478 0.0
H432 H 0.18958 0.19354 0.29315 0.0
H433 H 0.19408 0.36118 0.2805 0.0
H434 H 0.16258 0.36092 0.169 0.0
H435 H 0.13207 0.31281 0.09037 0.0
H436 H 0.12762 0.14518 0.10288 0.0
H437 H 0.15907 0.14547 0.21468 0.0
C438 C 0.18427 0.22985 0.26252 0.0
C439 C 0.19363 0.27743 0.29546 0.0
C440 C 0.16494 0.22936 0.20799 0.0
C441 C 0.18696 0.32429 0.25517 0.0
C442 C 0.16845 0.32413 0.19521 0.0
C443 C 0.13738 0.27652 0.12111 0.0
C444 C 0.12807 0.22893 0.088 0.0
C445 C 0.1567 0.27703 0.1757 0.0
C446 C 0.13471 0.18208 0.12834 0.0
C447 C 0.1532 0.18224 0.18845 0.0
H448 H 0.87116 0.26119 0.17916 0.0
H449 H 0.94107 0.27125 0.2425 0.0
H450 H 0.94797 0.27243 0.07676 0.0
H451 H 0.93518 0.2708 0.90391 0.0
H452 H 0.86526 0.26122 0.84051 0.0
H453 H 0.85836 0.25984 1.00621 0.0
C454 C 0.88808 0.26365 0.15838 0.0
C455 C 0.90543 0.26603 0.23183 0.0
C456 C 0.89232 0.26448 0.05743 0.0
C457 C 0.92686 0.26923 0.19463 0.0
C458 C 0.93098 0.26995 0.09676 0.0
C459 C 0.91826 0.2684 0.92465 0.0
C460 C 0.90091 0.26616 0.85118 0.0
C461 C 0.91401 0.26762 1.02559 0.0
C462 C 0.87948 0.26311 0.88837 0.0
C463 C 0.87534 0.26228 0.98624 0.0
H464 H 0.16748 0.75899 0.2022 0.0
H465 H 0.09709 0.74513 0.22551 0.0
H466 H 0.09242 0.74418 0.05577 0.0
H467 H 0.10754 0.74712 0.89098 0.0
H468 H 0.17792 0.76093 0.86762 0.0
H469 H 0.1826 0.7619 1.03737 0.0
C470 C 0.1509 0.75574 0.17169 0.0
C471 C 0.13267 0.75216 0.23509 0.0
C472 C 0.14809 0.75515 0.06866 0.0
C473 C 0.11182 0.74803 0.18582 0.0
C474 C 0.10906 0.74747 0.08568 0.0
C475 C 0.12411 0.75039 0.92148 0.0
C476 C 0.14234 0.75394 0.85806 0.0
C477 C 0.12693 0.75097 1.0245 0.0
C478 C 0.16319 0.75804 0.90732 0.0
C479 C 0.16596 0.75863 1.00747 0.0
H480 H 0.87727 0.87681 0.73761 0.0
H481 H 0.81697 0.81237 0.84733 0.0
H482 H 0.82461 0.86088 0.98992 0.0
H483 H 0.85486 0.8791 0.09843 0.0
H484 H 0.92088 0.89759 1.00144 0.0
H485 H 0.90591 0.91257 0.84435 0.0
C486 C 0.86584 0.87278 0.79297 0.0
C487 C 0.84793 0.83612 0.78659 0.0
C488 C 0.87225 0.89265 0.87988 0.0
C489 C 0.83174 0.83737 0.85301 0.0
C490 C 0.83622 0.865 0.93501 0.0
C491 C 0.86618 0.88732 1.0439 0.0
C492 C 0.88898 0.88145 0.05934 0.0
C493 C 0.85765 0.88609 0.95303 0.0
C494 C 0.90319 0.89784 0.98962 0.0
C495 C 0.89458 0.90603 0.89973 0.0
H496 H 0.63178 0.58616 0.50383 0.0
H497 H 0.69795 0.60807 0.4248 0.0
H498 H 0.71071 0.62047 0.58584 0.0
H499 H 0.69951 0.6733 0.71743 0.0
H500 H 0.63015 0.68065 0.7682 0.0
H501 H 0.62146 0.61242 0.65633 0.0
C502 C 0.64913 0.59181 0.52365 0.0
C503 C 0.66343 0.61031 0.45642 0.0
C504 C 0.65503 0.60837 0.61367 0.0
C505 C 0.68597 0.60431 0.47814 0.0
C506 C 0.69329 0.61255 0.57027 0.0
C507 C 0.68257 0.65954 0.70484 0.0
C508 C 0.66543 0.68428 0.74669 0.0
C509 C 0.67744 0.62337 0.63476 0.0
C510 C 0.64365 0.66362 0.73442 0.0
C511 C 0.63861 0.62406 0.67083 0.0
H512 H 0.43444 0.767 0.71444 0.0
H513 H 0.36417 0.75793 0.74323 0.0
H514 H 0.35871 0.75709 0.5739 0.0
H515 H 0.37305 0.75885 0.40785 0.0
H516 H 0.44332 0.76805 0.37906 0.0
H517 H 0.44878 0.76881 0.54841 0.0
C518 C 0.41773 0.76482 0.68524 0.0
C519 C 0.39979 0.76256 0.75001 0.0
C520 C 0.41443 0.76433 0.58242 0.0
C521 C 0.37872 0.75979 0.70238 0.0
C522 C 0.37549 0.75929 0.60248 0.0
C523 C 0.38976 0.76103 0.43708 0.0
C524 C 0.40771 0.76334 0.37233 0.0
C525 C 0.39307 0.76153 0.5399 0.0
C526 C 0.42877 0.76614 0.41994 0.0
C527 C 0.43201 0.7666 0.51984 0.0
H528 H 0.60803 0.24615 0.36944 0.0
H529 H 0.67835 0.26271 0.34585 0.0
H530 H 0.68304 0.26364 0.51563 0.0
H531 H 0.66795 0.25994 0.68052 0.0
H532 H 0.59763 0.24334 0.70401 0.0
H533 H 0.59294 0.24243 0.53426 0.0
C534 C 0.62459 0.25003 0.39989 0.0
C535 C 0.6428 0.25438 0.3364 0.0
C536 C 0.62742 0.25058 0.50291 0.0
C537 C 0.66364 0.25922 0.3856 0.0
C538 C 0.66642 0.25977 0.48576 0.0
C539 C 0.65139 0.25607 0.65005 0.0
C540 C 0.63317 0.2517 0.71352 0.0
C541 C 0.64856 0.25551 0.54702 0.0
C542 C 0.61234 0.24684 0.66429 0.0
C543 C 0.60957 0.2463 0.56414 0.0
H544 H 0.40643 0.37826 0.28457 0.0
H545 H 0.34215 0.39945 0.3891 0.0
H546 H 0.35819 0.40358 0.54663 0.0
H547 H 0.38339 0.35332 0.64306 0.0
H548 H 0.43984 0.28925 0.52348 0.0
H549 H 0.43496 0.34524 0.3865 0.0
C550 C 0.39577 0.38391 0.34144 0.0
C551 C 0.37268 0.38064 0.32709 0.0
C552 C 0.40424 0.37511 0.43096 0.0
C553 C 0.35978 0.39646 0.39947 0.0
C554 C 0.36896 0.39818 0.48973 0.0
C555 C 0.39515 0.3539 0.58842 0.0
C556 C 0.41146 0.31678 0.59008 0.0
C557 C 0.39019 0.37973 0.50583 0.0
C558 C 0.42692 0.31703 0.52116 0.0
C559 C 0.42398 0.34883 0.44324 0.0
H560 H 0.08659 0.22105 0.69673 0.0
H561 H 0.10484 0.28371 0.4312 0.0
H562 H 0.06563 0.29366 0.38793 0.0
H563 H 0.02618 0.28911 0.42939 0.0
H564 H 1.00858 0.22675 0.69611 0.0
H565 H 0.04743 0.21162 0.73413 0.0
C566 C 0.08214 0.23656 0.62872 0.0
C567 C 0.09905 0.2518 0.56751 0.0
C568 C 0.05953 0.24242 0.6047 0.0
C569 C 0.09252 0.27137 0.47978 0.0
C570 C 0.06999 0.27735 0.45534 0.0
C571 C 0.03071 0.27226 0.49611 0.0
C572 C 1.01402 0.25971 0.56027 0.0
C573 C 0.05333 0.26382 0.51784 0.0
C574 C 0.02064 0.23671 0.6451 0.0
C575 C 0.04301 0.22833 0.66708 0.0
H576 H 0.95467 0.78112 0.3821 0.0
H577 H 0.93721 0.73851 0.66032 0.0
H578 H 0.97625 0.73111 0.70516 0.0
H579 H 1.01535 0.73381 0.6648 0.0
H580 H 0.03312 0.77639 0.38725 0.0
H581 H 0.99416 0.78769 0.34364 0.0
C582 C 0.95933 0.7704 0.45283 0.0
C583 C 0.94269 0.76014 0.51755 0.0
C584 C 0.982 0.76632 0.47841 0.0
C585 C 0.94937 0.74664 0.6088 0.0
C586 C 0.9718 0.74232 0.6345 0.0
C587 C 1.01081 0.74542 0.59449 0.0
C588 C 0.02748 0.75363 0.52919 0.0
C589 C 0.98826 0.75155 0.56977 0.0
C590 C 0.02096 0.76996 0.43925 0.0
C591 C 0.99856 0.77608 0.41413 0.0
H592 H 0.59022 0.74031 0.96311 0.0
H593 H 0.59882 0.77889 0.25425 0.0
H594 H 0.55961 0.78345 0.26665 0.0
H595 H 0.52261 0.7789 0.19861 0.0
H596 H 0.51107 0.74352 0.90913 0.0
H597 H 0.55103 0.73398 0.8931 0.0
C598 C 0.58347 0.74984 1.02898 0.0
C599 C 0.59795 0.75888 0.10778 0.0
C600 C 0.56014 0.75253 1.03655 0.0
C601 C 0.58856 0.77096 0.19239 0.0
C602 C 0.56591 0.77377 0.19994 0.0
C603 C 0.52874 0.76904 0.13169 0.0
C604 C 0.51372 0.76238 0.05518 0.0
C605 C 0.55156 0.76475 0.12298 0.0
C606 C 0.52211 0.74855 0.96955 0.0
C607 C 0.54506 0.74366 0.96033 0.0
H608 H 0.45193 0.27962 0.89689 0.0
H609 H 0.43878 0.24415 0.18252 0.0
H610 H 0.47839 0.23637 0.217 0.0
H611 H 0.5169 0.23604 0.16502 0.0
H612 H 0.53018 0.27408 0.88067 0.0
H613 H 0.4907 0.28518 0.84749 0.0
C614 C 0.45764 0.27042 0.96707 0.0
C615 C 0.44195 0.2621 1.03686 0.0
C616 C 0.48066 0.26648 0.9867 0.0
C617 C 0.45009 0.25075 0.12719 0.0
C618 C 0.47288 0.24616 0.14686 0.0
C619 C 0.51127 0.24687 0.09559 0.0
C620 C 0.5269 0.25371 1.02517 0.0
C621 C 0.48835 0.25335 0.07706 0.0
C622 C 0.51891 0.26876 0.93645 0.0
C623 C 0.49618 0.27475 0.91736 0.0
loop_
_geom_bond_atom_site_label_1
_geom_bond_atom_site_label_2
_geom_bond_distance
_geom_bond_site_symmetry_2
_ccdc_geom_bond_type
Co0 N5 2.057 . S
Co0 O17 2.021 . S
Co0 O20 2.062 . S
Co0 O24 2.117 . S
Co0 O25 2.020 . S
C1 O21 1.259 . S
C1 O24 1.258 . S
Co2 N11 2.057 . S
Co2 O18 2.117 . S
Co2 O19 2.020 . S
Co2 O21 2.021 . S
Co2 O26 2.062 . S
C3 N5 1.316 . S
C3 N6 1.347 . S
C3 H8 0.931 . S
C4 N5 1.375 . S
C4 C7 1.350 . S
C4 H9 0.930 . S
N5 Co0 2.057 . S
N5 C3 1.316 . S
N5 C4 1.375 . S
N6 C3 1.347 . S
N6 C7 1.373 . S
C7 C4 1.350 . S
C7 N6 1.373 . S
C7 H28 0.931 . S
H8 C3 0.931 . S
H9 C4 0.930 . S
C10 O17 1.259 . S
C10 O18 1.258 . S
N11 Co2 2.057 . S
N11 C12 1.316 . S
N11 C13 1.375 . S
C12 N11 1.316 . S
C12 N14 1.347 . S
C12 H23 0.931 . S
C13 N11 1.375 . S
C13 C15 1.350 . S
C13 H22 0.930 . S
N14 C12 1.347 . S
N14 C15 1.373 . S
C15 C13 1.350 . S
C15 N14 1.373 . S
C15 H29 0.931 . S
C16 O19 1.256 . S
C16 O20 1.255 . S
O17 Co0 2.021 . S
O17 C10 1.259 . S
O18 Co2 2.117 . S
O18 C10 1.258 . S
O19 Co2 2.020 . S
O19 C16 1.256 . S
O20 Co0 2.062 . S
O20 C16 1.255 . S
O21 C1 1.259 . S
O21 Co2 2.021 . S
H22 C13 0.930 . S
H23 C12 0.931 . S
O24 Co0 2.117 . S
O24 C1 1.258 . S
O25 Co0 2.020 . S
O25 C27 1.256 . S
O26 Co2 2.062 . S
O26 C27 1.255 . S
C27 O25 1.256 . S
C27 O26 1.255 . S
H28 C7 0.931 . S
H29 C15 0.931 . S
Co30 N35 2.057 . S
Co30 O47 2.021 . S
Co30 O50 2.062 . S
Co30 O54 2.117 . S
Co30 O55 2.020 . S
C31 O51 1.259 . S
C31 O54 1.258 . S
Co32 N41 2.057 . S
Co32 O48 2.117 . S
Co32 O49 2.020 . S
Co32 O51 2.021 . S
Co32 O56 2.062 . S
C33 N35 1.316 . S
C33 N36 1.347 . S
C33 H38 0.931 . S
C34 N35 1.375 . S
C34 C37 1.350 . S
C34 H39 0.930 . S
N35 Co30 2.057 . S
N35 C33 1.316 . S
N35 C34 1.375 . S
N36 C33 1.347 . S
N36 C37 1.373 . S
C37 C34 1.350 . S
C37 N36 1.373 . S
C37 H58 0.931 . S
H38 C33 0.931 . S
H39 C34 0.930 . S
C40 O47 1.259 . S
C40 O48 1.258 . S
N41 Co32 2.057 . S
N41 C42 1.316 . S
N41 C43 1.375 . S
C42 N41 1.316 . S
C42 N44 1.347 . S
C42 H53 0.931 . S
C43 N41 1.375 . S
C43 C45 1.350 . S
C43 H52 0.930 . S
N44 C42 1.347 . S
N44 C45 1.373 . S
C45 C43 1.350 . S
C45 N44 1.373 . S
C45 H59 0.931 . S
C46 O49 1.256 . S
C46 O50 1.255 . S
O47 Co30 2.021 . S
O47 C40 1.259 . S
O48 Co32 2.117 . S
O48 C40 1.258 . S
O49 Co32 2.020 . S
O49 C46 1.256 . S
O50 Co30 2.062 . S
O50 C46 1.255 . S
O51 C31 1.259 . S
O51 Co32 2.021 . S
H52 C43 0.930 . S
H53 C42 0.931 . S
O54 Co30 2.117 . S
O54 C31 1.258 . S
O55 Co30 2.020 . S
O55 C57 1.256 . S
O56 Co32 2.062 . S
O56 C57 1.255 . S
C57 O55 1.256 . S
C57 O56 1.255 . S
H58 C37 0.931 . S
H59 C45 0.931 . S
Co60 N65 2.057 . S
Co60 O77 2.021 . S
Co60 O80 2.062 . S
Co60 O84 2.117 . S
Co60 O85 2.020 . S
C61 O81 1.259 . S
C61 O84 1.258 . S
Co62 N71 2.057 . S
Co62 O78 2.117 . S
Co62 O79 2.020 . S
Co62 O81 2.021 . S
Co62 O86 2.062 . S
C63 N65 1.316 . S
C63 N66 1.347 . S
C63 H68 0.931 . S
C64 N65 1.375 . S
C64 C67 1.350 . S
C64 H69 0.930 . S
N65 Co60 2.057 . S
N65 C63 1.316 . S
N65 C64 1.375 . S
N66 C63 1.347 . S
N66 C67 1.373 . S
C67 C64 1.350 . S
C67 N66 1.373 . S
C67 H88 0.931 . S
H68 C63 0.931 . S
H69 C64 0.930 . S
C70 O77 1.259 . S
C70 O78 1.258 . S
N71 Co62 2.057 . S
N71 C72 1.316 . S
N71 C73 1.375 . S
C72 N71 1.316 . S
C72 N74 1.347 . S
C72 H83 0.931 . S
C73 N71 1.375 . S
C73 C75 1.350 . S
C73 H82 0.930 . S
N74 C72 1.347 . S
N74 C75 1.373 . S
C75 C73 1.350 . S
C75 N74 1.373 . S
C75 H89 0.931 . S
C76 O79 1.256 . S
C76 O80 1.255 . S
O77 Co60 2.021 . S
O77 C70 1.259 . S
O78 Co62 2.117 . S
O78 C70 1.258 . S
O79 Co62 2.020 . S
O79 C76 1.256 . S
O80 Co60 2.062 . S
O80 C76 1.255 . S
O81 C61 1.259 . S
O81 Co62 2.021 . S
H82 C73 0.930 . S
H83 C72 0.931 . S
O84 Co60 2.117 . S
O84 C61 1.258 . S
O85 Co60 2.020 . S
O85 C87 1.256 . S
O86 Co62 2.062 . S
O86 C87 1.255 . S
C87 O85 1.256 . S
C87 O86 1.255 . S
H88 C67 0.931 . S
H89 C75 0.931 . S
Co90 N95 2.057 . S
Co90 O107 2.021 . S
Co90 O110 2.062 . S
Co90 O114 2.117 . S
Co90 O115 2.020 . S
C91 O111 1.259 . S
C91 O114 1.258 . S
Co92 N101 2.057 . S
Co92 O108 2.117 . S
Co92 O109 2.020 . S
Co92 O111 2.021 . S
Co92 O116 2.062 . S
C93 N95 1.316 . S
C93 N96 1.347 . S
C93 H98 0.931 . S
C94 N95 1.375 . S
C94 C97 1.350 . S
C94 H99 0.930 . S
N95 Co90 2.057 . S
N95 C93 1.316 . S
N95 C94 1.375 . S
N96 C93 1.347 . S
N96 C97 1.373 . S
C97 C94 1.350 . S
C97 N96 1.373 . S
C97 H118 0.931 . S
H98 C93 0.931 . S
H99 C94 0.930 . S
C100 O107 1.259 . S
C100 O108 1.258 . S
N101 Co92 2.057 . S
N101 C102 1.316 . S
N101 C103 1.375 . S
C102 N101 1.316 . S
C102 N104 1.347 . S
C102 H113 0.931 . S
C103 N101 1.375 . S
C103 C105 1.350 . S
C103 H112 0.930 . S
N104 C102 1.347 . S
N104 C105 1.373 . S
C105 C103 1.350 . S
C105 N104 1.373 . S
C105 H119 0.931 . S
C106 O109 1.256 . S
C106 O110 1.255 . S
O107 Co90 2.021 . S
O107 C100 1.259 . S
O108 Co92 2.117 . S
O108 C100 1.258 . S
O109 Co92 2.020 . S
O109 C106 1.256 . S
O110 Co90 2.062 . S
O110 C106 1.255 . S
O111 C91 1.259 . S
O111 Co92 2.021 . S
H112 C103 0.930 . S
H113 C102 0.931 . S
O114 Co90 2.117 . S
O114 C91 1.258 . S
O115 Co90 2.020 . S
O115 C117 1.256 . S
O116 Co92 2.062 . S
O116 C117 1.255 . S
C117 O115 1.256 . S
C117 O116 1.255 . S
H118 C97 0.931 . S
H119 C105 0.931 . S
Co120 N125 2.057 . S
Co120 O137 2.021 . S
Co120 O140 2.062 . S
Co120 O144 2.117 . S
Co120 O145 2.020 . S
C121 O141 1.259 1_554 S
C121 O144 1.258 . S
Co122 N131 2.057 . S
Co122 O138 2.117 1_556 S
Co122 O139 2.020 1_556 S
Co122 O141 2.021 . S
Co122 O146 2.062 . S
C123 N125 1.316 . S
C123 N126 1.347 . S
C123 H128 0.931 . S
C124 N125 1.375 . S
C124 C127 1.350 . S
C124 H129 0.930 . S
N125 Co120 2.057 . S
N125 C123 1.316 . S
N125 C124 1.375 . S
N126 C123 1.347 . S
N126 C127 1.373 . S
C127 C124 1.350 . S
C127 N126 1.373 . S
C127 H148 0.931 . S
H128 C123 0.931 . S
H129 C124 0.930 . S
C130 O137 1.259 . S
C130 O138 1.258 . S
N131 Co122 2.057 . S
N131 C132 1.316 . S
N131 C133 1.375 . S
C132 N131 1.316 . S
C132 N134 1.347 . S
C132 H143 0.931 . S
C133 N131 1.375 . S
C133 C135 1.350 . S
C133 H142 0.930 . S
N134 C132 1.347 . S
N134 C135 1.373 . S
C135 C133 1.350 . S
C135 N134 1.373 . S
C135 H149 0.931 . S
C136 O139 1.256 . S
C136 O140 1.255 . S
O137 Co120 2.021 . S
O137 C130 1.259 . S
O138 Co122 2.117 1_554 S
O138 C130 1.258 . S
O139 Co122 2.020 1_554 S
O139 C136 1.256 . S
O140 Co120 2.062 . S
O140 C136 1.255 . S
O141 C121 1.259 1_556 S
O141 Co122 2.021 . S
H142 C133 0.930 . S
H143 C132 0.931 . S
O144 Co120 2.117 . S
O144 C121 1.258 . S
O145 Co120 2.020 . S
O145 C147 1.256 . S
O146 Co122 2.062 . S
O146 C147 1.255 1_556 S
C147 O145 1.256 . S
C147 O146 1.255 1_554 S
H148 C127 0.931 . S
H149 C135 0.931 . S
Co150 N155 2.057 . S
Co150 O167 2.021 . S
Co150 O170 2.062 1_554 S
Co150 O174 2.117 . S
Co150 O175 2.020 . S
C151 O171 1.259 . S
C151 O174 1.258 . S
Co152 N161 2.057 . S
Co152 O168 2.117 . S
Co152 O169 2.020 1_554 S
Co152 O171 2.021 . S
Co152 O176 2.062 . S
C153 N155 1.316 . S
C153 N156 1.346 1_554 S
C153 H158 0.931 . S
C154 N155 1.375 . S
C154 C157 1.350 . S
C154 H159 0.930 . S
N155 Co150 2.057 . S
N155 C153 1.316 . S
N155 C154 1.375 . S
N156 C153 1.346 1_556 S
N156 C157 1.372 1_556 S
C157 C154 1.350 . S
C157 N156 1.372 1_554 S
C157 H178 0.931 . S
H158 C153 0.931 . S
H159 C154 0.930 . S
C160 O167 1.259 . S
C160 O168 1.258 . S
N161 Co152 2.057 . S
N161 C162 1.316 . S
N161 C163 1.375 . S
C162 N161 1.316 . S
C162 N164 1.347 . S
C162 H173 0.931 . S
C163 N161 1.375 . S
C163 C165 1.350 . S
C163 H172 0.930 . S
N164 C162 1.347 . S
N164 C165 1.373 . S
C165 C163 1.350 . S
C165 N164 1.373 . S
C165 H179 0.931 . S
C166 O169 1.256 . S
C166 O170 1.255 . S
O167 Co150 2.021 . S
O167 C160 1.259 . S
O168 Co152 2.117 . S
O168 C160 1.258 . S
O169 Co152 2.020 1_556 S
O169 C166 1.256 . S
O170 Co150 2.062 1_556 S
O170 C166 1.255 . S
O171 C151 1.259 . S
O171 Co152 2.021 . S
H172 C163 0.930 . S
H173 C162 0.931 . S
O174 Co150 2.117 . S
O174 C151 1.258 . S
O175 Co150 2.020 . S
O175 C177 1.256 . S
O176 Co152 2.062 . S
O176 C177 1.255 . S
C177 O175 1.256 . S
C177 O176 1.255 . S
H178 C157 0.931 . S
H179 C165 0.931 . S
Co180 N185 2.057 . S
Co180 O197 2.021 . S
Co180 O200 2.062 . S
Co180 O204 2.117 . S
Co180 O205 2.020 1_556 S
C181 O201 1.259 . S
C181 O204 1.258 . S
Co182 N191 2.057 . S
Co182 O198 2.117 . S
Co182 O199 2.020 . S
Co182 O201 2.021 . S
Co182 O206 2.062 1_556 S
C183 N185 1.316 . S
C183 N186 1.347 . S
C183 H188 0.931 . S
C184 N185 1.375 . S
C184 C187 1.350 . S
C184 H189 0.930 . S
N185 Co180 2.057 . S
N185 C183 1.316 . S
N185 C184 1.375 . S
N186 C183 1.347 . S
N186 C187 1.373 . S
C187 C184 1.350 . S
C187 N186 1.373 . S
C187 H208 0.931 . S
H188 C183 0.931 . S
H189 C184 0.930 . S
C190 O197 1.259 . S
C190 O198 1.258 . S
N191 Co182 2.057 . S
N191 C192 1.316 . S
N191 C193 1.375 . S
C192 N191 1.316 . S
C192 N194 1.346 1_556 S
C192 H203 0.931 . S
C193 N191 1.375 . S
C193 C195 1.350 . S
C193 H202 0.930 . S
N194 C192 1.346 1_554 S
N194 C195 1.372 1_554 S
C195 C193 1.350 . S
C195 N194 1.372 1_556 S
C195 H209 0.931 . S
C196 O199 1.256 . S
C196 O200 1.255 . S
O197 Co180 2.021 . S
O197 C190 1.259 . S
O198 Co182 2.117 . S
O198 C190 1.258 . S
O199 Co182 2.020 . S
O199 C196 1.256 . S
O200 Co180 2.062 . S
O200 C196 1.255 . S
O201 C181 1.259 . S
O201 Co182 2.021 . S
H202 C193 0.930 . S
H203 C192 0.931 . S
O204 Co180 2.117 . S
O204 C181 1.258 . S
O205 Co180 2.020 1_554 S
O205 C207 1.256 . S
O206 Co182 2.062 1_554 S
O206 C207 1.255 . S
C207 O205 1.256 . S
C207 O206 1.255 . S
H208 C187 0.931 . S
H209 C195 0.931 . S
Co210 N215 2.057 . S
Co210 O227 2.021 . S
Co210 O230 2.062 . S
Co210 O234 2.117 1_554 S
Co210 O235 2.020 1_554 S
C211 O231 1.259 . S
C211 O234 1.258 . S
Co212 N221 2.057 . S
Co212 O228 2.117 . S
Co212 O229 2.020 . S
Co212 O231 2.021 . S
Co212 O236 2.062 . S
C213 N215 1.316 . S
C213 N216 1.347 . S
C213 H218 0.931 . S
C214 N215 1.375 . S
C214 C217 1.350 . S
C214 H219 0.930 . S
N215 Co210 2.057 . S
N215 C213 1.316 . S
N215 C214 1.375 . S
N216 C213 1.347 . S
N216 C217 1.373 . S
C217 C214 1.350 . S
C217 N216 1.373 . S
C217 H238 0.931 . S
H218 C213 0.931 . S
H219 C214 0.930 . S
C220 O227 1.259 1_556 S
C220 O228 1.258 . S
N221 Co212 2.057 . S
N221 C222 1.316 . S
N221 C223 1.375 . S
C222 N221 1.316 . S
C222 N224 1.347 . S
C222 H233 0.931 . S
C223 N221 1.375 . S
C223 C225 1.350 . S
C223 H232 0.930 . S
N224 C222 1.347 . S
N224 C225 1.373 . S
C225 C223 1.350 . S
C225 N224 1.373 . S
C225 H239 0.931 . S
C226 O229 1.256 . S
C226 O230 1.255 1_556 S
O227 Co210 2.021 . S
O227 C220 1.259 1_554 S
O228 Co212 2.117 . S
O228 C220 1.258 . S
O229 Co212 2.020 . S
O229 C226 1.256 . S
O230 Co210 2.062 . S
O230 C226 1.255 1_554 S
O231 C211 1.259 . S
O231 Co212 2.021 . S
H232 C223 0.930 . S
H233 C222 0.931 . S
O234 Co210 2.117 1_556 S
O234 C211 1.258 . S
O235 Co210 2.020 1_556 S
O235 C237 1.256 . S
O236 Co212 2.062 . S
O236 C237 1.255 . S
C237 O235 1.256 . S
C237 O236 1.255 . S
H238 C217 0.931 . S
H239 C225 0.931 . S
H240 C246 0.930 . S
H241 C249 0.930 . S
H242 C250 0.930 . S
H243 C251 0.930 . S
H244 C254 0.930 . S
H245 C255 0.930 . S
C246 H240 0.930 . S
C246 C247 1.355 . S
C246 C248 1.415 . S
C247 C246 1.355 . S
C247 C249 1.419 . S
C248 C246 1.415 . S
C248 C253 1.425 . S
C248 C255 1.409 . S
C249 H241 0.930 . S
C249 C247 1.419 . S
C249 C250 1.362 . S
C250 H242 0.930 . S
C250 C249 1.362 . S
C250 C253 1.409 . S
C251 H243 0.930 . S
C251 C252 1.355 . S
C251 C253 1.415 . S
C252 C251 1.355 . S
C252 C254 1.419 . S
C253 C248 1.425 . S
C253 C250 1.409 . S
C253 C251 1.415 . S
C254 H244 0.930 . S
C254 C252 1.419 . S
C254 C255 1.362 . S
C255 H245 0.930 . S
C255 C248 1.409 . S
C255 C254 1.362 . S
H256 C262 0.930 . S
H257 C265 0.930 . S
H258 C266 0.930 . S
H259 C267 0.930 . S
H260 C270 0.930 . S
H261 C271 0.930 . S
C262 H256 0.930 . S
C262 C263 1.355 . S
C262 C264 1.415 . S
C263 C262 1.355 . S
C263 C265 1.419 . S
C264 C262 1.415 . S
C264 C269 1.425 . S
C264 C271 1.409 . S
C265 H257 0.930 . S
C265 C263 1.419 . S
C265 C266 1.362 . S
C266 H258 0.930 . S
C266 C265 1.362 . S
C266 C269 1.409 . S
C267 H259 0.930 . S
C267 C268 1.355 . S
C267 C269 1.415 . S
C268 C267 1.355 . S
C268 C270 1.419 . S
C269 C264 1.425 . S
C269 C266 1.409 . S
C269 C267 1.415 . S
C270 H260 0.930 . S
C270 C268 1.419 . S
C270 C271 1.362 . S
C271 H261 0.930 . S
C271 C264 1.409 . S
C271 C270 1.362 . S
H272 C278 0.930 . S
H273 C281 0.930 . S
H274 C282 0.930 . S
H275 C283 0.930 . S
H276 C286 0.930 . S
H277 C287 0.930 . S
C278 H272 0.930 . S
C278 C279 1.355 . S
C278 C280 1.415 . S
C279 C278 1.355 . S
C279 C281 1.419 . S
C280 C278 1.415 . S
C280 C285 1.425 . S
C280 C287 1.409 . S
C281 H273 0.930 . S
C281 C279 1.419 . S
C281 C282 1.362 . S
C282 H274 0.930 . S
C282 C281 1.362 . S
C282 C285 1.409 . S
C283 H275 0.930 . S
C283 C284 1.355 . S
C283 C285 1.415 . S
C284 C283 1.355 . S
C284 C286 1.419 . S
C285 C280 1.425 . S
C285 C282 1.409 . S
C285 C283 1.415 . S
C286 H276 0.930 . S
C286 C284 1.419 . S
C286 C287 1.362 . S
C287 H277 0.930 . S
C287 C280 1.409 . S
C287 C286 1.362 . S
H288 C294 0.930 . S
H289 C297 0.930 . S
H290 C298 0.930 . S
H291 C299 0.930 . S
H292 C302 0.930 . S
H293 C303 0.930 . S
C294 H288 0.930 . S
C294 C295 1.355 . S
C294 C296 1.415 . S
C295 C294 1.355 . S
C295 C297 1.419 . S
C296 C294 1.415 . S
C296 C301 1.425 . S
C296 C303 1.409 . S
C297 H289 0.930 . S
C297 C295 1.419 . S
C297 C298 1.362 . S
C298 H290 0.930 . S
C298 C297 1.362 . S
C298 C301 1.409 . S
C299 H291 0.930 . S
C299 C300 1.355 . S
C299 C301 1.415 . S
C300 C299 1.355 . S
C300 C302 1.419 . S
C301 C296 1.425 . S
C301 C298 1.409 . S
C301 C299 1.415 . S
C302 H292 0.930 . S
C302 C300 1.419 . S
C302 C303 1.362 . S
C303 H293 0.930 . S
C303 C296 1.409 . S
C303 C302 1.362 . S
H304 C310 0.930 . S
H305 C313 0.930 . S
H306 C314 0.930 1_545 S
H307 C315 0.930 . S
H308 C318 0.930 . S
H309 C319 0.930 1_565 S
C310 H304 0.930 . S
C310 C311 1.355 . S
C310 C312 1.415 . S
C311 C310 1.355 . S
C311 C313 1.419 . S
C312 C310 1.415 . S
C312 C317 1.425 1_565 S
C312 C319 1.409 1_565 S
C313 H305 0.930 . S
C313 C311 1.419 . S
C313 C314 1.362 . S
C314 H306 0.930 1_565 S
C314 C313 1.362 . S
C314 C317 1.409 1_565 S
C315 H307 0.930 . S
C315 C316 1.355 . S
C315 C317 1.415 . S
C316 C315 1.355 . S
C316 C318 1.419 . S
C317 C312 1.425 1_545 S
C317 C314 1.409 1_545 S
C317 C315 1.415 . S
C318 H308 0.930 . S
C318 C316 1.419 . S
C318 C319 1.362 . S
C319 H309 0.930 1_545 S
C319 C312 1.409 1_545 S
C319 C318 1.362 . S
H320 C326 0.930 . S
H321 C329 0.930 . S
H322 C330 0.930 . S
H323 C331 0.930 . S
H324 C334 0.930 . S
H325 C335 0.930 . S
C326 H320 0.930 . S
C326 C327 1.355 . S
C326 C328 1.415 . S
C327 C326 1.355 . S
C327 C329 1.419 . S
C328 C326 1.415 . S
C328 C333 1.425 . S
C328 C335 1.409 . S
C329 H321 0.930 . S
C329 C327 1.419 . S
C329 C330 1.362 . S
C330 H322 0.930 . S
C330 C329 1.362 . S
C330 C333 1.409 . S
C331 H323 0.930 . S
C331 C332 1.355 . S
C331 C333 1.415 . S
C332 C331 1.355 . S
C332 C334 1.419 . S
C333 C328 1.425 . S
C333 C330 1.409 . S
C333 C331 1.415 . S
C334 H324 0.930 . S
C334 C332 1.419 . S
C334 C335 1.362 . S
C335 H325 0.930 . S
C335 C328 1.409 . S
C335 C334 1.362 . S
H336 C342 0.930 . S
H337 C345 0.930 . S
H338 C346 0.930 . S
H339 C347 0.930 . S
H340 C350 0.930 . S
H341 C351 0.930 . S
C342 H336 0.930 . S
C342 C343 1.355 . S
C342 C344 1.415 . S
C343 C342 1.355 . S
C343 C345 1.419 . S
C344 C342 1.415 . S
C344 C349 1.425 1_565 S
C344 C351 1.409 1_565 S
C345 H337 0.930 . S
C345 C343 1.419 . S
C345 C346 1.362 . S
C346 H338 0.930 . S
C346 C345 1.362 . S
C346 C349 1.409 1_565 S
C347 H339 0.930 . S
C347 C348 1.355 . S
C347 C349 1.415 . S
C348 C347 1.355 . S
C348 C350 1.419 . S
C349 C344 1.425 1_545 S
C349 C346 1.409 1_545 S
C349 C347 1.415 . S
C350 H340 0.930 . S
C350 C348 1.419 . S
C350 C351 1.362 . S
C351 H341 0.930 . S
C351 C344 1.409 1_545 S
C351 C350 1.362 . S
H352 C358 0.930 . S
H353 C361 0.930 . S
H354 C362 0.930 . S
H355 C363 0.930 . S
H356 C366 0.930 . S
H357 C367 0.930 . S
C358 H352 0.930 . S
C358 C359 1.355 . S
C358 C360 1.415 . S
C359 C358 1.355 . S
C359 C361 1.419 . S
C360 C358 1.415 . S
C360 C365 1.425 . S
C360 C367 1.409 . S
C361 H353 0.930 . S
C361 C359 1.419 . S
C361 C362 1.362 . S
C362 H354 0.930 . S
C362 C361 1.362 . S
C362 C365 1.409 . S
C363 H355 0.930 . S
C363 C364 1.355 . S
C363 C365 1.415 . S
C364 C363 1.355 . S
C364 C366 1.419 . S
C365 C360 1.425 . S
C365 C362 1.409 . S
C365 C363 1.415 . S
C366 H356 0.930 . S
C366 C364 1.419 . S
C366 C367 1.362 . S
C367 H357 0.930 . S
C367 C360 1.409 . S
C367 C366 1.362 . S
H368 C374 0.930 . S
H369 C377 0.930 . S
H370 C378 0.930 . S
H371 C379 0.930 . S
H372 C382 0.930 . S
H373 C383 0.930 . S
C374 H368 0.930 . S
C374 C375 1.355 . S
C374 C376 1.415 . S
C375 C374 1.355 . S
C375 C377 1.419 1_554 S
C376 C374 1.415 . S
C376 C381 1.425 1_554 S
C376 C383 1.409 . S
C377 H369 0.930 . S
C377 C375 1.419 1_556 S
C377 C378 1.362 . S
C378 H370 0.930 . S
C378 C377 1.362 . S
C378 C381 1.409 . S
C379 H371 0.930 . S
C379 C380 1.355 . S
C379 C381 1.415 . S
C380 C379 1.355 . S
C380 C382 1.419 1_556 S
C381 C376 1.425 1_556 S
C381 C378 1.409 . S
C381 C379 1.415 . S
C382 H372 0.930 . S
C382 C380 1.419 1_554 S
C382 C383 1.362 . S
C383 H373 0.930 . S
C383 C376 1.409 . S
C383 C382 1.362 . S
H384 C390 0.930 . S
H385 C393 0.930 . S
H386 C394 0.922 1_545 S
H387 C395 0.930 . S
H388 C398 0.930 . S
H389 C399 0.930 1_565 S
C390 H384 0.930 . S
C390 C391 1.355 . S
C390 C392 1.415 . S
C391 C390 1.355 . S
C391 C393 1.419 1_554 S
C392 C390 1.415 . S
C392 C397 1.425 1_564 S
C392 C399 1.409 1_565 S
C393 H385 0.930 . S
C393 C391 1.419 1_556 S
C393 C394 1.362 . S
C394 H386 0.922 1_565 S
C394 C393 1.362 . S
C394 C397 1.409 1_565 S
C395 H387 0.930 . S
C395 C396 1.355 . S
C395 C397 1.415 . S
C396 C395 1.355 . S
C396 C398 1.419 . S
C397 C392 1.425 1_546 S
C397 C394 1.409 1_545 S
C397 C395 1.415 . S
C398 H388 0.930 . S
C398 C396 1.419 . S
C398 C399 1.362 1_556 S
C399 H389 0.930 1_545 S
C399 C392 1.409 1_545 S
C399 C398 1.362 1_554 S
H400 C406 0.930 . S
H401 C409 0.930 . S
H402 C410 0.930 . S
H403 C411 0.930 . S
H404 C414 0.930 . S
H405 C415 0.930 . S
C406 H400 0.930 . S
C406 C407 1.355 1_554 S
C406 C408 1.415 . S
C407 C406 1.355 1_556 S
C407 C409 1.419 . S
C408 C406 1.415 . S
C408 C413 1.425 1_554 S
C408 C415 1.409 . S
C409 H401 0.930 . S
C409 C407 1.419 . S
C409 C410 1.362 . S
C410 H402 0.930 . S
C410 C409 1.362 . S
C410 C413 1.409 . S
C411 H403 0.930 . S
C411 C412 1.355 1_556 S
C411 C413 1.415 . S
C412 C411 1.355 1_554 S
C412 C414 1.419 . S
C413 C408 1.425 1_556 S
C413 C410 1.409 . S
C413 C411 1.415 . S
C414 H404 0.930 . S
C414 C412 1.419 . S
C414 C415 1.362 . S
C415 H405 0.930 . S
C415 C408 1.409 . S
C415 C414 1.362 . S
H416 C422 0.930 . S
H417 C425 0.930 . S
H418 C426 0.930 . S
H419 C427 0.930 . S
H420 C430 0.930 . S
H421 C431 0.930 . S
C422 H416 0.930 . S
C422 C423 1.355 1_554 S
C422 C424 1.415 . S
C423 C422 1.355 1_556 S
C423 C425 1.419 . S
C424 C422 1.415 . S
C424 C429 1.425 1_544 S
C424 C431 1.409 1_545 S
C425 H417 0.930 . S
C425 C423 1.419 . S
C425 C426 1.362 . S
C426 H418 0.930 . S
C426 C425 1.362 . S
C426 C429 1.409 1_545 S
C427 H419 0.930 . S
C427 C428 1.355 1_556 S
C427 C429 1.415 . S
C428 C427 1.355 1_554 S
C428 C430 1.419 . S
C429 C424 1.425 1_566 S
C429 C426 1.409 1_565 S
C429 C427 1.415 . S
C430 H420 0.930 . S
C430 C428 1.419 . S
C430 C431 1.362 . S
C431 H421 0.930 . S
C431 C424 1.409 1_565 S
C431 C430 1.362 . S
H432 C438 0.930 . S
H433 C441 0.930 . S
H434 C442 0.930 . S
H435 C443 0.930 . S
H436 C446 0.930 . S
H437 C447 0.930 . S
C438 H432 0.930 . S
C438 C439 1.355 . S
C438 C440 1.415 . S
C439 C438 1.355 . S
C439 C441 1.419 . S
C440 C438 1.415 . S
C440 C445 1.425 . S
C440 C447 1.409 . S
C441 H433 0.930 . S
C441 C439 1.419 . S
C441 C442 1.362 . S
C442 H434 0.930 . S
C442 C441 1.362 . S
C442 C445 1.409 . S
C443 H435 0.930 . S
C443 C444 1.355 . S
C443 C445 1.415 1_556 S
C444 C443 1.355 . S
C444 C446 1.419 . S
C445 C440 1.425 . S
C445 C442 1.409 . S
C445 C443 1.415 1_554 S
C446 H436 0.930 . S
C446 C444 1.419 . S
C446 C447 1.362 1_556 S
C447 H437 0.930 . S
C447 C440 1.409 . S
C447 C446 1.362 1_554 S
H448 C454 0.930 . S
H449 C457 0.930 . S
H450 C458 0.930 . S
H451 C459 0.930 . S
H452 C462 0.930 . S
H453 C463 0.930 1_554 S
C454 H448 0.930 . S
C454 C455 1.355 . S
C454 C456 1.415 . S
C455 C454 1.355 . S
C455 C457 1.419 . S
C456 C454 1.415 . S
C456 C461 1.425 . S
C456 C463 1.409 1_554 S
C457 H449 0.930 . S
C457 C455 1.419 . S
C457 C458 1.362 . S
C458 H450 0.930 . S
C458 C457 1.362 . S
C458 C461 1.409 . S
C459 H451 0.930 . S
C459 C460 1.355 . S
C459 C461 1.415 1_556 S
C460 C459 1.355 . S
C460 C462 1.419 . S
C461 C456 1.425 . S
C461 C458 1.409 . S
C461 C459 1.415 1_554 S
C462 H452 0.930 . S
C462 C460 1.419 . S
C462 C463 1.362 . S
C463 H453 0.930 1_556 S
C463 C456 1.409 1_556 S
C463 C462 1.362 . S
H464 C470 0.930 . S
H465 C473 0.930 . S
H466 C474 0.930 . S
H467 C475 0.930 . S
H468 C478 0.930 . S
H469 C479 0.930 . S
C470 H464 0.930 . S
C470 C471 1.355 . S
C470 C472 1.415 1_554 S
C471 C470 1.355 . S
C471 C473 1.419 . S
C472 C470 1.415 1_556 S
C472 C477 1.425 . S
C472 C479 1.409 . S
C473 H465 0.930 . S
C473 C471 1.419 . S
C473 C474 1.362 1_554 S
C474 H466 0.930 . S
C474 C473 1.362 1_556 S
C474 C477 1.409 . S
C475 H467 0.930 . S
C475 C476 1.355 . S
C475 C477 1.415 . S
C476 C475 1.355 . S
C476 C478 1.419 . S
C477 C472 1.425 . S
C477 C474 1.409 . S
C477 C475 1.415 . S
C478 H468 0.930 . S
C478 C476 1.419 . S
C478 C479 1.362 . S
C479 H469 0.930 . S
C479 C472 1.409 . S
C479 C478 1.362 . S
H480 C486 0.930 . S
H481 C489 0.930 . S
H482 C490 0.930 . S
H483 C491 0.930 . S
H484 C494 0.930 . S
H485 C495 0.930 . S
C486 H480 0.930 . S
C486 C487 1.355 . S
C486 C488 1.415 . S
C487 C486 1.355 . S
C487 C489 1.419 . S
C488 C486 1.415 . S
C488 C493 1.425 . S
C488 C495 1.409 . S
C489 H481 0.930 . S
C489 C487 1.419 . S
C489 C490 1.362 . S
C490 H482 0.930 . S
C490 C489 1.362 . S
C490 C493 1.409 . S
C491 H483 0.930 . S
C491 C492 1.355 . S
C491 C493 1.415 1_554 S
C492 C491 1.355 . S
C492 C494 1.419 . S
C493 C488 1.425 . S
C493 C490 1.409 . S
C493 C491 1.415 1_556 S
C494 H484 0.930 . S
C494 C492 1.419 . S
C494 C495 1.362 1_554 S
C495 H485 0.930 . S
C495 C488 1.409 . S
C495 C494 1.362 1_556 S
H496 C502 0.930 . S
H497 C505 0.930 . S
H498 C506 0.930 . S
H499 C507 0.930 . S
H500 C510 0.930 . S
H501 C511 0.930 . S
C502 H496 0.930 . S
C502 C503 1.355 . S
C502 C504 1.415 . S
C503 C502 1.355 . S
C503 C505 1.419 . S
C504 C502 1.415 . S
C504 C509 1.425 . S
C504 C511 1.409 . S
C505 H497 0.930 . S
C505 C503 1.419 . S
C505 C506 1.362 . S
C506 H498 0.930 . S
C506 C505 1.362 . S
C506 C509 1.409 . S
C507 H499 0.930 . S
C507 C508 1.355 . S
C507 C509 1.415 . S
C508 C507 1.355 . S
C508 C510 1.419 . S
C509 C504 1.425 . S
C509 C506 1.409 . S
C509 C507 1.415 . S
C510 H500 0.930 . S
C510 C508 1.419 . S
C510 C511 1.362 . S
C511 H501 0.930 . S
C511 C504 1.409 . S
C511 C510 1.362 . S
H512 C518 0.930 . S
H513 C521 0.930 . S
H514 C522 0.930 . S
H515 C523 0.930 . S
H516 C526 0.930 . S
H517 C527 0.930 . S
C518 H512 0.930 . S
C518 C519 1.355 . S
C518 C520 1.415 . S
C519 C518 1.355 . S
C519 C521 1.419 . S
C520 C518 1.415 . S
C520 C525 1.425 . S
C520 C527 1.409 . S
C521 H513 0.930 . S
C521 C519 1.419 . S
C521 C522 1.362 . S
C522 H514 0.930 . S
C522 C521 1.362 . S
C522 C525 1.409 . S
C523 H515 0.930 . S
C523 C524 1.355 . S
C523 C525 1.415 . S
C524 C523 1.355 . S
C524 C526 1.419 . S
C525 C520 1.425 . S
C525 C522 1.409 . S
C525 C523 1.415 . S
C526 H516 0.930 . S
C526 C524 1.419 . S
C526 C527 1.362 . S
C527 H517 0.930 . S
C527 C520 1.409 . S
C527 C526 1.362 . S
H528 C534 0.930 . S
H529 C537 0.930 . S
H530 C538 0.930 . S
H531 C539 0.930 . S
H532 C542 0.930 . S
H533 C543 0.930 . S
C534 H528 0.930 . S
C534 C535 1.355 . S
C534 C536 1.415 . S
C535 C534 1.355 . S
C535 C537 1.419 . S
C536 C534 1.415 . S
C536 C541 1.425 . S
C536 C543 1.409 . S
C537 H529 0.930 . S
C537 C535 1.419 . S
C537 C538 1.362 . S
C538 H530 0.930 . S
C538 C537 1.362 . S
C538 C541 1.409 . S
C539 H531 0.930 . S
C539 C540 1.355 . S
C539 C541 1.415 . S
C540 C539 1.355 . S
C540 C542 1.419 . S
C541 C536 1.425 . S
C541 C538 1.409 . S
C541 C539 1.415 . S
C542 H532 0.930 . S
C542 C540 1.419 . S
C542 C543 1.362 . S
C543 H533 0.930 . S
C543 C536 1.409 . S
C543 C542 1.362 . S
H544 C550 0.930 . S
H545 C553 0.930 . S
H546 C554 0.930 . S
H547 C555 0.930 . S
H548 C558 0.930 . S
H549 C559 0.930 . S
C550 H544 0.930 . S
C550 C551 1.355 . S
C550 C552 1.415 . S
C551 C550 1.355 . S
C551 C553 1.419 . S
C552 C550 1.415 . S
C552 C557 1.425 . S
C552 C559 1.409 . S
C553 H545 0.930 . S
C553 C551 1.419 . S
C553 C554 1.362 . S
C554 H546 0.930 . S
C554 C553 1.362 . S
C554 C557 1.409 . S
C555 H547 0.930 . S
C555 C556 1.355 . S
C555 C557 1.415 . S
C556 C555 1.355 . S
C556 C558 1.419 . S
C557 C552 1.425 . S
C557 C554 1.409 . S
C557 C555 1.415 . S
C558 H548 0.930 . S
C558 C556 1.419 . S
C558 C559 1.362 . S
C559 H549 0.930 . S
C559 C552 1.409 . S
C559 C558 1.362 . S
H560 C566 0.930 . S
H561 C569 0.930 . S
H562 C570 0.930 . S
H563 C571 0.930 . S
H564 C574 0.930 1_655 S
H565 C575 0.930 . S
C566 H560 0.930 . S
C566 C567 1.355 . S
C566 C568 1.415 . S
C567 C566 1.355 . S
C567 C569 1.419 . S
C568 C566 1.415 . S
C568 C573 1.425 . S
C568 C575 1.409 . S
C569 H561 0.930 . S
C569 C567 1.419 . S
C569 C570 1.362 . S
C570 H562 0.930 . S
C570 C569 1.362 . S
C570 C573 1.409 . S
C571 H563 0.930 . S
C571 C572 1.355 1_455 S
C571 C573 1.415 . S
C572 C571 1.355 1_655 S
C572 C574 1.419 1_655 S
C573 C568 1.425 . S
C573 C570 1.409 . S
C573 C571 1.415 . S
C574 H564 0.930 1_455 S
C574 C572 1.419 1_455 S
C574 C575 1.362 . S
C575 H565 0.930 . S
C575 C568 1.409 . S
C575 C574 1.362 . S
H576 C582 0.930 . S
H577 C585 0.930 . S
H578 C586 0.930 . S
H579 C587 0.930 . S
H580 C590 0.930 1_455 S
H581 C591 0.930 . S
C582 H576 0.930 . S
C582 C583 1.355 . S
C582 C584 1.415 . S
C583 C582 1.355 . S
C583 C585 1.419 . S
C584 C582 1.415 . S
C584 C589 1.425 . S
C584 C591 1.409 . S
C585 H577 0.930 . S
C585 C583 1.419 . S
C585 C586 1.362 . S
C586 H578 0.930 . S
C586 C585 1.362 . S
C586 C589 1.409 . S
C587 H579 0.930 . S
C587 C588 1.355 1_655 S
C587 C589 1.415 . S
C588 C587 1.355 1_455 S
C588 C590 1.419 1_455 S
C589 C584 1.425 . S
C589 C586 1.409 . S
C589 C587 1.415 . S
C590 H580 0.930 1_655 S
C590 C588 1.419 1_655 S
C590 C591 1.362 . S
C591 H581 0.930 . S
C591 C584 1.409 . S
C591 C590 1.362 . S
H592 C598 0.930 . S
H593 C601 0.930 . S
H594 C602 0.930 . S
H595 C603 0.930 . S
H596 C606 0.930 . S
H597 C607 0.930 . S
C598 H592 0.930 . S
C598 C599 1.355 1_556 S
C598 C600 1.415 . S
C599 C598 1.355 1_554 S
C599 C601 1.419 . S
C600 C598 1.415 . S
C600 C605 1.425 1_556 S
C600 C607 1.409 . S
C601 H593 0.930 . S
C601 C599 1.419 . S
C601 C602 1.362 . S
C602 H594 0.930 . S
C602 C601 1.362 . S
C602 C605 1.409 . S
C603 H595 0.930 . S
C603 C604 1.355 1_554 S
C603 C605 1.415 . S
C604 C603 1.355 1_556 S
C604 C606 1.419 . S
C605 C600 1.425 1_554 S
C605 C602 1.409 . S
C605 C603 1.415 . S
C606 H596 0.930 . S
C606 C604 1.419 . S
C606 C607 1.362 . S
C607 H597 0.930 . S
C607 C600 1.409 . S
C607 C606 1.362 . S
H608 C614 0.930 . S
H609 C617 0.930 . S
H610 C618 0.930 . S
H611 C619 0.930 . S
H612 C622 0.930 . S
H613 C623 0.930 . S
C614 H608 0.930 . S
C614 C615 1.355 1_554 S
C614 C616 1.415 . S
C615 C614 1.355 1_556 S
C615 C617 1.419 . S
C616 C614 1.415 . S
C616 C621 1.425 1_554 S
C616 C623 1.409 . S
C617 H609 0.930 . S
C617 C615 1.419 . S
C617 C618 1.362 . S
C618 H610 0.930 . S
C618 C617 1.362 . S
C618 C621 1.409 . S
C619 H611 0.930 . S
C619 C620 1.355 1_556 S
C619 C621 1.415 . S
C620 C619 1.355 1_554 S
C620 C622 1.419 . S
C621 C616 1.425 1_556 S
C621 C618 1.409 . S
C621 C619 1.415 . S
C622 H612 0.930 . S
C622 C620 1.419 . S
C622 C623 1.362 . S
C623 H613 0.930 . S
C623 C616 1.409 . S
C623 C622 1.362 . S
C247 C16 2.337 . S
C252 C237 2.337 . S
C263 N186 1.530 . S
C268 N44 1.530 . S
C279 N164 1.529 . S
C284 N66 1.529 . S
C295 C136 2.363 . S
C300 C117 2.363 . S
C311 C61 1.647 . S
C316 C10 1.639 . S
C327 C31 1.655 . S
C332 C100 1.661 . S
C343 C91 1.606 . S
C348 C40 1.622 . S
C359 C70 1.605 . S
C364 C1 1.630 . S
C375 C130 1.627 . S
C380 C181 1.630 . S
C391 C151 1.639 . S
C396 C220 1.646 . S
C407 C211 1.636 . S
C412 C160 1.647 . S
C423 C190 1.624 . S
C428 C121 1.655 . S
C439 N14 0.562 . S
C444 N6 0.562 . S
C455 C46 2.792 . S
C460 C57 2.792 . S
C471 C76 2.794 . S
C476 C87 2.794 . S
C487 N96 0.389 . S
C492 N104 0.389 . S
C503 N126 0.397 . S
C508 N134 0.397 . S
C519 C166 2.794 . S
C524 C177 2.794 . S
C535 C207 2.794 . S
C540 C196 2.794 . S
C551 N216 0.346 . S
C556 N224 0.346 . S
C567 C27 1.631 . S
C572 N36 1.600 . S
C583 C106 1.633 . S
C588 N74 1.572 . S
C599 C147 1.631 . S
C604 N156 1.594 . S
C615 C226 1.631 . S
C620 N194 1.587 . S
