# Generated by pormake.
# Topology atn, (4)-cn, num edge types: 1
# Building blocks:
#     Node 0, Type 0, BuildingBlock: AZAVOO_clean_sbu_0, # of connection points: 4
#     Node 1, Type 0, BuildingBlock: AZAVOO_clean_sbu_0, # of connection points: 4
#     Node 2, Type 0, BuildingBlock: AZAVOO_clean_sbu_0, # of connection points: 4
#     Node 3, Type 0, BuildingBlock: AZAVOO_clean_sbu_0, # of connection points: 4
#     Node 4, Type 0, BuildingBlock: AZAVOO_clean_sbu_0, # of connection points: 4
#     Node 5, Type 0, BuildingBlock: AZAVOO_clean_sbu_0, # of connection points: 4
#     Node 6, Type 0, BuildingBlock: AZAVOO_clean_sbu_0, # of connection points: 4
#     Node 7, Type 0, BuildingBlock: AZAVOO_clean_sbu_0, # of connection points: 4
#     Node 8, Type 0, BuildingBlock: AZAVOO_clean_sbu_0, # of connection points: 4
#     Node 9, Type 0, BuildingBlock: AZAVOO_clean_sbu_0, # of connection points: 4
#     Node 10, Type 0, BuildingBlock: AZAVOO_clean_sbu_0, # of connection points: 4
#     Node 11, Type 0, BuildingBlock: AZAVOO_clean_sbu_0, # of connection points: 4
#     Node 12, Type 0, BuildingBlock: AZAVOO_clean_sbu_0, # of connection points: 4
#     Node 13, Type 0, BuildingBlock: AZAVOO_clean_sbu_0, # of connection points: 4
#     Node 14, Type 0, BuildingBlock: AZAVOO_clean_sbu_0, # of connection points: 4
#     Node 15, Type 0, BuildingBlock: AZAVOO_clean_sbu_0, # of connection points: 4
#     Edge 16, Type (0, 0), BuildingBlock: AJUNOK_clean_linker_0, # of connection points: 2
#     Edge 17, Type (0, 0), BuildingBlock: AJUNOK_clean_linker_0, # of connection points: 2
#     Edge 18, Type (0, 0), BuildingBlock: AJUNOK_clean_linker_0, # of connection points: 2
#     Edge 19, Type (0, 0), BuildingBlock: AJUNOK_clean_linker_0, # of connection points: 2
#     Edge 20, Type (0, 0), BuildingBlock: AJUNOK_clean_linker_0, # of connection points: 2
#     Edge 21, Type (0, 0), BuildingBlock: AJUNOK_clean_linker_0, # of connection points: 2
#     Edge 22, Type (0, 0), BuildingBlock: AJUNOK_clean_linker_0, # of connection points: 2
#     Edge 23, Type (0, 0), BuildingBlock: AJUNOK_clean_linker_0, # of connection points: 2
#     Edge 24, Type (0, 0), BuildingBlock: AJUNOK_clean_linker_0, # of connection points: 2
#     Edge 25, Type (0, 0), BuildingBlock: AJUNOK_clean_linker_0, # of connection points: 2
#     Edge 26, Type (0, 0), BuildingBlock: AJUNOK_clean_linker_0, # of connection points: 2
#     Edge 27, Type (0, 0), BuildingBlock: AJUNOK_clean_linker_0, # of connection points: 2
#     Edge 28, Type (0, 0), BuildingBlock: AJUNOK_clean_linker_0, # of connection points: 2
#     Edge 29, Type (0, 0), BuildingBlock: AJUNOK_clean_linker_0, # of connection points: 2
#     Edge 30, Type (0, 0), BuildingBlock: AJUNOK_clean_linker_0, # of connection points: 2
#     Edge 31, Type (0, 0), BuildingBlock: AJUNOK_clean_linker_0, # of connection points: 2
#     Edge 32, Type (0, 0), BuildingBlock: AJUNOK_clean_linker_0, # of connection points: 2
#     Edge 33, Type (0, 0), BuildingBlock: AJUNOK_clean_linker_0, # of connection points: 2
#     Edge 34, Type (0, 0), BuildingBlock: AJUNOK_clean_linker_0, # of connection points: 2
#     Edge 35, Type (0, 0), BuildingBlock: AJUNOK_clean_linker_0, # of connection points: 2
#     Edge 36, Type (0, 0), BuildingBlock: AJUNOK_clean_linker_0, # of connection points: 2
#     Edge 37, Type (0, 0), BuildingBlock: AJUNOK_clean_linker_0, # of connection points: 2
#     Edge 38, Type (0, 0), BuildingBlock: AJUNOK_clean_linker_0, # of connection points: 2
#     Edge 39, Type (0, 0), BuildingBlock: AJUNOK_clean_linker_0, # of connection points: 2
#     Edge 40, Type (0, 0), BuildingBlock: AJUNOK_clean_linker_0, # of connection points: 2
#     Edge 41, Type (0, 0), BuildingBlock: AJUNOK_clean_linker_0, # of connection points: 2
#     Edge 42, Type (0, 0), BuildingBlock: AJUNOK_clean_linker_0, # of connection points: 2
#     Edge 43, Type (0, 0), BuildingBlock: AJUNOK_clean_linker_0, # of connection points: 2
#     Edge 44, Type (0, 0), BuildingBlock: AJUNOK_clean_linker_0, # of connection points: 2
#     Edge 45, Type (0, 0), BuildingBlock: AJUNOK_clean_linker_0, # of connection points: 2
#     Edge 46, Type (0, 0), BuildingBlock: AJUNOK_clean_linker_0, # of connection points: 2
#     Edge 47, Type (0, 0), BuildingBlock: AJUNOK_clean_linker_0, # of connection points: 2
# Relax obj value: 0.122
# Max RMSD: 0.132
# Mean RMSD: 0.132
data_MOF--net-atn--node1-AZAVOO_clean_sbu_0--edge1-AJUNOK_clean_linker_0
_symmetry_space_group_name_H-M    P1
_symmetry_Int_Tables_number       1
_symmetry_cell_setting            triclinic
loop_
_symmetry_equiv_pos_as_xyz
'x, y, z'
_cell_length_a     45.332047
_cell_length_b     45.572155
_cell_length_c     19.888184
_cell_angle_alpha  90.059716
_cell_angle_beta   89.833627
_cell_angle_gamma 90.053058
loop_
_atom_site_label
_atom_site_type_symbol
_atom_site_fract_x
_atom_site_fract_y
_atom_site_fract_z
_atom_type_partial_charge
Mg0 Mg 0.18814 0.36686 0.01939 0.0
O1 O 0.23197 0.34265 0.02112 0.0
O2 O 0.25523 0.35003 0.92342 0.0
Mg3 Mg 0.22567 0.37874 0.85786 0.0
C4 C 0.25405 0.33887 0.9822 0.0
C5 C 0.15739 0.34831 0.14829 0.0
O6 O 0.13749 0.34487 0.10106 0.0
O7 O 0.21214 0.41021 0.03286 0.0
O8 O 0.23115 0.41751 0.93025 0.0
O9 O 0.16607 0.32821 0.9746 0.0
O10 O 0.18699 0.36357 0.91517 0.0
C11 C 0.22611 0.42605 0.99036 0.0
C12 C 0.1734 0.33875 0.91652 0.0
O13 O 0.18236 0.35894 0.13191 0.0
Mg14 Mg 0.61499 0.19673 0.01907 0.0
O15 O 0.64337 0.23802 0.02105 0.0
O16 O 0.63858 0.26079 0.92214 0.0
Mg17 Mg 0.60747 0.23372 0.85616 0.0
C18 C 0.64956 0.25902 0.98102 0.0
C19 C 0.63087 0.16625 0.15059 0.0
O20 O 0.63598 0.14616 0.10459 0.0
O21 O 0.57353 0.22421 0.02975 0.0
O22 O 0.56804 0.24241 0.92601 0.0
O23 O 0.65207 0.17103 0.97623 0.0
O24 O 0.61902 0.19473 0.91539 0.0
C25 C 0.55887 0.2387 0.9862 0.0
C26 C 0.64257 0.17903 0.91777 0.0
O27 O 0.62075 0.19097 0.13205 0.0
Mg28 Mg 0.79199 0.61281 0.01119 0.0
O29 O 0.74747 0.63573 0.01938 0.0
O30 O 0.72246 0.62803 0.92432 0.0
Mg31 Mg 0.75104 0.59985 0.8547 0.0
C32 C 0.72458 0.63912 0.98309 0.0
C33 C 0.82128 0.63646 0.14048 0.0
O34 O 0.83764 0.64837 0.09319 0.0
O35 O 0.76985 0.56866 0.0269 0.0
O36 O 0.74843 0.5608 0.92715 0.0
O37 O 0.8113 0.65231 0.96184 0.0
O38 O 0.7904 0.61552 0.90755 0.0
C39 C 0.75534 0.5524 0.98629 0.0
C40 C 0.8027 0.6409 0.90556 0.0
O41 O 0.79994 0.61994 0.12332 0.0
Mg42 Mg 0.36506 0.78704 0.00864 0.0
O43 O 0.34007 0.74378 0.01127 0.0
O44 O 0.34666 0.72049 0.91335 0.0
Mg45 Mg 0.37617 0.74942 0.84719 0.0
C46 C 0.33552 0.72202 0.97228 0.0
C47 C 0.34672 0.81688 0.14037 0.0
O48 O 0.34242 0.83743 0.09517 0.0
O49 O 0.40852 0.76269 0.0209 0.0
O50 O 0.41534 0.74365 0.91831 0.0
O51 O 0.32632 0.80973 0.96466 0.0
O52 O 0.36121 0.78792 0.9047 0.0
C53 C 0.42421 0.74867 0.97806 0.0
C54 C 0.33641 0.80164 0.90662 0.0
O55 O 0.35771 0.79256 0.12143 0.0
Mg56 Mg 0.1873 0.60466 0.05916 0.0
O57 O 0.22943 0.6311 0.04456 0.0
O58 O 0.25883 0.62331 0.13262 0.0
Mg59 Mg 0.23489 0.59263 0.20544 0.0
C60 C 0.25355 0.63527 0.07593 0.0
C61 C 0.16707 0.63758 0.93001 0.0
O62 O 0.16631 0.65908 0.97402 0.0
O63 O 0.21201 0.56279 0.03538 0.0
O64 O 0.23725 0.55449 0.1301 0.0
O65 O 0.16648 0.64153 0.11483 0.0
O66 O 0.19225 0.60625 0.16281 0.0
C67 C 0.22893 0.54686 0.0713 0.0
C68 C 0.17766 0.6303 0.16885 0.0
O69 O 0.17531 0.61229 0.9493 0.0
Mg70 Mg 0.37925 0.1955 0.02157 0.0
O71 O 0.35121 0.237 0.02339 0.0
O72 O 0.35732 0.25893 0.12297 0.0
Mg73 Mg 0.38935 0.23164 0.18527 0.0
C74 C 0.34557 0.25767 0.06481 0.0
C75 C 0.36173 0.16463 0.89232 0.0
O76 O 0.36008 0.14441 0.93918 0.0
O77 O 0.42103 0.22272 0.00801 0.0
O78 O 0.42714 0.24066 0.11166 0.0
O79 O 0.34249 0.17009 0.06675 0.0
O80 O 0.37669 0.19297 0.12603 0.0
C81 C 0.43605 0.23714 0.05126 0.0
C82 C 0.35277 0.17774 0.12479 0.0
O83 O 0.37085 0.19006 0.9089 0.0
Mg84 Mg 0.80171 0.37458 0.05225 0.0
O85 O 0.75967 0.34742 0.04281 0.0
O86 O 0.73185 0.35523 0.13394 0.0
Mg87 Mg 0.75656 0.38664 0.20345 0.0
C88 C 0.73622 0.34306 0.07696 0.0
C89 C 0.81993 0.3407 0.92242 0.0
O90 O 0.82009 0.31933 0.96669 0.0
O91 O 0.77581 0.41596 0.02992 0.0
O92 O 0.7521 0.42407 0.12718 0.0
O93 O 0.82406 0.33843 0.10715 0.0
O94 O 0.79846 0.37368 0.15616 0.0
C95 C 0.75918 0.43165 0.06743 0.0
C96 C 0.81351 0.34995 0.1617 0.0
O97 O 0.81243 0.36628 0.9416 0.0
Mg98 Mg 0.60517 0.7859 0.04021 0.0
O99 O 0.63161 0.7434 0.03821 0.0
O100 O 0.62212 0.71811 0.13194 0.0
Mg101 Mg 0.58937 0.74463 0.19483 0.0
C102 C 0.6354 0.72106 0.07574 0.0
C103 C 0.62967 0.81804 0.91632 0.0
O104 O 0.6337 0.83708 0.96505 0.0
O105 O 0.56299 0.76091 0.01646 0.0
O106 O 0.55309 0.73979 0.11564 0.0
O107 O 0.64103 0.80838 0.09652 0.0
O108 O 0.60379 0.78515 0.14451 0.0
C109 C 0.54621 0.74578 0.05494 0.0
C110 C 0.6279 0.79972 0.1509 0.0
O111 O 0.61708 0.79379 0.93007 0.0
Mg112 Mg 0.68538 0.87072 0.5087 0.0
O113 O 0.72867 0.84524 0.50988 0.0
O114 O 0.75143 0.85266 0.41131 0.0
Mg115 Mg 0.72222 0.88182 0.34582 0.0
C116 C 0.75038 0.84122 0.46985 0.0
C117 C 0.67193 0.83922 0.64304 0.0
O118 O 0.67068 0.81748 0.59973 0.0
O119 O 0.71106 0.91292 0.52087 0.0
O120 O 0.72935 0.9207 0.41761 0.0
O121 O 0.66138 0.83298 0.46473 0.0
O122 O 0.68402 0.86713 0.40487 0.0
C123 C 0.72523 0.92864 0.47855 0.0
C124 C 0.66934 0.84296 0.40658 0.0
O125 O 0.67917 0.86457 0.62192 0.0
Mg126 Mg 0.11211 0.69264 0.52702 0.0
O127 O 0.13747 0.73571 0.53027 0.0
O128 O 0.13086 0.75922 0.43294 0.0
Mg129 Mg 0.10168 0.73041 0.36604 0.0
C130 C 0.14186 0.75769 0.49187 0.0
C131 C 0.12889 0.66096 0.65512 0.0
O132 O 0.13196 0.64138 0.60712 0.0
O133 O 0.06904 0.71734 0.54001 0.0
O134 O 0.06213 0.73621 0.43728 0.0
O135 O 0.1506 0.6698 0.4825 0.0
O136 O 0.11584 0.69159 0.42296 0.0
C137 C 0.05343 0.73142 0.49746 0.0
C138 C 0.14034 0.67733 0.4244 0.0
O139 O 0.1192 0.68625 0.63953 0.0
Mg140 Mg 0.29777 0.11024 0.49047 0.0
O141 O 0.25613 0.13831 0.49887 0.0
O142 O 0.22939 0.13104 0.406 0.0
Mg143 Mg 0.2537 0.09885 0.33768 0.0
C144 C 0.23339 0.14329 0.46296 0.0
C145 C 0.31903 0.14293 0.61971 0.0
O146 O 0.32188 0.16387 0.5748 0.0
O147 O 0.27093 0.06921 0.51224 0.0
O148 O 0.24797 0.06167 0.41419 0.0
O149 O 0.32151 0.14568 0.43513 0.0
O150 O 0.29533 0.11087 0.38645 0.0
C151 C 0.2545 0.05372 0.47388 0.0
C152 C 0.31121 0.13405 0.38058 0.0
O153 O 0.30849 0.11831 0.60131 0.0
Mg154 Mg 0.87563 0.28366 0.51992 0.0
O155 O 0.84672 0.24275 0.52016 0.0
O156 O 0.85205 0.21995 0.42128 0.0
Mg157 Mg 0.88439 0.24643 0.35716 0.0
C158 C 0.84058 0.22186 0.47979 0.0
C159 C 0.85981 0.31579 0.64864 0.0
O160 O 0.85883 0.33581 0.60124 0.0
O161 O 0.91656 0.25547 0.53312 0.0
O162 O 0.92239 0.23686 0.42978 0.0
O163 O 0.83959 0.30986 0.47495 0.0
O164 O 0.87304 0.28577 0.41563 0.0
C165 C 0.93127 0.24054 0.49009 0.0
C166 C 0.84974 0.30188 0.41689 0.0
O167 O 0.86778 0.28993 0.63255 0.0
Mg168 Mg 0.68809 0.10686 0.55114 0.0
O169 O 0.73063 0.13316 0.54062 0.0
O170 O 0.7587 0.12471 0.63063 0.0
Mg171 Mg 0.73413 0.09311 0.69985 0.0
C172 C 0.75423 0.13715 0.57413 0.0
C173 C 0.66361 0.14053 0.42787 0.0
O174 O 0.65766 0.1587 0.4773 0.0
O175 O 0.71266 0.06487 0.5259 0.0
O176 O 0.73706 0.05635 0.62153 0.0
O177 O 0.66733 0.14323 0.6087 0.0
O178 O 0.69215 0.10699 0.65531 0.0
C179 C 0.72922 0.04875 0.56239 0.0
C180 C 0.678 0.13121 0.66226 0.0
O181 O 0.67683 0.1166 0.44125 0.0
Mg182 Mg 0.87071 0.69621 0.54577 0.0
O183 O 0.84582 0.73908 0.53268 0.0
O184 O 0.8522 0.76642 0.62477 0.0
Mg185 Mg 0.88161 0.7408 0.69718 0.0
C186 C 0.8412 0.76242 0.56647 0.0
C187 C 0.84886 0.66331 0.42037 0.0
O188 O 0.83905 0.64703 0.47007 0.0
O189 O 0.9146 0.71917 0.52812 0.0
O190 O 0.92116 0.74269 0.62554 0.0
O191 O 0.83142 0.67633 0.59386 0.0
O192 O 0.86626 0.69961 0.65038 0.0
C193 C 0.93033 0.73481 0.56758 0.0
C194 C 0.84119 0.68624 0.65055 0.0
O195 O 0.86429 0.68586 0.43424 0.0
Mg196 Mg 0.29152 0.87494 0.5435 0.0
O197 O 0.24805 0.84968 0.54034 0.0
O198 O 0.22361 0.85881 0.63593 0.0
Mg199 Mg 0.25097 0.89034 0.7 0.0
C200 C 0.22582 0.84603 0.57898 0.0
C201 C 0.30724 0.83943 0.41534 0.0
O202 O 0.30775 0.81902 0.46187 0.0
O203 O 0.26727 0.91743 0.52259 0.0
O204 O 0.24615 0.92718 0.62214 0.0
O205 O 0.31254 0.83759 0.5966 0.0
O206 O 0.29045 0.87468 0.64763 0.0
C207 C 0.25214 0.93404 0.56133 0.0
C208 C 0.30323 0.8496 0.65168 0.0
O209 O 0.29991 0.86538 0.43216 0.0
Mg210 Mg 0.10619 0.28389 0.55179 0.0
O211 O 0.13724 0.24512 0.538 0.0
O212 O 0.13231 0.21541 0.62652 0.0
Mg213 Mg 0.09904 0.23603 0.69918 0.0
C214 C 0.14393 0.22183 0.56989 0.0
C215 C 0.13756 0.30596 0.42175 0.0
O216 O 0.15944 0.30718 0.46484 0.0
O217 O 0.06686 0.25493 0.52893 0.0
O218 O 0.06077 0.22992 0.62487 0.0
O219 O 0.14065 0.30874 0.60698 0.0
O220 O 0.10809 0.27948 0.65538 0.0
C221 C 0.05235 0.23707 0.56585 0.0
C222 C 0.13045 0.29664 0.6612 0.0
O223 O 0.11263 0.29652 0.44179 0.0
C224 C 0.23656 0.49399 0.09659 0.0
C225 C 0.23507 0.51664 0.04869 0.0
C226 C 0.23545 0.46452 0.07704 0.0
C227 C 0.23335 0.45665 0.00887 0.0
H228 H 0.23651 0.49898 0.14987 0.0
H229 H 0.2349 0.44784 0.11582 0.0
S230 S 0.23384 0.50786 0.86347 0.0
N231 N 0.23495 0.52941 0.93017 0.0
N232 N 0.23344 0.47399 0.89287 0.0
C233 C 0.23453 0.4791 0.96019 0.0
C234 C 0.2352 0.50913 0.98026 0.0
C235 C 0.47649 0.24409 0.96709 0.0
C236 C 0.46676 0.24571 0.03421 0.0
C237 C 0.50658 0.24471 0.95127 0.0
C238 C 0.52805 0.24657 0.0021 0.0
H239 H 0.4609 0.2405 0.92672 0.0
H240 H 0.51301 0.24132 0.89933 0.0
S241 S 0.5143 0.25771 0.18401 0.0
N242 N 0.48112 0.2544 0.15082 0.0
N243 N 0.53767 0.25483 0.12058 0.0
C244 C 0.51865 0.25116 0.0685 0.0
C245 C 0.48799 0.25098 0.08468 0.0
C246 C 0.74976 0.48423 0.09319 0.0
C247 C 0.75168 0.46159 0.04517 0.0
C248 C 0.74914 0.51368 0.07361 0.0
C249 C 0.74984 0.52154 0.00533 0.0
H250 H 0.75076 0.47934 0.14644 0.0
H251 H 0.74942 0.53043 0.11233 0.0
S252 S 0.74998 0.4702 0.85996 0.0
N253 N 0.75084 0.4487 0.92667 0.0
N254 N 0.74908 0.50408 0.88939 0.0
C255 C 0.74916 0.49899 0.95674 0.0
C256 C 0.75027 0.469 0.97679 0.0
C257 C 0.49306 0.73854 0.08193 0.0
C258 C 0.51566 0.73963 0.03319 0.0
C259 C 0.46334 0.73968 0.06346 0.0
C260 C 0.45506 0.74141 -0.0044 0.0
H261 H 0.49826 0.73886 0.13503 0.0
H262 H 0.4468 0.74053 0.10289 0.0
S263 S 0.50574 0.73964 0.8483 0.0
N264 N 0.52779 0.73887 0.91418 0.0
N265 N 0.47187 0.74043 0.87899 0.0
C266 C 0.47738 0.7398 0.94612 0.0
C267 C 0.5077 0.73909 0.96508 0.0
C268 C 0.73167 0.01095 0.47162 0.0
C269 C 0.73558 0.01847 0.53964 0.0
C270 C 0.73085 0.98157 0.45119 0.0
C271 C 0.73342 0.95872 0.49825 0.0
H272 H 0.72767 0.0278 0.43437 0.0
H273 H 0.726 0.97681 0.39898 0.0
S274 S 0.74917 0.96641 0.68009 0.0
N275 N 0.74627 0.00044 0.6525 0.0
N276 N 0.74405 0.94527 0.61372 0.0
C277 C 0.73982 0.96584 0.56525 0.0
C278 C 0.74114 -0.00426 0.58603 0.0
C279 C 0.97073 0.73762 0.48219 0.0
C280 C 0.96156 0.74035 0.54949 0.0
C281 C 0.00071 0.73702 0.46525 0.0
C282 C 0.02262 0.7386 0.51513 0.0
H283 H 0.95468 0.73464 0.44251 0.0
H284 H 0.00666 0.73335 0.41312 0.0
S285 S 0.01053 0.75022 0.69755 0.0
N286 N 0.97703 0.7482 0.66556 0.0
N287 N 0.03335 0.74643 0.63332 0.0
C288 C 0.01386 0.74342 0.58194 0.0
C289 C 0.98333 0.74451 0.59921 0.0
C290 C 0.24734 0.01653 0.56441 0.0
C291 C 0.24662 0.02369 0.4957 0.0
C292 C 0.24654 0.98728 0.58561 0.0
C293 C 0.24552 0.96414 0.53877 0.0
H294 H 0.25007 0.03355 0.60197 0.0
H295 H 0.24891 0.98282 0.63882 0.0
S296 S 0.23833 0.97108 0.35396 0.0
N297 N 0.24075 0.00521 0.38133 0.0
N298 N 0.2399 0.95021 0.42164 0.0
C299 C 0.24236 0.97098 0.47043 0.0
C300 C 0.24268 0.00079 0.44877 0.0
C301 C -0.00035 0.2282 0.59394 0.0
C302 C 0.02213 0.22926 0.54506 0.0
C303 C 0.9699 0.22951 0.57553 0.0
C304 C 0.96162 0.23138 0.5076 0.0
H305 H 0.00499 0.2289 0.64698 0.0
H306 H 0.95342 0.23085 0.61496 0.0
S307 S 0.01223 0.22843 0.36026 0.0
N308 N 0.03426 0.2278 0.42616 0.0
N309 N 0.97836 0.22953 0.39094 0.0
C310 C 0.98387 0.22909 0.4581 0.0
C311 C 0.01416 0.22826 0.47702 0.0
C312 C 0.29647 0.30563 0.95725 0.0
C313 C 0.27852 0.31989 0.00494 0.0
C314 C 0.31842 0.28591 0.97717 0.0
C315 C 0.3236 0.28006 0.04555 0.0
H316 H 0.29303 0.30905 0.90396 0.0
H317 H 0.33129 0.275 0.93855 0.0
S318 S 0.28362 0.31281 0.19054 0.0
N319 N 0.26804 0.32759 0.12377 0.0
N320 N 0.30949 0.29073 0.16121 0.0
C321 C 0.30639 0.29483 0.0939 0.0
C322 C 0.28379 0.31464 0.07358 0.0
C323 C 0.69427 0.3084 0.09534 0.0
C324 C 0.71365 0.32263 0.05057 0.0
C325 C 0.67349 0.28804 0.07227 0.0
C326 C 0.67089 0.28153 0.00341 0.0
H327 H 0.69554 0.31252 0.1489 0.0
H328 H 0.65932 0.27733 0.10875 0.0
S329 S 0.71585 0.31326 0.86513 0.0
N330 N 0.72863 0.32906 0.93386 0.0
N331 N 0.68924 0.29107 0.89044 0.0
C332 C 0.68972 0.29597 0.95786 0.0
C333 C 0.71121 0.31641 0.98147 0.0
C334 C 0.6829 0.67366 0.96249 0.0
C335 C 0.70048 0.65804 0.00831 0.0
C336 C 0.66162 0.69369 0.98485 0.0
C337 C 0.65669 0.69841 0.05386 0.0
H338 H 0.68623 0.67114 0.90883 0.0
H339 H 0.64906 0.70571 0.9477 0.0
S340 S 0.69579 0.66189 0.19448 0.0
N341 N 0.71091 0.64791 0.12596 0.0
N342 N 0.67051 0.68521 0.16801 0.0
C343 C 0.67344 0.68225 0.1003 0.0
C344 C 0.69546 0.66219 0.07752 0.0
C345 C 0.29498 0.67078 0.09025 0.0
C346 C 0.27554 0.65576 0.04725 0.0
C347 C 0.31459 0.69187 0.06529 0.0
C348 C 0.31595 0.69831 -0.00378 0.0
H349 H 0.29449 0.66688 0.14397 0.0
H350 H 0.32871 0.70334 0.1005 0.0
S351 S 0.27067 0.66428 0.86195 0.0
N352 N 0.2594 0.64823 0.93185 0.0
N353 N 0.2967 0.68759 0.88484 0.0
C354 C 0.29727 0.68288 0.95231 0.0
C355 C 0.27693 0.66171 0.97786 0.0
C356 C 0.80365 0.80162 0.58457 0.0
C357 C 0.82021 0.78428 0.53975 0.0
C358 C 0.78129 0.82015 0.56136 0.0
C359 C 0.77501 0.82246 0.49235 0.0
H360 H 0.80723 0.80014 0.6383 0.0
H361 H 0.76872 0.83265 0.59789 0.0
S362 S 0.8131 0.78294 0.35388 0.0
N363 N 0.82955 0.77136 0.42287 0.0
N364 N 0.78779 0.80657 0.37912 0.0
C365 C 0.79206 0.806 0.44673 0.0
C366 C 0.81456 0.78679 0.47047 0.0
C367 C 0.19786 0.81951 0.48952 0.0
C368 C 0.20265 0.82505 0.55823 0.0
C369 C 0.17743 0.79836 0.46849 0.0
C370 C 0.16144 0.78155 0.5154 0.0
H371 H 0.21016 0.83146 0.45159 0.0
H372 H 0.17484 0.79456 0.41505 0.0
S373 S 0.16528 0.78802 0.70127 0.0
N374 N 0.18913 0.81255 0.67322 0.0
N375 N 0.15102 0.77254 0.6337 0.0
C376 C 0.16564 0.7872 0.58428 0.0
C377 C 0.18614 0.80904 0.60569 0.0
C378 C 0.20516 0.16537 0.55823 0.0
C379 C 0.21067 0.16363 0.48874 0.0
C380 C 0.18324 0.18394 0.58388 0.0
C381 C 0.16645 0.20193 0.54111 0.0
H382 H 0.21758 0.15195 0.59304 0.0
H383 H 0.17973 0.18448 0.63777 0.0
S384 S 0.17305 0.20624 0.35524 0.0
N385 N 0.19795 0.1817 0.37754 0.0
N386 N 0.15713 0.21707 0.42576 0.0
C387 C 0.17203 0.20067 0.47151 0.0
C388 C 0.19401 0.18138 0.44533 0.0
C389 C 0.81644 0.19267 0.57046 0.0
C390 C 0.81916 0.19937 0.50173 0.0
C391 C 0.79582 0.17205 0.59312 0.0
C392 C 0.77673 0.15774 0.54805 0.0
H393 H 0.83042 0.20339 0.60715 0.0
H394 H 0.79443 0.16778 0.64662 0.0
S395 S 0.77494 0.16754 0.36281 0.0
N396 N 0.80125 0.18994 0.38855 0.0
N397 N 0.76211 0.15145 0.43125 0.0
C398 C 0.77927 0.16417 0.47908 0.0
C399 C 0.80061 0.18487 0.45588 0.0
C400 C 0.16934 0.32803 0.3317 0.0
C401 C 0.14182 0.31653 0.35168 0.0
C402 C 0.17404 0.3386 0.26634 0.0
C403 C 0.15143 0.33811 0.21803 0.0
H404 H 0.18756 0.32892 0.36677 0.0
H405 H 0.1957 0.34701 0.25359 0.0
S406 S 0.07507 0.31045 0.24461 0.0
N407 N 0.09151 0.30543 0.31759 0.0
N408 N 0.10023 0.3253 0.19509 0.0
C409 C 0.12371 0.32677 0.23735 0.0
C410 C 0.11894 0.31598 0.30397 0.0
C411 C 0.66185 0.12838 0.30509 0.0
C412 C 0.65472 0.1477 0.35789 0.0
C413 C 0.65377 0.13451 0.23865 0.0
C414 C 0.63828 0.16027 0.22197 0.0
H415 H 0.67387 0.10832 0.31493 0.0
H416 H 0.66002 0.11893 0.2 0.0
S417 S 0.61345 0.21782 0.34157 0.0
N418 N 0.6306 0.19356 0.38895 0.0
N419 N 0.61556 0.20501 0.26407 0.0
C420 C 0.63079 0.17973 0.27423 0.0
C421 C 0.63897 0.17346 0.34208 0.0
C422 C 0.85563 0.6705 0.29638 0.0
C423 C 0.84149 0.6558 0.34964 0.0
C424 C 0.84899 0.66397 0.22922 0.0
C425 C 0.82774 0.64262 0.21234 0.0
H426 H 0.8721 0.68715 0.30648 0.0
H427 H 0.86058 0.67595 0.19025 0.0
S428 S 0.78398 0.59803 0.33291 0.0
N429 N 0.80498 0.61894 0.38082 0.0
N430 N 0.79245 0.60685 0.25475 0.0
C431 C 0.81331 0.62782 0.26507 0.0
C432 C 0.8202 0.63434 0.33358 0.0
C433 C 0.31766 0.85519 0.29693 0.0
C434 C 0.31694 0.83275 0.34545 0.0
C435 C 0.32757 0.84983 0.23126 0.0
C436 C 0.33729 0.82181 0.21114 0.0
H437 H 0.3106 0.87722 0.30966 0.0
H438 H 0.3276 0.86794 0.19603 0.0
S439 S 0.33945 0.75518 0.31833 0.0
N440 N 0.32658 0.78113 0.36833 0.0
N441 N 0.34523 0.77116 0.24505 0.0
C442 C 0.33667 0.79909 0.25901 0.0
C443 C 0.32647 0.80452 0.32599 0.0
C444 C 0.13627 0.67575 0.77541 0.0
C445 C 0.13819 0.65413 0.72503 0.0
C446 C 0.14577 0.67019 0.84121 0.0
C447 C 0.15756 0.64276 0.85956 0.0
H448 H 0.1275 0.69728 0.76403 0.0
H449 H 0.14376 0.68764 0.87796 0.0
S450 S 0.16763 0.57858 0.74655 0.0
N451 N 0.15294 0.60405 0.69821 0.0
N452 N 0.17076 0.59371 0.82158 0.0
C453 C 0.1596 0.62089 0.80973 0.0
C454 C 0.14992 0.62654 0.74265 0.0
C455 C 0.34008 0.17555 0.70921 0.0
C456 C 0.32945 0.14775 0.68977 0.0
C457 C 0.35076 0.18072 0.77431 0.0
C458 C 0.3513 0.1583 0.82288 0.0
H459 H 0.3402 0.19363 0.67391 0.0
H460 H 0.35848 0.20257 0.78662 0.0
S461 S 0.32641 0.08128 0.79755 0.0
N462 N 0.32042 0.09736 0.72457 0.0
N463 N 0.34048 0.10694 0.84652 0.0
C464 C 0.34085 0.1303 0.80407 0.0
C465 C 0.32992 0.12507 0.73776 0.0
C466 C 0.83933 0.30686 0.83323 0.0
C467 C 0.82971 0.3351 0.8521 0.0
C468 C 0.8493 0.30091 0.7678 0.0
C469 C 0.85007 0.32293 0.71828 0.0
H470 H 0.83926 0.28907 0.86929 0.0
H471 H 0.85632 0.27878 0.756 0.0
S472 S 0.82724 0.40068 0.7415 0.0
N473 N 0.82156 0.38538 0.81556 0.0
N474 N 0.84029 0.37432 0.69292 0.0
C475 C 0.84053 0.35133 0.73644 0.0
C476 C 0.83035 0.35737 0.80313 0.0
C477 C 0.63979 0.80213 0.79788 0.0
C478 C 0.64075 0.82421 0.8473 0.0
C479 C 0.65044 0.8071 0.73268 0.0
C480 C 0.66241 0.83443 0.71378 0.0
H481 H 0.63077 0.7807 0.80951 0.0
H482 H 0.64892 0.78934 0.69664 0.0
S483 S 0.67044 0.89965 0.82436 0.0
N484 N 0.65502 0.87455 0.87288 0.0
N485 N 0.67493 0.88385 0.75034 0.0
C486 C 0.66371 0.85671 0.76275 0.0
C487 C 0.65292 0.85162 0.82938 0.0
C488 C 0.81322 0.65041 0.71871 0.0
C489 C 0.82646 0.67818 0.71399 0.0
C490 C 0.80423 0.63918 0.78074 0.0
C491 C 0.80798 0.6554 0.84036 0.0
H492 H 0.81142 0.63641 0.67482 0.0
H493 H 0.7957 0.61699 0.78204 0.0
S494 S 0.83524 0.73196 0.85259 0.0
N495 N 0.83823 0.72362 0.77206 0.0
N496 N 0.82168 0.7024 0.88937 0.0
C497 C 0.81891 0.68418 0.83559 0.0
C498 C 0.82808 0.69562 0.77215 0.0
C499 C 0.30609 0.8526 0.77622 0.0
C500 C 0.30719 0.8354 0.71746 0.0
C501 C 0.31351 0.84072 0.83866 0.0
C502 C 0.32226 0.81132 0.84425 0.0
H503 H 0.30094 0.87578 0.77366 0.0
H504 H 0.31418 0.85514 0.882 0.0
S505 S 0.32188 0.75546 0.70876 0.0
N506 N 0.31312 0.78641 0.67061 0.0
N507 N 0.32647 0.76402 0.78875 0.0
C508 C 0.32095 0.79327 0.78715 0.0
C509 C 0.31355 0.80536 0.72341 0.0
C510 C 0.16933 0.31992 0.73166 0.0
C511 C 0.14321 0.30339 0.72771 0.0
C512 C 0.17983 0.33009 0.79346 0.0
C513 C 0.16474 0.32396 0.85365 0.0
H514 H 0.18132 0.3259 0.6865 0.0
H515 H 0.19954 0.34341 0.79357 0.0
S516 S 0.09611 0.28025 0.87155 0.0
N517 N 0.10298 0.28046 0.79006 0.0
N518 N 0.12323 0.29904 0.9062 0.0
C519 C 0.13946 0.30616 0.85096 0.0
C520 C 0.12854 0.29604 0.78795 0.0
C521 C 0.65365 0.18488 0.79591 0.0
C522 C 0.65662 0.16862 0.85544 0.0
C523 C 0.66198 0.17309 0.73384 0.0
C524 C 0.67347 0.14454 0.7291 0.0
H525 H 0.64413 0.2066 0.79678 0.0
H526 H 0.65846 0.18614 0.68907 0.0
S527 S 0.68737 0.0936 0.87131 0.0
N528 N 0.67355 0.12332 0.90682 0.0
N529 N 0.68874 0.10077 0.79006 0.0
C530 C 0.67798 0.12858 0.78881 0.0
C531 C 0.66972 0.14076 0.8521 0.0
C532 C 0.8404 0.29681 0.29386 0.0
C533 C 0.83644 0.31255 0.35401 0.0
C534 C 0.8318 0.3086 0.23207 0.0
C535 C 0.81909 0.33666 0.22815 0.0
H536 H 0.85071 0.27546 0.29408 0.0
H537 H 0.83589 0.2959 0.18692 0.0
S538 S 0.80333 0.38654 0.37183 0.0
N539 N 0.81797 0.3571 0.4065 0.0
N540 N 0.80243 0.37969 0.29039 0.0
C541 C 0.81408 0.35224 0.28834 0.0
C542 C 0.82256 0.34004 0.35131 0.0
C543 C 0.66751 0.82037 0.22379 0.0
C544 C 0.63958 0.80717 0.21805 0.0
C545 C 0.67766 0.83082 0.28573 0.0
C546 C 0.66036 0.82821 0.34412 0.0
H547 H 0.68136 0.82342 0.17985 0.0
H548 H 0.699 0.84139 0.28749 0.0
S549 S 0.58602 0.79473 0.35712 0.0
N550 N 0.59496 0.79172 0.27695 0.0
N551 N 0.61455 0.81063 0.39336 0.0
C552 C 0.63301 0.81392 0.33985 0.0
C553 C 0.62246 0.80362 0.27674 0.0
C554 C 0.14951 0.68287 0.30138 0.0
C555 C 0.15458 0.6676 0.36157 0.0
C556 C 0.15847 0.67131 0.23944 0.0
C557 C 0.1726 0.64391 0.23539 0.0
H558 H 0.13783 0.70353 0.30169 0.0
H559 H 0.15329 0.68351 0.19428 0.0
S560 S 0.19236 0.59589 0.37938 0.0
N561 N 0.17617 0.62457 0.4141 0.0
N562 N 0.19232 0.60235 0.29778 0.0
C563 C 0.17902 0.62904 0.29567 0.0
C564 C 0.17021 0.64104 0.35879 0.0
C565 C 0.33203 0.17388 0.30888 0.0
C566 C 0.31824 0.14634 0.31374 0.0
C567 C 0.34202 0.18456 0.24696 0.0
C568 C 0.33848 0.16816 0.18764 0.0
H569 H 0.33584 0.18703 0.35344 0.0
H570 H 0.35296 0.2056 0.24603 0.0
S571 S 0.30299 0.09514 0.17233 0.0
N572 N 0.30103 0.10308 0.25317 0.0
N573 N 0.31926 0.12359 0.13682 0.0
C574 C 0.32359 0.14119 0.19117 0.0
C575 C 0.31365 0.13014 0.25427 0.0
loop_
_geom_bond_atom_site_label_1
_geom_bond_atom_site_label_2
_geom_bond_distance
_geom_bond_site_symmetry_2
_ccdc_geom_bond_type
Mg0 O1 2.028 . S
Mg0 O7 1.986 . S
Mg0 O9 2.114 1_554 S
Mg0 O10 2.251 1_554 S
Mg0 O13 2.010 . S
O1 Mg0 2.028 . S
O1 C4 1.250 . S
O2 Mg3 2.028 . S
O2 C4 1.248 1_556 S
Mg3 O2 2.028 . S
Mg3 O8 2.032 . S
Mg3 O10 2.079 . S
C4 O1 1.250 . S
C4 O2 1.248 1_554 S
C5 O6 1.264 . S
C5 O13 1.249 . S
O6 C5 1.264 . S
O7 Mg0 1.986 . S
O7 C11 1.246 . S
O8 Mg3 2.032 . S
O8 C11 1.259 1_556 S
O9 Mg0 2.114 1_556 S
O9 C12 1.252 . S
O10 Mg0 2.251 1_556 S
O10 Mg3 2.079 . S
O10 C12 1.273 . S
C11 O7 1.246 . S
C11 O8 1.259 1_554 S
C12 O9 1.252 . S
C12 O10 1.273 . S
O13 Mg0 2.010 . S
O13 C5 1.249 . S
Mg14 O15 2.028 . S
Mg14 O21 1.986 . S
Mg14 O23 2.114 1_554 S
Mg14 O24 2.251 1_554 S
Mg14 O27 2.010 . S
O15 Mg14 2.028 . S
O15 C18 1.250 . S
O16 Mg17 2.028 . S
O16 C18 1.248 1_556 S
Mg17 O16 2.028 . S
Mg17 O22 2.032 . S
Mg17 O24 2.079 . S
C18 O15 1.250 . S
C18 O16 1.248 1_554 S
C19 O20 1.264 . S
C19 O27 1.249 . S
O20 C19 1.264 . S
O21 Mg14 1.986 . S
O21 C25 1.246 . S
O22 Mg17 2.032 . S
O22 C25 1.259 1_556 S
O23 Mg14 2.114 1_556 S
O23 C26 1.252 . S
O24 Mg14 2.251 1_556 S
O24 Mg17 2.079 . S
O24 C26 1.273 . S
C25 O21 1.246 . S
C25 O22 1.259 1_554 S
C26 O23 1.252 . S
C26 O24 1.273 . S
O27 Mg14 2.010 . S
O27 C19 1.249 . S
Mg28 O29 2.028 . S
Mg28 O35 1.986 . S
Mg28 O37 2.114 1_554 S
Mg28 O38 2.251 1_554 S
Mg28 O41 2.010 . S
O29 Mg28 2.028 . S
O29 C32 1.250 . S
O30 Mg31 2.028 . S
O30 C32 1.248 1_556 S
Mg31 O30 2.028 . S
Mg31 O36 2.032 . S
Mg31 O38 2.079 . S
C32 O29 1.250 . S
C32 O30 1.248 1_554 S
C33 O34 1.264 . S
C33 O41 1.249 . S
O34 C33 1.264 . S
O35 Mg28 1.986 . S
O35 C39 1.246 . S
O36 Mg31 2.032 . S
O36 C39 1.259 1_556 S
O37 Mg28 2.114 1_556 S
O37 C40 1.252 . S
O38 Mg28 2.251 1_556 S
O38 Mg31 2.079 . S
O38 C40 1.273 . S
C39 O35 1.246 . S
C39 O36 1.259 1_554 S
C40 O37 1.252 . S
C40 O38 1.273 . S
O41 Mg28 2.010 . S
O41 C33 1.249 . S
Mg42 O43 2.028 . S
Mg42 O49 1.986 . S
Mg42 O51 2.114 1_554 S
Mg42 O52 2.251 1_554 S
Mg42 O55 2.010 . S
O43 Mg42 2.028 . S
O43 C46 1.250 . S
O44 Mg45 2.028 . S
O44 C46 1.248 1_556 S
Mg45 O44 2.028 . S
Mg45 O50 2.032 . S
Mg45 O52 2.079 . S
C46 O43 1.250 . S
C46 O44 1.248 1_554 S
C47 O48 1.264 . S
C47 O55 1.249 . S
O48 C47 1.264 . S
O49 Mg42 1.986 . S
O49 C53 1.246 . S
O50 Mg45 2.032 . S
O50 C53 1.259 1_556 S
O51 Mg42 2.114 1_556 S
O51 C54 1.252 . S
O52 Mg42 2.251 1_556 S
O52 Mg45 2.079 . S
O52 C54 1.273 . S
C53 O49 1.246 . S
C53 O50 1.259 1_554 S
C54 O51 1.252 . S
C54 O52 1.273 . S
O55 Mg42 2.010 . S
O55 C47 1.249 . S
Mg56 O57 2.028 . S
Mg56 O63 1.986 . S
Mg56 O65 2.114 . S
Mg56 O66 2.251 . S
Mg56 O69 2.010 1_554 S
O57 Mg56 2.028 . S
O57 C60 1.250 . S
O58 Mg59 2.028 . S
O58 C60 1.248 . S
Mg59 O58 2.028 . S
Mg59 O64 2.032 . S
Mg59 O66 2.079 . S
C60 O57 1.250 . S
C60 O58 1.248 . S
C61 O62 1.264 . S
C61 O69 1.249 . S
O62 C61 1.264 . S
O63 Mg56 1.986 . S
O63 C67 1.246 . S
O64 Mg59 2.032 . S
O64 C67 1.259 . S
O65 Mg56 2.114 . S
O65 C68 1.252 . S
O66 Mg56 2.251 . S
O66 Mg59 2.079 . S
O66 C68 1.273 . S
C67 O63 1.246 . S
C67 O64 1.259 . S
C68 O65 1.252 . S
C68 O66 1.273 . S
O69 Mg56 2.010 1_556 S
O69 C61 1.249 . S
Mg70 O71 2.028 . S
Mg70 O77 1.986 . S
Mg70 O79 2.114 . S
Mg70 O80 2.251 . S
Mg70 O83 2.010 1_554 S
O71 Mg70 2.028 . S
O71 C74 1.250 . S
O72 Mg73 2.028 . S
O72 C74 1.248 . S
Mg73 O72 2.028 . S
Mg73 O78 2.032 . S
Mg73 O80 2.079 . S
C74 O71 1.250 . S
C74 O72 1.248 . S
C75 O76 1.264 . S
C75 O83 1.249 . S
O76 C75 1.264 . S
O77 Mg70 1.986 . S
O77 C81 1.246 . S
O78 Mg73 2.032 . S
O78 C81 1.259 . S
O79 Mg70 2.114 . S
O79 C82 1.252 . S
O80 Mg70 2.251 . S
O80 Mg73 2.079 . S
O80 C82 1.273 . S
C81 O77 1.246 . S
C81 O78 1.259 . S
C82 O79 1.252 . S
C82 O80 1.273 . S
O83 Mg70 2.010 1_556 S
O83 C75 1.249 . S
Mg84 O85 2.028 . S
Mg84 O91 1.986 . S
Mg84 O93 2.114 . S
Mg84 O94 2.251 . S
Mg84 O97 2.010 1_554 S
O85 Mg84 2.028 . S
O85 C88 1.250 . S
O86 Mg87 2.028 . S
O86 C88 1.248 . S
Mg87 O86 2.028 . S
Mg87 O92 2.032 . S
Mg87 O94 2.079 . S
C88 O85 1.250 . S
C88 O86 1.248 . S
C89 O90 1.264 . S
C89 O97 1.249 . S
O90 C89 1.264 . S
O91 Mg84 1.986 . S
O91 C95 1.246 . S
O92 Mg87 2.032 . S
O92 C95 1.259 . S
O93 Mg84 2.114 . S
O93 C96 1.252 . S
O94 Mg84 2.251 . S
O94 Mg87 2.079 . S
O94 C96 1.273 . S
C95 O91 1.246 . S
C95 O92 1.259 . S
C96 O93 1.252 . S
C96 O94 1.273 . S
O97 Mg84 2.010 1_556 S
O97 C89 1.249 . S
Mg98 O99 2.028 . S
Mg98 O105 1.986 . S
Mg98 O107 2.114 . S
Mg98 O108 2.251 . S
Mg98 O111 2.010 1_554 S
O99 Mg98 2.028 . S
O99 C102 1.250 . S
O100 Mg101 2.028 . S
O100 C102 1.248 . S
Mg101 O100 2.028 . S
Mg101 O106 2.032 . S
Mg101 O108 2.079 . S
C102 O99 1.250 . S
C102 O100 1.248 . S
C103 O104 1.264 . S
C103 O111 1.249 . S
O104 C103 1.264 . S
O105 Mg98 1.986 . S
O105 C109 1.246 . S
O106 Mg101 2.032 . S
O106 C109 1.259 . S
O107 Mg98 2.114 . S
O107 C110 1.252 . S
O108 Mg98 2.251 . S
O108 Mg101 2.079 . S
O108 C110 1.273 . S
C109 O105 1.246 . S
C109 O106 1.259 . S
C110 O107 1.252 . S
C110 O108 1.273 . S
O111 Mg98 2.010 1_556 S
O111 C103 1.249 . S
Mg112 O113 2.028 . S
Mg112 O119 1.986 . S
Mg112 O121 2.114 . S
Mg112 O122 2.251 . S
Mg112 O125 2.010 . S
O113 Mg112 2.028 . S
O113 C116 1.250 . S
O114 Mg115 2.028 . S
O114 C116 1.248 . S
Mg115 O114 2.028 . S
Mg115 O120 2.032 . S
Mg115 O122 2.079 . S
C116 O113 1.250 . S
C116 O114 1.248 . S
C117 O118 1.264 . S
C117 O125 1.249 . S
O118 C117 1.264 . S
O119 Mg112 1.986 . S
O119 C123 1.246 . S
O120 Mg115 2.032 . S
O120 C123 1.259 . S
O121 Mg112 2.114 . S
O121 C124 1.252 . S
O122 Mg112 2.251 . S
O122 Mg115 2.079 . S
O122 C124 1.273 . S
C123 O119 1.246 . S
C123 O120 1.259 . S
C124 O121 1.252 . S
C124 O122 1.273 . S
O125 Mg112 2.010 . S
O125 C117 1.249 . S
Mg126 O127 2.028 . S
Mg126 O133 1.986 . S
Mg126 O135 2.114 . S
Mg126 O136 2.251 . S
Mg126 O139 2.010 . S
O127 Mg126 2.028 . S
O127 C130 1.250 . S
O128 Mg129 2.028 . S
O128 C130 1.248 . S
Mg129 O128 2.028 . S
Mg129 O134 2.032 . S
Mg129 O136 2.079 . S
C130 O127 1.250 . S
C130 O128 1.248 . S
C131 O132 1.264 . S
C131 O139 1.249 . S
O132 C131 1.264 . S
O133 Mg126 1.986 . S
O133 C137 1.246 . S
O134 Mg129 2.032 . S
O134 C137 1.259 . S
O135 Mg126 2.114 . S
O135 C138 1.252 . S
O136 Mg126 2.251 . S
O136 Mg129 2.079 . S
O136 C138 1.273 . S
C137 O133 1.246 . S
C137 O134 1.259 . S
C138 O135 1.252 . S
C138 O136 1.273 . S
O139 Mg126 2.010 . S
O139 C131 1.249 . S
Mg140 O141 2.028 . S
Mg140 O147 1.986 . S
Mg140 O149 2.114 . S
Mg140 O150 2.251 . S
Mg140 O153 2.010 . S
O141 Mg140 2.028 . S
O141 C144 1.250 . S
O142 Mg143 2.028 . S
O142 C144 1.248 . S
Mg143 O142 2.028 . S
Mg143 O148 2.032 . S
Mg143 O150 2.079 . S
C144 O141 1.250 . S
C144 O142 1.248 . S
C145 O146 1.264 . S
C145 O153 1.249 . S
O146 C145 1.264 . S
O147 Mg140 1.986 . S
O147 C151 1.246 . S
O148 Mg143 2.032 . S
O148 C151 1.259 . S
O149 Mg140 2.114 . S
O149 C152 1.252 . S
O150 Mg140 2.251 . S
O150 Mg143 2.079 . S
O150 C152 1.273 . S
C151 O147 1.246 . S
C151 O148 1.259 . S
C152 O149 1.252 . S
C152 O150 1.273 . S
O153 Mg140 2.010 . S
O153 C145 1.249 . S
Mg154 O155 2.028 . S
Mg154 O161 1.986 . S
Mg154 O163 2.114 . S
Mg154 O164 2.251 . S
Mg154 O167 2.010 . S
O155 Mg154 2.028 . S
O155 C158 1.250 . S
O156 Mg157 2.028 . S
O156 C158 1.248 . S
Mg157 O156 2.028 . S
Mg157 O162 2.032 . S
Mg157 O164 2.079 . S
C158 O155 1.250 . S
C158 O156 1.248 . S
C159 O160 1.264 . S
C159 O167 1.249 . S
O160 C159 1.264 . S
O161 Mg154 1.986 . S
O161 C165 1.246 . S
O162 Mg157 2.032 . S
O162 C165 1.259 . S
O163 Mg154 2.114 . S
O163 C166 1.252 . S
O164 Mg154 2.251 . S
O164 Mg157 2.079 . S
O164 C166 1.273 . S
C165 O161 1.246 . S
C165 O162 1.259 . S
C166 O163 1.252 . S
C166 O164 1.273 . S
O167 Mg154 2.010 . S
O167 C159 1.249 . S
Mg168 O169 2.028 . S
Mg168 O175 1.986 . S
Mg168 O177 2.114 . S
Mg168 O178 2.251 . S
Mg168 O181 2.010 . S
O169 Mg168 2.028 . S
O169 C172 1.250 . S
O170 Mg171 2.028 . S
O170 C172 1.248 . S
Mg171 O170 2.028 . S
Mg171 O176 2.032 . S
Mg171 O178 2.079 . S
C172 O169 1.250 . S
C172 O170 1.248 . S
C173 O174 1.264 . S
C173 O181 1.249 . S
O174 C173 1.264 . S
O175 Mg168 1.986 . S
O175 C179 1.246 . S
O176 Mg171 2.032 . S
O176 C179 1.259 . S
O177 Mg168 2.114 . S
O177 C180 1.252 . S
O178 Mg168 2.251 . S
O178 Mg171 2.079 . S
O178 C180 1.273 . S
C179 O175 1.246 . S
C179 O176 1.259 . S
C180 O177 1.252 . S
C180 O178 1.273 . S
O181 Mg168 2.010 . S
O181 C173 1.249 . S
Mg182 O183 2.028 . S
Mg182 O189 1.986 . S
Mg182 O191 2.114 . S
Mg182 O192 2.251 . S
Mg182 O195 2.010 . S
O183 Mg182 2.028 . S
O183 C186 1.250 . S
O184 Mg185 2.028 . S
O184 C186 1.248 . S
Mg185 O184 2.028 . S
Mg185 O190 2.032 . S
Mg185 O192 2.079 . S
C186 O183 1.250 . S
C186 O184 1.248 . S
C187 O188 1.264 . S
C187 O195 1.249 . S
O188 C187 1.264 . S
O189 Mg182 1.986 . S
O189 C193 1.246 . S
O190 Mg185 2.032 . S
O190 C193 1.259 . S
O191 Mg182 2.114 . S
O191 C194 1.252 . S
O192 Mg182 2.251 . S
O192 Mg185 2.079 . S
O192 C194 1.273 . S
C193 O189 1.246 . S
C193 O190 1.259 . S
C194 O191 1.252 . S
C194 O192 1.273 . S
O195 Mg182 2.010 . S
O195 C187 1.249 . S
Mg196 O197 2.028 . S
Mg196 O203 1.986 . S
Mg196 O205 2.114 . S
Mg196 O206 2.251 . S
Mg196 O209 2.010 . S
O197 Mg196 2.028 . S
O197 C200 1.250 . S
O198 Mg199 2.028 . S
O198 C200 1.248 . S
Mg199 O198 2.028 . S
Mg199 O204 2.032 . S
Mg199 O206 2.079 . S
C200 O197 1.250 . S
C200 O198 1.248 . S
C201 O202 1.264 . S
C201 O209 1.249 . S
O202 C201 1.264 . S
O203 Mg196 1.986 . S
O203 C207 1.246 . S
O204 Mg199 2.032 . S
O204 C207 1.259 . S
O205 Mg196 2.114 . S
O205 C208 1.252 . S
O206 Mg196 2.251 . S
O206 Mg199 2.079 . S
O206 C208 1.273 . S
C207 O203 1.246 . S
C207 O204 1.259 . S
C208 O205 1.252 . S
C208 O206 1.273 . S
O209 Mg196 2.010 . S
O209 C201 1.249 . S
Mg210 O211 2.028 . S
Mg210 O217 1.986 . S
Mg210 O219 2.114 . S
Mg210 O220 2.251 . S
Mg210 O223 2.010 . S
O211 Mg210 2.028 . S
O211 C214 1.250 . S
O212 Mg213 2.028 . S
O212 C214 1.248 . S
Mg213 O212 2.028 . S
Mg213 O218 2.032 . S
Mg213 O220 2.079 . S
C214 O211 1.250 . S
C214 O212 1.248 . S
C215 O216 1.264 . S
C215 O223 1.249 . S
O216 C215 1.264 . S
O217 Mg210 1.986 . S
O217 C221 1.246 . S
O218 Mg213 2.032 . S
O218 C221 1.259 . S
O219 Mg210 2.114 . S
O219 C222 1.252 . S
O220 Mg210 2.251 . S
O220 Mg213 2.079 . S
O220 C222 1.273 . S
C221 O217 1.246 . S
C221 O218 1.259 . S
C222 O219 1.252 . S
C222 O220 1.273 . S
O223 Mg210 2.010 . S
O223 C215 1.249 . S
C224 C225 1.369 . S
C224 C226 1.419 . S
C224 H228 0.930 . S
C225 C224 1.369 . S
C225 C234 1.429 1_554 S
C226 C224 1.419 . S
C226 C227 1.363 . S
C226 H229 0.929 . S
C227 C226 1.363 . S
C227 C233 1.428 1_554 S
H228 C224 0.930 . S
H229 C226 0.929 . S
S230 N231 1.613 . S
S230 N232 1.610 . S
N231 S230 1.613 . S
N231 C234 1.350 . S
N232 S230 1.610 . S
N232 C233 1.351 . S
C233 C227 1.428 1_556 S
C233 N232 1.351 . S
C233 C234 1.434 . S
C234 C225 1.429 1_556 S
C234 N231 1.350 . S
C234 C233 1.434 . S
C235 C236 1.369 . S
C235 C237 1.419 . S
C235 H239 0.930 . S
C236 C235 1.369 . S
C236 C245 1.429 . S
C237 C235 1.419 . S
C237 C238 1.363 . S
C237 H240 0.929 . S
C238 C237 1.363 . S
C238 C244 1.428 . S
H239 C235 0.930 . S
H240 C237 0.929 . S
S241 N242 1.613 . S
S241 N243 1.610 . S
N242 S241 1.613 . S
N242 C245 1.350 . S
N243 S241 1.610 . S
N243 C244 1.351 . S
C244 C238 1.428 . S
C244 N243 1.351 . S
C244 C245 1.434 . S
C245 C236 1.429 . S
C245 N242 1.350 . S
C245 C244 1.434 . S
C246 C247 1.369 . S
C246 C248 1.419 . S
C246 H250 0.930 . S
C247 C246 1.369 . S
C247 C256 1.429 1_554 S
C248 C246 1.419 . S
C248 C249 1.363 . S
C248 H251 0.929 . S
C249 C248 1.363 . S
C249 C255 1.428 1_554 S
H250 C246 0.930 . S
H251 C248 0.929 . S
S252 N253 1.613 . S
S252 N254 1.610 . S
N253 S252 1.613 . S
N253 C256 1.350 . S
N254 S252 1.610 . S
N254 C255 1.351 . S
C255 C249 1.428 1_556 S
C255 N254 1.351 . S
C255 C256 1.434 . S
C256 C247 1.429 1_556 S
C256 N253 1.350 . S
C256 C255 1.434 . S
C257 C258 1.369 . S
C257 C259 1.419 . S
C257 H261 0.930 . S
C258 C257 1.369 . S
C258 C267 1.429 1_554 S
C259 C257 1.419 . S
C259 C260 1.363 . S
C259 H262 0.929 . S
C260 C259 1.363 . S
C260 C266 1.428 1_554 S
H261 C257 0.930 . S
H262 C259 0.929 . S
S263 N264 1.613 . S
S263 N265 1.610 . S
N264 S263 1.613 . S
N264 C267 1.350 . S
N265 S263 1.610 . S
N265 C266 1.351 . S
C266 C260 1.428 1_556 S
C266 N265 1.351 . S
C266 C267 1.434 . S
C267 C258 1.429 1_556 S
C267 N264 1.350 . S
C267 C266 1.434 . S
C268 C269 1.369 . S
C268 C270 1.419 1_545 S
C268 H272 0.930 . S
C269 C268 1.369 . S
C269 C278 1.429 . S
C270 C268 1.419 1_565 S
C270 C271 1.363 . S
C270 H273 0.929 . S
C271 C270 1.363 . S
C271 C277 1.428 . S
H272 C268 0.930 . S
H273 C270 0.929 . S
S274 N275 1.613 1_565 S
S274 N276 1.610 . S
N275 S274 1.613 1_545 S
N275 C278 1.350 . S
N276 S274 1.610 . S
N276 C277 1.351 . S
C277 C271 1.428 . S
C277 N276 1.351 . S
C277 C278 1.434 1_565 S
C278 C269 1.429 . S
C278 N275 1.350 . S
C278 C277 1.434 1_545 S
C279 C280 1.369 . S
C279 C281 1.419 1_655 S
C279 H283 0.930 . S
C280 C279 1.369 . S
C280 C289 1.429 . S
C281 C279 1.419 1_455 S
C281 C282 1.363 . S
C281 H284 0.929 . S
C282 C281 1.363 . S
C282 C288 1.428 . S
H283 C279 0.930 . S
H284 C281 0.929 . S
S285 N286 1.613 1_455 S
S285 N287 1.610 . S
N286 S285 1.613 1_655 S
N286 C289 1.350 . S
N287 S285 1.610 . S
N287 C288 1.351 . S
C288 C282 1.428 . S
C288 N287 1.351 . S
C288 C289 1.434 1_455 S
C289 C280 1.429 . S
C289 N286 1.350 . S
C289 C288 1.434 1_655 S
C290 C291 1.369 . S
C290 C292 1.419 1_545 S
C290 H294 0.930 . S
C291 C290 1.369 . S
C291 C300 1.429 . S
C292 C290 1.419 1_565 S
C292 C293 1.363 . S
C292 H295 0.929 . S
C293 C292 1.363 . S
C293 C299 1.428 . S
H294 C290 0.930 . S
H295 C292 0.929 . S
S296 N297 1.613 1_565 S
S296 N298 1.610 . S
N297 S296 1.613 1_545 S
N297 C300 1.350 . S
N298 S296 1.610 . S
N298 C299 1.351 . S
C299 C293 1.428 . S
C299 N298 1.351 . S
C299 C300 1.434 1_565 S
C300 C291 1.429 . S
C300 N297 1.350 . S
C300 C299 1.434 1_545 S
C301 C302 1.369 . S
C301 C303 1.419 1_455 S
C301 H305 0.930 . S
C302 C301 1.369 . S
C302 C311 1.429 . S
C303 C301 1.419 1_655 S
C303 C304 1.363 . S
C303 H306 0.929 . S
C304 C303 1.363 . S
C304 C310 1.428 . S
H305 C301 0.930 . S
H306 C303 0.929 . S
S307 N308 1.613 . S
S307 N309 1.610 1_455 S
N308 S307 1.613 . S
N308 C311 1.350 . S
N309 S307 1.610 1_655 S
N309 C310 1.351 . S
C310 C304 1.428 . S
C310 N309 1.351 . S
C310 C311 1.434 1_655 S
C311 C302 1.429 . S
C311 N308 1.350 . S
C311 C310 1.434 1_455 S
C312 C313 1.369 1_556 S
C312 C314 1.419 . S
C312 H316 0.930 . S
C313 C312 1.369 1_554 S
C313 C322 1.429 . S
C314 C312 1.419 . S
C314 C315 1.363 1_556 S
C314 H317 0.929 . S
C315 C314 1.363 1_554 S
C315 C321 1.428 . S
H316 C312 0.930 . S
H317 C314 0.929 . S
S318 N319 1.613 . S
S318 N320 1.610 . S
N319 S318 1.613 . S
N319 C322 1.350 . S
N320 S318 1.610 . S
N320 C321 1.351 . S
C321 C315 1.428 . S
C321 N320 1.351 . S
C321 C322 1.434 . S
C322 C313 1.429 . S
C322 N319 1.350 . S
C322 C321 1.434 . S
C323 C324 1.369 . S
C323 C325 1.419 . S
C323 H327 0.930 . S
C324 C323 1.369 . S
C324 C333 1.429 . S
C325 C323 1.419 . S
C325 C326 1.363 . S
C325 H328 0.929 . S
C326 C325 1.363 . S
C326 C332 1.428 . S
H327 C323 0.930 . S
H328 C325 0.929 . S
S329 N330 1.613 . S
S329 N331 1.610 . S
N330 S329 1.613 . S
N330 C333 1.350 1_556 S
N331 S329 1.610 . S
N331 C332 1.351 1_556 S
C332 C326 1.428 . S
C332 N331 1.351 1_554 S
C332 C333 1.434 . S
C333 C324 1.429 . S
C333 N330 1.350 1_554 S
C333 C332 1.434 . S
C334 C335 1.369 1_556 S
C334 C336 1.419 . S
C334 H338 0.930 . S
C335 C334 1.369 1_554 S
C335 C344 1.429 . S
C336 C334 1.419 . S
C336 C337 1.363 1_556 S
C336 H339 0.929 . S
C337 C336 1.363 1_554 S
C337 C343 1.428 . S
H338 C334 0.930 . S
H339 C336 0.929 . S
S340 N341 1.613 . S
S340 N342 1.610 . S
N341 S340 1.613 . S
N341 C344 1.350 . S
N342 S340 1.610 . S
N342 C343 1.351 . S
C343 C337 1.428 . S
C343 N342 1.351 . S
C343 C344 1.434 . S
C344 C335 1.429 . S
C344 N341 1.350 . S
C344 C343 1.434 . S
C345 C346 1.369 . S
C345 C347 1.419 . S
C345 H349 0.930 . S
C346 C345 1.369 . S
C346 C355 1.429 1_554 S
C347 C345 1.419 . S
C347 C348 1.363 . S
C347 H350 0.929 . S
C348 C347 1.363 . S
C348 C354 1.428 1_554 S
H349 C345 0.930 . S
H350 C347 0.929 . S
S351 N352 1.613 . S
S351 N353 1.610 . S
N352 S351 1.613 . S
N352 C355 1.350 . S
N353 S351 1.610 . S
N353 C354 1.351 . S
C354 C348 1.428 1_556 S
C354 N353 1.351 . S
C354 C355 1.434 . S
C355 C346 1.429 1_556 S
C355 N352 1.350 . S
C355 C354 1.434 . S
C356 C357 1.369 . S
C356 C358 1.419 . S
C356 H360 0.930 . S
C357 C356 1.369 . S
C357 C366 1.429 . S
C358 C356 1.419 . S
C358 C359 1.363 . S
C358 H361 0.929 . S
C359 C358 1.363 . S
C359 C365 1.428 . S
H360 C356 0.930 . S
H361 C358 0.929 . S
S362 N363 1.613 . S
S362 N364 1.610 . S
N363 S362 1.613 . S
N363 C366 1.350 . S
N364 S362 1.610 . S
N364 C365 1.351 . S
C365 C359 1.428 . S
C365 N364 1.351 . S
C365 C366 1.434 . S
C366 C357 1.429 . S
C366 N363 1.350 . S
C366 C365 1.434 . S
C367 C368 1.369 . S
C367 C369 1.419 . S
C367 H371 0.930 . S
C368 C367 1.369 . S
C368 C377 1.429 . S
C369 C367 1.419 . S
C369 C370 1.363 . S
C369 H372 0.929 . S
C370 C369 1.363 . S
C370 C376 1.428 . S
H371 C367 0.930 . S
H372 C369 0.929 . S
S373 N374 1.613 . S
S373 N375 1.610 . S
N374 S373 1.613 . S
N374 C377 1.350 . S
N375 S373 1.610 . S
N375 C376 1.351 . S
C376 C370 1.428 . S
C376 N375 1.351 . S
C376 C377 1.434 . S
C377 C368 1.429 . S
C377 N374 1.350 . S
C377 C376 1.434 . S
C378 C379 1.369 . S
C378 C380 1.419 . S
C378 H382 0.930 . S
C379 C378 1.369 . S
C379 C388 1.429 . S
C380 C378 1.419 . S
C380 C381 1.363 . S
C380 H383 0.929 . S
C381 C380 1.363 . S
C381 C387 1.428 . S
H382 C378 0.930 . S
H383 C380 0.929 . S
S384 N385 1.613 . S
S384 N386 1.610 . S
N385 S384 1.613 . S
N385 C388 1.350 . S
N386 S384 1.610 . S
N386 C387 1.351 . S
C387 C381 1.428 . S
C387 N386 1.351 . S
C387 C388 1.434 . S
C388 C379 1.429 . S
C388 N385 1.350 . S
C388 C387 1.434 . S
C389 C390 1.369 . S
C389 C391 1.419 . S
C389 H393 0.930 . S
C390 C389 1.369 . S
C390 C399 1.429 . S
C391 C389 1.419 . S
C391 C392 1.363 . S
C391 H394 0.929 . S
C392 C391 1.363 . S
C392 C398 1.428 . S
H393 C389 0.930 . S
H394 C391 0.929 . S
S395 N396 1.613 . S
S395 N397 1.610 . S
N396 S395 1.613 . S
N396 C399 1.350 . S
N397 S395 1.610 . S
N397 C398 1.351 . S
C398 C392 1.428 . S
C398 N397 1.351 . S
C398 C399 1.434 . S
C399 C390 1.429 . S
C399 N396 1.350 . S
C399 C398 1.434 . S
C400 C401 1.369 . S
C400 C402 1.419 . S
C400 H404 0.930 . S
C401 C400 1.369 . S
C401 C410 1.429 . S
C402 C400 1.419 . S
C402 C403 1.363 . S
C402 H405 0.929 . S
C403 C402 1.363 . S
C403 C409 1.428 . S
H404 C400 0.930 . S
H405 C402 0.929 . S
S406 N407 1.613 . S
S406 N408 1.610 . S
N407 S406 1.613 . S
N407 C410 1.350 . S
N408 S406 1.610 . S
N408 C409 1.351 . S
C409 C403 1.428 . S
C409 N408 1.351 . S
C409 C410 1.434 . S
C410 C401 1.429 . S
C410 N407 1.350 . S
C410 C409 1.434 . S
C411 C412 1.369 . S
C411 C413 1.419 . S
C411 H415 0.930 . S
C412 C411 1.369 . S
C412 C421 1.429 . S
C413 C411 1.419 . S
C413 C414 1.363 . S
C413 H416 0.929 . S
C414 C413 1.363 . S
C414 C420 1.428 . S
H415 C411 0.930 . S
H416 C413 0.929 . S
S417 N418 1.613 . S
S417 N419 1.610 . S
N418 S417 1.613 . S
N418 C421 1.350 . S
N419 S417 1.610 . S
N419 C420 1.351 . S
C420 C414 1.428 . S
C420 N419 1.351 . S
C420 C421 1.434 . S
C421 C412 1.429 . S
C421 N418 1.350 . S
C421 C420 1.434 . S
C422 C423 1.369 . S
C422 C424 1.419 . S
C422 H426 0.930 . S
C423 C422 1.369 . S
C423 C432 1.429 . S
C424 C422 1.419 . S
C424 C425 1.363 . S
C424 H427 0.929 . S
C425 C424 1.363 . S
C425 C431 1.428 . S
H426 C422 0.930 . S
H427 C424 0.929 . S
S428 N429 1.613 . S
S428 N430 1.610 . S
N429 S428 1.613 . S
N429 C432 1.350 . S
N430 S428 1.610 . S
N430 C431 1.351 . S
C431 C425 1.428 . S
C431 N430 1.351 . S
C431 C432 1.434 . S
C432 C423 1.429 . S
C432 N429 1.350 . S
C432 C431 1.434 . S
C433 C434 1.369 . S
C433 C435 1.419 . S
C433 H437 0.930 . S
C434 C433 1.369 . S
C434 C443 1.429 . S
C435 C433 1.419 . S
C435 C436 1.363 . S
C435 H438 0.929 . S
C436 C435 1.363 . S
C436 C442 1.428 . S
H437 C433 0.930 . S
H438 C435 0.929 . S
S439 N440 1.613 . S
S439 N441 1.610 . S
N440 S439 1.613 . S
N440 C443 1.350 . S
N441 S439 1.610 . S
N441 C442 1.351 . S
C442 C436 1.428 . S
C442 N441 1.351 . S
C442 C443 1.434 . S
C443 C434 1.429 . S
C443 N440 1.350 . S
C443 C442 1.434 . S
C444 C445 1.369 . S
C444 C446 1.419 . S
C444 H448 0.930 . S
C445 C444 1.369 . S
C445 C454 1.429 . S
C446 C444 1.419 . S
C446 C447 1.363 . S
C446 H449 0.929 . S
C447 C446 1.363 . S
C447 C453 1.428 . S
H448 C444 0.930 . S
H449 C446 0.929 . S
S450 N451 1.613 . S
S450 N452 1.610 . S
N451 S450 1.613 . S
N451 C454 1.350 . S
N452 S450 1.610 . S
N452 C453 1.351 . S
C453 C447 1.428 . S
C453 N452 1.351 . S
C453 C454 1.434 . S
C454 C445 1.429 . S
C454 N451 1.350 . S
C454 C453 1.434 . S
C455 C456 1.369 . S
C455 C457 1.419 . S
C455 H459 0.930 . S
C456 C455 1.369 . S
C456 C465 1.429 . S
C457 C455 1.419 . S
C457 C458 1.363 . S
C457 H460 0.929 . S
C458 C457 1.363 . S
C458 C464 1.428 . S
H459 C455 0.930 . S
H460 C457 0.929 . S
S461 N462 1.613 . S
S461 N463 1.610 . S
N462 S461 1.613 . S
N462 C465 1.350 . S
N463 S461 1.610 . S
N463 C464 1.351 . S
C464 C458 1.428 . S
C464 N463 1.351 . S
C464 C465 1.434 . S
C465 C456 1.429 . S
C465 N462 1.350 . S
C465 C464 1.434 . S
C466 C467 1.369 . S
C466 C468 1.419 . S
C466 H470 0.930 . S
C467 C466 1.369 . S
C467 C476 1.429 . S
C468 C466 1.419 . S
C468 C469 1.363 . S
C468 H471 0.929 . S
C469 C468 1.363 . S
C469 C475 1.428 . S
H470 C466 0.930 . S
H471 C468 0.929 . S
S472 N473 1.613 . S
S472 N474 1.610 . S
N473 S472 1.613 . S
N473 C476 1.350 . S
N474 S472 1.610 . S
N474 C475 1.351 . S
C475 C469 1.428 . S
C475 N474 1.351 . S
C475 C476 1.434 . S
C476 C467 1.429 . S
C476 N473 1.350 . S
C476 C475 1.434 . S
C477 C478 1.369 . S
C477 C479 1.419 . S
C477 H481 0.930 . S
C478 C477 1.369 . S
C478 C487 1.429 . S
C479 C477 1.419 . S
C479 C480 1.363 . S
C479 H482 0.929 . S
C480 C479 1.363 . S
C480 C486 1.428 . S
H481 C477 0.930 . S
H482 C479 0.929 . S
S483 N484 1.613 . S
S483 N485 1.610 . S
N484 S483 1.613 . S
N484 C487 1.350 . S
N485 S483 1.610 . S
N485 C486 1.351 . S
C486 C480 1.428 . S
C486 N485 1.351 . S
C486 C487 1.434 . S
C487 C478 1.429 . S
C487 N484 1.350 . S
C487 C486 1.434 . S
C488 C489 1.369 . S
C488 C490 1.419 . S
C488 H492 0.930 . S
C489 C488 1.369 . S
C489 C498 1.429 . S
C490 C488 1.419 . S
C490 C491 1.363 . S
C490 H493 0.929 . S
C491 C490 1.363 . S
C491 C497 1.428 . S
H492 C488 0.930 . S
H493 C490 0.929 . S
S494 N495 1.613 . S
S494 N496 1.610 . S
N495 S494 1.613 . S
N495 C498 1.350 . S
N496 S494 1.610 . S
N496 C497 1.351 . S
C497 C491 1.428 . S
C497 N496 1.351 . S
C497 C498 1.434 . S
C498 C489 1.429 . S
C498 N495 1.350 . S
C498 C497 1.434 . S
C499 C500 1.369 . S
C499 C501 1.419 . S
C499 H503 0.930 . S
C500 C499 1.369 . S
C500 C509 1.429 . S
C501 C499 1.419 . S
C501 C502 1.363 . S
C501 H504 0.929 . S
C502 C501 1.363 . S
C502 C508 1.428 . S
H503 C499 0.930 . S
H504 C501 0.929 . S
S505 N506 1.613 . S
S505 N507 1.610 . S
N506 S505 1.613 . S
N506 C509 1.350 . S
N507 S505 1.610 . S
N507 C508 1.351 . S
C508 C502 1.428 . S
C508 N507 1.351 . S
C508 C509 1.434 . S
C509 C500 1.429 . S
C509 N506 1.350 . S
C509 C508 1.434 . S
C510 C511 1.369 . S
C510 C512 1.419 . S
C510 H514 0.930 . S
C511 C510 1.369 . S
C511 C520 1.429 . S
C512 C510 1.419 . S
C512 C513 1.363 . S
C512 H515 0.929 . S
C513 C512 1.363 . S
C513 C519 1.428 . S
H514 C510 0.930 . S
H515 C512 0.929 . S
S516 N517 1.613 . S
S516 N518 1.610 . S
N517 S516 1.613 . S
N517 C520 1.350 . S
N518 S516 1.610 . S
N518 C519 1.351 . S
C519 C513 1.428 . S
C519 N518 1.351 . S
C519 C520 1.434 . S
C520 C511 1.429 . S
C520 N517 1.350 . S
C520 C519 1.434 . S
C521 C522 1.369 . S
C521 C523 1.419 . S
C521 H525 0.930 . S
C522 C521 1.369 . S
C522 C531 1.429 . S
C523 C521 1.419 . S
C523 C524 1.363 . S
C523 H526 0.929 . S
C524 C523 1.363 . S
C524 C530 1.428 . S
H525 C521 0.930 . S
H526 C523 0.929 . S
S527 N528 1.613 . S
S527 N529 1.610 . S
N528 S527 1.613 . S
N528 C531 1.350 . S
N529 S527 1.610 . S
N529 C530 1.351 . S
C530 C524 1.428 . S
C530 N529 1.351 . S
C530 C531 1.434 . S
C531 C522 1.429 . S
C531 N528 1.350 . S
C531 C530 1.434 . S
C532 C533 1.369 . S
C532 C534 1.419 . S
C532 H536 0.930 . S
C533 C532 1.369 . S
C533 C542 1.429 . S
C534 C532 1.419 . S
C534 C535 1.363 . S
C534 H537 0.929 . S
C535 C534 1.363 . S
C535 C541 1.428 . S
H536 C532 0.930 . S
H537 C534 0.929 . S
S538 N539 1.613 . S
S538 N540 1.610 . S
N539 S538 1.613 . S
N539 C542 1.350 . S
N540 S538 1.610 . S
N540 C541 1.351 . S
C541 C535 1.428 . S
C541 N540 1.351 . S
C541 C542 1.434 . S
C542 C533 1.429 . S
C542 N539 1.350 . S
C542 C541 1.434 . S
C543 C544 1.369 . S
C543 C545 1.419 . S
C543 H547 0.930 . S
C544 C543 1.369 . S
C544 C553 1.429 . S
C545 C543 1.419 . S
C545 C546 1.363 . S
C545 H548 0.929 . S
C546 C545 1.363 . S
C546 C552 1.428 . S
H547 C543 0.930 . S
H548 C545 0.929 . S
S549 N550 1.613 . S
S549 N551 1.610 . S
N550 S549 1.613 . S
N550 C553 1.350 . S
N551 S549 1.610 . S
N551 C552 1.351 . S
C552 C546 1.428 . S
C552 N551 1.351 . S
C552 C553 1.434 . S
C553 C544 1.429 . S
C553 N550 1.350 . S
C553 C552 1.434 . S
C554 C555 1.369 . S
C554 C556 1.419 . S
C554 H558 0.930 . S
C555 C554 1.369 . S
C555 C564 1.429 . S
C556 C554 1.419 . S
C556 C557 1.363 . S
C556 H559 0.929 . S
C557 C556 1.363 . S
C557 C563 1.428 . S
H558 C554 0.930 . S
H559 C556 0.929 . S
S560 N561 1.613 . S
S560 N562 1.610 . S
N561 S560 1.613 . S
N561 C564 1.350 . S
N562 S560 1.610 . S
N562 C563 1.351 . S
C563 C557 1.428 . S
C563 N562 1.351 . S
C563 C564 1.434 . S
C564 C555 1.429 . S
C564 N561 1.350 . S
C564 C563 1.434 . S
C565 C566 1.369 . S
C565 C567 1.419 . S
C565 H569 0.930 . S
C566 C565 1.369 . S
C566 C575 1.429 . S
C567 C565 1.419 . S
C567 C568 1.363 . S
C567 H570 0.929 . S
C568 C567 1.363 . S
C568 C574 1.428 . S
H569 C565 0.930 . S
H570 C567 0.929 . S
S571 N572 1.613 . S
S571 N573 1.610 . S
N572 S571 1.613 . S
N572 C575 1.350 . S
N573 S571 1.610 . S
N573 C574 1.351 . S
C574 C568 1.428 . S
C574 N573 1.351 . S
C574 C575 1.434 . S
C575 C566 1.429 . S
C575 N572 1.350 . S
C575 C574 1.434 . S
C225 C67 1.311 . S
C227 C11 1.308 . S
C236 C81 1.310 . S
C238 C25 1.309 . S
C247 C95 1.311 . S
C249 C39 1.309 . S
C258 C109 1.311 . S
C260 C53 1.308 . S
C269 C179 1.308 . S
C271 C123 1.311 . S
C280 C193 1.308 . S
C282 C137 1.311 . S
C291 C151 1.310 . S
C293 C207 1.309 . S
C302 C221 1.311 . S
C304 C165 1.308 . S
C313 C4 1.226 . S
C315 C74 1.220 . S
C324 C88 1.224 . S
C326 C18 1.223 . S
C335 C32 1.226 . S
C337 C102 1.221 . S
C346 C60 1.226 . S
C348 C46 1.220 . S
C357 C186 1.226 . S
C359 C116 1.221 . S
C368 C200 1.220 . S
C370 C130 1.226 . S
C379 C144 1.222 . S
C381 C214 1.222 . S
C390 C158 1.219 . S
C392 C172 1.225 . S
C401 C215 1.220 . S
C403 C5 1.214 . S
C412 C173 1.210 . S
C414 C19 1.216 . S
C423 C187 1.210 . S
C425 C33 1.216 . S
C434 C201 1.216 . S
C436 C47 1.220 . S
C445 C131 1.211 . S
C447 C61 1.217 . S
C456 C145 1.209 . S
C458 C75 1.207 . S
C467 C89 1.210 . S
C469 C159 1.208 . S
C478 C103 1.205 . S
C480 C117 1.209 . S
C489 C194 1.655 . S
C491 C40 1.654 . S
C500 C208 1.653 . S
C502 C54 1.654 . S
C511 C222 1.655 . S
C513 C12 1.655 . S
C522 C26 1.655 . S
C524 C180 1.655 . S
C533 C166 1.655 . S
C535 C96 1.655 . S
C544 C110 1.655 . S
C546 C124 1.654 . S
C555 C138 1.654 . S
C557 C68 1.655 . S
C566 C152 1.655 . S
C568 C82 1.654 . S
