# Generated by pormake.
# Topology umg, (4)-cn, num edge types: 1
# Building blocks:
#     Node 0, Type 0, BuildingBlock: CEKHIL_clean_sbu_0, # of connection points: 4
#     Node 1, Type 0, BuildingBlock: CEKHIL_clean_sbu_0, # of connection points: 4
#     Node 2, Type 0, BuildingBlock: CEKHIL_clean_sbu_0, # of connection points: 4
#     Node 3, Type 0, BuildingBlock: CEKHIL_clean_sbu_0, # of connection points: 4
#     Node 4, Type 0, BuildingBlock: CEKHIL_clean_sbu_0, # of connection points: 4
#     Node 5, Type 0, BuildingBlock: CEKHIL_clean_sbu_0, # of connection points: 4
#     Node 6, Type 0, BuildingBlock: CEKHIL_clean_sbu_0, # of connection points: 4
#     Node 7, Type 0, BuildingBlock: CEKHIL_clean_sbu_0, # of connection points: 4
#     Node 8, Type 0, BuildingBlock: CEKHIL_clean_sbu_0, # of connection points: 4
#     Node 9, Type 0, BuildingBlock: CEKHIL_clean_sbu_0, # of connection points: 4
#     Node 10, Type 0, BuildingBlock: CEKHIL_clean_sbu_0, # of connection points: 4
#     Node 11, Type 0, BuildingBlock: CEKHIL_clean_sbu_0, # of connection points: 4
#     Edge 12, Type (0, 0), BuildingBlock: XUDNAN_clean_linker_2, # of connection points: 2
#     Edge 13, Type (0, 0), BuildingBlock: XUDNAN_clean_linker_2, # of connection points: 2
#     Edge 14, Type (0, 0), BuildingBlock: XUDNAN_clean_linker_2, # of connection points: 2
#     Edge 15, Type (0, 0), BuildingBlock: XUDNAN_clean_linker_2, # of connection points: 2
#     Edge 16, Type (0, 0), BuildingBlock: XUDNAN_clean_linker_2, # of connection points: 2
#     Edge 17, Type (0, 0), BuildingBlock: XUDNAN_clean_linker_2, # of connection points: 2
#     Edge 18, Type (0, 0), BuildingBlock: XUDNAN_clean_linker_2, # of connection points: 2
#     Edge 19, Type (0, 0), BuildingBlock: XUDNAN_clean_linker_2, # of connection points: 2
#     Edge 20, Type (0, 0), BuildingBlock: XUDNAN_clean_linker_2, # of connection points: 2
#     Edge 21, Type (0, 0), BuildingBlock: XUDNAN_clean_linker_2, # of connection points: 2
#     Edge 22, Type (0, 0), BuildingBlock: XUDNAN_clean_linker_2, # of connection points: 2
#     Edge 23, Type (0, 0), BuildingBlock: XUDNAN_clean_linker_2, # of connection points: 2
#     Edge 24, Type (0, 0), BuildingBlock: XUDNAN_clean_linker_2, # of connection points: 2
#     Edge 25, Type (0, 0), BuildingBlock: XUDNAN_clean_linker_2, # of connection points: 2
#     Edge 26, Type (0, 0), BuildingBlock: XUDNAN_clean_linker_2, # of connection points: 2
#     Edge 27, Type (0, 0), BuildingBlock: XUDNAN_clean_linker_2, # of connection points: 2
#     Edge 28, Type (0, 0), BuildingBlock: XUDNAN_clean_linker_2, # of connection points: 2
#     Edge 29, Type (0, 0), BuildingBlock: XUDNAN_clean_linker_2, # of connection points: 2
#     Edge 30, Type (0, 0), BuildingBlock: XUDNAN_clean_linker_2, # of connection points: 2
#     Edge 31, Type (0, 0), BuildingBlock: XUDNAN_clean_linker_2, # of connection points: 2
#     Edge 32, Type (0, 0), BuildingBlock: XUDNAN_clean_linker_2, # of connection points: 2
#     Edge 33, Type (0, 0), BuildingBlock: XUDNAN_clean_linker_2, # of connection points: 2
#     Edge 34, Type (0, 0), BuildingBlock: XUDNAN_clean_linker_2, # of connection points: 2
#     Edge 35, Type (0, 0), BuildingBlock: XUDNAN_clean_linker_2, # of connection points: 2
# Relax obj value: 0.081
# Max RMSD: 0.335
# Mean RMSD: 0.204
data_MOF--net-umg--node1-CEKHIL_clean_sbu_0--edge1-XUDNAN_clean_linker_2
_symmetry_space_group_name_H-M    P1
_symmetry_Int_Tables_number       1
_symmetry_cell_setting            triclinic
loop_
_symmetry_equiv_pos_as_xyz
'x, y, z'
_cell_length_a     28.175889
_cell_length_b     28.199902
_cell_length_c     79.23427
_cell_angle_alpha  89.937659
_cell_angle_beta   90.081512
_cell_angle_gamma 120.16008
loop_
_atom_site_label
_atom_site_type_symbol
_atom_site_fract_x
_atom_site_fract_y
_atom_site_fract_z
_atom_type_partial_charge
Co0 Co 0.26274 0.69881 0.06787 0.0
O1 O 0.33181 0.70055 0.06778 0.0
O2 O 0.25205 0.62562 0.06353 0.0
C3 C 0.27876 0.74725 0.09172 0.0
O4 O 0.18313 0.68451 0.06762 0.0
Co5 Co 0.27011 0.81119 0.06294 0.0
O6 O 0.19055 0.76803 0.06781 0.0
C7 C 0.28196 0.75596 0.03353 0.0
C8 C 0.3053 0.64849 0.06483 0.0
C9 C 0.16167 0.7158 0.06811 0.0
O10 O 0.26995 0.7147 0.0431 0.0
O11 O 0.2888 0.80153 0.03914 0.0
O12 O 0.26026 0.69486 0.09221 0.0
O13 O 0.29285 0.76977 0.07695 0.0
Co14 Co 0.88352 0.37913 0.42401 0.0
O15 O 0.93889 0.45519 0.42572 0.0
O16 O 0.94257 0.39711 0.40781 0.0
C17 C 0.87544 0.36099 0.45182 0.0
O18 O 0.83182 0.29689 0.41942 0.0
Co19 Co 0.76937 0.34615 0.43947 0.0
O20 O 0.75341 0.27099 0.43382 0.0
C21 C 0.80123 0.40519 0.40737 0.0
C22 C 0.96505 0.44688 0.41377 0.0
C23 C 0.78337 0.25987 0.42447 0.0
O24 O 0.84304 0.39838 0.40693 0.0
O25 O 0.76923 0.39234 0.42011 0.0
O26 O 0.91462 0.36083 0.44326 0.0
O27 O 0.84715 0.3783 0.44377 0.0
Co28 Co 0.32898 0.58719 0.73534 0.0
O29 O 0.32134 0.6513 0.73424 0.0
O30 O 0.39903 0.65162 0.73003 0.0
C31 C 0.2831 0.55424 0.7596 0.0
O32 O 0.35194 0.52885 0.73596 0.0
Co33 Co 0.2257 0.47183 0.73287 0.0
O34 O 0.27644 0.44734 0.74126 0.0
C35 C 0.27217 0.53582 0.7019 0.0
C36 C 0.37342 0.67922 0.73099 0.0
C37 C 0.32829 0.47737 0.73969 0.0
O38 O 0.31151 0.57282 0.71076 0.0
O39 O 0.23102 0.49344 0.70834 0.0
O40 O 0.33436 0.59255 0.75964 0.0
O41 O 0.25951 0.54108 0.74495 0.0
Co42 Co 0.64321 0.51619 0.08933 0.0
O43 O 0.56719 0.49558 0.09133 0.0
O44 O 0.62445 0.55659 0.07304 0.0
C45 C 0.66239 0.52745 0.11714 0.0
O46 O 0.72542 0.54661 0.08446 0.0
Co47 Co 0.67658 0.43587 0.1053 0.0
O48 O 0.75153 0.49416 0.0988 0.0
C49 C 0.61355 0.40571 0.07391 0.0
C50 C 0.57497 0.52966 0.07927 0.0
C51 C 0.76245 0.53506 0.08933 0.0
O52 O 0.62264 0.45504 0.07259 0.0
O53 O 0.62644 0.38761 0.08689 0.0
O54 O 0.66265 0.56661 0.10844 0.0
O55 O 0.64471 0.48161 0.10922 0.0
Co56 Co 0.44649 0.7604 0.40236 0.0
O57 O 0.37931 0.69108 0.40234 0.0
O58 O 0.38373 0.77037 0.39778 0.0
C59 C 0.47965 0.74595 0.42643 0.0
O60 O 0.51133 0.84004 0.40198 0.0
Co61 Co 0.55235 0.75429 0.39779 0.0
O62 O 0.58834 0.83409 0.40207 0.0
C63 C 0.48577 0.74237 0.3681 0.0
C64 C 0.35353 0.71717 0.39918 0.0
C65 C 0.56426 0.86216 0.40234 0.0
O66 O 0.45536 0.75298 0.37757 0.0
O67 O 0.52493 0.73643 0.37385 0.0
O68 O 0.44522 0.76374 0.42671 0.0
O69 O 0.48795 0.73139 0.41173 0.0
Co70 Co 0.5107 0.14776 0.75705 0.0
O71 O 0.52898 0.09083 0.75841 0.0
O72 O 0.46874 0.09077 0.74043 0.0
C73 C 0.50046 0.15435 0.78495 0.0
O74 O 0.48269 0.20102 0.75246 0.0
Co75 Co 0.5922 0.26046 0.77352 0.0
O76 O 0.53249 0.27643 0.7685 0.0
C77 C 0.62023 0.23054 0.74113 0.0
C78 C 0.49446 0.06656 0.74624 0.0
C79 C 0.49301 0.24791 0.75839 0.0
O80 O 0.57162 0.18849 0.74034 0.0
O81 O 0.63886 0.26182 0.75407 0.0
O82 O 0.46041 0.11654 0.77615 0.0
O83 O 0.54635 0.18239 0.77701 0.0
Co84 Co 0.51777 0.63709 0.56944 0.0
O85 O 0.49735 0.56114 0.56807 0.0
O86 O 0.55941 0.62047 0.58581 0.0
C87 C 0.52715 0.65388 0.54155 0.0
O88 O 0.54809 0.71933 0.57379 0.0
Co89 Co 0.43647 0.66929 0.55359 0.0
O90 O 0.49641 0.74479 0.55876 0.0
C91 C 0.40941 0.61149 0.58596 0.0
C92 C 0.53217 0.57041 0.58006 0.0
C93 C 0.53716 0.7562 0.56837 0.0
O94 O 0.45797 0.61803 0.58646 0.0
O95 O 0.39033 0.62412 0.57313 0.0
O96 O 0.56698 0.65495 0.55012 0.0
O97 O 0.48169 0.63675 0.54967 0.0
Co98 Co 0.58458 0.32002 0.92699 0.0
O99 O 0.64843 0.31192 0.9279 0.0
O100 O 0.64891 0.38915 0.93313 0.0
C101 C 0.5533 0.27743 0.90213 0.0
O102 O 0.52641 0.34341 0.92669 0.0
Co103 Co 0.4689 0.21763 0.92818 0.0
O104 O 0.44594 0.26918 0.91961 0.0
C105 C 0.53051 0.26004 0.95985 0.0
C106 C 0.67638 0.36348 0.93179 0.0
C107 C 0.47571 0.32057 0.92205 0.0
O108 O 0.56906 0.29925 0.95136 0.0
O109 O 0.48729 0.22115 0.95295 0.0
O110 O 0.59144 0.32865 0.90277 0.0
O111 O 0.53895 0.25189 0.91648 0.0
Co112 Co 0.35871 0.87219 0.23681 0.0
O113 O 0.42838 0.93871 0.238 0.0
O114 O 0.35821 0.92093 0.25439 0.0
C115 C 0.35137 0.87253 0.20852 0.0
O116 O 0.27984 0.80525 0.23796 0.0
Co117 Co 0.36078 0.77603 0.21798 0.0
O118 O 0.28023 0.74285 0.22021 0.0
C119 C 0.40333 0.80289 0.25249 0.0
C120 C 0.40887 0.95495 0.24995 0.0
C121 C 0.25502 0.75862 0.23006 0.0
O122 O 0.38514 0.83653 0.25352 0.0
O123 O 0.40234 0.77821 0.23883 0.0
O124 O 0.33684 0.90116 0.21771 0.0
O125 O 0.37499 0.85024 0.21658 0.0
Co126 Co 0.69609 0.25507 0.5918 0.0
O127 O 0.69995 0.32503 0.59131 0.0
O128 O 0.62442 0.24685 0.59685 0.0
C129 C 0.74117 0.26623 0.56743 0.0
O130 O 0.67887 0.17487 0.59276 0.0
Co131 Co 0.80633 0.25774 0.59591 0.0
O132 O 0.76032 0.17749 0.5928 0.0
C133 C 0.75701 0.2765 0.62562 0.0
C134 C 0.64828 0.29993 0.59498 0.0
C135 C 0.708 0.1511 0.59263 0.0
O136 O 0.71505 0.26508 0.61643 0.0
O137 O 0.80091 0.28021 0.61963 0.0
O138 O 0.68901 0.24933 0.56754 0.0
O139 O 0.76572 0.28177 0.5819 0.0
Co140 Co 0.14287 0.49868 0.90333 0.0
O141 O 0.08591 0.51708 0.90228 0.0
O142 O 0.08646 0.45665 0.92005 0.0
C143 C 0.14898 0.48916 0.87539 0.0
O144 O 0.19599 0.47035 0.90768 0.0
Co145 Co 0.25578 0.57878 0.8867 0.0
O146 O 0.26932 0.51691 0.89063 0.0
C147 C 0.22661 0.60781 0.91909 0.0
C148 C 0.06213 0.48251 0.91448 0.0
C149 C 0.24153 0.47864 0.90116 0.0
O150 O 0.18415 0.55949 0.91999 0.0
O151 O 0.25791 0.62572 0.90614 0.0
O152 O 0.11112 0.44883 0.88409 0.0
O153 O 0.17737 0.53465 0.88347 0.0
Co154 Co 0.74014 0.43355 0.25795 0.0
O155 O 0.66413 0.3787 0.26071 0.0
O156 O 0.73244 0.36208 0.2633 0.0
C157 C 0.73044 0.46926 0.23373 0.0
O158 O 0.82396 0.48279 0.2554 0.0
Co159 Co 0.76735 0.55399 0.26099 0.0
O160 O 0.8425 0.57062 0.25506 0.0
C161 C 0.74571 0.48949 0.29167 0.0
C162 C 0.67969 0.34351 0.2637 0.0
C163 C 0.85773 0.53509 0.25406 0.0
O164 O 0.74513 0.45151 0.28261 0.0
O165 O 0.74878 0.53275 0.28538 0.0
O166 O 0.73429 0.42532 0.23374 0.0
O167 O 0.72521 0.48607 0.24847 0.0
H168 H 0.2076 0.57276 0.95148 0.0
H169 H 0.28095 0.72058 0.92103 0.0
H170 H 0.30578 0.77692 0.94711 0.0
H171 H 0.15078 0.61667 0.98352 0.0
H172 H 0.16641 0.58318 0.00022 0.0
H173 H 0.15461 0.55597 0.97913 0.0
H174 H 0.2494 0.56159 0.97951 0.0
H175 H 0.26161 0.58909 0.00059 0.0
H176 H 0.31029 0.62616 0.98407 0.0
H177 H 0.31821 0.81603 0.97722 0.0
H178 H 0.32126 0.8337 0.00801 0.0
H179 H 0.24433 0.65868 0.01741 0.0
C180 C 0.22856 0.617 0.95026 0.0
C181 C 0.24179 0.64245 0.9343 0.0
C182 C 0.27033 0.70043 0.93321 0.0
C183 C 0.28451 0.73263 0.94792 0.0
C184 C 0.2707 0.70602 0.96352 0.0
C185 C 0.24387 0.64945 0.96469 0.0
C186 C 0.23462 0.63029 0.98278 0.0
C187 C 0.17295 0.59444 0.98663 0.0
C188 C 0.26585 0.60001 0.98698 0.0
C189 C 0.25939 0.68481 0.99169 0.0
C190 C 0.27994 0.72822 0.9805 0.0
C191 C 0.30275 0.78231 0.98608 0.0
C192 C 0.30428 0.79197 0.00356 0.0
C193 C 0.28353 0.7477 0.01515 0.0
C194 C 0.26133 0.6937 0.00899 0.0
H195 H 0.82317 0.38959 0.37524 0.0
H196 H 0.74771 0.46405 0.40447 0.0
H197 H 0.72543 0.49586 0.37796 0.0
H198 H 0.88208 0.49074 0.34273 0.0
H199 H 0.86724 0.44096 0.32632 0.0
H200 H 0.87856 0.42659 0.34761 0.0
H201 H 0.78414 0.33667 0.34732 0.0
H202 H 0.77247 0.35082 0.32603 0.0
H203 H 0.72315 0.33943 0.34229 0.0
H204 H 0.71479 0.52197 0.34757 0.0
H205 H 0.71016 0.53289 0.31658 0.0
H206 H 0.78711 0.43473 0.30845 0.0
C207 C 0.80242 0.41307 0.37611 0.0
C208 C 0.78778 0.42508 0.39187 0.0
C209 C 0.75946 0.4547 0.39247 0.0
C210 C 0.74679 0.47296 0.37751 0.0
C211 C 0.76194 0.46034 0.36213 0.0
C212 C 0.78858 0.43045 0.36141 0.0
C213 C 0.79845 0.41986 0.34345 0.0
C214 C 0.86025 0.44612 0.33982 0.0
C215 C 0.7677 0.35803 0.33955 0.0
C216 C 0.77371 0.44887 0.3341 0.0
C217 C 0.75328 0.47256 0.34497 0.0
C218 C 0.7302 0.50309 0.33896 0.0
C219 C 0.72782 0.5092 0.32139 0.0
C220 C 0.74757 0.48404 0.31016 0.0
C221 C 0.77071 0.45362 0.3167 0.0
H222 H 0.36801 0.58659 0.68486 0.0
H223 H 0.19171 0.49488 0.67721 0.0
H224 H 0.20644 0.50388 0.64615 0.0
H225 H 0.40287 0.68103 0.65075 0.0
H226 H 0.46495 0.68036 0.64582 0.0
H227 H 0.43931 0.66785 0.66711 0.0
H228 H 0.43849 0.57544 0.66727 0.0
H229 H 0.46389 0.58753 0.64595 0.0
H230 H 0.40119 0.52537 0.65109 0.0
H231 H 0.24288 0.5272 0.61561 0.0
H232 H 0.29666 0.55617 0.58901 0.0
H233 H 0.44754 0.62583 0.61804 0.0
C234 C 0.33228 0.56882 0.6767 0.0
C235 C 0.27867 0.54077 0.68339 0.0
C236 C 0.23314 0.51686 0.67228 0.0
C237 C 0.24116 0.52185 0.65468 0.0
C238 C 0.29489 0.54997 0.64853 0.0
C239 C 0.33954 0.57247 0.6593 0.0
C240 C 0.39321 0.59883 0.64984 0.0
C241 C 0.42705 0.66067 0.6536 0.0
C242 C 0.4261 0.57005 0.65377 0.0
C243 C 0.37213 0.58817 0.63195 0.0
C244 C 0.31541 0.56049 0.63133 0.0
C245 C 0.28727 0.54836 0.61599 0.0
C246 C 0.31805 0.56499 0.60098 0.0
C247 C 0.37616 0.59252 0.60149 0.0
C248 C 0.40315 0.60389 0.61721 0.0
H249 H 0.66547 0.42125 0.04416 0.0
H250 H 0.51487 0.31107 0.07037 0.0
H251 H 0.4788 0.25448 0.04439 0.0
H252 H 0.60988 0.42206 0.00515 0.0
H253 H 0.66388 0.42244 0.99287 0.0
H254 H 0.67808 0.4508 0.0138 0.0
H255 H 0.71449 0.3859 0.02222 0.0
H256 H 0.70009 0.35713 0.00127 0.0
H257 H 0.67125 0.31295 0.01936 0.0
H258 H 0.45694 0.21595 0.01441 0.0
H259 H 0.45159 0.19856 0.98365 0.0
H260 H 0.61975 0.33177 0.97828 0.0
C261 C 0.62512 0.38483 0.0444 0.0
C262 C 0.59255 0.37021 0.05903 0.0
C263 C 0.54014 0.32244 0.05914 0.0
C264 C 0.51955 0.2902 0.04451 0.0
C265 C 0.55268 0.30587 0.03014 0.0
C266 C 0.60468 0.35174 0.0301 0.0
C267 C 0.63178 0.36085 0.01305 0.0
C268 C 0.64673 0.41736 0.0058 0.0
C269 C 0.68239 0.35377 0.01404 0.0
C270 C 0.58595 0.31469 0.0032 0.0
C271 C 0.54083 0.28287 0.01324 0.0
C272 C 0.49239 0.24005 0.0065 0.0
C273 C 0.48976 0.2304 0.98902 0.0
C274 C 0.53523 0.26368 0.9785 0.0
C275 C 0.58422 0.30529 0.98589 0.0
H276 H 0.38391 0.82081 0.28493 0.0
H277 H 0.46617 0.75369 0.25544 0.0
H278 H 0.4953 0.72844 0.28182 0.0
H279 H 0.48211 0.87714 0.31847 0.0
H280 H 0.43056 0.85951 0.3345 0.0
H281 H 0.41783 0.873 0.31326 0.0
H282 H 0.32883 0.77789 0.31236 0.0
H283 H 0.34157 0.7639 0.33355 0.0
H284 H 0.33244 0.71703 0.31674 0.0
H285 H 0.51692 0.71245 0.31195 0.0
H286 H 0.52735 0.70607 0.34282 0.0
H287 H 0.42642 0.77992 0.35155 0.0
C288 C 0.40847 0.80126 0.28395 0.0
C289 C 0.42311 0.78962 0.26811 0.0
C290 C 0.45456 0.76313 0.26745 0.0
C291 C 0.47126 0.74861 0.28236 0.0
C292 C 0.45565 0.76033 0.29777 0.0
C293 C 0.42476 0.78589 0.29861 0.0
C294 C 0.41227 0.79317 0.31663 0.0
C295 C 0.4372 0.85433 0.32096 0.0
C296 C 0.35009 0.76107 0.32001 0.0
C297 C 0.4413 0.76813 0.32585 0.0
C298 C 0.46634 0.74953 0.31485 0.0
C299 C 0.49712 0.72654 0.32067 0.0
C300 C 0.50281 0.72304 0.33821 0.0
C301 C 0.47736 0.74201 0.34963 0.0
C302 C 0.44585 0.76425 0.34323 0.0
H303 H 0.58445 0.22439 0.70918 0.0
H304 H 0.73159 0.27169 0.73847 0.0
H305 H 0.78588 0.29411 0.71196 0.0
H306 H 0.61127 0.16178 0.67529 0.0
H307 H 0.58379 0.18749 0.6595 0.0
H308 H 0.55836 0.17715 0.68078 0.0
H309 H 0.58204 0.27865 0.68217 0.0
H310 H 0.60776 0.28934 0.66088 0.0
H311 H 0.65105 0.33256 0.67767 0.0
H312 H 0.82153 0.30398 0.68149 0.0
H313 H 0.8357 0.30482 0.65058 0.0
H314 H 0.66484 0.25685 0.64252 0.0
C315 C 0.62813 0.23946 0.71001 0.0
C316 C 0.65394 0.2457 0.72574 0.0
C317 C 0.71126 0.26655 0.72644 0.0
C318 C 0.74226 0.27935 0.71149 0.0
C319 C 0.71529 0.27229 0.69609 0.0
C320 C 0.65959 0.25358 0.69535 0.0
C321 C 0.6399 0.24972 0.67743 0.0
C322 C 0.59575 0.19052 0.673 0.0
C323 C 0.61897 0.28997 0.67436 0.0
C324 C 0.69274 0.26721 0.66806 0.0
C325 C 0.736 0.28029 0.67892 0.0
C326 C 0.78806 0.29458 0.67289 0.0
C327 C 0.79574 0.29492 0.65533 0.0
C328 C 0.75155 0.28123 0.64406 0.0
C329 C 0.69983 0.26813 0.65067 0.0
H330 H 0.35569 0.79677 0.18844 0.0
H331 H 0.32235 0.93108 0.18752 0.0
H332 H 0.30456 0.91775 0.15675 0.0
H333 H 0.42186 0.82177 0.1478 0.0
H334 H 0.39117 0.74978 0.14304 0.0
H335 H 0.40452 0.77271 0.16463 0.0
H336 H 0.30214 0.70701 0.17207 0.0
H337 H 0.28854 0.68375 0.15053 0.0
H338 H 0.24958 0.71112 0.16026 0.0
H339 H 0.29109 0.88884 0.12563 0.0
H340 H 0.27479 0.84127 0.09796 0.0
H341 H 0.31167 0.7237 0.12077 0.0
C342 C 0.34506 0.82369 0.18177 0.0
C343 C 0.34071 0.86513 0.19026 0.0
C344 C 0.32594 0.89906 0.18116 0.0
C345 C 0.31601 0.89196 0.16371 0.0
C346 C 0.32064 0.8505 0.15568 0.0
C347 C 0.33432 0.81668 0.16451 0.0
C348 C 0.33373 0.77319 0.15332 0.0
C349 C 0.39124 0.77979 0.15213 0.0
C350 C 0.29094 0.71537 0.15941 0.0
C351 C 0.31697 0.78729 0.13683 0.0
C352 C 0.31051 0.83255 0.13825 0.0
C353 C 0.29583 0.85322 0.1244 0.0
C354 C 0.28683 0.82625 0.10878 0.0
C355 C 0.2915 0.77879 0.10743 0.0
C356 C 0.30715 0.75959 0.12158 0.0
H357 H 0.78041 0.32644 0.46933 0.0
H358 H 0.94615 0.3552 0.4742 0.0
H359 H 0.92932 0.3294 0.50439 0.0
H360 H 0.77187 0.37849 0.5087 0.0
H361 H 0.70124 0.32713 0.5124 0.0
H362 H 0.72612 0.34568 0.49114 0.0
H363 H 0.6938 0.2439 0.48439 0.0
H364 H 0.6687 0.22502 0.50565 0.0
H365 H 0.71719 0.20713 0.49737 0.0
H366 H 0.89606 0.30835 0.53484 0.0
H367 H 0.84689 0.28773 0.56225 0.0
H368 H 0.702 0.26709 0.5363 0.0
C369 C 0.81303 0.32701 0.47673 0.0
C370 C 0.86463 0.34312 0.46955 0.0
C371 C 0.90624 0.34289 0.47954 0.0
C372 C 0.89709 0.32835 0.49667 0.0
C373 C 0.84577 0.31314 0.50345 0.0
C374 C 0.80424 0.3116 0.4937 0.0
C375 C 0.75289 0.29406 0.50393 0.0
C376 C 0.73715 0.33903 0.50405 0.0
C377 C 0.70534 0.23927 0.49745 0.0
C378 C 0.77244 0.28752 0.52107 0.0
C379 C 0.8261 0.2987 0.52064 0.0
C380 C 0.85372 0.29863 0.53528 0.0
C381 C 0.82567 0.28705 0.55077 0.0
C382 C 0.77064 0.27534 0.55133 0.0
C383 C 0.74381 0.275 0.53625 0.0
H384 H 0.32081 0.59031 0.79112 0.0
H385 H 0.17964 0.46466 0.76403 0.0
H386 H 0.13116 0.42839 0.79126 0.0
H387 H 0.31094 0.50891 0.82816 0.0
H388 H 0.33166 0.56613 0.84226 0.0
H389 H 0.35637 0.5778 0.82083 0.0
H390 H 0.31846 0.64379 0.81623 0.0
H391 H 0.29369 0.63237 0.83759 0.0
H392 H 0.24701 0.61982 0.82035 0.0
H393 H 0.09758 0.40898 0.82192 0.0
H394 H 0.08006 0.41227 0.85247 0.0
H395 H 0.24276 0.55422 0.85813 0.0
C396 C 0.27999 0.55462 0.79087 0.0
C397 C 0.25398 0.53 0.77552 0.0
C398 C 0.20024 0.48396 0.77572 0.0
C399 C 0.17259 0.46304 0.7911 0.0
C400 C 0.19939 0.48886 0.80604 0.0
C401 C 0.25189 0.53381 0.80596 0.0
C402 C 0.27063 0.55703 0.82344 0.0
C403 C 0.32033 0.55215 0.82899 0.0
C404 C 0.28315 0.61676 0.82445 0.0
C405 C 0.22009 0.51892 0.83342 0.0
C406 C 0.17966 0.47915 0.82331 0.0
C407 C 0.12906 0.43989 0.82992 0.0
C408 C 0.11949 0.44199 0.84725 0.0
C409 C 0.16 0.48368 0.85756 0.0
C410 C 0.21094 0.52205 0.85054 0.0
H411 H 0.69512 0.46614 0.13482 0.0
H412 H 0.66796 0.60381 0.13959 0.0
H413 H 0.68961 0.60982 0.17012 0.0
H414 H 0.63547 0.40121 0.17243 0.0
H415 H 0.68488 0.38025 0.1771 0.0
H416 H 0.67194 0.39047 0.15556 0.0
H417 H 0.77551 0.46006 0.15127 0.0
H418 H 0.78883 0.44987 0.17284 0.0
H419 H 0.80991 0.51795 0.16529 0.0
H420 H 0.7049 0.59337 0.20096 0.0
H421 H 0.71642 0.5585 0.22858 0.0
H422 H 0.73742 0.43518 0.20243 0.0
C423 C 0.69436 0.49797 0.14224 0.0
C424 C 0.67964 0.5343 0.13495 0.0
C425 C 0.67935 0.57565 0.14501 0.0
C426 C 0.69157 0.57936 0.16233 0.0
C427 C 0.70508 0.54214 0.16923 0.0
C428 C 0.70736 0.50282 0.15939 0.0
C429 C 0.72137 0.46663 0.16977 0.0
C430 C 0.67568 0.40609 0.16865 0.0
C431 C 0.77723 0.4741 0.16448 0.0
C432 C 0.72427 0.49005 0.18712 0.0
C433 C 0.71528 0.53387 0.18666 0.0
C434 C 0.71285 0.55963 0.20143 0.0
C435 C 0.71932 0.53959 0.21704 0.0
C436 C 0.72789 0.49429 0.21763 0.0
C437 C 0.73125 0.47012 0.20243 0.0
H438 H 0.46816 0.6909 0.5246 0.0
H439 H 0.60027 0.65568 0.51854 0.0
H440 H 0.60679 0.67981 0.48821 0.0
H441 H 0.40177 0.63811 0.48608 0.0
H442 H 0.385 0.69114 0.4825 0.0
H443 H 0.39297 0.67335 0.5037 0.0
H444 H 0.46673 0.77464 0.50959 0.0
H445 H 0.45884 0.79279 0.48839 0.0
H446 H 0.52562 0.80869 0.49593 0.0
H447 H 0.59197 0.69992 0.45777 0.0
H448 H 0.5616 0.7206 0.43068 0.0
H449 H 0.44422 0.74816 0.45795 0.0
C450 C 0.49868 0.68859 0.51691 0.0
C451 C 0.53343 0.67111 0.52378 0.0
C452 C 0.57329 0.6691 0.51343 0.0
C453 C 0.57725 0.68266 0.49622 0.0
C454 C 0.54182 0.69922 0.48976 0.0
C455 C 0.50393 0.70306 0.49989 0.0
C456 C 0.47045 0.72174 0.49003 0.0
C457 C 0.40893 0.67849 0.49061 0.0
C458 C 0.48107 0.7778 0.49636 0.0
C459 C 0.49408 0.72615 0.47262 0.0
C460 C 0.53519 0.71305 0.47262 0.0
C461 C 0.56044 0.71112 0.45768 0.0
C462 C 0.54293 0.72274 0.44237 0.0
C463 C 0.50099 0.73639 0.44227 0.0
C464 C 0.47697 0.73864 0.45763 0.0
H465 H 0.59524 0.31759 0.87122 0.0
H466 H 0.46309 0.17567 0.89617 0.0
H467 H 0.43036 0.13024 0.86834 0.0
H468 H 0.52073 0.31371 0.83315 0.0
H469 H 0.5797 0.33422 0.81982 0.0
H470 H 0.58888 0.35679 0.84146 0.0
H471 H 0.65181 0.31563 0.84669 0.0
H472 H 0.64283 0.29294 0.82511 0.0
H473 H 0.6265 0.24431 0.84201 0.0
H474 H 0.41458 0.10004 0.8375 0.0
H475 H 0.42069 0.08515 0.80695 0.0
H476 H 0.56661 0.24587 0.80328 0.0
C477 C 0.5589 0.27724 0.87086 0.0
C478 C 0.53137 0.25017 0.88579 0.0
C479 C 0.4846 0.19707 0.88482 0.0
C480 C 0.46569 0.17115 0.8691 0.0
C481 C 0.49429 0.19895 0.85459 0.0
C482 C 0.54007 0.25077 0.85541 0.0
C483 C 0.56602 0.27071 0.83827 0.0
C484 C 0.56367 0.32188 0.83286 0.0
C485 C 0.62528 0.2815 0.83802 0.0
C486 C 0.52834 0.22164 0.82764 0.0
C487 C 0.4866 0.18097 0.83716 0.0
C488 C 0.44706 0.13166 0.82995 0.0
C489 C 0.4508 0.1236 0.81262 0.0
C490 C 0.4943 0.16428 0.80285 0.0
C491 C 0.53311 0.21396 0.81047 0.0
H492 H 0.84649 0.51293 0.09327 0.0
H493 H 0.81081 0.6343 0.07249 0.0
H494 H 0.90788 0.69041 0.06366 0.0
H495 H 0.97847 0.60561 0.10976 0.0
H496 H 1.00784 0.56361 0.10448 0.0
H497 H 0.93538 0.53211 0.10856 0.0
H498 H 0.9143 0.48437 0.07939 0.0
H499 H 0.98678 0.51581 0.07519 0.0
H500 H 0.94293 0.52516 0.06063 0.0
H501 H 1.00891 0.73461 0.05814 0.0
H502 H 0.10705 0.76532 0.05629 0.0
H503 H 0.0785 0.61479 0.08037 0.0
C504 C 0.85878 0.55127 0.08683 0.0
C505 C 0.82059 0.56919 0.08364 0.0
C506 C 0.8389 0.61954 0.07509 0.0
C507 C 0.89402 0.65165 0.07001 0.0
C508 C 0.93033 0.63269 0.07343 0.0
C509 C 0.91344 0.58358 0.08159 0.0
C510 C 0.96091 0.57293 0.08398 0.0
C511 C 0.97125 0.56831 0.10281 0.0
C512 C 0.9506 0.52151 0.07421 0.0
C513 C 1.00769 0.62445 0.0762 0.0
C514 C 0.98879 0.65804 0.07012 0.0
C515 C 0.024 0.70853 0.06281 0.0
C516 C 0.07995 0.72563 0.06188 0.0
C517 C 0.10097 0.69264 0.06824 0.0
C518 C 0.06391 0.64079 0.07527 0.0
H519 H 0.67954 0.17381 0.43081 0.0
H520 H 0.83166 0.21372 0.40534 0.0
H521 H 0.78958 0.11737 0.39581 0.0
H522 H 0.64641 0.04091 0.44539 0.0
H523 H 0.5736 0.01105 0.44211 0.0
H524 H 0.61527 0.08317 0.44659 0.0
H525 H 0.58013 0.10581 0.41924 0.0
H526 H 0.53858 0.03372 0.41461 0.0
H527 H 0.58761 0.07943 0.39933 0.0
H528 H 0.73201 0.01681 0.38969 0.0
H529 H 0.66457 0.91837 0.38786 0.0
H530 H 0.54825 0.94297 0.41695 0.0
C531 C 0.7043 0.1626 0.42323 0.0
C532 C 0.75928 0.20178 0.41887 0.0
C533 C 0.78968 0.18479 0.40888 0.0
C534 C 0.76603 0.13013 0.40337 0.0
C535 C 0.71179 0.09293 0.40786 0.0
C536 C 0.6813 0.10841 0.41757 0.0
C537 C 0.62406 0.06022 0.42086 0.0
C538 C 0.61429 0.04813 0.43986 0.0
C539 C 0.58 0.07042 0.41304 0.0
C540 C 0.62723 0.01476 0.41165 0.0
C541 C 0.67823 0.03482 0.4042 0.0
C542 C 0.69199 1.0008 0.39543 0.0
C543 C 0.65326 0.94479 0.3945 0.0
C544 C 0.60096 0.92275 0.40227 0.0
C545 C 0.58749 0.95857 0.41071 0.0
H546 H 0.41038 0.25941 0.77242 0.0
H547 H 0.51751 0.3029 0.729 0.0
H548 H 0.48844 0.36828 0.71968 0.0
H549 H 0.29837 0.26807 0.74995 0.0
H550 H 0.28199 0.29482 0.76829 0.0
H551 H 0.30885 0.24918 0.77078 0.0
H552 H 0.38692 0.32174 0.78954 0.0
H553 H 0.36111 0.36811 0.78678 0.0
H554 H 0.43115 0.38969 0.78131 0.0
H555 H 0.45692 0.43726 0.71724 0.0
H556 H 0.41101 0.49249 0.71857 0.0
H557 H 0.31794 0.39879 0.7621 0.0
C558 C 0.42608 0.28139 0.76066 0.0
C559 C 0.46524 0.27562 0.75118 0.0
C560 C 0.48644 0.30606 0.73614 0.0
C561 C 0.47061 0.34362 0.73087 0.0
C562 C 0.433 0.34964 0.74071 0.0
C563 C 0.40972 0.31824 0.75501 0.0
C564 C 0.37006 0.33271 0.76324 0.0
C565 C 0.31133 0.28326 0.76305 0.0
C566 C 0.38844 0.35435 0.78129 0.0
C567 C 0.37557 0.37781 0.75154 0.0
C568 C 0.41276 0.38756 0.73878 0.0
C569 C 0.42701 0.42938 0.727 0.0
C570 C 0.40125 0.46092 0.72795 0.0
C571 C 0.36102 0.44975 0.7404 0.0
C572 C 0.34841 0.40792 0.7524 0.0
H573 H 0.62244 0.07384 0.57306 0.0
H574 H 0.73714 0.09229 0.61256 0.0
H575 H 0.70589 0.99354 0.61095 0.0
H576 H 0.51188 0.93514 0.58514 0.0
H577 H 0.49449 0.91318 0.56354 0.0
H578 H 0.52228 0.98435 0.56893 0.0
H579 H 0.59961 0.01111 0.54693 0.0
H580 H 0.57258 0.93998 0.54167 0.0
H581 H 0.64298 0.98122 0.54835 0.0
H582 H 0.66682 0.89377 0.60383 0.0
H583 H 0.61812 0.79887 0.59277 0.0
H584 H 0.53038 0.84522 0.55744 0.0
C585 C 0.63971 0.05661 0.58166 0.0
C586 C 0.68173 0.09052 0.59308 0.0
C587 C 0.70463 0.06689 0.60379 0.0
C588 C 0.68728 0.01086 0.60295 0.0
C589 C 0.64709 0.97872 0.59122 0.0
C590 C 0.62322 1.00051 0.58084 0.0
C591 C 0.58276 0.95724 0.56879 0.0
C592 C 0.52439 0.94686 0.57179 0.0
C593 C 0.60057 0.97337 0.55035 0.0
C594 C 0.58779 0.9081 0.57403 0.0
C595 C 0.62512 0.92132 0.58698 0.0
C596 C 0.63719 0.8828 0.59374 0.0
C597 C 0.60956 0.82901 0.58731 0.0
C598 C 0.57027 0.81414 0.57424 0.0
C599 C 0.55997 0.85479 0.56747 0.0
H600 H 0.28111 0.42308 0.88327 0.0
H601 H 0.26508 0.47116 0.9339 0.0
H602 H 0.32758 0.44001 0.94461 0.0
H603 H 0.28293 0.29776 0.89672 0.0
H604 H 0.33027 0.30513 0.88026 0.0
H605 H 0.28296 0.32962 0.87697 0.0
H606 H 0.3648 0.4257 0.8697 0.0
H607 H 0.41245 0.40191 0.8734 0.0
H608 H 0.41967 0.46052 0.88477 0.0
H609 H 0.40063 0.41392 0.949 0.0
H610 H 0.46255 0.37524 0.9481 0.0
H611 H 0.42326 0.33505 0.89528 0.0
C612 C 0.28972 0.42559 0.89667 0.0
C613 C 0.26811 0.44894 0.90785 0.0
C614 C 0.28057 0.45238 0.92525 0.0
C615 C 0.31649 0.43544 0.93138 0.0
C616 C 0.33852 0.41406 0.91996 0.0
C617 C 0.32415 0.4073 0.90308 0.0
C618 C 0.35213 0.38149 0.89357 0.0
C619 C 0.30954 0.32515 0.88646 0.0
C620 C 0.38947 0.4197 0.87953 0.0
C621 C 0.38549 0.37596 0.90765 0.0
C622 C 0.37789 0.39596 0.92271 0.0
C623 C 0.40629 0.39746 0.93733 0.0
C624 C 0.44181 0.37609 0.93668 0.0
C625 C 0.44773 0.35276 0.92161 0.0
C626 C 0.41956 0.3531 0.90691 0.0
H627 H 0.1763 0.76822 0.24925 0.0
H628 H 0.19694 0.65622 0.21646 0.0
H629 H 0.10092 0.58653 0.22059 0.0
H630 H 0.08084 0.66356 0.27854 0.0
H631 H 0.03883 0.69454 0.28119 0.0
H632 H 0.1108 0.73675 0.27639 0.0
H633 H 0.08706 0.77604 0.25022 0.0
H634 H 0.01513 0.73436 0.25505 0.0
H635 H 0.04029 0.72964 0.23458 0.0
H636 H 1.00248 0.52656 0.22822 0.0
H637 H 0.90506 0.48515 0.23674 0.0
H638 H 0.94439 0.63474 0.2635 0.0
C639 C 0.16064 0.7291 0.24296 0.0
C640 C 0.19519 0.71839 0.2326 0.0
C641 C 0.17229 0.6663 0.22454 0.0
C642 C 0.1174 0.62583 0.22683 0.0
C643 C 0.08481 0.63734 0.23717 0.0
C644 C 0.10514 0.68778 0.24498 0.0
C645 C 0.05995 0.68953 0.25492 0.0
C646 C 0.07343 0.69651 0.27389 0.0
C647 C 0.05002 0.73509 0.24829 0.0
C648 C 0.01142 0.63282 0.25115 0.0
C649 C 0.027 0.60303 0.24115 0.0
C650 C 0.98963 0.54947 0.23606 0.0
C651 C 0.93445 0.52608 0.24103 0.0
C652 C 0.917 0.55656 0.25073 0.0
C653 C 0.9564 0.61039 0.25601 0.0
H654 H 0.57563 0.62432 0.06968 0.0
H655 H 0.46872 0.44942 0.07663 0.0
H656 H 0.38784 0.45896 0.07075 0.0
H657 H 0.49155 0.66199 0.09119 0.0
H658 H 0.50557 0.71936 0.07783 0.0
H659 H 0.55566 0.698 0.07991 0.0
H660 H 0.55631 0.68696 0.04747 0.0
H661 H 0.5063 0.70857 0.04528 0.0
H662 H 0.49267 0.64394 0.03653 0.0
H663 H 0.31735 0.48843 0.06649 0.0
H664 H 0.26399 0.53654 0.06533 0.0
H665 H 0.41623 0.69234 0.06236 0.0
C666 C 0.53531 0.58795 0.06941 0.0
C667 C 0.52847 0.53598 0.07332 0.0
C668 C 0.47487 0.48954 0.0735 0.0
C669 C 0.42864 0.49452 0.07015 0.0
C670 C 0.43639 0.54641 0.06676 0.0
C671 C 0.4884 0.59238 0.06637 0.0
C672 C 0.48496 0.64398 0.06407 0.0
C673 C 0.51096 0.68311 0.07915 0.0
C674 C 0.51164 0.67254 0.04734 0.0
C675 C 0.42316 0.61995 0.06358 0.0
C676 C 0.39577 0.56353 0.06487 0.0
C677 C 0.33841 0.53263 0.06531 0.0
C678 C 0.30835 0.56021 0.06463 0.0
C679 C 0.33573 0.61812 0.06375 0.0
C680 C 0.39388 0.64797 0.06299 0.0
H681 H 0.05916 0.4463 0.40448 0.0
H682 H 0.99033 0.55245 0.4103 0.0
H683 H 0.08072 0.6333 0.40407 0.0
H684 H 0.18078 0.532 0.42581 0.0
H685 H 0.22451 0.51771 0.41278 0.0
H686 H 0.15292 0.46737 0.41488 0.0
H687 H 0.14135 0.46486 0.38239 0.0
H688 H 0.21313 0.51509 0.38019 0.0
H689 H 0.16187 0.52774 0.37108 0.0
H690 H 0.18074 0.70391 0.39982 0.0
H691 H 0.28248 0.75777 0.39894 0.0
H692 H 0.28677 0.60621 0.39708 0.0
C693 C 0.06291 0.48641 0.40388 0.0
C694 C 0.01764 0.49312 0.40759 0.0
C695 C 0.02448 0.54645 0.40733 0.0
C696 C 0.07564 0.59263 0.40377 0.0
C697 C 0.11999 0.58506 0.40062 0.0
C698 C 0.11419 0.53326 0.40063 0.0
C699 C 0.16946 0.53699 0.39859 0.0
C700 C 0.18268 0.51206 0.41393 0.0
C701 C 0.17156 0.50954 0.38208 0.0
C702 C 0.2071 0.59874 0.39782 0.0
C703 C 0.1778 0.62581 0.39873 0.0
C704 C 0.2041 0.6831 0.39893 0.0
C705 C 0.26188 0.71344 0.39842 0.0
C706 C 0.29266 0.68638 0.39794 0.0
C707 C 0.26453 0.62828 0.39739 0.0
H708 H 0.39738 0.97274 0.73857 0.0
H709 H 0.57372 0.04178 0.74005 0.0
H710 H 0.56221 0.95138 0.73291 0.0
H711 H 0.36678 0.85242 0.75947 0.0
H712 H 0.30526 0.80792 0.74779 0.0
H713 H 0.32715 0.8795 0.74996 0.0
H714 H 0.32751 0.8894 0.71745 0.0
H715 H 0.30524 0.8176 0.71517 0.0
H716 H 0.36671 0.86843 0.7047 0.0
H717 H 0.53174 0.85225 0.72846 0.0
H718 H 0.48411 0.7509 0.72813 0.0
H719 H 0.32726 0.7447 0.73088 0.0
C720 C 0.43345 0.96897 0.73679 0.0
C721 C 0.4865 0.01424 0.73952 0.0
C722 C 0.5328 0.00757 0.7378 0.0
C723 C 0.52667 0.95644 0.73371 0.0
C724 C 0.47383 0.91208 0.73155 0.0
C725 C 0.42793 0.91771 0.73304 0.0
C726 C 0.37574 0.86231 0.73198 0.0
C727 C 0.34176 0.84982 0.74827 0.0
C728 C 0.34181 0.85927 0.71639 0.0
C729 C 0.39953 0.82479 0.73011 0.0
C730 C 0.45616 0.85439 0.72959 0.0
C731 C 0.48735 0.82861 0.72867 0.0
C732 C 0.45997 0.77102 0.72849 0.0
C733 C 0.40202 0.73982 0.72945 0.0
C734 C 0.37161 0.76734 0.73003 0.0
H735 H 0.62789 0.5715 0.58821 0.0
H736 H 0.45141 0.46583 0.58532 0.0
H737 H 0.4609 0.38543 0.59202 0.0
H738 H 0.65845 0.4823 0.56699 0.0
H739 H 0.71876 0.4978 0.5791 0.0
H740 H 0.69797 0.54829 0.57701 0.0
H741 H 0.69504 0.55527 0.60955 0.0
H742 H 0.71619 0.50493 0.61174 0.0
H743 H 0.65418 0.49406 0.62181 0.0
H744 H 0.48991 0.31494 0.59635 0.0
H745 H 0.53686 0.26049 0.5969 0.0
H746 H 0.69437 0.41129 0.59567 0.0
C747 C 0.5913 0.53166 0.58957 0.0
C748 C 0.53884 0.52487 0.58656 0.0
C749 C 0.49192 0.47185 0.58777 0.0
C750 C 0.49689 0.42596 0.5916 0.0
C751 C 0.54921 0.43352 0.59404 0.0
C752 C 0.59566 0.48506 0.59308 0.0
C753 C 0.64726 0.48111 0.59442 0.0
C754 C 0.68266 0.5037 0.57843 0.0
C755 C 0.6801 0.51059 0.61033 0.0
C756 C 0.62257 0.41946 0.59588 0.0
C757 C 0.56596 0.39272 0.59593 0.0
C758 C 0.53429 0.3355 0.5965 0.0
C759 C 0.56122 0.30484 0.59681 0.0
C760 C 0.61919 0.33146 0.59632 0.0
C761 C 0.64994 0.38956 0.59609 0.0
H762 H 0.96841 0.38568 0.92221 0.0
H763 H 0.03842 0.56202 0.92151 0.0
H764 H 0.94872 0.55084 0.9296 0.0
H765 H 0.84713 0.35673 0.9023 0.0
H766 H 0.80303 0.29485 0.91386 0.0
H767 H 0.87444 0.31645 0.91117 0.0
H768 H 0.88614 0.3153 0.94358 0.0
H769 H 0.81452 0.29339 0.94637 0.0
H770 H 0.86628 0.3542 0.95689 0.0
H771 H 0.84999 0.52078 0.93485 0.0
H772 H 0.74858 0.47372 0.93544 0.0
H773 H 0.7412 0.3167 0.93133 0.0
C774 C 0.96503 0.42179 0.92435 0.0
C775 C 0.01031 0.47475 0.92158 0.0
C776 C 1.00416 0.52116 0.92378 0.0
C777 C 0.95346 0.51521 0.92842 0.0
C778 C 0.90904 0.46246 0.93063 0.0
C779 C 0.9142 0.41647 0.92864 0.0
C780 C 0.85866 0.36448 0.92976 0.0
C781 C 0.84504 0.3312 0.91329 0.0
C782 C 0.85627 0.3298 0.94507 0.0
C783 C 0.82157 0.38852 0.93223 0.0
C784 C 0.85152 0.44505 0.93303 0.0
C785 C 0.82609 0.47645 0.93443 0.0
C786 C 0.76846 0.44941 0.93476 0.0
C787 C 0.73694 0.3916 0.93345 0.0
C788 C 0.76411 0.36095 0.93246 0.0
H789 H 0.51865 0.023 0.24528 0.0
H790 H 0.37775 0.01386 0.27051 0.0
H791 H 0.43556 0.11086 0.27948 0.0
H792 H 0.6237 0.11484 0.27599 0.0
H793 H 0.6736 0.15077 0.25966 0.0
H794 H 0.62263 0.07948 0.25693 0.0
H795 H 0.59167 0.10283 0.22886 0.0
H796 H 0.64232 0.17406 0.2315 0.0
H797 H 0.57112 0.15394 0.22876 0.0
H798 H 0.50626 0.21182 0.28253 0.0
H799 H 0.58346 0.30692 0.28026 0.0
H800 H 0.6795 0.24946 0.25379 0.0
C801 C 0.49997 0.04093 0.25297 0.0
C802 C 0.4435 0.01068 0.25723 0.0
C803 C 0.42086 0.03599 0.2672 0.0
C804 C 0.45347 0.09108 0.27233 0.0
C805 C 0.50875 0.11999 0.26756 0.0
C806 C 0.5319 0.09549 0.25824 0.0
C807 C 0.5913 0.13604 0.25385 0.0
C808 C 0.6301 0.11927 0.26211 0.0
C809 C 0.59955 0.14206 0.2346 0.0
C810 C 0.59786 0.18793 0.26174 0.0
C811 C 0.54979 0.17769 0.26966 0.0
C812 C 0.54428 0.21994 0.27666 0.0
C813 C 0.5884 0.27388 0.27529 0.0
C814 C 0.6378 0.28546 0.2671 0.0
C815 C 0.64288 0.24167 0.26054 0.0
loop_
_geom_bond_atom_site_label_1
_geom_bond_atom_site_label_2
_geom_bond_distance
_geom_bond_site_symmetry_2
_ccdc_geom_bond_type
Co0 O1 2.216 . S
Co0 O2 2.091 . S
Co0 O4 2.004 . S
Co0 O10 2.021 . S
Co0 O12 2.137 . S
Co0 O13 2.244 . S
O1 Co0 2.216 . S
O1 C8 1.247 . S
O2 Co0 2.091 . S
O2 C8 1.261 . S
C3 O12 1.247 . S
C3 O13 1.272 . S
O4 Co0 2.004 . S
O4 C9 1.259 . S
Co5 O6 2.061 . S
Co5 O11 2.052 . S
Co5 O13 2.135 . S
O6 Co5 2.061 . S
O6 C9 1.235 . S
C7 O10 1.238 . S
C7 O11 1.241 . S
C8 O1 1.247 . S
C8 O2 1.261 . S
C9 O4 1.259 . S
C9 O6 1.235 . S
O10 Co0 2.021 . S
O10 C7 1.238 . S
O11 Co5 2.052 . S
O11 C7 1.241 . S
O12 Co0 2.137 . S
O12 C3 1.247 . S
O13 Co0 2.244 . S
O13 C3 1.272 . S
O13 Co5 2.135 . S
Co14 O15 2.216 . S
Co14 O16 2.091 . S
Co14 O18 2.004 . S
Co14 O24 2.021 . S
Co14 O26 2.137 . S
Co14 O27 2.244 . S
O15 Co14 2.216 . S
O15 C22 1.247 . S
O16 Co14 2.091 . S
O16 C22 1.261 . S
C17 O26 1.247 . S
C17 O27 1.272 . S
O18 Co14 2.004 . S
O18 C23 1.259 . S
Co19 O20 2.061 . S
Co19 O25 2.052 . S
Co19 O27 2.135 . S
O20 Co19 2.061 . S
O20 C23 1.235 . S
C21 O24 1.238 . S
C21 O25 1.241 . S
C22 O15 1.247 . S
C22 O16 1.261 . S
C23 O18 1.259 . S
C23 O20 1.235 . S
O24 Co14 2.021 . S
O24 C21 1.238 . S
O25 Co19 2.052 . S
O25 C21 1.241 . S
O26 Co14 2.137 . S
O26 C17 1.247 . S
O27 Co14 2.244 . S
O27 C17 1.272 . S
O27 Co19 2.135 . S
Co28 O29 2.216 . S
Co28 O30 2.091 . S
Co28 O32 2.004 . S
Co28 O38 2.021 . S
Co28 O40 2.137 . S
Co28 O41 2.244 . S
O29 Co28 2.216 . S
O29 C36 1.247 . S
O30 Co28 2.091 . S
O30 C36 1.261 . S
C31 O40 1.247 . S
C31 O41 1.272 . S
O32 Co28 2.004 . S
O32 C37 1.259 . S
Co33 O34 2.061 . S
Co33 O39 2.052 . S
Co33 O41 2.135 . S
O34 Co33 2.061 . S
O34 C37 1.235 . S
C35 O38 1.238 . S
C35 O39 1.241 . S
C36 O29 1.247 . S
C36 O30 1.261 . S
C37 O32 1.259 . S
C37 O34 1.235 . S
O38 Co28 2.021 . S
O38 C35 1.238 . S
O39 Co33 2.052 . S
O39 C35 1.241 . S
O40 Co28 2.137 . S
O40 C31 1.247 . S
O41 Co28 2.244 . S
O41 C31 1.272 . S
O41 Co33 2.135 . S
Co42 O43 2.216 . S
Co42 O44 2.091 . S
Co42 O46 2.004 . S
Co42 O52 2.021 . S
Co42 O54 2.137 . S
Co42 O55 2.244 . S
O43 Co42 2.216 . S
O43 C50 1.247 . S
O44 Co42 2.091 . S
O44 C50 1.261 . S
C45 O54 1.247 . S
C45 O55 1.272 . S
O46 Co42 2.004 . S
O46 C51 1.259 . S
Co47 O48 2.061 . S
Co47 O53 2.052 . S
Co47 O55 2.135 . S
O48 Co47 2.061 . S
O48 C51 1.235 . S
C49 O52 1.238 . S
C49 O53 1.241 . S
C50 O43 1.247 . S
C50 O44 1.261 . S
C51 O46 1.259 . S
C51 O48 1.235 . S
O52 Co42 2.021 . S
O52 C49 1.238 . S
O53 Co47 2.052 . S
O53 C49 1.241 . S
O54 Co42 2.137 . S
O54 C45 1.247 . S
O55 Co42 2.244 . S
O55 C45 1.272 . S
O55 Co47 2.135 . S
Co56 O57 2.216 . S
Co56 O58 2.091 . S
Co56 O60 2.004 . S
Co56 O66 2.021 . S
Co56 O68 2.137 . S
Co56 O69 2.244 . S
O57 Co56 2.216 . S
O57 C64 1.247 . S
O58 Co56 2.091 . S
O58 C64 1.261 . S
C59 O68 1.247 . S
C59 O69 1.272 . S
O60 Co56 2.004 . S
O60 C65 1.259 . S
Co61 O62 2.061 . S
Co61 O67 2.052 . S
Co61 O69 2.135 . S
O62 Co61 2.061 . S
O62 C65 1.235 . S
C63 O66 1.238 . S
C63 O67 1.241 . S
C64 O57 1.247 . S
C64 O58 1.261 . S
C65 O60 1.259 . S
C65 O62 1.235 . S
O66 Co56 2.021 . S
O66 C63 1.238 . S
O67 Co61 2.052 . S
O67 C63 1.241 . S
O68 Co56 2.137 . S
O68 C59 1.247 . S
O69 Co56 2.244 . S
O69 C59 1.272 . S
O69 Co61 2.135 . S
Co70 O71 2.216 . S
Co70 O72 2.091 . S
Co70 O74 2.004 . S
Co70 O80 2.021 . S
Co70 O82 2.137 . S
Co70 O83 2.244 . S
O71 Co70 2.216 . S
O71 C78 1.247 . S
O72 Co70 2.091 . S
O72 C78 1.261 . S
C73 O82 1.247 . S
C73 O83 1.272 . S
O74 Co70 2.004 . S
O74 C79 1.259 . S
Co75 O76 2.061 . S
Co75 O81 2.052 . S
Co75 O83 2.135 . S
O76 Co75 2.061 . S
O76 C79 1.235 . S
C77 O80 1.238 . S
C77 O81 1.241 . S
C78 O71 1.247 . S
C78 O72 1.261 . S
C79 O74 1.259 . S
C79 O76 1.235 . S
O80 Co70 2.021 . S
O80 C77 1.238 . S
O81 Co75 2.052 . S
O81 C77 1.241 . S
O82 Co70 2.137 . S
O82 C73 1.247 . S
O83 Co70 2.244 . S
O83 C73 1.272 . S
O83 Co75 2.135 . S
Co84 O85 2.216 . S
Co84 O86 2.091 . S
Co84 O88 2.004 . S
Co84 O94 2.021 . S
Co84 O96 2.137 . S
Co84 O97 2.244 . S
O85 Co84 2.216 . S
O85 C92 1.247 . S
O86 Co84 2.091 . S
O86 C92 1.261 . S
C87 O96 1.247 . S
C87 O97 1.272 . S
O88 Co84 2.004 . S
O88 C93 1.259 . S
Co89 O90 2.061 . S
Co89 O95 2.052 . S
Co89 O97 2.135 . S
O90 Co89 2.061 . S
O90 C93 1.235 . S
C91 O94 1.238 . S
C91 O95 1.241 . S
C92 O85 1.247 . S
C92 O86 1.261 . S
C93 O88 1.259 . S
C93 O90 1.235 . S
O94 Co84 2.021 . S
O94 C91 1.238 . S
O95 Co89 2.052 . S
O95 C91 1.241 . S
O96 Co84 2.137 . S
O96 C87 1.247 . S
O97 Co84 2.244 . S
O97 C87 1.272 . S
O97 Co89 2.135 . S
Co98 O99 2.216 . S
Co98 O100 2.091 . S
Co98 O102 2.004 . S
Co98 O108 2.021 . S
Co98 O110 2.137 . S
Co98 O111 2.244 . S
O99 Co98 2.216 . S
O99 C106 1.247 . S
O100 Co98 2.091 . S
O100 C106 1.261 . S
C101 O110 1.247 . S
C101 O111 1.272 . S
O102 Co98 2.004 . S
O102 C107 1.259 . S
Co103 O104 2.061 . S
Co103 O109 2.052 . S
Co103 O111 2.135 . S
O104 Co103 2.061 . S
O104 C107 1.235 . S
C105 O108 1.238 . S
C105 O109 1.241 . S
C106 O99 1.247 . S
C106 O100 1.261 . S
C107 O102 1.259 . S
C107 O104 1.235 . S
O108 Co98 2.021 . S
O108 C105 1.238 . S
O109 Co103 2.052 . S
O109 C105 1.241 . S
O110 Co98 2.137 . S
O110 C101 1.247 . S
O111 Co98 2.244 . S
O111 C101 1.272 . S
O111 Co103 2.135 . S
Co112 O113 2.216 . S
Co112 O114 2.091 . S
Co112 O116 2.004 . S
Co112 O122 2.021 . S
Co112 O124 2.137 . S
Co112 O125 2.244 . S
O113 Co112 2.216 . S
O113 C120 1.247 . S
O114 Co112 2.091 . S
O114 C120 1.261 . S
C115 O124 1.247 . S
C115 O125 1.272 . S
O116 Co112 2.004 . S
O116 C121 1.259 . S
Co117 O118 2.061 . S
Co117 O123 2.052 . S
Co117 O125 2.135 . S
O118 Co117 2.061 . S
O118 C121 1.235 . S
C119 O122 1.238 . S
C119 O123 1.241 . S
C120 O113 1.247 . S
C120 O114 1.261 . S
C121 O116 1.259 . S
C121 O118 1.235 . S
O122 Co112 2.021 . S
O122 C119 1.238 . S
O123 Co117 2.052 . S
O123 C119 1.241 . S
O124 Co112 2.137 . S
O124 C115 1.247 . S
O125 Co112 2.244 . S
O125 C115 1.272 . S
O125 Co117 2.135 . S
Co126 O127 2.216 . S
Co126 O128 2.091 . S
Co126 O130 2.004 . S
Co126 O136 2.021 . S
Co126 O138 2.137 . S
Co126 O139 2.244 . S
O127 Co126 2.216 . S
O127 C134 1.247 . S
O128 Co126 2.091 . S
O128 C134 1.261 . S
C129 O138 1.247 . S
C129 O139 1.272 . S
O130 Co126 2.004 . S
O130 C135 1.259 . S
Co131 O132 2.061 . S
Co131 O137 2.052 . S
Co131 O139 2.135 . S
O132 Co131 2.061 . S
O132 C135 1.235 . S
C133 O136 1.238 . S
C133 O137 1.241 . S
C134 O127 1.247 . S
C134 O128 1.261 . S
C135 O130 1.259 . S
C135 O132 1.235 . S
O136 Co126 2.021 . S
O136 C133 1.238 . S
O137 Co131 2.052 . S
O137 C133 1.241 . S
O138 Co126 2.137 . S
O138 C129 1.247 . S
O139 Co126 2.244 . S
O139 C129 1.272 . S
O139 Co131 2.135 . S
Co140 O141 2.216 . S
Co140 O142 2.091 . S
Co140 O144 2.004 . S
Co140 O150 2.021 . S
Co140 O152 2.137 . S
Co140 O153 2.244 . S
O141 Co140 2.216 . S
O141 C148 1.247 . S
O142 Co140 2.091 . S
O142 C148 1.261 . S
C143 O152 1.247 . S
C143 O153 1.272 . S
O144 Co140 2.004 . S
O144 C149 1.259 . S
Co145 O146 2.061 . S
Co145 O151 2.052 . S
Co145 O153 2.135 . S
O146 Co145 2.061 . S
O146 C149 1.235 . S
C147 O150 1.238 . S
C147 O151 1.241 . S
C148 O141 1.247 . S
C148 O142 1.261 . S
C149 O144 1.259 . S
C149 O146 1.235 . S
O150 Co140 2.021 . S
O150 C147 1.238 . S
O151 Co145 2.052 . S
O151 C147 1.241 . S
O152 Co140 2.137 . S
O152 C143 1.247 . S
O153 Co140 2.244 . S
O153 C143 1.272 . S
O153 Co145 2.135 . S
Co154 O155 2.216 . S
Co154 O156 2.091 . S
Co154 O158 2.004 . S
Co154 O164 2.021 . S
Co154 O166 2.137 . S
Co154 O167 2.244 . S
O155 Co154 2.216 . S
O155 C162 1.247 . S
O156 Co154 2.091 . S
O156 C162 1.261 . S
C157 O166 1.247 . S
C157 O167 1.272 . S
O158 Co154 2.004 . S
O158 C163 1.259 . S
Co159 O160 2.061 . S
Co159 O165 2.052 . S
Co159 O167 2.135 . S
O160 Co159 2.061 . S
O160 C163 1.235 . S
C161 O164 1.238 . S
C161 O165 1.241 . S
C162 O155 1.247 . S
C162 O156 1.261 . S
C163 O158 1.259 . S
C163 O160 1.235 . S
O164 Co154 2.021 . S
O164 C161 1.238 . S
O165 Co159 2.052 . S
O165 C161 1.241 . S
O166 Co154 2.137 . S
O166 C157 1.247 . S
O167 Co154 2.244 . S
O167 C157 1.272 . S
O167 Co159 2.135 . S
H168 C180 0.930 . S
H169 C182 0.930 . S
H170 C183 0.930 . S
H171 C187 0.959 . S
H172 C187 0.959 . S
H173 C187 0.961 . S
H174 C188 0.960 . S
H175 C188 0.961 . S
H176 C188 0.959 . S
H177 C191 0.929 . S
H178 C192 0.931 . S
H179 C194 0.930 . S
C180 H168 0.930 . S
C180 C181 1.399 . S
C180 C185 1.399 . S
C181 C180 1.399 . S
C181 C182 1.376 . S
C182 H169 0.930 . S
C182 C181 1.376 . S
C182 C183 1.388 . S
C183 H170 0.930 . S
C183 C182 1.388 . S
C183 C184 1.390 . S
C184 C183 1.390 . S
C184 C185 1.394 . S
C184 C190 1.465 . S
C185 C180 1.399 . S
C185 C184 1.394 . S
C185 C186 1.516 . S
C186 C185 1.516 . S
C186 C187 1.502 . S
C186 C188 1.561 . S
C186 C189 1.526 . S
C187 H171 0.959 . S
C187 H172 0.959 . S
C187 H173 0.961 . S
C187 C186 1.502 . S
C188 H174 0.960 . S
C188 H175 0.961 . S
C188 H176 0.959 . S
C188 C186 1.561 . S
C189 C186 1.526 . S
C189 C190 1.396 . S
C189 C194 1.390 1_556 S
C190 C184 1.465 . S
C190 C189 1.396 . S
C190 C191 1.399 1_556 S
C191 H177 0.929 . S
C191 C190 1.399 1_554 S
C191 C192 1.385 . S
C192 H178 0.931 . S
C192 C191 1.385 . S
C192 C193 1.389 . S
C193 C192 1.389 . S
C193 C194 1.387 . S
C194 H179 0.930 . S
C194 C189 1.390 1_554 S
C194 C193 1.387 . S
H195 C207 0.930 . S
H196 C209 0.930 . S
H197 C210 0.930 . S
H198 C214 0.959 . S
H199 C214 0.959 . S
H200 C214 0.961 . S
H201 C215 0.960 . S
H202 C215 0.961 . S
H203 C215 0.959 . S
H204 C218 0.929 . S
H205 C219 0.931 . S
H206 C221 0.930 . S
C207 H195 0.930 . S
C207 C208 1.399 . S
C207 C212 1.399 . S
C208 C207 1.399 . S
C208 C209 1.376 . S
C209 H196 0.930 . S
C209 C208 1.376 . S
C209 C210 1.388 . S
C210 H197 0.930 . S
C210 C209 1.388 . S
C210 C211 1.390 . S
C211 C210 1.390 . S
C211 C212 1.394 . S
C211 C217 1.465 . S
C212 C207 1.399 . S
C212 C211 1.394 . S
C212 C213 1.516 . S
C213 C212 1.516 . S
C213 C214 1.502 . S
C213 C215 1.561 . S
C213 C216 1.526 . S
C214 H198 0.959 . S
C214 H199 0.959 . S
C214 H200 0.961 . S
C214 C213 1.502 . S
C215 H201 0.960 . S
C215 H202 0.961 . S
C215 H203 0.959 . S
C215 C213 1.561 . S
C216 C213 1.526 . S
C216 C217 1.396 . S
C216 C221 1.390 . S
C217 C211 1.465 . S
C217 C216 1.396 . S
C217 C218 1.399 . S
C218 H204 0.929 . S
C218 C217 1.399 . S
C218 C219 1.385 . S
C219 H205 0.931 . S
C219 C218 1.385 . S
C219 C220 1.389 . S
C220 C219 1.389 . S
C220 C221 1.387 . S
C221 H206 0.930 . S
C221 C216 1.390 . S
C221 C220 1.387 . S
H222 C234 0.930 . S
H223 C236 0.930 . S
H224 C237 0.930 . S
H225 C241 0.959 . S
H226 C241 0.959 . S
H227 C241 0.961 . S
H228 C242 0.960 . S
H229 C242 0.961 . S
H230 C242 0.959 . S
H231 C245 0.929 . S
H232 C246 0.931 . S
H233 C248 0.930 . S
C234 H222 0.930 . S
C234 C235 1.399 . S
C234 C239 1.399 . S
C235 C234 1.399 . S
C235 C236 1.376 . S
C236 H223 0.930 . S
C236 C235 1.376 . S
C236 C237 1.388 . S
C237 H224 0.930 . S
C237 C236 1.388 . S
C237 C238 1.390 . S
C238 C237 1.390 . S
C238 C239 1.394 . S
C238 C244 1.465 . S
C239 C234 1.399 . S
C239 C238 1.394 . S
C239 C240 1.516 . S
C240 C239 1.516 . S
C240 C241 1.502 . S
C240 C242 1.561 . S
C240 C243 1.526 . S
C241 H225 0.959 . S
C241 H226 0.959 . S
C241 H227 0.961 . S
C241 C240 1.502 . S
C242 H228 0.960 . S
C242 H229 0.961 . S
C242 H230 0.959 . S
C242 C240 1.561 . S
C243 C240 1.526 . S
C243 C244 1.396 . S
C243 C248 1.390 . S
C244 C238 1.465 . S
C244 C243 1.396 . S
C244 C245 1.399 . S
C245 H231 0.929 . S
C245 C244 1.399 . S
C245 C246 1.385 . S
C246 H232 0.931 . S
C246 C245 1.385 . S
C246 C247 1.389 . S
C247 C246 1.389 . S
C247 C248 1.387 . S
C248 H233 0.930 . S
C248 C243 1.390 . S
C248 C247 1.387 . S
H249 C261 0.930 . S
H250 C263 0.930 . S
H251 C264 0.930 . S
H252 C268 0.959 . S
H253 C268 0.959 . S
H254 C268 0.961 . S
H255 C269 0.960 . S
H256 C269 0.961 . S
H257 C269 0.959 . S
H258 C272 0.929 . S
H259 C273 0.931 . S
H260 C275 0.930 . S
C261 H249 0.930 . S
C261 C262 1.399 . S
C261 C266 1.399 . S
C262 C261 1.399 . S
C262 C263 1.376 . S
C263 H250 0.930 . S
C263 C262 1.376 . S
C263 C264 1.388 . S
C264 H251 0.930 . S
C264 C263 1.388 . S
C264 C265 1.390 . S
C265 C264 1.390 . S
C265 C266 1.394 . S
C265 C271 1.465 . S
C266 C261 1.399 . S
C266 C265 1.394 . S
C266 C267 1.516 . S
C267 C266 1.516 . S
C267 C268 1.502 . S
C267 C269 1.561 . S
C267 C270 1.526 . S
C268 H252 0.959 . S
C268 H253 0.959 . S
C268 H254 0.961 . S
C268 C267 1.502 . S
C269 H255 0.960 . S
C269 H256 0.961 . S
C269 H257 0.959 . S
C269 C267 1.561 . S
C270 C267 1.526 . S
C270 C271 1.396 . S
C270 C275 1.390 1_554 S
C271 C265 1.465 . S
C271 C270 1.396 . S
C271 C272 1.399 1_554 S
C272 H258 0.929 . S
C272 C271 1.399 1_556 S
C272 C273 1.385 . S
C273 H259 0.931 . S
C273 C272 1.385 . S
C273 C274 1.389 . S
C274 C273 1.389 . S
C274 C275 1.387 . S
C275 H260 0.930 . S
C275 C270 1.390 1_556 S
C275 C274 1.387 . S
H276 C288 0.930 . S
H277 C290 0.930 . S
H278 C291 0.930 . S
H279 C295 0.959 . S
H280 C295 0.959 . S
H281 C295 0.961 . S
H282 C296 0.960 . S
H283 C296 0.961 . S
H284 C296 0.959 . S
H285 C299 0.929 . S
H286 C300 0.931 . S
H287 C302 0.930 . S
C288 H276 0.930 . S
C288 C289 1.399 . S
C288 C293 1.399 . S
C289 C288 1.399 . S
C289 C290 1.376 . S
C290 H277 0.930 . S
C290 C289 1.376 . S
C290 C291 1.388 . S
C291 H278 0.930 . S
C291 C290 1.388 . S
C291 C292 1.390 . S
C292 C291 1.390 . S
C292 C293 1.394 . S
C292 C298 1.465 . S
C293 C288 1.399 . S
C293 C292 1.394 . S
C293 C294 1.516 . S
C294 C293 1.516 . S
C294 C295 1.502 . S
C294 C296 1.561 . S
C294 C297 1.526 . S
C295 H279 0.959 . S
C295 H280 0.959 . S
C295 H281 0.961 . S
C295 C294 1.502 . S
C296 H282 0.960 . S
C296 H283 0.961 . S
C296 H284 0.959 . S
C296 C294 1.561 . S
C297 C294 1.526 . S
C297 C298 1.396 . S
C297 C302 1.390 . S
C298 C292 1.465 . S
C298 C297 1.396 . S
C298 C299 1.399 . S
C299 H285 0.929 . S
C299 C298 1.399 . S
C299 C300 1.385 . S
C300 H286 0.931 . S
C300 C299 1.385 . S
C300 C301 1.389 . S
C301 C300 1.389 . S
C301 C302 1.387 . S
C302 H287 0.930 . S
C302 C297 1.390 . S
C302 C301 1.387 . S
H303 C315 0.930 . S
H304 C317 0.930 . S
H305 C318 0.930 . S
H306 C322 0.959 . S
H307 C322 0.959 . S
H308 C322 0.961 . S
H309 C323 0.960 . S
H310 C323 0.961 . S
H311 C323 0.959 . S
H312 C326 0.929 . S
H313 C327 0.931 . S
H314 C329 0.930 . S
C315 H303 0.930 . S
C315 C316 1.399 . S
C315 C320 1.399 . S
C316 C315 1.399 . S
C316 C317 1.376 . S
C317 H304 0.930 . S
C317 C316 1.376 . S
C317 C318 1.388 . S
C318 H305 0.930 . S
C318 C317 1.388 . S
C318 C319 1.390 . S
C319 C318 1.390 . S
C319 C320 1.394 . S
C319 C325 1.465 . S
C320 C315 1.399 . S
C320 C319 1.394 . S
C320 C321 1.516 . S
C321 C320 1.516 . S
C321 C322 1.502 . S
C321 C323 1.561 . S
C321 C324 1.526 . S
C322 H306 0.959 . S
C322 H307 0.959 . S
C322 H308 0.961 . S
C322 C321 1.502 . S
C323 H309 0.960 . S
C323 H310 0.961 . S
C323 H311 0.959 . S
C323 C321 1.561 . S
C324 C321 1.526 . S
C324 C325 1.396 . S
C324 C329 1.390 . S
C325 C319 1.465 . S
C325 C324 1.396 . S
C325 C326 1.399 . S
C326 H312 0.929 . S
C326 C325 1.399 . S
C326 C327 1.385 . S
C327 H313 0.931 . S
C327 C326 1.385 . S
C327 C328 1.389 . S
C328 C327 1.389 . S
C328 C329 1.387 . S
C329 H314 0.930 . S
C329 C324 1.390 . S
C329 C328 1.387 . S
H330 C342 0.930 . S
H331 C344 0.930 . S
H332 C345 0.930 . S
H333 C349 0.959 . S
H334 C349 0.959 . S
H335 C349 0.961 . S
H336 C350 0.960 . S
H337 C350 0.961 . S
H338 C350 0.959 . S
H339 C353 0.929 . S
H340 C354 0.931 . S
H341 C356 0.930 . S
C342 H330 0.930 . S
C342 C343 1.399 . S
C342 C347 1.399 . S
C343 C342 1.399 . S
C343 C344 1.376 . S
C344 H331 0.930 . S
C344 C343 1.376 . S
C344 C345 1.388 . S
C345 H332 0.930 . S
C345 C344 1.388 . S
C345 C346 1.390 . S
C346 C345 1.390 . S
C346 C347 1.394 . S
C346 C352 1.465 . S
C347 C342 1.399 . S
C347 C346 1.394 . S
C347 C348 1.516 . S
C348 C347 1.516 . S
C348 C349 1.502 . S
C348 C350 1.561 . S
C348 C351 1.526 . S
C349 H333 0.959 . S
C349 H334 0.959 . S
C349 H335 0.961 . S
C349 C348 1.502 . S
C350 H336 0.960 . S
C350 H337 0.961 . S
C350 H338 0.959 . S
C350 C348 1.561 . S
C351 C348 1.526 . S
C351 C352 1.396 . S
C351 C356 1.390 . S
C352 C346 1.465 . S
C352 C351 1.396 . S
C352 C353 1.399 . S
C353 H339 0.929 . S
C353 C352 1.399 . S
C353 C354 1.385 . S
C354 H340 0.931 . S
C354 C353 1.385 . S
C354 C355 1.389 . S
C355 C354 1.389 . S
C355 C356 1.387 . S
C356 H341 0.930 . S
C356 C351 1.390 . S
C356 C355 1.387 . S
H357 C369 0.930 . S
H358 C371 0.930 . S
H359 C372 0.930 . S
H360 C376 0.959 . S
H361 C376 0.959 . S
H362 C376 0.961 . S
H363 C377 0.960 . S
H364 C377 0.961 . S
H365 C377 0.959 . S
H366 C380 0.929 . S
H367 C381 0.931 . S
H368 C383 0.930 . S
C369 H357 0.930 . S
C369 C370 1.399 . S
C369 C374 1.399 . S
C370 C369 1.399 . S
C370 C371 1.376 . S
C371 H358 0.930 . S
C371 C370 1.376 . S
C371 C372 1.388 . S
C372 H359 0.930 . S
C372 C371 1.388 . S
C372 C373 1.390 . S
C373 C372 1.390 . S
C373 C374 1.394 . S
C373 C379 1.465 . S
C374 C369 1.399 . S
C374 C373 1.394 . S
C374 C375 1.516 . S
C375 C374 1.516 . S
C375 C376 1.502 . S
C375 C377 1.561 . S
C375 C378 1.526 . S
C376 H360 0.959 . S
C376 H361 0.959 . S
C376 H362 0.961 . S
C376 C375 1.502 . S
C377 H363 0.960 . S
C377 H364 0.961 . S
C377 H365 0.959 . S
C377 C375 1.561 . S
C378 C375 1.526 . S
C378 C379 1.396 . S
C378 C383 1.390 . S
C379 C373 1.465 . S
C379 C378 1.396 . S
C379 C380 1.399 . S
C380 H366 0.929 . S
C380 C379 1.399 . S
C380 C381 1.385 . S
C381 H367 0.931 . S
C381 C380 1.385 . S
C381 C382 1.389 . S
C382 C381 1.389 . S
C382 C383 1.387 . S
C383 H368 0.930 . S
C383 C378 1.390 . S
C383 C382 1.387 . S
H384 C396 0.930 . S
H385 C398 0.930 . S
H386 C399 0.930 . S
H387 C403 0.959 . S
H388 C403 0.959 . S
H389 C403 0.961 . S
H390 C404 0.960 . S
H391 C404 0.961 . S
H392 C404 0.959 . S
H393 C407 0.929 . S
H394 C408 0.931 . S
H395 C410 0.930 . S
C396 H384 0.930 . S
C396 C397 1.399 . S
C396 C401 1.399 . S
C397 C396 1.399 . S
C397 C398 1.376 . S
C398 H385 0.930 . S
C398 C397 1.376 . S
C398 C399 1.388 . S
C399 H386 0.930 . S
C399 C398 1.388 . S
C399 C400 1.390 . S
C400 C399 1.390 . S
C400 C401 1.394 . S
C400 C406 1.465 . S
C401 C396 1.399 . S
C401 C400 1.394 . S
C401 C402 1.516 . S
C402 C401 1.516 . S
C402 C403 1.502 . S
C402 C404 1.561 . S
C402 C405 1.526 . S
C403 H387 0.959 . S
C403 H388 0.959 . S
C403 H389 0.961 . S
C403 C402 1.502 . S
C404 H390 0.960 . S
C404 H391 0.961 . S
C404 H392 0.959 . S
C404 C402 1.561 . S
C405 C402 1.526 . S
C405 C406 1.396 . S
C405 C410 1.390 . S
C406 C400 1.465 . S
C406 C405 1.396 . S
C406 C407 1.399 . S
C407 H393 0.929 . S
C407 C406 1.399 . S
C407 C408 1.385 . S
C408 H394 0.931 . S
C408 C407 1.385 . S
C408 C409 1.389 . S
C409 C408 1.389 . S
C409 C410 1.387 . S
C410 H395 0.930 . S
C410 C405 1.390 . S
C410 C409 1.387 . S
H411 C423 0.930 . S
H412 C425 0.930 . S
H413 C426 0.930 . S
H414 C430 0.959 . S
H415 C430 0.959 . S
H416 C430 0.961 . S
H417 C431 0.960 . S
H418 C431 0.961 . S
H419 C431 0.959 . S
H420 C434 0.929 . S
H421 C435 0.931 . S
H422 C437 0.930 . S
C423 H411 0.930 . S
C423 C424 1.399 . S
C423 C428 1.399 . S
C424 C423 1.399 . S
C424 C425 1.376 . S
C425 H412 0.930 . S
C425 C424 1.376 . S
C425 C426 1.388 . S
C426 H413 0.930 . S
C426 C425 1.388 . S
C426 C427 1.390 . S
C427 C426 1.390 . S
C427 C428 1.394 . S
C427 C433 1.465 . S
C428 C423 1.399 . S
C428 C427 1.394 . S
C428 C429 1.516 . S
C429 C428 1.516 . S
C429 C430 1.502 . S
C429 C431 1.561 . S
C429 C432 1.526 . S
C430 H414 0.959 . S
C430 H415 0.959 . S
C430 H416 0.961 . S
C430 C429 1.502 . S
C431 H417 0.960 . S
C431 H418 0.961 . S
C431 H419 0.959 . S
C431 C429 1.561 . S
C432 C429 1.526 . S
C432 C433 1.396 . S
C432 C437 1.390 . S
C433 C427 1.465 . S
C433 C432 1.396 . S
C433 C434 1.399 . S
C434 H420 0.929 . S
C434 C433 1.399 . S
C434 C435 1.385 . S
C435 H421 0.931 . S
C435 C434 1.385 . S
C435 C436 1.389 . S
C436 C435 1.389 . S
C436 C437 1.387 . S
C437 H422 0.930 . S
C437 C432 1.390 . S
C437 C436 1.387 . S
H438 C450 0.930 . S
H439 C452 0.930 . S
H440 C453 0.930 . S
H441 C457 0.959 . S
H442 C457 0.959 . S
H443 C457 0.961 . S
H444 C458 0.960 . S
H445 C458 0.961 . S
H446 C458 0.959 . S
H447 C461 0.929 . S
H448 C462 0.931 . S
H449 C464 0.930 . S
C450 H438 0.930 . S
C450 C451 1.399 . S
C450 C455 1.399 . S
C451 C450 1.399 . S
C451 C452 1.376 . S
C452 H439 0.930 . S
C452 C451 1.376 . S
C452 C453 1.388 . S
C453 H440 0.930 . S
C453 C452 1.388 . S
C453 C454 1.390 . S
C454 C453 1.390 . S
C454 C455 1.394 . S
C454 C460 1.465 . S
C455 C450 1.399 . S
C455 C454 1.394 . S
C455 C456 1.516 . S
C456 C455 1.516 . S
C456 C457 1.502 . S
C456 C458 1.561 . S
C456 C459 1.526 . S
C457 H441 0.959 . S
C457 H442 0.959 . S
C457 H443 0.961 . S
C457 C456 1.502 . S
C458 H444 0.960 . S
C458 H445 0.961 . S
C458 H446 0.959 . S
C458 C456 1.561 . S
C459 C456 1.526 . S
C459 C460 1.396 . S
C459 C464 1.390 . S
C460 C454 1.465 . S
C460 C459 1.396 . S
C460 C461 1.399 . S
C461 H447 0.929 . S
C461 C460 1.399 . S
C461 C462 1.385 . S
C462 H448 0.931 . S
C462 C461 1.385 . S
C462 C463 1.389 . S
C463 C462 1.389 . S
C463 C464 1.387 . S
C464 H449 0.930 . S
C464 C459 1.390 . S
C464 C463 1.387 . S
H465 C477 0.930 . S
H466 C479 0.930 . S
H467 C480 0.930 . S
H468 C484 0.959 . S
H469 C484 0.959 . S
H470 C484 0.961 . S
H471 C485 0.960 . S
H472 C485 0.961 . S
H473 C485 0.959 . S
H474 C488 0.929 . S
H475 C489 0.931 . S
H476 C491 0.930 . S
C477 H465 0.930 . S
C477 C478 1.399 . S
C477 C482 1.399 . S
C478 C477 1.399 . S
C478 C479 1.376 . S
C479 H466 0.930 . S
C479 C478 1.376 . S
C479 C480 1.388 . S
C480 H467 0.930 . S
C480 C479 1.388 . S
C480 C481 1.390 . S
C481 C480 1.390 . S
C481 C482 1.394 . S
C481 C487 1.465 . S
C482 C477 1.399 . S
C482 C481 1.394 . S
C482 C483 1.516 . S
C483 C482 1.516 . S
C483 C484 1.502 . S
C483 C485 1.561 . S
C483 C486 1.526 . S
C484 H468 0.959 . S
C484 H469 0.959 . S
C484 H470 0.961 . S
C484 C483 1.502 . S
C485 H471 0.960 . S
C485 H472 0.961 . S
C485 H473 0.959 . S
C485 C483 1.561 . S
C486 C483 1.526 . S
C486 C487 1.396 . S
C486 C491 1.390 . S
C487 C481 1.465 . S
C487 C486 1.396 . S
C487 C488 1.399 . S
C488 H474 0.929 . S
C488 C487 1.399 . S
C488 C489 1.385 . S
C489 H475 0.931 . S
C489 C488 1.385 . S
C489 C490 1.389 . S
C490 C489 1.389 . S
C490 C491 1.387 . S
C491 H476 0.930 . S
C491 C486 1.390 . S
C491 C490 1.387 . S
H492 C504 0.930 . S
H493 C506 0.930 . S
H494 C507 0.930 . S
H495 C511 0.959 . S
H496 C511 0.959 1_455 S
H497 C511 0.961 . S
H498 C512 0.960 1_655 S
H499 C512 0.961 . S
H500 C512 0.959 . S
H501 C515 0.929 . S
H502 C516 0.931 . S
H503 C518 0.930 . S
C504 H492 0.930 . S
C504 C505 1.399 . S
C504 C509 1.399 . S
C505 C504 1.399 . S
C505 C506 1.376 . S
C506 H493 0.930 . S
C506 C505 1.376 . S
C506 C507 1.388 . S
C507 H494 0.930 . S
C507 C506 1.388 . S
C507 C508 1.390 . S
C508 C507 1.390 . S
C508 C509 1.394 . S
C508 C514 1.465 1_655 S
C509 C504 1.399 . S
C509 C508 1.394 . S
C509 C510 1.516 . S
C510 C509 1.516 . S
C510 C511 1.502 . S
C510 C512 1.561 1_655 S
C510 C513 1.526 1_655 S
C511 H495 0.959 . S
C511 H496 0.959 1_655 S
C511 H497 0.961 . S
C511 C510 1.502 . S
C512 H498 0.960 1_455 S
C512 H499 0.961 . S
C512 H500 0.959 . S
C512 C510 1.561 1_455 S
C513 C510 1.526 1_455 S
C513 C514 1.396 . S
C513 C518 1.390 . S
C514 C508 1.465 1_455 S
C514 C513 1.396 . S
C514 C515 1.399 . S
C515 H501 0.929 . S
C515 C514 1.399 . S
C515 C516 1.385 . S
C516 H502 0.931 . S
C516 C515 1.385 . S
C516 C517 1.389 . S
C517 C516 1.389 . S
C517 C518 1.387 . S
C518 H503 0.930 . S
C518 C513 1.390 . S
C518 C517 1.387 . S
H519 C531 0.930 . S
H520 C533 0.930 . S
H521 C534 0.930 . S
H522 C538 0.959 . S
H523 C538 0.959 1_565 S
H524 C538 0.961 . S
H525 C539 0.960 . S
H526 C539 0.961 1_565 S
H527 C539 0.959 1_565 S
H528 C542 0.929 . S
H529 C543 0.931 . S
H530 C545 0.930 . S
C531 H519 0.930 . S
C531 C532 1.399 . S
C531 C536 1.399 . S
C532 C531 1.399 . S
C532 C533 1.376 . S
C533 H520 0.930 . S
C533 C532 1.376 . S
C533 C534 1.388 . S
C534 H521 0.930 . S
C534 C533 1.388 . S
C534 C535 1.390 . S
C535 C534 1.390 . S
C535 C536 1.394 . S
C535 C541 1.465 1_545 S
C536 C531 1.399 . S
C536 C535 1.394 . S
C536 C537 1.516 . S
C537 C536 1.516 . S
C537 C538 1.502 . S
C537 C539 1.561 . S
C537 C540 1.526 1_545 S
C538 H522 0.959 . S
C538 H523 0.959 1_545 S
C538 H524 0.961 . S
C538 C537 1.502 . S
C539 H525 0.960 . S
C539 H526 0.961 1_545 S
C539 H527 0.959 1_545 S
C539 C537 1.561 . S
C540 C537 1.526 1_565 S
C540 C541 1.396 . S
C540 C545 1.390 . S
C541 C535 1.465 1_565 S
C541 C540 1.396 . S
C541 C542 1.399 . S
C542 H528 0.929 . S
C542 C541 1.399 . S
C542 C543 1.385 . S
C543 H529 0.931 . S
C543 C542 1.385 . S
C543 C544 1.389 . S
C544 C543 1.389 . S
C544 C545 1.387 . S
C545 H530 0.930 . S
C545 C540 1.390 . S
C545 C544 1.387 . S
H546 C558 0.930 . S
H547 C560 0.930 . S
H548 C561 0.930 . S
H549 C565 0.959 . S
H550 C565 0.959 . S
H551 C565 0.961 . S
H552 C566 0.960 . S
H553 C566 0.961 . S
H554 C566 0.959 . S
H555 C569 0.929 . S
H556 C570 0.931 . S
H557 C572 0.930 . S
C558 H546 0.930 . S
C558 C559 1.399 . S
C558 C563 1.399 . S
C559 C558 1.399 . S
C559 C560 1.376 . S
C560 H547 0.930 . S
C560 C559 1.376 . S
C560 C561 1.388 . S
C561 H548 0.930 . S
C561 C560 1.388 . S
C561 C562 1.390 . S
C562 C561 1.390 . S
C562 C563 1.394 . S
C562 C568 1.465 . S
C563 C558 1.399 . S
C563 C562 1.394 . S
C563 C564 1.516 . S
C564 C563 1.516 . S
C564 C565 1.502 . S
C564 C566 1.561 . S
C564 C567 1.526 . S
C565 H549 0.959 . S
C565 H550 0.959 . S
C565 H551 0.961 . S
C565 C564 1.502 . S
C566 H552 0.960 . S
C566 H553 0.961 . S
C566 H554 0.959 . S
C566 C564 1.561 . S
C567 C564 1.526 . S
C567 C568 1.396 . S
C567 C572 1.390 . S
C568 C562 1.465 . S
C568 C567 1.396 . S
C568 C569 1.399 . S
C569 H555 0.929 . S
C569 C568 1.399 . S
C569 C570 1.385 . S
C570 H556 0.931 . S
C570 C569 1.385 . S
C570 C571 1.389 . S
C571 C570 1.389 . S
C571 C572 1.387 . S
C572 H557 0.930 . S
C572 C567 1.390 . S
C572 C571 1.387 . S
H573 C585 0.930 . S
H574 C587 0.930 . S
H575 C588 0.930 . S
H576 C592 0.959 . S
H577 C592 0.959 . S
H578 C592 0.961 1_545 S
H579 C593 0.960 . S
H580 C593 0.961 1_565 S
H581 C593 0.959 . S
H582 C596 0.929 . S
H583 C597 0.931 . S
H584 C599 0.930 . S
C585 H573 0.930 . S
C585 C586 1.399 . S
C585 C590 1.399 . S
C586 C585 1.399 . S
C586 C587 1.376 . S
C587 H574 0.930 . S
C587 C586 1.376 . S
C587 C588 1.388 . S
C588 H575 0.930 . S
C588 C587 1.388 . S
C588 C589 1.390 . S
C589 C588 1.390 . S
C589 C590 1.394 . S
C589 C595 1.465 1_545 S
C590 C585 1.399 . S
C590 C589 1.394 . S
C590 C591 1.516 . S
C591 C590 1.516 . S
C591 C592 1.502 1_545 S
C591 C593 1.561 . S
C591 C594 1.526 1_545 S
C592 H576 0.959 . S
C592 H577 0.959 . S
C592 H578 0.961 1_565 S
C592 C591 1.502 1_565 S
C593 H579 0.960 . S
C593 H580 0.961 1_545 S
C593 H581 0.959 . S
C593 C591 1.561 . S
C594 C591 1.526 1_565 S
C594 C595 1.396 . S
C594 C599 1.390 . S
C595 C589 1.465 1_565 S
C595 C594 1.396 . S
C595 C596 1.399 . S
C596 H582 0.929 . S
C596 C595 1.399 . S
C596 C597 1.385 . S
C597 H583 0.931 . S
C597 C596 1.385 . S
C597 C598 1.389 . S
C598 C597 1.389 . S
C598 C599 1.387 . S
C599 H584 0.930 . S
C599 C594 1.390 . S
C599 C598 1.387 . S
H600 C612 0.930 . S
H601 C614 0.930 . S
H602 C615 0.930 . S
H603 C619 0.959 . S
H604 C619 0.959 . S
H605 C619 0.961 . S
H606 C620 0.960 . S
H607 C620 0.961 . S
H608 C620 0.959 . S
H609 C623 0.929 . S
H610 C624 0.931 . S
H611 C626 0.930 . S
C612 H600 0.930 . S
C612 C613 1.399 . S
C612 C617 1.399 . S
C613 C612 1.399 . S
C613 C614 1.376 . S
C614 H601 0.930 . S
C614 C613 1.376 . S
C614 C615 1.388 . S
C615 H602 0.930 . S
C615 C614 1.388 . S
C615 C616 1.390 . S
C616 C615 1.390 . S
C616 C617 1.394 . S
C616 C622 1.465 . S
C617 C612 1.399 . S
C617 C616 1.394 . S
C617 C618 1.516 . S
C618 C617 1.516 . S
C618 C619 1.502 . S
C618 C620 1.561 . S
C618 C621 1.526 . S
C619 H603 0.959 . S
C619 H604 0.959 . S
C619 H605 0.961 . S
C619 C618 1.502 . S
C620 H606 0.960 . S
C620 H607 0.961 . S
C620 H608 0.959 . S
C620 C618 1.561 . S
C621 C618 1.526 . S
C621 C622 1.396 . S
C621 C626 1.390 . S
C622 C616 1.465 . S
C622 C621 1.396 . S
C622 C623 1.399 . S
C623 H609 0.929 . S
C623 C622 1.399 . S
C623 C624 1.385 . S
C624 H610 0.931 . S
C624 C623 1.385 . S
C624 C625 1.389 . S
C625 C624 1.389 . S
C625 C626 1.387 . S
C626 H611 0.930 . S
C626 C621 1.390 . S
C626 C625 1.387 . S
H627 C639 0.930 . S
H628 C641 0.930 . S
H629 C642 0.930 . S
H630 C646 0.959 . S
H631 C646 0.959 1_655 S
H632 C646 0.961 . S
H633 C647 0.960 1_455 S
H634 C647 0.961 . S
H635 C647 0.959 . S
H636 C650 0.929 . S
H637 C651 0.931 . S
H638 C653 0.930 . S
C639 H627 0.930 . S
C639 C640 1.399 . S
C639 C644 1.399 . S
C640 C639 1.399 . S
C640 C641 1.376 . S
C641 H628 0.930 . S
C641 C640 1.376 . S
C641 C642 1.388 . S
C642 H629 0.930 . S
C642 C641 1.388 . S
C642 C643 1.390 . S
C643 C642 1.390 . S
C643 C644 1.394 . S
C643 C649 1.465 1_455 S
C644 C639 1.399 . S
C644 C643 1.394 . S
C644 C645 1.516 . S
C645 C644 1.516 . S
C645 C646 1.502 . S
C645 C647 1.561 1_455 S
C645 C648 1.526 1_455 S
C646 H630 0.959 . S
C646 H631 0.959 1_455 S
C646 H632 0.961 . S
C646 C645 1.502 . S
C647 H633 0.960 1_655 S
C647 H634 0.961 . S
C647 H635 0.959 . S
C647 C645 1.561 1_655 S
C648 C645 1.526 1_655 S
C648 C649 1.396 . S
C648 C653 1.390 . S
C649 C643 1.465 1_655 S
C649 C648 1.396 . S
C649 C650 1.399 . S
C650 H636 0.929 . S
C650 C649 1.399 . S
C650 C651 1.385 . S
C651 H637 0.931 . S
C651 C650 1.385 . S
C651 C652 1.389 . S
C652 C651 1.389 . S
C652 C653 1.387 . S
C653 H638 0.930 . S
C653 C648 1.390 . S
C653 C652 1.387 . S
H654 C666 0.930 . S
H655 C668 0.930 . S
H656 C669 0.930 . S
H657 C673 0.959 . S
H658 C673 0.959 . S
H659 C673 0.961 . S
H660 C674 0.960 . S
H661 C674 0.961 . S
H662 C674 0.959 . S
H663 C677 0.929 . S
H664 C678 0.931 . S
H665 C680 0.930 . S
C666 H654 0.930 . S
C666 C667 1.399 . S
C666 C671 1.399 . S
C667 C666 1.399 . S
C667 C668 1.376 . S
C668 H655 0.930 . S
C668 C667 1.376 . S
C668 C669 1.388 . S
C669 H656 0.930 . S
C669 C668 1.388 . S
C669 C670 1.390 . S
C670 C669 1.390 . S
C670 C671 1.394 . S
C670 C676 1.465 . S
C671 C666 1.399 . S
C671 C670 1.394 . S
C671 C672 1.516 . S
C672 C671 1.516 . S
C672 C673 1.502 . S
C672 C674 1.561 . S
C672 C675 1.526 . S
C673 H657 0.959 . S
C673 H658 0.959 . S
C673 H659 0.961 . S
C673 C672 1.502 . S
C674 H660 0.960 . S
C674 H661 0.961 . S
C674 H662 0.959 . S
C674 C672 1.561 . S
C675 C672 1.526 . S
C675 C676 1.396 . S
C675 C680 1.390 . S
C676 C670 1.465 . S
C676 C675 1.396 . S
C676 C677 1.399 . S
C677 H663 0.929 . S
C677 C676 1.399 . S
C677 C678 1.385 . S
C678 H664 0.931 . S
C678 C677 1.385 . S
C678 C679 1.389 . S
C679 C678 1.389 . S
C679 C680 1.387 . S
C680 H665 0.930 . S
C680 C675 1.390 . S
C680 C679 1.387 . S
H681 C693 0.930 . S
H682 C695 0.930 . S
H683 C696 0.930 . S
H684 C700 0.959 . S
H685 C700 0.959 . S
H686 C700 0.961 . S
H687 C701 0.960 . S
H688 C701 0.961 . S
H689 C701 0.959 . S
H690 C704 0.929 . S
H691 C705 0.931 . S
H692 C707 0.930 . S
C693 H681 0.930 . S
C693 C694 1.399 . S
C693 C698 1.399 . S
C694 C693 1.399 . S
C694 C695 1.376 . S
C695 H682 0.930 . S
C695 C694 1.376 . S
C695 C696 1.388 . S
C696 H683 0.930 . S
C696 C695 1.388 . S
C696 C697 1.390 . S
C697 C696 1.390 . S
C697 C698 1.394 . S
C697 C703 1.465 . S
C698 C693 1.399 . S
C698 C697 1.394 . S
C698 C699 1.516 . S
C699 C698 1.516 . S
C699 C700 1.502 . S
C699 C701 1.561 . S
C699 C702 1.526 . S
C700 H684 0.959 . S
C700 H685 0.959 . S
C700 H686 0.961 . S
C700 C699 1.502 . S
C701 H687 0.960 . S
C701 H688 0.961 . S
C701 H689 0.959 . S
C701 C699 1.561 . S
C702 C699 1.526 . S
C702 C703 1.396 . S
C702 C707 1.390 . S
C703 C697 1.465 . S
C703 C702 1.396 . S
C703 C704 1.399 . S
C704 H690 0.929 . S
C704 C703 1.399 . S
C704 C705 1.385 . S
C705 H691 0.931 . S
C705 C704 1.385 . S
C705 C706 1.389 . S
C706 C705 1.389 . S
C706 C707 1.387 . S
C707 H692 0.930 . S
C707 C702 1.390 . S
C707 C706 1.387 . S
H708 C720 0.930 . S
H709 C722 0.930 . S
H710 C723 0.930 . S
H711 C727 0.959 . S
H712 C727 0.959 . S
H713 C727 0.961 . S
H714 C728 0.960 . S
H715 C728 0.961 . S
H716 C728 0.959 . S
H717 C731 0.929 . S
H718 C732 0.931 . S
H719 C734 0.930 . S
C720 H708 0.930 . S
C720 C721 1.399 . S
C720 C725 1.399 . S
C721 C720 1.399 . S
C721 C722 1.376 . S
C722 H709 0.930 . S
C722 C721 1.376 . S
C722 C723 1.388 . S
C723 H710 0.930 . S
C723 C722 1.388 . S
C723 C724 1.390 . S
C724 C723 1.390 . S
C724 C725 1.394 . S
C724 C730 1.465 . S
C725 C720 1.399 . S
C725 C724 1.394 . S
C725 C726 1.516 . S
C726 C725 1.516 . S
C726 C727 1.502 . S
C726 C728 1.561 . S
C726 C729 1.526 . S
C727 H711 0.959 . S
C727 H712 0.959 . S
C727 H713 0.961 . S
C727 C726 1.502 . S
C728 H714 0.960 . S
C728 H715 0.961 . S
C728 H716 0.959 . S
C728 C726 1.561 . S
C729 C726 1.526 . S
C729 C730 1.396 . S
C729 C734 1.390 . S
C730 C724 1.465 . S
C730 C729 1.396 . S
C730 C731 1.399 . S
C731 H717 0.929 . S
C731 C730 1.399 . S
C731 C732 1.385 . S
C732 H718 0.931 . S
C732 C731 1.385 . S
C732 C733 1.389 . S
C733 C732 1.389 . S
C733 C734 1.387 . S
C734 H719 0.930 . S
C734 C729 1.390 . S
C734 C733 1.387 . S
H735 C747 0.930 . S
H736 C749 0.930 . S
H737 C750 0.930 . S
H738 C754 0.959 . S
H739 C754 0.959 . S
H740 C754 0.961 . S
H741 C755 0.960 . S
H742 C755 0.961 . S
H743 C755 0.959 . S
H744 C758 0.929 . S
H745 C759 0.931 . S
H746 C761 0.930 . S
C747 H735 0.930 . S
C747 C748 1.399 . S
C747 C752 1.399 . S
C748 C747 1.399 . S
C748 C749 1.376 . S
C749 H736 0.930 . S
C749 C748 1.376 . S
C749 C750 1.388 . S
C750 H737 0.930 . S
C750 C749 1.388 . S
C750 C751 1.390 . S
C751 C750 1.390 . S
C751 C752 1.394 . S
C751 C757 1.465 . S
C752 C747 1.399 . S
C752 C751 1.394 . S
C752 C753 1.516 . S
C753 C752 1.516 . S
C753 C754 1.502 . S
C753 C755 1.561 . S
C753 C756 1.526 . S
C754 H738 0.959 . S
C754 H739 0.959 . S
C754 H740 0.961 . S
C754 C753 1.502 . S
C755 H741 0.960 . S
C755 H742 0.961 . S
C755 H743 0.959 . S
C755 C753 1.561 . S
C756 C753 1.526 . S
C756 C757 1.396 . S
C756 C761 1.390 . S
C757 C751 1.465 . S
C757 C756 1.396 . S
C757 C758 1.399 . S
C758 H744 0.929 . S
C758 C757 1.399 . S
C758 C759 1.385 . S
C759 H745 0.931 . S
C759 C758 1.385 . S
C759 C760 1.389 . S
C760 C759 1.389 . S
C760 C761 1.387 . S
C761 H746 0.930 . S
C761 C756 1.390 . S
C761 C760 1.387 . S
H762 C774 0.930 . S
H763 C776 0.930 1_455 S
H764 C777 0.930 . S
H765 C781 0.959 . S
H766 C781 0.959 . S
H767 C781 0.961 . S
H768 C782 0.960 . S
H769 C782 0.961 . S
H770 C782 0.959 . S
H771 C785 0.929 . S
H772 C786 0.931 . S
H773 C788 0.930 . S
C774 H762 0.930 . S
C774 C775 1.399 . S
C774 C779 1.399 . S
C775 C774 1.399 . S
C775 C776 1.376 . S
C776 H763 0.930 1_655 S
C776 C775 1.376 . S
C776 C777 1.388 . S
C777 H764 0.930 . S
C777 C776 1.388 . S
C777 C778 1.390 . S
C778 C777 1.390 . S
C778 C779 1.394 . S
C778 C784 1.465 . S
C779 C774 1.399 . S
C779 C778 1.394 . S
C779 C780 1.516 . S
C780 C779 1.516 . S
C780 C781 1.502 . S
C780 C782 1.561 . S
C780 C783 1.526 . S
C781 H765 0.959 . S
C781 H766 0.959 . S
C781 H767 0.961 . S
C781 C780 1.502 . S
C782 H768 0.960 . S
C782 H769 0.961 . S
C782 H770 0.959 . S
C782 C780 1.561 . S
C783 C780 1.526 . S
C783 C784 1.396 . S
C783 C788 1.390 . S
C784 C778 1.465 . S
C784 C783 1.396 . S
C784 C785 1.399 . S
C785 H771 0.929 . S
C785 C784 1.399 . S
C785 C786 1.385 . S
C786 H772 0.931 . S
C786 C785 1.385 . S
C786 C787 1.389 . S
C787 C786 1.389 . S
C787 C788 1.387 . S
C788 H773 0.930 . S
C788 C783 1.390 . S
C788 C787 1.387 . S
H789 C801 0.930 . S
H790 C803 0.930 . S
H791 C804 0.930 . S
H792 C808 0.959 . S
H793 C808 0.959 . S
H794 C808 0.961 . S
H795 C809 0.960 . S
H796 C809 0.961 . S
H797 C809 0.959 . S
H798 C812 0.929 . S
H799 C813 0.931 . S
H800 C815 0.930 . S
C801 H789 0.930 . S
C801 C802 1.399 . S
C801 C806 1.399 . S
C802 C801 1.399 . S
C802 C803 1.376 . S
C803 H790 0.930 . S
C803 C802 1.376 . S
C803 C804 1.388 . S
C804 H791 0.930 . S
C804 C803 1.388 . S
C804 C805 1.390 . S
C805 C804 1.390 . S
C805 C806 1.394 . S
C805 C811 1.465 . S
C806 C801 1.399 . S
C806 C805 1.394 . S
C806 C807 1.516 . S
C807 C806 1.516 . S
C807 C808 1.502 . S
C807 C809 1.561 . S
C807 C810 1.526 . S
C808 H792 0.959 . S
C808 H793 0.959 . S
C808 H794 0.961 . S
C808 C807 1.502 . S
C809 H795 0.960 . S
C809 H796 0.961 . S
C809 H797 0.959 . S
C809 C807 1.561 . S
C810 C807 1.526 . S
C810 C811 1.396 . S
C810 C815 1.390 . S
C811 C805 1.465 . S
C811 C810 1.396 . S
C811 C812 1.399 . S
C812 H798 0.929 . S
C812 C811 1.399 . S
C812 C813 1.385 . S
C813 H799 0.931 . S
C813 C812 1.385 . S
C813 C814 1.389 . S
C814 C813 1.389 . S
C814 C815 1.387 . S
C815 H800 0.930 . S
C815 C810 1.390 . S
C815 C814 1.387 . S
C181 C147 1.593 . S
C193 C7 1.492 . S
C208 C21 1.552 . S
C220 C161 1.553 . S
C235 C35 1.559 . S
C247 C91 1.550 . S
C262 C49 1.597 . S
C274 C105 1.486 . S
C289 C119 1.557 . S
C301 C63 1.548 . S
C316 C77 1.594 . S
C328 C133 1.492 . S
C343 C115 1.640 . S
C355 C3 1.399 . S
C370 C17 1.597 . S
C382 C129 1.509 . S
C397 C31 1.519 . S
C409 C143 1.591 . S
C424 C45 1.626 . S
C436 C157 1.443 . S
C451 C87 1.601 . S
C463 C59 1.500 . S
C478 C101 1.508 . S
C490 C73 1.598 . S
C505 C51 1.396 . S
C517 C9 1.381 . S
C532 C23 1.401 . S
C544 C65 1.376 . S
C559 C79 1.359 . S
C571 C37 1.405 . S
C586 C135 1.357 . S
C598 C93 1.407 . S
C613 C149 1.368 . S
C625 C107 1.395 . S
C640 C121 1.397 . S
C652 C163 1.380 . S
C667 C50 1.399 . S
C679 C8 1.402 . S
C694 C22 1.399 1_455 S
C706 C64 1.402 . S
C721 C78 1.398 1_565 S
C733 C36 1.401 . S
C748 C92 1.399 . S
C760 C134 1.403 . S
C775 C148 1.400 1_655 S
C787 C106 1.403 . S
C802 C120 1.404 1_545 S
C814 C162 1.402 . S
