# Generated by pormake.
# Topology rob, (6)-cn, num edge types: 1
# Building blocks:
#     Node 0, Type 0, BuildingBlock: BETDEL_clean_sbu_0, # of connection points: 6
#     Node 1, Type 0, BuildingBlock: BETDEL_clean_sbu_0, # of connection points: 6
#     Node 2, Type 0, BuildingBlock: BETDEL_clean_sbu_0, # of connection points: 6
#     Node 3, Type 0, BuildingBlock: BETDEL_clean_sbu_0, # of connection points: 6
#     Edge 4, Type (0, 0), BuildingBlock: FUNLAD_clean_linker_1, # of connection points: 2
#     Edge 5, Type (0, 0), BuildingBlock: FUNLAD_clean_linker_1, # of connection points: 2
#     Edge 6, Type (0, 0), BuildingBlock: FUNLAD_clean_linker_1, # of connection points: 2
#     Edge 7, Type (0, 0), BuildingBlock: FUNLAD_clean_linker_1, # of connection points: 2
#     Edge 8, Type (0, 0), BuildingBlock: FUNLAD_clean_linker_1, # of connection points: 2
#     Edge 9, Type (0, 0), BuildingBlock: FUNLAD_clean_linker_1, # of connection points: 2
#     Edge 10, Type (0, 0), BuildingBlock: FUNLAD_clean_linker_1, # of connection points: 2
#     Edge 11, Type (0, 0), BuildingBlock: FUNLAD_clean_linker_1, # of connection points: 2
#     Edge 12, Type (0, 0), BuildingBlock: FUNLAD_clean_linker_1, # of connection points: 2
#     Edge 13, Type (0, 0), BuildingBlock: FUNLAD_clean_linker_1, # of connection points: 2
#     Edge 14, Type (0, 0), BuildingBlock: FUNLAD_clean_linker_1, # of connection points: 2
#     Edge 15, Type (0, 0), BuildingBlock: FUNLAD_clean_linker_1, # of connection points: 2
# Relax obj value: 0.075
# Max RMSD: 0.163
# Mean RMSD: 0.163
data_MOF--net-rob--node1-BETDEL_clean_sbu_0--edge1-FUNLAD_clean_linker_1
_symmetry_space_group_name_H-M    P1
_symmetry_Int_Tables_number       1
_symmetry_cell_setting            triclinic
loop_
_symmetry_equiv_pos_as_xyz
'x, y, z'
_cell_length_a     13.520062
_cell_length_b     27.354374
_cell_length_c     30.616419
_cell_angle_alpha  89.928883
_cell_angle_beta   104.74469
_cell_angle_gamma 89.934425
loop_
_atom_site_label
_atom_site_type_symbol
_atom_site_fract_x
_atom_site_fract_y
_atom_site_fract_z
_atom_type_partial_charge
Dy0 Dy 0.14329 0.28351 0.02419 0.0
C1 C 0.37736 0.23799 0.90107 0.0
C2 C 0.03722 0.28282 0.08987 0.0
Dy3 Dy 0.29719 0.25099 0.97438 0.0
O4 O 0.0983 0.31717 0.08371 0.0
O5 O 0.02817 0.25051 0.05799 0.0
O6 O 0.15847 0.36183 0.00891 0.0
O7 O 0.28926 0.31581 0.01735 0.0
C8 C 0.25333 0.35883 0.0071 0.0
C9 C 0.17731 0.17859 0.9928 0.0
O10 O 0.40313 0.24437 0.04309 0.0
O11 O 0.26597 0.24462 0.07545 0.0
O12 O 0.28528 0.22814 0.90312 0.0
O13 O 0.42985 0.25402 0.94035 0.0
O14 O 0.27216 0.17237 0.99215 0.0
O15 O 0.15029 0.22173 0.98072 0.0
O16 O 0.0479 0.29523 0.95285 0.0
O17 O 0.19615 0.30417 0.92929 0.0
C18 C 0.36446 0.23852 0.07839 0.0
C19 C 0.09621 0.30794 0.92179 0.0
Dy20 Dy 0.68707 0.7664 0.0298 0.0
C21 C 0.96153 0.71983 0.92501 0.0
C22 C 0.5682 0.77807 0.08955 0.0
Dy23 Dy 0.84977 0.73172 0.98761 0.0
O24 O 0.66167 0.79275 0.09558 0.0
O25 O 0.53729 0.75826 0.04979 0.0
O26 O 0.71405 0.84488 0.01245 0.0
O27 O 0.83735 0.79607 0.02759 0.0
C28 C 0.81042 0.83895 0.01441 0.0
C29 C 0.73822 0.65718 0.00587 0.0
O30 O 0.93729 0.72359 0.06068 0.0
O31 O 0.78553 0.71926 0.08211 0.0
O32 O 0.87174 0.70196 0.92258 0.0
O33 O 0.99392 0.74294 0.96323 0.0
O34 O 0.83476 0.65457 0.00727 0.0
O35 O 0.70194 0.69901 0.99155 0.0
O36 O 0.5946 0.7717 0.95882 0.0
O37 O 0.74182 0.77602 0.93417 0.0
C38 C 0.88548 0.71437 0.0913 0.0
C39 C 0.64142 0.78007 0.92668 0.0
Dy40 Dy 0.30524 0.76134 0.47459 0.0
C41 C 0.063 0.71985 0.5951 0.0
C42 C 0.40366 0.77127 0.407 0.0
Dy43 Dy 0.15871 0.72907 0.52649 0.0
O44 O 0.44969 0.76551 0.44954 0.0
O45 O 0.30588 0.77253 0.40207 0.0
O46 O 0.28204 0.84065 0.48986 0.0
O47 O 0.16 0.79205 0.48281 0.0
C48 C 0.18904 0.83528 0.49327 0.0
C49 C 0.26412 0.65365 0.50565 0.0
O50 O 0.05776 0.71775 0.45653 0.0
O51 O 0.19937 0.71163 0.42748 0.0
O52 O 0.02562 0.74364 0.55758 0.0
O53 O 0.14903 0.69989 0.59383 0.0
O54 O 0.17014 0.65126 0.50842 0.0
O55 O 0.30202 0.69587 0.51702 0.0
O56 O 0.41169 0.76616 0.54314 0.0
O57 O 0.27476 0.77455 0.57432 0.0
C58 C 0.1006 0.7067 0.42331 0.0
C59 C 0.37398 0.77643 0.5778 0.0
Dy60 Dy 0.86098 0.28387 0.48759 0.0
C61 C 0.60393 0.22936 0.60013 0.0
C62 C 0.9723 0.29178 0.42398 0.0
Dy63 Dy 0.70763 0.24617 0.53487 0.0
O64 O 0.94815 0.32767 0.44697 0.0
O65 O 0.94095 0.25108 0.43771 0.0
O66 O 0.84131 0.36027 0.50743 0.0
O67 O 0.7129 0.31316 0.49485 0.0
C68 C 0.74674 0.3554 0.50864 0.0
C69 C 0.83361 0.17727 0.51547 0.0
O70 O 0.60095 0.244 0.46603 0.0
O71 O 0.73446 0.2534 0.43204 0.0
O72 O 0.65096 0.19673 0.58231 0.0
O73 O 0.60808 0.27111 0.58039 0.0
O74 O 0.73769 0.17002 0.51345 0.0
O75 O 0.85886 0.22 0.52962 0.0
O76 O 0.96001 0.29042 0.55843 0.0
O77 O 0.81988 0.28574 0.58889 0.0
C78 C 0.63743 0.24353 0.42981 0.0
C79 C 0.91708 0.29532 0.59266 0.0
H80 H 0.72838 0.58089 0.02588 0.0
C81 C 0.68136 0.61228 0.01198 0.0
H82 H 0.5304 0.63599 0.9831 0.0
H83 H 0.37876 0.41898 0.92522 0.0
H84 H 0.36202 0.45819 0.85267 0.0
H85 H 0.42322 0.54243 0.84791 0.0
H86 H 0.50179 0.58804 0.91567 0.0
C87 C 0.5793 0.60622 0.99946 0.0
C88 C 0.53338 0.55651 1.00288 0.0
C89 C 0.48549 0.53037 0.96303 0.0
C90 C 0.4486 0.48178 0.9658 0.0
C91 C 0.40512 0.4563 0.92523 0.0
C92 C 0.39583 0.47823 0.8833 0.0
C93 C 0.43043 0.52565 0.88062 0.0
C94 C 0.47524 0.55147 0.91984 0.0
H95 H 0.26239 0.43523 0.98729 0.0
C96 C 0.30964 0.40362 1.00027 0.0
H97 H 0.46103 0.37959 0.02769 0.0
H98 H 0.61046 0.59702 0.08622 0.0
H99 H 0.62694 0.55785 0.15877 0.0
H100 H 0.56673 0.47342 0.1635 0.0
H101 H 0.48921 0.42761 0.09571 0.0
C102 C 0.41178 0.40948 0.01188 0.0
C103 C 0.45749 0.45923 0.00851 0.0
C104 C 0.50523 0.48537 0.04837 0.0
C105 C 0.54189 0.53402 0.04561 0.0
C106 C 0.58461 0.55962 0.0862 0.0
C107 C 0.59368 0.53771 0.12813 0.0
C108 C 0.55962 0.49019 0.1308 0.0
C109 C 0.51542 0.46426 0.09156 0.0
H110 H 0.27087 0.57747 0.48491 0.0
C111 C 0.31889 0.60857 0.49847 0.0
H112 H 0.47036 0.63123 0.52746 0.0
H113 H 0.60531 0.41223 0.58743 0.0
H114 H 0.61665 0.45116 0.65963 0.0
H115 H 0.55959 0.53638 0.66349 0.0
H116 H 0.48996 0.58307 0.5952 0.0
C117 C 0.4207 0.60187 0.511 0.0
C118 C 0.4649 0.55173 0.5083 0.0
C119 C 0.50794 0.52509 0.54851 0.0
C120 C 0.54304 0.47609 0.5463 0.0
C121 C 0.58101 0.44995 0.58711 0.0
C122 C 0.58708 0.47172 0.62881 0.0
C123 C 0.55475 0.51967 0.63098 0.0
C124 C 0.51507 0.5461 0.59146 0.0
H125 H 0.73249 0.43036 0.53077 0.0
C126 C 0.68736 0.39895 0.51568 0.0
H127 H 0.53882 0.37482 0.48327 0.0
H128 H 0.39453 0.59286 0.42468 0.0
H129 H 0.38353 0.55399 0.35248 0.0
H130 H 0.44227 0.46907 0.34861 0.0
H131 H 0.51293 0.42256 0.41687 0.0
C132 C 0.58544 0.40441 0.50121 0.0
C133 C 0.53798 0.45384 0.50383 0.0
C134 C 0.49434 0.48039 0.46361 0.0
C135 C 0.45881 0.52933 0.46582 0.0
C136 C 0.41978 0.5553 0.42501 0.0
C137 C 0.41375 0.53353 0.38331 0.0
C138 C 0.447 0.48575 0.38113 0.0
C139 C 0.48732 0.45942 0.42064 0.0
H140 H 0.02554 0.1483 0.99345 0.0
C141 C 0.10477 0.13856 0.99611 0.0
H142 H 0.21257 0.08139 1.00424 0.0
H143 H 0.97614 0.92342 0.08878 0.0
H144 H 0.11564 0.94394 0.15299 0.0
H145 H 0.23082 0.0128 0.14935 0.0
H146 H 0.20667 0.06185 0.08148 0.0
C147 C 0.13282 0.09096 1.0005 0.0
C148 C 0.05966 0.04986 1.00252 0.0
C149 C 0.07531 0.02055 0.04209 0.0
C150 C 0.00952 0.98005 0.04393 0.0
C151 C 0.02521 0.95334 0.08479 0.0
C152 C 0.10468 0.965 0.12215 0.0
C153 C 0.16949 1.0038 0.12012 0.0
C154 C 0.155 0.03152 0.08081 0.0
H155 H 0.96319 0.86947 0.0159 0.0
C156 C 0.88355 0.87913 0.01232 0.0
H157 H 0.7753 0.93614 1.00303 0.0
H158 H 0.01208 0.09438 0.91955 0.0
H159 H 0.87296 0.07374 0.85528 0.0
H160 H 0.75803 1.00476 0.85881 0.0
H161 H 0.78202 0.95572 0.92664 0.0
C162 C 0.85539 0.9267 0.00762 0.0
C163 C 0.9286 0.96785 0.00576 0.0
C164 C 0.91306 0.99713 0.96617 0.0
C165 C 0.97878 0.03766 0.96436 0.0
C166 C 0.96313 0.0644 0.92351 0.0
C167 C 0.88386 0.05268 0.88611 0.0
C168 C 0.8192 0.01382 0.88809 0.0
C169 C 0.83358 0.9861 0.92739 0.0
H170 H 0.98723 0.14758 0.51661 0.0
C171 C 0.9077 0.13773 0.51289 0.0
H172 H 0.79958 0.08076 0.5032 0.0
H173 H 0.03209 0.92223 0.41907 0.0
H174 H 0.89606 0.94532 0.35425 0.0
H175 H 0.78443 0.01578 0.35773 0.0
H176 H 0.80879 0.0639 0.42601 0.0
C177 C 0.87963 0.09023 0.50783 0.0
C178 C 0.95234 0.04905 0.5057 0.0
C179 C 0.93662 0.02044 0.46579 0.0
C180 C 1.00036 0.97914 0.46398 0.0
C181 C 0.98458 0.95289 0.42294 0.0
C182 C 0.90707 0.96598 0.38526 0.0
C183 C 0.84427 1.00567 0.3872 0.0
C184 C 0.85881 0.03284 0.42676 0.0
H185 H 0.03926 0.86782 0.4943 0.0
C186 C 0.11883 0.87633 0.49645 0.0
H187 H 0.23004 0.93179 0.50387 0.0
H188 H 1.00018 0.0925 0.58907 0.0
H189 H 0.13701 0.06969 0.65368 0.0
H190 H 0.24891 0.99939 0.65005 0.0
H191 H 0.22408 0.95115 0.58176 0.0
C192 C 0.14987 0.92343 0.50045 0.0
C193 C 0.07938 0.9656 0.50241 0.0
C194 C 0.09565 0.99439 0.54222 0.0
C195 C 0.03179 0.03567 0.54407 0.0
C196 C 0.04779 0.06193 0.58512 0.0
C197 C 0.12577 0.04899 0.62269 0.0
C198 C 0.18873 0.00937 0.62066 0.0
C199 C 0.17387 0.98212 0.58113 0.0
H200 H 0.48694 0.23275 0.38025 0.0
C201 C 0.56917 0.23417 0.38454 0.0
H202 H 0.69096 0.23207 0.35267 0.0
H203 H 0.37833 0.13371 0.17953 0.0
H204 H 0.39113 0.06112 0.22645 0.0
H205 H 0.47536 0.06448 0.30797 0.0
H206 H 0.54652 0.14057 0.34321 0.0
C207 C 0.60883 0.23002 0.34851 0.0
C208 C 0.54577 0.22891 0.30121 0.0
C209 C 0.50367 0.18437 0.28137 0.0
C210 C 0.45553 0.18241 0.23433 0.0
C211 C 0.41504 0.1373 0.21518 0.0
C212 C 0.4222 0.09535 0.24168 0.0
C213 C 0.46968 0.09724 0.28758 0.0
C214 C 0.5102 0.14111 0.30738 0.0
H215 H 0.5136 0.23041 0.12907 0.0
C216 C 0.4313 0.2289 0.1239 0.0
H217 H 0.3075 0.22113 0.15421 0.0
H218 H 0.62056 0.3198 0.3288 0.0
H219 H 0.60843 0.39231 0.28207 0.0
H220 H 0.52009 0.3897 0.20098 0.0
H221 H 0.44506 0.3146 0.16605 0.0
C222 C 0.38987 0.22389 0.15942 0.0
C223 C 0.4501 0.22493 0.20727 0.0
C224 C 0.49099 0.26972 0.22731 0.0
C225 C 0.53992 0.27152 0.27425 0.0
C226 C 0.58247 0.31637 0.2933 0.0
C227 C 0.57576 0.35834 0.2669 0.0
C228 C 0.52607 0.35686 0.22127 0.0
C229 C 0.48361 0.3133 0.20158 0.0
H230 H 0.43491 0.76309 0.11743 0.0
C231 C 0.51268 0.77699 0.1254 0.0
H232 H 0.63818 0.80307 0.17596 0.0
H233 H 0.41085 0.86275 0.32254 0.0
H234 H 0.44242 0.9426 0.29441 0.0
H235 H 0.50664 0.95062 0.22623 0.0
H236 H 0.53924 0.87878 0.18556 0.0
C237 C 0.56074 0.78871 0.1683 0.0
C238 C 0.51299 0.78343 0.20704 0.0
C239 C 0.49554 0.8257 0.23089 0.0
C240 C 0.45909 0.82109 0.27046 0.0
C241 C 0.44007 0.86405 0.2928 0.0
C242 C 0.45746 0.91016 0.2769 0.0
C243 C 0.49361 0.91468 0.2385 0.0
C244 C 0.5124 0.87312 0.21559 0.0
H245 H 0.53421 0.78287 0.37633 0.0
C246 C 0.45289 0.77514 0.36921 0.0
H247 H 0.31764 0.75819 0.31979 0.0
H248 H 0.54516 0.69415 0.17193 0.0
H249 H 0.50802 0.61474 0.19879 0.0
H250 H 0.43806 0.60717 0.26546 0.0
H251 H 0.40645 0.67916 0.30611 0.0
C252 C 0.39719 0.76912 0.32632 0.0
C253 C 0.44057 0.77414 0.28638 0.0
C254 C 0.45572 0.73191 0.26205 0.0
C255 C 0.49357 0.73641 0.22282 0.0
C256 C 0.5133 0.69325 0.20089 0.0
C257 C 0.49294 0.64727 0.21616 0.0
C258 C 0.45368 0.643 0.25373 0.0
C259 C 0.4356 0.68465 0.27666 0.0
H260 H 0.49868 0.78708 0.87225 0.0
C261 C 0.58128 0.79131 0.8804 0.0
H262 H 0.71092 0.80448 0.85544 0.0
H263 H 0.51875 0.70949 0.66631 0.0
H264 H 0.64259 0.64834 0.70131 0.0
H265 H 0.73598 0.65491 0.78142 0.0
H266 H 0.70537 0.72291 0.827 0.0
C267 C 0.6281 0.80146 0.84756 0.0
C268 C 0.57306 0.79927 0.79902 0.0
C269 C 0.5939 0.76001 0.77243 0.0
C270 C 0.54114 0.75663 0.72603 0.0
C271 C 0.55917 0.71532 0.70113 0.0
C272 C 0.62961 0.67947 0.72097 0.0
C273 C 0.68219 0.68318 0.76607 0.0
C274 C 0.6643 0.72263 0.79174 0.0
H275 H 0.52369 0.79212 0.62585 0.0
C276 C 0.44227 0.78757 0.62246 0.0
H277 H 0.32336 0.78318 0.65585 0.0
H278 H 0.52015 0.88062 0.83998 0.0
H279 H 0.3945 0.94186 0.80528 0.0
H280 H 0.3021 0.93603 0.72484 0.0
H281 H 0.33543 0.86926 0.67852 0.0
C282 C 0.40492 0.78754 0.65931 0.0
C283 C 0.46915 0.79325 0.70615 0.0
C284 C 0.44887 0.83265 0.73275 0.0
C285 C 0.50129 0.83581 0.77921 0.0
C286 C 0.48097 0.87597 0.80475 0.0
C287 C 0.40939 0.91151 0.7852 0.0
C288 C 0.35741 0.90824 0.73991 0.0
C289 C 0.37695 0.86954 0.71377 0.0
H290 H 0.59156 0.18593 0.6589 0.0
C291 C 0.57428 0.2215 0.64299 0.0
H292 H 0.52424 0.29314 0.64936 0.0
H293 H 0.43687 0.15365 0.81987 0.0
H294 H 0.34649 0.0969 0.76273 0.0
H295 H 0.32993 0.11296 0.68189 0.0
H296 H 0.40808 0.18435 0.65796 0.0
C297 C 0.53828 0.25727 0.665 0.0
C298 C 0.5306 0.25149 0.71305 0.0
C299 C 0.47577 0.21208 0.72612 0.0
C300 C 0.47577 0.20558 0.7724 0.0
C301 C 0.43183 0.16248 0.78493 0.0
C302 C 0.38073 0.12931 0.75253 0.0
C303 C 0.37207 0.13816 0.70706 0.0
C304 C 0.41862 0.17902 0.69383 0.0
H305 H 0.34252 0.23475 0.82756 0.0
C306 C 0.40606 0.23761 0.85745 0.0
H307 H 0.56583 0.24391 0.88134 0.0
H308 H 0.65063 0.32905 0.70186 0.0
H309 H 0.72957 0.38851 0.75817 0.0
H310 H 0.71264 0.3823 0.83624 0.0
H311 H 0.61681 0.31636 0.85853 0.0
C312 C 0.50152 0.24032 0.85191 0.0
C313 C 0.51912 0.24173 0.80509 0.0
C314 C 0.57339 0.2813 0.79204 0.0
C315 C 0.58061 0.2857 0.74641 0.0
C316 C 0.63895 0.32465 0.73527 0.0
C317 C 0.68541 0.35905 0.76741 0.0
C318 C 0.6761 0.35548 0.81139 0.0
C319 C 0.62088 0.31724 0.82375 0.0
H320 H 0.87568 0.68802 0.15618 0.0
C321 C 0.93162 0.69864 0.13789 0.0
H322 H 0.08525 0.71788 0.14474 0.0
H323 H 0.10355 0.797 0.34163 0.0
H324 H 0.18681 0.86025 0.30913 0.0
H325 H 0.21064 0.85182 0.23232 0.0
H326 H 0.15175 0.77967 0.18774 0.0
C327 C 0.02905 0.70429 0.16147 0.0
C328 C 0.05075 0.70169 0.21211 0.0
C329 C 0.0869 0.7438 0.23815 0.0
C330 C 0.07135 0.74886 0.28231 0.0
C331 C 0.10936 0.79142 0.30746 0.0
C332 C 0.15818 0.82815 0.2893 0.0
C333 C 0.17178 0.82337 0.24609 0.0
C334 C 0.13693 0.78178 0.22072 0.0
H335 H 0.07285 0.6525 0.371 0.0
C336 C 0.04313 0.68699 0.37988 0.0
H337 H 0.97851 0.75417 0.35567 0.0
H338 H 0.01006 0.60981 0.1787 0.0
H339 H 0.92132 0.54571 0.20914 0.0
H340 H 0.86723 0.55924 0.27935 0.0
H341 H 0.90576 0.6354 0.32062 0.0
C342 C 1.00131 0.71831 0.34646 0.0
C343 C 0.01819 0.71193 0.30019 0.0
C344 C 0.98819 0.66842 0.27502 0.0
C345 C 0.01106 0.66219 0.23253 0.0
C346 C 0.98908 0.61686 0.20998 0.0
C347 C 0.93878 0.57995 0.22713 0.0
C348 C 0.9088 0.58749 0.26676 0.0
C349 C 0.93257 0.6312 0.29045 0.0
H350 H 0.02397 0.33535 0.37319 0.0
C351 C 0.00681 0.29839 0.38203 0.0
H352 H 0.98191 0.22554 0.36002 0.0
H353 H 0.83449 0.28567 0.15379 0.0
H354 H 0.68449 0.24721 0.16741 0.0
H355 H 0.68413 0.21691 0.24313 0.0
H356 H 0.82908 0.23037 0.30684 0.0
C357 C 0.00369 0.26203 0.35198 0.0
C358 C 0.01238 0.27177 0.30471 0.0
C359 C 0.92676 0.26327 0.26753 0.0
C360 C 0.93015 0.27659 0.22279 0.0
C361 C 0.83952 0.27252 0.18756 0.0
C362 C 0.75192 0.25124 0.19506 0.0
C363 C 0.75115 0.2349 0.23785 0.0
C364 C 0.83592 0.24215 0.27403 0.0
H365 H 0.97691 0.23866 0.13764 0.0
C366 C 0.00773 0.27432 0.13273 0.0
H367 H 0.06298 0.34156 0.16197 0.0
H368 H 0.19473 0.28625 0.36678 0.0
H369 H 0.35178 0.31641 0.35215 0.0
H370 H 0.36031 0.33631 0.27472 0.0
H371 H 0.21397 0.32504 0.21134 0.0
C372 C 0.02939 0.30666 0.16717 0.0
C373 C 0.02227 0.29443 0.21434 0.0
C374 C 0.10963 0.3007 0.25141 0.0
C375 C 0.10444 0.28969 0.29644 0.0
C376 C 0.19352 0.29535 0.33227 0.0
C377 C 0.28452 0.31219 0.32432 0.0
C378 C 0.28955 0.32317 0.28069 0.0
C379 C 0.20404 0.31705 0.24455 0.0
H380 H 0.94747 0.35465 0.63968 0.0
C381 C 0.97042 0.31718 0.63585 0.0
H382 H 0.0116 0.2501 0.66743 0.0
H383 H 0.96546 0.41174 0.82961 0.0
H384 H 0.06346 0.47174 0.79878 0.0
H385 H 0.12908 0.45137 0.73281 0.0
H386 H 0.09292 0.37268 0.69586 0.0
C387 C 0.9952 0.28828 0.67257 0.0
C388 C 0.96696 0.30107 0.71561 0.0
C389 C 0.99853 0.34546 0.73911 0.0
C390 C 0.97053 0.35535 0.77999 0.0
C391 C 0.99095 0.40204 0.79994 0.0
C392 C 0.04643 0.43653 0.78256 0.0
C393 C 0.08307 0.42509 0.74532 0.0
C394 C 0.06037 0.37999 0.72394 0.0
H395 H 0.10063 0.33955 0.85841 0.0
C396 C 0.04633 0.32605 0.87635 0.0
H397 H 0.89797 0.30018 0.86976 0.0
H398 H 0.86353 0.22023 0.67355 0.0
H399 H 0.76667 0.16245 0.70564 0.0
H400 H 0.74118 0.17496 0.78173 0.0
H401 H 0.81211 0.2455 0.826 0.0
C402 C 0.95032 0.31675 0.85256 0.0
C403 C 0.92813 0.31783 0.80171 0.0
C404 C 0.88694 0.27597 0.77641 0.0
C405 C 0.90407 0.2682 0.73284 0.0
C406 C 0.85787 0.22707 0.70759 0.0
C407 C 0.80074 0.19375 0.7254 0.0
C408 C 0.78665 0.2007 0.76828 0.0
C409 C 0.829 0.24123 0.79363 0.0
H410 H 0.95081 0.73923 0.63426 0.0
C411 C 0.02274 0.72072 0.63583 0.0
H412 H 0.14913 0.68269 0.6765 0.0
H413 H 1.00018 0.79885 0.83767 0.0
H414 H 0.06036 0.8716 0.80756 0.0
H415 H 0.11825 0.86829 0.73745 0.0
H416 H 0.11288 0.79236 0.6962 0.0
C417 C 0.07773 0.70162 0.67524 0.0
C418 C 0.04473 0.70386 0.71828 0.0
C419 C 0.0521 0.74811 0.74309 0.0
C420 C 0.0241 0.7494 0.78504 0.0
C421 C 0.02535 0.79495 0.80709 0.0
C422 C 0.05901 0.83722 0.78994 0.0
C423 C 0.0912 0.83541 0.75036 0.0
C424 C 0.08751 0.79156 0.72696 0.0
H425 H 0.08848 0.73239 0.89195 0.0
C426 C 0.01035 0.7196 0.88674 0.0
H427 H 0.87783 0.69323 0.84121 0.0
H428 H 0.02355 0.61303 0.68001 0.0
H429 H 0.97146 0.53897 0.71168 0.0
H430 H 0.93017 0.54021 0.78563 0.0
H431 H 0.94195 0.61512 0.82863 0.0
C432 C 0.95517 0.70649 0.84514 0.0
C433 C 0.99388 0.70576 0.8034 0.0
C434 C 0.98894 0.66132 0.7789 0.0
C435 C 0.01382 0.66046 0.73638 0.0
C436 C 0.00658 0.61565 0.71261 0.0
C437 C 0.97655 0.57287 0.73033 0.0
C438 C 0.95332 0.57356 0.77196 0.0
C439 C 0.95975 0.61701 0.79617 0.0
loop_
_geom_bond_atom_site_label_1
_geom_bond_atom_site_label_2
_geom_bond_distance
_geom_bond_site_symmetry_2
_ccdc_geom_bond_type
Dy0 O4 2.398 . S
Dy0 O5 2.491 . S
Dy0 O6 2.403 . S
Dy0 O7 2.664 1_554 S
Dy0 O11 2.326 . S
Dy0 O15 2.310 . S
Dy0 O16 2.351 1_554 S
C1 O12 1.185 . S
C1 O13 1.355 . S
C2 O4 1.185 . S
C2 O5 1.355 . S
Dy3 O7 2.310 . S
Dy3 O10 2.351 1_556 S
Dy3 O12 2.398 . S
Dy3 O13 2.491 . S
Dy3 O14 2.403 . S
Dy3 O15 2.664 1_556 S
Dy3 O17 2.326 . S
O4 Dy0 2.398 . S
O4 C2 1.185 . S
O5 Dy0 2.491 . S
O5 C2 1.355 . S
O6 Dy0 2.403 . S
O6 C8 1.254 . S
O7 Dy0 2.664 1_556 S
O7 Dy3 2.310 . S
O7 C8 1.268 1_556 S
C8 O6 1.254 . S
C8 O7 1.268 1_554 S
C9 O14 1.254 . S
C9 O15 1.268 1_556 S
O10 Dy3 2.351 1_554 S
O10 C18 1.249 . S
O11 Dy0 2.326 . S
O11 C18 1.267 . S
O12 C1 1.185 . S
O12 Dy3 2.398 . S
O13 C1 1.355 . S
O13 Dy3 2.491 . S
O14 Dy3 2.403 . S
O14 C9 1.254 . S
O15 Dy0 2.310 . S
O15 Dy3 2.664 1_554 S
O15 C9 1.268 1_554 S
O16 Dy0 2.351 1_556 S
O16 C19 1.249 . S
O17 Dy3 2.326 . S
O17 C19 1.267 . S
C18 O10 1.249 . S
C18 O11 1.267 . S
C19 O16 1.249 . S
C19 O17 1.267 . S
Dy20 O24 2.398 . S
Dy20 O25 2.491 . S
Dy20 O26 2.403 . S
Dy20 O27 2.664 1_554 S
Dy20 O31 2.326 . S
Dy20 O35 2.310 . S
Dy20 O36 2.351 1_554 S
C21 O32 1.185 . S
C21 O33 1.355 . S
C22 O24 1.185 . S
C22 O25 1.355 . S
Dy23 O27 2.310 . S
Dy23 O30 2.351 1_556 S
Dy23 O32 2.398 . S
Dy23 O33 2.491 . S
Dy23 O34 2.403 . S
Dy23 O35 2.664 1_556 S
Dy23 O37 2.326 . S
O24 Dy20 2.398 . S
O24 C22 1.185 . S
O25 Dy20 2.491 . S
O25 C22 1.355 . S
O26 Dy20 2.403 . S
O26 C28 1.254 . S
O27 Dy20 2.664 1_556 S
O27 Dy23 2.310 . S
O27 C28 1.268 1_556 S
C28 O26 1.254 . S
C28 O27 1.268 1_554 S
C29 O34 1.254 . S
C29 O35 1.268 1_556 S
O30 Dy23 2.351 1_554 S
O30 C38 1.249 . S
O31 Dy20 2.326 . S
O31 C38 1.267 . S
O32 C21 1.185 . S
O32 Dy23 2.398 . S
O33 C21 1.355 . S
O33 Dy23 2.491 . S
O34 Dy23 2.403 . S
O34 C29 1.254 . S
O35 Dy20 2.310 . S
O35 Dy23 2.664 1_554 S
O35 C29 1.268 1_554 S
O36 Dy20 2.351 1_556 S
O36 C39 1.249 . S
O37 Dy23 2.326 . S
O37 C39 1.267 . S
C38 O30 1.249 . S
C38 O31 1.267 . S
C39 O36 1.249 . S
C39 O37 1.267 . S
Dy40 O44 2.398 . S
Dy40 O45 2.491 . S
Dy40 O46 2.403 . S
Dy40 O47 2.664 . S
Dy40 O51 2.326 . S
Dy40 O55 2.310 . S
Dy40 O56 2.351 . S
C41 O52 1.185 . S
C41 O53 1.355 . S
C42 O44 1.185 . S
C42 O45 1.355 . S
Dy43 O47 2.310 . S
Dy43 O50 2.351 . S
Dy43 O52 2.398 . S
Dy43 O53 2.491 . S
Dy43 O54 2.403 . S
Dy43 O55 2.664 . S
Dy43 O57 2.326 . S
O44 Dy40 2.398 . S
O44 C42 1.185 . S
O45 Dy40 2.491 . S
O45 C42 1.355 . S
O46 Dy40 2.403 . S
O46 C48 1.254 . S
O47 Dy40 2.664 . S
O47 Dy43 2.310 . S
O47 C48 1.268 . S
C48 O46 1.254 . S
C48 O47 1.268 . S
C49 O54 1.254 . S
C49 O55 1.268 . S
O50 Dy43 2.351 . S
O50 C58 1.249 . S
O51 Dy40 2.326 . S
O51 C58 1.267 . S
O52 C41 1.185 . S
O52 Dy43 2.398 . S
O53 C41 1.355 . S
O53 Dy43 2.491 . S
O54 Dy43 2.403 . S
O54 C49 1.254 . S
O55 Dy40 2.310 . S
O55 Dy43 2.664 . S
O55 C49 1.268 . S
O56 Dy40 2.351 . S
O56 C59 1.249 . S
O57 Dy43 2.326 . S
O57 C59 1.267 . S
C58 O50 1.249 . S
C58 O51 1.267 . S
C59 O56 1.249 . S
C59 O57 1.267 . S
Dy60 O64 2.398 . S
Dy60 O65 2.491 . S
Dy60 O66 2.403 . S
Dy60 O67 2.664 . S
Dy60 O71 2.326 . S
Dy60 O75 2.310 . S
Dy60 O76 2.351 . S
C61 O72 1.185 . S
C61 O73 1.355 . S
C62 O64 1.185 . S
C62 O65 1.355 . S
Dy63 O67 2.310 . S
Dy63 O70 2.351 . S
Dy63 O72 2.398 . S
Dy63 O73 2.491 . S
Dy63 O74 2.403 . S
Dy63 O75 2.664 . S
Dy63 O77 2.326 . S
O64 Dy60 2.398 . S
O64 C62 1.185 . S
O65 Dy60 2.491 . S
O65 C62 1.355 . S
O66 Dy60 2.403 . S
O66 C68 1.254 . S
O67 Dy60 2.664 . S
O67 Dy63 2.310 . S
O67 C68 1.268 . S
C68 O66 1.254 . S
C68 O67 1.268 . S
C69 O74 1.254 . S
C69 O75 1.268 . S
O70 Dy63 2.351 . S
O70 C78 1.249 . S
O71 Dy60 2.326 . S
O71 C78 1.267 . S
O72 C61 1.185 . S
O72 Dy63 2.398 . S
O73 C61 1.355 . S
O73 Dy63 2.491 . S
O74 Dy63 2.403 . S
O74 C69 1.254 . S
O75 Dy60 2.310 . S
O75 Dy63 2.664 . S
O75 C69 1.268 . S
O76 Dy60 2.351 . S
O76 C79 1.249 . S
O77 Dy63 2.326 . S
O77 C79 1.267 . S
C78 O70 1.249 . S
C78 O71 1.267 . S
C79 O76 1.249 . S
C79 O77 1.267 . S
H80 C81 0.951 . S
C81 H80 0.951 . S
C81 C87 1.265 1_554 S
H82 C87 0.950 . S
H83 C91 0.949 . S
H84 C92 0.950 . S
H85 C93 0.951 . S
H86 C94 0.951 . S
C87 C81 1.265 1_556 S
C87 H82 0.950 . S
C87 C88 1.478 . S
C88 C87 1.478 . S
C88 C89 1.397 . S
C88 C105 1.394 1_556 S
C89 C88 1.397 . S
C89 C90 1.438 . S
C89 C94 1.429 . S
C90 C89 1.438 . S
C90 C91 1.428 . S
C90 C103 1.394 1_556 S
C91 H83 0.949 . S
C91 C90 1.428 . S
C91 C92 1.345 . S
C92 H84 0.950 . S
C92 C91 1.345 . S
C92 C93 1.424 . S
C93 H85 0.951 . S
C93 C92 1.424 . S
C93 C94 1.347 . S
C94 H86 0.951 . S
C94 C89 1.429 . S
C94 C93 1.347 . S
H95 C96 0.951 . S
C96 H95 0.951 . S
C96 C102 1.265 1_556 S
H97 C102 0.950 . S
H98 C106 0.949 . S
H99 C107 0.950 . S
H100 C108 0.951 . S
H101 C109 0.951 . S
C102 C96 1.265 1_554 S
C102 H97 0.950 . S
C102 C103 1.478 . S
C103 C90 1.394 1_554 S
C103 C102 1.478 . S
C103 C104 1.397 . S
C104 C103 1.397 . S
C104 C105 1.438 . S
C104 C109 1.429 . S
C105 C88 1.394 1_554 S
C105 C104 1.438 . S
C105 C106 1.428 . S
C106 H98 0.949 . S
C106 C105 1.428 . S
C106 C107 1.345 . S
C107 H99 0.950 . S
C107 C106 1.345 . S
C107 C108 1.424 . S
C108 H100 0.951 . S
C108 C107 1.424 . S
C108 C109 1.347 . S
C109 H101 0.951 . S
C109 C104 1.429 . S
C109 C108 1.347 . S
H110 C111 0.951 . S
C111 H110 0.951 . S
C111 C117 1.265 . S
H112 C117 0.950 . S
H113 C121 0.949 . S
H114 C122 0.950 . S
H115 C123 0.951 . S
H116 C124 0.951 . S
C117 C111 1.265 . S
C117 H112 0.950 . S
C117 C118 1.478 . S
C118 C117 1.478 . S
C118 C119 1.397 . S
C118 C135 1.394 . S
C119 C118 1.397 . S
C119 C120 1.438 . S
C119 C124 1.429 . S
C120 C119 1.438 . S
C120 C121 1.428 . S
C120 C133 1.394 . S
C121 H113 0.949 . S
C121 C120 1.428 . S
C121 C122 1.345 . S
C122 H114 0.950 . S
C122 C121 1.345 . S
C122 C123 1.424 . S
C123 H115 0.951 . S
C123 C122 1.424 . S
C123 C124 1.347 . S
C124 H116 0.951 . S
C124 C119 1.429 . S
C124 C123 1.347 . S
H125 C126 0.951 . S
C126 H125 0.951 . S
C126 C132 1.265 . S
H127 C132 0.950 . S
H128 C136 0.949 . S
H129 C137 0.950 . S
H130 C138 0.951 . S
H131 C139 0.951 . S
C132 C126 1.265 . S
C132 H127 0.950 . S
C132 C133 1.478 . S
C133 C120 1.394 . S
C133 C132 1.478 . S
C133 C134 1.397 . S
C134 C133 1.397 . S
C134 C135 1.438 . S
C134 C139 1.429 . S
C135 C118 1.394 . S
C135 C134 1.438 . S
C135 C136 1.428 . S
C136 H128 0.949 . S
C136 C135 1.428 . S
C136 C137 1.345 . S
C137 H129 0.950 . S
C137 C136 1.345 . S
C137 C138 1.424 . S
C138 H130 0.951 . S
C138 C137 1.424 . S
C138 C139 1.347 . S
C139 H131 0.951 . S
C139 C134 1.429 . S
C139 C138 1.347 . S
H140 C141 0.951 1_556 S
C141 H140 0.951 1_554 S
C141 C147 1.265 . S
H142 C147 0.950 . S
H143 C151 0.949 1_655 S
H144 C152 0.950 . S
H145 C153 0.951 . S
H146 C154 0.951 . S
C147 C141 1.265 . S
C147 H142 0.950 . S
C147 C148 1.478 . S
C148 C147 1.478 . S
C148 C149 1.397 . S
C148 C165 1.394 1_454 S
C149 C148 1.397 . S
C149 C150 1.438 1_545 S
C149 C154 1.429 . S
C150 C149 1.438 1_565 S
C150 C151 1.428 . S
C150 C163 1.394 1_454 S
C151 H143 0.949 1_455 S
C151 C150 1.428 . S
C151 C152 1.345 . S
C152 H144 0.950 . S
C152 C151 1.345 . S
C152 C153 1.424 . S
C153 H145 0.951 . S
C153 C152 1.424 . S
C153 C154 1.347 1_565 S
C154 H146 0.951 . S
C154 C149 1.429 . S
C154 C153 1.347 1_545 S
H155 C156 0.949 . S
C156 H155 0.949 . S
C156 C162 1.264 1_554 S
H157 C162 0.950 . S
H158 C166 0.949 1_455 S
H159 C167 0.950 . S
H160 C168 0.951 . S
H161 C169 0.951 . S
C162 C156 1.264 1_556 S
C162 H157 0.950 . S
C162 C163 1.478 . S
C163 C150 1.394 1_656 S
C163 C162 1.478 . S
C163 C164 1.397 . S
C164 C163 1.397 . S
C164 C165 1.438 1_565 S
C164 C169 1.429 . S
C165 C148 1.394 1_656 S
C165 C164 1.438 1_545 S
C165 C166 1.428 . S
C166 H158 0.949 1_655 S
C166 C165 1.428 . S
C166 C167 1.345 . S
C167 H159 0.950 . S
C167 C166 1.345 . S
C167 C168 1.424 . S
C168 H160 0.951 . S
C168 C167 1.424 . S
C168 C169 1.347 1_545 S
C169 H161 0.951 . S
C169 C164 1.429 . S
C169 C168 1.347 1_565 S
H170 C171 0.951 . S
C171 H170 0.951 . S
C171 C177 1.265 . S
H172 C177 0.950 . S
H173 C181 0.949 1_455 S
H174 C182 0.950 . S
H175 C183 0.951 . S
H176 C184 0.951 . S
C177 C171 1.265 . S
C177 H172 0.950 . S
C177 C178 1.478 . S
C178 C177 1.478 . S
C178 C179 1.397 . S
C178 C195 1.394 1_655 S
C179 C178 1.397 . S
C179 C180 1.438 1_545 S
C179 C184 1.429 . S
C180 C179 1.438 1_565 S
C180 C181 1.428 . S
C180 C193 1.394 1_655 S
C181 H173 0.949 1_655 S
C181 C180 1.428 . S
C181 C182 1.345 . S
C182 H174 0.950 . S
C182 C181 1.345 . S
C182 C183 1.424 . S
C183 H175 0.951 . S
C183 C182 1.424 . S
C183 C184 1.347 1_565 S
C184 H176 0.951 . S
C184 C179 1.429 . S
C184 C183 1.347 1_545 S
H185 C186 0.951 . S
C186 H185 0.951 . S
C186 C192 1.265 . S
H187 C192 0.950 . S
H188 C196 0.949 1_655 S
H189 C197 0.950 . S
H190 C198 0.951 . S
H191 C199 0.951 . S
C192 C186 1.265 . S
C192 H187 0.950 . S
C192 C193 1.478 . S
C193 C180 1.394 1_455 S
C193 C192 1.478 . S
C193 C194 1.397 . S
C194 C193 1.397 . S
C194 C195 1.438 1_565 S
C194 C199 1.429 . S
C195 C178 1.394 1_455 S
C195 C194 1.438 1_545 S
C195 C196 1.428 . S
C196 H188 0.949 1_455 S
C196 C195 1.428 . S
C196 C197 1.345 . S
C197 H189 0.950 . S
C197 C196 1.345 . S
C197 C198 1.424 . S
C198 H190 0.951 . S
C198 C197 1.424 . S
C198 C199 1.347 1_545 S
C199 H191 0.951 . S
C199 C194 1.429 . S
C199 C198 1.347 1_565 S
H200 C201 0.951 . S
C201 H200 0.951 . S
C201 C207 1.265 . S
H202 C207 0.950 . S
H203 C211 0.949 . S
H204 C212 0.950 . S
H205 C213 0.951 . S
H206 C214 0.951 . S
C207 C201 1.265 . S
C207 H202 0.950 . S
C207 C208 1.478 . S
C208 C207 1.478 . S
C208 C209 1.397 . S
C208 C225 1.394 . S
C209 C208 1.397 . S
C209 C210 1.438 . S
C209 C214 1.429 . S
C210 C209 1.438 . S
C210 C211 1.428 . S
C210 C223 1.394 . S
C211 H203 0.949 . S
C211 C210 1.428 . S
C211 C212 1.345 . S
C212 H204 0.950 . S
C212 C211 1.345 . S
C212 C213 1.424 . S
C213 H205 0.951 . S
C213 C212 1.424 . S
C213 C214 1.347 . S
C214 H206 0.951 . S
C214 C209 1.429 . S
C214 C213 1.347 . S
H215 C216 0.951 . S
C216 H215 0.951 . S
C216 C222 1.265 . S
H217 C222 0.950 . S
H218 C226 0.949 . S
H219 C227 0.950 . S
H220 C228 0.951 . S
H221 C229 0.951 . S
C222 C216 1.265 . S
C222 H217 0.950 . S
C222 C223 1.478 . S
C223 C210 1.394 . S
C223 C222 1.478 . S
C223 C224 1.397 . S
C224 C223 1.397 . S
C224 C225 1.438 . S
C224 C229 1.429 . S
C225 C208 1.394 . S
C225 C224 1.438 . S
C225 C226 1.428 . S
C226 H218 0.949 . S
C226 C225 1.428 . S
C226 C227 1.345 . S
C227 H219 0.950 . S
C227 C226 1.345 . S
C227 C228 1.424 . S
C228 H220 0.951 . S
C228 C227 1.424 . S
C228 C229 1.347 . S
C229 H221 0.951 . S
C229 C224 1.429 . S
C229 C228 1.347 . S
H230 C231 0.951 . S
C231 H230 0.951 . S
C231 C237 1.265 . S
H232 C237 0.950 . S
H233 C241 0.949 . S
H234 C242 0.950 . S
H235 C243 0.951 . S
H236 C244 0.951 . S
C237 C231 1.265 . S
C237 H232 0.950 . S
C237 C238 1.478 . S
C238 C237 1.478 . S
C238 C239 1.397 . S
C238 C255 1.394 . S
C239 C238 1.397 . S
C239 C240 1.438 . S
C239 C244 1.429 . S
C240 C239 1.438 . S
C240 C241 1.428 . S
C240 C253 1.394 . S
C241 H233 0.949 . S
C241 C240 1.428 . S
C241 C242 1.345 . S
C242 H234 0.950 . S
C242 C241 1.345 . S
C242 C243 1.424 . S
C243 H235 0.951 . S
C243 C242 1.424 . S
C243 C244 1.347 . S
C244 H236 0.951 . S
C244 C239 1.429 . S
C244 C243 1.347 . S
H245 C246 0.951 . S
C246 H245 0.951 . S
C246 C252 1.265 . S
H247 C252 0.950 . S
H248 C256 0.949 . S
H249 C257 0.950 . S
H250 C258 0.951 . S
H251 C259 0.951 . S
C252 C246 1.265 . S
C252 H247 0.950 . S
C252 C253 1.478 . S
C253 C240 1.394 . S
C253 C252 1.478 . S
C253 C254 1.397 . S
C254 C253 1.397 . S
C254 C255 1.438 . S
C254 C259 1.429 . S
C255 C238 1.394 . S
C255 C254 1.438 . S
C255 C256 1.428 . S
C256 H248 0.949 . S
C256 C255 1.428 . S
C256 C257 1.345 . S
C257 H249 0.950 . S
C257 C256 1.345 . S
C257 C258 1.424 . S
C258 H250 0.951 . S
C258 C257 1.424 . S
C258 C259 1.347 . S
C259 H251 0.951 . S
C259 C254 1.429 . S
C259 C258 1.347 . S
H260 C261 0.951 . S
C261 H260 0.951 . S
C261 C267 1.265 . S
H262 C267 0.950 . S
H263 C271 0.949 . S
H264 C272 0.950 . S
H265 C273 0.951 . S
H266 C274 0.951 . S
C267 C261 1.265 . S
C267 H262 0.950 . S
C267 C268 1.478 . S
C268 C267 1.478 . S
C268 C269 1.397 . S
C268 C285 1.394 . S
C269 C268 1.397 . S
C269 C270 1.438 . S
C269 C274 1.429 . S
C270 C269 1.438 . S
C270 C271 1.428 . S
C270 C283 1.394 . S
C271 H263 0.949 . S
C271 C270 1.428 . S
C271 C272 1.345 . S
C272 H264 0.950 . S
C272 C271 1.345 . S
C272 C273 1.424 . S
C273 H265 0.951 . S
C273 C272 1.424 . S
C273 C274 1.347 . S
C274 H266 0.951 . S
C274 C269 1.429 . S
C274 C273 1.347 . S
H275 C276 0.951 . S
C276 H275 0.951 . S
C276 C282 1.265 . S
H277 C282 0.950 . S
H278 C286 0.949 . S
H279 C287 0.950 . S
H280 C288 0.951 . S
H281 C289 0.951 . S
C282 C276 1.265 . S
C282 H277 0.950 . S
C282 C283 1.478 . S
C283 C270 1.394 . S
C283 C282 1.478 . S
C283 C284 1.397 . S
C284 C283 1.397 . S
C284 C285 1.438 . S
C284 C289 1.429 . S
C285 C268 1.394 . S
C285 C284 1.438 . S
C285 C286 1.428 . S
C286 H278 0.949 . S
C286 C285 1.428 . S
C286 C287 1.345 . S
C287 H279 0.950 . S
C287 C286 1.345 . S
C287 C288 1.424 . S
C288 H280 0.951 . S
C288 C287 1.424 . S
C288 C289 1.347 . S
C289 H281 0.951 . S
C289 C284 1.429 . S
C289 C288 1.347 . S
H290 C291 0.951 . S
C291 H290 0.951 . S
C291 C297 1.265 . S
H292 C297 0.950 . S
H293 C301 0.949 . S
H294 C302 0.950 . S
H295 C303 0.951 . S
H296 C304 0.951 . S
C297 C291 1.265 . S
C297 H292 0.950 . S
C297 C298 1.478 . S
C298 C297 1.478 . S
C298 C299 1.397 . S
C298 C315 1.394 . S
C299 C298 1.397 . S
C299 C300 1.438 . S
C299 C304 1.429 . S
C300 C299 1.438 . S
C300 C301 1.428 . S
C300 C313 1.394 . S
C301 H293 0.949 . S
C301 C300 1.428 . S
C301 C302 1.345 . S
C302 H294 0.950 . S
C302 C301 1.345 . S
C302 C303 1.424 . S
C303 H295 0.951 . S
C303 C302 1.424 . S
C303 C304 1.347 . S
C304 H296 0.951 . S
C304 C299 1.429 . S
C304 C303 1.347 . S
H305 C306 0.951 . S
C306 H305 0.951 . S
C306 C312 1.265 . S
H307 C312 0.950 . S
H308 C316 0.949 . S
H309 C317 0.950 . S
H310 C318 0.951 . S
H311 C319 0.951 . S
C312 C306 1.265 . S
C312 H307 0.950 . S
C312 C313 1.478 . S
C313 C300 1.394 . S
C313 C312 1.478 . S
C313 C314 1.397 . S
C314 C313 1.397 . S
C314 C315 1.438 . S
C314 C319 1.429 . S
C315 C298 1.394 . S
C315 C314 1.438 . S
C315 C316 1.428 . S
C316 H308 0.949 . S
C316 C315 1.428 . S
C316 C317 1.345 . S
C317 H309 0.950 . S
C317 C316 1.345 . S
C317 C318 1.424 . S
C318 H310 0.951 . S
C318 C317 1.424 . S
C318 C319 1.347 . S
C319 H311 0.951 . S
C319 C314 1.429 . S
C319 C318 1.347 . S
H320 C321 0.951 . S
C321 H320 0.951 . S
C321 C327 1.265 . S
H322 C327 0.950 1_455 S
H323 C331 0.949 . S
H324 C332 0.950 . S
H325 C333 0.951 . S
H326 C334 0.951 . S
C327 C321 1.265 . S
C327 H322 0.950 1_655 S
C327 C328 1.478 . S
C328 C327 1.478 . S
C328 C329 1.397 1_655 S
C328 C345 1.394 . S
C329 C328 1.397 1_455 S
C329 C330 1.438 . S
C329 C334 1.429 . S
C330 C329 1.438 . S
C330 C331 1.428 . S
C330 C343 1.394 . S
C331 H323 0.949 . S
C331 C330 1.428 . S
C331 C332 1.345 . S
C332 H324 0.950 . S
C332 C331 1.345 . S
C332 C333 1.424 . S
C333 H325 0.951 . S
C333 C332 1.424 . S
C333 C334 1.347 . S
C334 H326 0.951 . S
C334 C329 1.429 . S
C334 C333 1.347 . S
H335 C336 0.951 . S
C336 H335 0.951 . S
C336 C342 1.265 . S
H337 C342 0.950 1_655 S
H338 C346 0.949 . S
H339 C347 0.950 . S
H340 C348 0.951 . S
H341 C349 0.951 . S
C342 C336 1.265 . S
C342 H337 0.950 1_455 S
C342 C343 1.478 . S
C343 C330 1.394 . S
C343 C342 1.478 . S
C343 C344 1.397 1_455 S
C344 C343 1.397 1_655 S
C344 C345 1.438 . S
C344 C349 1.429 . S
C345 C328 1.394 . S
C345 C344 1.438 . S
C345 C346 1.428 . S
C346 H338 0.949 . S
C346 C345 1.428 . S
C346 C347 1.345 . S
C347 H339 0.950 . S
C347 C346 1.345 . S
C347 C348 1.424 . S
C348 H340 0.951 . S
C348 C347 1.424 . S
C348 C349 1.347 . S
C349 H341 0.951 . S
C349 C344 1.429 . S
C349 C348 1.347 . S
H350 C351 0.951 . S
C351 H350 0.951 . S
C351 C357 1.265 . S
H352 C357 0.950 . S
H353 C361 0.949 . S
H354 C362 0.950 . S
H355 C363 0.951 . S
H356 C364 0.951 . S
C357 C351 1.265 . S
C357 H352 0.950 . S
C357 C358 1.478 . S
C358 C357 1.478 . S
C358 C359 1.397 . S
C358 C375 1.394 1_655 S
C359 C358 1.397 . S
C359 C360 1.438 . S
C359 C364 1.429 . S
C360 C359 1.438 . S
C360 C361 1.428 . S
C360 C373 1.394 1_655 S
C361 H353 0.949 . S
C361 C360 1.428 . S
C361 C362 1.345 . S
C362 H354 0.950 . S
C362 C361 1.345 . S
C362 C363 1.424 . S
C363 H355 0.951 . S
C363 C362 1.424 . S
C363 C364 1.347 . S
C364 H356 0.951 . S
C364 C359 1.429 . S
C364 C363 1.347 . S
H365 C366 0.951 . S
C366 H365 0.951 . S
C366 C372 1.265 . S
H367 C372 0.950 . S
H368 C376 0.949 . S
H369 C377 0.950 . S
H370 C378 0.951 . S
H371 C379 0.951 . S
C372 C366 1.265 . S
C372 H367 0.950 . S
C372 C373 1.478 . S
C373 C360 1.394 1_455 S
C373 C372 1.478 . S
C373 C374 1.397 . S
C374 C373 1.397 . S
C374 C375 1.438 . S
C374 C379 1.429 . S
C375 C358 1.394 1_455 S
C375 C374 1.438 . S
C375 C376 1.428 . S
C376 H368 0.949 . S
C376 C375 1.428 . S
C376 C377 1.345 . S
C377 H369 0.950 . S
C377 C376 1.345 . S
C377 C378 1.424 . S
C378 H370 0.951 . S
C378 C377 1.424 . S
C378 C379 1.347 . S
C379 H371 0.951 . S
C379 C374 1.429 . S
C379 C378 1.347 . S
H380 C381 0.951 . S
C381 H380 0.951 . S
C381 C387 1.265 . S
H382 C387 0.950 1_455 S
H383 C391 0.949 . S
H384 C392 0.950 . S
H385 C393 0.951 . S
H386 C394 0.951 . S
C387 C381 1.265 . S
C387 H382 0.950 1_655 S
C387 C388 1.478 . S
C388 C387 1.478 . S
C388 C389 1.397 1_655 S
C388 C405 1.394 . S
C389 C388 1.397 1_455 S
C389 C390 1.438 . S
C389 C394 1.429 . S
C390 C389 1.438 . S
C390 C391 1.428 . S
C390 C403 1.394 . S
C391 H383 0.949 . S
C391 C390 1.428 . S
C391 C392 1.345 . S
C392 H384 0.950 . S
C392 C391 1.345 . S
C392 C393 1.424 . S
C393 H385 0.951 . S
C393 C392 1.424 . S
C393 C394 1.347 . S
C394 H386 0.951 . S
C394 C389 1.429 . S
C394 C393 1.347 . S
H395 C396 0.951 . S
C396 H395 0.951 . S
C396 C402 1.265 . S
H397 C402 0.950 1_655 S
H398 C406 0.949 . S
H399 C407 0.950 . S
H400 C408 0.951 . S
H401 C409 0.951 . S
C402 C396 1.265 . S
C402 H397 0.950 1_455 S
C402 C403 1.478 . S
C403 C390 1.394 . S
C403 C402 1.478 . S
C403 C404 1.397 1_455 S
C404 C403 1.397 1_655 S
C404 C405 1.438 . S
C404 C409 1.429 . S
C405 C388 1.394 . S
C405 C404 1.438 . S
C405 C406 1.428 . S
C406 H398 0.949 . S
C406 C405 1.428 . S
C406 C407 1.345 . S
C407 H399 0.950 . S
C407 C406 1.345 . S
C407 C408 1.424 . S
C408 H400 0.951 . S
C408 C407 1.424 . S
C408 C409 1.347 . S
C409 H401 0.951 . S
C409 C404 1.429 . S
C409 C408 1.347 . S
H410 C411 0.951 1_655 S
C411 H410 0.951 1_455 S
C411 C417 1.265 . S
H412 C417 0.950 . S
H413 C421 0.949 1_655 S
H414 C422 0.950 . S
H415 C423 0.951 . S
H416 C424 0.951 . S
C417 C411 1.265 . S
C417 H412 0.950 . S
C417 C418 1.478 . S
C418 C417 1.478 . S
C418 C419 1.397 . S
C418 C435 1.394 1_455 S
C419 C418 1.397 . S
C419 C420 1.438 . S
C419 C424 1.429 . S
C420 C419 1.438 . S
C420 C421 1.428 . S
C420 C433 1.394 1_455 S
C421 H413 0.949 1_455 S
C421 C420 1.428 . S
C421 C422 1.345 . S
C422 H414 0.950 . S
C422 C421 1.345 . S
C422 C423 1.424 . S
C423 H415 0.951 . S
C423 C422 1.424 . S
C423 C424 1.347 . S
C424 H416 0.951 . S
C424 C419 1.429 . S
C424 C423 1.347 . S
H425 C426 0.951 1_455 S
C426 H425 0.951 1_655 S
C426 C432 1.265 . S
H427 C432 0.950 . S
H428 C436 0.949 1_455 S
H429 C437 0.950 . S
H430 C438 0.951 . S
H431 C439 0.951 . S
C432 C426 1.265 . S
C432 H427 0.950 . S
C432 C433 1.478 . S
C433 C420 1.394 1_655 S
C433 C432 1.478 . S
C433 C434 1.397 . S
C434 C433 1.397 . S
C434 C435 1.438 . S
C434 C439 1.429 . S
C435 C418 1.394 1_655 S
C435 C434 1.438 . S
C435 C436 1.428 . S
C436 H428 0.949 1_655 S
C436 C435 1.428 . S
C436 C437 1.345 . S
C437 H429 0.950 . S
C437 C436 1.345 . S
C437 C438 1.424 . S
C438 H430 0.951 . S
C438 C437 1.424 . S
C438 C439 1.347 . S
C439 H431 0.951 . S
C439 C434 1.429 . S
C439 C438 1.347 . S
C81 C29 1.492 1_554 S
C96 C8 1.492 1_556 S
C111 C49 1.495 . S
C126 C68 1.495 . S
C141 C9 1.533 1_554 S
C156 C28 1.536 . S
C171 C69 1.532 . S
C186 C48 1.532 . S
C201 C78 1.222 . S
C216 C18 1.209 . S
C231 C22 1.164 . S
C246 C42 1.164 . S
C261 C39 1.194 . S
C276 C59 1.235 . S
C291 C61 1.172 . S
C306 C1 1.172 . S
C321 C38 1.207 . S
C336 C58 1.208 . S
C351 C62 1.168 . S
C366 C2 1.168 . S
C381 C79 1.204 . S
C396 C19 1.211 . S
C411 C41 1.164 . S
C426 C21 1.164 . S
