# Generated by pormake.
# Topology wjt, (5)-cn, num edge types: 1
# Building blocks:
#     Node 0, Type 0, BuildingBlock: XOMCOT_clean_sbu_0, # of connection points: 5
#     Node 1, Type 0, BuildingBlock: XOMCOT_clean_sbu_0, # of connection points: 5
#     Node 2, Type 0, BuildingBlock: XOMCOT_clean_sbu_0, # of connection points: 5
#     Node 3, Type 0, BuildingBlock: XOMCOT_clean_sbu_0, # of connection points: 5
#     Node 4, Type 0, BuildingBlock: XOMCOT_clean_sbu_0, # of connection points: 5
#     Node 5, Type 0, BuildingBlock: XOMCOT_clean_sbu_0, # of connection points: 5
#     Node 6, Type 0, BuildingBlock: XOMCOT_clean_sbu_0, # of connection points: 5
#     Node 7, Type 0, BuildingBlock: XOMCOT_clean_sbu_0, # of connection points: 5
#     Node 8, Type 0, BuildingBlock: XOMCOT_clean_sbu_0, # of connection points: 5
#     Node 9, Type 0, BuildingBlock: XOMCOT_clean_sbu_0, # of connection points: 5
#     Node 10, Type 0, BuildingBlock: XOMCOT_clean_sbu_0, # of connection points: 5
#     Node 11, Type 0, BuildingBlock: XOMCOT_clean_sbu_0, # of connection points: 5
#     Edge 12, Type (0, 0), BuildingBlock: AJUNOK_clean_linker_0, # of connection points: 2
#     Edge 13, Type (0, 0), BuildingBlock: AJUNOK_clean_linker_0, # of connection points: 2
#     Edge 14, Type (0, 0), BuildingBlock: AJUNOK_clean_linker_0, # of connection points: 2
#     Edge 15, Type (0, 0), BuildingBlock: AJUNOK_clean_linker_0, # of connection points: 2
#     Edge 16, Type (0, 0), BuildingBlock: AJUNOK_clean_linker_0, # of connection points: 2
#     Edge 17, Type (0, 0), BuildingBlock: AJUNOK_clean_linker_0, # of connection points: 2
#     Edge 18, Type (0, 0), BuildingBlock: AJUNOK_clean_linker_0, # of connection points: 2
#     Edge 19, Type (0, 0), BuildingBlock: AJUNOK_clean_linker_0, # of connection points: 2
#     Edge 20, Type (0, 0), BuildingBlock: AJUNOK_clean_linker_0, # of connection points: 2
#     Edge 21, Type (0, 0), BuildingBlock: AJUNOK_clean_linker_0, # of connection points: 2
#     Edge 22, Type (0, 0), BuildingBlock: AJUNOK_clean_linker_0, # of connection points: 2
#     Edge 23, Type (0, 0), BuildingBlock: AJUNOK_clean_linker_0, # of connection points: 2
#     Edge 24, Type (0, 0), BuildingBlock: AJUNOK_clean_linker_0, # of connection points: 2
#     Edge 25, Type (0, 0), BuildingBlock: AJUNOK_clean_linker_0, # of connection points: 2
#     Edge 26, Type (0, 0), BuildingBlock: AJUNOK_clean_linker_0, # of connection points: 2
#     Edge 27, Type (0, 0), BuildingBlock: AJUNOK_clean_linker_0, # of connection points: 2
#     Edge 28, Type (0, 0), BuildingBlock: AJUNOK_clean_linker_0, # of connection points: 2
#     Edge 29, Type (0, 0), BuildingBlock: AJUNOK_clean_linker_0, # of connection points: 2
#     Edge 30, Type (0, 0), BuildingBlock: AJUNOK_clean_linker_0, # of connection points: 2
#     Edge 31, Type (0, 0), BuildingBlock: AJUNOK_clean_linker_0, # of connection points: 2
#     Edge 32, Type (0, 0), BuildingBlock: AJUNOK_clean_linker_0, # of connection points: 2
#     Edge 33, Type (0, 0), BuildingBlock: AJUNOK_clean_linker_0, # of connection points: 2
#     Edge 34, Type (0, 0), BuildingBlock: AJUNOK_clean_linker_0, # of connection points: 2
#     Edge 35, Type (0, 0), BuildingBlock: AJUNOK_clean_linker_0, # of connection points: 2
#     Edge 36, Type (0, 0), BuildingBlock: AJUNOK_clean_linker_0, # of connection points: 2
#     Edge 37, Type (0, 0), BuildingBlock: AJUNOK_clean_linker_0, # of connection points: 2
#     Edge 38, Type (0, 0), BuildingBlock: AJUNOK_clean_linker_0, # of connection points: 2
#     Edge 39, Type (0, 0), BuildingBlock: AJUNOK_clean_linker_0, # of connection points: 2
#     Edge 40, Type (0, 0), BuildingBlock: AJUNOK_clean_linker_0, # of connection points: 2
#     Edge 41, Type (0, 0), BuildingBlock: AJUNOK_clean_linker_0, # of connection points: 2
# Relax obj value: 0.236
# Max RMSD: 0.185
# Mean RMSD: 0.185
data_MOF--net-wjt--node1-XOMCOT_clean_sbu_0--edge1-AJUNOK_clean_linker_0
_symmetry_space_group_name_H-M    P1
_symmetry_Int_Tables_number       1
_symmetry_cell_setting            triclinic
loop_
_symmetry_equiv_pos_as_xyz
'x, y, z'
_cell_length_a     50.169692
_cell_length_b     50.275511
_cell_length_c     13.431411
_cell_angle_alpha  90.193144
_cell_angle_beta   89.95572
_cell_angle_gamma 120.27197
loop_
_atom_site_label
_atom_site_type_symbol
_atom_site_fract_x
_atom_site_fract_y
_atom_site_fract_z
_atom_type_partial_charge
Co0 Co 0.31311 0.42133 0.26972 0.0
C1 C 0.30854 0.41264 0.48813 0.0
C2 C 0.26645 0.40728 0.42977 0.0
C3 C 0.26333 0.40267 0.53125 0.0
N4 N 0.29525 0.41444 0.40287 0.0
N5 N 0.28991 0.40607 0.5676 0.0
H6 H 0.33215 0.41776 0.49295 0.0
H7 H 0.24854 0.40502 0.38017 0.0
C8 C 0.26291 0.43446 0.20683 0.0
O9 O 0.27449 0.45856 0.26608 0.0
N10 N 0.3297 0.42608 0.13696 0.0
C11 C 0.35943 0.44108 0.10724 0.0
C12 C 0.36016 0.4386 0.00489 0.0
C13 C 0.3129 0.41454 0.05338 0.0
N14 N 0.33082 0.42201 0.97203 0.0
C15 C 0.34687 0.4796 0.37114 0.0
C16 C 0.35872 0.51661 0.20673 0.0
C17 C 0.37441 0.52979 0.29598 0.0
C18 C 0.36724 0.51112 0.37958 0.0
C19 C 0.33732 0.48486 0.2024 0.0
N20 N 0.33244 0.46635 0.28323 0.0
H21 H 0.34517 0.46601 0.43431 0.0
H22 H 0.32613 0.47498 0.13218 0.0
H23 H 0.37907 0.45359 0.15608 0.0
H24 H 0.28796 0.40112 0.05131 0.0
O25 O 0.34751 0.41864 0.31961 0.0
O26 O 0.30357 0.37846 0.26828 0.0
O27 O 0.27377 0.41625 0.20772 0.0
C28 C 0.3314 0.3892 0.30379 0.0
H29 H 0.24309 0.3973 0.5749 0.0
H30 H 0.38046 0.44915 0.95802 0.0
H31 H 0.36407 0.53039 0.13995 0.0
H32 H 0.37956 0.52034 0.44901 0.0
Co33 Co 0.90746 0.32255 0.55932 0.0
C34 C 0.90293 0.32292 0.7751 0.0
C35 C 0.87498 0.27686 0.71944 0.0
C36 C 0.87307 0.2763 0.82195 0.0
N37 N 0.89378 0.30618 0.69074 0.0
N38 N 0.89065 0.30535 0.8565 0.0
H39 H 0.91938 0.34736 0.77663 0.0
H40 H 0.8639 0.25717 0.67029 0.0
C41 C 0.86511 0.26193 0.46421 0.0
O42 O 0.88704 0.25534 0.47823 0.0
N43 N 0.92141 0.33943 0.42679 0.0
C44 C 0.94744 0.36565 0.40088 0.0
C45 C 0.94869 0.36828 0.29848 0.0
C46 C 0.90741 0.32664 0.33961 0.0
N47 N 0.92349 0.34357 0.26108 0.0
C48 C 0.90592 0.37797 0.57879 0.0
C49 C 0.84498 0.35164 0.63809 0.0
C50 C 0.86442 0.38362 0.64662 0.0
C51 C 0.89497 0.39675 0.6142 0.0
C52 C 0.85703 0.33347 0.60303 0.0
N53 N 0.88736 0.34674 0.57571 0.0
H54 H 0.92998 0.38858 0.5593 0.0
H55 H 0.84247 0.3087 0.60356 0.0
H56 H 0.96471 0.38169 0.45214 0.0
H57 H 0.88588 0.3054 0.33162 0.0
O58 O 0.9471 0.35209 0.61434 0.0
O59 O 0.93559 0.30604 0.5592 0.0
O60 O 0.86863 0.28731 0.49829 0.0
C61 C 0.95571 0.3321 0.60021 0.0
H62 H 0.8601 0.25602 0.86752 0.0
H63 H 0.96703 0.38629 0.25491 0.0
H64 H 0.82119 0.34073 0.66245 0.0
H65 H 0.91057 0.42141 0.6186 0.0
Co66 Co 0.59876 0.90158 0.86667 0.0
C67 C 0.59221 0.8945 0.08267 0.0
C68 C 0.61482 0.87119 0.0245 0.0
C69 C 0.6153 0.87034 0.12728 0.0
N70 N 0.60042 0.88647 0.99717 0.0
N71 N 0.60121 0.88521 0.16369 0.0
H72 H 0.58205 0.90901 0.0849 0.0
H73 H 0.62568 0.86279 0.97373 0.0
C74 C 0.57492 0.84603 0.73631 0.0
O75 O 0.55264 0.85163 0.71548 0.0
N76 N 0.59857 0.9178 0.73417 0.0
C77 C 0.59272 0.94032 0.70796 0.0
C78 C 0.59406 0.94317 0.60574 0.0
C79 C 0.60633 0.90964 0.64745 0.0
N80 N 0.60221 0.92346 0.56808 0.0
C81 C 0.53674 0.85243 0.91804 0.0
C82 C 0.51009 0.88872 0.90168 0.0
C83 C 0.49219 0.85872 0.9372 0.0
C84 C 0.50572 0.84035 0.94592 0.0
C85 C 0.54089 0.9 0.87716 0.0
N86 N 0.55389 0.88188 0.88229 0.0
H87 H 0.54728 0.83844 0.92828 0.0
H88 H 0.55458 0.92402 0.86074 0.0
H89 H 0.58864 0.95459 0.75854 0.0
H90 H 0.61464 0.89364 0.64127 0.0
O91 O 0.609 0.9404 0.92665 0.0
O92 O 0.64371 0.92915 0.87116 0.0
O93 O 0.59552 0.86307 0.80082 0.0
C94 C 0.63781 0.94876 0.91581 0.0
H95 H 0.62629 0.86063 0.17162 0.0
H96 H 0.5896 0.95865 0.56253 0.0
H97 H 0.50073 0.90397 0.89766 0.0
H98 H 0.49269 0.81722 0.97539 0.0
Co99 Co 0.70628 0.5922 0.21118 0.0
C100 C 0.70914 0.5823 0.42631 0.0
C101 C 0.75142 0.62058 0.3737 0.0
C102 C 0.75156 0.62121 0.47632 0.0
N103 N 0.72491 0.59601 0.34178 0.0
N104 N 0.72496 0.59716 0.50932 0.0
H105 H 0.68518 0.56412 0.4269 0.0
H106 H 0.7681 0.63853 0.3258 0.0
C107 C 0.76727 0.59379 0.1545 0.0
O108 O 0.77427 0.59124 0.24673 0.0
N109 N 0.68727 0.58898 0.08056 0.0
C110 C 0.66955 0.60096 0.05354 0.0
C111 C 0.66697 0.60014 0.95133 0.0
C112 C 0.69422 0.58009 0.99342 0.0
N113 N 0.68264 0.58719 0.91338 0.0
C114 C 0.65343 0.5329 0.21443 0.0
C115 C 0.68095 0.50208 0.29541 0.0
C116 C 0.64872 0.48785 0.29502 0.0
C117 C 0.63499 0.50312 0.25074 0.0
C118 C 0.69871 0.53212 0.25803 0.0
N119 N 0.68481 0.54754 0.22179 0.0
H120 H 0.64237 0.54517 0.18744 0.0
H121 H 0.72339 0.54367 0.26615 0.0
H122 H 0.66047 0.61137 0.10329 0.0
H123 H 0.70914 0.57043 0.98775 0.0
O124 O 0.67574 0.59823 0.27784 0.0
O125 O 0.71949 0.63612 0.21722 0.0
O126 O 0.74246 0.59413 0.13496 0.0
C127 C 0.69415 0.62764 0.26745 0.0
H128 H 0.76874 0.63936 0.523 0.0
H129 H 0.65588 0.60993 0.90781 0.0
H130 H 0.69226 0.49082 0.32916 0.0
H131 H 0.6101 0.49268 0.24885 0.0
Co132 Co 0.12408 0.69894 0.50257 0.0
C133 C 0.12732 0.70046 0.72028 0.0
C134 C 0.15341 0.74599 0.65966 0.0
C135 C 0.15378 0.7482 0.76202 0.0
N136 N 0.13683 0.71603 0.63409 0.0
N137 N 0.137 0.71952 0.79962 0.0
H138 H 0.11239 0.67573 0.72467 0.0
H139 H 0.16368 0.76496 0.60781 0.0
C140 C 0.1816 0.73508 0.3833 0.0
O141 O 0.17799 0.70813 0.35875 0.0
N142 N 0.11011 0.6824 0.36868 0.0
C143 C 0.08771 0.65389 0.34047 0.0
C144 C 0.08469 0.65295 0.23843 0.0
C145 C 0.11817 0.69888 0.28355 0.0
N146 N 0.10389 0.68134 0.2034 0.0
C147 C 0.17454 0.69017 0.56655 0.0
C148 C 0.14183 0.62693 0.5431 0.0
C149 C 0.16997 0.64039 0.59352 0.0
C150 C 0.18676 0.67249 0.60417 0.0
C151 C 0.13009 0.64516 0.50998 0.0
N152 N 0.14616 0.67641 0.52128 0.0
H153 H 0.18705 0.71477 0.57935 0.0
H154 H 0.10684 0.6335 0.48346 0.0
H155 H 0.07335 0.63515 0.38977 0.0
H156 H 0.13396 0.72336 0.27932 0.0
O157 O 0.08537 0.66776 0.55549 0.0
O158 O 0.09414 0.71321 0.50313 0.0
O159 O 0.16216 0.73621 0.44309 0.0
C160 C 0.07504 0.68644 0.54227 0.0
H161 H 0.16522 0.76929 0.80501 0.0
H162 H 0.06916 0.6332 0.1936 0.0
H163 H 0.12774 0.6021 0.53647 0.0
H164 H 0.20841 0.68362 0.64452 0.0
Co165 Co 0.43881 0.12465 0.91361 0.0
C166 C 0.44372 0.12972 0.13113 0.0
C167 C 0.43508 0.16413 0.07112 0.0
C168 C 0.43672 0.16691 0.1734 0.0
N169 N 0.43933 0.14066 0.04503 0.0
N170 N 0.44162 0.14484 0.21117 0.0
H171 H 0.44755 0.11044 0.13521 0.0
H172 H 0.431 0.17827 0.0201 0.0
C173 C 0.42379 0.16739 0.80971 0.0
O174 O 0.3949 0.14522 0.81644 0.0
N175 N 0.43863 0.10884 0.78094 0.0
C176 C 0.42718 0.07936 0.75066 0.0
C177 C 0.42857 0.0787 0.648 0.0
C178 C 0.44745 0.12553 0.69642 0.0
N179 N 0.44102 0.10778 0.61486 0.0
C180 C 0.49324 0.12107 0.91874 0.0
C181 C 0.53301 0.181 0.98027 0.0
C182 C 0.54307 0.15955 0.98236 0.0
C183 C 0.52308 0.12954 0.94867 0.0
C184 C 0.50262 0.17142 0.95073 0.0
N185 N 0.48302 0.14155 0.92297 0.0
H186 H 0.47768 0.09745 0.89719 0.0
H187 H 0.49436 0.18752 0.95558 0.0
H188 H 0.4174 0.05946 0.79868 0.0
H189 H 0.4576 0.15017 0.69296 0.0
O190 O 0.42614 0.08494 0.97202 0.0
O191 O 0.39361 0.09941 0.91996 0.0
O192 O 0.44487 0.16394 0.85065 0.0
C193 C 0.39785 0.07856 0.96245 0.0
H194 H 0.43472 0.18414 0.21577 0.0
H195 H 0.41952 0.05839 0.60121 0.0
H196 H 0.54795 0.20443 0.00558 0.0
H197 H 0.53023 0.11248 0.94809 0.0
Co198 Co 0.59993 0.70833 0.42203 0.0
C199 C 0.61694 0.71797 0.20859 0.0
C200 C 0.60107 0.74829 0.25489 0.0
C201 C 0.60395 0.74963 0.15303 0.0
N202 N 0.608 0.72738 0.29006 0.0
N203 N 0.61322 0.72992 0.12357 0.0
H204 H 0.62425 0.70123 0.21075 0.0
H205 H 0.5932 0.76106 0.29761 0.0
C206 C 0.57847 0.75293 0.48358 0.0
O207 O 0.55413 0.73794 0.42624 0.0
N208 N 0.59382 0.69057 0.55264 0.0
C209 C 0.57712 0.66091 0.58061 0.0
C210 C 0.57921 0.65965 0.68265 0.0
C211 C 0.60687 0.70663 0.63622 0.0
N212 N 0.59816 0.6885 0.71758 0.0
C213 C 0.54593 0.67249 0.30295 0.0
C214 C 0.50226 0.65471 0.45121 0.0
C215 C 0.49284 0.6415 0.35585 0.0
C216 C 0.51517 0.65189 0.28081 0.0
C217 C 0.53341 0.67675 0.4692 0.0
N218 N 0.55516 0.68507 0.39575 0.0
H219 H 0.56234 0.67664 0.24528 0.0
H220 H 0.54015 0.68627 0.54333 0.0
H221 H 0.56353 0.64179 0.5309 0.0
H222 H 0.62246 0.73126 0.63686 0.0
O223 O 0.60793 0.67705 0.37355 0.0
O224 O 0.64393 0.7221 0.4343 0.0
O225 O 0.5992 0.74514 0.4858 0.0
C226 C 0.63664 0.69523 0.397 0.0
H227 H 0.59759 0.76262 0.10421 0.0
H228 H 0.56644 0.63913 0.72703 0.0
H229 H 0.48624 0.64712 0.51289 0.0
H230 H 0.50932 0.64288 0.20568 0.0
Co231 Co 0.90238 0.59553 0.75924 0.0
C232 C 0.90131 0.59875 0.53915 0.0
C233 C 0.86757 0.60795 0.60139 0.0
C234 C 0.86729 0.61056 0.49886 0.0
N235 N 0.88843 0.59963 0.62676 0.0
N236 N 0.88846 0.60447 0.46066 0.0
H237 H 0.92 0.59408 0.53166 0.0
H238 H 0.85396 0.61272 0.65279 0.0
C239 C 0.84008 0.58444 0.82965 0.0
O240 O 0.82565 0.56112 0.768 0.0
N241 N 0.91697 0.59329 0.89047 0.0
C242 C 0.93143 0.5782 0.91958 0.0
C243 C 0.93393 0.57991 0.02215 0.0
C244 C 0.91153 0.60441 0.97475 0.0
N245 N 0.92123 0.59632 0.05664 0.0
C246 C 0.87731 0.53601 0.67017 0.0
C247 C 0.85034 0.50096 0.83733 0.0
C248 C 0.85192 0.48644 0.74977 0.0
C249 C 0.86473 0.50437 0.66516 0.0
C250 C 0.86215 0.53305 0.83794 0.0
N251 N 0.87618 0.55042 0.75511 0.0
H252 H 0.89031 0.54873 0.607 0.0
H253 H 0.86162 0.54404 0.90658 0.0
H254 H 0.93827 0.56562 0.8704 0.0
H255 H 0.89897 0.61659 0.97672 0.0
O256 O 0.93813 0.59733 0.70135 0.0
O257 O 0.93614 0.63847 0.74843 0.0
O258 O 0.86947 0.60131 0.82745 0.0
C259 C 0.95187 0.6271 0.70702 0.0
H260 H 0.85261 0.61628 0.45598 0.0
H261 H 0.94341 0.56897 0.06785 0.0
H262 H 0.84118 0.48788 0.90519 0.0
H263 H 0.86763 0.49436 0.59728 0.0
Co264 Co 0.32249 0.90625 0.12003 0.0
C265 C 0.32015 0.90119 0.90049 0.0
C266 C 0.27494 0.88283 0.96219 0.0
C267 C 0.27253 0.88148 0.85963 0.0
N268 N 0.30484 0.89457 0.98766 0.0
N269 N 0.30108 0.89279 0.82159 0.0
H270 H 0.34484 0.91405 0.89339 0.0
H271 H 0.2563 0.87655 0.01446 0.0
C272 C 0.27218 0.83986 0.14616 0.0
O273 O 0.28055 0.8336 0.06058 0.0
N274 N 0.33958 0.91818 0.25142 0.0
C275 C 0.36946 0.93188 0.2786 0.0
C276 C 0.37096 0.93278 0.3812 0.0
C277 C 0.32341 0.91144 0.33666 0.0
N278 N 0.34191 0.91963 0.41709 0.0
C279 C 0.37255 0.90175 0.03774 0.0
C280 C 0.36222 0.84841 0.12962 0.0
C281 C 0.38588 0.86228 0.05867 0.0
C282 C 0.39125 0.88963 0.01469 0.0
C283 C 0.34354 0.86135 0.14995 0.0
N284 N 0.3476 0.88674 0.09914 0.0
H285 H 0.37888 0.92379 0.00642 0.0
H286 H 0.32639 0.85119 0.20775 0.0
H287 H 0.38866 0.93975 0.22764 0.0
H288 H 0.29851 0.89965 0.33998 0.0
O289 O 0.3518 0.94659 0.07091 0.0
O290 O 0.30577 0.93401 0.12993 0.0
O291 O 0.28647 0.8675 0.17948 0.0
C292 C 0.3317 0.95477 0.09014 0.0
H293 H 0.25162 0.87343 0.81649 0.0
H294 H 0.39172 0.94196 0.42577 0.0
H295 H 0.35822 0.82793 0.16877 0.0
H296 H 0.41041 0.90214 0.96401 0.0
Co297 Co 0.43577 0.3157 0.45966 0.0
C298 C 0.42902 0.31003 0.23946 0.0
C299 C 0.42354 0.26858 0.3021 0.0
C300 C 0.42025 0.26506 0.20009 0.0
N301 N 0.43004 0.2973 0.3269 0.0
N302 N 0.42417 0.29144 0.16088 0.0
H303 H 0.43284 0.33305 0.23234 0.0
H304 H 0.4206 0.25089 0.35354 0.0
C305 C 0.4501 0.26657 0.52767 0.0
O306 O 0.47428 0.27779 0.46896 0.0
N307 N 0.43963 0.33253 0.59177 0.0
C308 C 0.45507 0.36211 0.62262 0.0
C309 C 0.45372 0.36254 0.72556 0.0
C310 C 0.42869 0.31559 0.67508 0.0
N311 N 0.43743 0.33318 0.75749 0.0
C312 C 0.49328 0.35223 0.36152 0.0
C313 C 0.53246 0.36109 0.51795 0.0
C314 C 0.54485 0.37695 0.42827 0.0
C315 C 0.52474 0.37167 0.34945 0.0
C316 C 0.50033 0.3407 0.52601 0.0
N317 N 0.48098 0.33642 0.44774 0.0
H318 H 0.47895 0.3522 0.30288 0.0
H319 H 0.49098 0.32933 0.59624 0.0
H320 H 0.4675 0.38178 0.57429 0.0
H321 H 0.41517 0.29071 0.67632 0.0
O322 O 0.43188 0.34882 0.40589 0.0
O323 O 0.39232 0.30491 0.45728 0.0
O324 O 0.43177 0.27729 0.52427 0.0
C325 C 0.40228 0.33194 0.41691 0.0
H326 H 0.41487 0.24444 0.1587 0.0
H327 H 0.46509 0.38263 0.77329 0.0
H328 H 0.54724 0.36504 0.58162 0.0
H329 H 0.53302 0.38439 0.28046 0.0
Co330 Co 0.12394 0.43087 0.82457 0.0
C331 C 0.13099 0.43971 0.60809 0.0
C332 C 0.16073 0.4241 0.66443 0.0
C333 C 0.16389 0.4268 0.56239 0.0
N334 N 0.14005 0.43221 0.69267 0.0
N335 N 0.14504 0.43651 0.52695 0.0
H336 H 0.11321 0.44579 0.606 0.0
H337 H 0.17215 0.41604 0.71375 0.0
C338 C 0.16201 0.41084 0.93435 0.0
O339 O 0.13705 0.38349 0.93744 0.0
N340 N 0.10809 0.42967 0.95751 0.0
C341 C 0.07855 0.41733 0.98852 0.0
C342 C 0.07835 0.41994 0.09084 0.0
C343 C 0.12527 0.44002 0.04111 0.0
N344 N 0.10776 0.43414 0.12287 0.0
C345 C 0.12698 0.48856 0.84431 0.0
C346 C 0.18606 0.52419 0.76938 0.0
C347 C 0.16761 0.53757 0.7831 0.0
C348 C 0.13815 0.51962 0.8243 0.0
C349 C 0.1742 0.49306 0.79258 0.0
N350 N 0.14457 0.47546 0.82577 0.0
H351 H 0.10337 0.47449 0.86878 0.0
H352 H 0.18805 0.4826 0.77735 0.0
H353 H 0.05837 0.40635 0.94131 0.0
H354 H 0.15012 0.45105 0.04326 0.0
O355 O 0.08567 0.423 0.76534 0.0
O356 O 0.09563 0.3864 0.80779 0.0
O357 O 0.16144 0.43245 0.88635 0.0
C358 C 0.0768 0.39393 0.76655 0.0
H359 H 0.17843 0.42128 0.5177 0.0
H360 H 0.05822 0.41076 0.13838 0.0
H361 H 0.20885 0.53731 0.73699 0.0
H362 H 0.12295 0.52889 0.83407 0.0
Co363 Co 0.7208 0.12097 0.10585 0.0
C364 C 0.72581 0.12058 0.88589 0.0
C365 C 0.76688 0.15785 0.9487 0.0
C366 C 0.77023 0.15828 0.84667 0.0
N367 N 0.73852 0.13467 0.97337 0.0
N368 N 0.74411 0.13496 0.80743 0.0
H369 H 0.70311 0.10044 0.87888 0.0
H370 H 0.7845 0.17307 1.0003 0.0
C371 C 0.7681 0.18574 0.17526 0.0
O372 O 0.75606 0.19771 0.11628 0.0
N373 N 0.70441 0.10691 0.23756 0.0
C374 C 0.67474 0.09087 0.26752 0.0
C375 C 0.67426 0.08901 0.37034 0.0
C376 C 0.72141 0.11397 0.32127 0.0
N377 N 0.70368 0.10394 0.4031 0.0
C378 C 0.68178 0.13961 0.01161 0.0
C379 C 0.6728 0.16853 0.17221 0.0
C380 C 0.65652 0.16506 0.08359 0.0
C381 C 0.6617 0.15088 1.00259 0.0
C382 C 0.69381 0.15774 0.17708 0.0
N383 N 0.69814 0.14336 0.09691 0.0
H384 H 0.68218 0.12593 0.95124 0.0
H385 H 0.70571 0.16 0.24641 0.0
H386 H 0.65495 0.08239 0.21866 0.0
H387 H 0.74635 0.12699 0.32327 0.0
O388 O 0.68877 0.08262 0.05126 0.0
O389 O 0.73436 0.09073 0.10193 0.0
O390 O 0.75844 0.15684 0.17144 0.0
C391 C 0.70735 0.07201 0.06326 0.0
H392 H 0.79061 0.17414 0.80524 0.0
H393 H 0.65401 0.07898 0.41746 0.0
H394 H 0.66876 0.1787 0.23747 0.0
H395 H 0.64854 0.14647 0.93441 0.0
C396 C 0.21588 0.39881 0.10564 0.0
C397 C 0.23774 0.42891 0.13592 0.0
C398 C 0.19185 0.39324 0.03933 0.0
C399 C 0.18912 0.41756 0.99839 0.0
H400 H 0.21695 0.37932 0.13494 0.0
H401 H 0.17521 0.36959 0.02037 0.0
S402 S 0.24216 0.50092 0.04749 0.0
N403 N 0.25597 0.48346 0.11633 0.0
N404 N 0.21166 0.4732 0.99009 0.0
C405 C 0.21155 0.44786 0.02561 0.0
C406 C 0.23557 0.45346 0.09474 0.0
C407 C 0.81113 0.1953 0.29332 0.0
C408 C 0.79241 0.20554 0.24943 0.0
C409 C 0.83395 0.2133 0.364 0.0
C410 C 0.83883 0.24221 0.39555 0.0
H411 H 0.80846 0.17328 0.27202 0.0
H412 H 0.84802 0.20446 0.39364 0.0
S413 S 0.79448 0.27879 0.30923 0.0
N414 N 0.77947 0.2461 0.24638 0.0
N415 N 0.82177 0.27955 0.37978 0.0
C416 C 0.81964 0.25236 0.35434 0.0
C417 C 0.79669 0.2342 0.28125 0.0
C418 C 0.59403 0.78547 0.64068 0.0
C419 C 0.58151 0.77935 0.54369 0.0
C420 C 0.59275 0.80761 0.7027 0.0
C421 C 0.57891 0.82441 0.66958 0.0
H422 H 0.60376 0.77223 0.67008 0.0
H423 H 0.60167 0.81082 0.77789 0.0
S424 S 0.54837 0.82128 0.41474 0.0
N425 N 0.55867 0.79487 0.41353 0.0
N426 N 0.55647 0.83625 0.52777 0.0
C427 C 0.56821 0.81981 0.57031 0.0
C428 C 0.56945 0.79738 0.50801 0.0
C429 C 0.82619 0.58179 0.00981 0.0
C430 C 0.82265 0.5888 0.91113 0.0
C431 C 0.80872 0.58409 0.08798 0.0
C432 C 0.78714 0.59376 0.07088 0.0
H433 H 0.84205 0.57373 0.02643 0.0
H434 H 0.81178 0.57761 0.16208 0.0
S435 S 0.77313 0.61933 0.82671 0.0
N436 N 0.79813 0.60807 0.80104 0.0
N437 N 0.76638 0.61396 0.94749 0.0
C438 C 0.78465 0.60229 0.97259 0.0
C439 C 0.80208 0.59937 0.89292 0.0
C440 C 0.21734 0.7585 0.23836 0.0
C441 C 0.20467 0.76276 0.32662 0.0
C442 C 0.23856 0.78345 0.18069 0.0
C443 C 0.24852 0.81408 0.20847 0.0
H444 H 0.21065 0.73555 0.21238 0.0
H445 H 0.24744 0.7785 0.11396 0.0
S446 S 0.22248 0.8382 0.4329 0.0
N447 N 0.2036 0.80021 0.43883 0.0
N448 N 0.24361 0.84721 0.33077 0.0
C449 C 0.23601 0.81881 0.29651 0.0
C450 C 0.2141 0.7932 0.35526 0.0
C451 C 0.41448 0.22307 0.64029 0.0
C452 C 0.44422 0.24179 0.60051 0.0
C453 C 0.40837 0.1997 0.70938 0.0
C454 C 0.4318 0.19429 0.74344 0.0
H455 H 0.39556 0.22612 0.61665 0.0
H456 H 0.38489 0.18556 0.73556 0.0
S457 S 0.51436 0.23885 0.66979 0.0
N458 N 0.49779 0.2544 0.60476 0.0
N459 N 0.48654 0.21119 0.736 0.0
C460 C 0.4619 0.2136 0.70695 0.0
C461 C 0.46802 0.23707 0.63517 0.0
C462 C 0.45814 0.59061 0.27271 0.0
C463 C 0.46124 0.61469 0.33521 0.0
C464 C 0.42944 0.56438 0.25438 0.0
C465 C 0.40254 0.56063 0.2992 0.0
H466 H 0.47824 0.59129 0.24029 0.0
H467 H 0.42855 0.54605 0.20915 0.0
S468 S 0.3967 0.61667 0.4641 0.0
N469 N 0.4338 0.6335 0.43638 0.0
N470 N 0.38003 0.58303 0.40625 0.0
C471 C 0.40483 0.58441 0.36038 0.0
C472 C 0.43409 0.61163 0.3775 0.0
C473 C 0.86615 0.44768 0.80027 0.0
C474 C 0.84619 0.45444 0.74698 0.0
C475 C 0.87009 0.42296 0.77213 0.0
C476 C 0.85393 0.40393 0.69059 0.0
H477 H 0.88101 0.46331 0.85768 0.0
H478 H 0.88743 0.41995 0.81016 0.0
S479 S 0.7956 0.40917 0.53659 0.0
N480 N 0.80754 0.43807 0.61638 0.0
N481 N 0.8147 0.39135 0.5645 0.0
C482 C 0.83174 0.40859 0.64311 0.0
C483 C 0.82791 0.43392 0.67116 0.0
C484 C 0.439 0.8475 0.90035 0.0
C485 C 0.4603 0.84856 0.97034 0.0
C486 C 0.41268 0.84827 0.93066 0.0
C487 C 0.40689 0.85054 0.03209 0.0
H488 H 0.444 0.84857 0.82148 0.0
H489 H 0.39812 0.84976 0.87397 0.0
S490 S 0.45336 0.84954 0.24473 0.0
N491 N 0.4721 0.84817 0.14538 0.0
N492 N 0.4227 0.85008 0.20264 0.0
C493 C 0.42641 0.84858 0.10301 0.0
C494 C 0.45319 0.84758 0.07198 0.0
C495 C 0.61914 0.43031 0.29584 0.0
C496 C 0.62878 0.45822 0.3461 0.0
C497 C 0.5939 0.40275 0.33056 0.0
C498 C 0.57739 0.40224 0.41639 0.0
H499 H 0.62959 0.43018 0.22536 0.0
H500 H 0.58555 0.3822 0.28522 0.0
S501 S 0.5965 0.46885 0.58107 0.0
N502 N 0.62246 0.48335 0.49125 0.0
N503 N 0.57486 0.4317 0.55614 0.0
C504 C 0.58874 0.42957 0.472 0.0
C505 C 0.61441 0.45759 0.43658 0.0
C506 C 0.18202 0.57312 0.63813 0.0
C507 C 0.17653 0.56823 0.74107 0.0
C508 C 0.18268 0.59835 0.59121 0.0
C509 C 0.1785 0.61988 0.64594 0.0
H510 H 0.18336 0.55605 0.59231 0.0
H511 H 0.18449 0.59998 0.51081 0.0
S512 S 0.16684 0.61938 0.9185 0.0
N513 N 0.16946 0.58838 0.89731 0.0
N514 N 0.17117 0.63605 0.80918 0.0
C515 C 0.17541 0.61657 0.74978 0.0
C516 C 0.17429 0.59065 0.79737 0.0
C517 C 0.60354 0.15284 0.13089 0.0
C518 C 0.63066 0.17131 0.07655 0.0
C519 C 0.57551 0.15073 0.10377 0.0
C520 C 0.57374 0.16735 0.02234 0.0
H521 H 0.60344 0.138 0.18939 0.0
H522 H 0.55472 0.13471 0.14335 0.0
S523 S 0.63886 0.22169 0.86377 0.0
N524 N 0.65456 0.2085 0.94322 0.0
N525 N 0.60193 0.20496 0.89365 0.0
C526 C 0.60111 0.18775 0.97261 0.0
C527 C 0.62957 0.18962 0.99939 0.0
C528 C 0.33422 0.34584 0.38817 0.0
C529 C 0.34599 0.37032 0.31968 0.0
C530 C 0.35187 0.33237 0.41729 0.0
C531 C 0.38183 0.34324 0.37928 0.0
H532 H 0.31206 0.33818 0.42308 0.0
H533 H 0.34259 0.31438 0.47292 0.0
S534 S 0.42096 0.40435 0.18811 0.0
N535 N 0.38777 0.40278 0.20817 0.0
N536 N 0.42083 0.37813 0.26188 0.0
C537 C 0.39287 0.36666 0.30681 0.0
C538 C 0.37498 0.38005 0.27739 0.0
C539 C 0.0418 0.37908 0.62091 0.0
C540 C 0.0475 0.3718 0.71674 0.0
C541 C 1.01222 0.36346 0.57861 0.0
C542 C 0.98714 0.33996 0.63045 0.0
H543 H 0.06002 0.39822 0.5804 0.0
H544 H 1.00853 0.37131 0.50765 0.0
S545 S 0.98974 0.3115 0.88233 0.0
N546 N 0.02583 0.33864 0.86068 0.0
N547 N 0.96993 0.30948 0.78147 0.0
C548 C 0.99274 0.33128 0.72407 0.0
C549 C 0.02305 0.34712 0.76714 0.0
C550 C 0.70169 0.03231 0.93872 0.0
C551 C 0.69684 0.03977 0.03575 0.0
C552 C 0.68446 1.00188 0.90182 0.0
C553 C 0.6616 0.97827 0.96059 0.0
H554 H 0.71735 0.05041 0.88899 0.0
H555 H 0.68737 0.99735 0.82486 0.0
S556 S 0.6421 0.98573 0.22206 0.0
N557 N 0.66933 0.02088 0.19144 0.0
N558 N 0.63697 0.96415 0.1229 0.0
C559 C 0.65799 0.98532 0.05942 0.0
C560 C 0.67558 0.016 0.09681 0.0
C561 C 0.67717 0.69313 0.29396 0.0
C562 C 0.65882 0.68455 0.38046 0.0
C563 C 0.6907 0.67598 0.2605 0.0
C564 C 0.68579 0.64952 0.31189 0.0
H565 H 0.6793 0.71182 0.24829 0.0
H566 H 0.70316 0.68216 0.19063 0.0
S567 S 0.64308 0.62022 0.54945 0.0
N568 N 0.63914 0.65003 0.52155 0.0
N569 N 0.66435 0.61792 0.45967 0.0
C570 C 0.66931 0.64219 0.40208 0.0
C571 C 0.65582 0.65966 0.43602 0.0
C572 C 0.02036 0.64582 0.5428 0.0
C573 C 0.04268 0.67592 0.56995 0.0
C574 C 0.991 0.63114 0.58544 0.0
C575 C 0.98246 0.64576 0.65797 0.0
H576 H 0.0261 0.63288 0.49099 0.0
H577 H 0.97516 0.60759 0.56299 0.0
S578 S 0.03219 0.72539 0.75222 0.0
N579 N 0.05426 0.72061 0.67114 0.0
N580 N 0.99849 0.69297 0.75145 0.0
C581 C 1.00403 0.67655 0.68252 0.0
C582 C 0.0343 0.69164 0.63855 0.0
C583 C 0.35593 0.02453 0.9306 0.0
C584 C 0.37261 0.04865 0.99856 0.0
C585 C 0.33951 0.99372 0.96279 0.0
C586 C 0.33889 0.98616 0.06397 0.0
H587 H 0.35779 0.02922 0.85144 0.0
H588 H 0.32925 0.97557 0.90734 0.0
S589 S 0.37656 0.04114 0.27191 0.0
N590 N 0.38566 0.0631 0.17197 0.0
N591 N 0.35462 1.00535 0.23215 0.0
C592 C 0.35357 1.01022 0.13313 0.0
C593 C 0.37049 0.04147 0.10041 0.0
C594 C 0.28686 0.419 0.74295 0.0
C595 C 0.2986 0.40734 0.67056 0.0
C596 C 0.29732 0.42342 0.84151 0.0
C597 C 0.32014 0.41669 0.87096 0.0
H598 H 0.2702 0.42572 0.72274 0.0
H599 H 0.2881 0.43294 0.89472 0.0
S600 S 0.35558 0.38206 0.71477 0.0
N601 N 0.33201 0.38606 0.63859 0.0
N602 N 0.35245 0.39567 0.82356 0.0
C603 C 0.33148 0.40425 0.80072 0.0
C604 C 0.32049 0.39921 0.70059 0.0
C605 C 0.90792 0.30497 0.1281 0.0
C606 C 0.91594 0.33483 0.15882 0.0
C607 C 0.89932 0.29538 0.02961 0.0
C608 C 0.89799 0.31519 0.95864 0.0
H609 H 0.90868 0.28908 0.18069 0.0
H610 H 0.89423 0.27249 0.0086 0.0
S611 S 0.91345 0.3946 0.00607 0.0
N612 N 0.92044 0.38354 0.11382 0.0
N613 N 0.90304 0.36534 0.92889 0.0
C614 C 0.90515 0.34491 0.98957 0.0
C615 C 0.91445 0.35479 0.08964 0.0
C616 C 0.62473 0.89944 0.33183 0.0
C617 C 0.60071 0.89418 0.26582 0.0
C618 C 0.6254 0.90954 0.42986 0.0
C619 C 0.60236 0.91521 0.46531 0.0
H620 H 0.64345 0.89619 0.30731 0.0
H621 H 0.64419 0.91315 0.47829 0.0
S622 S 0.53297 0.90233 0.32681 0.0
N623 N 0.55204 0.89326 0.24641 0.0
N624 N 0.55392 0.91305 0.42948 0.0
C625 C 0.57809 0.90978 0.40084 0.0
C626 C 0.57712 0.89908 0.30151 0.0
C627 C 0.70198 0.6157 0.75536 0.0
C628 C 0.69169 0.58842 0.81037 0.0
C629 C 0.7127 0.6183 0.65722 0.0
C630 C 0.7129 0.5935 0.60915 0.0
H631 H 0.7026 0.63553 0.78959 0.0
H632 H 0.72089 0.63987 0.61831 0.0
S633 S 0.68693 0.51663 0.71758 0.0
N634 N 0.68178 0.53591 0.80831 0.0
N635 N 0.70094 0.54051 0.62224 0.0
C636 C 0.70187 0.56583 0.6619 0.0
C637 C 0.6916 0.56339 0.76293 0.0
C638 C 0.11592 0.67251 0.03344 0.0
C639 C 0.11062 0.69063 0.1013 0.0
C640 C 0.12494 0.68233 0.93545 0.0
C641 C 0.12875 0.71053 0.90175 0.0
H642 H 0.11387 0.65099 0.0572 0.0
H643 H 0.12935 0.66794 0.88598 0.0
S644 S 0.11459 0.76481 0.04893 0.0
N645 N 0.10808 0.73705 0.12779 0.0
N646 N 0.12431 0.75534 0.94276 0.0
C647 C 0.1228 0.72852 0.96862 0.0
C648 C 0.11388 0.71859 0.06861 0.0
C649 C 0.45744 0.11171 0.44011 0.0
C650 C 0.44139 0.11749 0.51435 0.0
C651 C 0.45815 0.12153 0.34198 0.0
C652 C 0.44227 0.13693 0.31425 0.0
H653 H 0.4698 0.09988 0.45855 0.0
H654 H 0.47131 0.11702 0.28758 0.0
S655 S 0.39465 0.15502 0.48263 0.0
N656 N 0.40854 0.13844 0.55521 0.0
N657 N 0.40851 0.15574 0.37057 0.0
C658 C 0.42574 0.14238 0.38864 0.0
C659 C 0.42557 0.13287 0.48865 0.0
C660 C 0.61702 0.73952 0.94313 0.0
C661 C 0.61293 0.71972 0.02251 0.0
C662 C 0.61288 0.72934 0.84449 0.0
C663 C 0.6049 0.69894 0.81987 0.0
H664 H 0.62278 0.76303 0.95727 0.0
H665 H 0.61506 0.74542 0.7877 0.0
S666 S 0.59516 0.6385 0.99861 0.0
N667 N 0.6018 0.66815 0.06899 0.0
N668 N 0.59664 0.65007 0.88298 0.0
C669 C 0.60259 0.67931 0.89796 0.0
C670 C 0.60606 0.68944 0.99922 0.0
C671 C 0.90872 0.57669 0.2289 0.0
C672 C 0.91408 0.59959 0.15875 0.0
C673 C 0.89991 0.5783 0.32665 0.0
C674 C 0.89573 0.60265 0.35815 0.0
H675 H 0.91074 0.55699 0.20787 0.0
H676 H 0.89603 0.56016 0.37812 0.0
S677 S 0.90877 0.66965 0.20758 0.0
N678 N 0.91637 0.64861 0.13077 0.0
N679 N 0.89866 0.65073 0.31399 0.0
C680 C 0.90102 0.62575 0.28968 0.0
C681 C 0.91052 0.62447 0.19024 0.0
C682 C 0.30674 0.91533 0.5526 0.0
C683 C 0.33192 0.91273 0.51892 0.0
C684 C 0.29619 0.90809 0.65102 0.0
C685 C 0.31041 0.89788 0.71883 0.0
H686 H 0.29546 0.92348 0.50278 0.0
H687 H 0.27733 0.91121 0.67487 0.0
S688 S 0.37433 0.88314 0.66387 0.0
N689 N 0.36891 0.89662 0.55857 0.0
N690 N 0.349 0.88281 0.74311 0.0
C691 C 0.33489 0.89417 0.68503 0.0
C692 C 0.34569 0.90167 0.58522 0.0
C693 C 0.42165 0.33301 0.93135 0.0
C694 C 0.43372 0.32217 0.85794 0.0
C695 C 0.41749 0.32195 0.02922 0.0
C696 C 0.42574 0.30002 0.05754 0.0
H697 H 0.41512 0.34988 0.91248 0.0
H698 H 0.40783 0.33076 0.08323 0.0
S699 S 0.46048 0.26625 0.89241 0.0
N700 N 0.45472 0.28918 0.81912 0.0
N701 N 0.44793 0.26907 1.00339 0.0
C702 C 0.43803 0.28919 0.98418 0.0
C703 C 0.44185 0.30017 0.8844 0.0
C704 C 0.14055 0.41927 0.35189 0.0
C705 C 0.13767 0.43814 0.42389 0.0
C706 C 0.13116 0.41849 0.25325 0.0
C707 C 0.11808 0.43611 0.22338 0.0
H708 H 0.14929 0.40427 0.37213 0.0
H709 H 0.13341 0.40346 0.20022 0.0
S710 S 0.10874 0.49204 0.37654 0.0
N711 N 0.12379 0.47756 0.45349 0.0
N712 N 0.10462 0.47445 0.26874 0.0
C713 C 0.11572 0.45562 0.29265 0.0
C714 C 0.1259 0.45704 0.39278 0.0
C715 C 0.70446 0.08912 0.57712 0.0
C716 C 0.71434 0.11193 0.50385 0.0
C717 C 0.71516 0.09671 0.67538 0.0
C718 C 0.73575 0.12747 0.70407 0.0
H719 H 0.68865 0.06527 0.55784 0.0
H720 H 0.70717 0.07832 0.72937 0.0
S721 S 0.76637 0.19587 0.53963 0.0
N722 N 0.74481 0.16642 0.4657 0.0
N723 N 0.76425 0.18096 0.6507 0.0
C724 C 0.74555 0.15049 0.63094 0.0
C725 C 0.73494 0.14266 0.53081 0.0
loop_
_geom_bond_atom_site_label_1
_geom_bond_atom_site_label_2
_geom_bond_distance
_geom_bond_site_symmetry_2
_ccdc_geom_bond_type
Co0 N4 2.148 . S
Co0 N10 2.128 . S
Co0 N20 2.194 . S
Co0 O25 2.351 . S
Co0 O26 2.155 . S
Co0 O27 2.096 . S
C1 N4 1.301 . S
C1 N5 1.328 . S
C1 H6 0.930 . S
C2 C3 1.333 . S
C2 N4 1.317 . S
C2 H7 0.930 . S
C3 C2 1.333 . S
C3 N5 1.350 . S
C3 H29 0.931 . S
N4 Co0 2.148 . S
N4 C1 1.301 . S
N4 C2 1.317 . S
N5 C1 1.328 . S
N5 C3 1.350 . S
H6 C1 0.930 . S
H7 C2 0.930 . S
C8 O9 1.224 . S
C8 O27 1.247 . S
O9 C8 1.224 . S
N10 Co0 2.128 . S
N10 C11 1.355 . S
N10 C13 1.311 . S
C11 N10 1.355 . S
C11 C12 1.363 1_554 S
C11 H23 0.929 . S
C12 C11 1.363 1_556 S
C12 N14 1.375 . S
C12 H30 0.931 . S
C13 N10 1.311 . S
C13 N14 1.347 1_554 S
C13 H24 0.929 . S
N14 C12 1.375 . S
N14 C13 1.347 1_556 S
C15 C18 1.365 . S
C15 N20 1.328 . S
C15 H21 0.929 . S
C16 C17 1.362 . S
C16 C19 1.378 . S
C16 H31 0.929 . S
C17 C16 1.362 . S
C17 C18 1.366 . S
C18 C15 1.365 . S
C18 C17 1.366 . S
C18 H32 0.930 . S
C19 C16 1.378 . S
C19 N20 1.315 . S
C19 H22 0.930 . S
N20 Co0 2.194 . S
N20 C15 1.328 . S
N20 C19 1.315 . S
H21 C15 0.929 . S
H22 C19 0.930 . S
H23 C11 0.929 . S
H24 C13 0.929 . S
O25 Co0 2.351 . S
O25 C28 1.244 . S
O26 Co0 2.155 . S
O26 C28 1.240 . S
O27 Co0 2.096 . S
O27 C8 1.247 . S
C28 O25 1.244 . S
C28 O26 1.240 . S
H29 C3 0.931 . S
H30 C12 0.931 . S
H31 C16 0.929 . S
H32 C18 0.930 . S
Co33 N37 2.148 . S
Co33 N43 2.128 . S
Co33 N53 2.194 . S
Co33 O58 2.351 . S
Co33 O59 2.155 . S
Co33 O60 2.096 . S
C34 N37 1.301 . S
C34 N38 1.328 . S
C34 H39 0.930 . S
C35 C36 1.333 . S
C35 N37 1.317 . S
C35 H40 0.930 . S
C36 C35 1.333 . S
C36 N38 1.350 . S
C36 H62 0.931 . S
N37 Co33 2.148 . S
N37 C34 1.301 . S
N37 C35 1.317 . S
N38 C34 1.328 . S
N38 C36 1.350 . S
H39 C34 0.930 . S
H40 C35 0.930 . S
C41 O42 1.224 . S
C41 O60 1.247 . S
O42 C41 1.224 . S
N43 Co33 2.128 . S
N43 C44 1.355 . S
N43 C46 1.311 . S
C44 N43 1.355 . S
C44 C45 1.363 . S
C44 H56 0.929 . S
C45 C44 1.363 . S
C45 N47 1.375 . S
C45 H63 0.931 . S
C46 N43 1.311 . S
C46 N47 1.347 . S
C46 H57 0.929 . S
N47 C45 1.375 . S
N47 C46 1.347 . S
C48 C51 1.365 . S
C48 N53 1.328 . S
C48 H54 0.929 . S
C49 C50 1.362 . S
C49 C52 1.378 . S
C49 H64 0.929 . S
C50 C49 1.362 . S
C50 C51 1.366 . S
C51 C48 1.365 . S
C51 C50 1.366 . S
C51 H65 0.930 . S
C52 C49 1.378 . S
C52 N53 1.315 . S
C52 H55 0.930 . S
N53 Co33 2.194 . S
N53 C48 1.328 . S
N53 C52 1.315 . S
H54 C48 0.929 . S
H55 C52 0.930 . S
H56 C44 0.929 . S
H57 C46 0.929 . S
O58 Co33 2.351 . S
O58 C61 1.244 . S
O59 Co33 2.155 . S
O59 C61 1.240 . S
O60 Co33 2.096 . S
O60 C41 1.247 . S
C61 O58 1.244 . S
C61 O59 1.240 . S
H62 C36 0.931 . S
H63 C45 0.931 . S
H64 C49 0.929 . S
H65 C51 0.930 . S
Co66 N70 2.148 1_556 S
Co66 N76 2.128 . S
Co66 N86 2.194 . S
Co66 O91 2.351 . S
Co66 O92 2.155 . S
Co66 O93 2.096 . S
C67 N70 1.301 . S
C67 N71 1.328 . S
C67 H72 0.930 . S
C68 C69 1.333 . S
C68 N70 1.317 . S
C68 H73 0.930 . S
C69 C68 1.333 . S
C69 N71 1.350 . S
C69 H95 0.931 . S
N70 Co66 2.148 1_554 S
N70 C67 1.301 . S
N70 C68 1.317 . S
N71 C67 1.328 . S
N71 C69 1.350 . S
H72 C67 0.930 . S
H73 C68 0.930 . S
C74 O75 1.224 . S
C74 O93 1.247 . S
O75 C74 1.224 . S
N76 Co66 2.128 . S
N76 C77 1.355 . S
N76 C79 1.311 . S
C77 N76 1.355 . S
C77 C78 1.363 . S
C77 H89 0.929 . S
C78 C77 1.363 . S
C78 N80 1.375 . S
C78 H96 0.931 . S
C79 N76 1.311 . S
C79 N80 1.347 . S
C79 H90 0.929 . S
N80 C78 1.375 . S
N80 C79 1.347 . S
C81 C84 1.365 . S
C81 N86 1.328 . S
C81 H87 0.929 1_556 S
C82 C83 1.362 . S
C82 C85 1.378 . S
C82 H97 0.929 . S
C83 C82 1.362 . S
C83 C84 1.366 . S
C84 C81 1.365 . S
C84 C83 1.366 . S
C84 H98 0.930 1_556 S
C85 C82 1.378 . S
C85 N86 1.315 . S
C85 H88 0.930 . S
N86 Co66 2.194 . S
N86 C81 1.328 . S
N86 C85 1.315 . S
H87 C81 0.929 1_554 S
H88 C85 0.930 . S
H89 C77 0.929 . S
H90 C79 0.929 . S
O91 Co66 2.351 . S
O91 C94 1.244 . S
O92 Co66 2.155 . S
O92 C94 1.240 . S
O93 Co66 2.096 . S
O93 C74 1.247 . S
C94 O91 1.244 . S
C94 O92 1.240 . S
H95 C69 0.931 . S
H96 C78 0.931 . S
H97 C82 0.929 . S
H98 C84 0.930 1_554 S
Co99 N103 2.148 . S
Co99 N109 2.128 . S
Co99 N119 2.194 . S
Co99 O124 2.351 . S
Co99 O125 2.155 . S
Co99 O126 2.096 . S
C100 N103 1.301 . S
C100 N104 1.328 . S
C100 H105 0.930 . S
C101 C102 1.333 . S
C101 N103 1.317 . S
C101 H106 0.930 . S
C102 C101 1.333 . S
C102 N104 1.350 . S
C102 H128 0.931 . S
N103 Co99 2.148 . S
N103 C100 1.301 . S
N103 C101 1.317 . S
N104 C100 1.328 . S
N104 C102 1.350 . S
H105 C100 0.930 . S
H106 C101 0.930 . S
C107 O108 1.224 . S
C107 O126 1.247 . S
O108 C107 1.224 . S
N109 Co99 2.128 . S
N109 C110 1.355 . S
N109 C112 1.311 . S
C110 N109 1.355 . S
C110 C111 1.363 1_554 S
C110 H122 0.929 . S
C111 C110 1.363 1_556 S
C111 N113 1.375 . S
C111 H129 0.931 . S
C112 N109 1.311 . S
C112 N113 1.347 1_554 S
C112 H123 0.929 . S
N113 C111 1.375 . S
N113 C112 1.347 1_556 S
C114 C117 1.365 . S
C114 N119 1.328 . S
C114 H120 0.929 . S
C115 C116 1.362 . S
C115 C118 1.378 . S
C115 H130 0.929 . S
C116 C115 1.362 . S
C116 C117 1.366 . S
C117 C114 1.365 . S
C117 C116 1.366 . S
C117 H131 0.930 . S
C118 C115 1.378 . S
C118 N119 1.315 . S
C118 H121 0.930 . S
N119 Co99 2.194 . S
N119 C114 1.328 . S
N119 C118 1.315 . S
H120 C114 0.929 . S
H121 C118 0.930 . S
H122 C110 0.929 . S
H123 C112 0.929 . S
O124 Co99 2.351 . S
O124 C127 1.244 . S
O125 Co99 2.155 . S
O125 C127 1.240 . S
O126 Co99 2.096 . S
O126 C107 1.247 . S
C127 O124 1.244 . S
C127 O125 1.240 . S
H128 C102 0.931 . S
H129 C111 0.931 . S
H130 C115 0.929 . S
H131 C117 0.930 . S
Co132 N136 2.148 . S
Co132 N142 2.128 . S
Co132 N152 2.194 . S
Co132 O157 2.351 . S
Co132 O158 2.155 . S
Co132 O159 2.096 . S
C133 N136 1.301 . S
C133 N137 1.328 . S
C133 H138 0.930 . S
C134 C135 1.333 . S
C134 N136 1.317 . S
C134 H139 0.930 . S
C135 C134 1.333 . S
C135 N137 1.350 . S
C135 H161 0.931 . S
N136 Co132 2.148 . S
N136 C133 1.301 . S
N136 C134 1.317 . S
N137 C133 1.328 . S
N137 C135 1.350 . S
H138 C133 0.930 . S
H139 C134 0.930 . S
C140 O141 1.224 . S
C140 O159 1.247 . S
O141 C140 1.224 . S
N142 Co132 2.128 . S
N142 C143 1.355 . S
N142 C145 1.311 . S
C143 N142 1.355 . S
C143 C144 1.363 . S
C143 H155 0.929 . S
C144 C143 1.363 . S
C144 N146 1.375 . S
C144 H162 0.931 . S
C145 N142 1.311 . S
C145 N146 1.347 . S
C145 H156 0.929 . S
N146 C144 1.375 . S
N146 C145 1.347 . S
C147 C150 1.365 . S
C147 N152 1.328 . S
C147 H153 0.929 . S
C148 C149 1.362 . S
C148 C151 1.378 . S
C148 H163 0.929 . S
C149 C148 1.362 . S
C149 C150 1.366 . S
C150 C147 1.365 . S
C150 C149 1.366 . S
C150 H164 0.930 . S
C151 C148 1.378 . S
C151 N152 1.315 . S
C151 H154 0.930 . S
N152 Co132 2.194 . S
N152 C147 1.328 . S
N152 C151 1.315 . S
H153 C147 0.929 . S
H154 C151 0.930 . S
H155 C143 0.929 . S
H156 C145 0.929 . S
O157 Co132 2.351 . S
O157 C160 1.244 . S
O158 Co132 2.155 . S
O158 C160 1.240 . S
O159 Co132 2.096 . S
O159 C140 1.247 . S
C160 O157 1.244 . S
C160 O158 1.240 . S
H161 C135 0.931 . S
H162 C144 0.931 . S
H163 C148 0.929 . S
H164 C150 0.930 . S
Co165 N169 2.148 1_556 S
Co165 N175 2.128 . S
Co165 N185 2.194 . S
Co165 O190 2.351 . S
Co165 O191 2.155 . S
Co165 O192 2.096 . S
C166 N169 1.301 . S
C166 N170 1.328 . S
C166 H171 0.930 . S
C167 C168 1.333 . S
C167 N169 1.317 . S
C167 H172 0.930 . S
C168 C167 1.333 . S
C168 N170 1.350 . S
C168 H194 0.931 . S
N169 Co165 2.148 1_554 S
N169 C166 1.301 . S
N169 C167 1.317 . S
N170 C166 1.328 . S
N170 C168 1.350 . S
H171 C166 0.930 . S
H172 C167 0.930 . S
C173 O174 1.224 . S
C173 O192 1.247 . S
O174 C173 1.224 . S
N175 Co165 2.128 . S
N175 C176 1.355 . S
N175 C178 1.311 . S
C176 N175 1.355 . S
C176 C177 1.363 . S
C176 H188 0.929 . S
C177 C176 1.363 . S
C177 N179 1.375 . S
C177 H195 0.931 . S
C178 N175 1.311 . S
C178 N179 1.347 . S
C178 H189 0.929 . S
N179 C177 1.375 . S
N179 C178 1.347 . S
C180 C183 1.365 . S
C180 N185 1.328 . S
C180 H186 0.929 1_556 S
C181 C182 1.362 . S
C181 C184 1.378 . S
C181 H196 0.929 . S
C182 C181 1.362 . S
C182 C183 1.366 . S
C183 C180 1.365 . S
C183 C182 1.366 . S
C183 H197 0.930 1_556 S
C184 C181 1.378 . S
C184 N185 1.315 . S
C184 H187 0.930 . S
N185 Co165 2.194 . S
N185 C180 1.328 . S
N185 C184 1.315 . S
H186 C180 0.929 1_554 S
H187 C184 0.930 . S
H188 C176 0.929 . S
H189 C178 0.929 . S
O190 Co165 2.351 . S
O190 C193 1.244 . S
O191 Co165 2.155 . S
O191 C193 1.240 . S
O192 Co165 2.096 . S
O192 C173 1.247 . S
C193 O190 1.244 . S
C193 O191 1.240 . S
H194 C168 0.931 . S
H195 C177 0.931 . S
H196 C181 0.929 . S
H197 C183 0.930 1_554 S
Co198 N202 2.148 . S
Co198 N208 2.128 . S
Co198 N218 2.194 . S
Co198 O223 2.351 . S
Co198 O224 2.155 . S
Co198 O225 2.096 . S
C199 N202 1.301 . S
C199 N203 1.328 . S
C199 H204 0.930 . S
C200 C201 1.333 . S
C200 N202 1.317 . S
C200 H205 0.930 . S
C201 C200 1.333 . S
C201 N203 1.350 . S
C201 H227 0.931 . S
N202 Co198 2.148 . S
N202 C199 1.301 . S
N202 C200 1.317 . S
N203 C199 1.328 . S
N203 C201 1.350 . S
H204 C199 0.930 . S
H205 C200 0.930 . S
C206 O207 1.224 . S
C206 O225 1.247 . S
O207 C206 1.224 . S
N208 Co198 2.128 . S
N208 C209 1.355 . S
N208 C211 1.311 . S
C209 N208 1.355 . S
C209 C210 1.363 . S
C209 H221 0.929 . S
C210 C209 1.363 . S
C210 N212 1.375 . S
C210 H228 0.931 . S
C211 N208 1.311 . S
C211 N212 1.347 . S
C211 H222 0.929 . S
N212 C210 1.375 . S
N212 C211 1.347 . S
C213 C216 1.365 . S
C213 N218 1.328 . S
C213 H219 0.929 . S
C214 C215 1.362 . S
C214 C217 1.378 . S
C214 H229 0.929 . S
C215 C214 1.362 . S
C215 C216 1.366 . S
C216 C213 1.365 . S
C216 C215 1.366 . S
C216 H230 0.930 . S
C217 C214 1.378 . S
C217 N218 1.315 . S
C217 H220 0.930 . S
N218 Co198 2.194 . S
N218 C213 1.328 . S
N218 C217 1.315 . S
H219 C213 0.929 . S
H220 C217 0.930 . S
H221 C209 0.929 . S
H222 C211 0.929 . S
O223 Co198 2.351 . S
O223 C226 1.244 . S
O224 Co198 2.155 . S
O224 C226 1.240 . S
O225 Co198 2.096 . S
O225 C206 1.247 . S
C226 O223 1.244 . S
C226 O224 1.240 . S
H227 C201 0.931 . S
H228 C210 0.931 . S
H229 C214 0.929 . S
H230 C216 0.930 . S
Co231 N235 2.148 . S
Co231 N241 2.128 . S
Co231 N251 2.194 . S
Co231 O256 2.351 . S
Co231 O257 2.155 . S
Co231 O258 2.096 . S
C232 N235 1.301 . S
C232 N236 1.328 . S
C232 H237 0.930 . S
C233 C234 1.333 . S
C233 N235 1.317 . S
C233 H238 0.930 . S
C234 C233 1.333 . S
C234 N236 1.350 . S
C234 H260 0.931 . S
N235 Co231 2.148 . S
N235 C232 1.301 . S
N235 C233 1.317 . S
N236 C232 1.328 . S
N236 C234 1.350 . S
H237 C232 0.930 . S
H238 C233 0.930 . S
C239 O240 1.224 . S
C239 O258 1.247 . S
O240 C239 1.224 . S
N241 Co231 2.128 . S
N241 C242 1.355 . S
N241 C244 1.311 . S
C242 N241 1.355 . S
C242 C243 1.363 1_556 S
C242 H254 0.929 . S
C243 C242 1.363 1_554 S
C243 N245 1.375 . S
C243 H261 0.931 . S
C244 N241 1.311 . S
C244 N245 1.347 1_556 S
C244 H255 0.929 . S
N245 C243 1.375 . S
N245 C244 1.347 1_554 S
C246 C249 1.365 . S
C246 N251 1.328 . S
C246 H252 0.929 . S
C247 C248 1.362 . S
C247 C250 1.378 . S
C247 H262 0.929 . S
C248 C247 1.362 . S
C248 C249 1.366 . S
C249 C246 1.365 . S
C249 C248 1.366 . S
C249 H263 0.930 . S
C250 C247 1.378 . S
C250 N251 1.315 . S
C250 H253 0.930 . S
N251 Co231 2.194 . S
N251 C246 1.328 . S
N251 C250 1.315 . S
H252 C246 0.929 . S
H253 C250 0.930 . S
H254 C242 0.929 . S
H255 C244 0.929 . S
O256 Co231 2.351 . S
O256 C259 1.244 . S
O257 Co231 2.155 . S
O257 C259 1.240 . S
O258 Co231 2.096 . S
O258 C239 1.247 . S
C259 O256 1.244 . S
C259 O257 1.240 . S
H260 C234 0.931 . S
H261 C243 0.931 . S
H262 C247 0.929 . S
H263 C249 0.930 . S
Co264 N268 2.148 1_554 S
Co264 N274 2.128 . S
Co264 N284 2.194 . S
Co264 O289 2.351 . S
Co264 O290 2.155 . S
Co264 O291 2.096 . S
C265 N268 1.301 . S
C265 N269 1.328 . S
C265 H270 0.930 . S
C266 C267 1.333 . S
C266 N268 1.317 . S
C266 H271 0.930 . S
C267 C266 1.333 . S
C267 N269 1.350 . S
C267 H293 0.931 . S
N268 Co264 2.148 1_556 S
N268 C265 1.301 . S
N268 C266 1.317 . S
N269 C265 1.328 . S
N269 C267 1.350 . S
H270 C265 0.930 . S
H271 C266 0.930 . S
C272 O273 1.224 . S
C272 O291 1.247 . S
O273 C272 1.224 . S
N274 Co264 2.128 . S
N274 C275 1.355 . S
N274 C277 1.311 . S
C275 N274 1.355 . S
C275 C276 1.363 . S
C275 H287 0.929 . S
C276 C275 1.363 . S
C276 N278 1.375 . S
C276 H294 0.931 . S
C277 N274 1.311 . S
C277 N278 1.347 . S
C277 H288 0.929 . S
N278 C276 1.375 . S
N278 C277 1.347 . S
C279 C282 1.365 . S
C279 N284 1.328 . S
C279 H285 0.929 1_554 S
C280 C281 1.362 . S
C280 C283 1.378 . S
C280 H295 0.929 . S
C281 C280 1.362 . S
C281 C282 1.366 . S
C282 C279 1.365 . S
C282 C281 1.366 . S
C282 H296 0.930 1_554 S
C283 C280 1.378 . S
C283 N284 1.315 . S
C283 H286 0.930 . S
N284 Co264 2.194 . S
N284 C279 1.328 . S
N284 C283 1.315 . S
H285 C279 0.929 1_556 S
H286 C283 0.930 . S
H287 C275 0.929 . S
H288 C277 0.929 . S
O289 Co264 2.351 . S
O289 C292 1.244 . S
O290 Co264 2.155 . S
O290 C292 1.240 . S
O291 Co264 2.096 . S
O291 C272 1.247 . S
C292 O289 1.244 . S
C292 O290 1.240 . S
H293 C267 0.931 . S
H294 C276 0.931 . S
H295 C280 0.929 . S
H296 C282 0.930 1_556 S
Co297 N301 2.148 . S
Co297 N307 2.128 . S
Co297 N317 2.194 . S
Co297 O322 2.351 . S
Co297 O323 2.155 . S
Co297 O324 2.096 . S
C298 N301 1.301 . S
C298 N302 1.328 . S
C298 H303 0.930 . S
C299 C300 1.333 . S
C299 N301 1.317 . S
C299 H304 0.930 . S
C300 C299 1.333 . S
C300 N302 1.350 . S
C300 H326 0.931 . S
N301 Co297 2.148 . S
N301 C298 1.301 . S
N301 C299 1.317 . S
N302 C298 1.328 . S
N302 C300 1.350 . S
H303 C298 0.930 . S
H304 C299 0.930 . S
C305 O306 1.224 . S
C305 O324 1.247 . S
O306 C305 1.224 . S
N307 Co297 2.128 . S
N307 C308 1.355 . S
N307 C310 1.311 . S
C308 N307 1.355 . S
C308 C309 1.363 . S
C308 H320 0.929 . S
C309 C308 1.363 . S
C309 N311 1.375 . S
C309 H327 0.931 . S
C310 N307 1.311 . S
C310 N311 1.347 . S
C310 H321 0.929 . S
N311 C309 1.375 . S
N311 C310 1.347 . S
C312 C315 1.365 . S
C312 N317 1.328 . S
C312 H318 0.929 . S
C313 C314 1.362 . S
C313 C316 1.378 . S
C313 H328 0.929 . S
C314 C313 1.362 . S
C314 C315 1.366 . S
C315 C312 1.365 . S
C315 C314 1.366 . S
C315 H329 0.930 . S
C316 C313 1.378 . S
C316 N317 1.315 . S
C316 H319 0.930 . S
N317 Co297 2.194 . S
N317 C312 1.328 . S
N317 C316 1.315 . S
H318 C312 0.929 . S
H319 C316 0.930 . S
H320 C308 0.929 . S
H321 C310 0.929 . S
O322 Co297 2.351 . S
O322 C325 1.244 . S
O323 Co297 2.155 . S
O323 C325 1.240 . S
O324 Co297 2.096 . S
O324 C305 1.247 . S
C325 O322 1.244 . S
C325 O323 1.240 . S
H326 C300 0.931 . S
H327 C309 0.931 . S
H328 C313 0.929 . S
H329 C315 0.930 . S
Co330 N334 2.148 . S
Co330 N340 2.128 . S
Co330 N350 2.194 . S
Co330 O355 2.351 . S
Co330 O356 2.155 . S
Co330 O357 2.096 . S
C331 N334 1.301 . S
C331 N335 1.328 . S
C331 H336 0.930 . S
C332 C333 1.333 . S
C332 N334 1.317 . S
C332 H337 0.930 . S
C333 C332 1.333 . S
C333 N335 1.350 . S
C333 H359 0.931 . S
N334 Co330 2.148 . S
N334 C331 1.301 . S
N334 C332 1.317 . S
N335 C331 1.328 . S
N335 C333 1.350 . S
H336 C331 0.930 . S
H337 C332 0.930 . S
C338 O339 1.224 . S
C338 O357 1.247 . S
O339 C338 1.224 . S
N340 Co330 2.128 . S
N340 C341 1.355 . S
N340 C343 1.311 . S
C341 N340 1.355 . S
C341 C342 1.363 1_556 S
C341 H353 0.929 . S
C342 C341 1.363 1_554 S
C342 N344 1.375 . S
C342 H360 0.931 . S
C343 N340 1.311 . S
C343 N344 1.347 1_556 S
C343 H354 0.929 . S
N344 C342 1.375 . S
N344 C343 1.347 1_554 S
C345 C348 1.365 . S
C345 N350 1.328 . S
C345 H351 0.929 . S
C346 C347 1.362 . S
C346 C349 1.378 . S
C346 H361 0.929 . S
C347 C346 1.362 . S
C347 C348 1.366 . S
C348 C345 1.365 . S
C348 C347 1.366 . S
C348 H362 0.930 . S
C349 C346 1.378 . S
C349 N350 1.315 . S
C349 H352 0.930 . S
N350 Co330 2.194 . S
N350 C345 1.328 . S
N350 C349 1.315 . S
H351 C345 0.929 . S
H352 C349 0.930 . S
H353 C341 0.929 . S
H354 C343 0.929 . S
O355 Co330 2.351 . S
O355 C358 1.244 . S
O356 Co330 2.155 . S
O356 C358 1.240 . S
O357 Co330 2.096 . S
O357 C338 1.247 . S
C358 O355 1.244 . S
C358 O356 1.240 . S
H359 C333 0.931 . S
H360 C342 0.931 . S
H361 C346 0.929 . S
H362 C348 0.930 . S
Co363 N367 2.148 1_554 S
Co363 N373 2.128 . S
Co363 N383 2.194 . S
Co363 O388 2.351 . S
Co363 O389 2.155 . S
Co363 O390 2.096 . S
C364 N367 1.301 . S
C364 N368 1.328 . S
C364 H369 0.930 . S
C365 C366 1.333 . S
C365 N367 1.317 . S
C365 H370 0.930 . S
C366 C365 1.333 . S
C366 N368 1.350 . S
C366 H392 0.931 . S
N367 Co363 2.148 1_556 S
N367 C364 1.301 . S
N367 C365 1.317 . S
N368 C364 1.328 . S
N368 C366 1.350 . S
H369 C364 0.930 . S
H370 C365 0.930 . S
C371 O372 1.224 . S
C371 O390 1.247 . S
O372 C371 1.224 . S
N373 Co363 2.128 . S
N373 C374 1.355 . S
N373 C376 1.311 . S
C374 N373 1.355 . S
C374 C375 1.363 . S
C374 H386 0.929 . S
C375 C374 1.363 . S
C375 N377 1.375 . S
C375 H393 0.931 . S
C376 N373 1.311 . S
C376 N377 1.347 . S
C376 H387 0.929 . S
N377 C375 1.375 . S
N377 C376 1.347 . S
C378 C381 1.365 . S
C378 N383 1.328 . S
C378 H384 0.929 1_554 S
C379 C380 1.362 . S
C379 C382 1.378 . S
C379 H394 0.929 . S
C380 C379 1.362 . S
C380 C381 1.366 . S
C381 C378 1.365 . S
C381 C380 1.366 . S
C381 H395 0.930 1_554 S
C382 C379 1.378 . S
C382 N383 1.315 . S
C382 H385 0.930 . S
N383 Co363 2.194 . S
N383 C378 1.328 . S
N383 C382 1.315 . S
H384 C378 0.929 1_556 S
H385 C382 0.930 . S
H386 C374 0.929 . S
H387 C376 0.929 . S
O388 Co363 2.351 . S
O388 C391 1.244 . S
O389 Co363 2.155 . S
O389 C391 1.240 . S
O390 Co363 2.096 . S
O390 C371 1.247 . S
C391 O388 1.244 . S
C391 O389 1.240 . S
H392 C366 0.931 . S
H393 C375 0.931 . S
H394 C379 0.929 . S
H395 C381 0.930 1_556 S
C396 C397 1.369 . S
C396 C398 1.419 1_554 S
C396 H400 0.930 . S
C397 C396 1.369 . S
C397 C406 1.429 . S
C398 C396 1.419 1_556 S
C398 C399 1.363 . S
C398 H401 0.929 . S
C399 C398 1.363 . S
C399 C405 1.428 . S
H400 C396 0.930 . S
H401 C398 0.929 . S
S402 N403 1.613 . S
S402 N404 1.610 1_554 S
N403 S402 1.613 . S
N403 C406 1.350 . S
N404 S402 1.610 1_556 S
N404 C405 1.351 . S
C405 C399 1.428 . S
C405 N404 1.351 . S
C405 C406 1.434 1_556 S
C406 C397 1.429 . S
C406 N403 1.350 . S
C406 C405 1.434 1_554 S
C407 C408 1.369 . S
C407 C409 1.419 . S
C407 H411 0.930 . S
C408 C407 1.369 . S
C408 C417 1.429 . S
C409 C407 1.419 . S
C409 C410 1.363 . S
C409 H412 0.929 . S
C410 C409 1.363 . S
C410 C416 1.428 . S
H411 C407 0.930 . S
H412 C409 0.929 . S
S413 N414 1.613 . S
S413 N415 1.610 . S
N414 S413 1.613 . S
N414 C417 1.350 . S
N415 S413 1.610 . S
N415 C416 1.351 . S
C416 C410 1.428 . S
C416 N415 1.351 . S
C416 C417 1.434 . S
C417 C408 1.429 . S
C417 N414 1.350 . S
C417 C416 1.434 . S
C418 C419 1.369 . S
C418 C420 1.419 . S
C418 H422 0.930 . S
C419 C418 1.369 . S
C419 C428 1.429 . S
C420 C418 1.419 . S
C420 C421 1.363 . S
C420 H423 0.929 . S
C421 C420 1.363 . S
C421 C427 1.428 . S
H422 C418 0.930 . S
H423 C420 0.929 . S
S424 N425 1.613 . S
S424 N426 1.610 . S
N425 S424 1.613 . S
N425 C428 1.350 . S
N426 S424 1.610 . S
N426 C427 1.351 . S
C427 C421 1.428 . S
C427 N426 1.351 . S
C427 C428 1.434 . S
C428 C419 1.429 . S
C428 N425 1.350 . S
C428 C427 1.434 . S
C429 C430 1.369 . S
C429 C431 1.419 1_556 S
C429 H433 0.930 . S
C430 C429 1.369 . S
C430 C439 1.429 . S
C431 C429 1.419 1_554 S
C431 C432 1.363 . S
C431 H434 0.929 . S
C432 C431 1.363 . S
C432 C438 1.428 . S
H433 C429 0.930 . S
H434 C431 0.929 . S
S435 N436 1.613 . S
S435 N437 1.610 1_556 S
N436 S435 1.613 . S
N436 C439 1.350 . S
N437 S435 1.610 1_554 S
N437 C438 1.351 . S
C438 C432 1.428 . S
C438 N437 1.351 . S
C438 C439 1.434 1_554 S
C439 C430 1.429 . S
C439 N436 1.350 . S
C439 C438 1.434 1_556 S
C440 C441 1.369 . S
C440 C442 1.419 . S
C440 H444 0.930 . S
C441 C440 1.369 . S
C441 C450 1.429 . S
C442 C440 1.419 . S
C442 C443 1.363 . S
C442 H445 0.929 . S
C443 C442 1.363 . S
C443 C449 1.428 . S
H444 C440 0.930 . S
H445 C442 0.929 . S
S446 N447 1.613 . S
S446 N448 1.610 . S
N447 S446 1.613 . S
N447 C450 1.350 . S
N448 S446 1.610 . S
N448 C449 1.351 . S
C449 C443 1.428 . S
C449 N448 1.351 . S
C449 C450 1.434 . S
C450 C441 1.429 . S
C450 N447 1.350 . S
C450 C449 1.434 . S
C451 C452 1.369 . S
C451 C453 1.419 . S
C451 H455 0.930 . S
C452 C451 1.369 . S
C452 C461 1.429 . S
C453 C451 1.419 . S
C453 C454 1.363 . S
C453 H456 0.929 . S
C454 C453 1.363 . S
C454 C460 1.428 . S
H455 C451 0.930 . S
H456 C453 0.929 . S
S457 N458 1.613 . S
S457 N459 1.610 . S
N458 S457 1.613 . S
N458 C461 1.350 . S
N459 S457 1.610 . S
N459 C460 1.351 . S
C460 C454 1.428 . S
C460 N459 1.351 . S
C460 C461 1.434 . S
C461 C452 1.429 . S
C461 N458 1.350 . S
C461 C460 1.434 . S
C462 C463 1.369 . S
C462 C464 1.419 . S
C462 H466 0.930 . S
C463 C462 1.369 . S
C463 C472 1.429 . S
C464 C462 1.419 . S
C464 C465 1.363 . S
C464 H467 0.929 . S
C465 C464 1.363 . S
C465 C471 1.428 . S
H466 C462 0.930 . S
H467 C464 0.929 . S
S468 N469 1.613 . S
S468 N470 1.610 . S
N469 S468 1.613 . S
N469 C472 1.350 . S
N470 S468 1.610 . S
N470 C471 1.351 . S
C471 C465 1.428 . S
C471 N470 1.351 . S
C471 C472 1.434 . S
C472 C463 1.429 . S
C472 N469 1.350 . S
C472 C471 1.434 . S
C473 C474 1.369 . S
C473 C475 1.419 . S
C473 H477 0.930 . S
C474 C473 1.369 . S
C474 C483 1.429 . S
C475 C473 1.419 . S
C475 C476 1.363 . S
C475 H478 0.929 . S
C476 C475 1.363 . S
C476 C482 1.428 . S
H477 C473 0.930 . S
H478 C475 0.929 . S
S479 N480 1.613 . S
S479 N481 1.610 . S
N480 S479 1.613 . S
N480 C483 1.350 . S
N481 S479 1.610 . S
N481 C482 1.351 . S
C482 C476 1.428 . S
C482 N481 1.351 . S
C482 C483 1.434 . S
C483 C474 1.429 . S
C483 N480 1.350 . S
C483 C482 1.434 . S
C484 C485 1.369 . S
C484 C486 1.419 . S
C484 H488 0.930 . S
C485 C484 1.369 . S
C485 C494 1.429 1_556 S
C486 C484 1.419 . S
C486 C487 1.363 1_556 S
C486 H489 0.929 . S
C487 C486 1.363 1_554 S
C487 C493 1.428 . S
H488 C484 0.930 . S
H489 C486 0.929 . S
S490 N491 1.613 . S
S490 N492 1.610 . S
N491 S490 1.613 . S
N491 C494 1.350 . S
N492 S490 1.610 . S
N492 C493 1.351 . S
C493 C487 1.428 . S
C493 N492 1.351 . S
C493 C494 1.434 . S
C494 C485 1.429 1_554 S
C494 N491 1.350 . S
C494 C493 1.434 . S
C495 C496 1.369 . S
C495 C497 1.419 . S
C495 H499 0.930 . S
C496 C495 1.369 . S
C496 C505 1.429 . S
C497 C495 1.419 . S
C497 C498 1.363 . S
C497 H500 0.929 . S
C498 C497 1.363 . S
C498 C504 1.428 . S
H499 C495 0.930 . S
H500 C497 0.929 . S
S501 N502 1.613 . S
S501 N503 1.610 . S
N502 S501 1.613 . S
N502 C505 1.350 . S
N503 S501 1.610 . S
N503 C504 1.351 . S
C504 C498 1.428 . S
C504 N503 1.351 . S
C504 C505 1.434 . S
C505 C496 1.429 . S
C505 N502 1.350 . S
C505 C504 1.434 . S
C506 C507 1.369 . S
C506 C508 1.419 . S
C506 H510 0.930 . S
C507 C506 1.369 . S
C507 C516 1.429 . S
C508 C506 1.419 . S
C508 C509 1.363 . S
C508 H511 0.929 . S
C509 C508 1.363 . S
C509 C515 1.428 . S
H510 C506 0.930 . S
H511 C508 0.929 . S
S512 N513 1.613 . S
S512 N514 1.610 . S
N513 S512 1.613 . S
N513 C516 1.350 . S
N514 S512 1.610 . S
N514 C515 1.351 . S
C515 C509 1.428 . S
C515 N514 1.351 . S
C515 C516 1.434 . S
C516 C507 1.429 . S
C516 N513 1.350 . S
C516 C515 1.434 . S
C517 C518 1.369 . S
C517 C519 1.419 . S
C517 H521 0.930 . S
C518 C517 1.369 . S
C518 C527 1.429 1_554 S
C519 C517 1.419 . S
C519 C520 1.363 1_554 S
C519 H522 0.929 . S
C520 C519 1.363 1_556 S
C520 C526 1.428 . S
H521 C517 0.930 . S
H522 C519 0.929 . S
S523 N524 1.613 . S
S523 N525 1.610 . S
N524 S523 1.613 . S
N524 C527 1.350 . S
N525 S523 1.610 . S
N525 C526 1.351 . S
C526 C520 1.428 . S
C526 N525 1.351 . S
C526 C527 1.434 . S
C527 C518 1.429 1_556 S
C527 N524 1.350 . S
C527 C526 1.434 . S
C528 C529 1.369 . S
C528 C530 1.419 . S
C528 H532 0.930 . S
C529 C528 1.369 . S
C529 C538 1.429 . S
C530 C528 1.419 . S
C530 C531 1.363 . S
C530 H533 0.929 . S
C531 C530 1.363 . S
C531 C537 1.428 . S
H532 C528 0.930 . S
H533 C530 0.929 . S
S534 N535 1.613 . S
S534 N536 1.610 . S
N535 S534 1.613 . S
N535 C538 1.350 . S
N536 S534 1.610 . S
N536 C537 1.351 . S
C537 C531 1.428 . S
C537 N536 1.351 . S
C537 C538 1.434 . S
C538 C529 1.429 . S
C538 N535 1.350 . S
C538 C537 1.434 . S
C539 C540 1.369 . S
C539 C541 1.419 1_455 S
C539 H543 0.930 . S
C540 C539 1.369 . S
C540 C549 1.429 . S
C541 C539 1.419 1_655 S
C541 C542 1.363 . S
C541 H544 0.929 . S
C542 C541 1.363 . S
C542 C548 1.428 . S
H543 C539 0.930 . S
H544 C541 0.929 . S
S545 N546 1.613 1_655 S
S545 N547 1.610 . S
N546 S545 1.613 1_455 S
N546 C549 1.350 . S
N547 S545 1.610 . S
N547 C548 1.351 . S
C548 C542 1.428 . S
C548 N547 1.351 . S
C548 C549 1.434 1_655 S
C549 C540 1.429 . S
C549 N546 1.350 . S
C549 C548 1.434 1_455 S
C550 C551 1.369 1_556 S
C550 C552 1.419 1_545 S
C550 H554 0.930 . S
C551 C550 1.369 1_554 S
C551 C560 1.429 . S
C552 C550 1.419 1_565 S
C552 C553 1.363 . S
C552 H555 0.929 . S
C553 C552 1.363 . S
C553 C559 1.428 1_556 S
H554 C550 0.930 . S
H555 C552 0.929 . S
S556 N557 1.613 1_565 S
S556 N558 1.610 . S
N557 S556 1.613 1_545 S
N557 C560 1.350 . S
N558 S556 1.610 . S
N558 C559 1.351 . S
C559 C553 1.428 1_554 S
C559 N558 1.351 . S
C559 C560 1.434 1_565 S
C560 C551 1.429 . S
C560 N557 1.350 . S
C560 C559 1.434 1_545 S
C561 C562 1.369 . S
C561 C563 1.419 . S
C561 H565 0.930 . S
C562 C561 1.369 . S
C562 C571 1.429 . S
C563 C561 1.419 . S
C563 C564 1.363 . S
C563 H566 0.929 . S
C564 C563 1.363 . S
C564 C570 1.428 . S
H565 C561 0.930 . S
H566 C563 0.929 . S
S567 N568 1.613 . S
S567 N569 1.610 . S
N568 S567 1.613 . S
N568 C571 1.350 . S
N569 S567 1.610 . S
N569 C570 1.351 . S
C570 C564 1.428 . S
C570 N569 1.351 . S
C570 C571 1.434 . S
C571 C562 1.429 . S
C571 N568 1.350 . S
C571 C570 1.434 . S
C572 C573 1.369 . S
C572 C574 1.419 1_455 S
C572 H576 0.930 . S
C573 C572 1.369 . S
C573 C582 1.429 . S
C574 C572 1.419 1_655 S
C574 C575 1.363 . S
C574 H577 0.929 . S
C575 C574 1.363 . S
C575 C581 1.428 . S
H576 C572 0.930 . S
H577 C574 0.929 . S
S578 N579 1.613 . S
S578 N580 1.610 1_455 S
N579 S578 1.613 . S
N579 C582 1.350 . S
N580 S578 1.610 1_655 S
N580 C581 1.351 . S
C581 C575 1.428 . S
C581 N580 1.351 . S
C581 C582 1.434 1_655 S
C582 C573 1.429 . S
C582 N579 1.350 . S
C582 C581 1.434 1_455 S
C583 C584 1.369 . S
C583 C585 1.419 1_545 S
C583 H587 0.930 . S
C584 C583 1.369 . S
C584 C593 1.429 1_556 S
C585 C583 1.419 1_565 S
C585 C586 1.363 1_556 S
C585 H588 0.929 . S
C586 C585 1.363 1_554 S
C586 C592 1.428 . S
H587 C583 0.930 . S
H588 C585 0.929 . S
S589 N590 1.613 . S
S589 N591 1.610 1_545 S
N590 S589 1.613 . S
N590 C593 1.350 . S
N591 S589 1.610 1_565 S
N591 C592 1.351 . S
C592 C586 1.428 . S
C592 N591 1.351 . S
C592 C593 1.434 1_565 S
C593 C584 1.429 1_554 S
C593 N590 1.350 . S
C593 C592 1.434 1_545 S
C594 C595 1.369 . S
C594 C596 1.419 . S
C594 H598 0.930 . S
C595 C594 1.369 . S
C595 C604 1.429 . S
C596 C594 1.419 . S
C596 C597 1.363 . S
C596 H599 0.929 . S
C597 C596 1.363 . S
C597 C603 1.428 . S
H598 C594 0.930 . S
H599 C596 0.929 . S
S600 N601 1.613 . S
S600 N602 1.610 . S
N601 S600 1.613 . S
N601 C604 1.350 . S
N602 S600 1.610 . S
N602 C603 1.351 . S
C603 C597 1.428 . S
C603 N602 1.351 . S
C603 C604 1.434 . S
C604 C595 1.429 . S
C604 N601 1.350 . S
C604 C603 1.434 . S
C605 C606 1.369 . S
C605 C607 1.419 . S
C605 H609 0.930 . S
C606 C605 1.369 . S
C606 C615 1.429 . S
C607 C605 1.419 . S
C607 C608 1.363 1_554 S
C607 H610 0.929 . S
C608 C607 1.363 1_556 S
C608 C614 1.428 1_556 S
H609 C605 0.930 . S
H610 C607 0.929 . S
S611 N612 1.613 . S
S611 N613 1.610 1_554 S
N612 S611 1.613 . S
N612 C615 1.350 . S
N613 S611 1.610 1_556 S
N613 C614 1.351 1_556 S
C614 C608 1.428 1_554 S
C614 N613 1.351 1_554 S
C614 C615 1.434 . S
C615 C606 1.429 . S
C615 N612 1.350 . S
C615 C614 1.434 . S
C616 C617 1.369 . S
C616 C618 1.419 . S
C616 H620 0.930 . S
C617 C616 1.369 . S
C617 C626 1.429 . S
C618 C616 1.419 . S
C618 C619 1.363 . S
C618 H621 0.929 . S
C619 C618 1.363 . S
C619 C625 1.428 . S
H620 C616 0.930 . S
H621 C618 0.929 . S
S622 N623 1.613 . S
S622 N624 1.610 . S
N623 S622 1.613 . S
N623 C626 1.350 . S
N624 S622 1.610 . S
N624 C625 1.351 . S
C625 C619 1.428 . S
C625 N624 1.351 . S
C625 C626 1.434 . S
C626 C617 1.429 . S
C626 N623 1.350 . S
C626 C625 1.434 . S
C627 C628 1.369 . S
C627 C629 1.419 . S
C627 H631 0.930 . S
C628 C627 1.369 . S
C628 C637 1.429 . S
C629 C627 1.419 . S
C629 C630 1.363 . S
C629 H632 0.929 . S
C630 C629 1.363 . S
C630 C636 1.428 . S
H631 C627 0.930 . S
H632 C629 0.929 . S
S633 N634 1.613 . S
S633 N635 1.610 . S
N634 S633 1.613 . S
N634 C637 1.350 . S
N635 S633 1.610 . S
N635 C636 1.351 . S
C636 C630 1.428 . S
C636 N635 1.351 . S
C636 C637 1.434 . S
C637 C628 1.429 . S
C637 N634 1.350 . S
C637 C636 1.434 . S
C638 C639 1.369 . S
C638 C640 1.419 . S
C638 H642 0.930 . S
C639 C638 1.369 . S
C639 C648 1.429 . S
C640 C638 1.419 . S
C640 C641 1.363 1_554 S
C640 H643 0.929 1_554 S
C641 C640 1.363 1_556 S
C641 C647 1.428 1_556 S
H642 C638 0.930 . S
H643 C640 0.929 1_556 S
S644 N645 1.613 . S
S644 N646 1.610 . S
N645 S644 1.613 . S
N645 C648 1.350 . S
N646 S644 1.610 . S
N646 C647 1.351 . S
C647 C641 1.428 1_554 S
C647 N646 1.351 . S
C647 C648 1.434 . S
C648 C639 1.429 . S
C648 N645 1.350 . S
C648 C647 1.434 . S
C649 C650 1.369 . S
C649 C651 1.419 . S
C649 H653 0.930 . S
C650 C649 1.369 . S
C650 C659 1.429 . S
C651 C649 1.419 . S
C651 C652 1.363 . S
C651 H654 0.929 . S
C652 C651 1.363 . S
C652 C658 1.428 . S
H653 C649 0.930 . S
H654 C651 0.929 . S
S655 N656 1.613 . S
S655 N657 1.610 . S
N656 S655 1.613 . S
N656 C659 1.350 . S
N657 S655 1.610 . S
N657 C658 1.351 . S
C658 C652 1.428 . S
C658 N657 1.351 . S
C658 C659 1.434 . S
C659 C650 1.429 . S
C659 N656 1.350 . S
C659 C658 1.434 . S
C660 C661 1.369 1_556 S
C660 C662 1.419 . S
C660 H664 0.930 . S
C661 C660 1.369 1_554 S
C661 C670 1.429 1_554 S
C662 C660 1.419 . S
C662 C663 1.363 . S
C662 H665 0.929 . S
C663 C662 1.363 . S
C663 C669 1.428 . S
H664 C660 0.930 . S
H665 C662 0.929 . S
S666 N667 1.613 1_556 S
S666 N668 1.610 . S
N667 S666 1.613 1_554 S
N667 C670 1.350 1_554 S
N668 S666 1.610 . S
N668 C669 1.351 . S
C669 C663 1.428 . S
C669 N668 1.351 . S
C669 C670 1.434 . S
C670 C661 1.429 1_556 S
C670 N667 1.350 1_556 S
C670 C669 1.434 . S
C671 C672 1.369 . S
C671 C673 1.419 . S
C671 H675 0.930 . S
C672 C671 1.369 . S
C672 C681 1.429 . S
C673 C671 1.419 . S
C673 C674 1.363 . S
C673 H676 0.929 . S
C674 C673 1.363 . S
C674 C680 1.428 . S
H675 C671 0.930 . S
H676 C673 0.929 . S
S677 N678 1.613 . S
S677 N679 1.610 . S
N678 S677 1.613 . S
N678 C681 1.350 . S
N679 S677 1.610 . S
N679 C680 1.351 . S
C680 C674 1.428 . S
C680 N679 1.351 . S
C680 C681 1.434 . S
C681 C672 1.429 . S
C681 N678 1.350 . S
C681 C680 1.434 . S
C682 C683 1.369 . S
C682 C684 1.419 . S
C682 H686 0.930 . S
C683 C682 1.369 . S
C683 C692 1.429 . S
C684 C682 1.419 . S
C684 C685 1.363 . S
C684 H687 0.929 . S
C685 C684 1.363 . S
C685 C691 1.428 . S
H686 C682 0.930 . S
H687 C684 0.929 . S
S688 N689 1.613 . S
S688 N690 1.610 . S
N689 S688 1.613 . S
N689 C692 1.350 . S
N690 S688 1.610 . S
N690 C691 1.351 . S
C691 C685 1.428 . S
C691 N690 1.351 . S
C691 C692 1.434 . S
C692 C683 1.429 . S
C692 N689 1.350 . S
C692 C691 1.434 . S
C693 C694 1.369 . S
C693 C695 1.419 . S
C693 H697 0.930 . S
C694 C693 1.369 . S
C694 C703 1.429 . S
C695 C693 1.419 . S
C695 C696 1.363 1_556 S
C695 H698 0.929 1_556 S
C696 C695 1.363 1_554 S
C696 C702 1.428 1_554 S
H697 C693 0.930 . S
H698 C695 0.929 1_554 S
S699 N700 1.613 . S
S699 N701 1.610 . S
N700 S699 1.613 . S
N700 C703 1.350 . S
N701 S699 1.610 . S
N701 C702 1.351 . S
C702 C696 1.428 1_556 S
C702 N701 1.351 . S
C702 C703 1.434 . S
C703 C694 1.429 . S
C703 N700 1.350 . S
C703 C702 1.434 . S
C704 C705 1.369 . S
C704 C706 1.419 . S
C704 H708 0.930 . S
C705 C704 1.369 . S
C705 C714 1.429 . S
C706 C704 1.419 . S
C706 C707 1.363 . S
C706 H709 0.929 . S
C707 C706 1.363 . S
C707 C713 1.428 . S
H708 C704 0.930 . S
H709 C706 0.929 . S
S710 N711 1.613 . S
S710 N712 1.610 . S
N711 S710 1.613 . S
N711 C714 1.350 . S
N712 S710 1.610 . S
N712 C713 1.351 . S
C713 C707 1.428 . S
C713 N712 1.351 . S
C713 C714 1.434 . S
C714 C705 1.429 . S
C714 N711 1.350 . S
C714 C713 1.434 . S
C715 C716 1.369 . S
C715 C717 1.419 . S
C715 H719 0.930 . S
C716 C715 1.369 . S
C716 C725 1.429 . S
C717 C715 1.419 . S
C717 C718 1.363 . S
C717 H720 0.929 . S
C718 C717 1.363 . S
C718 C724 1.428 . S
H719 C715 0.930 . S
H720 C717 0.929 . S
S721 N722 1.613 . S
S721 N723 1.610 . S
N722 S721 1.613 . S
N722 C725 1.350 . S
N723 S721 1.610 . S
N723 C724 1.351 . S
C724 C718 1.428 . S
C724 N723 1.351 . S
C724 C725 1.434 . S
C725 C716 1.429 . S
C725 N722 1.350 . S
C725 C724 1.434 . S
C397 C8 1.524 . S
C399 C338 1.513 . S
C408 C371 1.523 . S
C410 C41 1.513 . S
C419 C206 1.523 . S
C421 C74 1.513 . S
C430 C239 1.521 . S
C432 C107 1.517 . S
C441 C140 1.515 . S
C443 C272 1.522 . S
C452 C305 1.524 . S
C454 C173 1.513 . S
C463 C215 1.620 . S
C465 C17 1.618 . S
C474 C248 1.617 . S
C476 C50 1.619 . S
C485 C83 1.615 . S
C487 C281 1.617 . S
C496 C116 1.615 . S
C498 C314 1.617 . S
C507 C347 1.615 . S
C509 C149 1.616 . S
C518 C380 1.618 . S
C520 C182 1.619 . S
C529 C28 1.514 . S
C531 C325 1.515 . S
C540 C358 1.516 . S
C542 C61 1.516 . S
C551 C391 1.512 . S
C553 C94 1.514 . S
C562 C226 1.514 . S
C564 C127 1.515 . S
C573 C160 1.514 . S
C575 C259 1.513 . S
C584 C193 1.515 . S
C586 C292 1.514 . S
C595 N5 1.238 . S
C597 N14 1.238 . S
C606 N47 1.239 . S
C608 N38 1.236 . S
C617 N71 1.236 . S
C619 N80 1.238 . S
C628 N113 1.239 . S
C630 N104 1.236 . S
C639 N146 1.238 . S
C641 N137 1.238 . S
C650 N179 1.237 . S
C652 N170 1.238 . S
C661 N203 1.237 . S
C663 N212 1.238 . S
C672 N245 1.238 . S
C674 N236 1.237 . S
C683 N278 1.239 . S
C685 N269 1.236 . S
C694 N311 1.238 . S
C696 N302 1.237 . S
C705 N335 1.236 . S
C707 N344 1.239 . S
C716 N377 1.239 . S
C718 N368 1.236 . S
