# Generated by pormake.
# Topology uke, (4)-cn, num edge types: 1
# Building blocks:
#     Node 0, Type 0, BuildingBlock: KUFVIS_clean_sbu_0, # of connection points: 4
#     Node 1, Type 0, BuildingBlock: KUFVIS_clean_sbu_0, # of connection points: 4
#     Node 2, Type 0, BuildingBlock: KUFVIS_clean_sbu_0, # of connection points: 4
#     Node 3, Type 0, BuildingBlock: KUFVIS_clean_sbu_0, # of connection points: 4
#     Node 4, Type 0, BuildingBlock: KUFVIS_clean_sbu_0, # of connection points: 4
#     Node 5, Type 0, BuildingBlock: KUFVIS_clean_sbu_0, # of connection points: 4
#     Node 6, Type 0, BuildingBlock: KUFVIS_clean_sbu_0, # of connection points: 4
#     Node 7, Type 0, BuildingBlock: KUFVIS_clean_sbu_0, # of connection points: 4
#     Node 8, Type 0, BuildingBlock: KUFVIS_clean_sbu_0, # of connection points: 4
#     Node 9, Type 0, BuildingBlock: KUFVIS_clean_sbu_0, # of connection points: 4
#     Node 10, Type 0, BuildingBlock: KUFVIS_clean_sbu_0, # of connection points: 4
#     Node 11, Type 0, BuildingBlock: KUFVIS_clean_sbu_0, # of connection points: 4
#     Node 12, Type 0, BuildingBlock: KUFVIS_clean_sbu_0, # of connection points: 4
#     Node 13, Type 0, BuildingBlock: KUFVIS_clean_sbu_0, # of connection points: 4
#     Node 14, Type 0, BuildingBlock: KUFVIS_clean_sbu_0, # of connection points: 4
#     Node 15, Type 0, BuildingBlock: KUFVIS_clean_sbu_0, # of connection points: 4
#     Node 16, Type 0, BuildingBlock: KUFVIS_clean_sbu_0, # of connection points: 4
#     Node 17, Type 0, BuildingBlock: KUFVIS_clean_sbu_0, # of connection points: 4
#     Node 18, Type 0, BuildingBlock: KUFVIS_clean_sbu_0, # of connection points: 4
#     Node 19, Type 0, BuildingBlock: KUFVIS_clean_sbu_0, # of connection points: 4
#     Node 20, Type 0, BuildingBlock: KUFVIS_clean_sbu_0, # of connection points: 4
#     Node 21, Type 0, BuildingBlock: KUFVIS_clean_sbu_0, # of connection points: 4
#     Node 22, Type 0, BuildingBlock: KUFVIS_clean_sbu_0, # of connection points: 4
#     Node 23, Type 0, BuildingBlock: KUFVIS_clean_sbu_0, # of connection points: 4
#     Node 24, Type 0, BuildingBlock: KUFVIS_clean_sbu_0, # of connection points: 4
#     Node 25, Type 0, BuildingBlock: KUFVIS_clean_sbu_0, # of connection points: 4
#     Node 26, Type 0, BuildingBlock: KUFVIS_clean_sbu_0, # of connection points: 4
#     Node 27, Type 0, BuildingBlock: KUFVIS_clean_sbu_0, # of connection points: 4
#     Node 28, Type 0, BuildingBlock: KUFVIS_clean_sbu_0, # of connection points: 4
#     Node 29, Type 0, BuildingBlock: KUFVIS_clean_sbu_0, # of connection points: 4
#     Node 30, Type 0, BuildingBlock: KUFVIS_clean_sbu_0, # of connection points: 4
#     Node 31, Type 0, BuildingBlock: KUFVIS_clean_sbu_0, # of connection points: 4
#     Edge 32, Type (0, 0), BuildingBlock: XIVTED_clean_linker_0, # of connection points: 2
#     Edge 33, Type (0, 0), BuildingBlock: XIVTED_clean_linker_0, # of connection points: 2
#     Edge 34, Type (0, 0), BuildingBlock: XIVTED_clean_linker_0, # of connection points: 2
#     Edge 35, Type (0, 0), BuildingBlock: XIVTED_clean_linker_0, # of connection points: 2
#     Edge 36, Type (0, 0), BuildingBlock: XIVTED_clean_linker_0, # of connection points: 2
#     Edge 37, Type (0, 0), BuildingBlock: XIVTED_clean_linker_0, # of connection points: 2
#     Edge 38, Type (0, 0), BuildingBlock: XIVTED_clean_linker_0, # of connection points: 2
#     Edge 39, Type (0, 0), BuildingBlock: XIVTED_clean_linker_0, # of connection points: 2
#     Edge 40, Type (0, 0), BuildingBlock: XIVTED_clean_linker_0, # of connection points: 2
#     Edge 41, Type (0, 0), BuildingBlock: XIVTED_clean_linker_0, # of connection points: 2
#     Edge 42, Type (0, 0), BuildingBlock: XIVTED_clean_linker_0, # of connection points: 2
#     Edge 43, Type (0, 0), BuildingBlock: XIVTED_clean_linker_0, # of connection points: 2
#     Edge 44, Type (0, 0), BuildingBlock: XIVTED_clean_linker_0, # of connection points: 2
#     Edge 45, Type (0, 0), BuildingBlock: XIVTED_clean_linker_0, # of connection points: 2
#     Edge 46, Type (0, 0), BuildingBlock: XIVTED_clean_linker_0, # of connection points: 2
#     Edge 47, Type (0, 0), BuildingBlock: XIVTED_clean_linker_0, # of connection points: 2
#     Edge 48, Type (0, 0), BuildingBlock: XIVTED_clean_linker_0, # of connection points: 2
#     Edge 49, Type (0, 0), BuildingBlock: XIVTED_clean_linker_0, # of connection points: 2
#     Edge 50, Type (0, 0), BuildingBlock: XIVTED_clean_linker_0, # of connection points: 2
#     Edge 51, Type (0, 0), BuildingBlock: XIVTED_clean_linker_0, # of connection points: 2
#     Edge 52, Type (0, 0), BuildingBlock: XIVTED_clean_linker_0, # of connection points: 2
#     Edge 53, Type (0, 0), BuildingBlock: XIVTED_clean_linker_0, # of connection points: 2
#     Edge 54, Type (0, 0), BuildingBlock: XIVTED_clean_linker_0, # of connection points: 2
#     Edge 55, Type (0, 0), BuildingBlock: XIVTED_clean_linker_0, # of connection points: 2
#     Edge 56, Type (0, 0), BuildingBlock: XIVTED_clean_linker_0, # of connection points: 2
#     Edge 57, Type (0, 0), BuildingBlock: XIVTED_clean_linker_0, # of connection points: 2
#     Edge 58, Type (0, 0), BuildingBlock: XIVTED_clean_linker_0, # of connection points: 2
#     Edge 59, Type (0, 0), BuildingBlock: XIVTED_clean_linker_0, # of connection points: 2
#     Edge 60, Type (0, 0), BuildingBlock: XIVTED_clean_linker_0, # of connection points: 2
#     Edge 61, Type (0, 0), BuildingBlock: XIVTED_clean_linker_0, # of connection points: 2
#     Edge 62, Type (0, 0), BuildingBlock: XIVTED_clean_linker_0, # of connection points: 2
#     Edge 63, Type (0, 0), BuildingBlock: XIVTED_clean_linker_0, # of connection points: 2
#     Edge 64, Type (0, 0), BuildingBlock: XIVTED_clean_linker_0, # of connection points: 2
#     Edge 65, Type (0, 0), BuildingBlock: XIVTED_clean_linker_0, # of connection points: 2
#     Edge 66, Type (0, 0), BuildingBlock: XIVTED_clean_linker_0, # of connection points: 2
#     Edge 67, Type (0, 0), BuildingBlock: XIVTED_clean_linker_0, # of connection points: 2
#     Edge 68, Type (0, 0), BuildingBlock: XIVTED_clean_linker_0, # of connection points: 2
#     Edge 69, Type (0, 0), BuildingBlock: XIVTED_clean_linker_0, # of connection points: 2
#     Edge 70, Type (0, 0), BuildingBlock: XIVTED_clean_linker_0, # of connection points: 2
#     Edge 71, Type (0, 0), BuildingBlock: XIVTED_clean_linker_0, # of connection points: 2
#     Edge 72, Type (0, 0), BuildingBlock: XIVTED_clean_linker_0, # of connection points: 2
#     Edge 73, Type (0, 0), BuildingBlock: XIVTED_clean_linker_0, # of connection points: 2
#     Edge 74, Type (0, 0), BuildingBlock: XIVTED_clean_linker_0, # of connection points: 2
#     Edge 75, Type (0, 0), BuildingBlock: XIVTED_clean_linker_0, # of connection points: 2
#     Edge 76, Type (0, 0), BuildingBlock: XIVTED_clean_linker_0, # of connection points: 2
#     Edge 77, Type (0, 0), BuildingBlock: XIVTED_clean_linker_0, # of connection points: 2
#     Edge 78, Type (0, 0), BuildingBlock: XIVTED_clean_linker_0, # of connection points: 2
#     Edge 79, Type (0, 0), BuildingBlock: XIVTED_clean_linker_0, # of connection points: 2
#     Edge 80, Type (0, 0), BuildingBlock: XIVTED_clean_linker_0, # of connection points: 2
#     Edge 81, Type (0, 0), BuildingBlock: XIVTED_clean_linker_0, # of connection points: 2
#     Edge 82, Type (0, 0), BuildingBlock: XIVTED_clean_linker_0, # of connection points: 2
#     Edge 83, Type (0, 0), BuildingBlock: XIVTED_clean_linker_0, # of connection points: 2
#     Edge 84, Type (0, 0), BuildingBlock: XIVTED_clean_linker_0, # of connection points: 2
#     Edge 85, Type (0, 0), BuildingBlock: XIVTED_clean_linker_0, # of connection points: 2
#     Edge 86, Type (0, 0), BuildingBlock: XIVTED_clean_linker_0, # of connection points: 2
#     Edge 87, Type (0, 0), BuildingBlock: XIVTED_clean_linker_0, # of connection points: 2
#     Edge 88, Type (0, 0), BuildingBlock: XIVTED_clean_linker_0, # of connection points: 2
#     Edge 89, Type (0, 0), BuildingBlock: XIVTED_clean_linker_0, # of connection points: 2
#     Edge 90, Type (0, 0), BuildingBlock: XIVTED_clean_linker_0, # of connection points: 2
#     Edge 91, Type (0, 0), BuildingBlock: XIVTED_clean_linker_0, # of connection points: 2
#     Edge 92, Type (0, 0), BuildingBlock: XIVTED_clean_linker_0, # of connection points: 2
#     Edge 93, Type (0, 0), BuildingBlock: XIVTED_clean_linker_0, # of connection points: 2
#     Edge 94, Type (0, 0), BuildingBlock: XIVTED_clean_linker_0, # of connection points: 2
#     Edge 95, Type (0, 0), BuildingBlock: XIVTED_clean_linker_0, # of connection points: 2
# Relax obj value: 0.130
# Max RMSD: 0.213
# Mean RMSD: 0.212
data_MOF--net-uke--node1-KUFVIS_clean_sbu_0--edge1-XIVTED_clean_linker_0
_symmetry_space_group_name_H-M    P1
_symmetry_Int_Tables_number       1
_symmetry_cell_setting            triclinic
loop_
_symmetry_equiv_pos_as_xyz
'x, y, z'
_cell_length_a     20.999441
_cell_length_b     110.29666
_cell_length_c     51.964322
_cell_angle_alpha  89.994603
_cell_angle_beta   89.99577
_cell_angle_gamma 90.004155
loop_
_atom_site_label
_atom_site_type_symbol
_atom_site_fract_x
_atom_site_fract_y
_atom_site_fract_z
_atom_type_partial_charge
Mn0 Mn 0.0842 0.06632 0.26167 0.0
Mn1 Mn 0.94927 0.08026 0.2438 0.0
C2 C 0.07836 0.07478 0.22159 0.0
C3 C 0.13529 0.04768 0.2645 0.0
C4 C 0.04927 0.09221 0.27743 0.0
O5 O 0.02246 0.06151 0.28935 0.0
O6 O 0.93243 0.07033 0.27543 0.0
C7 C 0.87884 0.05827 0.22799 0.0
N8 N 0.90394 0.0693 0.22203 0.0
C9 C 0.87097 0.06741 0.17786 0.0
C10 C 0.84432 0.05607 0.18357 0.0
C11 C 0.84832 0.05147 0.20874 0.0
C12 C 0.90052 0.07379 0.19786 0.0
H13 H 0.88234 0.05466 0.24727 0.0
C14 C 0.96378 0.06401 0.29185 0.0
O15 O 0.15407 0.05674 0.2787 0.0
O16 O 0.08783 0.04953 0.24927 0.0
N17 N 0.95792 0.09019 0.21381 0.0
C18 C 0.98569 0.1013 0.21158 0.0
C19 C 0.98608 0.10715 0.18757 0.0
C20 C 0.95751 0.10156 0.1662 0.0
C21 C 0.92803 0.09023 0.16912 0.0
C22 C 0.92867 0.08489 0.19356 0.0
H23 H 0.00793 0.10561 0.22794 0.0
O24 O 0.13294 0.07191 0.23141 0.0
O25 O 0.0282 0.07192 0.23513 0.0
O26 O 0.08951 0.08343 0.27767 0.0
O27 O 0.99591 0.09187 0.26549 0.0
C28 C 0.89835 0.084 0.14871 0.0
C29 C 0.8699 0.0726 0.15307 0.0
H30 H 0.82098 0.05078 0.16875 0.0
H31 H 0.82815 0.0427 0.21327 0.0
H32 H 0.00866 0.11592 0.18551 0.0
H33 H 0.95837 0.10606 0.14767 0.0
H34 H 0.89731 0.08789 0.12957 0.0
H35 H 0.84745 0.06787 0.13721 0.0
Mn36 Mn 0.18367 0.20049 0.26193 0.0
Mn37 Mn 0.30299 0.18163 0.24574 0.0
C38 C 0.18015 0.1908 0.22307 0.0
C39 C 0.14532 0.22025 0.26236 0.0
C40 C 0.194 0.17399 0.27978 0.0
O41 O 0.24994 0.20427 0.2888 0.0
O42 O 0.32571 0.19092 0.27751 0.0
C43 C 0.39402 0.20082 0.23065 0.0
N44 N 0.36013 0.1907 0.22458 0.0
C45 C 0.40177 0.19062 0.18144 0.0
C46 C 0.43751 0.20101 0.18727 0.0
C47 C 0.43354 0.20614 0.21198 0.0
C48 C 0.36345 0.18571 0.20086 0.0
H49 H 0.39076 0.20482 0.24957 0.0
C50 C 0.30295 0.19903 0.2926 0.0
O51 O 0.12218 0.21214 0.27798 0.0
O52 O 0.19143 0.21696 0.24747 0.0
N53 N 0.28855 0.17188 0.2159 0.0
C54 C 0.25056 0.16193 0.21338 0.0
C55 C 0.24811 0.15583 0.18967 0.0
C56 C 0.28547 0.15991 0.16897 0.0
C57 C 0.32541 0.16999 0.17224 0.0
C58 C 0.32599 0.17567 0.19634 0.0
H59 H 0.22174 0.15878 0.22925 0.0
O60 O 0.12949 0.19561 0.23288 0.0
O61 O 0.23332 0.19245 0.23574 0.0
O62 O 0.16433 0.18417 0.28014 0.0
O63 O 0.2449 0.172 0.26694 0.0
C64 C 0.36399 0.17472 0.15246 0.0
C65 C 0.40211 0.18503 0.15705 0.0
H66 H 0.46786 0.20516 0.1729 0.0
H67 H 0.46074 0.21418 0.21659 0.0
H68 H 0.21737 0.14804 0.18733 0.0
H69 H 0.2831 0.15524 0.15066 0.0
H70 H 0.36438 0.17054 0.13359 0.0
H71 H 0.43126 0.18863 0.14164 0.0
Mn72 Mn 0.06246 0.2002 0.00438 0.0
Mn73 Mn 0.94363 0.18152 0.02203 0.0
C74 C 0.06837 0.19052 0.04323 0.0
C75 C 0.10177 0.21988 0.00333 0.0
C76 C 0.04966 0.1737 0.98671 0.0
O77 O 0.99423 0.20412 0.97844 0.0
O78 O 0.91903 0.19079 0.99045 0.0
C79 C 0.85436 0.20084 0.03804 0.0
N80 N 0.88826 0.19067 0.04377 0.0
C81 C 0.8495 0.19068 0.08735 0.0
C82 C 0.81377 0.20111 0.08186 0.0
C83 C 0.8163 0.20622 0.05711 0.0
C84 C 0.8863 0.1857 0.06753 0.0
H85 H 0.85652 0.20482 0.01907 0.0
C86 C 0.94086 0.19894 0.97522 0.0
O87 O 0.12317 0.21171 0.98746 0.0
O88 O 0.05687 0.21668 0.01891 0.0
N89 N 0.9598 0.17178 0.05177 0.0
C90 C 0.99783 0.16182 0.05395 0.0
C91 C 0.00174 0.15576 0.07767 0.0
C92 C 0.96582 0.15988 0.09874 0.0
C93 C 0.92585 0.16998 0.09582 0.0
C94 C 0.92375 0.17562 0.0717 0.0
H95 H 0.02558 0.15864 0.03781 0.0
O96 O 0.11859 0.19519 0.03275 0.0
O97 O 0.01438 0.19226 0.03118 0.0
O98 O 0.07949 0.18386 0.98591 0.0
O99 O -0.00019 0.17177 1.00024 0.0
C100 C 0.88877 0.17477 0.116 0.0
C101 C 0.85064 0.18512 0.11177 0.0
H102 H 0.78457 0.20531 0.09655 0.0
H103 H 0.78911 0.2143 0.05276 0.0
H104 H 0.03253 0.14795 0.07974 0.0
H105 H 0.96935 0.15524 0.11705 0.0
H106 H 0.88958 0.17063 0.13489 0.0
H107 H 0.82269 0.18878 0.12748 0.0
Mn108 Mn 0.16524 0.06581 0.99791 0.0
Mn109 Mn 0.30008 0.07998 0.01514 0.0
C110 C 0.17232 0.07402 0.03816 0.0
C111 C 0.11493 0.0471 0.99489 0.0
C112 C 0.19752 0.09192 0.9828 0.0
O113 O 0.22598 0.06133 0.96965 0.0
O114 O 0.316 0.07033 0.98303 0.0
C115 C 0.37279 0.05805 0.02961 0.0
N116 N 0.34731 0.06897 0.03615 0.0
C117 C 0.38256 0.06682 0.07998 0.0
C118 C 0.40961 0.05559 0.07367 0.0
C119 C 0.40468 0.05118 0.04837 0.0
C120 C 0.35169 0.07329 0.06044 0.0
H121 H 0.36852 0.05458 0.01025 0.0
C122 C 0.2843 0.06401 0.96671 0.0
O123 O 0.09514 0.05622 0.9811 0.0
O124 O 0.16308 0.04892 0.0098 0.0
N125 N 0.29232 0.08965 0.04555 0.0
C126 C 0.26372 0.10066 0.04842 0.0
C127 C 0.26396 0.1063 0.07265 0.0
C128 C 0.29401 0.10062 0.09358 0.0
C129 C 0.32434 0.08942 0.09 0.0
C130 C 0.32302 0.08429 0.06536 0.0
H131 H 0.24028 0.10503 0.03241 0.0
O132 O 0.11751 0.07107 0.02866 0.0
O133 O 0.22212 0.07137 0.0242 0.0
O134 O 0.15802 0.08302 0.98253 0.0
O135 O 0.25151 0.09164 0.99427 0.0
C136 C 0.35536 0.0831 0.10995 0.0
C137 C 0.3844 0.0718 0.10495 0.0
H138 H 0.43397 0.05024 0.08812 0.0
H139 H 0.42515 0.04249 0.04339 0.0
H140 H 0.2407 0.11497 0.07523 0.0
H141 H 0.29357 0.10495 0.11229 0.0
H142 H 0.35692 0.08681 0.12923 0.0
H143 H 0.40783 0.067 0.12047 0.0
Mn144 Mn 0.85764 0.94816 0.73438 0.0
Mn145 Mn 0.77812 0.95015 0.67832 0.0
C146 C 0.8165 0.96644 0.72214 0.0
C147 C 0.85651 0.94368 0.77815 0.0
C148 C 0.92156 0.95031 0.68136 0.0
O149 O 0.84051 0.93081 0.72559 0.0
O150 O 0.79069 0.93257 0.68745 0.0
C151 C 0.65468 0.94038 0.69639 0.0
N152 N 0.68899 0.94956 0.68568 0.0
C153 C 0.59512 0.96188 0.68098 0.0
C154 C 0.5587 0.95252 0.69181 0.0
C155 C 0.58865 0.94174 0.69959 0.0
C156 C 0.66067 0.95998 0.67815 0.0
H157 H 0.67753 0.93208 0.70244 0.0
C158 C 0.81464 0.92623 0.70578 0.0
O159 O 0.90905 0.94313 0.76493 0.0
O160 O 0.8053 0.94672 0.76589 0.0
N161 N 0.7625 0.96638 0.66694 0.0
C162 C 0.80472 0.97464 0.65749 0.0
C163 C 0.78271 0.98607 0.64958 0.0
C164 C 0.71756 0.98884 0.65124 0.0
C165 C 0.67491 0.98012 0.66064 0.0
C166 C 0.69957 0.96888 0.66817 0.0
H167 H 0.85487 0.97256 0.65623 0.0
O168 O 0.8622 0.96583 0.73888 0.0
O169 O 0.79462 0.95612 0.71338 0.0
O170 O 0.92548 0.94901 0.70579 0.0
O171 O 0.86879 0.9511 0.66926 0.0
C172 C 0.60902 0.98221 0.66315 0.0
C173 C 0.56909 0.97307 0.67321 0.0
H174 H 0.5078 0.95355 0.6944 0.0
H175 H 0.5609 0.93449 0.70807 0.0
H176 H 0.8159 0.99274 0.64226 0.0
H177 H 0.70081 0.99769 0.64525 0.0
H178 H 0.58862 0.99083 0.65756 0.0
H179 H 0.51854 0.9748 0.67512 0.0
Mn180 Mn 0.87778 0.81477 0.73827 0.0
Mn181 Mn 0.96069 0.81448 0.6828 0.0
C182 C 0.92844 0.7974 0.72598 0.0
C183 C 0.87406 0.81894 0.78218 0.0
C184 C 0.81778 0.81174 0.68472 0.0
O185 O 0.88635 0.83242 0.72984 0.0
O186 O 0.93934 0.8317 0.69225 0.0
C187 C 0.07794 0.82621 0.70229 0.0
N188 N 0.04876 0.81656 0.69098 0.0
C189 C 0.14836 0.80594 0.68685 0.0
C190 C 0.17954 0.8158 0.69831 0.0
C191 C 0.14414 0.82596 0.70611 0.0
C192 C 0.08233 0.80671 0.68348 0.0
H193 H 0.05089 0.83403 0.70834 0.0
C194 C 0.91109 0.83753 0.71035 0.0
O195 O 0.82233 0.81865 0.76842 0.0
O196 O 0.92732 0.81699 0.77032 0.0
N197 N 0.98462 0.79866 0.67114 0.0
C198 C 0.94713 0.7898 0.66089 0.0
C199 C 0.97501 0.77889 0.65271 0.0
C200 C 0.04112 0.77725 0.65489 0.0
C201 C 0.07884 0.78657 0.66508 0.0
C202 C 0.04841 0.79726 0.67287 0.0
H203 H 0.89629 0.79102 0.65918 0.0
O204 O 0.88203 0.79708 0.74243 0.0
O205 O 0.94549 0.80809 0.7176 0.0
O206 O 0.81222 0.81282 0.70914 0.0
O207 O 0.87121 0.812 0.67297 0.0
C208 C 0.14534 0.78564 0.66806 0.0
C209 C 0.18009 0.79532 0.6789 0.0
H210 H 0.23057 0.81563 0.70135 0.0
H211 H 0.16783 0.83359 0.71507 0.0
H212 H 0.94562 0.77176 0.64476 0.0
H213 H 0.06244 0.76881 0.64863 0.0
H214 H 0.17017 0.77748 0.66226 0.0
H215 H 0.23116 0.79446 0.68121 0.0
Mn216 Mn 0.872 0.81467 0.01845 0.0
Mn217 Mn 0.78742 0.81501 0.07353 0.0
C218 C 0.82086 0.79742 0.03138 0.0
C219 C 0.87652 0.81847 0.9744 0.0
C220 C 0.93063 0.81242 0.07235 0.0
O221 O 0.86324 0.83239 0.02599 0.0
O222 O 0.8076 0.83213 0.06297 0.0
C223 C 0.66976 0.82613 0.05288 0.0
N224 N 0.69934 0.81676 0.06506 0.0
C225 C 0.60015 0.8061 0.07027 0.0
C226 C 0.56855 0.81568 0.05793 0.0
C227 C 0.60355 0.82572 0.04914 0.0
C228 C 0.66617 0.80704 0.07349 0.0
H229 H 0.6965 0.83386 0.04608 0.0
C230 C 0.8368 0.83774 0.04482 0.0
O231 O 0.92803 0.81827 0.9883 0.0
O232 O 0.82309 0.81657 0.98617 0.0
N233 N 0.76434 0.79932 0.0862 0.0
C234 C 0.80231 0.79067 0.09694 0.0
C235 C 0.77489 0.77989 0.10614 0.0
C236 C 0.70875 0.77817 0.10443 0.0
C237 C 0.67057 0.78726 0.09359 0.0
C238 C 0.70055 0.79782 0.08481 0.0
H239 H 0.85317 0.79196 0.09835 0.0
O240 O 0.86771 0.79693 0.01514 0.0
O241 O 0.80376 0.80821 0.03917 0.0
O242 O 0.93692 0.81305 0.0479 0.0
O243 O 0.87686 0.8129 0.08381 0.0
C244 C 0.60405 0.7862 0.09087 0.0
C245 C 0.56886 0.79562 0.07923 0.0
H246 H 0.51752 0.81538 0.05496 0.0
H247 H 0.57954 0.83312 0.0395 0.0
H248 H 0.80466 0.77293 0.11453 0.0
H249 H 0.68779 0.76983 0.11148 0.0
H250 H 0.57956 0.77813 0.09746 0.0
H251 H 0.51781 0.79465 0.07708 0.0
Mn252 Mn 0.86132 0.94905 0.01315 0.0
Mn253 Mn 0.95387 0.95127 0.06582 0.0
C254 C 0.90658 0.9673 0.02302 0.0
C255 C 0.85473 0.94409 0.96968 0.0
C256 C 0.80997 0.95156 0.06818 0.0
O257 O 0.87885 0.93172 0.02219 0.0
O258 O 0.94052 0.93366 0.05738 0.0
C259 C 0.07294 0.94177 0.04298 0.0
N260 N 0.0409 0.95085 0.05512 0.0
C261 C 0.13449 0.96344 0.05584 0.0
C262 C 0.16864 0.95418 0.04353 0.0
C263 C 0.13768 0.94331 0.03703 0.0
C264 C 0.07019 0.96135 0.06143 0.0
H265 H 0.04923 0.93342 0.03785 0.0
C266 C 0.91102 0.92725 0.04057 0.0
O267 O 0.80421 0.9439 0.98421 0.0
O268 O 0.90789 0.9471 0.98048 0.0
N269 N 0.97096 0.96757 0.07634 0.0
C270 C 0.93051 0.97579 0.08711 0.0
C271 C 0.95354 0.98728 0.09406 0.0
C272 C 0.01794 0.99017 0.09006 0.0
C273 C 0.05881 0.98151 0.07921 0.0
C274 C 0.03323 0.97019 0.07279 0.0
H275 H 0.88094 0.97362 0.09018 0.0
O276 O 0.85753 0.96673 0.00791 0.0
O277 O 0.92897 0.95699 0.03149 0.0
O278 O 0.79985 0.95041 0.04398 0.0
O279 O 0.86556 0.95206 0.07813 0.0
C280 C 0.12365 0.98375 0.0741 0.0
C281 C 0.16145 0.97472 0.06241 0.0
H282 H 0.21849 0.95536 0.03878 0.0
H283 H 0.16363 0.93615 0.02741 0.0
H284 H 0.9217 0.99392 0.10242 0.0
H285 H 0.03543 -0.00092 0.09528 0.0
H286 H 0.14475 0.99243 0.07883 0.0
H287 H 0.21108 0.97659 0.05834 0.0
Mn288 Mn 0.05669 0.56657 0.75747 0.0
Mn289 Mn 0.93638 0.58441 0.73802 0.0
C290 C 0.0638 0.57605 0.71846 0.0
C291 C 0.09813 0.54703 0.75924 0.0
C292 C 0.03901 0.59323 0.7738 0.0
O293 O 0.98764 0.56239 0.78281 0.0
O294 O 0.91225 0.57552 0.77017 0.0
C295 C 0.85101 0.56428 0.72301 0.0
N296 N 0.8835 0.57454 0.71667 0.0
C297 C 0.84723 0.57343 0.67281 0.0
C298 C 0.813 0.5629 0.67891 0.0
C299 C 0.81498 0.5583 0.70412 0.0
C300 C 0.88209 0.57902 0.69247 0.0
H301 H 0.85276 0.56069 0.74233 0.0
C302 C 0.93409 0.56753 0.78576 0.0
O303 O 0.11798 0.55534 0.77513 0.0
O304 O 0.05394 0.55004 0.74321 0.0
N305 N 0.9519 0.59375 0.70765 0.0
C306 C 0.98768 0.60398 0.70499 0.0
C307 C 0.99155 0.60965 0.68083 0.0
C308 C 0.95781 0.60485 0.65982 0.0
C309 C 0.92 0.59449 0.66321 0.0
C310 C 0.91785 0.58926 0.68775 0.0
H311 H 0.01372 0.60768 0.7211 0.0
O312 O 0.11397 0.57174 0.72961 0.0
O313 O 0.0093 0.57405 0.72994 0.0
O314 O 0.06961 0.58316 0.77569 0.0
O315 O 0.99035 0.59479 0.75935 0.0
C316 C 0.88493 0.58907 0.64317 0.0
C317 C 0.84862 0.57854 0.64796 0.0
H318 H 0.78533 0.55823 0.66437 0.0
H319 H 0.78893 0.55014 0.70895 0.0
H320 H 0.0206 0.61767 0.6784 0.0
H321 H 0.96124 0.60921 0.64118 0.0
H322 H 0.88583 0.59288 0.62396 0.0
H323 H 0.82215 0.57441 0.63235 0.0
Mn324 Mn 0.18902 0.70018 0.75983 0.0
Mn325 Mn 0.30816 0.68137 0.74329 0.0
C326 C 0.18486 0.69052 0.72094 0.0
C327 C 0.15042 0.71995 0.76034 0.0
C328 C 0.19962 0.67357 0.77731 0.0
O329 O 0.25564 0.70402 0.78647 0.0
O330 O 0.33048 0.69046 0.77538 0.0
C331 C 0.39913 0.70069 0.72886 0.0
N332 N 0.36551 0.69057 0.72248 0.0
C333 C 0.40815 0.69068 0.6795 0.0
C334 C 0.44361 0.70106 0.68566 0.0
C335 C 0.43899 0.70609 0.71043 0.0
C336 C 0.36946 0.68567 0.69869 0.0
H337 H 0.39539 0.70461 0.74784 0.0
C338 C 0.30816 0.69864 0.79041 0.0
O339 O 0.12763 0.71183 0.77603 0.0
O340 O 0.19625 0.71666 0.74533 0.0
N341 N 0.29427 0.67177 0.71317 0.0
C342 C 0.2563 0.66184 0.7103 0.0
C343 C 0.25445 0.65584 0.68647 0.0
C344 C 0.29239 0.65999 0.66601 0.0
C345 C 0.33224 0.67006 0.66964 0.0
C346 C 0.3322 0.67564 0.69384 0.0
H347 H 0.22707 0.65863 0.72599 0.0
O348 O 0.13435 0.69527 0.73098 0.0
O349 O 0.23833 0.69219 0.73342 0.0
O350 O 0.17043 0.68381 0.77811 0.0
O351 O 0.24995 0.67161 0.7641 0.0
C352 C 0.37124 0.67488 0.65009 0.0
C353 C 0.40912 0.68519 0.65501 0.0
H354 H 0.47423 0.70528 0.67147 0.0
H355 H 0.46598 0.71413 0.71529 0.0
H356 H 0.22376 0.64806 0.68386 0.0
H357 H 0.29049 0.6554 0.64761 0.0
H358 H 0.37209 0.67079 0.63115 0.0
H359 H 0.43857 0.68887 0.63978 0.0
Mn360 Mn 0.05596 0.69951 0.50355 0.0
Mn361 Mn 0.93568 0.68133 0.52174 0.0
C362 C 0.06195 0.68984 0.54238 0.0
C363 C 0.09689 0.71909 0.50231 0.0
C364 C 0.04032 0.67293 0.48644 0.0
O365 O 0.98777 0.70368 0.47782 0.0
O366 O 0.91221 0.69044 0.48978 0.0
C367 C 0.84863 0.70116 0.53696 0.0
N368 N 0.88139 0.69091 0.54311 0.0
C369 C 0.8427 0.69148 0.58667 0.0
C370 C 0.80816 0.702 0.58077 0.0
C371 C 0.81122 0.70687 0.5558 0.0
C372 C 0.87897 0.68617 0.56708 0.0
H373 H 0.85116 0.70495 0.51783 0.0
C374 C 0.93439 0.69853 0.47449 0.0
O375 O 0.11741 0.71084 0.48641 0.0
O376 O 0.05214 0.71601 0.51805 0.0
N377 N 0.95054 0.67177 0.55184 0.0
C378 C 0.98695 0.66161 0.55437 0.0
C379 C 0.98996 0.65571 0.57829 0.0
C380 C 0.95471 0.6602 0.59921 0.0
C381 C 0.91632 0.67049 0.59594 0.0
C382 C 0.91512 0.67597 0.57164 0.0
H383 H 0.01411 0.65814 0.53832 0.0
O384 O 0.11229 0.69433 0.53167 0.0
O385 O 0.00776 0.69179 0.53061 0.0
O386 O 0.07066 0.68304 0.4851 0.0
O387 O 0.99093 0.67121 0.50038 0.0
C388 C 0.87981 0.67562 0.61592 0.0
C389 C 0.84307 0.68611 0.61129 0.0
H390 H 0.77942 0.70645 0.59527 0.0
H391 H 0.78493 0.71501 0.55113 0.0
H392 H 0.01947 0.64775 0.58062 0.0
H393 H 0.95745 0.65567 0.61767 0.0
H394 H 0.87993 0.67161 0.63495 0.0
H395 H 0.8155 0.69002 0.62684 0.0
Mn396 Mn 0.17286 0.56544 0.5001 0.0
Mn397 Mn 0.30276 0.58193 0.5142 0.0
C398 C 0.17834 0.57485 0.53919 0.0
C399 C 0.1287 0.5461 0.5 0.0
C400 C 0.19372 0.59159 0.482 0.0
O401 O 0.23333 0.56107 0.47164 0.0
O402 O 0.3197 0.57185 0.4828 0.0
C403 C 0.38504 0.56141 0.52956 0.0
N404 N 0.35638 0.57214 0.53539 0.0
C405 C 0.39924 0.57182 0.57832 0.0
C406 C 0.42964 0.56081 0.57273 0.0
C407 C 0.42244 0.55558 0.54824 0.0
C408 C 0.36288 0.57724 0.55889 0.0
H409 H 0.37919 0.55732 0.51082 0.0
C410 C 0.28985 0.56466 0.46759 0.0
O411 O 0.10539 0.55456 0.48526 0.0
O412 O 0.1774 0.54886 0.51394 0.0
N413 N 0.29433 0.59218 0.5437 0.0
C414 C 0.26097 0.60272 0.5461 0.0
C415 C 0.26214 0.609 0.5696 0.0
C416 C 0.29819 0.60447 0.59025 0.0
C417 C 0.33322 0.59374 0.58713 0.0
C418 C 0.33045 0.58791 0.56322 0.0
H419 H 0.23307 0.60622 0.5303 0.0
O420 O 0.12472 0.57079 0.5305 0.0
O421 O 0.22885 0.57251 0.52529 0.0
O422 O 0.15804 0.58213 0.48288 0.0
O423 O 0.24806 0.59237 0.49306 0.0
C424 C 0.36996 0.58851 0.60691 0.0
C425 C 0.40291 0.57755 0.60252 0.0
H426 H 0.45827 0.55626 0.58712 0.0
H427 H 0.44548 0.54705 0.54382 0.0
H428 H 0.23514 0.61729 0.57183 0.0
H429 H 0.29856 0.60929 0.60841 0.0
H430 H 0.3728 0.59279 0.62564 0.0
H431 H 0.43061 0.57357 0.61794 0.0
Mn432 Mn 0.8768 0.45 0.24074 0.0
Mn433 Mn 0.79407 0.45089 0.18523 0.0
C434 C 0.83119 0.46783 0.22805 0.0
C435 C 0.87791 0.44585 0.28473 0.0
C436 C 0.93769 0.45221 0.1872 0.0
O437 O 0.86359 0.43244 0.23257 0.0
O438 O 0.80998 0.43354 0.19518 0.0
C439 C 0.67338 0.44061 0.20498 0.0
N440 N 0.70543 0.44981 0.19324 0.0
C441 C 0.60882 0.46124 0.18761 0.0
C442 C 0.57469 0.45186 0.19949 0.0
C443 C 0.60716 0.44152 0.20829 0.0
C444 C 0.67473 0.45983 0.18486 0.0
H445 H 0.69816 0.43265 0.21174 0.0
C446 C 0.83681 0.42752 0.21332 0.0
O447 O 0.93021 0.44566 0.2713 0.0
O448 O 0.82579 0.44835 0.27254 0.0
N449 N 0.77497 0.46685 0.17297 0.0
C450 C 0.81516 0.47523 0.16259 0.0
C451 C 0.79042 0.48623 0.15339 0.0
C452 C 0.72462 0.48845 0.15467 0.0
C453 C 0.68412 0.47963 0.16514 0.0
C454 C 0.71151 0.46883 0.17399 0.0
H455 H 0.86574 0.47354 0.16145 0.0
O456 O 0.87731 0.46773 0.24464 0.0
O457 O 0.81123 0.45729 0.21984 0.0
O458 O 0.94328 0.45123 0.21165 0.0
O459 O 0.88413 0.45234 0.17554 0.0
C460 C 0.61774 0.48116 0.16734 0.0
C461 C 0.58012 0.47198 0.17858 0.0
H462 H 0.52363 0.45252 0.2021 0.0
H463 H 0.58119 0.43426 0.21758 0.0
H464 H 0.82197 0.49299 0.14529 0.0
H465 H 0.70571 0.49695 0.14757 0.0
H466 H 0.5952 0.48941 0.16062 0.0
H467 H 0.52919 0.47331 0.18034 0.0
Mn468 Mn 0.87555 0.31524 0.24023 0.0
Mn469 Mn 0.95968 0.31493 0.18503 0.0
C470 C 0.92416 0.29771 0.22748 0.0
C471 C 0.87161 0.31912 0.28424 0.0
C472 C 0.81618 0.31313 0.18642 0.0
O473 O 0.88724 0.33289 0.23248 0.0
O474 O 0.94217 0.33218 0.19531 0.0
C475 C 0.07924 0.32551 0.20519 0.0
N476 N 0.04806 0.31622 0.19339 0.0
C477 C 0.14536 0.3049 0.18866 0.0
C478 C 0.17858 0.31438 0.20062 0.0
C479 C 0.14534 0.32471 0.20898 0.0
C480 C 0.07955 0.30622 0.18535 0.0
H481 H 0.05386 0.33346 0.21166 0.0
C482 C 0.91431 0.338 0.2135 0.0
O483 O 0.82011 0.31919 0.27033 0.0
O484 O 0.92477 0.31694 0.2725 0.0
N485 N 0.98018 0.29904 0.17273 0.0
C486 C 0.94078 0.29056 0.16224 0.0
C487 C 0.96632 0.27953 0.15355 0.0
C488 C 0.03207 0.27738 0.15551 0.0
C489 C 0.07177 0.28631 0.16604 0.0
C490 C 0.04364 0.29714 0.17433 0.0
H491 H 0.8902 0.29217 0.16069 0.0
O492 O 0.87721 0.29748 0.24371 0.0
O493 O 0.94269 0.30839 0.21955 0.0
O494 O 0.81028 0.3139 0.21087 0.0
O495 O 0.86987 0.31327 0.17487 0.0
C496 C 0.13803 0.28485 0.1689 0.0
C497 C 0.17482 0.29414 0.18017 0.0
H498 H 0.22953 0.31379 0.20363 0.0
H499 H 0.17061 0.33204 0.21832 0.0
H500 H 0.93539 0.27269 0.14538 0.0
H501 H 0.05157 0.26884 0.14886 0.0
H502 H 0.16111 0.27657 0.16269 0.0
H503 H 0.22567 0.29287 0.1824 0.0
Mn504 Mn 0.86956 0.31485 0.52051 0.0
Mn505 Mn 0.78547 0.31472 0.57571 0.0
C506 C 0.82105 0.29734 0.5335 0.0
C507 C 0.87354 0.31869 0.47647 0.0
C508 C 0.92881 0.3127 0.57439 0.0
O509 O 0.85839 0.33253 0.52808 0.0
O510 O 0.80427 0.33193 0.56541 0.0
C511 C 0.66695 0.32556 0.55517 0.0
N512 N 0.6973 0.31622 0.56714 0.0
C513 C 0.59914 0.30517 0.57179 0.0
C514 C 0.56675 0.3147 0.55965 0.0
C515 C 0.60086 0.32493 0.55125 0.0
C516 C 0.66501 0.30631 0.57517 0.0
H517 H 0.69298 0.33343 0.54868 0.0
C518 C 0.83213 0.3377 0.54715 0.0
O519 O 0.92505 0.31874 0.49038 0.0
O520 O 0.82036 0.31653 0.48822 0.0
N521 N 0.76366 0.29892 0.58817 0.0
C522 C 0.80219 0.29042 0.59912 0.0
C523 C 0.77566 0.27952 0.60807 0.0
C524 C 0.7098 0.27753 0.60596 0.0
C525 C 0.67099 0.28649 0.59499 0.0
C526 C 0.70009 0.29718 0.58643 0.0
H527 H 0.85282 0.29192 0.60085 0.0
O528 O 0.86771 0.29709 0.51715 0.0
O529 O 0.80239 0.30804 0.5413 0.0
O530 O 0.93477 0.31351 0.54994 0.0
O531 O 0.87511 0.31285 0.58594 0.0
C532 C 0.60464 0.2852 0.59204 0.0
C533 C 0.56873 0.29453 0.58046 0.0
H534 H 0.51579 0.31425 0.55657 0.0
H535 H 0.57624 0.3323 0.54178 0.0
H536 H 0.8059 0.27267 0.6166 0.0
H537 H 0.68952 0.26911 0.61285 0.0
H538 H 0.58081 0.27703 0.59846 0.0
H539 H 0.5178 0.2934 0.57818 0.0
Mn540 Mn 0.87171 0.44954 0.52087 0.0
Mn541 Mn 0.95444 0.45061 0.57634 0.0
C542 C 0.91684 0.46743 0.53344 0.0
C543 C 0.87079 0.44539 0.47689 0.0
C544 C 0.81073 0.45169 0.57439 0.0
O545 O 0.88565 0.43201 0.52914 0.0
O546 O 0.93951 0.43321 0.56648 0.0
C547 C 0.07584 0.44055 0.55681 0.0
N548 N 0.04313 0.44973 0.5683 0.0
C549 C 0.13878 0.46153 0.57325 0.0
C550 C 0.17357 0.45216 0.56161 0.0
C551 C 0.14191 0.44165 0.55329 0.0
C552 C 0.07307 0.45991 0.57627 0.0
H553 H 0.05168 0.43245 0.55039 0.0
C554 C 0.91283 0.42714 0.54837 0.0
O555 O 0.81848 0.44512 0.49031 0.0
O556 O 0.92281 0.44793 0.48909 0.0
N557 N 0.97248 0.46665 0.58839 0.0
C558 C 0.93174 0.47496 0.59867 0.0
C559 C 0.9556 0.48613 0.60734 0.0
C560 C 0.0211 0.48858 0.60562 0.0
C561 C 0.0622 0.47982 0.59532 0.0
C562 C 0.03569 0.46885 0.587 0.0
H563 H 0.88136 0.4731 0.60008 0.0
O564 O 0.87062 0.46728 0.51689 0.0
O565 O 0.93701 0.45692 0.5417 0.0
O566 O 0.80518 0.45072 0.54994 0.0
O567 O 0.86428 0.45187 0.58605 0.0
C568 C 0.12834 0.48159 0.59275 0.0
C569 C 0.16662 0.47245 0.58175 0.0
H570 H 0.22451 0.45298 0.55883 0.0
H571 H 0.1684 0.4344 0.5442 0.0
H572 H 0.9236 0.49283 0.61535 0.0
H573 H 0.03931 0.49722 0.61227 0.0
H574 H 0.15018 0.48999 0.59899 0.0
H575 H 0.21736 0.47394 0.57975 0.0
Mn576 Mn 0.57473 0.06603 0.75654 0.0
Mn577 Mn 0.44282 0.08202 0.74281 0.0
C578 C 0.56804 0.07561 0.71764 0.0
C579 C 0.62048 0.04678 0.75612 0.0
C580 C 0.55075 0.09204 0.77512 0.0
O581 O 0.51492 0.06127 0.78495 0.0
O582 O 0.42747 0.07179 0.77409 0.0
C583 C 0.36292 0.06117 0.72739 0.0
N584 N 0.39006 0.07205 0.72164 0.0
C585 C 0.34569 0.07176 0.67896 0.0
C586 C 0.31684 0.06059 0.68449 0.0
C587 C 0.32558 0.05527 0.7088 0.0
C588 C 0.38209 0.07724 0.69831 0.0
H589 H 0.36991 0.05702 0.74601 0.0
C590 C 0.4581 0.06464 0.78912 0.0
O591 O 0.6433 0.05523 0.77102 0.0
O592 O 0.57166 0.04953 0.74226 0.0
N593 N 0.4495 0.09239 0.71342 0.0
C594 C 0.48172 0.10305 0.71103 0.0
C595 C 0.47904 0.10943 0.68766 0.0
C596 C 0.44266 0.10486 0.66715 0.0
C597 C 0.40887 0.09399 0.67026 0.0
C598 C 0.41313 0.08806 0.69403 0.0
H599 H 0.50981 0.10659 0.72675 0.0
O600 O 0.62214 0.07174 0.72624 0.0
O601 O 0.51786 0.07299 0.7315 0.0
O602 O 0.58759 0.08273 0.77416 0.0
O603 O 0.49645 0.09263 0.76397 0.0
C604 C 0.37199 0.08871 0.65058 0.0
C605 C 0.34046 0.07759 0.65493 0.0
H606 H 0.28824 0.05598 0.67016 0.0
H607 H 0.30374 0.04662 0.71317 0.0
H608 H 0.5051 0.11783 0.68544 0.0
H609 H 0.44109 0.10976 0.6491 0.0
H610 H 0.36797 0.09306 0.63197 0.0
H611 H 0.31266 0.07357 0.63958 0.0
Mn612 Mn 0.67785 0.20088 0.76301 0.0
Mn613 Mn 0.79592 0.1819 0.7459 0.0
C614 C 0.67267 0.19133 0.72401 0.0
C615 C 0.64133 0.22083 0.76368 0.0
C616 C 0.68786 0.17433 0.78057 0.0
O617 O 0.74504 0.20436 0.78972 0.0
O618 O 0.82064 0.19117 0.77743 0.0
C619 C 0.88695 0.20093 0.72995 0.0
N620 N 0.85231 0.19085 0.72421 0.0
C621 C 0.89176 0.19066 0.68075 0.0
C622 C 0.92826 0.201 0.68623 0.0
C623 C 0.92576 0.20616 0.71094 0.0
C624 C 0.85421 0.18583 0.7005 0.0
H625 H 0.8848 0.20495 0.74888 0.0
C626 C 0.79839 0.19916 0.79293 0.0
O627 O 0.61762 0.21276 0.77929 0.0
O628 O 0.68688 0.21737 0.7487 0.0
N629 N 0.7795 0.17214 0.71622 0.0
C630 C 0.74091 0.16225 0.71407 0.0
C631 C 0.73696 0.15614 0.69041 0.0
C632 C 0.77343 0.16014 0.66938 0.0
C633 C 0.81401 0.17015 0.67228 0.0
C634 C 0.81609 0.17585 0.69634 0.0
H635 H 0.71275 0.15917 0.73019 0.0
O636 O 0.62262 0.19626 0.73405 0.0
O637 O 0.72622 0.1928 0.73651 0.0
O638 O 0.65789 0.18449 0.78101 0.0
O639 O 0.73861 0.17238 0.76761 0.0
C640 C 0.85178 0.17479 0.65216 0.0
C641 C 0.89061 0.18505 0.65638 0.0
H642 H 0.95806 0.20508 0.67159 0.0
H643 H 0.95355 0.21416 0.71528 0.0
H644 H 0.70573 0.1484 0.68836 0.0
H645 H 0.76989 0.15545 0.65112 0.0
H646 H 0.85102 0.1706 0.63331 0.0
H647 H 0.91913 0.18859 0.64072 0.0
Mn648 Mn 0.55496 0.19995 0.50533 0.0
Mn649 Mn 0.43247 0.18228 0.52335 0.0
C650 C 0.55914 0.1903 0.54421 0.0
C651 C 0.59881 0.21933 0.50421 0.0
C652 C 0.53624 0.17345 0.48814 0.0
O653 O 0.48736 0.20448 0.47959 0.0
O654 O 0.41046 0.19146 0.49133 0.0
C655 C 0.34724 0.20243 0.53835 0.0
N656 N 0.37891 0.19207 0.54459 0.0
C657 C 0.33979 0.19281 0.58809 0.0
C658 C 0.30638 0.20345 0.58208 0.0
C659 C 0.31019 0.20828 0.55711 0.0
C660 C 0.37569 0.18735 0.56857 0.0
H661 H 0.35037 0.2062 0.51922 0.0
C662 C 0.43354 0.1995 0.47616 0.0
O663 O 0.61806 0.21099 0.48827 0.0
O664 O 0.55353 0.21647 0.5199 0.0
N665 N 0.44604 0.17269 0.55352 0.0
C666 C 0.48168 0.16244 0.55618 0.0
C667 C 0.48402 0.15657 0.58016 0.0
C668 C 0.44895 0.1612 0.60099 0.0
C669 C 0.41139 0.17159 0.59759 0.0
C670 C 0.4108 0.17702 0.57323 0.0
H671 H 0.50877 0.15887 0.54021 0.0
O672 O 0.61031 0.19446 0.53354 0.0
O673 O 0.50545 0.19249 0.5323 0.0
O674 O 0.56756 0.18344 0.4868 0.0
O675 O 0.48676 0.17191 0.50211 0.0
C676 C 0.37522 0.17687 0.61748 0.0
C677 C 0.33947 0.18748 0.61274 0.0
H678 H 0.27795 0.20801 0.59653 0.0
H679 H 0.28477 0.21652 0.55236 0.0
H680 H 0.51292 0.14853 0.5826 0.0
H681 H 0.45123 0.1567 0.6195 0.0
H682 H 0.37489 0.1729 0.63655 0.0
H683 H 0.31217 0.1915 0.62823 0.0
Mn684 Mn 0.65982 0.06592 0.49884 0.0
Mn685 Mn 0.78743 0.08316 0.51232 0.0
C686 C 0.66348 0.07578 0.53748 0.0
C687 C 0.61918 0.0463 0.49958 0.0
C688 C 0.67805 0.09174 0.47884 0.0
O689 O 0.72144 0.06162 0.4707 0.0
O690 O 0.80748 0.0724 0.4823 0.0
C691 C 0.87186 0.0635 0.53062 0.0
N692 N 0.84142 0.07421 0.53498 0.0
C693 C 0.88292 0.0753 0.57807 0.0
C694 C 0.91516 0.06434 0.57398 0.0
C695 C 0.90953 0.05841 0.55015 0.0
C696 C 0.84644 0.07998 0.55783 0.0
H697 H 0.86724 0.05889 0.51238 0.0
C698 C 0.77842 0.06508 0.46714 0.0
O699 O 0.59444 0.05445 0.48443 0.0
O700 O 0.66712 0.04954 0.51348 0.0
N701 N 0.77575 0.09405 0.54057 0.0
C702 C 0.73992 0.10433 0.54166 0.0
C703 C 0.73902 0.1112 0.56441 0.0
C704 C 0.77542 0.10749 0.58568 0.0
C705 C 0.81275 0.09698 0.58395 0.0
C706 C 0.81204 0.09054 0.56072 0.0
H707 H 0.71174 0.1072 0.52537 0.0
O708 O 0.61058 0.07132 0.52894 0.0
O709 O 0.71439 0.07358 0.52374 0.0
O710 O 0.64241 0.08231 0.48084 0.0
O711 O 0.73264 0.09281 0.48955 0.0
C712 C 0.84972 0.09251 0.6045 0.0
C713 C 0.88475 0.08168 0.60157 0.0
H714 H 0.94396 0.06034 0.58905 0.0
H715 H 0.93397 0.04991 0.54689 0.0
H716 H 0.71017 0.11931 0.56558 0.0
H717 H 0.77419 0.11275 0.60327 0.0
H718 H 0.85106 0.09727 0.62272 0.0
H719 H 0.91252 0.07828 0.61758 0.0
Mn720 Mn 0.38731 0.94954 0.24498 0.0
Mn721 Mn 0.29517 0.95207 0.19227 0.0
C722 C 0.34269 0.96788 0.23543 0.0
C723 C 0.39333 0.94435 0.28835 0.0
C724 C 0.43909 0.9522 0.19005 0.0
O725 O 0.3694 0.93227 0.23555 0.0
O726 O 0.30797 0.93441 0.20036 0.0
C727 C 0.17568 0.9426 0.21481 0.0
N728 N 0.20807 0.95171 0.20288 0.0
C729 C 0.11488 0.9644 0.20234 0.0
C730 C 0.08038 0.95512 0.21444 0.0
C731 C 0.11096 0.94419 0.22073 0.0
C732 C 0.17914 0.96227 0.19676 0.0
H733 H 0.19911 0.93421 0.21978 0.0
C734 C 0.33728 0.9279 0.21706 0.0
O735 O 0.44399 0.94418 0.27391 0.0
O736 O 0.34039 0.94748 0.27755 0.0
N737 N 0.27864 0.96844 0.18206 0.0
C738 C 0.31941 0.97666 0.17149 0.0
C739 C 0.29677 0.98822 0.16475 0.0
C740 C 0.23245 0.99116 0.16877 0.0
C741 C 0.19125 0.9825 0.17941 0.0
C742 C 0.21644 0.97111 0.18561 0.0
H743 H 0.36892 0.97445 0.16842 0.0
O744 O 0.3916 0.96719 0.25059 0.0
O745 O 0.32006 0.95763 0.22672 0.0
O746 O 0.44904 0.95095 0.21425 0.0
O747 O 0.38359 0.95282 0.18006 0.0
C748 C 0.12646 0.98479 0.18451 0.0
C749 C 0.08831 0.97574 0.19598 0.0
H750 H 0.03055 0.95633 0.21917 0.0
H751 H 0.08474 0.93701 0.23019 0.0
H752 H 0.32887 0.99485 0.15655 0.0
H753 H 0.21527 0.00011 0.16371 0.0
H754 H 0.10565 0.99351 0.17994 0.0
H755 H 0.03873 0.97765 0.20006 0.0
Mn756 Mn 0.37483 0.81531 0.24026 0.0
Mn757 Mn 0.4592 0.81565 0.18515 0.0
C758 C 0.42445 0.798 0.22694 0.0
C759 C 0.37126 0.81899 0.28437 0.0
C760 C 0.31588 0.81328 0.18636 0.0
O761 O 0.38466 0.83303 0.23297 0.0
O762 O 0.43982 0.83278 0.19587 0.0
C763 C 0.5773 0.82651 0.20601 0.0
N764 N 0.54728 0.8172 0.19381 0.0
C765 C 0.64575 0.80625 0.18909 0.0
C766 C 0.67779 0.81576 0.20146 0.0
C767 C 0.64337 0.82592 0.21001 0.0
C768 C 0.57987 0.80735 0.18564 0.0
H769 H 0.55102 0.83433 0.21262 0.0
C770 C 0.41117 0.83838 0.21417 0.0
O771 O 0.31947 0.81894 0.27062 0.0
O772 O 0.42434 0.81701 0.27242 0.0
N773 N 0.48152 0.79994 0.17234 0.0
C774 C 0.4433 0.79145 0.16117 0.0
C775 C 0.47017 0.78062 0.15203 0.0
C776 C 0.53606 0.77868 0.15421 0.0
C777 C 0.57455 0.78762 0.1654 0.0
C778 C 0.54511 0.79824 0.17416 0.0
H779 H 0.39264 0.79291 0.15939 0.0
O780 O 0.37792 0.79756 0.24333 0.0
O781 O 0.44239 0.80877 0.21935 0.0
O782 O 0.30964 0.8139 0.21083 0.0
O783 O 0.36965 0.81371 0.17487 0.0
C784 C 0.64091 0.78638 0.16839 0.0
C785 C 0.67649 0.79569 0.18023 0.0
H786 H 0.72874 0.81534 0.2046 0.0
H787 H 0.66773 0.83327 0.21966 0.0
H788 H 0.44017 0.77378 0.14332 0.0
H789 H 0.55659 0.7703 0.14717 0.0
H790 H 0.66501 0.77827 0.1618 0.0
H791 H 0.72743 0.7946 0.18255 0.0
Mn792 Mn 0.36613 0.81464 0.52051 0.0
Mn793 Mn 0.28474 0.81442 0.57636 0.0
C794 C 0.31551 0.7973 0.53304 0.0
C795 C 0.36857 0.81883 0.4766 0.0
C796 C 0.4275 0.81154 0.5738 0.0
O797 O 0.35819 0.83229 0.52895 0.0
O798 O 0.30651 0.83161 0.56683 0.0
C799 C 0.1675 0.82633 0.55734 0.0
N800 N 0.19654 0.81665 0.56861 0.0
C801 C 0.09651 0.80624 0.57345 0.0
C802 C 0.06547 0.81613 0.56205 0.0
C803 C 0.10116 0.82621 0.55391 0.0
C804 C 0.16269 0.80689 0.57642 0.0
H805 H 0.19476 0.83408 0.55104 0.0
C806 C 0.33432 0.83741 0.54858 0.0
O807 O 0.42074 0.81849 0.49008 0.0
O808 O 0.31566 0.8169 0.48872 0.0
N809 N 0.26042 0.79865 0.58817 0.0
C810 C 0.2978 0.78973 0.59822 0.0
C811 C 0.26961 0.77889 0.60669 0.0
C812 C 0.20332 0.7774 0.605 0.0
C813 C 0.16574 0.78678 0.59499 0.0
C814 C 0.19648 0.79739 0.5869 0.0
H815 H 0.34879 0.79084 0.59957 0.0
O816 O 0.36147 0.79697 0.51638 0.0
O817 O 0.29882 0.80801 0.54149 0.0
O818 O 0.43252 0.81266 0.54937 0.0
O819 O 0.37435 0.81181 0.58576 0.0
C820 C 0.09909 0.78597 0.59241 0.0
C821 C 0.06448 0.7957 0.58169 0.0
H822 H 0.01434 0.81606 0.55931 0.0
H823 H 0.07758 0.83385 0.545 0.0
H824 H 0.29891 0.77171 0.6145 0.0
H825 H 0.18176 0.76901 0.61149 0.0
H826 H 0.07403 0.77787 0.59841 0.0
H827 H 0.0133 0.79494 0.57968 0.0
Mn828 Mn 0.38712 0.94759 0.52347 0.0
Mn829 Mn 0.46639 0.9501 0.57952 0.0
C830 C 0.42657 0.96603 0.53539 0.0
C831 C 0.38893 0.94294 0.47977 0.0
C832 C 0.32295 0.94984 0.57643 0.0
O833 O 0.40571 0.93034 0.53266 0.0
O834 O 0.45527 0.93245 0.5708 0.0
C835 C 0.59062 0.94061 0.56164 0.0
N836 N 0.55554 0.94975 0.5721 0.0
C837 C 0.64825 0.96244 0.57617 0.0
C838 C 0.68545 0.95313 0.5656 0.0
C839 C 0.65647 0.94218 0.55826 0.0
C840 C 0.58293 0.96033 0.5792 0.0
H841 H 0.56851 0.9322 0.55593 0.0
C842 C 0.43194 0.92595 0.5526 0.0
O843 O 0.33634 0.94228 0.49295 0.0
O844 O 0.43979 0.94617 0.49206 0.0
N845 N 0.48066 0.96644 0.5905 0.0
C846 C 0.43783 0.97459 0.59991 0.0
C847 C 0.45884 0.98615 0.60743 0.0
C848 C 0.52365 0.98916 0.60543 0.0
C849 C 0.56698 0.98054 0.59613 0.0
C850 C 0.54331 0.96916 0.58899 0.0
H851 H 0.38793 0.97234 0.60142 0.0
O852 O 0.3811 0.96522 0.51858 0.0
O853 O 0.44932 0.95582 0.54435 0.0
O854 O 0.31913 0.94839 0.55203 0.0
O855 O 0.37565 0.95083 0.58853 0.0
C856 C 0.63262 0.98284 0.59338 0.0
C857 C 0.67328 0.97378 0.58352 0.0
H858 H 0.73621 0.95432 0.56287 0.0
H859 H 0.68482 0.93498 0.54998 0.0
H860 H 0.42515 0.99274 0.61469 0.0
H861 H 0.53963 0.9981 0.61113 0.0
H862 H 0.65226 0.99157 0.59868 0.0
H863 H 0.72364 0.97567 0.58145 0.0
Mn864 Mn 0.5796 0.56667 0.25767 0.0
Mn865 Mn 0.4483 0.58268 0.2433 0.0
C866 C 0.57379 0.57619 0.21872 0.0
C867 C 0.62571 0.54751 0.25776 0.0
C868 C 0.55521 0.59261 0.27627 0.0
O869 O 0.51878 0.56193 0.28575 0.0
O870 O 0.43144 0.57239 0.27443 0.0
C871 C 0.36869 0.56191 0.22711 0.0
N872 N 0.3967 0.57274 0.22159 0.0
C873 C 0.35678 0.57229 0.1782 0.0
C874 C 0.32708 0.56117 0.18347 0.0
C875 C 0.33311 0.55596 0.20803 0.0
C876 C 0.39131 0.57782 0.19802 0.0
H877 H 0.37367 0.55784 0.2459 0.0
C878 C 0.46175 0.56527 0.28963 0.0
O879 O 0.64773 0.55601 0.27271 0.0
O880 O 0.57733 0.55014 0.24352 0.0
N881 N 0.45687 0.59306 0.21402 0.0
C882 C 0.4888 0.60378 0.21207 0.0
C883 C 0.48833 0.61009 0.1886 0.0
C884 C 0.4545 0.6054 0.16751 0.0
C885 C 0.42085 0.59449 0.17017 0.0
C886 C 0.42278 0.58863 0.19407 0.0
H887 H 0.51506 0.6074 0.2282 0.0
O888 O 0.62782 0.57238 0.22751 0.0
O889 O 0.52345 0.57359 0.23246 0.0
O890 O 0.59196 0.58331 0.27529 0.0
O891 O 0.5011 0.59325 0.26499 0.0
C892 C 0.38606 0.58912 0.14998 0.0
C893 C 0.35408 0.57802 0.15399 0.0
H894 H 0.29984 0.55652 0.16877 0.0
H895 H 0.3106 0.54735 0.2122 0.0
H896 H 0.51422 0.61853 0.18673 0.0
H897 H 0.45467 0.61025 0.14938 0.0
H898 H 0.38388 0.59341 0.13125 0.0
H899 H 0.32778 0.57395 0.13828 0.0
Mn900 Mn 0.68394 0.70077 0.26079 0.0
Mn901 Mn 0.80403 0.68224 0.24399 0.0
C902 C 0.67929 0.6909 0.22216 0.0
C903 C 0.64349 0.72039 0.26117 0.0
C904 C 0.69742 0.67431 0.27876 0.0
O905 O 0.75115 0.70492 0.28701 0.0
O906 O 0.8266 0.69149 0.27583 0.0
C907 C 0.89279 0.70179 0.22876 0.0
N908 N 0.85966 0.69157 0.22269 0.0
C909 C 0.89984 0.69181 0.17933 0.0
C910 C 0.93477 0.7023 0.18516 0.0
C911 C 0.93115 0.70731 0.20997 0.0
C912 C 0.86262 0.68669 0.19886 0.0
H913 H 0.88981 0.7057 0.24777 0.0
C914 C 0.80408 0.69966 0.29083 0.0
O915 O 0.6222 0.71226 0.27718 0.0
O916 O 0.68911 0.7172 0.24594 0.0
N917 N 0.78979 0.67251 0.21408 0.0
C918 C 0.75299 0.6624 0.21164 0.0
C919 C 0.7505 0.65637 0.18787 0.0
C920 C 0.78664 0.66067 0.16702 0.0
C921 C 0.82541 0.67091 0.17021 0.0
C922 C 0.82607 0.67653 0.19437 0.0
H923 H 0.72513 0.65908 0.22763 0.0
O924 O 0.62871 0.69556 0.23234 0.0
O925 O 0.73299 0.6928 0.23432 0.0
O926 O 0.6673 0.68444 0.27945 0.0
O927 O 0.74746 0.67238 0.26534 0.0
C928 C 0.86287 0.67586 0.15031 0.0
C929 C 0.9 0.68631 0.15485 0.0
H930 H 0.96425 0.70661 0.1707 0.0
H931 H 0.95774 0.71543 0.21458 0.0
H932 H 0.72069 0.64843 0.1856 0.0
H933 H 0.7843 0.65603 0.14867 0.0
H934 H 0.86318 0.67174 0.13139 0.0
H935 H 0.92832 0.69006 0.13936 0.0
Mn936 Mn 0.55502 0.69998 0.00407 0.0
Mn937 Mn 0.43297 0.68216 0.02195 0.0
C938 C 0.55918 0.69042 0.04308 0.0
C939 C 0.59788 0.71941 0.00275 0.0
C940 C 0.53748 0.67344 0.98701 0.0
O941 O 0.48764 0.70434 0.97813 0.0
O942 O 0.41103 0.69125 0.98979 0.0
C943 C 0.34687 0.70223 0.03661 0.0
N944 N 0.37864 0.6919 0.04298 0.0
C945 C 0.33832 0.69258 0.0863 0.0
C946 C 0.30478 0.70319 0.08016 0.0
C947 C 0.30915 0.70804 0.05522 0.0
C948 C 0.37488 0.68717 0.06692 0.0
H949 H 0.35045 0.70602 0.0175 0.0
C950 C 0.43409 0.69928 0.97459 0.0
O951 O 0.61785 0.71105 0.98699 0.0
O952 O 0.55261 0.71652 0.01842 0.0
N953 N 0.4464 0.67263 0.05221 0.0
C954 C 0.48264 0.66247 0.05507 0.0
C955 C 0.48459 0.65662 0.07906 0.0
C956 C 0.44855 0.66116 0.0997 0.0
C957 C 0.41048 0.67147 0.09611 0.0
C958 C 0.41029 0.67689 0.07174 0.0
H959 H 0.51045 0.65897 0.03924 0.0
O960 O 0.61024 0.69465 0.03243 0.0
O961 O 0.50549 0.69249 0.03103 0.0
O962 O 0.56855 0.68346 0.98572 0.0
O963 O 0.48792 0.67185 0.0009 0.0
C964 C 0.37357 0.6767 0.11584 0.0
C965 C 0.33755 0.68725 0.11095 0.0
H966 H 0.27585 0.70773 0.09449 0.0
H967 H 0.28365 0.71626 0.05037 0.0
H968 H 0.51392 0.64864 0.08165 0.0
H969 H 0.45056 0.65667 0.11822 0.0
H970 H 0.37295 0.67273 0.13491 0.0
H971 H 0.30974 0.69124 0.12633 0.0
Mn972 Mn 0.68051 0.5665 0.99908 0.0
Mn973 Mn 0.8028 0.58432 0.01662 0.0
C974 C 0.67731 0.57599 0.03814 0.0
C975 C 0.63914 0.54695 0.99796 0.0
C976 C 0.69693 0.59309 0.98228 0.0
O977 O 0.7471 0.56235 0.97264 0.0
O978 O 0.8245 0.57527 0.98439 0.0
C979 C 0.88902 0.56423 0.03106 0.0
N980 N 0.85693 0.57451 0.03758 0.0
C981 C 0.89509 0.57343 0.08118 0.0
C982 C 0.92894 0.56288 0.07489 0.0
C983 C 0.92583 0.55826 0.04973 0.0
C984 C 0.85943 0.57901 0.06175 0.0
H985 H 0.88634 0.56061 0.01178 0.0
C986 C 0.80087 0.56733 0.9691 0.0
O987 O 0.61766 0.55526 0.98241 0.0
O988 O 0.68485 0.54997 0.01328 0.0
N989 N 0.78939 0.59379 0.04696 0.0
C990 C 0.75425 0.60409 0.04977 0.0
C991 C 0.75166 0.60981 0.0739 0.0
C992 C 0.78597 0.60499 0.09473 0.0
C993 C 0.82321 0.59456 0.09116 0.0
C994 C 0.8241 0.58929 0.06666 0.0
H995 H 0.72769 0.6078 0.03381 0.0
O996 O 0.62602 0.57165 0.02791 0.0
O997 O 0.73053 0.574 0.02574 0.0
O998 O 0.66561 0.58308 0.98115 0.0
O999 O 0.74739 0.59463 0.9957 0.0
C1000 C 0.85899 0.58913 0.111 0.0
C1001 C 0.89486 0.57857 0.10602 0.0
H1002 H 0.9572 0.55822 0.08926 0.0
H1003 H 0.95158 0.55009 0.04476 0.0
H1004 H 0.72309 0.61788 0.07646 0.0
H1005 H 0.78349 0.60937 0.11336 0.0
H1006 H 0.85903 0.59298 0.13018 0.0
H1007 H 0.92195 0.57445 0.12145 0.0
Mn1008 Mn 0.35932 0.45067 0.7384 0.0
Mn1009 Mn 0.27446 0.45145 0.68343 0.0
C1010 C 0.3119 0.46842 0.72615 0.0
C1011 C 0.36353 0.44663 0.78238 0.0
C1012 C 0.41804 0.45281 0.68446 0.0
O1013 O 0.34608 0.43308 0.7304 0.0
O1014 O 0.291 0.43409 0.6933 0.0
C1015 C 0.15438 0.4411 0.70362 0.0
N1016 N 0.18607 0.45034 0.69188 0.0
C1017 C 0.08936 0.46184 0.68713 0.0
C1018 C 0.05561 0.45241 0.69903 0.0
C1019 C 0.08831 0.44201 0.70737 0.0
C1020 C 0.15511 0.4604 0.68387 0.0
H1021 H 0.17936 0.43309 0.71006 0.0
C1022 C 0.31866 0.42812 0.71133 0.0
O1023 O 0.41483 0.44645 0.76834 0.0
O1024 O 0.31042 0.44901 0.77078 0.0
N1025 N 0.25492 0.46744 0.67145 0.0
C1026 C 0.29485 0.47589 0.66118 0.0
C1027 C 0.26993 0.48699 0.65256 0.0
C1028 C 0.20424 0.48923 0.65438 0.0
C1029 C 0.16401 0.48034 0.66473 0.0
C1030 C 0.19154 0.46944 0.67296 0.0
H1031 H 0.34538 0.4742 0.65971 0.0
O1032 O 0.35924 0.46841 0.74218 0.0
O1033 O 0.29235 0.45783 0.71804 0.0
O1034 O 0.42433 0.45192 0.70887 0.0
O1035 O 0.36415 0.45292 0.67309 0.0
C1036 C 0.09779 0.48191 0.6675 0.0
C1037 C 0.06047 0.47266 0.67866 0.0
H1038 H 0.00468 0.45308 0.70201 0.0
H1039 H 0.06263 0.43471 0.71666 0.0
H1040 H 0.30128 0.4938 0.64454 0.0
H1041 H 0.18522 0.49781 0.64778 0.0
H1042 H 0.07515 0.49024 0.66131 0.0
H1043 H 0.00967 0.47402 0.68086 0.0
Mn1044 Mn 0.37646 0.3162 0.7407 0.0
Mn1045 Mn 0.45972 0.31616 0.68533 0.0
C1046 C 0.42655 0.29882 0.72794 0.0
C1047 C 0.37298 0.32016 0.78468 0.0
C1048 C 0.31666 0.31357 0.68701 0.0
O1049 O 0.38565 0.33388 0.73281 0.0
O1050 O 0.43892 0.33335 0.69528 0.0
C1051 C 0.57715 0.32764 0.70532 0.0
N1052 N 0.54778 0.3181 0.69367 0.0
C1053 C 0.64723 0.30747 0.68902 0.0
C1054 C 0.6786 0.31722 0.70084 0.0
C1055 C 0.64336 0.32732 0.70909 0.0
C1056 C 0.58117 0.3083 0.68579 0.0
H1057 H 0.55026 0.33542 0.71168 0.0
C1058 C 0.4108 0.33909 0.71353 0.0
O1059 O 0.32116 0.31997 0.77096 0.0
O1060 O 0.42611 0.31818 0.77276 0.0
N1061 N 0.48329 0.30041 0.67318 0.0
C1062 C 0.44566 0.29168 0.66254 0.0
C1063 C 0.47339 0.28085 0.65379 0.0
C1064 C 0.53951 0.27917 0.65579 0.0
C1065 C 0.57737 0.28836 0.66643 0.0
C1066 C 0.54707 0.29895 0.67483 0.0
H1067 H 0.39482 0.29294 0.66091 0.0
O1068 O 0.38009 0.29848 0.74436 0.0
O1069 O 0.44407 0.30955 0.71989 0.0
O1070 O 0.3109 0.31451 0.71146 0.0
O1071 O 0.37021 0.31385 0.67535 0.0
C1072 C 0.64391 0.28739 0.66921 0.0
C1073 C 0.67882 0.29694 0.68049 0.0
H1074 H 0.72965 0.31701 0.70379 0.0
H1075 H 0.66721 0.33486 0.71831 0.0
H1076 H 0.44388 0.27382 0.6455 0.0
H1077 H 0.56072 0.2708 0.64905 0.0
H1078 H 0.66866 0.2793 0.6629 0.0
H1079 H 0.72991 0.29605 0.68266 0.0
Mn1080 Mn 0.36644 0.31591 0.02082 0.0
Mn1081 Mn 0.28405 0.31568 0.07645 0.0
C1082 C 0.3173 0.29845 0.03366 0.0
C1083 C 0.36905 0.31991 0.97684 0.0
C1084 C 0.42736 0.31352 0.07429 0.0
O1085 O 0.3563 0.33356 0.02881 0.0
O1086 O 0.30258 0.33292 0.06625 0.0
C1087 C 0.16473 0.32661 0.05691 0.0
N1088 N 0.19552 0.31724 0.06859 0.0
C1089 C 0.09742 0.30624 0.07398 0.0
C1090 C 0.0646 0.31581 0.06217 0.0
C1091 C 0.09844 0.32603 0.05354 0.0
C1092 C 0.16346 0.30735 0.07687 0.0
H1093 H 0.19058 0.33447 0.05023 0.0
C1094 C 0.33034 0.33871 0.04798 0.0
O1095 O 0.42105 0.31982 0.99044 0.0
O1096 O 0.31618 0.31781 0.98887 0.0
N1097 N 0.26268 0.29985 0.0888 0.0
C1098 C 0.30173 0.29124 0.09902 0.0
C1099 C 0.27556 0.2803 0.10793 0.0
C1100 C 0.20953 0.27837 0.10647 0.0
C1101 C 0.17022 0.28744 0.09621 0.0
C1102 C 0.19899 0.29817 0.08768 0.0
H1103 H 0.35252 0.29268 0.10021 0.0
O1104 O 0.3636 0.29818 0.01714 0.0
O1105 O 0.29954 0.30914 0.04181 0.0
O1106 O 0.43266 0.31434 0.04983 0.0
O1107 O 0.37401 0.31376 0.08609 0.0
C1108 C 0.10372 0.28618 0.09379 0.0
C1109 C 0.06733 0.29559 0.08272 0.0
H1110 H 0.0135 0.31538 0.05947 0.0
H1111 H 0.07348 0.33343 0.0443 0.0
H1112 H 0.30619 0.27336 0.1159 0.0
H1113 H 0.18954 0.26991 0.11327 0.0
H1114 H 0.08016 0.27798 0.10017 0.0
H1115 H 0.0163 0.29448 0.0808 0.0
Mn1116 Mn 0.38033 0.45051 0.01861 0.0
Mn1117 Mn 0.46596 0.45093 0.07341 0.0
C1118 C 0.42855 0.46813 0.03114 0.0
C1119 C 0.37538 0.44662 0.97459 0.0
C1120 C 0.32253 0.45265 0.07274 0.0
O1121 O 0.39267 0.43287 0.02626 0.0
O1122 O 0.44772 0.43367 0.06337 0.0
C1123 C 0.58456 0.44027 0.05253 0.0
N1124 N 0.55404 0.44955 0.06463 0.0
C1125 C 0.65203 0.46063 0.06952 0.0
C1126 C 0.68459 0.45116 0.05725 0.0
C1127 C 0.65065 0.44095 0.04865 0.0
C1128 C 0.58616 0.45944 0.07284 0.0
H1129 H 0.55865 0.43241 0.04592 0.0
C1130 C 0.41971 0.4278 0.04529 0.0
O1131 O 0.32423 0.4465 0.98871 0.0
O1132 O 0.42874 0.44887 0.98612 0.0
N1133 N 0.48727 0.46678 0.08565 0.0
C1134 C 0.44844 0.47529 0.09639 0.0
C1135 C 0.47472 0.48619 0.10544 0.0
C1136 C 0.54065 0.48818 0.10363 0.0
C1137 C 0.57973 0.47923 0.09278 0.0
C1138 C 0.55085 0.46854 0.08409 0.0
H1139 H 0.39777 0.47378 0.09794 0.0
O1140 O 0.38118 0.46826 0.01512 0.0
O1141 O 0.44788 0.45748 0.03898 0.0
O1142 O 0.31584 0.45177 0.04834 0.0
O1143 O 0.37658 0.45265 0.08401 0.0
C1144 C 0.64613 0.48054 0.09004 0.0
C1145 C 0.68225 0.47125 0.07839 0.0
H1146 H 0.73556 0.45165 0.05421 0.0
H1147 H 0.67541 0.43362 0.03907 0.0
H1148 H 0.44426 0.49304 0.11385 0.0
H1149 H 0.56074 0.4966 0.11061 0.0
H1150 H 0.66982 0.48869 0.09664 0.0
H1151 H 0.73319 0.4724 0.0762 0.0
H1152 H 0.22465 0.06126 0.07729 0.0
H1153 H 0.13177 0.0946 0.19972 0.0
H1154 H 0.1164 0.09348 0.06039 0.0
H1155 H 0.03093 0.06162 0.18211 0.0
H1156 H 0.16069 0.09658 0.15394 0.0
H1157 H 0.19539 0.06336 0.12295 0.0
C1158 C 0.19715 0.06906 0.08342 0.0
C1159 C 0.17408 0.07739 0.06539 0.0
C1160 C 0.13088 0.08911 0.16013 0.0
C1161 C 0.13941 0.07961 0.11681 0.0
C1162 C 0.11383 0.08805 0.18599 0.0
C1163 C 0.07741 0.07813 0.19434 0.0
C1164 C 0.11373 0.07989 0.14302 0.0
C1165 C 0.05743 0.06957 0.17617 0.0
C1166 C 0.17972 0.07013 0.10922 0.0
C1167 C 0.13609 0.08705 0.07399 0.0
N1168 N 0.07698 0.07051 0.15133 0.0
N1169 N 0.11972 0.08793 0.09923 0.0
H1170 H 0.15629 0.17441 0.05926 0.0
H1171 H 0.09326 0.17454 0.20698 0.0
H1172 H 0.00253 0.19688 0.08644 0.0
H1173 H 0.248 0.19686 0.18014 0.0
H1174 H 0.0612 0.17098 0.16209 0.0
H1175 H 0.18941 0.17096 0.10408 0.0
C1176 C 0.12791 0.17817 0.07474 0.0
C1177 C 0.07534 0.18561 0.06933 0.0
C1178 C 0.10356 0.17625 0.16616 0.0
C1179 C 0.11309 0.18177 0.12001 0.0
C1180 C 0.12213 0.17823 0.19156 0.0
C1181 C 0.17453 0.18569 0.1971 0.0
C1182 C 0.13797 0.18174 0.14632 0.0
C1183 C 0.209 0.19067 0.17659 0.0
C1184 C 0.14708 0.17625 0.1001 0.0
C1185 C 0.04155 0.19068 0.08991 0.0
N1186 N 0.18993 0.18863 0.15196 0.0
N1187 N 0.06113 0.18869 0.11449 0.0
H1188 H 0.95581 0.93994 0.93835 0.0
H1189 H 0.75179 0.94307 0.80919 0.0
H1190 H 0.75072 0.94241 0.93759 0.0
H1191 H 0.95632 0.93926 0.81092 0.0
H1192 H 0.74922 0.94105 0.85592 0.0
H1193 H 0.9555 0.93779 0.89178 0.0
C1194 C 0.91053 0.93994 0.92837 0.0
C1195 C 0.85315 0.94149 0.94183 0.0
C1196 C 0.79462 0.94056 0.8461 0.0
C1197 C 0.85257 0.93912 0.88829 0.0
C1198 C 0.79621 0.94172 0.81939 0.0
C1199 C 0.85451 0.94144 0.80616 0.0
C1200 C 0.85179 0.93917 0.85974 0.0
C1201 C 0.91039 0.93959 0.82036 0.0
C1202 C 0.91044 0.93871 0.90172 0.0
C1203 C 0.79599 0.94129 0.92792 0.0
N1204 N 0.90768 0.93862 0.84642 0.0
N1205 N 0.79717 0.94026 0.90181 0.0
H1206 H 0.98052 0.82094 0.94276 0.0
H1207 H 0.77036 0.82145 0.81392 0.0
H1208 H 0.775 0.82022 0.94195 0.0
H1209 H 0.97587 0.82059 0.81455 0.0
H1210 H 0.77111 0.82291 0.86093 0.0
H1211 H 0.97999 0.82269 0.89576 0.0
C1212 C 0.93534 0.82124 0.93272 0.0
C1213 C 0.87778 0.82035 0.94626 0.0
C1214 C 0.81605 0.82248 0.85076 0.0
C1215 C 0.8767 0.8223 0.89258 0.0
C1216 C 0.8156 0.82167 0.82392 0.0
C1217 C 0.87307 0.82081 0.81033 0.0
C1218 C 0.87441 0.82242 0.86405 0.0
C1219 C 0.93036 0.82115 0.82426 0.0
C1220 C 0.93501 0.82221 0.9059 0.0
C1221 C 0.82057 0.8208 0.93229 0.0
N1222 N 0.92956 0.82186 0.85034 0.0
N1223 N 0.8215 0.82168 0.90624 0.0
H1224 H 0.1484 0.59291 0.70291 0.0
H1225 H 0.24614 0.56713 0.58082 0.0
H1226 H 0.00401 0.56855 0.67468 0.0
H1227 H 0.10254 0.59265 0.5569 0.0
H1228 H 0.21759 0.57116 0.62596 0.0
H1229 H 0.18592 0.59594 0.65849 0.0
C1230 C 0.12294 0.58862 0.68721 0.0
C1231 C 0.07184 0.58075 0.69224 0.0
C1232 C 0.19407 0.57616 0.61074 0.0
C1233 C 0.11499 0.58402 0.64207 0.0
C1234 C 0.21093 0.57401 0.58514 0.0
C1235 C 0.17808 0.57989 0.56531 0.0
C1236 C 0.14272 0.58387 0.61621 0.0
C1237 C 0.12986 0.58817 0.57181 0.0
C1238 C 0.14467 0.59029 0.6621 0.0
C1239 C 0.04187 0.57503 0.67146 0.0
N1240 N 0.1125 0.58974 0.59676 0.0
N1241 N 0.06417 0.57673 0.64716 0.0
H1242 H 0.25372 0.69632 0.67808 0.0
H1243 H 0.14844 0.67328 0.55743 0.0
H1244 H 0.09546 0.67482 0.7046 0.0
H1245 H 0.99907 0.69635 0.58628 0.0
H1246 H 0.18546 0.67 0.60177 0.0
H1247 H 0.22196 0.69203 0.63342 0.0
C1248 C 0.21422 0.69024 0.67447 0.0
C1249 C 0.17863 0.68549 0.6949 0.0
C1250 C 0.14318 0.67539 0.59831 0.0
C1251 C 0.13958 0.68138 0.64444 0.0
C1252 C 0.12175 0.6772 0.57322 0.0
C1253 C 0.06954 0.68482 0.56837 0.0
C1254 C 0.11184 0.6812 0.61856 0.0
C1255 C 0.03788 0.69006 0.58932 0.0
C1256 C 0.19562 0.68795 0.64913 0.0
C1257 C 0.12495 0.67836 0.68924 0.0
N1258 N 0.05972 0.68818 0.61364 0.0
N1259 N 0.10605 0.67674 0.66449 0.0
H1260 H 0.97505 0.4436 0.44593 0.0
H1261 H 0.77372 0.44388 0.31567 0.0
H1262 H 0.76963 0.44278 0.44375 0.0
H1263 H 0.97915 0.44323 0.31782 0.0
H1264 H 0.77139 0.44205 0.36239 0.0
H1265 H 0.97744 0.44203 0.39917 0.0
C1266 C 0.93033 0.44301 0.43561 0.0
C1267 C 0.87195 0.44342 0.44876 0.0
C1268 C 0.81702 0.44223 0.35269 0.0
C1269 C 0.87446 0.44167 0.39506 0.0
C1270 C 0.81845 0.44328 0.32597 0.0
C1271 C 0.87682 0.4438 0.31283 0.0
C1272 C 0.87438 0.44176 0.36648 0.0
C1273 C 0.93314 0.4429 0.32718 0.0
C1274 C 0.9318 0.44211 0.40887 0.0
C1275 C 0.81565 0.44254 0.43438 0.0
N1276 N 0.93053 0.44202 0.35328 0.0
N1277 N 0.8183 0.4418 0.40826 0.0
H1278 H 0.76777 0.32178 0.31586 0.0
H1279 H 0.97735 0.32149 0.44489 0.0
H1280 H 0.9732 0.32052 0.31675 0.0
H1281 H 0.77192 0.32013 0.44398 0.0
H1282 H 0.97685 0.3232 0.3979 0.0
H1283 H 0.76824 0.32326 0.36289 0.0
C1284 C 0.81293 0.32191 0.32593 0.0
C1285 C 0.87047 0.32094 0.31241 0.0
C1286 C 0.93187 0.3226 0.40801 0.0
C1287 C 0.87148 0.32258 0.36612 0.0
C1288 C 0.93218 0.32164 0.43483 0.0
C1289 C 0.87466 0.32058 0.44833 0.0
C1290 C 0.87361 0.3225 0.39466 0.0
C1291 C 0.81747 0.32085 0.43433 0.0
C1292 C 0.81322 0.32273 0.35276 0.0
C1293 C 0.92765 0.32117 0.32641 0.0
N1294 N 0.81841 0.32172 0.40828 0.0
N1295 N 0.9267 0.32191 0.35248 0.0
H1296 H 0.49876 0.06801 0.67632 0.0
H1297 H 0.73445 0.069 0.57895 0.0
H1298 H 0.64371 0.09338 0.69964 0.0
H1299 H 0.58303 0.09285 0.55515 0.0
H1300 H 0.70671 0.07309 0.62409 0.0
H1301 H 0.52523 0.07221 0.63108 0.0
C1302 C 0.5338 0.0749 0.67187 0.0
C1303 C 0.56756 0.0807 0.69156 0.0
C1304 C 0.6812 0.07773 0.60888 0.0
C1305 C 0.601 0.08479 0.64049 0.0
C1306 C 0.69763 0.07557 0.58326 0.0
C1307 C 0.66247 0.08097 0.56347 0.0
C1308 C 0.62769 0.08487 0.61445 0.0
C1309 C 0.61211 0.08877 0.57003 0.0
C1310 C 0.54952 0.07715 0.6462 0.0
C1311 C 0.61571 0.08897 0.68485 0.0
N1312 N 0.59506 0.09028 0.59503 0.0
N1313 N 0.63222 0.09057 0.65981 0.0
H1314 H 0.58524 0.17506 0.70846 0.0
H1315 H 0.64326 0.1736 0.56092 0.0
H1316 H 0.73877 0.19743 0.6807 0.0
H1317 H 0.49514 0.19765 0.58714 0.0
H1318 H 0.67614 0.17041 0.60586 0.0
H1319 H 0.55197 0.17138 0.66374 0.0
C1320 C 0.61354 0.17874 0.69287 0.0
C1321 C 0.66604 0.18623 0.69809 0.0
C1322 C 0.63501 0.17601 0.60166 0.0
C1323 C 0.62804 0.18217 0.64753 0.0
C1324 C 0.61597 0.17777 0.57624 0.0
C1325 C 0.56514 0.18559 0.57051 0.0
C1326 C 0.6027 0.18207 0.62131 0.0
C1327 C 0.53277 0.19117 0.59087 0.0
C1328 C 0.5943 0.1767 0.66757 0.0
C1329 C 0.69974 0.19122 0.67738 0.0
N1330 N 0.5523 0.18934 0.61551 0.0
N1331 N 0.67996 0.18913 0.65286 0.0
H1332 H 0.49406 0.94237 0.44898 0.0
H1333 H 0.29176 0.94006 0.31935 0.0
H1334 H 0.28959 0.93852 0.44675 0.0
H1335 H 0.4969 0.94236 0.32062 0.0
H1336 H 0.29142 0.93758 0.36585 0.0
H1337 H 0.49725 0.94054 0.40222 0.0
C1338 C 0.44979 0.94104 0.43866 0.0
C1339 C 0.39131 0.94071 0.45177 0.0
C1340 C 0.33663 0.93853 0.35603 0.0
C1341 C 0.39474 0.93866 0.39815 0.0
C1342 C 0.33692 0.93996 0.32943 0.0
C1343 C 0.3945 0.94156 0.31613 0.0
C1344 C 0.39433 0.93879 0.3696 0.0
C1345 C 0.45147 0.94121 0.33016 0.0
C1346 C 0.45173 0.93999 0.41194 0.0
C1347 C 0.33563 0.93889 0.43742 0.0
N1348 N 0.44993 0.94 0.35623 0.0
N1349 N 0.33868 0.93804 0.41135 0.0
H1350 H 0.26569 0.82091 0.4449 0.0
H1351 H 0.47371 0.82097 0.31623 0.0
H1352 H 0.47123 0.82106 0.4442 0.0
H1353 H 0.26816 0.82107 0.31667 0.0
H1354 H 0.47349 0.82254 0.36299 0.0
H1355 H 0.26559 0.82252 0.3981 0.0
C1356 C 0.31089 0.82136 0.4349 0.0
C1357 C 0.36864 0.82076 0.44847 0.0
C1358 C 0.42838 0.82229 0.35291 0.0
C1359 C 0.36876 0.82255 0.39478 0.0
C1360 C 0.42841 0.82139 0.32617 0.0
C1361 C 0.37078 0.8208 0.31253 0.0
C1362 C 0.37029 0.82255 0.36623 0.0
C1363 C 0.31365 0.82146 0.32643 0.0
C1364 C 0.31074 0.82228 0.40815 0.0
C1365 C 0.42565 0.82145 0.43451 0.0
N1366 N 0.31485 0.82222 0.35256 0.0
N1367 N 0.42427 0.82223 0.40839 0.0
H1368 H 0.59875 0.59369 0.05473 0.0
H1369 H 0.64221 0.59503 0.20062 0.0
H1370 H 0.73753 0.56774 0.08105 0.0
H1371 H 0.51179 0.56698 0.17716 0.0
H1372 H 0.67129 0.59828 0.15525 0.0
H1373 H 0.56564 0.59708 0.09964 0.0
C1374 C 0.6239 0.58909 0.0701 0.0
C1375 C 0.67222 0.58071 0.06444 0.0
C1376 C 0.63467 0.59175 0.16011 0.0
C1377 C 0.63347 0.58424 0.11507 0.0
C1378 C 0.61766 0.58996 0.18577 0.0
C1379 C 0.57326 0.58097 0.1924 0.0
C1380 C 0.6076 0.58436 0.14121 0.0
C1381 C 0.54455 0.57426 0.17268 0.0
C1382 C 0.60466 0.59096 0.09548 0.0
C1383 C 0.70174 0.57458 0.08479 0.0
N1384 N 0.56292 0.57598 0.14786 0.0
N1385 N 0.68139 0.57638 0.10933 0.0
H1386 H 0.59347 0.67422 0.20712 0.0
H1387 H 0.49268 0.69737 0.08572 0.0
H1388 H 0.74366 0.69716 0.17846 0.0
H1389 H 0.64617 0.67439 0.06027 0.0
H1390 H 0.52409 0.69346 0.13057 0.0
H1391 H 0.55755 0.67077 0.16269 0.0
C1392 C 0.62058 0.67807 0.19136 0.0
C1393 C 0.67265 0.68572 0.19628 0.0
C1394 C 0.54945 0.689 0.11507 0.0
C1395 C 0.63155 0.68192 0.146 0.0
C1396 C 0.53101 0.69107 0.08963 0.0
C1397 C 0.56528 0.68578 0.06945 0.0
C1398 C 0.60408 0.68206 0.12008 0.0
C1399 C 0.61764 0.67836 0.07545 0.0
C1400 C 0.59978 0.67616 0.16622 0.0
C1401 C 0.70488 0.69086 0.17537 0.0
N1402 N 0.63643 0.67691 0.10028 0.0
N1403 N 0.68355 0.68891 0.151 0.0
H1404 H 0.26216 0.4451 0.815 0.0
H1405 H 0.47644 0.44474 0.94192 0.0
H1406 H 0.46759 0.44391 0.81388 0.0
H1407 H 0.27093 0.4443 0.94312 0.0
H1408 H 0.47398 0.44314 0.89515 0.0
H1409 H 0.26435 0.44351 0.86179 0.0
C1410 C 0.30782 0.44443 0.82459 0.0
C1411 C 0.36487 0.44473 0.81052 0.0
C1412 C 0.42938 0.44332 0.9056 0.0
C1413 C 0.36764 0.44296 0.86421 0.0
C1414 C 0.43069 0.44424 0.93234 0.0
C1415 C 0.37372 0.44474 0.94644 0.0
C1416 C 0.37064 0.44296 0.89275 0.0
C1417 C 0.31596 0.44398 0.933 0.0
C1418 C 0.30898 0.44352 0.85134 0.0
C1419 C 0.42251 0.44376 0.82398 0.0
N1420 N 0.31589 0.44322 0.90687 0.0
N1421 N 0.42243 0.44301 0.85011 0.0
H1422 H 0.47525 0.32241 0.81659 0.0
H1423 H 0.26633 0.32167 0.94499 0.0
H1424 H 0.26971 0.32214 0.81687 0.0
H1425 H 0.47184 0.32246 0.94461 0.0
H1426 H 0.26654 0.32336 0.89821 0.0
H1427 H 0.4747 0.32397 0.86337 0.0
C1428 C 0.42989 0.32275 0.82649 0.0
C1429 C 0.37236 0.32205 0.81281 0.0
C1430 C 0.31162 0.32324 0.90833 0.0
C1431 C 0.37148 0.32378 0.8665 0.0
C1432 C 0.31159 0.32228 0.93507 0.0
C1433 C 0.36924 0.32184 0.94872 0.0
C1434 C 0.36973 0.32373 0.89505 0.0
C1435 C 0.42633 0.32272 0.93485 0.0
C1436 C 0.42967 0.32364 0.85324 0.0
C1437 C 0.31513 0.32261 0.82666 0.0
N1438 N 0.42514 0.32354 0.90874 0.0
N1439 N 0.31614 0.32336 0.85279 0.0
H1440 H 0.21699 0.97152 0.24527 0.0
H1441 H 0.26236 0.04233 0.27006 0.0
H1442 H 0.39179 0.99026 0.22803 0.0
H1443 H 0.07853 0.02608 0.25664 0.0
H1444 H 0.31258 0.02262 0.26092 0.0
H1445 H 0.16538 0.99105 0.2535 0.0
C1446 C 0.2437 0.9798 0.24229 0.0
C1447 C 0.30775 0.97939 0.23491 0.0
C1448 C 0.26121 0.02339 0.2602 0.0
C1449 C 0.25099 0.00161 0.24625 0.0
C1450 C 0.23268 0.03456 0.26577 0.0
C1451 C 0.16645 0.03576 0.2641 0.0
C1452 C 0.22289 0.01343 0.25334 0.0
C1453 C 0.1299 0.02549 0.25805 0.0
C1454 C 0.21474 0.99091 0.24747 0.0
C1455 C 0.34172 0.9903 0.23303 0.0
N1456 N 0.15856 0.01476 0.25288 0.0
N1457 N 0.31306 0.00099 0.23883 0.0
H1458 H 0.87971 0.27521 0.21831 0.0
H1459 H 0.20444 0.24076 0.24597 0.0
H1460 H 0.0523 0.295 0.23393 0.0
H1461 H 0.02142 0.22697 0.26971 0.0
H1462 H 0.15363 0.25989 0.23345 0.0
H1463 H 0.93623 0.25621 0.22688 0.0
C1464 C 0.93016 0.27549 0.22266 0.0
C1465 C 0.96197 0.2866 0.22483 0.0
C1466 C 0.12485 0.25271 0.24162 0.0
C1467 C 0.0261 0.26507 0.2354 0.0
C1468 C 0.15366 0.24185 0.24888 0.0
C1469 C 0.11694 0.23234 0.25905 0.0
C1470 C 0.05871 0.25392 0.24394 0.0
C1471 C 0.05142 0.23414 0.26225 0.0
C1472 C 0.96203 0.26471 0.22789 0.0
C1473 C 0.02683 0.28657 0.23119 0.0
N1474 N 0.02416 0.24469 0.2544 0.0
N1475 N 0.05695 0.27593 0.23634 0.0
H1476 H 0.22398 0.22668 0.99243 0.0
H1477 H 0.18854 0.29577 0.02904 0.0
H1478 H 0.04525 0.24039 0.02123 0.0
H1479 H 0.3624 0.2759 0.04157 0.0
H1480 H 0.13221 0.27651 0.02233 0.0
H1481 H 0.27435 0.24603 0.00376 0.0
C1482 C 0.19519 0.23384 1.00066 0.0
C1483 C 0.13054 0.23199 0.0059 0.0
C1484 C 0.18239 0.27638 0.02713 0.0
C1485 C 0.18752 0.25397 0.01908 0.0
C1486 C 0.21415 0.28733 0.03145 0.0
C1487 C 0.2796 0.28734 0.03667 0.0
C1488 C 0.21719 0.26551 0.02697 0.0
C1489 C 0.3116 0.27621 0.03803 0.0
C1490 C 0.224 0.24479 0.00745 0.0
C1491 C 0.09537 0.24149 0.01694 0.0
N1492 N 0.28031 0.26574 0.03283 0.0
N1493 N 0.12427 0.25212 0.02311 0.0
H1494 H 0.98798 0.04173 0.98917 0.0
H1495 H 0.03236 0.97088 0.01316 0.0
H1496 H 0.17168 0.02549 0.00292 0.0
H1497 H 0.85808 0.98969 0.03091 0.0
H1498 H 0.08439 0.99041 0.00528 0.0
H1499 H 0.93768 0.02201 0.99814 0.0
C1500 C 0.01762 0.03396 0.99352 0.0
C1501 C 0.08383 0.03516 0.99532 0.0
C1502 C 0.03506 0.99028 0.01135 0.0
C1503 C 0.02729 0.01282 0.00586 0.0
C1504 C 0.00587 0.97916 0.01633 0.0
C1505 C 0.94183 0.97878 0.02374 0.0
C1506 C 0.99904 0.001 0.0128 0.0
C1507 C 0.90812 0.9897 0.02587 0.0
C1508 C 0.98905 0.02279 0.99898 0.0
C1509 C 0.12033 0.0249 0.00142 0.0
N1510 N 0.937 0.00039 0.02025 0.0
N1511 N 0.09161 0.01415 0.00647 0.0
H1512 H 0.74588 0.04013 0.76183 0.0
H1513 H 0.68914 0.97074 0.72679 0.0
H1514 H 0.56024 0.02609 0.74248 0.0
H1515 H 0.86984 0.98851 0.71595 0.0
H1516 H 0.63972 0.99052 0.73471 0.0
H1517 H 0.79266 0.02048 0.74976 0.0
C1518 C 0.715 0.03285 0.75551 0.0
C1519 C 0.64928 0.03468 0.75316 0.0
C1520 C 0.68994 0.99012 0.73006 0.0
C1521 C 0.70199 0.01239 0.73906 0.0
C1522 C 0.71777 0.97887 0.72503 0.0
C1523 C 0.78308 0.97809 0.71987 0.0
C1524 C 0.72836 0.00056 0.73089 0.0
C1525 C 0.81899 0.98881 0.71937 0.0
C1526 C 0.74164 0.02173 0.74828 0.0
C1527 C 0.61126 0.02503 0.7445 0.0
N1528 N 0.79136 -0.0004 0.72512 0.0
N1529 N 0.6381 0.0143 0.73781 0.0
H1530 H 0.20947 0.74047 0.74393 0.0
H1531 H 0.88449 0.77489 0.71675 0.0
H1532 H 0.02664 0.72671 0.76797 0.0
H1533 H 0.05695 0.79478 0.73205 0.0
H1534 H 0.94129 0.75593 0.72526 0.0
H1535 H 0.15866 0.75963 0.73156 0.0
C1536 C 0.15874 0.74157 0.74694 0.0
C1537 C 0.12207 0.73206 0.75714 0.0
C1538 C 0.96701 0.76443 0.72623 0.0
C1539 C 0.06382 0.75368 0.74221 0.0
C1540 C 0.93498 0.7752 0.72102 0.0
C1541 C 0.96662 0.78634 0.72314 0.0
C1542 C 0.0311 0.76482 0.73368 0.0
C1543 C 0.03155 0.78634 0.7294 0.0
C1544 C 0.12992 0.75245 0.73977 0.0
C1545 C 0.0566 0.73387 0.76048 0.0
N1546 N 0.06185 0.7757 0.73453 0.0
N1547 N 0.02934 0.74444 0.75271 0.0
H1548 H 0.72127 0.72558 0.99215 0.0
H1549 H 0.69203 0.79512 0.02622 0.0
H1550 H 0.54344 0.74028 0.01959 0.0
H1551 H 0.86377 0.77476 0.03994 0.0
H1552 H 0.6341 0.77601 0.01984 0.0
H1553 H 0.77358 0.74483 0.00294 0.0
C1554 C 0.69312 0.73294 0.99997 0.0
C1555 C 0.62813 0.7314 0.00498 0.0
C1556 C 0.68416 0.77575 0.02482 0.0
C1557 C 0.68727 0.75326 0.01753 0.0
C1558 C 0.71681 0.78661 0.02896 0.0
C1559 C 0.78212 0.78644 0.03445 0.0
C1560 C 0.71795 0.76476 0.02509 0.0
C1561 C 0.81309 0.77521 0.03619 0.0
C1562 C 0.72301 0.74383 0.00645 0.0
C1563 C 0.59379 0.74114 0.01548 0.0
N1564 N 0.78096 0.76481 0.03117 0.0
N1565 N 0.62372 0.7517 0.02135 0.0
H1566 H 0.22159 0.54053 0.76901 0.0
H1567 H 0.18355 0.47126 0.73187 0.0
H1568 H 0.04112 0.52628 0.7434 0.0
H1569 H 0.35779 0.49102 0.71939 0.0
H1570 H 0.12831 0.49049 0.73995 0.0
H1571 H 0.27196 0.52116 0.75749 0.0
C1572 C 0.19247 0.53324 0.76151 0.0
C1573 C 0.1273 0.53494 0.75716 0.0
C1574 C 0.17834 0.49062 0.73489 0.0
C1575 C 0.18419 0.51298 0.74371 0.0
C1576 C 0.20945 0.47969 0.72976 0.0
C1577 C 0.27468 0.47964 0.7241 0.0
C1578 C 0.21353 0.50145 0.73541 0.0
C1579 C 0.30711 0.49075 0.72322 0.0
C1580 C 0.22123 0.52229 0.75458 0.0
C1581 C 0.09165 0.52529 0.74699 0.0
N1582 N 0.27643 0.5012 0.72916 0.0
N1583 N 0.12051 0.51469 0.74064 0.0
H1584 H 0.18653 0.79484 0.52859 0.0
H1585 H 0.21965 0.72565 0.49161 0.0
H1586 H 0.35966 0.77469 0.54078 0.0
H1587 H 0.04105 0.73973 0.5197 0.0
H1588 H 0.27076 0.74494 0.50298 0.0
H1589 H 0.12951 0.77567 0.52155 0.0
C1590 C 0.21184 0.78635 0.53084 0.0
C1591 C 0.2773 0.78626 0.53604 0.0
C1592 C 0.22028 0.74379 0.5065 0.0
C1593 C 0.21411 0.76454 0.52599 0.0
C1594 C 0.19106 0.73288 0.49968 0.0
C1595 C 0.12623 0.73115 0.50473 0.0
C1596 C 0.18403 0.75305 0.51797 0.0
C1597 C 0.09131 0.74074 0.51557 0.0
C1598 C 0.17969 0.77546 0.52634 0.0
C1599 C 0.30887 0.77508 0.53725 0.0
N1600 N 0.1206 0.75132 0.52178 0.0
N1601 N 0.27721 0.76466 0.53189 0.0
H1602 H 0.86751 0.48961 0.54232 0.0
H1603 H 0.18883 0.52525 0.51278 0.0
H1604 H 0.04436 0.47109 0.52753 0.0
H1605 H 0.00291 0.53974 0.49551 0.0
H1606 H 0.13967 0.50599 0.52498 0.0
H1607 H 0.92038 0.50901 0.53401 0.0
C1608 C 0.91809 0.4897 0.53819 0.0
C1609 C 0.9522 0.47882 0.53622 0.0
C1610 C 0.10971 0.51335 0.5183 0.0
C1611 C 0.0122 0.50083 0.52584 0.0
C1612 C 0.13761 0.5243 0.51122 0.0
C1613 C 0.09972 0.53404 0.50298 0.0
C1614 C 0.04332 0.5122 0.51763 0.0
C1615 C 0.03373 0.53238 0.50145 0.0
C1616 C 0.94791 0.50072 0.53309 0.0
C1617 C 0.0171 0.47933 0.53012 0.0
N1618 N 0.00742 0.52168 0.509 0.0
N1619 N 0.04513 0.49018 0.52505 0.0
H1620 H 0.75086 0.54118 0.26491 0.0
H1621 H 0.70325 0.47148 0.23241 0.0
H1622 H 0.56756 0.52666 0.24356 0.0
H1623 H 0.88125 0.49003 0.22021 0.0
H1624 H 0.65095 0.49111 0.23901 0.0
H1625 H 0.7997 0.52162 0.25369 0.0
C1626 C 0.7209 0.53381 0.25831 0.0
C1627 C 0.65529 0.53548 0.25516 0.0
C1628 C 0.70119 0.4909 0.23433 0.0
C1629 C 0.71033 0.5133 0.24206 0.0
C1630 C 0.73064 0.47973 0.23006 0.0
C1631 C 0.79605 0.47923 0.22496 0.0
C1632 C 0.73815 0.50152 0.23448 0.0
C1633 C 0.83039 0.49011 0.22365 0.0
C1634 C 0.74873 0.52275 0.25157 0.0
C1635 C 0.61848 0.52572 0.24619 0.0
N1636 N 0.80123 0.50082 0.22872 0.0
N1637 N 0.64645 0.51503 0.24 0.0
H1638 H 0.86805 0.27526 0.54474 0.0
H1639 H 0.7205 0.22559 0.49072 0.0
H1640 H 0.69319 0.29391 0.52707 0.0
H1641 H 0.54829 0.23998 0.52416 0.0
H1642 H 0.77518 0.24458 0.50148 0.0
H1643 H 0.81437 0.25586 0.53753 0.0
C1644 C 0.81776 0.27521 0.54006 0.0
C1645 C 0.78453 0.28612 0.53693 0.0
C1646 C 0.72548 0.24353 0.50656 0.0
C1647 C 0.72387 0.26411 0.52739 0.0
C1648 C 0.6941 0.2328 0.50002 0.0
C1649 C 0.63005 0.23123 0.5067 0.0
C1650 C 0.69225 0.25274 0.51963 0.0
C1651 C 0.59795 0.24083 0.51886 0.0
C1652 C 0.78757 0.26419 0.53548 0.0
C1653 C 0.71983 0.28565 0.53036 0.0
N1654 N 0.62934 0.25122 0.52486 0.0
N1655 N 0.69142 0.27478 0.52574 0.0
H1656 H 0.38155 0.27645 0.71811 0.0
H1657 H 0.70284 0.24118 0.7478 0.0
H1658 H 0.555 0.29592 0.73402 0.0
H1659 H 0.51781 0.22799 0.77046 0.0
H1660 H 0.65418 0.26046 0.73489 0.0
H1661 H 0.43671 0.25736 0.72699 0.0
C1662 C 0.43196 0.27664 0.72257 0.0
C1663 C 0.46425 0.2877 0.72485 0.0
C1664 C 0.62448 0.25338 0.74292 0.0
C1665 C 0.52689 0.26602 0.73583 0.0
C1666 C 0.65207 0.24243 0.75042 0.0
C1667 C 0.61417 0.23304 0.76038 0.0
C1668 C 0.55837 0.25481 0.74478 0.0
C1669 C 0.54871 0.23506 0.76318 0.0
C1670 C 0.46304 0.26579 0.728 0.0
C1671 C 0.52907 0.28753 0.7313 0.0
N1672 N 0.52268 0.24568 0.75509 0.0
N1673 N 0.55842 0.27682 0.7367 0.0
H1674 H 0.68386 0.02607 0.5131 0.0
H1675 H 0.3711 0.98779 0.54286 0.0
H1676 H 0.49495 0.03885 0.49507 0.0
H1677 H 0.55305 0.97086 0.52968 0.0
H1678 H 0.41899 0.0076 0.53387 0.0
H1679 H 0.63918 0.0065 0.52574 0.0
C1680 C 0.63294 0.02468 0.51148 0.0
C1681 C 0.5929 0.03403 0.5029 0.0
C1682 C 0.4487 -0.00043 0.53345 0.0
C1683 C 0.54154 0.01182 0.51802 0.0
C1684 C 0.42171 0.98833 0.53892 0.0
C1685 C 0.45873 0.97778 0.53765 0.0
C1686 C 0.5131 0.00023 0.52649 0.0
C1687 C 0.52356 0.97885 0.53175 0.0
C1688 C 0.60758 0.01354 0.51881 0.0
C1689 C 0.52739 0.03181 0.50129 0.0
N1690 N 0.5488 0.9899 0.52631 0.0
N1691 N 0.50354 0.02093 0.50907 0.0
H1692 H 0.52176 0.7271 0.27329 0.0
H1693 H 0.37918 0.77591 0.21477 0.0
H1694 H 0.6967 0.7407 0.24063 0.0
H1695 H 0.55224 0.79483 0.23398 0.0
H1696 H 0.43293 0.7566 0.22295 0.0
H1697 H 0.46875 0.74601 0.26073 0.0
C1698 C 0.54912 0.73413 0.26381 0.0
C1699 C 0.61345 0.73235 0.25785 0.0
C1700 C 0.45936 0.76498 0.22507 0.0
C1701 C 0.55314 0.75374 0.24285 0.0
C1702 C 0.42918 0.77594 0.21994 0.0
C1703 C 0.46178 0.78689 0.22337 0.0
C1704 C 0.52236 0.76501 0.23401 0.0
C1705 C 0.52611 0.78653 0.23053 0.0
C1706 C 0.5187 0.7448 0.25623 0.0
C1707 C 0.64679 0.74172 0.2454 0.0
N1708 N 0.55447 0.77571 0.23575 0.0
N1709 N 0.61629 0.75206 0.23837 0.0
H1710 H 0.55686 0.47108 0.02549 0.0
H1711 H 0.51535 0.54034 0.98928 0.0
H1712 H 0.38236 0.49061 0.03898 0.0
H1713 H 0.69733 0.52628 0.01362 0.0
H1714 H 0.46605 0.52093 0.0012 0.0
H1715 H 0.61144 0.49042 0.01769 0.0
C1716 C 0.5308 0.47948 0.02788 0.0
C1717 C 0.46564 0.47934 0.03366 0.0
C1718 C 0.51686 0.52211 0.00376 0.0
C1719 C 0.52599 0.50126 0.02273 0.0
C1720 C 0.545 0.53308 0.99662 0.0
C1721 C 0.61031 0.53485 1.00047 0.0
C1722 C 0.55464 0.51284 0.01437 0.0
C1723 C 0.64666 0.52524 0.01041 0.0
C1724 C 0.56152 0.49047 0.02292 0.0
C1725 C 0.43298 0.49041 0.035 0.0
N1726 N 0.61839 0.51462 0.01698 0.0
N1727 N 0.46325 0.50092 0.02921 0.0
H1728 H 0.25965 0.15629 0.30422 0.0
H1729 H 0.96962 0.11106 0.28868 0.0
H1730 H 0.06868 0.16736 0.28482 0.0
H1731 H 0.1666 0.1001 0.2942 0.0
H1732 H -3e-05 0.13159 0.30064 0.0
H1733 H 0.22019 0.13608 0.3146 0.0
C1734 C 0.20899 0.15452 0.30281 0.0
C1735 C 0.16739 0.16339 0.29318 0.0
C1736 C 0.03642 0.12466 0.29967 0.0
C1737 C 0.12222 0.14024 0.3045 0.0
C1738 C 0.01925 0.11291 0.29278 0.0
C1739 C 0.06597 0.10388 0.28973 0.0
C1740 C 0.1008 0.12746 0.30346 0.0
C1741 C 0.12913 0.10679 0.29592 0.0
C1742 C 0.18658 0.14298 0.30865 0.0
C1743 C 0.10227 0.16073 0.29204 0.0
N1744 N 0.14487 0.11839 0.30204 0.0
N1745 N 0.08177 0.14927 0.29706 0.0
H1746 H 0.98133 0.15587 0.96388 0.0
H1747 H 0.275 0.11104 0.97115 0.0
H1748 H 0.17436 0.16719 0.97886 0.0
H1749 H 0.07824 0.09972 0.96834 0.0
H1750 H 0.24229 0.13166 0.96097 0.0
H1751 H 0.02009 0.13581 0.952 0.0
C1752 C 0.03218 0.15419 0.96406 0.0
C1753 C 0.07475 0.16308 0.97285 0.0
C1754 C 0.20636 0.12464 0.96213 0.0
C1755 C 0.11923 0.14009 0.95976 0.0
C1756 C 0.22489 0.11284 0.96799 0.0
C1757 C 0.17903 0.10367 0.97129 0.0
C1758 C 0.14146 0.12734 0.95966 0.0
C1759 C 0.11512 0.10651 0.96636 0.0
C1760 C 0.05422 0.14273 0.95735 0.0
C1761 C 0.14004 0.16053 0.97236 0.0
N1762 N 0.0981 0.11816 0.96126 0.0
N1763 N 0.16029 0.14915 0.96649 0.0
H1764 H 0.8293 0.91193 0.66257 0.0
H1765 H 0.89185 0.85322 0.74971 0.0
H1766 H 0.80839 0.91022 0.74507 0.0
H1767 H 0.90891 0.85208 0.66696 0.0
H1768 H 0.8624 0.87439 0.74715 0.0
H1769 H 0.85483 0.8901 0.66226 0.0
C1770 C 0.82864 0.90691 0.68048 0.0
C1771 C 0.81702 0.91288 0.7039 0.0
C1772 C 0.87267 0.8696 0.72945 0.0
C1773 C 0.84729 0.88815 0.70377 0.0
C1774 C 0.88987 0.85747 0.73092 0.0
C1775 C 0.90259 0.85082 0.7085 0.0
C1776 C 0.86777 0.87528 0.70535 0.0
C1777 C 0.89975 0.85689 0.68473 0.0
C1778 C 0.84392 0.89452 0.68034 0.0
C1779 C 0.81756 0.90602 0.7266 0.0
N1780 N 0.88219 0.8688 0.68374 0.0
N1781 N 0.83284 0.8941 0.72596 0.0
H1782 H 0.91222 0.91133 0.00114 0.0
H1783 H 0.83005 0.85308 0.08683 0.0
H1784 H 0.90711 0.91294 0.08404 0.0
H1785 H 0.86083 0.85278 0.00468 0.0
H1786 H 0.85433 0.87494 0.08722 0.0
H1787 H 0.89362 0.88964 0.00309 0.0
C1788 C 0.90799 0.90704 0.01983 0.0
C1789 C 0.91114 0.91391 0.04245 0.0
C1790 C 0.85559 0.87004 0.06917 0.0
C1791 C 0.88829 0.88898 0.04492 0.0
C1792 C 0.84112 0.85762 0.0689 0.0
C1793 C 0.84358 0.85108 0.04571 0.0
C1794 C 0.87208 0.87589 0.04607 0.0
C1795 C 0.85877 0.85739 0.02307 0.0
C1796 C 0.89705 0.89464 0.02096 0.0
C1797 C 0.90546 0.9079 0.06617 0.0
N1798 N 0.87244 0.86937 0.02386 0.0
N1799 N 0.89353 0.89575 0.06681 0.0
H1800 H 0.16066 0.59878 0.78973 0.0
H1801 H 0.07421 0.66824 0.78758 0.0
H1802 H 0.96839 0.61259 0.7889 0.0
H1803 H 0.26512 0.65447 0.79678 0.0
H1804 H 0.03269 0.64814 0.79856 0.0
H1805 H 0.19837 0.61889 0.80269 0.0
C1806 C 0.12629 0.60595 0.7929 0.0
C1807 C 0.06165 0.60412 0.78753 0.0
C1808 C 0.08369 0.64958 0.79876 0.0
C1809 C 0.10414 0.62714 0.8019 0.0
C1810 C 0.10726 0.66109 0.79265 0.0
C1811 C 0.17306 0.6629 0.79061 0.0
C1812 C 0.1264 0.63989 0.80262 0.0
C1813 C 0.21392 0.65334 0.79745 0.0
C1814 C 0.14774 0.61746 0.8002 0.0
C1815 C 0.019 0.61371 0.79211 0.0
N1816 N 0.19 0.64219 0.80261 0.0
N1817 N 0.0411 0.62485 0.79852 0.0
H1818 H 0.16383 0.66711 0.47374 0.0
H1819 H 0.07024 0.59796 0.47034 0.0
H1820 H 0.9706 0.65407 0.46834 0.0
H1821 H 0.26386 0.61097 0.46604 0.0
H1822 H 0.03274 0.61838 0.45999 0.0
H1823 H 0.20179 0.64694 0.4613 0.0
C1824 C 0.12944 0.66011 0.46925 0.0
C1825 C 0.06419 0.66214 0.47271 0.0
C1826 C 0.08351 0.61671 0.4608 0.0
C1827 C 0.10684 0.63907 0.45896 0.0
C1828 C 0.10487 0.60502 0.46662 0.0
C1829 C 0.17013 0.60283 0.46977 0.0
C1830 C 0.12779 0.62624 0.45837 0.0
C1831 C 0.21293 0.61233 0.46453 0.0
C1832 C 0.151 0.64856 0.46228 0.0
C1833 C 0.02152 0.65277 0.46656 0.0
N1834 N 0.19101 0.62365 0.45961 0.0
N1835 N 0.04359 0.64158 0.46049 0.0
H1836 H 0.9042 0.35333 0.25398 0.0
H1837 H 0.83519 0.41285 0.17025 0.0
H1838 H 0.91245 0.35303 0.171 0.0
H1839 H 0.84956 0.4118 0.25308 0.0
H1840 H 0.85749 0.39093 0.16906 0.0
H1841 H 0.88193 0.37488 0.25301 0.0
C1842 C 0.90185 0.35785 0.23548 0.0
C1843 C 0.91 0.35137 0.21252 0.0
C1844 C 0.8554 0.39554 0.18744 0.0
C1845 C 0.88346 0.3762 0.21121 0.0
C1846 C 0.84203 0.40799 0.18815 0.0
C1847 C 0.84078 0.41416 0.21179 0.0
C1848 C 0.86703 0.38928 0.21056 0.0
C1849 C 0.85058 0.40746 0.23439 0.0
C1850 C 0.8889 0.37019 0.23492 0.0
C1851 C 0.90682 0.35773 0.18914 0.0
N1852 N 0.86341 0.39545 0.23318 0.0
N1853 N 0.89322 0.36982 0.18904 0.0
H1854 H 0.8462 0.35306 0.50686 0.0
H1855 H 0.91161 0.41248 0.59146 0.0
H1856 H 0.83293 0.3527 0.58974 0.0
H1857 H 0.90424 0.41141 0.50849 0.0
H1858 H 0.88921 0.39055 0.59238 0.0
H1859 H 0.87015 0.37454 0.50815 0.0
C1860 C 0.84782 0.35755 0.5254 0.0
C1861 C 0.83771 0.35106 0.54823 0.0
C1862 C 0.89294 0.39515 0.57403 0.0
C1863 C 0.86613 0.37582 0.54992 0.0
C1864 C 0.90638 0.40761 0.57349 0.0
C1865 C 0.9095 0.41377 0.54987 0.0
C1866 C 0.88312 0.38889 0.55078 0.0
C1867 C 0.90171 0.40706 0.52716 0.0
C1868 C 0.86175 0.36985 0.52614 0.0
C1869 C 0.84006 0.3574 0.57167 0.0
N1870 N 0.88873 0.39505 0.52821 0.0
N1871 N 0.85455 0.36946 0.57195 0.0
H1872 H 0.67298 0.09927 0.78673 0.0
H1873 H 0.75344 0.15835 0.80978 0.0
H1874 H 0.47676 0.11065 0.79218 0.0
H1875 H 0.56558 0.16574 0.78036 0.0
H1876 H 0.72114 0.13757 0.81933 0.0
H1877 H 0.70606 0.1197 0.79883 0.0
C1878 C 0.63689 0.10596 0.79124 0.0
C1879 C 0.57216 0.1033 0.78796 0.0
C1880 C 0.6867 0.14371 0.81097 0.0
C1881 C 0.60929 0.12673 0.80208 0.0
C1882 C 0.70475 0.15563 0.80594 0.0
C1883 C 0.66221 0.16366 0.79396 0.0
C1884 C 0.62601 0.13976 0.80344 0.0
C1885 C 0.59971 0.1598 0.78957 0.0
C1886 C 0.6557 0.11766 0.79829 0.0
C1887 C 0.52735 0.11236 0.79394 0.0
N1888 N 0.58378 0.14801 0.79385 0.0
N1889 N 0.54676 0.12371 0.80018 0.0
H1890 H 0.65876 0.16725 0.47488 0.0
H1891 H 0.74651 0.10849 0.45225 0.0
H1892 H 0.46427 0.15486 0.4702 0.0
H1893 H 0.5556 0.10028 0.47735 0.0
H1894 H 0.71386 0.12924 0.44303 0.0
H1895 H 0.69453 0.14718 0.46147 0.0
C1896 C 0.62359 0.16041 0.47019 0.0
C1897 C 0.55868 0.16262 0.47414 0.0
C1898 C 0.67888 0.12295 0.45046 0.0
C1899 C 0.59872 0.1396 0.45855 0.0
C1900 C 0.69726 0.11103 0.45537 0.0
C1901 C 0.65392 0.10276 0.46613 0.0
C1902 C 0.61696 0.12666 0.45686 0.0
C1903 C 0.59059 0.10641 0.46928 0.0
C1904 C 0.64391 0.1489 0.46242 0.0
C1905 C 0.51499 0.15343 0.46793 0.0
N1906 N 0.5743 0.11819 0.46517 0.0
N1907 N 0.53583 0.14228 0.46094 0.0
H1908 H 0.33633 0.91381 0.17317 0.0
H1909 H 0.39528 0.85331 0.25502 0.0
H1910 H 0.34119 0.91172 0.25604 0.0
H1911 H 0.41154 0.85381 0.17222 0.0
H1912 H 0.37132 0.87477 0.25461 0.0
H1913 H 0.35598 0.89179 0.17114 0.0
C1914 C 0.34023 0.90869 0.19087 0.0
C1915 C 0.33739 0.91457 0.21481 0.0
C1916 C 0.38035 0.87028 0.23644 0.0
C1917 C 0.36072 0.88961 0.21267 0.0
C1918 C 0.39428 0.85798 0.23668 0.0
C1919 C 0.40528 0.85173 0.2136 0.0
C1920 C 0.37696 0.87651 0.21293 0.0
C1921 C 0.40373 0.85832 0.19046 0.0
C1922 C 0.35216 0.89618 0.18971 0.0
C1923 C 0.34353 0.90757 0.23718 0.0
N1924 N 0.38932 0.87038 0.19067 0.0
N1925 N 0.35511 0.89552 0.23553 0.0
H1926 H 0.41497 0.9119 0.59598 0.0
H1927 H 0.3545 0.85306 0.50922 0.0
H1928 H 0.44258 0.90977 0.51385 0.0
H1929 H 0.33693 0.85196 0.59196 0.0
H1930 H 0.38503 0.87417 0.51178 0.0
H1931 H 0.38965 0.89007 0.59649 0.0
C1932 C 0.41725 0.90678 0.57821 0.0
C1933 C 0.43056 0.91262 0.55481 0.0
C1934 C 0.37446 0.8694 0.52949 0.0
C1935 C 0.40046 0.88791 0.55515 0.0
C1936 C 0.35662 0.85731 0.52801 0.0
C1937 C 0.34345 0.85069 0.55043 0.0
C1938 C 0.37948 0.87507 0.55358 0.0
C1939 C 0.34645 0.85675 0.57419 0.0
C1940 C 0.40208 0.89439 0.57846 0.0
C1941 C 0.43206 0.90564 0.53229 0.0
N1942 N 0.36457 0.86863 0.57519 0.0
N1943 N 0.41674 0.89373 0.53302 0.0
H1944 H 0.76483 0.6582 0.30703 0.0
H1945 H 0.67751 0.59933 0.28865 0.0
H1946 H 0.57467 0.66607 0.28075 0.0
H1947 H 0.48251 0.61156 0.29273 0.0
H1948 H 0.71264 0.61959 0.3005 0.0
H1949 H 0.73137 0.6377 0.31823 0.0
C1950 C 0.71553 0.65563 0.30413 0.0
C1951 C 0.67255 0.6637 0.29256 0.0
C1952 C 0.66206 0.61782 0.29975 0.0
C1953 C 0.63482 0.64008 0.30383 0.0
C1954 C 0.64204 0.60618 0.29283 0.0
C1955 C 0.57715 0.60381 0.28915 0.0
C1956 C 0.61666 0.62711 0.30305 0.0
C1957 C 0.53322 0.61306 0.29477 0.0
C1958 C 0.69669 0.64386 0.31013 0.0
C1959 C 0.6092 0.66007 0.28952 0.0
N1960 N 0.55382 0.62434 0.30091 0.0
N1961 N 0.59249 0.6484 0.29462 0.0
H1962 H 0.46596 0.65495 0.96831 0.0
H1963 H 0.76642 0.61179 0.96321 0.0
H1964 H 0.66047 0.66721 0.97439 0.0
H1965 H 0.57281 0.59941 0.97214 0.0
H1966 H 0.72714 0.63199 0.95272 0.0
H1967 H 0.50382 0.63499 0.95527 0.0
C1968 C 0.51678 0.65349 0.96641 0.0
C1969 C 0.56034 0.66264 0.97308 0.0
C1970 C 0.69314 0.62481 0.95642 0.0
C1971 C 0.60383 0.63977 0.95836 0.0
C1972 C 0.71544 0.61327 0.96239 0.0
C1973 C 0.67269 0.60401 0.96917 0.0
C1974 C 0.62762 0.62714 0.95746 0.0
C1975 C 0.60732 0.60634 0.96729 0.0
C1976 C 0.53827 0.64209 0.95894 0.0
C1977 C 0.6254 0.66036 0.9697 0.0
N1978 N 0.58671 0.61778 0.96214 0.0
N1979 N 0.64531 0.64904 0.96309 0.0
H1980 H 0.32197 0.41342 0.66831 0.0
H1981 H 0.39554 0.35454 0.75358 0.0
H1982 H 0.32774 0.41246 0.7513 0.0
H1983 H 0.4071 0.35393 0.67066 0.0
H1984 H 0.36847 0.37587 0.75201 0.0
H1985 H 0.34701 0.39159 0.66758 0.0
C1986 C 0.32734 0.40859 0.68632 0.0
C1987 C 0.32305 0.41476 0.7099 0.0
C1988 C 0.37716 0.37116 0.73406 0.0
C1989 C 0.35251 0.39 0.7092 0.0
C1990 C 0.3929 0.35894 0.73496 0.0
C1991 C 0.40345 0.35241 0.71221 0.0
C1992 C 0.3714 0.37702 0.7102 0.0
C1993 C 0.3997 0.35866 0.68867 0.0
C1994 C 0.3423 0.39619 0.68589 0.0
C1995 C 0.33113 0.40811 0.73267 0.0
N1996 N 0.38347 0.37063 0.68824 0.0
N1997 N 0.34564 0.39616 0.73171 0.0
H1998 H 0.40904 0.41224 0.00523 0.0
H1999 H 0.3317 0.35362 0.09071 0.0
H2000 H 0.41617 0.41308 0.08821 0.0
H2001 H 0.34467 0.35414 0.00782 0.0
H2002 H 0.35741 0.37542 0.09127 0.0
H2003 H 0.38419 0.39079 0.00682 0.0
C2004 C 0.40598 0.40785 0.02386 0.0
C2005 C 0.41453 0.41446 0.04663 0.0
C2006 C 0.35426 0.37072 0.07302 0.0
C2007 C 0.38489 0.38976 0.04867 0.0
C2008 C 0.33895 0.35834 0.07267 0.0
C2009 C 0.33633 0.35205 0.04919 0.0
C2010 C 0.36647 0.37678 0.04971 0.0
C2011 C 0.34672 0.35857 0.02639 0.0
C2012 C 0.39151 0.39557 0.02478 0.0
C2013 C 0.41031 0.40827 0.0702 0.0
N2014 N 0.36145 0.37051 0.02726 0.0
N2015 N 0.39518 0.39625 0.07065 0.0
H2016 H 0.83658 0.06473 0.30504 0.0
H2017 H 0.90504 0.0665 0.45357 0.0
H2018 H 0.02251 0.05621 0.33572 0.0
H2019 H 0.7205 0.05619 0.42406 0.0
H2020 H 0.94972 0.06362 0.41039 0.0
H2021 H 0.79195 0.06243 0.3484 0.0
C2022 C 0.86782 0.06221 0.32073 0.0
C2023 C 0.93344 0.06075 0.31667 0.0
C2024 C 0.89963 0.06182 0.41355 0.0
C2025 C 0.88304 0.05837 0.36627 0.0
C2026 C 0.87415 0.06347 0.43816 0.0
C2027 C 0.80891 0.06164 0.44248 0.0
C2028 C 0.8593 0.0586 0.39307 0.0
C2029 C 0.7711 0.05771 0.42172 0.0
C2030 C 0.84236 0.06089 0.34545 0.0
C2031 C 0.97165 0.05746 0.33783 0.0
N2032 N 0.79659 0.05653 0.39785 0.0
N2033 N 0.9461 0.0566 0.36174 0.0
H2034 H 0.3716 0.18255 0.31991 0.0
H2035 H 0.43434 0.21993 0.44595 0.0
H2036 H 0.29875 0.21909 0.32393 0.0
H2037 H 0.36833 0.1829 0.44798 0.0
H2038 H 0.4055 0.22094 0.40005 0.0
H2039 H 0.39848 0.18364 0.36564 0.0
C2040 C 0.36296 0.19093 0.3302 0.0
C2041 C 0.33291 0.20075 0.31808 0.0
C2042 C 0.39653 0.21269 0.41078 0.0
C2043 C 0.36303 0.20197 0.37037 0.0
C2044 C 0.41246 0.21213 0.4369 0.0
C2045 C 0.40319 0.20134 0.45081 0.0
C2046 C 0.3734 0.20228 0.39846 0.0
C2047 C 0.37549 0.19143 0.4381 0.0
C2048 C 0.3774 0.19146 0.35635 0.0
C2049 C 0.32184 0.21132 0.33257 0.0
N2050 N 0.36276 0.19206 0.41252 0.0
N2051 N 0.33698 0.21167 0.35804 0.0
H2052 H 0.86877 0.18256 0.81918 0.0
H2053 H 0.93865 0.21947 0.94533 0.0
H2054 H 0.79549 0.21902 0.82487 0.0
H2055 H 0.87547 0.18226 0.94727 0.0
H2056 H 0.90663 0.22062 0.89981 0.0
H2057 H 0.89864 0.18342 0.86462 0.0
C2058 C 0.86063 0.19088 0.82976 0.0
C2059 C 0.82967 0.20075 0.8182 0.0
C2060 C 0.89902 0.2123 0.91043 0.0
C2061 C 0.86322 0.2017 0.87019 0.0
C2062 C 0.91679 0.21165 0.93635 0.0
C2063 C 0.9092 0.20078 0.95013 0.0
C2064 C 0.8757 0.20189 0.89815 0.0
C2065 C 0.8814 0.19085 0.9375 0.0
C2066 C 0.87679 0.19128 0.85576 0.0
C2067 C 0.81929 0.21122 0.83307 0.0
N2068 N 0.86681 0.19157 0.91209 0.0
N2069 N 0.83613 0.21145 0.85838 0.0
H2070 H 0.41045 0.06557 0.9521 0.0
H2071 H 0.33233 0.06558 0.80407 0.0
H2072 H 0.22426 0.05571 0.92355 0.0
H2073 H 0.52034 0.05672 0.83205 0.0
H2074 H 0.29104 0.063 0.8479 0.0
H2075 H 0.45271 0.06333 0.90833 0.0
C2076 C 0.37868 0.06277 0.93679 0.0
C2077 C 0.31363 0.06091 0.94158 0.0
C2078 C 0.34117 0.06146 0.84427 0.0
C2079 C 0.36131 0.05858 0.89152 0.0
C2080 C 0.36471 0.06293 0.81929 0.0
C2081 C 0.42986 0.06139 0.81433 0.0
C2082 C 0.38334 0.05871 0.86447 0.0
C2083 C 0.4697 0.05797 0.83488 0.0
C2084 C 0.4028 0.06149 0.91184 0.0
C2085 C 0.27471 0.05728 0.92089 0.0
N2086 N 0.44602 0.05695 0.8591 0.0
N2087 N 0.2989 0.05644 0.89674 0.0
H2088 H 0.31229 0.95176 0.62876 0.0
H2089 H 0.93217 0.95201 0.62899 0.0
H2090 H 0.19852 0.94907 0.55969 0.0
H2091 H 0.04597 0.94962 0.69809 0.0
H2092 H 0.02916 0.95223 0.60341 0.0
H2093 H 0.21529 0.95225 0.65429 0.0
C2094 C 0.26694 0.95128 0.61888 0.0
C2095 C 0.26377 0.95033 0.59192 0.0
C2096 C 0.03296 0.95166 0.62416 0.0
C2097 C 0.15214 0.95092 0.6213 0.0
C2098 C 0.97752 0.95155 0.63887 0.0
C2099 C 0.9807 0.95076 0.66585 0.0
C2100 C 0.09231 0.95102 0.63643 0.0
C2101 C 0.04105 0.95021 0.6774 0.0
C2102 C 0.21149 0.95155 0.63356 0.0
C2103 C 0.20343 0.94977 0.58037 0.0
N2104 N 0.09447 0.95035 0.66261 0.0
N2105 N 0.14999 0.95008 0.59514 0.0
H2106 H 0.69296 0.81083 0.70072 0.0
H2107 H 0.55233 0.81118 0.55759 0.0
H2108 H 0.80982 0.80962 0.63231 0.0
H2109 H 0.4361 0.80887 0.62605 0.0
H2110 H 0.64747 0.81012 0.5846 0.0
H2111 H 0.59816 0.80964 0.6736 0.0
C2112 C 0.69881 0.81026 0.68005 0.0
C2113 C 0.75961 0.81041 0.66884 0.0
C2114 C 0.60107 0.80979 0.59366 0.0
C2115 C 0.65118 0.80909 0.63765 0.0
C2116 C 0.5467 0.81039 0.57824 0.0
C2117 C 0.48595 0.8102 0.58951 0.0
C2118 C 0.59471 0.80904 0.62055 0.0
C2119 C 0.48179 0.80913 0.61643 0.0
C2120 C 0.64461 0.80958 0.66455 0.0
C2121 C 0.76405 0.80961 0.64188 0.0
N2122 N 0.53535 0.80866 0.63099 0.0
N2123 N 0.71061 0.80905 0.62724 0.0
H2124 H 0.1903 0.81248 0.20152 0.0
H2125 H 0.05623 0.81192 0.05723 0.0
H2126 H 0.30994 0.81146 0.13387 0.0
H2127 H 0.93658 0.81057 0.12484 0.0
H2128 H 0.14997 0.81124 0.08505 0.0
H2129 H 0.09659 0.81131 0.17373 0.0
C2130 C 0.19698 0.81198 0.18088 0.0
C2131 C 0.25825 0.81215 0.17008 0.0
C2132 C 0.10314 0.81105 0.09377 0.0
C2133 C 0.15113 0.81083 0.13815 0.0
C2134 C 0.04955 0.81143 0.07787 0.0
C2135 C 0.98826 0.81138 0.08865 0.0
C2136 C 0.09545 0.81065 0.12063 0.0
C2137 C 0.98275 0.8107 0.11559 0.0
C2138 C 0.14342 0.81131 0.16501 0.0
C2139 C 0.26378 0.81143 0.14315 0.0
N2140 N 0.03558 0.81042 0.13061 0.0
N2141 N 0.21099 0.81086 0.12815 0.0
H2142 H 0.81348 0.95331 0.12067 0.0
H2143 H 0.43594 0.95443 0.13764 0.0
H2144 H 0.68162 0.95136 0.05694 0.0
H2145 H 0.56736 0.9513 0.2013 0.0
H2146 H 0.52542 0.95472 0.10801 0.0
H2147 H 0.72409 0.95396 0.15032 0.0
C2148 C 0.76572 0.95303 0.11281 0.0
C2149 C 0.75525 0.95223 0.08613 0.0
C2150 C 0.53476 0.95398 0.12844 0.0
C2151 C 0.6523 0.953 0.12029 0.0
C2152 C 0.48362 0.95382 0.14549 0.0
C2153 C 0.49393 0.95278 0.17215 0.0
C2154 C 0.59698 0.95313 0.138 0.0
C2155 C 0.55698 0.95208 0.18097 0.0
C2156 C 0.71464 0.95339 0.12986 0.0
C2157 C 0.69211 0.95194 0.0773 0.0
N2158 N 0.60613 0.95226 0.16392 0.0
N2159 N 0.64302 0.95232 0.09436 0.0
H2160 H 0.86495 0.5842 0.81238 0.0
H2161 H 0.80062 0.54691 0.93893 0.0
H2162 H 0.93532 0.5475 0.81716 0.0
H2163 H 0.86404 0.58411 0.94058 0.0
H2164 H 0.82899 0.5459 0.89299 0.0
H2165 H 0.83651 0.58327 0.858 0.0
C2166 C 0.87262 0.57581 0.8228 0.0
C2167 C 0.90249 0.5659 0.81095 0.0
C2168 C 0.83743 0.5542 0.90363 0.0
C2169 C 0.8707 0.56487 0.86311 0.0
C2170 C 0.82179 0.55476 0.92977 0.0
C2171 C 0.83062 0.56557 0.94361 0.0
C2172 C 0.85982 0.56464 0.89119 0.0
C2173 C 0.85734 0.57554 0.93077 0.0
C2174 C 0.85733 0.57537 0.84889 0.0
C2175 C 0.91236 0.55534 0.82559 0.0
N2176 N 0.86987 0.57491 0.90516 0.0
N2177 N 0.89647 0.55508 0.85099 0.0
H2178 H 0.3743 0.68193 0.81814 0.0
H2179 H 0.43453 0.71966 0.94425 0.0
H2180 H 0.30535 0.71876 0.82156 0.0
H2181 H 0.37054 0.6825 0.94624 0.0
H2182 H 0.40709 0.72053 0.89822 0.0
H2183 H 0.39996 0.68299 0.86399 0.0
C2184 C 0.36629 0.69036 0.82833 0.0
C2185 C 0.3377 0.70028 0.816 0.0
C2186 C 0.39824 0.71228 0.90895 0.0
C2187 C 0.36633 0.70146 0.86845 0.0
C2188 C 0.41336 0.7118 0.93515 0.0
C2189 C 0.40425 0.70102 0.94911 0.0
C2190 C 0.37605 0.70181 0.89659 0.0
C2191 C 0.37751 0.69103 0.93633 0.0
C2192 C 0.38 0.69088 0.85456 0.0
C2193 C 0.32735 0.71091 0.83037 0.0
N2194 N 0.36552 0.69159 0.91068 0.0
N2195 N 0.34173 0.71124 0.85591 0.0
H2196 H 0.86525 0.68207 0.44728 0.0
H2197 H 0.8042 0.72001 0.32134 0.0
H2198 H 0.93681 0.71871 0.44354 0.0
H2199 H 0.86644 0.68274 0.31922 0.0
H2200 H 0.83189 0.7208 0.36736 0.0
H2201 H 0.83758 0.68326 0.40162 0.0
C2202 C 0.87337 0.69049 0.43708 0.0
C2203 C 0.90335 0.70031 0.44923 0.0
C2204 C 0.84023 0.71254 0.3566 0.0
C2205 C 0.87241 0.70165 0.39702 0.0
C2206 C 0.82498 0.7121 0.3304 0.0
C2207 C 0.83362 0.70132 0.3164 0.0
C2208 C 0.86206 0.70202 0.36892 0.0
C2209 C 0.85986 0.69128 0.32915 0.0
C2210 C 0.85849 0.69109 0.41096 0.0
C2211 C 0.91377 0.71094 0.43486 0.0
N2212 N 0.87201 0.6918 0.35479 0.0
N2213 N 0.8983 0.71134 0.40943 0.0
H2214 H 0.33603 0.56675 0.3047 0.0
H2215 H 0.41541 0.56632 0.45246 0.0
H2216 H 0.52286 0.5568 0.33236 0.0
H2217 H 0.2285 0.55653 0.42465 0.0
H2218 H 0.45662 0.5641 0.4085 0.0
H2219 H 0.29467 0.56425 0.34857 0.0
C2220 C 0.3681 0.56388 0.31984 0.0
C2221 C 0.43301 0.56203 0.31478 0.0
C2222 C 0.40678 0.56227 0.41221 0.0
C2223 C 0.38645 0.55944 0.36495 0.0
C2224 C 0.38328 0.56355 0.43725 0.0
C2225 C 0.31842 0.56164 0.4423 0.0
C2226 C 0.3648 0.55938 0.39205 0.0
C2227 C 0.27891 0.55807 0.42176 0.0
C2228 C 0.34453 0.56245 0.34484 0.0
C2229 C 0.47243 0.55832 0.33525 0.0
N2230 N 0.30248 0.55726 0.39749 0.0
N2231 N 0.44878 0.55736 0.35947 0.0
H2232 H 0.06348 0.45194 0.20241 0.0
H2233 H 0.19672 0.45311 0.05797 0.0
H2234 H 0.94413 0.4545 0.13487 0.0
H2235 H 0.31732 0.45405 0.12532 0.0
H2236 H 0.10341 0.45369 0.08601 0.0
H2237 H 0.15741 0.45277 0.17458 0.0
C2238 C 0.05692 0.45271 0.1818 0.0
C2239 C 0.99565 0.45309 0.17104 0.0
C2240 C 0.15035 0.45381 0.09463 0.0
C2241 C 0.10289 0.45401 0.13909 0.0
C2242 C 0.20369 0.45347 0.0786 0.0
C2243 C 0.26511 0.45348 0.08922 0.0
C2244 C 0.15841 0.4541 0.12148 0.0
C2245 C 0.27102 0.45399 0.11618 0.0
C2246 C 0.11057 0.45319 0.16591 0.0
C2247 C 0.99024 0.45412 0.14414 0.0
N2248 N 0.21841 0.45423 0.13134 0.0
N2249 N 0.04306 0.4545 0.12914 0.0
H2250 H 0.69101 0.31256 0.20201 0.0
H2251 H 0.5525 0.31328 0.05843 0.0
H2252 H 0.80894 0.31165 0.13388 0.0
H2253 H 0.43526 0.31134 0.12666 0.0
H2254 H 0.64726 0.31237 0.0857 0.0
H2255 H 0.5966 0.31182 0.17461 0.0
C2256 C 0.69717 0.31217 0.18134 0.0
C2257 C 0.75817 0.31223 0.17031 0.0
C2258 C 0.60072 0.3121 0.09466 0.0
C2259 C 0.65017 0.31141 0.13878 0.0
C2260 C 0.54657 0.31262 0.07909 0.0
C2261 C 0.48565 0.31246 0.09021 0.0
C2262 C 0.59395 0.31145 0.12154 0.0
C2263 C 0.48109 0.31156 0.11714 0.0
C2264 C 0.64319 0.31174 0.16568 0.0
C2265 C 0.763 0.31168 0.14333 0.0
N2266 N 0.53443 0.31115 0.13185 0.0
N2267 N 0.70978 0.31134 0.12853 0.0
H2268 H 0.05412 0.31229 0.55888 0.0
H2269 H 0.1914 0.31303 0.70264 0.0
H2270 H 0.93585 0.31099 0.62689 0.0
H2271 H 0.30949 0.31136 0.63462 0.0
H2272 H 0.09702 0.31193 0.67522 0.0
H2273 H 0.14842 0.3116 0.58638 0.0
C2274 C 0.04786 0.31182 0.57955 0.0
C2275 C 0.98679 0.31177 0.59052 0.0
C2276 C 0.14366 0.31175 0.66633 0.0
C2277 C 0.09465 0.31101 0.62214 0.0
C2278 C 0.19761 0.31239 0.68199 0.0
C2279 C 0.25865 0.31236 0.67098 0.0
C2280 C 0.15073 0.31113 0.63946 0.0
C2281 C 0.26354 0.31148 0.64405 0.0
C2282 C 0.10177 0.31142 0.59525 0.0
C2283 C 0.98183 0.31111 0.61748 0.0
N2284 N 0.21038 0.31096 0.62925 0.0
N2285 N 0.03498 0.31082 0.63233 0.0
H2286 H 0.42402 0.45459 0.63193 0.0
H2287 H 0.80403 0.4538 0.62677 0.0
H2288 H 0.54378 0.45261 0.69943 0.0
H2289 H 0.68499 0.4516 0.55909 0.0
H2290 H 0.70913 0.45475 0.65343 0.0
H2291 H 0.51885 0.45491 0.60501 0.0
C2292 C 0.47022 0.45425 0.64117 0.0
C2293 C 0.47573 0.45351 0.6681 0.0
C2294 C 0.70368 0.45406 0.63276 0.0
C2295 C 0.58479 0.45388 0.63715 0.0
C2296 C 0.75795 0.45353 0.61743 0.0
C2297 C 0.75271 0.45256 0.59052 0.0
C2298 C 0.64337 0.45367 0.62124 0.0
C2299 C 0.69148 0.4523 0.5797 0.0
C2300 C 0.52441 0.45442 0.6257 0.0
C2301 C 0.53705 0.45315 0.67881 0.0
N2302 N 0.63918 0.45284 0.59511 0.0
N2303 N 0.58916 0.45332 0.66329 0.0
loop_
_geom_bond_atom_site_label_1
_geom_bond_atom_site_label_2
_geom_bond_distance
_geom_bond_site_symmetry_2
_ccdc_geom_bond_type
Mn0 O5 2.095 . S
Mn0 O15 2.162 . S
Mn0 O16 2.297 . S
Mn0 O24 2.385 . S
Mn0 O25 2.209 . S
Mn0 O26 2.094 . S
Mn1 O6 2.121 . S
Mn1 N8 2.257 . S
Mn1 N17 2.282 . S
Mn1 O25 2.215 1_655 S
Mn1 O27 2.117 1_655 S
C2 O24 1.234 . S
C2 O25 1.283 . S
C3 O15 1.281 . S
C3 O16 1.236 . S
C4 O26 1.240 . S
C4 O27 1.264 . S
O5 Mn0 2.095 . S
O5 C14 1.250 1_455 S
O6 Mn1 2.121 . S
O6 C14 1.258 . S
C7 N8 1.326 . S
C7 C11 1.460 . S
C7 H13 0.929 . S
N8 Mn1 2.257 . S
N8 C7 1.326 . S
N8 C12 1.362 . S
C9 C10 1.258 . S
C9 C12 1.431 . S
C9 C29 1.449 . S
C10 C9 1.258 . S
C10 C11 1.477 . S
C10 H30 0.931 . S
C11 C7 1.460 . S
C11 C10 1.477 . S
C11 H31 0.930 . S
C12 N8 1.362 . S
C12 C9 1.431 . S
C12 C22 1.476 . S
H13 C7 0.929 . S
C14 O5 1.250 1_655 S
C14 O6 1.258 . S
O15 Mn0 2.162 . S
O15 C3 1.281 . S
O16 Mn0 2.297 . S
O16 C3 1.236 . S
N17 Mn1 2.282 . S
N17 C18 1.328 1_655 S
N17 C22 1.318 . S
C18 N17 1.328 1_455 S
C18 C19 1.457 . S
C18 H23 0.929 . S
C19 C18 1.457 . S
C19 C20 1.291 1_455 S
C19 H32 0.931 . S
C20 C19 1.291 1_655 S
C20 C21 1.373 . S
C20 H33 0.929 . S
C21 C20 1.373 . S
C21 C22 1.396 . S
C21 C28 1.403 . S
C22 C12 1.476 . S
C22 N17 1.318 . S
C22 C21 1.396 . S
H23 C18 0.929 . S
O24 Mn0 2.385 . S
O24 C2 1.234 . S
O25 Mn0 2.209 . S
O25 Mn1 2.215 1_455 S
O25 C2 1.283 . S
O26 Mn0 2.094 . S
O26 C4 1.240 . S
O27 Mn1 2.117 1_455 S
O27 C4 1.264 . S
C28 C21 1.403 . S
C28 C29 1.399 . S
C28 H34 0.929 . S
C29 C9 1.449 . S
C29 C28 1.399 . S
C29 H35 0.930 . S
H30 C10 0.931 . S
H31 C11 0.930 . S
H32 C19 0.931 . S
H33 C20 0.929 . S
H34 C28 0.929 . S
H35 C29 0.930 . S
Mn36 O41 2.095 . S
Mn36 O51 2.162 . S
Mn36 O52 2.297 . S
Mn36 O60 2.385 . S
Mn36 O61 2.209 . S
Mn36 O62 2.094 . S
Mn37 O42 2.121 . S
Mn37 N44 2.257 . S
Mn37 N53 2.282 . S
Mn37 O61 2.215 . S
Mn37 O63 2.117 . S
C38 O60 1.234 . S
C38 O61 1.283 . S
C39 O51 1.281 . S
C39 O52 1.236 . S
C40 O62 1.240 . S
C40 O63 1.264 . S
O41 Mn36 2.095 . S
O41 C50 1.250 . S
O42 Mn37 2.121 . S
O42 C50 1.258 . S
C43 N44 1.326 . S
C43 C47 1.460 . S
C43 H49 0.929 . S
N44 Mn37 2.257 . S
N44 C43 1.326 . S
N44 C48 1.362 . S
C45 C46 1.258 . S
C45 C48 1.431 . S
C45 C65 1.449 . S
C46 C45 1.258 . S
C46 C47 1.477 . S
C46 H66 0.931 . S
C47 C43 1.460 . S
C47 C46 1.477 . S
C47 H67 0.930 . S
C48 N44 1.362 . S
C48 C45 1.431 . S
C48 C58 1.476 . S
H49 C43 0.929 . S
C50 O41 1.250 . S
C50 O42 1.258 . S
O51 Mn36 2.162 . S
O51 C39 1.281 . S
O52 Mn36 2.297 . S
O52 C39 1.236 . S
N53 Mn37 2.282 . S
N53 C54 1.328 . S
N53 C58 1.318 . S
C54 N53 1.328 . S
C54 C55 1.457 . S
C54 H59 0.929 . S
C55 C54 1.457 . S
C55 C56 1.291 . S
C55 H68 0.931 . S
C56 C55 1.291 . S
C56 C57 1.373 . S
C56 H69 0.929 . S
C57 C56 1.373 . S
C57 C58 1.396 . S
C57 C64 1.403 . S
C58 C48 1.476 . S
C58 N53 1.318 . S
C58 C57 1.396 . S
H59 C54 0.929 . S
O60 Mn36 2.385 . S
O60 C38 1.234 . S
O61 Mn36 2.209 . S
O61 Mn37 2.215 . S
O61 C38 1.283 . S
O62 Mn36 2.094 . S
O62 C40 1.240 . S
O63 Mn37 2.117 . S
O63 C40 1.264 . S
C64 C57 1.403 . S
C64 C65 1.399 . S
C64 H70 0.929 . S
C65 C45 1.449 . S
C65 C64 1.399 . S
C65 H71 0.930 . S
H66 C46 0.931 . S
H67 C47 0.930 . S
H68 C55 0.931 . S
H69 C56 0.929 . S
H70 C64 0.929 . S
H71 C65 0.930 . S
Mn72 O77 2.095 . S
Mn72 O87 2.162 . S
Mn72 O88 2.297 . S
Mn72 O96 2.385 1_556 S
Mn72 O97 2.209 1_556 S
Mn72 O98 2.094 . S
Mn73 O78 2.121 1_554 S
Mn73 N80 2.257 . S
Mn73 N89 2.282 . S
Mn73 O97 2.215 1_655 S
Mn73 O99 2.117 1_655 S
C74 O96 1.234 . S
C74 O97 1.283 . S
C75 O87 1.281 . S
C75 O88 1.236 . S
C76 O98 1.240 . S
C76 O99 1.264 1_556 S
O77 Mn72 2.095 . S
O77 C86 1.250 1_455 S
O78 Mn73 2.121 1_556 S
O78 C86 1.258 . S
C79 N80 1.326 . S
C79 C83 1.460 . S
C79 H85 0.929 . S
N80 Mn73 2.257 . S
N80 C79 1.326 . S
N80 C84 1.362 . S
C81 C82 1.258 . S
C81 C84 1.431 . S
C81 C101 1.449 . S
C82 C81 1.258 . S
C82 C83 1.477 . S
C82 H102 0.931 . S
C83 C79 1.460 . S
C83 C82 1.477 . S
C83 H103 0.930 . S
C84 N80 1.362 . S
C84 C81 1.431 . S
C84 C94 1.476 . S
H85 C79 0.929 . S
C86 O77 1.250 1_655 S
C86 O78 1.258 . S
O87 Mn72 2.162 . S
O87 C75 1.281 . S
O88 Mn72 2.297 . S
O88 C75 1.236 . S
N89 Mn73 2.282 . S
N89 C90 1.328 1_655 S
N89 C94 1.318 . S
C90 N89 1.328 1_455 S
C90 C91 1.457 . S
C90 H95 0.929 . S
C91 C90 1.457 . S
C91 C92 1.291 1_455 S
C91 H104 0.931 . S
C92 C91 1.291 1_655 S
C92 C93 1.373 . S
C92 H105 0.929 1_655 S
C93 C92 1.373 . S
C93 C94 1.396 . S
C93 C100 1.403 . S
C94 C84 1.476 . S
C94 N89 1.318 . S
C94 C93 1.396 . S
H95 C90 0.929 . S
O96 Mn72 2.385 1_554 S
O96 C74 1.234 . S
O97 Mn72 2.209 1_554 S
O97 Mn73 2.215 1_455 S
O97 C74 1.283 . S
O98 Mn72 2.094 . S
O98 C76 1.240 . S
O99 Mn73 2.117 1_455 S
O99 C76 1.264 1_554 S
C100 C93 1.403 . S
C100 C101 1.399 . S
C100 H106 0.929 . S
C101 C81 1.449 . S
C101 C100 1.399 . S
C101 H107 0.930 . S
H102 C82 0.931 . S
H103 C83 0.930 . S
H104 C91 0.931 . S
H105 C92 0.929 1_455 S
H106 C100 0.929 . S
H107 C101 0.930 . S
Mn108 O113 2.095 . S
Mn108 O123 2.162 . S
Mn108 O124 2.297 . S
Mn108 O132 2.385 1_556 S
Mn108 O133 2.209 1_556 S
Mn108 O134 2.094 . S
Mn109 O114 2.121 1_554 S
Mn109 N116 2.257 . S
Mn109 N125 2.282 . S
Mn109 O133 2.215 . S
Mn109 O135 2.117 . S
C110 O132 1.234 . S
C110 O133 1.283 . S
C111 O123 1.281 . S
C111 O124 1.236 . S
C112 O134 1.240 . S
C112 O135 1.264 1_556 S
O113 Mn108 2.095 . S
O113 C122 1.250 . S
O114 Mn109 2.121 1_556 S
O114 C122 1.258 . S
C115 N116 1.326 . S
C115 C119 1.460 . S
C115 H121 0.929 . S
N116 Mn109 2.257 . S
N116 C115 1.326 . S
N116 C120 1.362 . S
C117 C118 1.258 . S
C117 C120 1.431 . S
C117 C137 1.449 . S
C118 C117 1.258 . S
C118 C119 1.477 . S
C118 H138 0.931 . S
C119 C115 1.460 . S
C119 C118 1.477 . S
C119 H139 0.930 . S
C120 N116 1.362 . S
C120 C117 1.431 . S
C120 C130 1.476 . S
H121 C115 0.929 . S
C122 O113 1.250 . S
C122 O114 1.258 . S
O123 Mn108 2.162 . S
O123 C111 1.281 . S
O124 Mn108 2.297 . S
O124 C111 1.236 . S
N125 Mn109 2.282 . S
N125 C126 1.328 . S
N125 C130 1.318 . S
C126 N125 1.328 . S
C126 C127 1.457 . S
C126 H131 0.929 . S
C127 C126 1.457 . S
C127 C128 1.291 . S
C127 H140 0.931 . S
C128 C127 1.291 . S
C128 C129 1.373 . S
C128 H141 0.929 . S
C129 C128 1.373 . S
C129 C130 1.396 . S
C129 C136 1.403 . S
C130 C120 1.476 . S
C130 N125 1.318 . S
C130 C129 1.396 . S
H131 C126 0.929 . S
O132 Mn108 2.385 1_554 S
O132 C110 1.234 . S
O133 Mn108 2.209 1_554 S
O133 Mn109 2.215 . S
O133 C110 1.283 . S
O134 Mn108 2.094 . S
O134 C112 1.240 . S
O135 Mn109 2.117 . S
O135 C112 1.264 1_554 S
C136 C129 1.403 . S
C136 C137 1.399 . S
C136 H142 0.929 . S
C137 C117 1.449 . S
C137 C136 1.399 . S
C137 H143 0.930 . S
H138 C118 0.931 . S
H139 C119 0.930 . S
H140 C127 0.931 . S
H141 C128 0.929 . S
H142 C136 0.929 . S
H143 C137 0.930 . S
Mn144 O149 2.095 . S
Mn144 O159 2.162 . S
Mn144 O160 2.297 . S
Mn144 O168 2.385 . S
Mn144 O169 2.209 . S
Mn144 O170 2.094 1_655 S
Mn145 O150 2.121 . S
Mn145 N152 2.257 . S
Mn145 N161 2.282 . S
Mn145 O169 2.215 . S
Mn145 O171 2.117 . S
C146 O168 1.234 . S
C146 O169 1.283 . S
C147 O159 1.281 . S
C147 O160 1.236 . S
C148 O170 1.240 1_655 S
C148 O171 1.264 . S
O149 Mn144 2.095 . S
O149 C158 1.250 . S
O150 Mn145 2.121 . S
O150 C158 1.258 . S
C151 N152 1.326 . S
C151 C155 1.460 . S
C151 H157 0.929 . S
N152 Mn145 2.257 . S
N152 C151 1.326 . S
N152 C156 1.362 . S
C153 C154 1.258 . S
C153 C156 1.431 . S
C153 C173 1.449 . S
C154 C153 1.258 . S
C154 C155 1.477 . S
C154 H174 0.931 . S
C155 C151 1.460 . S
C155 C154 1.477 . S
C155 H175 0.930 . S
C156 N152 1.362 . S
C156 C153 1.431 . S
C156 C166 1.476 . S
H157 C151 0.929 . S
C158 O149 1.250 . S
C158 O150 1.258 . S
O159 Mn144 2.162 . S
O159 C147 1.281 . S
O160 Mn144 2.297 . S
O160 C147 1.236 . S
N161 Mn145 2.282 . S
N161 C162 1.328 . S
N161 C166 1.318 . S
C162 N161 1.328 . S
C162 C163 1.457 . S
C162 H167 0.929 . S
C163 C162 1.457 . S
C163 C164 1.291 . S
C163 H176 0.931 . S
C164 C163 1.291 . S
C164 C165 1.373 . S
C164 H177 0.929 . S
C165 C164 1.373 . S
C165 C166 1.396 . S
C165 C172 1.403 . S
C166 C156 1.476 . S
C166 N161 1.318 . S
C166 C165 1.396 . S
H167 C162 0.929 . S
O168 Mn144 2.385 . S
O168 C146 1.234 . S
O169 Mn144 2.209 . S
O169 Mn145 2.215 . S
O169 C146 1.283 . S
O170 Mn144 2.094 1_455 S
O170 C148 1.240 1_455 S
O171 Mn145 2.117 . S
O171 C148 1.264 . S
C172 C165 1.403 . S
C172 C173 1.399 . S
C172 H178 0.929 . S
C173 C153 1.449 . S
C173 C172 1.399 . S
C173 H179 0.930 . S
H174 C154 0.931 . S
H175 C155 0.930 . S
H176 C163 0.931 . S
H177 C164 0.929 . S
H178 C172 0.929 . S
H179 C173 0.930 . S
Mn180 O185 2.095 . S
Mn180 O195 2.162 . S
Mn180 O196 2.297 . S
Mn180 O204 2.385 . S
Mn180 O205 2.209 . S
Mn180 O206 2.094 . S
Mn181 O186 2.121 . S
Mn181 N188 2.257 1_655 S
Mn181 N197 2.282 . S
Mn181 O205 2.215 . S
Mn181 O207 2.117 . S
C182 O204 1.234 . S
C182 O205 1.283 . S
C183 O195 1.281 . S
C183 O196 1.236 . S
C184 O206 1.240 . S
C184 O207 1.264 . S
O185 Mn180 2.095 . S
O185 C194 1.250 . S
O186 Mn181 2.121 . S
O186 C194 1.258 . S
C187 N188 1.326 . S
C187 C191 1.460 . S
C187 H193 0.929 . S
N188 Mn181 2.257 1_455 S
N188 C187 1.326 . S
N188 C192 1.362 . S
C189 C190 1.258 . S
C189 C192 1.431 . S
C189 C209 1.449 . S
C190 C189 1.258 . S
C190 C191 1.477 . S
C190 H210 0.931 . S
C191 C187 1.460 . S
C191 C190 1.477 . S
C191 H211 0.930 . S
C192 N188 1.362 . S
C192 C189 1.431 . S
C192 C202 1.476 1_455 S
H193 C187 0.929 . S
C194 O185 1.250 . S
C194 O186 1.258 . S
O195 Mn180 2.162 . S
O195 C183 1.281 . S
O196 Mn180 2.297 . S
O196 C183 1.236 . S
N197 Mn181 2.282 . S
N197 C198 1.328 . S
N197 C202 1.318 . S
C198 N197 1.328 . S
C198 C199 1.457 . S
C198 H203 0.929 . S
C199 C198 1.457 . S
C199 C200 1.291 . S
C199 H212 0.931 . S
C200 C199 1.291 . S
C200 C201 1.373 . S
C200 H213 0.929 . S
C201 C200 1.373 . S
C201 C202 1.396 . S
C201 C208 1.403 1_655 S
C202 C192 1.476 1_655 S
C202 N197 1.318 . S
C202 C201 1.396 . S
H203 C198 0.929 . S
O204 Mn180 2.385 . S
O204 C182 1.234 . S
O205 Mn180 2.209 . S
O205 Mn181 2.215 . S
O205 C182 1.283 . S
O206 Mn180 2.094 . S
O206 C184 1.240 . S
O207 Mn181 2.117 . S
O207 C184 1.264 . S
C208 C201 1.403 1_455 S
C208 C209 1.399 . S
C208 H214 0.929 . S
C209 C189 1.449 . S
C209 C208 1.399 . S
C209 H215 0.930 . S
H210 C190 0.931 . S
H211 C191 0.930 . S
H212 C199 0.931 . S
H213 C200 0.929 . S
H214 C208 0.929 . S
H215 C209 0.930 . S
Mn216 O221 2.095 . S
Mn216 O231 2.162 1_554 S
Mn216 O232 2.297 1_554 S
Mn216 O240 2.385 . S
Mn216 O241 2.209 . S
Mn216 O242 2.079 1_655 S
Mn217 O222 2.121 . S
Mn217 N224 2.257 . S
Mn217 N233 2.282 . S
Mn217 O241 2.215 . S
Mn217 O243 2.117 . S
C218 O240 1.234 . S
C218 O241 1.283 . S
C219 O231 1.281 . S
C219 O232 1.236 . S
C220 O242 1.238 1_655 S
C220 O243 1.264 . S
O221 Mn216 2.095 . S
O221 C230 1.250 . S
O222 Mn217 2.121 . S
O222 C230 1.258 . S
C223 N224 1.326 . S
C223 C227 1.460 . S
C223 H229 0.929 . S
N224 Mn217 2.257 . S
N224 C223 1.326 . S
N224 C228 1.362 . S
C225 C226 1.258 . S
C225 C228 1.431 . S
C225 C245 1.449 . S
C226 C225 1.258 . S
C226 C227 1.477 . S
C226 H246 0.931 . S
C227 C223 1.460 . S
C227 C226 1.477 . S
C227 H247 0.930 . S
C228 N224 1.362 . S
C228 C225 1.431 . S
C228 C238 1.476 . S
H229 C223 0.929 . S
C230 O221 1.250 . S
C230 O222 1.258 . S
O231 Mn216 2.162 1_556 S
O231 C219 1.281 . S
O232 Mn216 2.297 1_556 S
O232 C219 1.236 . S
N233 Mn217 2.282 . S
N233 C234 1.328 . S
N233 C238 1.318 . S
C234 N233 1.328 . S
C234 C235 1.457 . S
C234 H239 0.929 . S
C235 C234 1.457 . S
C235 C236 1.291 . S
C235 H248 0.931 . S
C236 C235 1.291 . S
C236 C237 1.373 . S
C236 H249 0.929 . S
C237 C236 1.373 . S
C237 C238 1.396 . S
C237 C244 1.403 . S
C238 C228 1.476 . S
C238 N233 1.318 . S
C238 C237 1.396 . S
H239 C234 0.929 . S
O240 Mn216 2.385 . S
O240 C218 1.234 . S
O241 Mn216 2.209 . S
O241 Mn217 2.215 . S
O241 C218 1.283 . S
O242 Mn216 2.079 1_455 S
O242 C220 1.238 1_455 S
O243 Mn217 2.117 . S
O243 C220 1.264 . S
C244 C237 1.403 . S
C244 C245 1.399 . S
C244 H250 0.929 . S
C245 C225 1.449 . S
C245 C244 1.399 . S
C245 H251 0.930 . S
H246 C226 0.931 . S
H247 C227 0.930 . S
H248 C235 0.931 . S
H249 C236 0.929 . S
H250 C244 0.929 . S
H251 C245 0.930 . S
Mn252 O257 2.095 . S
Mn252 O267 2.162 1_554 S
Mn252 O268 2.297 1_554 S
Mn252 O276 2.385 . S
Mn252 O277 2.209 . S
Mn252 O278 2.094 . S
Mn253 O258 2.121 . S
Mn253 N260 2.257 1_655 S
Mn253 N269 2.282 . S
Mn253 O277 2.215 . S
Mn253 O279 2.117 . S
C254 O276 1.234 . S
C254 O277 1.283 . S
C255 O267 1.281 . S
C255 O268 1.236 . S
C256 O278 1.240 . S
C256 O279 1.264 . S
O257 Mn252 2.095 . S
O257 C266 1.250 . S
O258 Mn253 2.121 . S
O258 C266 1.258 . S
C259 N260 1.326 . S
C259 C263 1.460 . S
C259 H265 0.929 . S
N260 Mn253 2.257 1_455 S
N260 C259 1.326 . S
N260 C264 1.362 . S
C261 C262 1.258 . S
C261 C264 1.431 . S
C261 C281 1.449 . S
C262 C261 1.258 . S
C262 C263 1.477 . S
C262 H282 0.931 . S
C263 C259 1.460 . S
C263 C262 1.477 . S
C263 H283 0.930 . S
C264 N260 1.362 . S
C264 C261 1.431 . S
C264 C274 1.476 1_455 S
H265 C259 0.929 . S
C266 O257 1.250 . S
C266 O258 1.258 . S
O267 Mn252 2.162 1_556 S
O267 C255 1.281 . S
O268 Mn252 2.297 1_556 S
O268 C255 1.236 . S
N269 Mn253 2.282 . S
N269 C270 1.328 . S
N269 C274 1.318 . S
C270 N269 1.328 . S
C270 C271 1.457 . S
C270 H275 0.929 . S
C271 C270 1.457 . S
C271 C272 1.291 . S
C271 H284 0.931 . S
C272 C271 1.291 . S
C272 C273 1.373 . S
C272 H285 0.929 . S
C273 C272 1.373 . S
C273 C274 1.396 . S
C273 C280 1.403 1_655 S
C274 C264 1.476 1_655 S
C274 N269 1.318 . S
C274 C273 1.396 . S
H275 C270 0.929 . S
O276 Mn252 2.385 . S
O276 C254 1.234 . S
O277 Mn252 2.209 . S
O277 Mn253 2.215 . S
O277 C254 1.283 . S
O278 Mn252 2.094 . S
O278 C256 1.240 . S
O279 Mn253 2.117 . S
O279 C256 1.264 . S
C280 C273 1.403 1_455 S
C280 C281 1.399 . S
C280 H286 0.929 . S
C281 C261 1.449 . S
C281 C280 1.399 . S
C281 H287 0.930 . S
H282 C262 0.931 . S
H283 C263 0.930 . S
H284 C271 0.931 . S
H285 C272 0.929 . S
H286 C280 0.929 . S
H287 C281 0.930 . S
Mn288 O293 2.095 . S
Mn288 O303 2.162 . S
Mn288 O304 2.297 . S
Mn288 O312 2.385 . S
Mn288 O313 2.209 . S
Mn288 O314 2.094 . S
Mn289 O294 2.121 . S
Mn289 N296 2.257 . S
Mn289 N305 2.282 . S
Mn289 O313 2.215 1_655 S
Mn289 O315 2.117 1_655 S
C290 O312 1.234 . S
C290 O313 1.283 . S
C291 O303 1.281 . S
C291 O304 1.236 . S
C292 O314 1.240 . S
C292 O315 1.264 . S
O293 Mn288 2.095 . S
O293 C302 1.250 1_455 S
O294 Mn289 2.121 . S
O294 C302 1.258 . S
C295 N296 1.326 . S
C295 C299 1.460 . S
C295 H301 0.929 . S
N296 Mn289 2.257 . S
N296 C295 1.326 . S
N296 C300 1.362 . S
C297 C298 1.258 . S
C297 C300 1.431 . S
C297 C317 1.449 . S
C298 C297 1.258 . S
C298 C299 1.477 . S
C298 H318 0.931 . S
C299 C295 1.460 . S
C299 C298 1.477 . S
C299 H319 0.930 . S
C300 N296 1.362 . S
C300 C297 1.431 . S
C300 C310 1.476 . S
H301 C295 0.929 . S
C302 O293 1.250 1_655 S
C302 O294 1.258 . S
O303 Mn288 2.162 . S
O303 C291 1.281 . S
O304 Mn288 2.297 . S
O304 C291 1.236 . S
N305 Mn289 2.282 . S
N305 C306 1.328 1_655 S
N305 C310 1.318 . S
C306 N305 1.328 1_455 S
C306 C307 1.457 . S
C306 H311 0.929 . S
C307 C306 1.457 . S
C307 C308 1.291 1_455 S
C307 H320 0.931 . S
C308 C307 1.291 1_655 S
C308 C309 1.373 . S
C308 H321 0.930 1_655 S
C309 C308 1.373 . S
C309 C310 1.396 . S
C309 C316 1.403 . S
C310 C300 1.476 . S
C310 N305 1.318 . S
C310 C309 1.396 . S
H311 C306 0.929 . S
O312 Mn288 2.385 . S
O312 C290 1.234 . S
O313 Mn288 2.209 . S
O313 Mn289 2.215 1_455 S
O313 C290 1.283 . S
O314 Mn288 2.094 . S
O314 C292 1.240 . S
O315 Mn289 2.117 1_455 S
O315 C292 1.264 . S
C316 C309 1.403 . S
C316 C317 1.399 . S
C316 H322 0.929 . S
C317 C297 1.449 . S
C317 C316 1.399 . S
C317 H323 0.930 . S
H318 C298 0.931 . S
H319 C299 0.930 . S
H320 C307 0.931 . S
H321 C308 0.930 1_455 S
H322 C316 0.929 . S
H323 C317 0.930 . S
Mn324 O329 2.095 . S
Mn324 O339 2.162 . S
Mn324 O340 2.297 . S
Mn324 O348 2.385 . S
Mn324 O349 2.209 . S
Mn324 O350 2.094 . S
Mn325 O330 2.121 . S
Mn325 N332 2.257 . S
Mn325 N341 2.282 . S
Mn325 O349 2.215 . S
Mn325 O351 2.117 . S
C326 O348 1.234 . S
C326 O349 1.283 . S
C327 O339 1.281 . S
C327 O340 1.236 . S
C328 O350 1.240 . S
C328 O351 1.264 . S
O329 Mn324 2.095 . S
O329 C338 1.250 . S
O330 Mn325 2.121 . S
O330 C338 1.258 . S
C331 N332 1.326 . S
C331 C335 1.460 . S
C331 H337 0.929 . S
N332 Mn325 2.257 . S
N332 C331 1.326 . S
N332 C336 1.362 . S
C333 C334 1.258 . S
C333 C336 1.431 . S
C333 C353 1.449 . S
C334 C333 1.258 . S
C334 C335 1.477 . S
C334 H354 0.931 . S
C335 C331 1.460 . S
C335 C334 1.477 . S
C335 H355 0.930 . S
C336 N332 1.362 . S
C336 C333 1.431 . S
C336 C346 1.476 . S
H337 C331 0.929 . S
C338 O329 1.250 . S
C338 O330 1.258 . S
O339 Mn324 2.162 . S
O339 C327 1.281 . S
O340 Mn324 2.297 . S
O340 C327 1.236 . S
N341 Mn325 2.282 . S
N341 C342 1.328 . S
N341 C346 1.318 . S
C342 N341 1.328 . S
C342 C343 1.457 . S
C342 H347 0.929 . S
C343 C342 1.457 . S
C343 C344 1.291 . S
C343 H356 0.931 . S
C344 C343 1.291 . S
C344 C345 1.373 . S
C344 H357 0.929 . S
C345 C344 1.373 . S
C345 C346 1.396 . S
C345 C352 1.403 . S
C346 C336 1.476 . S
C346 N341 1.318 . S
C346 C345 1.396 . S
H347 C342 0.929 . S
O348 Mn324 2.385 . S
O348 C326 1.234 . S
O349 Mn324 2.209 . S
O349 Mn325 2.215 . S
O349 C326 1.283 . S
O350 Mn324 2.094 . S
O350 C328 1.240 . S
O351 Mn325 2.117 . S
O351 C328 1.264 . S
C352 C345 1.403 . S
C352 C353 1.399 . S
C352 H358 0.929 . S
C353 C333 1.449 . S
C353 C352 1.399 . S
C353 H359 0.930 . S
H354 C334 0.931 . S
H355 C335 0.930 . S
H356 C343 0.931 . S
H357 C344 0.929 . S
H358 C352 0.929 . S
H359 C353 0.930 . S
Mn360 O365 2.095 . S
Mn360 O375 2.162 . S
Mn360 O376 2.297 . S
Mn360 O384 2.385 . S
Mn360 O385 2.209 . S
Mn360 O386 2.094 . S
Mn361 O366 2.121 . S
Mn361 N368 2.257 . S
Mn361 N377 2.282 . S
Mn361 O385 2.215 1_655 S
Mn361 O387 2.117 1_655 S
C362 O384 1.234 . S
C362 O385 1.283 . S
C363 O375 1.281 . S
C363 O376 1.236 . S
C364 O386 1.240 . S
C364 O387 1.264 . S
O365 Mn360 2.095 . S
O365 C374 1.250 1_455 S
O366 Mn361 2.121 . S
O366 C374 1.258 . S
C367 N368 1.326 . S
C367 C371 1.460 . S
C367 H373 0.929 . S
N368 Mn361 2.257 . S
N368 C367 1.326 . S
N368 C372 1.362 . S
C369 C370 1.258 . S
C369 C372 1.431 . S
C369 C389 1.449 . S
C370 C369 1.258 . S
C370 C371 1.477 . S
C370 H390 0.931 . S
C371 C367 1.460 . S
C371 C370 1.477 . S
C371 H391 0.930 . S
C372 N368 1.362 . S
C372 C369 1.431 . S
C372 C382 1.476 . S
H373 C367 0.929 . S
C374 O365 1.250 1_655 S
C374 O366 1.258 . S
O375 Mn360 2.162 . S
O375 C363 1.281 . S
O376 Mn360 2.297 . S
O376 C363 1.236 . S
N377 Mn361 2.282 . S
N377 C378 1.328 1_655 S
N377 C382 1.318 . S
C378 N377 1.328 1_455 S
C378 C379 1.457 . S
C378 H383 0.929 . S
C379 C378 1.457 . S
C379 C380 1.291 1_455 S
C379 H392 0.931 . S
C380 C379 1.291 1_655 S
C380 C381 1.373 . S
C380 H393 0.930 . S
C381 C380 1.373 . S
C381 C382 1.396 . S
C381 C388 1.403 . S
C382 C372 1.476 . S
C382 N377 1.318 . S
C382 C381 1.396 . S
H383 C378 0.929 . S
O384 Mn360 2.385 . S
O384 C362 1.234 . S
O385 Mn360 2.209 . S
O385 Mn361 2.215 1_455 S
O385 C362 1.283 . S
O386 Mn360 2.094 . S
O386 C364 1.240 . S
O387 Mn361 2.117 1_455 S
O387 C364 1.264 . S
C388 C381 1.403 . S
C388 C389 1.399 . S
C388 H394 0.929 . S
C389 C369 1.449 . S
C389 C388 1.399 . S
C389 H395 0.930 . S
H390 C370 0.931 . S
H391 C371 0.930 . S
H392 C379 0.931 . S
H393 C380 0.930 . S
H394 C388 0.929 . S
H395 C389 0.930 . S
Mn396 O401 2.095 . S
Mn396 O411 2.162 . S
Mn396 O412 2.297 . S
Mn396 O420 2.385 . S
Mn396 O421 2.209 . S
Mn396 O422 2.094 . S
Mn397 O402 2.121 . S
Mn397 N404 2.257 . S
Mn397 N413 2.282 . S
Mn397 O421 2.215 . S
Mn397 O423 2.117 . S
C398 O420 1.234 . S
C398 O421 1.283 . S
C399 O411 1.281 . S
C399 O412 1.236 . S
C400 O422 1.240 . S
C400 O423 1.264 . S
O401 Mn396 2.095 . S
O401 C410 1.250 . S
O402 Mn397 2.121 . S
O402 C410 1.258 . S
C403 N404 1.326 . S
C403 C407 1.460 . S
C403 H409 0.929 . S
N404 Mn397 2.257 . S
N404 C403 1.326 . S
N404 C408 1.362 . S
C405 C406 1.258 . S
C405 C408 1.431 . S
C405 C425 1.449 . S
C406 C405 1.258 . S
C406 C407 1.477 . S
C406 H426 0.931 . S
C407 C403 1.460 . S
C407 C406 1.477 . S
C407 H427 0.930 . S
C408 N404 1.362 . S
C408 C405 1.431 . S
C408 C418 1.476 . S
H409 C403 0.929 . S
C410 O401 1.250 . S
C410 O402 1.258 . S
O411 Mn396 2.162 . S
O411 C399 1.281 . S
O412 Mn396 2.297 . S
O412 C399 1.236 . S
N413 Mn397 2.282 . S
N413 C414 1.328 . S
N413 C418 1.318 . S
C414 N413 1.328 . S
C414 C415 1.457 . S
C414 H419 0.929 . S
C415 C414 1.457 . S
C415 C416 1.291 . S
C415 H428 0.931 . S
C416 C415 1.291 . S
C416 C417 1.373 . S
C416 H429 0.929 . S
C417 C416 1.373 . S
C417 C418 1.396 . S
C417 C424 1.403 . S
C418 C408 1.476 . S
C418 N413 1.318 . S
C418 C417 1.396 . S
H419 C414 0.929 . S
O420 Mn396 2.385 . S
O420 C398 1.234 . S
O421 Mn396 2.209 . S
O421 Mn397 2.215 . S
O421 C398 1.283 . S
O422 Mn396 2.094 . S
O422 C400 1.240 . S
O423 Mn397 2.117 . S
O423 C400 1.264 . S
C424 C417 1.403 . S
C424 C425 1.399 . S
C424 H430 0.929 . S
C425 C405 1.449 . S
C425 C424 1.399 . S
C425 H431 0.930 . S
H426 C406 0.931 . S
H427 C407 0.930 . S
H428 C415 0.931 . S
H429 C416 0.929 . S
H430 C424 0.929 . S
H431 C425 0.930 . S
Mn432 O437 2.095 . S
Mn432 O447 2.162 . S
Mn432 O448 2.297 . S
Mn432 O456 2.385 . S
Mn432 O457 2.209 . S
Mn432 O458 2.094 1_655 S
Mn433 O438 2.121 . S
Mn433 N440 2.257 . S
Mn433 N449 2.282 . S
Mn433 O457 2.215 . S
Mn433 O459 2.117 . S
C434 O456 1.234 . S
C434 O457 1.283 . S
C435 O447 1.281 . S
C435 O448 1.236 . S
C436 O458 1.240 1_655 S
C436 O459 1.264 . S
O437 Mn432 2.095 . S
O437 C446 1.250 . S
O438 Mn433 2.121 . S
O438 C446 1.258 . S
C439 N440 1.326 . S
C439 C443 1.460 . S
C439 H445 0.929 . S
N440 Mn433 2.257 . S
N440 C439 1.326 . S
N440 C444 1.362 . S
C441 C442 1.258 . S
C441 C444 1.431 . S
C441 C461 1.449 . S
C442 C441 1.258 . S
C442 C443 1.477 . S
C442 H462 0.931 . S
C443 C439 1.460 . S
C443 C442 1.477 . S
C443 H463 0.930 . S
C444 N440 1.362 . S
C444 C441 1.431 . S
C444 C454 1.476 . S
H445 C439 0.929 . S
C446 O437 1.250 . S
C446 O438 1.258 . S
O447 Mn432 2.162 . S
O447 C435 1.281 . S
O448 Mn432 2.297 . S
O448 C435 1.236 . S
N449 Mn433 2.282 . S
N449 C450 1.328 . S
N449 C454 1.318 . S
C450 N449 1.328 . S
C450 C451 1.457 . S
C450 H455 0.929 . S
C451 C450 1.457 . S
C451 C452 1.291 . S
C451 H464 0.931 . S
C452 C451 1.291 . S
C452 C453 1.373 . S
C452 H465 0.929 . S
C453 C452 1.373 . S
C453 C454 1.396 . S
C453 C460 1.403 . S
C454 C444 1.476 . S
C454 N449 1.318 . S
C454 C453 1.396 . S
H455 C450 0.929 . S
O456 Mn432 2.385 . S
O456 C434 1.234 . S
O457 Mn432 2.209 . S
O457 Mn433 2.215 . S
O457 C434 1.283 . S
O458 Mn432 2.094 1_455 S
O458 C436 1.240 1_455 S
O459 Mn433 2.117 . S
O459 C436 1.264 . S
C460 C453 1.403 . S
C460 C461 1.399 . S
C460 H466 0.929 . S
C461 C441 1.449 . S
C461 C460 1.399 . S
C461 H467 0.930 . S
H462 C442 0.931 . S
H463 C443 0.930 . S
H464 C451 0.931 . S
H465 C452 0.929 . S
H466 C460 0.929 . S
H467 C461 0.930 . S
Mn468 O473 2.095 . S
Mn468 O483 2.162 . S
Mn468 O484 2.297 . S
Mn468 O492 2.385 . S
Mn468 O493 2.209 . S
Mn468 O494 2.094 . S
Mn469 O474 2.121 . S
Mn469 N476 2.257 1_655 S
Mn469 N485 2.282 . S
Mn469 O493 2.215 . S
Mn469 O495 2.117 . S
C470 O492 1.234 . S
C470 O493 1.283 . S
C471 O483 1.281 . S
C471 O484 1.236 . S
C472 O494 1.240 . S
C472 O495 1.264 . S
O473 Mn468 2.095 . S
O473 C482 1.250 . S
O474 Mn469 2.121 . S
O474 C482 1.258 . S
C475 N476 1.326 . S
C475 C479 1.460 . S
C475 H481 0.929 . S
N476 Mn469 2.257 1_455 S
N476 C475 1.326 . S
N476 C480 1.362 . S
C477 C478 1.258 . S
C477 C480 1.431 . S
C477 C497 1.449 . S
C478 C477 1.258 . S
C478 C479 1.477 . S
C478 H498 0.931 . S
C479 C475 1.460 . S
C479 C478 1.477 . S
C479 H499 0.930 . S
C480 N476 1.362 . S
C480 C477 1.431 . S
C480 C490 1.476 1_455 S
H481 C475 0.929 . S
C482 O473 1.250 . S
C482 O474 1.258 . S
O483 Mn468 2.162 . S
O483 C471 1.281 . S
O484 Mn468 2.297 . S
O484 C471 1.236 . S
N485 Mn469 2.282 . S
N485 C486 1.328 . S
N485 C490 1.318 . S
C486 N485 1.328 . S
C486 C487 1.457 . S
C486 H491 0.929 . S
C487 C486 1.457 . S
C487 C488 1.291 . S
C487 H500 0.931 . S
C488 C487 1.291 . S
C488 C489 1.373 . S
C488 H501 0.929 . S
C489 C488 1.373 . S
C489 C490 1.396 . S
C489 C496 1.403 1_655 S
C490 C480 1.476 1_655 S
C490 N485 1.318 . S
C490 C489 1.396 . S
H491 C486 0.929 . S
O492 Mn468 2.385 . S
O492 C470 1.234 . S
O493 Mn468 2.209 . S
O493 Mn469 2.215 . S
O493 C470 1.283 . S
O494 Mn468 2.094 . S
O494 C472 1.240 . S
O495 Mn469 2.117 . S
O495 C472 1.264 . S
C496 C489 1.403 1_455 S
C496 C497 1.399 . S
C496 H502 0.929 . S
C497 C477 1.449 . S
C497 C496 1.399 . S
C497 H503 0.930 . S
H498 C478 0.931 . S
H499 C479 0.930 . S
H500 C487 0.931 . S
H501 C488 0.929 . S
H502 C496 0.929 . S
H503 C497 0.930 . S
Mn504 O509 2.095 . S
Mn504 O519 2.162 . S
Mn504 O520 2.297 . S
Mn504 O528 2.385 . S
Mn504 O529 2.209 . S
Mn504 O530 2.094 1_655 S
Mn505 O510 2.121 . S
Mn505 N512 2.257 . S
Mn505 N521 2.282 . S
Mn505 O529 2.215 . S
Mn505 O531 2.117 . S
C506 O528 1.234 . S
C506 O529 1.283 . S
C507 O519 1.281 . S
C507 O520 1.236 . S
C508 O530 1.240 1_655 S
C508 O531 1.264 . S
O509 Mn504 2.095 . S
O509 C518 1.250 . S
O510 Mn505 2.121 . S
O510 C518 1.258 . S
C511 N512 1.326 . S
C511 C515 1.460 . S
C511 H517 0.929 . S
N512 Mn505 2.257 . S
N512 C511 1.326 . S
N512 C516 1.362 . S
C513 C514 1.258 . S
C513 C516 1.431 . S
C513 C533 1.449 . S
C514 C513 1.258 . S
C514 C515 1.477 . S
C514 H534 0.931 . S
C515 C511 1.460 . S
C515 C514 1.477 . S
C515 H535 0.930 . S
C516 N512 1.362 . S
C516 C513 1.431 . S
C516 C526 1.476 . S
H517 C511 0.929 . S
C518 O509 1.250 . S
C518 O510 1.258 . S
O519 Mn504 2.162 . S
O519 C507 1.281 . S
O520 Mn504 2.297 . S
O520 C507 1.236 . S
N521 Mn505 2.282 . S
N521 C522 1.328 . S
N521 C526 1.318 . S
C522 N521 1.328 . S
C522 C523 1.457 . S
C522 H527 0.929 . S
C523 C522 1.457 . S
C523 C524 1.291 . S
C523 H536 0.931 . S
C524 C523 1.291 . S
C524 C525 1.373 . S
C524 H537 0.929 . S
C525 C524 1.373 . S
C525 C526 1.396 . S
C525 C532 1.403 . S
C526 C516 1.476 . S
C526 N521 1.318 . S
C526 C525 1.396 . S
H527 C522 0.929 . S
O528 Mn504 2.385 . S
O528 C506 1.234 . S
O529 Mn504 2.209 . S
O529 Mn505 2.215 . S
O529 C506 1.283 . S
O530 Mn504 2.094 1_455 S
O530 C508 1.240 1_455 S
O531 Mn505 2.117 . S
O531 C508 1.264 . S
C532 C525 1.403 . S
C532 C533 1.399 . S
C532 H538 0.929 . S
C533 C513 1.449 . S
C533 C532 1.399 . S
C533 H539 0.930 . S
H534 C514 0.931 . S
H535 C515 0.930 . S
H536 C523 0.931 . S
H537 C524 0.929 . S
H538 C532 0.929 . S
H539 C533 0.930 . S
Mn540 O545 2.095 . S
Mn540 O555 2.162 . S
Mn540 O556 2.297 . S
Mn540 O564 2.385 . S
Mn540 O565 2.209 . S
Mn540 O566 2.094 . S
Mn541 O546 2.121 . S
Mn541 N548 2.257 1_655 S
Mn541 N557 2.282 . S
Mn541 O565 2.215 . S
Mn541 O567 2.117 . S
C542 O564 1.234 . S
C542 O565 1.283 . S
C543 O555 1.281 . S
C543 O556 1.236 . S
C544 O566 1.240 . S
C544 O567 1.264 . S
O545 Mn540 2.095 . S
O545 C554 1.250 . S
O546 Mn541 2.121 . S
O546 C554 1.258 . S
C547 N548 1.326 . S
C547 C551 1.460 . S
C547 H553 0.929 . S
N548 Mn541 2.257 1_455 S
N548 C547 1.326 . S
N548 C552 1.362 . S
C549 C550 1.258 . S
C549 C552 1.431 . S
C549 C569 1.449 . S
C550 C549 1.258 . S
C550 C551 1.477 . S
C550 H570 0.931 . S
C551 C547 1.460 . S
C551 C550 1.477 . S
C551 H571 0.930 . S
C552 N548 1.362 . S
C552 C549 1.431 . S
C552 C562 1.476 1_455 S
H553 C547 0.929 . S
C554 O545 1.250 . S
C554 O546 1.258 . S
O555 Mn540 2.162 . S
O555 C543 1.281 . S
O556 Mn540 2.297 . S
O556 C543 1.236 . S
N557 Mn541 2.282 . S
N557 C558 1.328 . S
N557 C562 1.318 . S
C558 N557 1.328 . S
C558 C559 1.457 . S
C558 H563 0.929 . S
C559 C558 1.457 . S
C559 C560 1.291 . S
C559 H572 0.931 . S
C560 C559 1.291 . S
C560 C561 1.373 . S
C560 H573 0.929 . S
C561 C560 1.373 . S
C561 C562 1.396 . S
C561 C568 1.403 1_655 S
C562 C552 1.476 1_655 S
C562 N557 1.318 . S
C562 C561 1.396 . S
H563 C558 0.929 . S
O564 Mn540 2.385 . S
O564 C542 1.234 . S
O565 Mn540 2.209 . S
O565 Mn541 2.215 . S
O565 C542 1.283 . S
O566 Mn540 2.094 . S
O566 C544 1.240 . S
O567 Mn541 2.117 . S
O567 C544 1.264 . S
C568 C561 1.403 1_455 S
C568 C569 1.399 . S
C568 H574 0.929 . S
C569 C549 1.449 . S
C569 C568 1.399 . S
C569 H575 0.930 . S
H570 C550 0.931 . S
H571 C551 0.930 . S
H572 C559 0.931 . S
H573 C560 0.929 . S
H574 C568 0.929 . S
H575 C569 0.930 . S
Mn576 O581 2.095 . S
Mn576 O591 2.162 . S
Mn576 O592 2.297 . S
Mn576 O600 2.385 . S
Mn576 O601 2.209 . S
Mn576 O602 2.094 . S
Mn577 O582 2.121 . S
Mn577 N584 2.257 . S
Mn577 N593 2.282 . S
Mn577 O601 2.215 . S
Mn577 O603 2.117 . S
C578 O600 1.234 . S
C578 O601 1.283 . S
C579 O591 1.281 . S
C579 O592 1.236 . S
C580 O602 1.240 . S
C580 O603 1.264 . S
O581 Mn576 2.095 . S
O581 C590 1.250 . S
O582 Mn577 2.121 . S
O582 C590 1.258 . S
C583 N584 1.326 . S
C583 C587 1.460 . S
C583 H589 0.929 . S
N584 Mn577 2.257 . S
N584 C583 1.326 . S
N584 C588 1.362 . S
C585 C586 1.258 . S
C585 C588 1.431 . S
C585 C605 1.449 . S
C586 C585 1.258 . S
C586 C587 1.477 . S
C586 H606 0.931 . S
C587 C583 1.460 . S
C587 C586 1.477 . S
C587 H607 0.930 . S
C588 N584 1.362 . S
C588 C585 1.431 . S
C588 C598 1.476 . S
H589 C583 0.929 . S
C590 O581 1.250 . S
C590 O582 1.258 . S
O591 Mn576 2.162 . S
O591 C579 1.281 . S
O592 Mn576 2.297 . S
O592 C579 1.236 . S
N593 Mn577 2.282 . S
N593 C594 1.328 . S
N593 C598 1.318 . S
C594 N593 1.328 . S
C594 C595 1.457 . S
C594 H599 0.929 . S
C595 C594 1.457 . S
C595 C596 1.291 . S
C595 H608 0.931 . S
C596 C595 1.291 . S
C596 C597 1.373 . S
C596 H609 0.929 . S
C597 C596 1.373 . S
C597 C598 1.396 . S
C597 C604 1.403 . S
C598 C588 1.476 . S
C598 N593 1.318 . S
C598 C597 1.396 . S
H599 C594 0.929 . S
O600 Mn576 2.385 . S
O600 C578 1.234 . S
O601 Mn576 2.209 . S
O601 Mn577 2.215 . S
O601 C578 1.283 . S
O602 Mn576 2.094 . S
O602 C580 1.240 . S
O603 Mn577 2.117 . S
O603 C580 1.264 . S
C604 C597 1.403 . S
C604 C605 1.399 . S
C604 H610 0.929 . S
C605 C585 1.449 . S
C605 C604 1.399 . S
C605 H611 0.930 . S
H606 C586 0.931 . S
H607 C587 0.930 . S
H608 C595 0.931 . S
H609 C596 0.929 . S
H610 C604 0.929 . S
H611 C605 0.930 . S
Mn612 O617 2.095 . S
Mn612 O627 2.162 . S
Mn612 O628 2.297 . S
Mn612 O636 2.385 . S
Mn612 O637 2.209 . S
Mn612 O638 2.094 . S
Mn613 O618 2.121 . S
Mn613 N620 2.257 . S
Mn613 N629 2.282 . S
Mn613 O637 2.215 . S
Mn613 O639 2.117 . S
C614 O636 1.234 . S
C614 O637 1.283 . S
C615 O627 1.281 . S
C615 O628 1.236 . S
C616 O638 1.240 . S
C616 O639 1.264 . S
O617 Mn612 2.095 . S
O617 C626 1.250 . S
O618 Mn613 2.121 . S
O618 C626 1.258 . S
C619 N620 1.326 . S
C619 C623 1.460 . S
C619 H625 0.929 . S
N620 Mn613 2.257 . S
N620 C619 1.326 . S
N620 C624 1.362 . S
C621 C622 1.258 . S
C621 C624 1.431 . S
C621 C641 1.449 . S
C622 C621 1.258 . S
C622 C623 1.477 . S
C622 H642 0.931 . S
C623 C619 1.460 . S
C623 C622 1.477 . S
C623 H643 0.930 . S
C624 N620 1.362 . S
C624 C621 1.431 . S
C624 C634 1.476 . S
H625 C619 0.929 . S
C626 O617 1.250 . S
C626 O618 1.258 . S
O627 Mn612 2.162 . S
O627 C615 1.281 . S
O628 Mn612 2.297 . S
O628 C615 1.236 . S
N629 Mn613 2.282 . S
N629 C630 1.328 . S
N629 C634 1.318 . S
C630 N629 1.328 . S
C630 C631 1.457 . S
C630 H635 0.929 . S
C631 C630 1.457 . S
C631 C632 1.291 . S
C631 H644 0.931 . S
C632 C631 1.291 . S
C632 C633 1.373 . S
C632 H645 0.929 . S
C633 C632 1.373 . S
C633 C634 1.396 . S
C633 C640 1.403 . S
C634 C624 1.476 . S
C634 N629 1.318 . S
C634 C633 1.396 . S
H635 C630 0.929 . S
O636 Mn612 2.385 . S
O636 C614 1.234 . S
O637 Mn612 2.209 . S
O637 Mn613 2.215 . S
O637 C614 1.283 . S
O638 Mn612 2.094 . S
O638 C616 1.240 . S
O639 Mn613 2.117 . S
O639 C616 1.264 . S
C640 C633 1.403 . S
C640 C641 1.399 . S
C640 H646 0.929 . S
C641 C621 1.449 . S
C641 C640 1.399 . S
C641 H647 0.930 . S
H642 C622 0.931 . S
H643 C623 0.930 . S
H644 C631 0.931 . S
H645 C632 0.929 . S
H646 C640 0.929 . S
H647 C641 0.930 . S
Mn648 O653 2.095 . S
Mn648 O663 2.162 . S
Mn648 O664 2.297 . S
Mn648 O672 2.385 . S
Mn648 O673 2.209 . S
Mn648 O674 2.094 . S
Mn649 O654 2.121 . S
Mn649 N656 2.257 . S
Mn649 N665 2.282 . S
Mn649 O673 2.215 . S
Mn649 O675 2.117 . S
C650 O672 1.234 . S
C650 O673 1.283 . S
C651 O663 1.281 . S
C651 O664 1.236 . S
C652 O674 1.240 . S
C652 O675 1.264 . S
O653 Mn648 2.095 . S
O653 C662 1.250 . S
O654 Mn649 2.121 . S
O654 C662 1.258 . S
C655 N656 1.326 . S
C655 C659 1.460 . S
C655 H661 0.929 . S
N656 Mn649 2.257 . S
N656 C655 1.326 . S
N656 C660 1.362 . S
C657 C658 1.258 . S
C657 C660 1.431 . S
C657 C677 1.449 . S
C658 C657 1.258 . S
C658 C659 1.477 . S
C658 H678 0.931 . S
C659 C655 1.460 . S
C659 C658 1.477 . S
C659 H679 0.930 . S
C660 N656 1.362 . S
C660 C657 1.431 . S
C660 C670 1.476 . S
H661 C655 0.929 . S
C662 O653 1.250 . S
C662 O654 1.258 . S
O663 Mn648 2.162 . S
O663 C651 1.281 . S
O664 Mn648 2.297 . S
O664 C651 1.236 . S
N665 Mn649 2.282 . S
N665 C666 1.328 . S
N665 C670 1.318 . S
C666 N665 1.328 . S
C666 C667 1.457 . S
C666 H671 0.929 . S
C667 C666 1.457 . S
C667 C668 1.291 . S
C667 H680 0.931 . S
C668 C667 1.291 . S
C668 C669 1.373 . S
C668 H681 0.929 . S
C669 C668 1.373 . S
C669 C670 1.396 . S
C669 C676 1.403 . S
C670 C660 1.476 . S
C670 N665 1.318 . S
C670 C669 1.396 . S
H671 C666 0.929 . S
O672 Mn648 2.385 . S
O672 C650 1.234 . S
O673 Mn648 2.209 . S
O673 Mn649 2.215 . S
O673 C650 1.283 . S
O674 Mn648 2.094 . S
O674 C652 1.240 . S
O675 Mn649 2.117 . S
O675 C652 1.264 . S
C676 C669 1.403 . S
C676 C677 1.399 . S
C676 H682 0.929 . S
C677 C657 1.449 . S
C677 C676 1.399 . S
C677 H683 0.930 . S
H678 C658 0.931 . S
H679 C659 0.930 . S
H680 C667 0.931 . S
H681 C668 0.929 . S
H682 C676 0.929 . S
H683 C677 0.930 . S
Mn684 O689 2.095 . S
Mn684 O699 2.162 . S
Mn684 O700 2.297 . S
Mn684 O708 2.385 . S
Mn684 O709 2.209 . S
Mn684 O710 2.094 . S
Mn685 O690 2.121 . S
Mn685 N692 2.257 . S
Mn685 N701 2.282 . S
Mn685 O709 2.215 . S
Mn685 O711 2.117 . S
C686 O708 1.234 . S
C686 O709 1.283 . S
C687 O699 1.281 . S
C687 O700 1.236 . S
C688 O710 1.240 . S
C688 O711 1.264 . S
O689 Mn684 2.095 . S
O689 C698 1.250 . S
O690 Mn685 2.121 . S
O690 C698 1.258 . S
C691 N692 1.326 . S
C691 C695 1.460 . S
C691 H697 0.929 . S
N692 Mn685 2.257 . S
N692 C691 1.326 . S
N692 C696 1.362 . S
C693 C694 1.258 . S
C693 C696 1.431 . S
C693 C713 1.449 . S
C694 C693 1.258 . S
C694 C695 1.477 . S
C694 H714 0.931 . S
C695 C691 1.460 . S
C695 C694 1.477 . S
C695 H715 0.930 . S
C696 N692 1.362 . S
C696 C693 1.431 . S
C696 C706 1.476 . S
H697 C691 0.929 . S
C698 O689 1.250 . S
C698 O690 1.258 . S
O699 Mn684 2.162 . S
O699 C687 1.281 . S
O700 Mn684 2.297 . S
O700 C687 1.236 . S
N701 Mn685 2.282 . S
N701 C702 1.328 . S
N701 C706 1.318 . S
C702 N701 1.328 . S
C702 C703 1.457 . S
C702 H707 0.929 . S
C703 C702 1.457 . S
C703 C704 1.291 . S
C703 H716 0.931 . S
C704 C703 1.291 . S
C704 C705 1.373 . S
C704 H717 0.929 . S
C705 C704 1.373 . S
C705 C706 1.396 . S
C705 C712 1.403 . S
C706 C696 1.476 . S
C706 N701 1.318 . S
C706 C705 1.396 . S
H707 C702 0.929 . S
O708 Mn684 2.385 . S
O708 C686 1.234 . S
O709 Mn684 2.209 . S
O709 Mn685 2.215 . S
O709 C686 1.283 . S
O710 Mn684 2.094 . S
O710 C688 1.240 . S
O711 Mn685 2.117 . S
O711 C688 1.264 . S
C712 C705 1.403 . S
C712 C713 1.399 . S
C712 H718 0.929 . S
C713 C693 1.449 . S
C713 C712 1.399 . S
C713 H719 0.930 . S
H714 C694 0.931 . S
H715 C695 0.930 . S
H716 C703 0.931 . S
H717 C704 0.929 . S
H718 C712 0.929 . S
H719 C713 0.930 . S
Mn720 O725 2.095 . S
Mn720 O735 2.162 . S
Mn720 O736 2.297 . S
Mn720 O744 2.385 . S
Mn720 O745 2.209 . S
Mn720 O746 2.094 . S
Mn721 O726 2.121 . S
Mn721 N728 2.257 . S
Mn721 N737 2.282 . S
Mn721 O745 2.215 . S
Mn721 O747 2.117 . S
C722 O744 1.234 . S
C722 O745 1.283 . S
C723 O735 1.281 . S
C723 O736 1.236 . S
C724 O746 1.240 . S
C724 O747 1.264 . S
O725 Mn720 2.095 . S
O725 C734 1.250 . S
O726 Mn721 2.121 . S
O726 C734 1.258 . S
C727 N728 1.326 . S
C727 C731 1.460 . S
C727 H733 0.929 . S
N728 Mn721 2.257 . S
N728 C727 1.326 . S
N728 C732 1.362 . S
C729 C730 1.258 . S
C729 C732 1.431 . S
C729 C749 1.449 . S
C730 C729 1.258 . S
C730 C731 1.477 . S
C730 H750 0.931 . S
C731 C727 1.460 . S
C731 C730 1.477 . S
C731 H751 0.930 . S
C732 N728 1.362 . S
C732 C729 1.431 . S
C732 C742 1.476 . S
H733 C727 0.929 . S
C734 O725 1.250 . S
C734 O726 1.258 . S
O735 Mn720 2.162 . S
O735 C723 1.281 . S
O736 Mn720 2.297 . S
O736 C723 1.236 . S
N737 Mn721 2.282 . S
N737 C738 1.328 . S
N737 C742 1.318 . S
C738 N737 1.328 . S
C738 C739 1.457 . S
C738 H743 0.929 . S
C739 C738 1.457 . S
C739 C740 1.291 . S
C739 H752 0.931 . S
C740 C739 1.291 . S
C740 C741 1.373 . S
C740 H753 0.929 . S
C741 C740 1.373 . S
C741 C742 1.396 . S
C741 C748 1.403 . S
C742 C732 1.476 . S
C742 N737 1.318 . S
C742 C741 1.396 . S
H743 C738 0.929 . S
O744 Mn720 2.385 . S
O744 C722 1.234 . S
O745 Mn720 2.209 . S
O745 Mn721 2.215 . S
O745 C722 1.283 . S
O746 Mn720 2.094 . S
O746 C724 1.240 . S
O747 Mn721 2.117 . S
O747 C724 1.264 . S
C748 C741 1.403 . S
C748 C749 1.399 . S
C748 H754 0.929 . S
C749 C729 1.449 . S
C749 C748 1.399 . S
C749 H755 0.930 . S
H750 C730 0.931 . S
H751 C731 0.930 . S
H752 C739 0.931 . S
H753 C740 0.929 . S
H754 C748 0.929 . S
H755 C749 0.930 . S
Mn756 O761 2.095 . S
Mn756 O771 2.162 . S
Mn756 O772 2.297 . S
Mn756 O780 2.385 . S
Mn756 O781 2.209 . S
Mn756 O782 2.094 . S
Mn757 O762 2.121 . S
Mn757 N764 2.257 . S
Mn757 N773 2.282 . S
Mn757 O781 2.215 . S
Mn757 O783 2.117 . S
C758 O780 1.234 . S
C758 O781 1.283 . S
C759 O771 1.281 . S
C759 O772 1.236 . S
C760 O782 1.240 . S
C760 O783 1.264 . S
O761 Mn756 2.095 . S
O761 C770 1.250 . S
O762 Mn757 2.121 . S
O762 C770 1.258 . S
C763 N764 1.326 . S
C763 C767 1.460 . S
C763 H769 0.929 . S
N764 Mn757 2.257 . S
N764 C763 1.326 . S
N764 C768 1.362 . S
C765 C766 1.258 . S
C765 C768 1.431 . S
C765 C785 1.449 . S
C766 C765 1.258 . S
C766 C767 1.477 . S
C766 H786 0.931 . S
C767 C763 1.460 . S
C767 C766 1.477 . S
C767 H787 0.930 . S
C768 N764 1.362 . S
C768 C765 1.431 . S
C768 C778 1.476 . S
H769 C763 0.929 . S
C770 O761 1.250 . S
C770 O762 1.258 . S
O771 Mn756 2.162 . S
O771 C759 1.281 . S
O772 Mn756 2.297 . S
O772 C759 1.236 . S
N773 Mn757 2.282 . S
N773 C774 1.328 . S
N773 C778 1.318 . S
C774 N773 1.328 . S
C774 C775 1.457 . S
C774 H779 0.929 . S
C775 C774 1.457 . S
C775 C776 1.291 . S
C775 H788 0.931 . S
C776 C775 1.291 . S
C776 C777 1.373 . S
C776 H789 0.929 . S
C777 C776 1.373 . S
C777 C778 1.396 . S
C777 C784 1.403 . S
C778 C768 1.476 . S
C778 N773 1.318 . S
C778 C777 1.396 . S
H779 C774 0.929 . S
O780 Mn756 2.385 . S
O780 C758 1.234 . S
O781 Mn756 2.209 . S
O781 Mn757 2.215 . S
O781 C758 1.283 . S
O782 Mn756 2.094 . S
O782 C760 1.240 . S
O783 Mn757 2.117 . S
O783 C760 1.264 . S
C784 C777 1.403 . S
C784 C785 1.399 . S
C784 H790 0.929 . S
C785 C765 1.449 . S
C785 C784 1.399 . S
C785 H791 0.930 . S
H786 C766 0.931 . S
H787 C767 0.930 . S
H788 C775 0.931 . S
H789 C776 0.929 . S
H790 C784 0.929 . S
H791 C785 0.930 . S
Mn792 O797 2.095 . S
Mn792 O807 2.162 . S
Mn792 O808 2.297 . S
Mn792 O816 2.385 . S
Mn792 O817 2.209 . S
Mn792 O818 2.094 . S
Mn793 O798 2.121 . S
Mn793 N800 2.257 . S
Mn793 N809 2.282 . S
Mn793 O817 2.215 . S
Mn793 O819 2.117 . S
C794 O816 1.234 . S
C794 O817 1.283 . S
C795 O807 1.281 . S
C795 O808 1.236 . S
C796 O818 1.240 . S
C796 O819 1.264 . S
O797 Mn792 2.095 . S
O797 C806 1.250 . S
O798 Mn793 2.121 . S
O798 C806 1.258 . S
C799 N800 1.326 . S
C799 C803 1.460 . S
C799 H805 0.929 . S
N800 Mn793 2.257 . S
N800 C799 1.326 . S
N800 C804 1.362 . S
C801 C802 1.258 . S
C801 C804 1.431 . S
C801 C821 1.449 . S
C802 C801 1.258 . S
C802 C803 1.477 . S
C802 H822 0.931 . S
C803 C799 1.460 . S
C803 C802 1.477 . S
C803 H823 0.930 . S
C804 N800 1.362 . S
C804 C801 1.431 . S
C804 C814 1.476 . S
H805 C799 0.929 . S
C806 O797 1.250 . S
C806 O798 1.258 . S
O807 Mn792 2.162 . S
O807 C795 1.281 . S
O808 Mn792 2.297 . S
O808 C795 1.236 . S
N809 Mn793 2.282 . S
N809 C810 1.328 . S
N809 C814 1.318 . S
C810 N809 1.328 . S
C810 C811 1.457 . S
C810 H815 0.929 . S
C811 C810 1.457 . S
C811 C812 1.291 . S
C811 H824 0.931 . S
C812 C811 1.291 . S
C812 C813 1.373 . S
C812 H825 0.929 . S
C813 C812 1.373 . S
C813 C814 1.396 . S
C813 C820 1.403 . S
C814 C804 1.476 . S
C814 N809 1.318 . S
C814 C813 1.396 . S
H815 C810 0.929 . S
O816 Mn792 2.385 . S
O816 C794 1.234 . S
O817 Mn792 2.209 . S
O817 Mn793 2.215 . S
O817 C794 1.283 . S
O818 Mn792 2.094 . S
O818 C796 1.240 . S
O819 Mn793 2.117 . S
O819 C796 1.264 . S
C820 C813 1.403 . S
C820 C821 1.399 . S
C820 H826 0.929 . S
C821 C801 1.449 . S
C821 C820 1.399 . S
C821 H827 0.930 . S
H822 C802 0.931 . S
H823 C803 0.930 . S
H824 C811 0.931 . S
H825 C812 0.929 . S
H826 C820 0.929 . S
H827 C821 0.930 . S
Mn828 O833 2.095 . S
Mn828 O843 2.162 . S
Mn828 O844 2.297 . S
Mn828 O852 2.385 . S
Mn828 O853 2.209 . S
Mn828 O854 2.094 . S
Mn829 O834 2.121 . S
Mn829 N836 2.257 . S
Mn829 N845 2.282 . S
Mn829 O853 2.215 . S
Mn829 O855 2.117 . S
C830 O852 1.234 . S
C830 O853 1.283 . S
C831 O843 1.281 . S
C831 O844 1.236 . S
C832 O854 1.240 . S
C832 O855 1.264 . S
O833 Mn828 2.095 . S
O833 C842 1.250 . S
O834 Mn829 2.121 . S
O834 C842 1.258 . S
C835 N836 1.326 . S
C835 C839 1.460 . S
C835 H841 0.929 . S
N836 Mn829 2.257 . S
N836 C835 1.326 . S
N836 C840 1.362 . S
C837 C838 1.258 . S
C837 C840 1.431 . S
C837 C857 1.449 . S
C838 C837 1.258 . S
C838 C839 1.477 . S
C838 H858 0.931 . S
C839 C835 1.460 . S
C839 C838 1.477 . S
C839 H859 0.930 . S
C840 N836 1.362 . S
C840 C837 1.431 . S
C840 C850 1.476 . S
H841 C835 0.929 . S
C842 O833 1.250 . S
C842 O834 1.258 . S
O843 Mn828 2.162 . S
O843 C831 1.281 . S
O844 Mn828 2.297 . S
O844 C831 1.236 . S
N845 Mn829 2.282 . S
N845 C846 1.328 . S
N845 C850 1.318 . S
C846 N845 1.328 . S
C846 C847 1.457 . S
C846 H851 0.929 . S
C847 C846 1.457 . S
C847 C848 1.291 . S
C847 H860 0.931 . S
C848 C847 1.291 . S
C848 C849 1.373 . S
C848 H861 0.929 . S
C849 C848 1.373 . S
C849 C850 1.396 . S
C849 C856 1.403 . S
C850 C840 1.476 . S
C850 N845 1.318 . S
C850 C849 1.396 . S
H851 C846 0.929 . S
O852 Mn828 2.385 . S
O852 C830 1.234 . S
O853 Mn828 2.209 . S
O853 Mn829 2.215 . S
O853 C830 1.283 . S
O854 Mn828 2.094 . S
O854 C832 1.240 . S
O855 Mn829 2.117 . S
O855 C832 1.264 . S
C856 C849 1.403 . S
C856 C857 1.399 . S
C856 H862 0.929 . S
C857 C837 1.449 . S
C857 C856 1.399 . S
C857 H863 0.930 . S
H858 C838 0.931 . S
H859 C839 0.930 . S
H860 C847 0.931 . S
H861 C848 0.929 . S
H862 C856 0.929 . S
H863 C857 0.930 . S
Mn864 O869 2.095 . S
Mn864 O879 2.162 . S
Mn864 O880 2.297 . S
Mn864 O888 2.385 . S
Mn864 O889 2.209 . S
Mn864 O890 2.094 . S
Mn865 O870 2.121 . S
Mn865 N872 2.257 . S
Mn865 N881 2.282 . S
Mn865 O889 2.215 . S
Mn865 O891 2.117 . S
C866 O888 1.234 . S
C866 O889 1.283 . S
C867 O879 1.281 . S
C867 O880 1.236 . S
C868 O890 1.240 . S
C868 O891 1.264 . S
O869 Mn864 2.095 . S
O869 C878 1.250 . S
O870 Mn865 2.121 . S
O870 C878 1.258 . S
C871 N872 1.326 . S
C871 C875 1.460 . S
C871 H877 0.929 . S
N872 Mn865 2.257 . S
N872 C871 1.326 . S
N872 C876 1.362 . S
C873 C874 1.258 . S
C873 C876 1.431 . S
C873 C893 1.449 . S
C874 C873 1.258 . S
C874 C875 1.477 . S
C874 H894 0.931 . S
C875 C871 1.460 . S
C875 C874 1.477 . S
C875 H895 0.930 . S
C876 N872 1.362 . S
C876 C873 1.431 . S
C876 C886 1.476 . S
H877 C871 0.929 . S
C878 O869 1.250 . S
C878 O870 1.258 . S
O879 Mn864 2.162 . S
O879 C867 1.281 . S
O880 Mn864 2.297 . S
O880 C867 1.236 . S
N881 Mn865 2.282 . S
N881 C882 1.328 . S
N881 C886 1.318 . S
C882 N881 1.328 . S
C882 C883 1.457 . S
C882 H887 0.929 . S
C883 C882 1.457 . S
C883 C884 1.291 . S
C883 H896 0.931 . S
C884 C883 1.291 . S
C884 C885 1.373 . S
C884 H897 0.929 . S
C885 C884 1.373 . S
C885 C886 1.396 . S
C885 C892 1.403 . S
C886 C876 1.476 . S
C886 N881 1.318 . S
C886 C885 1.396 . S
H887 C882 0.929 . S
O888 Mn864 2.385 . S
O888 C866 1.234 . S
O889 Mn864 2.209 . S
O889 Mn865 2.215 . S
O889 C866 1.283 . S
O890 Mn864 2.094 . S
O890 C868 1.240 . S
O891 Mn865 2.117 . S
O891 C868 1.264 . S
C892 C885 1.403 . S
C892 C893 1.399 . S
C892 H898 0.929 . S
C893 C873 1.449 . S
C893 C892 1.399 . S
C893 H899 0.930 . S
H894 C874 0.931 . S
H895 C875 0.930 . S
H896 C883 0.931 . S
H897 C884 0.929 . S
H898 C892 0.929 . S
H899 C893 0.930 . S
Mn900 O905 2.095 . S
Mn900 O915 2.162 . S
Mn900 O916 2.297 . S
Mn900 O924 2.385 . S
Mn900 O925 2.209 . S
Mn900 O926 2.094 . S
Mn901 O906 2.121 . S
Mn901 N908 2.257 . S
Mn901 N917 2.282 . S
Mn901 O925 2.215 . S
Mn901 O927 2.117 . S
C902 O924 1.234 . S
C902 O925 1.283 . S
C903 O915 1.281 . S
C903 O916 1.236 . S
C904 O926 1.240 . S
C904 O927 1.264 . S
O905 Mn900 2.095 . S
O905 C914 1.250 . S
O906 Mn901 2.121 . S
O906 C914 1.258 . S
C907 N908 1.326 . S
C907 C911 1.460 . S
C907 H913 0.929 . S
N908 Mn901 2.257 . S
N908 C907 1.326 . S
N908 C912 1.362 . S
C909 C910 1.258 . S
C909 C912 1.431 . S
C909 C929 1.449 . S
C910 C909 1.258 . S
C910 C911 1.477 . S
C910 H930 0.931 . S
C911 C907 1.460 . S
C911 C910 1.477 . S
C911 H931 0.930 . S
C912 N908 1.362 . S
C912 C909 1.431 . S
C912 C922 1.476 . S
H913 C907 0.929 . S
C914 O905 1.250 . S
C914 O906 1.258 . S
O915 Mn900 2.162 . S
O915 C903 1.281 . S
O916 Mn900 2.297 . S
O916 C903 1.236 . S
N917 Mn901 2.282 . S
N917 C918 1.328 . S
N917 C922 1.318 . S
C918 N917 1.328 . S
C918 C919 1.457 . S
C918 H923 0.929 . S
C919 C918 1.457 . S
C919 C920 1.291 . S
C919 H932 0.931 . S
C920 C919 1.291 . S
C920 C921 1.373 . S
C920 H933 0.929 . S
C921 C920 1.373 . S
C921 C922 1.396 . S
C921 C928 1.403 . S
C922 C912 1.476 . S
C922 N917 1.318 . S
C922 C921 1.396 . S
H923 C918 0.929 . S
O924 Mn900 2.385 . S
O924 C902 1.234 . S
O925 Mn900 2.209 . S
O925 Mn901 2.215 . S
O925 C902 1.283 . S
O926 Mn900 2.094 . S
O926 C904 1.240 . S
O927 Mn901 2.117 . S
O927 C904 1.264 . S
C928 C921 1.403 . S
C928 C929 1.399 . S
C928 H934 0.929 . S
C929 C909 1.449 . S
C929 C928 1.399 . S
C929 H935 0.930 . S
H930 C910 0.931 . S
H931 C911 0.930 . S
H932 C919 0.931 . S
H933 C920 0.929 . S
H934 C928 0.929 . S
H935 C929 0.930 . S
Mn936 O941 2.095 . S
Mn936 O951 2.162 . S
Mn936 O952 2.297 . S
Mn936 O960 2.385 1_556 S
Mn936 O961 2.209 1_556 S
Mn936 O962 2.094 . S
Mn937 O942 2.121 1_554 S
Mn937 N944 2.257 . S
Mn937 N953 2.282 . S
Mn937 O961 2.215 . S
Mn937 O963 2.117 . S
C938 O960 1.234 . S
C938 O961 1.283 . S
C939 O951 1.281 . S
C939 O952 1.236 . S
C940 O962 1.240 . S
C940 O963 1.264 1_556 S
O941 Mn936 2.095 . S
O941 C950 1.250 . S
O942 Mn937 2.121 1_556 S
O942 C950 1.258 . S
C943 N944 1.326 . S
C943 C947 1.460 . S
C943 H949 0.929 . S
N944 Mn937 2.257 . S
N944 C943 1.326 . S
N944 C948 1.362 . S
C945 C946 1.258 . S
C945 C948 1.431 . S
C945 C965 1.449 . S
C946 C945 1.258 . S
C946 C947 1.477 . S
C946 H966 0.931 . S
C947 C943 1.460 . S
C947 C946 1.477 . S
C947 H967 0.930 . S
C948 N944 1.362 . S
C948 C945 1.431 . S
C948 C958 1.476 . S
H949 C943 0.929 . S
C950 O941 1.250 . S
C950 O942 1.258 . S
O951 Mn936 2.162 . S
O951 C939 1.281 . S
O952 Mn936 2.297 . S
O952 C939 1.236 . S
N953 Mn937 2.282 . S
N953 C954 1.328 . S
N953 C958 1.318 . S
C954 N953 1.328 . S
C954 C955 1.457 . S
C954 H959 0.929 . S
C955 C954 1.457 . S
C955 C956 1.291 . S
C955 H968 0.931 . S
C956 C955 1.291 . S
C956 C957 1.373 . S
C956 H969 0.929 . S
C957 C956 1.373 . S
C957 C958 1.396 . S
C957 C964 1.403 . S
C958 C948 1.476 . S
C958 N953 1.318 . S
C958 C957 1.396 . S
H959 C954 0.929 . S
O960 Mn936 2.385 1_554 S
O960 C938 1.234 . S
O961 Mn936 2.209 1_554 S
O961 Mn937 2.215 . S
O961 C938 1.283 . S
O962 Mn936 2.094 . S
O962 C940 1.240 . S
O963 Mn937 2.117 . S
O963 C940 1.264 1_554 S
C964 C957 1.403 . S
C964 C965 1.399 . S
C964 H970 0.929 . S
C965 C945 1.449 . S
C965 C964 1.399 . S
C965 H971 0.930 . S
H966 C946 0.931 . S
H967 C947 0.930 . S
H968 C955 0.931 . S
H969 C956 0.929 . S
H970 C964 0.929 . S
H971 C965 0.930 . S
Mn972 O977 2.095 . S
Mn972 O987 2.162 . S
Mn972 O988 2.297 . S
Mn972 O996 2.385 1_556 S
Mn972 O997 2.209 1_556 S
Mn972 O998 2.094 . S
Mn973 O978 2.121 1_554 S
Mn973 N980 2.257 . S
Mn973 N989 2.282 . S
Mn973 O997 2.215 . S
Mn973 O999 2.117 . S
C974 O996 1.234 . S
C974 O997 1.283 . S
C975 O987 1.281 . S
C975 O988 1.236 . S
C976 O998 1.240 . S
C976 O999 1.264 1_556 S
O977 Mn972 2.095 . S
O977 C986 1.250 . S
O978 Mn973 2.121 1_556 S
O978 C986 1.258 . S
C979 N980 1.326 . S
C979 C983 1.460 . S
C979 H985 0.929 . S
N980 Mn973 2.257 . S
N980 C979 1.326 . S
N980 C984 1.362 . S
C981 C982 1.258 . S
C981 C984 1.431 . S
C981 C1001 1.449 . S
C982 C981 1.258 . S
C982 C983 1.477 . S
C982 H1002 0.931 . S
C983 C979 1.460 . S
C983 C982 1.477 . S
C983 H1003 0.930 . S
C984 N980 1.362 . S
C984 C981 1.431 . S
C984 C994 1.476 . S
H985 C979 0.929 . S
C986 O977 1.250 . S
C986 O978 1.258 . S
O987 Mn972 2.162 . S
O987 C975 1.281 . S
O988 Mn972 2.297 . S
O988 C975 1.236 . S
N989 Mn973 2.282 . S
N989 C990 1.328 . S
N989 C994 1.318 . S
C990 N989 1.328 . S
C990 C991 1.457 . S
C990 H995 0.929 . S
C991 C990 1.457 . S
C991 C992 1.291 . S
C991 H1004 0.931 . S
C992 C991 1.291 . S
C992 C993 1.373 . S
C992 H1005 0.929 . S
C993 C992 1.373 . S
C993 C994 1.396 . S
C993 C1000 1.403 . S
C994 C984 1.476 . S
C994 N989 1.318 . S
C994 C993 1.396 . S
H995 C990 0.929 . S
O996 Mn972 2.385 1_554 S
O996 C974 1.234 . S
O997 Mn972 2.209 1_554 S
O997 Mn973 2.215 . S
O997 C974 1.283 . S
O998 Mn972 2.094 . S
O998 C976 1.240 . S
O999 Mn973 2.117 . S
O999 C976 1.264 1_554 S
C1000 C993 1.403 . S
C1000 C1001 1.399 . S
C1000 H1006 0.929 . S
C1001 C981 1.449 . S
C1001 C1000 1.399 . S
C1001 H1007 0.930 . S
H1002 C982 0.931 . S
H1003 C983 0.930 . S
H1004 C991 0.931 . S
H1005 C992 0.929 . S
H1006 C1000 0.929 . S
H1007 C1001 0.930 . S
Mn1008 O1013 2.095 . S
Mn1008 O1023 2.162 . S
Mn1008 O1024 2.297 . S
Mn1008 O1032 2.385 . S
Mn1008 O1033 2.209 . S
Mn1008 O1034 2.094 . S
Mn1009 O1014 2.121 . S
Mn1009 N1016 2.257 . S
Mn1009 N1025 2.282 . S
Mn1009 O1033 2.215 . S
Mn1009 O1035 2.117 . S
C1010 O1032 1.234 . S
C1010 O1033 1.283 . S
C1011 O1023 1.281 . S
C1011 O1024 1.236 . S
C1012 O1034 1.240 . S
C1012 O1035 1.264 . S
O1013 Mn1008 2.095 . S
O1013 C1022 1.250 . S
O1014 Mn1009 2.121 . S
O1014 C1022 1.258 . S
C1015 N1016 1.326 . S
C1015 C1019 1.460 . S
C1015 H1021 0.929 . S
N1016 Mn1009 2.257 . S
N1016 C1015 1.326 . S
N1016 C1020 1.362 . S
C1017 C1018 1.258 . S
C1017 C1020 1.431 . S
C1017 C1037 1.449 . S
C1018 C1017 1.258 . S
C1018 C1019 1.477 . S
C1018 H1038 0.931 . S
C1019 C1015 1.460 . S
C1019 C1018 1.477 . S
C1019 H1039 0.930 . S
C1020 N1016 1.362 . S
C1020 C1017 1.431 . S
C1020 C1030 1.476 . S
H1021 C1015 0.929 . S
C1022 O1013 1.250 . S
C1022 O1014 1.258 . S
O1023 Mn1008 2.162 . S
O1023 C1011 1.281 . S
O1024 Mn1008 2.297 . S
O1024 C1011 1.236 . S
N1025 Mn1009 2.282 . S
N1025 C1026 1.328 . S
N1025 C1030 1.318 . S
C1026 N1025 1.328 . S
C1026 C1027 1.457 . S
C1026 H1031 0.929 . S
C1027 C1026 1.457 . S
C1027 C1028 1.291 . S
C1027 H1040 0.931 . S
C1028 C1027 1.291 . S
C1028 C1029 1.373 . S
C1028 H1041 0.929 . S
C1029 C1028 1.373 . S
C1029 C1030 1.396 . S
C1029 C1036 1.403 . S
C1030 C1020 1.476 . S
C1030 N1025 1.318 . S
C1030 C1029 1.396 . S
H1031 C1026 0.929 . S
O1032 Mn1008 2.385 . S
O1032 C1010 1.234 . S
O1033 Mn1008 2.209 . S
O1033 Mn1009 2.215 . S
O1033 C1010 1.283 . S
O1034 Mn1008 2.094 . S
O1034 C1012 1.240 . S
O1035 Mn1009 2.117 . S
O1035 C1012 1.264 . S
C1036 C1029 1.403 . S
C1036 C1037 1.399 . S
C1036 H1042 0.929 . S
C1037 C1017 1.449 . S
C1037 C1036 1.399 . S
C1037 H1043 0.930 . S
H1038 C1018 0.931 . S
H1039 C1019 0.930 . S
H1040 C1027 0.931 . S
H1041 C1028 0.929 . S
H1042 C1036 0.929 . S
H1043 C1037 0.930 . S
Mn1044 O1049 2.095 . S
Mn1044 O1059 2.162 . S
Mn1044 O1060 2.297 . S
Mn1044 O1068 2.385 . S
Mn1044 O1069 2.209 . S
Mn1044 O1070 2.094 . S
Mn1045 O1050 2.121 . S
Mn1045 N1052 2.257 . S
Mn1045 N1061 2.282 . S
Mn1045 O1069 2.215 . S
Mn1045 O1071 2.117 . S
C1046 O1068 1.234 . S
C1046 O1069 1.283 . S
C1047 O1059 1.281 . S
C1047 O1060 1.236 . S
C1048 O1070 1.240 . S
C1048 O1071 1.264 . S
O1049 Mn1044 2.095 . S
O1049 C1058 1.250 . S
O1050 Mn1045 2.121 . S
O1050 C1058 1.258 . S
C1051 N1052 1.326 . S
C1051 C1055 1.460 . S
C1051 H1057 0.929 . S
N1052 Mn1045 2.257 . S
N1052 C1051 1.326 . S
N1052 C1056 1.362 . S
C1053 C1054 1.258 . S
C1053 C1056 1.431 . S
C1053 C1073 1.449 . S
C1054 C1053 1.258 . S
C1054 C1055 1.477 . S
C1054 H1074 0.931 . S
C1055 C1051 1.460 . S
C1055 C1054 1.477 . S
C1055 H1075 0.930 . S
C1056 N1052 1.362 . S
C1056 C1053 1.431 . S
C1056 C1066 1.476 . S
H1057 C1051 0.929 . S
C1058 O1049 1.250 . S
C1058 O1050 1.258 . S
O1059 Mn1044 2.162 . S
O1059 C1047 1.281 . S
O1060 Mn1044 2.297 . S
O1060 C1047 1.236 . S
N1061 Mn1045 2.282 . S
N1061 C1062 1.328 . S
N1061 C1066 1.318 . S
C1062 N1061 1.328 . S
C1062 C1063 1.457 . S
C1062 H1067 0.929 . S
C1063 C1062 1.457 . S
C1063 C1064 1.291 . S
C1063 H1076 0.931 . S
C1064 C1063 1.291 . S
C1064 C1065 1.373 . S
C1064 H1077 0.929 . S
C1065 C1064 1.373 . S
C1065 C1066 1.396 . S
C1065 C1072 1.403 . S
C1066 C1056 1.476 . S
C1066 N1061 1.318 . S
C1066 C1065 1.396 . S
H1067 C1062 0.929 . S
O1068 Mn1044 2.385 . S
O1068 C1046 1.234 . S
O1069 Mn1044 2.209 . S
O1069 Mn1045 2.215 . S
O1069 C1046 1.283 . S
O1070 Mn1044 2.094 . S
O1070 C1048 1.240 . S
O1071 Mn1045 2.117 . S
O1071 C1048 1.264 . S
C1072 C1065 1.403 . S
C1072 C1073 1.399 . S
C1072 H1078 0.929 . S
C1073 C1053 1.449 . S
C1073 C1072 1.399 . S
C1073 H1079 0.930 . S
H1074 C1054 0.931 . S
H1075 C1055 0.930 . S
H1076 C1063 0.931 . S
H1077 C1064 0.929 . S
H1078 C1072 0.929 . S
H1079 C1073 0.930 . S
Mn1080 O1085 2.095 . S
Mn1080 O1095 2.162 1_554 S
Mn1080 O1096 2.297 1_554 S
Mn1080 O1104 2.385 . S
Mn1080 O1105 2.209 . S
Mn1080 O1106 2.094 . S
Mn1081 O1086 2.121 . S
Mn1081 N1088 2.257 . S
Mn1081 N1097 2.282 . S
Mn1081 O1105 2.215 . S
Mn1081 O1107 2.117 . S
C1082 O1104 1.234 . S
C1082 O1105 1.283 . S
C1083 O1095 1.281 . S
C1083 O1096 1.236 . S
C1084 O1106 1.240 . S
C1084 O1107 1.264 . S
O1085 Mn1080 2.095 . S
O1085 C1094 1.250 . S
O1086 Mn1081 2.121 . S
O1086 C1094 1.258 . S
C1087 N1088 1.326 . S
C1087 C1091 1.460 . S
C1087 H1093 0.929 . S
N1088 Mn1081 2.257 . S
N1088 C1087 1.326 . S
N1088 C1092 1.362 . S
C1089 C1090 1.258 . S
C1089 C1092 1.431 . S
C1089 C1109 1.449 . S
C1090 C1089 1.258 . S
C1090 C1091 1.477 . S
C1090 H1110 0.931 . S
C1091 C1087 1.460 . S
C1091 C1090 1.477 . S
C1091 H1111 0.930 . S
C1092 N1088 1.362 . S
C1092 C1089 1.431 . S
C1092 C1102 1.476 . S
H1093 C1087 0.929 . S
C1094 O1085 1.250 . S
C1094 O1086 1.258 . S
O1095 Mn1080 2.162 1_556 S
O1095 C1083 1.281 . S
O1096 Mn1080 2.297 1_556 S
O1096 C1083 1.236 . S
N1097 Mn1081 2.282 . S
N1097 C1098 1.328 . S
N1097 C1102 1.318 . S
C1098 N1097 1.328 . S
C1098 C1099 1.457 . S
C1098 H1103 0.929 . S
C1099 C1098 1.457 . S
C1099 C1100 1.291 . S
C1099 H1112 0.931 . S
C1100 C1099 1.291 . S
C1100 C1101 1.373 . S
C1100 H1113 0.929 . S
C1101 C1100 1.373 . S
C1101 C1102 1.396 . S
C1101 C1108 1.403 . S
C1102 C1092 1.476 . S
C1102 N1097 1.318 . S
C1102 C1101 1.396 . S
H1103 C1098 0.929 . S
O1104 Mn1080 2.385 . S
O1104 C1082 1.234 . S
O1105 Mn1080 2.209 . S
O1105 Mn1081 2.215 . S
O1105 C1082 1.283 . S
O1106 Mn1080 2.094 . S
O1106 C1084 1.240 . S
O1107 Mn1081 2.117 . S
O1107 C1084 1.264 . S
C1108 C1101 1.403 . S
C1108 C1109 1.399 . S
C1108 H1114 0.929 . S
C1109 C1089 1.449 . S
C1109 C1108 1.399 . S
C1109 H1115 0.930 . S
H1110 C1090 0.931 . S
H1111 C1091 0.930 . S
H1112 C1099 0.931 . S
H1113 C1100 0.929 . S
H1114 C1108 0.929 . S
H1115 C1109 0.930 . S
Mn1116 O1121 2.095 . S
Mn1116 O1131 2.162 1_554 S
Mn1116 O1132 2.297 1_554 S
Mn1116 O1140 2.385 . S
Mn1116 O1141 2.209 . S
Mn1116 O1142 2.094 . S
Mn1117 O1122 2.121 . S
Mn1117 N1124 2.257 . S
Mn1117 N1133 2.282 . S
Mn1117 O1141 2.215 . S
Mn1117 O1143 2.117 . S
C1118 O1140 1.234 . S
C1118 O1141 1.283 . S
C1119 O1131 1.281 . S
C1119 O1132 1.236 . S
C1120 O1142 1.240 . S
C1120 O1143 1.264 . S
O1121 Mn1116 2.095 . S
O1121 C1130 1.250 . S
O1122 Mn1117 2.121 . S
O1122 C1130 1.258 . S
C1123 N1124 1.326 . S
C1123 C1127 1.460 . S
C1123 H1129 0.929 . S
N1124 Mn1117 2.257 . S
N1124 C1123 1.326 . S
N1124 C1128 1.362 . S
C1125 C1126 1.258 . S
C1125 C1128 1.431 . S
C1125 C1145 1.449 . S
C1126 C1125 1.258 . S
C1126 C1127 1.477 . S
C1126 H1146 0.931 . S
C1127 C1123 1.460 . S
C1127 C1126 1.477 . S
C1127 H1147 0.930 . S
C1128 N1124 1.362 . S
C1128 C1125 1.431 . S
C1128 C1138 1.476 . S
H1129 C1123 0.929 . S
C1130 O1121 1.250 . S
C1130 O1122 1.258 . S
O1131 Mn1116 2.162 1_556 S
O1131 C1119 1.281 . S
O1132 Mn1116 2.297 1_556 S
O1132 C1119 1.236 . S
N1133 Mn1117 2.282 . S
N1133 C1134 1.328 . S
N1133 C1138 1.318 . S
C1134 N1133 1.328 . S
C1134 C1135 1.457 . S
C1134 H1139 0.929 . S
C1135 C1134 1.457 . S
C1135 C1136 1.291 . S
C1135 H1148 0.931 . S
C1136 C1135 1.291 . S
C1136 C1137 1.373 . S
C1136 H1149 0.929 . S
C1137 C1136 1.373 . S
C1137 C1138 1.396 . S
C1137 C1144 1.403 . S
C1138 C1128 1.476 . S
C1138 N1133 1.318 . S
C1138 C1137 1.396 . S
H1139 C1134 0.929 . S
O1140 Mn1116 2.385 . S
O1140 C1118 1.234 . S
O1141 Mn1116 2.209 . S
O1141 Mn1117 2.215 . S
O1141 C1118 1.283 . S
O1142 Mn1116 2.094 . S
O1142 C1120 1.240 . S
O1143 Mn1117 2.117 . S
O1143 C1120 1.264 . S
C1144 C1137 1.403 . S
C1144 C1145 1.399 . S
C1144 H1150 0.929 . S
C1145 C1125 1.449 . S
C1145 C1144 1.399 . S
C1145 H1151 0.930 . S
H1146 C1126 0.931 . S
H1147 C1127 0.930 . S
H1148 C1135 0.931 . S
H1149 C1136 0.929 . S
H1150 C1144 0.929 . S
H1151 C1145 0.930 . S
H1152 C1158 0.930 . S
H1153 C1162 0.930 . S
H1154 C1167 0.929 . S
H1155 C1165 0.929 . S
H1156 C1160 0.929 . S
H1157 C1166 0.929 . S
C1158 H1152 0.930 . S
C1158 C1159 1.367 . S
C1158 C1166 1.378 . S
C1159 C1158 1.367 . S
C1159 C1167 1.433 . S
C1160 H1156 0.929 . S
C1160 C1162 1.378 . S
C1160 C1164 1.350 . S
C1161 C1164 1.463 . S
C1161 C1166 1.350 . S
C1161 N1169 1.427 . S
C1162 H1153 0.930 . S
C1162 C1160 1.378 . S
C1162 C1163 1.367 . S
C1163 C1162 1.367 . S
C1163 C1165 1.433 . S
C1164 C1160 1.350 . S
C1164 C1161 1.463 . S
C1164 N1168 1.427 . S
C1165 H1155 0.929 . S
C1165 C1163 1.433 . S
C1165 N1168 1.384 . S
C1166 H1157 0.929 . S
C1166 C1158 1.378 . S
C1166 C1161 1.350 . S
C1167 H1154 0.929 . S
C1167 C1159 1.433 . S
C1167 N1169 1.384 . S
N1168 C1164 1.427 . S
N1168 C1165 1.384 . S
N1169 C1161 1.427 . S
N1169 C1167 1.384 . S
H1170 C1176 0.930 . S
H1171 C1180 0.930 . S
H1172 C1185 0.929 . S
H1173 C1183 0.929 . S
H1174 C1178 0.929 . S
H1175 C1184 0.929 . S
C1176 H1170 0.930 . S
C1176 C1177 1.367 . S
C1176 C1184 1.378 . S
C1177 C1176 1.367 . S
C1177 C1185 1.433 . S
C1178 H1174 0.929 . S
C1178 C1180 1.378 . S
C1178 C1182 1.350 . S
C1179 C1182 1.463 . S
C1179 C1184 1.350 . S
C1179 N1187 1.427 . S
C1180 H1171 0.930 . S
C1180 C1178 1.378 . S
C1180 C1181 1.367 . S
C1181 C1180 1.367 . S
C1181 C1183 1.433 . S
C1182 C1178 1.350 . S
C1182 C1179 1.463 . S
C1182 N1186 1.427 . S
C1183 H1173 0.929 . S
C1183 C1181 1.433 . S
C1183 N1186 1.384 . S
C1184 H1175 0.929 . S
C1184 C1176 1.378 . S
C1184 C1179 1.350 . S
C1185 H1172 0.929 . S
C1185 C1177 1.433 . S
C1185 N1187 1.384 . S
N1186 C1182 1.427 . S
N1186 C1183 1.384 . S
N1187 C1179 1.427 . S
N1187 C1185 1.384 . S
H1188 C1194 0.930 . S
H1189 C1198 0.930 . S
H1190 C1203 0.929 . S
H1191 C1201 0.929 . S
H1192 C1196 0.929 . S
H1193 C1202 0.929 . S
C1194 H1188 0.930 . S
C1194 C1195 1.367 . S
C1194 C1202 1.378 . S
C1195 C1194 1.367 . S
C1195 C1203 1.433 . S
C1196 H1192 0.929 . S
C1196 C1198 1.378 . S
C1196 C1200 1.350 . S
C1197 C1200 1.463 . S
C1197 C1202 1.350 . S
C1197 N1205 1.427 . S
C1198 H1189 0.930 . S
C1198 C1196 1.378 . S
C1198 C1199 1.367 . S
C1199 C1198 1.367 . S
C1199 C1201 1.433 . S
C1200 C1196 1.350 . S
C1200 C1197 1.463 . S
C1200 N1204 1.427 . S
C1201 H1191 0.929 . S
C1201 C1199 1.433 . S
C1201 N1204 1.384 . S
C1202 H1193 0.929 . S
C1202 C1194 1.378 . S
C1202 C1197 1.350 . S
C1203 H1190 0.929 . S
C1203 C1195 1.433 . S
C1203 N1205 1.384 . S
N1204 C1200 1.427 . S
N1204 C1201 1.384 . S
N1205 C1197 1.427 . S
N1205 C1203 1.384 . S
H1206 C1212 0.930 1_455 S
H1207 C1216 0.930 . S
H1208 C1221 0.929 . S
H1209 C1219 0.929 . S
H1210 C1214 0.929 . S
H1211 C1220 0.929 . S
C1212 H1206 0.930 1_655 S
C1212 C1213 1.367 . S
C1212 C1220 1.378 . S
C1213 C1212 1.367 . S
C1213 C1221 1.433 . S
C1214 H1210 0.929 . S
C1214 C1216 1.378 . S
C1214 C1218 1.350 . S
C1215 C1218 1.463 . S
C1215 C1220 1.350 . S
C1215 N1223 1.427 . S
C1216 H1207 0.930 . S
C1216 C1214 1.378 . S
C1216 C1217 1.367 . S
C1217 C1216 1.367 . S
C1217 C1219 1.433 . S
C1218 C1214 1.350 . S
C1218 C1215 1.463 . S
C1218 N1222 1.427 . S
C1219 H1209 0.929 . S
C1219 C1217 1.433 . S
C1219 N1222 1.384 . S
C1220 H1211 0.929 . S
C1220 C1212 1.378 . S
C1220 C1215 1.350 . S
C1221 H1208 0.929 . S
C1221 C1213 1.433 . S
C1221 N1223 1.384 . S
N1222 C1218 1.427 . S
N1222 C1219 1.384 . S
N1223 C1215 1.427 . S
N1223 C1221 1.384 . S
H1224 C1230 0.930 . S
H1225 C1234 0.930 . S
H1226 C1239 0.929 . S
H1227 C1237 0.929 . S
H1228 C1232 0.929 . S
H1229 C1238 0.929 . S
C1230 H1224 0.930 . S
C1230 C1231 1.367 . S
C1230 C1238 1.378 . S
C1231 C1230 1.367 . S
C1231 C1239 1.433 . S
C1232 H1228 0.929 . S
C1232 C1234 1.378 . S
C1232 C1236 1.350 . S
C1233 C1236 1.463 . S
C1233 C1238 1.350 . S
C1233 N1241 1.427 . S
C1234 H1225 0.930 . S
C1234 C1232 1.378 . S
C1234 C1235 1.367 . S
C1235 C1234 1.367 . S
C1235 C1237 1.433 . S
C1236 C1232 1.350 . S
C1236 C1233 1.463 . S
C1236 N1240 1.427 . S
C1237 H1227 0.929 . S
C1237 C1235 1.433 . S
C1237 N1240 1.384 . S
C1238 H1229 0.929 . S
C1238 C1230 1.378 . S
C1238 C1233 1.350 . S
C1239 H1226 0.929 . S
C1239 C1231 1.433 . S
C1239 N1241 1.384 . S
N1240 C1236 1.427 . S
N1240 C1237 1.384 . S
N1241 C1233 1.427 . S
N1241 C1239 1.384 . S
H1242 C1248 0.930 . S
H1243 C1252 0.930 . S
H1244 C1257 0.929 . S
H1245 C1255 0.929 . S
H1246 C1250 0.929 . S
H1247 C1256 0.929 . S
C1248 H1242 0.930 . S
C1248 C1249 1.367 . S
C1248 C1256 1.378 . S
C1249 C1248 1.367 . S
C1249 C1257 1.433 . S
C1250 H1246 0.929 . S
C1250 C1252 1.378 . S
C1250 C1254 1.350 . S
C1251 C1254 1.463 . S
C1251 C1256 1.350 . S
C1251 N1259 1.427 . S
C1252 H1243 0.930 . S
C1252 C1250 1.378 . S
C1252 C1253 1.367 . S
C1253 C1252 1.367 . S
C1253 C1255 1.433 . S
C1254 C1250 1.350 . S
C1254 C1251 1.463 . S
C1254 N1258 1.427 . S
C1255 H1245 0.929 . S
C1255 C1253 1.433 . S
C1255 N1258 1.384 . S
C1256 H1247 0.929 . S
C1256 C1248 1.378 . S
C1256 C1251 1.350 . S
C1257 H1244 0.929 . S
C1257 C1249 1.433 . S
C1257 N1259 1.384 . S
N1258 C1254 1.427 . S
N1258 C1255 1.384 . S
N1259 C1251 1.427 . S
N1259 C1257 1.384 . S
H1260 C1266 0.930 . S
H1261 C1270 0.930 . S
H1262 C1275 0.929 . S
H1263 C1273 0.929 . S
H1264 C1268 0.929 . S
H1265 C1274 0.929 . S
C1266 H1260 0.930 . S
C1266 C1267 1.367 . S
C1266 C1274 1.378 . S
C1267 C1266 1.367 . S
C1267 C1275 1.433 . S
C1268 H1264 0.929 . S
C1268 C1270 1.378 . S
C1268 C1272 1.350 . S
C1269 C1272 1.463 . S
C1269 C1274 1.350 . S
C1269 N1277 1.427 . S
C1270 H1261 0.930 . S
C1270 C1268 1.378 . S
C1270 C1271 1.367 . S
C1271 C1270 1.367 . S
C1271 C1273 1.433 . S
C1272 C1268 1.350 . S
C1272 C1269 1.463 . S
C1272 N1276 1.427 . S
C1273 H1263 0.929 . S
C1273 C1271 1.433 . S
C1273 N1276 1.384 . S
C1274 H1265 0.929 . S
C1274 C1266 1.378 . S
C1274 C1269 1.350 . S
C1275 H1262 0.929 . S
C1275 C1267 1.433 . S
C1275 N1277 1.384 . S
N1276 C1272 1.427 . S
N1276 C1273 1.384 . S
N1277 C1269 1.427 . S
N1277 C1275 1.384 . S
H1278 C1284 0.930 . S
H1279 C1288 0.930 . S
H1280 C1293 0.929 . S
H1281 C1291 0.929 . S
H1282 C1286 0.929 . S
H1283 C1292 0.929 . S
C1284 H1278 0.930 . S
C1284 C1285 1.367 . S
C1284 C1292 1.378 . S
C1285 C1284 1.367 . S
C1285 C1293 1.433 . S
C1286 H1282 0.929 . S
C1286 C1288 1.378 . S
C1286 C1290 1.350 . S
C1287 C1290 1.463 . S
C1287 C1292 1.350 . S
C1287 N1295 1.427 . S
C1288 H1279 0.930 . S
C1288 C1286 1.378 . S
C1288 C1289 1.367 . S
C1289 C1288 1.367 . S
C1289 C1291 1.433 . S
C1290 C1286 1.350 . S
C1290 C1287 1.463 . S
C1290 N1294 1.427 . S
C1291 H1281 0.929 . S
C1291 C1289 1.433 . S
C1291 N1294 1.384 . S
C1292 H1283 0.929 . S
C1292 C1284 1.378 . S
C1292 C1287 1.350 . S
C1293 H1280 0.929 . S
C1293 C1285 1.433 . S
C1293 N1295 1.384 . S
N1294 C1290 1.427 . S
N1294 C1291 1.384 . S
N1295 C1287 1.427 . S
N1295 C1293 1.384 . S
H1296 C1302 0.930 . S
H1297 C1306 0.930 . S
H1298 C1311 0.929 . S
H1299 C1309 0.929 . S
H1300 C1304 0.929 . S
H1301 C1310 0.929 . S
C1302 H1296 0.930 . S
C1302 C1303 1.367 . S
C1302 C1310 1.378 . S
C1303 C1302 1.367 . S
C1303 C1311 1.433 . S
C1304 H1300 0.929 . S
C1304 C1306 1.378 . S
C1304 C1308 1.350 . S
C1305 C1308 1.463 . S
C1305 C1310 1.350 . S
C1305 N1313 1.427 . S
C1306 H1297 0.930 . S
C1306 C1304 1.378 . S
C1306 C1307 1.367 . S
C1307 C1306 1.367 . S
C1307 C1309 1.433 . S
C1308 C1304 1.350 . S
C1308 C1305 1.463 . S
C1308 N1312 1.427 . S
C1309 H1299 0.929 . S
C1309 C1307 1.433 . S
C1309 N1312 1.384 . S
C1310 H1301 0.929 . S
C1310 C1302 1.378 . S
C1310 C1305 1.350 . S
C1311 H1298 0.929 . S
C1311 C1303 1.433 . S
C1311 N1313 1.384 . S
N1312 C1308 1.427 . S
N1312 C1309 1.384 . S
N1313 C1305 1.427 . S
N1313 C1311 1.384 . S
H1314 C1320 0.930 . S
H1315 C1324 0.930 . S
H1316 C1329 0.929 . S
H1317 C1327 0.929 . S
H1318 C1322 0.929 . S
H1319 C1328 0.929 . S
C1320 H1314 0.930 . S
C1320 C1321 1.367 . S
C1320 C1328 1.378 . S
C1321 C1320 1.367 . S
C1321 C1329 1.433 . S
C1322 H1318 0.929 . S
C1322 C1324 1.378 . S
C1322 C1326 1.350 . S
C1323 C1326 1.463 . S
C1323 C1328 1.350 . S
C1323 N1331 1.427 . S
C1324 H1315 0.930 . S
C1324 C1322 1.378 . S
C1324 C1325 1.367 . S
C1325 C1324 1.367 . S
C1325 C1327 1.433 . S
C1326 C1322 1.350 . S
C1326 C1323 1.463 . S
C1326 N1330 1.427 . S
C1327 H1317 0.929 . S
C1327 C1325 1.433 . S
C1327 N1330 1.384 . S
C1328 H1319 0.929 . S
C1328 C1320 1.378 . S
C1328 C1323 1.350 . S
C1329 H1316 0.929 . S
C1329 C1321 1.433 . S
C1329 N1331 1.384 . S
N1330 C1326 1.427 . S
N1330 C1327 1.384 . S
N1331 C1323 1.427 . S
N1331 C1329 1.384 . S
H1332 C1338 0.930 . S
H1333 C1342 0.930 . S
H1334 C1347 0.929 . S
H1335 C1345 0.929 . S
H1336 C1340 0.929 . S
H1337 C1346 0.929 . S
C1338 H1332 0.930 . S
C1338 C1339 1.367 . S
C1338 C1346 1.378 . S
C1339 C1338 1.367 . S
C1339 C1347 1.433 . S
C1340 H1336 0.929 . S
C1340 C1342 1.378 . S
C1340 C1344 1.350 . S
C1341 C1344 1.463 . S
C1341 C1346 1.350 . S
C1341 N1349 1.427 . S
C1342 H1333 0.930 . S
C1342 C1340 1.378 . S
C1342 C1343 1.367 . S
C1343 C1342 1.367 . S
C1343 C1345 1.433 . S
C1344 C1340 1.350 . S
C1344 C1341 1.463 . S
C1344 N1348 1.427 . S
C1345 H1335 0.929 . S
C1345 C1343 1.433 . S
C1345 N1348 1.384 . S
C1346 H1337 0.929 . S
C1346 C1338 1.378 . S
C1346 C1341 1.350 . S
C1347 H1334 0.929 . S
C1347 C1339 1.433 . S
C1347 N1349 1.384 . S
N1348 C1344 1.427 . S
N1348 C1345 1.384 . S
N1349 C1341 1.427 . S
N1349 C1347 1.384 . S
H1350 C1356 0.930 . S
H1351 C1360 0.930 . S
H1352 C1365 0.929 . S
H1353 C1363 0.929 . S
H1354 C1358 0.929 . S
H1355 C1364 0.929 . S
C1356 H1350 0.930 . S
C1356 C1357 1.367 . S
C1356 C1364 1.378 . S
C1357 C1356 1.367 . S
C1357 C1365 1.433 . S
C1358 H1354 0.929 . S
C1358 C1360 1.378 . S
C1358 C1362 1.350 . S
C1359 C1362 1.463 . S
C1359 C1364 1.350 . S
C1359 N1367 1.427 . S
C1360 H1351 0.930 . S
C1360 C1358 1.378 . S
C1360 C1361 1.367 . S
C1361 C1360 1.367 . S
C1361 C1363 1.433 . S
C1362 C1358 1.350 . S
C1362 C1359 1.463 . S
C1362 N1366 1.427 . S
C1363 H1353 0.929 . S
C1363 C1361 1.433 . S
C1363 N1366 1.384 . S
C1364 H1355 0.929 . S
C1364 C1356 1.378 . S
C1364 C1359 1.350 . S
C1365 H1352 0.929 . S
C1365 C1357 1.433 . S
C1365 N1367 1.384 . S
N1366 C1362 1.427 . S
N1366 C1363 1.384 . S
N1367 C1359 1.427 . S
N1367 C1365 1.384 . S
H1368 C1374 0.930 . S
H1369 C1378 0.930 . S
H1370 C1383 0.929 . S
H1371 C1381 0.929 . S
H1372 C1376 0.929 . S
H1373 C1382 0.929 . S
C1374 H1368 0.930 . S
C1374 C1375 1.367 . S
C1374 C1382 1.378 . S
C1375 C1374 1.367 . S
C1375 C1383 1.433 . S
C1376 H1372 0.929 . S
C1376 C1378 1.378 . S
C1376 C1380 1.350 . S
C1377 C1380 1.463 . S
C1377 C1382 1.350 . S
C1377 N1385 1.427 . S
C1378 H1369 0.930 . S
C1378 C1376 1.378 . S
C1378 C1379 1.367 . S
C1379 C1378 1.367 . S
C1379 C1381 1.433 . S
C1380 C1376 1.350 . S
C1380 C1377 1.463 . S
C1380 N1384 1.427 . S
C1381 H1371 0.929 . S
C1381 C1379 1.433 . S
C1381 N1384 1.384 . S
C1382 H1373 0.929 . S
C1382 C1374 1.378 . S
C1382 C1377 1.350 . S
C1383 H1370 0.929 . S
C1383 C1375 1.433 . S
C1383 N1385 1.384 . S
N1384 C1380 1.427 . S
N1384 C1381 1.384 . S
N1385 C1377 1.427 . S
N1385 C1383 1.384 . S
H1386 C1392 0.930 . S
H1387 C1396 0.930 . S
H1388 C1401 0.929 . S
H1389 C1399 0.929 . S
H1390 C1394 0.929 . S
H1391 C1400 0.929 . S
C1392 H1386 0.930 . S
C1392 C1393 1.367 . S
C1392 C1400 1.378 . S
C1393 C1392 1.367 . S
C1393 C1401 1.433 . S
C1394 H1390 0.929 . S
C1394 C1396 1.378 . S
C1394 C1398 1.350 . S
C1395 C1398 1.463 . S
C1395 C1400 1.350 . S
C1395 N1403 1.427 . S
C1396 H1387 0.930 . S
C1396 C1394 1.378 . S
C1396 C1397 1.367 . S
C1397 C1396 1.367 . S
C1397 C1399 1.433 . S
C1398 C1394 1.350 . S
C1398 C1395 1.463 . S
C1398 N1402 1.427 . S
C1399 H1389 0.929 . S
C1399 C1397 1.433 . S
C1399 N1402 1.384 . S
C1400 H1391 0.929 . S
C1400 C1392 1.378 . S
C1400 C1395 1.350 . S
C1401 H1388 0.929 . S
C1401 C1393 1.433 . S
C1401 N1403 1.384 . S
N1402 C1398 1.427 . S
N1402 C1399 1.384 . S
N1403 C1395 1.427 . S
N1403 C1401 1.384 . S
H1404 C1410 0.930 . S
H1405 C1414 0.930 . S
H1406 C1419 0.929 . S
H1407 C1417 0.929 . S
H1408 C1412 0.929 . S
H1409 C1418 0.929 . S
C1410 H1404 0.930 . S
C1410 C1411 1.367 . S
C1410 C1418 1.378 . S
C1411 C1410 1.367 . S
C1411 C1419 1.433 . S
C1412 H1408 0.929 . S
C1412 C1414 1.378 . S
C1412 C1416 1.350 . S
C1413 C1416 1.463 . S
C1413 C1418 1.350 . S
C1413 N1421 1.427 . S
C1414 H1405 0.930 . S
C1414 C1412 1.378 . S
C1414 C1415 1.367 . S
C1415 C1414 1.367 . S
C1415 C1417 1.433 . S
C1416 C1412 1.350 . S
C1416 C1413 1.463 . S
C1416 N1420 1.427 . S
C1417 H1407 0.929 . S
C1417 C1415 1.433 . S
C1417 N1420 1.384 . S
C1418 H1409 0.929 . S
C1418 C1410 1.378 . S
C1418 C1413 1.350 . S
C1419 H1406 0.929 . S
C1419 C1411 1.433 . S
C1419 N1421 1.384 . S
N1420 C1416 1.427 . S
N1420 C1417 1.384 . S
N1421 C1413 1.427 . S
N1421 C1419 1.384 . S
H1422 C1428 0.930 . S
H1423 C1432 0.930 . S
H1424 C1437 0.929 . S
H1425 C1435 0.929 . S
H1426 C1430 0.929 . S
H1427 C1436 0.929 . S
C1428 H1422 0.930 . S
C1428 C1429 1.367 . S
C1428 C1436 1.378 . S
C1429 C1428 1.367 . S
C1429 C1437 1.433 . S
C1430 H1426 0.929 . S
C1430 C1432 1.378 . S
C1430 C1434 1.350 . S
C1431 C1434 1.463 . S
C1431 C1436 1.350 . S
C1431 N1439 1.427 . S
C1432 H1423 0.930 . S
C1432 C1430 1.378 . S
C1432 C1433 1.367 . S
C1433 C1432 1.367 . S
C1433 C1435 1.433 . S
C1434 C1430 1.350 . S
C1434 C1431 1.463 . S
C1434 N1438 1.427 . S
C1435 H1425 0.929 . S
C1435 C1433 1.433 . S
C1435 N1438 1.384 . S
C1436 H1427 0.929 . S
C1436 C1428 1.378 . S
C1436 C1431 1.350 . S
C1437 H1424 0.929 . S
C1437 C1429 1.433 . S
C1437 N1439 1.384 . S
N1438 C1434 1.427 . S
N1438 C1435 1.384 . S
N1439 C1431 1.427 . S
N1439 C1437 1.384 . S
H1440 C1446 0.930 . S
H1441 C1450 0.930 . S
H1442 C1455 0.929 . S
H1443 C1453 0.929 . S
H1444 C1448 0.929 . S
H1445 C1454 0.929 . S
C1446 H1440 0.930 . S
C1446 C1447 1.367 . S
C1446 C1454 1.378 . S
C1447 C1446 1.367 . S
C1447 C1455 1.433 . S
C1448 H1444 0.929 . S
C1448 C1450 1.378 . S
C1448 C1452 1.350 . S
C1449 C1452 1.463 1_565 S
C1449 C1454 1.350 . S
C1449 N1457 1.427 . S
C1450 H1441 0.930 . S
C1450 C1448 1.378 . S
C1450 C1451 1.367 . S
C1451 C1450 1.367 . S
C1451 C1453 1.433 . S
C1452 C1448 1.350 . S
C1452 C1449 1.463 1_545 S
C1452 N1456 1.427 . S
C1453 H1443 0.929 . S
C1453 C1451 1.433 . S
C1453 N1456 1.384 . S
C1454 H1445 0.929 . S
C1454 C1446 1.378 . S
C1454 C1449 1.350 . S
C1455 H1442 0.929 . S
C1455 C1447 1.433 . S
C1455 N1457 1.384 . S
N1456 C1452 1.427 . S
N1456 C1453 1.384 . S
N1457 C1449 1.427 . S
N1457 C1455 1.384 . S
H1458 C1464 0.930 . S
H1459 C1468 0.930 . S
H1460 C1473 0.929 . S
H1461 C1471 0.929 . S
H1462 C1466 0.929 . S
H1463 C1472 0.929 . S
C1464 H1458 0.930 . S
C1464 C1465 1.367 . S
C1464 C1472 1.378 . S
C1465 C1464 1.367 . S
C1465 C1473 1.433 . S
C1466 H1462 0.929 . S
C1466 C1468 1.378 . S
C1466 C1470 1.350 . S
C1467 C1470 1.463 1_655 S
C1467 C1472 1.350 . S
C1467 N1475 1.427 . S
C1468 H1459 0.930 . S
C1468 C1466 1.378 . S
C1468 C1469 1.367 . S
C1469 C1468 1.367 . S
C1469 C1471 1.433 . S
C1470 C1466 1.350 . S
C1470 C1467 1.463 1_455 S
C1470 N1474 1.427 . S
C1471 H1461 0.929 . S
C1471 C1469 1.433 . S
C1471 N1474 1.384 . S
C1472 H1463 0.929 . S
C1472 C1464 1.378 . S
C1472 C1467 1.350 . S
C1473 H1460 0.929 . S
C1473 C1465 1.433 . S
C1473 N1475 1.384 . S
N1474 C1470 1.427 . S
N1474 C1471 1.384 . S
N1475 C1467 1.427 . S
N1475 C1473 1.384 . S
H1476 C1482 0.930 . S
H1477 C1486 0.931 1_556 S
H1478 C1491 0.929 . S
H1479 C1489 0.929 . S
H1480 C1484 0.929 . S
H1481 C1490 0.929 . S
C1482 H1476 0.930 . S
C1482 C1483 1.367 1_554 S
C1482 C1490 1.378 . S
C1483 C1482 1.367 1_556 S
C1483 C1491 1.433 . S
C1484 H1480 0.929 . S
C1484 C1486 1.378 1_556 S
C1484 C1488 1.350 1_556 S
C1485 C1488 1.463 . S
C1485 C1490 1.350 . S
C1485 N1493 1.427 1_554 S
C1486 H1477 0.931 1_554 S
C1486 C1484 1.378 1_554 S
C1486 C1487 1.366 . S
C1487 C1486 1.366 . S
C1487 C1489 1.433 . S
C1488 C1484 1.350 1_554 S
C1488 C1485 1.463 . S
C1488 N1492 1.427 . S
C1489 H1479 0.929 . S
C1489 C1487 1.433 . S
C1489 N1492 1.384 . S
C1490 H1481 0.929 . S
C1490 C1482 1.378 . S
C1490 C1485 1.350 . S
C1491 H1478 0.929 . S
C1491 C1483 1.433 . S
C1491 N1493 1.384 . S
N1492 C1488 1.427 . S
N1492 C1489 1.384 . S
N1493 C1485 1.427 1_556 S
N1493 C1491 1.384 . S
H1494 C1500 0.930 1_655 S
H1495 C1504 0.930 . S
H1496 C1509 0.929 . S
H1497 C1507 0.929 . S
H1498 C1502 0.929 . S
H1499 C1508 0.929 . S
C1500 H1494 0.930 1_455 S
C1500 C1501 1.367 1_554 S
C1500 C1508 1.378 1_455 S
C1501 C1500 1.367 1_556 S
C1501 C1509 1.433 . S
C1502 H1498 0.929 . S
C1502 C1504 1.378 1_455 S
C1502 C1506 1.350 1_456 S
C1503 C1506 1.463 1_445 S
C1503 C1508 1.350 1_455 S
C1503 N1511 1.427 1_554 S
C1504 H1495 0.930 . S
C1504 C1502 1.378 1_655 S
C1504 C1505 1.368 1_556 S
C1505 C1504 1.368 1_554 S
C1505 C1507 1.433 . S
C1506 C1502 1.350 1_654 S
C1506 C1503 1.463 1_665 S
C1506 N1510 1.427 . S
C1507 H1497 0.929 . S
C1507 C1505 1.433 . S
C1507 N1510 1.384 . S
C1508 H1499 0.929 . S
C1508 C1500 1.378 1_655 S
C1508 C1503 1.350 1_655 S
C1509 H1496 0.929 . S
C1509 C1501 1.433 . S
C1509 N1511 1.384 . S
N1510 C1506 1.427 . S
N1510 C1507 1.384 . S
N1511 C1503 1.427 1_556 S
N1511 C1509 1.384 . S
H1512 C1518 0.930 . S
H1513 C1522 0.930 . S
H1514 C1527 0.929 . S
H1515 C1525 0.929 . S
H1516 C1520 0.929 . S
H1517 C1526 0.929 . S
C1518 H1512 0.930 . S
C1518 C1519 1.367 . S
C1518 C1526 1.378 . S
C1519 C1518 1.367 . S
C1519 C1527 1.433 . S
C1520 H1516 0.929 . S
C1520 C1522 1.378 . S
C1520 C1524 1.350 . S
C1521 C1524 1.463 1_545 S
C1521 C1526 1.350 . S
C1521 N1529 1.427 . S
C1522 H1513 0.930 . S
C1522 C1520 1.378 . S
C1522 C1523 1.367 . S
C1523 C1522 1.367 . S
C1523 C1525 1.433 . S
C1524 C1520 1.350 . S
C1524 C1521 1.463 1_565 S
C1524 N1528 1.427 . S
C1525 H1515 0.929 . S
C1525 C1523 1.433 . S
C1525 N1528 1.384 . S
C1526 H1517 0.929 . S
C1526 C1518 1.378 . S
C1526 C1521 1.350 . S
C1527 H1514 0.929 . S
C1527 C1519 1.433 . S
C1527 N1529 1.384 . S
N1528 C1524 1.427 . S
N1528 C1525 1.384 . S
N1529 C1521 1.427 . S
N1529 C1527 1.384 . S
H1530 C1536 0.930 . S
H1531 C1540 0.930 . S
H1532 C1545 0.929 . S
H1533 C1543 0.929 . S
H1534 C1538 0.929 . S
H1535 C1544 0.929 . S
C1536 H1530 0.930 . S
C1536 C1537 1.367 . S
C1536 C1544 1.378 . S
C1537 C1536 1.367 . S
C1537 C1545 1.433 1_455 S
C1538 H1534 0.929 . S
C1538 C1540 1.378 . S
C1538 C1542 1.350 . S
C1539 C1542 1.463 1_455 S
C1539 C1544 1.350 . S
C1539 N1547 1.427 1_455 S
C1540 H1531 0.930 . S
C1540 C1538 1.378 . S
C1540 C1541 1.367 . S
C1541 C1540 1.367 . S
C1541 C1543 1.433 1_655 S
C1542 C1538 1.350 . S
C1542 C1539 1.463 1_655 S
C1542 N1546 1.427 1_655 S
C1543 H1533 0.929 . S
C1543 C1541 1.433 1_455 S
C1543 N1546 1.384 . S
C1544 H1535 0.929 . S
C1544 C1536 1.378 . S
C1544 C1539 1.350 . S
C1545 H1532 0.929 . S
C1545 C1537 1.433 1_655 S
C1545 N1547 1.384 . S
N1546 C1542 1.427 1_455 S
N1546 C1543 1.384 . S
N1547 C1539 1.427 1_655 S
N1547 C1545 1.384 . S
H1548 C1554 0.930 . S
H1549 C1558 0.930 . S
H1550 C1563 0.929 . S
H1551 C1561 0.929 . S
H1552 C1556 0.929 . S
H1553 C1562 0.929 . S
C1554 H1548 0.930 . S
C1554 C1555 1.367 1_554 S
C1554 C1562 1.378 . S
C1555 C1554 1.367 1_556 S
C1555 C1563 1.433 . S
C1556 H1552 0.929 . S
C1556 C1558 1.378 . S
C1556 C1560 1.350 1_556 S
C1557 C1560 1.463 . S
C1557 C1562 1.350 . S
C1557 N1565 1.427 1_554 S
C1558 H1549 0.930 . S
C1558 C1556 1.378 . S
C1558 C1559 1.367 1_556 S
C1559 C1558 1.367 1_554 S
C1559 C1561 1.433 . S
C1560 C1556 1.350 1_554 S
C1560 C1557 1.463 . S
C1560 N1564 1.427 . S
C1561 H1551 0.929 . S
C1561 C1559 1.433 . S
C1561 N1564 1.384 . S
C1562 H1553 0.929 . S
C1562 C1554 1.378 . S
C1562 C1557 1.350 . S
C1563 H1550 0.929 . S
C1563 C1555 1.433 . S
C1563 N1565 1.384 . S
N1564 C1560 1.427 . S
N1564 C1561 1.384 . S
N1565 C1557 1.427 1_556 S
N1565 C1563 1.384 . S
H1566 C1572 0.930 . S
H1567 C1576 0.930 . S
H1568 C1581 0.929 . S
H1569 C1579 0.929 . S
H1570 C1574 0.929 . S
H1571 C1580 0.929 . S
C1572 H1566 0.930 . S
C1572 C1573 1.367 . S
C1572 C1580 1.378 . S
C1573 C1572 1.367 . S
C1573 C1581 1.433 . S
C1574 H1570 0.929 . S
C1574 C1576 1.378 . S
C1574 C1578 1.350 . S
C1575 C1578 1.463 . S
C1575 C1580 1.350 . S
C1575 N1583 1.427 . S
C1576 H1567 0.930 . S
C1576 C1574 1.378 . S
C1576 C1577 1.367 . S
C1577 C1576 1.367 . S
C1577 C1579 1.433 . S
C1578 C1574 1.350 . S
C1578 C1575 1.463 . S
C1578 N1582 1.427 . S
C1579 H1569 0.929 . S
C1579 C1577 1.433 . S
C1579 N1582 1.384 . S
C1580 H1571 0.929 . S
C1580 C1572 1.378 . S
C1580 C1575 1.350 . S
C1581 H1568 0.929 . S
C1581 C1573 1.433 . S
C1581 N1583 1.384 . S
N1582 C1578 1.427 . S
N1582 C1579 1.384 . S
N1583 C1575 1.427 . S
N1583 C1581 1.384 . S
H1584 C1590 0.930 . S
H1585 C1594 0.930 . S
H1586 C1599 0.929 . S
H1587 C1597 0.929 . S
H1588 C1592 0.929 . S
H1589 C1598 0.929 . S
C1590 H1584 0.930 . S
C1590 C1591 1.367 . S
C1590 C1598 1.378 . S
C1591 C1590 1.367 . S
C1591 C1599 1.433 . S
C1592 H1588 0.929 . S
C1592 C1594 1.378 . S
C1592 C1596 1.350 . S
C1593 C1596 1.463 . S
C1593 C1598 1.350 . S
C1593 N1601 1.427 . S
C1594 H1585 0.930 . S
C1594 C1592 1.378 . S
C1594 C1595 1.367 . S
C1595 C1594 1.367 . S
C1595 C1597 1.433 . S
C1596 C1592 1.350 . S
C1596 C1593 1.463 . S
C1596 N1600 1.427 . S
C1597 H1587 0.929 . S
C1597 C1595 1.433 . S
C1597 N1600 1.384 . S
C1598 H1589 0.929 . S
C1598 C1590 1.378 . S
C1598 C1593 1.350 . S
C1599 H1586 0.929 . S
C1599 C1591 1.433 . S
C1599 N1601 1.384 . S
N1600 C1596 1.427 . S
N1600 C1597 1.384 . S
N1601 C1593 1.427 . S
N1601 C1599 1.384 . S
H1602 C1608 0.930 . S
H1603 C1612 0.930 . S
H1604 C1617 0.929 . S
H1605 C1615 0.929 . S
H1606 C1610 0.929 . S
H1607 C1616 0.929 . S
C1608 H1602 0.930 . S
C1608 C1609 1.367 . S
C1608 C1616 1.378 . S
C1609 C1608 1.367 . S
C1609 C1617 1.433 1_655 S
C1610 H1606 0.929 . S
C1610 C1612 1.378 . S
C1610 C1614 1.350 . S
C1611 C1614 1.463 1_655 S
C1611 C1616 1.350 . S
C1611 N1619 1.427 1_655 S
C1612 H1603 0.930 . S
C1612 C1610 1.378 . S
C1612 C1613 1.367 . S
C1613 C1612 1.367 . S
C1613 C1615 1.433 1_455 S
C1614 C1610 1.350 . S
C1614 C1611 1.463 1_455 S
C1614 N1618 1.427 1_455 S
C1615 H1605 0.929 . S
C1615 C1613 1.433 1_655 S
C1615 N1618 1.384 . S
C1616 H1607 0.929 . S
C1616 C1608 1.378 . S
C1616 C1611 1.350 . S
C1617 H1604 0.929 . S
C1617 C1609 1.433 1_455 S
C1617 N1619 1.384 . S
N1618 C1614 1.427 1_655 S
N1618 C1615 1.384 . S
N1619 C1611 1.427 1_455 S
N1619 C1617 1.384 . S
H1620 C1626 0.930 . S
H1621 C1630 0.930 . S
H1622 C1635 0.929 . S
H1623 C1633 0.929 . S
H1624 C1628 0.929 . S
H1625 C1634 0.929 . S
C1626 H1620 0.930 . S
C1626 C1627 1.367 . S
C1626 C1634 1.378 . S
C1627 C1626 1.367 . S
C1627 C1635 1.433 . S
C1628 H1624 0.929 . S
C1628 C1630 1.378 . S
C1628 C1632 1.350 . S
C1629 C1632 1.463 . S
C1629 C1634 1.350 . S
C1629 N1637 1.427 . S
C1630 H1621 0.930 . S
C1630 C1628 1.378 . S
C1630 C1631 1.367 . S
C1631 C1630 1.367 . S
C1631 C1633 1.433 . S
C1632 C1628 1.350 . S
C1632 C1629 1.463 . S
C1632 N1636 1.427 . S
C1633 H1623 0.929 . S
C1633 C1631 1.433 . S
C1633 N1636 1.384 . S
C1634 H1625 0.929 . S
C1634 C1626 1.378 . S
C1634 C1629 1.350 . S
C1635 H1622 0.929 . S
C1635 C1627 1.433 . S
C1635 N1637 1.384 . S
N1636 C1632 1.427 . S
N1636 C1633 1.384 . S
N1637 C1629 1.427 . S
N1637 C1635 1.384 . S
H1638 C1644 0.930 . S
H1639 C1648 0.930 . S
H1640 C1653 0.929 . S
H1641 C1651 0.929 . S
H1642 C1646 0.929 . S
H1643 C1652 0.929 . S
C1644 H1638 0.930 . S
C1644 C1645 1.367 . S
C1644 C1652 1.378 . S
C1645 C1644 1.367 . S
C1645 C1653 1.433 . S
C1646 H1642 0.929 . S
C1646 C1648 1.378 . S
C1646 C1650 1.350 . S
C1647 C1650 1.463 . S
C1647 C1652 1.350 . S
C1647 N1655 1.427 . S
C1648 H1639 0.930 . S
C1648 C1646 1.378 . S
C1648 C1649 1.367 . S
C1649 C1648 1.367 . S
C1649 C1651 1.433 . S
C1650 C1646 1.350 . S
C1650 C1647 1.463 . S
C1650 N1654 1.427 . S
C1651 H1641 0.929 . S
C1651 C1649 1.433 . S
C1651 N1654 1.384 . S
C1652 H1643 0.929 . S
C1652 C1644 1.378 . S
C1652 C1647 1.350 . S
C1653 H1640 0.929 . S
C1653 C1645 1.433 . S
C1653 N1655 1.384 . S
N1654 C1650 1.427 . S
N1654 C1651 1.384 . S
N1655 C1647 1.427 . S
N1655 C1653 1.384 . S
H1656 C1662 0.930 . S
H1657 C1666 0.930 . S
H1658 C1671 0.929 . S
H1659 C1669 0.929 . S
H1660 C1664 0.929 . S
H1661 C1670 0.929 . S
C1662 H1656 0.930 . S
C1662 C1663 1.367 . S
C1662 C1670 1.378 . S
C1663 C1662 1.367 . S
C1663 C1671 1.433 . S
C1664 H1660 0.929 . S
C1664 C1666 1.378 . S
C1664 C1668 1.350 . S
C1665 C1668 1.463 . S
C1665 C1670 1.350 . S
C1665 N1673 1.427 . S
C1666 H1657 0.930 . S
C1666 C1664 1.378 . S
C1666 C1667 1.367 . S
C1667 C1666 1.367 . S
C1667 C1669 1.433 . S
C1668 C1664 1.350 . S
C1668 C1665 1.463 . S
C1668 N1672 1.427 . S
C1669 H1659 0.929 . S
C1669 C1667 1.433 . S
C1669 N1672 1.384 . S
C1670 H1661 0.929 . S
C1670 C1662 1.378 . S
C1670 C1665 1.350 . S
C1671 H1658 0.929 . S
C1671 C1663 1.433 . S
C1671 N1673 1.384 . S
N1672 C1668 1.427 . S
N1672 C1669 1.384 . S
N1673 C1665 1.427 . S
N1673 C1671 1.384 . S
H1674 C1680 0.930 . S
H1675 C1684 0.930 . S
H1676 C1689 0.929 . S
H1677 C1687 0.929 . S
H1678 C1682 0.929 1_545 S
H1679 C1688 0.929 . S
C1680 H1674 0.930 . S
C1680 C1681 1.367 . S
C1680 C1688 1.378 . S
C1681 C1680 1.367 . S
C1681 C1689 1.433 . S
C1682 H1678 0.929 1_565 S
C1682 C1684 1.378 . S
C1682 C1686 1.350 . S
C1683 C1686 1.463 1_545 S
C1683 C1688 1.350 . S
C1683 N1691 1.427 . S
C1684 H1675 0.930 . S
C1684 C1682 1.378 . S
C1684 C1685 1.367 . S
C1685 C1684 1.367 . S
C1685 C1687 1.433 . S
C1686 C1682 1.350 . S
C1686 C1683 1.463 1_565 S
C1686 N1690 1.427 . S
C1687 H1677 0.929 . S
C1687 C1685 1.433 . S
C1687 N1690 1.384 . S
C1688 H1679 0.929 . S
C1688 C1680 1.378 . S
C1688 C1683 1.350 . S
C1689 H1676 0.929 . S
C1689 C1681 1.433 . S
C1689 N1691 1.384 . S
N1690 C1686 1.427 . S
N1690 C1687 1.384 . S
N1691 C1683 1.427 . S
N1691 C1689 1.384 . S
H1692 C1698 0.930 . S
H1693 C1702 0.930 . S
H1694 C1707 0.929 . S
H1695 C1705 0.929 . S
H1696 C1700 0.929 . S
H1697 C1706 0.929 . S
C1698 H1692 0.930 . S
C1698 C1699 1.367 . S
C1698 C1706 1.378 . S
C1699 C1698 1.367 . S
C1699 C1707 1.433 . S
C1700 H1696 0.929 . S
C1700 C1702 1.378 . S
C1700 C1704 1.350 . S
C1701 C1704 1.463 . S
C1701 C1706 1.350 . S
C1701 N1709 1.427 . S
C1702 H1693 0.930 . S
C1702 C1700 1.378 . S
C1702 C1703 1.367 . S
C1703 C1702 1.367 . S
C1703 C1705 1.433 . S
C1704 C1700 1.350 . S
C1704 C1701 1.463 . S
C1704 N1708 1.427 . S
C1705 H1695 0.929 . S
C1705 C1703 1.433 . S
C1705 N1708 1.384 . S
C1706 H1697 0.929 . S
C1706 C1698 1.378 . S
C1706 C1701 1.350 . S
C1707 H1694 0.929 . S
C1707 C1699 1.433 . S
C1707 N1709 1.384 . S
N1708 C1704 1.427 . S
N1708 C1705 1.384 . S
N1709 C1701 1.427 . S
N1709 C1707 1.384 . S
H1710 C1716 0.930 . S
H1711 C1720 0.930 . S
H1712 C1725 0.929 . S
H1713 C1723 0.929 . S
H1714 C1718 0.929 . S
H1715 C1724 0.929 . S
C1716 H1710 0.930 . S
C1716 C1717 1.367 1_556 S
C1716 C1724 1.378 . S
C1717 C1716 1.367 1_554 S
C1717 C1725 1.433 . S
C1718 H1714 0.929 . S
C1718 C1720 1.378 . S
C1718 C1722 1.350 . S
C1719 C1722 1.463 . S
C1719 C1724 1.350 1_554 S
C1719 N1727 1.427 . S
C1720 H1711 0.930 . S
C1720 C1718 1.378 . S
C1720 C1721 1.367 1_554 S
C1721 C1720 1.367 1_556 S
C1721 C1723 1.433 . S
C1722 C1718 1.350 . S
C1722 C1719 1.463 . S
C1722 N1726 1.427 1_554 S
C1723 H1713 0.929 . S
C1723 C1721 1.433 . S
C1723 N1726 1.384 . S
C1724 H1715 0.929 . S
C1724 C1716 1.378 . S
C1724 C1719 1.350 1_556 S
C1725 H1712 0.929 . S
C1725 C1717 1.433 . S
C1725 N1727 1.384 . S
N1726 C1722 1.427 1_556 S
N1726 C1723 1.384 . S
N1727 C1719 1.427 . S
N1727 C1725 1.384 . S
H1728 C1734 0.930 . S
H1729 C1738 0.930 . S
H1730 C1743 0.929 . S
H1731 C1741 0.929 . S
H1732 C1736 0.929 . S
H1733 C1742 0.929 . S
C1734 H1728 0.930 . S
C1734 C1735 1.367 . S
C1734 C1742 1.378 . S
C1735 C1734 1.367 . S
C1735 C1743 1.433 . S
C1736 H1732 0.929 . S
C1736 C1738 1.378 . S
C1736 C1740 1.350 . S
C1737 C1740 1.463 . S
C1737 C1742 1.350 . S
C1737 N1745 1.427 . S
C1738 H1729 0.930 . S
C1738 C1736 1.378 . S
C1738 C1739 1.367 . S
C1739 C1738 1.367 . S
C1739 C1741 1.433 . S
C1740 C1736 1.350 . S
C1740 C1737 1.463 . S
C1740 N1744 1.427 . S
C1741 H1731 0.929 . S
C1741 C1739 1.433 . S
C1741 N1744 1.384 . S
C1742 H1733 0.929 . S
C1742 C1734 1.378 . S
C1742 C1737 1.350 . S
C1743 H1730 0.929 . S
C1743 C1735 1.433 . S
C1743 N1745 1.384 . S
N1744 C1740 1.427 . S
N1744 C1741 1.384 . S
N1745 C1737 1.427 . S
N1745 C1743 1.384 . S
H1746 C1752 0.930 . S
H1747 C1756 0.930 . S
H1748 C1761 0.929 . S
H1749 C1759 0.929 . S
H1750 C1754 0.929 . S
H1751 C1760 0.929 . S
C1752 H1746 0.930 . S
C1752 C1753 1.367 . S
C1752 C1760 1.378 . S
C1753 C1752 1.367 . S
C1753 C1761 1.433 1_556 S
C1754 H1750 0.929 . S
C1754 C1756 1.378 . S
C1754 C1758 1.350 1_554 S
C1755 C1758 1.463 . S
C1755 C1760 1.350 . S
C1755 N1763 1.427 1_556 S
C1756 H1747 0.930 . S
C1756 C1754 1.378 . S
C1756 C1757 1.367 1_554 S
C1757 C1756 1.367 1_556 S
C1757 C1759 1.433 . S
C1758 C1754 1.350 1_556 S
C1758 C1755 1.463 . S
C1758 N1762 1.427 . S
C1759 H1749 0.929 . S
C1759 C1757 1.433 . S
C1759 N1762 1.384 . S
C1760 H1751 0.929 . S
C1760 C1752 1.378 . S
C1760 C1755 1.350 . S
C1761 H1748 0.929 . S
C1761 C1753 1.433 1_554 S
C1761 N1763 1.384 . S
N1762 C1758 1.427 . S
N1762 C1759 1.384 . S
N1763 C1755 1.427 1_554 S
N1763 C1761 1.384 . S
H1764 C1770 0.930 . S
H1765 C1774 0.930 . S
H1766 C1779 0.929 . S
H1767 C1777 0.929 . S
H1768 C1772 0.929 . S
H1769 C1778 0.929 . S
C1770 H1764 0.930 . S
C1770 C1771 1.367 . S
C1770 C1778 1.378 . S
C1771 C1770 1.367 . S
C1771 C1779 1.433 . S
C1772 H1768 0.929 . S
C1772 C1774 1.378 . S
C1772 C1776 1.350 . S
C1773 C1776 1.463 . S
C1773 C1778 1.350 . S
C1773 N1781 1.427 . S
C1774 H1765 0.930 . S
C1774 C1772 1.378 . S
C1774 C1775 1.367 . S
C1775 C1774 1.367 . S
C1775 C1777 1.433 . S
C1776 C1772 1.350 . S
C1776 C1773 1.463 . S
C1776 N1780 1.427 . S
C1777 H1767 0.929 . S
C1777 C1775 1.433 . S
C1777 N1780 1.384 . S
C1778 H1769 0.929 . S
C1778 C1770 1.378 . S
C1778 C1773 1.350 . S
C1779 H1766 0.929 . S
C1779 C1771 1.433 . S
C1779 N1781 1.384 . S
N1780 C1776 1.427 . S
N1780 C1777 1.384 . S
N1781 C1773 1.427 . S
N1781 C1779 1.384 . S
H1782 C1788 0.930 1_556 S
H1783 C1792 0.930 . S
H1784 C1797 0.929 . S
H1785 C1795 0.906 1_556 S
H1786 C1790 0.929 . S
H1787 C1796 0.929 1_556 S
C1788 H1782 0.930 1_554 S
C1788 C1789 1.367 . S
C1788 C1796 1.378 . S
C1789 C1788 1.367 . S
C1789 C1797 1.433 . S
C1790 H1786 0.929 . S
C1790 C1792 1.378 . S
C1790 C1794 1.350 . S
C1791 C1794 1.463 . S
C1791 C1796 1.350 . S
C1791 N1799 1.427 . S
C1792 H1783 0.930 . S
C1792 C1790 1.378 . S
C1792 C1793 1.367 . S
C1793 C1792 1.367 . S
C1793 C1795 1.457 . S
C1794 C1790 1.350 . S
C1794 C1791 1.463 . S
C1794 N1798 1.465 . S
C1795 H1785 0.906 1_554 S
C1795 C1793 1.457 . S
C1795 N1798 1.383 . S
C1796 H1787 0.929 1_554 S
C1796 C1788 1.378 . S
C1796 C1791 1.350 . S
C1797 H1784 0.929 . S
C1797 C1789 1.433 . S
C1797 N1799 1.384 . S
N1798 C1794 1.465 . S
N1798 C1795 1.383 . S
N1799 C1791 1.427 . S
N1799 C1797 1.384 . S
H1800 C1806 0.930 . S
H1801 C1810 0.930 . S
H1802 C1815 0.929 . S
H1803 C1813 0.929 . S
H1804 C1808 0.929 . S
H1805 C1814 0.929 . S
C1806 H1800 0.930 . S
C1806 C1807 1.367 . S
C1806 C1814 1.378 . S
C1807 C1806 1.367 . S
C1807 C1815 1.433 . S
C1808 H1804 0.929 . S
C1808 C1810 1.378 . S
C1808 C1812 1.350 . S
C1809 C1812 1.463 . S
C1809 C1814 1.350 . S
C1809 N1817 1.427 . S
C1810 H1801 0.930 . S
C1810 C1808 1.378 . S
C1810 C1811 1.367 . S
C1811 C1810 1.367 . S
C1811 C1813 1.433 . S
C1812 C1808 1.350 . S
C1812 C1809 1.463 . S
C1812 N1816 1.427 . S
C1813 H1803 0.929 . S
C1813 C1811 1.433 . S
C1813 N1816 1.384 . S
C1814 H1805 0.929 . S
C1814 C1806 1.378 . S
C1814 C1809 1.350 . S
C1815 H1802 0.929 . S
C1815 C1807 1.433 . S
C1815 N1817 1.384 . S
N1816 C1812 1.427 . S
N1816 C1813 1.384 . S
N1817 C1809 1.427 . S
N1817 C1815 1.384 . S
H1818 C1824 0.930 . S
H1819 C1828 0.930 . S
H1820 C1833 0.929 . S
H1821 C1831 0.929 . S
H1822 C1826 0.929 . S
H1823 C1832 0.929 . S
C1824 H1818 0.930 . S
C1824 C1825 1.367 . S
C1824 C1832 1.378 . S
C1825 C1824 1.367 . S
C1825 C1833 1.433 . S
C1826 H1822 0.929 . S
C1826 C1828 1.378 . S
C1826 C1830 1.350 . S
C1827 C1830 1.463 . S
C1827 C1832 1.350 . S
C1827 N1835 1.427 . S
C1828 H1819 0.930 . S
C1828 C1826 1.378 . S
C1828 C1829 1.367 . S
C1829 C1828 1.367 . S
C1829 C1831 1.433 . S
C1830 C1826 1.350 . S
C1830 C1827 1.463 . S
C1830 N1834 1.427 . S
C1831 H1821 0.929 . S
C1831 C1829 1.433 . S
C1831 N1834 1.384 . S
C1832 H1823 0.929 . S
C1832 C1824 1.378 . S
C1832 C1827 1.350 . S
C1833 H1820 0.929 . S
C1833 C1825 1.433 . S
C1833 N1835 1.384 . S
N1834 C1830 1.427 . S
N1834 C1831 1.384 . S
N1835 C1827 1.427 . S
N1835 C1833 1.384 . S
H1836 C1842 0.930 . S
H1837 C1846 0.930 . S
H1838 C1851 0.929 . S
H1839 C1849 0.929 . S
H1840 C1844 0.929 . S
H1841 C1850 0.929 . S
C1842 H1836 0.930 . S
C1842 C1843 1.367 . S
C1842 C1850 1.378 . S
C1843 C1842 1.367 . S
C1843 C1851 1.433 . S
C1844 H1840 0.929 . S
C1844 C1846 1.378 . S
C1844 C1848 1.350 . S
C1845 C1848 1.463 . S
C1845 C1850 1.350 . S
C1845 N1853 1.427 . S
C1846 H1837 0.930 . S
C1846 C1844 1.378 . S
C1846 C1847 1.367 . S
C1847 C1846 1.367 . S
C1847 C1849 1.433 . S
C1848 C1844 1.350 . S
C1848 C1845 1.463 . S
C1848 N1852 1.427 . S
C1849 H1839 0.929 . S
C1849 C1847 1.433 . S
C1849 N1852 1.384 . S
C1850 H1841 0.929 . S
C1850 C1842 1.378 . S
C1850 C1845 1.350 . S
C1851 H1838 0.929 . S
C1851 C1843 1.433 . S
C1851 N1853 1.384 . S
N1852 C1848 1.427 . S
N1852 C1849 1.384 . S
N1853 C1845 1.427 . S
N1853 C1851 1.384 . S
H1854 C1860 0.930 . S
H1855 C1864 0.930 . S
H1856 C1869 0.929 . S
H1857 C1867 0.929 . S
H1858 C1862 0.929 . S
H1859 C1868 0.929 . S
C1860 H1854 0.930 . S
C1860 C1861 1.367 . S
C1860 C1868 1.378 . S
C1861 C1860 1.367 . S
C1861 C1869 1.433 . S
C1862 H1858 0.929 . S
C1862 C1864 1.378 . S
C1862 C1866 1.350 . S
C1863 C1866 1.463 . S
C1863 C1868 1.350 . S
C1863 N1871 1.427 . S
C1864 H1855 0.930 . S
C1864 C1862 1.378 . S
C1864 C1865 1.367 . S
C1865 C1864 1.367 . S
C1865 C1867 1.433 . S
C1866 C1862 1.350 . S
C1866 C1863 1.463 . S
C1866 N1870 1.427 . S
C1867 H1857 0.929 . S
C1867 C1865 1.433 . S
C1867 N1870 1.384 . S
C1868 H1859 0.929 . S
C1868 C1860 1.378 . S
C1868 C1863 1.350 . S
C1869 H1856 0.929 . S
C1869 C1861 1.433 . S
C1869 N1871 1.384 . S
N1870 C1866 1.427 . S
N1870 C1867 1.384 . S
N1871 C1863 1.427 . S
N1871 C1869 1.384 . S
H1872 C1878 0.930 . S
H1873 C1882 0.930 . S
H1874 C1887 0.929 . S
H1875 C1885 0.929 . S
H1876 C1880 0.929 . S
H1877 C1886 0.929 . S
C1878 H1872 0.930 . S
C1878 C1879 1.367 . S
C1878 C1886 1.378 . S
C1879 C1878 1.367 . S
C1879 C1887 1.433 . S
C1880 H1876 0.929 . S
C1880 C1882 1.378 . S
C1880 C1884 1.350 . S
C1881 C1884 1.463 . S
C1881 C1886 1.350 . S
C1881 N1889 1.427 . S
C1882 H1873 0.930 . S
C1882 C1880 1.378 . S
C1882 C1883 1.367 . S
C1883 C1882 1.367 . S
C1883 C1885 1.433 . S
C1884 C1880 1.350 . S
C1884 C1881 1.463 . S
C1884 N1888 1.427 . S
C1885 H1875 0.929 . S
C1885 C1883 1.433 . S
C1885 N1888 1.384 . S
C1886 H1877 0.929 . S
C1886 C1878 1.378 . S
C1886 C1881 1.350 . S
C1887 H1874 0.929 . S
C1887 C1879 1.433 . S
C1887 N1889 1.384 . S
N1888 C1884 1.427 . S
N1888 C1885 1.384 . S
N1889 C1881 1.427 . S
N1889 C1887 1.384 . S
H1890 C1896 0.930 . S
H1891 C1900 0.930 . S
H1892 C1905 0.929 . S
H1893 C1903 0.929 . S
H1894 C1898 0.929 . S
H1895 C1904 0.929 . S
C1896 H1890 0.930 . S
C1896 C1897 1.367 . S
C1896 C1904 1.378 . S
C1897 C1896 1.367 . S
C1897 C1905 1.433 . S
C1898 H1894 0.929 . S
C1898 C1900 1.378 . S
C1898 C1902 1.350 . S
C1899 C1902 1.463 . S
C1899 C1904 1.350 . S
C1899 N1907 1.427 . S
C1900 H1891 0.930 . S
C1900 C1898 1.378 . S
C1900 C1901 1.367 . S
C1901 C1900 1.367 . S
C1901 C1903 1.433 . S
C1902 C1898 1.350 . S
C1902 C1899 1.463 . S
C1902 N1906 1.427 . S
C1903 H1893 0.929 . S
C1903 C1901 1.433 . S
C1903 N1906 1.384 . S
C1904 H1895 0.929 . S
C1904 C1896 1.378 . S
C1904 C1899 1.350 . S
C1905 H1892 0.929 . S
C1905 C1897 1.433 . S
C1905 N1907 1.384 . S
N1906 C1902 1.427 . S
N1906 C1903 1.384 . S
N1907 C1899 1.427 . S
N1907 C1905 1.384 . S
H1908 C1914 0.930 . S
H1909 C1918 0.930 . S
H1910 C1923 0.929 . S
H1911 C1921 0.929 . S
H1912 C1916 0.929 . S
H1913 C1922 0.929 . S
C1914 H1908 0.930 . S
C1914 C1915 1.367 . S
C1914 C1922 1.378 . S
C1915 C1914 1.367 . S
C1915 C1923 1.433 . S
C1916 H1912 0.929 . S
C1916 C1918 1.378 . S
C1916 C1920 1.350 . S
C1917 C1920 1.463 . S
C1917 C1922 1.350 . S
C1917 N1925 1.427 . S
C1918 H1909 0.930 . S
C1918 C1916 1.378 . S
C1918 C1919 1.367 . S
C1919 C1918 1.367 . S
C1919 C1921 1.433 . S
C1920 C1916 1.350 . S
C1920 C1917 1.463 . S
C1920 N1924 1.427 . S
C1921 H1911 0.929 . S
C1921 C1919 1.433 . S
C1921 N1924 1.384 . S
C1922 H1913 0.929 . S
C1922 C1914 1.378 . S
C1922 C1917 1.350 . S
C1923 H1910 0.929 . S
C1923 C1915 1.433 . S
C1923 N1925 1.384 . S
N1924 C1920 1.427 . S
N1924 C1921 1.384 . S
N1925 C1917 1.427 . S
N1925 C1923 1.384 . S
H1926 C1932 0.930 . S
H1927 C1936 0.930 . S
H1928 C1941 0.929 . S
H1929 C1939 0.929 . S
H1930 C1934 0.929 . S
H1931 C1940 0.929 . S
C1932 H1926 0.930 . S
C1932 C1933 1.367 . S
C1932 C1940 1.378 . S
C1933 C1932 1.367 . S
C1933 C1941 1.433 . S
C1934 H1930 0.929 . S
C1934 C1936 1.378 . S
C1934 C1938 1.350 . S
C1935 C1938 1.463 . S
C1935 C1940 1.350 . S
C1935 N1943 1.427 . S
C1936 H1927 0.930 . S
C1936 C1934 1.378 . S
C1936 C1937 1.367 . S
C1937 C1936 1.367 . S
C1937 C1939 1.433 . S
C1938 C1934 1.350 . S
C1938 C1935 1.463 . S
C1938 N1942 1.427 . S
C1939 H1929 0.929 . S
C1939 C1937 1.433 . S
C1939 N1942 1.384 . S
C1940 H1931 0.929 . S
C1940 C1932 1.378 . S
C1940 C1935 1.350 . S
C1941 H1928 0.929 . S
C1941 C1933 1.433 . S
C1941 N1943 1.384 . S
N1942 C1938 1.427 . S
N1942 C1939 1.384 . S
N1943 C1935 1.427 . S
N1943 C1941 1.384 . S
H1944 C1950 0.930 . S
H1945 C1954 0.930 . S
H1946 C1959 0.929 . S
H1947 C1957 0.929 . S
H1948 C1952 0.929 . S
H1949 C1958 0.929 . S
C1950 H1944 0.930 . S
C1950 C1951 1.367 . S
C1950 C1958 1.378 . S
C1951 C1950 1.367 . S
C1951 C1959 1.433 . S
C1952 H1948 0.929 . S
C1952 C1954 1.378 . S
C1952 C1956 1.350 . S
C1953 C1956 1.463 . S
C1953 C1958 1.350 . S
C1953 N1961 1.427 . S
C1954 H1945 0.930 . S
C1954 C1952 1.378 . S
C1954 C1955 1.367 . S
C1955 C1954 1.367 . S
C1955 C1957 1.433 . S
C1956 C1952 1.350 . S
C1956 C1953 1.463 . S
C1956 N1960 1.427 . S
C1957 H1947 0.929 . S
C1957 C1955 1.433 . S
C1957 N1960 1.384 . S
C1958 H1949 0.929 . S
C1958 C1950 1.378 . S
C1958 C1953 1.350 . S
C1959 H1946 0.929 . S
C1959 C1951 1.433 . S
C1959 N1961 1.384 . S
N1960 C1956 1.427 . S
N1960 C1957 1.384 . S
N1961 C1953 1.427 . S
N1961 C1959 1.384 . S
H1962 C1968 0.930 . S
H1963 C1972 0.930 . S
H1964 C1977 0.929 . S
H1965 C1975 0.929 . S
H1966 C1970 0.929 . S
H1967 C1976 0.929 . S
C1968 H1962 0.930 . S
C1968 C1969 1.367 1_554 S
C1968 C1976 1.378 . S
C1969 C1968 1.367 1_556 S
C1969 C1977 1.433 . S
C1970 H1966 0.929 . S
C1970 C1972 1.378 . S
C1970 C1974 1.350 . S
C1971 C1974 1.463 . S
C1971 C1976 1.350 1_556 S
C1971 N1979 1.427 . S
C1972 H1963 0.930 . S
C1972 C1970 1.378 . S
C1972 C1973 1.367 . S
C1973 C1972 1.367 . S
C1973 C1975 1.433 1_556 S
C1974 C1970 1.350 . S
C1974 C1971 1.463 . S
C1974 N1978 1.427 1_556 S
C1975 H1965 0.929 . S
C1975 C1973 1.433 1_554 S
C1975 N1978 1.384 . S
C1976 H1967 0.929 . S
C1976 C1968 1.378 . S
C1976 C1971 1.350 1_554 S
C1977 H1964 0.929 . S
C1977 C1969 1.433 . S
C1977 N1979 1.384 . S
N1978 C1974 1.427 1_554 S
N1978 C1975 1.384 . S
N1979 C1971 1.427 . S
N1979 C1977 1.384 . S
H1980 C1986 0.930 . S
H1981 C1990 0.930 . S
H1982 C1995 0.929 . S
H1983 C1993 0.929 . S
H1984 C1988 0.929 . S
H1985 C1994 0.929 . S
C1986 H1980 0.930 . S
C1986 C1987 1.367 . S
C1986 C1994 1.378 . S
C1987 C1986 1.367 . S
C1987 C1995 1.433 . S
C1988 H1984 0.929 . S
C1988 C1990 1.378 . S
C1988 C1992 1.350 . S
C1989 C1992 1.463 . S
C1989 C1994 1.350 . S
C1989 N1997 1.427 . S
C1990 H1981 0.930 . S
C1990 C1988 1.378 . S
C1990 C1991 1.367 . S
C1991 C1990 1.367 . S
C1991 C1993 1.433 . S
C1992 C1988 1.350 . S
C1992 C1989 1.463 . S
C1992 N1996 1.427 . S
C1993 H1983 0.929 . S
C1993 C1991 1.433 . S
C1993 N1996 1.384 . S
C1994 H1985 0.929 . S
C1994 C1986 1.378 . S
C1994 C1989 1.350 . S
C1995 H1982 0.929 . S
C1995 C1987 1.433 . S
C1995 N1997 1.384 . S
N1996 C1992 1.427 . S
N1996 C1993 1.384 . S
N1997 C1989 1.427 . S
N1997 C1995 1.384 . S
H1998 C2004 0.928 1_556 S
H1999 C2008 0.930 . S
H2000 C2013 0.929 . S
H2001 C2011 0.939 . S
H2002 C2006 0.929 . S
H2003 C2012 0.927 1_556 S
C2004 H1998 0.928 1_554 S
C2004 C2005 1.369 . S
C2004 C2012 1.378 . S
C2005 C2004 1.369 . S
C2005 C2013 1.433 . S
C2006 H2002 0.929 . S
C2006 C2008 1.378 . S
C2006 C2010 1.350 . S
C2007 C2010 1.463 . S
C2007 C2012 1.351 . S
C2007 N2015 1.427 . S
C2008 H1999 0.930 . S
C2008 C2006 1.378 . S
C2008 C2009 1.367 . S
C2009 C2008 1.367 . S
C2009 C2011 1.424 1_554 S
C2010 C2006 1.350 . S
C2010 C2007 1.463 . S
C2010 N2014 1.424 . S
C2011 H2001 0.939 . S
C2011 C2009 1.424 1_556 S
C2011 N2014 1.383 1_556 S
C2012 H2003 0.927 1_554 S
C2012 C2004 1.378 . S
C2012 C2007 1.351 . S
C2013 H2000 0.929 . S
C2013 C2005 1.433 . S
C2013 N2015 1.384 . S
N2014 C2010 1.424 . S
N2014 C2011 1.383 1_554 S
N2015 C2007 1.427 . S
N2015 C2013 1.384 . S
H2016 C2022 0.930 . S
H2017 C2026 0.930 . S
H2018 C2031 0.929 1_455 S
H2019 C2029 0.929 . S
H2020 C2024 0.929 . S
H2021 C2030 0.929 . S
C2022 H2016 0.930 . S
C2022 C2023 1.367 . S
C2022 C2030 1.378 . S
C2023 C2022 1.367 . S
C2023 C2031 1.433 . S
C2024 H2020 0.929 . S
C2024 C2026 1.378 . S
C2024 C2028 1.350 . S
C2025 C2028 1.463 . S
C2025 C2030 1.350 . S
C2025 N2033 1.427 . S
C2026 H2017 0.930 . S
C2026 C2024 1.378 . S
C2026 C2027 1.367 . S
C2027 C2026 1.367 . S
C2027 C2029 1.433 . S
C2028 C2024 1.350 . S
C2028 C2025 1.463 . S
C2028 N2032 1.427 . S
C2029 H2019 0.929 . S
C2029 C2027 1.433 . S
C2029 N2032 1.384 . S
C2030 H2021 0.929 . S
C2030 C2022 1.378 . S
C2030 C2025 1.350 . S
C2031 H2018 0.929 1_655 S
C2031 C2023 1.433 . S
C2031 N2033 1.384 . S
N2032 C2028 1.427 . S
N2032 C2029 1.384 . S
N2033 C2025 1.427 . S
N2033 C2031 1.384 . S
H2034 C2040 0.930 . S
H2035 C2044 0.930 . S
H2036 C2049 0.929 . S
H2037 C2047 0.929 . S
H2038 C2042 0.929 . S
H2039 C2048 0.929 . S
C2040 H2034 0.930 . S
C2040 C2041 1.367 . S
C2040 C2048 1.378 . S
C2041 C2040 1.367 . S
C2041 C2049 1.433 . S
C2042 H2038 0.929 . S
C2042 C2044 1.378 . S
C2042 C2046 1.350 . S
C2043 C2046 1.463 . S
C2043 C2048 1.350 . S
C2043 N2051 1.427 . S
C2044 H2035 0.930 . S
C2044 C2042 1.378 . S
C2044 C2045 1.367 . S
C2045 C2044 1.367 . S
C2045 C2047 1.433 . S
C2046 C2042 1.350 . S
C2046 C2043 1.463 . S
C2046 N2050 1.427 . S
C2047 H2037 0.929 . S
C2047 C2045 1.433 . S
C2047 N2050 1.384 . S
C2048 H2039 0.929 . S
C2048 C2040 1.378 . S
C2048 C2043 1.350 . S
C2049 H2036 0.929 . S
C2049 C2041 1.433 . S
C2049 N2051 1.384 . S
N2050 C2046 1.427 . S
N2050 C2047 1.384 . S
N2051 C2043 1.427 . S
N2051 C2049 1.384 . S
H2052 C2058 0.930 . S
H2053 C2062 0.930 . S
H2054 C2067 0.929 . S
H2055 C2065 0.929 . S
H2056 C2060 0.929 . S
H2057 C2066 0.929 . S
C2058 H2052 0.930 . S
C2058 C2059 1.367 . S
C2058 C2066 1.378 . S
C2059 C2058 1.367 . S
C2059 C2067 1.433 . S
C2060 H2056 0.929 . S
C2060 C2062 1.378 . S
C2060 C2064 1.350 . S
C2061 C2064 1.463 . S
C2061 C2066 1.350 . S
C2061 N2069 1.427 . S
C2062 H2053 0.930 . S
C2062 C2060 1.378 . S
C2062 C2063 1.367 . S
C2063 C2062 1.367 . S
C2063 C2065 1.433 . S
C2064 C2060 1.350 . S
C2064 C2061 1.463 . S
C2064 N2068 1.427 . S
C2065 H2055 0.929 . S
C2065 C2063 1.433 . S
C2065 N2068 1.384 . S
C2066 H2057 0.929 . S
C2066 C2058 1.378 . S
C2066 C2061 1.350 . S
C2067 H2054 0.929 . S
C2067 C2059 1.433 . S
C2067 N2069 1.384 . S
N2068 C2064 1.427 . S
N2068 C2065 1.384 . S
N2069 C2061 1.427 . S
N2069 C2067 1.384 . S
H2070 C2076 0.930 . S
H2071 C2080 0.930 . S
H2072 C2085 0.929 . S
H2073 C2083 0.929 . S
H2074 C2078 0.929 . S
H2075 C2084 0.929 . S
C2076 H2070 0.930 . S
C2076 C2077 1.367 . S
C2076 C2084 1.378 . S
C2077 C2076 1.367 . S
C2077 C2085 1.433 . S
C2078 H2074 0.929 . S
C2078 C2080 1.378 . S
C2078 C2082 1.350 . S
C2079 C2082 1.463 . S
C2079 C2084 1.350 . S
C2079 N2087 1.427 . S
C2080 H2071 0.930 . S
C2080 C2078 1.378 . S
C2080 C2081 1.367 . S
C2081 C2080 1.367 . S
C2081 C2083 1.433 . S
C2082 C2078 1.350 . S
C2082 C2079 1.463 . S
C2082 N2086 1.427 . S
C2083 H2073 0.929 . S
C2083 C2081 1.433 . S
C2083 N2086 1.384 . S
C2084 H2075 0.929 . S
C2084 C2076 1.378 . S
C2084 C2079 1.350 . S
C2085 H2072 0.929 . S
C2085 C2077 1.433 . S
C2085 N2087 1.384 . S
N2086 C2082 1.427 . S
N2086 C2083 1.384 . S
N2087 C2079 1.427 . S
N2087 C2085 1.384 . S
H2088 C2094 0.930 . S
H2089 C2098 0.930 1_655 S
H2090 C2103 0.929 . S
H2091 C2101 0.929 . S
H2092 C2096 0.929 . S
H2093 C2102 0.929 . S
C2094 H2088 0.930 . S
C2094 C2095 1.367 . S
C2094 C2102 1.378 . S
C2095 C2094 1.367 . S
C2095 C2103 1.433 . S
C2096 H2092 0.929 . S
C2096 C2098 1.378 . S
C2096 C2100 1.350 . S
C2097 C2100 1.463 . S
C2097 C2102 1.350 . S
C2097 N2105 1.427 . S
C2098 H2089 0.930 1_455 S
C2098 C2096 1.378 . S
C2098 C2099 1.367 . S
C2099 C2098 1.367 . S
C2099 C2101 1.433 . S
C2100 C2096 1.350 . S
C2100 C2097 1.463 . S
C2100 N2104 1.427 . S
C2101 H2091 0.929 . S
C2101 C2099 1.433 . S
C2101 N2104 1.384 . S
C2102 H2093 0.929 . S
C2102 C2094 1.378 . S
C2102 C2097 1.350 . S
C2103 H2090 0.929 . S
C2103 C2095 1.433 . S
C2103 N2105 1.384 . S
N2104 C2100 1.427 . S
N2104 C2101 1.384 . S
N2105 C2097 1.427 . S
N2105 C2103 1.384 . S
H2106 C2112 0.930 . S
H2107 C2116 0.930 . S
H2108 C2121 0.929 . S
H2109 C2119 0.929 . S
H2110 C2114 0.929 . S
H2111 C2120 0.929 . S
C2112 H2106 0.930 . S
C2112 C2113 1.367 . S
C2112 C2120 1.378 . S
C2113 C2112 1.367 . S
C2113 C2121 1.433 . S
C2114 H2110 0.929 . S
C2114 C2116 1.378 . S
C2114 C2118 1.350 . S
C2115 C2118 1.463 . S
C2115 C2120 1.350 . S
C2115 N2123 1.427 . S
C2116 H2107 0.930 . S
C2116 C2114 1.378 . S
C2116 C2117 1.367 . S
C2117 C2116 1.367 . S
C2117 C2119 1.433 . S
C2118 C2114 1.350 . S
C2118 C2115 1.463 . S
C2118 N2122 1.427 . S
C2119 H2109 0.929 . S
C2119 C2117 1.433 . S
C2119 N2122 1.384 . S
C2120 H2111 0.929 . S
C2120 C2112 1.378 . S
C2120 C2115 1.350 . S
C2121 H2108 0.929 . S
C2121 C2113 1.433 . S
C2121 N2123 1.384 . S
N2122 C2118 1.427 . S
N2122 C2119 1.384 . S
N2123 C2115 1.427 . S
N2123 C2121 1.384 . S
H2124 C2130 0.930 . S
H2125 C2134 0.930 . S
H2126 C2139 0.929 . S
H2127 C2137 0.929 1_655 S
H2128 C2132 0.929 . S
H2129 C2138 0.929 . S
C2130 H2124 0.930 . S
C2130 C2131 1.367 . S
C2130 C2138 1.378 . S
C2131 C2130 1.367 . S
C2131 C2139 1.433 . S
C2132 H2128 0.929 . S
C2132 C2134 1.378 . S
C2132 C2136 1.350 . S
C2133 C2136 1.463 . S
C2133 C2138 1.350 . S
C2133 N2141 1.427 . S
C2134 H2125 0.930 . S
C2134 C2132 1.378 . S
C2134 C2135 1.367 . S
C2135 C2134 1.367 . S
C2135 C2137 1.433 . S
C2136 C2132 1.350 . S
C2136 C2133 1.463 . S
C2136 N2140 1.427 . S
C2137 H2127 0.929 1_455 S
C2137 C2135 1.433 . S
C2137 N2140 1.384 . S
C2138 H2129 0.929 . S
C2138 C2130 1.378 . S
C2138 C2133 1.350 . S
C2139 H2126 0.929 . S
C2139 C2131 1.433 . S
C2139 N2141 1.384 . S
N2140 C2136 1.427 . S
N2140 C2137 1.384 . S
N2141 C2133 1.427 . S
N2141 C2139 1.384 . S
H2142 C2148 0.930 . S
H2143 C2152 0.930 . S
H2144 C2157 0.929 . S
H2145 C2155 0.929 . S
H2146 C2150 0.929 . S
H2147 C2156 0.929 . S
C2148 H2142 0.930 . S
C2148 C2149 1.367 . S
C2148 C2156 1.378 . S
C2149 C2148 1.367 . S
C2149 C2157 1.433 . S
C2150 H2146 0.929 . S
C2150 C2152 1.378 . S
C2150 C2154 1.350 . S
C2151 C2154 1.463 . S
C2151 C2156 1.350 . S
C2151 N2159 1.427 . S
C2152 H2143 0.930 . S
C2152 C2150 1.378 . S
C2152 C2153 1.367 . S
C2153 C2152 1.367 . S
C2153 C2155 1.433 . S
C2154 C2150 1.350 . S
C2154 C2151 1.463 . S
C2154 N2158 1.427 . S
C2155 H2145 0.929 . S
C2155 C2153 1.433 . S
C2155 N2158 1.384 . S
C2156 H2147 0.929 . S
C2156 C2148 1.378 . S
C2156 C2151 1.350 . S
C2157 H2144 0.929 . S
C2157 C2149 1.433 . S
C2157 N2159 1.384 . S
N2158 C2154 1.427 . S
N2158 C2155 1.384 . S
N2159 C2151 1.427 . S
N2159 C2157 1.384 . S
H2160 C2166 0.930 . S
H2161 C2170 0.930 . S
H2162 C2175 0.929 . S
H2163 C2173 0.929 . S
H2164 C2168 0.929 . S
H2165 C2174 0.929 . S
C2166 H2160 0.930 . S
C2166 C2167 1.367 . S
C2166 C2174 1.378 . S
C2167 C2166 1.367 . S
C2167 C2175 1.433 . S
C2168 H2164 0.929 . S
C2168 C2170 1.378 . S
C2168 C2172 1.350 . S
C2169 C2172 1.463 . S
C2169 C2174 1.350 . S
C2169 N2177 1.427 . S
C2170 H2161 0.930 . S
C2170 C2168 1.378 . S
C2170 C2171 1.367 . S
C2171 C2170 1.367 . S
C2171 C2173 1.433 . S
C2172 C2168 1.350 . S
C2172 C2169 1.463 . S
C2172 N2176 1.427 . S
C2173 H2163 0.929 . S
C2173 C2171 1.433 . S
C2173 N2176 1.384 . S
C2174 H2165 0.929 . S
C2174 C2166 1.378 . S
C2174 C2169 1.350 . S
C2175 H2162 0.929 . S
C2175 C2167 1.433 . S
C2175 N2177 1.384 . S
N2176 C2172 1.427 . S
N2176 C2173 1.384 . S
N2177 C2169 1.427 . S
N2177 C2175 1.384 . S
H2178 C2184 0.930 . S
H2179 C2188 0.930 . S
H2180 C2193 0.929 . S
H2181 C2191 0.929 . S
H2182 C2186 0.929 . S
H2183 C2192 0.929 . S
C2184 H2178 0.930 . S
C2184 C2185 1.367 . S
C2184 C2192 1.378 . S
C2185 C2184 1.367 . S
C2185 C2193 1.433 . S
C2186 H2182 0.929 . S
C2186 C2188 1.378 . S
C2186 C2190 1.350 . S
C2187 C2190 1.463 . S
C2187 C2192 1.350 . S
C2187 N2195 1.427 . S
C2188 H2179 0.930 . S
C2188 C2186 1.378 . S
C2188 C2189 1.367 . S
C2189 C2188 1.367 . S
C2189 C2191 1.433 . S
C2190 C2186 1.350 . S
C2190 C2187 1.463 . S
C2190 N2194 1.427 . S
C2191 H2181 0.929 . S
C2191 C2189 1.433 . S
C2191 N2194 1.384 . S
C2192 H2183 0.929 . S
C2192 C2184 1.378 . S
C2192 C2187 1.350 . S
C2193 H2180 0.929 . S
C2193 C2185 1.433 . S
C2193 N2195 1.384 . S
N2194 C2190 1.427 . S
N2194 C2191 1.384 . S
N2195 C2187 1.427 . S
N2195 C2193 1.384 . S
H2196 C2202 0.930 . S
H2197 C2206 0.930 . S
H2198 C2211 0.929 . S
H2199 C2209 0.929 . S
H2200 C2204 0.929 . S
H2201 C2210 0.929 . S
C2202 H2196 0.930 . S
C2202 C2203 1.367 . S
C2202 C2210 1.378 . S
C2203 C2202 1.367 . S
C2203 C2211 1.433 . S
C2204 H2200 0.929 . S
C2204 C2206 1.378 . S
C2204 C2208 1.350 . S
C2205 C2208 1.463 . S
C2205 C2210 1.350 . S
C2205 N2213 1.427 . S
C2206 H2197 0.930 . S
C2206 C2204 1.378 . S
C2206 C2207 1.367 . S
C2207 C2206 1.367 . S
C2207 C2209 1.433 . S
C2208 C2204 1.350 . S
C2208 C2205 1.463 . S
C2208 N2212 1.427 . S
C2209 H2199 0.929 . S
C2209 C2207 1.433 . S
C2209 N2212 1.384 . S
C2210 H2201 0.929 . S
C2210 C2202 1.378 . S
C2210 C2205 1.350 . S
C2211 H2198 0.929 . S
C2211 C2203 1.433 . S
C2211 N2213 1.384 . S
N2212 C2208 1.427 . S
N2212 C2209 1.384 . S
N2213 C2205 1.427 . S
N2213 C2211 1.384 . S
H2214 C2220 0.930 . S
H2215 C2224 0.930 . S
H2216 C2229 0.929 . S
H2217 C2227 0.929 . S
H2218 C2222 0.929 . S
H2219 C2228 0.929 . S
C2220 H2214 0.930 . S
C2220 C2221 1.367 . S
C2220 C2228 1.378 . S
C2221 C2220 1.367 . S
C2221 C2229 1.433 . S
C2222 H2218 0.929 . S
C2222 C2224 1.378 . S
C2222 C2226 1.350 . S
C2223 C2226 1.463 . S
C2223 C2228 1.350 . S
C2223 N2231 1.427 . S
C2224 H2215 0.930 . S
C2224 C2222 1.378 . S
C2224 C2225 1.367 . S
C2225 C2224 1.367 . S
C2225 C2227 1.433 . S
C2226 C2222 1.350 . S
C2226 C2223 1.463 . S
C2226 N2230 1.427 . S
C2227 H2217 0.929 . S
C2227 C2225 1.433 . S
C2227 N2230 1.384 . S
C2228 H2219 0.929 . S
C2228 C2220 1.378 . S
C2228 C2223 1.350 . S
C2229 H2216 0.929 . S
C2229 C2221 1.433 . S
C2229 N2231 1.384 . S
N2230 C2226 1.427 . S
N2230 C2227 1.384 . S
N2231 C2223 1.427 . S
N2231 C2229 1.384 . S
H2232 C2238 0.930 . S
H2233 C2242 0.930 . S
H2234 C2247 0.929 1_655 S
H2235 C2245 0.929 . S
H2236 C2240 0.929 . S
H2237 C2246 0.929 . S
C2238 H2232 0.930 . S
C2238 C2239 1.367 . S
C2238 C2246 1.378 . S
C2239 C2238 1.367 . S
C2239 C2247 1.433 . S
C2240 H2236 0.929 . S
C2240 C2242 1.378 . S
C2240 C2244 1.350 . S
C2241 C2244 1.463 . S
C2241 C2246 1.350 . S
C2241 N2249 1.427 . S
C2242 H2233 0.930 . S
C2242 C2240 1.378 . S
C2242 C2243 1.367 . S
C2243 C2242 1.367 . S
C2243 C2245 1.433 . S
C2244 C2240 1.350 . S
C2244 C2241 1.463 . S
C2244 N2248 1.427 . S
C2245 H2235 0.929 . S
C2245 C2243 1.433 . S
C2245 N2248 1.384 . S
C2246 H2237 0.929 . S
C2246 C2238 1.378 . S
C2246 C2241 1.350 . S
C2247 H2234 0.929 1_455 S
C2247 C2239 1.433 . S
C2247 N2249 1.384 . S
N2248 C2244 1.427 . S
N2248 C2245 1.384 . S
N2249 C2241 1.427 . S
N2249 C2247 1.384 . S
H2250 C2256 0.930 . S
H2251 C2260 0.930 . S
H2252 C2265 0.929 . S
H2253 C2263 0.929 . S
H2254 C2258 0.929 . S
H2255 C2264 0.929 . S
C2256 H2250 0.930 . S
C2256 C2257 1.367 . S
C2256 C2264 1.378 . S
C2257 C2256 1.367 . S
C2257 C2265 1.433 . S
C2258 H2254 0.929 . S
C2258 C2260 1.378 . S
C2258 C2262 1.350 . S
C2259 C2262 1.463 . S
C2259 C2264 1.350 . S
C2259 N2267 1.427 . S
C2260 H2251 0.930 . S
C2260 C2258 1.378 . S
C2260 C2261 1.367 . S
C2261 C2260 1.367 . S
C2261 C2263 1.433 . S
C2262 C2258 1.350 . S
C2262 C2259 1.463 . S
C2262 N2266 1.427 . S
C2263 H2253 0.929 . S
C2263 C2261 1.433 . S
C2263 N2266 1.384 . S
C2264 H2255 0.929 . S
C2264 C2256 1.378 . S
C2264 C2259 1.350 . S
C2265 H2252 0.929 . S
C2265 C2257 1.433 . S
C2265 N2267 1.384 . S
N2266 C2262 1.427 . S
N2266 C2263 1.384 . S
N2267 C2259 1.427 . S
N2267 C2265 1.384 . S
H2268 C2274 0.930 . S
H2269 C2278 0.930 . S
H2270 C2283 0.929 1_655 S
H2271 C2281 0.929 . S
H2272 C2276 0.929 . S
H2273 C2282 0.929 . S
C2274 H2268 0.930 . S
C2274 C2275 1.367 . S
C2274 C2282 1.378 . S
C2275 C2274 1.367 . S
C2275 C2283 1.433 . S
C2276 H2272 0.929 . S
C2276 C2278 1.378 . S
C2276 C2280 1.350 . S
C2277 C2280 1.463 . S
C2277 C2282 1.350 . S
C2277 N2285 1.427 . S
C2278 H2269 0.930 . S
C2278 C2276 1.378 . S
C2278 C2279 1.367 . S
C2279 C2278 1.367 . S
C2279 C2281 1.433 . S
C2280 C2276 1.350 . S
C2280 C2277 1.463 . S
C2280 N2284 1.427 . S
C2281 H2271 0.929 . S
C2281 C2279 1.433 . S
C2281 N2284 1.384 . S
C2282 H2273 0.929 . S
C2282 C2274 1.378 . S
C2282 C2277 1.350 . S
C2283 H2270 0.929 1_455 S
C2283 C2275 1.433 . S
C2283 N2285 1.384 . S
N2284 C2280 1.427 . S
N2284 C2281 1.384 . S
N2285 C2277 1.427 . S
N2285 C2283 1.384 . S
H2286 C2292 0.930 . S
H2287 C2296 0.930 . S
H2288 C2301 0.929 . S
H2289 C2299 0.929 . S
H2290 C2294 0.929 . S
H2291 C2300 0.929 . S
C2292 H2286 0.930 . S
C2292 C2293 1.367 . S
C2292 C2300 1.378 . S
C2293 C2292 1.367 . S
C2293 C2301 1.433 . S
C2294 H2290 0.929 . S
C2294 C2296 1.378 . S
C2294 C2298 1.350 . S
C2295 C2298 1.463 . S
C2295 C2300 1.350 . S
C2295 N2303 1.427 . S
C2296 H2287 0.930 . S
C2296 C2294 1.378 . S
C2296 C2297 1.367 . S
C2297 C2296 1.367 . S
C2297 C2299 1.433 . S
C2298 C2294 1.350 . S
C2298 C2295 1.463 . S
C2298 N2302 1.427 . S
C2299 H2289 0.929 . S
C2299 C2297 1.433 . S
C2299 N2302 1.384 . S
C2300 H2291 0.929 . S
C2300 C2292 1.378 . S
C2300 C2295 1.350 . S
C2301 H2288 0.929 . S
C2301 C2293 1.433 . S
C2301 N2303 1.384 . S
N2302 C2298 1.427 . S
N2302 C2299 1.384 . S
N2303 C2295 1.427 . S
N2303 C2301 1.384 . S
C1159 C110 1.169 . S
C1163 C2 1.165 . S
C1177 C74 1.154 . S
C1181 C38 1.157 . S
C1195 C255 0.820 . S
C1199 C147 0.825 . S
C1213 C219 0.830 . S
C1217 C183 0.832 . S
C1231 C290 1.158 . S
C1235 C398 1.161 . S
C1249 C326 1.165 . S
C1253 C362 1.162 . S
C1267 C543 0.821 . S
C1271 C435 0.816 . S
C1285 C471 0.828 . S
C1289 C507 0.832 . S
C1303 C578 1.175 . S
C1307 C686 1.174 . S
C1321 C614 1.152 . S
C1325 C650 1.152 . S
C1339 C831 0.817 . S
C1343 C723 0.814 . S
C1357 C795 0.819 . S
C1361 C759 0.815 . S
C1375 C974 1.159 . S
C1379 C866 1.156 . S
C1393 C902 1.159 . S
C1397 C938 1.163 . S
C1411 C1011 0.824 . S
C1415 C1119 0.819 . S
C1429 C1047 0.818 . S
C1433 C1083 0.815 . S
C1447 C722 1.230 . S
C1451 C3 1.274 . S
C1465 C470 1.225 . S
C1469 C39 1.272 . S
C1483 C75 1.268 . S
C1487 C1082 1.221 . S
C1501 C111 1.268 . S
C1505 C254 1.221 . S
C1519 C579 1.265 . S
C1523 C146 1.216 . S
C1537 C327 1.264 . S
C1541 C182 1.211 . S
C1555 C939 1.263 . S
C1559 C218 1.212 . S
C1573 C291 1.269 . S
C1577 C1010 1.223 . S
C1591 C794 1.222 . S
C1595 C363 1.269 . S
C1609 C542 1.210 . S
C1613 C399 1.263 . S
C1627 C867 1.265 . S
C1631 C434 1.215 . S
C1645 C506 1.230 . S
C1649 C651 1.275 . S
C1663 C1046 1.212 . S
C1667 C615 1.263 . S
C1681 C687 1.270 . S
C1685 C830 1.219 . S
C1699 C903 1.275 . S
C1703 C758 1.230 . S
C1717 C1118 1.212 . S
C1721 C975 1.263 . S
C1735 C40 1.335 . S
C1739 C4 1.335 . S
C1753 C76 1.340 . S
C1757 C112 1.334 . S
C1771 C158 1.266 . S
C1775 C194 1.277 . S
C1789 C266 1.279 . S
C1793 C230 1.269 . S
C1807 C292 1.348 . S
C1811 C328 1.341 . S
C1825 C364 1.350 . S
C1829 C400 1.348 . S
C1843 C482 1.277 . S
C1847 C446 1.266 . S
C1861 C518 1.280 . S
C1865 C554 1.271 . S
C1879 C580 1.336 . S
C1883 C616 1.343 . S
C1897 C652 1.335 . S
C1901 C688 1.341 . S
C1915 C734 1.265 . S
C1919 C770 1.274 . S
C1933 C842 1.270 . S
C1937 C806 1.280 . S
C1951 C904 1.344 . S
C1955 C868 1.337 . S
C1969 C940 1.334 . S
C1973 C976 1.339 . S
C1987 C1022 1.266 . S
C1991 C1058 1.278 . S
C2005 C1130 1.278 . S
C2009 C1094 1.266 . S
C2023 C14 1.686 . S
C2027 C698 1.693 . S
C2041 C50 1.684 . S
C2045 C662 1.696 . S
C2059 C626 1.684 . S
C2063 C86 1.696 . S
C2077 C122 1.687 . S
C2081 C590 1.693 . S
C2095 C832 1.263 . S
C2099 C148 1.265 1_455 S
C2113 C184 1.273 . S
C2117 C796 1.271 . S
C2131 C760 1.270 . S
C2135 C220 1.272 1_455 S
C2149 C256 1.262 . S
C2153 C724 1.264 . S
C2167 C302 1.684 . S
C2171 C986 1.696 . S
C2185 C338 1.683 . S
C2189 C950 1.696 . S
C2203 C374 1.684 . S
C2207 C914 1.696 . S
C2221 C878 1.685 . S
C2225 C410 1.694 . S
C2239 C436 1.273 1_455 S
C2243 C1120 1.271 . S
C2257 C472 1.274 . S
C2261 C1084 1.274 . S
C2275 C508 1.272 1_455 S
C2279 C1048 1.271 . S
C2293 C1012 1.264 . S
C2297 C544 1.266 . S
