# Generated by pormake.
# Topology uku, (4)-cn, num edge types: 1
# Building blocks:
#     Node 0, Type 0, BuildingBlock: ICAMEG_clean_sbu_1, # of connection points: 4
#     Node 1, Type 0, BuildingBlock: ICAMEG_clean_sbu_1, # of connection points: 4
#     Node 2, Type 0, BuildingBlock: ICAMEG_clean_sbu_1, # of connection points: 4
#     Node 3, Type 0, BuildingBlock: ICAMEG_clean_sbu_1, # of connection points: 4
#     Node 4, Type 0, BuildingBlock: ICAMEG_clean_sbu_1, # of connection points: 4
#     Node 5, Type 0, BuildingBlock: ICAMEG_clean_sbu_1, # of connection points: 4
#     Node 6, Type 0, BuildingBlock: ICAMEG_clean_sbu_1, # of connection points: 4
#     Node 7, Type 0, BuildingBlock: ICAMEG_clean_sbu_1, # of connection points: 4
#     Node 8, Type 0, BuildingBlock: ICAMEG_clean_sbu_1, # of connection points: 4
#     Node 9, Type 0, BuildingBlock: ICAMEG_clean_sbu_1, # of connection points: 4
#     Node 10, Type 0, BuildingBlock: ICAMEG_clean_sbu_1, # of connection points: 4
#     Node 11, Type 0, BuildingBlock: ICAMEG_clean_sbu_1, # of connection points: 4
#     Edge 12, Type (0, 0), BuildingBlock: TEMPAE_clean_linker_10, # of connection points: 2
#     Edge 13, Type (0, 0), BuildingBlock: TEMPAE_clean_linker_10, # of connection points: 2
#     Edge 14, Type (0, 0), BuildingBlock: TEMPAE_clean_linker_10, # of connection points: 2
#     Edge 15, Type (0, 0), BuildingBlock: TEMPAE_clean_linker_10, # of connection points: 2
#     Edge 16, Type (0, 0), BuildingBlock: TEMPAE_clean_linker_10, # of connection points: 2
#     Edge 17, Type (0, 0), BuildingBlock: TEMPAE_clean_linker_10, # of connection points: 2
#     Edge 18, Type (0, 0), BuildingBlock: TEMPAE_clean_linker_10, # of connection points: 2
#     Edge 19, Type (0, 0), BuildingBlock: TEMPAE_clean_linker_10, # of connection points: 2
#     Edge 20, Type (0, 0), BuildingBlock: TEMPAE_clean_linker_10, # of connection points: 2
#     Edge 21, Type (0, 0), BuildingBlock: TEMPAE_clean_linker_10, # of connection points: 2
#     Edge 22, Type (0, 0), BuildingBlock: TEMPAE_clean_linker_10, # of connection points: 2
#     Edge 23, Type (0, 0), BuildingBlock: TEMPAE_clean_linker_10, # of connection points: 2
#     Edge 24, Type (0, 0), BuildingBlock: TEMPAE_clean_linker_10, # of connection points: 2
#     Edge 25, Type (0, 0), BuildingBlock: TEMPAE_clean_linker_10, # of connection points: 2
#     Edge 26, Type (0, 0), BuildingBlock: TEMPAE_clean_linker_10, # of connection points: 2
#     Edge 27, Type (0, 0), BuildingBlock: TEMPAE_clean_linker_10, # of connection points: 2
#     Edge 28, Type (0, 0), BuildingBlock: TEMPAE_clean_linker_10, # of connection points: 2
#     Edge 29, Type (0, 0), BuildingBlock: TEMPAE_clean_linker_10, # of connection points: 2
#     Edge 30, Type (0, 0), BuildingBlock: TEMPAE_clean_linker_10, # of connection points: 2
#     Edge 31, Type (0, 0), BuildingBlock: TEMPAE_clean_linker_10, # of connection points: 2
#     Edge 32, Type (0, 0), BuildingBlock: TEMPAE_clean_linker_10, # of connection points: 2
#     Edge 33, Type (0, 0), BuildingBlock: TEMPAE_clean_linker_10, # of connection points: 2
#     Edge 34, Type (0, 0), BuildingBlock: TEMPAE_clean_linker_10, # of connection points: 2
#     Edge 35, Type (0, 0), BuildingBlock: TEMPAE_clean_linker_10, # of connection points: 2
# Relax obj value: 0.340
# Max RMSD: 0.222
# Mean RMSD: 0.222
data_MOF--net-uku--node1-ICAMEG_clean_sbu_1--edge1-TEMPAE_clean_linker_10
_symmetry_space_group_name_H-M    P1
_symmetry_Int_Tables_number       1
_symmetry_cell_setting            triclinic
loop_
_symmetry_equiv_pos_as_xyz
'x, y, z'
_cell_length_a     43.673661
_cell_length_b     43.672867
_cell_length_c     43.6812
_cell_angle_alpha  89.987678
_cell_angle_beta   90.012529
_cell_angle_gamma 90.038421
loop_
_atom_site_label
_atom_site_type_symbol
_atom_site_fract_x
_atom_site_fract_y
_atom_site_fract_z
_atom_type_partial_charge
Co0 Co 0.06125 0.16394 0.67337 0.0
Co1 Co 0.10445 0.20708 0.62336 0.0
O2 O 0.06876 0.18177 0.63321 0.0
C3 C 0.05438 0.10972 0.63208 0.0
O4 O 0.08015 0.11682 0.61831 0.0
C5 C 0.0513 0.24386 0.60411 0.0
O6 O 0.03992 0.2394 0.63157 0.0
O7 O 0.09733 0.23401 0.6596 0.0
O8 O 0.07699 0.20148 0.69406 0.0
H9 H 0.20257 0.26364 0.64435 0.0
H10 H 0.01149 0.1669 0.62735 0.0
O11 O 0.04441 0.12611 0.65398 0.0
H12 H 0.97276 0.22371 0.71685 0.0
H13 H 0.00132 0.10362 0.75136 0.0
H14 H 0.09633 0.16133 0.73135 0.0
H15 H 0.0237 0.19938 0.71814 0.0
H16 H 0.01044 0.12726 0.70091 0.0
O17 O 0.07772 0.23358 0.59742 0.0
H18 H 0.15801 0.23153 0.65739 0.0
H19 H 0.12586 0.237 0.5659 0.0
H20 H 0.08799 0.13832 0.78225 0.0
H21 H 0.96026 0.19054 0.62516 0.0
H22 H 0.0402 0.1092 0.7925 0.0
H23 H 0.94065 0.21932 0.67009 0.0
O24 O 0.10319 0.14572 0.67385 0.0
H25 H 0.07426 0.1481 0.52925 0.0
H26 H 0.15921 0.17459 0.59881 0.0
H27 H 0.16874 0.14002 0.55519 0.0
H28 H 0.1261 0.12663 0.52001 0.0
H29 H 0.06565 0.18227 0.57332 0.0
H30 H 0.16995 0.26936 0.5518 0.0
H31 H 0.20876 0.28281 0.59115 0.0
O32 O 0.13159 0.18101 0.64916 0.0
C33 C 0.0884 0.22729 0.68662 0.0
C34 C 0.18584 0.25794 0.62698 0.0
C35 C 0.1675 0.26117 0.57506 0.0
N36 N 0.13936 0.23237 0.61251 0.0
C37 C 0.16057 0.23974 0.63427 0.0
C38 C 0.14252 0.24292 0.58321 0.0
C39 C 0.18928 0.2687 0.59714 0.0
C40 C 0.00299 0.17915 0.64709 0.0
N41 N 0.02059 0.18182 0.67283 0.0
C42 C 0.974 0.19256 0.64569 0.0
C43 C 0.96304 0.20875 0.67088 0.0
C44 C 0.98106 0.21126 0.69711 0.0
C45 C 0.00994 0.19756 0.69767 0.0
C46 C 0.02221 0.11628 0.74719 0.0
C47 C 0.07539 0.14884 0.7357 0.0
C48 C 0.02755 0.12964 0.71862 0.0
N49 N 0.05382 0.1458 0.71324 0.0
C50 C 0.07084 0.1358 0.76454 0.0
C51 C 0.04403 0.11943 0.77026 0.0
C52 C 0.12888 0.15721 0.66585 0.0
C53 C 0.09305 0.15383 0.54437 0.0
C54 C 0.14051 0.16878 0.58366 0.0
C55 C 0.14606 0.14925 0.55896 0.0
C56 C 0.12213 0.14176 0.53922 0.0
N57 N 0.11194 0.18058 0.58852 0.0
C58 C 0.08835 0.17328 0.56929 0.0
Co59 Co 0.92959 0.85815 0.67014 0.0
Co60 Co 0.89507 0.81088 0.61833 0.0
O61 O 0.92813 0.83896 0.62976 0.0
C62 C 0.94188 0.91093 0.62825 0.0
O63 O 0.91807 0.90329 0.61155 0.0
C64 C 0.95161 0.77865 0.60088 0.0
O65 O 0.96306 0.78644 0.62753 0.0
O66 O 0.90379 0.78488 0.65467 0.0
O67 O 0.91092 0.82133 0.69007 0.0
H68 H 0.80237 0.74553 0.63781 0.0
H69 H 0.98635 0.85568 0.63301 0.0
O70 O 0.94883 0.89542 0.65191 0.0
H71 H 0.01061 0.80019 0.7283 0.0
H72 H 0.9773 0.92188 0.75362 0.0
H73 H 0.88613 0.86317 0.72207 0.0
H74 H 0.95959 0.8231 0.72067 0.0
H75 H 0.97576 0.89609 0.70343 0.0
O76 O 0.9245 0.78627 0.5936 0.0
H77 H 0.84376 0.78139 0.65163 0.0
H78 H 0.87732 0.77934 0.56039 0.0
H79 H 0.88678 0.88842 0.77252 0.0
H80 H 0.03779 0.83347 0.63988 0.0
H81 H 0.93263 0.91804 0.78861 0.0
H82 H 0.05016 0.80539 0.68776 0.0
O83 O 0.88801 0.8755 0.66365 0.0
H84 H 0.92374 0.87179 0.52506 0.0
H85 H 0.83856 0.83814 0.59113 0.0
H86 H 0.82786 0.87138 0.54675 0.0
H87 H 0.87062 0.88836 0.51331 0.0
H88 H 0.93346 0.83884 0.56987 0.0
H89 H 0.83645 0.74322 0.54564 0.0
H90 H 0.79852 0.7262 0.58446 0.0
O91 O 0.86458 0.83492 0.64267 0.0
C92 C 0.90563 0.79365 0.68242 0.0
C93 C 0.81869 0.75286 0.62066 0.0
C94 C 0.83784 0.75154 0.56894 0.0
N95 N 0.86275 0.78267 0.60678 0.0
C96 C 0.84213 0.77323 0.62833 0.0
C97 C 0.86097 0.77194 0.57744 0.0
C98 C 0.81657 0.742 0.59073 0.0
C99 C 0.99167 0.84381 0.65406 0.0
N100 N 0.97001 0.84079 0.67643 0.0
C101 C 0.02079 0.83115 0.65776 0.0
C102 C 0.02769 0.81534 0.6846 0.0
C103 C 0.0055 0.81239 0.70734 0.0
C104 C 0.97661 0.82532 0.70283 0.0
C105 C 0.95722 0.90898 0.7469 0.0
C106 C 0.90624 0.87584 0.72896 0.0
C107 C 0.9562 0.89437 0.71848 0.0
N108 N 0.93097 0.87792 0.7099 0.0
C109 C 0.90644 0.89017 0.75753 0.0
C110 C 0.93215 0.90681 0.76653 0.0
C111 C 0.86385 0.86077 0.6563 0.0
C112 C 0.9049 0.86449 0.53941 0.0
C113 C 0.85731 0.84555 0.57677 0.0
C114 C 0.8511 0.8643 0.55163 0.0
C115 C 0.8751 0.8738 0.53286 0.0
N116 N 0.8866 0.83644 0.583 0.0
C117 C 0.91025 0.84572 0.56475 0.0
Co118 Co 0.06501 0.83323 0.32726 0.0
Co119 Co 0.11273 0.80538 0.38435 0.0
O120 O 0.0746 0.82443 0.37008 0.0
C121 C 0.0572 0.89355 0.35821 0.0
O122 O 0.08225 0.88851 0.37405 0.0
C123 C 0.06314 0.76552 0.40665 0.0
O124 O 0.05046 0.76805 0.37954 0.0
O125 O 0.11151 0.77349 0.35149 0.0
O126 O 0.08118 0.79293 0.31469 0.0
H127 H 0.21861 0.76189 0.37283 0.0
H128 H 0.01653 0.83991 0.37433 0.0
O129 O 0.04791 0.87398 0.33875 0.0
H130 H 0.97729 0.76279 0.30179 0.0
H131 H 0.99999 0.87347 0.24088 0.0
H132 H 0.09721 0.82314 0.26839 0.0
H133 H 0.02771 0.78687 0.29361 0.0
H134 H 0.01213 0.86208 0.29483 0.0
O135 O 0.08883 0.77806 0.41214 0.0
H136 H 0.17058 0.78551 0.35486 0.0
H137 H 0.1354 0.78509 0.44551 0.0
H138 H 0.08582 0.83372 0.21414 0.0
H139 H 0.96574 0.81679 0.38308 0.0
H140 H 0.03691 0.85914 0.20008 0.0
H141 H 0.94588 0.77782 0.34674 0.0
O142 O 0.1063 0.85197 0.32061 0.0
H143 H 0.06903 0.86952 0.46927 0.0
H144 H 0.16126 0.84715 0.40818 0.0
H145 H 0.16336 0.88721 0.44792 0.0
H146 H 0.11701 0.89856 0.47886 0.0
H147 H 0.06784 0.83 0.42901 0.0
H148 H 0.18295 0.76121 0.46442 0.0
H149 H 0.22501 0.74956 0.42798 0.0
O150 O 0.1371 0.83239 0.35709 0.0
C151 C 0.09844 0.77214 0.32541 0.0
C152 C 0.20047 0.7669 0.38894 0.0
C153 C 0.18043 0.76648 0.44034 0.0
N154 N 0.15026 0.78678 0.39912 0.0
C155 C 0.17324 0.78033 0.37891 0.0
C156 C 0.15352 0.77991 0.42948 0.0
C157 C 0.20403 0.75996 0.41988 0.0
C158 C 0.00788 0.82324 0.35821 0.0
N159 N 0.02501 0.81488 0.3334 0.0
C160 C 0.97916 0.81013 0.36335 0.0
C161 C 0.96806 0.78822 0.34299 0.0
C162 C 0.98568 0.77976 0.31778 0.0
C163 C 0.01427 0.79339 0.31333 0.0
C164 C 0.02139 0.86243 0.24672 0.0
C165 C 0.07584 0.83411 0.26247 0.0
C166 C 0.02845 0.85605 0.27725 0.0
N167 N 0.05537 0.84198 0.28478 0.0
C168 C 0.06954 0.84009 0.2317 0.0
C169 C 0.04211 0.85436 0.22383 0.0
C170 C 0.1324 0.84899 0.33356 0.0
C171 C 0.08939 0.86478 0.45597 0.0
C172 C 0.14096 0.85213 0.42137 0.0
C173 C 0.14231 0.87475 0.44394 0.0
C174 C 0.1163 0.88108 0.46131 0.0
N175 N 0.11448 0.83624 0.41627 0.0
C176 C 0.08889 0.84233 0.4332 0.0
Co177 Co 0.93444 0.15231 0.3226 0.0
Co178 Co 0.89243 0.18157 0.38289 0.0
O179 O 0.92798 0.16045 0.36593 0.0
C180 C 0.9402 0.09142 0.35213 0.0
O181 O 0.91501 0.0972 0.36747 0.0
C182 C 0.9233 0.23091 0.41851 0.0
O183 O 0.90602 0.25131 0.40473 0.0
O184 O 0.89667 0.21571 0.35251 0.0
O185 O 0.9195 0.19369 0.31187 0.0
H186 H 0.79261 0.23861 0.37885 0.0
H187 H 0.98507 0.14318 0.36698 0.0
O188 O 0.95028 0.11065 0.33271 0.0
H189 H 0.02376 0.21874 0.2925 0.0
H190 H 0.9918 0.11014 0.2319 0.0
H191 H 0.89958 0.16562 0.26589 0.0
H192 H 0.97194 0.19699 0.28704 0.0
H193 H 0.98346 0.12102 0.28667 0.0
O194 O 0.92091 0.20265 0.41177 0.0
H195 H 0.83725 0.2116 0.35729 0.0
H196 H 0.87265 0.19677 0.44661 0.0
H197 H 0.9072 0.15558 0.21089 0.0
H198 H 0.03717 0.16412 0.37313 0.0
H199 H 0.95357 0.12759 0.19357 0.0
H200 H 0.05682 0.20223 0.33574 0.0
O201 O 0.89197 0.13582 0.31818 0.0
H202 H 0.93084 0.1047 0.45953 0.0
H203 H 0.84006 0.14348 0.40483 0.0
H204 H 0.83451 0.10007 0.44048 0.0
H205 H 0.88012 0.08043 0.4682 0.0
H206 H 0.93541 0.14775 0.42333 0.0
H207 H 0.82846 0.22373 0.46917 0.0
H208 H 0.78803 0.24484 0.43519 0.0
O209 O 0.86418 0.16006 0.35423 0.0
C210 C 0.90668 0.21624 0.32504 0.0
C211 C 0.81009 0.22953 0.3939 0.0
C212 C 0.83021 0.22118 0.44459 0.0
N213 N 0.85755 0.20268 0.40064 0.0
C214 C 0.83541 0.21422 0.38181 0.0
C215 C 0.85519 0.20599 0.43168 0.0
C216 C 0.80753 0.23302 0.42551 0.0
C217 C 0.99353 0.1596 0.3505 0.0
N218 N 0.97553 0.16873 0.3266 0.0
C219 C 0.02302 0.17144 0.35415 0.0
C220 C 0.03402 0.19284 0.33318 0.0
C221 C 0.01548 0.20213 0.30892 0.0
C222 C 0.98612 0.18979 0.306 0.0
C223 C 0.97149 0.12233 0.23916 0.0
C224 C 0.91987 0.15353 0.25854 0.0
C225 C 0.96658 0.12843 0.27016 0.0
N226 N 0.94106 0.14395 0.27948 0.0
C227 C 0.92403 0.14786 0.22736 0.0
C228 C 0.95004 0.13215 0.21766 0.0
C229 C 0.86652 0.14247 0.33104 0.0
C230 C 0.91078 0.11308 0.44764 0.0
C231 C 0.86004 0.13492 0.41659 0.0
C232 C 0.85674 0.11042 0.43688 0.0
C233 C 0.88233 0.09944 0.45245 0.0
N234 N 0.88801 0.14819 0.41197 0.0
C235 C 0.91319 0.13757 0.42721 0.0
Co236 Co 0.66916 0.06118 0.15384 0.0
Co237 Co 0.61489 0.10834 0.18748 0.0
O238 O 0.62724 0.07106 0.16579 0.0
C239 C 0.63356 0.05638 0.09575 0.0
O240 O 0.6185 0.08131 0.10316 0.0
C241 C 0.59451 0.05717 0.22626 0.0
O242 O 0.62147 0.04477 0.2217 0.0
O243 O 0.64956 0.10492 0.21722 0.0
O244 O 0.68477 0.07534 0.19402 0.0
H245 H 0.63091 0.21166 0.23554 0.0
H246 H 0.62055 0.01401 0.14842 0.0
O247 O 0.65453 0.04614 0.11319 0.0
H248 H 0.69729 0.96996 0.21853 0.0
H249 H 0.75109 0.99658 0.10475 0.0
H250 H 0.72934 0.0917 0.16149 0.0
H251 H 0.70513 0.02111 0.1959 0.0
H252 H 0.69834 0.00914 0.12046 0.0
O253 O 0.58824 0.0833 0.21506 0.0
H254 H 0.64657 0.16468 0.20845 0.0
H255 H 0.55548 0.13079 0.21249 0.0
H256 H 0.78246 0.0799 0.1465 0.0
H257 H 0.61199 0.96262 0.17019 0.0
H258 H 0.79361 0.03204 0.11787 0.0
H259 H 0.65047 0.94032 0.20563 0.0
O260 O 0.67544 0.10318 0.13664 0.0
H261 H 0.52568 0.0695 0.12597 0.0
H262 H 0.58987 0.15936 0.14963 0.0
H263 H 0.54809 0.1642 0.11193 0.0
H264 H 0.51561 0.11905 0.09993 0.0
H265 H 0.56792 0.06559 0.1632 0.0
H266 H 0.53887 0.17731 0.23986 0.0
H267 H 0.5767 0.2182 0.25145 0.0
O268 O 0.64114 0.13368 0.16021 0.0
C269 C 0.67559 0.09169 0.21627 0.0
C270 C 0.6142 0.19403 0.23059 0.0
C271 C 0.56255 0.17473 0.23305 0.0
N272 N 0.60195 0.14506 0.20883 0.0
C273 C 0.62293 0.16739 0.21521 0.0
C274 C 0.57211 0.14839 0.21764 0.0
C275 C 0.58379 0.19767 0.23953 0.0
C276 C 0.63757 0.00432 0.16353 0.0
N277 N 0.66337 0.0205 0.17077 0.0
C278 C 0.63254 0.97526 0.1759 0.0
C279 C 0.65411 0.96279 0.19583 0.0
C280 C 0.68036 0.97942 0.2031 0.0
C281 C 0.68463 0.00842 0.19029 0.0
C282 C 0.74652 0.01752 0.11717 0.0
C283 C 0.73401 0.07081 0.14909 0.0
C284 C 0.71667 0.02483 0.12601 0.0
N285 N 0.71074 0.05117 0.14183 0.0
C286 C 0.76413 0.06426 0.14064 0.0
C287 C 0.77037 0.03741 0.12457 0.0
C288 C 0.66345 0.12937 0.14189 0.0
C289 C 0.53963 0.08935 0.13104 0.0
C290 C 0.57595 0.13959 0.14439 0.0
C291 C 0.55226 0.14248 0.12311 0.0
C292 C 0.53403 0.11715 0.11641 0.0
N293 N 0.58131 0.11225 0.15865 0.0
C294 C 0.56351 0.08732 0.15221 0.0
Co295 Co 0.32977 0.93435 0.15533 0.0
Co296 Co 0.38336 0.88906 0.19253 0.0
O297 O 0.37135 0.92567 0.16941 0.0
C298 C 0.36788 0.93947 0.09869 0.0
O299 O 0.3839 0.91549 0.10718 0.0
C300 C 0.40159 0.94151 0.23082 0.0
O301 O 0.37464 0.95348 0.22508 0.0
O302 O 0.34739 0.89259 0.22063 0.0
O303 O 0.31266 0.92072 0.19507 0.0
H304 H 0.36677 0.78666 0.24234 0.0
H305 H 0.37751 0.98253 0.15106 0.0
O306 O 0.34575 0.94895 0.11507 0.0
H307 H 0.29628 0.02659 0.21586 0.0
H308 H 0.24857 0.99594 0.10128 0.0
H309 H 0.27015 0.90234 0.16061 0.0
H310 H 0.29089 0.9746 0.19451 0.0
H311 H 0.3008 0.98512 0.11977 0.0
O312 O 0.40835 0.91507 0.22069 0.0
H313 H 0.35167 0.83269 0.21335 0.0
H314 H 0.44194 0.86818 0.22079 0.0
H315 H 0.21752 0.9124 0.14284 0.0
H316 H 0.38352 0.03489 0.17132 0.0
H317 H 0.20646 0.95948 0.1129 0.0
H318 H 0.34282 0.05717 0.20415 0.0
O319 O 0.32529 0.89192 0.13868 0.0
H320 H 0.47498 0.92806 0.13479 0.0
H321 H 0.41108 0.83766 0.15713 0.0
H322 H 0.45486 0.83269 0.12182 0.0
H323 H 0.48722 0.87811 0.11052 0.0
H324 H 0.43072 0.9321 0.16954 0.0
H325 H 0.45797 0.82263 0.25008 0.0
H326 H 0.42027 0.78141 0.26093 0.0
O327 O 0.35888 0.86261 0.16464 0.0
C328 C 0.32117 0.90524 0.21819 0.0
C329 C 0.38342 0.80443 0.23772 0.0
C330 C 0.43459 0.82465 0.24209 0.0
N331 N 0.39591 0.85305 0.2153 0.0
C332 C 0.37501 0.83053 0.22127 0.0
C333 C 0.42536 0.85043 0.22558 0.0
C334 C 0.41344 0.80152 0.24816 0.0
C335 C 0.35952 0.9922 0.16503 0.0
N336 N 0.33385 0.97553 0.17155 0.0
C337 C 0.36311 0.02182 0.17652 0.0
C338 C 0.34029 0.03429 0.195 0.0
C339 C 0.3142 0.01712 0.20161 0.0
C340 C 0.31135 0.98763 0.1896 0.0
C341 C 0.2531 0.97533 0.11427 0.0
C342 C 0.26551 0.92291 0.14767 0.0
C343 C 0.28267 0.96901 0.12468 0.0
N344 N 0.28855 0.94309 0.14121 0.0
C345 C 0.23566 0.92847 0.13763 0.0
C346 C 0.22948 0.95487 0.12082 0.0
C347 C 0.33752 0.8661 0.14504 0.0
C348 C 0.46107 0.9081 0.13953 0.0
C349 C 0.42488 0.85757 0.15211 0.0
C350 C 0.44973 0.85459 0.13221 0.0
C351 C 0.4679 0.88008 0.12591 0.0
N352 N 0.41832 0.88512 0.16538 0.0
C353 C 0.43603 0.91021 0.1593 0.0
Co354 Co 0.66556 0.92744 0.84545 0.0
Co355 Co 0.61416 0.89108 0.79943 0.0
O356 O 0.62495 0.92491 0.82684 0.0
C357 C 0.62477 0.94019 0.89894 0.0
O358 O 0.60889 0.91533 0.89304 0.0
C359 C 0.59316 0.94673 0.76747 0.0
O360 O 0.61936 0.95963 0.77456 0.0
O361 O 0.64969 0.90105 0.77267 0.0
O362 O 0.68529 0.90808 0.80894 0.0
H363 H 0.63592 0.79846 0.73481 0.0
H364 H 0.62783 0.98375 0.84193 0.0
O365 O 0.64753 0.94747 0.88231 0.0
H366 H 0.72232 0.00762 0.78492 0.0
H367 H 0.74916 0.97759 0.90717 0.0
H368 H 0.71816 0.88482 0.85078 0.0
H369 H 0.7154 0.95709 0.80911 0.0
H370 H 0.69868 0.97484 0.882 0.0
O371 O 0.58769 0.91919 0.77507 0.0
H372 H 0.64883 0.84074 0.76994 0.0
H373 H 0.55634 0.87077 0.76918 0.0
H374 H 0.76888 0.88667 0.87544 0.0
H375 H 0.63401 0.03474 0.81849 0.0
H376 H 0.78469 0.93333 0.90389 0.0
H377 H 0.68149 0.04691 0.78962 0.0
O378 O 0.65967 0.88627 0.86392 0.0
H379 H 0.52135 0.91686 0.86222 0.0
H380 H 0.58947 0.83379 0.82756 0.0
H381 H 0.54622 0.82176 0.8618 0.0
H382 H 0.51174 0.86345 0.87929 0.0
H383 H 0.56507 0.92793 0.82825 0.0
H384 H 0.54249 0.82898 0.7338 0.0
H385 H 0.5824 0.79238 0.7165 0.0
O386 O 0.64005 0.8617 0.82339 0.0
C387 C 0.67749 0.90318 0.78125 0.0
C388 C 0.6183 0.8142 0.74226 0.0
C389 C 0.56587 0.83136 0.74166 0.0
N390 N 0.60332 0.85804 0.77181 0.0
C391 C 0.62546 0.83814 0.76221 0.0
C392 C 0.57387 0.85501 0.76165 0.0
C393 C 0.58828 0.81082 0.73197 0.0
C394 C 0.64871 0.98898 0.82972 0.0
N395 N 0.67124 0.96746 0.82696 0.0
C396 C 0.65201 0.01785 0.81636 0.0
C397 C 0.67863 0.02464 0.80011 0.0
C398 C 0.70153 0.0026 0.79744 0.0
C399 C 0.69742 0.97397 0.81109 0.0
C400 C 0.74255 0.95717 0.89478 0.0
C401 C 0.72491 0.90527 0.86295 0.0
C402 C 0.71397 0.95545 0.88053 0.0
N403 N 0.70554 0.92978 0.86472 0.0
C404 C 0.75365 0.90616 0.87694 0.0
C405 C 0.76249 0.93232 0.89293 0.0
C406 C 0.65314 0.8617 0.84954 0.0
C407 C 0.53616 0.89848 0.8547 0.0
C408 C 0.57465 0.85208 0.83517 0.0
C409 C 0.55015 0.84512 0.8545 0.0
C410 C 0.5308 0.86852 0.86429 0.0
N411 N 0.5797 0.88152 0.82579 0.0
C412 C 0.56088 0.90459 0.83537 0.0
Co413 Co 0.32731 0.06074 0.84815 0.0
Co414 Co 0.37638 0.10433 0.80429 0.0
O415 O 0.36712 0.06823 0.8292 0.0
C416 C 0.37038 0.05171 0.90058 0.0
O417 O 0.38376 0.07792 0.89435 0.0
C418 C 0.39475 0.05154 0.7666 0.0
O419 O 0.36866 0.03854 0.77388 0.0
O420 O 0.33906 0.09778 0.77866 0.0
O421 O 0.30545 0.07837 0.81231 0.0
H422 H 0.352 0.20346 0.75131 0.0
H423 H 0.37163 0.00947 0.84352 0.0
O424 O 0.34792 0.04243 0.88454 0.0
H425 H 0.28057 0.97559 0.78596 0.0
H426 H 0.25139 0.999 0.90927 0.0
H427 H 0.26939 0.09571 0.85394 0.0
H428 H 0.28145 0.02614 0.81108 0.0
H429 H 0.30096 0.00891 0.88415 0.0
O430 O 0.40083 0.07847 0.77572 0.0
H431 H 0.34081 0.15796 0.78286 0.0
H432 H 0.43227 0.12679 0.77191 0.0
H433 H 0.21938 0.0867 0.87849 0.0
H434 H 0.3715 0.95854 0.81917 0.0
H435 H 0.21012 0.03802 0.90644 0.0
H436 H 0.32579 0.94136 0.79001 0.0
O437 O 0.32782 0.10212 0.86757 0.0
H438 H 0.47204 0.07092 0.85879 0.0
H439 H 0.40502 0.15845 0.83474 0.0
H440 H 0.45052 0.16647 0.86721 0.0
H441 H 0.48448 0.12249 0.87935 0.0
H442 H 0.42601 0.0639 0.82689 0.0
H443 H 0.44436 0.17181 0.74 0.0
H444 H 0.4041 0.2106 0.72964 0.0
O445 O 0.3526 0.13105 0.83277 0.0
C446 C 0.31198 0.08997 0.78638 0.0
C447 C 0.36976 0.18677 0.75574 0.0
C448 C 0.42159 0.16897 0.74935 0.0
N449 N 0.38591 0.13988 0.77941 0.0
C450 C 0.36359 0.16101 0.77366 0.0
C451 C 0.41458 0.14349 0.76736 0.0
C452 C 0.39899 0.19074 0.74356 0.0
C453 C 0.35149 0.00201 0.8312 0.0
N454 N 0.32652 0.02072 0.82886 0.0
C455 C 0.35162 0.97321 0.81733 0.0
C456 C 0.32599 0.96361 0.80092 0.0
C457 C 0.30062 0.98282 0.7986 0.0
C458 C 0.3013 0.01147 0.81278 0.0
C459 C 0.25513 0.0203 0.89715 0.0
C460 C 0.2655 0.07447 0.86594 0.0
C461 C 0.2832 0.02609 0.88295 0.0
N462 N 0.28806 0.05289 0.8675 0.0
C463 C 0.23715 0.06949 0.87985 0.0
C464 C 0.23198 0.04219 0.89555 0.0
C465 C 0.33655 0.12801 0.85701 0.0
C466 C 0.45741 0.09026 0.85371 0.0
C467 C 0.41943 0.13918 0.84027 0.0
C468 C 0.44529 0.14387 0.85849 0.0
C469 C 0.46435 0.11919 0.86525 0.0
N470 N 0.41271 0.11074 0.82909 0.0
C471 C 0.43134 0.08645 0.83559 0.0
Co472 Co 0.15603 0.68126 0.06305 0.0
Co473 Co 0.18987 0.61976 0.09948 0.0
O474 O 0.16646 0.63803 0.06609 0.0
C475 C 0.09664 0.64885 0.0581 0.0
O476 O 0.10478 0.63214 0.08172 0.0
C477 C 0.23898 0.58786 0.06462 0.0
O478 O 0.25964 0.60129 0.08188 0.0
O479 O 0.22249 0.65178 0.09562 0.0
O480 O 0.19765 0.69296 0.07689 0.0
H481 H 0.25152 0.61992 0.19663 0.0
H482 H 0.14638 0.6401 0.00986 0.0
O483 O 0.11409 0.67012 0.04848 0.0
H484 H 0.21673 0.72053 0.97326 0.0
H485 H 0.10699 0.77338 0.01401 0.0
H486 H 0.16815 0.73603 0.10125 0.0
H487 H 0.19732 0.72134 0.02626 0.0
H488 H 0.12088 0.71879 0.01802 0.0
O489 O 0.21066 0.59364 0.06835 0.0
H490 H 0.22171 0.64311 0.15465 0.0
H491 H 0.20818 0.55554 0.11461 0.0
H492 H 0.15507 0.79085 0.09798 0.0
H493 H 0.16499 0.63859 0.95657 0.0
H494 H 0.12423 0.80985 0.05412 0.0
H495 H 0.20046 0.67899 0.93797 0.0
O496 O 0.14138 0.68199 0.10636 0.0
H497 H 0.11439 0.54245 0.05955 0.0
H498 H 0.15496 0.59309 0.1519 0.0
H499 H 0.11319 0.55544 0.15696 0.0
H500 H 0.09266 0.52977 0.11054 0.0
H501 H 0.15581 0.58057 0.05552 0.0
H502 H 0.23793 0.53139 0.15609 0.0
H503 H 0.25981 0.56366 0.19752 0.0
O504 O 0.16872 0.64558 0.13048 0.0
C505 C 0.22137 0.67989 0.08762 0.0
C506 C 0.24212 0.60562 0.17871 0.0
C507 C 0.2345 0.55594 0.15595 0.0
N508 N 0.21328 0.60073 0.13218 0.0
C509 C 0.22524 0.61863 0.15488 0.0
C510 C 0.21771 0.56974 0.13251 0.0
C511 C 0.24676 0.57405 0.17919 0.0
C512 C 0.16164 0.65788 0.00188 0.0
N513 N 0.17062 0.68087 0.02111 0.0
C514 C 0.17217 0.65685 0.9717 0.0
C515 C 0.1921 0.67951 0.96129 0.0
C516 C 0.20125 0.70282 0.98108 0.0
C517 C 0.19024 0.70311 0.01109 0.0
C518 C 0.12043 0.76538 0.03323 0.0
C519 C 0.15484 0.74414 0.08203 0.0
C520 C 0.12826 0.73447 0.03568 0.0
N521 N 0.14536 0.72425 0.05982 0.0
C522 C 0.14745 0.7752 0.08033 0.0
C523 C 0.13013 0.78583 0.05573 0.0
C524 C 0.14995 0.66792 0.13055 0.0
C525 C 0.1232 0.55342 0.07996 0.0
C526 C 0.14601 0.58221 0.1316 0.0
C527 C 0.12245 0.56079 0.13461 0.0
C528 C 0.11097 0.54636 0.10856 0.0
N529 N 0.15789 0.58905 0.10347 0.0
C530 C 0.14679 0.57492 0.07784 0.0
Co531 Co 0.16627 0.32819 0.9461 0.0
Co532 Co 0.19821 0.38075 0.89592 0.0
O533 O 0.1789 0.36958 0.93481 0.0
C534 C 0.10847 0.3639 0.95327 0.0
O535 O 0.11319 0.37665 0.92645 0.0
C536 C 0.24247 0.39967 0.94324 0.0
O537 O 0.2389 0.37253 0.95566 0.0
O538 O 0.22666 0.34494 0.89746 0.0
O539 O 0.20477 0.311 0.92945 0.0
H540 H 0.23775 0.36181 0.78958 0.0
H541 H 0.16599 0.37768 0.99254 0.0
O542 O 0.12735 0.34439 0.96381 0.0
H543 H 0.23694 0.29957 0.03262 0.0
H544 H 0.11906 0.24894 0.01536 0.0
H545 H 0.16933 0.26745 0.91599 0.0
H546 H 0.21 0.29144 0.98366 0.0
H547 H 0.13576 0.30092 0.00088 0.0
O548 O 0.2287 0.40633 0.91843 0.0
H549 H 0.21364 0.34771 0.83866 0.0
H550 H 0.22391 0.43889 0.87091 0.0
H551 H 0.15326 0.21507 0.92967 0.0
H552 H 0.19225 0.38663 0.04172 0.0
H553 H 0.12789 0.20556 0.97968 0.0
H554 H 0.22811 0.34746 0.06201 0.0
O555 O 0.14586 0.32195 0.90544 0.0
H556 H 0.144 0.47289 0.9384 0.0
H557 H 0.15788 0.40727 0.84761 0.0
H558 H 0.12198 0.45078 0.84517 0.0
H559 H 0.11493 0.48401 0.89078 0.0
H560 H 0.17928 0.42889 0.93995 0.0
H561 H 0.24841 0.45391 0.82228 0.0
H562 H 0.25534 0.41525 0.78116 0.0
O563 O 0.16794 0.35563 0.8731 0.0
C564 C 0.22596 0.31924 0.91131 0.0
C565 C 0.2348 0.37888 0.8073 0.0
C566 C 0.24082 0.43056 0.82567 0.0
N567 N 0.21723 0.39249 0.85755 0.0
C568 C 0.22109 0.37105 0.83511 0.0
C569 C 0.22702 0.4219 0.85319 0.0
C570 C 0.24469 0.40886 0.8026 0.0
C571 C 0.18129 0.36037 0.00139 0.0
N572 N 0.18631 0.33399 0.98533 0.0
C573 C 0.19617 0.36561 0.0292 0.0
C574 C 0.21634 0.34365 0.04054 0.0
C575 C 0.22133 0.31679 0.02404 0.0
C576 C 0.20605 0.31234 0.99631 0.0
C577 C 0.13009 0.2528 0.99351 0.0
C578 C 0.15841 0.26348 0.93783 0.0
C579 C 0.1395 0.2822 0.98514 0.0
N580 N 0.15356 0.28721 0.95763 0.0
C581 C 0.14931 0.23377 0.94544 0.0
C582 C 0.13506 0.22846 0.97349 0.0
C583 C 0.14929 0.33393 0.87893 0.0
C584 C 0.14686 0.45859 0.91837 0.0
C585 C 0.15472 0.42146 0.86761 0.0
C586 C 0.13447 0.44615 0.86606 0.0
C587 C 0.13055 0.4648 0.89165 0.0
N588 N 0.17064 0.41552 0.89388 0.0
C589 C 0.1669 0.43369 0.91907 0.0
Co590 Co 0.84487 0.67111 0.92784 0.0
Co591 Co 0.80287 0.61822 0.88881 0.0
O592 O 0.82894 0.62959 0.92346 0.0
C593 C 0.90106 0.63395 0.9395 0.0
O594 O 0.89703 0.61946 0.91346 0.0
C595 C 0.77154 0.59396 0.94334 0.0
O596 O 0.77615 0.62063 0.95635 0.0
O597 O 0.7737 0.65174 0.89908 0.0
O598 O 0.8076 0.68914 0.9084 0.0
H599 H 0.73839 0.63846 0.7957 0.0
H600 H 0.84287 0.63109 0.98265 0.0
O601 O 0.88242 0.65466 0.9479 0.0
H602 H 0.77927 0.72061 0.00873 0.0
H603 H 0.9002 0.75639 0.98237 0.0
H604 H 0.84771 0.72554 0.88729 0.0
H605 H 0.80479 0.71726 0.9585 0.0
H606 H 0.87836 0.70456 0.97719 0.0
O607 O 0.77985 0.58936 0.91584 0.0
H608 H 0.77189 0.65239 0.83897 0.0
H609 H 0.77685 0.55919 0.86632 0.0
H610 H 0.86903 0.77762 0.89158 0.0
H611 H 0.81812 0.63373 0.03331 0.0
H612 H 0.8955 0.79337 0.9394 0.0
H613 H 0.78594 0.67869 0.04658 0.0
O614 O 0.86431 0.66801 0.88685 0.0
H615 H 0.87126 0.52899 0.91309 0.0
H616 H 0.83353 0.59725 0.83144 0.0
H617 H 0.87079 0.55677 0.8188 0.0
H618 H 0.88984 0.52224 0.85978 0.0
H619 H 0.83424 0.56996 0.92478 0.0
H620 H 0.74315 0.54428 0.8235 0.0
H621 H 0.7238 0.58405 0.78775 0.0
O622 O 0.82563 0.6466 0.8607 0.0
C623 C 0.78066 0.67993 0.90203 0.0
C624 C 0.74676 0.62091 0.81105 0.0
C625 C 0.7494 0.56805 0.82669 0.0
N626 N 0.77656 0.6066 0.85496 0.0
C627 C 0.76582 0.62864 0.83554 0.0
C628 C 0.76842 0.57664 0.85092 0.0
C629 C 0.73856 0.59038 0.80663 0.0
C630 C 0.82921 0.65091 0.98839 0.0
N631 N 0.82536 0.67402 0.96765 0.0
C632 C 0.81512 0.6522 0.01706 0.0
C633 C 0.79702 0.6774 0.02446 0.0
C634 C 0.79324 0.70091 0.00322 0.0
C635 C 0.80765 0.69882 0.97476 0.0
C636 C 0.88865 0.74983 0.96145 0.0
C637 C 0.85901 0.73225 0.90825 0.0
C638 C 0.87628 0.72049 0.95836 0.0
N639 N 0.86153 0.7121 0.93206 0.0
C640 C 0.87112 0.76177 0.91051 0.0
C641 C 0.886 0.77057 0.93733 0.0
C642 C 0.85075 0.66159 0.86178 0.0
C643 C 0.86307 0.54383 0.89502 0.0
C644 C 0.84179 0.58238 0.84942 0.0
C645 C 0.86284 0.55946 0.84211 0.0
C646 C 0.87351 0.54008 0.86511 0.0
N647 N 0.83157 0.58585 0.87879 0.0
C648 C 0.84201 0.567 0.90148 0.0
Co649 Co 0.84913 0.32128 0.0674 0.0
Co650 Co 0.81215 0.37753 0.10957 0.0
O651 O 0.83651 0.36367 0.07444 0.0
C652 C 0.90757 0.3568 0.0638 0.0
O653 O 0.89859 0.37396 0.08678 0.0
C654 C 0.77775 0.39728 0.05489 0.0
O655 O 0.78372 0.37051 0.04266 0.0
O656 O 0.78242 0.34298 0.105 0.0
O657 O 0.80808 0.30624 0.07965 0.0
H658 H 0.75624 0.36511 0.20934 0.0
H659 H 0.85746 0.36752 0.01837 0.0
O660 O 0.8907 0.33508 0.05417 0.0
H661 H 0.79043 0.28834 0.97374 0.0
H662 H 0.90187 0.23616 0.01019 0.0
H663 H 0.84001 0.26288 0.10074 0.0
H664 H 0.80981 0.28311 0.02651 0.0
H665 H 0.88535 0.28943 0.01891 0.0
O666 O 0.7866 0.40349 0.08191 0.0
H667 H 0.78669 0.34782 0.16507 0.0
H668 H 0.78603 0.43783 0.12824 0.0
H669 H 0.85576 0.20927 0.09275 0.0
H670 H 0.83893 0.37348 0.96537 0.0
H671 H 0.88696 0.19562 0.04721 0.0
H672 H 0.80505 0.33376 0.94276 0.0
O673 O 0.86377 0.31726 0.11062 0.0
H674 H 0.87694 0.46505 0.07224 0.0
H675 H 0.84604 0.40455 0.1624 0.0
H676 H 0.88345 0.44642 0.16854 0.0
H677 H 0.89908 0.47706 0.12324 0.0
H678 H 0.83995 0.42271 0.0671 0.0
H679 H 0.75534 0.45604 0.17198 0.0
H680 H 0.74034 0.41959 0.21299 0.0
O681 O 0.83731 0.35217 0.1378 0.0
C682 C 0.78444 0.31629 0.0933 0.0
C683 C 0.76267 0.38123 0.19165 0.0
C684 C 0.76214 0.43225 0.17065 0.0
N685 N 0.78823 0.3918 0.14416 0.0
C686 C 0.77997 0.37158 0.16656 0.0
C687 C 0.77943 0.42178 0.14589 0.0
C688 C 0.75374 0.41179 0.19366 0.0
C689 C 0.84301 0.34997 0.00858 0.0
N690 N 0.8348 0.32495 0.0255 0.0
C691 C 0.83248 0.35353 0.9786 0.0
C692 C 0.81342 0.33127 0.96595 0.0
C693 C 0.80518 0.3058 0.98333 0.0
C694 C 0.81614 0.30301 0.01324 0.0
C695 C 0.8883 0.24182 0.03013 0.0
C696 C 0.85349 0.25711 0.08081 0.0
C697 C 0.87898 0.27198 0.03525 0.0
N698 N 0.86173 0.27927 0.06031 0.0
C699 C 0.86239 0.22672 0.07644 0.0
C700 C 0.87991 0.21908 0.05089 0.0
C701 C 0.85637 0.33017 0.13583 0.0
C702 C 0.8703 0.45189 0.09216 0.0
C703 C 0.85293 0.41759 0.14257 0.0
C704 C 0.87401 0.44138 0.14619 0.0
C705 C 0.88274 0.45858 0.12077 0.0
N706 N 0.84085 0.41113 0.11444 0.0
C707 C 0.84926 0.42795 0.08942 0.0
C708 C 0.94362 0.26961 0.45612 0.0
C709 C 0.94311 0.23959 0.44465 0.0
C710 C 0.96072 0.27694 0.48244 0.0
C711 C 0.9774 0.25365 0.49762 0.0
C712 C 0.97741 0.22351 0.48575 0.0
C713 C 0.96045 0.21693 0.45941 0.0
C714 C 0.96055 0.30939 0.4943 0.0
C715 C 0.99494 0.19792 0.50117 0.0
C716 C 0.04468 0.2629 0.55076 0.0
C717 C 0.03152 0.25459 0.57886 0.0
C718 C 0.02667 0.26589 0.52437 0.0
C719 C 0.99485 0.26004 0.52612 0.0
C720 C 0.98108 0.25455 0.55498 0.0
C721 C 0.99962 0.25209 0.58112 0.0
C722 C 0.04221 0.27232 0.49418 0.0
C723 C 0.94724 0.24811 0.55785 0.0
H724 H 0.9303 0.28725 0.44486 0.0
H725 H 0.96041 0.19369 0.45072 0.0
H726 H 0.94952 0.31008 0.51716 0.0
H727 H 0.98435 0.31781 0.49719 0.0
H728 H 0.94809 0.32523 0.47878 0.0
H729 H 0.99242 0.17572 0.48902 0.0
H730 H 0.01965 0.20372 0.50226 0.0
H731 H 0.98677 0.19498 0.52504 0.0
H732 H 0.06933 0.26532 0.54898 0.0
H733 H 0.98929 0.24585 0.6028 0.0
H734 H 0.02843 0.28837 0.48013 0.0
H735 H 0.04443 0.25065 0.48111 0.0
H736 H 0.06547 0.28212 0.49741 0.0
H737 H 0.93374 0.26454 0.54399 0.0
H738 H 0.93937 0.24929 0.582 0.0
H739 H 0.94236 0.2248 0.54899 0.0
C740 C 0.01593 0.76981 0.43736 0.0
C741 C 0.04463 0.75633 0.43311 0.0
C742 C 0.00123 0.76833 0.46582 0.0
C743 C 0.01517 0.75193 0.49012 0.0
C744 C 0.04286 0.73593 0.48498 0.0
C745 C 0.05773 0.73899 0.45666 0.0
C746 C 0.97218 0.78649 0.47054 0.0
C747 C 0.05768 0.71708 0.50985 0.0
C748 C 0.99768 0.78412 0.5686 0.0
C749 C 0.9716 0.76732 0.57648 0.0
C750 C 0.01296 0.77846 0.54095 0.0
C751 C 0.00246 0.75466 0.52151 0.0
C752 C 0.97768 0.73595 0.53082 0.0
C753 C 0.96199 0.74304 0.55791 0.0
C754 C 0.03869 0.79956 0.53146 0.0
C755 C 0.96671 0.70955 0.51141 0.0
H756 H 0.0062 0.78371 0.41926 0.0
H757 H 0.08008 0.72872 0.45327 0.0
H758 H 0.9539 0.77169 0.48008 0.0
H759 H 0.97644 0.80508 0.48735 0.0
H760 H 0.9637 0.79693 0.44895 0.0
H761 H 0.07548 0.70149 0.50054 0.0
H762 H 0.06868 0.73247 0.52679 0.0
H763 H 0.04028 0.70325 0.52219 0.0
H764 H 0.00465 0.80323 0.58285 0.0
H765 H 0.94164 0.73022 0.56414 0.0
H766 H 0.03185 0.81253 0.51069 0.0
H767 H 0.0594 0.78616 0.52552 0.0
H768 H 0.04479 0.81619 0.54972 0.0
H769 H 0.95381 0.71844 0.49143 0.0
H770 H 0.95142 0.69393 0.52444 0.0
H771 H 0.98641 0.69621 0.50249 0.0
C772 C 0.42984 0.99068 0.22969 0.0
C773 C 0.42688 0.96104 0.24146 0.0
C774 C 0.45748 0.00677 0.23251 0.0
C775 C 0.48223 0.99324 0.24855 0.0
C776 C 0.47819 0.96458 0.26313 0.0
C777 C 0.45073 0.94844 0.2588 0.0
C778 C 0.46104 0.03686 0.21582 0.0
C779 C 0.50354 0.95002 0.28155 0.0
C780 C 0.5607 0.01291 0.21754 0.0
C781 C 0.5688 0.03788 0.23583 0.0
C782 C 0.53287 0.99763 0.22202 0.0
C783 C 0.51326 0.00698 0.24613 0.0
C784 C 0.5224 0.03096 0.26596 0.0
C785 C 0.54982 0.04674 0.26004 0.0
C786 C 0.52362 0.97284 0.19971 0.0
C787 C 0.50274 0.04071 0.29263 0.0
H788 H 0.41152 0.00023 0.21599 0.0
H789 H 0.44835 0.92547 0.26794 0.0
H790 H 0.47054 0.0546 0.23128 0.0
H791 H 0.47744 0.03398 0.19662 0.0
H792 H 0.43898 0.04529 0.20637 0.0
H793 H 0.49489 0.93111 0.2962 0.0
H794 H 0.52107 0.94051 0.26584 0.0
H795 H 0.51499 0.96729 0.29627 0.0
H796 H 0.5752 0.00668 0.19838 0.0
H797 H 0.55616 0.06632 0.27393 0.0
H798 H 0.50243 0.97976 0.18751 0.0
H799 H 0.51852 0.95128 0.21209 0.0
H800 H 0.54171 0.96814 0.18245 0.0
H801 H 0.48251 0.05345 0.28411 0.0
H802 H 0.51544 0.05573 0.30876 0.0
H803 H 0.49419 0.02039 0.3053 0.0
C804 C 0.55975 0.99202 0.7735 0.0
C805 C 0.56715 0.9654 0.75736 0.0
C806 C 0.53108 0.00595 0.7697 0.0
C807 C 0.50995 0.99348 0.74841 0.0
C808 C 0.51852 0.96812 0.73017 0.0
C809 C 0.54682 0.95388 0.73541 0.0
C810 C 0.52254 0.03246 0.79021 0.0
C811 C 0.49718 0.95501 0.70636 0.0
C812 C 0.42704 0.00526 0.77052 0.0
C813 C 0.42057 0.03295 0.75582 0.0
C814 C 0.45575 0.99133 0.76721 0.0
C815 C 0.47797 0.00498 0.74786 0.0
C816 C 0.4704 0.03145 0.73078 0.0
C817 C 0.44195 0.04557 0.73552 0.0
C818 C 0.46315 0.96356 0.78647 0.0
C819 C 0.49297 0.04592 0.70897 0.0
H820 H 0.57538 0.00051 0.79085 0.0
H821 H 0.55266 0.93315 0.72307 0.0
H822 H 0.5145 0.05215 0.77635 0.0
H823 H 0.50339 0.02559 0.80544 0.0
H824 H 0.54201 0.04015 0.80467 0.0
H825 H 0.50926 0.93921 0.69051 0.0
H826 H 0.47855 0.94208 0.7178 0.0
H827 H 0.4864 0.9736 0.6928 0.0
H828 H 0.41067 0.99589 0.78666 0.0
H829 H 0.43687 0.06714 0.72431 0.0
H830 H 0.48124 0.9695 0.80331 0.0
H831 H 0.47219 0.94483 0.77194 0.0
H832 H 0.44285 0.95491 0.79914 0.0
H833 H 0.51083 0.05825 0.72215 0.0
H834 H 0.48169 0.06253 0.69336 0.0
H835 H 0.50461 0.02815 0.69504 0.0
C836 C 0.26522 0.45184 0.94601 0.0
C837 C 0.25611 0.42494 0.96099 0.0
C838 C 0.27039 0.4789 0.96248 0.0
C839 C 0.26563 0.47908 0.99451 0.0
C840 C 0.25955 0.45123 0.01003 0.0
C841 C 0.25518 0.42433 0.99303 0.0
C842 C 0.27775 0.50789 0.94516 0.0
C843 C 0.25413 0.45042 0.04414 0.0
C844 C 0.27726 0.55046 0.04328 0.0
C845 C 0.24739 0.56226 0.04405 0.0
C846 C 0.28403 0.52384 0.02642 0.0
C847 C 0.26026 0.50863 0.01044 0.0
C848 C 0.23036 0.5211 0.01031 0.0
C849 C 0.2244 0.54782 0.02684 0.0
C850 C 0.31629 0.51151 0.02652 0.0
C851 C 0.20425 0.50566 0.99354 0.0
H852 H 0.26644 0.45225 0.92122 0.0
H853 H 0.24832 0.40353 0.00472 0.0
H854 H 0.25653 0.52156 0.94228 0.0
H855 H 0.29444 0.52214 0.95797 0.0
H856 H 0.28717 0.50291 0.92207 0.0
H857 H 0.25455 0.42667 0.05328 0.0
H858 H 0.27156 0.46424 0.05638 0.0
H859 H 0.23137 0.46051 0.04923 0.0
H860 H 0.29517 0.5615 0.05645 0.0
H861 H 0.20131 0.55687 0.02698 0.0
H862 H 0.32357 0.5054 0.00297 0.0
H863 H 0.31721 0.49031 0.04048 0.0
H864 H 0.33287 0.52822 0.03618 0.0
H865 H 0.20975 0.50356 0.96884 0.0
H866 H 0.18235 0.5184 0.9958 0.0
H867 H 0.20081 0.48217 0.00261 0.0
C868 C 0.74392 0.54465 0.95034 0.0
C869 C 0.76361 0.56713 0.96198 0.0
C870 C 0.74039 0.51648 0.96541 0.0
C871 C 0.75818 0.51026 0.99178 0.0
C872 C 0.7774 0.53336 0.0041 0.0
C873 C 0.7794 0.5618 0.98932 0.0
C874 C 0.71868 0.49296 0.95237 0.0
C875 C 0.79748 0.52736 0.03162 0.0
C876 C 0.74641 0.44399 0.04654 0.0
C877 C 0.76788 0.42291 0.03554 0.0
C878 C 0.74117 0.47167 0.03109 0.0
C879 C 0.75899 0.47891 0.005 0.0
C880 C 0.77995 0.4571 0.99324 0.0
C881 C 0.7837 0.42905 0.0084 0.0
C882 C 0.71769 0.49373 0.04353 0.0
C883 C 0.80011 0.46426 0.96607 0.0
H884 H 0.73183 0.54889 0.92907 0.0
H885 H 0.79504 0.57907 0.99794 0.0
H886 H 0.73191 0.47435 0.94127 0.0
H887 H 0.70479 0.48244 0.97087 0.0
H888 H 0.70302 0.50305 0.93505 0.0
H889 H 0.81056 0.548 0.03873 0.0
H890 H 0.78345 0.51951 0.05125 0.0
H891 H 0.81399 0.50881 0.02624 0.0
H892 H 0.73433 0.43915 0.0677 0.0
H893 H 0.80074 0.41291 0.00034 0.0
H894 H 0.70363 0.50337 0.02468 0.0
H895 H 0.72943 0.51312 0.05499 0.0
H896 H 0.70226 0.48262 0.06043 0.0
H897 H 0.78603 0.47147 0.94623 0.0
H898 H 0.81433 0.44436 0.95911 0.0
H899 H 0.81557 0.48362 0.97181 0.0
C900 C 0.17968 0.16484 0.68978 0.0
C901 C 0.15719 0.14459 0.67913 0.0
C902 C 0.20601 0.15407 0.7045 0.0
C903 C 0.21038 0.12215 0.70792 0.0
C904 C 0.18834 0.10148 0.696 0.0
C905 C 0.16161 0.11299 0.68221 0.0
C906 C 0.22828 0.17697 0.71785 0.0
C907 C 0.19265 0.0673 0.69853 0.0
C908 C 0.29055 0.09982 0.73378 0.0
C909 C 0.28611 0.09616 0.76536 0.0
C910 C 0.26576 0.10671 0.71436 0.0
C911 C 0.23618 0.11089 0.72704 0.0
C912 C 0.2316 0.10685 0.75882 0.0
C913 C 0.25648 0.09917 0.77744 0.0
C914 C 0.27129 0.1101 0.68044 0.0
C915 C 0.20067 0.11197 0.77349 0.0
H916 H 0.17603 0.18929 0.68785 0.0
H917 H 0.14424 0.09737 0.67378 0.0
H918 H 0.22863 0.17474 0.74316 0.0
H919 H 0.25181 0.17233 0.70953 0.0
H920 H 0.2222 0.20096 0.71195 0.0
H921 H 0.17566 0.05447 0.68461 0.0
H922 H 0.21603 0.0608 0.69102 0.0
H923 H 0.19021 0.06013 0.72277 0.0
H924 H 0.31333 0.09727 0.72427 0.0
H925 H 0.25277 0.09655 0.80179 0.0
H926 H 0.26826 0.13438 0.67364 0.0
H927 H 0.25432 0.09641 0.66738 0.0
H928 H 0.2947 0.10274 0.67377 0.0
H929 H 0.19342 0.13607 0.76997 0.0
H930 H 0.20087 0.10718 0.79847 0.0
H931 H 0.18318 0.09714 0.7626 0.0
C932 C 0.72887 0.88286 0.76857 0.0
C933 C 0.70231 0.89807 0.75902 0.0
C934 C 0.75362 0.87877 0.74867 0.0
C935 C 0.75209 0.89089 0.71865 0.0
C936 C 0.72531 0.90635 0.70883 0.0
C937 C 0.70045 0.90941 0.72908 0.0
C938 C 0.78141 0.86141 0.75984 0.0
C939 C 0.72319 0.92012 0.67721 0.0
C940 C 0.83126 0.89912 0.68415 0.0
C941 C 0.83373 0.87174 0.66753 0.0
C942 C 0.80386 0.90691 0.69907 0.0
C943 C 0.77857 0.88662 0.69771 0.0
C944 C 0.78031 0.85998 0.67942 0.0
C945 C 0.80773 0.85305 0.6643 0.0
C946 C 0.80264 0.93589 0.71786 0.0
C947 C 0.75408 0.83747 0.67771 0.0
H948 H 0.73019 0.87388 0.79168 0.0
H949 H 0.67999 0.92146 0.72187 0.0
H950 H 0.78608 0.84171 0.7445 0.0
H951 H 0.80185 0.87648 0.75928 0.0
H952 H 0.77849 0.85266 0.78355 0.0
H953 H 0.70077 0.93141 0.6731 0.0
H954 H 0.74167 0.93729 0.6741 0.0
H955 H 0.72661 0.90215 0.6596 0.0
H956 H 0.85107 0.91389 0.68656 0.0
H957 H 0.80916 0.83198 0.65129 0.0
H958 H 0.80359 0.92999 0.74255 0.0
H959 H 0.78083 0.94826 0.71378 0.0
H960 H 0.82205 0.95148 0.7126 0.0
H961 H 0.7515 0.82584 0.70016 0.0
H962 H 0.75778 0.81973 0.65987 0.0
H963 H 0.73225 0.84946 0.67284 0.0
C964 C 0.27828 0.92392 0.25041 0.0
C965 C 0.29788 0.89999 0.24195 0.0
C966 C 0.25206 0.91833 0.26803 0.0
C967 C 0.24495 0.88794 0.27671 0.0
C968 C 0.26548 0.86387 0.26944 0.0
C969 C 0.29197 0.87028 0.25238 0.0
C970 C 0.23123 0.94471 0.27604 0.0
C971 C 0.25849 0.83109 0.27797 0.0
C972 C 0.18527 0.87031 0.33728 0.0
C973 C 0.1596 0.8632 0.31931 0.0
C974 C 0.21292 0.87951 0.32381 0.0
C975 C 0.21512 0.881 0.29155 0.0
C976 C 0.18899 0.87481 0.2733 0.0
C977 C 0.16141 0.86633 0.28745 0.0
C978 C 0.24001 0.88671 0.34405 0.0
C979 C 0.19054 0.87581 0.23877 0.0
H980 H 0.28301 0.94694 0.24245 0.0
H981 H 0.30693 0.85173 0.24546 0.0
H982 H 0.20955 0.94273 0.26294 0.0
H983 H 0.22526 0.94411 0.30072 0.0
H984 H 0.24181 0.96723 0.27071 0.0
H985 H 0.27763 0.81537 0.27224 0.0
H986 H 0.25361 0.82926 0.30281 0.0
H987 H 0.23768 0.82335 0.26559 0.0
H988 H 0.18393 0.86812 0.36195 0.0
H989 H 0.14173 0.8606 0.27345 0.0
H990 H 0.24997 0.90924 0.33777 0.0
H991 H 0.25812 0.86925 0.34065 0.0
H992 H 0.23375 0.88713 0.3687 0.0
H993 H 0.19863 0.8986 0.231 0.0
H994 H 0.16802 0.87105 0.22794 0.0
H995 H 0.20731 0.85863 0.23047 0.0
C996 C 0.71564 0.07333 0.25209 0.0
C997 C 0.69812 0.09758 0.24055 0.0
C998 C 0.74173 0.07889 0.26994 0.0
C999 C 0.75098 0.10946 0.27549 0.0
C1000 C 0.73254 0.13402 0.265 0.0
C1001 C 0.70603 0.12774 0.24792 0.0
C1002 C 0.76023 0.05208 0.28148 0.0
C1003 C 0.74193 0.16694 0.26993 0.0
C1004 C 0.81109 0.12871 0.33524 0.0
C1005 C 0.83771 0.13096 0.31736 0.0
C1006 C 0.78287 0.12077 0.32212 0.0
C1007 C 0.78104 0.11576 0.2902 0.0
C1008 C 0.8079 0.11749 0.27206 0.0
C1009 C 0.836 0.12466 0.28595 0.0
C1010 C 0.75493 0.1183 0.34233 0.0
C1011 C 0.80678 0.11281 0.23781 0.0
H1012 H 0.70946 0.05 0.24625 0.0
H1013 H 0.69276 0.14646 0.23846 0.0
H1014 H 0.78216 0.05076 0.26874 0.0
H1015 H 0.7659 0.05513 0.30606 0.0
H1016 H 0.74791 0.03001 0.2786 0.0
H1017 H 0.72409 0.1833 0.26211 0.0
H1018 H 0.74672 0.17122 0.29448 0.0
H1019 H 0.76337 0.17165 0.25712 0.0
H1020 H 0.81222 0.13342 0.35954 0.0
H1021 H 0.85638 0.12657 0.27195 0.0
H1022 H 0.74344 0.09592 0.33871 0.0
H1023 H 0.73824 0.13642 0.33617 0.0
H1024 H 0.76066 0.12064 0.367 0.0
H1025 H 0.79744 0.08981 0.23244 0.0
H1026 H 0.82971 0.11499 0.22701 0.0
H1027 H 0.79121 0.12992 0.2273 0.0
C1028 C 0.70954 0.15803 0.12395 0.0
C1029 C 0.67781 0.15698 0.12853 0.0
C1030 C 0.72423 0.18565 0.11653 0.0
C1031 C 0.70662 0.21265 0.11276 0.0
C1032 C 0.67439 0.2113 0.11558 0.0
C1033 C 0.6604 0.18357 0.12384 0.0
C1034 C 0.75874 0.18622 0.11419 0.0
C1035 C 0.65476 0.23935 0.11083 0.0
C1036 C 0.74935 0.28703 0.1271 0.0
C1037 C 0.75933 0.29429 0.09755 0.0
C1038 C 0.73115 0.26101 0.13231 0.0
C1039 C 0.72224 0.24242 0.10722 0.0
C1040 C 0.73046 0.25109 0.0771 0.0
C1041 C 0.74934 0.27669 0.07268 0.0
C1042 C 0.72334 0.25225 0.16483 0.0
C1043 C 0.72068 0.23244 0.04969 0.0
H1044 H 0.72313 0.13765 0.1278 0.0
H1045 H 0.63583 0.18283 0.12717 0.0
H1046 H 0.76586 0.19537 0.0916 0.0
H1047 H 0.76828 0.2017 0.13194 0.0
H1048 H 0.76901 0.16314 0.1172 0.0
H1049 H 0.62993 0.23378 0.11077 0.0
H1050 H 0.65921 0.25614 0.12936 0.0
H1051 H 0.66067 0.25062 0.08884 0.0
H1052 H 0.75758 0.30038 0.14634 0.0
H1053 H 0.75715 0.28241 0.04983 0.0
H1054 H 0.73517 0.23058 0.17084 0.0
H1055 H 0.69839 0.24812 0.16715 0.0
H1056 H 0.73025 0.27015 0.18153 0.0
H1057 H 0.73317 0.21034 0.04954 0.0
H1058 H 0.72541 0.24448 0.02778 0.0
H1059 H 0.69586 0.22713 0.05093 0.0
C1060 C 0.25974 0.71744 0.06954 0.0
C1061 C 0.24756 0.70006 0.09355 0.0
C1062 C 0.27842 0.7429 0.07545 0.0
C1063 C 0.28408 0.75166 0.10614 0.0
C1064 C 0.27316 0.73309 0.13044 0.0
C1065 C 0.25522 0.70724 0.12379 0.0
C1066 C 0.29032 0.76156 0.0489 0.0
C1067 C 0.27821 0.74191 0.16348 0.0
C1068 C 0.34305 0.81176 0.12795 0.0
C1069 C 0.32477 0.838 0.13106 0.0
C1070 C 0.33041 0.78374 0.11856 0.0
C1071 C 0.29858 0.78174 0.11293 0.0
C1072 C 0.28015 0.80836 0.11516 0.0
C1073 C 0.29356 0.83628 0.1238 0.0
C1074 C 0.35094 0.75611 0.11557 0.0
C1075 C 0.24599 0.80709 0.10979 0.0
H1076 H 0.25342 0.71196 0.04616 0.0
H1077 H 0.24508 0.69419 0.14231 0.0
H1078 H 0.27728 0.78329 0.04727 0.0
H1079 H 0.31476 0.76758 0.05244 0.0
H1080 H 0.28802 0.74918 0.0268 0.0
H1081 H 0.27051 0.72374 0.17955 0.0
H1082 H 0.30276 0.74673 0.16778 0.0
H1083 H 0.2653 0.76319 0.16859 0.0
H1084 H 0.36723 0.81301 0.13332 0.0
H1085 H 0.27928 0.85639 0.12637 0.0
H1086 H 0.34723 0.7448 0.09312 0.0
H1087 H 0.34519 0.73918 0.1336 0.0
H1088 H 0.37555 0.76217 0.11773 0.0
H1089 H 0.24107 0.79796 0.08661 0.0
H1090 H 0.23501 0.82993 0.11199 0.0
H1091 H 0.23525 0.79129 0.12655 0.0
C1092 C 0.76706 0.72996 0.87936 0.0
C1093 C 0.75774 0.70365 0.89517 0.0
C1094 C 0.74663 0.7539 0.87361 0.0
C1095 C 0.71619 0.75179 0.88455 0.0
C1096 C 0.70652 0.72516 0.90041 0.0
C1097 C 0.72741 0.7011 0.90522 0.0
C1098 C 0.75772 0.7815 0.85587 0.0
C1099 C 0.67441 0.72244 0.91285 0.0
C1100 C 0.68006 0.8304 0.88956 0.0
C1101 C 0.66464 0.83204 0.86144 0.0
C1102 C 0.69499 0.8034 0.89862 0.0
C1103 C 0.69485 0.77767 0.87889 0.0
C1104 C 0.67771 0.77856 0.85143 0.0
C1105 C 0.6626 0.80562 0.84319 0.0
C1106 C 0.71257 0.80311 0.92838 0.0
C1107 C 0.67732 0.75182 0.82951 0.0
H1108 H 0.79047 0.73174 0.87126 0.0
H1109 H 0.72036 0.68079 0.91764 0.0
H1110 H 0.74298 0.78526 0.83552 0.0
H1111 H 0.75612 0.80231 0.87034 0.0
H1112 H 0.78179 0.77898 0.84806 0.0
H1113 H 0.67032 0.70002 0.92416 0.0
H1114 H 0.67022 0.74096 0.92973 0.0
H1115 H 0.65748 0.72536 0.89416 0.0
H1116 H 0.68151 0.85053 0.904 0.0
H1117 H 0.65052 0.80644 0.82153 0.0
H1118 H 0.73748 0.80428 0.9235 0.0
H1119 H 0.70827 0.78153 0.94108 0.0
H1120 H 0.70642 0.82278 0.94327 0.0
H1121 H 0.70017 0.74957 0.81862 0.0
H1122 H 0.65994 0.75471 0.81116 0.0
H1123 H 0.67261 0.73013 0.84184 0.0
C1124 C 0.29591 0.15749 0.88443 0.0
C1125 C 0.32524 0.15645 0.8715 0.0
C1126 C 0.28245 0.18555 0.89246 0.0
C1127 C 0.29928 0.21305 0.88863 0.0
C1128 C 0.3298 0.21185 0.87791 0.0
C1129 C 0.34221 0.18363 0.86897 0.0
C1130 C 0.2496 0.18591 0.90325 0.0
C1131 C 0.34892 0.24048 0.87468 0.0
C1132 C 0.25249 0.28493 0.87489 0.0
C1133 C 0.24947 0.29624 0.90466 0.0
C1134 C 0.26934 0.25819 0.8692 0.0
C1135 C 0.28416 0.24309 0.89384 0.0
C1136 C 0.28281 0.25574 0.92364 0.0
C1137 C 0.26491 0.28189 0.92881 0.0
C1138 C 0.26962 0.24504 0.83723 0.0
C1139 C 0.29917 0.24098 0.95026 0.0
H1140 H 0.28272 0.13663 0.8866 0.0
H1141 H 0.36501 0.18299 0.85935 0.0
H1142 H 0.24778 0.19784 0.92558 0.0
H1143 H 0.23531 0.19878 0.88663 0.0
H1144 H 0.23997 0.16248 0.90575 0.0
H1145 H 0.37337 0.23519 0.87006 0.0
H1146 H 0.34002 0.25457 0.85553 0.0
H1147 H 0.34746 0.25454 0.89579 0.0
H1148 H 0.23993 0.2958 0.85642 0.0
H1149 H 0.26227 0.29068 0.95187 0.0
H1150 H 0.25814 0.22235 0.83725 0.0
H1151 H 0.29349 0.24143 0.82939 0.0
H1152 H 0.25776 0.26009 0.82049 0.0
H1153 H 0.2877 0.21913 0.95628 0.0
H1154 H 0.29928 0.25591 0.97086 0.0
H1155 H 0.32317 0.23551 0.94399 0.0
C1156 C 0.13625 0.74322 0.29483 0.0
C1157 C 0.1059 0.74723 0.3042 0.0
C1158 C 0.14301 0.72705 0.2679 0.0
C1159 C 0.11879 0.71416 0.25053 0.0
C1160 C 0.08836 0.71591 0.26152 0.0
C1161 C 0.08223 0.73285 0.28805 0.0
C1162 C 0.1757 0.72609 0.25672 0.0
C1163 C 0.06202 0.7018 0.24413 0.0
C1164 C 0.12973 0.70944 0.16444 0.0
C1165 C 0.1392 0.67901 0.16071 0.0
C1166 C 0.12291 0.72111 0.19359 0.0
C1167 C 0.12489 0.70166 0.2195 0.0
C1168 C 0.13324 0.67063 0.21573 0.0
C1169 C 0.14066 0.65978 0.18646 0.0
C1170 C 0.11447 0.75451 0.19676 0.0
C1171 C 0.13484 0.64903 0.24269 0.0
H1172 H 0.15442 0.75497 0.30702 0.0
H1173 H 0.05873 0.73624 0.29531 0.0
H1174 H 0.18219 0.70246 0.25012 0.0
H1175 H 0.17794 0.74064 0.236 0.0
H1176 H 0.1921 0.73449 0.27426 0.0
H1177 H 0.04069 0.70122 0.25797 0.0
H1178 H 0.05755 0.71532 0.2231 0.0
H1179 H 0.06773 0.67812 0.23691 0.0
H1180 H 0.12874 0.72449 0.14475 0.0
H1181 H 0.14789 0.63623 0.18382 0.0
H1182 H 0.13112 0.7662 0.21201 0.0
H1183 H 0.09156 0.75674 0.20749 0.0
H1184 H 0.11415 0.76659 0.17438 0.0
H1185 H 0.15306 0.65658 0.25869 0.0
H1186 H 0.13971 0.6251 0.23559 0.0
H1187 H 0.11291 0.64941 0.25551 0.0
C1188 C 0.06957 0.25654 0.7316 0.0
C1189 C 0.0936 0.24911 0.71173 0.0
C1190 C 0.07509 0.27251 0.75893 0.0
C1191 C 0.10551 0.28045 0.76685 0.0
C1192 C 0.12974 0.27381 0.74631 0.0
C1193 C 0.1234 0.25845 0.7188 0.0
C1194 C 0.04857 0.27988 0.77981 0.0
C1195 C 0.16256 0.28146 0.7541 0.0
C1196 C 0.12526 0.33933 0.82747 0.0
C1197 C 0.13288 0.32068 0.85248 0.0
C1198 C 0.11471 0.32665 0.79993 0.0
C1199 C 0.11236 0.29448 0.79713 0.0
C1200 C 0.11867 0.27558 0.82277 0.0
C1201 C 0.12855 0.28897 0.85031 0.0
C1202 C 0.10748 0.34762 0.77342 0.0
C1203 C 0.11679 0.24113 0.82058 0.0
H1204 H 0.04651 0.24928 0.72605 0.0
H1205 H 0.14204 0.25213 0.70377 0.0
H1206 H 0.05045 0.26626 0.80116 0.0
H1207 H 0.04913 0.30441 0.78641 0.0
H1208 H 0.02612 0.27481 0.76896 0.0
H1209 H 0.17858 0.27557 0.73525 0.0
H1210 H 0.16485 0.30622 0.75923 0.0
H1211 H 0.16957 0.26873 0.77495 0.0
H1212 H 0.12833 0.36389 0.82917 0.0
H1213 H 0.13468 0.27447 0.86948 0.0
H1214 H 0.08501 0.34157 0.76322 0.0
H1215 H 0.12504 0.34481 0.75529 0.0
H1216 H 0.107 0.37208 0.78039 0.0
H1217 H 0.09407 0.23404 0.81172 0.0
H1218 H 0.12067 0.22982 0.84304 0.0
H1219 H 0.13427 0.23271 0.80417 0.0
C1220 C 0.84271 0.67783 0.8076 0.0
C1221 C 0.86226 0.67536 0.83301 0.0
C1222 C 0.85135 0.69452 0.78161 0.0
C1223 C 0.88053 0.70855 0.78066 0.0
C1224 C 0.90114 0.70454 0.80538 0.0
C1225 C 0.89164 0.68826 0.83145 0.0
C1226 C 0.82843 0.69878 0.75604 0.0
C1227 C 0.9327 0.71864 0.8049 0.0
C1228 C 0.90637 0.74033 0.70373 0.0
C1229 C 0.89964 0.7715 0.70725 0.0
C1230 C 0.90106 0.71954 0.72774 0.0
C1231 C 0.88799 0.73017 0.75546 0.0
C1232 C 0.8809 0.76159 0.75891 0.0
C1233 C 0.88714 0.78189 0.73492 0.0
C1234 C 0.90946 0.6863 0.72353 0.0
C1235 C 0.8662 0.77376 0.78778 0.0
H1236 H 0.81995 0.66802 0.80852 0.0
H1237 H 0.90697 0.68624 0.85086 0.0
H1238 H 0.82116 0.72311 0.75518 0.0
H1239 H 0.83895 0.69324 0.73362 0.0
H1240 H 0.80774 0.68429 0.75913 0.0
H1241 H 0.94735 0.70993 0.82379 0.0
H1242 H 0.9442 0.71389 0.78275 0.0
H1243 H 0.93079 0.74386 0.80722 0.0
H1244 H 0.91623 0.73231 0.68242 0.0
H1245 H 0.8816 0.80593 0.73763 0.0
H1246 H 0.88864 0.67182 0.72513 0.0
H1247 H 0.92517 0.67893 0.74209 0.0
H1248 H 0.92066 0.68196 0.70112 0.0
H1249 H 0.84408 0.76193 0.79187 0.0
H1250 H 0.86189 0.7988 0.78665 0.0
H1251 H 0.8811 0.76905 0.8078 0.0
C1252 C 0.92509 0.25609 0.28939 0.0
C1253 C 0.9007 0.24278 0.30539 0.0
C1254 C 0.91981 0.27435 0.26352 0.0
C1255 C 0.88944 0.27858 0.25303 0.0
C1256 C 0.86463 0.26679 0.27034 0.0
C1257 C 0.8706 0.24917 0.29657 0.0
C1258 C 0.94684 0.28715 0.24619 0.0
C1259 C 0.83193 0.27045 0.25974 0.0
C1260 C 0.8695 0.33631 0.19119 0.0
C1261 C 0.86855 0.31778 0.16494 0.0
C1262 C 0.87735 0.32415 0.21986 0.0
C1263 C 0.88375 0.29254 0.22248 0.0
C1264 C 0.88368 0.27383 0.19595 0.0
C1265 C 0.87642 0.28677 0.16742 0.0
C1266 C 0.87796 0.34496 0.24745 0.0
C1267 C 0.89007 0.23989 0.19786 0.0
H1268 H 0.94838 0.25075 0.29612 0.0
H1269 H 0.85183 0.23817 0.30853 0.0
H1270 H 0.95014 0.27396 0.22474 0.0
H1271 H 0.94268 0.31135 0.2397 0.0
H1272 H 0.96831 0.28587 0.25977 0.0
H1273 H 0.81523 0.26253 0.27722 0.0
H1274 H 0.82703 0.29473 0.25417 0.0
H1275 H 0.82838 0.25693 0.23851 0.0
H1276 H 0.86366 0.36033 0.18945 0.0
H1277 H 0.87553 0.27228 0.14731 0.0
H1278 H 0.89992 0.34233 0.25996 0.0
H1279 H 0.85934 0.33849 0.26346 0.0
H1280 H 0.87505 0.36942 0.24112 0.0
H1281 H 0.91285 0.23585 0.20832 0.0
H1282 H 0.8895 0.22864 0.17506 0.0
H1283 H 0.87281 0.22872 0.21282 0.0
C1284 C 0.04834 0.06046 0.60251 0.0
C1285 C 0.03708 0.08159 0.62391 0.0
C1286 C 0.03307 0.03251 0.59726 0.0
C1287 C 0.00616 0.02554 0.61402 0.0
C1288 C 0.99393 0.04749 0.63445 0.0
C1289 C 0.0094 0.07519 0.63898 0.0
C1290 C 0.0465 0.0099 0.57489 0.0
C1291 C 0.9654 0.04104 0.65295 0.0
C1292 C 0.95131 0.95955 0.59855 0.0
C1293 C 0.96031 0.93862 0.6212 0.0
C1294 C 0.96729 0.98728 0.59439 0.0
C1295 C 0.99264 0.99421 0.61345 0.0
C1296 C 0.00278 0.97236 0.63511 0.0
C1297 C 0.98662 0.94489 0.6386 0.0
C1298 C 0.95611 0.00979 0.57069 0.0
C1299 C 0.02962 0.97874 0.65601 0.0
H1300 H 0.06952 0.06531 0.59051 0.0
H1301 H 0.00014 0.09149 0.65523 0.0
H1302 H 0.057 0.9906 0.58764 0.0
H1303 H 0.02834 0.00019 0.56001 0.0
H1304 H 0.06438 0.02051 0.56023 0.0
H1305 H 0.95767 0.06134 0.66617 0.0
H1306 H 0.94648 0.0336 0.63774 0.0
H1307 H 0.96993 0.0221 0.66927 0.0
H1308 H 0.93122 0.95479 0.58477 0.0
H1309 H 0.99416 0.92869 0.65583 0.0
H1310 H 0.97561 0.01933 0.5575 0.0
H1311 H 0.94455 0.02921 0.58227 0.0
H1312 H 0.93962 0.99914 0.5545 0.0
H1313 H 0.0498 0.9862 0.64252 0.0
H1314 H 0.03616 0.95839 0.6698 0.0
H1315 H 0.0237 0.99764 0.67191 0.0
C1316 C 0.94792 0.041 0.37886 0.0
C1317 C 0.9577 0.06284 0.35743 0.0
C1318 C 0.96426 0.01357 0.38312 0.0
C1319 C 0.99087 0.00791 0.36546 0.0
C1320 C 0.00132 0.03031 0.34452 0.0
C1321 C 0.98467 0.05744 0.3408 0.0
C1322 C 0.95254 0.99026 0.40578 0.0
C1323 C 0.02952 0.02517 0.32515 0.0
C1324 C 0.04816 0.94468 0.38324 0.0
C1325 C 0.03938 0.92217 0.36209 0.0
C1326 C 0.03177 0.97233 0.38567 0.0
C1327 C 0.00622 0.97753 0.36635 0.0
C1328 C 0.99675 0.95448 0.34568 0.0
C1329 C 0.01334 0.92715 0.34388 0.0
C1330 C 0.04234 0.99631 0.40818 0.0
C1331 C 0.96975 0.95913 0.32453 0.0
H1332 H 0.9273 0.04512 0.39203 0.0
H1333 H 0.99265 0.07426 0.32439 0.0
H1334 H 0.94418 0.96974 0.39335 0.0
H1335 H 0.97129 0.98268 0.42114 0.0
H1336 H 0.93351 0.99939 0.41997 0.0
H1337 H 0.03573 0.0457 0.31146 0.0
H1338 H 0.04928 0.01895 0.33983 0.0
H1339 H 0.02549 0.00579 0.30922 0.0
H1340 H 0.06806 0.94093 0.39759 0.0
H1341 H 0.00613 0.90987 0.32761 0.0
H1342 H 0.0228 0.00442 0.42224 0.0
H1343 H 0.05143 0.01642 0.39558 0.0
H1344 H 0.06052 0.98759 0.42368 0.0
H1345 H 0.94918 0.96578 0.33784 0.0
H1346 H 0.96427 0.93824 0.31108 0.0
H1347 H 0.97475 0.97805 0.30832 0.0
C1348 C 0.59868 0.94923 0.94956 0.0
C1349 C 0.61819 0.95938 0.92617 0.0
C1350 C 0.59585 0.9659 0.97702 0.0
C1351 C 0.61301 0.99317 0.98106 0.0
C1352 C 0.63115 0.00444 0.95671 0.0
C1353 C 0.63343 0.9875 0.92962 0.0
C1354 C 0.57594 0.95338 0.00232 0.0
C1355 C 0.64987 0.03337 0.95997 0.0
C1356 C 0.6026 0.0485 0.04769 0.0
C1357 C 0.6266 0.03952 0.06708 0.0
C1358 C 0.59684 0.03277 0.02014 0.0
C1359 C 0.61568 0.00772 0.01177 0.0
C1360 C 0.63933 0.99811 0.0317 0.0
C1361 C 0.64442 0.01402 0.05904 0.0
C1362 C 0.5712 0.04346 0.9996 0.0
C1363 C 0.66012 0.97165 0.02365 0.0
H1364 H 0.58661 0.92769 0.94698 0.0
H1365 H 0.64815 0.99587 0.91147 0.0
H1366 H 0.59066 0.9438 0.02068 0.0
H1367 H 0.56195 0.97187 0.01266 0.0
H1368 H 0.56044 0.93498 0.99403 0.0
H1369 H 0.66028 0.04065 0.93794 0.0
H1370 H 0.63549 0.05233 0.96879 0.0
H1371 H 0.66854 0.02953 0.97677 0.0
H1372 H 0.58852 0.06797 0.05386 0.0
H1373 H 0.6629 0.00668 0.07388 0.0
H1374 H 0.55671 0.0238 0.99258 0.0
H1375 H 0.58092 0.05362 0.97844 0.0
H1376 H 0.55651 0.06088 0.01089 0.0
H1377 H 0.64637 0.95095 0.0184 0.0
H1378 H 0.67637 0.96603 0.0424 0.0
H1379 H 0.67354 0.97735 0.00284 0.0
C1380 C 0.35597 0.98043 0.06081 0.0
C1381 C 0.37488 0.95608 0.06989 0.0
C1382 C 0.36081 0.9959 0.0332 0.0
C1383 C 0.38539 0.98708 0.01405 0.0
C1384 C 0.40541 0.96338 0.02354 0.0
C1385 C 0.39983 0.94799 0.05134 0.0
C1386 C 0.33873 0.02091 0.02398 0.0
C1387 C 0.43211 0.95366 0.00391 0.0
C1388 C 0.36654 0.00398 0.93153 0.0
C1389 C 0.37925 0.03327 0.92767 0.0
C1390 C 0.37038 0.98765 0.95883 0.0
C1391 C 0.38762 0.00075 0.98291 0.0
C1392 C 0.40266 0.02916 0.97829 0.0
C1393 C 0.39821 0.04521 0.95068 0.0
C1394 C 0.35387 0.95748 0.96269 0.0
C1395 C 0.42173 0.04357 0.00323 0.0
H1396 H 0.33677 0.98712 0.075 0.0
H1397 H 0.41476 0.92945 0.05832 0.0
H1398 H 0.35138 0.04223 0.01847 0.0
H1399 H 0.32612 0.0139 0.00305 0.0
H1400 H 0.32176 0.02607 0.04221 0.0
H1401 H 0.44793 0.9381 0.01634 0.0
H1402 H 0.42353 0.94159 0.98328 0.0
H1403 H 0.44515 0.97397 0.99593 0.0
H1404 H 0.35237 0.99421 0.91364 0.0
H1405 H 0.40842 0.06764 0.94774 0.0
H1406 H 0.33472 0.96037 0.97913 0.0
H1407 H 0.3695 0.9399 0.97222 0.0
H1408 H 0.34434 0.94885 0.94074 0.0
H1409 H 0.4064 0.05315 0.02107 0.0
H1410 H 0.43636 0.06238 0.9943 0.0
H1411 H 0.43653 0.02621 0.0144 0.0
C1412 C 0.95417 0.61307 0.94722 0.0
C1413 C 0.92852 0.62858 0.95868 0.0
C1414 C 0.9816 0.6119 0.96411 0.0
C1415 C 0.98326 0.62658 0.99301 0.0
C1416 C 0.95683 0.64054 0.00543 0.0
C1417 C 0.92984 0.64131 0.98817 0.0
C1418 C 0.00925 0.59654 0.95027 0.0
C1419 C 0.95752 0.65642 0.03615 0.0
C1420 C 0.0504 0.61617 0.04768 0.0
C1421 C 0.06777 0.64249 0.04145 0.0
C1422 C 0.02326 0.61004 0.03143 0.0
C1423 C 0.01323 0.63084 0.00866 0.0
C1424 C 0.03088 0.65723 0.00209 0.0
C1425 C 0.0579 0.66266 0.01848 0.0
C1426 C 0.00511 0.58158 0.03889 0.0
C1427 C 0.0209 0.68015 0.97817 0.0
H1428 H 0.95328 0.60302 0.92455 0.0
H1429 H 0.90997 0.65293 0.99746 0.0
H1430 H 0.02609 0.61422 0.94319 0.0
H1431 H 0.02066 0.58161 0.96736 0.0
H1432 H 0.00319 0.58257 0.92989 0.0
H1433 H 0.93433 0.66341 0.04389 0.0
H1434 H 0.96773 0.64127 0.05378 0.0
H1435 H 0.97208 0.6772 0.03462 0.0
H1436 H 0.05804 0.6003 0.06517 0.0
H1437 H 0.07117 0.68303 0.01342 0.0
H1438 H 0.00061 0.56826 0.01774 0.0
H1439 H 0.98257 0.58809 0.0486 0.0
H1440 H 0.01711 0.56662 0.0556 0.0
H1441 H 0.01744 0.66855 0.95585 0.0
H1442 H 0.03783 0.69889 0.97503 0.0
H1443 H 0.99866 0.69043 0.98489 0.0
C1444 C 0.0554 0.38584 0.95799 0.0
C1445 C 0.08022 0.3702 0.97104 0.0
C1446 C 0.0274 0.3884 0.97374 0.0
C1447 C 0.02424 0.37498 0.00313 0.0
C1448 C 0.04982 0.36085 0.01709 0.0
C1449 C 0.07743 0.35868 0.00093 0.0
C1450 C 0.00071 0.40389 0.95821 0.0
C1451 C 0.04753 0.34623 0.04836 0.0
C1452 C 0.9548 0.38862 0.05431 0.0
C1453 C 0.9372 0.36243 0.04816 0.0
C1454 C 0.98283 0.39366 0.03915 0.0
C1455 C 0.99351 0.37188 0.0176 0.0
C1456 C 0.97563 0.34565 0.01111 0.0
C1457 C 0.94777 0.34132 0.02636 0.0
C1458 C 0.00119 0.42201 0.04646 0.0
C1459 C 0.98622 0.32169 0.98852 0.0
H1460 H 0.05742 0.39502 0.93502 0.0
H1461 H 0.09661 0.34698 0.01147 0.0
H1462 H 0.98374 0.38637 0.95109 0.0
H1463 H 0.98902 0.41972 0.97425 0.0
H1464 H 0.00794 0.41694 0.9376 0.0
H1465 H 0.07023 0.33908 0.05733 0.0
H1466 H 0.03694 0.36228 0.06493 0.0
H1467 H 0.03258 0.32571 0.04704 0.0
H1468 H 0.94669 0.40517 0.07091 0.0
H1469 H 0.93444 0.321 0.02138 0.0
H1470 H 0.00687 0.43452 0.02509 0.0
H1471 H 0.02316 0.41542 0.05736 0.0
H1472 H 0.98878 0.43774 0.06211 0.0
H1473 H 0.99089 0.3324 0.96596 0.0
H1474 H 0.96909 0.30315 0.98528 0.0
H1475 H 0.00793 0.31126 0.9966 0.0
loop_
_geom_bond_atom_site_label_1
_geom_bond_atom_site_label_2
_geom_bond_distance
_geom_bond_site_symmetry_2
_ccdc_geom_bond_type
Co0 O2 2.143 . S
Co0 O8 2.074 . S
Co0 O11 2.093 . S
Co0 O24 2.097 . S
Co0 N41 2.151 . S
Co0 N49 2.214 . S
Co1 O2 2.160 . S
Co1 O7 2.058 . S
Co1 O17 2.057 . S
Co1 O32 2.037 . S
Co1 N36 2.145 . S
Co1 N57 2.257 . S
O2 Co0 2.143 . S
O2 Co1 2.160 . S
C3 O4 1.278 . S
C3 O11 1.224 . S
O4 C3 1.278 . S
C5 O6 1.245 . S
C5 O17 1.232 . S
O6 C5 1.245 . S
O7 Co1 2.058 . S
O7 C33 1.269 . S
O8 Co0 2.074 . S
O8 C33 1.257 . S
H9 C34 0.930 . S
H10 C40 0.930 . S
O11 Co0 2.093 . S
O11 C3 1.224 . S
H12 C44 0.929 . S
H13 C46 0.930 . S
H14 C47 0.930 . S
H15 C45 0.929 . S
H16 C48 0.928 . S
O17 Co1 2.057 . S
O17 C5 1.232 . S
H18 C37 0.929 . S
H19 C38 0.929 . S
H20 C50 0.931 . S
H21 C42 0.929 . S
H22 C51 0.930 . S
H23 C43 0.931 . S
O24 Co0 2.097 . S
O24 C52 1.214 . S
H25 C53 0.929 . S
H26 C54 0.929 . S
H27 C55 0.930 . S
H28 C56 0.929 . S
H29 C58 0.930 . S
H30 C35 0.930 . S
H31 C39 0.930 . S
O32 Co1 2.037 . S
O32 C52 1.234 . S
C33 O7 1.269 . S
C33 O8 1.257 . S
C34 H9 0.930 . S
C34 C37 1.388 . S
C34 C39 1.418 . S
C35 H30 0.930 . S
C35 C38 1.404 . S
C35 C39 1.353 . S
N36 Co1 2.145 . S
N36 C37 1.397 . S
N36 C38 1.334 . S
C37 H18 0.929 . S
C37 C34 1.388 . S
C37 N36 1.397 . S
C38 H19 0.929 . S
C38 C35 1.404 . S
C38 N36 1.334 . S
C39 H31 0.930 . S
C39 C34 1.418 . S
C39 C35 1.353 . S
C40 H10 0.930 . S
C40 N41 1.330 . S
C40 C42 1.446 1_455 S
N41 Co0 2.151 . S
N41 C40 1.330 . S
N41 C45 1.418 . S
C42 H21 0.929 . S
C42 C40 1.446 1_655 S
C42 C43 1.332 . S
C43 H23 0.931 . S
C43 C42 1.332 . S
C43 C44 1.267 . S
C44 H12 0.929 . S
C44 C43 1.267 . S
C44 C45 1.251 1_655 S
C45 H15 0.929 . S
C45 N41 1.418 . S
C45 C44 1.251 1_455 S
C46 H13 0.930 . S
C46 C48 1.406 . S
C46 C51 1.261 . S
C47 H14 0.930 . S
C47 N49 1.325 . S
C47 C50 1.357 . S
C48 H16 0.928 . S
C48 C46 1.406 . S
C48 N49 1.261 . S
N49 Co0 2.214 . S
N49 C47 1.325 . S
N49 C48 1.261 . S
C50 H20 0.931 . S
C50 C47 1.357 . S
C50 C51 1.312 . S
C51 H22 0.930 . S
C51 C46 1.261 . S
C51 C50 1.312 . S
C52 O24 1.214 . S
C52 O32 1.234 . S
C53 H25 0.929 . S
C53 C56 1.391 . S
C53 C58 1.391 . S
C54 H26 0.929 . S
C54 C55 1.390 . S
C54 N57 1.391 . S
C55 H27 0.930 . S
C55 C54 1.390 . S
C55 C56 1.392 . S
C56 H28 0.929 . S
C56 C53 1.391 . S
C56 C55 1.392 . S
N57 Co1 2.257 . S
N57 C54 1.391 . S
N57 C58 1.388 . S
C58 H29 0.930 . S
C58 C53 1.391 . S
C58 N57 1.388 . S
Co59 O61 2.143 . S
Co59 O67 2.074 . S
Co59 O70 2.093 . S
Co59 O83 2.097 . S
Co59 N100 2.151 . S
Co59 N108 2.214 . S
Co60 O61 2.160 . S
Co60 O66 2.058 . S
Co60 O76 2.057 . S
Co60 O91 2.037 . S
Co60 N95 2.145 . S
Co60 N116 2.257 . S
O61 Co59 2.143 . S
O61 Co60 2.160 . S
C62 O63 1.278 . S
C62 O70 1.224 . S
O63 C62 1.278 . S
C64 O65 1.245 . S
C64 O76 1.232 . S
O65 C64 1.245 . S
O66 Co60 2.058 . S
O66 C92 1.269 . S
O67 Co59 2.074 . S
O67 C92 1.257 . S
H68 C93 0.930 . S
H69 C99 0.930 . S
O70 Co59 2.093 . S
O70 C62 1.224 . S
H71 C103 0.929 . S
H72 C105 0.930 . S
H73 C106 0.930 . S
H74 C104 0.929 . S
H75 C107 0.928 . S
O76 Co60 2.057 . S
O76 C64 1.232 . S
H77 C96 0.929 . S
H78 C97 0.929 . S
H79 C109 0.931 . S
H80 C101 0.929 . S
H81 C110 0.930 . S
H82 C102 0.931 . S
O83 Co59 2.097 . S
O83 C111 1.214 . S
H84 C112 0.929 . S
H85 C113 0.929 . S
H86 C114 0.930 . S
H87 C115 0.929 . S
H88 C117 0.930 . S
H89 C94 0.930 . S
H90 C98 0.930 . S
O91 Co60 2.037 . S
O91 C111 1.234 . S
C92 O66 1.269 . S
C92 O67 1.257 . S
C93 H68 0.930 . S
C93 C96 1.388 . S
C93 C98 1.418 . S
C94 H89 0.930 . S
C94 C97 1.404 . S
C94 C98 1.353 . S
N95 Co60 2.145 . S
N95 C96 1.397 . S
N95 C97 1.334 . S
C96 H77 0.929 . S
C96 C93 1.388 . S
C96 N95 1.397 . S
C97 H78 0.929 . S
C97 C94 1.404 . S
C97 N95 1.334 . S
C98 H90 0.930 . S
C98 C93 1.418 . S
C98 C94 1.353 . S
C99 H69 0.930 . S
C99 N100 1.330 . S
C99 C101 1.446 1_655 S
N100 Co59 2.151 . S
N100 C99 1.330 . S
N100 C104 1.418 . S
C101 H80 0.929 . S
C101 C99 1.446 1_455 S
C101 C102 1.332 . S
C102 H82 0.931 . S
C102 C101 1.332 . S
C102 C103 1.267 . S
C103 H71 0.929 . S
C103 C102 1.267 . S
C103 C104 1.251 1_455 S
C104 H74 0.929 . S
C104 N100 1.418 . S
C104 C103 1.251 1_655 S
C105 H72 0.930 . S
C105 C107 1.406 . S
C105 C110 1.261 . S
C106 H73 0.930 . S
C106 N108 1.325 . S
C106 C109 1.357 . S
C107 H75 0.928 . S
C107 C105 1.406 . S
C107 N108 1.261 . S
N108 Co59 2.214 . S
N108 C106 1.325 . S
N108 C107 1.261 . S
C109 H79 0.931 . S
C109 C106 1.357 . S
C109 C110 1.312 . S
C110 H81 0.930 . S
C110 C105 1.261 . S
C110 C109 1.312 . S
C111 O83 1.214 . S
C111 O91 1.234 . S
C112 H84 0.929 . S
C112 C115 1.391 . S
C112 C117 1.391 . S
C113 H85 0.929 . S
C113 C114 1.390 . S
C113 N116 1.391 . S
C114 H86 0.930 . S
C114 C113 1.390 . S
C114 C115 1.392 . S
C115 H87 0.929 . S
C115 C112 1.391 . S
C115 C114 1.392 . S
N116 Co60 2.257 . S
N116 C113 1.391 . S
N116 C117 1.388 . S
C117 H88 0.930 . S
C117 C112 1.391 . S
C117 N116 1.388 . S
Co118 O120 2.143 . S
Co118 O126 2.074 . S
Co118 O129 2.093 . S
Co118 O142 2.097 . S
Co118 N159 2.151 . S
Co118 N167 2.214 . S
Co119 O120 2.160 . S
Co119 O125 2.058 . S
Co119 O135 2.057 . S
Co119 O150 2.037 . S
Co119 N154 2.145 . S
Co119 N175 2.257 . S
O120 Co118 2.143 . S
O120 Co119 2.160 . S
C121 O122 1.278 . S
C121 O129 1.224 . S
O122 C121 1.278 . S
C123 O124 1.245 . S
C123 O135 1.232 . S
O124 C123 1.245 . S
O125 Co119 2.058 . S
O125 C151 1.269 . S
O126 Co118 2.074 . S
O126 C151 1.257 . S
H127 C152 0.930 . S
H128 C158 0.930 . S
O129 Co118 2.093 . S
O129 C121 1.224 . S
H130 C162 0.929 . S
H131 C164 0.930 . S
H132 C165 0.930 . S
H133 C163 0.929 . S
H134 C166 0.928 . S
O135 Co119 2.057 . S
O135 C123 1.232 . S
H136 C155 0.929 . S
H137 C156 0.929 . S
H138 C168 0.931 . S
H139 C160 0.929 . S
H140 C169 0.930 . S
H141 C161 0.931 . S
O142 Co118 2.097 . S
O142 C170 1.214 . S
H143 C171 0.929 . S
H144 C172 0.929 . S
H145 C173 0.930 . S
H146 C174 0.929 . S
H147 C176 0.930 . S
H148 C153 0.930 . S
H149 C157 0.930 . S
O150 Co119 2.037 . S
O150 C170 1.234 . S
C151 O125 1.269 . S
C151 O126 1.257 . S
C152 H127 0.930 . S
C152 C155 1.388 . S
C152 C157 1.418 . S
C153 H148 0.930 . S
C153 C156 1.404 . S
C153 C157 1.353 . S
N154 Co119 2.145 . S
N154 C155 1.397 . S
N154 C156 1.334 . S
C155 H136 0.929 . S
C155 C152 1.388 . S
C155 N154 1.397 . S
C156 H137 0.929 . S
C156 C153 1.404 . S
C156 N154 1.334 . S
C157 H149 0.930 . S
C157 C152 1.418 . S
C157 C153 1.353 . S
C158 H128 0.930 . S
C158 N159 1.330 . S
C158 C160 1.446 1_455 S
N159 Co118 2.151 . S
N159 C158 1.330 . S
N159 C163 1.418 . S
C160 H139 0.929 . S
C160 C158 1.446 1_655 S
C160 C161 1.332 . S
C161 H141 0.931 . S
C161 C160 1.332 . S
C161 C162 1.267 . S
C162 H130 0.929 . S
C162 C161 1.267 . S
C162 C163 1.251 1_655 S
C163 H133 0.929 . S
C163 N159 1.418 . S
C163 C162 1.251 1_455 S
C164 H131 0.930 . S
C164 C166 1.406 . S
C164 C169 1.261 . S
C165 H132 0.930 . S
C165 N167 1.325 . S
C165 C168 1.357 . S
C166 H134 0.928 . S
C166 C164 1.406 . S
C166 N167 1.261 . S
N167 Co118 2.214 . S
N167 C165 1.325 . S
N167 C166 1.261 . S
C168 H138 0.931 . S
C168 C165 1.357 . S
C168 C169 1.312 . S
C169 H140 0.930 . S
C169 C164 1.261 . S
C169 C168 1.312 . S
C170 O142 1.214 . S
C170 O150 1.234 . S
C171 H143 0.929 . S
C171 C174 1.391 . S
C171 C176 1.391 . S
C172 H144 0.929 . S
C172 C173 1.390 . S
C172 N175 1.391 . S
C173 H145 0.930 . S
C173 C172 1.390 . S
C173 C174 1.392 . S
C174 H146 0.929 . S
C174 C171 1.391 . S
C174 C173 1.392 . S
N175 Co119 2.257 . S
N175 C172 1.391 . S
N175 C176 1.388 . S
C176 H147 0.930 . S
C176 C171 1.391 . S
C176 N175 1.388 . S
Co177 O179 2.143 . S
Co177 O185 2.074 . S
Co177 O188 2.093 . S
Co177 O201 2.097 . S
Co177 N218 2.151 . S
Co177 N226 2.214 . S
Co178 O179 2.160 . S
Co178 O184 2.058 . S
Co178 O194 2.057 . S
Co178 O209 2.037 . S
Co178 N213 2.145 . S
Co178 N234 2.257 . S
O179 Co177 2.143 . S
O179 Co178 2.160 . S
C180 O181 1.278 . S
C180 O188 1.224 . S
O181 C180 1.278 . S
C182 O183 1.245 . S
C182 O194 1.232 . S
O183 C182 1.245 . S
O184 Co178 2.058 . S
O184 C210 1.269 . S
O185 Co177 2.074 . S
O185 C210 1.257 . S
H186 C211 0.930 . S
H187 C217 0.930 . S
O188 Co177 2.093 . S
O188 C180 1.224 . S
H189 C221 0.929 . S
H190 C223 0.930 . S
H191 C224 0.930 . S
H192 C222 0.929 . S
H193 C225 0.928 . S
O194 Co178 2.057 . S
O194 C182 1.232 . S
H195 C214 0.929 . S
H196 C215 0.929 . S
H197 C227 0.931 . S
H198 C219 0.929 . S
H199 C228 0.930 . S
H200 C220 0.931 . S
O201 Co177 2.097 . S
O201 C229 1.214 . S
H202 C230 0.929 . S
H203 C231 0.929 . S
H204 C232 0.930 . S
H205 C233 0.929 . S
H206 C235 0.930 . S
H207 C212 0.930 . S
H208 C216 0.930 . S
O209 Co178 2.037 . S
O209 C229 1.234 . S
C210 O184 1.269 . S
C210 O185 1.257 . S
C211 H186 0.930 . S
C211 C214 1.388 . S
C211 C216 1.418 . S
C212 H207 0.930 . S
C212 C215 1.404 . S
C212 C216 1.353 . S
N213 Co178 2.145 . S
N213 C214 1.397 . S
N213 C215 1.334 . S
C214 H195 0.929 . S
C214 C211 1.388 . S
C214 N213 1.397 . S
C215 H196 0.929 . S
C215 C212 1.404 . S
C215 N213 1.334 . S
C216 H208 0.930 . S
C216 C211 1.418 . S
C216 C212 1.353 . S
C217 H187 0.930 . S
C217 N218 1.330 . S
C217 C219 1.446 1_655 S
N218 Co177 2.151 . S
N218 C217 1.330 . S
N218 C222 1.418 . S
C219 H198 0.929 . S
C219 C217 1.446 1_455 S
C219 C220 1.332 . S
C220 H200 0.931 . S
C220 C219 1.332 . S
C220 C221 1.267 . S
C221 H189 0.929 . S
C221 C220 1.267 . S
C221 C222 1.251 1_455 S
C222 H192 0.929 . S
C222 N218 1.418 . S
C222 C221 1.251 1_655 S
C223 H190 0.930 . S
C223 C225 1.406 . S
C223 C228 1.261 . S
C224 H191 0.930 . S
C224 N226 1.325 . S
C224 C227 1.357 . S
C225 H193 0.928 . S
C225 C223 1.406 . S
C225 N226 1.261 . S
N226 Co177 2.214 . S
N226 C224 1.325 . S
N226 C225 1.261 . S
C227 H197 0.931 . S
C227 C224 1.357 . S
C227 C228 1.312 . S
C228 H199 0.930 . S
C228 C223 1.261 . S
C228 C227 1.312 . S
C229 O201 1.214 . S
C229 O209 1.234 . S
C230 H202 0.929 . S
C230 C233 1.391 . S
C230 C235 1.391 . S
C231 H203 0.929 . S
C231 C232 1.390 . S
C231 N234 1.391 . S
C232 H204 0.930 . S
C232 C231 1.390 . S
C232 C233 1.392 . S
C233 H205 0.929 . S
C233 C230 1.391 . S
C233 C232 1.392 . S
N234 Co178 2.257 . S
N234 C231 1.391 . S
N234 C235 1.388 . S
C235 H206 0.930 . S
C235 C230 1.391 . S
C235 N234 1.388 . S
Co236 O238 2.143 . S
Co236 O244 2.074 . S
Co236 O247 2.093 . S
Co236 O260 2.097 . S
Co236 N277 2.151 . S
Co236 N285 2.214 . S
Co237 O238 2.160 . S
Co237 O243 2.058 . S
Co237 O253 2.057 . S
Co237 O268 2.037 . S
Co237 N272 2.145 . S
Co237 N293 2.257 . S
O238 Co236 2.143 . S
O238 Co237 2.160 . S
C239 O240 1.278 . S
C239 O247 1.224 . S
O240 C239 1.278 . S
C241 O242 1.245 . S
C241 O253 1.232 . S
O242 C241 1.245 . S
O243 Co237 2.058 . S
O243 C269 1.269 . S
O244 Co236 2.074 . S
O244 C269 1.257 . S
H245 C270 0.930 . S
H246 C276 0.930 . S
O247 Co236 2.093 . S
O247 C239 1.224 . S
H248 C280 0.929 . S
H249 C282 0.930 . S
H250 C283 0.930 . S
H251 C281 0.929 . S
H252 C284 0.928 . S
O253 Co237 2.057 . S
O253 C241 1.232 . S
H254 C273 0.929 . S
H255 C274 0.929 . S
H256 C286 0.931 . S
H257 C278 0.929 . S
H258 C287 0.930 . S
H259 C279 0.931 . S
O260 Co236 2.097 . S
O260 C288 1.214 . S
H261 C289 0.929 . S
H262 C290 0.929 . S
H263 C291 0.930 . S
H264 C292 0.929 . S
H265 C294 0.930 . S
H266 C271 0.930 . S
H267 C275 0.930 . S
O268 Co237 2.037 . S
O268 C288 1.234 . S
C269 O243 1.269 . S
C269 O244 1.257 . S
C270 H245 0.930 . S
C270 C273 1.388 . S
C270 C275 1.418 . S
C271 H266 0.930 . S
C271 C274 1.404 . S
C271 C275 1.353 . S
N272 Co237 2.145 . S
N272 C273 1.397 . S
N272 C274 1.334 . S
C273 H254 0.929 . S
C273 C270 1.388 . S
C273 N272 1.397 . S
C274 H255 0.929 . S
C274 C271 1.404 . S
C274 N272 1.334 . S
C275 H267 0.930 . S
C275 C270 1.418 . S
C275 C271 1.353 . S
C276 H246 0.930 . S
C276 N277 1.330 . S
C276 C278 1.446 1_545 S
N277 Co236 2.151 . S
N277 C276 1.330 . S
N277 C281 1.418 . S
C278 H257 0.929 . S
C278 C276 1.446 1_565 S
C278 C279 1.332 . S
C279 H259 0.931 . S
C279 C278 1.332 . S
C279 C280 1.267 . S
C280 H248 0.929 . S
C280 C279 1.267 . S
C280 C281 1.251 1_565 S
C281 H251 0.929 . S
C281 N277 1.418 . S
C281 C280 1.251 1_545 S
C282 H249 0.930 . S
C282 C284 1.406 . S
C282 C287 1.261 . S
C283 H250 0.930 . S
C283 N285 1.325 . S
C283 C286 1.357 . S
C284 H252 0.928 . S
C284 C282 1.406 . S
C284 N285 1.261 . S
N285 Co236 2.214 . S
N285 C283 1.325 . S
N285 C284 1.261 . S
C286 H256 0.931 . S
C286 C283 1.357 . S
C286 C287 1.312 . S
C287 H258 0.930 . S
C287 C282 1.261 . S
C287 C286 1.312 . S
C288 O260 1.214 . S
C288 O268 1.234 . S
C289 H261 0.929 . S
C289 C292 1.391 . S
C289 C294 1.391 . S
C290 H262 0.929 . S
C290 C291 1.390 . S
C290 N293 1.391 . S
C291 H263 0.930 . S
C291 C290 1.390 . S
C291 C292 1.392 . S
C292 H264 0.929 . S
C292 C289 1.391 . S
C292 C291 1.392 . S
N293 Co237 2.257 . S
N293 C290 1.391 . S
N293 C294 1.388 . S
C294 H265 0.930 . S
C294 C289 1.391 . S
C294 N293 1.388 . S
Co295 O297 2.143 . S
Co295 O303 2.074 . S
Co295 O306 2.093 . S
Co295 O319 2.097 . S
Co295 N336 2.151 . S
Co295 N344 2.214 . S
Co296 O297 2.160 . S
Co296 O302 2.058 . S
Co296 O312 2.057 . S
Co296 O327 2.037 . S
Co296 N331 2.145 . S
Co296 N352 2.257 . S
O297 Co295 2.143 . S
O297 Co296 2.160 . S
C298 O299 1.278 . S
C298 O306 1.224 . S
O299 C298 1.278 . S
C300 O301 1.245 . S
C300 O312 1.232 . S
O301 C300 1.245 . S
O302 Co296 2.058 . S
O302 C328 1.269 . S
O303 Co295 2.074 . S
O303 C328 1.257 . S
H304 C329 0.930 . S
H305 C335 0.930 . S
O306 Co295 2.093 . S
O306 C298 1.224 . S
H307 C339 0.929 . S
H308 C341 0.930 . S
H309 C342 0.930 . S
H310 C340 0.929 . S
H311 C343 0.928 . S
O312 Co296 2.057 . S
O312 C300 1.232 . S
H313 C332 0.929 . S
H314 C333 0.929 . S
H315 C345 0.931 . S
H316 C337 0.929 . S
H317 C346 0.930 . S
H318 C338 0.931 . S
O319 Co295 2.097 . S
O319 C347 1.214 . S
H320 C348 0.929 . S
H321 C349 0.929 . S
H322 C350 0.930 . S
H323 C351 0.929 . S
H324 C353 0.930 . S
H325 C330 0.930 . S
H326 C334 0.930 . S
O327 Co296 2.037 . S
O327 C347 1.234 . S
C328 O302 1.269 . S
C328 O303 1.257 . S
C329 H304 0.930 . S
C329 C332 1.388 . S
C329 C334 1.418 . S
C330 H325 0.930 . S
C330 C333 1.404 . S
C330 C334 1.353 . S
N331 Co296 2.145 . S
N331 C332 1.397 . S
N331 C333 1.334 . S
C332 H313 0.929 . S
C332 C329 1.388 . S
C332 N331 1.397 . S
C333 H314 0.929 . S
C333 C330 1.404 . S
C333 N331 1.334 . S
C334 H326 0.930 . S
C334 C329 1.418 . S
C334 C330 1.353 . S
C335 H305 0.930 . S
C335 N336 1.330 . S
C335 C337 1.446 1_565 S
N336 Co295 2.151 . S
N336 C335 1.330 . S
N336 C340 1.418 . S
C337 H316 0.929 . S
C337 C335 1.446 1_545 S
C337 C338 1.332 . S
C338 H318 0.931 . S
C338 C337 1.332 . S
C338 C339 1.267 . S
C339 H307 0.929 . S
C339 C338 1.267 . S
C339 C340 1.251 1_545 S
C340 H310 0.929 . S
C340 N336 1.418 . S
C340 C339 1.251 1_565 S
C341 H308 0.930 . S
C341 C343 1.406 . S
C341 C346 1.261 . S
C342 H309 0.930 . S
C342 N344 1.325 . S
C342 C345 1.357 . S
C343 H311 0.928 . S
C343 C341 1.406 . S
C343 N344 1.261 . S
N344 Co295 2.214 . S
N344 C342 1.325 . S
N344 C343 1.261 . S
C345 H315 0.931 . S
C345 C342 1.357 . S
C345 C346 1.312 . S
C346 H317 0.930 . S
C346 C341 1.261 . S
C346 C345 1.312 . S
C347 O319 1.214 . S
C347 O327 1.234 . S
C348 H320 0.929 . S
C348 C351 1.391 . S
C348 C353 1.391 . S
C349 H321 0.929 . S
C349 C350 1.390 . S
C349 N352 1.391 . S
C350 H322 0.930 . S
C350 C349 1.390 . S
C350 C351 1.392 . S
C351 H323 0.929 . S
C351 C348 1.391 . S
C351 C350 1.392 . S
N352 Co296 2.257 . S
N352 C349 1.391 . S
N352 C353 1.388 . S
C353 H324 0.930 . S
C353 C348 1.391 . S
C353 N352 1.388 . S
Co354 O356 2.143 . S
Co354 O362 2.074 . S
Co354 O365 2.093 . S
Co354 O378 2.097 . S
Co354 N395 2.151 . S
Co354 N403 2.214 . S
Co355 O356 2.160 . S
Co355 O361 2.058 . S
Co355 O371 2.057 . S
Co355 O386 2.037 . S
Co355 N390 2.145 . S
Co355 N411 2.257 . S
O356 Co354 2.143 . S
O356 Co355 2.160 . S
C357 O358 1.278 . S
C357 O365 1.224 . S
O358 C357 1.278 . S
C359 O360 1.245 . S
C359 O371 1.232 . S
O360 C359 1.245 . S
O361 Co355 2.058 . S
O361 C387 1.269 . S
O362 Co354 2.074 . S
O362 C387 1.257 . S
H363 C388 0.930 . S
H364 C394 0.930 . S
O365 Co354 2.093 . S
O365 C357 1.224 . S
H366 C398 0.929 . S
H367 C400 0.930 . S
H368 C401 0.930 . S
H369 C399 0.929 . S
H370 C402 0.928 . S
O371 Co355 2.057 . S
O371 C359 1.232 . S
H372 C391 0.929 . S
H373 C392 0.929 . S
H374 C404 0.931 . S
H375 C396 0.929 . S
H376 C405 0.930 . S
H377 C397 0.931 . S
O378 Co354 2.097 . S
O378 C406 1.214 . S
H379 C407 0.929 . S
H380 C408 0.929 . S
H381 C409 0.930 . S
H382 C410 0.929 . S
H383 C412 0.930 . S
H384 C389 0.930 . S
H385 C393 0.930 . S
O386 Co355 2.037 . S
O386 C406 1.234 . S
C387 O361 1.269 . S
C387 O362 1.257 . S
C388 H363 0.930 . S
C388 C391 1.388 . S
C388 C393 1.418 . S
C389 H384 0.930 . S
C389 C392 1.404 . S
C389 C393 1.353 . S
N390 Co355 2.145 . S
N390 C391 1.397 . S
N390 C392 1.334 . S
C391 H372 0.929 . S
C391 C388 1.388 . S
C391 N390 1.397 . S
C392 H373 0.929 . S
C392 C389 1.404 . S
C392 N390 1.334 . S
C393 H385 0.930 . S
C393 C388 1.418 . S
C393 C389 1.353 . S
C394 H364 0.930 . S
C394 N395 1.330 . S
C394 C396 1.446 1_565 S
N395 Co354 2.151 . S
N395 C394 1.330 . S
N395 C399 1.418 . S
C396 H375 0.929 . S
C396 C394 1.446 1_545 S
C396 C397 1.332 . S
C397 H377 0.931 . S
C397 C396 1.332 . S
C397 C398 1.267 . S
C398 H366 0.929 . S
C398 C397 1.267 . S
C398 C399 1.251 1_545 S
C399 H369 0.929 . S
C399 N395 1.418 . S
C399 C398 1.251 1_565 S
C400 H367 0.930 . S
C400 C402 1.406 . S
C400 C405 1.261 . S
C401 H368 0.930 . S
C401 N403 1.325 . S
C401 C404 1.357 . S
C402 H370 0.928 . S
C402 C400 1.406 . S
C402 N403 1.261 . S
N403 Co354 2.214 . S
N403 C401 1.325 . S
N403 C402 1.261 . S
C404 H374 0.931 . S
C404 C401 1.357 . S
C404 C405 1.312 . S
C405 H376 0.930 . S
C405 C400 1.261 . S
C405 C404 1.312 . S
C406 O378 1.214 . S
C406 O386 1.234 . S
C407 H379 0.929 . S
C407 C410 1.391 . S
C407 C412 1.391 . S
C408 H380 0.929 . S
C408 C409 1.390 . S
C408 N411 1.391 . S
C409 H381 0.930 . S
C409 C408 1.390 . S
C409 C410 1.392 . S
C410 H382 0.929 . S
C410 C407 1.391 . S
C410 C409 1.392 . S
N411 Co355 2.257 . S
N411 C408 1.391 . S
N411 C412 1.388 . S
C412 H383 0.930 . S
C412 C407 1.391 . S
C412 N411 1.388 . S
Co413 O415 2.143 . S
Co413 O421 2.074 . S
Co413 O424 2.093 . S
Co413 O437 2.097 . S
Co413 N454 2.151 . S
Co413 N462 2.214 . S
Co414 O415 2.160 . S
Co414 O420 2.058 . S
Co414 O430 2.057 . S
Co414 O445 2.037 . S
Co414 N449 2.145 . S
Co414 N470 2.257 . S
O415 Co413 2.143 . S
O415 Co414 2.160 . S
C416 O417 1.278 . S
C416 O424 1.224 . S
O417 C416 1.278 . S
C418 O419 1.245 . S
C418 O430 1.232 . S
O419 C418 1.245 . S
O420 Co414 2.058 . S
O420 C446 1.269 . S
O421 Co413 2.074 . S
O421 C446 1.257 . S
H422 C447 0.930 . S
H423 C453 0.930 . S
O424 Co413 2.093 . S
O424 C416 1.224 . S
H425 C457 0.929 . S
H426 C459 0.930 . S
H427 C460 0.930 . S
H428 C458 0.929 . S
H429 C461 0.928 . S
O430 Co414 2.057 . S
O430 C418 1.232 . S
H431 C450 0.929 . S
H432 C451 0.929 . S
H433 C463 0.931 . S
H434 C455 0.929 . S
H435 C464 0.930 . S
H436 C456 0.931 . S
O437 Co413 2.097 . S
O437 C465 1.214 . S
H438 C466 0.929 . S
H439 C467 0.929 . S
H440 C468 0.930 . S
H441 C469 0.929 . S
H442 C471 0.930 . S
H443 C448 0.930 . S
H444 C452 0.930 . S
O445 Co414 2.037 . S
O445 C465 1.234 . S
C446 O420 1.269 . S
C446 O421 1.257 . S
C447 H422 0.930 . S
C447 C450 1.388 . S
C447 C452 1.418 . S
C448 H443 0.930 . S
C448 C451 1.404 . S
C448 C452 1.353 . S
N449 Co414 2.145 . S
N449 C450 1.397 . S
N449 C451 1.334 . S
C450 H431 0.929 . S
C450 C447 1.388 . S
C450 N449 1.397 . S
C451 H432 0.929 . S
C451 C448 1.404 . S
C451 N449 1.334 . S
C452 H444 0.930 . S
C452 C447 1.418 . S
C452 C448 1.353 . S
C453 H423 0.930 . S
C453 N454 1.330 . S
C453 C455 1.446 1_545 S
N454 Co413 2.151 . S
N454 C453 1.330 . S
N454 C458 1.418 . S
C455 H434 0.929 . S
C455 C453 1.446 1_565 S
C455 C456 1.332 . S
C456 H436 0.931 . S
C456 C455 1.332 . S
C456 C457 1.267 . S
C457 H425 0.929 . S
C457 C456 1.267 . S
C457 C458 1.251 1_565 S
C458 H428 0.929 . S
C458 N454 1.418 . S
C458 C457 1.251 1_545 S
C459 H426 0.930 . S
C459 C461 1.406 . S
C459 C464 1.261 . S
C460 H427 0.930 . S
C460 N462 1.325 . S
C460 C463 1.357 . S
C461 H429 0.928 . S
C461 C459 1.406 . S
C461 N462 1.261 . S
N462 Co413 2.214 . S
N462 C460 1.325 . S
N462 C461 1.261 . S
C463 H433 0.931 . S
C463 C460 1.357 . S
C463 C464 1.312 . S
C464 H435 0.930 . S
C464 C459 1.261 . S
C464 C463 1.312 . S
C465 O437 1.214 . S
C465 O445 1.234 . S
C466 H438 0.929 . S
C466 C469 1.391 . S
C466 C471 1.391 . S
C467 H439 0.929 . S
C467 C468 1.390 . S
C467 N470 1.391 . S
C468 H440 0.930 . S
C468 C467 1.390 . S
C468 C469 1.392 . S
C469 H441 0.929 . S
C469 C466 1.391 . S
C469 C468 1.392 . S
N470 Co414 2.257 . S
N470 C467 1.391 . S
N470 C471 1.388 . S
C471 H442 0.930 . S
C471 C466 1.391 . S
C471 N470 1.388 . S
Co472 O474 2.143 . S
Co472 O480 2.074 . S
Co472 O483 2.093 . S
Co472 O496 2.097 . S
Co472 N513 2.151 . S
Co472 N521 2.214 . S
Co473 O474 2.160 . S
Co473 O479 2.058 . S
Co473 O489 2.057 . S
Co473 O504 2.037 . S
Co473 N508 2.145 . S
Co473 N529 2.257 . S
O474 Co472 2.143 . S
O474 Co473 2.160 . S
C475 O476 1.278 . S
C475 O483 1.224 . S
O476 C475 1.278 . S
C477 O478 1.245 . S
C477 O489 1.232 . S
O478 C477 1.245 . S
O479 Co473 2.058 . S
O479 C505 1.269 . S
O480 Co472 2.074 . S
O480 C505 1.257 . S
H481 C506 0.930 . S
H482 C512 0.930 . S
O483 Co472 2.093 . S
O483 C475 1.224 . S
H484 C516 0.929 . S
H485 C518 0.930 . S
H486 C519 0.930 . S
H487 C517 0.929 . S
H488 C520 0.928 . S
O489 Co473 2.057 . S
O489 C477 1.232 . S
H490 C509 0.929 . S
H491 C510 0.929 . S
H492 C522 0.931 . S
H493 C514 0.929 . S
H494 C523 0.930 . S
H495 C515 0.931 . S
O496 Co472 2.097 . S
O496 C524 1.214 . S
H497 C525 0.929 . S
H498 C526 0.929 . S
H499 C527 0.930 . S
H500 C528 0.929 . S
H501 C530 0.930 . S
H502 C507 0.930 . S
H503 C511 0.930 . S
O504 Co473 2.037 . S
O504 C524 1.234 . S
C505 O479 1.269 . S
C505 O480 1.257 . S
C506 H481 0.930 . S
C506 C509 1.388 . S
C506 C511 1.418 . S
C507 H502 0.930 . S
C507 C510 1.404 . S
C507 C511 1.353 . S
N508 Co473 2.145 . S
N508 C509 1.397 . S
N508 C510 1.334 . S
C509 H490 0.929 . S
C509 C506 1.388 . S
C509 N508 1.397 . S
C510 H491 0.929 . S
C510 C507 1.404 . S
C510 N508 1.334 . S
C511 H503 0.930 . S
C511 C506 1.418 . S
C511 C507 1.353 . S
C512 H482 0.930 . S
C512 N513 1.330 . S
C512 C514 1.446 1_554 S
N513 Co472 2.151 . S
N513 C512 1.330 . S
N513 C517 1.418 . S
C514 H493 0.929 . S
C514 C512 1.446 1_556 S
C514 C515 1.332 . S
C515 H495 0.931 . S
C515 C514 1.332 . S
C515 C516 1.267 . S
C516 H484 0.929 . S
C516 C515 1.267 . S
C516 C517 1.251 1_556 S
C517 H487 0.929 . S
C517 N513 1.418 . S
C517 C516 1.251 1_554 S
C518 H485 0.930 . S
C518 C520 1.406 . S
C518 C523 1.261 . S
C519 H486 0.930 . S
C519 N521 1.325 . S
C519 C522 1.357 . S
C520 H488 0.928 . S
C520 C518 1.406 . S
C520 N521 1.261 . S
N521 Co472 2.214 . S
N521 C519 1.325 . S
N521 C520 1.261 . S
C522 H492 0.931 . S
C522 C519 1.357 . S
C522 C523 1.312 . S
C523 H494 0.930 . S
C523 C518 1.261 . S
C523 C522 1.312 . S
C524 O496 1.214 . S
C524 O504 1.234 . S
C525 H497 0.929 . S
C525 C528 1.391 . S
C525 C530 1.391 . S
C526 H498 0.929 . S
C526 C527 1.390 . S
C526 N529 1.391 . S
C527 H499 0.930 . S
C527 C526 1.390 . S
C527 C528 1.392 . S
C528 H500 0.929 . S
C528 C525 1.391 . S
C528 C527 1.392 . S
N529 Co473 2.257 . S
N529 C526 1.391 . S
N529 C530 1.388 . S
C530 H501 0.930 . S
C530 C525 1.391 . S
C530 N529 1.388 . S
Co531 O533 2.143 . S
Co531 O539 2.074 . S
Co531 O542 2.093 . S
Co531 O555 2.097 . S
Co531 N572 2.151 . S
Co531 N580 2.214 . S
Co532 O533 2.160 . S
Co532 O538 2.058 . S
Co532 O548 2.057 . S
Co532 O563 2.037 . S
Co532 N567 2.145 . S
Co532 N588 2.257 . S
O533 Co531 2.143 . S
O533 Co532 2.160 . S
C534 O535 1.278 . S
C534 O542 1.224 . S
O535 C534 1.278 . S
C536 O537 1.245 . S
C536 O548 1.232 . S
O537 C536 1.245 . S
O538 Co532 2.058 . S
O538 C564 1.269 . S
O539 Co531 2.074 . S
O539 C564 1.257 . S
H540 C565 0.930 . S
H541 C571 0.930 . S
O542 Co531 2.093 . S
O542 C534 1.224 . S
H543 C575 0.929 . S
H544 C577 0.930 . S
H545 C578 0.930 . S
H546 C576 0.929 . S
H547 C579 0.928 . S
O548 Co532 2.057 . S
O548 C536 1.232 . S
H549 C568 0.929 . S
H550 C569 0.929 . S
H551 C581 0.931 . S
H552 C573 0.929 . S
H553 C582 0.930 . S
H554 C574 0.931 . S
O555 Co531 2.097 . S
O555 C583 1.214 . S
H556 C584 0.929 . S
H557 C585 0.929 . S
H558 C586 0.930 . S
H559 C587 0.929 . S
H560 C589 0.930 . S
H561 C566 0.930 . S
H562 C570 0.930 . S
O563 Co532 2.037 . S
O563 C583 1.234 . S
C564 O538 1.269 . S
C564 O539 1.257 . S
C565 H540 0.930 . S
C565 C568 1.388 . S
C565 C570 1.418 . S
C566 H561 0.930 . S
C566 C569 1.404 . S
C566 C570 1.353 . S
N567 Co532 2.145 . S
N567 C568 1.397 . S
N567 C569 1.334 . S
C568 H549 0.929 . S
C568 C565 1.388 . S
C568 N567 1.397 . S
C569 H550 0.929 . S
C569 C566 1.404 . S
C569 N567 1.334 . S
C570 H562 0.930 . S
C570 C565 1.418 . S
C570 C566 1.353 . S
C571 H541 0.930 . S
C571 N572 1.330 . S
C571 C573 1.446 1_556 S
N572 Co531 2.151 . S
N572 C571 1.330 . S
N572 C576 1.418 . S
C573 H552 0.929 . S
C573 C571 1.446 1_554 S
C573 C574 1.332 . S
C574 H554 0.931 . S
C574 C573 1.332 . S
C574 C575 1.267 . S
C575 H543 0.929 . S
C575 C574 1.267 . S
C575 C576 1.251 1_554 S
C576 H546 0.929 . S
C576 N572 1.418 . S
C576 C575 1.251 1_556 S
C577 H544 0.930 . S
C577 C579 1.406 . S
C577 C582 1.261 . S
C578 H545 0.930 . S
C578 N580 1.325 . S
C578 C581 1.357 . S
C579 H547 0.928 . S
C579 C577 1.406 . S
C579 N580 1.261 . S
N580 Co531 2.214 . S
N580 C578 1.325 . S
N580 C579 1.261 . S
C581 H551 0.931 . S
C581 C578 1.357 . S
C581 C582 1.312 . S
C582 H553 0.930 . S
C582 C577 1.261 . S
C582 C581 1.312 . S
C583 O555 1.214 . S
C583 O563 1.234 . S
C584 H556 0.929 . S
C584 C587 1.391 . S
C584 C589 1.391 . S
C585 H557 0.929 . S
C585 C586 1.390 . S
C585 N588 1.391 . S
C586 H558 0.930 . S
C586 C585 1.390 . S
C586 C587 1.392 . S
C587 H559 0.929 . S
C587 C584 1.391 . S
C587 C586 1.392 . S
N588 Co532 2.257 . S
N588 C585 1.391 . S
N588 C589 1.388 . S
C589 H560 0.930 . S
C589 C584 1.391 . S
C589 N588 1.388 . S
Co590 O592 2.143 . S
Co590 O598 2.074 . S
Co590 O601 2.093 . S
Co590 O614 2.097 . S
Co590 N631 2.151 . S
Co590 N639 2.214 . S
Co591 O592 2.160 . S
Co591 O597 2.058 . S
Co591 O607 2.057 . S
Co591 O622 2.037 . S
Co591 N626 2.145 . S
Co591 N647 2.257 . S
O592 Co590 2.143 . S
O592 Co591 2.160 . S
C593 O594 1.278 . S
C593 O601 1.224 . S
O594 C593 1.278 . S
C595 O596 1.245 . S
C595 O607 1.232 . S
O596 C595 1.245 . S
O597 Co591 2.058 . S
O597 C623 1.269 . S
O598 Co590 2.074 . S
O598 C623 1.257 . S
H599 C624 0.930 . S
H600 C630 0.930 . S
O601 Co590 2.093 . S
O601 C593 1.224 . S
H602 C634 0.929 . S
H603 C636 0.930 . S
H604 C637 0.930 . S
H605 C635 0.929 . S
H606 C638 0.928 . S
O607 Co591 2.057 . S
O607 C595 1.232 . S
H608 C627 0.929 . S
H609 C628 0.929 . S
H610 C640 0.931 . S
H611 C632 0.929 . S
H612 C641 0.930 . S
H613 C633 0.931 . S
O614 Co590 2.097 . S
O614 C642 1.214 . S
H615 C643 0.929 . S
H616 C644 0.929 . S
H617 C645 0.930 . S
H618 C646 0.929 . S
H619 C648 0.930 . S
H620 C625 0.930 . S
H621 C629 0.930 . S
O622 Co591 2.037 . S
O622 C642 1.234 . S
C623 O597 1.269 . S
C623 O598 1.257 . S
C624 H599 0.930 . S
C624 C627 1.388 . S
C624 C629 1.418 . S
C625 H620 0.930 . S
C625 C628 1.404 . S
C625 C629 1.353 . S
N626 Co591 2.145 . S
N626 C627 1.397 . S
N626 C628 1.334 . S
C627 H608 0.929 . S
C627 C624 1.388 . S
C627 N626 1.397 . S
C628 H609 0.929 . S
C628 C625 1.404 . S
C628 N626 1.334 . S
C629 H621 0.930 . S
C629 C624 1.418 . S
C629 C625 1.353 . S
C630 H600 0.930 . S
C630 N631 1.330 . S
C630 C632 1.446 1_556 S
N631 Co590 2.151 . S
N631 C630 1.330 . S
N631 C635 1.418 . S
C632 H611 0.929 . S
C632 C630 1.446 1_554 S
C632 C633 1.332 . S
C633 H613 0.931 . S
C633 C632 1.332 . S
C633 C634 1.267 . S
C634 H602 0.929 . S
C634 C633 1.267 . S
C634 C635 1.251 1_554 S
C635 H605 0.929 . S
C635 N631 1.418 . S
C635 C634 1.251 1_556 S
C636 H603 0.930 . S
C636 C638 1.406 . S
C636 C641 1.261 . S
C637 H604 0.930 . S
C637 N639 1.325 . S
C637 C640 1.357 . S
C638 H606 0.928 . S
C638 C636 1.406 . S
C638 N639 1.261 . S
N639 Co590 2.214 . S
N639 C637 1.325 . S
N639 C638 1.261 . S
C640 H610 0.931 . S
C640 C637 1.357 . S
C640 C641 1.312 . S
C641 H612 0.930 . S
C641 C636 1.261 . S
C641 C640 1.312 . S
C642 O614 1.214 . S
C642 O622 1.234 . S
C643 H615 0.929 . S
C643 C646 1.391 . S
C643 C648 1.391 . S
C644 H616 0.929 . S
C644 C645 1.390 . S
C644 N647 1.391 . S
C645 H617 0.930 . S
C645 C644 1.390 . S
C645 C646 1.392 . S
C646 H618 0.929 . S
C646 C643 1.391 . S
C646 C645 1.392 . S
N647 Co591 2.257 . S
N647 C644 1.391 . S
N647 C648 1.388 . S
C648 H619 0.930 . S
C648 C643 1.391 . S
C648 N647 1.388 . S
Co649 O651 2.143 . S
Co649 O657 2.074 . S
Co649 O660 2.093 . S
Co649 O673 2.097 . S
Co649 N690 2.151 . S
Co649 N698 2.214 . S
Co650 O651 2.160 . S
Co650 O656 2.058 . S
Co650 O666 2.057 . S
Co650 O681 2.037 . S
Co650 N685 2.145 . S
Co650 N706 2.257 . S
O651 Co649 2.143 . S
O651 Co650 2.160 . S
C652 O653 1.278 . S
C652 O660 1.224 . S
O653 C652 1.278 . S
C654 O655 1.245 . S
C654 O666 1.232 . S
O655 C654 1.245 . S
O656 Co650 2.058 . S
O656 C682 1.269 . S
O657 Co649 2.074 . S
O657 C682 1.257 . S
H658 C683 0.930 . S
H659 C689 0.930 . S
O660 Co649 2.093 . S
O660 C652 1.224 . S
H661 C693 0.929 . S
H662 C695 0.930 . S
H663 C696 0.930 . S
H664 C694 0.929 . S
H665 C697 0.928 . S
O666 Co650 2.057 . S
O666 C654 1.232 . S
H667 C686 0.929 . S
H668 C687 0.929 . S
H669 C699 0.931 . S
H670 C691 0.929 . S
H671 C700 0.930 . S
H672 C692 0.931 . S
O673 Co649 2.097 . S
O673 C701 1.214 . S
H674 C702 0.929 . S
H675 C703 0.929 . S
H676 C704 0.930 . S
H677 C705 0.929 . S
H678 C707 0.930 . S
H679 C684 0.930 . S
H680 C688 0.930 . S
O681 Co650 2.037 . S
O681 C701 1.234 . S
C682 O656 1.269 . S
C682 O657 1.257 . S
C683 H658 0.930 . S
C683 C686 1.388 . S
C683 C688 1.418 . S
C684 H679 0.930 . S
C684 C687 1.404 . S
C684 C688 1.353 . S
N685 Co650 2.145 . S
N685 C686 1.397 . S
N685 C687 1.334 . S
C686 H667 0.929 . S
C686 C683 1.388 . S
C686 N685 1.397 . S
C687 H668 0.929 . S
C687 C684 1.404 . S
C687 N685 1.334 . S
C688 H680 0.930 . S
C688 C683 1.418 . S
C688 C684 1.353 . S
C689 H659 0.930 . S
C689 N690 1.330 . S
C689 C691 1.446 1_554 S
N690 Co649 2.151 . S
N690 C689 1.330 . S
N690 C694 1.418 . S
C691 H670 0.929 . S
C691 C689 1.446 1_556 S
C691 C692 1.332 . S
C692 H672 0.931 . S
C692 C691 1.332 . S
C692 C693 1.267 . S
C693 H661 0.929 . S
C693 C692 1.267 . S
C693 C694 1.251 1_556 S
C694 H664 0.929 . S
C694 N690 1.418 . S
C694 C693 1.251 1_554 S
C695 H662 0.930 . S
C695 C697 1.406 . S
C695 C700 1.261 . S
C696 H663 0.930 . S
C696 N698 1.325 . S
C696 C699 1.357 . S
C697 H665 0.928 . S
C697 C695 1.406 . S
C697 N698 1.261 . S
N698 Co649 2.214 . S
N698 C696 1.325 . S
N698 C697 1.261 . S
C699 H669 0.931 . S
C699 C696 1.357 . S
C699 C700 1.312 . S
C700 H671 0.930 . S
C700 C695 1.261 . S
C700 C699 1.312 . S
C701 O673 1.214 . S
C701 O681 1.234 . S
C702 H674 0.929 . S
C702 C705 1.391 . S
C702 C707 1.391 . S
C703 H675 0.929 . S
C703 C704 1.390 . S
C703 N706 1.391 . S
C704 H676 0.930 . S
C704 C703 1.390 . S
C704 C705 1.392 . S
C705 H677 0.929 . S
C705 C702 1.391 . S
C705 C704 1.392 . S
N706 Co650 2.257 . S
N706 C703 1.391 . S
N706 C707 1.388 . S
C707 H678 0.930 . S
C707 C702 1.391 . S
C707 N706 1.388 . S
C708 C709 1.391 . S
C708 C710 1.394 . S
C708 H724 0.931 . S
C709 C708 1.391 . S
C709 C713 1.376 . S
C710 C708 1.394 . S
C710 C711 1.369 . S
C710 C714 1.531 1_655 S
C711 C710 1.369 . S
C711 C712 1.410 . S
C711 C719 1.503 1_655 S
C712 C711 1.410 . S
C712 C713 1.392 . S
C712 C715 1.511 . S
C713 C709 1.376 . S
C713 C712 1.392 . S
C713 H725 0.929 . S
C714 C710 1.531 1_455 S
C714 H726 0.960 . S
C714 H727 0.962 . S
C714 H728 0.960 . S
C715 C712 1.511 . S
C715 H729 0.961 . S
C715 H730 0.961 . S
C715 H731 0.961 . S
C716 C717 1.370 . S
C716 C718 1.363 . S
C716 H732 0.931 . S
C717 C716 1.370 . S
C717 C721 1.408 . S
C718 C716 1.363 . S
C718 C719 1.370 . S
C718 C722 1.524 . S
C719 C711 1.503 1_455 S
C719 C718 1.370 . S
C719 C720 1.405 . S
C720 C719 1.405 . S
C720 C721 1.410 . S
C720 C723 1.531 1_455 S
C721 C717 1.408 . S
C721 C720 1.410 . S
C721 H733 0.930 . S
C722 C718 1.524 . S
C722 H734 0.956 . S
C722 H735 0.961 . S
C722 H736 0.961 . S
C723 C720 1.531 1_655 S
C723 H737 0.958 . S
C723 H738 0.961 . S
C723 H739 0.960 . S
H724 C708 0.931 . S
H725 C713 0.929 . S
H726 C714 0.960 . S
H727 C714 0.962 . S
H728 C714 0.960 . S
H729 C715 0.961 . S
H730 C715 0.961 . S
H731 C715 0.961 . S
H732 C716 0.931 . S
H733 C721 0.930 . S
H734 C722 0.956 . S
H735 C722 0.961 . S
H736 C722 0.961 . S
H737 C723 0.958 . S
H738 C723 0.961 . S
H739 C723 0.960 . S
C740 C741 1.391 . S
C740 C742 1.394 . S
C740 H756 0.931 . S
C741 C740 1.391 . S
C741 C745 1.376 . S
C742 C740 1.394 . S
C742 C743 1.369 . S
C742 C746 1.531 1_455 S
C743 C742 1.369 . S
C743 C744 1.410 . S
C743 C751 1.503 1_455 S
C744 C743 1.410 . S
C744 C745 1.392 . S
C744 C747 1.511 . S
C745 C741 1.376 . S
C745 C744 1.392 . S
C745 H757 0.929 . S
C746 C742 1.531 1_655 S
C746 H758 0.960 . S
C746 H759 0.962 . S
C746 H760 0.960 . S
C747 C744 1.511 . S
C747 H761 0.961 . S
C747 H762 0.961 . S
C747 H763 0.961 . S
C748 C749 1.370 . S
C748 C750 1.363 . S
C748 H764 0.931 . S
C749 C748 1.370 . S
C749 C753 1.408 . S
C750 C748 1.363 . S
C750 C751 1.370 . S
C750 C754 1.524 1_655 S
C751 C743 1.503 1_655 S
C751 C750 1.370 . S
C751 C752 1.403 . S
C752 C751 1.403 . S
C752 C753 1.404 . S
C752 C755 1.539 . S
C753 C749 1.408 . S
C753 C752 1.404 . S
C753 H765 0.930 . S
C754 C750 1.524 1_455 S
C754 H766 0.956 . S
C754 H767 0.961 . S
C754 H768 0.961 . S
C755 C752 1.539 . S
C755 H769 0.958 . S
C755 H770 0.961 . S
C755 H771 0.960 . S
H756 C740 0.931 . S
H757 C745 0.929 . S
H758 C746 0.960 . S
H759 C746 0.962 . S
H760 C746 0.960 . S
H761 C747 0.961 . S
H762 C747 0.961 . S
H763 C747 0.961 . S
H764 C748 0.931 . S
H765 C753 0.930 . S
H766 C754 0.956 . S
H767 C754 0.961 . S
H768 C754 0.961 . S
H769 C755 0.958 . S
H770 C755 0.961 . S
H771 C755 0.960 . S
C772 C773 1.391 . S
C772 C774 1.394 1_565 S
C772 H788 0.931 . S
C773 C772 1.391 . S
C773 C777 1.376 . S
C774 C772 1.394 1_545 S
C774 C775 1.369 1_545 S
C774 C778 1.531 . S
C775 C774 1.369 1_565 S
C775 C776 1.410 . S
C775 C783 1.503 1_565 S
C776 C775 1.410 . S
C776 C777 1.392 . S
C776 C779 1.511 . S
C777 C773 1.376 . S
C777 C776 1.392 . S
C777 H789 0.929 . S
C778 C774 1.531 . S
C778 H790 0.960 . S
C778 H791 0.962 . S
C778 H792 0.960 . S
C779 C776 1.511 . S
C779 H793 0.961 . S
C779 H794 0.961 . S
C779 H795 0.961 . S
C780 C781 1.370 . S
C780 C782 1.363 . S
C780 H796 0.931 . S
C781 C780 1.370 . S
C781 C785 1.408 . S
C782 C780 1.363 . S
C782 C783 1.370 . S
C782 C786 1.524 1_545 S
C783 C775 1.503 1_545 S
C783 C782 1.370 . S
C783 C784 1.403 . S
C784 C783 1.403 . S
C784 C785 1.404 . S
C784 C787 1.539 . S
C785 C781 1.408 . S
C785 C784 1.404 . S
C785 H797 0.930 . S
C786 C782 1.524 1_565 S
C786 H798 0.956 . S
C786 H799 0.961 . S
C786 H800 0.961 . S
C787 C784 1.539 . S
C787 H801 0.958 . S
C787 H802 0.961 . S
C787 H803 0.960 . S
H788 C772 0.931 . S
H789 C777 0.929 . S
H790 C778 0.960 . S
H791 C778 0.962 . S
H792 C778 0.960 . S
H793 C779 0.961 . S
H794 C779 0.961 . S
H795 C779 0.961 . S
H796 C780 0.931 . S
H797 C785 0.930 . S
H798 C786 0.956 . S
H799 C786 0.961 . S
H800 C786 0.961 . S
H801 C787 0.958 . S
H802 C787 0.961 . S
H803 C787 0.960 . S
C804 C805 1.391 . S
C804 C806 1.394 . S
C804 H820 0.931 . S
C805 C804 1.391 . S
C805 C809 1.376 . S
C806 C804 1.394 . S
C806 C807 1.369 . S
C806 C810 1.520 1_565 S
C807 C806 1.369 . S
C807 C808 1.410 . S
C807 C815 1.503 1_565 S
C808 C807 1.410 . S
C808 C809 1.392 . S
C808 C811 1.511 . S
C809 C805 1.376 . S
C809 C808 1.392 . S
C809 H821 0.929 . S
C810 C806 1.520 1_545 S
C810 H822 0.987 . S
C810 H823 0.945 1_545 S
C810 H824 0.963 . S
C811 C808 1.511 . S
C811 H825 0.961 . S
C811 H826 0.961 . S
C811 H827 0.961 1_565 S
C812 C813 1.370 . S
C812 C814 1.365 1_545 S
C812 H828 0.931 . S
C813 C812 1.370 . S
C813 C817 1.408 . S
C814 C812 1.365 1_565 S
C814 C815 1.372 1_565 S
C814 C818 1.521 . S
C815 C807 1.503 1_545 S
C815 C814 1.372 1_545 S
C815 C816 1.403 . S
C816 C815 1.403 . S
C816 C817 1.404 . S
C816 C819 1.539 . S
C817 C813 1.408 . S
C817 C816 1.404 . S
C817 H829 0.930 . S
C818 C814 1.521 . S
C818 H830 0.956 . S
C818 H831 0.961 . S
C818 H832 0.961 . S
C819 C816 1.539 . S
C819 H833 0.958 . S
C819 H834 0.961 . S
C819 H835 0.960 . S
H820 C804 0.931 . S
H821 C809 0.929 . S
H822 C810 0.987 . S
H823 C810 0.945 1_565 S
H824 C810 0.963 . S
H825 C811 0.961 . S
H826 C811 0.961 . S
H827 C811 0.961 1_545 S
H828 C812 0.931 . S
H829 C817 0.930 . S
H830 C818 0.956 . S
H831 C818 0.961 . S
H832 C818 0.961 . S
H833 C819 0.958 . S
H834 C819 0.961 . S
H835 C819 0.960 . S
C836 C837 1.391 . S
C836 C838 1.394 . S
C836 H852 0.931 . S
C837 C836 1.391 . S
C837 C841 1.376 . S
C838 C836 1.394 . S
C838 C839 1.369 . S
C838 C842 1.531 . S
C839 C838 1.369 . S
C839 C840 1.410 1_556 S
C839 C847 1.503 1_556 S
C840 C839 1.410 1_554 S
C840 C841 1.392 1_554 S
C840 C843 1.511 . S
C841 C837 1.376 . S
C841 C840 1.392 1_556 S
C841 H853 0.929 . S
C842 C838 1.531 . S
C842 H854 0.960 . S
C842 H855 0.962 . S
C842 H856 0.960 . S
C843 C840 1.511 . S
C843 H857 0.961 . S
C843 H858 0.961 . S
C843 H859 0.961 . S
C844 C845 1.370 . S
C844 C846 1.363 . S
C844 H860 0.931 . S
C845 C844 1.370 . S
C845 C849 1.408 . S
C846 C844 1.363 . S
C846 C847 1.370 . S
C846 C850 1.524 1_554 S
C847 C839 1.503 1_554 S
C847 C846 1.370 . S
C847 C848 1.403 . S
C848 C847 1.403 . S
C848 C849 1.404 . S
C848 C851 1.539 . S
C849 C845 1.408 . S
C849 C848 1.404 . S
C849 H861 0.930 . S
C850 C846 1.524 1_556 S
C850 H862 0.956 . S
C850 H863 0.961 1_556 S
C850 H864 0.961 1_556 S
C851 C848 1.539 . S
C851 H865 0.958 . S
C851 H866 0.961 . S
C851 H867 0.960 . S
H852 C836 0.931 . S
H853 C841 0.929 . S
H854 C842 0.960 . S
H855 C842 0.962 . S
H856 C842 0.960 . S
H857 C843 0.961 . S
H858 C843 0.961 . S
H859 C843 0.961 . S
H860 C844 0.931 . S
H861 C849 0.930 . S
H862 C850 0.956 . S
H863 C850 0.961 1_554 S
H864 C850 0.961 1_554 S
H865 C851 0.958 . S
H866 C851 0.961 . S
H867 C851 0.960 . S
C868 C869 1.391 . S
C868 C870 1.394 . S
C868 H884 0.931 . S
C869 C868 1.391 . S
C869 C873 1.376 . S
C870 C868 1.394 . S
C870 C871 1.369 . S
C870 C874 1.531 . S
C871 C870 1.369 . S
C871 C872 1.410 . S
C871 C879 1.503 1_556 S
C872 C871 1.410 . S
C872 C873 1.392 . S
C872 C875 1.511 1_556 S
C873 C869 1.376 . S
C873 C872 1.392 . S
C873 H885 0.929 . S
C874 C870 1.531 . S
C874 H886 0.960 . S
C874 H887 0.962 . S
C874 H888 0.960 . S
C875 C872 1.511 1_554 S
C875 H889 0.961 . S
C875 H890 0.961 . S
C875 H891 0.961 . S
C876 C877 1.370 . S
C876 C878 1.363 . S
C876 H892 0.931 . S
C877 C876 1.370 . S
C877 C881 1.408 . S
C878 C876 1.363 . S
C878 C879 1.370 . S
C878 C882 1.524 . S
C879 C871 1.503 1_554 S
C879 C878 1.370 . S
C879 C880 1.403 . S
C880 C879 1.403 . S
C880 C881 1.404 . S
C880 C883 1.539 1_554 S
C881 C877 1.408 . S
C881 C880 1.404 . S
C881 H893 0.930 . S
C882 C878 1.524 . S
C882 H894 0.956 . S
C882 H895 0.961 . S
C882 H896 0.961 . S
C883 C880 1.539 1_556 S
C883 H897 0.958 . S
C883 H898 0.961 . S
C883 H899 0.960 . S
H884 C868 0.931 . S
H885 C873 0.929 . S
H886 C874 0.960 . S
H887 C874 0.962 . S
H888 C874 0.960 . S
H889 C875 0.961 . S
H890 C875 0.961 . S
H891 C875 0.961 . S
H892 C876 0.931 . S
H893 C881 0.930 . S
H894 C882 0.956 . S
H895 C882 0.961 . S
H896 C882 0.961 . S
H897 C883 0.958 . S
H898 C883 0.961 . S
H899 C883 0.960 . S
C900 C901 1.391 . S
C900 C902 1.394 . S
C900 H916 0.931 . S
C901 C900 1.391 . S
C901 C905 1.376 . S
C902 C900 1.394 . S
C902 C903 1.369 . S
C902 C906 1.531 . S
C903 C902 1.369 . S
C903 C904 1.410 . S
C903 C911 1.503 . S
C904 C903 1.410 . S
C904 C905 1.392 . S
C904 C907 1.511 . S
C905 C901 1.376 . S
C905 C904 1.392 . S
C905 H917 0.929 . S
C906 C902 1.531 . S
C906 H918 0.960 . S
C906 H919 0.962 . S
C906 H920 0.960 . S
C907 C904 1.511 . S
C907 H921 0.961 . S
C907 H922 0.961 . S
C907 H923 0.961 . S
C908 C909 1.370 . S
C908 C910 1.363 . S
C908 H924 0.931 . S
C909 C908 1.370 . S
C909 C913 1.408 . S
C910 C908 1.363 . S
C910 C911 1.370 . S
C910 C914 1.524 . S
C911 C903 1.503 . S
C911 C910 1.370 . S
C911 C912 1.403 . S
C912 C911 1.403 . S
C912 C913 1.404 . S
C912 C915 1.539 . S
C913 C909 1.408 . S
C913 C912 1.404 . S
C913 H925 0.930 . S
C914 C910 1.524 . S
C914 H926 0.956 . S
C914 H927 0.961 . S
C914 H928 0.961 . S
C915 C912 1.539 . S
C915 H929 0.958 . S
C915 H930 0.961 . S
C915 H931 0.960 . S
H916 C900 0.931 . S
H917 C905 0.929 . S
H918 C906 0.960 . S
H919 C906 0.962 . S
H920 C906 0.960 . S
H921 C907 0.961 . S
H922 C907 0.961 . S
H923 C907 0.961 . S
H924 C908 0.931 . S
H925 C913 0.930 . S
H926 C914 0.956 . S
H927 C914 0.961 . S
H928 C914 0.961 . S
H929 C915 0.958 . S
H930 C915 0.961 . S
H931 C915 0.960 . S
C932 C933 1.391 . S
C932 C934 1.394 . S
C932 H948 0.931 . S
C933 C932 1.391 . S
C933 C937 1.376 . S
C934 C932 1.394 . S
C934 C935 1.369 . S
C934 C938 1.531 . S
C935 C934 1.369 . S
C935 C936 1.410 . S
C935 C943 1.503 . S
C936 C935 1.410 . S
C936 C937 1.392 . S
C936 C939 1.511 . S
C937 C933 1.376 . S
C937 C936 1.392 . S
C937 H949 0.929 . S
C938 C934 1.531 . S
C938 H950 0.960 . S
C938 H951 0.962 . S
C938 H952 0.960 . S
C939 C936 1.511 . S
C939 H953 0.961 . S
C939 H954 0.961 . S
C939 H955 0.961 . S
C940 C941 1.370 . S
C940 C942 1.363 . S
C940 H956 0.931 . S
C941 C940 1.370 . S
C941 C945 1.408 . S
C942 C940 1.363 . S
C942 C943 1.370 . S
C942 C946 1.524 . S
C943 C935 1.503 . S
C943 C942 1.370 . S
C943 C944 1.403 . S
C944 C943 1.403 . S
C944 C945 1.404 . S
C944 C947 1.539 . S
C945 C941 1.408 . S
C945 C944 1.404 . S
C945 H957 0.930 . S
C946 C942 1.524 . S
C946 H958 0.956 . S
C946 H959 0.961 . S
C946 H960 0.961 . S
C947 C944 1.539 . S
C947 H961 0.958 . S
C947 H962 0.961 . S
C947 H963 0.960 . S
H948 C932 0.931 . S
H949 C937 0.929 . S
H950 C938 0.960 . S
H951 C938 0.962 . S
H952 C938 0.960 . S
H953 C939 0.961 . S
H954 C939 0.961 . S
H955 C939 0.961 . S
H956 C940 0.931 . S
H957 C945 0.930 . S
H958 C946 0.956 . S
H959 C946 0.961 . S
H960 C946 0.961 . S
H961 C947 0.958 . S
H962 C947 0.961 . S
H963 C947 0.960 . S
C964 C965 1.391 . S
C964 C966 1.394 . S
C964 H980 0.931 . S
C965 C964 1.391 . S
C965 C969 1.376 . S
C966 C964 1.394 . S
C966 C967 1.369 . S
C966 C970 1.531 . S
C967 C966 1.369 . S
C967 C968 1.410 . S
C967 C975 1.503 . S
C968 C967 1.410 . S
C968 C969 1.392 . S
C968 C971 1.511 . S
C969 C965 1.376 . S
C969 C968 1.392 . S
C969 H981 0.929 . S
C970 C966 1.531 . S
C970 H982 0.960 . S
C970 H983 0.962 . S
C970 H984 0.960 . S
C971 C968 1.511 . S
C971 H985 0.961 . S
C971 H986 0.961 . S
C971 H987 0.961 . S
C972 C973 1.370 . S
C972 C974 1.363 . S
C972 H988 0.931 . S
C973 C972 1.370 . S
C973 C977 1.408 . S
C974 C972 1.363 . S
C974 C975 1.370 . S
C974 C978 1.524 . S
C975 C967 1.503 . S
C975 C974 1.370 . S
C975 C976 1.403 . S
C976 C975 1.403 . S
C976 C977 1.404 . S
C976 C979 1.539 . S
C977 C973 1.408 . S
C977 C976 1.404 . S
C977 H989 0.930 . S
C978 C974 1.524 . S
C978 H990 0.956 . S
C978 H991 0.961 . S
C978 H992 0.961 . S
C979 C976 1.539 . S
C979 H993 0.958 . S
C979 H994 0.961 . S
C979 H995 0.960 . S
H980 C964 0.931 . S
H981 C969 0.929 . S
H982 C970 0.960 . S
H983 C970 0.962 . S
H984 C970 0.960 . S
H985 C971 0.961 . S
H986 C971 0.961 . S
H987 C971 0.961 . S
H988 C972 0.931 . S
H989 C977 0.930 . S
H990 C978 0.956 . S
H991 C978 0.961 . S
H992 C978 0.961 . S
H993 C979 0.958 . S
H994 C979 0.961 . S
H995 C979 0.960 . S
C996 C997 1.391 . S
C996 C998 1.394 . S
C996 H1012 0.931 . S
C997 C996 1.391 . S
C997 C1001 1.376 . S
C998 C996 1.394 . S
C998 C999 1.369 . S
C998 C1002 1.531 . S
C999 C998 1.369 . S
C999 C1000 1.410 . S
C999 C1007 1.503 . S
C1000 C999 1.410 . S
C1000 C1001 1.392 . S
C1000 C1003 1.511 . S
C1001 C997 1.376 . S
C1001 C1000 1.392 . S
C1001 H1013 0.929 . S
C1002 C998 1.531 . S
C1002 H1014 0.960 . S
C1002 H1015 0.962 . S
C1002 H1016 0.960 . S
C1003 C1000 1.511 . S
C1003 H1017 0.961 . S
C1003 H1018 0.961 . S
C1003 H1019 0.961 . S
C1004 C1005 1.370 . S
C1004 C1006 1.363 . S
C1004 H1020 0.931 . S
C1005 C1004 1.370 . S
C1005 C1009 1.408 . S
C1006 C1004 1.363 . S
C1006 C1007 1.370 . S
C1006 C1010 1.524 . S
C1007 C999 1.503 . S
C1007 C1006 1.370 . S
C1007 C1008 1.403 . S
C1008 C1007 1.403 . S
C1008 C1009 1.404 . S
C1008 C1011 1.539 . S
C1009 C1005 1.408 . S
C1009 C1008 1.404 . S
C1009 H1021 0.930 . S
C1010 C1006 1.524 . S
C1010 H1022 0.956 . S
C1010 H1023 0.961 . S
C1010 H1024 0.961 . S
C1011 C1008 1.539 . S
C1011 H1025 0.958 . S
C1011 H1026 0.961 . S
C1011 H1027 0.960 . S
H1012 C996 0.931 . S
H1013 C1001 0.929 . S
H1014 C1002 0.960 . S
H1015 C1002 0.962 . S
H1016 C1002 0.960 . S
H1017 C1003 0.961 . S
H1018 C1003 0.961 . S
H1019 C1003 0.961 . S
H1020 C1004 0.931 . S
H1021 C1009 0.930 . S
H1022 C1010 0.956 . S
H1023 C1010 0.961 . S
H1024 C1010 0.961 . S
H1025 C1011 0.958 . S
H1026 C1011 0.961 . S
H1027 C1011 0.960 . S
C1028 C1029 1.391 . S
C1028 C1030 1.394 . S
C1028 H1044 0.931 . S
C1029 C1028 1.391 . S
C1029 C1033 1.376 . S
C1030 C1028 1.394 . S
C1030 C1031 1.369 . S
C1030 C1034 1.531 . S
C1031 C1030 1.369 . S
C1031 C1032 1.410 . S
C1031 C1039 1.503 . S
C1032 C1031 1.410 . S
C1032 C1033 1.392 . S
C1032 C1035 1.511 . S
C1033 C1029 1.376 . S
C1033 C1032 1.392 . S
C1033 H1045 0.929 . S
C1034 C1030 1.531 . S
C1034 H1046 0.960 . S
C1034 H1047 0.962 . S
C1034 H1048 0.960 . S
C1035 C1032 1.511 . S
C1035 H1049 0.961 . S
C1035 H1050 0.961 . S
C1035 H1051 0.961 . S
C1036 C1037 1.370 . S
C1036 C1038 1.363 . S
C1036 H1052 0.931 . S
C1037 C1036 1.370 . S
C1037 C1041 1.408 . S
C1038 C1036 1.363 . S
C1038 C1039 1.370 . S
C1038 C1042 1.524 . S
C1039 C1031 1.503 . S
C1039 C1038 1.370 . S
C1039 C1040 1.403 . S
C1040 C1039 1.403 . S
C1040 C1041 1.404 . S
C1040 C1043 1.539 . S
C1041 C1037 1.408 . S
C1041 C1040 1.404 . S
C1041 H1053 0.930 . S
C1042 C1038 1.524 . S
C1042 H1054 0.956 . S
C1042 H1055 0.961 . S
C1042 H1056 0.961 . S
C1043 C1040 1.539 . S
C1043 H1057 0.958 . S
C1043 H1058 0.961 . S
C1043 H1059 0.960 . S
H1044 C1028 0.931 . S
H1045 C1033 0.929 . S
H1046 C1034 0.960 . S
H1047 C1034 0.962 . S
H1048 C1034 0.960 . S
H1049 C1035 0.961 . S
H1050 C1035 0.961 . S
H1051 C1035 0.961 . S
H1052 C1036 0.931 . S
H1053 C1041 0.930 . S
H1054 C1042 0.956 . S
H1055 C1042 0.961 . S
H1056 C1042 0.961 . S
H1057 C1043 0.958 . S
H1058 C1043 0.961 . S
H1059 C1043 0.960 . S
C1060 C1061 1.391 . S
C1060 C1062 1.394 . S
C1060 H1076 0.931 . S
C1061 C1060 1.391 . S
C1061 C1065 1.376 . S
C1062 C1060 1.394 . S
C1062 C1063 1.369 . S
C1062 C1066 1.531 . S
C1063 C1062 1.369 . S
C1063 C1064 1.410 . S
C1063 C1071 1.503 . S
C1064 C1063 1.410 . S
C1064 C1065 1.392 . S
C1064 C1067 1.511 . S
C1065 C1061 1.376 . S
C1065 C1064 1.392 . S
C1065 H1077 0.929 . S
C1066 C1062 1.531 . S
C1066 H1078 0.960 . S
C1066 H1079 0.962 . S
C1066 H1080 0.960 . S
C1067 C1064 1.511 . S
C1067 H1081 0.961 . S
C1067 H1082 0.961 . S
C1067 H1083 0.961 . S
C1068 C1069 1.370 . S
C1068 C1070 1.363 . S
C1068 H1084 0.931 . S
C1069 C1068 1.370 . S
C1069 C1073 1.408 . S
C1070 C1068 1.363 . S
C1070 C1071 1.370 . S
C1070 C1074 1.524 . S
C1071 C1063 1.503 . S
C1071 C1070 1.370 . S
C1071 C1072 1.403 . S
C1072 C1071 1.403 . S
C1072 C1073 1.404 . S
C1072 C1075 1.539 . S
C1073 C1069 1.408 . S
C1073 C1072 1.404 . S
C1073 H1085 0.930 . S
C1074 C1070 1.524 . S
C1074 H1086 0.956 . S
C1074 H1087 0.961 . S
C1074 H1088 0.961 . S
C1075 C1072 1.539 . S
C1075 H1089 0.958 . S
C1075 H1090 0.961 . S
C1075 H1091 0.960 . S
H1076 C1060 0.931 . S
H1077 C1065 0.929 . S
H1078 C1066 0.960 . S
H1079 C1066 0.962 . S
H1080 C1066 0.960 . S
H1081 C1067 0.961 . S
H1082 C1067 0.961 . S
H1083 C1067 0.961 . S
H1084 C1068 0.931 . S
H1085 C1073 0.930 . S
H1086 C1074 0.956 . S
H1087 C1074 0.961 . S
H1088 C1074 0.961 . S
H1089 C1075 0.958 . S
H1090 C1075 0.961 . S
H1091 C1075 0.960 . S
C1092 C1093 1.391 . S
C1092 C1094 1.394 . S
C1092 H1108 0.931 . S
C1093 C1092 1.391 . S
C1093 C1097 1.376 . S
C1094 C1092 1.394 . S
C1094 C1095 1.369 . S
C1094 C1098 1.531 . S
C1095 C1094 1.369 . S
C1095 C1096 1.410 . S
C1095 C1103 1.503 . S
C1096 C1095 1.410 . S
C1096 C1097 1.392 . S
C1096 C1099 1.511 . S
C1097 C1093 1.376 . S
C1097 C1096 1.392 . S
C1097 H1109 0.929 . S
C1098 C1094 1.531 . S
C1098 H1110 0.960 . S
C1098 H1111 0.962 . S
C1098 H1112 0.960 . S
C1099 C1096 1.511 . S
C1099 H1113 0.961 . S
C1099 H1114 0.961 . S
C1099 H1115 0.961 . S
C1100 C1101 1.370 . S
C1100 C1102 1.363 . S
C1100 H1116 0.931 . S
C1101 C1100 1.370 . S
C1101 C1105 1.408 . S
C1102 C1100 1.363 . S
C1102 C1103 1.370 . S
C1102 C1106 1.524 . S
C1103 C1095 1.503 . S
C1103 C1102 1.370 . S
C1103 C1104 1.403 . S
C1104 C1103 1.403 . S
C1104 C1105 1.404 . S
C1104 C1107 1.539 . S
C1105 C1101 1.408 . S
C1105 C1104 1.404 . S
C1105 H1117 0.930 . S
C1106 C1102 1.524 . S
C1106 H1118 0.956 . S
C1106 H1119 0.961 . S
C1106 H1120 0.961 . S
C1107 C1104 1.539 . S
C1107 H1121 0.958 . S
C1107 H1122 0.961 . S
C1107 H1123 0.960 . S
H1108 C1092 0.931 . S
H1109 C1097 0.929 . S
H1110 C1098 0.960 . S
H1111 C1098 0.962 . S
H1112 C1098 0.960 . S
H1113 C1099 0.961 . S
H1114 C1099 0.961 . S
H1115 C1099 0.961 . S
H1116 C1100 0.931 . S
H1117 C1105 0.930 . S
H1118 C1106 0.956 . S
H1119 C1106 0.961 . S
H1120 C1106 0.961 . S
H1121 C1107 0.958 . S
H1122 C1107 0.961 . S
H1123 C1107 0.960 . S
C1124 C1125 1.391 . S
C1124 C1126 1.394 . S
C1124 H1140 0.931 . S
C1125 C1124 1.391 . S
C1125 C1129 1.376 . S
C1126 C1124 1.394 . S
C1126 C1127 1.369 . S
C1126 C1130 1.531 . S
C1127 C1126 1.369 . S
C1127 C1128 1.410 . S
C1127 C1135 1.503 . S
C1128 C1127 1.410 . S
C1128 C1129 1.392 . S
C1128 C1131 1.511 . S
C1129 C1125 1.376 . S
C1129 C1128 1.392 . S
C1129 H1141 0.929 . S
C1130 C1126 1.531 . S
C1130 H1142 0.960 . S
C1130 H1143 0.962 . S
C1130 H1144 0.960 . S
C1131 C1128 1.511 . S
C1131 H1145 0.961 . S
C1131 H1146 0.961 . S
C1131 H1147 0.961 . S
C1132 C1133 1.370 . S
C1132 C1134 1.363 . S
C1132 H1148 0.931 . S
C1133 C1132 1.370 . S
C1133 C1137 1.408 . S
C1134 C1132 1.363 . S
C1134 C1135 1.370 . S
C1134 C1138 1.524 . S
C1135 C1127 1.503 . S
C1135 C1134 1.370 . S
C1135 C1136 1.403 . S
C1136 C1135 1.403 . S
C1136 C1137 1.404 . S
C1136 C1139 1.539 . S
C1137 C1133 1.408 . S
C1137 C1136 1.404 . S
C1137 H1149 0.930 . S
C1138 C1134 1.524 . S
C1138 H1150 0.956 . S
C1138 H1151 0.961 . S
C1138 H1152 0.961 . S
C1139 C1136 1.539 . S
C1139 H1153 0.958 . S
C1139 H1154 0.961 . S
C1139 H1155 0.960 . S
H1140 C1124 0.931 . S
H1141 C1129 0.929 . S
H1142 C1130 0.960 . S
H1143 C1130 0.962 . S
H1144 C1130 0.960 . S
H1145 C1131 0.961 . S
H1146 C1131 0.961 . S
H1147 C1131 0.961 . S
H1148 C1132 0.931 . S
H1149 C1137 0.930 . S
H1150 C1138 0.956 . S
H1151 C1138 0.961 . S
H1152 C1138 0.961 . S
H1153 C1139 0.958 . S
H1154 C1139 0.961 . S
H1155 C1139 0.960 . S
C1156 C1157 1.391 . S
C1156 C1158 1.394 . S
C1156 H1172 0.931 . S
C1157 C1156 1.391 . S
C1157 C1161 1.376 . S
C1158 C1156 1.394 . S
C1158 C1159 1.369 . S
C1158 C1162 1.531 . S
C1159 C1158 1.369 . S
C1159 C1160 1.410 . S
C1159 C1167 1.503 . S
C1160 C1159 1.410 . S
C1160 C1161 1.392 . S
C1160 C1163 1.511 . S
C1161 C1157 1.376 . S
C1161 C1160 1.392 . S
C1161 H1173 0.929 . S
C1162 C1158 1.531 . S
C1162 H1174 0.960 . S
C1162 H1175 0.962 . S
C1162 H1176 0.960 . S
C1163 C1160 1.511 . S
C1163 H1177 0.961 . S
C1163 H1178 0.961 . S
C1163 H1179 0.961 . S
C1164 C1165 1.370 . S
C1164 C1166 1.363 . S
C1164 H1180 0.931 . S
C1165 C1164 1.370 . S
C1165 C1169 1.408 . S
C1166 C1164 1.363 . S
C1166 C1167 1.370 . S
C1166 C1170 1.524 . S
C1167 C1159 1.503 . S
C1167 C1166 1.370 . S
C1167 C1168 1.403 . S
C1168 C1167 1.403 . S
C1168 C1169 1.404 . S
C1168 C1171 1.539 . S
C1169 C1165 1.408 . S
C1169 C1168 1.404 . S
C1169 H1181 0.930 . S
C1170 C1166 1.524 . S
C1170 H1182 0.956 . S
C1170 H1183 0.961 . S
C1170 H1184 0.961 . S
C1171 C1168 1.539 . S
C1171 H1185 0.958 . S
C1171 H1186 0.961 . S
C1171 H1187 0.960 . S
H1172 C1156 0.931 . S
H1173 C1161 0.929 . S
H1174 C1162 0.960 . S
H1175 C1162 0.962 . S
H1176 C1162 0.960 . S
H1177 C1163 0.961 . S
H1178 C1163 0.961 . S
H1179 C1163 0.961 . S
H1180 C1164 0.931 . S
H1181 C1169 0.930 . S
H1182 C1170 0.956 . S
H1183 C1170 0.961 . S
H1184 C1170 0.961 . S
H1185 C1171 0.958 . S
H1186 C1171 0.961 . S
H1187 C1171 0.960 . S
C1188 C1189 1.391 . S
C1188 C1190 1.394 . S
C1188 H1204 0.931 . S
C1189 C1188 1.391 . S
C1189 C1193 1.376 . S
C1190 C1188 1.394 . S
C1190 C1191 1.369 . S
C1190 C1194 1.531 . S
C1191 C1190 1.369 . S
C1191 C1192 1.410 . S
C1191 C1199 1.503 . S
C1192 C1191 1.410 . S
C1192 C1193 1.392 . S
C1192 C1195 1.511 . S
C1193 C1189 1.376 . S
C1193 C1192 1.392 . S
C1193 H1205 0.929 . S
C1194 C1190 1.531 . S
C1194 H1206 0.960 . S
C1194 H1207 0.962 . S
C1194 H1208 0.960 . S
C1195 C1192 1.511 . S
C1195 H1209 0.961 . S
C1195 H1210 0.961 . S
C1195 H1211 0.961 . S
C1196 C1197 1.370 . S
C1196 C1198 1.363 . S
C1196 H1212 0.931 . S
C1197 C1196 1.370 . S
C1197 C1201 1.408 . S
C1198 C1196 1.363 . S
C1198 C1199 1.370 . S
C1198 C1202 1.524 . S
C1199 C1191 1.503 . S
C1199 C1198 1.370 . S
C1199 C1200 1.403 . S
C1200 C1199 1.403 . S
C1200 C1201 1.404 . S
C1200 C1203 1.539 . S
C1201 C1197 1.408 . S
C1201 C1200 1.404 . S
C1201 H1213 0.930 . S
C1202 C1198 1.524 . S
C1202 H1214 0.956 . S
C1202 H1215 0.961 . S
C1202 H1216 0.961 . S
C1203 C1200 1.539 . S
C1203 H1217 0.958 . S
C1203 H1218 0.961 . S
C1203 H1219 0.960 . S
H1204 C1188 0.931 . S
H1205 C1193 0.929 . S
H1206 C1194 0.960 . S
H1207 C1194 0.962 . S
H1208 C1194 0.960 . S
H1209 C1195 0.961 . S
H1210 C1195 0.961 . S
H1211 C1195 0.961 . S
H1212 C1196 0.931 . S
H1213 C1201 0.930 . S
H1214 C1202 0.956 . S
H1215 C1202 0.961 . S
H1216 C1202 0.961 . S
H1217 C1203 0.958 . S
H1218 C1203 0.961 . S
H1219 C1203 0.960 . S
C1220 C1221 1.391 . S
C1220 C1222 1.394 . S
C1220 H1236 0.931 . S
C1221 C1220 1.391 . S
C1221 C1225 1.376 . S
C1222 C1220 1.394 . S
C1222 C1223 1.369 . S
C1222 C1226 1.531 . S
C1223 C1222 1.369 . S
C1223 C1224 1.410 . S
C1223 C1231 1.503 . S
C1224 C1223 1.410 . S
C1224 C1225 1.392 . S
C1224 C1227 1.511 . S
C1225 C1221 1.376 . S
C1225 C1224 1.392 . S
C1225 H1237 0.929 . S
C1226 C1222 1.531 . S
C1226 H1238 0.960 . S
C1226 H1239 0.962 . S
C1226 H1240 0.960 . S
C1227 C1224 1.511 . S
C1227 H1241 0.961 . S
C1227 H1242 0.961 . S
C1227 H1243 0.961 . S
C1228 C1229 1.370 . S
C1228 C1230 1.363 . S
C1228 H1244 0.931 . S
C1229 C1228 1.370 . S
C1229 C1233 1.408 . S
C1230 C1228 1.363 . S
C1230 C1231 1.370 . S
C1230 C1234 1.524 . S
C1231 C1223 1.503 . S
C1231 C1230 1.370 . S
C1231 C1232 1.403 . S
C1232 C1231 1.403 . S
C1232 C1233 1.404 . S
C1232 C1235 1.539 . S
C1233 C1229 1.408 . S
C1233 C1232 1.404 . S
C1233 H1245 0.930 . S
C1234 C1230 1.524 . S
C1234 H1246 0.956 . S
C1234 H1247 0.961 . S
C1234 H1248 0.961 . S
C1235 C1232 1.539 . S
C1235 H1249 0.958 . S
C1235 H1250 0.961 . S
C1235 H1251 0.960 . S
H1236 C1220 0.931 . S
H1237 C1225 0.929 . S
H1238 C1226 0.960 . S
H1239 C1226 0.962 . S
H1240 C1226 0.960 . S
H1241 C1227 0.961 . S
H1242 C1227 0.961 . S
H1243 C1227 0.961 . S
H1244 C1228 0.931 . S
H1245 C1233 0.930 . S
H1246 C1234 0.956 . S
H1247 C1234 0.961 . S
H1248 C1234 0.961 . S
H1249 C1235 0.958 . S
H1250 C1235 0.961 . S
H1251 C1235 0.960 . S
C1252 C1253 1.391 . S
C1252 C1254 1.394 . S
C1252 H1268 0.931 . S
C1253 C1252 1.391 . S
C1253 C1257 1.376 . S
C1254 C1252 1.394 . S
C1254 C1255 1.369 . S
C1254 C1258 1.531 . S
C1255 C1254 1.369 . S
C1255 C1256 1.410 . S
C1255 C1263 1.503 . S
C1256 C1255 1.410 . S
C1256 C1257 1.392 . S
C1256 C1259 1.511 . S
C1257 C1253 1.376 . S
C1257 C1256 1.392 . S
C1257 H1269 0.929 . S
C1258 C1254 1.531 . S
C1258 H1270 0.960 . S
C1258 H1271 0.962 . S
C1258 H1272 0.960 . S
C1259 C1256 1.511 . S
C1259 H1273 0.961 . S
C1259 H1274 0.961 . S
C1259 H1275 0.961 . S
C1260 C1261 1.370 . S
C1260 C1262 1.363 . S
C1260 H1276 0.931 . S
C1261 C1260 1.370 . S
C1261 C1265 1.408 . S
C1262 C1260 1.363 . S
C1262 C1263 1.370 . S
C1262 C1266 1.524 . S
C1263 C1255 1.503 . S
C1263 C1262 1.370 . S
C1263 C1264 1.403 . S
C1264 C1263 1.403 . S
C1264 C1265 1.404 . S
C1264 C1267 1.539 . S
C1265 C1261 1.408 . S
C1265 C1264 1.404 . S
C1265 H1277 0.930 . S
C1266 C1262 1.524 . S
C1266 H1278 0.956 . S
C1266 H1279 0.961 . S
C1266 H1280 0.961 . S
C1267 C1264 1.539 . S
C1267 H1281 0.958 . S
C1267 H1282 0.961 . S
C1267 H1283 0.960 . S
H1268 C1252 0.931 . S
H1269 C1257 0.929 . S
H1270 C1258 0.960 . S
H1271 C1258 0.962 . S
H1272 C1258 0.960 . S
H1273 C1259 0.961 . S
H1274 C1259 0.961 . S
H1275 C1259 0.961 . S
H1276 C1260 0.931 . S
H1277 C1265 0.930 . S
H1278 C1266 0.956 . S
H1279 C1266 0.961 . S
H1280 C1266 0.961 . S
H1281 C1267 0.958 . S
H1282 C1267 0.961 . S
H1283 C1267 0.960 . S
C1284 C1285 1.391 . S
C1284 C1286 1.394 . S
C1284 H1300 0.931 . S
C1285 C1284 1.391 . S
C1285 C1289 1.376 . S
C1286 C1284 1.394 . S
C1286 C1287 1.369 . S
C1286 C1290 1.531 . S
C1287 C1286 1.369 . S
C1287 C1288 1.410 . S
C1287 C1295 1.503 1_445 S
C1288 C1287 1.410 . S
C1288 C1289 1.392 . S
C1288 C1291 1.511 . S
C1289 C1285 1.376 . S
C1289 C1288 1.392 . S
C1289 H1301 0.929 . S
C1290 C1286 1.531 . S
C1290 H1302 0.960 1_545 S
C1290 H1303 0.962 1_455 S
C1290 H1304 0.960 . S
C1291 C1288 1.511 . S
C1291 H1305 0.961 . S
C1291 H1306 0.987 1_545 S
C1291 H1307 0.961 1_545 S
C1292 C1293 1.370 . S
C1292 C1294 1.363 . S
C1292 H1308 0.931 . S
C1293 C1292 1.370 . S
C1293 C1297 1.408 . S
C1294 C1292 1.363 . S
C1294 C1295 1.370 . S
C1294 C1298 1.524 1_565 S
C1295 C1287 1.503 1_665 S
C1295 C1294 1.370 . S
C1295 C1296 1.403 1_655 S
C1296 C1295 1.403 1_455 S
C1296 C1297 1.404 1_455 S
C1296 C1299 1.539 . S
C1297 C1293 1.408 . S
C1297 C1296 1.404 1_655 S
C1297 H1309 0.930 1_655 S
C1298 C1294 1.524 1_545 S
C1298 H1310 0.956 . S
C1298 H1311 0.961 . S
C1298 H1312 0.961 . S
C1299 C1296 1.539 . S
C1299 H1313 0.958 . S
C1299 H1314 0.961 . S
C1299 H1315 0.960 . S
H1300 C1284 0.931 . S
H1301 C1289 0.929 . S
H1302 C1290 0.960 1_565 S
H1303 C1290 0.962 1_655 S
H1304 C1290 0.960 . S
H1305 C1291 0.961 . S
H1306 C1291 0.987 1_565 S
H1307 C1291 0.961 1_565 S
H1308 C1292 0.931 . S
H1309 C1297 0.930 1_455 S
H1310 C1298 0.956 . S
H1311 C1298 0.961 . S
H1312 C1298 0.961 . S
H1313 C1299 0.958 . S
H1314 C1299 0.961 . S
H1315 C1299 0.960 . S
C1316 C1317 1.391 . S
C1316 C1318 1.394 . S
C1316 H1332 0.931 . S
C1317 C1316 1.391 . S
C1317 C1321 1.376 . S
C1318 C1316 1.394 . S
C1318 C1319 1.369 . S
C1318 C1322 1.531 1_545 S
C1319 C1318 1.369 . S
C1319 C1320 1.410 1_655 S
C1319 C1327 1.503 1_645 S
C1320 C1319 1.410 1_455 S
C1320 C1321 1.392 1_455 S
C1320 C1323 1.511 . S
C1321 C1317 1.376 . S
C1321 C1320 1.392 1_655 S
C1321 H1333 0.929 . S
C1322 C1318 1.531 1_565 S
C1322 H1334 0.960 . S
C1322 H1335 0.962 . S
C1322 H1336 0.952 1_565 S
C1323 C1320 1.511 . S
C1323 H1337 0.961 . S
C1323 H1338 0.961 . S
C1323 H1339 0.961 . S
C1324 C1325 1.370 . S
C1324 C1326 1.363 . S
C1324 H1340 0.931 . S
C1325 C1324 1.370 . S
C1325 C1329 1.408 . S
C1326 C1324 1.363 . S
C1326 C1327 1.370 . S
C1326 C1330 1.524 1_455 S
C1327 C1319 1.503 1_465 S
C1327 C1326 1.370 . S
C1327 C1328 1.403 . S
C1328 C1327 1.403 . S
C1328 C1329 1.404 . S
C1328 C1331 1.539 1_565 S
C1329 C1325 1.408 . S
C1329 C1328 1.404 . S
C1329 H1341 0.930 . S
C1330 C1326 1.524 1_655 S
C1330 H1342 0.956 . S
C1330 H1343 0.961 . S
C1330 H1344 0.961 . S
C1331 C1328 1.539 1_545 S
C1331 H1345 0.958 1_545 S
C1331 H1346 0.961 1_545 S
C1331 H1347 0.960 . S
H1332 C1316 0.931 . S
H1333 C1321 0.929 . S
H1334 C1322 0.960 . S
H1335 C1322 0.962 . S
H1336 C1322 0.952 1_545 S
H1337 C1323 0.961 . S
H1338 C1323 0.961 . S
H1339 C1323 0.961 . S
H1340 C1324 0.931 . S
H1341 C1329 0.930 . S
H1342 C1330 0.956 . S
H1343 C1330 0.961 . S
H1344 C1330 0.961 . S
H1345 C1331 0.958 1_565 S
H1346 C1331 0.961 1_565 S
H1347 C1331 0.960 . S
C1348 C1349 1.391 . S
C1348 C1350 1.394 . S
C1348 H1364 0.931 . S
C1349 C1348 1.391 . S
C1349 C1353 1.376 . S
C1350 C1348 1.394 . S
C1350 C1351 1.369 . S
C1350 C1354 1.531 1_556 S
C1351 C1350 1.369 . S
C1351 C1352 1.410 1_565 S
C1351 C1359 1.503 1_566 S
C1352 C1351 1.410 1_545 S
C1352 C1353 1.392 1_545 S
C1352 C1355 1.511 . S
C1353 C1349 1.376 . S
C1353 C1352 1.392 1_565 S
C1353 H1365 0.929 . S
C1354 C1350 1.531 1_554 S
C1354 H1366 0.960 . S
C1354 H1367 0.962 . S
C1354 H1368 0.960 . S
C1355 C1352 1.511 . S
C1355 H1369 0.961 . S
C1355 H1370 0.961 . S
C1355 H1371 0.961 . S
C1356 C1357 1.370 . S
C1356 C1358 1.363 . S
C1356 H1372 0.931 . S
C1357 C1356 1.370 . S
C1357 C1361 1.408 . S
C1358 C1356 1.363 . S
C1358 C1359 1.370 . S
C1358 C1362 1.524 1_554 S
C1359 C1351 1.503 1_544 S
C1359 C1358 1.370 . S
C1359 C1360 1.403 . S
C1360 C1359 1.403 . S
C1360 C1361 1.404 . S
C1360 C1363 1.539 1_545 S
C1361 C1357 1.408 . S
C1361 C1360 1.404 . S
C1361 H1373 0.930 . S
C1362 C1358 1.524 1_556 S
C1362 H1374 0.956 . S
C1362 H1375 0.961 . S
C1362 H1376 0.961 1_556 S
C1363 C1360 1.539 1_565 S
C1363 H1377 0.958 . S
C1363 H1378 0.961 . S
C1363 H1379 0.960 . S
H1364 C1348 0.931 . S
H1365 C1353 0.929 . S
H1366 C1354 0.960 . S
H1367 C1354 0.962 . S
H1368 C1354 0.960 . S
H1369 C1355 0.961 . S
H1370 C1355 0.961 . S
H1371 C1355 0.961 . S
H1372 C1356 0.931 . S
H1373 C1361 0.930 . S
H1374 C1362 0.956 . S
H1375 C1362 0.961 . S
H1376 C1362 0.961 1_554 S
H1377 C1363 0.958 . S
H1378 C1363 0.961 . S
H1379 C1363 0.960 . S
C1380 C1381 1.391 . S
C1380 C1382 1.394 1_565 S
C1380 H1396 0.931 . S
C1381 C1380 1.391 . S
C1381 C1385 1.376 . S
C1382 C1380 1.394 1_545 S
C1382 C1383 1.369 1_545 S
C1382 C1386 1.531 . S
C1383 C1382 1.369 1_565 S
C1383 C1384 1.410 . S
C1383 C1391 1.503 1_564 S
C1384 C1383 1.410 . S
C1384 C1385 1.392 . S
C1384 C1387 1.511 1_554 S
C1385 C1381 1.376 . S
C1385 C1384 1.392 . S
C1385 H1397 0.929 . S
C1386 C1382 1.531 . S
C1386 H1398 0.960 . S
C1386 H1399 0.962 . S
C1386 H1400 0.960 . S
C1387 C1384 1.511 1_556 S
C1387 H1401 0.961 . S
C1387 H1402 0.961 . S
C1387 H1403 0.961 . S
C1388 C1389 1.370 . S
C1388 C1390 1.363 . S
C1388 H1404 0.931 . S
C1389 C1388 1.370 . S
C1389 C1393 1.408 . S
C1390 C1388 1.363 . S
C1390 C1391 1.370 . S
C1390 C1394 1.524 1_545 S
C1391 C1383 1.503 1_546 S
C1391 C1390 1.370 . S
C1391 C1392 1.403 . S
C1392 C1391 1.403 . S
C1392 C1393 1.404 . S
C1392 C1395 1.520 1_556 S
C1393 C1389 1.408 . S
C1393 C1392 1.404 . S
C1393 H1405 0.930 . S
C1394 C1390 1.524 1_565 S
C1394 H1406 0.956 . S
C1394 H1407 0.961 . S
C1394 H1408 0.961 . S
C1395 C1392 1.520 1_554 S
C1395 H1409 0.977 . S
C1395 H1410 0.945 1_554 S
C1395 H1411 0.978 . S
H1396 C1380 0.931 . S
H1397 C1385 0.929 . S
H1398 C1386 0.960 . S
H1399 C1386 0.962 . S
H1400 C1386 0.960 . S
H1401 C1387 0.961 . S
H1402 C1387 0.961 . S
H1403 C1387 0.961 . S
H1404 C1388 0.931 . S
H1405 C1393 0.930 . S
H1406 C1394 0.956 . S
H1407 C1394 0.961 . S
H1408 C1394 0.961 . S
H1409 C1395 0.977 . S
H1410 C1395 0.945 1_556 S
H1411 C1395 0.978 . S
C1412 C1413 1.391 . S
C1412 C1414 1.394 . S
C1412 H1428 0.931 . S
C1413 C1412 1.391 . S
C1413 C1417 1.376 . S
C1414 C1412 1.394 . S
C1414 C1415 1.369 . S
C1414 C1418 1.531 1_655 S
C1415 C1414 1.369 . S
C1415 C1416 1.410 1_556 S
C1415 C1423 1.503 1_656 S
C1416 C1415 1.410 1_554 S
C1416 C1417 1.392 1_554 S
C1416 C1419 1.511 . S
C1417 C1413 1.376 . S
C1417 C1416 1.392 1_556 S
C1417 H1429 0.929 1_556 S
C1418 C1414 1.531 1_455 S
C1418 H1430 0.960 . S
C1418 H1431 0.962 . S
C1418 H1432 0.960 . S
C1419 C1416 1.511 . S
C1419 H1433 0.961 . S
C1419 H1434 0.961 . S
C1419 H1435 0.961 . S
C1420 C1421 1.370 . S
C1420 C1422 1.363 . S
C1420 H1436 0.931 . S
C1421 C1420 1.370 . S
C1421 C1425 1.408 . S
C1422 C1420 1.363 . S
C1422 C1423 1.370 . S
C1422 C1426 1.524 1_554 S
C1423 C1415 1.503 1_454 S
C1423 C1422 1.370 . S
C1423 C1424 1.403 . S
C1424 C1423 1.403 . S
C1424 C1425 1.404 . S
C1424 C1427 1.539 . S
C1425 C1421 1.408 . S
C1425 C1424 1.404 . S
C1425 H1437 0.930 . S
C1426 C1422 1.524 1_556 S
C1426 H1438 0.956 . S
C1426 H1439 0.960 . S
C1426 H1440 0.961 . S
C1427 C1424 1.539 . S
C1427 H1441 0.958 . S
C1427 H1442 0.961 . S
C1427 H1443 0.960 1_455 S
H1428 C1412 0.931 . S
H1429 C1417 0.929 1_554 S
H1430 C1418 0.960 . S
H1431 C1418 0.962 . S
H1432 C1418 0.960 . S
H1433 C1419 0.961 . S
H1434 C1419 0.961 . S
H1435 C1419 0.961 . S
H1436 C1420 0.931 . S
H1437 C1425 0.930 . S
H1438 C1426 0.956 . S
H1439 C1426 0.960 . S
H1440 C1426 0.961 . S
H1441 C1427 0.958 . S
H1442 C1427 0.961 . S
H1443 C1427 0.960 1_655 S
C1444 C1445 1.391 . S
C1444 C1446 1.394 . S
C1444 H1460 0.931 . S
C1445 C1444 1.391 . S
C1445 C1449 1.376 . S
C1446 C1444 1.394 . S
C1446 C1447 1.369 . S
C1446 C1450 1.531 1_455 S
C1447 C1446 1.369 . S
C1447 C1448 1.410 1_556 S
C1447 C1455 1.503 1_456 S
C1448 C1447 1.410 1_554 S
C1448 C1449 1.392 1_554 S
C1448 C1451 1.511 . S
C1449 C1445 1.376 . S
C1449 C1448 1.392 1_556 S
C1449 H1461 0.929 . S
C1450 C1446 1.531 1_655 S
C1450 H1462 0.960 . S
C1450 H1463 0.962 . S
C1450 H1464 0.960 1_655 S
C1451 C1448 1.511 . S
C1451 H1465 0.961 . S
C1451 H1466 0.961 . S
C1451 H1467 0.961 . S
C1452 C1453 1.370 . S
C1452 C1454 1.363 . S
C1452 H1468 0.931 . S
C1453 C1452 1.370 . S
C1453 C1457 1.408 . S
C1454 C1452 1.363 . S
C1454 C1455 1.370 . S
C1454 C1458 1.524 1_554 S
C1455 C1447 1.503 1_654 S
C1455 C1454 1.370 . S
C1455 C1456 1.403 . S
C1456 C1455 1.403 . S
C1456 C1457 1.404 . S
C1456 C1459 1.539 1_655 S
C1457 C1453 1.408 . S
C1457 C1456 1.404 . S
C1457 H1469 0.930 . S
C1458 C1454 1.524 1_556 S
C1458 H1470 0.956 . S
C1458 H1471 0.961 . S
C1458 H1472 0.961 . S
C1459 C1456 1.539 1_455 S
C1459 H1473 0.958 . S
C1459 H1474 0.961 . S
C1459 H1475 0.960 . S
H1460 C1444 0.931 . S
H1461 C1449 0.929 . S
H1462 C1450 0.960 . S
H1463 C1450 0.962 . S
H1464 C1450 0.960 1_455 S
H1465 C1451 0.961 . S
H1466 C1451 0.961 . S
H1467 C1451 0.961 . S
H1468 C1452 0.931 . S
H1469 C1457 0.930 . S
H1470 C1458 0.956 . S
H1471 C1458 0.961 . S
H1472 C1458 0.961 . S
H1473 C1459 0.958 . S
H1474 C1459 0.961 . S
H1475 C1459 0.960 . S
C709 C182 0.995 . S
C717 C5 0.961 . S
C741 C123 0.958 . S
C749 C64 0.977 . S
C773 C300 0.979 . S
C781 C241 0.976 . S
C805 C359 0.942 . S
C813 C418 0.974 . S
C837 C536 0.927 . S
C845 C477 0.954 . S
C869 C595 0.951 . S
C877 C654 0.947 . S
C901 C52 1.183 . S
C909 C446 1.136 . S
C933 C387 1.165 . S
C941 C111 1.194 . S
C965 C328 1.110 . S
C973 C170 1.194 . S
C997 C269 1.148 . S
C1005 C229 1.187 . S
C1029 C288 1.179 . S
C1037 C682 1.160 . S
C1061 C505 1.125 . S
C1069 C347 1.188 . S
C1093 C623 1.154 . S
C1101 C406 1.195 . S
C1125 C465 1.178 . S
C1133 C564 1.155 . S
C1157 C151 1.188 . S
C1165 C524 1.191 . S
C1189 C33 1.107 . S
C1197 C583 1.191 . S
C1221 C642 1.182 . S
C1229 C92 1.138 . S
C1253 C210 1.105 . S
C1261 C701 1.193 . S
C1285 C3 1.265 . S
C1293 C62 1.280 . S
C1317 C180 1.273 . S
C1325 C121 1.272 . S
C1349 C357 1.263 . S
C1357 C239 1.275 . S
C1381 C298 1.284 . S
C1389 C416 1.278 . S
C1413 C593 1.270 . S
C1421 C475 1.272 . S
C1445 C534 1.274 . S
C1453 C652 1.272 . S
