# Generated by pormake.
# Topology whz, (6)-cn, num edge types: 1
# Building blocks:
#     Node 0, Type 0, BuildingBlock: PAMTUU_clean_sbu_0, # of connection points: 6
#     Node 1, Type 0, BuildingBlock: PAMTUU_clean_sbu_0, # of connection points: 6
#     Node 2, Type 0, BuildingBlock: PAMTUU_clean_sbu_0, # of connection points: 6
#     Node 3, Type 0, BuildingBlock: PAMTUU_clean_sbu_0, # of connection points: 6
#     Node 4, Type 0, BuildingBlock: PAMTUU_clean_sbu_0, # of connection points: 6
#     Node 5, Type 0, BuildingBlock: PAMTUU_clean_sbu_0, # of connection points: 6
#     Node 6, Type 0, BuildingBlock: PAMTUU_clean_sbu_0, # of connection points: 6
#     Node 7, Type 0, BuildingBlock: PAMTUU_clean_sbu_0, # of connection points: 6
#     Node 8, Type 0, BuildingBlock: PAMTUU_clean_sbu_0, # of connection points: 6
#     Node 9, Type 0, BuildingBlock: PAMTUU_clean_sbu_0, # of connection points: 6
#     Node 10, Type 0, BuildingBlock: PAMTUU_clean_sbu_0, # of connection points: 6
#     Node 11, Type 0, BuildingBlock: PAMTUU_clean_sbu_0, # of connection points: 6
#     Node 12, Type 0, BuildingBlock: PAMTUU_clean_sbu_0, # of connection points: 6
#     Node 13, Type 0, BuildingBlock: PAMTUU_clean_sbu_0, # of connection points: 6
#     Node 14, Type 0, BuildingBlock: PAMTUU_clean_sbu_0, # of connection points: 6
#     Node 15, Type 0, BuildingBlock: PAMTUU_clean_sbu_0, # of connection points: 6
#     Edge 16, Type (0, 0), BuildingBlock: KIFKEQ_clean_linker_1, # of connection points: 2
#     Edge 17, Type (0, 0), BuildingBlock: KIFKEQ_clean_linker_1, # of connection points: 2
#     Edge 18, Type (0, 0), BuildingBlock: KIFKEQ_clean_linker_1, # of connection points: 2
#     Edge 19, Type (0, 0), BuildingBlock: KIFKEQ_clean_linker_1, # of connection points: 2
#     Edge 20, Type (0, 0), BuildingBlock: KIFKEQ_clean_linker_1, # of connection points: 2
#     Edge 21, Type (0, 0), BuildingBlock: KIFKEQ_clean_linker_1, # of connection points: 2
#     Edge 22, Type (0, 0), BuildingBlock: KIFKEQ_clean_linker_1, # of connection points: 2
#     Edge 23, Type (0, 0), BuildingBlock: KIFKEQ_clean_linker_1, # of connection points: 2
#     Edge 24, Type (0, 0), BuildingBlock: KIFKEQ_clean_linker_1, # of connection points: 2
#     Edge 25, Type (0, 0), BuildingBlock: KIFKEQ_clean_linker_1, # of connection points: 2
#     Edge 26, Type (0, 0), BuildingBlock: KIFKEQ_clean_linker_1, # of connection points: 2
#     Edge 27, Type (0, 0), BuildingBlock: KIFKEQ_clean_linker_1, # of connection points: 2
#     Edge 28, Type (0, 0), BuildingBlock: KIFKEQ_clean_linker_1, # of connection points: 2
#     Edge 29, Type (0, 0), BuildingBlock: KIFKEQ_clean_linker_1, # of connection points: 2
#     Edge 30, Type (0, 0), BuildingBlock: KIFKEQ_clean_linker_1, # of connection points: 2
#     Edge 31, Type (0, 0), BuildingBlock: KIFKEQ_clean_linker_1, # of connection points: 2
#     Edge 32, Type (0, 0), BuildingBlock: KIFKEQ_clean_linker_1, # of connection points: 2
#     Edge 33, Type (0, 0), BuildingBlock: KIFKEQ_clean_linker_1, # of connection points: 2
#     Edge 34, Type (0, 0), BuildingBlock: KIFKEQ_clean_linker_1, # of connection points: 2
#     Edge 35, Type (0, 0), BuildingBlock: KIFKEQ_clean_linker_1, # of connection points: 2
#     Edge 36, Type (0, 0), BuildingBlock: KIFKEQ_clean_linker_1, # of connection points: 2
#     Edge 37, Type (0, 0), BuildingBlock: KIFKEQ_clean_linker_1, # of connection points: 2
#     Edge 38, Type (0, 0), BuildingBlock: KIFKEQ_clean_linker_1, # of connection points: 2
#     Edge 39, Type (0, 0), BuildingBlock: KIFKEQ_clean_linker_1, # of connection points: 2
#     Edge 40, Type (0, 0), BuildingBlock: KIFKEQ_clean_linker_1, # of connection points: 2
#     Edge 41, Type (0, 0), BuildingBlock: KIFKEQ_clean_linker_1, # of connection points: 2
#     Edge 42, Type (0, 0), BuildingBlock: KIFKEQ_clean_linker_1, # of connection points: 2
#     Edge 43, Type (0, 0), BuildingBlock: KIFKEQ_clean_linker_1, # of connection points: 2
#     Edge 44, Type (0, 0), BuildingBlock: KIFKEQ_clean_linker_1, # of connection points: 2
#     Edge 45, Type (0, 0), BuildingBlock: KIFKEQ_clean_linker_1, # of connection points: 2
#     Edge 46, Type (0, 0), BuildingBlock: KIFKEQ_clean_linker_1, # of connection points: 2
#     Edge 47, Type (0, 0), BuildingBlock: KIFKEQ_clean_linker_1, # of connection points: 2
#     Edge 48, Type (0, 0), BuildingBlock: KIFKEQ_clean_linker_1, # of connection points: 2
#     Edge 49, Type (0, 0), BuildingBlock: KIFKEQ_clean_linker_1, # of connection points: 2
#     Edge 50, Type (0, 0), BuildingBlock: KIFKEQ_clean_linker_1, # of connection points: 2
#     Edge 51, Type (0, 0), BuildingBlock: KIFKEQ_clean_linker_1, # of connection points: 2
#     Edge 52, Type (0, 0), BuildingBlock: KIFKEQ_clean_linker_1, # of connection points: 2
#     Edge 53, Type (0, 0), BuildingBlock: KIFKEQ_clean_linker_1, # of connection points: 2
#     Edge 54, Type (0, 0), BuildingBlock: KIFKEQ_clean_linker_1, # of connection points: 2
#     Edge 55, Type (0, 0), BuildingBlock: KIFKEQ_clean_linker_1, # of connection points: 2
#     Edge 56, Type (0, 0), BuildingBlock: KIFKEQ_clean_linker_1, # of connection points: 2
#     Edge 57, Type (0, 0), BuildingBlock: KIFKEQ_clean_linker_1, # of connection points: 2
#     Edge 58, Type (0, 0), BuildingBlock: KIFKEQ_clean_linker_1, # of connection points: 2
#     Edge 59, Type (0, 0), BuildingBlock: KIFKEQ_clean_linker_1, # of connection points: 2
#     Edge 60, Type (0, 0), BuildingBlock: KIFKEQ_clean_linker_1, # of connection points: 2
#     Edge 61, Type (0, 0), BuildingBlock: KIFKEQ_clean_linker_1, # of connection points: 2
#     Edge 62, Type (0, 0), BuildingBlock: KIFKEQ_clean_linker_1, # of connection points: 2
#     Edge 63, Type (0, 0), BuildingBlock: KIFKEQ_clean_linker_1, # of connection points: 2
# Relax obj value: 0.653
# Max RMSD: 0.306
# Mean RMSD: 0.306
data_MOF--net-whz--node1-PAMTUU_clean_sbu_0--edge1-KIFKEQ_clean_linker_1
_symmetry_space_group_name_H-M    P1
_symmetry_Int_Tables_number       1
_symmetry_cell_setting            triclinic
loop_
_symmetry_equiv_pos_as_xyz
'x, y, z'
_cell_length_a     34.924235
_cell_length_b     34.881011
_cell_length_c     71.596768
_cell_angle_alpha  89.776892
_cell_angle_beta   89.938964
_cell_angle_gamma 90.131835
loop_
_atom_site_label
_atom_site_type_symbol
_atom_site_fract_x
_atom_site_fract_y
_atom_site_fract_z
_atom_type_partial_charge
Tb0 Tb 0.33612 0.18622 0.1502 0.0
Tb1 Tb 0.32773 0.23666 0.18845 0.0
C2 C 0.36442 0.15495 0.18985 0.0
C3 C 0.32737 0.14659 0.1009 0.0
C4 C 0.30077 0.14116 0.06355 0.0
C5 C 0.32141 0.11094 0.07184 0.0
C6 C 0.33453 0.11368 0.09027 0.0
C7 C 0.30644 0.17673 0.09285 0.0
C8 C 0.29325 0.17404 0.07437 0.0
C9 C 0.34373 0.14931 0.11991 0.0
O10 O 0.27697 0.18163 0.15956 0.0
O11 O 0.28715 0.18909 0.19096 0.0
O12 O 0.28844 0.26238 0.16915 0.0
O13 O 0.31525 0.24326 0.14141 0.0
O14 O 0.35616 0.26847 0.20908 0.0
O15 O 0.29448 0.26321 0.20904 0.0
O16 O 0.37177 0.26173 0.17064 0.0
O17 O 0.39278 0.20557 0.15871 0.0
O18 O 0.34997 0.14633 0.17331 0.0
O19 O 0.36453 0.18995 0.19638 0.0
C20 C 0.26632 0.17606 0.17702 0.0
O21 O 0.36222 0.18071 0.12392 0.0
O22 O 0.32238 0.13792 0.13382 0.0
C23 C 0.29258 0.26591 0.15113 0.0
C24 C 0.32089 0.3227 0.2177 0.0
C25 C 0.30878 0.40152 0.22372 0.0
C26 C 0.29556 0.38406 0.20724 0.0
C27 C 0.30167 0.3449 0.20423 0.0
C28 C 0.33661 0.34049 0.23334 0.0
C29 C 0.33076 0.37943 0.23632 0.0
C30 C 0.32406 0.28095 0.216 0.0
C31 C 0.39979 0.24076 0.16409 0.0
H32 H 0.32721 0.08493 0.06414 0.0
H33 H 0.35064 0.09008 0.0962 0.0
H34 H 0.30072 0.20251 0.10076 0.0
H35 H 0.27779 0.19805 0.06846 0.0
H36 H 0.27881 0.40013 0.1972 0.0
H37 H 0.29004 0.3317 0.19179 0.0
H38 H 0.35197 0.32387 0.24372 0.0
H39 H 0.34098 0.39127 0.24935 0.0
Tb40 Tb 0.63767 0.56626 0.40077 0.0
Tb41 Tb 0.59318 0.57095 0.44103 0.0
C42 C 0.67248 0.60488 0.43661 0.0
C43 C 0.67261 0.54755 0.35061 0.0
C44 C 0.67775 0.51947 0.31342 0.0
C45 C 0.7093 0.53726 0.32211 0.0
C46 C 0.70674 0.55099 0.34041 0.0
C47 C 0.64109 0.52927 0.34224 0.0
C48 C 0.64365 0.51533 0.32385 0.0
C49 C 0.66992 0.56703 0.36895 0.0
O50 O 0.64123 0.5086 0.41211 0.0
O51 O 0.63518 0.52443 0.44312 0.0
O52 O 0.56407 0.52505 0.42708 0.0
O53 O 0.57977 0.54176 0.39674 0.0
O54 O 0.59587 0.56351 0.47001 0.0
O55 O 0.54591 0.5884 0.45716 0.0
O56 O 0.56621 0.61135 0.42184 0.0
O57 O 0.61956 0.62549 0.40495 0.0
O58 O 0.67981 0.58091 0.42285 0.0
O59 O 0.63722 0.61394 0.44029 0.0
C60 C 0.6455 0.50029 0.42992 0.0
O61 O 0.6379 0.58437 0.37282 0.0
O62 O 0.68431 0.55012 0.38362 0.0
C63 C 0.55886 0.52241 0.40902 0.0
C64 C 0.56784 0.61478 0.48547 0.0
C65 C 0.58778 0.66964 0.51248 0.0
C66 C 0.562 0.63972 0.5168 0.0
C67 C 0.55231 0.61239 0.50342 0.0
C68 C 0.59133 0.64609 0.48068 0.0
C69 C 0.60155 0.67317 0.49413 0.0
C70 C 0.56412 0.58215 0.47275 0.0
C71 C 0.58584 0.63539 0.41143 0.0
H72 H 0.73583 0.54178 0.31458 0.0
H73 H 0.73125 0.56547 0.34643 0.0
H74 H 0.6143 0.52644 0.34976 0.0
H75 H 0.61887 0.50143 0.31781 0.0
H76 H 0.5514 0.63576 0.5309 0.0
H77 H 0.53438 0.5883 0.50739 0.0
H78 H 0.60331 0.64856 0.4668 0.0
H79 H 0.62139 0.69587 0.49041 0.0
Tb80 Tb 0.24771 0.87883 0.6531 0.0
Tb81 Tb 0.23859 0.84086 0.69462 0.0
C82 C 0.2107 0.92154 0.68698 0.0
C83 C 0.26356 0.90741 0.60135 0.0
C84 C 0.28489 0.91282 0.563 0.0
C85 C 0.25806 0.8853 0.56911 0.0
C86 C 0.24753 0.88268 0.58796 0.0
C87 C 0.29088 0.9345 0.59536 0.0
C88 C 0.30154 0.93704 0.57647 0.0
C89 C 0.24759 0.90889 0.62066 0.0
O90 O 0.30491 0.8793 0.66505 0.0
O91 O 0.28492 0.88329 0.6954 0.0
O92 O 0.271 0.79771 0.68022 0.0
O93 O 0.27313 0.82132 0.6498 0.0
O94 O 0.26241 0.81893 0.71933 0.0
O95 O 0.20164 0.82947 0.71713 0.0
O96 O 0.20033 0.80828 0.67695 0.0
O97 O 0.18863 0.85877 0.65751 0.0
O98 O 0.23582 0.92519 0.67337 0.0
O99 O 0.19879 0.88751 0.69154 0.0
C100 C 0.31157 0.88809 0.68259 0.0
O101 O 0.22538 0.88083 0.62597 0.0
O102 O 0.26908 0.92093 0.63435 0.0
C103 C 0.28055 0.79466 0.66253 0.0
C104 C 0.23203 0.85113 0.74432 0.0
C105 C 0.23267 0.90796 0.77231 0.0
C106 C 0.26581 0.90022 0.76183 0.0
C107 C 0.26548 0.87231 0.74798 0.0
C108 C 0.19877 0.85899 0.75462 0.0
C109 C 0.19902 0.88719 0.76843 0.0
C110 C 0.23044 0.82438 0.72842 0.0
C111 C 0.1782 0.82562 0.66482 0.0
H112 H 0.24409 0.86649 0.55923 0.0
H113 H 0.22576 0.86201 0.5919 0.0
H114 H 0.30333 0.95448 0.60519 0.0
H115 H 0.32273 0.95815 0.57242 0.0
H116 H 0.29251 0.91493 0.76465 0.0
H117 H 0.29151 0.86755 0.74009 0.0
H118 H 0.1724 0.84365 0.7518 0.0
H119 H 0.17285 0.89262 0.77608 0.0
Tb120 Tb 0.94566 0.48199 0.90131 0.0
Tb121 Tb 0.98547 0.48134 0.94248 0.0
C122 C 0.90592 0.44686 0.9369 0.0
C123 C 0.91453 0.49031 0.84983 0.0
C124 C 0.91032 0.51475 0.81197 0.0
C125 C 0.9041 0.47614 0.81693 0.0
C126 C 0.90612 0.46418 0.83556 0.0
C127 C 0.9216 0.52876 0.84509 0.0
C128 C 0.91976 0.54079 0.82634 0.0
C129 C 0.91483 0.47604 0.86933 0.0
O130 O 0.94137 0.5405 0.91156 0.0
O131 O 0.93896 0.5234 0.94234 0.0
O132 O 1.0234 0.51809 0.92682 0.0
O133 O 1.00229 0.50857 0.89645 0.0
O134 O 1.00675 0.51126 0.96565 0.0
O135 O 1.00005 0.44985 0.96653 0.0
O136 O 1.01793 0.44012 0.92617 0.0
O137 O 0.96695 0.42438 0.90783 0.0
O138 O 0.90037 0.46885 0.92215 0.0
O139 O 0.94062 0.43902 0.94217 0.0
C140 C 0.93232 0.54842 0.92895 0.0
O141 O 0.94489 0.45691 0.87464 0.0
O142 O 0.90196 0.49818 0.88255 0.0
C143 C 1.02663 0.52309 0.90872 0.0
C144 C 0.97586 0.48522 0.9921 0.0
C145 C 0.91606 0.49648 1.01801 0.0
C146 C 0.93925 0.5273 1.01229 0.0
C147 C 0.96897 0.5217 0.9996 0.0
C148 C 0.95291 0.45416 0.99805 0.0
C149 C 0.92343 0.45973 1.011 0.0
C150 C 1.00303 0.48112 0.97635 0.0
C151 C 1.00027 0.41554 0.91528 0.0
H152 H 0.89788 0.45483 0.8064 0.0
H153 H 0.90084 0.43429 0.83887 0.0
H154 H 0.92826 0.54949 0.85584 0.0
H155 H 0.92499 0.5707 0.82323 0.0
H156 H 0.93487 0.55575 1.01792 0.0
H157 H 0.986 0.54621 0.99532 0.0
H158 H 0.95717 0.4257 0.99244 0.0
H159 H 0.90621 0.43545 1.01543 0.0
Tb160 Tb 0.74599 0.82778 0.9064 0.0
Tb161 Tb 0.74833 0.87497 0.94561 0.0
C162 C 0.79005 0.79439 0.94067 0.0
C163 C 0.74163 0.74423 0.87603 0.0
C164 C 0.75131 0.66493 0.87072 0.0
C165 C 0.75948 0.68153 0.88813 0.0
C166 C 0.75455 0.72093 0.89078 0.0
C167 C 0.73119 0.72756 0.8591 0.0
C168 C 0.7359 0.6883 0.85645 0.0
C169 C 0.74015 0.78597 0.878 0.0
O170 O 0.70678 0.80177 0.92645 0.0
O171 O 0.68958 0.85805 0.93923 0.0
O172 O 0.73485 0.91754 0.92353 0.0
O173 O 0.70937 0.87648 0.90183 0.0
O174 O 0.72492 0.87938 0.9725 0.0
O175 O 0.76667 0.92063 0.96287 0.0
O176 O 0.80584 0.87821 0.93389 0.0
O177 O 0.78936 0.87295 0.90294 0.0
O178 O 0.78837 0.79832 0.92256 0.0
O179 O 0.77142 0.81732 0.9522 0.0
C180 C 0.68063 0.82297 0.93444 0.0
O181 O 0.71085 0.79898 0.88723 0.0
O182 O 0.77201 0.8023 0.88316 0.0
C183 C 0.71543 0.91119 0.90799 0.0
C184 C 0.76081 0.91132 0.99596 0.0
C185 C 0.78236 0.91478 1.03427 0.0
C186 C 0.76628 0.94677 1.0251 0.0
C187 C 0.7559 0.94507 1.00624 0.0
C188 C 0.77705 0.87929 1.00483 0.0
C189 C 0.78778 0.88102 1.02374 0.0
C190 C 0.74507 0.90957 0.97676 0.0
C191 C 0.81365 0.88364 0.91606 0.0
H192 H 0.77128 0.66444 0.89939 0.0
H193 H 0.76216 0.73342 0.9041 0.0
H194 H 0.72088 0.74513 0.84766 0.0
H195 H 0.72999 0.67694 0.8427 0.0
H196 H 0.76194 0.97351 1.03239 0.0
H197 H 0.74321 0.97011 0.99975 0.0
H198 H 0.7807 0.85271 0.99726 0.0
H199 H 0.79938 0.85546 1.03018 0.0
Tb200 Tb 0.50514 0.4967 0.66033 0.0
Tb201 Tb 0.44869 0.48413 0.69597 0.0
C202 C 0.52588 0.5293 0.69766 0.0
C203 C 0.58177 0.53965 0.63109 0.0
C204 C 0.62629 0.60257 0.61909 0.0
C205 C 0.60863 0.60295 0.63676 0.0
C206 C 0.58653 0.57167 0.64273 0.0
C207 C 0.6005 0.53848 0.61388 0.0
C208 C 0.62249 0.56956 0.60791 0.0
C209 C 0.55741 0.50725 0.63661 0.0
O210 O 0.52158 0.4439 0.67515 0.0
O211 O 0.46363 0.42671 0.68715 0.0
O212 O 0.41405 0.47109 0.6707 0.0
O213 O 0.46246 0.45808 0.64962 0.0
O214 O 0.4413 0.45727 0.72204 0.0
O215 O 0.39916 0.49696 0.71171 0.0
O216 O 0.44162 0.54382 0.68784 0.0
O217 O 0.46074 0.54072 0.6571 0.0
O218 O 0.51786 0.53968 0.68073 0.0
O219 O 0.5072 0.50018 0.70504 0.0
C220 C 0.49802 0.41737 0.68152 0.0
O221 O 0.56322 0.49412 0.65343 0.0
O222 O 0.52099 0.51009 0.6327 0.0
C223 C 0.42616 0.45782 0.65436 0.0
C224 C 0.40673 0.4924 0.74474 0.0
C225 C 0.40105 0.51971 0.78202 0.0
C226 C 0.37125 0.49811 0.77397 0.0
C227 C 0.3741 0.48464 0.75558 0.0
C228 C 0.43644 0.51427 0.75256 0.0
C229 C 0.43364 0.52777 0.77098 0.0
C230 C 0.40983 0.47571 0.72578 0.0
C231 C 0.44167 0.55769 0.67069 0.0
H232 H 0.61105 0.62777 0.64573 0.0
H233 H 0.57256 0.5728 0.65623 0.0
H234 H 0.59727 0.5139 0.6048 0.0
H235 H 0.63473 0.56839 0.59403 0.0
H236 H 0.34545 0.4918 0.78181 0.0
H237 H 0.35083 0.4678 0.74986 0.0
H238 H 0.46202 0.52046 0.74451 0.0
H239 H 0.4574 0.5439 0.77668 0.0
Tb240 Tb 0.8258 0.22734 0.40736 0.0
Tb241 Tb 0.83173 0.17861 0.44616 0.0
C242 C 0.78079 0.25249 0.44187 0.0
C243 C 0.85971 0.29108 0.37026 0.0
C244 C 0.91886 0.3335 0.35296 0.0
C245 C 0.90996 0.33959 0.37184 0.0
C246 C 0.88072 0.31848 0.38044 0.0
C247 C 0.86943 0.28411 0.35164 0.0
C248 C 0.89867 0.30501 0.34308 0.0
C249 C 0.82802 0.2693 0.37887 0.0
O250 O 0.86928 0.25388 0.42494 0.0
O251 O 0.88904 0.19981 0.43981 0.0
O252 O 0.84818 0.13991 0.42303 0.0
O253 O 0.87114 0.18641 0.40347 0.0
O254 O 0.85492 0.17628 0.47317 0.0
O255 O 0.81923 0.13042 0.46309 0.0
O256 O 0.77394 0.16862 0.43586 0.0
O257 O 0.7836 0.18115 0.40455 0.0
O258 O 0.77789 0.24451 0.42415 0.0
O259 O 0.80649 0.23527 0.45244 0.0
C260 C 0.89617 0.23449 0.43355 0.0
O261 O 0.8307 0.232 0.37816 0.0
O262 O 0.81647 0.28112 0.39519 0.0
C263 C 0.86756 0.15026 0.40795 0.0
C264 C 0.82078 0.14075 0.49601 0.0
C265 C 0.79263 0.13619 0.53319 0.0
C266 C 0.81963 0.1096 0.52652 0.0
C267 C 0.83346 0.11189 0.50819 0.0
C268 C 0.79357 0.16721 0.50241 0.0
C269 C 0.7796 0.16494 0.52081 0.0
C270 C 0.83838 0.14382 0.47725 0.0
C271 C 0.76351 0.16545 0.41823 0.0
H272 H 0.92487 0.36135 0.37979 0.0
H273 H 0.87409 0.32424 0.39493 0.0
H274 H 0.8538 0.26306 0.34355 0.0
H275 H 0.904 0.30017 0.32837 0.0
H276 H 0.83086 0.08744 0.53561 0.0
H277 H 0.85474 0.0914 0.5036 0.0
H278 H 0.78347 0.18983 0.49326 0.0
H279 H 0.75847 0.18562 0.52529 0.0
Tb280 Tb 0.10632 0.58316 0.15358 0.0
Tb281 Tb 0.14599 0.57115 0.19445 0.0
C282 C 0.06757 0.52943 0.18352 0.0
C283 C 1.03031 0.60137 0.12019 0.0
C284 C 0.95136 0.60092 0.11243 0.0
C285 C 0.96453 0.59259 0.13053 0.0
C286 C 1.00376 0.5929 0.13439 0.0
C287 C 1.01735 0.61157 0.10243 0.0
C288 C 0.97824 0.61138 0.09857 0.0
C289 C 0.07143 0.59849 0.12379 0.0
O290 O 0.07496 0.61477 0.17461 0.0
O291 O 0.12851 0.63071 0.1901 0.0
O292 O 0.19238 0.58547 0.17444 0.0
O293 O 0.15533 0.6207 0.15468 0.0
O294 O 0.1448 0.58961 0.22226 0.0
O295 O 0.18853 0.55039 0.21299 0.0
O296 O 0.15039 0.51616 0.1804 0.0
O297 O 0.14972 0.53833 0.15002 0.0
O298 O 0.07261 0.53849 0.16594 0.0
O299 O 0.08904 0.54355 0.19711 0.0
C300 C 0.09384 0.63959 0.18465 0.0
O301 O 0.08517 0.62448 0.13494 0.0
O302 O 0.08373 0.56431 0.12806 0.0
C303 C 0.18903 0.60951 0.16025 0.0
C304 C 0.17404 0.55161 0.24587 0.0
C305 C 0.17162 0.52749 0.28387 0.0
C306 C 0.20358 0.54728 0.27659 0.0
C307 C 0.20477 0.55901 0.2579 0.0
C308 C 0.14227 0.53117 0.25279 0.0
C309 C 0.14119 0.519 0.27157 0.0
C310 C 0.17464 0.56955 0.22706 0.0
C311 C 0.15754 0.51137 0.16246 0.0
H312 H 0.94467 0.58451 0.14149 0.0
H313 H 1.01348 0.58536 0.14829 0.0
H314 H 0.03751 0.61834 0.09138 0.0
H315 H 0.96937 0.61713 0.08434 0.0
H316 H 0.2281 0.55355 0.28531 0.0
H317 H 0.22955 0.57479 0.25292 0.0
H318 H 0.11799 0.52545 0.24382 0.0
H319 H 0.116 0.50399 0.27658 0.0
Tb320 Tb 0.83477 0.67827 0.65217 0.0
Tb321 Tb 0.84432 0.71502 0.69387 0.0
C322 C 0.87228 0.63469 0.68579 0.0
C323 C 0.81432 0.65088 0.60102 0.0
C324 C 0.78627 0.64497 0.56381 0.0
C325 C 0.77173 0.62126 0.57816 0.0
C326 C 0.7856 0.62414 0.5965 0.0
C327 C 0.8282 0.67515 0.58679 0.0
C328 C 0.81433 0.67232 0.5685 0.0
C329 C 0.83372 0.64979 0.61955 0.0
O330 O 0.77784 0.67525 0.66423 0.0
O331 O 0.79755 0.67309 0.69474 0.0
O332 O 0.81253 0.75911 0.67976 0.0
O333 O 0.80851 0.73556 0.64946 0.0
O334 O 0.82113 0.7356 0.71895 0.0
O335 O 0.88194 0.72595 0.71609 0.0
O336 O 0.88234 0.74784 0.67601 0.0
O337 O 0.89404 0.69777 0.65648 0.0
O338 O 0.84713 0.63141 0.67223 0.0
O339 O 0.88416 0.66856 0.69045 0.0
C340 C 0.77146 0.6667 0.68185 0.0
O341 O 0.85383 0.67966 0.62438 0.0
O342 O 0.81574 0.6349 0.63382 0.0
C343 C 0.80215 0.76229 0.66219 0.0
C344 C 0.85294 0.703 0.74352 0.0
C345 C 0.85386 0.64669 0.77196 0.0
C346 C 0.82043 0.6535 0.76156 0.0
C347 C 0.81999 0.68119 0.74748 0.0
C348 C 0.88663 0.69569 0.75358 0.0
C349 C 0.88716 0.6677 0.7676 0.0
C350 C 0.85351 0.73026 0.72769 0.0
C351 C 0.90455 0.73069 0.66388 0.0
H352 H 0.74979 0.60018 0.57522 0.0
H353 H 0.77459 0.6046 0.60702 0.0
H354 H 0.85089 0.69553 0.5896 0.0
H355 H 0.82685 0.69066 0.55789 0.0
H356 H 0.79404 0.63844 0.76471 0.0
H357 H 0.7937 0.68548 0.73975 0.0
H358 H 0.91266 0.71145 0.7505 0.0
H359 H 0.91353 0.66285 0.77518 0.0
Tb360 Tb 0.13895 0.06962 0.90209 0.0
Tb361 Tb 0.08965 0.07018 0.94076 0.0
C362 C 0.17348 0.10111 0.94024 0.0
C363 C 0.17609 0.05874 0.85198 0.0
C364 C 0.17849 0.03802 0.81362 0.0
C365 C 0.21069 0.05409 0.82253 0.0
C366 C 0.20951 0.0641 0.84144 0.0
C367 C 0.14386 0.04247 0.84336 0.0
C368 C 0.14506 1.03216 0.82441 0.0
C369 C 0.17485 0.07381 0.87127 0.0
O370 O 0.14159 1.01164 0.91348 0.0
O371 O 0.13468 1.02702 0.94445 0.0
O372 O 0.06076 1.02878 0.92374 0.0
O373 O 0.08143 0.04765 0.89458 0.0
O374 O 0.06101 0.10443 0.96033 0.0
O375 O 0.0618 0.04276 0.96308 0.0
O376 O 0.06562 0.1113 0.92105 0.0
O377 O 0.12285 0.12829 0.90903 0.0
O378 O 0.18057 0.0828 0.92447 0.0
O379 O 0.13863 0.10587 0.94651 0.0
C380 C 0.14623 1.00329 0.9313 0.0
O381 O 0.14537 0.09478 0.87564 0.0
O382 O 0.18464 0.05108 0.88495 0.0
C383 C 0.05775 1.02837 0.90558 0.0
C384 C 1.00476 0.07459 0.97065 0.0
C385 C 0.92508 0.06839 0.97592 0.0
C386 C 0.94165 0.05808 0.95876 0.0
C387 C 0.98125 0.06128 0.95612 0.0
C388 C 0.98822 0.08714 0.98727 0.0
C389 C 0.94882 0.08414 0.9899 0.0
C390 C 0.04653 0.07469 0.96882 0.0
C391 C 0.0878 0.13758 0.91364 0.0
H392 H 0.23719 0.05868 0.81502 0.0
H393 H 0.23468 0.07677 0.84776 0.0
H394 H 0.11755 0.03847 0.85116 0.0
H395 H 0.11939 1.0205 0.81814 0.0
H396 H 0.92431 0.04598 0.94771 0.0
H397 H 0.99366 0.05207 0.94301 0.0
H398 H 1.00596 0.09783 0.99853 0.0
H399 H 0.93752 0.0917 1.00348 0.0
Tb400 Tb 0.74547 0.37155 0.15034 0.0
Tb401 Tb 0.75434 0.33881 0.19281 0.0
C402 C 0.72966 0.41967 0.18583 0.0
C403 C 0.7549 0.40397 0.09907 0.0
C404 C 0.78132 0.41367 0.06178 0.0
C405 C 0.75544 0.43985 0.06975 0.0
C406 C 0.74242 0.43499 0.08813 0.0
C407 C 0.7818 0.3785 0.09148 0.0
C408 C 0.79491 0.38335 0.07306 0.0
C409 C 0.73611 0.39678 0.11734 0.0
O410 O 0.80078 0.39424 0.15944 0.0
O411 O 0.81231 0.354 0.18439 0.0
O412 O 0.75361 0.29004 0.17446 0.0
O413 O 0.78206 0.31992 0.14969 0.0
O414 O 0.78197 0.30363 0.21246 0.0
O415 O 0.73698 0.34275 0.2208 0.0
O416 O 0.69282 0.33581 0.1874 0.0
O417 O 0.69473 0.33649 0.1553 0.0
O418 O 0.71328 0.40789 0.17032 0.0
O419 O 0.7582 0.40017 0.19236 0.0
C420 C 0.82348 0.38077 0.17261 0.0
O421 O 0.73107 0.36116 0.12238 0.0
O422 O 0.74547 0.41838 0.13146 0.0
C423 C 0.7754 0.28855 0.15959 0.0
C424 C 0.79493 0.34414 0.2378 0.0
C425 C 0.85491 0.38634 0.25434 0.0
C426 C 0.85812 0.34648 0.25184 0.0
C427 C 0.8284 0.3256 0.2437 0.0
C428 C 0.7916 0.38405 0.24043 0.0
C429 C 0.82121 0.40486 0.2487 0.0
C430 C 0.76699 0.32326 0.22616 0.0
C431 C 0.6763 0.33052 0.17108 0.0
H432 H 0.744 0.46334 0.06157 0.0
H433 H 0.72142 0.45484 0.09361 0.0
H434 H 0.79195 0.35432 0.0996 0.0
H435 H 0.81545 0.36305 0.06761 0.0
H436 H 0.88335 0.33124 0.25654 0.0
H437 H 0.83194 0.29507 0.24161 0.0
H438 H 0.7665 0.39951 0.23573 0.0
H439 H 0.81783 0.43546 0.25062 0.0
Tb440 Tb 0.43931 0.9778 0.40028 0.0
Tb441 Tb 0.4786 0.97377 0.44155 0.0
C442 C 0.39959 0.94095 0.43521 0.0
C443 C 0.40952 0.99451 0.3493 0.0
C444 C 0.40447 1.02196 0.31192 0.0
C445 C 0.43267 0.99519 0.31709 0.0
C446 C 0.43508 0.98158 0.33549 0.0
C447 C 0.38175 1.02176 0.34424 0.0
C448 C 0.37935 1.03541 0.32583 0.0
C449 C 0.40865 0.97616 0.36813 0.0
O450 O 0.43769 0.03592 0.4112 0.0
O451 O 0.43355 1.01723 0.44173 0.0
O452 O 0.5166 1.01135 0.42645 0.0
O453 O 0.49611 1.00389 0.39586 0.0
O454 O 0.50677 0.99957 0.46414 0.0
O455 O 0.48461 0.94213 0.46644 0.0
O456 O 0.51154 0.9338 0.42488 0.0
O457 O 0.46158 0.91992 0.40537 0.0
O458 O 0.39408 0.96472 0.42115 0.0
O459 O 0.43436 0.93108 0.43932 0.0
C460 C 0.4285 0.04323 0.42862 0.0
O461 O 0.43823 0.95581 0.37306 0.0
O462 O 0.39499 0.99558 0.38216 0.0
C463 C 0.52023 1.01743 0.40845 0.0
C464 C 0.46926 0.98503 0.4907 0.0
C465 C 0.41047 1.01052 0.51468 0.0
C466 C 0.43552 0.03685 0.50616 0.0
C467 C 0.46466 1.02428 0.49442 0.0
C468 C 0.44476 0.95851 0.49959 0.0
C469 C 0.41576 0.97115 0.51155 0.0
C470 C 0.49519 0.97266 0.47552 0.0
C471 C 0.49467 0.91063 0.413 0.0
H472 H 0.4522 0.98373 0.30678 0.0
H473 H 0.45636 0.96003 0.33873 0.0
H474 H 0.36124 1.03194 0.35443 0.0
H475 H 0.35761 0.05643 0.32248 0.0
H476 H 0.43302 0.0673 0.5088 0.0
H477 H 0.48294 0.04558 0.48787 0.0
H478 H 0.44735 0.92808 0.49692 0.0
H479 H 0.39729 0.95018 0.5182 0.0
Tb480 Tb 0.24788 0.32593 0.40444 0.0
Tb481 Tb 0.24232 0.36663 0.44532 0.0
C482 C 0.27609 0.28403 0.43922 0.0
C483 C 0.24485 0.32797 0.35471 0.0
C484 C 0.23561 0.38577 0.32736 0.0
C485 C 0.27185 0.3782 0.33502 0.0
C486 C 0.27645 0.34963 0.34852 0.0
C487 C 0.20874 0.33497 0.34672 0.0
C488 C 0.20414 0.36366 0.33326 0.0
C489 C 0.24808 0.3029 0.37135 0.0
O490 O 0.18722 0.33164 0.41099 0.0
O491 O 0.19234 0.32958 0.44263 0.0
O492 O 0.20965 0.4025 0.42515 0.0
O493 O 0.24575 0.38669 0.39971 0.0
O494 O 0.22624 0.35946 0.47343 0.0
O495 O 0.24838 0.41361 0.46362 0.0
O496 O 0.29363 0.39101 0.43276 0.0
O497 O 0.30621 0.34485 0.4107 0.0
O498 O 0.25326 0.28063 0.42485 0.0
O499 O 0.2823 0.31782 0.44689 0.0
C500 C 0.17198 0.32524 0.42743 0.0
O501 O 0.2792 0.30625 0.38125 0.0
O502 O 0.21786 0.30176 0.38198 0.0
C503 C 0.22141 0.40938 0.40787 0.0
C504 C 0.25687 0.39825 0.49623 0.0
C505 C 0.29061 0.40963 0.53197 0.0
C506 C 0.25581 0.3896 0.5301 0.0
C507 C 0.23921 0.3841 0.51251 0.0
C508 C 0.29184 0.41799 0.49794 0.0
C509 C 0.30854 0.42353 0.5156 0.0
C510 C 0.2366 0.39399 0.47808 0.0
C511 C 0.3163 0.37549 0.42022 0.0
H512 H 0.29687 0.39401 0.3304 0.0
H513 H 0.30466 0.34519 0.35441 0.0
H514 H 0.18374 0.31906 0.3513 0.0
H515 H 0.17586 0.36878 0.3276 0.0
H516 H 0.24138 0.37787 0.54224 0.0
H517 H 0.21212 0.369 0.51164 0.0
H518 H 0.30607 0.42955 0.4857 0.0
H519 H 0.33513 0.43944 0.51643 0.0
Tb520 Tb 0.98073 0.97652 0.1528 0.0
Tb521 Tb 0.9451 0.98145 0.19484 0.0
C522 C 1.02912 1.01503 0.18495 0.0
C523 C 0.96813 0.97256 0.10298 0.0
C524 C 0.91075 0.97253 0.07521 0.0
C525 C 0.91924 1.00611 0.0852 0.0
C526 C 0.94748 1.00612 0.09894 0.0
C527 C 0.95952 0.93888 0.09315 0.0
C528 C 0.93104 0.93881 0.07947 0.0
C529 C 0.9955 0.97139 0.11868 0.0
O530 O 1.01351 0.93609 0.16941 0.0
O531 O 0.96419 0.92271 0.1893 0.0
O532 O 0.89782 0.97117 0.17472 0.0
O533 O 0.93443 0.93611 0.15537 0.0
O534 O 0.94744 0.9612 0.22247 0.0
O535 O 0.90131 0.99792 0.21352 0.0
O536 O 0.94477 0.03978 0.18445 0.0
O537 O 0.93899 1.02358 0.15369 0.0
O538 O 1.02538 1.00657 0.1672 0.0
O539 O 1.00268 1.0073 0.19774 0.0
C540 C 0.99674 0.9129 0.18137 0.0
O541 O 0.99991 1.00304 0.12813 0.0
O542 O 0.99225 0.94166 0.12965 0.0
C543 C 0.90072 0.94725 0.16061 0.0
C544 C 0.91745 0.9988 0.24625 0.0
C545 C 0.9113 1.02606 0.28359 0.0
C546 C 0.94038 1.00022 0.27849 0.0
C547 C 0.94332 0.98671 0.26013 0.0
C548 C 0.88886 1.02524 0.25121 0.0
C549 C 0.88592 0.03879 0.26959 0.0
C550 C 0.91696 0.97995 0.22759 0.0
C551 C 0.93467 0.04851 0.16731 0.0
H552 H 0.90494 1.03287 0.08205 0.0
H553 H 0.95295 1.03251 0.10641 0.0
H554 H 0.97453 0.91245 0.09621 0.0
H555 H 0.92512 0.91234 0.07217 0.0
H556 H 0.96016 0.98931 0.28885 0.0
H557 H 0.96522 0.96576 0.25699 0.0
H558 H 0.86807 1.03475 0.24099 0.0
H559 H 0.86349 0.05908 0.27285 0.0
Tb560 Tb 0.33651 0.7303 0.90628 0.0
Tb561 Tb 0.33595 0.68043 0.94492 0.0
C562 C 0.29474 0.76196 0.94166 0.0
C563 C 0.34064 0.81497 0.87605 0.0
C564 C 0.33326 0.89458 0.87057 0.0
C565 C 0.32403 0.87801 0.88794 0.0
C566 C 0.32782 0.83846 0.89068 0.0
C567 C 0.35217 0.83154 0.8592 0.0
C568 C 0.34858 0.87092 0.85646 0.0
C569 C 0.34112 0.77318 0.87804 0.0
O570 O 0.37717 0.75488 0.92596 0.0
O571 O 0.39442 0.69779 0.93816 0.0
O572 O 0.34786 0.63921 0.92214 0.0
O573 O 0.37259 0.68166 0.90069 0.0
O574 O 0.36018 0.67419 0.97154 0.0
O575 O 0.31832 0.63347 0.96168 0.0
O576 O 0.27777 0.67918 0.93419 0.0
O577 O 0.29236 0.6858 0.90308 0.0
O578 O 0.29615 0.76007 0.92347 0.0
O579 O 0.31295 0.73743 0.95262 0.0
C580 C 0.40335 0.73311 0.93363 0.0
O581 O 0.3708 0.75919 0.88664 0.0
O582 O 0.30927 0.75753 0.88379 0.0
C583 C 0.36657 0.64655 0.90645 0.0
C584 C 0.32366 0.64181 0.99477 0.0
C585 C 0.30119 0.63729 1.03289 0.0
C586 C 0.31412 0.60458 1.02331 0.0
C587 C 0.3252 0.60687 1.00452 0.0
C588 C 0.30999 0.67444 1.00408 0.0
C589 C 0.29882 0.67218 1.02292 0.0
C590 C 0.33987 0.64391 0.97564 0.0
C591 C 0.26877 0.67471 0.91648 0.0
H592 H 0.3123 0.8953 0.89909 0.0
H593 H 0.31941 0.82604 0.90396 0.0
H594 H 0.36245 0.81382 0.84786 0.0
H595 H 0.3553 0.88221 0.84273 0.0
H596 H 0.31572 0.57709 1.03034 0.0
H597 H 0.3358 0.58135 0.99768 0.0
H598 H 0.30878 0.70183 0.99693 0.0
H599 H 0.28933 0.69807 1.0298 0.0
Tb600 Tb 0.58386 0.06385 0.65957 0.0
Tb601 Tb 0.63492 0.07291 0.69712 0.0
C602 C 0.56082 1.02253 0.69528 0.0
C603 C 0.50526 0.08375 0.62618 0.0
C604 C 0.43833 0.11602 0.61096 0.0
C605 C 0.4413 0.11013 0.63031 0.0
C606 C 0.47462 0.09432 0.63789 0.0
C607 C 0.50363 0.09285 0.60717 0.0
C608 C 0.47061 0.10904 0.59963 0.0
C609 C 0.53684 0.05964 0.63309 0.0
O610 O 0.56025 0.11087 0.67614 0.0
O611 O 0.61654 0.13004 0.68896 0.0
O612 O 0.67315 0.08767 0.6734 0.0
O613 O 0.6272 0.10516 0.6521 0.0
O614 O 0.63866 0.09819 0.72363 0.0
O615 O 0.68348 0.06111 0.71373 0.0
O616 O 0.64527 1.0148 0.68743 0.0
O617 O 0.63009 1.02181 0.65625 0.0
O618 O 0.56992 1.01704 0.67791 0.0
O619 O 0.57772 0.05003 0.70477 0.0
C620 C 0.58174 0.13803 0.68336 0.0
O621 O 0.57164 0.07263 0.63101 0.0
O622 O 0.53162 0.04385 0.6494 0.0
C623 C 0.66304 0.10357 0.65733 0.0
C624 C 0.67456 0.06502 0.7467 0.0
C625 C 0.68143 0.03938 0.78426 0.0
C626 C 0.71087 0.06081 0.77568 0.0
C627 C 0.70742 0.07344 0.75717 0.0
C628 C 0.64522 0.04324 0.75501 0.0
C629 C 0.64862 1.03055 0.77359 0.0
C630 C 0.67091 0.08142 0.72768 0.0
C631 C 0.64757 1.00324 0.66994 0.0
H632 H 0.417 0.11531 0.63936 0.0
H633 H 0.47537 0.08825 0.65274 0.0
H634 H 0.52695 0.08518 0.59792 0.0
H635 H 0.46924 0.11267 0.58462 0.0
H636 H 0.7363 0.06868 0.78342 0.0
H637 H 0.73028 0.09048 0.7511 0.0
H638 H 0.61954 0.0364 0.74721 0.0
H639 H 0.62559 1.01366 0.77957 0.0
H640 H 0.23608 0.43059 0.21851 0.0
H641 H 0.34456 0.45881 0.24377 0.0
H642 H 0.203 0.46069 0.24426 0.0
H643 H 0.31166 0.48485 0.27042 0.0
H644 H 0.19405 0.3781 0.29552 0.0
H645 H 0.2 0.41514 0.26744 0.0
H646 H 0.27404 0.4957 0.29595 0.0
H647 H 0.26787 0.45753 0.32443 0.0
C648 C 0.25314 0.44461 0.2291 0.0
C649 C 0.29292 0.43876 0.23021 0.0
C650 C 0.23401 0.46153 0.2441 0.0
C651 C 0.25457 0.47026 0.26046 0.0
C652 C 0.29442 0.47556 0.25873 0.0
C653 C 0.31358 0.46025 0.24337 0.0
C654 C 0.2106 0.40437 0.29604 0.0
C655 C 0.23172 0.41402 0.31197 0.0
C656 C 0.21395 0.42614 0.27979 0.0
C657 C 0.23892 0.45799 0.27898 0.0
C658 C 0.25587 0.47053 0.29574 0.0
C659 C 0.2525 0.44859 0.31205 0.0
H660 H 0.68957 0.60912 0.59657 0.0
H661 H 0.60146 0.677 0.62263 0.0
H662 H 0.69424 0.65517 0.57156 0.0
H663 H 0.60884 0.7255 0.59856 0.0
H664 H 0.66325 0.68704 0.51868 0.0
H665 H 0.6909 0.70069 0.54907 0.0
H666 H 0.57671 0.71499 0.57164 0.0
H667 H 0.54996 0.70394 0.54121 0.0
C668 C 0.67244 0.6349 0.59741 0.0
C669 C 0.64303 0.6379 0.6107 0.0
C670 C 0.67543 0.66195 0.58308 0.0
C671 C 0.64936 0.69272 0.58209 0.0
C672 C 0.62732 0.70064 0.59811 0.0
C673 C 0.62341 0.67292 0.61215 0.0
C674 C 0.64427 0.69511 0.52997 0.0
C675 C 0.60432 0.6926 0.52788 0.0
C676 C 0.66013 0.70252 0.54753 0.0
C677 C 0.63619 0.7062 0.56329 0.0
C678 C 0.59657 0.71112 0.56021 0.0
C679 C 0.58085 0.70433 0.54266 0.0
H680 H 0.27256 0.97594 0.77535 0.0
H681 H 0.19715 0.9003 0.80611 0.0
H682 H 0.29057 1.00739 0.80435 0.0
H683 H 0.21427 0.9313 0.83461 0.0
H684 H 0.36923 0.94867 0.84859 0.0
H685 H 0.33323 0.98465 0.8259 0.0
H686 H 0.2309 0.97015 0.85914 0.0
H687 H 0.26638 0.93058 0.88093 0.0
C688 C 0.25936 0.9664 0.78825 0.0
C689 C 0.23489 0.93431 0.78853 0.0
C690 C 0.26947 0.98464 0.80489 0.0
C691 C 0.25557 0.97087 0.82212 0.0
C692 C 0.2264 0.94282 0.82186 0.0
C693 C 0.21649 0.92455 0.80531 0.0
C694 C 0.33927 0.95423 0.85142 0.0
C695 C 0.31987 0.93366 0.86544 0.0
C696 C 0.31837 0.9754 0.8384 0.0
C697 C 0.27811 0.97635 0.83964 0.0
C698 C 0.26141 0.96674 0.85695 0.0
C699 C 0.28198 0.94426 0.86964 0.0
H700 H 0.85957 0.55064 1.01932 0.0
H701 H 0.90756 0.45603 0.05022 0.0
H702 H 0.82958 0.57445 1.04769 0.0
H703 H 0.88045 0.48049 0.0786 0.0
H704 H 0.90514 0.64162 0.08865 0.0
H705 H 0.86078 0.61122 0.06784 0.0
H706 H 0.85819 0.51106 0.10367 0.0
H707 H 0.9057 0.54065 0.12363 0.0
C708 C 0.86301 0.53457 1.03219 0.0
C709 C 0.88747 0.50273 1.0329 0.0
C710 C 0.84601 0.54824 1.04852 0.0
C711 C 0.85539 0.53173 0.06592 0.0
C712 C 0.8736 0.49555 0.06582 0.0
C713 C 0.88963 0.48129 1.04942 0.0
C714 C 0.89434 0.61344 0.09234 0.0
C715 C 0.91136 0.59227 0.10679 0.0
C716 C 0.8683 0.59574 0.0804 0.0
C717 C 0.85907 0.55659 0.08288 0.0
C718 C 0.86754 0.5399 0.10035 0.0
C719 C 0.89452 0.55719 0.11204 0.0
H720 H 0.8189 0.63089 0.8814 0.0
H721 H 0.71706 0.61003 0.84886 0.0
H722 H 0.85556 0.5914 0.86016 0.0
H723 H 0.75417 0.57371 0.82677 0.0
H724 H 0.888 0.65875 0.8056 0.0
H725 H 0.87038 0.63054 0.83485 0.0
H726 H 0.79854 0.54822 0.8063 0.0
H727 H 0.81568 0.57802 0.77657 0.0
C728 C 0.80378 0.61652 0.87022 0.0
C729 C 0.76576 0.62621 0.8658 0.0
C730 C 0.82501 0.594 0.85788 0.0
C731 C 0.80877 0.58319 0.84069 0.0
C732 C 0.76854 0.58365 0.83924 0.0
C733 C 0.74703 0.60501 0.85188 0.0
C734 C 0.86955 0.63377 0.80536 0.0
C735 C 0.85213 0.62165 0.78877 0.0
C736 C 0.85939 0.61714 0.82235 0.0
C737 C 0.83163 0.58773 0.8232 0.0
C738 C 0.81884 0.57172 0.8063 0.0
C739 C 0.82852 0.58893 0.78925 0.0
H740 H 0.93303 0.38373 0.24998 0.0
H741 H 0.84403 0.43616 0.28288 0.0
H742 H 0.97934 0.39726 0.27457 0.0
H743 H 0.88886 0.44838 0.30746 0.0
H744 H 0.97246 0.31667 0.32629 0.0
H745 H 0.98278 0.35692 0.29941 0.0
H746 H 0.93576 0.45349 0.3293 0.0
H747 H 0.92269 0.41193 0.3558 0.0
C748 C 0.92366 0.39914 0.26227 0.0
C749 C 0.88465 0.40701 0.26505 0.0
C750 C 0.95015 0.40694 0.27639 0.0
C751 C 0.93751 0.42103 0.29376 0.0
C752 C 0.90004 0.43607 0.29474 0.0
C753 C 0.87379 0.42886 0.28054 0.0
C754 C 0.96549 0.34684 0.32734 0.0
C755 C 0.9439 0.36041 0.34245 0.0
C756 C 0.97174 0.37042 0.31187 0.0
C757 C 0.95613 0.4077 0.31145 0.0
C758 C 0.94509 0.42395 0.32861 0.0
C759 C 0.93789 0.4001 0.34397 0.0
H760 H 0.91751 0.93539 1.04189 0.0
H761 H 0.84339 1.013 0.07173 0.0
H762 H 0.88656 0.95154 1.01322 0.0
H763 H 0.81196 1.03006 1.04251 0.0
H764 H 0.88798 1.00147 0.96633 0.0
H765 H 0.84784 0.96745 0.9885 0.0
H766 H 0.83496 0.07154 1.02033 0.0
H767 H 0.87148 0.10613 0.99721 0.0
C768 C 0.89358 0.95502 1.04247 0.0
C769 C 0.88425 0.97427 0.05901 0.0
C770 C 0.87534 0.96438 1.0258 0.0
C771 C 0.84776 0.99386 1.02518 0.0
C772 C 0.83437 1.00868 1.04224 0.0
C773 C 0.85257 0.9991 0.05899 0.0
C774 C 0.87454 1.01777 0.97737 0.0
C775 C 0.88575 0.05575 0.98109 0.0
C776 C 0.85173 0.99804 0.99028 0.0
C777 C 0.84245 1.01565 1.00736 0.0
C778 C 0.84399 0.056 1.00805 0.0
C779 C 0.86546 0.07608 0.99479 0.0
H780 H 0.39545 0.9817 0.54924 0.0
H781 H 0.36133 0.07126 0.51104 0.0
H782 H 0.36803 1.01672 0.57486 0.0
H783 H 0.33312 0.10688 0.53692 0.0
H784 H 0.37242 0.07724 0.61934 0.0
H785 H 0.32938 0.05503 0.59513 0.0
H786 H 0.37652 0.13945 0.5572 0.0
H787 H 0.41817 0.16253 0.5816 0.0
C788 C 0.38046 1.00814 0.5462 0.0
C789 C 0.38202 1.02462 0.52835 0.0
C790 C 0.36422 1.02835 0.56094 0.0
C791 C 0.34957 0.06558 0.55811 0.0
C792 C 0.34519 0.07884 0.53967 0.0
C793 C 0.3616 0.05861 0.52488 0.0
C794 C 0.3718 0.09286 0.60624 0.0
C795 C 0.40041 0.1199 0.60186 0.0
C796 C 0.3471 0.07992 0.59227 0.0
C797 C 0.35185 0.09326 0.57385 0.0
C798 C 0.37315 0.12715 0.57101 0.0
C799 C 0.39745 0.14042 0.58504 0.0
H800 H 0.23228 0.05738 0.95367 0.0
H801 H 0.18113 0.16938 0.9575 0.0
H802 H 0.26743 0.0692 0.9827 0.0
H803 H 0.21689 0.18192 0.98604 0.0
H804 H 0.23222 0.16527 1.04898 0.0
H805 H 0.20888 0.15903 1.01718 0.0
H806 H 0.31437 0.10365 1.0012 0.0
H807 H 0.33781 0.10991 1.03318 0.0
C808 C 0.23005 0.08524 0.96023 0.0
C809 C 0.20427 0.11261 0.95325 0.0
C810 C 0.2499 0.09196 0.97699 0.0
C811 C 0.24438 0.12624 0.98704 0.0
C812 C 0.22111 0.15479 0.97904 0.0
C813 C 0.2011 0.14792 0.96248 0.0
C814 C 0.25076 0.15226 1.03868 0.0
C815 C 0.28697 0.13816 1.04378 0.0
C816 C 0.23738 0.14872 1.02033 0.0
C817 C 0.2598 0.13107 1.00643 0.0
C818 C 0.29612 0.11709 1.01149 0.0
C819 C 0.30953 0.12064 1.02989 0.0
H820 H 0.6225 0.52139 0.2857 0.0
H821 H 0.73955 0.48719 0.29572 0.0
H822 H 0.62927 0.50331 0.25281 0.0
H823 H 0.74637 0.47026 0.26301 0.0
H824 H 0.76494 0.47896 0.20231 0.0
H825 H 0.74869 0.50557 0.2327 0.0
H826 H 0.64121 0.4443 0.23191 0.0
H827 H 0.65773 0.41767 0.2012 0.0
C828 C 0.64955 0.50978 0.28101 0.0
C829 C 0.68061 0.5063 0.2935 0.0
C830 C 0.65344 0.49961 0.2621 0.0
C831 C 0.68858 0.48608 0.25515 0.0
C832 C 0.71919 0.48162 0.26773 0.0
C833 C 0.71525 0.4914 0.28657 0.0
C834 C 0.73699 0.47269 0.20819 0.0
C835 C 0.71232 0.44683 0.19919 0.0
C836 C 0.72798 0.48733 0.22579 0.0
C837 C 0.69403 0.4764 0.23497 0.0
C838 C 0.66759 0.45332 0.22524 0.0
C839 C 0.67675 0.43851 0.20751 0.0
H840 H 0.29284 0.85528 0.53715 0.0
H841 H 0.29926 0.9784 0.54245 0.0
H842 H 0.30974 0.86054 0.5044 0.0
H843 H 0.31879 0.98356 0.50985 0.0
H844 H 0.34122 0.98734 0.4479 0.0
H845 H 0.307 0.98007 0.47765 0.0
H846 H 0.36302 0.87105 0.48647 0.0
H847 H 0.39504 0.87767 0.45672 0.0
C848 C 0.29781 0.88358 0.53136 0.0
C849 C 0.29509 0.91635 0.54269 0.0
C850 C 0.30807 0.88661 0.5125 0.0
C851 C 0.3165 0.92247 0.5043 0.0
C852 C 0.31253 0.9554 0.51548 0.0
C853 C 0.30197 0.95238 0.53436 0.0
C854 C 0.34469 0.96111 0.45586 0.0
C855 C 0.37042 0.93283 0.44981 0.0
C856 C 0.32575 0.95723 0.47315 0.0
C857 C 0.33223 0.92503 0.48477 0.0
C858 C 0.35639 0.89595 0.47802 0.0
C859 C 0.37495 0.89973 0.46083 0.0
H860 H 0.94051 0.61323 0.7001 0.0
H861 H 0.81936 0.5915 0.70448 0.0
H862 H 0.95115 0.57985 0.72961 0.0
H863 H 0.82941 0.55959 0.73454 0.0
H864 H 0.8606 0.48763 0.78513 0.0
H865 H 0.85367 0.50839 0.75289 0.0
H866 H 0.94155 0.59388 0.76134 0.0
H867 H 0.95032 0.57149 0.7932 0.0
C868 C 0.91628 0.60007 0.70711 0.0
C869 C 0.87926 0.60413 0.69975 0.0
C870 C 0.92221 0.58165 0.72427 0.0
C871 C 0.89113 0.56747 0.73478 0.0
C872 C 0.8542 0.56963 0.72684 0.0
C873 C 0.84837 0.58761 0.70947 0.0
C874 C 0.87923 0.51023 0.78006 0.0
C875 C 0.90627 0.52758 0.792 0.0
C876 C 0.87477 0.52257 0.76153 0.0
C877 C 0.89701 0.55286 0.75431 0.0
C878 C 0.92425 0.57003 0.76617 0.0
C879 C 0.92889 0.55754 0.78467 0.0
H880 H 0.88042 0.8793 0.14564 0.0
H881 H 0.85497 0.99999 0.14319 0.0
H882 H 0.84673 0.86942 0.11625 0.0
H883 H 0.82211 0.99058 0.11331 0.0
H884 H 0.74889 0.95666 0.06276 0.0
H885 H 0.77005 0.96328 0.09499 0.0
H886 H 0.86194 0.88368 0.08452 0.0
H887 H 0.84193 0.87808 0.05224 0.0
C888 C 0.86629 0.90352 0.13912 0.0
C889 C 0.86959 0.94024 0.14697 0.0
C890 C 0.84762 0.89803 0.12204 0.0
C891 C 0.83216 0.92925 0.11211 0.0
C892 C 0.83327 0.96573 0.12058 0.0
C893 C 0.85175 0.97115 0.13784 0.0
C894 C 0.77387 0.94075 0.06718 0.0
C895 C 0.7937 0.91695 0.05454 0.0
C896 C 0.78591 0.94449 0.08581 0.0
C897 C 0.81779 0.92411 0.09251 0.0
C898 C 0.83689 0.89947 0.08006 0.0
C899 C 0.82521 0.8961 0.06141 0.0
H900 H 0.32148 0.5882 0.89327 0.0
H901 H 0.43337 0.63932 0.88772 0.0
H902 H 0.33128 0.55365 0.86389 0.0
H903 H 0.44385 0.60426 0.85882 0.0
H904 H 0.42493 0.58884 0.79621 0.0
H905 H 0.41953 0.61237 0.82799 0.0
H906 H 0.36452 0.5067 0.84475 0.0
H907 H 0.37002 0.48298 0.81279 0.0
C908 C 0.34887 0.59061 0.88623 0.0
C909 C 0.3768 0.61619 0.89289 0.0
C910 C 0.35442 0.5711 0.86926 0.0
C911 C 0.38807 0.57677 0.85864 0.0
C912 C 0.41715 0.59993 0.86624 0.0
C913 C 0.41146 0.61955 0.88302 0.0
C914 C 0.41216 0.57028 0.80666 0.0
C915 C 0.39805 0.53387 0.80177 0.0
C916 C 0.40908 0.5838 0.82501 0.0
C917 C 0.39187 0.56138 0.83915 0.0
C918 C 0.37767 0.52497 0.83429 0.0
C919 C 0.38078 0.51139 0.81588 0.0
H920 H 0.77659 0.19544 0.5573 0.0
H921 H 0.7767 0.07179 0.55418 0.0
H922 H 0.75268 0.1916 0.58929 0.0
H923 H 0.7532 0.06803 0.58617 0.0
H924 H 0.73113 0.06918 0.64819 0.0
H925 H 0.76773 0.07925 0.61928 0.0
H926 H 0.69354 0.17363 0.60471 0.0
H927 H 0.65761 0.16369 0.63345 0.0
C928 C 0.77141 0.16741 0.56336 0.0
C929 C 0.77849 0.13395 0.55297 0.0
C930 C 0.75787 0.16521 0.58179 0.0
C931 C 0.75109 0.12949 0.59044 0.0
C932 C 0.75877 0.09605 0.58017 0.0
C933 C 0.77218 0.09824 0.56173 0.0
C934 C 0.72368 0.09295 0.63913 0.0
C935 C 0.69165 0.11578 0.64315 0.0
C936 C 0.7442 0.09836 0.6224 0.0
C937 C 0.73335 0.12699 0.60947 0.0
C938 C 0.70301 0.15149 0.61428 0.0
C939 C 0.68236 0.14582 0.63082 0.0
H940 H 0.14874 0.41344 0.39402 0.0
H941 H 0.25933 0.46803 0.39182 0.0
H942 H 0.13043 0.44617 0.36497 0.0
H943 H 0.24185 0.50008 0.36287 0.0
H944 H 0.19942 0.56704 0.31414 0.0
H945 H 0.2047 0.54568 0.34635 0.0
H946 H 0.14687 0.44017 0.33228 0.0
H947 H 0.14149 0.46164 0.29992 0.0
C948 C 0.16837 0.43399 0.38785 0.0
C949 C 0.20498 0.43926 0.39557 0.0
C950 C 0.1583 0.45205 0.37092 0.0
C951 C 0.18466 0.47577 0.36136 0.0
C952 C 0.22038 0.48272 0.36983 0.0
C953 C 0.23039 0.46461 0.38661 0.0
C954 C 0.18782 0.53921 0.31781 0.0
C955 C 0.17073 0.51583 0.30413 0.0
C956 C 0.19079 0.52695 0.33641 0.0
C957 C 0.17672 0.49088 0.34205 0.0
C958 C 0.15774 0.4683 0.32862 0.0
C959 C 0.15471 0.48064 0.30995 0.0
H960 H 0.77569 0.70109 0.53717 0.0
H961 H 0.76782 0.5785 0.54513 0.0
H962 H 0.75753 0.69362 0.50466 0.0
H963 H 0.74717 0.57125 0.51287 0.0
H964 H 0.7322 0.56224 0.45071 0.0
H965 H 0.76434 0.57308 0.4807 0.0
H966 H 0.70415 0.68058 0.4864 0.0
H967 H 0.67397 0.67045 0.4564 0.0
C968 C 0.77016 0.67247 0.53203 0.0
C969 C 0.77338 0.64045 0.54395 0.0
C970 C 0.75927 0.66818 0.51332 0.0
C971 C 0.75084 0.63176 0.50592 0.0
C972 C 0.75402 0.59971 0.51785 0.0
C973 C 0.7652 0.60398 0.53654 0.0
C974 C 0.72733 0.58892 0.45803 0.0
C975 C 0.70082 0.61563 0.4511 0.0
C976 C 0.74504 0.59482 0.47544 0.0
C977 C 0.73654 0.62751 0.48627 0.0
C978 C 0.71198 0.65528 0.47858 0.0
C979 C 0.69458 0.64948 0.46126 0.0
H980 H 0.21893 0.07274 0.78486 0.0
H981 H 0.14201 0.97807 0.79593 0.0
H982 H 0.22509 0.05197 0.75256 0.0
H983 H 0.14729 0.95826 0.76363 0.0
H984 H 0.14268 0.93936 0.70261 0.0
H985 H 0.13249 0.97277 0.73203 0.0
H986 H 0.25294 1.00086 0.73416 0.0
H987 H 0.26261 0.9684 0.70425 0.0
C988 C 0.20329 0.04749 0.78052 0.0
C989 C 0.18013 1.02705 0.79332 0.0
C990 C 0.20677 1.03566 0.76188 0.0
C991 C 0.18681 1.00333 0.75534 0.0
C992 C 0.16271 0.98366 0.76796 0.0
C993 C 0.15954 0.99521 0.78662 0.0
C994 C 0.16665 0.95411 0.70899 0.0
C995 C 0.20327 0.95191 0.70092 0.0
C996 C 0.161 0.97265 0.72607 0.0
C997 C 0.19196 0.98904 0.73576 0.0
C998 C 0.22828 0.98896 0.72708 0.0
C999 C 0.23384 0.97067 0.70981 0.0
H1000 H 0.79261 0.35612 1.03627 0.0
H1001 H 0.79537 0.47936 1.04131 0.0
H1002 H 0.81289 0.36148 1.00391 0.0
H1003 H 0.81619 0.48479 1.00894 0.0
H1004 H 0.84341 0.48946 0.94777 0.0
H1005 H 0.80649 0.48019 0.97661 0.0
H1006 H 0.86743 0.37444 0.98694 0.0
H1007 H 0.90226 0.38296 0.95804 0.0
C1008 C 0.79799 0.38443 1.03057 0.0
C1009 C 0.79305 0.41725 1.04168 0.0
C1010 C 0.80958 0.38756 1.01188 0.0
C1011 C 0.81696 0.42362 1.00367 0.0
C1012 C 0.81065 0.45651 1.01458 0.0
C1013 C 0.79885 0.45338 1.03328 0.0
C1014 C 0.84743 0.46341 0.95581 0.0
C1015 C 0.87542 0.43672 0.9505 0.0
C1016 C 0.82692 0.45843 0.9726 0.0
C1017 C 0.83406 0.42669 0.98443 0.0
C1018 C 0.86035 0.39893 0.9783 0.0
C1019 C 0.88051 0.40381 0.96161 0.0
H1020 H 0.42654 0.15807 0.21217 0.0
H1021 H 0.32991 0.08638 0.19851 0.0
H1022 H 0.43815 0.12035 0.24019 0.0
H1023 H 0.34171 0.0478 0.22669 0.0
H1024 H 0.3388 1.03566 0.29181 0.0
H1025 H 0.33306 0.06013 0.26 0.0
H1026 H 0.45625 0.06112 0.25477 0.0
H1027 H 0.46205 0.03818 0.28684 0.0
C1028 C 0.40862 0.13324 0.21484 0.0
C1029 C 0.37749 0.12502 0.20309 0.0
C1030 C 0.41523 0.11155 0.23096 0.0
C1031 C 0.39064 0.08118 0.2359 0.0
C1032 C 0.36092 0.07132 0.22346 0.0
C1033 C 0.35451 0.09295 0.20714 0.0
C1034 C 0.36472 0.04129 0.28394 0.0
C1035 C 0.40092 1.03529 0.29208 0.0
C1036 C 0.36139 0.05473 0.26553 0.0
C1037 C 0.39417 0.06263 0.25472 0.0
C1038 C 0.43035 0.0557 0.26269 0.0
C1039 C 0.43368 0.04223 0.28109 0.0
H1040 H 0.35616 0.48793 0.64448 0.0
H1041 H 0.43656 0.39895 0.63042 0.0
H1042 H 0.32115 0.47548 0.6154 0.0
H1043 H 0.40143 0.38572 0.60184 0.0
H1044 H 0.36665 0.40754 0.54182 0.0
H1045 H 0.39495 0.41688 0.57248 0.0
H1046 H 0.28245 0.43339 0.59619 0.0
H1047 H 0.25417 0.4257 0.56525 0.0
C1048 C 0.36554 0.46484 0.63551 0.0
C1049 C 0.39913 0.44447 0.63973 0.0
C1050 C 0.34565 0.45781 0.61876 0.0
C1051 C 0.3589 0.43014 0.60594 0.0
C1052 C 0.39094 0.40804 0.61098 0.0
C1053 C 0.41085 0.41527 0.62753 0.0
C1054 C 0.34786 0.41358 0.55348 0.0
C1055 C 0.30801 0.41573 0.5509 0.0
C1056 C 0.36409 0.4184 0.57122 0.0
C1057 C 0.34105 0.42546 0.58701 0.0
C1058 C 0.3012 0.42811 0.58443 0.0
C1059 C 0.28493 0.42326 0.56665 0.0
H1060 H 0.96796 0.04339 0.30891 0.0
H1061 H 0.84491 0.03777 0.30352 0.0
H1062 H 0.96098 0.06491 0.34107 0.0
H1063 H 0.83795 0.06087 0.33543 0.0
H1064 H 0.83358 0.08248 0.39748 0.0
H1065 H 0.84605 0.047 0.36856 0.0
H1066 H 0.94149 0.1222 0.35656 0.0
H1067 H 0.92937 0.15677 0.38533 0.0
C1068 C 0.93938 0.04651 0.31457 0.0
C1069 C 0.90703 0.03901 0.30344 0.0
C1070 C 0.93536 0.05919 0.33303 0.0
C1071 C 0.89887 0.06478 0.34096 0.0
C1072 C 0.86652 0.0565 0.32996 0.0
C1073 C 0.87054 0.04384 0.31149 0.0
C1074 C 0.85806 0.09038 0.38898 0.0
C1075 C 0.88062 0.12228 0.39374 0.0
C1076 C 0.86485 0.07051 0.37223 0.0
C1077 C 0.89454 0.08194 0.36001 0.0
C1078 C 0.91859 0.11221 0.36556 0.0
C1079 C 0.91164 0.13212 0.38213 0.0
H1080 H 0.2377 0.55758 0.14455 0.0
H1081 H 0.20784 0.67736 0.14425 0.0
H1082 H 0.26964 0.56553 0.11435 0.0
H1083 H 0.24079 0.68592 0.1145 0.0
H1084 H 0.24165 0.67287 0.05092 0.0
H1085 H 0.22347 0.6683 0.08363 0.0
H1086 H 0.31822 0.59174 0.09391 0.0
H1087 H 0.33639 0.59626 0.06102 0.0
C1088 C 0.23976 0.58604 0.13851 0.0
C1089 C 0.22055 0.61692 0.14685 0.0
C1090 C 0.25774 0.5906 0.12105 0.0
C1091 C 0.25702 0.62623 0.11163 0.0
C1092 C 0.24102 0.65781 0.12098 0.0
C1093 C 0.22278 0.65314 0.13826 0.0
C1094 C 0.25899 0.65545 0.06015 0.0
C1095 C 0.29052 0.63496 0.05318 0.0
C1096 C 0.24862 0.65288 0.07903 0.0
C1097 C 0.26951 0.62986 0.09163 0.0
C1098 C 0.30118 0.60947 0.08469 0.0
C1099 C 0.31155 0.61202 0.06576 0.0
H1100 H 0.62549 0.03644 0.81138 0.0
H1101 H 0.74562 1.01345 0.8026 0.0
H1102 H 0.63123 1.01456 0.84367 0.0
H1103 H 0.75135 0.99177 0.83484 0.0
H1104 H 0.75952 0.97194 0.89654 0.0
H1105 H 0.75023 1.00929 0.86779 0.0
H1106 H 0.64037 0.95463 0.8598 0.0
H1107 H 0.64964 0.91805 0.88843 0.0
C1108 C 0.65312 1.0266 0.81626 0.0
C1109 C 0.68501 1.0266 0.80421 0.0
C1110 C 0.65646 1.01421 0.83486 0.0
C1111 C 0.69181 1.00146 0.84199 0.0
C1112 C 0.72383 1.00209 0.83004 0.0
C1113 C 0.72048 1.01443 0.81145 0.0
C1114 C 0.7327 0.96931 0.88905 0.0
C1115 C 0.70511 0.94241 0.89485 0.0
C1116 C 0.72764 0.99012 0.87237 0.0
C1117 C 0.69475 0.98464 0.86125 0.0
C1118 C 0.66592 0.95995 0.86796 0.0
C1119 C 0.67115 0.939 0.88446 0.0
H1120 H 0.46317 0.20883 0.14795 0.0
H1121 H 0.42745 0.3055 0.18116 0.0
H1122 H 0.52949 0.23059 0.14989 0.0
H1123 H 0.49395 0.32731 0.18305 0.0
H1124 H 0.62296 0.32769 0.19941 0.0
H1125 H 0.55603 0.30701 0.19747 0.0
H1126 H 0.57062 0.28368 0.13873 0.0
H1127 H 0.63722 0.3041 0.14063 0.0
C1128 C 0.46939 0.23488 0.15557 0.0
C1129 C 0.43986 0.25545 0.16434 0.0
C1130 C 0.50747 0.24743 0.15663 0.0
C1131 C 0.51714 0.28069 0.16666 0.0
C1132 C 0.48759 0.30137 0.17538 0.0
C1133 C 0.4494 0.28904 0.17414 0.0
C1134 C 0.61193 0.31804 0.1861 0.0
C1135 C 0.63565 0.31752 0.1702 0.0
C1136 C 0.57346 0.30645 0.18496 0.0
C1137 C 0.55789 0.29364 0.16794 0.0
C1138 C 0.5817 0.29298 0.1521 0.0
C1139 C 0.61994 0.30491 0.15319 0.0
H1140 H 0.62657 0.69813 0.39945 0.0
H1141 H 0.51442 0.66387 0.41888 0.0
H1142 H 0.6056 0.76493 0.39836 0.0
H1143 H 0.49352 0.7306 0.41769 0.0
H1144 H 0.45892 0.84958 0.39653 0.0
H1145 H 0.48108 0.78347 0.3946 0.0
H1146 H 0.58656 0.81539 0.42183 0.0
H1147 H 0.56438 0.88172 0.42387 0.0
C1148 C 0.59732 0.70473 0.40329 0.0
C1149 C 0.57217 0.67553 0.40923 0.0
C1150 C 0.58542 0.74309 0.40279 0.0
C1151 C 0.54792 0.75314 0.40797 0.0
C1152 C 0.5225 0.72382 0.41345 0.0
C1153 C 0.53453 0.68555 0.41419 0.0
C1154 C 0.48701 0.84271 0.40197 0.0
C1155 C 0.5098 0.8711 0.41042 0.0
C1156 C 0.49959 0.80467 0.40096 0.0
C1157 C 0.5355 0.79407 0.40814 0.0
C1158 C 0.55884 0.82264 0.41605 0.0
C1159 C 0.54606 0.86066 0.41729 0.0
H1160 H 0.96643 0.69284 0.64927 0.0
H1161 H 0.93257 0.80194 0.67224 0.0
H1162 H 1.03273 0.71531 0.64738 0.0
H1163 H 0.99875 0.82437 0.67026 0.0
H1164 H 0.11684 0.86322 0.64949 0.0
H1165 H 0.05071 0.84063 0.6471 0.0
H1166 H 0.08382 0.73181 0.67092 0.0
H1167 H 0.14989 0.75437 0.67341 0.0
C1168 C 0.97299 0.72178 0.65369 0.0
C1169 C 0.94412 0.74553 0.66096 0.0
C1170 C 1.01106 0.73455 0.65272 0.0
C1171 C 1.0211 0.77159 0.65873 0.0
C1172 C 0.99199 0.79579 0.66538 0.0
C1173 C 0.95405 0.78285 0.66659 0.0
C1174 C 0.11015 0.83432 0.65403 0.0
C1175 C 0.13875 0.81068 0.6617 0.0
C1176 C 0.07217 0.82147 0.65276 0.0
C1177 C 0.06192 0.78446 0.65888 0.0
C1178 C 0.09076 0.76036 0.66595 0.0
C1179 C 0.12863 0.77338 0.66746 0.0
H1180 H 0.06858 0.38552 0.92782 0.0
H1181 H 0.96461 0.35419 0.89899 0.0
H1182 H 0.0898 0.31875 0.92663 0.0
H1183 H 0.98584 0.28776 0.8978 0.0
H1184 H 1.0159 0.16661 0.91997 0.0
H1185 H 0.99588 0.2337 0.91959 0.0
H1186 H 0.11066 0.26818 0.90456 0.0
H1187 H 0.13073 0.20114 0.90496 0.0
C1188 C 0.05036 0.36455 0.92111 0.0
C1189 C 1.01482 0.37545 0.91353 0.0
C1190 C 0.06259 0.32622 0.92037 0.0
C1191 C 0.03946 0.29769 0.91221 0.0
C1192 C 1.0042 0.30875 0.90442 0.0
C1193 C 0.99215 0.34704 0.90499 0.0
C1194 C 0.03684 0.18844 0.91646 0.0
C1195 C 0.07493 0.1783 0.91245 0.0
C1196 C 1.02532 0.22697 0.91618 0.0
C1197 C 0.05164 0.25651 0.91207 0.0
C1198 C 0.08969 0.24632 0.90797 0.0
C1199 C 0.10112 0.20777 0.90807 0.0
H1200 H 0.65174 0.75211 0.92538 0.0
H1201 H 0.61778 0.86247 0.94683 0.0
H1202 H 0.58508 0.73091 0.92612 0.0
H1203 H 0.5512 0.84113 0.94775 0.0
H1204 H 0.43237 0.80448 0.92529 0.0
H1205 H 0.49903 0.82567 0.92646 0.0
H1206 H 0.53258 0.71422 0.94707 0.0
H1207 H 0.46606 0.69292 0.94572 0.0
C1208 C 0.63015 0.77177 0.93043 0.0
C1209 C 0.6403 0.80905 0.93604 0.0
C1210 C 0.59183 0.75954 0.93092 0.0
C1211 C 0.56252 0.78429 0.93695 0.0
C1212 C 0.5728 0.82141 0.94279 0.0
C1213 C 0.61113 0.83356 0.94239 0.0
C1214 C 0.4539 0.78454 0.9302 0.0
C1215 C 0.44367 0.74694 0.9354 0.0
C1216 C 0.4922 0.79676 0.93094 0.0
C1217 C 0.52142 0.77168 0.93682 0.0
C1218 C 0.51106 0.73422 0.94224 0.0
C1219 C 0.47275 0.72207 0.94159 0.0
H1220 H 0.45484 0.35454 0.69118 0.0
H1221 H 0.56855 0.38693 0.67324 0.0
H1222 H 0.47415 0.2874 0.69199 0.0
H1223 H 0.58772 0.31967 0.67385 0.0
H1224 H 0.51225 0.16719 0.67195 0.0
H1225 H 0.49194 0.23427 0.67157 0.0
H1226 H 0.60017 0.26773 0.69569 0.0
H1227 H 0.62056 0.20107 0.69591 0.0
C1228 C 0.484 0.34741 0.68741 0.0
C1229 C 0.51015 0.37637 0.68221 0.0
C1230 C 0.495 0.30876 0.68774 0.0
C1231 C 0.53254 0.2979 0.68299 0.0
C1232 C 0.55871 0.32689 0.67783 0.0
C1233 C 0.54765 0.36555 0.6774 0.0
C1234 C 0.53162 0.18882 0.67728 0.0
C1235 C 0.56807 0.17853 0.68397 0.0
C1236 C 0.51993 0.22735 0.67711 0.0
C1237 C 0.54445 0.25663 0.68352 0.0
C1238 C 0.5807 0.24618 0.69037 0.0
C1239 C 0.5923 0.20775 0.69062 0.0
H1240 H 0.13321 0.30043 0.45854 0.0
H1241 H 0.11809 0.3229 0.39963 0.0
H1242 H 0.06639 0.28023 0.46087 0.0
H1243 H 0.05135 0.30248 0.40197 0.0
H1244 H 0.92387 0.29988 0.41696 0.0
H1245 H 0.98987 0.32273 0.41592 0.0
H1246 H 1.02481 0.22709 0.45031 0.0
H1247 H 0.95871 0.20421 0.45139 0.0
C1248 C 0.11567 0.30111 0.44608 0.0
C1249 C 0.13115 0.31327 0.42889 0.0
C1250 C 0.07737 0.28932 0.44741 0.0
C1251 C 0.05343 0.28971 0.43162 0.0
C1252 C 0.06883 0.3022 0.41446 0.0
C1253 C 0.10721 0.31368 0.4131 0.0
C1254 C 0.9455 0.28383 0.42442 0.0
C1255 C 0.93585 0.25011 0.43423 0.0
C1256 C 0.98346 0.29682 0.42371 0.0
C1257 C 1.01275 0.27666 0.43295 0.0
C1258 C 1.00295 0.2435 0.44316 0.0
C1259 C 0.96502 0.23031 0.44373 0.0
H1260 H 0.13255 0.70347 0.19654 0.0
H1261 H 1.0217 0.66596 0.17701 0.0
H1262 H 0.10966 0.76964 0.19728 0.0
H1263 H 0.99886 0.73207 0.17784 0.0
H1264 H 0.96102 0.85118 0.19765 0.0
H1265 H 0.98429 0.78537 0.20013 0.0
H1266 H 0.09016 0.81905 0.17352 0.0
H1267 H 0.06692 0.88489 0.17098 0.0
C1268 C 0.10318 0.70923 0.1926 0.0
C1269 C 0.07899 0.67932 0.18671 0.0
C1270 C 0.09015 0.74723 0.1929 0.0
C1271 C 0.05246 0.75622 0.18756 0.0
C1272 C 1.02795 0.72615 0.18219 0.0
C1273 C 0.0411 0.68823 0.18167 0.0
C1274 C 0.9894 0.84469 0.19246 0.0
C1275 C 1.01203 0.87343 0.18407 0.0
C1276 C 1.00263 0.80686 0.19378 0.0
C1277 C 0.03905 0.79686 0.18698 0.0
C1278 C 0.0621 0.8258 0.17904 0.0
C1279 C 0.04868 0.86354 0.1775 0.0
H1280 H 0.21613 0.27234 0.14889 0.0
H1281 H 0.32103 0.33277 0.13681 0.0
H1282 H 0.18081 0.33258 0.14779 0.0
H1283 H 0.28567 0.39356 0.13577 0.0
H1284 H 0.19821 0.49605 0.13028 0.0
H1285 H 0.22951 0.43546 0.1217 0.0
H1286 H 0.18801 0.38371 0.17272 0.0
H1287 H 0.15735 0.44358 0.18131 0.0
C1288 C 0.23128 0.29835 0.14503 0.0
C1289 C 0.27116 0.29784 0.1426 0.0
C1290 C 0.21118 0.33294 0.14468 0.0
C1291 C 0.23055 0.3679 0.14201 0.0
C1292 C 0.26992 0.36707 0.13777 0.0
C1293 C 0.29013 0.33225 0.13815 0.0
C1294 C 0.19556 0.47158 0.13955 0.0
C1295 C 0.17523 0.47467 0.15648 0.0
C1296 C 0.21359 0.437 0.13467 0.0
C1297 C 0.21086 0.40468 0.14642 0.0
C1298 C 0.19011 0.40783 0.16318 0.0
C1299 C 0.17275 0.44232 0.16818 0.0
H1300 H 0.37937 0.34615 0.40223 0.0
H1301 H 0.33605 0.44943 0.42772 0.0
H1302 H 0.43924 0.37969 0.39454 0.0
H1303 H 0.39529 0.48272 0.41985 0.0
H1304 H 0.49278 0.54306 0.39156 0.0
H1305 H 0.43327 0.50541 0.39117 0.0
H1306 H 0.49362 0.40851 0.41443 0.0
H1307 H 0.55264 0.44635 0.41505 0.0
C1308 C 0.38255 0.37595 0.40615 0.0
C1309 C 0.35306 0.39497 0.41576 0.0
C1310 C 0.41675 0.39514 0.4017 0.0
C1311 C 0.42178 0.43396 0.4064 0.0
C1312 C 0.39206 0.45302 0.41576 0.0
C1313 C 0.35828 0.43373 0.42049 0.0
C1314 C 0.49351 0.51324 0.39583 0.0
C1315 C 0.52721 0.49733 0.4031 0.0
C1316 C 0.45945 0.49185 0.39585 0.0
C1317 C 0.45874 0.4541 0.40293 0.0
C1318 C 0.49327 0.43735 0.40877 0.0
C1319 C 0.52707 0.45893 0.40905 0.0
H1320 H 0.34676 0.78508 0.64196 0.0
H1321 H 0.26017 0.72329 0.67283 0.0
H1322 H 0.38683 0.72696 0.64149 0.0
H1323 H 0.2993 0.66574 0.67213 0.0
H1324 H 0.39827 0.59794 0.69539 0.0
H1325 H 0.35898 0.65383 0.6897 0.0
H1326 H 0.39414 0.65531 0.6319 0.0
H1327 H 0.43427 0.59857 0.63761 0.0
C1328 C 0.33576 0.75877 0.64803 0.0
C1329 C 0.30048 0.75868 0.65752 0.0
C1330 C 0.35872 0.72558 0.64785 0.0
C1331 C 0.34662 0.69196 0.65717 0.0
C1332 C 0.30993 0.69134 0.66524 0.0
C1333 C 0.28732 0.72425 0.6655 0.0
C1334 C 0.39795 0.60998 0.68142 0.0
C1335 C 0.41943 0.59337 0.66695 0.0
C1336 C 0.37509 0.64205 0.67814 0.0
C1337 C 0.37286 0.65875 0.66027 0.0
C1338 C 0.39517 0.64306 0.64581 0.0
C1339 C 0.41807 0.61052 0.64909 0.0
H1340 H 0.09337 0.50488 0.89048 0.0
H1341 H 1.03165 0.59865 0.91525 0.0
H1342 H 0.15168 0.5446 0.88942 0.0
H1343 H 0.08913 0.63845 0.91397 0.0
H1344 H 0.20646 0.66742 0.93903 0.0
H1345 H 0.14697 0.63355 0.93305 0.0
H1346 H 0.18671 0.6043 0.8778 0.0
H1347 H 0.24706 0.63854 0.88388 0.0
C1348 C 0.09193 0.53448 0.89495 0.0
C1349 C 0.058 0.54892 0.90275 0.0
C1350 C 0.12532 0.5572 0.89446 0.0
C1351 C 0.1253 0.59458 0.9019 0.0
C1352 C 0.09044 0.60963 0.90843 0.0
C1353 C 0.05735 0.58702 0.90896 0.0
C1354 C 0.2026 0.65405 0.92553 0.0
C1355 C 0.23163 0.65582 0.91194 0.0
C1356 C 0.16823 0.63479 0.92203 0.0
C1357 C 0.16177 0.61636 0.90487 0.0
C1358 C 0.19073 0.61814 0.89117 0.0
C1359 C 0.22518 0.63796 0.89461 0.0
H1360 H 0.86571 0.78754 0.93515 0.0
H1361 H 0.76845 0.72801 0.95844 0.0
H1362 H 0.90182 0.72778 0.9345 0.0
H1363 H 0.80469 0.66763 0.95782 0.0
H1364 H 0.89643 0.56905 0.96163 0.0
H1365 H 0.86411 0.62962 0.96872 0.0
H1366 H 0.89138 0.67144 0.91347 0.0
H1367 H 0.92341 0.61123 0.90634 0.0
C1368 C 0.85267 0.76186 0.94092 0.0
C1369 C 0.81455 0.76257 0.9472 0.0
C1370 C 0.87312 0.72748 0.94025 0.0
C1371 C 0.85594 0.69276 0.94577 0.0
C1372 C 0.8188 0.69389 0.95351 0.0
C1373 C 0.79818 0.72851 0.9541 0.0
C1374 C 0.89563 0.59123 0.95101 0.0
C1375 C 0.91272 0.58522 0.93341 0.0
C1376 C 0.87695 0.62587 0.95507 0.0
C1377 C 0.87547 0.65557 0.94175 0.0
C1378 C 0.89254 0.64946 0.92418 0.0
C1379 C 0.91072 0.61477 0.92004 0.0
H1380 H 0.73788 0.66071 0.71641 0.0
H1381 H 0.72462 0.62479 0.6591 0.0
H1382 H 0.68004 0.62444 0.72497 0.0
H1383 H 0.66781 0.58779 0.66783 0.0
H1384 H 0.59374 0.49417 0.69323 0.0
H1385 H 0.65563 0.52708 0.69131 0.0
H1386 H 0.60413 0.62977 0.71322 0.0
H1387 H 0.54184 0.59708 0.71449 0.0
C1388 C 0.72272 0.64507 0.70566 0.0
C1389 C 0.7358 0.64581 0.68705 0.0
C1390 C 0.68969 0.62432 0.71059 0.0
C1391 C 0.66974 0.60303 0.69711 0.0
C1392 C 0.68289 0.60363 0.67854 0.0
C1393 C 0.71527 0.62508 0.67353 0.0
C1394 C 0.59611 0.52311 0.69857 0.0
C1395 C 0.56326 0.54275 0.70453 0.0
C1396 C 0.63135 0.54214 0.69716 0.0
C1397 C 0.63457 0.58102 0.702 0.0
C1398 C 0.60249 0.59971 0.70953 0.0
C1399 C 0.56698 0.58088 0.71052 0.0
H1400 H 0.70504 0.26019 0.43649 0.0
H1401 H 0.80258 0.3174 0.46063 0.0
H1402 H 0.66915 0.31999 0.43692 0.0
H1403 H 0.76667 0.37795 0.46088 0.0
H1404 H 0.67791 0.47888 0.46342 0.0
H1405 H 0.70765 0.41714 0.47128 0.0
H1406 H 0.68169 0.37576 0.41597 0.0
H1407 H 0.65231 0.43683 0.40814 0.0
C1408 C 0.71827 0.28536 0.44256 0.0
C1409 C 0.75651 0.28419 0.44858 0.0
C1410 C 0.69789 0.31973 0.4426 0.0
C1411 C 0.71536 0.35391 0.4485 0.0
C1412 C 0.75242 0.35208 0.45623 0.0
C1413 C 0.7729 0.31739 0.45625 0.0
C1414 C 0.67836 0.45644 0.453 0.0
C1415 C 0.66268 0.4628 0.43514 0.0
C1416 C 0.69554 0.42119 0.4575 0.0
C1417 C 0.6967 0.3914 0.44433 0.0
C1418 C 0.68071 0.39782 0.42656 0.0
C1419 C 0.66411 0.43303 0.42201 0.0
H1420 H 0.86488 0.38287 0.20504 0.0
H1421 H 0.86702 0.42141 0.14761 0.0
H1422 H 0.92562 0.41606 0.21079 0.0
H1423 H 0.92796 0.45394 0.15335 0.0
H1424 H 0.05444 0.4663 0.16334 0.0
H1425 H 0.99609 0.42828 0.16222 0.0
H1426 H 0.9516 0.48994 0.20961 0.0
H1427 H 1.01062 0.52907 0.21056 0.0
C1428 C 0.87852 0.39801 0.19357 0.0
C1429 C 0.86135 0.39909 0.17575 0.0
C1430 C 0.91307 0.41731 0.19697 0.0
C1431 C 0.93154 0.43741 0.18252 0.0
C1432 C 0.91446 0.43837 0.16472 0.0
C1433 C 0.8796 0.41974 0.16141 0.0
C1434 C 1.0326 0.47129 0.17382 0.0
C1435 C 0.03693 0.50087 0.18696 0.0
C1436 C 0.9991 0.44964 0.17308 0.0
C1437 C 0.96904 0.45669 0.18555 0.0
C1438 C 0.97439 0.48407 0.19977 0.0
C1439 C 1.00818 0.50621 0.20043 0.0
H1440 H 0.73598 0.77401 0.64183 0.0
H1441 H 0.82499 0.83293 0.67209 0.0
H1442 H 0.69817 0.83365 0.64099 0.0
H1443 H 0.78812 0.89193 0.67101 0.0
H1444 H 0.6909 0.9623 0.69443 0.0
H1445 H 0.72877 0.90555 0.68875 0.0
H1446 H 0.69391 0.90591 0.63093 0.0
H1447 H 0.65519 0.96358 0.63665 0.0
C1448 C 0.74797 0.79996 0.64771 0.0
C1449 C 0.78322 0.79885 0.65717 0.0
C1450 C 0.72634 0.83402 0.6473 0.0
C1451 C 0.73979 0.8673 0.65632 0.0
C1452 C 0.77649 0.86663 0.66433 0.0
C1453 C 0.79776 0.83288 0.66484 0.0
C1454 C 0.69105 0.95054 0.68045 0.0
C1455 C 0.66997 0.96785 0.66599 0.0
C1456 C 0.71308 0.91796 0.67717 0.0
C1457 C 0.71484 0.90143 0.65932 0.0
C1458 C 0.69318 0.91802 0.64484 0.0
C1459 C 0.67114 0.9511 0.64811 0.0
H1460 H 0.83282 0.92116 0.88333 0.0
H1461 H 0.8779 0.88974 0.93738 0.0
H1462 H 0.89324 0.95436 0.87594 0.0
H1463 H 0.93772 0.92232 0.92998 0.0
H1464 H 0.05222 0.95177 0.90826 0.0
H1465 H 0.9931 0.91437 0.90778 0.0
H1466 H 0.93123 1.01384 0.88849 0.0
H1467 H 0.99096 0.05135 0.88896 0.0
C1468 C 0.85567 0.92099 0.89354 0.0
C1469 C 0.8505 0.90264 0.91094 0.0
C1470 C 0.89017 0.94017 0.88934 0.0
C1471 C 0.92048 0.94068 0.90229 0.0
C1472 C 0.91526 0.92199 0.91956 0.0
C1473 C 0.88078 0.90348 0.92386 0.0
C1474 C 1.02633 0.96516 0.90307 0.0
C1475 C 1.02634 1.00424 0.89828 0.0
C1476 C 0.99232 0.94391 0.90307 0.0
C1477 C 0.95729 0.96124 0.89839 0.0
C1478 C 0.95775 0.99958 0.89208 0.0
C1479 C 0.99199 1.02098 0.89214 0.0
H1480 H 0.91266 0.08078 0.13369 0.0
H1481 H 0.90929 0.0995 0.19332 0.0
H1482 H 0.87429 0.13907 0.12891 0.0
H1483 H 0.8709 0.15673 0.18847 0.0
H1484 H 0.76077 0.21902 0.17528 0.0
H1485 H 0.80077 0.16226 0.1751 0.0
H1486 H 0.87848 0.21719 0.13651 0.0
H1487 H 0.83837 0.27525 0.13686 0.0
C1488 C 0.90408 0.09737 0.14574 0.0
C1489 C 0.914 0.08524 0.16391 0.0
C1490 C 0.88223 0.13078 0.14297 0.0
C1491 C 0.86937 0.15224 0.15832 0.0
C1492 C 0.8801 0.14057 0.17637 0.0
C1493 C 0.90226 0.10774 0.17913 0.0
C1494 C 0.78608 0.21917 0.16653 0.0
C1495 C 0.79652 0.2521 0.15627 0.0
C1496 C 0.80907 0.18651 0.16649 0.0
C1497 C 0.84304 0.18549 0.15604 0.0
C1498 C 0.85243 0.21727 0.14473 0.0
C1499 C 0.82943 0.25043 0.1449 0.0
H1500 H 0.58412 1.00215 0.3873 0.0
H1501 H 0.5279 0.09058 0.41895 0.0
H1502 H 0.64339 0.0406 0.38697 0.0
H1503 H 0.58632 0.12895 0.41851 0.0
H1504 H 0.70634 0.1469 0.44253 0.0
H1505 H 0.6464 0.11415 0.4361 0.0
H1506 H 0.67719 0.10507 0.37789 0.0
H1507 H 0.73789 0.13831 0.38433 0.0
C1508 C 0.58404 1.03044 0.39348 0.0
C1509 C 0.55156 0.04362 0.40307 0.0
C1510 C 0.61793 0.05235 0.3934 0.0
C1511 C 0.61968 0.08749 0.40302 0.0
C1512 C 0.5861 0.10173 0.41127 0.0
C1513 C 0.55255 0.07997 0.41136 0.0
C1514 C 0.70052 0.13804 0.42832 0.0
C1515 C 0.72697 0.1454 0.41394 0.0
C1516 C 0.66594 0.11947 0.42461 0.0
C1517 C 0.65683 0.10736 0.40644 0.0
C1518 C 0.68341 0.11412 0.39202 0.0
C1519 C 0.71803 0.13328 0.39571 0.0
H1520 H 0.35362 0.28151 0.44392 0.0
H1521 H 0.25242 0.21045 0.4435 0.0
H1522 H 0.39385 0.22374 0.44385 0.0
H1523 H 0.29243 0.15291 0.44407 0.0
H1524 H 0.38137 0.05839 0.45826 0.0
H1525 H 0.34655 0.11782 0.46473 0.0
H1526 H 0.39839 0.17084 0.41637 0.0
H1527 H 0.43246 0.11119 0.40956 0.0
C1528 C 0.34003 0.25358 0.44455 0.0
C1529 C 0.29995 0.25036 0.4439 0.0
C1530 C 0.363 0.22059 0.44431 0.0
C1531 C 0.34622 0.18388 0.44391 0.0
C1532 C 0.30612 0.18079 0.44451 0.0
C1533 C 0.28325 0.21368 0.44424 0.0
C1534 C 0.38558 0.08281 0.44909 0.0
C1535 C 0.40946 0.08 0.4333 0.0
C1536 C 0.36563 0.11679 0.4528 0.0
C1537 C 0.36992 0.14897 0.4411 0.0
C1538 C 0.39485 0.1466 0.42572 0.0
C1539 C 0.4141 0.11237 0.42175 0.0
H1540 H 0.09935 0.99574 0.17291 0.0
H1541 H 0.04096 0.07849 0.20726 0.0
H1542 H 0.15711 1.03476 0.17355 0.0
H1543 H 0.09947 0.11825 0.20782 0.0
H1544 H 0.23027 0.16197 0.21077 0.0
H1545 H 0.17356 0.12159 0.21642 0.0
H1546 H 0.16614 0.09854 0.15736 0.0
H1547 H 0.22199 0.13841 0.15169 0.0
C1548 C 0.09921 1.02195 0.181 0.0
C1549 C 0.06559 1.0342 0.18993 0.0
C1550 C 0.13224 0.04444 0.18125 0.0
C1551 C 0.13261 0.08001 0.19036 0.0
C1552 C 0.09999 0.09099 0.20064 0.0
C1553 C 0.0666 0.0682 0.20041 0.0
C1554 C 0.21637 0.14839 0.199 0.0
C1555 C 0.23094 0.15335 0.18078 0.0
C1556 C 0.18385 0.1254 0.20225 0.0
C1557 C 0.16568 0.10648 0.18737 0.0
C1558 C 0.17986 0.11216 0.16918 0.0
C1559 C 0.21187 0.13528 0.16592 0.0
H1560 H 0.18332 0.98437 0.96404 0.0
H1561 H 0.1535 0.93927 0.90989 0.0
H1562 H 0.21737 0.92452 0.97138 0.0
H1563 H 0.18687 0.8799 0.91726 0.0
H1564 H 0.21814 0.76558 0.93924 0.0
H1565 H 0.17967 0.82392 0.93963 0.0
H1566 H 0.27781 0.88825 0.95856 0.0
H1567 H 0.31642 0.82937 0.95809 0.0
C1568 C 0.18366 0.9616 0.9538 0.0
C1569 C 0.16553 0.96662 0.93639 0.0
C1570 C 0.20333 0.92744 0.95797 0.0
C1571 C 0.20455 0.89726 0.94499 0.0
C1572 C 0.18602 0.90227 0.92771 0.0
C1573 C 0.16705 0.93648 0.92343 0.0
C1574 C 0.23101 0.79183 0.94434 0.0
C1575 C 0.27003 0.79275 0.94905 0.0
C1576 C 0.20915 0.8254 0.94428 0.0
C1577 C 0.22578 0.86088 0.94886 0.0
C1578 C 0.26407 0.86135 0.95507 0.0
C1579 C 0.28611 0.82759 0.95502 0.0
H1580 H 0.33006 0.92667 0.71483 0.0
H1581 H 0.3775 0.89033 0.66206 0.0
H1582 H 0.3912 0.95731 0.72276 0.0
H1583 H 0.43819 0.9206 0.67002 0.0
H1584 H 0.55195 0.94617 0.69301 0.0
H1585 H 0.49131 0.91149 0.69288 0.0
H1586 H 0.43285 1.01376 0.71092 0.0
H1587 H 0.49418 0.04855 0.71116 0.0
C1588 C 0.35354 0.92498 0.70498 0.0
C1589 C 0.34884 0.90593 0.68779 0.0
C1590 C 0.3885 0.9427 0.70951 0.0
C1591 C 0.41973 0.94113 0.69712 0.0
C1592 C 0.41497 0.92184 0.68004 0.0
C1593 C 0.38002 0.90467 0.6754 0.0
C1594 C 0.52639 0.96082 0.69773 0.0
C1595 C 0.52784 0.99995 0.70225 0.0
C1596 C 0.49154 0.94111 0.69739 0.0
C1597 C 0.4571 0.96007 0.70146 0.0
C1598 C 0.45888 0.99832 0.70771 0.0
C1599 C 0.49404 1.01818 0.70805 0.0
loop_
_geom_bond_atom_site_label_1
_geom_bond_atom_site_label_2
_geom_bond_distance
_geom_bond_site_symmetry_2
_ccdc_geom_bond_type
Tb0 C9 2.764 . S
Tb0 O10 2.325 . S
Tb0 O13 2.303 . S
Tb0 O17 2.322 . S
Tb0 O18 2.349 . S
Tb0 O21 2.415 . S
Tb0 O22 2.399 . S
Tb1 O11 2.322 . S
Tb1 O12 2.349 . S
Tb1 O14 2.415 . S
Tb1 O15 2.399 . S
Tb1 O16 2.325 . S
Tb1 O19 2.303 . S
Tb1 C30 2.764 . S
C2 O18 1.261 . S
C2 O19 1.257 . S
C3 C6 1.358 . S
C3 C7 1.332 . S
C3 C9 1.504 . S
C4 C5 1.373 . S
C4 C8 1.308 . S
C5 C4 1.373 . S
C5 C6 1.429 . S
C5 H32 0.932 . S
C6 C3 1.358 . S
C6 C5 1.429 . S
C6 H33 0.930 . S
C7 C3 1.332 . S
C7 C8 1.394 . S
C7 H34 0.932 . S
C8 C4 1.308 . S
C8 C7 1.394 . S
C8 H35 0.929 . S
C9 Tb0 2.764 . S
C9 C3 1.504 . S
C9 O21 1.239 . S
C9 O22 1.263 . S
O10 Tb0 2.325 . S
O10 C20 1.236 . S
O11 Tb1 2.322 . S
O11 C20 1.257 . S
O12 Tb1 2.349 . S
O12 C23 1.261 . S
O13 Tb0 2.303 . S
O13 C23 1.257 . S
O14 Tb1 2.415 . S
O14 C30 1.239 . S
O15 Tb1 2.399 . S
O15 C30 1.263 . S
O16 Tb1 2.325 . S
O16 C31 1.236 . S
O17 Tb0 2.322 . S
O17 C31 1.257 . S
O18 Tb0 2.349 . S
O18 C2 1.261 . S
O19 Tb1 2.303 . S
O19 C2 1.257 . S
C20 O10 1.236 . S
C20 O11 1.257 . S
O21 Tb0 2.415 . S
O21 C9 1.239 . S
O22 Tb0 2.399 . S
O22 C9 1.263 . S
C23 O12 1.261 . S
C23 O13 1.257 . S
C24 C27 1.358 . S
C24 C28 1.332 . S
C24 C30 1.504 . S
C25 C26 1.373 . S
C25 C29 1.308 . S
C26 C25 1.373 . S
C26 C27 1.429 . S
C26 H36 0.932 . S
C27 C24 1.358 . S
C27 C26 1.429 . S
C27 H37 0.930 . S
C28 C24 1.332 . S
C28 C29 1.394 . S
C28 H38 0.932 . S
C29 C25 1.308 . S
C29 C28 1.394 . S
C29 H39 0.929 . S
C30 Tb1 2.764 . S
C30 O14 1.239 . S
C30 O15 1.263 . S
C30 C24 1.504 . S
C31 O16 1.236 . S
C31 O17 1.257 . S
H32 C5 0.932 . S
H33 C6 0.930 . S
H34 C7 0.932 . S
H35 C8 0.929 . S
H36 C26 0.932 . S
H37 C27 0.930 . S
H38 C28 0.932 . S
H39 C29 0.929 . S
Tb40 C49 2.764 . S
Tb40 O50 2.325 . S
Tb40 O53 2.303 . S
Tb40 O57 2.322 . S
Tb40 O58 2.349 . S
Tb40 O61 2.415 . S
Tb40 O62 2.399 . S
Tb41 O51 2.322 . S
Tb41 O52 2.349 . S
Tb41 O54 2.415 . S
Tb41 O55 2.399 . S
Tb41 O56 2.325 . S
Tb41 O59 2.303 . S
Tb41 C70 2.764 . S
C42 O58 1.261 . S
C42 O59 1.257 . S
C43 C46 1.358 . S
C43 C47 1.332 . S
C43 C49 1.504 . S
C44 C45 1.373 . S
C44 C48 1.308 . S
C45 C44 1.373 . S
C45 C46 1.429 . S
C45 H72 0.932 . S
C46 C43 1.358 . S
C46 C45 1.429 . S
C46 H73 0.930 . S
C47 C43 1.332 . S
C47 C48 1.394 . S
C47 H74 0.932 . S
C48 C44 1.308 . S
C48 C47 1.394 . S
C48 H75 0.929 . S
C49 Tb40 2.764 . S
C49 C43 1.504 . S
C49 O61 1.239 . S
C49 O62 1.263 . S
O50 Tb40 2.325 . S
O50 C60 1.236 . S
O51 Tb41 2.322 . S
O51 C60 1.257 . S
O52 Tb41 2.349 . S
O52 C63 1.261 . S
O53 Tb40 2.303 . S
O53 C63 1.257 . S
O54 Tb41 2.415 . S
O54 C70 1.239 . S
O55 Tb41 2.399 . S
O55 C70 1.263 . S
O56 Tb41 2.325 . S
O56 C71 1.236 . S
O57 Tb40 2.322 . S
O57 C71 1.257 . S
O58 Tb40 2.349 . S
O58 C42 1.261 . S
O59 Tb41 2.303 . S
O59 C42 1.257 . S
C60 O50 1.236 . S
C60 O51 1.257 . S
O61 Tb40 2.415 . S
O61 C49 1.239 . S
O62 Tb40 2.399 . S
O62 C49 1.263 . S
C63 O52 1.261 . S
C63 O53 1.257 . S
C64 C67 1.358 . S
C64 C68 1.332 . S
C64 C70 1.504 . S
C65 C66 1.373 . S
C65 C69 1.308 . S
C66 C65 1.373 . S
C66 C67 1.429 . S
C66 H76 0.932 . S
C67 C64 1.358 . S
C67 C66 1.429 . S
C67 H77 0.930 . S
C68 C64 1.332 . S
C68 C69 1.394 . S
C68 H78 0.932 . S
C69 C65 1.308 . S
C69 C68 1.394 . S
C69 H79 0.929 . S
C70 Tb41 2.764 . S
C70 O54 1.239 . S
C70 O55 1.263 . S
C70 C64 1.504 . S
C71 O56 1.236 . S
C71 O57 1.257 . S
H72 C45 0.932 . S
H73 C46 0.930 . S
H74 C47 0.932 . S
H75 C48 0.929 . S
H76 C66 0.932 . S
H77 C67 0.930 . S
H78 C68 0.932 . S
H79 C69 0.929 . S
Tb80 C89 2.764 . S
Tb80 O90 2.325 . S
Tb80 O93 2.303 . S
Tb80 O97 2.322 . S
Tb80 O98 2.349 . S
Tb80 O101 2.415 . S
Tb80 O102 2.399 . S
Tb81 O91 2.322 . S
Tb81 O92 2.349 . S
Tb81 O94 2.415 . S
Tb81 O95 2.399 . S
Tb81 O96 2.325 . S
Tb81 O99 2.303 . S
Tb81 C110 2.764 . S
C82 O98 1.261 . S
C82 O99 1.257 . S
C83 C86 1.358 . S
C83 C87 1.332 . S
C83 C89 1.504 . S
C84 C85 1.373 . S
C84 C88 1.308 . S
C85 C84 1.373 . S
C85 C86 1.429 . S
C85 H112 0.932 . S
C86 C83 1.358 . S
C86 C85 1.429 . S
C86 H113 0.930 . S
C87 C83 1.332 . S
C87 C88 1.394 . S
C87 H114 0.932 . S
C88 C84 1.308 . S
C88 C87 1.394 . S
C88 H115 0.929 . S
C89 Tb80 2.764 . S
C89 C83 1.504 . S
C89 O101 1.239 . S
C89 O102 1.263 . S
O90 Tb80 2.325 . S
O90 C100 1.236 . S
O91 Tb81 2.322 . S
O91 C100 1.257 . S
O92 Tb81 2.349 . S
O92 C103 1.261 . S
O93 Tb80 2.303 . S
O93 C103 1.257 . S
O94 Tb81 2.415 . S
O94 C110 1.239 . S
O95 Tb81 2.399 . S
O95 C110 1.263 . S
O96 Tb81 2.325 . S
O96 C111 1.236 . S
O97 Tb80 2.322 . S
O97 C111 1.257 . S
O98 Tb80 2.349 . S
O98 C82 1.261 . S
O99 Tb81 2.303 . S
O99 C82 1.257 . S
C100 O90 1.236 . S
C100 O91 1.257 . S
O101 Tb80 2.415 . S
O101 C89 1.239 . S
O102 Tb80 2.399 . S
O102 C89 1.263 . S
C103 O92 1.261 . S
C103 O93 1.257 . S
C104 C107 1.358 . S
C104 C108 1.332 . S
C104 C110 1.504 . S
C105 C106 1.373 . S
C105 C109 1.308 . S
C106 C105 1.373 . S
C106 C107 1.429 . S
C106 H116 0.932 . S
C107 C104 1.358 . S
C107 C106 1.429 . S
C107 H117 0.930 . S
C108 C104 1.332 . S
C108 C109 1.394 . S
C108 H118 0.932 . S
C109 C105 1.308 . S
C109 C108 1.394 . S
C109 H119 0.929 . S
C110 Tb81 2.764 . S
C110 O94 1.239 . S
C110 O95 1.263 . S
C110 C104 1.504 . S
C111 O96 1.236 . S
C111 O97 1.257 . S
H112 C85 0.932 . S
H113 C86 0.930 . S
H114 C87 0.932 . S
H115 C88 0.929 . S
H116 C106 0.932 . S
H117 C107 0.930 . S
H118 C108 0.932 . S
H119 C109 0.929 . S
Tb120 C129 2.764 . S
Tb120 O130 2.325 . S
Tb120 O133 2.303 . S
Tb120 O137 2.322 . S
Tb120 O138 2.349 . S
Tb120 O141 2.415 . S
Tb120 O142 2.399 . S
Tb121 O131 2.322 . S
Tb121 O132 2.349 . S
Tb121 O134 2.415 . S
Tb121 O135 2.399 . S
Tb121 O136 2.325 . S
Tb121 O139 2.303 . S
Tb121 C150 2.764 . S
C122 O138 1.261 . S
C122 O139 1.257 . S
C123 C126 1.358 . S
C123 C127 1.332 . S
C123 C129 1.504 . S
C124 C125 1.373 . S
C124 C128 1.308 . S
C125 C124 1.373 . S
C125 C126 1.429 . S
C125 H152 0.932 . S
C126 C123 1.358 . S
C126 C125 1.429 . S
C126 H153 0.930 . S
C127 C123 1.332 . S
C127 C128 1.394 . S
C127 H154 0.932 . S
C128 C124 1.308 . S
C128 C127 1.394 . S
C128 H155 0.929 . S
C129 Tb120 2.764 . S
C129 C123 1.504 . S
C129 O141 1.239 . S
C129 O142 1.263 . S
O130 Tb120 2.325 . S
O130 C140 1.236 . S
O131 Tb121 2.322 . S
O131 C140 1.257 . S
O132 Tb121 2.349 . S
O132 C143 1.261 . S
O133 Tb120 2.303 . S
O133 C143 1.257 . S
O134 Tb121 2.415 . S
O134 C150 1.239 . S
O135 Tb121 2.399 . S
O135 C150 1.263 . S
O136 Tb121 2.325 . S
O136 C151 1.236 . S
O137 Tb120 2.322 . S
O137 C151 1.257 . S
O138 Tb120 2.349 . S
O138 C122 1.261 . S
O139 Tb121 2.303 . S
O139 C122 1.257 . S
C140 O130 1.236 . S
C140 O131 1.257 . S
O141 Tb120 2.415 . S
O141 C129 1.239 . S
O142 Tb120 2.399 . S
O142 C129 1.263 . S
C143 O132 1.261 . S
C143 O133 1.257 . S
C144 C147 1.358 1_655 S
C144 C148 1.332 . S
C144 C150 1.504 . S
C145 C146 1.379 . S
C145 C149 1.297 1_455 S
C146 C145 1.379 . S
C146 C147 1.429 . S
C146 H156 0.932 . S
C147 C144 1.358 1_455 S
C147 C146 1.429 . S
C147 H157 0.930 . S
C148 C144 1.332 . S
C148 C149 1.394 . S
C148 H158 0.932 . S
C149 C145 1.297 1_655 S
C149 C148 1.394 . S
C149 H159 0.929 . S
C150 Tb121 2.764 . S
C150 O134 1.239 . S
C150 O135 1.263 . S
C150 C144 1.504 . S
C151 O136 1.236 . S
C151 O137 1.257 . S
H152 C125 0.932 . S
H153 C126 0.930 . S
H154 C127 0.932 . S
H155 C128 0.929 . S
H156 C146 0.932 . S
H157 C147 0.930 . S
H158 C148 0.932 . S
H159 C149 0.929 . S
Tb160 C169 2.764 . S
Tb160 O170 2.325 . S
Tb160 O173 2.303 . S
Tb160 O177 2.322 . S
Tb160 O178 2.349 . S
Tb160 O181 2.415 . S
Tb160 O182 2.399 . S
Tb161 O171 2.322 . S
Tb161 O172 2.349 . S
Tb161 O174 2.415 . S
Tb161 O175 2.399 . S
Tb161 O176 2.325 . S
Tb161 O179 2.303 . S
Tb161 C190 2.764 . S
C162 O178 1.261 . S
C162 O179 1.257 . S
C163 C166 1.358 . S
C163 C167 1.332 . S
C163 C169 1.504 . S
C164 C165 1.373 . S
C164 C168 1.308 . S
C165 C164 1.373 . S
C165 C166 1.429 . S
C165 H192 0.932 . S
C166 C163 1.358 . S
C166 C165 1.429 . S
C166 H193 0.930 . S
C167 C163 1.332 . S
C167 C168 1.394 . S
C167 H194 0.932 . S
C168 C164 1.308 . S
C168 C167 1.394 . S
C168 H195 0.929 . S
C169 Tb160 2.764 . S
C169 C163 1.504 . S
C169 O181 1.239 . S
C169 O182 1.263 . S
O170 Tb160 2.325 . S
O170 C180 1.236 . S
O171 Tb161 2.322 . S
O171 C180 1.257 . S
O172 Tb161 2.349 . S
O172 C183 1.261 . S
O173 Tb160 2.303 . S
O173 C183 1.257 . S
O174 Tb161 2.415 . S
O174 C190 1.239 . S
O175 Tb161 2.399 . S
O175 C190 1.263 . S
O176 Tb161 2.325 . S
O176 C191 1.236 . S
O177 Tb160 2.322 . S
O177 C191 1.257 . S
O178 Tb160 2.349 . S
O178 C162 1.261 . S
O179 Tb161 2.303 . S
O179 C162 1.257 . S
C180 O170 1.236 . S
C180 O171 1.257 . S
O181 Tb160 2.415 . S
O181 C169 1.239 . S
O182 Tb160 2.399 . S
O182 C169 1.263 . S
C183 O172 1.261 . S
C183 O173 1.257 . S
C184 C187 1.358 . S
C184 C188 1.332 . S
C184 C190 1.504 . S
C185 C186 1.373 . S
C185 C189 1.308 . S
C186 C185 1.373 . S
C186 C187 1.429 . S
C186 H196 0.932 . S
C187 C184 1.358 . S
C187 C186 1.429 . S
C187 H197 0.930 . S
C188 C184 1.332 . S
C188 C189 1.394 . S
C188 H198 0.932 . S
C189 C185 1.308 . S
C189 C188 1.394 . S
C189 H199 0.929 . S
C190 Tb161 2.764 . S
C190 O174 1.239 . S
C190 O175 1.263 . S
C190 C184 1.504 . S
C191 O176 1.236 . S
C191 O177 1.257 . S
H192 C165 0.932 . S
H193 C166 0.930 . S
H194 C167 0.932 . S
H195 C168 0.929 . S
H196 C186 0.932 . S
H197 C187 0.930 . S
H198 C188 0.932 . S
H199 C189 0.929 . S
Tb200 C209 2.764 . S
Tb200 O210 2.325 . S
Tb200 O213 2.303 . S
Tb200 O217 2.322 . S
Tb200 O218 2.349 . S
Tb200 O221 2.415 . S
Tb200 O222 2.399 . S
Tb201 O211 2.322 . S
Tb201 O212 2.349 . S
Tb201 O214 2.415 . S
Tb201 O215 2.399 . S
Tb201 O216 2.325 . S
Tb201 O219 2.303 . S
Tb201 C230 2.764 . S
C202 O218 1.261 . S
C202 O219 1.257 . S
C203 C206 1.358 . S
C203 C207 1.332 . S
C203 C209 1.504 . S
C204 C205 1.373 . S
C204 C208 1.308 . S
C205 C204 1.373 . S
C205 C206 1.429 . S
C205 H232 0.932 . S
C206 C203 1.358 . S
C206 C205 1.429 . S
C206 H233 0.930 . S
C207 C203 1.332 . S
C207 C208 1.394 . S
C207 H234 0.932 . S
C208 C204 1.308 . S
C208 C207 1.394 . S
C208 H235 0.929 . S
C209 Tb200 2.764 . S
C209 C203 1.504 . S
C209 O221 1.239 . S
C209 O222 1.263 . S
O210 Tb200 2.325 . S
O210 C220 1.236 . S
O211 Tb201 2.322 . S
O211 C220 1.257 . S
O212 Tb201 2.349 . S
O212 C223 1.261 . S
O213 Tb200 2.303 . S
O213 C223 1.257 . S
O214 Tb201 2.415 . S
O214 C230 1.239 . S
O215 Tb201 2.399 . S
O215 C230 1.263 . S
O216 Tb201 2.325 . S
O216 C231 1.236 . S
O217 Tb200 2.322 . S
O217 C231 1.257 . S
O218 Tb200 2.349 . S
O218 C202 1.261 . S
O219 Tb201 2.303 . S
O219 C202 1.257 . S
C220 O210 1.236 . S
C220 O211 1.257 . S
O221 Tb200 2.415 . S
O221 C209 1.239 . S
O222 Tb200 2.399 . S
O222 C209 1.263 . S
C223 O212 1.261 . S
C223 O213 1.257 . S
C224 C227 1.358 . S
C224 C228 1.332 . S
C224 C230 1.504 . S
C225 C226 1.373 . S
C225 C229 1.308 . S
C226 C225 1.373 . S
C226 C227 1.429 . S
C226 H236 0.932 . S
C227 C224 1.358 . S
C227 C226 1.429 . S
C227 H237 0.930 . S
C228 C224 1.332 . S
C228 C229 1.394 . S
C228 H238 0.932 . S
C229 C225 1.308 . S
C229 C228 1.394 . S
C229 H239 0.929 . S
C230 Tb201 2.764 . S
C230 O214 1.239 . S
C230 O215 1.263 . S
C230 C224 1.504 . S
C231 O216 1.236 . S
C231 O217 1.257 . S
H232 C205 0.932 . S
H233 C206 0.930 . S
H234 C207 0.932 . S
H235 C208 0.929 . S
H236 C226 0.932 . S
H237 C227 0.930 . S
H238 C228 0.932 . S
H239 C229 0.929 . S
Tb240 C249 2.764 . S
Tb240 O250 2.325 . S
Tb240 O253 2.303 . S
Tb240 O257 2.322 . S
Tb240 O258 2.349 . S
Tb240 O261 2.415 . S
Tb240 O262 2.399 . S
Tb241 O251 2.322 . S
Tb241 O252 2.349 . S
Tb241 O254 2.415 . S
Tb241 O255 2.399 . S
Tb241 O256 2.325 . S
Tb241 O259 2.303 . S
Tb241 C270 2.764 . S
C242 O258 1.261 . S
C242 O259 1.257 . S
C243 C246 1.358 . S
C243 C247 1.332 . S
C243 C249 1.504 . S
C244 C245 1.373 . S
C244 C248 1.308 . S
C245 C244 1.373 . S
C245 C246 1.429 . S
C245 H272 0.932 . S
C246 C243 1.358 . S
C246 C245 1.429 . S
C246 H273 0.930 . S
C247 C243 1.332 . S
C247 C248 1.394 . S
C247 H274 0.932 . S
C248 C244 1.308 . S
C248 C247 1.394 . S
C248 H275 0.929 . S
C249 Tb240 2.764 . S
C249 C243 1.504 . S
C249 O261 1.239 . S
C249 O262 1.263 . S
O250 Tb240 2.325 . S
O250 C260 1.236 . S
O251 Tb241 2.322 . S
O251 C260 1.257 . S
O252 Tb241 2.349 . S
O252 C263 1.261 . S
O253 Tb240 2.303 . S
O253 C263 1.257 . S
O254 Tb241 2.415 . S
O254 C270 1.239 . S
O255 Tb241 2.399 . S
O255 C270 1.263 . S
O256 Tb241 2.325 . S
O256 C271 1.236 . S
O257 Tb240 2.322 . S
O257 C271 1.257 . S
O258 Tb240 2.349 . S
O258 C242 1.261 . S
O259 Tb241 2.303 . S
O259 C242 1.257 . S
C260 O250 1.236 . S
C260 O251 1.257 . S
O261 Tb240 2.415 . S
O261 C249 1.239 . S
O262 Tb240 2.399 . S
O262 C249 1.263 . S
C263 O252 1.261 . S
C263 O253 1.257 . S
C264 C267 1.358 . S
C264 C268 1.332 . S
C264 C270 1.504 . S
C265 C266 1.373 . S
C265 C269 1.308 . S
C266 C265 1.373 . S
C266 C267 1.429 . S
C266 H276 0.932 . S
C267 C264 1.358 . S
C267 C266 1.429 . S
C267 H277 0.930 . S
C268 C264 1.332 . S
C268 C269 1.394 . S
C268 H278 0.932 . S
C269 C265 1.308 . S
C269 C268 1.394 . S
C269 H279 0.929 . S
C270 Tb241 2.764 . S
C270 O254 1.239 . S
C270 O255 1.263 . S
C270 C264 1.504 . S
C271 O256 1.236 . S
C271 O257 1.257 . S
H272 C245 0.932 . S
H273 C246 0.930 . S
H274 C247 0.932 . S
H275 C248 0.929 . S
H276 C266 0.932 . S
H277 C267 0.930 . S
H278 C268 0.932 . S
H279 C269 0.929 . S
Tb280 C289 2.764 . S
Tb280 O290 2.325 . S
Tb280 O293 2.303 . S
Tb280 O297 2.322 . S
Tb280 O298 2.349 . S
Tb280 O301 2.415 . S
Tb280 O302 2.399 . S
Tb281 O291 2.322 . S
Tb281 O292 2.349 . S
Tb281 O294 2.415 . S
Tb281 O295 2.399 . S
Tb281 O296 2.325 . S
Tb281 O299 2.303 . S
Tb281 C310 2.764 . S
C282 O298 1.261 . S
C282 O299 1.257 . S
C283 C286 1.358 1_455 S
C283 C287 1.332 . S
C283 C289 1.504 . S
C284 C285 1.379 . S
C284 C288 1.297 1_655 S
C285 C284 1.379 . S
C285 C286 1.429 . S
C285 H312 0.932 . S
C286 C283 1.358 1_655 S
C286 C285 1.429 . S
C286 H313 0.930 . S
C287 C283 1.332 . S
C287 C288 1.394 . S
C287 H314 0.932 . S
C288 C284 1.297 1_455 S
C288 C287 1.394 . S
C288 H315 0.929 . S
C289 Tb280 2.764 . S
C289 C283 1.504 . S
C289 O301 1.239 . S
C289 O302 1.263 . S
O290 Tb280 2.325 . S
O290 C300 1.236 . S
O291 Tb281 2.322 . S
O291 C300 1.257 . S
O292 Tb281 2.349 . S
O292 C303 1.261 . S
O293 Tb280 2.303 . S
O293 C303 1.257 . S
O294 Tb281 2.415 . S
O294 C310 1.239 . S
O295 Tb281 2.399 . S
O295 C310 1.263 . S
O296 Tb281 2.325 . S
O296 C311 1.236 . S
O297 Tb280 2.322 . S
O297 C311 1.257 . S
O298 Tb280 2.349 . S
O298 C282 1.261 . S
O299 Tb281 2.303 . S
O299 C282 1.257 . S
C300 O290 1.236 . S
C300 O291 1.257 . S
O301 Tb280 2.415 . S
O301 C289 1.239 . S
O302 Tb280 2.399 . S
O302 C289 1.263 . S
C303 O292 1.261 . S
C303 O293 1.257 . S
C304 C307 1.358 . S
C304 C308 1.332 . S
C304 C310 1.504 . S
C305 C306 1.373 . S
C305 C309 1.308 . S
C306 C305 1.373 . S
C306 C307 1.429 . S
C306 H316 0.932 . S
C307 C304 1.358 . S
C307 C306 1.429 . S
C307 H317 0.930 . S
C308 C304 1.332 . S
C308 C309 1.394 . S
C308 H318 0.932 . S
C309 C305 1.308 . S
C309 C308 1.394 . S
C309 H319 0.929 . S
C310 Tb281 2.764 . S
C310 O294 1.239 . S
C310 O295 1.263 . S
C310 C304 1.504 . S
C311 O296 1.236 . S
C311 O297 1.257 . S
H312 C285 0.932 . S
H313 C286 0.930 . S
H314 C287 0.932 . S
H315 C288 0.929 . S
H316 C306 0.932 . S
H317 C307 0.930 . S
H318 C308 0.932 . S
H319 C309 0.929 . S
Tb320 C329 2.764 . S
Tb320 O330 2.325 . S
Tb320 O333 2.303 . S
Tb320 O337 2.322 . S
Tb320 O338 2.349 . S
Tb320 O341 2.415 . S
Tb320 O342 2.399 . S
Tb321 O331 2.322 . S
Tb321 O332 2.349 . S
Tb321 O334 2.415 . S
Tb321 O335 2.399 . S
Tb321 O336 2.325 . S
Tb321 O339 2.303 . S
Tb321 C350 2.764 . S
C322 O338 1.261 . S
C322 O339 1.257 . S
C323 C326 1.358 . S
C323 C327 1.332 . S
C323 C329 1.504 . S
C324 C325 1.373 . S
C324 C328 1.308 . S
C325 C324 1.373 . S
C325 C326 1.429 . S
C325 H352 0.932 . S
C326 C323 1.358 . S
C326 C325 1.429 . S
C326 H353 0.930 . S
C327 C323 1.332 . S
C327 C328 1.394 . S
C327 H354 0.932 . S
C328 C324 1.308 . S
C328 C327 1.394 . S
C328 H355 0.929 . S
C329 Tb320 2.764 . S
C329 C323 1.504 . S
C329 O341 1.239 . S
C329 O342 1.263 . S
O330 Tb320 2.325 . S
O330 C340 1.236 . S
O331 Tb321 2.322 . S
O331 C340 1.257 . S
O332 Tb321 2.349 . S
O332 C343 1.261 . S
O333 Tb320 2.303 . S
O333 C343 1.257 . S
O334 Tb321 2.415 . S
O334 C350 1.239 . S
O335 Tb321 2.399 . S
O335 C350 1.263 . S
O336 Tb321 2.325 . S
O336 C351 1.236 . S
O337 Tb320 2.322 . S
O337 C351 1.257 . S
O338 Tb320 2.349 . S
O338 C322 1.261 . S
O339 Tb321 2.303 . S
O339 C322 1.257 . S
C340 O330 1.236 . S
C340 O331 1.257 . S
O341 Tb320 2.415 . S
O341 C329 1.239 . S
O342 Tb320 2.399 . S
O342 C329 1.263 . S
C343 O332 1.261 . S
C343 O333 1.257 . S
C344 C347 1.358 . S
C344 C348 1.332 . S
C344 C350 1.504 . S
C345 C346 1.373 . S
C345 C349 1.308 . S
C346 C345 1.373 . S
C346 C347 1.429 . S
C346 H356 0.932 . S
C347 C344 1.358 . S
C347 C346 1.429 . S
C347 H357 0.930 . S
C348 C344 1.332 . S
C348 C349 1.394 . S
C348 H358 0.932 . S
C349 C345 1.308 . S
C349 C348 1.394 . S
C349 H359 0.929 . S
C350 Tb321 2.764 . S
C350 O334 1.239 . S
C350 O335 1.263 . S
C350 C344 1.504 . S
C351 O336 1.236 . S
C351 O337 1.257 . S
H352 C325 0.932 . S
H353 C326 0.930 . S
H354 C327 0.932 . S
H355 C328 0.929 . S
H356 C346 0.932 . S
H357 C347 0.930 . S
H358 C348 0.932 . S
H359 C349 0.929 . S
Tb360 C369 2.764 . S
Tb360 O370 2.325 1_545 S
Tb360 O373 2.303 . S
Tb360 O377 2.322 . S
Tb360 O378 2.349 . S
Tb360 O381 2.415 . S
Tb360 O382 2.399 . S
Tb361 O371 2.322 1_545 S
Tb361 O372 2.349 1_545 S
Tb361 O374 2.415 . S
Tb361 O375 2.399 . S
Tb361 O376 2.325 . S
Tb361 O379 2.303 . S
Tb361 C390 2.764 . S
C362 O378 1.261 . S
C362 O379 1.257 . S
C363 C366 1.358 . S
C363 C367 1.332 1_545 S
C363 C369 1.504 . S
C364 C365 1.373 1_565 S
C364 C368 1.308 . S
C365 C364 1.373 1_545 S
C365 C366 1.429 . S
C365 H392 0.932 . S
C366 C363 1.358 . S
C366 C365 1.429 . S
C366 H393 0.930 . S
C367 C363 1.332 1_565 S
C367 C368 1.394 . S
C367 H394 0.932 . S
C368 C364 1.308 . S
C368 C367 1.394 . S
C368 H395 0.929 . S
C369 Tb360 2.764 . S
C369 C363 1.504 . S
C369 O381 1.239 . S
C369 O382 1.263 . S
O370 Tb360 2.325 1_565 S
O370 C380 1.236 . S
O371 Tb361 2.322 1_565 S
O371 C380 1.257 . S
O372 Tb361 2.349 1_565 S
O372 C383 1.261 . S
O373 Tb360 2.303 . S
O373 C383 1.257 1_545 S
O374 Tb361 2.415 . S
O374 C390 1.239 . S
O375 Tb361 2.399 . S
O375 C390 1.263 . S
O376 Tb361 2.325 . S
O376 C391 1.236 . S
O377 Tb360 2.322 . S
O377 C391 1.257 . S
O378 Tb360 2.349 . S
O378 C362 1.261 . S
O379 Tb361 2.303 . S
O379 C362 1.257 . S
C380 O370 1.236 . S
C380 O371 1.257 . S
O381 Tb360 2.415 . S
O381 C369 1.239 . S
O382 Tb360 2.399 . S
O382 C369 1.263 . S
C383 O372 1.261 . S
C383 O373 1.257 1_565 S
C384 C387 1.358 1_455 S
C384 C388 1.332 . S
C384 C390 1.504 . S
C385 C386 1.379 . S
C385 C389 1.297 1_655 S
C386 C385 1.379 . S
C386 C387 1.429 . S
C386 H396 0.932 . S
C387 C384 1.358 1_655 S
C387 C386 1.429 . S
C387 H397 0.930 . S
C388 C384 1.332 . S
C388 C389 1.394 . S
C388 H398 0.932 . S
C389 C385 1.297 1_455 S
C389 C388 1.394 . S
C389 H399 0.929 . S
C390 Tb361 2.764 . S
C390 O374 1.239 . S
C390 O375 1.263 . S
C390 C384 1.504 . S
C391 O376 1.236 . S
C391 O377 1.257 . S
H392 C365 0.932 . S
H393 C366 0.930 . S
H394 C367 0.932 . S
H395 C368 0.929 . S
H396 C386 0.932 . S
H397 C387 0.930 . S
H398 C388 0.932 . S
H399 C389 0.929 . S
Tb400 C409 2.764 . S
Tb400 O410 2.325 . S
Tb400 O413 2.303 . S
Tb400 O417 2.322 . S
Tb400 O418 2.349 . S
Tb400 O421 2.415 . S
Tb400 O422 2.399 . S
Tb401 O411 2.322 . S
Tb401 O412 2.349 . S
Tb401 O414 2.415 . S
Tb401 O415 2.399 . S
Tb401 O416 2.325 . S
Tb401 O419 2.303 . S
Tb401 C430 2.764 . S
C402 O418 1.261 . S
C402 O419 1.257 . S
C403 C406 1.358 . S
C403 C407 1.332 . S
C403 C409 1.504 . S
C404 C405 1.373 . S
C404 C408 1.308 . S
C405 C404 1.373 . S
C405 C406 1.429 . S
C405 H432 0.932 . S
C406 C403 1.358 . S
C406 C405 1.429 . S
C406 H433 0.930 . S
C407 C403 1.332 . S
C407 C408 1.394 . S
C407 H434 0.932 . S
C408 C404 1.308 . S
C408 C407 1.394 . S
C408 H435 0.929 . S
C409 Tb400 2.764 . S
C409 C403 1.504 . S
C409 O421 1.239 . S
C409 O422 1.263 . S
O410 Tb400 2.325 . S
O410 C420 1.236 . S
O411 Tb401 2.322 . S
O411 C420 1.257 . S
O412 Tb401 2.349 . S
O412 C423 1.261 . S
O413 Tb400 2.303 . S
O413 C423 1.257 . S
O414 Tb401 2.415 . S
O414 C430 1.239 . S
O415 Tb401 2.399 . S
O415 C430 1.263 . S
O416 Tb401 2.325 . S
O416 C431 1.236 . S
O417 Tb400 2.322 . S
O417 C431 1.257 . S
O418 Tb400 2.349 . S
O418 C402 1.261 . S
O419 Tb401 2.303 . S
O419 C402 1.257 . S
C420 O410 1.236 . S
C420 O411 1.257 . S
O421 Tb400 2.415 . S
O421 C409 1.239 . S
O422 Tb400 2.399 . S
O422 C409 1.263 . S
C423 O412 1.261 . S
C423 O413 1.257 . S
C424 C427 1.358 . S
C424 C428 1.332 . S
C424 C430 1.504 . S
C425 C426 1.373 . S
C425 C429 1.308 . S
C426 C425 1.373 . S
C426 C427 1.429 . S
C426 H436 0.932 . S
C427 C424 1.358 . S
C427 C426 1.429 . S
C427 H437 0.930 . S
C428 C424 1.332 . S
C428 C429 1.394 . S
C428 H438 0.932 . S
C429 C425 1.308 . S
C429 C428 1.394 . S
C429 H439 0.929 . S
C430 Tb401 2.764 . S
C430 O414 1.239 . S
C430 O415 1.263 . S
C430 C424 1.504 . S
C431 O416 1.236 . S
C431 O417 1.257 . S
H432 C405 0.932 . S
H433 C406 0.930 . S
H434 C407 0.932 . S
H435 C408 0.929 . S
H436 C426 0.932 . S
H437 C427 0.930 . S
H438 C428 0.932 . S
H439 C429 0.929 . S
Tb440 C449 2.764 . S
Tb440 O450 2.325 1_565 S
Tb440 O453 2.303 . S
Tb440 O457 2.322 . S
Tb440 O458 2.349 . S
Tb440 O461 2.415 . S
Tb440 O462 2.399 . S
Tb441 O451 2.322 1_565 S
Tb441 O452 2.349 1_565 S
Tb441 O454 2.415 . S
Tb441 O455 2.399 . S
Tb441 O456 2.325 . S
Tb441 O459 2.303 . S
Tb441 C470 2.764 . S
C442 O458 1.261 . S
C442 O459 1.257 . S
C443 C446 1.358 . S
C443 C447 1.332 1_565 S
C443 C449 1.504 . S
C444 C445 1.373 1_545 S
C444 C448 1.308 . S
C445 C444 1.373 1_565 S
C445 C446 1.429 . S
C445 H472 0.932 . S
C446 C443 1.358 . S
C446 C445 1.429 . S
C446 H473 0.930 . S
C447 C443 1.332 1_545 S
C447 C448 1.394 . S
C447 H474 0.932 . S
C448 C444 1.308 . S
C448 C447 1.394 . S
C448 H475 0.929 . S
C449 Tb440 2.764 . S
C449 C443 1.504 . S
C449 O461 1.239 . S
C449 O462 1.263 . S
O450 Tb440 2.325 1_545 S
O450 C460 1.236 . S
O451 Tb441 2.322 1_545 S
O451 C460 1.257 . S
O452 Tb441 2.349 1_545 S
O452 C463 1.261 . S
O453 Tb440 2.303 . S
O453 C463 1.257 1_565 S
O454 Tb441 2.415 . S
O454 C470 1.239 . S
O455 Tb441 2.399 . S
O455 C470 1.263 . S
O456 Tb441 2.325 . S
O456 C471 1.236 . S
O457 Tb440 2.322 . S
O457 C471 1.257 . S
O458 Tb440 2.349 . S
O458 C442 1.261 . S
O459 Tb441 2.303 . S
O459 C442 1.257 . S
C460 O450 1.236 . S
C460 O451 1.257 . S
O461 Tb440 2.415 . S
O461 C449 1.239 . S
O462 Tb440 2.399 . S
O462 C449 1.263 . S
C463 O452 1.261 . S
C463 O453 1.257 1_545 S
C464 C467 1.358 . S
C464 C468 1.332 . S
C464 C470 1.504 . S
C465 C466 1.373 . S
C465 C469 1.308 . S
C466 C465 1.373 . S
C466 C467 1.429 . S
C466 H476 0.932 . S
C467 C464 1.358 . S
C467 C466 1.429 . S
C467 H477 0.930 . S
C468 C464 1.332 . S
C468 C469 1.394 . S
C468 H478 0.932 . S
C469 C465 1.308 . S
C469 C468 1.394 . S
C469 H479 0.929 . S
C470 Tb441 2.764 . S
C470 O454 1.239 . S
C470 O455 1.263 . S
C470 C464 1.504 . S
C471 O456 1.236 . S
C471 O457 1.257 . S
H472 C445 0.932 . S
H473 C446 0.930 . S
H474 C447 0.932 . S
H475 C448 0.929 . S
H476 C466 0.932 . S
H477 C467 0.930 . S
H478 C468 0.932 . S
H479 C469 0.929 . S
Tb480 C489 2.764 . S
Tb480 O490 2.325 . S
Tb480 O493 2.303 . S
Tb480 O497 2.322 . S
Tb480 O498 2.349 . S
Tb480 O501 2.415 . S
Tb480 O502 2.399 . S
Tb481 O491 2.322 . S
Tb481 O492 2.349 . S
Tb481 O494 2.415 . S
Tb481 O495 2.399 . S
Tb481 O496 2.325 . S
Tb481 O499 2.303 . S
Tb481 C510 2.764 . S
C482 O498 1.261 . S
C482 O499 1.257 . S
C483 C486 1.358 . S
C483 C487 1.332 . S
C483 C489 1.504 . S
C484 C485 1.373 . S
C484 C488 1.308 . S
C485 C484 1.373 . S
C485 C486 1.429 . S
C485 H512 0.932 . S
C486 C483 1.358 . S
C486 C485 1.429 . S
C486 H513 0.930 . S
C487 C483 1.332 . S
C487 C488 1.394 . S
C487 H514 0.932 . S
C488 C484 1.308 . S
C488 C487 1.394 . S
C488 H515 0.929 . S
C489 Tb480 2.764 . S
C489 C483 1.504 . S
C489 O501 1.239 . S
C489 O502 1.263 . S
O490 Tb480 2.325 . S
O490 C500 1.236 . S
O491 Tb481 2.322 . S
O491 C500 1.257 . S
O492 Tb481 2.349 . S
O492 C503 1.261 . S
O493 Tb480 2.303 . S
O493 C503 1.257 . S
O494 Tb481 2.415 . S
O494 C510 1.239 . S
O495 Tb481 2.399 . S
O495 C510 1.263 . S
O496 Tb481 2.325 . S
O496 C511 1.236 . S
O497 Tb480 2.322 . S
O497 C511 1.257 . S
O498 Tb480 2.349 . S
O498 C482 1.261 . S
O499 Tb481 2.303 . S
O499 C482 1.257 . S
C500 O490 1.236 . S
C500 O491 1.257 . S
O501 Tb480 2.415 . S
O501 C489 1.239 . S
O502 Tb480 2.399 . S
O502 C489 1.263 . S
C503 O492 1.261 . S
C503 O493 1.257 . S
C504 C507 1.358 . S
C504 C508 1.332 . S
C504 C510 1.504 . S
C505 C506 1.373 . S
C505 C509 1.308 . S
C506 C505 1.373 . S
C506 C507 1.429 . S
C506 H516 0.932 . S
C507 C504 1.358 . S
C507 C506 1.429 . S
C507 H517 0.930 . S
C508 C504 1.332 . S
C508 C509 1.394 . S
C508 H518 0.932 . S
C509 C505 1.308 . S
C509 C508 1.394 . S
C509 H519 0.929 . S
C510 Tb481 2.764 . S
C510 O494 1.239 . S
C510 O495 1.263 . S
C510 C504 1.504 . S
C511 O496 1.236 . S
C511 O497 1.257 . S
H512 C485 0.932 . S
H513 C486 0.930 . S
H514 C487 0.932 . S
H515 C488 0.929 . S
H516 C506 0.932 . S
H517 C507 0.930 . S
H518 C508 0.932 . S
H519 C509 0.929 . S
Tb520 C529 2.764 . S
Tb520 O530 2.325 . S
Tb520 O533 2.303 . S
Tb520 O537 2.322 1_565 S
Tb520 O538 2.349 1_565 S
Tb520 O541 2.415 . S
Tb520 O542 2.399 . S
Tb521 O531 2.322 . S
Tb521 O532 2.349 . S
Tb521 O534 2.415 . S
Tb521 O535 2.399 . S
Tb521 O536 2.325 1_565 S
Tb521 O539 2.303 . S
Tb521 C550 2.764 . S
C522 O538 1.261 . S
C522 O539 1.257 1_545 S
C523 C526 1.358 1_655 S
C523 C527 1.332 . S
C523 C529 1.504 . S
C524 C525 1.379 . S
C524 C528 1.297 1_455 S
C525 C524 1.379 . S
C525 C526 1.429 . S
C525 H552 0.932 . S
C526 C523 1.358 1_455 S
C526 C525 1.429 . S
C526 H553 0.930 . S
C527 C523 1.332 . S
C527 C528 1.394 . S
C527 H554 0.932 . S
C528 C524 1.297 1_655 S
C528 C527 1.394 . S
C528 H555 0.929 . S
C529 Tb520 2.764 . S
C529 C523 1.504 . S
C529 O541 1.239 . S
C529 O542 1.263 . S
O530 Tb520 2.325 . S
O530 C540 1.236 . S
O531 Tb521 2.322 . S
O531 C540 1.257 . S
O532 Tb521 2.349 . S
O532 C543 1.261 . S
O533 Tb520 2.303 . S
O533 C543 1.257 . S
O534 Tb521 2.415 . S
O534 C550 1.239 . S
O535 Tb521 2.399 . S
O535 C550 1.263 . S
O536 Tb521 2.325 1_545 S
O536 C551 1.236 . S
O537 Tb520 2.322 1_545 S
O537 C551 1.257 . S
O538 Tb520 2.349 1_545 S
O538 C522 1.261 . S
O539 Tb521 2.303 . S
O539 C522 1.257 1_565 S
C540 O530 1.236 . S
C540 O531 1.257 . S
O541 Tb520 2.415 . S
O541 C529 1.239 . S
O542 Tb520 2.399 . S
O542 C529 1.263 . S
C543 O532 1.261 . S
C543 O533 1.257 . S
C544 C547 1.358 . S
C544 C548 1.332 1_565 S
C544 C550 1.504 . S
C545 C546 1.373 1_545 S
C545 C549 1.308 . S
C546 C545 1.373 1_565 S
C546 C547 1.429 . S
C546 H556 0.932 . S
C547 C544 1.358 . S
C547 C546 1.429 . S
C547 H557 0.930 . S
C548 C544 1.332 1_545 S
C548 C549 1.394 . S
C548 H558 0.932 . S
C549 C545 1.308 . S
C549 C548 1.394 . S
C549 H559 0.929 . S
C550 Tb521 2.764 . S
C550 O534 1.239 . S
C550 O535 1.263 . S
C550 C544 1.504 . S
C551 O536 1.236 . S
C551 O537 1.257 . S
H552 C525 0.932 . S
H553 C526 0.930 . S
H554 C527 0.932 . S
H555 C528 0.929 . S
H556 C546 0.932 . S
H557 C547 0.930 . S
H558 C548 0.932 . S
H559 C549 0.929 . S
Tb560 C569 2.764 . S
Tb560 O570 2.325 . S
Tb560 O573 2.303 . S
Tb560 O577 2.322 . S
Tb560 O578 2.349 . S
Tb560 O581 2.415 . S
Tb560 O582 2.399 . S
Tb561 O571 2.322 . S
Tb561 O572 2.349 . S
Tb561 O574 2.415 . S
Tb561 O575 2.399 . S
Tb561 O576 2.325 . S
Tb561 O579 2.303 . S
Tb561 C590 2.764 . S
C562 O578 1.261 . S
C562 O579 1.257 . S
C563 C566 1.358 . S
C563 C567 1.332 . S
C563 C569 1.504 . S
C564 C565 1.373 . S
C564 C568 1.308 . S
C565 C564 1.373 . S
C565 C566 1.429 . S
C565 H592 0.932 . S
C566 C563 1.358 . S
C566 C565 1.429 . S
C566 H593 0.930 . S
C567 C563 1.332 . S
C567 C568 1.394 . S
C567 H594 0.932 . S
C568 C564 1.308 . S
C568 C567 1.394 . S
C568 H595 0.929 . S
C569 Tb560 2.764 . S
C569 C563 1.504 . S
C569 O581 1.239 . S
C569 O582 1.263 . S
O570 Tb560 2.325 . S
O570 C580 1.236 . S
O571 Tb561 2.322 . S
O571 C580 1.257 . S
O572 Tb561 2.349 . S
O572 C583 1.261 . S
O573 Tb560 2.303 . S
O573 C583 1.257 . S
O574 Tb561 2.415 . S
O574 C590 1.239 . S
O575 Tb561 2.399 . S
O575 C590 1.263 . S
O576 Tb561 2.325 . S
O576 C591 1.236 . S
O577 Tb560 2.322 . S
O577 C591 1.257 . S
O578 Tb560 2.349 . S
O578 C562 1.261 . S
O579 Tb561 2.303 . S
O579 C562 1.257 . S
C580 O570 1.236 . S
C580 O571 1.257 . S
O581 Tb560 2.415 . S
O581 C569 1.239 . S
O582 Tb560 2.399 . S
O582 C569 1.263 . S
C583 O572 1.261 . S
C583 O573 1.257 . S
C584 C587 1.358 . S
C584 C588 1.332 . S
C584 C590 1.504 . S
C585 C586 1.373 . S
C585 C589 1.308 . S
C586 C585 1.373 . S
C586 C587 1.429 . S
C586 H596 0.932 . S
C587 C584 1.358 . S
C587 C586 1.429 . S
C587 H597 0.930 . S
C588 C584 1.332 . S
C588 C589 1.394 . S
C588 H598 0.932 . S
C589 C585 1.308 . S
C589 C588 1.394 . S
C589 H599 0.929 . S
C590 Tb561 2.764 . S
C590 O574 1.239 . S
C590 O575 1.263 . S
C590 C584 1.504 . S
C591 O576 1.236 . S
C591 O577 1.257 . S
H592 C565 0.932 . S
H593 C566 0.930 . S
H594 C567 0.932 . S
H595 C568 0.929 . S
H596 C586 0.932 . S
H597 C587 0.930 . S
H598 C588 0.932 . S
H599 C589 0.929 . S
Tb600 C609 2.764 . S
Tb600 O610 2.325 . S
Tb600 O613 2.303 . S
Tb600 O617 2.322 1_545 S
Tb600 O618 2.349 1_545 S
Tb600 O621 2.415 . S
Tb600 O622 2.399 . S
Tb601 O611 2.322 . S
Tb601 O612 2.349 . S
Tb601 O614 2.415 . S
Tb601 O615 2.399 . S
Tb601 O616 2.325 1_545 S
Tb601 O619 2.303 . S
Tb601 C630 2.764 . S
C602 O618 1.261 . S
C602 O619 1.257 1_565 S
C603 C606 1.358 . S
C603 C607 1.332 . S
C603 C609 1.504 . S
C604 C605 1.373 . S
C604 C608 1.308 . S
C605 C604 1.373 . S
C605 C606 1.429 . S
C605 H632 0.932 . S
C606 C603 1.358 . S
C606 C605 1.429 . S
C606 H633 0.930 . S
C607 C603 1.332 . S
C607 C608 1.394 . S
C607 H634 0.932 . S
C608 C604 1.308 . S
C608 C607 1.394 . S
C608 H635 0.929 . S
C609 Tb600 2.764 . S
C609 C603 1.504 . S
C609 O621 1.239 . S
C609 O622 1.263 . S
O610 Tb600 2.325 . S
O610 C620 1.236 . S
O611 Tb601 2.322 . S
O611 C620 1.257 . S
O612 Tb601 2.349 . S
O612 C623 1.261 . S
O613 Tb600 2.303 . S
O613 C623 1.257 . S
O614 Tb601 2.415 . S
O614 C630 1.239 . S
O615 Tb601 2.399 . S
O615 C630 1.263 . S
O616 Tb601 2.325 1_565 S
O616 C631 1.236 . S
O617 Tb600 2.322 1_565 S
O617 C631 1.257 . S
O618 Tb600 2.349 1_565 S
O618 C602 1.261 . S
O619 Tb601 2.303 . S
O619 C602 1.257 1_545 S
C620 O610 1.236 . S
C620 O611 1.257 . S
O621 Tb600 2.415 . S
O621 C609 1.239 . S
O622 Tb600 2.399 . S
O622 C609 1.263 . S
C623 O612 1.261 . S
C623 O613 1.257 . S
C624 C627 1.358 . S
C624 C628 1.332 1_545 S
C624 C630 1.504 . S
C625 C626 1.373 1_565 S
C625 C629 1.308 . S
C626 C625 1.373 1_545 S
C626 C627 1.429 . S
C626 H636 0.932 . S
C627 C624 1.358 . S
C627 C626 1.429 . S
C627 H637 0.930 . S
C628 C624 1.332 1_565 S
C628 C629 1.394 . S
C628 H638 0.932 . S
C629 C625 1.308 . S
C629 C628 1.394 . S
C629 H639 0.929 . S
C630 Tb601 2.764 . S
C630 O614 1.239 . S
C630 O615 1.263 . S
C630 C624 1.504 . S
C631 O616 1.236 . S
C631 O617 1.257 . S
H632 C605 0.932 . S
H633 C606 0.930 . S
H634 C607 0.932 . S
H635 C608 0.929 . S
H636 C626 0.932 . S
H637 C627 0.930 . S
H638 C628 0.932 . S
H639 C629 0.929 . S
H640 C648 0.950 . S
H641 C653 0.950 . S
H642 C650 0.950 . S
H643 C652 0.950 . S
H644 C654 0.950 . S
H645 C656 0.950 . S
H646 C658 0.950 . S
H647 C659 0.950 . S
C648 H640 0.950 . S
C648 C649 1.386 . S
C648 C650 1.391 . S
C649 C648 1.386 . S
C649 C653 1.393 . S
C650 H642 0.950 . S
C650 C648 1.391 . S
C650 C651 1.400 . S
C651 C650 1.400 . S
C651 C652 1.398 . S
C651 C657 1.491 . S
C652 H643 0.950 . S
C652 C651 1.398 . S
C652 C653 1.391 . S
C653 H641 0.950 . S
C653 C649 1.393 . S
C653 C652 1.391 . S
C654 H644 0.950 . S
C654 C655 1.386 . S
C654 C656 1.391 . S
C655 C654 1.386 . S
C655 C659 1.393 . S
C656 H645 0.950 . S
C656 C654 1.391 . S
C656 C657 1.400 . S
C657 C651 1.491 . S
C657 C656 1.400 . S
C657 C658 1.398 . S
C658 H646 0.950 . S
C658 C657 1.398 . S
C658 C659 1.391 . S
C659 H647 0.950 . S
C659 C655 1.393 . S
C659 C658 1.391 . S
H660 C668 0.950 . S
H661 C673 0.950 . S
H662 C670 0.950 . S
H663 C672 0.950 . S
H664 C674 0.950 . S
H665 C676 0.950 . S
H666 C678 0.950 . S
H667 C679 0.950 . S
C668 H660 0.950 . S
C668 C669 1.386 . S
C668 C670 1.391 . S
C669 C668 1.386 . S
C669 C673 1.393 . S
C670 H662 0.950 . S
C670 C668 1.391 . S
C670 C671 1.400 . S
C671 C670 1.400 . S
C671 C672 1.398 . S
C671 C677 1.491 . S
C672 H663 0.950 . S
C672 C671 1.398 . S
C672 C673 1.391 . S
C673 H661 0.950 . S
C673 C669 1.393 . S
C673 C672 1.391 . S
C674 H664 0.950 . S
C674 C675 1.386 . S
C674 C676 1.391 . S
C675 C674 1.386 . S
C675 C679 1.393 . S
C676 H665 0.950 . S
C676 C674 1.391 . S
C676 C677 1.400 . S
C677 C671 1.491 . S
C677 C676 1.400 . S
C677 C678 1.398 . S
C678 H666 0.950 . S
C678 C677 1.398 . S
C678 C679 1.391 . S
C679 H667 0.950 . S
C679 C675 1.393 . S
C679 C678 1.391 . S
H680 C688 0.950 . S
H681 C693 0.950 . S
H682 C690 0.950 . S
H683 C692 0.950 . S
H684 C694 0.950 . S
H685 C696 0.950 . S
H686 C698 0.950 . S
H687 C699 0.950 . S
C688 H680 0.950 . S
C688 C689 1.386 . S
C688 C690 1.391 . S
C689 C688 1.386 . S
C689 C693 1.393 . S
C690 H682 0.950 . S
C690 C688 1.391 . S
C690 C691 1.400 . S
C691 C690 1.400 . S
C691 C692 1.398 . S
C691 C697 1.491 . S
C692 H683 0.950 . S
C692 C691 1.398 . S
C692 C693 1.391 . S
C693 H681 0.950 . S
C693 C689 1.393 . S
C693 C692 1.391 . S
C694 H684 0.950 . S
C694 C695 1.386 . S
C694 C696 1.391 . S
C695 C694 1.386 . S
C695 C699 1.393 . S
C696 H685 0.950 . S
C696 C694 1.391 . S
C696 C697 1.400 . S
C697 C691 1.491 . S
C697 C696 1.400 . S
C697 C698 1.398 . S
C698 H686 0.950 . S
C698 C697 1.398 . S
C698 C699 1.391 . S
C699 H687 0.950 . S
C699 C695 1.393 . S
C699 C698 1.391 . S
H700 C708 0.950 . S
H701 C713 0.950 . S
H702 C710 0.950 . S
H703 C712 0.950 . S
H704 C714 0.950 . S
H705 C716 0.950 . S
H706 C718 0.950 . S
H707 C719 0.950 . S
C708 H700 0.950 . S
C708 C709 1.386 1_655 S
C708 C710 1.391 . S
C709 C708 1.386 1_455 S
C709 C713 1.393 . S
C710 H702 0.950 . S
C710 C708 1.391 . S
C710 C711 1.400 1_655 S
C711 C710 1.400 1_455 S
C711 C712 1.398 1_556 S
C711 C717 1.491 1_456 S
C712 H703 0.950 . S
C712 C711 1.398 1_554 S
C712 C713 1.391 1_554 S
C713 H701 0.950 . S
C713 C709 1.393 . S
C713 C712 1.391 1_556 S
C714 H704 0.950 . S
C714 C715 1.386 1_455 S
C714 C716 1.391 . S
C715 C714 1.386 1_655 S
C715 C719 1.393 . S
C716 H705 0.950 . S
C716 C714 1.391 . S
C716 C717 1.400 1_455 S
C717 C711 1.491 1_654 S
C717 C716 1.400 1_655 S
C717 C718 1.398 1_554 S
C718 H706 0.950 . S
C718 C717 1.398 1_556 S
C718 C719 1.391 1_556 S
C719 H707 0.950 . S
C719 C715 1.393 . S
C719 C718 1.391 1_554 S
H720 C728 0.950 . S
H721 C733 0.950 . S
H722 C730 0.950 . S
H723 C732 0.950 . S
H724 C734 0.950 . S
H725 C736 0.950 . S
H726 C738 0.950 . S
H727 C739 0.950 . S
C728 H720 0.950 . S
C728 C729 1.386 . S
C728 C730 1.391 . S
C729 C728 1.386 . S
C729 C733 1.393 . S
C730 H722 0.950 . S
C730 C728 1.391 . S
C730 C731 1.400 . S
C731 C730 1.400 . S
C731 C732 1.398 . S
C731 C737 1.491 . S
C732 H723 0.950 . S
C732 C731 1.398 . S
C732 C733 1.391 . S
C733 H721 0.950 . S
C733 C729 1.393 . S
C733 C732 1.391 . S
C734 H724 0.950 . S
C734 C735 1.386 . S
C734 C736 1.391 . S
C735 C734 1.386 . S
C735 C739 1.393 . S
C736 H725 0.950 . S
C736 C734 1.391 . S
C736 C737 1.400 . S
C737 C731 1.491 . S
C737 C736 1.400 . S
C737 C738 1.398 . S
C738 H726 0.950 . S
C738 C737 1.398 . S
C738 C739 1.391 . S
C739 H727 0.950 . S
C739 C735 1.393 . S
C739 C738 1.391 . S
H740 C748 0.950 . S
H741 C753 0.950 . S
H742 C750 0.950 . S
H743 C752 0.950 . S
H744 C754 0.950 . S
H745 C756 0.950 . S
H746 C758 0.950 . S
H747 C759 0.950 . S
C748 H740 0.950 . S
C748 C749 1.386 . S
C748 C750 1.391 . S
C749 C748 1.386 . S
C749 C753 1.393 . S
C750 H742 0.950 . S
C750 C748 1.391 . S
C750 C751 1.400 . S
C751 C750 1.400 . S
C751 C752 1.398 . S
C751 C757 1.491 . S
C752 H743 0.950 . S
C752 C751 1.398 . S
C752 C753 1.391 . S
C753 H741 0.950 . S
C753 C749 1.393 . S
C753 C752 1.391 . S
C754 H744 0.950 . S
C754 C755 1.386 . S
C754 C756 1.391 . S
C755 C754 1.386 . S
C755 C759 1.393 . S
C756 H745 0.950 . S
C756 C754 1.391 . S
C756 C757 1.400 . S
C757 C751 1.491 . S
C757 C756 1.400 . S
C757 C758 1.398 . S
C758 H746 0.950 . S
C758 C757 1.398 . S
C758 C759 1.391 . S
C759 H747 0.950 . S
C759 C755 1.393 . S
C759 C758 1.391 . S
H760 C768 0.950 . S
H761 C773 0.950 . S
H762 C770 0.950 1_556 S
H763 C772 0.950 . S
H764 C774 0.950 . S
H765 C776 0.950 1_554 S
H766 C778 0.950 . S
H767 C779 0.950 . S
C768 H760 0.950 . S
C768 C769 1.386 . S
C768 C770 1.391 . S
C769 C768 1.386 . S
C769 C773 1.393 1_455 S
C770 H762 0.950 1_554 S
C770 C768 1.391 . S
C770 C771 1.400 . S
C771 C770 1.400 . S
C771 C772 1.398 1_455 S
C771 C777 1.491 1_464 S
C772 H763 0.950 . S
C772 C771 1.398 1_655 S
C772 C773 1.391 . S
C773 H761 0.950 . S
C773 C769 1.393 1_655 S
C773 C772 1.391 . S
C774 H764 0.950 . S
C774 C775 1.386 . S
C774 C776 1.391 . S
C775 C774 1.386 . S
C775 C779 1.393 1_655 S
C776 H765 0.950 1_556 S
C776 C774 1.391 . S
C776 C777 1.400 . S
C777 C771 1.491 1_646 S
C777 C776 1.400 . S
C777 C778 1.398 1_655 S
C778 H766 0.950 . S
C778 C777 1.398 1_455 S
C778 C779 1.391 . S
C779 H767 0.950 . S
C779 C775 1.393 1_455 S
C779 C778 1.391 . S
H780 C788 0.950 . S
H781 C793 0.950 . S
H782 C790 0.950 . S
H783 C792 0.950 . S
H784 C794 0.950 . S
H785 C796 0.950 . S
H786 C798 0.950 . S
H787 C799 0.950 . S
C788 H780 0.950 . S
C788 C789 1.386 . S
C788 C790 1.391 . S
C789 C788 1.386 . S
C789 C793 1.393 . S
C790 H782 0.950 . S
C790 C788 1.391 . S
C790 C791 1.400 . S
C791 C790 1.400 . S
C791 C792 1.398 . S
C791 C797 1.491 1_565 S
C792 H783 0.950 . S
C792 C791 1.398 . S
C792 C793 1.391 . S
C793 H781 0.950 . S
C793 C789 1.393 . S
C793 C792 1.391 . S
C794 H784 0.950 . S
C794 C795 1.386 . S
C794 C796 1.391 . S
C795 C794 1.386 . S
C795 C799 1.393 . S
C796 H785 0.950 . S
C796 C794 1.391 . S
C796 C797 1.400 . S
C797 C791 1.491 1_545 S
C797 C796 1.400 . S
C797 C798 1.398 . S
C798 H786 0.950 . S
C798 C797 1.398 . S
C798 C799 1.391 . S
C799 H787 0.950 . S
C799 C795 1.393 . S
C799 C798 1.391 . S
H800 C808 0.950 . S
H801 C813 0.950 . S
H802 C810 0.950 . S
H803 C812 0.950 . S
H804 C814 0.950 . S
H805 C816 0.950 . S
H806 C818 0.950 . S
H807 C819 0.950 . S
C808 H800 0.950 . S
C808 C809 1.386 . S
C808 C810 1.391 . S
C809 C808 1.386 . S
C809 C813 1.393 . S
C810 H802 0.950 . S
C810 C808 1.391 . S
C810 C811 1.400 . S
C811 C810 1.400 . S
C811 C812 1.398 . S
C811 C817 1.491 . S
C812 H803 0.950 . S
C812 C811 1.398 . S
C812 C813 1.391 . S
C813 H801 0.950 . S
C813 C809 1.393 . S
C813 C812 1.391 . S
C814 H804 0.950 . S
C814 C815 1.386 . S
C814 C816 1.391 1_554 S
C815 C814 1.386 . S
C815 C819 1.393 1_554 S
C816 H805 0.950 . S
C816 C814 1.391 1_556 S
C816 C817 1.400 . S
C817 C811 1.491 . S
C817 C816 1.400 . S
C817 C818 1.398 . S
C818 H806 0.950 . S
C818 C817 1.398 . S
C818 C819 1.391 . S
C819 H807 0.950 . S
C819 C815 1.393 1_556 S
C819 C818 1.391 . S
H820 C828 0.950 . S
H821 C833 0.950 . S
H822 C830 0.950 . S
H823 C832 0.950 . S
H824 C834 0.950 . S
H825 C836 0.950 . S
H826 C838 0.950 . S
H827 C839 0.950 . S
C828 H820 0.950 . S
C828 C829 1.386 . S
C828 C830 1.391 . S
C829 C828 1.386 . S
C829 C833 1.393 . S
C830 H822 0.950 . S
C830 C828 1.391 . S
C830 C831 1.400 . S
C831 C830 1.400 . S
C831 C832 1.398 . S
C831 C837 1.491 . S
C832 H823 0.950 . S
C832 C831 1.398 . S
C832 C833 1.391 . S
C833 H821 0.950 . S
C833 C829 1.393 . S
C833 C832 1.391 . S
C834 H824 0.950 . S
C834 C835 1.386 . S
C834 C836 1.391 . S
C835 C834 1.386 . S
C835 C839 1.393 . S
C836 H825 0.950 . S
C836 C834 1.391 . S
C836 C837 1.400 . S
C837 C831 1.491 . S
C837 C836 1.400 . S
C837 C838 1.398 . S
C838 H826 0.950 . S
C838 C837 1.398 . S
C838 C839 1.391 . S
C839 H827 0.950 . S
C839 C835 1.393 . S
C839 C838 1.391 . S
H840 C848 0.950 . S
H841 C853 0.950 . S
H842 C850 0.950 . S
H843 C852 0.950 . S
H844 C854 0.950 . S
H845 C856 0.950 . S
H846 C858 0.950 . S
H847 C859 0.950 . S
C848 H840 0.950 . S
C848 C849 1.386 . S
C848 C850 1.391 . S
C849 C848 1.386 . S
C849 C853 1.393 . S
C850 H842 0.950 . S
C850 C848 1.391 . S
C850 C851 1.400 . S
C851 C850 1.400 . S
C851 C852 1.398 . S
C851 C857 1.491 . S
C852 H843 0.950 . S
C852 C851 1.398 . S
C852 C853 1.391 . S
C853 H841 0.950 . S
C853 C849 1.393 . S
C853 C852 1.391 . S
C854 H844 0.950 . S
C854 C855 1.386 . S
C854 C856 1.391 . S
C855 C854 1.386 . S
C855 C859 1.393 . S
C856 H845 0.950 . S
C856 C854 1.391 . S
C856 C857 1.400 . S
C857 C851 1.491 . S
C857 C856 1.400 . S
C857 C858 1.398 . S
C858 H846 0.950 . S
C858 C857 1.398 . S
C858 C859 1.391 . S
C859 H847 0.950 . S
C859 C855 1.393 . S
C859 C858 1.391 . S
H860 C868 0.950 . S
H861 C873 0.950 . S
H862 C870 0.950 . S
H863 C872 0.950 . S
H864 C874 0.950 . S
H865 C876 0.950 . S
H866 C878 0.950 . S
H867 C879 0.950 . S
C868 H860 0.950 . S
C868 C869 1.386 . S
C868 C870 1.391 . S
C869 C868 1.386 . S
C869 C873 1.393 . S
C870 H862 0.950 . S
C870 C868 1.391 . S
C870 C871 1.400 . S
C871 C870 1.400 . S
C871 C872 1.398 . S
C871 C877 1.491 . S
C872 H863 0.950 . S
C872 C871 1.398 . S
C872 C873 1.391 . S
C873 H861 0.950 . S
C873 C869 1.393 . S
C873 C872 1.391 . S
C874 H864 0.950 . S
C874 C875 1.386 . S
C874 C876 1.391 . S
C875 C874 1.386 . S
C875 C879 1.393 . S
C876 H865 0.950 . S
C876 C874 1.391 . S
C876 C877 1.400 . S
C877 C871 1.491 . S
C877 C876 1.400 . S
C877 C878 1.398 . S
C878 H866 0.950 . S
C878 C877 1.398 . S
C878 C879 1.391 . S
C879 H867 0.950 . S
C879 C875 1.393 . S
C879 C878 1.391 . S
H880 C888 0.950 . S
H881 C893 0.950 . S
H882 C890 0.950 . S
H883 C892 0.950 . S
H884 C894 0.950 1_545 S
H885 C896 0.950 . S
H886 C898 0.950 . S
H887 C899 0.950 . S
C888 H880 0.950 . S
C888 C889 1.386 . S
C888 C890 1.391 . S
C889 C888 1.386 . S
C889 C893 1.393 . S
C890 H882 0.950 . S
C890 C888 1.391 . S
C890 C891 1.400 . S
C891 C890 1.400 . S
C891 C892 1.398 . S
C891 C897 1.491 . S
C892 H883 0.950 . S
C892 C891 1.398 . S
C892 C893 1.391 . S
C893 H881 0.950 . S
C893 C889 1.393 . S
C893 C892 1.391 . S
C894 H884 0.950 1_565 S
C894 C895 1.386 1_554 S
C894 C896 1.391 . S
C895 C894 1.386 1_556 S
C895 C899 1.393 . S
C896 H885 0.950 . S
C896 C894 1.391 . S
C896 C897 1.400 . S
C897 C891 1.491 . S
C897 C896 1.400 . S
C897 C898 1.398 . S
C898 H886 0.950 . S
C898 C897 1.398 . S
C898 C899 1.391 1_554 S
C899 H887 0.950 . S
C899 C895 1.393 . S
C899 C898 1.391 1_556 S
H900 C908 0.950 . S
H901 C913 0.950 . S
H902 C910 0.950 . S
H903 C912 0.950 . S
H904 C914 0.950 . S
H905 C916 0.950 . S
H906 C918 0.950 . S
H907 C919 0.950 . S
C908 H900 0.950 . S
C908 C909 1.386 . S
C908 C910 1.391 . S
C909 C908 1.386 . S
C909 C913 1.393 . S
C910 H902 0.950 . S
C910 C908 1.391 . S
C910 C911 1.400 . S
C911 C910 1.400 . S
C911 C912 1.398 . S
C911 C917 1.491 . S
C912 H903 0.950 . S
C912 C911 1.398 . S
C912 C913 1.391 . S
C913 H901 0.950 . S
C913 C909 1.393 . S
C913 C912 1.391 . S
C914 H904 0.950 . S
C914 C915 1.386 . S
C914 C916 1.391 . S
C915 C914 1.386 . S
C915 C919 1.393 . S
C916 H905 0.950 . S
C916 C914 1.391 . S
C916 C917 1.400 . S
C917 C911 1.491 . S
C917 C916 1.400 . S
C917 C918 1.398 . S
C918 H906 0.950 . S
C918 C917 1.398 . S
C918 C919 1.391 . S
C919 H907 0.950 . S
C919 C915 1.393 . S
C919 C918 1.391 . S
H920 C928 0.950 . S
H921 C933 0.950 1_565 S
H922 C930 0.950 . S
H923 C932 0.950 1_565 S
H924 C934 0.950 . S
H925 C936 0.950 1_565 S
H926 C938 0.950 . S
H927 C939 0.950 . S
C928 H920 0.950 . S
C928 C929 1.386 . S
C928 C930 1.391 . S
C929 C928 1.386 . S
C929 C933 1.393 . S
C930 H922 0.950 . S
C930 C928 1.391 . S
C930 C931 1.400 . S
C931 C930 1.400 . S
C931 C932 1.398 . S
C931 C937 1.491 . S
C932 H923 0.950 1_545 S
C932 C931 1.398 . S
C932 C933 1.391 . S
C933 H921 0.950 1_545 S
C933 C929 1.393 . S
C933 C932 1.391 . S
C934 H924 0.950 . S
C934 C935 1.386 . S
C934 C936 1.391 . S
C935 C934 1.386 . S
C935 C939 1.393 . S
C936 H925 0.950 1_545 S
C936 C934 1.391 . S
C936 C937 1.400 . S
C937 C931 1.491 . S
C937 C936 1.400 . S
C937 C938 1.398 . S
C938 H926 0.950 . S
C938 C937 1.398 . S
C938 C939 1.391 . S
C939 H927 0.950 . S
C939 C935 1.393 . S
C939 C938 1.391 . S
H940 C948 0.950 . S
H941 C953 0.950 . S
H942 C950 0.950 . S
H943 C952 0.950 . S
H944 C954 0.950 . S
H945 C956 0.950 . S
H946 C958 0.950 . S
H947 C959 0.950 . S
C948 H940 0.950 . S
C948 C949 1.386 . S
C948 C950 1.391 . S
C949 C948 1.386 . S
C949 C953 1.393 . S
C950 H942 0.950 . S
C950 C948 1.391 . S
C950 C951 1.400 . S
C951 C950 1.400 . S
C951 C952 1.398 . S
C951 C957 1.491 . S
C952 H943 0.950 . S
C952 C951 1.398 . S
C952 C953 1.391 . S
C953 H941 0.950 . S
C953 C949 1.393 . S
C953 C952 1.391 . S
C954 H944 0.950 . S
C954 C955 1.386 . S
C954 C956 1.391 . S
C955 C954 1.386 . S
C955 C959 1.393 . S
C956 H945 0.950 . S
C956 C954 1.391 . S
C956 C957 1.400 . S
C957 C951 1.491 . S
C957 C956 1.400 . S
C957 C958 1.398 . S
C958 H946 0.950 . S
C958 C957 1.398 . S
C958 C959 1.391 . S
C959 H947 0.950 . S
C959 C955 1.393 . S
C959 C958 1.391 . S
H960 C968 0.950 . S
H961 C973 0.950 . S
H962 C970 0.950 . S
H963 C972 0.950 . S
H964 C974 0.950 . S
H965 C976 0.950 . S
H966 C978 0.950 . S
H967 C979 0.950 . S
C968 H960 0.950 . S
C968 C969 1.386 . S
C968 C970 1.391 . S
C969 C968 1.386 . S
C969 C973 1.393 . S
C970 H962 0.950 . S
C970 C968 1.391 . S
C970 C971 1.400 . S
C971 C970 1.400 . S
C971 C972 1.398 . S
C971 C977 1.491 . S
C972 H963 0.950 . S
C972 C971 1.398 . S
C972 C973 1.391 . S
C973 H961 0.950 . S
C973 C969 1.393 . S
C973 C972 1.391 . S
C974 H964 0.950 . S
C974 C975 1.386 . S
C974 C976 1.391 . S
C975 C974 1.386 . S
C975 C979 1.393 . S
C976 H965 0.950 . S
C976 C974 1.391 . S
C976 C977 1.400 . S
C977 C971 1.491 . S
C977 C976 1.400 . S
C977 C978 1.398 . S
C978 H966 0.950 . S
C978 C977 1.398 . S
C978 C979 1.391 . S
C979 H967 0.950 . S
C979 C975 1.393 . S
C979 C978 1.391 . S
H980 C988 0.981 . S
H981 C993 0.950 . S
H982 C990 0.950 1_545 S
H983 C992 0.950 . S
H984 C994 0.950 . S
H985 C996 0.950 . S
H986 C998 0.950 . S
H987 C999 0.950 . S
C988 H980 0.981 . S
C988 C989 1.363 1_545 S
C988 C990 1.384 1_545 S
C989 C988 1.363 1_565 S
C989 C993 1.393 . S
C990 H982 0.950 1_565 S
C990 C988 1.384 1_565 S
C990 C991 1.400 . S
C991 C990 1.400 . S
C991 C992 1.398 . S
C991 C997 1.491 . S
C992 H983 0.950 . S
C992 C991 1.398 . S
C992 C993 1.391 . S
C993 H981 0.950 . S
C993 C989 1.393 . S
C993 C992 1.391 . S
C994 H984 0.950 . S
C994 C995 1.386 . S
C994 C996 1.391 . S
C995 C994 1.386 . S
C995 C999 1.393 . S
C996 H985 0.950 . S
C996 C994 1.391 . S
C996 C997 1.400 . S
C997 C991 1.491 . S
C997 C996 1.400 . S
C997 C998 1.398 . S
C998 H986 0.950 . S
C998 C997 1.398 . S
C998 C999 1.391 . S
C999 H987 0.950 . S
C999 C995 1.393 . S
C999 C998 1.391 . S
H1000 C1008 0.938 1_554 S
H1001 C1013 0.950 1_554 S
H1002 C1010 0.950 . S
H1003 C1012 0.950 . S
H1004 C1014 0.950 . S
H1005 C1016 0.950 . S
H1006 C1018 0.950 . S
H1007 C1019 0.950 . S
C1008 H1000 0.938 1_556 S
C1008 C1009 1.386 1_556 S
C1008 C1010 1.391 . S
C1009 C1008 1.386 1_554 S
C1009 C1013 1.393 1_554 S
C1010 H1002 0.950 . S
C1010 C1008 1.391 . S
C1010 C1011 1.400 . S
C1011 C1010 1.400 . S
C1011 C1012 1.398 . S
C1011 C1017 1.491 . S
C1012 H1003 0.950 . S
C1012 C1011 1.398 . S
C1012 C1013 1.391 . S
C1013 H1001 0.950 1_556 S
C1013 C1009 1.393 1_556 S
C1013 C1012 1.391 . S
C1014 H1004 0.950 . S
C1014 C1015 1.386 . S
C1014 C1016 1.391 . S
C1015 C1014 1.386 . S
C1015 C1019 1.393 . S
C1016 H1005 0.950 . S
C1016 C1014 1.391 . S
C1016 C1017 1.400 . S
C1017 C1011 1.491 . S
C1017 C1016 1.400 . S
C1017 C1018 1.398 . S
C1018 H1006 0.950 . S
C1018 C1017 1.398 . S
C1018 C1019 1.391 . S
C1019 H1007 0.950 . S
C1019 C1015 1.393 . S
C1019 C1018 1.391 . S
H1020 C1028 0.950 . S
H1021 C1033 0.950 . S
H1022 C1030 0.950 . S
H1023 C1032 0.950 . S
H1024 C1034 0.950 . S
H1025 C1036 0.950 . S
H1026 C1038 0.950 1_565 S
H1027 C1039 0.945 1_565 S
C1028 H1020 0.950 . S
C1028 C1029 1.386 . S
C1028 C1030 1.391 . S
C1029 C1028 1.386 . S
C1029 C1033 1.393 . S
C1030 H1022 0.950 . S
C1030 C1028 1.391 . S
C1030 C1031 1.400 . S
C1031 C1030 1.400 . S
C1031 C1032 1.398 . S
C1031 C1037 1.491 . S
C1032 H1023 0.950 . S
C1032 C1031 1.398 . S
C1032 C1033 1.391 . S
C1033 H1021 0.950 . S
C1033 C1029 1.393 . S
C1033 C1032 1.391 . S
C1034 H1024 0.950 . S
C1034 C1035 1.386 . S
C1034 C1036 1.391 . S
C1035 C1034 1.386 . S
C1035 C1039 1.396 . S
C1036 H1025 0.950 . S
C1036 C1034 1.391 . S
C1036 C1037 1.400 . S
C1037 C1031 1.491 . S
C1037 C1036 1.400 . S
C1037 C1038 1.398 . S
C1038 H1026 0.950 1_545 S
C1038 C1037 1.398 . S
C1038 C1039 1.392 . S
C1039 H1027 0.945 1_545 S
C1039 C1035 1.396 . S
C1039 C1038 1.392 . S
H1040 C1048 0.950 . S
H1041 C1053 0.950 . S
H1042 C1050 0.950 . S
H1043 C1052 0.950 . S
H1044 C1054 0.950 . S
H1045 C1056 0.950 . S
H1046 C1058 0.950 . S
H1047 C1059 0.950 . S
C1048 H1040 0.950 . S
C1048 C1049 1.386 . S
C1048 C1050 1.391 . S
C1049 C1048 1.386 . S
C1049 C1053 1.393 . S
C1050 H1042 0.950 . S
C1050 C1048 1.391 . S
C1050 C1051 1.400 . S
C1051 C1050 1.400 . S
C1051 C1052 1.398 . S
C1051 C1057 1.491 . S
C1052 H1043 0.950 . S
C1052 C1051 1.398 . S
C1052 C1053 1.391 . S
C1053 H1041 0.950 . S
C1053 C1049 1.393 . S
C1053 C1052 1.391 . S
C1054 H1044 0.950 . S
C1054 C1055 1.386 . S
C1054 C1056 1.391 . S
C1055 C1054 1.386 . S
C1055 C1059 1.393 . S
C1056 H1045 0.950 . S
C1056 C1054 1.391 . S
C1056 C1057 1.400 . S
C1057 C1051 1.491 . S
C1057 C1056 1.400 . S
C1057 C1058 1.398 . S
C1058 H1046 0.950 . S
C1058 C1057 1.398 . S
C1058 C1059 1.391 . S
C1059 H1047 0.950 . S
C1059 C1055 1.393 . S
C1059 C1058 1.391 . S
H1060 C1068 0.950 1_565 S
H1061 C1073 0.950 . S
H1062 C1070 0.950 . S
H1063 C1072 0.950 . S
H1064 C1074 0.950 . S
H1065 C1076 0.950 . S
H1066 C1078 0.950 . S
H1067 C1079 0.950 . S
C1068 H1060 0.950 1_545 S
C1068 C1069 1.386 . S
C1068 C1070 1.391 . S
C1069 C1068 1.386 . S
C1069 C1073 1.393 . S
C1070 H1062 0.950 . S
C1070 C1068 1.391 . S
C1070 C1071 1.400 . S
C1071 C1070 1.400 . S
C1071 C1072 1.398 . S
C1071 C1077 1.491 . S
C1072 H1063 0.950 . S
C1072 C1071 1.398 . S
C1072 C1073 1.391 . S
C1073 H1061 0.950 . S
C1073 C1069 1.393 . S
C1073 C1072 1.391 . S
C1074 H1064 0.950 . S
C1074 C1075 1.386 . S
C1074 C1076 1.391 . S
C1075 C1074 1.386 . S
C1075 C1079 1.393 . S
C1076 H1065 0.950 . S
C1076 C1074 1.391 . S
C1076 C1077 1.400 . S
C1077 C1071 1.491 . S
C1077 C1076 1.400 . S
C1077 C1078 1.398 . S
C1078 H1066 0.950 . S
C1078 C1077 1.398 . S
C1078 C1079 1.391 . S
C1079 H1067 0.950 . S
C1079 C1075 1.393 . S
C1079 C1078 1.391 . S
H1080 C1088 0.950 . S
H1081 C1093 0.950 . S
H1082 C1090 0.950 . S
H1083 C1092 0.950 . S
H1084 C1094 0.977 . S
H1085 C1096 0.950 . S
H1086 C1098 0.950 . S
H1087 C1099 0.950 . S
C1088 H1080 0.950 . S
C1088 C1089 1.386 . S
C1088 C1090 1.391 . S
C1089 C1088 1.386 . S
C1089 C1093 1.393 . S
C1090 H1082 0.950 . S
C1090 C1088 1.391 . S
C1090 C1091 1.400 . S
C1091 C1090 1.400 . S
C1091 C1092 1.398 . S
C1091 C1097 1.491 . S
C1092 H1083 0.950 . S
C1092 C1091 1.398 . S
C1092 C1093 1.391 . S
C1093 H1081 0.950 . S
C1093 C1089 1.393 . S
C1093 C1092 1.391 . S
C1094 H1084 0.977 . S
C1094 C1095 1.398 . S
C1094 C1096 1.352 1_556 S
C1095 C1094 1.398 . S
C1095 C1099 1.393 1_556 S
C1096 H1085 0.950 . S
C1096 C1094 1.352 1_554 S
C1096 C1097 1.400 . S
C1097 C1091 1.491 . S
C1097 C1096 1.400 . S
C1097 C1098 1.398 . S
C1098 H1086 0.950 . S
C1098 C1097 1.398 . S
C1098 C1099 1.391 . S
C1099 H1087 0.950 . S
C1099 C1095 1.393 1_554 S
C1099 C1098 1.391 . S
H1100 C1108 0.948 . S
H1101 C1113 0.950 . S
H1102 C1110 0.950 . S
H1103 C1112 0.950 . S
H1104 C1114 0.950 . S
H1105 C1116 0.950 . S
H1106 C1118 0.950 . S
H1107 C1119 0.950 . S
C1108 H1100 0.948 . S
C1108 C1109 1.386 . S
C1108 C1110 1.391 . S
C1109 C1108 1.386 . S
C1109 C1113 1.393 . S
C1110 H1102 0.950 . S
C1110 C1108 1.391 . S
C1110 C1111 1.400 . S
C1111 C1110 1.400 . S
C1111 C1112 1.398 . S
C1111 C1117 1.491 . S
C1112 H1103 0.950 . S
C1112 C1111 1.398 . S
C1112 C1113 1.391 . S
C1113 H1101 0.950 . S
C1113 C1109 1.393 . S
C1113 C1112 1.391 . S
C1114 H1104 0.950 . S
C1114 C1115 1.386 . S
C1114 C1116 1.391 . S
C1115 C1114 1.386 . S
C1115 C1119 1.393 . S
C1116 H1105 0.950 . S
C1116 C1114 1.391 . S
C1116 C1117 1.400 . S
C1117 C1111 1.491 . S
C1117 C1116 1.400 . S
C1117 C1118 1.398 . S
C1118 H1106 0.950 . S
C1118 C1117 1.398 . S
C1118 C1119 1.391 . S
C1119 H1107 0.950 . S
C1119 C1115 1.393 . S
C1119 C1118 1.391 . S
H1120 C1128 0.950 . S
H1121 C1133 0.950 . S
H1122 C1130 0.950 . S
H1123 C1132 0.950 . S
H1124 C1134 0.950 . S
H1125 C1136 0.950 . S
H1126 C1138 0.950 . S
H1127 C1139 0.950 . S
C1128 H1120 0.950 . S
C1128 C1129 1.386 . S
C1128 C1130 1.391 . S
C1129 C1128 1.386 . S
C1129 C1133 1.393 . S
C1130 H1122 0.950 . S
C1130 C1128 1.391 . S
C1130 C1131 1.400 . S
C1131 C1130 1.400 . S
C1131 C1132 1.398 . S
C1131 C1137 1.491 . S
C1132 H1123 0.950 . S
C1132 C1131 1.398 . S
C1132 C1133 1.391 . S
C1133 H1121 0.950 . S
C1133 C1129 1.393 . S
C1133 C1132 1.391 . S
C1134 H1124 0.950 . S
C1134 C1135 1.386 . S
C1134 C1136 1.391 . S
C1135 C1134 1.386 . S
C1135 C1139 1.393 . S
C1136 H1125 0.950 . S
C1136 C1134 1.391 . S
C1136 C1137 1.400 . S
C1137 C1131 1.491 . S
C1137 C1136 1.400 . S
C1137 C1138 1.398 . S
C1138 H1126 0.950 . S
C1138 C1137 1.398 . S
C1138 C1139 1.391 . S
C1139 H1127 0.950 . S
C1139 C1135 1.393 . S
C1139 C1138 1.391 . S
H1140 C1148 0.950 . S
H1141 C1153 0.950 . S
H1142 C1150 0.950 . S
H1143 C1152 0.950 . S
H1144 C1154 0.950 . S
H1145 C1156 0.950 . S
H1146 C1158 0.950 . S
H1147 C1159 0.950 . S
C1148 H1140 0.950 . S
C1148 C1149 1.386 . S
C1148 C1150 1.391 . S
C1149 C1148 1.386 . S
C1149 C1153 1.393 . S
C1150 H1142 0.950 . S
C1150 C1148 1.391 . S
C1150 C1151 1.400 . S
C1151 C1150 1.400 . S
C1151 C1152 1.398 . S
C1151 C1157 1.491 . S
C1152 H1143 0.950 . S
C1152 C1151 1.398 . S
C1152 C1153 1.391 . S
C1153 H1141 0.950 . S
C1153 C1149 1.393 . S
C1153 C1152 1.391 . S
C1154 H1144 0.950 . S
C1154 C1155 1.386 . S
C1154 C1156 1.391 . S
C1155 C1154 1.386 . S
C1155 C1159 1.393 . S
C1156 H1145 0.950 . S
C1156 C1154 1.391 . S
C1156 C1157 1.400 . S
C1157 C1151 1.491 . S
C1157 C1156 1.400 . S
C1157 C1158 1.398 . S
C1158 H1146 0.950 . S
C1158 C1157 1.398 . S
C1158 C1159 1.391 . S
C1159 H1147 0.950 . S
C1159 C1155 1.393 . S
C1159 C1158 1.391 . S
H1160 C1168 0.950 . S
H1161 C1173 0.950 . S
H1162 C1170 0.950 . S
H1163 C1172 0.950 . S
H1164 C1174 0.950 . S
H1165 C1176 0.950 . S
H1166 C1178 0.950 . S
H1167 C1179 0.950 . S
C1168 H1160 0.950 . S
C1168 C1169 1.386 . S
C1168 C1170 1.391 . S
C1169 C1168 1.386 . S
C1169 C1173 1.393 . S
C1170 H1162 0.950 . S
C1170 C1168 1.391 . S
C1170 C1171 1.400 . S
C1171 C1170 1.400 . S
C1171 C1172 1.398 . S
C1171 C1177 1.491 1_655 S
C1172 H1163 0.950 . S
C1172 C1171 1.398 . S
C1172 C1173 1.391 . S
C1173 H1161 0.950 . S
C1173 C1169 1.393 . S
C1173 C1172 1.391 . S
C1174 H1164 0.950 . S
C1174 C1175 1.386 . S
C1174 C1176 1.391 . S
C1175 C1174 1.386 . S
C1175 C1179 1.393 . S
C1176 H1165 0.950 . S
C1176 C1174 1.391 . S
C1176 C1177 1.400 . S
C1177 C1171 1.491 1_455 S
C1177 C1176 1.400 . S
C1177 C1178 1.398 . S
C1178 H1166 0.950 . S
C1178 C1177 1.398 . S
C1178 C1179 1.391 . S
C1179 H1167 0.950 . S
C1179 C1175 1.393 . S
C1179 C1178 1.391 . S
H1180 C1188 0.950 1_455 S
H1181 C1193 0.950 . S
H1182 C1190 0.950 . S
H1183 C1192 0.950 . S
H1184 C1194 0.950 1_655 S
H1185 C1196 0.950 . S
H1186 C1198 0.950 . S
H1187 C1199 0.950 . S
C1188 H1180 0.950 1_655 S
C1188 C1189 1.386 . S
C1188 C1190 1.391 1_655 S
C1189 C1188 1.386 . S
C1189 C1193 1.393 . S
C1190 H1182 0.950 . S
C1190 C1188 1.391 1_455 S
C1190 C1191 1.400 1_455 S
C1191 C1190 1.400 1_655 S
C1191 C1192 1.398 . S
C1191 C1197 1.491 1_655 S
C1192 H1183 0.950 . S
C1192 C1191 1.398 . S
C1192 C1193 1.391 . S
C1193 H1181 0.950 . S
C1193 C1189 1.393 . S
C1193 C1192 1.391 . S
C1194 H1184 0.950 1_455 S
C1194 C1195 1.386 . S
C1194 C1196 1.391 1_455 S
C1195 C1194 1.386 . S
C1195 C1199 1.393 . S
C1196 H1185 0.950 . S
C1196 C1194 1.391 1_655 S
C1196 C1197 1.400 1_655 S
C1197 C1191 1.491 1_455 S
C1197 C1196 1.400 1_455 S
C1197 C1198 1.398 . S
C1198 H1186 0.950 . S
C1198 C1197 1.398 . S
C1198 C1199 1.391 . S
C1199 H1187 0.950 . S
C1199 C1195 1.393 . S
C1199 C1198 1.391 . S
H1200 C1208 0.950 . S
H1201 C1213 0.950 . S
H1202 C1210 0.950 . S
H1203 C1212 0.950 . S
H1204 C1214 0.950 . S
H1205 C1216 0.950 . S
H1206 C1218 0.950 . S
H1207 C1219 0.950 . S
C1208 H1200 0.950 . S
C1208 C1209 1.386 . S
C1208 C1210 1.391 . S
C1209 C1208 1.386 . S
C1209 C1213 1.393 . S
C1210 H1202 0.950 . S
C1210 C1208 1.391 . S
C1210 C1211 1.400 . S
C1211 C1210 1.400 . S
C1211 C1212 1.398 . S
C1211 C1217 1.491 . S
C1212 H1203 0.950 . S
C1212 C1211 1.398 . S
C1212 C1213 1.391 . S
C1213 H1201 0.950 . S
C1213 C1209 1.393 . S
C1213 C1212 1.391 . S
C1214 H1204 0.950 . S
C1214 C1215 1.386 . S
C1214 C1216 1.391 . S
C1215 C1214 1.386 . S
C1215 C1219 1.393 . S
C1216 H1205 0.950 . S
C1216 C1214 1.391 . S
C1216 C1217 1.400 . S
C1217 C1211 1.491 . S
C1217 C1216 1.400 . S
C1217 C1218 1.398 . S
C1218 H1206 0.950 . S
C1218 C1217 1.398 . S
C1218 C1219 1.391 . S
C1219 H1207 0.950 . S
C1219 C1215 1.393 . S
C1219 C1218 1.391 . S
H1220 C1228 0.950 . S
H1221 C1233 0.950 . S
H1222 C1230 0.950 . S
H1223 C1232 0.950 . S
H1224 C1234 0.950 . S
H1225 C1236 0.950 . S
H1226 C1238 0.950 . S
H1227 C1239 0.950 . S
C1228 H1220 0.950 . S
C1228 C1229 1.386 . S
C1228 C1230 1.391 . S
C1229 C1228 1.386 . S
C1229 C1233 1.393 . S
C1230 H1222 0.950 . S
C1230 C1228 1.391 . S
C1230 C1231 1.400 . S
C1231 C1230 1.400 . S
C1231 C1232 1.398 . S
C1231 C1237 1.491 . S
C1232 H1223 0.950 . S
C1232 C1231 1.398 . S
C1232 C1233 1.391 . S
C1233 H1221 0.950 . S
C1233 C1229 1.393 . S
C1233 C1232 1.391 . S
C1234 H1224 0.950 . S
C1234 C1235 1.386 . S
C1234 C1236 1.391 . S
C1235 C1234 1.386 . S
C1235 C1239 1.393 . S
C1236 H1225 0.950 . S
C1236 C1234 1.391 . S
C1236 C1237 1.400 . S
C1237 C1231 1.491 . S
C1237 C1236 1.400 . S
C1237 C1238 1.398 . S
C1238 H1226 0.950 . S
C1238 C1237 1.398 . S
C1238 C1239 1.391 . S
C1239 H1227 0.950 . S
C1239 C1235 1.393 . S
C1239 C1238 1.391 . S
H1240 C1248 0.950 . S
H1241 C1253 0.950 . S
H1242 C1250 0.950 . S
H1243 C1252 0.950 . S
H1244 C1254 0.950 . S
H1245 C1256 0.950 . S
H1246 C1258 0.950 . S
H1247 C1259 0.950 . S
C1248 H1240 0.950 . S
C1248 C1249 1.386 . S
C1248 C1250 1.391 . S
C1249 C1248 1.386 . S
C1249 C1253 1.393 . S
C1250 H1242 0.950 . S
C1250 C1248 1.391 . S
C1250 C1251 1.400 . S
C1251 C1250 1.400 . S
C1251 C1252 1.398 . S
C1251 C1257 1.491 1_455 S
C1252 H1243 0.950 . S
C1252 C1251 1.398 . S
C1252 C1253 1.391 . S
C1253 H1241 0.950 . S
C1253 C1249 1.393 . S
C1253 C1252 1.391 . S
C1254 H1244 0.950 . S
C1254 C1255 1.386 . S
C1254 C1256 1.391 . S
C1255 C1254 1.386 . S
C1255 C1259 1.393 . S
C1256 H1245 0.950 . S
C1256 C1254 1.391 . S
C1256 C1257 1.400 . S
C1257 C1251 1.491 1_655 S
C1257 C1256 1.400 . S
C1257 C1258 1.398 . S
C1258 H1246 0.950 . S
C1258 C1257 1.398 . S
C1258 C1259 1.391 . S
C1259 H1247 0.950 . S
C1259 C1255 1.393 . S
C1259 C1258 1.391 . S
H1260 C1268 0.950 . S
H1261 C1273 0.950 1_655 S
H1262 C1270 0.950 . S
H1263 C1272 0.950 . S
H1264 C1274 0.950 . S
H1265 C1276 0.950 . S
H1266 C1278 0.950 . S
H1267 C1279 0.950 1_455 S
C1268 H1260 0.950 . S
C1268 C1269 1.386 . S
C1268 C1270 1.391 . S
C1269 C1268 1.386 . S
C1269 C1273 1.393 . S
C1270 H1262 0.950 . S
C1270 C1268 1.391 . S
C1270 C1271 1.400 . S
C1271 C1270 1.400 . S
C1271 C1272 1.398 1_455 S
C1271 C1277 1.491 1_455 S
C1272 H1263 0.950 . S
C1272 C1271 1.398 1_655 S
C1272 C1273 1.391 1_655 S
C1273 H1261 0.950 1_455 S
C1273 C1269 1.393 . S
C1273 C1272 1.391 1_455 S
C1274 H1264 0.950 . S
C1274 C1275 1.386 . S
C1274 C1276 1.391 . S
C1275 C1274 1.386 . S
C1275 C1279 1.393 . S
C1276 H1265 0.950 . S
C1276 C1274 1.391 . S
C1276 C1277 1.400 . S
C1277 C1271 1.491 1_655 S
C1277 C1276 1.400 . S
C1277 C1278 1.398 1_655 S
C1278 H1266 0.950 . S
C1278 C1277 1.398 1_455 S
C1278 C1279 1.391 1_455 S
C1279 H1267 0.950 1_655 S
C1279 C1275 1.393 . S
C1279 C1278 1.391 1_655 S
H1280 C1288 0.950 . S
H1281 C1293 0.950 . S
H1282 C1290 0.950 . S
H1283 C1292 0.950 . S
H1284 C1294 0.950 . S
H1285 C1296 0.950 . S
H1286 C1298 0.950 . S
H1287 C1299 0.950 . S
C1288 H1280 0.950 . S
C1288 C1289 1.386 . S
C1288 C1290 1.391 . S
C1289 C1288 1.386 . S
C1289 C1293 1.393 . S
C1290 H1282 0.950 . S
C1290 C1288 1.391 . S
C1290 C1291 1.400 . S
C1291 C1290 1.400 . S
C1291 C1292 1.398 . S
C1291 C1297 1.491 . S
C1292 H1283 0.950 . S
C1292 C1291 1.398 . S
C1292 C1293 1.391 . S
C1293 H1281 0.950 . S
C1293 C1289 1.393 . S
C1293 C1292 1.391 . S
C1294 H1284 0.950 . S
C1294 C1295 1.386 . S
C1294 C1296 1.391 . S
C1295 C1294 1.386 . S
C1295 C1299 1.393 . S
C1296 H1285 0.950 . S
C1296 C1294 1.391 . S
C1296 C1297 1.400 . S
C1297 C1291 1.491 . S
C1297 C1296 1.400 . S
C1297 C1298 1.398 . S
C1298 H1286 0.950 . S
C1298 C1297 1.398 . S
C1298 C1299 1.391 . S
C1299 H1287 0.950 . S
C1299 C1295 1.393 . S
C1299 C1298 1.391 . S
H1300 C1308 0.950 . S
H1301 C1313 0.950 . S
H1302 C1310 0.950 . S
H1303 C1312 0.950 . S
H1304 C1314 0.950 . S
H1305 C1316 0.950 . S
H1306 C1318 0.950 . S
H1307 C1319 0.950 . S
C1308 H1300 0.950 . S
C1308 C1309 1.386 . S
C1308 C1310 1.391 . S
C1309 C1308 1.386 . S
C1309 C1313 1.393 . S
C1310 H1302 0.950 . S
C1310 C1308 1.391 . S
C1310 C1311 1.400 . S
C1311 C1310 1.400 . S
C1311 C1312 1.398 . S
C1311 C1317 1.491 . S
C1312 H1303 0.950 . S
C1312 C1311 1.398 . S
C1312 C1313 1.391 . S
C1313 H1301 0.950 . S
C1313 C1309 1.393 . S
C1313 C1312 1.391 . S
C1314 H1304 0.950 . S
C1314 C1315 1.386 . S
C1314 C1316 1.391 . S
C1315 C1314 1.386 . S
C1315 C1319 1.393 . S
C1316 H1305 0.950 . S
C1316 C1314 1.391 . S
C1316 C1317 1.400 . S
C1317 C1311 1.491 . S
C1317 C1316 1.400 . S
C1317 C1318 1.398 . S
C1318 H1306 0.950 . S
C1318 C1317 1.398 . S
C1318 C1319 1.391 . S
C1319 H1307 0.950 . S
C1319 C1315 1.393 . S
C1319 C1318 1.391 . S
H1320 C1328 0.950 . S
H1321 C1333 0.950 . S
H1322 C1330 0.950 . S
H1323 C1332 0.950 . S
H1324 C1334 0.950 . S
H1325 C1336 0.950 . S
H1326 C1338 0.950 . S
H1327 C1339 0.950 . S
C1328 H1320 0.950 . S
C1328 C1329 1.386 . S
C1328 C1330 1.391 . S
C1329 C1328 1.386 . S
C1329 C1333 1.393 . S
C1330 H1322 0.950 . S
C1330 C1328 1.391 . S
C1330 C1331 1.400 . S
C1331 C1330 1.400 . S
C1331 C1332 1.398 . S
C1331 C1337 1.491 . S
C1332 H1323 0.950 . S
C1332 C1331 1.398 . S
C1332 C1333 1.391 . S
C1333 H1321 0.950 . S
C1333 C1329 1.393 . S
C1333 C1332 1.391 . S
C1334 H1324 0.950 . S
C1334 C1335 1.386 . S
C1334 C1336 1.391 . S
C1335 C1334 1.386 . S
C1335 C1339 1.393 . S
C1336 H1325 0.950 . S
C1336 C1334 1.391 . S
C1336 C1337 1.400 . S
C1337 C1331 1.491 . S
C1337 C1336 1.400 . S
C1337 C1338 1.398 . S
C1338 H1326 0.950 . S
C1338 C1337 1.398 . S
C1338 C1339 1.391 . S
C1339 H1327 0.950 . S
C1339 C1335 1.393 . S
C1339 C1338 1.391 . S
H1340 C1348 0.950 . S
H1341 C1353 0.972 . S
H1342 C1350 0.950 . S
H1343 C1352 0.950 . S
H1344 C1354 0.950 . S
H1345 C1356 0.950 . S
H1346 C1358 0.950 . S
H1347 C1359 0.950 . S
C1348 H1340 0.950 . S
C1348 C1349 1.386 1_455 S
C1348 C1350 1.391 . S
C1349 C1348 1.386 1_655 S
C1349 C1353 1.401 . S
C1350 H1342 0.950 . S
C1350 C1348 1.391 . S
C1350 C1351 1.400 . S
C1351 C1350 1.400 . S
C1351 C1352 1.398 . S
C1351 C1357 1.491 . S
C1352 H1343 0.950 . S
C1352 C1351 1.398 . S
C1352 C1353 1.361 1_455 S
C1353 H1341 0.972 . S
C1353 C1349 1.401 . S
C1353 C1352 1.361 1_655 S
C1354 H1344 0.950 . S
C1354 C1355 1.386 . S
C1354 C1356 1.391 . S
C1355 C1354 1.386 . S
C1355 C1359 1.393 . S
C1356 H1345 0.950 . S
C1356 C1354 1.391 . S
C1356 C1357 1.400 . S
C1357 C1351 1.491 . S
C1357 C1356 1.400 . S
C1357 C1358 1.398 . S
C1358 H1346 0.950 . S
C1358 C1357 1.398 . S
C1358 C1359 1.391 . S
C1359 H1347 0.950 . S
C1359 C1355 1.393 . S
C1359 C1358 1.391 . S
H1360 C1368 0.950 . S
H1361 C1373 0.950 . S
H1362 C1370 0.950 . S
H1363 C1372 0.950 . S
H1364 C1374 0.950 . S
H1365 C1376 0.950 . S
H1366 C1378 0.950 . S
H1367 C1379 0.950 . S
C1368 H1360 0.950 . S
C1368 C1369 1.386 . S
C1368 C1370 1.391 . S
C1369 C1368 1.386 . S
C1369 C1373 1.393 . S
C1370 H1362 0.950 . S
C1370 C1368 1.391 . S
C1370 C1371 1.400 . S
C1371 C1370 1.400 . S
C1371 C1372 1.398 . S
C1371 C1377 1.491 . S
C1372 H1363 0.950 . S
C1372 C1371 1.398 . S
C1372 C1373 1.391 . S
C1373 H1361 0.950 . S
C1373 C1369 1.393 . S
C1373 C1372 1.391 . S
C1374 H1364 0.950 . S
C1374 C1375 1.386 . S
C1374 C1376 1.391 . S
C1375 C1374 1.386 . S
C1375 C1379 1.393 . S
C1376 H1365 0.950 . S
C1376 C1374 1.391 . S
C1376 C1377 1.400 . S
C1377 C1371 1.491 . S
C1377 C1376 1.400 . S
C1377 C1378 1.398 . S
C1378 H1366 0.950 . S
C1378 C1377 1.398 . S
C1378 C1379 1.391 . S
C1379 H1367 0.950 . S
C1379 C1375 1.393 . S
C1379 C1378 1.391 . S
H1380 C1388 0.950 . S
H1381 C1393 0.950 . S
H1382 C1390 0.950 . S
H1383 C1392 0.950 . S
H1384 C1394 0.950 . S
H1385 C1396 0.950 . S
H1386 C1398 0.950 . S
H1387 C1399 0.950 . S
C1388 H1380 0.950 . S
C1388 C1389 1.386 . S
C1388 C1390 1.391 . S
C1389 C1388 1.386 . S
C1389 C1393 1.393 . S
C1390 H1382 0.950 . S
C1390 C1388 1.391 . S
C1390 C1391 1.400 . S
C1391 C1390 1.400 . S
C1391 C1392 1.398 . S
C1391 C1397 1.491 . S
C1392 H1383 0.950 . S
C1392 C1391 1.398 . S
C1392 C1393 1.391 . S
C1393 H1381 0.950 . S
C1393 C1389 1.393 . S
C1393 C1392 1.391 . S
C1394 H1384 0.950 . S
C1394 C1395 1.386 . S
C1394 C1396 1.391 . S
C1395 C1394 1.386 . S
C1395 C1399 1.393 . S
C1396 H1385 0.950 . S
C1396 C1394 1.391 . S
C1396 C1397 1.400 . S
C1397 C1391 1.491 . S
C1397 C1396 1.400 . S
C1397 C1398 1.398 . S
C1398 H1386 0.950 . S
C1398 C1397 1.398 . S
C1398 C1399 1.391 . S
C1399 H1387 0.950 . S
C1399 C1395 1.393 . S
C1399 C1398 1.391 . S
H1400 C1408 0.950 . S
H1401 C1413 0.950 . S
H1402 C1410 0.950 . S
H1403 C1412 0.950 . S
H1404 C1414 0.950 . S
H1405 C1416 0.950 . S
H1406 C1418 0.950 . S
H1407 C1419 0.950 . S
C1408 H1400 0.950 . S
C1408 C1409 1.386 . S
C1408 C1410 1.391 . S
C1409 C1408 1.386 . S
C1409 C1413 1.393 . S
C1410 H1402 0.950 . S
C1410 C1408 1.391 . S
C1410 C1411 1.400 . S
C1411 C1410 1.400 . S
C1411 C1412 1.398 . S
C1411 C1417 1.491 . S
C1412 H1403 0.950 . S
C1412 C1411 1.398 . S
C1412 C1413 1.391 . S
C1413 H1401 0.950 . S
C1413 C1409 1.393 . S
C1413 C1412 1.391 . S
C1414 H1404 0.950 . S
C1414 C1415 1.386 . S
C1414 C1416 1.391 . S
C1415 C1414 1.386 . S
C1415 C1419 1.393 . S
C1416 H1405 0.950 . S
C1416 C1414 1.391 . S
C1416 C1417 1.400 . S
C1417 C1411 1.491 . S
C1417 C1416 1.400 . S
C1417 C1418 1.398 . S
C1418 H1406 0.950 . S
C1418 C1417 1.398 . S
C1418 C1419 1.391 . S
C1419 H1407 0.950 . S
C1419 C1415 1.393 . S
C1419 C1418 1.391 . S
H1420 C1428 0.950 . S
H1421 C1433 0.950 . S
H1422 C1430 0.950 . S
H1423 C1432 0.950 . S
H1424 C1434 0.950 . S
H1425 C1436 0.950 . S
H1426 C1438 0.950 . S
H1427 C1439 0.950 . S
C1428 H1420 0.950 . S
C1428 C1429 1.386 . S
C1428 C1430 1.391 . S
C1429 C1428 1.386 . S
C1429 C1433 1.393 . S
C1430 H1422 0.950 . S
C1430 C1428 1.391 . S
C1430 C1431 1.400 . S
C1431 C1430 1.400 . S
C1431 C1432 1.398 . S
C1431 C1437 1.491 . S
C1432 H1423 0.950 . S
C1432 C1431 1.398 . S
C1432 C1433 1.391 . S
C1433 H1421 0.950 . S
C1433 C1429 1.393 . S
C1433 C1432 1.391 . S
C1434 H1424 0.950 . S
C1434 C1435 1.386 . S
C1434 C1436 1.391 1_455 S
C1435 C1434 1.386 . S
C1435 C1439 1.393 1_455 S
C1436 H1425 0.950 . S
C1436 C1434 1.391 1_655 S
C1436 C1437 1.400 . S
C1437 C1431 1.491 . S
C1437 C1436 1.400 . S
C1437 C1438 1.398 . S
C1438 H1426 0.950 . S
C1438 C1437 1.398 . S
C1438 C1439 1.391 . S
C1439 H1427 0.950 . S
C1439 C1435 1.393 1_655 S
C1439 C1438 1.391 . S
H1440 C1448 0.950 . S
H1441 C1453 0.950 . S
H1442 C1450 0.950 . S
H1443 C1452 0.950 . S
H1444 C1454 0.950 . S
H1445 C1456 0.950 . S
H1446 C1458 0.950 . S
H1447 C1459 0.950 . S
C1448 H1440 0.950 . S
C1448 C1449 1.386 . S
C1448 C1450 1.391 . S
C1449 C1448 1.386 . S
C1449 C1453 1.393 . S
C1450 H1442 0.950 . S
C1450 C1448 1.391 . S
C1450 C1451 1.400 . S
C1451 C1450 1.400 . S
C1451 C1452 1.398 . S
C1451 C1457 1.491 . S
C1452 H1443 0.950 . S
C1452 C1451 1.398 . S
C1452 C1453 1.391 . S
C1453 H1441 0.950 . S
C1453 C1449 1.393 . S
C1453 C1452 1.391 . S
C1454 H1444 0.950 . S
C1454 C1455 1.386 . S
C1454 C1456 1.391 . S
C1455 C1454 1.386 . S
C1455 C1459 1.393 . S
C1456 H1445 0.950 . S
C1456 C1454 1.391 . S
C1456 C1457 1.400 . S
C1457 C1451 1.491 . S
C1457 C1456 1.400 . S
C1457 C1458 1.398 . S
C1458 H1446 0.950 . S
C1458 C1457 1.398 . S
C1458 C1459 1.391 . S
C1459 H1447 0.950 . S
C1459 C1455 1.393 . S
C1459 C1458 1.391 . S
H1460 C1468 0.950 . S
H1461 C1473 0.950 . S
H1462 C1470 0.950 . S
H1463 C1472 0.950 . S
H1464 C1474 0.950 . S
H1465 C1476 0.950 . S
H1466 C1478 0.950 . S
H1467 C1479 0.950 1_545 S
C1468 H1460 0.950 . S
C1468 C1469 1.386 . S
C1468 C1470 1.391 . S
C1469 C1468 1.386 . S
C1469 C1473 1.393 . S
C1470 H1462 0.950 . S
C1470 C1468 1.391 . S
C1470 C1471 1.400 . S
C1471 C1470 1.400 . S
C1471 C1472 1.398 . S
C1471 C1477 1.491 . S
C1472 H1463 0.950 . S
C1472 C1471 1.398 . S
C1472 C1473 1.391 . S
C1473 H1461 0.950 . S
C1473 C1469 1.393 . S
C1473 C1472 1.391 . S
C1474 H1464 0.950 . S
C1474 C1475 1.386 . S
C1474 C1476 1.391 1_455 S
C1475 C1474 1.386 . S
C1475 C1479 1.393 1_455 S
C1476 H1465 0.950 . S
C1476 C1474 1.391 1_655 S
C1476 C1477 1.400 . S
C1477 C1471 1.491 . S
C1477 C1476 1.400 . S
C1477 C1478 1.398 . S
C1478 H1466 0.950 . S
C1478 C1477 1.398 . S
C1478 C1479 1.391 . S
C1479 H1467 0.950 1_565 S
C1479 C1475 1.393 1_655 S
C1479 C1478 1.391 . S
H1480 C1488 0.950 . S
H1481 C1493 0.950 . S
H1482 C1490 0.950 . S
H1483 C1492 0.950 . S
H1484 C1494 0.950 . S
H1485 C1496 0.950 . S
H1486 C1498 0.950 . S
H1487 C1499 0.950 . S
C1488 H1480 0.950 . S
C1488 C1489 1.386 . S
C1488 C1490 1.391 . S
C1489 C1488 1.386 . S
C1489 C1493 1.393 . S
C1490 H1482 0.950 . S
C1490 C1488 1.391 . S
C1490 C1491 1.400 . S
C1491 C1490 1.400 . S
C1491 C1492 1.398 . S
C1491 C1497 1.491 . S
C1492 H1483 0.950 . S
C1492 C1491 1.398 . S
C1492 C1493 1.391 . S
C1493 H1481 0.950 . S
C1493 C1489 1.393 . S
C1493 C1492 1.391 . S
C1494 H1484 0.950 . S
C1494 C1495 1.386 . S
C1494 C1496 1.391 . S
C1495 C1494 1.386 . S
C1495 C1499 1.393 . S
C1496 H1485 0.950 . S
C1496 C1494 1.391 . S
C1496 C1497 1.400 . S
C1497 C1491 1.491 . S
C1497 C1496 1.400 . S
C1497 C1498 1.398 . S
C1498 H1486 0.950 . S
C1498 C1497 1.398 . S
C1498 C1499 1.391 . S
C1499 H1487 0.950 . S
C1499 C1495 1.393 . S
C1499 C1498 1.391 . S
H1500 C1508 0.950 1_565 S
H1501 C1513 0.950 . S
H1502 C1510 0.950 . S
H1503 C1512 0.950 . S
H1504 C1514 0.950 . S
H1505 C1516 0.950 . S
H1506 C1518 0.950 . S
H1507 C1519 0.950 . S
C1508 H1500 0.950 1_545 S
C1508 C1509 1.386 . S
C1508 C1510 1.391 . S
C1509 C1508 1.386 . S
C1509 C1513 1.393 . S
C1510 H1502 0.950 . S
C1510 C1508 1.391 . S
C1510 C1511 1.400 . S
C1511 C1510 1.400 . S
C1511 C1512 1.398 . S
C1511 C1517 1.491 . S
C1512 H1503 0.950 . S
C1512 C1511 1.398 . S
C1512 C1513 1.391 . S
C1513 H1501 0.950 . S
C1513 C1509 1.393 . S
C1513 C1512 1.391 . S
C1514 H1504 0.950 . S
C1514 C1515 1.386 . S
C1514 C1516 1.391 . S
C1515 C1514 1.386 . S
C1515 C1519 1.393 . S
C1516 H1505 0.950 . S
C1516 C1514 1.391 . S
C1516 C1517 1.400 . S
C1517 C1511 1.491 . S
C1517 C1516 1.400 . S
C1517 C1518 1.398 . S
C1518 H1506 0.950 . S
C1518 C1517 1.398 . S
C1518 C1519 1.391 . S
C1519 H1507 0.950 . S
C1519 C1515 1.393 . S
C1519 C1518 1.391 . S
H1520 C1528 0.950 . S
H1521 C1533 0.950 . S
H1522 C1530 0.950 . S
H1523 C1532 0.950 . S
H1524 C1534 0.950 . S
H1525 C1536 0.950 . S
H1526 C1538 0.950 . S
H1527 C1539 0.950 . S
C1528 H1520 0.950 . S
C1528 C1529 1.386 . S
C1528 C1530 1.391 . S
C1529 C1528 1.386 . S
C1529 C1533 1.393 . S
C1530 H1522 0.950 . S
C1530 C1528 1.391 . S
C1530 C1531 1.400 . S
C1531 C1530 1.400 . S
C1531 C1532 1.398 . S
C1531 C1537 1.491 . S
C1532 H1523 0.950 . S
C1532 C1531 1.398 . S
C1532 C1533 1.391 . S
C1533 H1521 0.950 . S
C1533 C1529 1.393 . S
C1533 C1532 1.391 . S
C1534 H1524 0.950 . S
C1534 C1535 1.386 . S
C1534 C1536 1.391 . S
C1535 C1534 1.386 . S
C1535 C1539 1.393 . S
C1536 H1525 0.950 . S
C1536 C1534 1.391 . S
C1536 C1537 1.400 . S
C1537 C1531 1.491 . S
C1537 C1536 1.400 . S
C1537 C1538 1.398 . S
C1538 H1526 0.950 . S
C1538 C1537 1.398 . S
C1538 C1539 1.391 . S
C1539 H1527 0.950 . S
C1539 C1535 1.393 . S
C1539 C1538 1.391 . S
H1540 C1548 0.950 1_565 S
H1541 C1553 0.950 1_655 S
H1542 C1550 0.950 . S
H1543 C1552 0.950 . S
H1544 C1554 0.950 . S
H1545 C1556 0.950 . S
H1546 C1558 0.950 . S
H1547 C1559 0.950 . S
C1548 H1540 0.950 1_545 S
C1548 C1549 1.386 1_455 S
C1548 C1550 1.391 . S
C1549 C1548 1.386 1_655 S
C1549 C1553 1.393 1_655 S
C1550 H1542 0.950 . S
C1550 C1548 1.391 . S
C1550 C1551 1.400 . S
C1551 C1550 1.400 . S
C1551 C1552 1.398 . S
C1551 C1557 1.491 . S
C1552 H1543 0.950 . S
C1552 C1551 1.398 . S
C1552 C1553 1.391 . S
C1553 H1541 0.950 1_455 S
C1553 C1549 1.393 1_455 S
C1553 C1552 1.391 . S
C1554 H1544 0.950 . S
C1554 C1555 1.386 . S
C1554 C1556 1.391 . S
C1555 C1554 1.386 . S
C1555 C1559 1.393 . S
C1556 H1545 0.950 . S
C1556 C1554 1.391 . S
C1556 C1557 1.400 . S
C1557 C1551 1.491 . S
C1557 C1556 1.400 . S
C1557 C1558 1.398 . S
C1558 H1546 0.950 . S
C1558 C1557 1.398 . S
C1558 C1559 1.391 . S
C1559 H1547 0.950 . S
C1559 C1555 1.393 . S
C1559 C1558 1.391 . S
H1560 C1568 0.950 . S
H1561 C1573 0.950 . S
H1562 C1570 0.950 . S
H1563 C1572 0.950 . S
H1564 C1574 0.950 . S
H1565 C1576 0.950 . S
H1566 C1578 0.950 . S
H1567 C1579 0.950 . S
C1568 H1560 0.950 . S
C1568 C1569 1.386 . S
C1568 C1570 1.391 . S
C1569 C1568 1.386 . S
C1569 C1573 1.393 . S
C1570 H1562 0.950 . S
C1570 C1568 1.391 . S
C1570 C1571 1.400 . S
C1571 C1570 1.400 . S
C1571 C1572 1.398 . S
C1571 C1577 1.491 . S
C1572 H1563 0.950 . S
C1572 C1571 1.398 . S
C1572 C1573 1.391 . S
C1573 H1561 0.950 . S
C1573 C1569 1.393 . S
C1573 C1572 1.391 . S
C1574 H1564 0.950 . S
C1574 C1575 1.386 . S
C1574 C1576 1.391 . S
C1575 C1574 1.386 . S
C1575 C1579 1.393 . S
C1576 H1565 0.950 . S
C1576 C1574 1.391 . S
C1576 C1577 1.400 . S
C1577 C1571 1.491 . S
C1577 C1576 1.400 . S
C1577 C1578 1.398 . S
C1578 H1566 0.950 . S
C1578 C1577 1.398 . S
C1578 C1579 1.391 . S
C1579 H1567 0.950 . S
C1579 C1575 1.393 . S
C1579 C1578 1.391 . S
H1580 C1588 0.950 . S
H1581 C1593 0.950 . S
H1582 C1590 0.950 . S
H1583 C1592 0.950 . S
H1584 C1594 0.950 . S
H1585 C1596 0.950 . S
H1586 C1598 0.950 . S
H1587 C1599 0.950 . S
C1588 H1580 0.950 . S
C1588 C1589 1.386 . S
C1588 C1590 1.391 . S
C1589 C1588 1.386 . S
C1589 C1593 1.393 . S
C1590 H1582 0.950 . S
C1590 C1588 1.391 . S
C1590 C1591 1.400 . S
C1591 C1590 1.400 . S
C1591 C1592 1.398 . S
C1591 C1597 1.491 . S
C1592 H1583 0.950 . S
C1592 C1591 1.398 . S
C1592 C1593 1.391 . S
C1593 H1581 0.950 . S
C1593 C1589 1.393 . S
C1593 C1592 1.391 . S
C1594 H1584 0.950 . S
C1594 C1595 1.386 . S
C1594 C1596 1.391 . S
C1595 C1594 1.386 . S
C1595 C1599 1.393 . S
C1596 H1585 0.950 . S
C1596 C1594 1.391 . S
C1596 C1597 1.400 . S
C1597 C1591 1.491 . S
C1597 C1596 1.400 . S
C1597 C1598 1.398 . S
C1598 H1586 0.950 . S
C1598 C1597 1.398 . S
C1598 C1599 1.391 . S
C1599 H1587 0.950 . S
C1599 C1595 1.393 . S
C1599 C1598 1.391 . S
C649 C25 0.995 . S
C655 C484 0.995 . S
C669 C204 0.970 . S
C675 C65 0.970 . S
C689 C105 1.035 . S
C695 C564 1.035 . S
C709 C145 1.023 . S
C715 C284 1.023 . S
C729 C164 1.033 . S
C735 C345 1.033 . S
C749 C425 1.020 . S
C755 C244 1.020 . S
C769 C524 1.029 . S
C775 C385 1.029 . S
C789 C465 0.981 . S
C795 C604 0.981 . S
C809 C362 2.170 . S
C815 C4 2.147 . S
C829 C44 2.146 . S
C835 C402 2.164 . S
C849 C84 2.147 . S
C855 C442 2.168 . S
C869 C322 2.154 . S
C875 C124 2.134 . S
C889 C543 2.170 . S
C895 C185 2.142 . S
C909 C583 2.158 . S
C915 C225 2.141 . S
C929 C265 2.134 . S
C935 C623 2.165 . S
C949 C503 2.170 . S
C955 C305 2.142 . S
C969 C324 2.128 . S
C975 C42 2.155 . S
C989 C364 2.147 . S
C995 C82 2.168 . S
C1009 C404 2.146 . S
C1015 C122 2.165 . S
C1029 C2 2.165 . S
C1035 C444 2.147 . S
C1049 C223 2.157 . S
C1055 C505 2.139 . S
C1069 C545 2.130 . S
C1075 C263 2.161 . S
C1089 C303 2.155 . S
C1095 C585 2.135 . S
C1109 C625 2.132 . S
C1115 C183 2.164 . S
C1129 C31 3.105 . S
C1135 C431 3.109 . S
C1149 C71 3.105 . S
C1155 C471 3.111 . S
C1169 C351 3.105 . S
C1175 C111 3.111 . S
C1189 C151 3.111 . S
C1195 C391 3.105 . S
C1209 C180 3.104 . S
C1215 C580 3.110 . S
C1229 C220 3.107 . S
C1235 C620 3.111 . S
C1249 C500 3.107 . S
C1255 C260 3.111 . S
C1269 C300 3.111 . S
C1275 C540 3.106 . S
C1289 C23 1.637 . S
C1295 C311 1.886 . S
C1309 C511 1.881 . S
C1315 C63 1.629 . S
C1329 C103 1.639 . S
C1335 C231 1.884 . S
C1349 C143 1.655 . S
C1355 C591 1.890 . S
C1369 C162 1.663 . S
C1375 C140 1.894 . S
C1389 C340 1.897 . S
C1395 C202 1.668 . S
C1409 C242 1.652 . S
C1415 C60 1.889 . S
C1429 C420 1.884 . S
C1435 C282 1.634 . S
C1449 C343 1.641 . S
C1455 C631 1.884 . S
C1469 C191 1.895 . S
C1475 C383 1.667 . S
C1489 C551 1.881 . S
C1495 C423 1.628 . S
C1509 C463 1.665 . S
C1515 C271 1.894 . S
C1529 C482 1.665 . S
C1535 C460 1.894 . S
C1549 C522 1.637 . S
C1555 C20 1.883 . S
C1569 C380 1.885 . S
C1575 C562 1.635 . S
C1589 C100 1.889 . S
C1595 C602 1.644 . S
