# Generated by pormake.
# Topology dia, (4)-cn, num edge types: 1
# Building blocks:
#     Node 0, Type 0, BuildingBlock: GALJAG_clean_sbu_0, # of connection points: 4
#     Node 1, Type 0, BuildingBlock: GALJAG_clean_sbu_0, # of connection points: 4
#     Node 2, Type 0, BuildingBlock: GALJAG_clean_sbu_0, # of connection points: 4
#     Node 3, Type 0, BuildingBlock: GALJAG_clean_sbu_0, # of connection points: 4
#     Node 4, Type 0, BuildingBlock: GALJAG_clean_sbu_0, # of connection points: 4
#     Node 5, Type 0, BuildingBlock: GALJAG_clean_sbu_0, # of connection points: 4
#     Node 6, Type 0, BuildingBlock: GALJAG_clean_sbu_0, # of connection points: 4
#     Node 7, Type 0, BuildingBlock: GALJAG_clean_sbu_0, # of connection points: 4
#     Edge 8, Type (0, 0), BuildingBlock: TEMPAE_clean_linker_10, # of connection points: 2
#     Edge 9, Type (0, 0), BuildingBlock: TEMPAE_clean_linker_10, # of connection points: 2
#     Edge 10, Type (0, 0), BuildingBlock: TEMPAE_clean_linker_10, # of connection points: 2
#     Edge 11, Type (0, 0), BuildingBlock: TEMPAE_clean_linker_10, # of connection points: 2
#     Edge 12, Type (0, 0), BuildingBlock: TEMPAE_clean_linker_10, # of connection points: 2
#     Edge 13, Type (0, 0), BuildingBlock: TEMPAE_clean_linker_10, # of connection points: 2
#     Edge 14, Type (0, 0), BuildingBlock: TEMPAE_clean_linker_10, # of connection points: 2
#     Edge 15, Type (0, 0), BuildingBlock: TEMPAE_clean_linker_10, # of connection points: 2
#     Edge 16, Type (0, 0), BuildingBlock: TEMPAE_clean_linker_10, # of connection points: 2
#     Edge 17, Type (0, 0), BuildingBlock: TEMPAE_clean_linker_10, # of connection points: 2
#     Edge 18, Type (0, 0), BuildingBlock: TEMPAE_clean_linker_10, # of connection points: 2
#     Edge 19, Type (0, 0), BuildingBlock: TEMPAE_clean_linker_10, # of connection points: 2
#     Edge 20, Type (0, 0), BuildingBlock: TEMPAE_clean_linker_10, # of connection points: 2
#     Edge 21, Type (0, 0), BuildingBlock: TEMPAE_clean_linker_10, # of connection points: 2
#     Edge 22, Type (0, 0), BuildingBlock: TEMPAE_clean_linker_10, # of connection points: 2
#     Edge 23, Type (0, 0), BuildingBlock: TEMPAE_clean_linker_10, # of connection points: 2
# Relax obj value: 0.058
# Max RMSD: 0.096
# Mean RMSD: 0.096
data_MOF--net-dia--node1-GALJAG_clean_sbu_0--edge1-TEMPAE_clean_linker_10
_symmetry_space_group_name_H-M    P1
_symmetry_Int_Tables_number       1
_symmetry_cell_setting            triclinic
loop_
_symmetry_equiv_pos_as_xyz
'x, y, z'
_cell_length_a     23.293472
_cell_length_b     40.285328
_cell_length_c     40.366705
_cell_angle_alpha  89.936815
_cell_angle_beta   90.167437
_cell_angle_gamma 90.1931
loop_
_atom_site_label
_atom_site_type_symbol
_atom_site_fract_x
_atom_site_fract_y
_atom_site_fract_z
_atom_type_partial_charge
In0 In 0.10999 0.12641 0.62389 0.0
O1 O 0.1854 0.14624 0.59332 0.0
O2 O 0.10322 0.1688 0.5876 0.0
C3 C 0.16155 0.08732 0.66893 0.0
C4 C 0.05642 0.16731 0.66608 0.0
C5 C 0.06632 0.08316 0.57996 0.0
O6 O 0.18703 0.1121 0.6564 0.0
O7 O 0.11091 0.08268 0.65884 0.0
O8 O 0.03568 0.10545 0.59305 0.0
O9 O 0.11813 0.08293 0.58908 0.0
C10 C 0.15526 0.1682 0.57916 0.0
O11 O 0.03172 0.14179 0.65453 0.0
O12 O 0.10731 0.17176 0.6565 0.0
In13 In 0.86733 0.37379 0.87731 0.0
O14 O 0.93869 0.34466 0.85233 0.0
O15 O 0.8525 0.33753 0.83538 0.0
C16 C 0.92317 0.41652 0.91733 0.0
C17 C 0.82613 0.41742 0.8331 0.0
C18 C 0.81686 0.33162 0.92029 0.0
O19 O 0.94819 0.39176 0.90482 0.0
O20 O 0.8709 0.41927 0.90993 0.0
O21 O 0.78932 0.3552 0.90709 0.0
O22 O 0.86878 0.32981 0.91204 0.0
C23 C 0.90483 0.32988 0.83261 0.0
O24 O 0.79405 0.40347 0.8543 0.0
O25 O 0.8783 0.40901 0.83415 0.0
In26 In 0.61213 0.12336 0.12688 0.0
O27 O 0.53213 0.14171 0.1546 0.0
O28 O 0.60943 0.1698 0.15803 0.0
C29 C 0.57618 0.07829 0.08248 0.0
C30 C 0.65962 0.16469 0.08247 0.0
C31 C 0.65637 0.08247 0.17293 0.0
O32 O 0.54264 0.09987 0.09444 0.0
O33 O 0.62724 0.07955 0.09306 0.0
O34 O 0.68705 0.10395 0.15834 0.0
O35 O 0.60428 0.08199 0.16438 0.0
C36 C 0.55766 0.16683 0.16639 0.0
O37 O 0.68895 0.15169 0.10555 0.0
O38 O 0.60732 0.15646 0.08183 0.0
In39 In 0.86248 0.87188 0.37648 0.0
O40 O 0.78433 0.90128 0.35811 0.0
O41 O 0.86529 0.90876 0.33456 0.0
C42 C 0.82456 0.82589 0.41948 0.0
C43 C 0.90256 0.82917 0.33136 0.0
C44 C 0.91236 0.91508 0.41826 0.0
O45 O 0.79014 0.84391 0.40306 0.0
O46 O 0.87706 0.83107 0.41373 0.0
O47 O 0.93956 0.90265 0.39421 0.0
O48 O 0.86096 0.90564 0.42096 0.0
C49 C 0.81283 0.91622 0.33591 0.0
O50 O 0.93525 0.84293 0.35243 0.0
O51 O 0.85019 0.83693 0.33328 0.0
In52 In 0.11642 0.63019 0.1211 0.0
O53 O 0.19229 0.65835 0.09897 0.0
O54 O 0.10981 0.66368 0.07625 0.0
C55 C 0.16483 0.58858 0.1653 0.0
C56 C 0.05982 0.67309 0.16035 0.0
C57 C 0.07801 0.58557 0.0771 0.0
O58 O 0.19278 0.61238 0.15273 0.0
O59 O 0.11358 0.5862 0.15571 0.0
O60 O 0.04428 0.60163 0.09565 0.0
O61 O 0.13068 0.59234 0.08061 0.0
C62 C 0.16242 0.67141 0.07618 0.0
O63 O 0.03524 0.64811 0.14777 0.0
O64 O 0.11193 0.67637 0.1529 0.0
In65 In 0.35587 0.37624 0.3715 0.0
O66 O 0.43074 0.34537 0.35172 0.0
O67 O 0.34849 0.34058 0.32873 0.0
C68 C 0.40049 0.42027 0.41425 0.0
C69 C 0.3133 0.42138 0.32936 0.0
C70 C 0.3086 0.33248 0.41348 0.0
O71 O 0.4315 0.4057 0.39304 0.0
O72 O 0.34799 0.4125 0.41361 0.0
O73 O 0.27952 0.34587 0.39055 0.0
O74 O 0.36061 0.34118 0.41491 0.0
C75 C 0.40035 0.3317 0.32948 0.0
O76 O 0.28201 0.40741 0.35092 0.0
O77 O 0.36513 0.41239 0.32923 0.0
In78 In 0.37508 0.87652 0.86956 0.0
O79 O 0.44441 0.84697 0.84269 0.0
O80 O 0.3572 0.84089 0.82747 0.0
C81 C 0.43234 0.913 0.915 0.0
C82 C 0.33025 0.92439 0.83082 0.0
C83 C 0.32467 0.83176 0.90928 0.0
O84 O 0.45672 0.90248 0.88913 0.0
O85 O 0.38039 0.90487 0.91774 0.0
O86 O 0.29738 0.85613 0.89728 0.0
O87 O 0.37682 0.83 0.901 0.0
C88 C 0.40904 0.83278 0.82339 0.0
O89 O 0.30009 0.90867 0.85161 0.0
O90 O 0.38227 0.91601 0.82986 0.0
In91 In 0.61438 0.62129 0.62477 0.0
O92 O 0.55617 0.66668 0.63119 0.0
O93 O 0.56567 0.63417 0.67201 0.0
C94 C 0.55905 0.58039 0.58262 0.0
C95 C 0.68485 0.65835 0.58626 0.0
C96 C 0.66912 0.58084 0.66756 0.0
O97 O 0.53677 0.60735 0.59213 0.0
O98 O 0.60804 0.57448 0.59444 0.0
O99 O 0.69187 0.60762 0.65763 0.0
O100 O 0.61976 0.57506 0.65611 0.0
C101 C 0.54462 0.66076 0.6611 0.0
O102 O 0.67772 0.6644 0.61662 0.0
O103 O 0.65923 0.63277 0.57609 0.0
C104 C 0.30826 0.30624 0.46909 0.0
C105 C 0.28443 0.30856 0.43728 0.0
C106 C 0.28711 0.28329 0.49215 0.0
C107 C 0.24228 0.26144 0.48275 0.0
C108 C 0.21845 0.26344 0.45046 0.0
C109 C 0.23926 0.28743 0.42821 0.0
C110 C 0.31238 0.28267 0.52666 0.0
C111 C 0.17155 0.23998 0.43934 0.0
C112 C 0.22579 0.18361 0.53519 0.0
C113 C 0.17838 0.19184 0.55471 0.0
C114 C 0.24622 0.20572 0.51097 0.0
C115 C 0.21958 0.23706 0.50707 0.0
C116 C 0.17222 0.2456 0.52716 0.0
C117 C 0.15166 0.22265 0.55041 0.0
C118 C 0.29599 0.19549 0.48944 0.0
C119 C 0.14378 0.27915 0.52447 0.0
H120 H 0.34302 0.32279 0.47613 0.0
H121 H 0.22129 0.28908 0.40346 0.0
H122 H 0.27802 0.28662 0.54522 0.0
H123 H 0.33158 0.25804 0.53177 0.0
H124 H 0.34597 0.30199 0.53023 0.0
H125 H 0.15923 0.24395 0.41303 0.0
H126 H 0.18589 0.21392 0.44245 0.0
H127 H 0.13292 0.24326 0.45498 0.0
H128 H 0.24605 0.15962 0.53835 0.0
H129 H 0.11514 0.22907 0.56569 0.0
H130 H 0.33297 0.21241 0.4936 0.0
H131 H 0.28383 0.19755 0.46291 0.0
H132 H 0.31002 0.16964 0.49449 0.0
H133 H 0.17583 0.29907 0.52909 0.0
H134 H 0.10795 0.28204 0.54233 0.0
H135 H 0.12675 0.28287 0.49906 0.0
C136 C 0.67956 0.52431 0.69122 0.0
C137 C 0.69685 0.55767 0.69089 0.0
C138 C 0.7027 0.50183 0.71407 0.0
C139 C 0.74311 0.51317 0.73775 0.0
C140 C 0.76108 0.54683 0.73743 0.0
C141 C 0.73819 0.56867 0.71364 0.0
C142 C 0.68351 0.46598 0.71301 0.0
C143 C 0.80331 0.55991 0.76271 0.0
C144 C 0.75456 0.4599 0.81517 0.0
C145 C 0.80492 0.44209 0.809 0.0
C146 C 0.73501 0.48399 0.79269 0.0
C147 C 0.7658 0.48968 0.76298 0.0
C148 C 0.81658 0.47161 0.75661 0.0
C149 C 0.83592 0.44831 0.77992 0.0
C150 C 0.68127 0.50323 0.80062 0.0
C151 C 0.84974 0.47631 0.72485 0.0
H152 H 0.64786 0.51572 0.67344 0.0
H153 H 0.75124 0.59452 0.71351 0.0
H154 H 0.72133 0.44945 0.71088 0.0
H155 H 0.66123 0.45942 0.73638 0.0
H156 H 0.65398 0.46086 0.69195 0.0
H157 H 0.81317 0.58665 0.75896 0.0
H158 H 0.78567 0.55649 0.78799 0.0
H159 H 0.84395 0.5457 0.76149 0.0
H160 H 0.73091 0.45533 0.83782 0.0
H161 H 0.87481 0.43445 0.77507 0.0
H162 H 0.64732 0.49741 0.78217 0.0
H163 H 0.68998 0.53028 0.79904 0.0
H164 H 0.66455 0.49744 0.82573 0.0
H165 H 0.82202 0.46991 0.70336 0.0
H166 H 0.88891 0.46069 0.72394 0.0
H167 H 0.86257 0.50269 0.72198 0.0
C168 C 0.58925 0.02421 0.0536 0.0
C169 C 0.55776 0.05351 0.05771 0.0
C170 C 0.57244 0.00025 0.03028 0.0
C171 C 0.52381 0.00615 0.01005 0.0
C172 C 0.4925 0.03603 0.01368 0.0
C173 C 0.50944 0.05918 0.03782 0.0
C174 C 0.60598 0.96834 0.02778 0.0
C175 C 0.44104 0.0435 0.99213 0.0
C176 C 0.5041 0.95662 0.93056 0.0
C177 C 0.46046 0.93451 0.93975 0.0
C178 C 0.5257 0.97999 0.95329 0.0
C179 C 0.50406 0.9805 0.98608 0.0
C180 C 0.46186 0.95712 0.99578 0.0
C181 C 0.44002 0.93472 0.97236 0.0
C182 C 0.5699 0.00496 0.94189 0.0
C183 C 0.4388 0.95621 0.03071 0.0
H184 H 0.62653 0.01973 0.0691 0.0
H185 H 0.48538 0.08197 0.04078 0.0
H186 H 0.57748 0.94693 0.03333 0.0
H187 H 0.62206 0.96498 0.00217 0.0
H188 H 0.6431 0.96773 0.04511 0.0
H189 H 0.42352 0.06868 0.99672 0.0
H190 H 0.45287 0.04152 0.9656 0.0
H191 H 0.40664 0.025 0.99683 0.0
H192 H 0.51948 0.95664 0.90524 0.0
H193 H 0.40643 0.91745 0.97951 0.0
H194 H 0.60822 0.00417 0.95824 0.0
H195 H 0.55185 0.03036 0.9436 0.0
H196 H 0.58372 0.00053 0.91596 0.0
H197 H 0.4747 0.95466 0.04876 0.0
H198 H 0.40937 0.93487 0.03487 0.0
H199 H 0.41513 0.97946 0.03596 0.0
C200 C 0.89328 0.80225 0.27617 0.0
C201 C 0.9236 0.806 0.30597 0.0
C202 C 0.91284 0.78067 0.25145 0.0
C203 C 0.96294 0.76171 0.25716 0.0
C204 C -0.00695 0.76493 0.28755 0.0
C205 C 0.97347 0.78748 0.31143 0.0
C206 C 0.88059 0.77866 0.219 0.0
C207 C 0.04589 0.74454 0.29483 0.0
C208 C 0.98798 0.685 0.20446 0.0
C209 C 0.03135 0.69617 0.18322 0.0
C210 C 0.96511 0.70609 0.22873 0.0
C211 C 0.985 0.7393 0.23095 0.0
C212 C 0.02714 0.75099 0.20856 0.0
C213 C 0.05048 0.72909 0.18531 0.0
C214 C 0.92124 0.69255 0.2527 0.0
C215 C 0.04815 0.78649 0.20944 0.0
H216 H 0.85486 0.81677 0.27188 0.0
H217 H -0.0034 0.79022 0.33463 0.0
H218 H 0.90947 0.7857 0.19831 0.0
H219 H 0.86612 0.75282 0.21441 0.0
H220 H 0.8425 0.79519 0.21847 0.0
H221 H 0.06233 0.74858 0.32038 0.0
H222 H 0.03613 0.71775 0.29161 0.0
H223 H 0.08042 0.75098 0.27707 0.0
H224 H 0.97367 0.6594 0.203 0.0
H225 H 0.08387 0.73773 0.16869 0.0
H226 H 0.88162 0.70771 0.25182 0.0
H227 H 0.93835 0.69408 0.27834 0.0
H228 H 0.90974 0.66631 0.24735 0.0
H229 H 0.01123 0.80378 0.20806 0.0
H230 H 0.07801 0.79221 0.18878 0.0
H231 H 0.0707 0.79135 0.23319 0.0
C232 C 0.25652 0.96707 0.81651 0.0
C233 C 0.3068 0.94997 0.80846 0.0
C234 C 0.23422 0.99137 0.7951 0.0
C235 C 0.26203 0.99785 0.76458 0.0
C236 C 0.31286 0.98059 0.75642 0.0
C237 C 0.33506 0.95718 0.77869 0.0
C238 C 0.18069 0.00987 0.80497 0.0
C239 C 0.34286 0.98609 0.72373 0.0
C240 C 0.17049 0.0316 0.69457 0.0
C241 C 0.18841 0.06479 0.69314 0.0
C242 C 0.19456 0.00952 0.71751 0.0
C243 C 0.23627 0.02123 0.74027 0.0
C244 C 0.25401 0.0549 0.73922 0.0
C245 C 0.23047 0.07623 0.71522 0.0
C246 C 0.17578 0.97359 0.71713 0.0
C247 C 0.2973 0.06843 0.76366 0.0
H248 H 0.23497 0.96169 0.83968 0.0
H249 H 0.37384 0.94382 0.77237 0.0
H250 H 0.1881 0.03704 0.80314 0.0
H251 H 0.14509 0.0036 0.78775 0.0
H252 H 0.16693 0.00382 0.83061 0.0
H253 H 0.38245 0.97098 0.72141 0.0
H254 H 0.31343 0.9796 0.70305 0.0
H255 H 0.35449 0.01265 0.72081 0.0
H256 H 0.13817 0.02272 0.6773 0.0
H257 H 0.24387 0.10201 0.71424 0.0
H258 H 0.15629 0.96685 0.74126 0.0
H259 H 0.21357 0.9573 0.71355 0.0
H260 H 0.14407 0.96833 0.69719 0.0
H261 H 0.28216 0.06397 0.78933 0.0
H262 H 0.30491 0.09546 0.76031 0.0
H263 H 0.33876 0.05528 0.76091 0.0
C264 C 0.93597 0.47424 0.937 0.0
C265 C 0.95189 0.44082 0.93889 0.0
C266 C 0.95972 0.49779 0.95858 0.0
C267 C -0.00132 0.48735 0.98342 0.0
C268 C 0.0153 0.45357 0.98525 0.0
C269 C -0.00764 0.43072 0.96247 0.0
C270 C 0.94242 0.53373 0.9551 0.0
C271 C 0.0555 0.44141 0.01199 0.0
C272 C 0.09103 0.55272 0.02549 0.0
C273 C 0.05784 0.56038 0.05333 0.0
C274 C 0.07242 0.5289 0.0025 0.0
C275 C 0.02024 0.51172 0.00811 0.0
C276 C 0.98723 0.51887 0.03663 0.0
C277 C 0.00604 0.54354 0.05867 0.0
C278 C 0.10786 0.52268 0.97188 0.0
C279 C 0.93202 0.50051 0.04383 0.0
H280 H 0.90488 0.48198 0.91851 0.0
H281 H 0.00412 0.40474 0.964 0.0
H282 H 0.91799 0.5416 0.97727 0.0
H283 H 0.98114 0.54977 0.95352 0.0
H284 H 0.91538 0.53811 0.9328 0.0
H285 H 0.06509 0.41453 0.00956 0.0
H286 H 0.09646 0.45549 0.01124 0.0
H287 H 0.03606 0.4458 0.03666 0.0
H288 H 0.13104 0.56589 0.02132 0.0
H289 H 0.98072 0.54925 0.08042 0.0
H290 H 0.08205 0.52836 0.94943 0.0
H291 H 0.12001 0.49613 0.97047 0.0
H292 H 0.1476 0.53799 0.97136 0.0
H293 H 0.89985 0.50598 0.02428 0.0
H294 H 0.91357 0.50741 0.06821 0.0
H295 H 0.93961 0.47333 0.04354 0.0
C296 C 0.4713 0.2882 0.31336 0.0
C297 C 0.42293 0.30727 0.30571 0.0
C298 C 0.49147 0.26416 0.29108 0.0
C299 C 0.46346 0.25992 0.26014 0.0
C300 C 0.41496 0.27946 0.25223 0.0
C301 C 0.39484 0.30259 0.27531 0.0
C302 C 0.54261 0.24328 0.30064 0.0
C303 C 0.38493 0.27636 0.21915 0.0
C304 C 0.55194 0.2233 0.19062 0.0
C305 C 0.53063 0.19078 0.18901 0.0
C306 C 0.52969 0.24619 0.21326 0.0
C307 C 0.48617 0.23599 0.23547 0.0
C308 C 0.46435 0.20313 0.23392 0.0
C309 C 0.48635 0.18098 0.2103 0.0
C310 C 0.5529 0.28125 0.21346 0.0
C311 C 0.41879 0.19121 0.25768 0.0
H312 H 0.49269 0.29163 0.33701 0.0
H313 H 0.35755 0.31749 0.26929 0.0
H314 H 0.53158 0.21653 0.29858 0.0
H315 H 0.57864 0.24814 0.28339 0.0
H316 H 0.55752 0.24838 0.32631 0.0
H317 H 0.34787 0.2935 0.21685 0.0
H318 H 0.41562 0.28179 0.19886 0.0
H319 H 0.36932 0.25057 0.21553 0.0
H320 H 0.58606 0.23091 0.17401 0.0
H321 H 0.47035 0.1557 0.20924 0.0
H322 H 0.57345 0.28665 0.23768 0.0
H323 H 0.51726 0.29919 0.21021 0.0
H324 H 0.58497 0.28554 0.19358 0.0
H325 H 0.43436 0.19396 0.28354 0.0
H326 H 0.40688 0.16482 0.25345 0.0
H327 H 0.37967 0.20664 0.25517 0.0
C328 C 0.74772 0.79714 0.45217 0.0
C329 C 0.80584 0.80098 0.44416 0.0
C330 C 0.73025 0.77386 0.47609 0.0
C331 C 0.77193 0.75395 0.49221 0.0
C332 C 0.83062 0.75774 0.48416 0.0
C333 C 0.84686 0.78123 0.46028 0.0
C334 C 0.66722 0.77053 0.48409 0.0
C335 C 0.87628 0.73687 0.50066 0.0
C336 C 0.73006 0.71335 0.57375 0.0
C337 C 0.71386 0.6815 0.56327 0.0
C338 C 0.74999 0.73709 0.55096 0.0
C339 C 0.75399 0.72864 0.51699 0.0
C340 C 0.73978 0.69612 0.50653 0.0
C341 C 0.7198 0.67296 0.52979 0.0
C342 C 0.76494 0.77151 0.56305 0.0
C343 C 0.74403 0.68605 0.47058 0.0
H344 H 0.71592 0.81242 0.43986 0.0
H345 H 0.89191 0.78407 0.45421 0.0
H346 H 0.65237 0.74491 0.47862 0.0
H347 H 0.66021 0.77491 0.51091 0.0
H348 H 0.64037 0.78823 0.46977 0.0
H349 H 0.92013 0.74313 0.49183 0.0
H350 H 0.87485 0.74038 0.5279 0.0
H351 H 0.868 0.71019 0.49575 0.0
H352 H 0.72525 0.72012 0.59958 0.0
H353 H 0.70733 0.64836 0.52154 0.0
H354 H 0.73545 0.78985 0.55162 0.0
H355 H 0.80915 0.77826 0.55536 0.0
H356 H 0.76191 0.77368 0.59042 0.0
H357 H 0.71391 0.70109 0.45547 0.0
H358 H 0.73382 0.65937 0.46675 0.0
H359 H 0.78793 0.691 0.46116 0.0
C360 C 0.16646 0.53261 0.19082 0.0
C361 C 0.18926 0.56479 0.18913 0.0
C362 C 0.18739 0.50954 0.21377 0.0
C363 C 0.23102 0.51923 0.23625 0.0
C364 C 0.25398 0.55183 0.23482 0.0
C365 C 0.23336 0.57416 0.21084 0.0
C366 C 0.16303 0.47473 0.21382 0.0
C367 C 0.29961 0.56322 0.25893 0.0
C368 C 0.244 0.46588 0.31354 0.0
C369 C 0.29173 0.44638 0.30583 0.0
C370 C 0.22479 0.49051 0.29153 0.0
C371 C 0.25308 0.4949 0.2608 0.0
C372 C 0.30097 0.47497 0.25283 0.0
C373 C 0.3202 0.45125 0.27567 0.0
C374 C 0.17435 0.51183 0.30115 0.0
C375 C 0.33119 0.47821 0.21992 0.0
H376 H 0.13254 0.52533 0.17383 0.0
H377 H 0.25055 0.59917 0.20966 0.0
H378 H 0.19805 0.45645 0.21041 0.0
H379 H 0.14266 0.46933 0.23804 0.0
H380 H 0.13055 0.47093 0.19396 0.0
H381 H 0.31174 0.58964 0.25513 0.0
H382 H 0.28405 0.56006 0.2847 0.0
H383 H 0.3386 0.54773 0.25629 0.0
H384 H 0.22238 0.4623 0.33703 0.0
H385 H 0.35702 0.43603 0.26965 0.0
H386 H 0.13808 0.50747 0.28381 0.0
H387 H 0.18615 0.53848 0.29926 0.0
H388 H 0.15941 0.50666 0.32675 0.0
H389 H 0.30042 0.47328 0.19945 0.0
H390 H 0.36779 0.46076 0.2176 0.0
H391 H 0.34748 0.50389 0.21662 0.0
C392 C 0.74609 0.3163 0.96429 0.0
C393 C 0.7912 0.30739 0.94331 0.0
C394 C 0.72439 0.2936 0.98763 0.0
C395 C 0.74727 0.26106 0.98912 0.0
C396 C 0.79178 0.25179 0.96727 0.0
C397 C 0.8138 0.27524 0.94499 0.0
C398 C 0.67782 0.30458 0.01107 0.0
C399 C 0.81609 0.21706 0.96734 0.0
C400 C 0.73137 0.20807 0.06657 0.0
C401 C 0.68344 0.18862 0.05846 0.0
C402 C 0.75184 0.23235 0.04452 0.0
C403 C 0.72462 0.2365 0.01334 0.0
C404 C 0.67682 0.21643 0.00487 0.0
C405 C 0.65633 0.19304 0.02774 0.0
C406 C 0.80219 0.25377 0.05468 0.0
C407 C 0.64769 0.21941 0.97153 0.0
H408 H 0.729 0.34127 0.96311 0.0
H409 H 0.84847 0.26829 0.92855 0.0
H410 H 0.6391 0.2888 0.00785 0.0
H411 H 0.69255 0.30148 0.03706 0.0
H412 H 0.66553 0.33092 0.00717 0.0
H413 H 0.84899 0.21351 0.9478 0.0
H414 H 0.83592 0.21159 0.99174 0.0
H415 H 0.78113 0.19868 0.96344 0.0
H416 H 0.75193 0.20489 0.09049 0.0
H417 H 0.61932 0.1779 0.02142 0.0
H418 H 0.79034 0.28038 0.05296 0.0
H419 H 0.83865 0.24974 0.03755 0.0
H420 H 0.81685 0.24843 0.08034 0.0
H421 H 0.63092 0.24492 0.96808 0.0
H422 H 0.61156 0.20157 0.96863 0.0
H423 H 0.67923 0.21493 0.95149 0.0
C424 C 0.74102 0.96017 0.32195 0.0
C425 C 0.78764 0.94044 0.3127 0.0
C426 C 0.71941 0.98452 0.30032 0.0
C427 C 0.74395 0.98832 0.26844 0.0
C428 C 0.79026 0.96787 0.25883 0.0
C429 C 0.8121 0.94454 0.28129 0.0
C430 C 0.67093 0.00646 0.3117 0.0
C431 C 0.81643 0.97038 0.22472 0.0
C432 C 0.65357 0.02745 0.20065 0.0
C433 C 0.67916 0.05881 0.19748 0.0
C434 C 0.67431 0.00426 0.22361 0.0
C435 C 0.72055 0.0131 0.24468 0.0
C436 C 0.74578 0.04507 0.24206 0.0
C437 C 0.72538 0.0674 0.21801 0.0
C438 C 0.64755 0.97008 0.22482 0.0
C439 C 0.79416 0.05567 0.2647 0.0
H440 H 0.72252 0.95716 0.34639 0.0
H441 H 0.848 0.9291 0.27408 0.0
H442 H 0.68389 0.03293 0.30978 0.0
H443 H 0.63294 0.00294 0.29544 0.0
H444 H 0.65812 0.0012 0.33768 0.0
H445 H 0.85109 0.95192 0.22084 0.0
H446 H 0.78282 0.96647 0.20556 0.0
H447 H 0.83452 0.99558 0.22083 0.0
H448 H 0.618 0.02076 0.18457 0.0
H449 H 0.74476 0.0918 0.21572 0.0
H450 H 0.63023 0.96507 0.2499 0.0
H451 H 0.6807 0.95102 0.21981 0.0
H452 H 0.61225 0.96709 0.20649 0.0
H453 H 0.78141 0.05218 0.29095 0.0
H454 H 0.80656 0.08205 0.26089 0.0
H455 H 0.83236 0.03993 0.26035 0.0
C456 C 0.98209 0.96036 0.43172 0.0
C457 C 0.93767 0.9391 0.44159 0.0
C458 C 0.0035 0.98471 0.45341 0.0
C459 C 0.98096 0.98701 0.48589 0.0
C460 C 0.93706 0.96496 0.49614 0.0
C461 C 0.91538 0.94158 0.47368 0.0
C462 C 0.04946 0.00832 0.44143 0.0
C463 C 0.91311 0.96597 0.53087 0.0
C464 C 0.07178 0.02829 0.5522 0.0
C465 C 0.04397 0.05884 0.55593 0.0
C466 C 0.05167 0.00466 0.52949 0.0
C467 C 0.00354 0.0122 0.50943 0.0
C468 C 0.97586 0.04328 0.5127 0.0
C469 C -0.00405 0.06611 0.53634 0.0
C470 C 0.08129 0.97143 0.52741 0.0
C471 C 0.92518 0.05243 0.49119 0.0
H472 H -0.0011 0.95858 0.40677 0.0
H473 H 0.88119 0.92495 0.48135 0.0
H474 H 0.03428 0.03429 0.44374 0.0
H475 H 0.08846 0.00595 0.45707 0.0
H476 H 0.06146 0.0037 0.41522 0.0
H477 H 0.8805 0.94627 0.53522 0.0
H478 H 0.9483 0.96294 0.5492 0.0
H479 H 0.89302 0.99044 0.53556 0.0
H480 H 0.10879 0.0226 0.56752 0.0
H481 H 0.97482 0.08989 0.53906 0.0
H482 H 0.09739 0.96726 0.50193 0.0
H483 H 0.05021 0.95124 0.53292 0.0
H484 H 0.11796 0.96945 0.54495 0.0
H485 H 0.93663 0.0498 0.46466 0.0
H486 H 0.91047 0.07825 0.49561 0.0
H487 H 0.88886 0.03525 0.49608 0.0
C488 C 0.97598 0.28814 0.81323 0.0
C489 C 0.92453 0.30531 0.80819 0.0
C490 C -0.00541 0.26431 0.79037 0.0
C491 C 0.9617 0.2583 0.7614 0.0
C492 C 0.9098 0.27572 0.75617 0.0
C493 C 0.89142 0.29873 0.7799 0.0
C494 C 0.04955 0.24568 0.79713 0.0
C495 C 0.87444 0.27067 0.72515 0.0
C496 C 0.04509 0.22404 0.68875 0.0
C497 C 0.02882 0.19056 0.68911 0.0
C498 C 0.02203 0.24655 0.71148 0.0
C499 C 0.98319 0.23499 0.73583 0.0
C500 C 0.96628 0.20116 0.73616 0.0
C501 C 0.9887 0.17937 0.71236 0.0
C502 C 0.03977 0.28261 0.70966 0.0
C503 C 0.92605 0.18783 0.76226 0.0
H504 H 0.00128 0.29301 0.83529 0.0
H505 H 0.8517 0.31213 0.77596 0.0
H506 H 0.04168 0.21853 0.79571 0.0
H507 H 0.0819 0.25194 0.77798 0.0
H508 H 0.06791 0.25161 0.82186 0.0
H509 H 0.83473 0.28588 0.72508 0.0
H510 H 0.90032 0.27736 0.70308 0.0
H511 H 0.86222 0.24417 0.72259 0.0
H512 H 0.07584 0.23269 0.67053 0.0
H513 H 0.97658 0.15336 0.71271 0.0
H514 H 0.06389 0.28955 0.73236 0.0
H515 H 0.00123 0.29868 0.70842 0.0
H516 H 0.06721 0.28793 0.68781 0.0
H517 H 0.9454 0.19136 0.78717 0.0
H518 H 0.91647 0.16102 0.75877 0.0
H519 H 0.88508 0.20177 0.76186 0.0
C520 C 0.50454 0.71725 0.67169 0.0
C521 C 0.51558 0.68492 0.68287 0.0
C522 C 0.48456 0.74174 0.6935 0.0
C523 C 0.47507 0.73359 0.72719 0.0
C524 C 0.4838 0.70063 0.73824 0.0
C525 C 0.50413 0.67671 0.71596 0.0
C526 C 0.47574 0.77662 0.6808 0.0
C527 C 0.47353 0.69087 0.77387 0.0
C528 C 0.48436 0.80146 0.79237 0.0
C529 C 0.42627 0.80803 0.7983 0.0
C530 C 0.50083 0.77761 0.76892 0.0
C531 C 0.45815 0.75977 0.75121 0.0
C532 C 0.39944 0.76644 0.757 0.0
C533 C 0.38422 0.79058 0.78038 0.0
C534 C 0.56392 0.77134 0.76326 0.0
C535 C 0.35271 0.74778 0.7388 0.0
H536 H 0.51355 0.72376 0.64616 0.0
H537 H 0.51255 0.65174 0.72473 0.0
H538 H 0.43189 0.78532 0.68689 0.0
H539 H 0.5065 0.7937 0.69317 0.0
H540 H 0.48194 0.77848 0.65358 0.0
H541 H 0.47896 0.66379 0.77802 0.0
H542 H 0.50403 0.70436 0.79021 0.0
H543 H 0.42954 0.69799 0.7815 0.0
H544 H 0.51699 0.81495 0.80609 0.0
H545 H 0.3392 0.7955 0.78489 0.0
H546 H 0.57445 0.77502 0.73672 0.0
H547 H 0.5743 0.74522 0.76954 0.0
H548 H 0.59171 0.78796 0.77835 0.0
H549 H 0.35804 0.75085 0.71167 0.0
H550 H 0.30909 0.75633 0.74575 0.0
H551 H 0.356 0.72085 0.74426 0.0
C552 C 0.16076 0.69678 0.01998 0.0
C553 C 0.18667 0.69415 0.05124 0.0
C554 C 0.18269 0.71851 0.99595 0.0
C555 C 0.23053 0.73881 0.00381 0.0
C556 C 0.25653 0.73644 0.0355 0.0
C557 C 0.23478 0.71369 0.05871 0.0
C558 C 0.15492 0.71959 0.96211 0.0
C559 C 0.30672 0.75826 0.04505 0.0
C560 C 0.32163 0.77568 0.93513 0.0
C561 C 0.29865 0.80765 0.9323 0.0
C562 C 0.299 0.75276 0.95781 0.0
C563 C 0.2535 0.76245 0.97882 0.0
C564 C 0.2302 0.79478 0.97606 0.0
C565 C 0.25255 0.81688 0.95243 0.0
C566 C 0.32385 0.71821 0.95933 0.0
C567 C 0.18256 0.80626 -0.00144 0.0
H568 H 0.12376 0.68144 0.01415 0.0
H569 H 0.25448 0.7118 0.083 0.0
H570 H 0.13762 0.74474 0.95723 0.0
H571 H 0.1874 0.71444 0.94274 0.0
H572 H 0.11938 0.70129 0.95962 0.0
H573 H 0.3209 0.75404 0.07101 0.0
H574 H 0.3435 0.75353 0.02834 0.0
H575 H 0.29488 0.78477 0.04214 0.0
H576 H 0.35712 0.7685 0.91939 0.0
H577 H 0.23516 0.84173 0.95042 0.0
H578 H 0.28927 0.69949 0.95593 0.0
H579 H 0.3433 0.71378 0.98405 0.0
H580 H 0.3572 0.71413 0.94016 0.0
H581 H 0.1443 0.79009 0.99548 0.0
H582 H 0.16982 0.83234 0.99357 0.0
H583 H 0.19647 0.80423 0.02481 0.0
C584 C 0.47428 0.46166 0.43255 0.0
C585 C 0.42307 0.4444 0.43848 0.0
C586 C 0.49479 0.48525 0.45535 0.0
C587 C 0.46402 0.49092 0.48505 0.0
C588 C 0.41249 0.47331 0.49117 0.0
C589 C 0.39229 0.45056 0.46761 0.0
C590 C 0.54937 0.50404 0.44773 0.0
C591 C 0.3793 0.47798 0.52291 0.0
C592 C 0.54872 0.52424 0.5581 0.0
C593 C 0.53179 0.55758 0.55874 0.0
C594 C 0.52634 0.50223 0.53452 0.0
C595 C 0.48708 0.51405 0.51049 0.0
C596 C 0.46963 0.54772 0.51106 0.0
C597 C 0.49173 0.56907 0.53553 0.0
C598 C 0.54484 0.46632 0.5353 0.0
C599 C 0.42857 0.56129 0.48545 0.0
H600 H 0.4978 0.4571 0.40988 0.0
H601 H 0.35277 0.43707 0.4723 0.0
H602 H 0.54161 0.53116 0.44929 0.0
H603 H 0.58278 0.4979 0.46637 0.0
H604 H 0.56627 0.49817 0.42272 0.0
H605 H 0.33975 0.46251 0.52373 0.0
H606 H 0.40675 0.47138 0.54443 0.0
H607 H 0.36704 0.50439 0.52582 0.0
H608 H 0.57953 0.5153 0.57619 0.0
H609 H 0.47908 0.59494 0.53587 0.0
H610 H 0.56708 0.45993 0.51192 0.0
H611 H 0.50667 0.44989 0.53724 0.0
H612 H 0.57415 0.4609 0.55637 0.0
H613 H 0.44659 0.55771 0.46029 0.0
H614 H 0.41979 0.58813 0.48911 0.0
H615 H 0.3873 0.54752 0.48639 0.0
loop_
_geom_bond_atom_site_label_1
_geom_bond_atom_site_label_2
_geom_bond_distance
_geom_bond_site_symmetry_2
_ccdc_geom_bond_type
In0 O1 2.294 . S
In0 O2 2.326 . S
In0 O6 2.266 . S
In0 O7 2.326 . S
In0 O8 2.266 . S
In0 O9 2.326 . S
In0 O11 2.294 . S
In0 O12 2.326 . S
O1 In0 2.294 . S
O1 C10 1.240 . S
O2 In0 2.326 . S
O2 C10 1.252 . S
C3 O6 1.252 . S
C3 O7 1.260 . S
C4 O11 1.240 . S
C4 O12 1.252 . S
C5 O8 1.252 . S
C5 O9 1.260 . S
O6 In0 2.266 . S
O6 C3 1.252 . S
O7 In0 2.326 . S
O7 C3 1.260 . S
O8 In0 2.266 . S
O8 C5 1.252 . S
O9 In0 2.326 . S
O9 C5 1.260 . S
C10 O1 1.240 . S
C10 O2 1.252 . S
O11 In0 2.294 . S
O11 C4 1.240 . S
O12 In0 2.326 . S
O12 C4 1.252 . S
In13 O14 2.294 . S
In13 O15 2.326 . S
In13 O19 2.266 . S
In13 O20 2.326 . S
In13 O21 2.266 . S
In13 O22 2.326 . S
In13 O24 2.294 . S
In13 O25 2.326 . S
O14 In13 2.294 . S
O14 C23 1.240 . S
O15 In13 2.326 . S
O15 C23 1.252 . S
C16 O19 1.252 . S
C16 O20 1.260 . S
C17 O24 1.240 . S
C17 O25 1.252 . S
C18 O21 1.252 . S
C18 O22 1.260 . S
O19 In13 2.266 . S
O19 C16 1.252 . S
O20 In13 2.326 . S
O20 C16 1.260 . S
O21 In13 2.266 . S
O21 C18 1.252 . S
O22 In13 2.326 . S
O22 C18 1.260 . S
C23 O14 1.240 . S
C23 O15 1.252 . S
O24 In13 2.294 . S
O24 C17 1.240 . S
O25 In13 2.326 . S
O25 C17 1.252 . S
In26 O27 2.294 . S
In26 O28 2.326 . S
In26 O32 2.266 . S
In26 O33 2.326 . S
In26 O34 2.266 . S
In26 O35 2.326 . S
In26 O37 2.294 . S
In26 O38 2.326 . S
O27 In26 2.294 . S
O27 C36 1.240 . S
O28 In26 2.326 . S
O28 C36 1.252 . S
C29 O32 1.252 . S
C29 O33 1.260 . S
C30 O37 1.240 . S
C30 O38 1.252 . S
C31 O34 1.252 . S
C31 O35 1.260 . S
O32 In26 2.266 . S
O32 C29 1.252 . S
O33 In26 2.326 . S
O33 C29 1.260 . S
O34 In26 2.266 . S
O34 C31 1.252 . S
O35 In26 2.326 . S
O35 C31 1.260 . S
C36 O27 1.240 . S
C36 O28 1.252 . S
O37 In26 2.294 . S
O37 C30 1.240 . S
O38 In26 2.326 . S
O38 C30 1.252 . S
In39 O40 2.294 . S
In39 O41 2.326 . S
In39 O45 2.266 . S
In39 O46 2.326 . S
In39 O47 2.266 . S
In39 O48 2.326 . S
In39 O50 2.294 . S
In39 O51 2.326 . S
O40 In39 2.294 . S
O40 C49 1.240 . S
O41 In39 2.326 . S
O41 C49 1.252 . S
C42 O45 1.252 . S
C42 O46 1.260 . S
C43 O50 1.240 . S
C43 O51 1.252 . S
C44 O47 1.252 . S
C44 O48 1.260 . S
O45 In39 2.266 . S
O45 C42 1.252 . S
O46 In39 2.326 . S
O46 C42 1.260 . S
O47 In39 2.266 . S
O47 C44 1.252 . S
O48 In39 2.326 . S
O48 C44 1.260 . S
C49 O40 1.240 . S
C49 O41 1.252 . S
O50 In39 2.294 . S
O50 C43 1.240 . S
O51 In39 2.326 . S
O51 C43 1.252 . S
In52 O53 2.294 . S
In52 O54 2.326 . S
In52 O58 2.266 . S
In52 O59 2.326 . S
In52 O60 2.266 . S
In52 O61 2.326 . S
In52 O63 2.294 . S
In52 O64 2.326 . S
O53 In52 2.294 . S
O53 C62 1.240 . S
O54 In52 2.326 . S
O54 C62 1.252 . S
C55 O58 1.252 . S
C55 O59 1.260 . S
C56 O63 1.240 . S
C56 O64 1.252 . S
C57 O60 1.252 . S
C57 O61 1.260 . S
O58 In52 2.266 . S
O58 C55 1.252 . S
O59 In52 2.326 . S
O59 C55 1.260 . S
O60 In52 2.266 . S
O60 C57 1.252 . S
O61 In52 2.326 . S
O61 C57 1.260 . S
C62 O53 1.240 . S
C62 O54 1.252 . S
O63 In52 2.294 . S
O63 C56 1.240 . S
O64 In52 2.326 . S
O64 C56 1.252 . S
In65 O66 2.294 . S
In65 O67 2.326 . S
In65 O71 2.266 . S
In65 O72 2.326 . S
In65 O73 2.266 . S
In65 O74 2.326 . S
In65 O76 2.294 . S
In65 O77 2.326 . S
O66 In65 2.294 . S
O66 C75 1.240 . S
O67 In65 2.326 . S
O67 C75 1.252 . S
C68 O71 1.252 . S
C68 O72 1.260 . S
C69 O76 1.240 . S
C69 O77 1.252 . S
C70 O73 1.252 . S
C70 O74 1.260 . S
O71 In65 2.266 . S
O71 C68 1.252 . S
O72 In65 2.326 . S
O72 C68 1.260 . S
O73 In65 2.266 . S
O73 C70 1.252 . S
O74 In65 2.326 . S
O74 C70 1.260 . S
C75 O66 1.240 . S
C75 O67 1.252 . S
O76 In65 2.294 . S
O76 C69 1.240 . S
O77 In65 2.326 . S
O77 C69 1.252 . S
In78 O79 2.294 . S
In78 O80 2.326 . S
In78 O84 2.266 . S
In78 O85 2.326 . S
In78 O86 2.266 . S
In78 O87 2.326 . S
In78 O89 2.294 . S
In78 O90 2.326 . S
O79 In78 2.294 . S
O79 C88 1.240 . S
O80 In78 2.326 . S
O80 C88 1.252 . S
C81 O84 1.252 . S
C81 O85 1.260 . S
C82 O89 1.240 . S
C82 O90 1.252 . S
C83 O86 1.252 . S
C83 O87 1.260 . S
O84 In78 2.266 . S
O84 C81 1.252 . S
O85 In78 2.326 . S
O85 C81 1.260 . S
O86 In78 2.266 . S
O86 C83 1.252 . S
O87 In78 2.326 . S
O87 C83 1.260 . S
C88 O79 1.240 . S
C88 O80 1.252 . S
O89 In78 2.294 . S
O89 C82 1.240 . S
O90 In78 2.326 . S
O90 C82 1.252 . S
In91 O92 2.294 . S
In91 O93 2.326 . S
In91 O97 2.266 . S
In91 O98 2.326 . S
In91 O99 2.266 . S
In91 O100 2.326 . S
In91 O102 2.294 . S
In91 O103 2.326 . S
O92 In91 2.294 . S
O92 C101 1.240 . S
O93 In91 2.326 . S
O93 C101 1.252 . S
C94 O97 1.252 . S
C94 O98 1.260 . S
C95 O102 1.240 . S
C95 O103 1.252 . S
C96 O99 1.252 . S
C96 O100 1.260 . S
O97 In91 2.266 . S
O97 C94 1.252 . S
O98 In91 2.326 . S
O98 C94 1.260 . S
O99 In91 2.266 . S
O99 C96 1.252 . S
O100 In91 2.326 . S
O100 C96 1.260 . S
C101 O92 1.240 . S
C101 O93 1.252 . S
O102 In91 2.294 . S
O102 C95 1.240 . S
O103 In91 2.326 . S
O103 C95 1.252 . S
C104 C105 1.391 . S
C104 C106 1.394 . S
C104 H120 0.931 . S
C105 C104 1.391 . S
C105 C109 1.376 . S
C106 C104 1.394 . S
C106 C107 1.369 . S
C106 C110 1.531 . S
C107 C106 1.369 . S
C107 C108 1.410 . S
C107 C115 1.503 . S
C108 C107 1.410 . S
C108 C109 1.392 . S
C108 C111 1.511 . S
C109 C105 1.376 . S
C109 C108 1.392 . S
C109 H121 0.929 . S
C110 C106 1.531 . S
C110 H122 0.960 . S
C110 H123 0.962 . S
C110 H124 0.960 . S
C111 C108 1.511 . S
C111 H125 0.961 . S
C111 H126 0.961 . S
C111 H127 0.961 . S
C112 C113 1.370 . S
C112 C114 1.363 . S
C112 H128 0.931 . S
C113 C112 1.370 . S
C113 C117 1.408 . S
C114 C112 1.363 . S
C114 C115 1.370 . S
C114 C118 1.524 . S
C115 C107 1.503 . S
C115 C114 1.370 . S
C115 C116 1.403 . S
C116 C115 1.403 . S
C116 C117 1.404 . S
C116 C119 1.539 . S
C117 C113 1.408 . S
C117 C116 1.404 . S
C117 H129 0.930 . S
C118 C114 1.524 . S
C118 H130 0.956 . S
C118 H131 0.961 . S
C118 H132 0.961 . S
C119 C116 1.539 . S
C119 H133 0.958 . S
C119 H134 0.961 . S
C119 H135 0.960 . S
H120 C104 0.931 . S
H121 C109 0.929 . S
H122 C110 0.960 . S
H123 C110 0.962 . S
H124 C110 0.960 . S
H125 C111 0.961 . S
H126 C111 0.961 . S
H127 C111 0.961 . S
H128 C112 0.931 . S
H129 C117 0.930 . S
H130 C118 0.956 . S
H131 C118 0.961 . S
H132 C118 0.961 . S
H133 C119 0.958 . S
H134 C119 0.961 . S
H135 C119 0.960 . S
C136 C137 1.391 . S
C136 C138 1.394 . S
C136 H152 0.931 . S
C137 C136 1.391 . S
C137 C141 1.376 . S
C138 C136 1.394 . S
C138 C139 1.369 . S
C138 C142 1.531 . S
C139 C138 1.369 . S
C139 C140 1.410 . S
C139 C147 1.503 . S
C140 C139 1.410 . S
C140 C141 1.392 . S
C140 C143 1.511 . S
C141 C137 1.376 . S
C141 C140 1.392 . S
C141 H153 0.929 . S
C142 C138 1.531 . S
C142 H154 0.960 . S
C142 H155 0.962 . S
C142 H156 0.960 . S
C143 C140 1.511 . S
C143 H157 0.961 . S
C143 H158 0.961 . S
C143 H159 0.961 . S
C144 C145 1.370 . S
C144 C146 1.363 . S
C144 H160 0.931 . S
C145 C144 1.370 . S
C145 C149 1.408 . S
C146 C144 1.363 . S
C146 C147 1.370 . S
C146 C150 1.524 . S
C147 C139 1.503 . S
C147 C146 1.370 . S
C147 C148 1.403 . S
C148 C147 1.403 . S
C148 C149 1.404 . S
C148 C151 1.539 . S
C149 C145 1.408 . S
C149 C148 1.404 . S
C149 H161 0.930 . S
C150 C146 1.524 . S
C150 H162 0.956 . S
C150 H163 0.961 . S
C150 H164 0.961 . S
C151 C148 1.539 . S
C151 H165 0.958 . S
C151 H166 0.961 . S
C151 H167 0.960 . S
H152 C136 0.931 . S
H153 C141 0.929 . S
H154 C142 0.960 . S
H155 C142 0.962 . S
H156 C142 0.960 . S
H157 C143 0.961 . S
H158 C143 0.961 . S
H159 C143 0.961 . S
H160 C144 0.931 . S
H161 C149 0.930 . S
H162 C150 0.956 . S
H163 C150 0.961 . S
H164 C150 0.961 . S
H165 C151 0.958 . S
H166 C151 0.961 . S
H167 C151 0.960 . S
C168 C169 1.391 . S
C168 C170 1.394 1_545 S
C168 H184 0.931 . S
C169 C168 1.391 . S
C169 C173 1.376 . S
C170 C168 1.394 1_565 S
C170 C171 1.369 1_565 S
C170 C174 1.531 . S
C171 C170 1.369 1_545 S
C171 C172 1.410 . S
C171 C179 1.503 1_544 S
C172 C171 1.410 . S
C172 C173 1.392 . S
C172 C175 1.511 . S
C173 C169 1.376 . S
C173 C172 1.392 . S
C173 H185 0.929 . S
C174 C170 1.531 . S
C174 H186 0.960 . S
C174 H187 0.962 . S
C174 H188 0.960 . S
C175 C172 1.511 . S
C175 H189 0.961 . S
C175 H190 0.961 1_554 S
C175 H191 0.961 . S
C176 C177 1.370 . S
C176 C178 1.363 . S
C176 H192 0.931 . S
C177 C176 1.370 . S
C177 C181 1.408 . S
C178 C176 1.363 . S
C178 C179 1.370 . S
C178 C182 1.524 1_565 S
C179 C171 1.503 1_566 S
C179 C178 1.370 . S
C179 C180 1.403 1_556 S
C180 C179 1.403 1_554 S
C180 C181 1.404 1_554 S
C180 C183 1.539 . S
C181 C177 1.408 . S
C181 C180 1.404 1_556 S
C181 H193 0.930 . S
C182 C178 1.524 1_545 S
C182 H194 0.956 . S
C182 H195 0.961 . S
C182 H196 0.961 . S
C183 C180 1.539 . S
C183 H197 0.958 . S
C183 H198 0.961 . S
C183 H199 0.960 . S
H184 C168 0.931 . S
H185 C173 0.929 . S
H186 C174 0.960 . S
H187 C174 0.962 . S
H188 C174 0.960 . S
H189 C175 0.961 . S
H190 C175 0.961 1_556 S
H191 C175 0.961 . S
H192 C176 0.931 . S
H193 C181 0.930 . S
H194 C182 0.956 . S
H195 C182 0.961 . S
H196 C182 0.961 . S
H197 C183 0.958 . S
H198 C183 0.961 . S
H199 C183 0.960 . S
C200 C201 1.391 . S
C200 C202 1.394 . S
C200 H216 0.931 . S
C201 C200 1.391 . S
C201 C205 1.376 . S
C202 C200 1.394 . S
C202 C203 1.369 . S
C202 C206 1.531 . S
C203 C202 1.369 . S
C203 C204 1.410 1_655 S
C203 C211 1.503 1_655 S
C204 C203 1.410 1_455 S
C204 C205 1.392 1_455 S
C204 C207 1.511 . S
C205 C201 1.376 . S
C205 C204 1.392 1_655 S
C205 H217 0.929 1_655 S
C206 C202 1.531 . S
C206 H218 0.960 . S
C206 H219 0.962 . S
C206 H220 0.960 . S
C207 C204 1.511 . S
C207 H221 0.961 . S
C207 H222 0.961 . S
C207 H223 0.961 . S
C208 C209 1.370 . S
C208 C210 1.363 1_455 S
C208 H224 0.931 1_455 S
C209 C208 1.370 . S
C209 C213 1.408 . S
C210 C208 1.363 1_655 S
C210 C211 1.370 1_655 S
C210 C214 1.524 . S
C211 C203 1.503 1_455 S
C211 C210 1.370 1_455 S
C211 C212 1.403 . S
C212 C211 1.403 . S
C212 C213 1.404 . S
C212 C215 1.539 . S
C213 C209 1.408 . S
C213 C212 1.404 . S
C213 H225 0.930 . S
C214 C210 1.524 . S
C214 H226 0.956 . S
C214 H227 0.961 . S
C214 H228 0.961 . S
C215 C212 1.539 . S
C215 H229 0.958 . S
C215 H230 0.961 . S
C215 H231 0.960 . S
H216 C200 0.931 . S
H217 C205 0.929 1_455 S
H218 C206 0.960 . S
H219 C206 0.962 . S
H220 C206 0.960 . S
H221 C207 0.961 . S
H222 C207 0.961 . S
H223 C207 0.961 . S
H224 C208 0.931 1_655 S
H225 C213 0.930 . S
H226 C214 0.956 . S
H227 C214 0.961 . S
H228 C214 0.961 . S
H229 C215 0.958 . S
H230 C215 0.961 . S
H231 C215 0.960 . S
C232 C233 1.391 . S
C232 C234 1.394 . S
C232 H248 0.931 . S
C233 C232 1.391 . S
C233 C237 1.376 . S
C234 C232 1.394 . S
C234 C235 1.369 . S
C234 C238 1.531 . S
C235 C234 1.369 . S
C235 C236 1.410 . S
C235 C243 1.503 1_565 S
C236 C235 1.410 . S
C236 C237 1.392 . S
C236 C239 1.511 . S
C237 C233 1.376 . S
C237 C236 1.392 . S
C237 H249 0.929 . S
C238 C234 1.531 . S
C238 H250 0.960 1_565 S
C238 H251 0.962 . S
C238 H252 0.960 . S
C239 C236 1.511 . S
C239 H253 0.961 . S
C239 H254 0.960 . S
C239 H255 0.961 1_565 S
C240 C241 1.370 . S
C240 C242 1.363 1_545 S
C240 H256 0.931 . S
C241 C240 1.370 . S
C241 C245 1.408 . S
C242 C240 1.363 1_565 S
C242 C243 1.370 1_565 S
C242 C246 1.524 . S
C243 C235 1.503 1_545 S
C243 C242 1.370 1_545 S
C243 C244 1.403 . S
C244 C243 1.403 . S
C244 C245 1.404 . S
C244 C247 1.539 . S
C245 C241 1.408 . S
C245 C244 1.404 . S
C245 H257 0.930 . S
C246 C242 1.524 . S
C246 H258 0.956 . S
C246 H259 0.961 . S
C246 H260 0.961 . S
C247 C244 1.539 . S
C247 H261 0.958 . S
C247 H262 0.961 . S
C247 H263 0.960 . S
H248 C232 0.931 . S
H249 C237 0.929 . S
H250 C238 0.960 1_545 S
H251 C238 0.962 . S
H252 C238 0.960 . S
H253 C239 0.961 . S
H254 C239 0.960 . S
H255 C239 0.961 1_545 S
H256 C240 0.931 . S
H257 C245 0.930 . S
H258 C246 0.956 . S
H259 C246 0.961 . S
H260 C246 0.961 . S
H261 C247 0.958 . S
H262 C247 0.961 . S
H263 C247 0.960 . S
C264 C265 1.391 . S
C264 C266 1.394 . S
C264 H280 0.931 . S
C265 C264 1.391 . S
C265 C269 1.376 . S
C266 C264 1.394 . S
C266 C267 1.369 . S
C266 C270 1.531 . S
C267 C266 1.369 . S
C267 C268 1.410 1_556 S
C267 C275 1.503 1_656 S
C268 C267 1.410 1_554 S
C268 C269 1.392 1_554 S
C268 C271 1.511 . S
C269 C265 1.376 . S
C269 C268 1.392 1_556 S
C269 H281 0.929 . S
C270 C266 1.531 . S
C270 H282 0.960 . S
C270 H283 0.962 1_655 S
C270 H284 0.960 . S
C271 C268 1.511 . S
C271 H285 0.961 . S
C271 H286 0.961 . S
C271 H287 0.961 . S
C272 C273 1.370 . S
C272 C274 1.363 . S
C272 H288 0.931 . S
C273 C272 1.370 . S
C273 C277 1.408 1_455 S
C274 C272 1.363 . S
C274 C275 1.370 . S
C274 C278 1.524 . S
C275 C267 1.503 1_454 S
C275 C274 1.370 . S
C275 C276 1.403 1_455 S
C276 C275 1.403 1_655 S
C276 C277 1.404 . S
C276 C279 1.539 . S
C277 C273 1.408 1_655 S
C277 C276 1.404 . S
C277 H289 0.930 . S
C278 C274 1.524 . S
C278 H290 0.956 1_554 S
C278 H291 0.961 . S
C278 H292 0.961 . S
C279 C276 1.539 . S
C279 H293 0.958 . S
C279 H294 0.961 . S
C279 H295 0.960 . S
H280 C264 0.931 . S
H281 C269 0.929 . S
H282 C270 0.960 . S
H283 C270 0.962 1_455 S
H284 C270 0.960 . S
H285 C271 0.961 . S
H286 C271 0.961 . S
H287 C271 0.961 . S
H288 C272 0.931 . S
H289 C277 0.930 . S
H290 C278 0.956 1_556 S
H291 C278 0.961 . S
H292 C278 0.961 . S
H293 C279 0.958 . S
H294 C279 0.961 . S
H295 C279 0.960 . S
C296 C297 1.391 . S
C296 C298 1.394 . S
C296 H312 0.931 . S
C297 C296 1.391 . S
C297 C301 1.376 . S
C298 C296 1.394 . S
C298 C299 1.369 . S
C298 C302 1.531 . S
C299 C298 1.369 . S
C299 C300 1.410 . S
C299 C307 1.503 . S
C300 C299 1.410 . S
C300 C301 1.392 . S
C300 C303 1.511 . S
C301 C297 1.376 . S
C301 C300 1.392 . S
C301 H313 0.929 . S
C302 C298 1.531 . S
C302 H314 0.960 . S
C302 H315 0.962 . S
C302 H316 0.960 . S
C303 C300 1.511 . S
C303 H317 0.961 . S
C303 H318 0.961 . S
C303 H319 0.961 . S
C304 C305 1.370 . S
C304 C306 1.363 . S
C304 H320 0.931 . S
C305 C304 1.370 . S
C305 C309 1.408 . S
C306 C304 1.363 . S
C306 C307 1.370 . S
C306 C310 1.524 . S
C307 C299 1.503 . S
C307 C306 1.370 . S
C307 C308 1.403 . S
C308 C307 1.403 . S
C308 C309 1.404 . S
C308 C311 1.539 . S
C309 C305 1.408 . S
C309 C308 1.404 . S
C309 H321 0.930 . S
C310 C306 1.524 . S
C310 H322 0.956 . S
C310 H323 0.961 . S
C310 H324 0.961 . S
C311 C308 1.539 . S
C311 H325 0.958 . S
C311 H326 0.961 . S
C311 H327 0.960 . S
H312 C296 0.931 . S
H313 C301 0.929 . S
H314 C302 0.960 . S
H315 C302 0.962 . S
H316 C302 0.960 . S
H317 C303 0.961 . S
H318 C303 0.961 . S
H319 C303 0.961 . S
H320 C304 0.931 . S
H321 C309 0.930 . S
H322 C310 0.956 . S
H323 C310 0.961 . S
H324 C310 0.961 . S
H325 C311 0.958 . S
H326 C311 0.961 . S
H327 C311 0.960 . S
C328 C329 1.391 . S
C328 C330 1.394 . S
C328 H344 0.931 . S
C329 C328 1.391 . S
C329 C333 1.376 . S
C330 C328 1.394 . S
C330 C331 1.369 . S
C330 C334 1.531 . S
C331 C330 1.369 . S
C331 C332 1.410 . S
C331 C339 1.503 . S
C332 C331 1.410 . S
C332 C333 1.392 . S
C332 C335 1.511 . S
C333 C329 1.376 . S
C333 C332 1.392 . S
C333 H345 0.929 . S
C334 C330 1.531 . S
C334 H346 0.960 . S
C334 H347 0.962 . S
C334 H348 0.960 . S
C335 C332 1.511 . S
C335 H349 0.961 . S
C335 H350 0.961 . S
C335 H351 0.961 . S
C336 C337 1.370 . S
C336 C338 1.363 . S
C336 H352 0.931 . S
C337 C336 1.370 . S
C337 C341 1.408 . S
C338 C336 1.363 . S
C338 C339 1.370 . S
C338 C342 1.524 . S
C339 C331 1.503 . S
C339 C338 1.370 . S
C339 C340 1.403 . S
C340 C339 1.403 . S
C340 C341 1.404 . S
C340 C343 1.539 . S
C341 C337 1.408 . S
C341 C340 1.404 . S
C341 H353 0.930 . S
C342 C338 1.524 . S
C342 H354 0.956 . S
C342 H355 0.961 . S
C342 H356 0.961 . S
C343 C340 1.539 . S
C343 H357 0.958 . S
C343 H358 0.961 . S
C343 H359 0.960 . S
H344 C328 0.931 . S
H345 C333 0.929 . S
H346 C334 0.960 . S
H347 C334 0.962 . S
H348 C334 0.960 . S
H349 C335 0.961 . S
H350 C335 0.961 . S
H351 C335 0.961 . S
H352 C336 0.931 . S
H353 C341 0.930 . S
H354 C342 0.956 . S
H355 C342 0.961 . S
H356 C342 0.961 . S
H357 C343 0.958 . S
H358 C343 0.961 . S
H359 C343 0.960 . S
C360 C361 1.391 . S
C360 C362 1.394 . S
C360 H376 0.931 . S
C361 C360 1.391 . S
C361 C365 1.376 . S
C362 C360 1.394 . S
C362 C363 1.369 . S
C362 C366 1.531 . S
C363 C362 1.369 . S
C363 C364 1.410 . S
C363 C371 1.503 . S
C364 C363 1.410 . S
C364 C365 1.392 . S
C364 C367 1.511 . S
C365 C361 1.376 . S
C365 C364 1.392 . S
C365 H377 0.929 . S
C366 C362 1.531 . S
C366 H378 0.960 . S
C366 H379 0.962 . S
C366 H380 0.960 . S
C367 C364 1.511 . S
C367 H381 0.961 . S
C367 H382 0.961 . S
C367 H383 0.961 . S
C368 C369 1.370 . S
C368 C370 1.363 . S
C368 H384 0.931 . S
C369 C368 1.370 . S
C369 C373 1.408 . S
C370 C368 1.363 . S
C370 C371 1.370 . S
C370 C374 1.524 . S
C371 C363 1.503 . S
C371 C370 1.370 . S
C371 C372 1.403 . S
C372 C371 1.403 . S
C372 C373 1.404 . S
C372 C375 1.539 . S
C373 C369 1.408 . S
C373 C372 1.404 . S
C373 H385 0.930 . S
C374 C370 1.524 . S
C374 H386 0.956 . S
C374 H387 0.961 . S
C374 H388 0.961 . S
C375 C372 1.539 . S
C375 H389 0.958 . S
C375 H390 0.961 . S
C375 H391 0.960 . S
H376 C360 0.931 . S
H377 C365 0.929 . S
H378 C366 0.960 . S
H379 C366 0.962 . S
H380 C366 0.960 . S
H381 C367 0.961 . S
H382 C367 0.961 . S
H383 C367 0.961 . S
H384 C368 0.931 . S
H385 C373 0.930 . S
H386 C374 0.956 . S
H387 C374 0.961 . S
H388 C374 0.961 . S
H389 C375 0.958 . S
H390 C375 0.961 . S
H391 C375 0.960 . S
C392 C393 1.391 . S
C392 C394 1.394 . S
C392 H408 0.931 . S
C393 C392 1.391 . S
C393 C397 1.376 . S
C394 C392 1.394 . S
C394 C395 1.369 . S
C394 C398 1.531 1_556 S
C395 C394 1.369 . S
C395 C396 1.410 . S
C395 C403 1.503 1_556 S
C396 C395 1.410 . S
C396 C397 1.392 . S
C396 C399 1.511 . S
C397 C393 1.376 . S
C397 C396 1.392 . S
C397 H409 0.929 . S
C398 C394 1.531 1_554 S
C398 H410 0.960 . S
C398 H411 0.962 . S
C398 H412 0.960 . S
C399 C396 1.511 . S
C399 H413 0.961 . S
C399 H414 0.961 . S
C399 H415 0.961 . S
C400 C401 1.370 . S
C400 C402 1.363 . S
C400 H416 0.931 . S
C401 C400 1.370 . S
C401 C405 1.408 . S
C402 C400 1.363 . S
C402 C403 1.370 . S
C402 C406 1.524 . S
C403 C395 1.503 1_554 S
C403 C402 1.370 . S
C403 C404 1.403 . S
C404 C403 1.403 . S
C404 C405 1.404 . S
C404 C407 1.539 1_554 S
C405 C401 1.408 . S
C405 C404 1.404 . S
C405 H417 0.930 . S
C406 C402 1.524 . S
C406 H418 0.956 . S
C406 H419 0.961 . S
C406 H420 0.961 . S
C407 C404 1.539 1_556 S
C407 H421 0.958 . S
C407 H422 0.961 . S
C407 H423 0.960 . S
H408 C392 0.931 . S
H409 C397 0.929 . S
H410 C398 0.960 . S
H411 C398 0.962 . S
H412 C398 0.960 . S
H413 C399 0.961 . S
H414 C399 0.961 . S
H415 C399 0.961 . S
H416 C400 0.931 . S
H417 C405 0.930 . S
H418 C406 0.956 . S
H419 C406 0.961 . S
H420 C406 0.961 . S
H421 C407 0.958 . S
H422 C407 0.961 . S
H423 C407 0.960 . S
C424 C425 1.391 . S
C424 C426 1.394 . S
C424 H440 0.931 . S
C425 C424 1.391 . S
C425 C429 1.376 . S
C426 C424 1.394 . S
C426 C427 1.369 . S
C426 C430 1.531 . S
C427 C426 1.369 . S
C427 C428 1.410 . S
C427 C435 1.503 1_565 S
C428 C427 1.410 . S
C428 C429 1.392 . S
C428 C431 1.511 . S
C429 C425 1.376 . S
C429 C428 1.392 . S
C429 H441 0.929 . S
C430 C426 1.531 . S
C430 H442 0.960 1_565 S
C430 H443 0.962 . S
C430 H444 0.960 . S
C431 C428 1.511 . S
C431 H445 0.961 . S
C431 H446 0.961 . S
C431 H447 0.961 1_565 S
C432 C433 1.370 . S
C432 C434 1.363 1_545 S
C432 H448 0.931 . S
C433 C432 1.370 . S
C433 C437 1.408 . S
C434 C432 1.363 1_565 S
C434 C435 1.370 1_565 S
C434 C438 1.524 . S
C435 C427 1.503 1_545 S
C435 C434 1.370 1_545 S
C435 C436 1.403 . S
C436 C435 1.403 . S
C436 C437 1.404 . S
C436 C439 1.539 . S
C437 C433 1.408 . S
C437 C436 1.404 . S
C437 H449 0.930 . S
C438 C434 1.524 . S
C438 H450 0.956 . S
C438 H451 0.961 . S
C438 H452 0.961 . S
C439 C436 1.539 . S
C439 H453 0.958 . S
C439 H454 0.961 . S
C439 H455 0.960 . S
H440 C424 0.931 . S
H441 C429 0.929 . S
H442 C430 0.960 1_545 S
H443 C430 0.962 . S
H444 C430 0.960 . S
H445 C431 0.961 . S
H446 C431 0.961 . S
H447 C431 0.961 1_545 S
H448 C432 0.931 . S
H449 C437 0.930 . S
H450 C438 0.956 . S
H451 C438 0.961 . S
H452 C438 0.961 . S
H453 C439 0.958 . S
H454 C439 0.961 . S
H455 C439 0.960 . S
C456 C457 1.391 . S
C456 C458 1.394 . S
C456 H472 0.931 . S
C457 C456 1.391 . S
C457 C461 1.376 . S
C458 C456 1.394 . S
C458 C459 1.369 . S
C458 C462 1.531 1_665 S
C459 C458 1.369 . S
C459 C460 1.410 . S
C459 C467 1.503 1_665 S
C460 C459 1.410 . S
C460 C461 1.392 . S
C460 C463 1.511 . S
C461 C457 1.376 . S
C461 C460 1.392 . S
C461 H473 0.929 . S
C462 C458 1.531 1_445 S
C462 H474 0.960 . S
C462 H475 0.962 . S
C462 H476 0.960 . S
C463 C460 1.511 . S
C463 H477 0.961 . S
C463 H478 0.961 . S
C463 H479 0.961 . S
C464 C465 1.370 . S
C464 C466 1.382 . S
C464 H480 0.931 . S
C465 C464 1.370 . S
C465 C469 1.408 . S
C466 C464 1.382 . S
C466 C467 1.379 . S
C466 C470 1.498 1_545 S
C467 C459 1.503 1_445 S
C467 C466 1.379 . S
C467 C468 1.403 1_455 S
C468 C467 1.403 1_655 S
C468 C469 1.404 1_655 S
C468 C471 1.539 . S
C469 C465 1.408 . S
C469 C468 1.404 1_455 S
C469 H481 0.930 1_455 S
C470 C466 1.498 1_565 S
C470 H482 0.956 . S
C470 H483 0.961 . S
C470 H484 0.961 . S
C471 C468 1.539 . S
C471 H485 0.958 . S
C471 H486 0.961 . S
C471 H487 0.960 . S
H472 C456 0.931 . S
H473 C461 0.929 . S
H474 C462 0.960 . S
H475 C462 0.962 . S
H476 C462 0.960 . S
H477 C463 0.961 . S
H478 C463 0.961 . S
H479 C463 0.961 . S
H480 C464 0.931 . S
H481 C469 0.930 1_655 S
H482 C470 0.956 . S
H483 C470 0.961 . S
H484 C470 0.961 . S
H485 C471 0.958 . S
H486 C471 0.961 . S
H487 C471 0.960 . S
C488 C489 1.391 1_455 S
C488 C490 1.394 . S
C488 H504 0.931 . S
C489 C488 1.391 1_655 S
C489 C493 1.376 . S
C490 C488 1.394 . S
C490 C491 1.369 1_455 S
C490 C494 1.531 . S
C491 C490 1.369 1_655 S
C491 C492 1.410 . S
C491 C499 1.503 1_655 S
C492 C491 1.410 . S
C492 C493 1.392 . S
C492 C495 1.511 . S
C493 C489 1.376 . S
C493 C492 1.392 . S
C493 H505 0.929 . S
C494 C490 1.531 . S
C494 H506 0.960 . S
C494 H507 0.962 . S
C494 H508 0.960 . S
C495 C492 1.511 . S
C495 H509 0.961 . S
C495 H510 0.961 . S
C495 H511 0.961 . S
C496 C497 1.370 . S
C496 C498 1.363 . S
C496 H512 0.931 . S
C497 C496 1.370 . S
C497 C501 1.408 . S
C498 C496 1.363 . S
C498 C499 1.370 . S
C498 C502 1.524 . S
C499 C491 1.503 1_455 S
C499 C498 1.370 . S
C499 C500 1.403 . S
C500 C499 1.403 . S
C500 C501 1.404 . S
C500 C503 1.539 . S
C501 C497 1.408 . S
C501 C500 1.404 . S
C501 H513 0.930 . S
C502 C498 1.524 . S
C502 H514 0.956 . S
C502 H515 0.961 1_455 S
C502 H516 0.961 . S
C503 C500 1.539 . S
C503 H517 0.958 . S
C503 H518 0.961 1_455 S
C503 H519 0.960 1_455 S
H504 C488 0.931 . S
H505 C493 0.929 . S
H506 C494 0.960 . S
H507 C494 0.962 . S
H508 C494 0.960 . S
H509 C495 0.961 . S
H510 C495 0.961 . S
H511 C495 0.961 . S
H512 C496 0.931 . S
H513 C501 0.930 . S
H514 C502 0.956 . S
H515 C502 0.961 1_655 S
H516 C502 0.961 . S
H517 C503 0.958 . S
H518 C503 0.961 1_655 S
H519 C503 0.960 1_655 S
C520 C521 1.391 . S
C520 C522 1.394 . S
C520 H536 0.931 . S
C521 C520 1.391 . S
C521 C525 1.376 . S
C522 C520 1.394 . S
C522 C523 1.369 . S
C522 C526 1.531 . S
C523 C522 1.369 . S
C523 C524 1.410 . S
C523 C531 1.503 . S
C524 C523 1.410 . S
C524 C525 1.392 . S
C524 C527 1.511 . S
C525 C521 1.376 . S
C525 C524 1.392 . S
C525 H537 0.929 . S
C526 C522 1.531 . S
C526 H538 0.960 . S
C526 H539 0.962 . S
C526 H540 0.960 . S
C527 C524 1.511 . S
C527 H541 0.961 . S
C527 H542 0.961 . S
C527 H543 0.961 . S
C528 C529 1.370 . S
C528 C530 1.363 . S
C528 H544 0.931 . S
C529 C528 1.370 . S
C529 C533 1.408 . S
C530 C528 1.363 . S
C530 C531 1.370 . S
C530 C534 1.524 . S
C531 C523 1.503 . S
C531 C530 1.370 . S
C531 C532 1.403 . S
C532 C531 1.403 . S
C532 C533 1.404 . S
C532 C535 1.539 . S
C533 C529 1.408 . S
C533 C532 1.404 . S
C533 H545 0.930 . S
C534 C530 1.524 . S
C534 H546 0.956 . S
C534 H547 0.961 . S
C534 H548 0.961 . S
C535 C532 1.539 . S
C535 H549 0.958 . S
C535 H550 0.961 . S
C535 H551 0.960 . S
H536 C520 0.931 . S
H537 C525 0.929 . S
H538 C526 0.960 . S
H539 C526 0.962 . S
H540 C526 0.960 . S
H541 C527 0.961 . S
H542 C527 0.961 . S
H543 C527 0.961 . S
H544 C528 0.931 . S
H545 C533 0.930 . S
H546 C534 0.956 . S
H547 C534 0.961 . S
H548 C534 0.961 . S
H549 C535 0.958 . S
H550 C535 0.961 . S
H551 C535 0.960 . S
C552 C553 1.391 . S
C552 C554 1.394 . S
C552 H568 0.931 . S
C553 C552 1.391 . S
C553 C557 1.376 . S
C554 C552 1.394 . S
C554 C555 1.369 . S
C554 C558 1.531 1_554 S
C555 C554 1.369 . S
C555 C556 1.410 . S
C555 C563 1.503 1_554 S
C556 C555 1.410 . S
C556 C557 1.392 . S
C556 C559 1.511 . S
C557 C553 1.376 . S
C557 C556 1.392 . S
C557 H569 0.929 . S
C558 C554 1.531 1_556 S
C558 H570 0.960 . S
C558 H571 0.962 . S
C558 H572 0.960 . S
C559 C556 1.511 . S
C559 H573 0.961 . S
C559 H574 0.961 . S
C559 H575 0.961 . S
C560 C561 1.370 . S
C560 C562 1.363 . S
C560 H576 0.931 . S
C561 C560 1.370 . S
C561 C565 1.408 . S
C562 C560 1.363 . S
C562 C563 1.370 . S
C562 C566 1.524 . S
C563 C555 1.503 1_556 S
C563 C562 1.370 . S
C563 C564 1.403 . S
C564 C563 1.403 . S
C564 C565 1.404 . S
C564 C567 1.539 . S
C565 C561 1.408 . S
C565 C564 1.404 . S
C565 H577 0.930 . S
C566 C562 1.524 . S
C566 H578 0.956 . S
C566 H579 0.961 1_556 S
C566 H580 0.961 . S
C567 C564 1.539 . S
C567 H581 0.958 . S
C567 H582 0.961 . S
C567 H583 0.960 1_556 S
H568 C552 0.931 . S
H569 C557 0.929 . S
H570 C558 0.960 . S
H571 C558 0.962 . S
H572 C558 0.960 . S
H573 C559 0.961 . S
H574 C559 0.961 . S
H575 C559 0.961 . S
H576 C560 0.931 . S
H577 C565 0.930 . S
H578 C566 0.956 . S
H579 C566 0.961 1_554 S
H580 C566 0.961 . S
H581 C567 0.958 . S
H582 C567 0.961 . S
H583 C567 0.960 1_554 S
C584 C585 1.391 . S
C584 C586 1.394 . S
C584 H600 0.931 . S
C585 C584 1.391 . S
C585 C589 1.376 . S
C586 C584 1.394 . S
C586 C587 1.369 . S
C586 C590 1.531 . S
C587 C586 1.369 . S
C587 C588 1.410 . S
C587 C595 1.503 . S
C588 C587 1.410 . S
C588 C589 1.392 . S
C588 C591 1.511 . S
C589 C585 1.376 . S
C589 C588 1.392 . S
C589 H601 0.929 . S
C590 C586 1.531 . S
C590 H602 0.960 . S
C590 H603 0.962 . S
C590 H604 0.960 . S
C591 C588 1.511 . S
C591 H605 0.961 . S
C591 H606 0.961 . S
C591 H607 0.961 . S
C592 C593 1.370 . S
C592 C594 1.363 . S
C592 H608 0.931 . S
C593 C592 1.370 . S
C593 C597 1.408 . S
C594 C592 1.363 . S
C594 C595 1.370 . S
C594 C598 1.524 . S
C595 C587 1.503 . S
C595 C594 1.370 . S
C595 C596 1.403 . S
C596 C595 1.403 . S
C596 C597 1.404 . S
C596 C599 1.539 . S
C597 C593 1.408 . S
C597 C596 1.404 . S
C597 H609 0.930 . S
C598 C594 1.524 . S
C598 H610 0.956 . S
C598 H611 0.961 . S
C598 H612 0.961 . S
C599 C596 1.539 . S
C599 H613 0.958 . S
C599 H614 0.961 . S
C599 H615 0.960 . S
H600 C584 0.931 . S
H601 C589 0.929 . S
H602 C590 0.960 . S
H603 C590 0.962 . S
H604 C590 0.960 . S
H605 C591 0.961 . S
H606 C591 0.961 . S
H607 C591 0.961 . S
H608 C592 0.931 . S
H609 C597 0.930 . S
H610 C598 0.956 . S
H611 C598 0.961 . S
H612 C598 0.961 . S
H613 C599 0.958 . S
H614 C599 0.961 . S
H615 C599 0.960 . S
C105 C70 1.513 . S
C113 C10 1.514 . S
C137 C96 1.514 . S
C145 C17 1.515 . S
C169 C29 1.515 . S
C177 C81 1.514 . S
C201 C43 1.512 . S
C209 C56 1.514 . S
C233 C82 1.508 . S
C241 C3 1.512 . S
C265 C16 1.507 . S
C273 C57 1.515 . S
C297 C75 1.507 . S
C305 C36 1.514 . S
C329 C42 1.505 . S
C337 C95 1.513 . S
C361 C55 1.513 . S
C369 C69 1.514 . S
C393 C18 1.510 . S
C401 C30 1.513 . S
C425 C49 1.508 . S
C433 C31 1.512 . S
C457 C44 1.505 . S
C465 C5 1.514 . S
C489 C23 1.508 . S
C497 C4 1.513 . S
C521 C101 1.511 . S
C529 C88 1.513 . S
C553 C62 1.510 . S
C561 C83 1.515 . S
C585 C68 1.505 . S
C593 C94 1.514 . S
