# Generated by pormake.
# Topology vbb, (4)-cn, num edge types: 1
# Building blocks:
#     Node 0, Type 0, BuildingBlock: KOZSID_clean_sbu_0, # of connection points: 4
#     Node 1, Type 0, BuildingBlock: KOZSID_clean_sbu_0, # of connection points: 4
#     Node 2, Type 0, BuildingBlock: KOZSID_clean_sbu_0, # of connection points: 4
#     Node 3, Type 0, BuildingBlock: KOZSID_clean_sbu_0, # of connection points: 4
#     Node 4, Type 0, BuildingBlock: KOZSID_clean_sbu_0, # of connection points: 4
#     Node 5, Type 0, BuildingBlock: KOZSID_clean_sbu_0, # of connection points: 4
#     Node 6, Type 0, BuildingBlock: KOZSID_clean_sbu_0, # of connection points: 4
#     Node 7, Type 0, BuildingBlock: KOZSID_clean_sbu_0, # of connection points: 4
#     Node 8, Type 0, BuildingBlock: KOZSID_clean_sbu_0, # of connection points: 4
#     Node 9, Type 0, BuildingBlock: KOZSID_clean_sbu_0, # of connection points: 4
#     Node 10, Type 0, BuildingBlock: KOZSID_clean_sbu_0, # of connection points: 4
#     Node 11, Type 0, BuildingBlock: KOZSID_clean_sbu_0, # of connection points: 4
#     Node 12, Type 0, BuildingBlock: KOZSID_clean_sbu_0, # of connection points: 4
#     Node 13, Type 0, BuildingBlock: KOZSID_clean_sbu_0, # of connection points: 4
#     Node 14, Type 0, BuildingBlock: KOZSID_clean_sbu_0, # of connection points: 4
#     Node 15, Type 0, BuildingBlock: KOZSID_clean_sbu_0, # of connection points: 4
#     Node 16, Type 0, BuildingBlock: KOZSID_clean_sbu_0, # of connection points: 4
#     Node 17, Type 0, BuildingBlock: KOZSID_clean_sbu_0, # of connection points: 4
#     Node 18, Type 0, BuildingBlock: KOZSID_clean_sbu_0, # of connection points: 4
#     Node 19, Type 0, BuildingBlock: KOZSID_clean_sbu_0, # of connection points: 4
#     Node 20, Type 0, BuildingBlock: KOZSID_clean_sbu_0, # of connection points: 4
#     Node 21, Type 0, BuildingBlock: KOZSID_clean_sbu_0, # of connection points: 4
#     Node 22, Type 0, BuildingBlock: KOZSID_clean_sbu_0, # of connection points: 4
#     Node 23, Type 0, BuildingBlock: KOZSID_clean_sbu_0, # of connection points: 4
#     Node 24, Type 0, BuildingBlock: KOZSID_clean_sbu_0, # of connection points: 4
#     Node 25, Type 0, BuildingBlock: KOZSID_clean_sbu_0, # of connection points: 4
#     Node 26, Type 0, BuildingBlock: KOZSID_clean_sbu_0, # of connection points: 4
#     Node 27, Type 0, BuildingBlock: KOZSID_clean_sbu_0, # of connection points: 4
#     Node 28, Type 0, BuildingBlock: KOZSID_clean_sbu_0, # of connection points: 4
#     Node 29, Type 0, BuildingBlock: KOZSID_clean_sbu_0, # of connection points: 4
#     Node 30, Type 0, BuildingBlock: KOZSID_clean_sbu_0, # of connection points: 4
#     Node 31, Type 0, BuildingBlock: KOZSID_clean_sbu_0, # of connection points: 4
#     Edge 32, Type (0, 0), BuildingBlock: XIVTED_clean_linker_0, # of connection points: 2
#     Edge 33, Type (0, 0), BuildingBlock: XIVTED_clean_linker_0, # of connection points: 2
#     Edge 34, Type (0, 0), BuildingBlock: XIVTED_clean_linker_0, # of connection points: 2
#     Edge 35, Type (0, 0), BuildingBlock: XIVTED_clean_linker_0, # of connection points: 2
#     Edge 36, Type (0, 0), BuildingBlock: XIVTED_clean_linker_0, # of connection points: 2
#     Edge 37, Type (0, 0), BuildingBlock: XIVTED_clean_linker_0, # of connection points: 2
#     Edge 38, Type (0, 0), BuildingBlock: XIVTED_clean_linker_0, # of connection points: 2
#     Edge 39, Type (0, 0), BuildingBlock: XIVTED_clean_linker_0, # of connection points: 2
#     Edge 40, Type (0, 0), BuildingBlock: XIVTED_clean_linker_0, # of connection points: 2
#     Edge 41, Type (0, 0), BuildingBlock: XIVTED_clean_linker_0, # of connection points: 2
#     Edge 42, Type (0, 0), BuildingBlock: XIVTED_clean_linker_0, # of connection points: 2
#     Edge 43, Type (0, 0), BuildingBlock: XIVTED_clean_linker_0, # of connection points: 2
#     Edge 44, Type (0, 0), BuildingBlock: XIVTED_clean_linker_0, # of connection points: 2
#     Edge 45, Type (0, 0), BuildingBlock: XIVTED_clean_linker_0, # of connection points: 2
#     Edge 46, Type (0, 0), BuildingBlock: XIVTED_clean_linker_0, # of connection points: 2
#     Edge 47, Type (0, 0), BuildingBlock: XIVTED_clean_linker_0, # of connection points: 2
#     Edge 48, Type (0, 0), BuildingBlock: XIVTED_clean_linker_0, # of connection points: 2
#     Edge 49, Type (0, 0), BuildingBlock: XIVTED_clean_linker_0, # of connection points: 2
#     Edge 50, Type (0, 0), BuildingBlock: XIVTED_clean_linker_0, # of connection points: 2
#     Edge 51, Type (0, 0), BuildingBlock: XIVTED_clean_linker_0, # of connection points: 2
#     Edge 52, Type (0, 0), BuildingBlock: XIVTED_clean_linker_0, # of connection points: 2
#     Edge 53, Type (0, 0), BuildingBlock: XIVTED_clean_linker_0, # of connection points: 2
#     Edge 54, Type (0, 0), BuildingBlock: XIVTED_clean_linker_0, # of connection points: 2
#     Edge 55, Type (0, 0), BuildingBlock: XIVTED_clean_linker_0, # of connection points: 2
#     Edge 56, Type (0, 0), BuildingBlock: XIVTED_clean_linker_0, # of connection points: 2
#     Edge 57, Type (0, 0), BuildingBlock: XIVTED_clean_linker_0, # of connection points: 2
#     Edge 58, Type (0, 0), BuildingBlock: XIVTED_clean_linker_0, # of connection points: 2
#     Edge 59, Type (0, 0), BuildingBlock: XIVTED_clean_linker_0, # of connection points: 2
#     Edge 60, Type (0, 0), BuildingBlock: XIVTED_clean_linker_0, # of connection points: 2
#     Edge 61, Type (0, 0), BuildingBlock: XIVTED_clean_linker_0, # of connection points: 2
#     Edge 62, Type (0, 0), BuildingBlock: XIVTED_clean_linker_0, # of connection points: 2
#     Edge 63, Type (0, 0), BuildingBlock: XIVTED_clean_linker_0, # of connection points: 2
#     Edge 64, Type (0, 0), BuildingBlock: XIVTED_clean_linker_0, # of connection points: 2
#     Edge 65, Type (0, 0), BuildingBlock: XIVTED_clean_linker_0, # of connection points: 2
#     Edge 66, Type (0, 0), BuildingBlock: XIVTED_clean_linker_0, # of connection points: 2
#     Edge 67, Type (0, 0), BuildingBlock: XIVTED_clean_linker_0, # of connection points: 2
#     Edge 68, Type (0, 0), BuildingBlock: XIVTED_clean_linker_0, # of connection points: 2
#     Edge 69, Type (0, 0), BuildingBlock: XIVTED_clean_linker_0, # of connection points: 2
#     Edge 70, Type (0, 0), BuildingBlock: XIVTED_clean_linker_0, # of connection points: 2
#     Edge 71, Type (0, 0), BuildingBlock: XIVTED_clean_linker_0, # of connection points: 2
#     Edge 72, Type (0, 0), BuildingBlock: XIVTED_clean_linker_0, # of connection points: 2
#     Edge 73, Type (0, 0), BuildingBlock: XIVTED_clean_linker_0, # of connection points: 2
#     Edge 74, Type (0, 0), BuildingBlock: XIVTED_clean_linker_0, # of connection points: 2
#     Edge 75, Type (0, 0), BuildingBlock: XIVTED_clean_linker_0, # of connection points: 2
#     Edge 76, Type (0, 0), BuildingBlock: XIVTED_clean_linker_0, # of connection points: 2
#     Edge 77, Type (0, 0), BuildingBlock: XIVTED_clean_linker_0, # of connection points: 2
#     Edge 78, Type (0, 0), BuildingBlock: XIVTED_clean_linker_0, # of connection points: 2
#     Edge 79, Type (0, 0), BuildingBlock: XIVTED_clean_linker_0, # of connection points: 2
#     Edge 80, Type (0, 0), BuildingBlock: XIVTED_clean_linker_0, # of connection points: 2
#     Edge 81, Type (0, 0), BuildingBlock: XIVTED_clean_linker_0, # of connection points: 2
#     Edge 82, Type (0, 0), BuildingBlock: XIVTED_clean_linker_0, # of connection points: 2
#     Edge 83, Type (0, 0), BuildingBlock: XIVTED_clean_linker_0, # of connection points: 2
#     Edge 84, Type (0, 0), BuildingBlock: XIVTED_clean_linker_0, # of connection points: 2
#     Edge 85, Type (0, 0), BuildingBlock: XIVTED_clean_linker_0, # of connection points: 2
#     Edge 86, Type (0, 0), BuildingBlock: XIVTED_clean_linker_0, # of connection points: 2
#     Edge 87, Type (0, 0), BuildingBlock: XIVTED_clean_linker_0, # of connection points: 2
#     Edge 88, Type (0, 0), BuildingBlock: XIVTED_clean_linker_0, # of connection points: 2
#     Edge 89, Type (0, 0), BuildingBlock: XIVTED_clean_linker_0, # of connection points: 2
#     Edge 90, Type (0, 0), BuildingBlock: XIVTED_clean_linker_0, # of connection points: 2
#     Edge 91, Type (0, 0), BuildingBlock: XIVTED_clean_linker_0, # of connection points: 2
#     Edge 92, Type (0, 0), BuildingBlock: XIVTED_clean_linker_0, # of connection points: 2
#     Edge 93, Type (0, 0), BuildingBlock: XIVTED_clean_linker_0, # of connection points: 2
#     Edge 94, Type (0, 0), BuildingBlock: XIVTED_clean_linker_0, # of connection points: 2
#     Edge 95, Type (0, 0), BuildingBlock: XIVTED_clean_linker_0, # of connection points: 2
# Relax obj value: 0.043
# Max RMSD: 0.155
# Mean RMSD: 0.153
data_MOF--net-vbb--node1-KOZSID_clean_sbu_0--edge1-XIVTED_clean_linker_0
_symmetry_space_group_name_H-M    P1
_symmetry_Int_Tables_number       1
_symmetry_cell_setting            triclinic
loop_
_symmetry_equiv_pos_as_xyz
'x, y, z'
_cell_length_a     66.2304
_cell_length_b     41.516689
_cell_length_c     124.9527
_cell_angle_alpha  89.758331
_cell_angle_beta   89.999509
_cell_angle_gamma 89.985027
loop_
_atom_site_label
_atom_site_type_symbol
_atom_site_fract_x
_atom_site_fract_y
_atom_site_fract_z
_atom_type_partial_charge
C0 C 0.49533 0.07616 0.08595 0.0
C1 C 0.48406 0.10361 0.08815 0.0
C2 C 0.47281 0.11007 0.07921 0.0
C3 C 0.4779 0.08651 0.07204 0.0
N4 N 0.49169 0.06566 0.0759 0.0
Co5 Co 0.50357 0.0288 0.06807 0.0
N6 N 0.49581 0.04769 0.05405 0.0
C7 C 0.48179 0.07074 0.05249 0.0
C8 C 0.47909 0.07856 0.04192 0.0
C9 C 0.49205 0.05896 0.03645 0.0
C10 C 0.50202 0.04015 0.04404 0.0
N11 N 0.51507 0.99164 0.06022 0.0
C12 C 0.51924 0.98825 0.04965 0.0
C13 C 0.5266 0.9576 0.04757 0.0
C14 C 0.52665 0.94122 0.05714 0.0
C15 C 0.5194 0.96269 0.06455 0.0
N16 N 0.5114 0.0107 0.0822 0.0
C17 C 0.51614 0.97978 0.08422 0.0
C18 C 0.52119 0.97459 0.09476 0.0
C19 C 0.51944 0.00412 0.09964 0.0
C20 C 0.51345 0.02575 0.09178 0.0
N21 N 0.47752 0.00552 0.06878 0.0
C22 C 0.44411 0.9634 0.06999 0.0
C23 C 0.45136 0.97917 0.07914 0.0
C24 C 0.46781 1.00054 0.07833 0.0
C25 C 0.45345 0.97026 0.06019 0.0
C26 C 0.47009 0.99099 0.05977 0.0
N27 N 0.52987 0.05077 0.06734 0.0
C28 C 0.56613 0.04733 0.06886 0.0
C29 C 0.56826 0.07991 0.06619 0.0
C30 C 0.55058 0.09779 0.06421 0.0
C31 C 0.53155 0.08272 0.06475 0.0
C32 C 0.54699 0.0334 0.06943 0.0
H33 H 0.51822 0.09681 0.06306 0.0
H34 H 0.54613 0.00836 0.07162 0.0
H35 H 0.47307 0.01224 0.08551 0.0
H36 H 0.47738 0.99414 0.05215 0.0
C37 C 0.47341 0.0872 0.06113 0.0
C38 C 0.50848 0.05982 0.09372 0.0
C39 C 0.51497 0.01262 0.04133 0.0
C40 C 0.51912 0.95824 0.07571 0.0
H41 H 0.48403 0.11775 0.0954 0.0
H42 H 0.46297 0.13053 0.0779 0.0
H43 H 0.46914 0.09669 0.03859 0.0
H44 H 0.49347 0.058 0.02784 0.0
H45 H 0.53124 0.94798 0.03992 0.0
H46 H 0.53186 0.91687 0.05857 0.0
H47 H 0.52634 0.95235 0.09839 0.0
H48 H 0.5222 0.00918 0.108 0.0
H49 H 0.4444 0.97496 0.08686 0.0
H50 H 0.44845 0.95863 0.05292 0.0
H51 H 0.57921 0.03261 0.07067 0.0
H52 H 0.55145 0.12307 0.06209 0.0
C53 C 0.7825 0.18271 0.08741 0.0
C54 C 0.79299 0.15437 0.08957 0.0
C55 C 0.80237 0.1457 0.08033 0.0
C56 C 0.79702 0.16888 0.07306 0.0
N57 N 0.78495 0.19212 0.07709 0.0
Co58 Co 0.77313 0.22953 0.06907 0.0
N59 N 0.78308 0.21227 0.05507 0.0
C60 C 0.79389 0.18508 0.05353 0.0
C61 C 0.79812 0.17874 0.04303 0.0
C62 C 0.78926 0.20319 0.03746 0.0
C63 C 0.78011 0.2231 0.04496 0.0
N64 N 0.76214 0.26763 0.06103 0.0
C65 C 0.76176 0.27391 0.05035 0.0
C66 C 0.75305 0.30359 0.04818 0.0
C67 C 0.74769 0.31648 0.05783 0.0
C68 C 0.75346 0.29406 0.06534 0.0
N69 N 0.76211 0.24544 0.08305 0.0
C70 C 0.75149 0.27285 0.08462 0.0
C71 C 0.74432 0.27597 0.09487 0.0
C72 C 0.75032 0.24856 0.10008 0.0
C73 C 0.7609 0.23028 0.09271 0.0
N74 N 0.79895 0.25442 0.0711 0.0
C75 C 0.83337 0.29543 0.07128 0.0
C76 C 0.81527 0.30466 0.07604 0.0
C77 C 0.79864 0.28392 0.07604 0.0
C78 C 0.8344 0.26436 0.06698 0.0
C79 C 0.81713 0.24443 0.06694 0.0
N80 N 0.74724 0.20579 0.06706 0.0
C81 C 0.71069 0.20716 0.06686 0.0
C82 C 0.70945 0.17363 0.06631 0.0
C83 C 0.72772 0.15645 0.06564 0.0
C84 C 0.74636 0.17293 0.06598 0.0
C85 C 0.72938 0.22246 0.06727 0.0
H86 H 0.75992 0.1588 0.06554 0.0
H87 H 0.7289 0.24797 0.06793 0.0
H88 H 0.78564 0.29286 0.07996 0.0
H89 H 0.81878 0.22133 0.06332 0.0
C90 C 0.80029 0.16643 0.06212 0.0
C91 C 0.7695 0.19864 0.09521 0.0
C92 C 0.76892 0.25205 0.04204 0.0
C93 C 0.74842 0.2949 0.07623 0.0
H94 H 0.79327 0.14048 0.0969 0.0
H95 H 0.81103 0.12401 0.07893 0.0
H96 H 0.80664 0.15875 0.0398 0.0
H97 H 0.78956 0.20603 0.02885 0.0
H98 H 0.75049 0.31445 0.0404 0.0
H99 H 0.73982 0.33895 0.05918 0.0
H100 H 0.73547 0.29557 0.0981 0.0
H101 H 0.74711 0.2425 0.10834 0.0
H102 H 0.81386 0.3281 0.07976 0.0
H103 H 0.84824 0.25588 0.06333 0.0
H104 H 0.6972 0.2219 0.06701 0.0
H105 H 0.72769 0.13043 0.06511 0.0
C106 C 0.49532 0.17701 0.16803 0.0
C107 C 0.48418 0.14934 0.16597 0.0
C108 C 0.4731 0.14296 0.17498 0.0
C109 C 0.47821 0.16672 0.18207 0.0
N110 N 0.49185 0.1876 0.17809 0.0
Co111 Co 0.50389 0.22448 0.18582 0.0
N112 N 0.49652 0.20563 0.1999 0.0
C113 C 0.48245 0.18274 0.20158 0.0
C114 C 0.48008 0.17492 0.21217 0.0
C115 C 0.49333 0.19433 0.21752 0.0
C116 C 0.50314 0.213 0.20984 0.0
N117 N 0.5156 0.2616 0.1936 0.0
C118 C 0.52029 0.26477 0.20412 0.0
C119 C 0.5277 0.2954 0.20616 0.0
C120 C 0.52728 0.31196 0.19662 0.0
C121 C 0.51971 0.29062 0.18926 0.0
N122 N 0.5113 0.24262 0.17165 0.0
C123 C 0.51589 0.27358 0.16961 0.0
C124 C 0.52068 0.27877 0.15903 0.0
C125 C 0.51892 0.24922 0.15417 0.0
C126 C 0.51319 0.22755 0.16207 0.0
N127 N 0.47781 0.24777 0.1853 0.0
C128 C 0.44505 0.29157 0.18422 0.0
C129 C 0.45145 0.27439 0.17513 0.0
C130 C 0.46768 0.25248 0.17587 0.0
C131 C 0.45465 0.28437 0.19396 0.0
C132 C 0.47087 0.26281 0.19432 0.0
N133 N 0.53025 0.20259 0.18638 0.0
C134 C 0.56648 0.20642 0.18475 0.0
C135 C 0.56882 0.17401 0.1876 0.0
C136 C 0.55125 0.15596 0.18967 0.0
C137 C 0.53212 0.17075 0.18909 0.0
C138 C 0.54726 0.22006 0.18414 0.0
H139 H 0.51887 0.15658 0.19088 0.0
H140 H 0.54626 0.24501 0.18186 0.0
H141 H 0.47257 0.24039 0.16868 0.0
H142 H 0.47831 0.25947 0.2019 0.0
C143 C 0.4739 0.16618 0.193 0.0
C144 C 0.50824 0.19345 0.16016 0.0
C145 C 0.51651 0.24012 0.21241 0.0
C146 C 0.51905 0.29513 0.1781 0.0
H147 H 0.48413 0.13494 0.15878 0.0
H148 H 0.46341 0.1224 0.17639 0.0
H149 H 0.4702 0.15683 0.21559 0.0
H150 H 0.4951 0.19517 0.22612 0.0
H151 H 0.53272 0.30487 0.21377 0.0
H152 H 0.53244 0.33632 0.19517 0.0
H153 H 0.52569 0.30105 0.15537 0.0
H154 H 0.5215 0.24416 0.14579 0.0
H155 H 0.44459 0.27869 0.1674 0.0
H156 H 0.44998 0.29579 0.20133 0.0
H157 H 0.57947 0.22125 0.18286 0.0
H158 H 0.55229 0.13079 0.19191 0.0
C159 C 0.78297 0.07012 0.16671 0.0
C160 C 0.79355 0.09834 0.16453 0.0
C161 C 0.80287 0.10707 0.17377 0.0
C162 C 0.79743 0.08399 0.18106 0.0
N163 N 0.78536 0.06077 0.17703 0.0
Co164 Co 0.77358 0.02332 0.18504 0.0
N165 N 0.78342 0.04065 0.19905 0.0
C166 C 0.79401 0.06805 0.20061 0.0
C167 C 0.7979 0.07469 0.21112 0.0
C168 C 0.78908 0.05019 0.21668 0.0
C169 C 0.78039 0.02985 0.20917 0.0
N170 N 0.7627 0.98514 0.19306 0.0
C171 C 0.76231 0.97883 0.20374 0.0
C172 C 0.75376 0.94903 0.20589 0.0
C173 C 0.74849 0.93611 0.19623 0.0
C174 C 0.75417 0.95862 0.18874 0.0
N175 N 0.76261 0.00741 0.17105 0.0
C176 C 0.75204 0.97997 0.16947 0.0
C177 C 0.74484 0.97688 0.15923 0.0
C178 C 0.75079 0.00434 0.15402 0.0
C179 C 0.76136 0.02261 0.1614 0.0
N180 N 0.79948 0.99855 0.18303 0.0
C181 C 0.83386 0.95744 0.18289 0.0
C182 C 0.8159 0.94853 0.17792 0.0
C183 C 0.7993 0.96934 0.1779 0.0
C184 C 0.8348 0.98826 0.18738 0.0
C185 C 0.81754 0.00826 0.1874 0.0
N186 N 0.7476 0.04691 0.18702 0.0
C187 C 0.71106 0.04516 0.18721 0.0
C188 C 0.70966 0.07869 0.18756 0.0
C189 C 0.72783 0.09612 0.18817 0.0
C190 C 0.74656 0.07981 0.18793 0.0
C191 C 0.72982 0.03004 0.1869 0.0
H192 H 0.76006 0.09411 0.18831 0.0
H193 H 0.72944 0.00449 0.18637 0.0
H194 H 0.7864 0.96064 0.17382 0.0
H195 H 0.81908 0.03115 0.19118 0.0
C196 C 0.80052 0.08658 0.19201 0.0
C197 C 0.76993 0.05426 0.15891 0.0
C198 C 0.76953 1.00057 0.21206 0.0
C199 C 0.74911 0.95782 0.17784 0.0
H200 H 0.79391 0.1121 0.15716 0.0
H201 H 0.81155 0.12874 0.17517 0.0
H202 H 0.80615 0.09494 0.21436 0.0
H203 H 0.78909 0.04763 0.2253 0.0
H204 H 0.75129 0.93808 0.21366 0.0
H205 H 0.74074 0.91355 0.19487 0.0
H206 H 0.73604 0.95726 0.15598 0.0
H207 H 0.74756 0.01043 0.14577 0.0
H208 H 0.81458 0.92528 0.17407 0.0
H209 H 0.84854 0.99646 0.19121 0.0
H210 H 0.69763 0.03027 0.18712 0.0
H211 H 0.72767 0.12216 0.18856 0.0
C212 C 0.51297 0.98054 0.91103 0.0
C213 C 0.50519 1.00216 0.9036 0.0
C214 C 0.50389 0.03148 0.90866 0.0
C215 C 0.51072 0.02621 0.91891 0.0
N216 N 0.51619 0.9954 0.92056 0.0
Co217 Co 0.52476 0.97632 0.93442 0.0
N218 N 0.51322 0.01241 0.94277 0.0
C219 C 0.50848 0.04164 0.93879 0.0
C220 C 0.50135 0.06223 0.94649 0.0
C221 C 0.50194 0.04498 0.9559 0.0
C222 C 0.50947 0.0147 0.95342 0.0
N223 N 0.53326 0.95632 0.94813 0.0
C224 C 0.52736 0.96266 0.95828 0.0
C225 C 0.5379 0.94348 0.96554 0.0
C226 C 0.55097 0.925 0.95972 0.0
C227 C 0.54776 0.93377 0.94927 0.0
N228 N 0.53676 0.94072 0.92612 0.0
C229 C 0.55156 0.92091 0.92946 0.0
C230 C 0.5575 0.89945 0.92175 0.0
C231 C 0.54563 0.9062 0.91304 0.0
C232 C 0.53298 0.93133 0.91599 0.0
N233 N 0.55055 1.00035 0.93367 0.0
C234 C 0.58345 0.04385 0.93249 0.0
C235 C 0.57432 0.036 0.9423 0.0
C236 C 0.55804 0.01457 0.94271 0.0
C237 C 0.57637 0.0277 0.92334 0.0
C238 C 0.56006 0.00598 0.92411 0.0
N239 N 0.49864 0.95365 0.93518 0.0
C240 C 0.47815 0.90595 0.93767 0.0
C241 C 0.46031 0.9237 0.93583 0.0
C242 C 0.46234 0.95674 0.9338 0.0
C243 C 0.48138 0.971 0.93345 0.0
C244 C 0.49715 0.92138 0.93732 0.0
H245 H 0.48201 0.99637 0.93175 0.0
H246 H 0.51061 0.90728 0.93871 0.0
H247 H 0.55108 0.01054 0.95038 0.0
H248 H 0.55468 0.99465 0.91689 0.0
C249 C 0.50805 0.04696 0.92766 0.0
C250 C 0.51808 0.94648 0.9089 0.0
C251 C 0.51431 0.98966 0.96143 0.0
C252 C 0.55643 0.91905 0.94033 0.0
H253 H 0.50058 0.99736 0.89547 0.0
H254 H 0.4975 0.05346 0.90543 0.0
H255 H 0.49582 0.08655 0.94538 0.0
H256 H 0.49752 0.05378 0.96369 0.0
H257 H 0.53685 0.94362 0.97418 0.0
H258 H 0.56144 0.90712 0.96274 0.0
H259 H 0.56843 0.88019 0.92253 0.0
H260 H 0.54616 0.89393 0.90542 0.0
H261 H 0.57948 0.04668 0.9497 0.0
H262 H 0.58281 0.03261 0.91554 0.0
H263 H 0.47753 0.88031 0.93923 0.0
H264 H 0.44924 0.97194 0.9326 0.0
C265 C 0.2666 0.77504 0.91259 0.0
C266 C 0.27464 0.75363 0.90524 0.0
C267 C 0.27622 0.72433 0.91039 0.0
C268 C 0.26925 0.72942 0.92062 0.0
N269 N 0.26347 0.76009 0.92214 0.0
Co270 Co 0.25441 0.77897 0.93587 0.0
N271 N 0.26624 0.74336 0.94438 0.0
C272 C 0.27124 0.71414 0.94057 0.0
C273 C 0.27871 0.69408 0.9484 0.0
C274 C 0.27813 0.71175 0.95768 0.0
C275 C 0.27029 0.74173 0.955 0.0
N276 N 0.24545 0.79876 0.94944 0.0
C277 C 0.2517 0.79314 0.95957 0.0
C278 C 0.24085 0.81185 0.96678 0.0
C279 C 0.22722 0.82935 0.96091 0.0
C280 C 0.23047 0.82048 0.95049 0.0
N281 N 0.24205 0.81412 0.92745 0.0
C282 C 0.22679 0.83319 0.93065 0.0
C283 C 0.22059 0.85429 0.92283 0.0
C284 C 0.23274 0.84803 0.9142 0.0
C285 C 0.24581 0.82353 0.91731 0.0
N286 N 0.22893 0.75421 0.93506 0.0
C287 C 0.19588 0.71142 0.93377 0.0
C288 C 0.20468 0.71902 0.94364 0.0
C289 C 0.22118 0.74008 0.9441 0.0
C290 C 0.20356 0.72667 0.92458 0.0
C291 C 0.21983 0.74831 0.92542 0.0
N292 N 0.28025 0.80243 0.93667 0.0
C293 C 0.30014 0.85075 0.93902 0.0
C294 C 0.31818 0.83322 0.93772 0.0
C295 C 0.31663 0.80019 0.93576 0.0
C296 C 0.29775 0.78547 0.93521 0.0
C297 C 0.28132 0.83484 0.93856 0.0
H298 H 0.29744 0.76011 0.93353 0.0
H299 H 0.26766 0.84862 0.93973 0.0
H300 H 0.22806 0.74401 0.95179 0.0
H301 H 0.22541 0.75958 0.9182 0.0
C302 C 0.27193 0.7087 0.92945 0.0
C303 C 0.26109 0.80892 0.91038 0.0
C304 C 0.26572 0.7674 0.96275 0.0
C305 C 0.22162 0.83479 0.94148 0.0
H306 H 0.27918 0.75857 0.89708 0.0
H307 H 0.28281 0.70249 0.90723 0.0
H308 H 0.28458 0.66994 0.94743 0.0
H309 H 0.28286 0.7035 0.96552 0.0
H310 H 0.24216 0.81216 0.97541 0.0
H311 H 0.21648 0.84682 0.96387 0.0
H312 H 0.20926 0.87298 0.92346 0.0
H313 H 0.23209 0.86016 0.90652 0.0
H314 H 0.19934 0.70778 0.95095 0.0
H315 H 0.19707 0.72188 0.9168 0.0
H316 H 0.30056 0.8764 0.94055 0.0
H317 H 0.33 0.78568 0.93446 0.0
C318 C 0.51466 0.77281 0.84234 0.0
C319 C 0.50631 0.75127 0.8496 0.0
C320 C 0.5048 0.72215 0.84443 0.0
C321 C 0.51211 0.72746 0.83427 0.0
N322 N 0.51806 0.7581 0.8328 0.0
Co323 Co 0.52729 0.77739 0.81909 0.0
N324 N 0.51536 0.74221 0.8105 0.0
C325 C 0.51009 0.713 0.8143 0.0
C326 C 0.50272 0.69313 0.80645 0.0
C327 C 0.50371 0.71085 0.79715 0.0
C328 C 0.5117 0.74066 0.79984 0.0
N329 N 0.53644 0.79763 0.80555 0.0
C330 C 0.53056 0.79211 0.79535 0.0
C331 C 0.54156 0.81112 0.78824 0.0
C332 C 0.55489 0.82866 0.79423 0.0
C333 C 0.55136 0.81953 0.80462 0.0
N334 N 0.53966 0.81206 0.82764 0.0
C335 C 0.55488 0.83135 0.82452 0.0
C336 C 0.56082 0.85237 0.83237 0.0
C337 C 0.5485 0.84585 0.84093 0.0
C338 C 0.5356 0.82132 0.83776 0.0
N339 N 0.55266 0.75224 0.81987 0.0
C340 C 0.58568 0.70919 0.82088 0.0
C341 C 0.57677 0.71747 0.81109 0.0
C342 C 0.56033 0.73863 0.81077 0.0
C343 C 0.57804 0.72375 0.83017 0.0
C344 C 0.56176 0.74553 0.82948 0.0
N345 N 0.50162 0.80125 0.81827 0.0
C346 C 0.48201 0.84992 0.81585 0.0
C347 C 0.46392 0.83293 0.81768 0.0
C348 C 0.46532 0.79976 0.8196 0.0
C349 C 0.48407 0.78461 0.8199 0.0
C350 C 0.50072 0.83362 0.8162 0.0
H351 H 0.48423 0.75917 0.82151 0.0
H352 H 0.51444 0.84713 0.81487 0.0
H353 H 0.55347 0.74306 0.8031 0.0
H354 H 0.55621 0.75632 0.83676 0.0
C355 C 0.50933 0.70718 0.8254 0.0
C356 C 0.52011 0.80665 0.8446 0.0
C357 C 0.517 0.76598 0.79201 0.0
C358 C 0.56007 0.83347 0.81369 0.0
H359 H 0.50142 0.756 0.8577 0.0
H360 H 0.49795 0.70034 0.84751 0.0
H361 H 0.49675 0.66903 0.80741 0.0
H362 H 0.49922 0.70267 0.78929 0.0
H363 H 0.54061 0.8115 0.7796 0.0
H364 H 0.56571 0.84622 0.79135 0.0
H365 H 0.57203 0.87126 0.83177 0.0
H366 H 0.54885 0.85794 0.84859 0.0
H367 H 0.58201 0.70675 0.80371 0.0
H368 H 0.58461 0.71841 0.83792 0.0
H369 H 0.48178 0.87561 0.81434 0.0
H370 H 0.45193 0.78522 0.82079 0.0
C371 C 0.26725 0.97956 0.84303 0.0
C372 C 0.28012 0.99568 0.84995 0.0
C373 C 0.29128 0.01644 0.84383 0.0
C374 C 0.28472 0.01184 0.83354 0.0
N375 N 0.26973 0.99001 0.83274 0.0
Co376 Co 0.25779 0.97396 0.819 0.0
N377 N 0.27158 0.00803 0.81032 0.0
C378 C 0.2865 0.02748 0.81373 0.0
C379 C 0.29333 0.04832 0.80598 0.0
C380 C 0.28215 0.04143 0.79706 0.0
C381 C 0.2691 0.01671 0.7999 0.0
N382 N 0.24603 0.95742 0.80536 0.0
C383 C 0.24569 0.9706 0.79542 0.0
C384 C 0.23572 0.95075 0.78821 0.0
C385 C 0.22971 0.92415 0.79379 0.0
C386 C 0.23628 0.9292 0.80404 0.0
N387 N 0.24374 0.93998 0.82761 0.0
C388 C 0.23305 0.91496 0.82376 0.0
C389 C 0.22378 0.89685 0.83152 0.0
C390 C 0.22931 0.91074 0.84094 0.0
C391 C 0.24198 0.93629 0.83837 0.0
N392 N 0.23432 1.0031 0.8208 0.0
C393 C 0.20167 0.04705 0.82179 0.0
C394 C 0.19845 0.01426 0.81965 0.0
C395 C 0.21491 0.99283 0.81912 0.0
C396 C 0.22155 0.057 0.82371 0.0
C397 C 0.23748 0.03481 0.82327 0.0
N398 N 0.28169 0.94579 0.81711 0.0
C399 C 0.30869 0.91509 0.82522 0.0
C400 C 0.32032 0.91697 0.81586 0.0
C401 C 0.31148 0.93184 0.80689 0.0
C402 C 0.29218 0.94575 0.80766 0.0
C403 C 0.28954 0.92924 0.82563 0.0
H404 H 0.28616 0.95749 0.80066 0.0
H405 H 0.2816 0.92784 0.83304 0.0
H406 H 0.21187 0.96811 0.81714 0.0
H407 H 0.25242 0.04371 0.82478 0.0
C408 C 0.29214 0.02771 0.82448 0.0
C409 C 0.25514 0.9515 0.8463 0.0
C410 C 0.25581 1.00046 0.79224 0.0
C411 C 0.23082 0.9105 0.81281 0.0
H412 H 0.28191 0.99193 0.85846 0.0
H413 H 0.30311 0.03245 0.84653 0.0
H414 H 0.30481 0.06671 0.80677 0.0
H415 H 0.2836 0.05296 0.78931 0.0
H416 H 0.23311 0.95496 0.77977 0.0
H417 H 0.22097 0.90406 0.79082 0.0
H418 H 0.21421 0.87597 0.83045 0.0
H419 H 0.22549 0.90192 0.84885 0.0
H420 H 0.18337 0.00536 0.81808 0.0
H421 H 0.22485 0.08191 0.82556 0.0
H422 H 0.3146 0.90395 0.83242 0.0
H423 H 0.31947 0.93315 0.79934 0.0
C424 C 0.49522 0.57918 0.58575 0.0
C425 C 0.48397 0.60684 0.58766 0.0
C426 C 0.47309 0.61289 0.57855 0.0
C427 C 0.47839 0.5889 0.57158 0.0
N428 N 0.49194 0.56816 0.57572 0.0
Co429 Co 0.50411 0.53088 0.56826 0.0
N430 N 0.49688 0.54898 0.55404 0.0
C431 C 0.48289 0.5719 0.55219 0.0
C432 C 0.48057 0.57912 0.54155 0.0
C433 C 0.49374 0.55925 0.53634 0.0
C434 C 0.50345 0.54089 0.54415 0.0
N435 N 0.51607 0.49341 0.56077 0.0
C436 C 0.52066 0.48948 0.55026 0.0
C437 C 0.52816 0.45877 0.54844 0.0
C438 C 0.52787 0.4429 0.55811 0.0
C439 C 0.5203 0.46471 0.5653 0.0
N440 N 0.51122 0.5134 0.58258 0.0
C441 C 0.51577 0.48254 0.58482 0.0
C442 C 0.52027 0.47783 0.59546 0.0
C443 C 0.51835 0.5076 0.60015 0.0
C444 C 0.51284 0.52889 0.59209 0.0
N445 N 0.47803 0.50753 0.56878 0.0
C446 C 0.44517 0.46388 0.56996 0.0
C447 C 0.45141 0.48159 0.57896 0.0
C448 C 0.46768 0.50341 0.57819 0.0
C449 C 0.45501 0.47047 0.56024 0.0
C450 C 0.47127 0.49195 0.55984 0.0
N451 N 0.53048 0.5529 0.5677 0.0
C452 C 0.56658 0.55007 0.57027 0.0
C453 C 0.56918 0.58161 0.56645 0.0
C454 C 0.55164 0.59868 0.56344 0.0
C455 C 0.53249 0.58398 0.56417 0.0
C456 C 0.54737 0.53624 0.57072 0.0
H457 H 0.51934 0.5976 0.56179 0.0
H458 H 0.54631 0.51176 0.57352 0.0
H459 H 0.47241 0.51593 0.58531 0.0
H460 H 0.47885 0.49482 0.55228 0.0
C461 C 0.47426 0.58894 0.56064 0.0
C462 C 0.50797 0.56309 0.59376 0.0
C463 C 0.51655 0.51328 0.54175 0.0
C464 C 0.51931 0.46069 0.57647 0.0
H465 H 0.4837 0.62137 0.59482 0.0
H466 H 0.46336 0.63334 0.57701 0.0
H467 H 0.47074 0.59707 0.53801 0.0
H468 H 0.49547 0.55784 0.52775 0.0
H469 H 0.53305 0.44874 0.54089 0.0
H470 H 0.53299 0.4186 0.55972 0.0
H471 H 0.52522 0.45574 0.59927 0.0
H472 H 0.52075 0.51305 0.60852 0.0
H473 H 0.44438 0.47779 0.58668 0.0
H474 H 0.45049 0.45866 0.55291 0.0
H475 H 0.57928 0.53587 0.57302 0.0
H476 H 0.55263 0.62303 0.56037 0.0
C477 C 0.78358 0.68158 0.58581 0.0
C478 C 0.7949 0.65397 0.58779 0.0
C479 C 0.80613 0.64842 0.57879 0.0
C480 C 0.80096 0.67259 0.5718 0.0
N481 N 0.78714 0.69296 0.57584 0.0
Co482 Co 0.77487 0.73016 0.56832 0.0
N483 N 0.78236 0.71235 0.55418 0.0
C484 C 0.79664 0.6899 0.55238 0.0
C485 C 0.79899 0.68277 0.54176 0.0
C486 C 0.7855 0.70218 0.53652 0.0
C487 C 0.77561 0.72019 0.5443 0.0
N488 N 0.76279 0.76752 0.56076 0.0
C489 C 0.75801 0.77122 0.55027 0.0
C490 C 0.75041 0.80185 0.54834 0.0
C491 C 0.75077 0.81786 0.55795 0.0
C492 C 0.75851 0.7962 0.56521 0.0
N493 N 0.76752 0.74736 0.58257 0.0
C494 C 0.76289 0.77815 0.58477 0.0
C495 C 0.75809 0.78252 0.59538 0.0
C496 C 0.75987 0.75258 0.60007 0.0
C497 C 0.76562 0.73156 0.59204 0.0
N498 N 0.80083 0.7538 0.5689 0.0
C499 C 0.83381 0.79719 0.57015 0.0
C500 C 0.8239 0.79115 0.56042 0.0
C501 C 0.80758 0.76977 0.55998 0.0
C502 C 0.82747 0.77921 0.57913 0.0
C503 C 0.81114 0.75755 0.57831 0.0
N504 N 0.7486 0.70783 0.56772 0.0
C505 C 0.71248 0.71029 0.57023 0.0
C506 C 0.71001 0.67878 0.56643 0.0
C507 C 0.72763 0.66191 0.56348 0.0
C508 C 0.74673 0.67678 0.56422 0.0
C509 C 0.73162 0.72429 0.57069 0.0
H510 H 0.75995 0.66334 0.56187 0.0
H511 H 0.73258 0.74873 0.57346 0.0
H512 H 0.79998 0.76719 0.55242 0.0
H513 H 0.80637 0.74478 0.58542 0.0
C514 C 0.80533 0.67288 0.56087 0.0
C515 C 0.77041 0.69728 0.59367 0.0
C516 C 0.76195 0.74714 0.5419 0.0
C517 C 0.75939 0.80016 0.57639 0.0
H518 H 0.79495 0.63909 0.59492 0.0
H519 H 0.81598 0.6281 0.57731 0.0
H520 H 0.80896 0.66506 0.53825 0.0
H521 H 0.78361 0.70345 0.52793 0.0
H522 H 0.74537 0.8117 0.54076 0.0
H523 H 0.74553 0.84209 0.55948 0.0
H524 H 0.75296 0.80445 0.59916 0.0
H525 H 0.75722 0.74683 0.60841 0.0
H526 H 0.82845 0.80323 0.55312 0.0
H527 H 0.83451 0.78261 0.58685 0.0
H528 H 0.69972 0.72433 0.57294 0.0
H529 H 0.72673 0.6376 0.56043 0.0
C530 C 0.49457 0.68117 0.66784 0.0
C531 C 0.48361 0.65328 0.66582 0.0
C532 C 0.4727 0.64674 0.67488 0.0
C533 C 0.47771 0.67065 0.68194 0.0
N534 N 0.49112 0.69179 0.67789 0.0
Co535 Co 0.50298 0.72899 0.68553 0.0
N536 N 0.49594 0.71014 0.69966 0.0
C537 C 0.48214 0.68687 0.70141 0.0
C538 C 0.47993 0.67914 0.71202 0.0
C539 C 0.49297 0.69904 0.71731 0.0
C540 C 0.5025 0.71791 0.70958 0.0
N541 N 0.51452 0.76646 0.6932 0.0
C542 C 0.51915 0.77001 0.70371 0.0
C543 C 0.52635 0.80082 0.70568 0.0
C544 C 0.52581 0.81714 0.69609 0.0
C545 C 0.5184 0.79548 0.6888 0.0
N546 N 0.51006 0.74713 0.67131 0.0
C547 C 0.51442 0.77813 0.6692 0.0
C548 C 0.51907 0.78326 0.6586 0.0
C549 C 0.51747 0.7536 0.65379 0.0
C550 C 0.51197 0.73196 0.66175 0.0
N551 N 0.47672 0.75177 0.68508 0.0
C552 C 0.44366 0.795 0.68406 0.0
C553 C 0.45009 0.77786 0.67497 0.0
C554 C 0.46646 0.75623 0.67567 0.0
C555 C 0.45339 0.78799 0.69378 0.0
C556 C 0.46976 0.76673 0.69411 0.0
N557 N 0.52951 0.70756 0.68599 0.0
C558 C 0.56562 0.7117 0.6838 0.0
C559 C 0.56829 0.67921 0.68654 0.0
C560 C 0.55088 0.66122 0.68908 0.0
C561 C 0.53167 0.67582 0.68876 0.0
C562 C 0.54633 0.7252 0.68353 0.0
H563 H 0.51857 0.66151 0.69073 0.0
H564 H 0.54514 0.7502 0.68134 0.0
H565 H 0.47136 0.74417 0.66849 0.0
H566 H 0.47729 0.76357 0.70167 0.0
C567 C 0.47361 0.67005 0.69289 0.0
C568 C 0.50732 0.69774 0.65993 0.0
C569 C 0.51543 0.74562 0.71209 0.0
C570 C 0.51757 0.79983 0.67764 0.0
H571 H 0.48358 0.63885 0.65864 0.0
H572 H 0.4632 0.62597 0.67634 0.0
H573 H 0.47026 0.66086 0.71549 0.0
H574 H 0.49474 0.70012 0.72591 0.0
H575 H 0.53125 0.81059 0.71326 0.0
H576 H 0.53075 0.84159 0.69458 0.0
H577 H 0.5239 0.80555 0.65488 0.0
H578 H 0.52003 0.74845 0.64542 0.0
H579 H 0.44314 0.782 0.66725 0.0
H580 H 0.44871 0.79936 0.70115 0.0
H581 H 0.57841 0.72704 0.682 0.0
H582 H 0.55201 0.63597 0.69119 0.0
C583 C 0.78225 0.57423 0.66647 0.0
C584 C 0.79283 0.60233 0.66412 0.0
C585 C 0.80214 0.6116 0.6733 0.0
C586 C 0.79668 0.58896 0.68074 0.0
N587 N 0.78459 0.56552 0.67687 0.0
Co588 Co 0.77264 0.5287 0.68514 0.0
N589 N 0.78282 0.54657 0.69902 0.0
C590 C 0.79378 0.5737 0.70037 0.0
C591 C 0.79786 0.58081 0.71083 0.0
C592 C 0.78876 0.55696 0.71657 0.0
C593 C 0.77968 0.53653 0.7092 0.0
N594 N 0.76139 0.49131 0.69345 0.0
C595 C 0.76078 0.48591 0.70418 0.0
C596 C 0.75176 0.45664 0.70657 0.0
C597 C 0.74637 0.44315 0.69702 0.0
C598 C 0.75244 0.46483 0.68934 0.0
N599 N 0.76153 0.51206 0.67127 0.0
C600 C 0.75083 0.48463 0.66988 0.0
C601 C 0.74383 0.4808 0.65963 0.0
C602 C 0.75006 0.50771 0.65421 0.0
C603 C 0.76059 0.52644 0.66148 0.0
N604 N 0.79835 0.50335 0.68322 0.0
C605 C 0.83285 0.46243 0.68299 0.0
C606 C 0.81448 0.4526 0.67867 0.0
C607 C 0.79781 0.47326 0.67869 0.0
C608 C 0.83404 0.49396 0.68691 0.0
C609 C 0.81671 0.51382 0.68699 0.0
N610 N 0.74689 0.55293 0.68708 0.0
C611 C 0.71034 0.55209 0.68786 0.0
C612 C 0.70941 0.58548 0.68892 0.0
C613 C 0.72774 0.60249 0.68907 0.0
C614 C 0.74626 0.58577 0.68827 0.0
C615 C 0.72891 0.53658 0.68692 0.0
H616 H 0.75991 0.59968 0.68857 0.0
H617 H 0.72823 0.51119 0.68592 0.0
H618 H 0.78461 0.46381 0.67512 0.0
H619 H 0.8185 0.53731 0.69029 0.0
C620 C 0.80009 0.59192 0.69165 0.0
C621 C 0.76941 0.55774 0.65873 0.0
C622 C 0.76817 0.50812 0.71233 0.0
C623 C 0.74749 0.46327 0.67844 0.0
H624 H 0.79325 0.6156 0.65666 0.0
H625 H 0.81091 0.63326 0.67456 0.0
H626 H 0.80632 0.60106 0.71392 0.0
H627 H 0.78873 0.55498 0.7252 0.0
H628 H 0.74904 0.44644 0.71443 0.0
H629 H 0.73828 0.4208 0.69584 0.0
H630 H 0.73496 0.46106 0.65652 0.0
H631 H 0.74704 0.51315 0.64588 0.0
H632 H 0.81291 0.42877 0.67526 0.0
H633 H 0.84805 0.5029 0.69022 0.0
H634 H 0.69667 0.53781 0.68751 0.0
H635 H 0.72782 0.62843 0.68992 0.0
C636 C 0.51216 0.48212 0.41158 0.0
C637 C 0.50413 0.50389 0.40428 0.0
C638 C 0.50291 0.53306 0.40944 0.0
C639 C 0.51004 0.52754 0.41962 0.0
N640 N 0.51562 0.49673 0.42112 0.0
Co641 Co 0.52464 0.47728 0.43484 0.0
N642 N 0.51317 0.51296 0.4434 0.0
C643 C 0.50823 0.54228 0.43957 0.0
C644 C 0.5012 0.56252 0.4474 0.0
C645 C 0.50207 0.54494 0.45673 0.0
C646 C 0.50966 0.51483 0.45408 0.0
N647 N 0.53356 0.45688 0.44841 0.0
C648 C 0.52785 0.46277 0.45862 0.0
C649 C 0.53861 0.44341 0.46573 0.0
C650 C 0.55163 0.42528 0.45975 0.0
C651 C 0.54816 0.43443 0.44936 0.0
N652 N 0.53656 0.44209 0.42633 0.0
C653 C 0.55152 0.42232 0.42948 0.0
C654 C 0.55726 0.4011 0.42165 0.0
C655 C 0.54508 0.40798 0.41306 0.0
C656 C 0.53245 0.43293 0.41621 0.0
N657 N 0.55031 0.50158 0.434 0.0
C658 C 0.58287 0.54564 0.43278 0.0
C659 C 0.57408 0.5372 0.44262 0.0
C660 C 0.55795 0.5155 0.44305 0.0
C661 C 0.5757 0.52973 0.42361 0.0
C662 C 0.55954 0.50772 0.4244 0.0
N663 N 0.49865 0.45431 0.43572 0.0
C664 C 0.4785 0.4063 0.43826 0.0
C665 C 0.46056 0.42413 0.43701 0.0
C666 C 0.46228 0.45715 0.43496 0.0
C667 C 0.48124 0.47157 0.43429 0.0
C668 C 0.4974 0.4219 0.43767 0.0
H669 H 0.4817 0.49694 0.43257 0.0
H670 H 0.51097 0.40788 0.43881 0.0
H671 H 0.55121 0.51107 0.45075 0.0
H672 H 0.55403 0.4966 0.41717 0.0
C673 C 0.50751 0.54799 0.42846 0.0
C674 C 0.51724 0.44814 0.40932 0.0
C675 C 0.51479 0.48956 0.46196 0.0
C676 C 0.55667 0.42011 0.4403 0.0
H677 H 0.4993 0.4993 0.39617 0.0
H678 H 0.49637 0.55509 0.40634 0.0
H679 H 0.49556 0.58682 0.44641 0.0
H680 H 0.4978 0.55342 0.46458 0.0
H681 H 0.53773 0.44319 0.47438 0.0
H682 H 0.56221 0.40738 0.46264 0.0
H683 H 0.56825 0.38188 0.42227 0.0
H684 H 0.54537 0.39589 0.40541 0.0
H685 H 0.57935 0.5477 0.45003 0.0
H686 H 0.58192 0.53509 0.41579 0.0
H687 H 0.47794 0.38066 0.43985 0.0
H688 H 0.44898 0.47188 0.4337 0.0
C689 C 0.26779 0.27164 0.4114 0.0
C690 C 0.27586 0.24979 0.4042 0.0
C691 C 0.27705 0.22067 0.40949 0.0
C692 C 0.26984 0.22628 0.41963 0.0
N693 N 0.26426 0.25711 0.42099 0.0
Co694 Co 0.25522 0.27675 0.43463 0.0
N695 N 0.26664 0.24121 0.44335 0.0
C696 C 0.2715 0.21178 0.43965 0.0
C697 C 0.27848 0.19165 0.44759 0.0
C698 C 0.27767 0.20944 0.45683 0.0
C699 C 0.27018 0.23955 0.45403 0.0
N700 N 0.24631 0.2974 0.44809 0.0
C701 C 0.25209 0.29175 0.45831 0.0
C702 C 0.24134 0.31119 0.46535 0.0
C703 C 0.22825 0.32913 0.45929 0.0
C704 C 0.23168 0.3198 0.44894 0.0
N705 N 0.24329 0.31178 0.42596 0.0
C706 C 0.22827 0.33151 0.42901 0.0
C707 C 0.22248 0.35254 0.42107 0.0
C708 C 0.23469 0.34557 0.41252 0.0
C709 C 0.24738 0.32077 0.4158 0.0
N710 N 0.22954 0.25244 0.4339 0.0
C711 C 0.19646 0.20956 0.4329 0.0
C712 C 0.20514 0.21801 0.44271 0.0
C713 C 0.22163 0.23909 0.44303 0.0
C714 C 0.20426 0.22405 0.4236 0.0
C715 C 0.22055 0.24577 0.42428 0.0
N716 N 0.28124 0.2997 0.43537 0.0
C717 C 0.30153 0.34778 0.43729 0.0
C718 C 0.31942 0.33005 0.43565 0.0
C719 C 0.31754 0.29682 0.43409 0.0
C720 C 0.29857 0.28235 0.43391 0.0
C721 C 0.28259 0.33215 0.43712 0.0
H722 H 0.29806 0.25685 0.43252 0.0
H723 H 0.26907 0.34623 0.43831 0.0
H724 H 0.22838 0.24356 0.45072 0.0
H725 H 0.22624 0.25642 0.41699 0.0
C726 C 0.27228 0.20592 0.42857 0.0
C727 C 0.2627 0.30561 0.40901 0.0
C728 C 0.26526 0.26515 0.46176 0.0
C729 C 0.22311 0.3339 0.43982 0.0
H730 H 0.28074 0.25431 0.39608 0.0
H731 H 0.2836 0.1986 0.40648 0.0
H732 H 0.28407 0.16731 0.44673 0.0
H733 H 0.28193 0.20112 0.46473 0.0
H734 H 0.24229 0.31161 0.47399 0.0
H735 H 0.21765 0.34706 0.46211 0.0
H736 H 0.21145 0.3717 0.42159 0.0
H737 H 0.23439 0.35752 0.40481 0.0
H738 H 0.19975 0.20739 0.45011 0.0
H739 H 0.19785 0.21861 0.41584 0.0
H740 H 0.30207 0.37356 0.43852 0.0
H741 H 0.33071 0.28169 0.43307 0.0
C742 C 0.50847 0.27368 0.34299 0.0
C743 C 0.4966 0.25518 0.34978 0.0
C744 C 0.49185 0.22764 0.34433 0.0
C745 C 0.5008 0.23102 0.33449 0.0
N746 N 0.5114 0.25866 0.33343 0.0
Co747 Co 0.52348 0.27593 0.31984 0.0
N748 N 0.51287 0.23925 0.31116 0.0
C749 C 0.50452 0.21194 0.31507 0.0
C750 C 0.49919 0.19051 0.30723 0.0
C751 C 0.50456 0.20501 0.29779 0.0
C752 C 0.51287 0.2346 0.3004 0.0
N753 N 0.53411 0.29518 0.30624 0.0
C754 C 0.5311 0.28646 0.29592 0.0
C755 C 0.54074 0.30742 0.28888 0.0
C756 C 0.54999 0.33027 0.29496 0.0
C757 C 0.54548 0.32208 0.30531 0.0
N758 N 0.53519 0.31157 0.32852 0.0
C759 C 0.54889 0.33347 0.32521 0.0
C760 C 0.55514 0.35391 0.33313 0.0
C761 C 0.54447 0.34482 0.34198 0.0
C762 C 0.53207 0.31955 0.33887 0.0
N763 N 0.54905 0.25014 0.32195 0.0
C764 C 0.58272 0.2075 0.32227 0.0
C765 C 0.5838 0.23736 0.31708 0.0
C766 C 0.56692 0.25805 0.31696 0.0
C767 C 0.56502 0.20028 0.32781 0.0
C768 C 0.54879 0.22189 0.32774 0.0
N769 N 0.49795 0.30035 0.31772 0.0
C770 C 0.47889 0.35016 0.31654 0.0
C771 C 0.46056 0.33311 0.31613 0.0
C772 C 0.4615 0.29954 0.31643 0.0
C773 C 0.48004 0.28389 0.31725 0.0
C774 C 0.49738 0.33335 0.31722 0.0
H775 H 0.47943 0.25826 0.31771 0.0
H776 H 0.5111 0.34722 0.31743 0.0
H777 H 0.56871 0.27996 0.31259 0.0
H778 H 0.53613 0.21458 0.33236 0.0
C779 C 0.49889 0.2097 0.32587 0.0
C780 C 0.51644 0.30565 0.34573 0.0
C781 C 0.52002 0.25796 0.29244 0.0
C782 C 0.55262 0.33797 0.31435 0.0
H783 H 0.4915 0.26114 0.35775 0.0
H784 H 0.48238 0.20804 0.34709 0.0
H785 H 0.49148 0.1677 0.30822 0.0
H786 H 0.50222 0.19524 0.28987 0.0
H787 H 0.54134 0.30608 0.28024 0.0
H788 H 0.55913 0.35022 0.29217 0.0
H789 H 0.5653 0.37423 0.3324 0.0
H790 H 0.54512 0.35637 0.34972 0.0
H791 H 0.59735 0.24424 0.31278 0.0
H792 H 0.56365 0.17781 0.3322 0.0
H793 H 0.47898 0.37623 0.31627 0.0
H794 H 0.44785 0.28516 0.31634 0.0
C795 C 0.26742 0.48332 0.34309 0.0
C796 C 0.27547 0.50508 0.35033 0.0
C797 C 0.27669 0.53426 0.34508 0.0
C798 C 0.26953 0.52878 0.33492 0.0
N799 N 0.26393 0.49798 0.33352 0.0
Co800 Co 0.25499 0.47848 0.31984 0.0
N801 N 0.26654 0.51404 0.31118 0.0
C802 C 0.27146 0.54338 0.31492 0.0
C803 C 0.27855 0.56354 0.30703 0.0
C804 C 0.27776 0.54587 0.29776 0.0
C805 C 0.27014 0.5158 0.3005 0.0
N806 N 0.24614 0.45799 0.30634 0.0
C807 C 0.25196 0.46374 0.29613 0.0
C808 C 0.24119 0.44441 0.28906 0.0
C809 C 0.22806 0.42645 0.29508 0.0
C810 C 0.23148 0.43566 0.30544 0.0
N811 N 0.24297 0.44341 0.32845 0.0
C812 C 0.22795 0.42375 0.32536 0.0
C813 C 0.22213 0.40263 0.33326 0.0
C814 C 0.23432 0.40947 0.34183 0.0
C815 C 0.24703 0.43428 0.33861 0.0
N816 N 0.22934 0.50285 0.32053 0.0
C817 C 0.19612 0.54544 0.32142 0.0
C818 C 0.20499 0.53715 0.31164 0.0
C819 C 0.22154 0.51623 0.31138 0.0
C820 C 0.20385 0.53103 0.33075 0.0
C821 C 0.22022 0.50944 0.33012 0.0
N822 N 0.28095 0.45546 0.31912 0.0
C823 C 0.30114 0.40749 0.31672 0.0
C824 C 0.31905 0.42503 0.31849 0.0
C825 C 0.31725 0.45807 0.32043 0.0
C826 C 0.2983 0.47261 0.32074 0.0
C827 C 0.28224 0.42316 0.31709 0.0
H828 H 0.29782 0.49801 0.32232 0.0
H829 H 0.26869 0.40924 0.31578 0.0
H830 H 0.2284 0.51187 0.30372 0.0
H831 H 0.22586 0.49879 0.33743 0.0
C832 C 0.27211 0.54917 0.32601 0.0
C833 C 0.26233 0.44933 0.34543 0.0
C834 C 0.26511 0.4904 0.29273 0.0
C835 C 0.22285 0.4215 0.31454 0.0
H836 H 0.28034 0.50046 0.35844 0.0
H837 H 0.28327 0.55626 0.34812 0.0
H838 H 0.28421 0.58784 0.30793 0.0
H839 H 0.2821 0.55426 0.28988 0.0
H840 H 0.24213 0.44412 0.28042 0.0
H841 H 0.21745 0.40862 0.29224 0.0
H842 H 0.21109 0.3835 0.3327 0.0
H843 H 0.23399 0.39742 0.34953 0.0
H844 H 0.19965 0.54775 0.30423 0.0
H845 H 0.1973 0.53638 0.33849 0.0
H846 H 0.30167 0.38185 0.31522 0.0
H847 H 0.33046 0.47301 0.32159 0.0
C848 C 0.99587 0.07898 0.58696 0.0
C849 C 0.98455 0.10624 0.58933 0.0
C850 C 0.97321 0.11306 0.58044 0.0
C851 C 0.9783 0.08988 0.57313 0.0
N852 N 0.99216 0.06896 0.57687 0.0
Co853 Co 1.00404 0.03251 0.56888 0.0
N854 N 0.9964 0.05215 0.55499 0.0
C855 C 0.98224 0.07502 0.55351 0.0
C856 C 0.97978 0.08351 0.54298 0.0
C857 C 0.99307 0.06457 0.53746 0.0
C858 C 1.00297 0.04547 0.54499 0.0
N859 N 0.01559 0.99583 0.56084 0.0
C860 C 0.02021 0.99338 0.55029 0.0
C861 C 0.0275 0.96285 0.54799 0.0
C862 C 0.02712 0.94564 0.55741 0.0
C863 C 0.01968 0.96652 0.56495 0.0
N864 N 1.01168 0.01355 0.58289 0.0
C865 C 0.01623 0.98246 0.58473 0.0
C866 C 0.02122 0.97673 0.59525 0.0
C867 C 0.01964 0.00607 0.60029 0.0
C868 C 1.0138 0.02815 0.59253 0.0
N869 N 0.97793 0.00929 0.56941 0.0
C870 C 0.94417 0.96758 0.57045 0.0
C871 C 0.95119 0.98373 0.57959 0.0
C872 C 0.96787 0.00471 0.57888 0.0
C873 C 0.95404 0.97389 0.56073 0.0
C874 C 0.97076 0.99454 0.56039 0.0
N875 N 0.03042 0.05443 0.56836 0.0
C876 C 0.06662 0.0507 0.57024 0.0
C877 C 0.06901 0.08358 0.56797 0.0
C878 C 0.0514 0.10151 0.56576 0.0
C879 C 0.03229 0.0865 0.56598 0.0
C880 C 0.04744 0.03683 0.57047 0.0
H881 H 0.01904 0.10078 0.56428 0.0
H882 H 0.04647 0.01159 0.57236 0.0
H883 H 0.97298 0.0165 0.58607 0.0
H884 H 0.97831 0.99754 0.55282 0.0
C885 C 0.97375 0.09103 0.56223 0.0
C886 C 1.00912 0.06225 0.59459 0.0
C887 C 0.01648 0.0187 0.54223 0.0
C888 C 0.01919 0.96134 0.57609 0.0
H889 H 0.98453 0.11999 0.59667 0.0
H890 H 0.96332 0.13352 0.57926 0.0
H891 H 0.96985 0.10179 0.53971 0.0
H892 H 0.99485 0.06435 0.52886 0.0
H893 H 0.03241 0.95389 0.5403 0.0
H894 H 0.03225 0.92115 0.55866 0.0
H895 H 0.02626 0.95426 0.59877 0.0
H896 H 0.02244 0.01073 0.60867 0.0
H897 H 0.94391 0.98013 0.58726 0.0
H898 H 0.94938 0.96198 0.55345 0.0
H899 H 0.07953 0.03534 0.57173 0.0
H900 H 0.05227 0.12703 0.56403 0.0
C901 C 0.28284 0.18112 0.58633 0.0
C902 C 0.29395 0.15346 0.58856 0.0
C903 C 0.30545 0.14729 0.5797 0.0
C904 C 0.30062 0.17116 0.57253 0.0
N905 N 0.28676 0.19192 0.57631 0.0
Co906 Co 0.27498 0.2289 0.56842 0.0
N907 N 0.28304 0.21037 0.55446 0.0
C908 C 0.29719 0.18752 0.55296 0.0
C909 C 0.30003 0.17991 0.54241 0.0
C910 C 0.287 0.19942 0.53689 0.0
C911 C 0.27687 0.21796 0.54444 0.0
N912 N 0.26356 0.26615 0.56049 0.0
C913 C 0.25938 0.26954 0.54991 0.0
C914 C 0.25204 0.3002 0.54774 0.0
C915 C 0.25197 0.31656 0.55728 0.0
C916 C 0.2592 0.29507 0.56475 0.0
N917 N 0.26689 0.24674 0.58247 0.0
C918 C 0.26214 0.27763 0.58444 0.0
C919 C 0.25687 0.28259 0.59496 0.0
C920 C 0.25849 0.25293 0.59985 0.0
C921 C 0.26462 0.23147 0.59203 0.0
N922 N 0.30101 0.25222 0.56927 0.0
C923 C 0.33466 0.29397 0.57075 0.0
C924 C 0.32742 0.27718 0.57977 0.0
C925 C 0.31081 0.25618 0.57883 0.0
C926 C 0.32507 0.28828 0.56094 0.0
C927 C 0.30841 0.2676 0.56037 0.0
N928 N 0.24869 0.20683 0.56757 0.0
C929 C 0.21238 0.21018 0.56891 0.0
C930 C 0.21031 0.17753 0.56642 0.0
C931 C 0.22804 0.15965 0.56461 0.0
C932 C 0.24706 0.17482 0.56513 0.0
C933 C 0.23151 0.22418 0.56951 0.0
H934 H 0.26043 0.16074 0.56356 0.0
H935 H 0.2323 0.24924 0.5716 0.0
H936 H 0.30552 0.24389 0.58592 0.0
H937 H 0.30107 0.26511 0.55273 0.0
C938 C 0.30539 0.17082 0.56165 0.0
C939 C 0.26953 0.19736 0.594 0.0
C940 C 0.2636 0.2451 0.54169 0.0
C941 C 0.25932 0.29936 0.57591 0.0
H942 H 0.2937 0.13893 0.59576 0.0
H943 H 0.31524 0.12679 0.57843 0.0
H944 H 0.31005 0.16188 0.53912 0.0
H945 H 0.28559 0.20043 0.52827 0.0
H946 H 0.24741 0.30982 0.54006 0.0
H947 H 0.24672 0.34089 0.55864 0.0
H948 H 0.25165 0.30476 0.59855 0.0
H949 H 0.25554 0.24768 0.6082 0.0
H950 H 0.33449 0.2803 0.58751 0.0
H951 H 0.32991 0.3007 0.55374 0.0
H952 H 0.19924 0.2249 0.57057 0.0
H953 H 0.2272 0.13432 0.56264 0.0
C954 C 0.99509 0.18203 0.66801 0.0
C955 C 0.98387 0.15445 0.66592 0.0
C956 C 0.97267 0.14821 0.6749 0.0
C957 C 0.97778 0.17195 0.68199 0.0
N958 N 0.99152 0.19272 0.67804 0.0
Co959 Co 1.00366 0.22949 0.68577 0.0
N960 N 0.99623 0.21064 0.69984 0.0
C961 C 0.98214 0.18777 0.70151 0.0
C962 C 0.97972 0.17997 0.7121 0.0
C963 C 0.99293 0.19941 0.71746 0.0
C964 C 1.00277 0.21808 0.70979 0.0
N965 N 0.01542 0.26658 0.69353 0.0
C966 C 0.01995 0.26987 0.70406 0.0
C967 C 0.02739 0.30049 0.7061 0.0
C968 C 0.02711 0.31696 0.69654 0.0
C969 C 0.01961 0.29556 0.68919 0.0
N970 N 1.0112 0.24754 0.67161 0.0
C971 C 0.01591 0.27843 0.66955 0.0
C972 C 0.0209 0.28345 0.65898 0.0
C973 C 0.01914 0.25383 0.65416 0.0
C974 C 1.01323 0.23232 0.66207 0.0
N975 N 0.97764 0.25293 0.68525 0.0
C976 C 0.94425 0.29521 0.68426 0.0
C977 C 0.95127 0.27941 0.67506 0.0
C978 C 0.96772 0.25796 0.67576 0.0
C979 C 0.95382 0.28831 0.69399 0.0
C980 C 0.97045 0.26751 0.6943 0.0
N981 N 0.02995 0.20734 0.68631 0.0
C982 C 0.06611 0.21056 0.68426 0.0
C983 C 0.06837 0.17771 0.6866 0.0
C984 C 0.05072 0.16006 0.68895 0.0
C985 C 0.0317 0.17532 0.68878 0.0
C986 C 0.047 0.22467 0.68408 0.0
H987 H 0.01841 0.16126 0.69059 0.0
H988 H 0.04613 0.24986 0.6821 0.0
H989 H 0.9728 0.24625 0.66855 0.0
H990 H 0.97792 0.26432 0.70188 0.0
C991 C 0.97351 0.17134 0.69293 0.0
C992 C 1.00828 0.19822 0.66022 0.0
C993 C 0.01599 0.24538 0.71237 0.0
C994 C 0.01906 0.30002 0.67802 0.0
H995 H 0.98389 0.13997 0.65875 0.0
H996 H 0.96294 0.12768 0.6763 0.0
H997 H 0.9698 0.16194 0.71551 0.0
H998 H 0.99462 0.20032 0.72606 0.0
H999 H 0.0323 0.31004 0.71372 0.0
H1000 H 0.0323 0.3413 0.69509 0.0
H1001 H 0.02605 0.30562 0.65531 0.0
H1002 H 0.02188 0.24862 0.6458 0.0
H1003 H 0.94415 0.28363 0.66738 0.0
H1004 H 0.94901 0.29996 0.7013 0.0
H1005 H 0.07908 0.22571 0.68266 0.0
H1006 H 0.0515 0.13457 0.69075 0.0
C1007 C 0.28189 0.07756 0.66778 0.0
C1008 C 0.29337 0.10478 0.66551 0.0
C1009 C 0.30483 0.1108 0.6744 0.0
C1010 C 0.29963 0.08723 0.68162 0.0
N1011 N 0.28558 0.06684 0.67782 0.0
Co1012 Co 0.27349 0.03014 0.68569 0.0
N1013 N 0.28147 0.04865 0.69965 0.0
C1014 C 0.29587 0.07104 0.70119 0.0
C1015 C 0.29849 0.07879 0.71175 0.0
C1016 C 0.28501 0.05988 0.71721 0.0
C1017 C 0.27486 0.04156 0.70962 0.0
N1018 N 0.26172 0.99322 0.69362 0.0
C1019 C 0.25706 0.99033 0.70415 0.0
C1020 C 0.24948 0.95985 0.70636 0.0
C1021 C 0.24971 0.94315 0.69688 0.0
C1022 C 0.25736 0.96425 0.68941 0.0
N1023 N 0.26551 0.01225 0.67164 0.0
C1024 C 0.2607 0.98137 0.66969 0.0
C1025 C 0.25561 0.97634 0.65915 0.0
C1026 C 0.25742 0.00593 0.65423 0.0
C1027 C 0.26348 0.02743 0.66205 0.0
N1028 N 0.29938 0.00645 0.68495 0.0
C1029 C 0.33292 0.96449 0.68356 0.0
C1030 C 0.32592 0.9815 0.67455 0.0
C1031 C 0.30934 1.00258 0.67544 0.0
C1032 C 0.32316 0.97005 0.69334 0.0
C1033 C 0.30653 0.99085 0.69386 0.0
N1034 N 0.24735 0.0526 0.68643 0.0
C1035 C 0.21105 0.04972 0.68507 0.0
C1036 C 0.20916 0.08232 0.68767 0.0
C1037 C 0.22695 0.09995 0.68951 0.0
C1038 C 0.24589 0.08458 0.68894 0.0
C1039 C 0.2301 0.03551 0.68442 0.0
H1040 H 0.25933 0.09844 0.69055 0.0
H1041 H 0.23079 0.01047 0.68228 0.0
H1042 H 0.30423 0.01504 0.66834 0.0
H1043 H 0.29904 0.99333 0.70146 0.0
C1044 C 0.30435 0.0875 0.69251 0.0
C1045 C 0.26854 0.06149 0.66008 0.0
C1046 C 0.26094 0.01518 0.71229 0.0
C1047 C 0.25767 0.95977 0.67825 0.0
H1048 H 0.29344 0.11901 0.65824 0.0
H1049 H 0.31489 0.13097 0.67565 0.0
H1050 H 0.3086 0.09662 0.71508 0.0
H1051 H 0.28324 0.0592 0.72582 0.0
H1052 H 0.24444 0.95061 0.71401 0.0
H1053 H 0.24431 0.91889 0.69554 0.0
H1054 H 0.25039 0.95418 0.65556 0.0
H1055 H 0.25465 0.0111 0.64586 0.0
H1056 H 0.33313 0.9785 0.66684 0.0
H1057 H 0.32782 0.95744 0.70054 0.0
H1058 H 0.19784 0.03521 0.68339 0.0
H1059 H 0.22623 0.12525 0.69155 0.0
C1060 C 1.01123 0.98016 0.41176 0.0
C1061 C 1.00076 0.99854 0.40431 0.0
C1062 C 0.9948 0.02599 0.40944 0.0
C1063 C 1.00188 0.0228 0.41971 0.0
N1064 N 1.01239 0.9953 0.42138 0.0
Co1065 Co 0.02326 0.97938 0.43544 0.0
N1066 N 1.01257 0.0178 0.44332 0.0
C1067 C 1.00414 0.04435 0.43889 0.0
C1068 C 0.99861 0.06706 0.44629 0.0
C1069 C 1.00388 0.05425 0.456 0.0
C1070 C 1.0123 0.02432 0.45397 0.0
N1071 N 0.03299 0.96209 0.44954 0.0
C1072 C 0.03012 0.97314 0.4596 0.0
C1073 C 0.03906 0.95309 0.46719 0.0
C1074 C 0.04769 0.92836 0.46173 0.0
C1075 C 0.04355 0.93467 0.4512 0.0
N1076 N 0.03486 0.94168 0.42758 0.0
C1077 C 0.04672 0.91827 0.43172 0.0
C1078 C 0.05202 0.89497 0.42455 0.0
C1079 C 0.04285 0.90378 0.41525 0.0
C1080 C 0.03252 0.93231 0.41727 0.0
N1081 N 0.04927 0.00378 0.43333 0.0
C1082 C 0.08387 0.04441 0.43297 0.0
C1083 C 0.08468 0.01361 0.43758 0.0
C1084 C 0.06731 0.99386 0.4377 0.0
C1085 C 0.06592 0.05351 0.428 0.0
C1086 C 0.04921 0.03295 0.4281 0.0
N1087 N 0.99715 0.95615 0.4375 0.0
C1088 C 0.97717 0.90718 0.43876 0.0
C1089 C 0.95907 0.9248 0.43804 0.0
C1090 C 0.96061 0.95832 0.4376 0.0
C1091 C 0.97944 0.97323 0.4373 0.0
C1092 C 0.99597 0.92327 0.43852 0.0
H1093 H 0.97918 0.99878 0.43671 0.0
H1094 H 1.00939 0.90881 0.43898 0.0
H1095 H 0.06876 0.97096 0.44156 0.0
H1096 H 0.03632 0.04182 0.42401 0.0
C1097 C 0.99904 0.04505 0.428 0.0
C1098 C 0.01984 0.94853 0.40933 0.0
C1099 C 0.01928 1.00247 0.4624 0.0
C1100 C 0.04987 0.91587 0.44268 0.0
H1101 H 0.99765 0.99256 0.39605 0.0
H1102 H 0.98611 0.04572 0.40612 0.0
H1103 H 0.99095 0.08969 0.44483 0.0
H1104 H 1.00146 0.06534 0.46372 0.0
H1105 H 0.03941 0.95607 0.47578 0.0
H1106 H 0.05605 0.90824 0.46503 0.0
H1107 H 0.06053 0.87316 0.42606 0.0
H1108 H 0.04315 0.88988 0.40795 0.0
H1109 H 0.09839 0.00525 0.44141 0.0
H1110 H 0.06469 0.07673 0.42405 0.0
H1111 H 0.9769 0.88114 0.43923 0.0
H1112 H 0.94724 0.97335 0.43743 0.0
C1113 C 0.76447 0.77574 0.41189 0.0
C1114 C 0.77075 0.75378 0.40425 0.0
C1115 C 0.7719 0.72432 0.40932 0.0
C1116 C 0.76623 0.72989 0.41974 0.0
N1117 N 0.76166 0.76097 0.42149 0.0
Co1118 Co 0.75315 0.77974 0.43533 0.0
N1119 N 0.76403 0.74277 0.44359 0.0
C1120 C 0.76832 0.71352 0.43957 0.0
C1121 C 0.77519 0.69241 0.44725 0.0
C1122 C 0.77494 0.70939 0.45667 0.0
C1123 C 0.76787 0.74002 0.45422 0.0
N1124 N 0.74463 0.79917 0.44906 0.0
C1125 C 0.75043 0.79214 0.45918 0.0
C1126 C 0.74007 0.81116 0.4665 0.0
C1127 C 0.72728 0.83042 0.46073 0.0
C1128 C 0.73047 0.82217 0.45026 0.0
N1129 N 0.74194 0.81648 0.42711 0.0
C1130 C 0.72797 0.83753 0.43058 0.0
C1131 C 0.72357 0.86104 0.4232 0.0
C1132 C 0.73549 0.8543 0.41454 0.0
C1133 C 0.7464 0.8267 0.4171 0.0
N1134 N 0.72703 0.75683 0.43432 0.0
C1135 C 0.69329 0.71541 0.43264 0.0
C1136 C 0.70256 0.72131 0.44254 0.0
C1137 C 0.71926 0.74185 0.44319 0.0
C1138 C 0.70089 0.73188 0.42365 0.0
C1139 C 0.71756 0.7527 0.42467 0.0
N1140 N 0.77954 0.80137 0.43635 0.0
C1141 C 0.80043 0.84816 0.43944 0.0
C1142 C 0.81809 0.82993 0.43782 0.0
C1143 C 0.81585 0.7973 0.43534 0.0
C1144 C 0.79665 0.78366 0.4346 0.0
C1145 C 0.78132 0.83338 0.43875 0.0
H1146 H 0.79574 0.75856 0.43256 0.0
H1147 H 0.76799 0.84773 0.44016 0.0
H1148 H 0.72633 0.74455 0.4509 0.0
H1149 H 0.72316 0.7647 0.41759 0.0
C1150 C 0.76856 0.70856 0.42843 0.0
C1151 C 0.76002 0.80989 0.40972 0.0
C1152 C 0.76357 0.76511 0.46221 0.0
C1153 C 0.72268 0.83849 0.44138 0.0
H1154 H 0.77412 0.75858 0.39592 0.0
H1155 H 0.7771 0.70188 0.40591 0.0
H1156 H 0.78033 0.66792 0.44611 0.0
H1157 H 0.77927 0.70021 0.46446 0.0
H1158 H 0.7412 0.81068 0.47514 0.0
H1159 H 0.7172 0.84871 0.4638 0.0
H1160 H 0.71377 0.88168 0.4242 0.0
H1161 H 0.73612 0.86837 0.40724 0.0
H1162 H 0.69746 0.70912 0.44972 0.0
H1163 H 0.69407 0.72863 0.41585 0.0
H1164 H 0.80137 0.8735 0.4414 0.0
H1165 H 0.8289 0.7823 0.43379 0.0
C1166 C 1.01166 0.77631 0.34245 0.0
C1167 C 1.00116 0.75802 0.34991 0.0
C1168 C 0.99505 0.73068 0.34477 0.0
C1169 C 1.00209 0.73382 0.33449 0.0
N1170 N 1.01271 0.76122 0.33282 0.0
Co1171 Co 0.02377 0.77696 0.31877 0.0
N1172 N 1.01281 0.73876 0.31088 0.0
C1173 C 1.00395 0.7125 0.31528 0.0
C1174 C 0.99816 0.69004 0.30786 0.0
C1175 C 1.00366 0.70272 0.29816 0.0
C1176 C 1.01248 0.73233 0.30022 0.0
N1177 N 0.03385 0.79395 0.30471 0.0
C1178 C 0.031 0.78292 0.29464 0.0
C1179 C 0.04024 0.80267 0.28708 0.0
C1180 C 0.04902 0.82723 0.29255 0.0
C1181 C 0.04467 0.82112 0.30307 0.0
N1182 N 0.03549 0.81455 0.32665 0.0
C1183 C 0.04746 0.83787 0.32253 0.0
C1184 C 0.0528 0.8611 0.32972 0.0
C1185 C 0.04354 0.85237 0.339 0.0
C1186 C 0.03311 0.82397 0.33695 0.0
N1187 N 0.04959 0.75217 0.32099 0.0
C1188 C 0.08423 0.71167 0.32158 0.0
C1189 C 0.08527 0.74289 0.31732 0.0
C1190 C 0.06788 0.76256 0.31707 0.0
C1191 C 0.06596 0.70199 0.32608 0.0
C1192 C 0.04921 0.72247 0.32587 0.0
N1193 N 0.9979 0.80067 0.31657 0.0
C1194 C 0.97852 0.84991 0.31431 0.0
C1195 C 0.96027 0.83271 0.31463 0.0
C1196 C 0.96136 0.79936 0.31586 0.0
C1197 C 0.98 0.78408 0.31685 0.0
C1198 C 0.99711 0.83345 0.31515 0.0
H1199 H 0.97946 0.75871 0.31798 0.0
H1200 H 1.01068 0.84752 0.31472 0.0
H1201 H 0.06955 0.78581 0.3135 0.0
H1202 H 0.03607 0.71318 0.32958 0.0
C1203 C 0.99891 0.71177 0.32618 0.0
C1204 C 0.02036 0.80787 0.34487 0.0
C1205 C 0.01978 0.75398 0.29182 0.0
C1206 C 0.05086 0.84007 0.31159 0.0
H1207 H 0.99809 0.76403 0.35817 0.0
H1208 H 0.98624 0.71108 0.34809 0.0
H1209 H 0.9902 0.66767 0.30929 0.0
H1210 H 1.00111 0.69177 0.29043 0.0
H1211 H 0.04062 0.79966 0.27848 0.0
H1212 H 0.05754 0.84719 0.28925 0.0
H1213 H 0.06145 0.88279 0.32823 0.0
H1214 H 0.04389 0.86618 0.34632 0.0
H1215 H 0.09922 0.75171 0.31386 0.0
H1216 H 0.06451 0.67841 0.32976 0.0
H1217 H 0.97847 0.87583 0.3133 0.0
H1218 H 0.94776 0.78493 0.31635 0.0
C1219 C 0.76488 0.98109 0.3422 0.0
C1220 C 0.7709 0.00318 0.34985 0.0
C1221 C 0.77214 0.03257 0.34474 0.0
C1222 C 0.76677 0.02683 0.33428 0.0
N1223 N 0.7623 0.99571 0.33256 0.0
Co1224 Co 0.75425 0.97666 0.31868 0.0
N1225 N 0.76537 0.01344 0.31044 0.0
C1226 C 0.76951 0.04278 0.31444 0.0
C1227 C 0.77676 0.06365 0.30679 0.0
C1228 C 0.77693 0.04641 0.29742 0.0
C1229 C 0.76968 0.01588 0.29986 0.0
N1230 N 0.74621 0.95693 0.30493 0.0
C1231 C 0.75238 0.96369 0.29485 0.0
C1232 C 0.74215 0.94466 0.28748 0.0
C1233 C 0.72911 0.92564 0.29318 0.0
C1234 C 0.73201 0.93404 0.30366 0.0
N1235 N 0.74279 0.94013 0.32688 0.0
C1236 C 0.72883 0.91915 0.32336 0.0
C1237 C 0.72411 0.89592 0.33078 0.0
C1238 C 0.7358 0.90278 0.33952 0.0
C1239 C 0.74695 0.93011 0.33694 0.0
N1240 N 0.7281 0.9996 0.31939 0.0
C1241 C 0.69459 0.04144 0.32068 0.0
C1242 C 0.70368 0.03453 0.31083 0.0
C1243 C 0.7204 0.01391 0.31037 0.0
C1244 C 0.7021 0.02576 0.32982 0.0
C1245 C 0.71859 0.00454 0.32899 0.0
N1246 N 0.78065 0.95503 0.31797 0.0
C1247 C 0.80171 0.90825 0.31519 0.0
C1248 C 0.81927 0.92631 0.31731 0.0
C1249 C 0.81685 0.95905 0.31964 0.0
C1250 C 0.79764 0.97274 0.31997 0.0
C1251 C 0.78257 0.92306 0.31556 0.0
H1252 H 0.79663 0.99793 0.32187 0.0
H1253 H 0.76932 0.90871 0.31395 0.0
H1254 H 0.72755 0.01067 0.30271 0.0
H1255 H 0.72408 0.99299 0.33617 0.0
C1256 C 0.76937 0.04799 0.32556 0.0
C1257 C 0.76047 0.94692 0.34436 0.0
C1258 C 0.76573 0.99055 0.29189 0.0
C1259 C 0.72386 0.91799 0.31251 0.0
H1260 H 0.77407 0.9985 0.35821 0.0
H1261 H 0.77723 0.05507 0.34815 0.0
H1262 H 0.78193 0.08812 0.30793 0.0
H1263 H 0.7817 0.05536 0.28967 0.0
H1264 H 0.7435 0.94501 0.27885 0.0
H1265 H 0.71904 0.90743 0.29006 0.0
H1266 H 0.71422 0.8754 0.32977 0.0
H1267 H 0.73613 0.88902 0.34689 0.0
H1268 H 0.69845 0.04609 0.30355 0.0
H1269 H 0.69536 0.03001 0.33759 0.0
H1270 H 0.80269 0.88281 0.31339 0.0
H1271 H 0.82977 0.9744 0.32109 0.0
C1272 C 0.99502 0.57604 0.08582 0.0
C1273 C 0.98356 0.60319 0.08814 0.0
C1274 C 0.97212 0.60963 0.07926 0.0
C1275 C 0.9773 0.58636 0.072 0.0
N1276 N 0.99131 0.56574 0.07576 0.0
Co1277 Co 1.00341 0.52938 0.0678 0.0
N1278 N 0.99554 0.54863 0.05388 0.0
C1279 C 0.98122 0.57124 0.05238 0.0
C1280 C 0.97862 0.57949 0.04184 0.0
C1281 C 0.992 0.56066 0.03633 0.0
C1282 C 1.00209 0.54188 0.04388 0.0
N1283 N 0.01514 0.49276 0.05981 0.0
C1284 C 0.01968 0.49017 0.04926 0.0
C1285 C 0.02721 0.45973 0.04701 0.0
C1286 C 0.02704 0.44272 0.05648 0.0
C1287 C 0.01949 0.46362 0.06398 0.0
N1288 N 1.01134 0.51087 0.08184 0.0
C1289 C 0.01616 0.47992 0.08373 0.0
C1290 C 0.02132 0.47449 0.09425 0.0
C1291 C 0.01956 0.5039 0.09922 0.0
C1292 C 1.01346 0.52571 0.09144 0.0
N1293 N 0.9775 0.5057 0.06842 0.0
C1294 C 0.94425 0.46323 0.06951 0.0
C1295 C 0.95141 0.4789 0.0787 0.0
C1296 C 0.96778 0.50043 0.07796 0.0
C1297 C 0.95361 0.47036 0.05974 0.0
C1298 C 0.97019 0.49125 0.05938 0.0
N1299 N 0.02957 0.55174 0.06715 0.0
C1300 C 0.06584 0.54864 0.06863 0.0
C1301 C 0.06781 0.58131 0.06605 0.0
C1302 C 0.05006 0.59906 0.06415 0.0
C1303 C 0.03109 0.58378 0.06466 0.0
C1304 C 0.04676 0.5345 0.06919 0.0
H1305 H 0.01769 0.59775 0.06303 0.0
H1306 H 0.04602 0.50939 0.0713 0.0
H1307 H 0.97298 0.51203 0.08516 0.0
H1308 H 0.97752 0.49467 0.05177 0.0
C1309 C 0.97269 0.58724 0.06109 0.0
C1310 C 1.00845 0.55972 0.09347 0.0
C1311 C 0.01573 0.51526 0.04114 0.0
C1312 C 0.01918 0.45868 0.07514 0.0
H1313 H 0.98354 0.61717 0.09542 0.0
H1314 H 0.96211 0.62993 0.07804 0.0
H1315 H 0.96854 0.59753 0.03855 0.0
H1316 H 0.99371 0.56028 0.02772 0.0
H1317 H 0.03215 0.45071 0.03933 0.0
H1318 H 0.03239 0.41838 0.05777 0.0
H1319 H 0.02658 0.45219 0.0978 0.0
H1320 H 0.02241 0.50877 0.10759 0.0
H1321 H 0.94445 0.47449 0.08641 0.0
H1322 H 0.94868 0.45881 0.05243 0.0
H1323 H 0.07898 0.53402 0.07039 0.0
H1324 H 0.05082 0.62441 0.06211 0.0
C1325 C 0.28209 0.68309 0.08783 0.0
C1326 C 0.29236 0.65445 0.08985 0.0
C1327 C 0.30156 0.64588 0.08056 0.0
C1328 C 0.29631 0.66938 0.07338 0.0
N1329 N 0.28445 0.69272 0.07752 0.0
Co1330 Co 0.2727 0.73045 0.06962 0.0
N1331 N 0.28254 0.71353 0.05554 0.0
C1332 C 0.29328 0.68632 0.0539 0.0
C1333 C 0.29749 0.68029 0.04338 0.0
C1334 C 0.2887 0.70498 0.0379 0.0
C1335 C 0.2796 0.72471 0.04546 0.0
N1336 N 0.26174 0.76882 0.0617 0.0
C1337 C 0.26132 0.7754 0.05103 0.0
C1338 C 0.25261 0.80514 0.04896 0.0
C1339 C 0.24729 0.81776 0.05866 0.0
C1340 C 0.25308 0.79514 0.06609 0.0
N1341 N 0.26184 0.74608 0.08367 0.0
C1342 C 0.25128 0.77352 0.08533 0.0
C1343 C 0.24432 0.77657 0.09562 0.0
C1344 C 0.2504 0.74912 0.10078 0.0
C1345 C 0.26081 0.73085 0.09333 0.0
N1346 N 0.29859 0.75511 0.07167 0.0
C1347 C 0.33309 0.7959 0.07183 0.0
C1348 C 0.31501 0.80528 0.07659 0.0
C1349 C 0.29835 0.78463 0.07659 0.0
C1350 C 0.33407 0.76479 0.06756 0.0
C1351 C 0.31675 0.74496 0.06753 0.0
N1352 N 0.24675 0.70693 0.06757 0.0
C1353 C 0.21021 0.70847 0.06742 0.0
C1354 C 0.20892 0.675 0.06664 0.0
C1355 C 0.22715 0.65777 0.06585 0.0
C1356 C 0.24581 0.67415 0.06629 0.0
C1357 C 0.22892 0.72366 0.06792 0.0
H1358 H 0.25933 0.65998 0.06573 0.0
H1359 H 0.22849 0.74912 0.06874 0.0
H1360 H 0.28536 0.79367 0.08051 0.0
H1361 H 0.31834 0.72181 0.06394 0.0
C1362 C 0.29956 0.6673 0.06243 0.0
C1363 C 0.26947 0.6992 0.09579 0.0
C1364 C 0.26844 0.75378 0.04264 0.0
C1365 C 0.24814 0.79574 0.077 0.0
H1366 H 0.29262 0.6403 0.09713 0.0
H1367 H 0.31005 0.62408 0.07905 0.0
H1368 H 0.30595 0.66034 0.04009 0.0
H1369 H 0.28902 0.70811 0.0293 0.0
H1370 H 0.25002 0.81622 0.04122 0.0
H1371 H 0.23944 0.84021 0.06008 0.0
H1372 H 0.23558 0.79619 0.09893 0.0
H1373 H 0.24738 0.74305 0.10906 0.0
H1374 H 0.31366 0.82874 0.08029 0.0
H1375 H 0.34789 0.7562 0.06392 0.0
H1376 H 0.19674 0.72325 0.06767 0.0
H1377 H 0.22707 0.63179 0.06514 0.0
C1378 C 0.99608 0.67747 0.16722 0.0
C1379 C 0.9847 0.65023 0.16489 0.0
C1380 C 0.97325 0.64373 0.17376 0.0
C1381 C 0.97837 0.66699 0.18103 0.0
N1382 N 0.99237 0.68766 0.1773 0.0
Co1383 Co 1.00451 0.72387 0.18531 0.0
N1384 N 0.99656 0.70447 0.1992 0.0
C1385 C 0.98222 0.68188 0.20066 0.0
C1386 C 0.97961 0.67348 0.21119 0.0
C1387 C 0.993 0.69217 0.21672 0.0
C1388 C 1.0031 0.71104 0.20921 0.0
N1389 N 0.01627 0.76034 0.19337 0.0
C1390 C 0.02074 0.76278 0.20393 0.0
C1391 C 0.02824 0.79318 0.20624 0.0
C1392 C 0.02814 0.81032 0.1968 0.0
C1393 C 0.02064 0.78953 0.18925 0.0
N1394 N 1.01253 0.74252 0.17132 0.0
C1395 C 0.01742 0.77348 0.16947 0.0
C1396 C 0.0226 0.77904 0.15897 0.0
C1397 C 0.02078 0.74973 0.15394 0.0
C1398 C 0.01462 0.72784 0.16169 0.0
N1399 N 0.97863 0.74772 0.18471 0.0
C1400 C 0.94555 0.79064 0.18365 0.0
C1401 C 0.95268 0.77497 0.17445 0.0
C1402 C 0.96896 0.75323 0.17518 0.0
C1403 C 0.95484 0.78323 0.19342 0.0
C1404 C 0.97132 0.7621 0.19377 0.0
N1405 N 0.03067 0.70136 0.18596 0.0
C1406 C 0.06699 0.70451 0.18475 0.0
C1407 C 0.06894 0.67182 0.1873 0.0
C1408 C 0.05116 0.65398 0.18901 0.0
C1409 C 0.03218 0.66927 0.18839 0.0
C1410 C 0.04791 0.71862 0.18405 0.0
H1411 H 0.01875 0.65526 0.18993 0.0
H1412 H 0.0472 0.74376 0.18198 0.0
H1413 H 0.97415 0.74169 0.16795 0.0
H1414 H 0.9786 0.75849 0.20138 0.0
C1415 C 0.97373 0.66599 0.19193 0.0
C1416 C 1.00946 0.69393 0.15958 0.0
C1417 C 0.01677 0.73757 0.212 0.0
C1418 C 0.02041 0.7946 0.1781 0.0
H1419 H 0.98474 0.6362 0.15762 0.0
H1420 H 0.96329 0.62337 0.17497 0.0
H1421 H 0.96953 0.65541 0.21444 0.0
H1422 H 0.99471 0.6924 0.22533 0.0
H1423 H 0.03312 0.8021 0.21394 0.0
H1424 H 0.03349 0.83468 0.19555 0.0
H1425 H 0.02788 0.80138 0.15546 0.0
H1426 H 0.02359 0.74499 0.14556 0.0
H1427 H 0.94577 0.77956 0.16674 0.0
H1428 H 0.94995 0.79474 0.20074 0.0
H1429 H 0.08018 0.71918 0.18315 0.0
H1430 H 0.05192 0.62861 0.19101 0.0
C1431 C 0.2829 0.57477 0.1683 0.0
C1432 C 0.2941 0.60229 0.16605 0.0
C1433 C 0.30554 0.60848 0.17494 0.0
C1434 C 0.30062 0.58467 0.18212 0.0
N1435 N 0.2868 0.56393 0.17831 0.0
Co1436 Co 0.27514 0.52672 0.1861 0.0
N1437 N 0.28292 0.54524 0.2001 0.0
C1438 C 0.29697 0.56822 0.20166 0.0
C1439 C 0.29971 0.57568 0.21223 0.0
C1440 C 0.28677 0.55592 0.2177 0.0
C1441 C 0.27676 0.53739 0.2101 0.0
N1442 N 0.26383 0.48922 0.19394 0.0
C1443 C 0.25959 0.48561 0.2045 0.0
C1444 C 0.25236 0.45484 0.2066 0.0
C1445 C 0.25248 0.43862 0.19703 0.0
C1446 C 0.25968 0.4603 0.18962 0.0
N1447 N 0.26735 0.50891 0.172 0.0
C1448 C 0.26282 0.47799 0.16996 0.0
C1449 C 0.25767 0.47316 0.15942 0.0
C1450 C 0.25911 0.50294 0.15459 0.0
C1451 C 0.26503 0.52433 0.16248 0.0
N1452 N 0.3013 0.50378 0.18531 0.0
C1453 C 0.33499 0.46215 0.18379 0.0
C1454 C 0.32782 0.47916 0.17481 0.0
C1455 C 0.31119 0.50009 0.17576 0.0
C1456 C 0.32534 0.46764 0.19361 0.0
C1457 C 0.30865 0.48827 0.19419 0.0
N1458 N 0.24871 0.54842 0.18685 0.0
C1459 C 0.21255 0.54478 0.18485 0.0
C1460 C 0.21015 0.57762 0.18707 0.0
C1461 C 0.22772 0.59545 0.18939 0.0
C1462 C 0.24682 0.5804 0.18926 0.0
C1463 C 0.23172 0.53088 0.18471 0.0
H1464 H 0.26005 0.59463 0.191 0.0
H1465 H 0.2327 0.50572 0.18278 0.0
H1466 H 0.30593 0.51252 0.16869 0.0
H1467 H 0.30126 0.4906 0.20182 0.0
C1468 C 0.30527 0.58501 0.19301 0.0
C1469 C 0.26956 0.55862 0.16064 0.0
C1470 C 0.2637 0.50991 0.21279 0.0
C1471 C 0.26 0.45613 0.17845 0.0
H1472 H 0.29397 0.61663 0.1588 0.0
H1473 H 0.31537 0.62893 0.17621 0.0
H1474 H 0.30967 0.59371 0.21556 0.0
H1475 H 0.28537 0.55471 0.22631 0.0
H1476 H 0.24771 0.44503 0.21424 0.0
H1477 H 0.24738 0.41424 0.19561 0.0
H1478 H 0.25259 0.45099 0.15578 0.0
H1479 H 0.25614 0.50833 0.14626 0.0
H1480 H 0.33495 0.47622 0.16708 0.0
H1481 H 0.33013 0.45505 0.20078 0.0
H1482 H 0.19965 0.5295 0.18329 0.0
H1483 H 0.22683 0.62094 0.19111 0.0
C1484 C 1.00926 0.4814 0.91056 0.0
C1485 C 0.99768 0.49997 0.90364 0.0
C1486 C 0.99288 0.52762 0.90901 0.0
C1487 C 1.00151 0.52425 0.91893 0.0
N1488 N 1.01196 0.4965 0.92012 0.0
Co1489 Co 0.02349 0.4792 0.93384 0.0
N1490 N 1.01286 0.51621 0.94236 0.0
C1491 C 1.00478 0.54359 0.93835 0.0
C1492 C 0.99937 0.56524 0.94611 0.0
C1493 C 1.00441 0.55081 0.95562 0.0
C1494 C 1.01259 0.52103 0.95311 0.0
N1495 N 0.03359 0.45997 0.94756 0.0
C1496 C 0.03035 0.46894 0.95783 0.0
C1497 C 0.03959 0.44789 0.965 0.0
C1498 C 0.04884 0.42474 0.95904 0.0
C1499 C 0.04471 0.43285 0.94864 0.0
N1500 N 0.03523 0.44322 0.92533 0.0
C1501 C 0.04864 0.42105 0.9288 0.0
C1502 C 0.05503 0.40043 0.92096 0.0
C1503 C 0.04477 0.40967 0.91199 0.0
C1504 C 0.03244 0.43521 0.91495 0.0
N1505 N 0.04929 0.50453 0.93192 0.0
C1506 C 0.08328 0.54655 0.93184 0.0
C1507 C 0.08406 0.51657 0.93697 0.0
C1508 C 0.06702 0.49619 0.93697 0.0
C1509 C 0.06571 0.55419 0.92624 0.0
C1510 C 0.04933 0.53289 0.92619 0.0
N1511 N 0.99771 0.45525 0.93575 0.0
C1512 C 0.97814 0.40584 0.93654 0.0
C1513 C 0.9599 0.42326 0.93634 0.0
C1514 C 0.96121 0.45683 0.93633 0.0
C1515 C 0.97992 0.47208 0.936 0.0
C1516 C 0.99682 0.42226 0.93626 0.0
H1517 H 0.97954 0.49773 0.93574 0.0
H1518 H 1.01044 0.40809 0.93628 0.0
H1519 H 0.06857 0.47415 0.94131 0.0
H1520 H 0.03679 0.54052 0.92153 0.0
C1521 C 0.99943 0.54573 0.9275 0.0
C1522 C 0.01714 0.44929 0.90793 0.0
C1523 C 0.01936 0.49768 0.96116 0.0
C1524 C 0.05198 0.41663 0.9397 0.0
H1525 H 0.9928 0.49397 0.89563 0.0
H1526 H 0.98358 0.5473 0.90615 0.0
H1527 H 0.99183 0.58816 0.94503 0.0
H1528 H 1.00195 0.56074 0.96351 0.0
H1529 H 0.0399 0.44936 0.97364 0.0
H1530 H 0.05772 0.40463 0.96195 0.0
H1531 H 0.06502 0.37993 0.92181 0.0
H1532 H 0.04563 0.39804 0.90427 0.0
H1533 H 0.09749 0.50936 0.94131 0.0
H1534 H 0.06457 0.57676 0.92189 0.0
H1535 H 0.97802 0.37977 0.93663 0.0
H1536 H 0.94774 0.47163 0.93654 0.0
C1537 C 0.76492 0.27392 0.91213 0.0
C1538 C 0.77103 0.25214 0.9044 0.0
C1539 C 0.77225 0.22255 0.9094 0.0
C1540 C 0.76678 0.22787 0.91987 0.0
N1541 N 0.76226 0.25893 0.92169 0.0
Co1542 Co 0.75417 0.27752 0.9356 0.0
N1543 N 0.76543 0.24063 0.94373 0.0
C1544 C 0.76957 0.21138 0.93967 0.0
C1545 C 0.7769 0.19042 0.94728 0.0
C1546 C 0.77716 0.20755 0.95668 0.0
C1547 C 0.76992 0.23811 0.95429 0.0
N1548 N 0.74606 0.29678 0.94941 0.0
C1549 C 0.75245 0.28998 0.95943 0.0
C1550 C 0.74226 0.30875 0.96689 0.0
C1551 C 0.72898 0.32762 0.96129 0.0
C1552 C 0.73173 0.31942 0.95078 0.0
N1553 N 0.74258 0.3142 0.92755 0.0
C1554 C 0.72851 0.33491 0.93113 0.0
C1555 C 0.72379 0.35839 0.92379 0.0
C1556 C 0.7356 0.35197 0.91506 0.0
C1557 C 0.7468 0.32461 0.91754 0.0
N1558 N 0.72808 0.25445 0.93482 0.0
C1559 C 0.6942 0.21321 0.93341 0.0
C1560 C 0.70385 0.21887 0.94322 0.0
C1561 C 0.72063 0.23932 0.94374 0.0
C1562 C 0.70152 0.22975 0.92437 0.0
C1563 C 0.71827 0.25047 0.92526 0.0
N1564 N 0.78054 0.29932 0.93639 0.0
C1565 C 0.80146 0.34617 0.93932 0.0
C1566 C 0.81908 0.32802 0.93749 0.0
C1567 C 0.8168 0.29541 0.93499 0.0
C1568 C 0.79761 0.2817 0.93444 0.0
C1569 C 0.78234 0.33131 0.93881 0.0
H1570 H 0.79666 0.25662 0.93239 0.0
H1571 H 0.76904 0.34558 0.94037 0.0
H1572 H 0.72801 0.24188 0.95137 0.0
H1573 H 0.72364 0.26255 0.91814 0.0
C1574 C 0.76941 0.20645 0.92852 0.0
C1575 C 0.76052 0.30818 0.91013 0.0
C1576 C 0.76617 0.26349 0.96225 0.0
C1577 C 0.7235 0.33567 0.94198 0.0
H1578 H 0.77427 0.25716 0.89607 0.0
H1579 H 0.77741 0.2002 0.90591 0.0
H1580 H 0.7821 0.16598 0.94608 0.0
H1581 H 0.782 0.19854 0.9644 0.0
H1582 H 0.74388 0.30839 0.97551 0.0
H1583 H 0.71891 0.34573 0.96449 0.0
H1584 H 0.71385 0.37882 0.92487 0.0
H1585 H 0.73598 0.36608 0.90776 0.0
H1586 H 0.69897 0.20662 0.95043 0.0
H1587 H 0.69441 0.22666 0.91663 0.0
H1588 H 0.80243 0.37149 0.9413 0.0
H1589 H 0.82982 0.28048 0.93329 0.0
C1590 C 0.01495 0.2714 0.84254 0.0
C1591 C 1.00674 0.24979 0.84983 0.0
C1592 C 1.00565 0.2205 0.84473 0.0
C1593 C 1.01306 0.22578 0.83459 0.0
N1594 N 0.01867 0.25656 0.83306 0.0
Co1595 Co 0.02795 0.27576 0.81936 0.0
N1596 N 0.01663 0.23999 0.81081 0.0
C1597 C 1.01163 0.21072 0.81466 0.0
C1598 C 1.00454 0.19052 0.80683 0.0
C1599 C 1.00541 0.20812 0.7975 0.0
C1600 C 1.01306 0.23818 0.80014 0.0
N1601 N 0.03713 0.29589 0.80582 0.0
C1602 C 0.03145 0.29 0.79561 0.0
C1603 C 0.0424 0.30905 0.7885 0.0
C1604 C 0.05549 0.32705 0.79449 0.0
C1605 C 0.05186 0.31811 0.80489 0.0
N1606 N 0.03972 0.31107 0.82786 0.0
C1607 C 0.0548 0.33067 0.82476 0.0
C1608 C 0.06036 0.35207 0.83258 0.0
C1609 C 0.04793 0.34545 0.84109 0.0
C1610 C 0.03536 0.32047 0.83792 0.0
N1611 N 0.05362 0.25149 0.82037 0.0
C1612 C 0.08737 0.20992 0.82176 0.0
C1613 C 0.07842 0.21724 0.81189 0.0
C1614 C 0.06163 0.2377 0.81138 0.0
C1615 C 0.07936 0.22473 0.83093 0.0
C1616 C 0.06271 0.24572 0.83005 0.0
N1617 N 1.00199 0.29876 0.81831 0.0
C1618 C 0.98199 0.34684 0.81561 0.0
C1619 C 0.96399 0.32919 0.81689 0.0
C1620 C 0.96561 0.29618 0.81899 0.0
C1621 C 0.98454 0.28162 0.81972 0.0
C1622 C 1.00084 0.33112 0.81627 0.0
H1623 H 0.98493 0.25627 0.82148 0.0
H1624 H 1.01446 0.34503 0.81514 0.0
H1625 H 0.05479 0.24146 0.80366 0.0
H1626 H 0.05687 0.25665 0.83723 0.0
C1627 C 1.01071 0.20517 0.82577 0.0
C1628 C 0.01996 0.30546 0.84473 0.0
C1629 C 0.01806 0.26361 0.79231 0.0
C1630 C 0.06023 0.33257 0.81397 0.0
H1631 H 1.00166 0.25458 0.85789 0.0
H1632 H 0.99902 0.19856 0.84784 0.0
H1633 H 0.99878 0.1663 0.80782 0.0
H1634 H 1.00104 0.19971 0.78965 0.0
H1635 H 0.04156 0.30921 0.77985 0.0
H1636 H 0.06617 0.3448 0.79161 0.0
H1637 H 0.07139 0.37122 0.83199 0.0
H1638 H 0.04803 0.35773 0.84871 0.0
H1639 H 0.08389 0.20629 0.80459 0.0
H1640 H 0.0859 0.22016 0.83873 0.0
H1641 H 0.98152 0.37246 0.81397 0.0
H1642 H 0.95227 0.28156 0.82027 0.0
C1643 C 0.7707 0.4808 0.84308 0.0
C1644 C 0.78102 0.49959 0.85041 0.0
C1645 C 0.7871 0.52671 0.84506 0.0
C1646 C 0.78021 0.52295 0.83479 0.0
N1647 N 0.76971 0.49537 0.83331 0.0
Co1648 Co 0.75893 0.47869 0.81937 0.0
N1649 N 0.76998 0.51644 0.81116 0.0
C1650 C 0.77878 0.54297 0.81534 0.0
C1651 C 0.78477 0.56489 0.80773 0.0
C1652 C 0.77948 0.55155 0.79814 0.0
C1653 C 0.77056 0.52212 0.80045 0.0
N1654 N 0.74904 0.46085 0.80544 0.0
C1655 C 0.75201 0.4713 0.79528 0.0
C1656 C 0.7426 0.45136 0.78788 0.0
C1657 C 0.7337 0.42717 0.79355 0.0
C1658 C 0.73811 0.43373 0.80402 0.0
N1659 N 0.7472 0.44148 0.82754 0.0
C1660 C 0.73536 0.41783 0.82359 0.0
C1661 C 0.73007 0.39489 0.83096 0.0
C1662 C 0.73924 0.40417 0.84018 0.0
C1663 C 0.74955 0.43259 0.83792 0.0
N1664 N 0.733 0.50351 0.82126 0.0
C1665 C 0.69811 0.54361 0.82158 0.0
C1666 C 0.69715 0.51197 0.81775 0.0
C1667 C 0.71467 0.49252 0.81761 0.0
C1668 C 0.71647 0.55398 0.82577 0.0
C1669 C 0.73333 0.53372 0.8257 0.0
N1670 N 0.7849 0.45499 0.81752 0.0
C1671 C 0.8045 0.40574 0.81594 0.0
C1672 C 0.82274 0.42291 0.81684 0.0
C1673 C 0.82145 0.45637 0.81762 0.0
C1674 C 0.80274 0.47164 0.81797 0.0
C1675 C 0.78583 0.42219 0.81627 0.0
H1676 H 0.8032 0.49709 0.81875 0.0
H1677 H 0.77229 0.40809 0.81566 0.0
H1678 H 0.71304 0.46893 0.81437 0.0
H1679 H 0.7465 0.54357 0.82918 0.0
C1680 C 0.78359 0.54444 0.82627 0.0
C1681 C 0.76216 0.44923 0.84573 0.0
C1682 C 0.76348 0.49986 0.79222 0.0
C1683 C 0.73195 0.41513 0.81267 0.0
H1684 H 0.78403 0.49403 0.85873 0.0
H1685 H 0.79584 0.54652 0.84823 0.0
H1686 H 0.79275 0.58731 0.80898 0.0
H1687 H 0.78227 0.56194 0.79032 0.0
H1688 H 0.74214 0.45397 0.77927 0.0
H1689 H 0.72508 0.40717 0.79042 0.0
H1690 H 0.7215 0.37306 0.82963 0.0
H1691 H 0.73889 0.3907 0.8476 0.0
H1692 H 0.68315 0.50262 0.81453 0.0
H1693 H 0.71789 0.57792 0.82912 0.0
H1694 H 0.80458 0.37976 0.81524 0.0
H1695 H 0.83493 0.47111 0.81796 0.0
H1696 H 0.48111 0.0629 0.10993 0.0
H1697 H 0.54238 0.16504 0.15204 0.0
H1698 H 0.54142 0.09233 0.10155 0.0
H1699 H 0.4804 0.18598 0.14429 0.0
H1700 H 0.5445 0.13067 0.13595 0.0
H1701 H 0.48256 0.0978 0.12574 0.0
C1702 C 0.49486 0.07608 0.11161 0.0
C1703 C 0.51117 0.0748 0.10448 0.0
C1704 C 0.53056 0.14317 0.13773 0.0
C1705 C 0.51294 0.11477 0.12248 0.0
C1706 C 0.52939 0.1629 0.14682 0.0
C1707 C 0.51118 0.17825 0.14946 0.0
C1708 C 0.51322 0.13818 0.13147 0.0
C1709 C 0.49469 0.17452 0.14252 0.0
C1710 C 0.49559 0.09626 0.12052 0.0
C1711 C 0.52859 0.09263 0.10692 0.0
N1712 N 0.49597 0.15437 0.13399 0.0
N1713 N 0.52906 0.11194 0.11574 0.0
H1714 H 0.79659 0.05961 0.14245 0.0
H1715 H 0.73535 0.1679 0.10229 0.0
H1716 H 0.73642 0.08682 0.15184 0.0
H1717 H 0.7962 0.19117 0.1116 0.0
H1718 H 0.73305 0.13047 0.11768 0.0
H1719 H 0.79455 0.09753 0.12734 0.0
C1720 C 0.78272 0.07289 0.1411 0.0
C1721 C 0.76666 0.07027 0.14835 0.0
C1722 C 0.74674 0.14422 0.11642 0.0
C1723 C 0.76426 0.11359 0.13121 0.0
C1724 C 0.74799 0.1657 0.10774 0.0
C1725 C 0.76599 0.1825 0.10574 0.0
C1726 C 0.76382 0.13902 0.12286 0.0
C1727 C 0.78207 0.17864 0.11293 0.0
C1728 C 0.78168 0.09477 0.13262 0.0
C1729 C 0.74906 0.08821 0.14637 0.0
N1730 N 0.78078 0.15676 0.12102 0.0
N1731 N 0.7483 0.10927 0.13796 0.0
H1732 H 0.50267 0.86585 0.84489 0.0
H1733 H 0.49988 0.88791 0.90815 0.0
H1734 H 0.52393 0.79112 0.86611 0.0
H1735 H 0.52386 0.96201 0.88752 0.0
H1736 H 0.49649 0.85236 0.89256 0.0
H1737 H 0.49827 0.90154 0.86037 0.0
C1738 C 0.50573 0.85658 0.85284 0.0
C1739 C 0.5132 0.82512 0.85421 0.0
C1740 C 0.50196 0.87673 0.89144 0.0
C1741 C 0.5081 0.86578 0.87193 0.0
C1742 C 0.50374 0.8971 0.90028 0.0
C1743 C 0.51169 0.92833 0.89912 0.0
C1744 C 0.50777 0.88781 0.88128 0.0
C1745 C 0.51692 0.93872 0.88877 0.0
C1746 C 0.50337 0.87702 0.86163 0.0
C1747 C 0.51737 0.81461 0.86468 0.0
N1748 N 0.51483 0.91854 0.88025 0.0
N1749 N 0.51472 0.83486 0.87314 0.0
H1750 H 0.27091 0.89059 0.84639 0.0
H1751 H 0.27879 0.8678 0.90946 0.0
H1752 H 0.25255 0.96621 0.86786 0.0
H1753 H 0.25488 0.79335 0.88915 0.0
H1754 H 0.28053 0.90408 0.89388 0.0
H1755 H 0.2763 0.85492 0.86176 0.0
C1756 C 0.26838 0.89994 0.85436 0.0
C1757 C 0.26121 0.93153 0.85583 0.0
C1758 C 0.27542 0.87952 0.89282 0.0
C1759 C 0.26775 0.89076 0.87346 0.0
C1760 C 0.27465 0.85871 0.90164 0.0
C1761 C 0.26714 0.82722 0.90057 0.0
C1762 C 0.26904 0.86857 0.88278 0.0
C1763 C 0.26146 0.81692 0.89031 0.0
C1764 C 0.2714 0.87947 0.8631 0.0
C1765 C 0.2582 0.94218 0.86636 0.0
N1766 N 0.26256 0.83753 0.88181 0.0
N1767 N 0.2615 0.92183 0.87479 0.0
H1768 H 0.4799 0.56787 0.60957 0.0
H1769 H 0.54139 0.66889 0.65194 0.0
H1770 H 0.54099 0.59472 0.60185 0.0
H1771 H 0.47957 0.69049 0.64403 0.0
H1772 H 0.54349 0.63434 0.6359 0.0
H1773 H 0.48122 0.60303 0.62531 0.0
C1774 C 0.49376 0.58061 0.61138 0.0
C1775 C 0.51035 0.57854 0.60445 0.0
C1776 C 0.52959 0.64703 0.63764 0.0
C1777 C 0.51198 0.61876 0.62237 0.0
C1778 C 0.52844 0.66686 0.6467 0.0
C1779 C 0.51028 0.68247 0.64925 0.0
C1780 C 0.51228 0.64222 0.63133 0.0
C1781 C 0.49383 0.67886 0.64229 0.0
C1782 C 0.49443 0.60092 0.62025 0.0
C1783 C 0.52793 0.5957 0.60705 0.0
N1784 N 0.49508 0.65863 0.63379 0.0
N1785 N 0.52833 0.61517 0.61584 0.0
H1786 H 0.79683 0.56173 0.64256 0.0
H1787 H 0.73625 0.66683 0.60086 0.0
H1788 H 0.73613 0.58925 0.65083 0.0
H1789 H 0.79735 0.68934 0.60991 0.0
H1790 H 0.73376 0.63031 0.6165 0.0
H1791 H 0.79534 0.59788 0.62698 0.0
C1792 C 0.78298 0.5747 0.64088 0.0
C1793 C 0.7666 0.5727 0.64795 0.0
C1794 C 0.74758 0.64364 0.6151 0.0
C1795 C 0.7648 0.61402 0.63024 0.0
C1796 C 0.74894 0.66458 0.60628 0.0
C1797 C 0.76703 0.681 0.60417 0.0
C1798 C 0.76463 0.63855 0.62158 0.0
C1799 C 0.78316 0.6771 0.61132 0.0
C1800 C 0.78223 0.59559 0.63211 0.0
C1801 C 0.74903 0.59019 0.64552 0.0
N1802 N 0.78174 0.65578 0.61958 0.0
N1803 N 0.74856 0.61028 0.63685 0.0
H1804 H 0.52255 0.46421 0.388 0.0
H1805 H 0.51932 0.28869 0.36707 0.0
H1806 H 0.49901 0.38955 0.40854 0.0
H1807 H 0.5004 0.36605 0.34628 0.0
H1808 H 0.51461 0.32433 0.38255 0.0
H1809 H 0.51723 0.42906 0.37251 0.0
C1810 C 0.51549 0.44098 0.38922 0.0
C1811 C 0.51057 0.43024 0.39956 0.0
C1812 C 0.51107 0.33324 0.37461 0.0
C1813 C 0.50583 0.38903 0.38196 0.0
C1814 C 0.51355 0.31281 0.36579 0.0
C1815 C 0.50989 0.32425 0.35538 0.0
C1816 C 0.5056 0.36561 0.37297 0.0
C1817 C 0.50321 0.35623 0.35418 0.0
C1818 C 0.51276 0.42071 0.38039 0.0
C1819 C 0.50266 0.39895 0.40068 0.0
N1820 N 0.50168 0.37597 0.36282 0.0
N1821 N 0.50089 0.37925 0.39204 0.0
H1822 H 0.25767 0.46497 0.36681 0.0
H1823 H 0.25795 0.28974 0.38765 0.0
H1824 H 0.28026 0.39049 0.34609 0.0
H1825 H 0.2807 0.36436 0.40826 0.0
H1826 H 0.26308 0.32545 0.37218 0.0
H1827 H 0.26305 0.42921 0.38225 0.0
C1828 C 0.26455 0.44165 0.36554 0.0
C1829 C 0.26917 0.43113 0.35516 0.0
C1830 C 0.26743 0.33366 0.38007 0.0
C1831 C 0.27391 0.38925 0.37271 0.0
C1832 C 0.26481 0.31307 0.38889 0.0
C1833 C 0.26953 0.32366 0.39925 0.0
C1834 C 0.274 0.36548 0.38167 0.0
C1835 C 0.27719 0.35508 0.40039 0.0
C1836 C 0.2673 0.42104 0.37434 0.0
C1837 C 0.27683 0.39972 0.35398 0.0
N1838 N 0.27881 0.37508 0.39176 0.0
N1839 N 0.27858 0.37969 0.3626 0.0
H1840 H 0.98256 0.06393 0.61117 0.0
H1841 H 0.0426 0.16918 0.65262 0.0
H1842 H 0.04191 0.09592 0.60194 0.0
H1843 H 0.98105 0.1906 0.64408 0.0
H1844 H 0.04514 0.13393 0.63675 0.0
H1845 H 0.98406 0.09944 0.62683 0.0
C1846 C 0.99615 0.07772 0.61265 0.0
C1847 C 1.01216 0.07702 0.60532 0.0
C1848 C 0.03121 0.14674 0.63831 0.0
C1849 C 1.01395 0.11766 0.62312 0.0
C1850 C 0.02981 0.16697 0.64727 0.0
C1851 C 1.01159 0.18269 0.64961 0.0
C1852 C 1.01407 0.14164 0.63192 0.0
C1853 C 0.99535 0.17886 0.64252 0.0
C1854 C 0.99689 0.09824 0.62147 0.0
C1855 C 0.02935 0.09571 0.60748 0.0
N1856 N 0.99682 0.1582 0.63414 0.0
N1857 N 0.02983 0.11537 0.61622 0.0
H1858 H 0.23531 0.16789 0.60162 0.0
H1859 H 0.29561 0.06437 0.64375 0.0
H1860 H 0.29662 0.19044 0.61025 0.0
H1861 H 0.23566 0.09468 0.65245 0.0
H1862 H 0.29416 0.09992 0.62799 0.0
H1863 H 0.23283 0.13287 0.61764 0.0
C1864 C 0.24805 0.16599 0.60702 0.0
C1865 C 0.26619 0.18197 0.60467 0.0
C1866 C 0.28121 0.09839 0.63327 0.0
C1867 C 0.26379 0.14118 0.62254 0.0
C1868 C 0.28193 0.07787 0.64214 0.0
C1869 C 0.26573 0.0767 0.64935 0.0
C1870 C 0.26397 0.11732 0.63143 0.0
C1871 C 0.2484 0.09491 0.64702 0.0
C1872 C 0.24669 0.14589 0.61607 0.0
C1873 C 0.28238 0.17852 0.61182 0.0
N1874 N 0.24793 0.11457 0.63823 0.0
N1875 N 0.28095 0.15798 0.6203 0.0
H1876 H 0.04781 0.81351 0.36096 0.0
H1877 H 0.98577 0.9188 0.40174 0.0
H1878 H 0.98686 0.83923 0.35249 0.0
H1879 H 0.04728 0.94087 0.3933 0.0
H1880 H 0.98377 0.88237 0.38618 0.0
H1881 H 0.046 0.85033 0.37626 0.0
C1882 C 0.03386 0.82627 0.36253 0.0
C1883 C 0.01748 0.82352 0.35549 0.0
C1884 C 0.99757 0.89561 0.38768 0.0
C1885 C 0.01532 0.86565 0.37287 0.0
C1886 C 0.99865 0.91653 0.39645 0.0
C1887 C 0.01672 0.93274 0.39875 0.0
C1888 C 0.01486 0.89036 0.38142 0.0
C1889 C 0.03309 0.9288 0.39176 0.0
C1890 C 0.03292 0.84755 0.37114 0.0
C1891 C 0.99976 0.84074 0.35779 0.0
N1892 N 0.03192 0.90749 0.38355 0.0
N1893 N 0.99912 0.86122 0.3663 0.0
H1894 H 0.79416 0.84107 0.40288 0.0
H1895 H 0.73481 0.94548 0.36131 0.0
H1896 H 0.73425 0.81457 0.39284 0.0
H1897 H 0.79349 0.91279 0.35124 0.0
H1898 H 0.73682 0.9093 0.3769 0.0
H1899 H 0.79695 0.87664 0.38701 0.0
C1900 C 0.78185 0.84213 0.39717 0.0
C1901 C 0.76399 0.82486 0.39908 0.0
C1902 C 0.74941 0.91056 0.37138 0.0
C1903 C 0.76667 0.86633 0.38142 0.0
C1904 C 0.74839 0.93145 0.36261 0.0
C1905 C 0.76405 0.9321 0.35506 0.0
C1906 C 0.7664 0.89078 0.37275 0.0
C1907 C 0.78121 0.91304 0.35696 0.0
C1908 C 0.78338 0.86255 0.38823 0.0
C1909 C 0.7483 0.82738 0.39158 0.0
N1910 N 0.78198 0.89303 0.36565 0.0
N1911 N 0.74981 0.84831 0.38322 0.0
H1912 H 0.04332 0.66373 0.15188 0.0
H1913 H 0.98166 0.56299 0.10993 0.0
H1914 H 0.98232 0.68873 0.14329 0.0
H1915 H 0.04172 0.59208 0.10094 0.0
H1916 H 0.98366 0.59828 0.12564 0.0
H1917 H 0.04532 0.62917 0.13583 0.0
C1918 C 0.03056 0.66249 0.14647 0.0
C1919 C 1.01264 0.67905 0.14885 0.0
C1920 C 0.99651 0.59654 0.12031 0.0
C1921 C 1.01448 0.63872 0.13094 0.0
C1922 C 0.99548 0.57616 0.11146 0.0
C1923 C 1.01155 0.57472 0.10417 0.0
C1924 C 1.01394 0.61504 0.12205 0.0
C1925 C 0.02907 0.59251 0.10642 0.0
C1926 C 0.03164 0.64264 0.13741 0.0
C1927 C 0.9964 0.67639 0.14169 0.0
N1928 N 0.02985 0.61202 0.11519 0.0
N1929 N 0.99754 0.65606 0.1332 0.0
H1930 H 0.29561 0.56107 0.14387 0.0
H1931 H 0.23507 0.67106 0.10374 0.0
H1932 H 0.23684 0.59358 0.15383 0.0
H1933 H 0.29724 0.6899 0.11161 0.0
H1934 H 0.23276 0.63487 0.11946 0.0
H1935 H 0.29395 0.59796 0.12846 0.0
C1936 C 0.2821 0.57528 0.14259 0.0
C1937 C 0.2663 0.5743 0.15004 0.0
C1938 C 0.24678 0.64733 0.11779 0.0
C1939 C 0.26434 0.61654 0.13257 0.0
C1940 C 0.24805 0.6681 0.10892 0.0
C1941 C 0.26639 0.68329 0.10641 0.0
C1942 C 0.26414 0.6412 0.12394 0.0
C1943 C 0.28287 0.67854 0.11329 0.0
C1944 C 0.28127 0.59659 0.13392 0.0
C1945 C 0.24922 0.59357 0.14817 0.0
N1946 N 0.28149 0.65737 0.12159 0.0
N1947 N 0.24865 0.61401 0.13959 0.0
H1948 H 0.02448 0.28997 0.86616 0.0
H1949 H 0.02083 0.46587 0.88659 0.0
H1950 H 1.00177 0.36415 0.84514 0.0
H1951 H 1.00073 0.38917 0.90734 0.0
H1952 H 0.01659 0.42995 0.87115 0.0
H1953 H 0.01858 0.32553 0.88147 0.0
C1954 C 0.01748 0.31318 0.86479 0.0
C1955 C 1.01296 0.32366 0.85437 0.0
C1956 C 1.01269 0.42126 0.87906 0.0
C1957 C 1.00758 0.36534 0.8718 0.0
C1958 C 0.0149 0.44185 0.88786 0.0
C1959 C 1.01079 0.43066 0.89825 0.0
C1960 C 1.00702 0.38898 0.88072 0.0
C1961 C 1.0039 0.3988 0.89945 0.0
C1962 C 1.01442 0.33368 0.87353 0.0
C1963 C 1.00513 0.35495 0.85307 0.0
N1964 N 1.00263 0.37889 0.89084 0.0
N1965 N 1.00304 0.37488 0.86163 0.0
H1966 H 0.79435 0.34134 0.90402 0.0
H1967 H 0.7347 0.44392 0.86183 0.0
H1968 H 0.73555 0.31257 0.89292 0.0
H1969 H 0.79576 0.41846 0.85356 0.0
H1970 H 0.73642 0.40691 0.87719 0.0
H1971 H 0.79722 0.37823 0.88851 0.0
C1972 C 0.78234 0.34217 0.89815 0.0
C1973 C 0.76476 0.32383 0.89963 0.0
C1974 C 0.74955 0.40989 0.87211 0.0
C1975 C 0.76745 0.3668 0.8824 0.0
C1976 C 0.74867 0.43126 0.86347 0.0
C1977 C 0.76509 0.43404 0.85645 0.0
C1978 C 0.76715 0.39183 0.87391 0.0
C1979 C 0.78283 0.41692 0.85884 0.0
C1980 C 0.78389 0.36336 0.8894 0.0
C1981 C 0.74939 0.32614 0.89195 0.0
N1982 N 0.78342 0.39637 0.86739 0.0
N1983 N 0.75089 0.34778 0.8838 0.0
H1984 H 0.37271 0.78775 0.07826 0.0
H1985 H 0.41014 0.96031 0.05749 0.0
H1986 H 0.33252 0.85741 0.06403 0.0
H1987 H 0.44001 0.91114 0.08349 0.0
H1988 H 0.38365 0.91903 0.05774 0.0
H1989 H 0.39982 0.82852 0.0781 0.0
C1990 C 0.36966 0.81148 0.07501 0.0
C1991 C 0.3503 0.81919 0.07117 0.0
C1992 C 0.39595 0.9173 0.06342 0.0
C1993 C 0.38123 0.86583 0.07089 0.0
C1994 C 0.4111 0.94085 0.06328 0.0
C1995 C 0.42729 0.93934 0.07053 0.0
C1996 C 0.39712 0.89147 0.0707 0.0
C1997 C 0.4277 0.91347 0.07784 0.0
C1998 C 0.38506 0.83479 0.075 0.0
C1999 C 0.34716 0.85045 0.06712 0.0
N2000 N 0.41297 0.89043 0.07768 0.0
N2001 N 0.36242 0.87246 0.06703 0.0
H2002 H 0.87301 0.28731 0.07766 0.0
H2003 H 0.91033 0.46002 0.05697 0.0
H2004 H 0.8327 0.35707 0.06358 0.0
H2005 H 0.94022 0.41083 0.08296 0.0
H2006 H 0.88386 0.41869 0.0572 0.0
H2007 H 0.90011 0.32813 0.0775 0.0
C2008 C 0.86993 0.31107 0.07444 0.0
C2009 C 0.85054 0.31879 0.07064 0.0
C2010 C 0.89617 0.41697 0.06288 0.0
C2011 C 0.88145 0.36548 0.07036 0.0
C2012 C 0.9113 0.44054 0.06275 0.0
C2013 C 0.92749 0.43905 0.07 0.0
C2014 C 0.89734 0.39113 0.07016 0.0
C2015 C 0.92792 0.41315 0.0773 0.0
C2016 C 0.88533 0.33441 0.07443 0.0
C2017 C 0.84736 0.3501 0.06664 0.0
N2018 N 0.9132 0.39009 0.07714 0.0
N2019 N 0.86261 0.37212 0.06654 0.0
H2020 H 0.44256 0.34758 0.19596 0.0
H2021 H 0.34209 0.4166 0.16816 0.0
H2022 H 0.41119 0.29613 0.17102 0.0
H2023 H 0.36661 0.45263 0.19775 0.0
H2024 H 0.36889 0.37563 0.16776 0.0
H2025 H 0.41648 0.38879 0.19549 0.0
C2026 C 0.43012 0.34458 0.19043 0.0
C2027 C 0.42914 0.3176 0.18364 0.0
C2028 C 0.36842 0.39256 0.17432 0.0
C2029 C 0.3991 0.36604 0.18288 0.0
C2030 C 0.3532 0.41617 0.17452 0.0
C2031 C 0.35196 0.43823 0.18302 0.0
C2032 C 0.38276 0.39111 0.18261 0.0
C2033 C 0.36673 0.43605 0.19109 0.0
C2034 C 0.41523 0.36848 0.19012 0.0
C2035 C 0.41282 0.3163 0.1764 0.0
N2036 N 0.38142 0.4131 0.19067 0.0
N2037 N 0.3985 0.34004 0.17623 0.0
H2038 H 0.83292 0.89644 0.19104 0.0
H2039 H 0.94158 0.84245 0.16995 0.0
H2040 H 0.87341 0.96427 0.17612 0.0
H2041 H 0.91186 0.79524 0.19639 0.0
H2042 H 0.9151 0.88413 0.17004 0.0
H2043 H 0.86001 0.85618 0.19121 0.0
C2044 C 0.84758 0.90288 0.18783 0.0
C2045 C 0.85091 0.93383 0.1836 0.0
C2046 C 0.91439 0.86462 0.17581 0.0
C2047 C 0.882 0.88746 0.18356 0.0
C2048 C 0.92939 0.84066 0.1757 0.0
C2049 C 0.92895 0.81519 0.18316 0.0
C2050 C 0.89854 0.86281 0.18328 0.0
C2051 C 0.91288 0.81442 0.19052 0.0
C2052 C 0.86305 0.87989 0.18794 0.0
C2053 C 0.87023 0.94081 0.17954 0.0
N2054 N 0.89831 0.83764 0.19034 0.0
N2055 N 0.88498 0.91773 0.17951 0.0
H2056 H 0.66263 0.2048 0.94746 0.0
H2057 H 0.61676 0.04797 0.91895 0.0
H2058 H 0.68647 0.16752 0.91787 0.0
H2059 H 0.58729 0.09886 0.94465 0.0
H2060 H 0.64296 0.08977 0.91859 0.0
H2061 H 0.63584 0.16439 0.94686 0.0
C2062 C 0.66227 0.18812 0.94082 0.0
C2063 C 0.67698 0.18971 0.93272 0.0
C2064 C 0.63074 0.09171 0.9243 0.0
C2065 C 0.64606 0.1429 0.93198 0.0
C2066 C 0.61565 0.06786 0.92449 0.0
C2067 C 0.59968 0.06934 0.93192 0.0
C2068 C 0.63002 0.11736 0.93162 0.0
C2069 C 0.59942 0.09584 0.93895 0.0
C2070 C 0.64686 0.16505 0.94046 0.0
C2071 C 0.67542 0.16752 0.92426 0.0
N2072 N 0.61429 0.11849 0.93864 0.0
N2073 N 0.66038 0.14497 0.92415 0.0
H2074 H 0.19259 0.65914 0.92041 0.0
H2075 H 0.08153 0.60879 0.93873 0.0
H2076 H 0.16123 0.70804 0.94583 0.0
H2077 H 0.12335 0.5388 0.92632 0.0
H2078 H 0.10886 0.64871 0.93923 0.0
H2079 H 0.1657 0.61821 0.92015 0.0
C2080 C 0.17997 0.66143 0.92587 0.0
C2081 C 0.17918 0.68715 0.93315 0.0
C2082 C 0.11209 0.62461 0.93642 0.0
C2083 C 0.14826 0.64045 0.93283 0.0
C2084 C 0.0965 0.60184 0.93611 0.0
C2085 C 0.10017 0.57037 0.9325 0.0
C2086 C 0.13151 0.61625 0.93284 0.0
C2087 C 0.11989 0.5627 0.92922 0.0
C2088 C 0.16472 0.63792 0.92577 0.0
C2089 C 0.16253 0.68862 0.94012 0.0
N2090 N 0.13476 0.58553 0.92936 0.0
N2091 N 0.14771 0.66584 0.93972 0.0
H2092 H 0.61952 0.7069 0.80826 0.0
H2093 H 0.659 0.53492 0.82883 0.0
H2094 H 0.59024 0.65627 0.83414 0.0
H2095 H 0.69746 0.60459 0.81332 0.0
H2096 H 0.6315 0.57506 0.82895 0.0
H2097 H 0.64619 0.66601 0.8082 0.0
C2098 C 0.6187 0.68718 0.81395 0.0
C2099 C 0.6026 0.68518 0.82124 0.0
C2100 C 0.64596 0.58147 0.8255 0.0
C2101 C 0.63309 0.63773 0.82111 0.0
C2102 C 0.66159 0.5585 0.82535 0.0
C2103 C 0.68059 0.5664 0.82108 0.0
C2104 C 0.64921 0.61237 0.82113 0.0
C2105 C 0.68312 0.59748 0.81676 0.0
C2106 C 0.63398 0.66384 0.81392 0.0
C2107 C 0.60246 0.65901 0.82845 0.0
N2108 N 0.66767 0.61914 0.81685 0.0
N2109 N 0.61734 0.63621 0.82814 0.0
H2110 H 0.09293 0.15941 0.83589 0.0
H2111 H 0.20072 0.10697 0.81244 0.0
H2112 H 0.121 0.20646 0.80891 0.0
H2113 H 0.16386 0.04213 0.83109 0.0
H2114 H 0.17333 0.14658 0.81271 0.0
H2115 H 0.12039 0.11947 0.83599 0.0
C2116 C 0.10495 0.16157 0.83006 0.0
C2117 C 0.10459 0.18645 0.82238 0.0
C2118 C 0.17119 0.1237 0.81674 0.0
C2119 C 0.13616 0.1407 0.82246 0.0
C2120 C 0.18689 0.10107 0.81664 0.0
C2121 C 0.18469 0.07106 0.82177 0.0
C2122 C 0.1531 0.11672 0.82216 0.0
C2123 C 0.16623 0.06479 0.82697 0.0
C2124 C 0.12054 0.13858 0.83006 0.0
C2125 C 0.12052 0.18766 0.81494 0.0
N2126 N 0.15125 0.08745 0.8271 0.0
N2127 N 0.13562 0.16532 0.8152 0.0
H2128 H 0.4427 0.40732 0.55849 0.0
H2129 H 0.34176 0.33997 0.58626 0.0
H2130 H 0.41109 0.46013 0.58304 0.0
H2131 H 0.3664 0.30293 0.55683 0.0
H2132 H 0.36865 0.38082 0.58657 0.0
H2133 H 0.4165 0.36635 0.55904 0.0
C2134 C 0.43019 0.41068 0.56395 0.0
C2135 C 0.42918 0.43798 0.5706 0.0
C2136 C 0.36818 0.36369 0.58006 0.0
C2137 C 0.39899 0.38977 0.57147 0.0
C2138 C 0.35291 0.34016 0.57992 0.0
C2139 C 0.35168 0.31785 0.57149 0.0
C2140 C 0.38258 0.36481 0.57179 0.0
C2141 C 0.3665 0.31971 0.56344 0.0
C2142 C 0.41523 0.38691 0.56431 0.0
C2143 C 0.41275 0.43971 0.57776 0.0
N2144 N 0.38125 0.34259 0.5638 0.0
N2145 N 0.39836 0.41607 0.57799 0.0
H2146 H 0.86778 0.79952 0.5833 0.0
H2147 H 0.91282 0.95983 0.55623 0.0
H2148 H 0.83712 0.85405 0.55868 0.0
H2149 H 0.93643 0.92059 0.58569 0.0
H2150 H 0.88617 0.91909 0.55651 0.0
H2151 H 0.89385 0.84143 0.58395 0.0
C2152 C 0.86637 0.8202 0.57805 0.0
C2153 C 0.85007 0.82266 0.57084 0.0
C2154 C 0.8971 0.9194 0.56296 0.0
C2155 C 0.88033 0.87085 0.57147 0.0
C2156 C 0.91243 0.94266 0.56278 0.0
C2157 C 0.92704 0.94381 0.57094 0.0
C2158 C 0.8963 0.89657 0.5713 0.0
C2159 C 0.92546 0.92094 0.57927 0.0
C2160 C 0.88139 0.84414 0.57841 0.0
C2161 C 0.84949 0.85021 0.56419 0.0
N2162 N 0.91053 0.8982 0.57919 0.0
N2163 N 0.86433 0.8729 0.56464 0.0
H2164 H 0.4409 0.85096 0.6958 0.0
H2165 H 0.34026 0.91898 0.66795 0.0
H2166 H 0.40972 0.79906 0.6709 0.0
H2167 H 0.36436 0.95495 0.69764 0.0
H2168 H 0.36719 0.87821 0.66759 0.0
H2169 H 0.41459 0.8918 0.69536 0.0
C2170 C 0.42846 0.84777 0.69029 0.0
C2171 C 0.4276 0.82078 0.68351 0.0
C2172 C 0.36659 0.89508 0.67417 0.0
C2173 C 0.3973 0.86881 0.68277 0.0
C2174 C 0.35129 0.91856 0.67434 0.0
C2175 C 0.34991 0.94056 0.68286 0.0
C2176 C 0.38085 0.89369 0.6825 0.0
C2177 C 0.36458 0.93841 0.69097 0.0
C2178 C 0.41344 0.87147 0.69 0.0
C2179 C 0.41126 0.81924 0.67628 0.0
N2180 N 0.37936 0.91558 0.69057 0.0
N2181 N 0.39682 0.8428 0.67611 0.0
H2182 H 0.87221 0.47047 0.67608 0.0
H2183 H 0.91065 0.29851 0.69703 0.0
H2184 H 0.83277 0.4012 0.69109 0.0
H2185 H 0.93972 0.34733 0.67072 0.0
H2186 H 0.88411 0.33973 0.69693 0.0
H2187 H 0.89942 0.42983 0.67611 0.0
C2188 C 0.86934 0.44686 0.67947 0.0
C2189 C 0.85015 0.43923 0.68356 0.0
C2190 C 0.89625 0.3414 0.69115 0.0
C2191 C 0.88121 0.39272 0.68369 0.0
C2192 C 0.91142 0.31788 0.69121 0.0
C2193 C 0.92741 0.31929 0.68383 0.0
C2194 C 0.89716 0.36712 0.68381 0.0
C2195 C 0.92758 0.34506 0.67647 0.0
C2196 C 0.88481 0.42362 0.67941 0.0
C2197 C 0.84726 0.40811 0.68779 0.0
N2198 N 0.91282 0.36807 0.6767 0.0
N2199 N 0.86258 0.38617 0.6878 0.0
H2200 H 0.58603 0.60047 0.44503 0.0
H2201 H 0.68634 0.66967 0.41704 0.0
H2202 H 0.61603 0.55112 0.41917 0.0
H2203 H 0.66135 0.7064 0.44644 0.0
H2204 H 0.6594 0.62898 0.41656 0.0
H2205 H 0.61218 0.64156 0.44462 0.0
C2206 C 0.59819 0.59794 0.4393 0.0
C2207 C 0.59877 0.57161 0.43223 0.0
C2208 C 0.6598 0.646 0.4231 0.0
C2209 C 0.62892 0.61983 0.43156 0.0
C2210 C 0.67511 0.66945 0.42334 0.0
C2211 C 0.67626 0.69163 0.43181 0.0
C2212 C 0.64532 0.64478 0.43133 0.0
C2213 C 0.66133 0.68971 0.43981 0.0
C2214 C 0.61312 0.62175 0.43903 0.0
C2215 C 0.61473 0.57081 0.42477 0.0
N2216 N 0.64658 0.66686 0.43935 0.0
N2217 N 0.62913 0.59443 0.42465 0.0
H2218 H 0.08313 0.1059 0.44053 0.0
H2219 H 0.19284 0.15653 0.41983 0.0
H2220 H 0.12353 0.03657 0.4265 0.0
H2221 H 0.16215 0.20665 0.44522 0.0
H2222 H 0.16612 0.11527 0.42012 0.0
H2223 H 0.11043 0.14573 0.44047 0.0
C2224 C 0.0978 0.09903 0.43746 0.0
C2225 C 0.10104 0.06778 0.43354 0.0
C2226 C 0.16525 0.13532 0.42562 0.0
C2227 C 0.1324 0.11367 0.43325 0.0
C2228 C 0.18039 0.15904 0.42539 0.0
C2229 C 0.17976 0.1852 0.4325 0.0
C2230 C 0.14908 0.13805 0.43285 0.0
C2231 C 0.16335 0.1869 0.43962 0.0
C2232 C 0.1134 0.12179 0.43744 0.0
C2233 C 0.12041 0.06027 0.42967 0.0
N2234 N 0.14866 0.16388 0.43956 0.0
N2235 N 0.13529 0.08312 0.42952 0.0
H2236 H 0.69126 0.09345 0.33412 0.0
H2237 H 0.58064 0.14516 0.3155 0.0
H2238 H 0.66004 0.04503 0.30856 0.0
H2239 H 0.62276 0.21471 0.32789 0.0
H2240 H 0.60775 0.10483 0.31513 0.0
H2241 H 0.66451 0.13463 0.33433 0.0
C2242 C 0.67868 0.0913 0.32863 0.0
C2243 C 0.67788 0.06566 0.32133 0.0
C2244 C 0.61109 0.12891 0.31791 0.0
C2245 C 0.64715 0.11263 0.32158 0.0
C2246 C 0.59563 0.15192 0.31815 0.0
C2247 C 0.59945 0.18338 0.32171 0.0
C2248 C 0.63052 0.13705 0.32151 0.0
C2249 C 0.61919 0.19081 0.32502 0.0
C2250 C 0.66352 0.11495 0.3287 0.0
C2251 C 0.66131 0.06437 0.31431 0.0
N2252 N 0.63393 0.16776 0.32495 0.0
N2253 N 0.64657 0.08729 0.31467 0.0
H2254 H 0.16191 0.54703 0.30909 0.0
H2255 H 0.12369 0.72061 0.32816 0.0
H2256 H 0.19206 0.59898 0.33424 0.0
H2257 H 0.08418 0.64986 0.3142 0.0
H2258 H 0.15105 0.68024 0.32841 0.0
H2259 H 0.13526 0.58803 0.30891 0.0
C2260 C 0.1629 0.56705 0.3146 0.0
C2261 C 0.17923 0.56942 0.32173 0.0
C2262 C 0.13639 0.67364 0.32528 0.0
C2263 C 0.14883 0.61695 0.32144 0.0
C2264 C 0.12084 0.69672 0.32506 0.0
C2265 C 0.10159 0.68859 0.32118 0.0
C2266 C 0.1328 0.64239 0.32137 0.0
C2267 C 0.09871 0.65714 0.31733 0.0
C2268 C 0.14766 0.59044 0.3145 0.0
C2269 C 0.17966 0.59597 0.32869 0.0
N2270 N 0.1141 0.63536 0.31747 0.0
N2271 N 0.16481 0.61882 0.32831 0.0
H2272 H 0.49463 0.96758 0.02972 0.0
H2273 H 0.53483 0.03422 0.97316 0.0
H2274 H 0.53927 0.0424 0.02666 0.0
H2275 H 0.49092 0.95829 0.97617 0.0
H2276 H 0.53622 0.03834 0.99272 0.0
H2277 H 0.4936 0.96278 0.01016 0.0
C2278 C 0.50463 0.98234 0.0249 0.0
C2279 C 0.51738 0.00492 0.02976 0.0
C2280 C 0.52608 0.02102 0.98914 0.0
C2281 C 0.51575 1.00057 0.00739 0.0
C2282 C 0.52509 0.01901 0.97798 0.0
C2283 C 0.5124 0.99639 0.9731 0.0
C2284 C 0.51443 1.00001 0.99547 0.0
C2285 C 0.50058 0.97645 0.97967 0.0
C2286 C 0.50385 0.97995 0.01375 0.0
C2287 C 0.52955 0.02429 0.02319 0.0
N2288 N 0.50192 0.97865 0.99052 0.0
N2289 N 0.52837 0.02179 0.01234 0.0
H2290 H 0.74125 0.2253 0.02875 0.0
H2291 H 0.79231 0.29542 0.97528 0.0
H2292 H 0.79107 0.29181 0.02914 0.0
H2293 H 0.7468 0.22141 0.97549 0.0
H2294 H 0.79214 0.29522 0.99494 0.0
H2295 H 0.74173 0.2263 0.00914 0.0
C2296 C 0.75188 0.24085 0.02465 0.0
C2297 C 0.76589 0.25895 0.03048 0.0
C2298 C 0.78243 0.27862 0.99071 0.0
C2299 C 0.76714 0.25937 0.0081 0.0
C2300 C 0.78276 0.27843 0.97951 0.0
C2301 C 0.76991 0.25785 0.97383 0.0
C2302 C 0.76891 0.25841 0.99623 0.0
C2303 C 0.75728 0.23704 0.97962 0.0
C2304 C 0.75239 0.24107 0.01348 0.0
C2305 C 0.7798 0.27803 0.02487 0.0
N2306 N 0.757 0.23799 0.9905 0.0
N2307 N 0.78015 0.27764 0.01397 0.0
H2308 H 0.4975 0.28499 0.2247 0.0
H2309 H 0.54086 0.2148 0.28018 0.0
H2310 H 0.54159 0.20893 0.22639 0.0
H2311 H 0.49579 0.28931 0.27818 0.0
H2312 H 0.5415 0.212 0.26053 0.0
H2313 H 0.49778 0.28848 0.24428 0.0
C2314 C 0.50768 0.26969 0.22922 0.0
C2315 C 0.51988 0.24715 0.22396 0.0
C2316 C 0.5313 0.22874 0.26437 0.0
C2317 C 0.51974 0.24998 0.24638 0.0
C2318 C 0.53079 0.23005 0.27557 0.0
C2319 C 0.51803 0.25196 0.28074 0.0
C2320 C 0.51907 0.24973 0.25832 0.0
C2321 C 0.50562 0.27179 0.27445 0.0
C2322 C 0.50764 0.27132 0.2404 0.0
C2323 C 0.53229 0.22706 0.23017 0.0
N2324 N 0.50649 0.27031 0.26358 0.0
N2325 N 0.53184 0.22882 0.24106 0.0
H2326 H 0.73782 0.01849 0.22446 0.0
H2327 H 0.74672 0.03516 0.27942 0.0
H2328 H 0.79501 0.96943 0.22579 0.0
H2329 H 0.78996 0.95785 0.27799 0.0
H2330 H 0.74604 0.03721 0.25989 0.0
H2331 H 0.7365 0.01831 0.24402 0.0
C2332 C 0.7499 0.00712 0.22894 0.0
C2333 C 0.7664 0.99362 0.22361 0.0
C2334 C 0.75562 0.01959 0.26376 0.0
C2335 C 0.76585 0.99517 0.24599 0.0
C2336 C 0.7564 0.01907 0.27493 0.0
C2337 C 0.76868 0.99669 0.28026 0.0
C2338 C 0.76694 0.99708 0.25787 0.0
C2339 C 0.78055 0.97578 0.27412 0.0
C2340 C 0.74945 0.00771 0.24012 0.0
C2341 C 0.78191 0.97966 0.22969 0.0
N2342 N 0.77934 0.9764 0.26324 0.0
N2343 N 0.78131 0.98092 0.24057 0.0
H2344 H 0.29071 0.801 0.97598 0.0
H2345 H 0.24103 0.72678 0.02924 0.0
H2346 H 0.24655 0.72494 0.97595 0.0
H2347 H 0.2901 0.79469 0.02987 0.0
H2348 H 0.24125 0.72889 0.00963 0.0
H2349 H 0.29042 0.80043 0.99565 0.0
C2350 C 0.28139 0.78359 0.98016 0.0
C2351 C 0.26901 0.76245 0.97441 0.0
C2352 C 0.25181 0.74372 0.01402 0.0
C2353 C 0.2679 0.76247 0.99682 0.0
C2354 C 0.25145 0.74284 0.0252 0.0
C2355 C 0.26533 0.76101 0.03109 0.0
C2356 C 0.26625 0.76278 0.00871 0.0
C2357 C 0.27894 0.78081 0.02555 0.0
C2358 C 0.28101 0.78351 0.99136 0.0
C2359 C 0.25668 0.74103 0.98014 0.0
N2360 N 0.27914 0.78106 0.01465 0.0
N2361 N 0.25635 0.7417 0.99102 0.0
H2362 H 0.49551 0.79056 0.72395 0.0
H2363 H 0.53678 0.72145 0.77994 0.0
H2364 H 0.54048 0.71601 0.72643 0.0
H2365 H 0.49397 0.79919 0.77756 0.0
H2366 H 0.53779 0.71828 0.76035 0.0
H2367 H 0.49517 0.79506 0.74352 0.0
C2368 C 0.50574 0.77583 0.72864 0.0
C2369 C 0.51836 0.75338 0.72362 0.0
C2370 C 0.52798 0.73582 0.76408 0.0
C2371 C 0.51751 0.75736 0.746 0.0
C2372 C 0.52721 0.7373 0.77525 0.0
C2373 C 0.51492 0.76012 0.78031 0.0
C2374 C 0.5165 0.75754 0.75792 0.0
C2375 C 0.50332 0.78087 0.77392 0.0
C2376 C 0.50536 0.77805 0.7398 0.0
C2377 C 0.53084 0.73403 0.73003 0.0
N2378 N 0.50441 0.77914 0.76305 0.0
N2379 N 0.53002 0.73632 0.74089 0.0
H2380 H 0.28003 0.97183 0.72518 0.0
H2381 H 0.23039 0.03619 0.77964 0.0
H2382 H 0.23484 0.04636 0.72563 0.0
H2383 H 0.28406 0.97784 0.77844 0.0
H2384 H 0.23006 0.03837 0.75995 0.0
H2385 H 0.27912 0.96973 0.74478 0.0
C2386 C 0.26948 0.98706 0.72944 0.0
C2387 C 0.25716 0.00879 0.72384 0.0
C2388 C 0.24206 0.02543 0.76399 0.0
C2389 C 0.25652 0.00747 0.74625 0.0
C2390 C 0.24234 0.02451 0.77519 0.0
C2391 C 0.25748 0.00733 0.78058 0.0
C2392 C 0.25683 0.00854 0.75817 0.0
C2393 C 0.27237 0.99181 0.77452 0.0
C2394 C 0.26917 0.98626 0.74062 0.0
C2395 C 0.24425 0.02885 0.72971 0.0
N2396 N 0.27159 0.99259 0.76365 0.0
N2397 N 0.24427 0.02778 0.74061 0.0
H2398 H 0.5357 0.5338 0.4736 0.0
H2399 H 0.49621 0.46778 0.53035 0.0
H2400 H 0.49183 0.45788 0.47682 0.0
H2401 H 0.54126 0.54188 0.52703 0.0
H2402 H 0.49507 0.46248 0.51081 0.0
H2403 H 0.53761 0.53766 0.49315 0.0
C2404 C 0.5261 0.51852 0.47847 0.0
C2405 C 0.51325 0.49599 0.47365 0.0
C2406 C 0.50546 0.47956 0.51434 0.0
C2407 C 0.51586 0.49934 0.49601 0.0
C2408 C 0.5063 0.48222 0.52548 0.0
C2409 C 0.51916 0.50481 0.53026 0.0
C2410 C 0.5174 0.49991 0.50791 0.0
C2411 C 0.53145 0.52376 0.52362 0.0
C2412 C 0.52737 0.52038 0.48961 0.0
C2413 C 0.50161 0.47596 0.48027 0.0
N2414 N 0.53018 0.52104 0.51278 0.0
N2415 N 0.50321 0.47804 0.49111 0.0
H2416 H 0.73617 0.71765 0.52807 0.0
H2417 H 0.78846 0.79601 0.47615 0.0
H2418 H 0.78182 0.79128 0.52962 0.0
H2419 H 0.74284 0.72233 0.47462 0.0
H2420 H 0.78664 0.79423 0.49577 0.0
H2421 H 0.73737 0.72044 0.50846 0.0
C2422 C 0.74595 0.73514 0.52424 0.0
C2423 C 0.75859 0.75475 0.5304 0.0
C2424 C 0.77723 0.77808 0.49117 0.0
C2425 C 0.76075 0.75721 0.50804 0.0
C2426 C 0.77851 0.77879 0.48 0.0
C2427 C 0.76613 0.75875 0.47384 0.0
C2428 C 0.76329 0.75741 0.4962 0.0
C2429 C 0.75297 0.73757 0.47914 0.0
C2430 C 0.74689 0.73642 0.51307 0.0
C2431 C 0.77151 0.77632 0.52511 0.0
N2432 N 0.75183 0.73755 0.49001 0.0
N2433 N 0.77237 0.77682 0.51423 0.0
H2434 H 0.74358 0.54395 0.77985 0.0
H2435 H 0.73679 0.52913 0.72445 0.0
H2436 H 0.78847 0.46916 0.77828 0.0
H2437 H 0.79265 0.47653 0.72644 0.0
H2438 H 0.73508 0.53027 0.74399 0.0
H2439 H 0.74287 0.54628 0.76031 0.0
C2440 C 0.75355 0.52844 0.77532 0.0
C2441 C 0.76623 0.50659 0.7806 0.0
C2442 C 0.74783 0.51858 0.74026 0.0
C2443 C 0.76467 0.50736 0.7582 0.0
C2444 C 0.74849 0.51729 0.72908 0.0
C2445 C 0.76471 0.50234 0.72392 0.0
C2446 C 0.76377 0.50528 0.7463 0.0
C2447 C 0.77975 0.48784 0.73019 0.0
C2448 C 0.75282 0.52914 0.76414 0.0
C2449 C 0.77866 0.48658 0.77444 0.0
N2450 N 0.77896 0.4898 0.74105 0.0
N2451 N 0.77749 0.48732 0.76357 0.0
H2452 H 0.28911 0.29749 0.4759 0.0
H2453 H 0.23854 0.21486 0.52764 0.0
H2454 H 0.24461 0.22214 0.47417 0.0
H2455 H 0.28364 0.28928 0.52945 0.0
H2456 H 0.23954 0.21857 0.50803 0.0
H2457 H 0.28749 0.29488 0.49553 0.0
C2458 C 0.27939 0.27985 0.4797 0.0
C2459 C 0.26733 0.25949 0.47348 0.0
C2460 C 0.24901 0.23448 0.5127 0.0
C2461 C 0.26478 0.25705 0.49586 0.0
C2462 C 0.24821 0.23263 0.52387 0.0
C2463 C 0.26069 0.25229 0.53011 0.0
C2464 C 0.26256 0.25593 0.50773 0.0
C2465 C 0.27345 0.27426 0.52489 0.0
C2466 C 0.27825 0.2786 0.49088 0.0
C2467 C 0.25449 0.23769 0.47872 0.0
N2468 N 0.27414 0.27538 0.514 0.0
N2469 N 0.2535 0.2371 0.4896 0.0
H2470 H 0.2445 0.53444 0.28073 0.0
H2471 H 0.28385 0.46488 0.22461 0.0
H2472 H 0.28826 0.45816 0.27819 0.0
H2473 H 0.23919 0.53978 0.22723 0.0
H2474 H 0.28499 0.46078 0.24419 0.0
H2475 H 0.24272 0.5374 0.26115 0.0
C2476 C 0.25413 0.51892 0.276 0.0
C2477 C 0.26689 0.49653 0.28101 0.0
C2478 C 0.27469 0.47779 0.24051 0.0
C2479 C 0.26441 0.49881 0.25864 0.0
C2480 C 0.27384 0.47975 0.22934 0.0
C2481 C 0.26108 0.5022 0.22435 0.0
C2482 C 0.26287 0.49871 0.24673 0.0
C2483 C 0.24891 0.52176 0.23081 0.0
C2484 C 0.25291 0.52026 0.26484 0.0
C2485 C 0.27855 0.47616 0.27458 0.0
N2486 N 0.25018 0.5197 0.24167 0.0
N2487 N 0.277 0.47771 0.26372 0.0
H2488 H 0.99169 0.97637 0.47597 0.0
H2489 H 0.04264 0.04972 0.52884 0.0
H2490 H 0.04164 0.04259 0.475 0.0
H2491 H 0.9966 0.97657 0.52932 0.0
H2492 H 0.04256 0.04821 0.50918 0.0
H2493 H 0.99204 0.97868 0.49558 0.0
C2494 C 1.00235 0.9921 0.47994 0.0
C2495 C 0.01641 0.00977 0.47394 0.0
C2496 C 0.0327 0.0321 0.51357 0.0
C2497 C 0.01748 0.01174 0.49633 0.0
C2498 C 0.03296 0.03268 0.52477 0.0
C2499 C 0.01996 0.0127 0.53064 0.0
C2500 C 0.0191 0.0117 0.50823 0.0
C2501 C 1.00719 0.99177 0.52505 0.0
C2502 C 1.00278 0.99309 0.49111 0.0
C2503 C 0.03033 0.02913 0.47939 0.0
N2504 N 1.00699 0.99195 0.51416 0.0
N2505 N 0.03059 0.0295 0.49029 0.0
H2506 H 0.99647 0.29036 0.72439 0.0
H2507 H 0.03775 0.2193 0.7801 0.0
H2508 H 0.04083 0.21482 0.72657 0.0
H2509 H 0.9948 0.29692 0.77801 0.0
H2510 H 0.03862 0.21657 0.7605 0.0
H2511 H 0.9962 0.29423 0.74397 0.0
C2512 C 1.00659 0.27527 0.72902 0.0
C2513 C 0.01903 0.25273 0.72391 0.0
C2514 C 0.0288 0.23397 0.7643 0.0
C2515 C 0.01824 0.25599 0.7463 0.0
C2516 C 0.02811 0.23519 0.77547 0.0
C2517 C 0.01583 0.25786 0.78061 0.0
C2518 C 0.01727 0.25582 0.75822 0.0
C2519 C 1.00414 0.27871 0.7743 0.0
C2520 C 1.00624 0.27713 0.74019 0.0
C2521 C 0.03135 0.23291 0.73025 0.0
N2522 N 1.00517 0.27725 0.76343 0.0
N2523 N 0.03058 0.23487 0.74111 0.0
H2524 H 0.04262 0.70603 0.22541 0.0
H2525 H 0.9926 0.78125 0.27825 0.0
H2526 H 0.99718 0.78016 0.22487 0.0
H2527 H 0.04151 0.71302 0.27921 0.0
H2528 H 0.99288 0.77886 0.25864 0.0
H2529 H 0.04254 0.70765 0.24507 0.0
C2530 C 0.03307 0.72329 0.22947 0.0
C2531 C 0.02024 0.74352 0.22358 0.0
C2532 C 1.00339 0.76404 0.26311 0.0
C2533 C 0.01939 0.74468 0.24599 0.0
C2534 C 1.00301 0.76508 0.27428 0.0
C2535 C 0.0168 0.74686 0.28027 0.0
C2536 C 0.01779 0.74478 0.25789 0.0
C2537 C 0.03041 0.72694 0.27482 0.0
C2538 C 0.03281 0.72394 0.24067 0.0
C2539 C 1.00763 0.76475 0.22916 0.0
N2540 N 0.03064 0.72652 0.26392 0.0
N2541 N 1.00743 0.76466 0.24005 0.0
H2542 H 0.9935 0.46781 0.97489 0.0
H2543 H 0.04132 0.54716 0.02766 0.0
H2544 H 0.04064 0.5391 0.97387 0.0
H2545 H 0.99671 0.4718 0.02832 0.0
H2546 H 0.0417 0.54459 0.00801 0.0
H2547 H 0.99373 0.47033 0.9945 0.0
C2548 C 1.00357 0.48453 0.97884 0.0
C2549 C 0.01684 0.50364 0.97283 0.0
C2550 C 0.03204 0.52825 0.01244 0.0
C2551 C 0.01771 0.50607 0.99523 0.0
C2552 C 0.03204 0.52947 0.02363 0.0
C2553 C 0.01932 0.50914 0.02956 0.0
C2554 C 0.01903 0.50681 0.00714 0.0
C2555 C 1.00707 0.48731 0.02401 0.0
C2556 C 1.0039 0.48572 0.99002 0.0
C2557 C 0.02996 0.5244 0.97827 0.0
N2558 N 1.00715 0.48682 0.01312 0.0
N2559 N 0.03013 0.525 0.98917 0.0
H2560 H 0.58078 0.1387 0.07389 0.0
H2561 H 0.69641 0.11937 0.05539 0.0
H2562 H 0.60291 0.05468 0.05743 0.0
H2563 H 0.67578 0.19112 0.07778 0.0
H2564 H 0.66219 0.09658 0.0551 0.0
H2565 H 0.61515 0.16059 0.07399 0.0
C2566 C 0.5928 0.12498 0.0702 0.0
C2567 C 0.58887 0.09472 0.06568 0.0
C2568 C 0.66521 0.11733 0.06007 0.0
C2569 C 0.62846 0.11957 0.06584 0.0
C2570 C 0.68481 0.13024 0.0603 0.0
C2571 C 0.68912 0.15759 0.0665 0.0
C2572 C 0.64969 0.13186 0.06606 0.0
C2573 C 0.67324 0.17062 0.07264 0.0
C2574 C 0.61249 0.13736 0.07034 0.0
C2575 C 0.60522 0.07792 0.06113 0.0
N2576 N 0.65435 0.15783 0.0722 0.0
N2577 N 0.62421 0.09054 0.06131 0.0
H2578 H 0.60306 0.20033 0.19642 0.0
H2579 H 0.67647 0.06037 0.17588 0.0
H2580 H 0.58208 0.11522 0.18018 0.0
H2581 H 0.69594 0.1332 0.19816 0.0
H2582 H 0.6425 0.08271 0.17635 0.0
H2583 H 0.6374 0.17844 0.19629 0.0
C2584 C 0.60565 0.17699 0.19283 0.0
C2585 C 0.58955 0.15967 0.18826 0.0
C2586 C 0.65415 0.09383 0.18116 0.0
C2587 C 0.62907 0.13447 0.18805 0.0
C2588 C 0.67365 0.081 0.18094 0.0
C2589 C 0.68924 0.09445 0.18715 0.0
C2590 C 0.64996 0.12074 0.18754 0.0
C2591 C 0.68455 0.12192 0.19323 0.0
C2592 C 0.62529 0.16448 0.19279 0.0
C2593 C 0.59389 0.12937 0.18386 0.0
N2594 N 0.66536 0.13407 0.19329 0.0
N2595 N 0.6132 0.11789 0.18379 0.0
H2596 H 0.44596 0.87401 0.94866 0.0
H2597 H 0.33103 0.89007 0.92845 0.0
H2598 H 0.42705 0.9389 0.92349 0.0
H2599 H 0.3522 0.81103 0.94793 0.0
H2600 H 0.36556 0.91165 0.928 0.0
H2601 H 0.41145 0.85276 0.94952 0.0
C2602 C 0.43469 0.8837 0.94326 0.0
C2603 C 0.43963 0.90866 0.93607 0.0
C2604 C 0.36264 0.88963 0.93241 0.0
C2605 C 0.39974 0.88474 0.93719 0.0
C2606 C 0.34286 0.87746 0.93274 0.0
C2607 C 0.33864 0.84859 0.93819 0.0
C2608 C 0.37836 0.87304 0.93766 0.0
C2609 C 0.35473 0.83315 0.94352 0.0
C2610 C 0.41489 0.87168 0.94382 0.0
C2611 C 0.42407 0.9203 0.92937 0.0
N2612 N 0.37378 0.84551 0.94312 0.0
N2613 N 0.40495 0.90843 0.93014 0.0
H2614 H 0.4493 0.88154 0.80445 0.0
H2615 H 0.33587 0.86362 0.82618 0.0
H2616 H 0.43176 0.8206 0.83092 0.0
H2617 H 0.35367 0.94127 0.80512 0.0
H2618 H 0.37083 0.84565 0.82688 0.0
H2619 H 0.41462 0.90278 0.80375 0.0
C2620 C 0.43829 0.87281 0.81017 0.0
C2621 C 0.44354 0.8488 0.81766 0.0
C2622 C 0.36714 0.86666 0.8221 0.0
C2623 C 0.40368 0.87265 0.81677 0.0
C2624 C 0.34708 0.87707 0.82172 0.0
C2625 C 0.34159 0.90432 0.81566 0.0
C2626 C 0.38209 0.88328 0.81631 0.0
C2627 C 0.35699 0.92 0.80983 0.0
C2628 C 0.41844 0.8848 0.80972 0.0
C2629 C 0.42846 0.8384 0.82482 0.0
N2630 N 0.37648 0.90931 0.81031 0.0
N2631 N 0.40933 0.85015 0.82414 0.0
H2632 H 0.67369 0.70932 0.56216 0.0
H2633 H 0.60549 0.55093 0.56232 0.0
H2634 H 0.69819 0.6148 0.56869 0.0
H2635 H 0.5811 0.64548 0.56864 0.0
H2636 H 0.63935 0.57389 0.56216 0.0
H2637 H 0.63987 0.68628 0.56202 0.0
C2638 C 0.67211 0.68376 0.56366 0.0
C2639 C 0.68918 0.66425 0.56562 0.0
C2640 C 0.62658 0.58959 0.56359 0.0
C2641 C 0.64996 0.63743 0.5651 0.0
C2642 C 0.6071 0.57648 0.56376 0.0
C2643 C 0.59005 0.59603 0.56567 0.0
C2644 C 0.6293 0.62275 0.56512 0.0
C2645 C 0.59351 0.62925 0.56706 0.0
C2646 C 0.65265 0.6706 0.5635 0.0
C2647 C 0.68576 0.63101 0.56707 0.0
N2648 N 0.61265 0.64147 0.56675 0.0
N2649 N 0.66664 0.61873 0.56677 0.0
H2650 H 0.60058 0.69246 0.67327 0.0
H2651 H 0.67668 0.56756 0.70099 0.0
H2652 H 0.58399 0.6331 0.70033 0.0
H2653 H 0.69585 0.63965 0.67823 0.0
H2654 H 0.64255 0.59003 0.70051 0.0
H2655 H 0.635 0.6719 0.67448 0.0
C2656 C 0.60411 0.67524 0.67953 0.0
C2657 C 0.58915 0.6649 0.68679 0.0
C2658 C 0.65421 0.60112 0.69567 0.0
C2659 C 0.62891 0.64066 0.68808 0.0
C2660 C 0.67375 0.58828 0.69592 0.0
C2661 C 0.68923 0.60163 0.6896 0.0
C2662 C 0.6499 0.62745 0.68896 0.0
C2663 C 0.68449 0.62869 0.68329 0.0
C2664 C 0.62386 0.6634 0.68017 0.0
C2665 C 0.59479 0.64173 0.69449 0.0
N2666 N 0.66525 0.64049 0.68306 0.0
N2667 N 0.61414 0.63048 0.69493 0.0
H2668 H 0.42694 0.44689 0.44737 0.0
H2669 H 0.35214 0.31457 0.42307 0.0
H2670 H 0.44713 0.36744 0.428 0.0
H2671 H 0.33409 0.38049 0.44792 0.0
H2672 H 0.38634 0.33595 0.42397 0.0
H2673 H 0.39264 0.42495 0.44702 0.0
C2674 C 0.42418 0.42473 0.44306 0.0
C2675 C 0.44003 0.40908 0.43766 0.0
C2676 C 0.37494 0.34574 0.42925 0.0
C2677 C 0.40053 0.38384 0.43718 0.0
C2678 C 0.3553 0.33345 0.42878 0.0
C2679 C 0.34002 0.34528 0.43556 0.0
C2680 C 0.37956 0.37049 0.43645 0.0
C2681 C 0.34519 0.37057 0.4425 0.0
C2682 C 0.40456 0.41219 0.44289 0.0
C2683 C 0.4355 0.38024 0.43233 0.0
N2684 N 0.36447 0.38224 0.44278 0.0
N2685 N 0.41619 0.36874 0.43216 0.0
H2686 H 0.44731 0.38591 0.32748 0.0
H2687 H 0.33339 0.37704 0.30518 0.0
H2688 H 0.42752 0.31695 0.30399 0.0
H2689 H 0.35194 0.43829 0.33121 0.0
H2690 H 0.3679 0.35583 0.30418 0.0
H2691 H 0.41294 0.40794 0.32807 0.0
C2692 C 0.43584 0.37567 0.32234 0.0
C2693 C 0.44038 0.34938 0.31572 0.0
C2694 C 0.36439 0.37392 0.31011 0.0
C2695 C 0.40079 0.37422 0.31646 0.0
C2696 C 0.3446 0.38587 0.31075 0.0
C2697 C 0.33961 0.40979 0.31823 0.0
C2698 C 0.37943 0.38592 0.31699 0.0
C2699 C 0.35502 0.42042 0.32514 0.0
C2700 C 0.41613 0.38805 0.32275 0.0
C2701 C 0.42472 0.33692 0.30933 0.0
N2702 N 0.37413 0.40857 0.32433 0.0
N2703 N 0.40571 0.34934 0.30988 0.0
H2704 H 0.10179 0.06823 0.58068 0.0
H2705 H 0.17631 0.20185 0.55674 0.0
H2706 H 0.08407 0.13306 0.55524 0.0
H2707 H 0.1971 0.11987 0.57495 0.0
H2708 H 0.14204 0.17966 0.55705 0.0
H2709 H 0.13599 0.08959 0.57972 0.0
C2710 C 0.10501 0.08679 0.57481 0.0
C2711 C 0.08978 0.09837 0.56791 0.0
C2712 C 0.15409 0.16642 0.56093 0.0
C2713 C 0.12933 0.12368 0.567 0.0
C2714 C 0.17368 0.17911 0.56079 0.0
C2715 C 0.18969 0.16277 0.56585 0.0
C2716 C 0.15025 0.13727 0.5663 0.0
C2717 C 0.18533 0.13322 0.57087 0.0
C2718 C 0.12465 0.09911 0.57433 0.0
C2719 C 0.09507 0.12335 0.56079 0.0
N2720 N 0.16605 0.1216 0.57105 0.0
N2721 N 0.11433 0.13511 0.56052 0.0
H2722 H 0.17523 0.05829 0.69746 0.0
H2723 H 0.1009 0.19222 0.67364 0.0
H2724 H 0.19611 0.14011 0.67921 0.0
H2725 H 0.08342 0.12845 0.69941 0.0
H2726 H 0.13503 0.17048 0.67448 0.0
H2727 H 0.14104 0.08082 0.69728 0.0
C2728 C 0.17264 0.08107 0.69343 0.0
C2729 C 0.18863 0.09728 0.68832 0.0
C2730 C 0.12375 0.16128 0.67998 0.0
C2731 C 0.14931 0.12314 0.688 0.0
C2732 C 0.10416 0.17381 0.67955 0.0
C2733 C 0.08904 0.16265 0.68658 0.0
C2734 C 0.12846 0.13691 0.68738 0.0
C2735 C 0.09434 0.13784 0.69377 0.0
C2736 C 0.1531 0.09395 0.69336 0.0
C2737 C 0.18433 0.12687 0.68332 0.0
N2738 N 0.11355 0.12586 0.69398 0.0
N2739 N 0.1651 0.13867 0.68321 0.0
H2740 H 0.92606 0.94337 0.4262 0.0
H2741 H 0.85205 0.80427 0.44722 0.0
H2742 H 0.94505 0.87051 0.44879 0.0
H2743 H 0.83159 0.88823 0.42992 0.0
H2744 H 0.88639 0.82609 0.44716 0.0
H2745 H 0.89203 0.92122 0.42659 0.0
C2746 C 0.92312 0.92278 0.43132 0.0
C2747 C 0.93859 0.90924 0.43763 0.0
C2748 C 0.8744 0.83982 0.44341 0.0
C2749 C 0.89925 0.88318 0.43794 0.0
C2750 C 0.85475 0.82734 0.44341 0.0
C2751 C 0.8388 0.84434 0.43853 0.0
C2752 C 0.87834 0.86951 0.4384 0.0
C2753 C 0.84329 0.87434 0.43385 0.0
C2754 C 0.90358 0.91005 0.43149 0.0
C2755 C 0.93375 0.88183 0.44378 0.0
N2756 N 0.86259 0.8858 0.43384 0.0
N2757 N 0.91454 0.86981 0.4438 0.0
H2758 H 0.92728 0.8141 0.30293 0.0
H2759 H 0.85183 0.9401 0.33024 0.0
H2760 H 0.94688 0.88713 0.32505 0.0
H2761 H 0.83447 0.87926 0.30386 0.0
H2762 H 0.8862 0.91941 0.32896 0.0
H2763 H 0.89311 0.8364 0.30352 0.0
C2764 C 0.92443 0.83499 0.30788 0.0
C2765 C 0.94004 0.84866 0.31399 0.0
C2766 C 0.87491 0.9106 0.32343 0.0
C2767 C 0.90069 0.87429 0.31475 0.0
C2768 C 0.85519 0.92251 0.32412 0.0
C2769 C 0.84005 0.9118 0.31706 0.0
C2770 C 0.87973 0.88745 0.31569 0.0
C2771 C 0.84545 0.88819 0.30954 0.0
C2772 C 0.90488 0.84773 0.30819 0.0
C2773 C 0.93541 0.87592 0.32015 0.0
N2774 N 0.86478 0.8769 0.30905 0.0
N2775 N 0.91616 0.88763 0.32044 0.0
H2776 H 0.19582 0.62152 0.05534 0.0
H2777 H 0.08024 0.6398 0.07401 0.0
H2778 H 0.17527 0.69188 0.07823 0.0
H2779 H 0.10239 0.55671 0.05706 0.0
H2780 H 0.1146 0.66177 0.0742 0.0
H2781 H 0.16159 0.59885 0.05489 0.0
C2782 C 0.18424 0.63211 0.06032 0.0
C2783 C 0.18857 0.65903 0.06672 0.0
C2784 C 0.11194 0.63874 0.07042 0.0
C2785 C 0.14913 0.63346 0.06609 0.0
C2786 C 0.09227 0.62632 0.07023 0.0
C2787 C 0.08835 0.59627 0.06555 0.0
C2788 C 0.1279 0.6212 0.0658 0.0
C2789 C 0.10469 0.57977 0.06088 0.0
C2790 C 0.16463 0.61927 0.06001 0.0
C2791 C 0.17271 0.67172 0.07294 0.0
N2792 N 0.12367 0.59241 0.06111 0.0
N2793 N 0.15381 0.65902 0.07242 0.0
H2794 H 0.10261 0.6959 0.19727 0.0
H2795 H 0.17783 0.56274 0.17405 0.0
H2796 H 0.08239 0.61433 0.17892 0.0
H2797 H 0.19474 0.62686 0.19965 0.0
H2798 H 0.14362 0.5842 0.17467 0.0
H2799 H 0.13688 0.6737 0.19728 0.0
C2800 C 0.10536 0.67325 0.19325 0.0
C2801 C 0.08952 0.65702 0.18805 0.0
C2802 C 0.15478 0.59353 0.18018 0.0
C2803 C 0.12896 0.63151 0.18797 0.0
C2804 C 0.17442 0.58116 0.17988 0.0
C2805 C 0.18941 0.5925 0.18693 0.0
C2806 C 0.14988 0.61792 0.18747 0.0
C2807 C 0.18392 0.61733 0.19401 0.0
C2808 C 0.12495 0.66055 0.19329 0.0
C2809 C 0.09404 0.62758 0.18309 0.0
N2810 N 0.16467 0.62914 0.19409 0.0
N2811 N 0.11332 0.61596 0.18309 0.0
H2812 H 0.85343 0.30227 0.94646 0.0
H2813 H 0.92636 0.4424 0.92507 0.0
H2814 H 0.83222 0.38651 0.92956 0.0
H2815 H 0.94658 0.36805 0.9468 0.0
H2816 H 0.89238 0.4201 0.92577 0.0
H2817 H 0.88776 0.32409 0.94599 0.0
C2818 C 0.85596 0.3254 0.94265 0.0
C2819 C 0.8398 0.34247 0.93799 0.0
C2820 C 0.90419 0.40861 0.93041 0.0
C2821 C 0.87932 0.36764 0.93742 0.0
C2822 C 0.9237 0.42141 0.93004 0.0
C2823 C 0.9395 0.4075 0.93603 0.0
C2824 C 0.90021 0.38133 0.93672 0.0
C2825 C 0.93501 0.37966 0.94203 0.0
C2826 C 0.87561 0.33788 0.94242 0.0
C2827 C 0.84408 0.37255 0.93332 0.0
N2828 N 0.91582 0.36759 0.94225 0.0
N2829 N 0.86338 0.38401 0.93309 0.0
H2830 H 0.9512 0.38676 0.82548 0.0
H2831 H 0.83621 0.3699 0.80543 0.0
H2832 H 0.9299 0.30624 0.80694 0.0
H2833 H 0.85603 0.43937 0.82878 0.0
H2834 H 0.87053 0.34744 0.80509 0.0
H2835 H 0.91682 0.40876 0.82553 0.0
C2836 C 0.93937 0.37388 0.82132 0.0
C2837 C 0.94353 0.34449 0.81624 0.0
C2838 C 0.86732 0.36762 0.81029 0.0
C2839 C 0.90393 0.36944 0.81635 0.0
C2840 C 0.84765 0.38032 0.81054 0.0
C2841 C 0.8431 0.40693 0.81703 0.0
C2842 C 0.88264 0.3816 0.81656 0.0
C2843 C 0.85877 0.41943 0.82342 0.0
C2844 C 0.91967 0.3863 0.82143 0.0
C2845 C 0.92742 0.32875 0.81108 0.0
N2846 N 0.87773 0.40685 0.82297 0.0
N2847 N 0.90842 0.34136 0.81126 0.0
loop_
_geom_bond_atom_site_label_1
_geom_bond_atom_site_label_2
_geom_bond_distance
_geom_bond_site_symmetry_2
_ccdc_geom_bond_type
C0 C1 1.443 . S
C0 N4 1.376 . S
C0 C38 1.389 . S
C1 C0 1.443 . S
C1 C2 1.340 . S
C1 H41 0.951 . S
C2 C1 1.340 . S
C2 C3 1.439 . S
C2 H42 0.950 . S
C3 C2 1.439 . S
C3 N4 1.374 . S
C3 C37 1.395 . S
N4 C0 1.376 . S
N4 C3 1.374 . S
N4 Co5 2.008 . S
Co5 N4 2.008 . S
Co5 N6 1.995 . S
Co5 N11 2.008 1_545 S
Co5 N16 1.982 1_545 S
Co5 N21 2.282 1_545 S
Co5 N27 2.282 . S
N6 Co5 1.995 . S
N6 C7 1.376 . S
N6 C10 1.383 . S
C7 N6 1.376 . S
C7 C8 1.446 . S
C7 C37 1.391 . S
C8 C7 1.446 . S
C8 C9 1.339 . S
C8 H43 0.949 . S
C9 C8 1.339 . S
C9 C10 1.439 . S
C9 H44 0.950 . S
C10 N6 1.383 . S
C10 C9 1.439 . S
C10 C39 1.392 1_545 S
N11 Co5 2.008 1_565 S
N11 C12 1.376 . S
N11 C15 1.374 . S
C12 N11 1.376 . S
C12 C13 1.443 . S
C12 C39 1.389 . S
C13 C12 1.443 . S
C13 C14 1.340 . S
C13 H45 0.951 . S
C14 C13 1.340 . S
C14 C15 1.439 . S
C14 H46 0.950 . S
C15 N11 1.374 . S
C15 C14 1.439 . S
C15 C40 1.395 . S
N16 Co5 1.982 1_565 S
N16 C17 1.405 . S
N16 C20 1.368 1_565 S
C17 N16 1.405 . S
C17 C18 1.446 . S
C17 C40 1.391 . S
C18 C17 1.446 . S
C18 C19 1.339 . S
C18 H47 0.949 . S
C19 C18 1.339 . S
C19 C20 1.439 1_565 S
C19 H48 0.952 . S
C20 N16 1.368 1_545 S
C20 C19 1.439 1_545 S
C20 C38 1.392 . S
N21 Co5 2.282 1_565 S
N21 C24 1.332 . S
N21 C26 1.332 1_565 S
C22 C23 1.386 . S
C22 C25 1.388 . S
C23 C22 1.386 . S
C23 C24 1.382 . S
C23 H49 0.950 . S
C24 N21 1.332 . S
C24 C23 1.382 . S
C24 H35 0.952 . S
C25 C22 1.388 . S
C25 C26 1.382 1_565 S
C25 H50 0.950 . S
C26 N21 1.332 1_545 S
C26 C25 1.382 1_545 S
C26 H36 0.948 . S
N27 Co5 2.282 . S
N27 C31 1.332 . S
N27 C32 1.332 . S
C28 C29 1.388 . S
C28 C32 1.382 . S
C28 H51 0.950 . S
C29 C28 1.388 . S
C29 C30 1.386 . S
C30 C29 1.386 . S
C30 C31 1.382 . S
C30 H52 0.950 . S
C31 N27 1.332 . S
C31 C30 1.382 . S
C31 H33 0.952 . S
C32 N27 1.332 . S
C32 C28 1.382 . S
C32 H34 0.948 . S
H33 C31 0.952 . S
H34 C32 0.948 . S
H35 C24 0.952 . S
H36 C26 0.948 . S
C37 C3 1.395 . S
C37 C7 1.391 . S
C38 C0 1.389 . S
C38 C20 1.392 . S
C39 C10 1.392 1_565 S
C39 C12 1.389 . S
C40 C15 1.395 . S
C40 C17 1.391 . S
H41 C1 0.951 . S
H42 C2 0.950 . S
H43 C8 0.949 . S
H44 C9 0.950 . S
H45 C13 0.951 . S
H46 C14 0.950 . S
H47 C18 0.949 . S
H48 C19 0.952 . S
H49 C23 0.950 . S
H50 C25 0.950 . S
H51 C28 0.950 . S
H52 C30 0.950 . S
C53 C54 1.443 . S
C53 N57 1.376 . S
C53 C91 1.389 . S
C54 C53 1.443 . S
C54 C55 1.340 . S
C54 H94 0.951 . S
C55 C54 1.340 . S
C55 C56 1.439 . S
C55 H95 0.950 . S
C56 C55 1.439 . S
C56 N57 1.374 . S
C56 C90 1.395 . S
N57 C53 1.376 . S
N57 C56 1.374 . S
N57 Co58 2.008 . S
Co58 N57 2.008 . S
Co58 N59 1.995 . S
Co58 N64 2.008 . S
Co58 N69 1.995 . S
Co58 N74 2.282 . S
Co58 N80 2.282 . S
N59 Co58 1.995 . S
N59 C60 1.376 . S
N59 C63 1.383 . S
C60 N59 1.376 . S
C60 C61 1.446 . S
C60 C90 1.391 . S
C61 C60 1.446 . S
C61 C62 1.339 . S
C61 H96 0.949 . S
C62 C61 1.339 . S
C62 C63 1.439 . S
C62 H97 0.950 . S
C63 N59 1.383 . S
C63 C62 1.439 . S
C63 C92 1.392 . S
N64 Co58 2.008 . S
N64 C65 1.376 . S
N64 C68 1.374 . S
C65 N64 1.376 . S
C65 C66 1.443 . S
C65 C92 1.389 . S
C66 C65 1.443 . S
C66 C67 1.340 . S
C66 H98 0.951 . S
C67 C66 1.340 . S
C67 C68 1.439 . S
C67 H99 0.950 . S
C68 N64 1.374 . S
C68 C67 1.439 . S
C68 C93 1.395 . S
N69 Co58 1.995 . S
N69 C70 1.376 . S
N69 C73 1.383 . S
C70 N69 1.376 . S
C70 C71 1.446 . S
C70 C93 1.391 . S
C71 C70 1.446 . S
C71 C72 1.339 . S
C71 H100 0.949 . S
C72 C71 1.339 . S
C72 C73 1.439 . S
C72 H101 0.950 . S
C73 N69 1.383 . S
C73 C72 1.439 . S
C73 C91 1.392 . S
N74 Co58 2.282 . S
N74 C77 1.332 . S
N74 C79 1.332 . S
C75 C76 1.386 . S
C75 C78 1.388 . S
C76 C75 1.386 . S
C76 C77 1.382 . S
C76 H102 0.950 . S
C77 N74 1.332 . S
C77 C76 1.382 . S
C77 H88 0.952 . S
C78 C75 1.388 . S
C78 C79 1.382 . S
C78 H103 0.950 . S
C79 N74 1.332 . S
C79 C78 1.382 . S
C79 H89 0.948 . S
N80 Co58 2.282 . S
N80 C84 1.332 . S
N80 C85 1.332 . S
C81 C82 1.388 . S
C81 C85 1.382 . S
C81 H104 0.950 . S
C82 C81 1.388 . S
C82 C83 1.386 . S
C83 C82 1.386 . S
C83 C84 1.382 . S
C83 H105 0.950 . S
C84 N80 1.332 . S
C84 C83 1.382 . S
C84 H86 0.952 . S
C85 N80 1.332 . S
C85 C81 1.382 . S
C85 H87 0.948 . S
H86 C84 0.952 . S
H87 C85 0.948 . S
H88 C77 0.952 . S
H89 C79 0.948 . S
C90 C56 1.395 . S
C90 C60 1.391 . S
C91 C53 1.389 . S
C91 C73 1.392 . S
C92 C63 1.392 . S
C92 C65 1.389 . S
C93 C68 1.395 . S
C93 C70 1.391 . S
H94 C54 0.951 . S
H95 C55 0.950 . S
H96 C61 0.949 . S
H97 C62 0.950 . S
H98 C66 0.951 . S
H99 C67 0.950 . S
H100 C71 0.949 . S
H101 C72 0.950 . S
H102 C76 0.950 . S
H103 C78 0.950 . S
H104 C81 0.950 . S
H105 C83 0.950 . S
C106 C107 1.443 . S
C106 N110 1.376 . S
C106 C144 1.389 . S
C107 C106 1.443 . S
C107 C108 1.340 . S
C107 H147 0.951 . S
C108 C107 1.340 . S
C108 C109 1.439 . S
C108 H148 0.950 . S
C109 C108 1.439 . S
C109 N110 1.374 . S
C109 C143 1.395 . S
N110 C106 1.376 . S
N110 C109 1.374 . S
N110 Co111 2.008 . S
Co111 N110 2.008 . S
Co111 N112 1.995 . S
Co111 N117 2.008 . S
Co111 N122 1.995 . S
Co111 N127 2.282 . S
Co111 N133 2.282 . S
N112 Co111 1.995 . S
N112 C113 1.376 . S
N112 C116 1.383 . S
C113 N112 1.376 . S
C113 C114 1.446 . S
C113 C143 1.391 . S
C114 C113 1.446 . S
C114 C115 1.339 . S
C114 H149 0.949 . S
C115 C114 1.339 . S
C115 C116 1.439 . S
C115 H150 0.950 . S
C116 N112 1.383 . S
C116 C115 1.439 . S
C116 C145 1.392 . S
N117 Co111 2.008 . S
N117 C118 1.376 . S
N117 C121 1.374 . S
C118 N117 1.376 . S
C118 C119 1.443 . S
C118 C145 1.389 . S
C119 C118 1.443 . S
C119 C120 1.340 . S
C119 H151 0.951 . S
C120 C119 1.340 . S
C120 C121 1.439 . S
C120 H152 0.950 . S
C121 N117 1.374 . S
C121 C120 1.439 . S
C121 C146 1.395 . S
N122 Co111 1.995 . S
N122 C123 1.376 . S
N122 C126 1.383 . S
C123 N122 1.376 . S
C123 C124 1.446 . S
C123 C146 1.391 . S
C124 C123 1.446 . S
C124 C125 1.339 . S
C124 H153 0.949 . S
C125 C124 1.339 . S
C125 C126 1.439 . S
C125 H154 0.950 . S
C126 N122 1.383 . S
C126 C125 1.439 . S
C126 C144 1.392 . S
N127 Co111 2.282 . S
N127 C130 1.332 . S
N127 C132 1.332 . S
C128 C129 1.386 . S
C128 C131 1.388 . S
C129 C128 1.386 . S
C129 C130 1.382 . S
C129 H155 0.950 . S
C130 N127 1.332 . S
C130 C129 1.382 . S
C130 H141 0.952 . S
C131 C128 1.388 . S
C131 C132 1.382 . S
C131 H156 0.950 . S
C132 N127 1.332 . S
C132 C131 1.382 . S
C132 H142 0.948 . S
N133 Co111 2.282 . S
N133 C137 1.332 . S
N133 C138 1.332 . S
C134 C135 1.388 . S
C134 C138 1.382 . S
C134 H157 0.950 . S
C135 C134 1.388 . S
C135 C136 1.386 . S
C136 C135 1.386 . S
C136 C137 1.382 . S
C136 H158 0.950 . S
C137 N133 1.332 . S
C137 C136 1.382 . S
C137 H139 0.952 . S
C138 N133 1.332 . S
C138 C134 1.382 . S
C138 H140 0.948 . S
H139 C137 0.952 . S
H140 C138 0.948 . S
H141 C130 0.952 . S
H142 C132 0.948 . S
C143 C109 1.395 . S
C143 C113 1.391 . S
C144 C106 1.389 . S
C144 C126 1.392 . S
C145 C116 1.392 . S
C145 C118 1.389 . S
C146 C121 1.395 . S
C146 C123 1.391 . S
H147 C107 0.951 . S
H148 C108 0.950 . S
H149 C114 0.949 . S
H150 C115 0.950 . S
H151 C119 0.951 . S
H152 C120 0.950 . S
H153 C124 0.949 . S
H154 C125 0.950 . S
H155 C129 0.950 . S
H156 C131 0.950 . S
H157 C134 0.950 . S
H158 C136 0.950 . S
C159 C160 1.443 . S
C159 N163 1.376 . S
C159 C197 1.389 . S
C160 C159 1.443 . S
C160 C161 1.340 . S
C160 H200 0.951 . S
C161 C160 1.340 . S
C161 C162 1.439 . S
C161 H201 0.950 . S
C162 C161 1.439 . S
C162 N163 1.374 . S
C162 C196 1.395 . S
N163 C159 1.376 . S
N163 C162 1.374 . S
N163 Co164 2.008 . S
Co164 N163 2.008 . S
Co164 N165 1.995 . S
Co164 N170 2.008 1_545 S
Co164 N175 1.984 1_545 S
Co164 N180 2.282 1_545 S
Co164 N186 2.282 . S
N165 Co164 1.995 . S
N165 C166 1.376 . S
N165 C169 1.383 . S
C166 N165 1.376 . S
C166 C167 1.446 . S
C166 C196 1.391 . S
C167 C166 1.446 . S
C167 C168 1.339 . S
C167 H202 0.949 . S
C168 C167 1.339 . S
C168 C169 1.439 . S
C168 H203 0.950 . S
C169 N165 1.383 . S
C169 C168 1.439 . S
C169 C198 1.392 1_545 S
N170 Co164 2.008 1_565 S
N170 C171 1.376 . S
N170 C174 1.374 . S
C171 N170 1.376 . S
C171 C172 1.443 . S
C171 C198 1.389 . S
C172 C171 1.443 . S
C172 C173 1.340 . S
C172 H204 0.951 . S
C173 C172 1.340 . S
C173 C174 1.439 . S
C173 H205 0.950 . S
C174 N170 1.374 . S
C174 C173 1.439 . S
C174 C199 1.395 . S
N175 Co164 1.984 1_565 S
N175 C176 1.400 . S
N175 C179 1.371 1_565 S
C176 N175 1.400 . S
C176 C177 1.446 . S
C176 C199 1.391 . S
C177 C176 1.446 . S
C177 C178 1.339 . S
C177 H206 0.949 . S
C178 C177 1.339 . S
C178 C179 1.439 1_565 S
C178 H207 0.951 . S
C179 N175 1.371 1_545 S
C179 C178 1.439 1_545 S
C179 C197 1.392 . S
N180 Co164 2.282 1_565 S
N180 C183 1.332 . S
N180 C185 1.332 1_565 S
C181 C182 1.386 . S
C181 C184 1.388 . S
C182 C181 1.386 . S
C182 C183 1.382 . S
C182 H208 0.950 . S
C183 N180 1.332 . S
C183 C182 1.382 . S
C183 H194 0.952 . S
C184 C181 1.388 . S
C184 C185 1.382 1_565 S
C184 H209 0.950 . S
C185 N180 1.332 1_545 S
C185 C184 1.382 1_545 S
C185 H195 0.948 . S
N186 Co164 2.282 . S
N186 C190 1.332 . S
N186 C191 1.332 . S
C187 C188 1.388 . S
C187 C191 1.382 . S
C187 H210 0.950 . S
C188 C187 1.388 . S
C188 C189 1.386 . S
C189 C188 1.386 . S
C189 C190 1.382 . S
C189 H211 0.950 . S
C190 N186 1.332 . S
C190 C189 1.382 . S
C190 H192 0.952 . S
C191 N186 1.332 . S
C191 C187 1.382 . S
C191 H193 0.948 . S
H192 C190 0.952 . S
H193 C191 0.948 . S
H194 C183 0.952 . S
H195 C185 0.948 . S
C196 C162 1.395 . S
C196 C166 1.391 . S
C197 C159 1.389 . S
C197 C179 1.392 . S
C198 C169 1.392 1_565 S
C198 C171 1.389 . S
C199 C174 1.395 . S
C199 C176 1.391 . S
H200 C160 0.951 . S
H201 C161 0.950 . S
H202 C167 0.949 . S
H203 C168 0.950 . S
H204 C172 0.951 . S
H205 C173 0.950 . S
H206 C177 0.949 . S
H207 C178 0.951 . S
H208 C182 0.950 . S
H209 C184 0.950 . S
H210 C187 0.950 . S
H211 C189 0.950 . S
C212 C213 1.439 1_565 S
C212 N216 1.376 . S
C212 C250 1.389 . S
C213 C212 1.439 1_545 S
C213 C214 1.347 . S
C213 H253 0.949 1_545 S
C214 C213 1.347 . S
C214 C215 1.439 . S
C214 H254 0.950 . S
C215 C214 1.439 . S
C215 N216 1.374 1_545 S
C215 C249 1.395 . S
N216 C212 1.376 . S
N216 C215 1.374 1_565 S
N216 Co217 2.008 . S
Co217 N216 2.008 . S
Co217 N218 1.995 1_565 S
Co217 N223 2.008 . S
Co217 N228 1.995 . S
Co217 N233 2.282 1_565 S
Co217 N239 2.282 . S
N218 Co217 1.995 1_545 S
N218 C219 1.376 . S
N218 C222 1.383 . S
C219 N218 1.376 . S
C219 C220 1.446 . S
C219 C249 1.391 . S
C220 C219 1.446 . S
C220 C221 1.339 . S
C220 H255 0.949 . S
C221 C220 1.339 . S
C221 C222 1.439 . S
C221 H256 0.950 . S
C222 N218 1.383 . S
C222 C221 1.439 . S
C222 C251 1.392 . S
N223 Co217 2.008 . S
N223 C224 1.376 . S
N223 C227 1.374 . S
C224 N223 1.376 . S
C224 C225 1.443 . S
C224 C251 1.389 1_565 S
C225 C224 1.443 . S
C225 C226 1.340 . S
C225 H257 0.951 . S
C226 C225 1.340 . S
C226 C227 1.439 . S
C226 H258 0.950 . S
C227 N223 1.374 . S
C227 C226 1.439 . S
C227 C252 1.395 . S
N228 Co217 1.995 . S
N228 C229 1.376 . S
N228 C232 1.383 . S
C229 N228 1.376 . S
C229 C230 1.446 . S
C229 C252 1.391 . S
C230 C229 1.446 . S
C230 C231 1.339 . S
C230 H259 0.949 . S
C231 C230 1.339 . S
C231 C232 1.439 . S
C231 H260 0.950 . S
C232 N228 1.383 . S
C232 C231 1.439 . S
C232 C250 1.392 . S
N233 Co217 2.282 1_545 S
N233 C236 1.332 1_545 S
N233 C238 1.332 . S
C234 C235 1.386 . S
C234 C237 1.388 . S
C235 C234 1.386 . S
C235 C236 1.382 1_545 S
C235 H261 0.950 . S
C236 N233 1.332 1_565 S
C236 C235 1.382 1_565 S
C236 H247 0.952 . S
C237 C234 1.388 . S
C237 C238 1.382 . S
C237 H262 0.950 . S
C238 N233 1.332 . S
C238 C237 1.382 . S
C238 H248 0.948 . S
N239 Co217 2.282 . S
N239 C243 1.332 . S
N239 C244 1.332 . S
C240 C241 1.388 . S
C240 C244 1.382 . S
C240 H263 0.950 . S
C241 C240 1.388 . S
C241 C242 1.386 . S
C242 C241 1.386 . S
C242 C243 1.382 . S
C242 H264 0.950 . S
C243 N239 1.332 . S
C243 C242 1.382 . S
C243 H245 0.952 . S
C244 N239 1.332 . S
C244 C240 1.382 . S
C244 H246 0.948 . S
H245 C243 0.952 . S
H246 C244 0.948 . S
H247 C236 0.952 . S
H248 C238 0.948 . S
C249 C215 1.395 . S
C249 C219 1.391 . S
C250 C212 1.389 . S
C250 C232 1.392 . S
C251 C222 1.392 . S
C251 C224 1.389 1_545 S
C252 C227 1.395 . S
C252 C229 1.391 . S
H253 C213 0.949 1_565 S
H254 C214 0.950 . S
H255 C220 0.949 . S
H256 C221 0.950 . S
H257 C225 0.951 . S
H258 C226 0.950 . S
H259 C230 0.949 . S
H260 C231 0.950 . S
H261 C235 0.950 . S
H262 C237 0.950 . S
H263 C240 0.950 . S
H264 C242 0.950 . S
C265 C266 1.443 . S
C265 N269 1.376 . S
C265 C303 1.389 . S
C266 C265 1.443 . S
C266 C267 1.340 . S
C266 H306 0.951 . S
C267 C266 1.340 . S
C267 C268 1.439 . S
C267 H307 0.950 . S
C268 C267 1.439 . S
C268 N269 1.374 . S
C268 C302 1.395 . S
N269 C265 1.376 . S
N269 C268 1.374 . S
N269 Co270 2.008 . S
Co270 N269 2.008 . S
Co270 N271 1.995 . S
Co270 N276 2.008 . S
Co270 N281 1.995 . S
Co270 N286 2.282 . S
Co270 N292 2.282 . S
N271 Co270 1.995 . S
N271 C272 1.376 . S
N271 C275 1.383 . S
C272 N271 1.376 . S
C272 C273 1.446 . S
C272 C302 1.391 . S
C273 C272 1.446 . S
C273 C274 1.339 . S
C273 H308 0.949 . S
C274 C273 1.339 . S
C274 C275 1.439 . S
C274 H309 0.950 . S
C275 N271 1.383 . S
C275 C274 1.439 . S
C275 C304 1.392 . S
N276 Co270 2.008 . S
N276 C277 1.376 . S
N276 C280 1.374 . S
C277 N276 1.376 . S
C277 C278 1.443 . S
C277 C304 1.389 . S
C278 C277 1.443 . S
C278 C279 1.340 . S
C278 H310 0.951 . S
C279 C278 1.340 . S
C279 C280 1.439 . S
C279 H311 0.950 . S
C280 N276 1.374 . S
C280 C279 1.439 . S
C280 C305 1.395 . S
N281 Co270 1.995 . S
N281 C282 1.376 . S
N281 C285 1.383 . S
C282 N281 1.376 . S
C282 C283 1.446 . S
C282 C305 1.391 . S
C283 C282 1.446 . S
C283 C284 1.339 . S
C283 H312 0.949 . S
C284 C283 1.339 . S
C284 C285 1.439 . S
C284 H313 0.950 . S
C285 N281 1.383 . S
C285 C284 1.439 . S
C285 C303 1.392 . S
N286 Co270 2.282 . S
N286 C289 1.332 . S
N286 C291 1.332 . S
C287 C288 1.386 . S
C287 C290 1.388 . S
C288 C287 1.386 . S
C288 C289 1.382 . S
C288 H314 0.950 . S
C289 N286 1.332 . S
C289 C288 1.382 . S
C289 H300 0.952 . S
C290 C287 1.388 . S
C290 C291 1.382 . S
C290 H315 0.950 . S
C291 N286 1.332 . S
C291 C290 1.382 . S
C291 H301 0.948 . S
N292 Co270 2.282 . S
N292 C296 1.332 . S
N292 C297 1.332 . S
C293 C294 1.388 . S
C293 C297 1.382 . S
C293 H316 0.950 . S
C294 C293 1.388 . S
C294 C295 1.386 . S
C295 C294 1.386 . S
C295 C296 1.382 . S
C295 H317 0.950 . S
C296 N292 1.332 . S
C296 C295 1.382 . S
C296 H298 0.952 . S
C297 N292 1.332 . S
C297 C293 1.382 . S
C297 H299 0.948 . S
H298 C296 0.952 . S
H299 C297 0.948 . S
H300 C289 0.952 . S
H301 C291 0.948 . S
C302 C268 1.395 . S
C302 C272 1.391 . S
C303 C265 1.389 . S
C303 C285 1.392 . S
C304 C275 1.392 . S
C304 C277 1.389 . S
C305 C280 1.395 . S
C305 C282 1.391 . S
H306 C266 0.951 . S
H307 C267 0.950 . S
H308 C273 0.949 . S
H309 C274 0.950 . S
H310 C278 0.951 . S
H311 C279 0.950 . S
H312 C283 0.949 . S
H313 C284 0.950 . S
H314 C288 0.950 . S
H315 C290 0.950 . S
H316 C293 0.950 . S
H317 C295 0.950 . S
C318 C319 1.443 . S
C318 N322 1.376 . S
C318 C356 1.389 . S
C319 C318 1.443 . S
C319 C320 1.340 . S
C319 H359 0.951 . S
C320 C319 1.340 . S
C320 C321 1.439 . S
C320 H360 0.950 . S
C321 C320 1.439 . S
C321 N322 1.374 . S
C321 C355 1.395 . S
N322 C318 1.376 . S
N322 C321 1.374 . S
N322 Co323 2.008 . S
Co323 N322 2.008 . S
Co323 N324 1.995 . S
Co323 N329 2.008 . S
Co323 N334 1.995 . S
Co323 N339 2.282 . S
Co323 N345 2.282 . S
N324 Co323 1.995 . S
N324 C325 1.376 . S
N324 C328 1.383 . S
C325 N324 1.376 . S
C325 C326 1.446 . S
C325 C355 1.391 . S
C326 C325 1.446 . S
C326 C327 1.339 . S
C326 H361 0.949 . S
C327 C326 1.339 . S
C327 C328 1.439 . S
C327 H362 0.950 . S
C328 N324 1.383 . S
C328 C327 1.439 . S
C328 C357 1.392 . S
N329 Co323 2.008 . S
N329 C330 1.376 . S
N329 C333 1.374 . S
C330 N329 1.376 . S
C330 C331 1.443 . S
C330 C357 1.389 . S
C331 C330 1.443 . S
C331 C332 1.340 . S
C331 H363 0.951 . S
C332 C331 1.340 . S
C332 C333 1.439 . S
C332 H364 0.950 . S
C333 N329 1.374 . S
C333 C332 1.439 . S
C333 C358 1.395 . S
N334 Co323 1.995 . S
N334 C335 1.376 . S
N334 C338 1.383 . S
C335 N334 1.376 . S
C335 C336 1.446 . S
C335 C358 1.391 . S
C336 C335 1.446 . S
C336 C337 1.339 . S
C336 H365 0.949 . S
C337 C336 1.339 . S
C337 C338 1.439 . S
C337 H366 0.950 . S
C338 N334 1.383 . S
C338 C337 1.439 . S
C338 C356 1.392 . S
N339 Co323 2.282 . S
N339 C342 1.332 . S
N339 C344 1.332 . S
C340 C341 1.386 . S
C340 C343 1.388 . S
C341 C340 1.386 . S
C341 C342 1.382 . S
C341 H367 0.950 . S
C342 N339 1.332 . S
C342 C341 1.382 . S
C342 H353 0.952 . S
C343 C340 1.388 . S
C343 C344 1.382 . S
C343 H368 0.950 . S
C344 N339 1.332 . S
C344 C343 1.382 . S
C344 H354 0.948 . S
N345 Co323 2.282 . S
N345 C349 1.332 . S
N345 C350 1.332 . S
C346 C347 1.388 . S
C346 C350 1.382 . S
C346 H369 0.950 . S
C347 C346 1.388 . S
C347 C348 1.386 . S
C348 C347 1.386 . S
C348 C349 1.382 . S
C348 H370 0.950 . S
C349 N345 1.332 . S
C349 C348 1.382 . S
C349 H351 0.952 . S
C350 N345 1.332 . S
C350 C346 1.382 . S
C350 H352 0.948 . S
H351 C349 0.952 . S
H352 C350 0.948 . S
H353 C342 0.952 . S
H354 C344 0.948 . S
C355 C321 1.395 . S
C355 C325 1.391 . S
C356 C318 1.389 . S
C356 C338 1.392 . S
C357 C328 1.392 . S
C357 C330 1.389 . S
C358 C333 1.395 . S
C358 C335 1.391 . S
H359 C319 0.951 . S
H360 C320 0.950 . S
H361 C326 0.949 . S
H362 C327 0.950 . S
H363 C331 0.951 . S
H364 C332 0.950 . S
H365 C336 0.949 . S
H366 C337 0.950 . S
H367 C341 0.950 . S
H368 C343 0.950 . S
H369 C346 0.950 . S
H370 C348 0.950 . S
C371 C372 1.443 1_565 S
C371 N375 1.376 . S
C371 C409 1.389 . S
C372 C371 1.443 1_545 S
C372 C373 1.341 . S
C372 H412 0.951 1_545 S
C373 C372 1.341 . S
C373 C374 1.439 . S
C373 H413 0.950 . S
C374 C373 1.439 . S
C374 N375 1.374 1_545 S
C374 C408 1.395 . S
N375 C371 1.376 . S
N375 C374 1.374 1_565 S
N375 Co376 2.008 . S
Co376 N375 2.008 . S
Co376 N377 1.995 1_565 S
Co376 N382 2.008 . S
Co376 N387 1.995 . S
Co376 N392 2.282 1_565 S
Co376 N398 2.282 . S
N377 Co376 1.995 1_545 S
N377 C378 1.376 . S
N377 C381 1.383 . S
C378 N377 1.376 . S
C378 C379 1.446 . S
C378 C408 1.391 . S
C379 C378 1.446 . S
C379 C380 1.339 . S
C379 H414 0.949 . S
C380 C379 1.339 . S
C380 C381 1.439 . S
C380 H415 0.950 . S
C381 N377 1.383 . S
C381 C380 1.439 . S
C381 C410 1.392 . S
N382 Co376 2.008 . S
N382 C383 1.376 . S
N382 C386 1.374 . S
C383 N382 1.376 . S
C383 C384 1.443 . S
C383 C410 1.389 1_565 S
C384 C383 1.443 . S
C384 C385 1.340 . S
C384 H416 0.951 . S
C385 C384 1.340 . S
C385 C386 1.439 . S
C385 H417 0.950 . S
C386 N382 1.374 . S
C386 C385 1.439 . S
C386 C411 1.395 . S
N387 Co376 1.995 . S
N387 C388 1.376 . S
N387 C391 1.383 . S
C388 N387 1.376 . S
C388 C389 1.446 . S
C388 C411 1.391 . S
C389 C388 1.446 . S
C389 C390 1.339 . S
C389 H418 0.949 . S
C390 C389 1.339 . S
C390 C391 1.439 . S
C390 H419 0.950 . S
C391 N387 1.383 . S
C391 C390 1.439 . S
C391 C409 1.392 . S
N392 Co376 2.282 1_545 S
N392 C395 1.332 1_545 S
N392 C397 1.332 . S
C393 C394 1.386 . S
C393 C396 1.388 . S
C394 C393 1.386 . S
C394 C395 1.382 1_545 S
C394 H420 0.950 . S
C395 N392 1.332 1_565 S
C395 C394 1.382 1_565 S
C395 H406 0.952 . S
C396 C393 1.388 . S
C396 C397 1.382 . S
C396 H421 0.950 . S
C397 N392 1.332 . S
C397 C396 1.382 . S
C397 H407 0.948 . S
N398 Co376 2.282 . S
N398 C402 1.332 . S
N398 C403 1.332 . S
C399 C400 1.388 . S
C399 C403 1.382 . S
C399 H422 0.950 . S
C400 C399 1.388 . S
C400 C401 1.386 . S
C401 C400 1.386 . S
C401 C402 1.382 . S
C401 H423 0.950 . S
C402 N398 1.332 . S
C402 C401 1.382 . S
C402 H404 0.952 . S
C403 N398 1.332 . S
C403 C399 1.382 . S
C403 H405 0.948 . S
H404 C402 0.952 . S
H405 C403 0.948 . S
H406 C395 0.952 . S
H407 C397 0.948 . S
C408 C374 1.395 . S
C408 C378 1.391 . S
C409 C371 1.389 . S
C409 C391 1.392 . S
C410 C381 1.392 . S
C410 C383 1.389 1_545 S
C411 C386 1.395 . S
C411 C388 1.391 . S
H412 C372 0.951 1_565 S
H413 C373 0.950 . S
H414 C379 0.949 . S
H415 C380 0.950 . S
H416 C384 0.951 . S
H417 C385 0.950 . S
H418 C389 0.949 . S
H419 C390 0.950 . S
H420 C394 0.950 . S
H421 C396 0.950 . S
H422 C399 0.950 . S
H423 C401 0.950 . S
C424 C425 1.443 . S
C424 N428 1.376 . S
C424 C462 1.389 . S
C425 C424 1.443 . S
C425 C426 1.340 . S
C425 H465 0.951 . S
C426 C425 1.340 . S
C426 C427 1.439 . S
C426 H466 0.950 . S
C427 C426 1.439 . S
C427 N428 1.374 . S
C427 C461 1.395 . S
N428 C424 1.376 . S
N428 C427 1.374 . S
N428 Co429 2.008 . S
Co429 N428 2.008 . S
Co429 N430 1.995 . S
Co429 N435 2.008 . S
Co429 N440 1.995 . S
Co429 N445 2.282 . S
Co429 N451 2.282 . S
N430 Co429 1.995 . S
N430 C431 1.376 . S
N430 C434 1.383 . S
C431 N430 1.376 . S
C431 C432 1.446 . S
C431 C461 1.391 . S
C432 C431 1.446 . S
C432 C433 1.339 . S
C432 H467 0.949 . S
C433 C432 1.339 . S
C433 C434 1.439 . S
C433 H468 0.950 . S
C434 N430 1.383 . S
C434 C433 1.439 . S
C434 C463 1.392 . S
N435 Co429 2.008 . S
N435 C436 1.376 . S
N435 C439 1.374 . S
C436 N435 1.376 . S
C436 C437 1.443 . S
C436 C463 1.389 . S
C437 C436 1.443 . S
C437 C438 1.340 . S
C437 H469 0.951 . S
C438 C437 1.340 . S
C438 C439 1.439 . S
C438 H470 0.950 . S
C439 N435 1.374 . S
C439 C438 1.439 . S
C439 C464 1.395 . S
N440 Co429 1.995 . S
N440 C441 1.376 . S
N440 C444 1.383 . S
C441 N440 1.376 . S
C441 C442 1.446 . S
C441 C464 1.391 . S
C442 C441 1.446 . S
C442 C443 1.339 . S
C442 H471 0.949 . S
C443 C442 1.339 . S
C443 C444 1.439 . S
C443 H472 0.950 . S
C444 N440 1.383 . S
C444 C443 1.439 . S
C444 C462 1.392 . S
N445 Co429 2.282 . S
N445 C448 1.332 . S
N445 C450 1.332 . S
C446 C447 1.386 . S
C446 C449 1.388 . S
C447 C446 1.386 . S
C447 C448 1.382 . S
C447 H473 0.950 . S
C448 N445 1.332 . S
C448 C447 1.382 . S
C448 H459 0.952 . S
C449 C446 1.388 . S
C449 C450 1.382 . S
C449 H474 0.950 . S
C450 N445 1.332 . S
C450 C449 1.382 . S
C450 H460 0.948 . S
N451 Co429 2.282 . S
N451 C455 1.332 . S
N451 C456 1.332 . S
C452 C453 1.388 . S
C452 C456 1.382 . S
C452 H475 0.950 . S
C453 C452 1.388 . S
C453 C454 1.386 . S
C454 C453 1.386 . S
C454 C455 1.382 . S
C454 H476 0.950 . S
C455 N451 1.332 . S
C455 C454 1.382 . S
C455 H457 0.952 . S
C456 N451 1.332 . S
C456 C452 1.382 . S
C456 H458 0.948 . S
H457 C455 0.952 . S
H458 C456 0.948 . S
H459 C448 0.952 . S
H460 C450 0.948 . S
C461 C427 1.395 . S
C461 C431 1.391 . S
C462 C424 1.389 . S
C462 C444 1.392 . S
C463 C434 1.392 . S
C463 C436 1.389 . S
C464 C439 1.395 . S
C464 C441 1.391 . S
H465 C425 0.951 . S
H466 C426 0.950 . S
H467 C432 0.949 . S
H468 C433 0.950 . S
H469 C437 0.951 . S
H470 C438 0.950 . S
H471 C442 0.949 . S
H472 C443 0.950 . S
H473 C447 0.950 . S
H474 C449 0.950 . S
H475 C452 0.950 . S
H476 C454 0.950 . S
C477 C478 1.443 . S
C477 N481 1.376 . S
C477 C515 1.389 . S
C478 C477 1.443 . S
C478 C479 1.340 . S
C478 H518 0.951 . S
C479 C478 1.340 . S
C479 C480 1.439 . S
C479 H519 0.950 . S
C480 C479 1.439 . S
C480 N481 1.374 . S
C480 C514 1.395 . S
N481 C477 1.376 . S
N481 C480 1.374 . S
N481 Co482 2.008 . S
Co482 N481 2.008 . S
Co482 N483 1.995 . S
Co482 N488 2.008 . S
Co482 N493 1.995 . S
Co482 N498 2.282 . S
Co482 N504 2.282 . S
N483 Co482 1.995 . S
N483 C484 1.376 . S
N483 C487 1.383 . S
C484 N483 1.376 . S
C484 C485 1.446 . S
C484 C514 1.391 . S
C485 C484 1.446 . S
C485 C486 1.339 . S
C485 H520 0.949 . S
C486 C485 1.339 . S
C486 C487 1.439 . S
C486 H521 0.950 . S
C487 N483 1.383 . S
C487 C486 1.439 . S
C487 C516 1.392 . S
N488 Co482 2.008 . S
N488 C489 1.376 . S
N488 C492 1.374 . S
C489 N488 1.376 . S
C489 C490 1.443 . S
C489 C516 1.389 . S
C490 C489 1.443 . S
C490 C491 1.340 . S
C490 H522 0.951 . S
C491 C490 1.340 . S
C491 C492 1.439 . S
C491 H523 0.950 . S
C492 N488 1.374 . S
C492 C491 1.439 . S
C492 C517 1.395 . S
N493 Co482 1.995 . S
N493 C494 1.376 . S
N493 C497 1.383 . S
C494 N493 1.376 . S
C494 C495 1.446 . S
C494 C517 1.391 . S
C495 C494 1.446 . S
C495 C496 1.339 . S
C495 H524 0.949 . S
C496 C495 1.339 . S
C496 C497 1.439 . S
C496 H525 0.950 . S
C497 N493 1.383 . S
C497 C496 1.439 . S
C497 C515 1.392 . S
N498 Co482 2.282 . S
N498 C501 1.332 . S
N498 C503 1.332 . S
C499 C500 1.386 . S
C499 C502 1.388 . S
C500 C499 1.386 . S
C500 C501 1.382 . S
C500 H526 0.950 . S
C501 N498 1.332 . S
C501 C500 1.382 . S
C501 H512 0.952 . S
C502 C499 1.388 . S
C502 C503 1.382 . S
C502 H527 0.950 . S
C503 N498 1.332 . S
C503 C502 1.382 . S
C503 H513 0.948 . S
N504 Co482 2.282 . S
N504 C508 1.332 . S
N504 C509 1.332 . S
C505 C506 1.388 . S
C505 C509 1.382 . S
C505 H528 0.950 . S
C506 C505 1.388 . S
C506 C507 1.386 . S
C507 C506 1.386 . S
C507 C508 1.382 . S
C507 H529 0.950 . S
C508 N504 1.332 . S
C508 C507 1.382 . S
C508 H510 0.952 . S
C509 N504 1.332 . S
C509 C505 1.382 . S
C509 H511 0.948 . S
H510 C508 0.952 . S
H511 C509 0.948 . S
H512 C501 0.952 . S
H513 C503 0.948 . S
C514 C480 1.395 . S
C514 C484 1.391 . S
C515 C477 1.389 . S
C515 C497 1.392 . S
C516 C487 1.392 . S
C516 C489 1.389 . S
C517 C492 1.395 . S
C517 C494 1.391 . S
H518 C478 0.951 . S
H519 C479 0.950 . S
H520 C485 0.949 . S
H521 C486 0.950 . S
H522 C490 0.951 . S
H523 C491 0.950 . S
H524 C495 0.949 . S
H525 C496 0.950 . S
H526 C500 0.950 . S
H527 C502 0.950 . S
H528 C505 0.950 . S
H529 C507 0.950 . S
C530 C531 1.443 . S
C530 N534 1.376 . S
C530 C568 1.389 . S
C531 C530 1.443 . S
C531 C532 1.340 . S
C531 H571 0.951 . S
C532 C531 1.340 . S
C532 C533 1.439 . S
C532 H572 0.950 . S
C533 C532 1.439 . S
C533 N534 1.374 . S
C533 C567 1.395 . S
N534 C530 1.376 . S
N534 C533 1.374 . S
N534 Co535 2.008 . S
Co535 N534 2.008 . S
Co535 N536 1.995 . S
Co535 N541 2.008 . S
Co535 N546 1.995 . S
Co535 N551 2.282 . S
Co535 N557 2.282 . S
N536 Co535 1.995 . S
N536 C537 1.376 . S
N536 C540 1.383 . S
C537 N536 1.376 . S
C537 C538 1.446 . S
C537 C567 1.391 . S
C538 C537 1.446 . S
C538 C539 1.339 . S
C538 H573 0.949 . S
C539 C538 1.339 . S
C539 C540 1.439 . S
C539 H574 0.950 . S
C540 N536 1.383 . S
C540 C539 1.439 . S
C540 C569 1.392 . S
N541 Co535 2.008 . S
N541 C542 1.376 . S
N541 C545 1.374 . S
C542 N541 1.376 . S
C542 C543 1.443 . S
C542 C569 1.389 . S
C543 C542 1.443 . S
C543 C544 1.340 . S
C543 H575 0.951 . S
C544 C543 1.340 . S
C544 C545 1.439 . S
C544 H576 0.950 . S
C545 N541 1.374 . S
C545 C544 1.439 . S
C545 C570 1.395 . S
N546 Co535 1.995 . S
N546 C547 1.376 . S
N546 C550 1.383 . S
C547 N546 1.376 . S
C547 C548 1.446 . S
C547 C570 1.391 . S
C548 C547 1.446 . S
C548 C549 1.339 . S
C548 H577 0.949 . S
C549 C548 1.339 . S
C549 C550 1.439 . S
C549 H578 0.950 . S
C550 N546 1.383 . S
C550 C549 1.439 . S
C550 C568 1.392 . S
N551 Co535 2.282 . S
N551 C554 1.332 . S
N551 C556 1.332 . S
C552 C553 1.386 . S
C552 C555 1.388 . S
C553 C552 1.386 . S
C553 C554 1.382 . S
C553 H579 0.950 . S
C554 N551 1.332 . S
C554 C553 1.382 . S
C554 H565 0.952 . S
C555 C552 1.388 . S
C555 C556 1.382 . S
C555 H580 0.950 . S
C556 N551 1.332 . S
C556 C555 1.382 . S
C556 H566 0.948 . S
N557 Co535 2.282 . S
N557 C561 1.332 . S
N557 C562 1.332 . S
C558 C559 1.388 . S
C558 C562 1.382 . S
C558 H581 0.950 . S
C559 C558 1.388 . S
C559 C560 1.386 . S
C560 C559 1.386 . S
C560 C561 1.382 . S
C560 H582 0.950 . S
C561 N557 1.332 . S
C561 C560 1.382 . S
C561 H563 0.952 . S
C562 N557 1.332 . S
C562 C558 1.382 . S
C562 H564 0.948 . S
H563 C561 0.952 . S
H564 C562 0.948 . S
H565 C554 0.952 . S
H566 C556 0.948 . S
C567 C533 1.395 . S
C567 C537 1.391 . S
C568 C530 1.389 . S
C568 C550 1.392 . S
C569 C540 1.392 . S
C569 C542 1.389 . S
C570 C545 1.395 . S
C570 C547 1.391 . S
H571 C531 0.951 . S
H572 C532 0.950 . S
H573 C538 0.949 . S
H574 C539 0.950 . S
H575 C543 0.951 . S
H576 C544 0.950 . S
H577 C548 0.949 . S
H578 C549 0.950 . S
H579 C553 0.950 . S
H580 C555 0.950 . S
H581 C558 0.950 . S
H582 C560 0.950 . S
C583 C584 1.443 . S
C583 N587 1.376 . S
C583 C621 1.389 . S
C584 C583 1.443 . S
C584 C585 1.340 . S
C584 H624 0.951 . S
C585 C584 1.340 . S
C585 C586 1.439 . S
C585 H625 0.950 . S
C586 C585 1.439 . S
C586 N587 1.374 . S
C586 C620 1.395 . S
N587 C583 1.376 . S
N587 C586 1.374 . S
N587 Co588 2.008 . S
Co588 N587 2.008 . S
Co588 N589 1.995 . S
Co588 N594 2.008 . S
Co588 N599 1.995 . S
Co588 N604 2.282 . S
Co588 N610 2.282 . S
N589 Co588 1.995 . S
N589 C590 1.376 . S
N589 C593 1.383 . S
C590 N589 1.376 . S
C590 C591 1.446 . S
C590 C620 1.391 . S
C591 C590 1.446 . S
C591 C592 1.339 . S
C591 H626 0.949 . S
C592 C591 1.339 . S
C592 C593 1.439 . S
C592 H627 0.950 . S
C593 N589 1.383 . S
C593 C592 1.439 . S
C593 C622 1.392 . S
N594 Co588 2.008 . S
N594 C595 1.376 . S
N594 C598 1.374 . S
C595 N594 1.376 . S
C595 C596 1.443 . S
C595 C622 1.389 . S
C596 C595 1.443 . S
C596 C597 1.340 . S
C596 H628 0.951 . S
C597 C596 1.340 . S
C597 C598 1.439 . S
C597 H629 0.950 . S
C598 N594 1.374 . S
C598 C597 1.439 . S
C598 C623 1.395 . S
N599 Co588 1.995 . S
N599 C600 1.376 . S
N599 C603 1.383 . S
C600 N599 1.376 . S
C600 C601 1.446 . S
C600 C623 1.391 . S
C601 C600 1.446 . S
C601 C602 1.339 . S
C601 H630 0.949 . S
C602 C601 1.339 . S
C602 C603 1.439 . S
C602 H631 0.950 . S
C603 N599 1.383 . S
C603 C602 1.439 . S
C603 C621 1.392 . S
N604 Co588 2.282 . S
N604 C607 1.332 . S
N604 C609 1.332 . S
C605 C606 1.386 . S
C605 C608 1.388 . S
C606 C605 1.386 . S
C606 C607 1.382 . S
C606 H632 0.950 . S
C607 N604 1.332 . S
C607 C606 1.382 . S
C607 H618 0.952 . S
C608 C605 1.388 . S
C608 C609 1.382 . S
C608 H633 0.950 . S
C609 N604 1.332 . S
C609 C608 1.382 . S
C609 H619 0.948 . S
N610 Co588 2.282 . S
N610 C614 1.332 . S
N610 C615 1.332 . S
C611 C612 1.388 . S
C611 C615 1.382 . S
C611 H634 0.950 . S
C612 C611 1.388 . S
C612 C613 1.386 . S
C613 C612 1.386 . S
C613 C614 1.382 . S
C613 H635 0.950 . S
C614 N610 1.332 . S
C614 C613 1.382 . S
C614 H616 0.952 . S
C615 N610 1.332 . S
C615 C611 1.382 . S
C615 H617 0.948 . S
H616 C614 0.952 . S
H617 C615 0.948 . S
H618 C607 0.952 . S
H619 C609 0.948 . S
C620 C586 1.395 . S
C620 C590 1.391 . S
C621 C583 1.389 . S
C621 C603 1.392 . S
C622 C593 1.392 . S
C622 C595 1.389 . S
C623 C598 1.395 . S
C623 C600 1.391 . S
H624 C584 0.951 . S
H625 C585 0.950 . S
H626 C591 0.949 . S
H627 C592 0.950 . S
H628 C596 0.951 . S
H629 C597 0.950 . S
H630 C601 0.949 . S
H631 C602 0.950 . S
H632 C606 0.950 . S
H633 C608 0.950 . S
H634 C611 0.950 . S
H635 C613 0.950 . S
C636 C637 1.443 . S
C636 N640 1.376 . S
C636 C674 1.389 . S
C637 C636 1.443 . S
C637 C638 1.340 . S
C637 H677 0.951 . S
C638 C637 1.340 . S
C638 C639 1.439 . S
C638 H678 0.950 . S
C639 C638 1.439 . S
C639 N640 1.374 . S
C639 C673 1.395 . S
N640 C636 1.376 . S
N640 C639 1.374 . S
N640 Co641 2.008 . S
Co641 N640 2.008 . S
Co641 N642 1.995 . S
Co641 N647 2.008 . S
Co641 N652 1.995 . S
Co641 N657 2.282 . S
Co641 N663 2.282 . S
N642 Co641 1.995 . S
N642 C643 1.376 . S
N642 C646 1.383 . S
C643 N642 1.376 . S
C643 C644 1.446 . S
C643 C673 1.391 . S
C644 C643 1.446 . S
C644 C645 1.339 . S
C644 H679 0.949 . S
C645 C644 1.339 . S
C645 C646 1.439 . S
C645 H680 0.950 . S
C646 N642 1.383 . S
C646 C645 1.439 . S
C646 C675 1.392 . S
N647 Co641 2.008 . S
N647 C648 1.376 . S
N647 C651 1.374 . S
C648 N647 1.376 . S
C648 C649 1.443 . S
C648 C675 1.389 . S
C649 C648 1.443 . S
C649 C650 1.340 . S
C649 H681 0.951 . S
C650 C649 1.340 . S
C650 C651 1.439 . S
C650 H682 0.950 . S
C651 N647 1.374 . S
C651 C650 1.439 . S
C651 C676 1.395 . S
N652 Co641 1.995 . S
N652 C653 1.376 . S
N652 C656 1.383 . S
C653 N652 1.376 . S
C653 C654 1.446 . S
C653 C676 1.391 . S
C654 C653 1.446 . S
C654 C655 1.339 . S
C654 H683 0.949 . S
C655 C654 1.339 . S
C655 C656 1.439 . S
C655 H684 0.950 . S
C656 N652 1.383 . S
C656 C655 1.439 . S
C656 C674 1.392 . S
N657 Co641 2.282 . S
N657 C660 1.332 . S
N657 C662 1.332 . S
C658 C659 1.386 . S
C658 C661 1.388 . S
C659 C658 1.386 . S
C659 C660 1.382 . S
C659 H685 0.950 . S
C660 N657 1.332 . S
C660 C659 1.382 . S
C660 H671 0.952 . S
C661 C658 1.388 . S
C661 C662 1.382 . S
C661 H686 0.950 . S
C662 N657 1.332 . S
C662 C661 1.382 . S
C662 H672 0.948 . S
N663 Co641 2.282 . S
N663 C667 1.332 . S
N663 C668 1.332 . S
C664 C665 1.388 . S
C664 C668 1.382 . S
C664 H687 0.950 . S
C665 C664 1.388 . S
C665 C666 1.386 . S
C666 C665 1.386 . S
C666 C667 1.382 . S
C666 H688 0.950 . S
C667 N663 1.332 . S
C667 C666 1.382 . S
C667 H669 0.952 . S
C668 N663 1.332 . S
C668 C664 1.382 . S
C668 H670 0.948 . S
H669 C667 0.952 . S
H670 C668 0.948 . S
H671 C660 0.952 . S
H672 C662 0.948 . S
C673 C639 1.395 . S
C673 C643 1.391 . S
C674 C636 1.389 . S
C674 C656 1.392 . S
C675 C646 1.392 . S
C675 C648 1.389 . S
C676 C651 1.395 . S
C676 C653 1.391 . S
H677 C637 0.951 . S
H678 C638 0.950 . S
H679 C644 0.949 . S
H680 C645 0.950 . S
H681 C649 0.951 . S
H682 C650 0.950 . S
H683 C654 0.949 . S
H684 C655 0.950 . S
H685 C659 0.950 . S
H686 C661 0.950 . S
H687 C664 0.950 . S
H688 C666 0.950 . S
C689 C690 1.443 . S
C689 N693 1.376 . S
C689 C727 1.389 . S
C690 C689 1.443 . S
C690 C691 1.340 . S
C690 H730 0.951 . S
C691 C690 1.340 . S
C691 C692 1.439 . S
C691 H731 0.950 . S
C692 C691 1.439 . S
C692 N693 1.374 . S
C692 C726 1.395 . S
N693 C689 1.376 . S
N693 C692 1.374 . S
N693 Co694 2.008 . S
Co694 N693 2.008 . S
Co694 N695 1.995 . S
Co694 N700 2.008 . S
Co694 N705 1.995 . S
Co694 N710 2.282 . S
Co694 N716 2.282 . S
N695 Co694 1.995 . S
N695 C696 1.376 . S
N695 C699 1.383 . S
C696 N695 1.376 . S
C696 C697 1.446 . S
C696 C726 1.391 . S
C697 C696 1.446 . S
C697 C698 1.339 . S
C697 H732 0.949 . S
C698 C697 1.339 . S
C698 C699 1.439 . S
C698 H733 0.950 . S
C699 N695 1.383 . S
C699 C698 1.439 . S
C699 C728 1.392 . S
N700 Co694 2.008 . S
N700 C701 1.376 . S
N700 C704 1.374 . S
C701 N700 1.376 . S
C701 C702 1.443 . S
C701 C728 1.389 . S
C702 C701 1.443 . S
C702 C703 1.340 . S
C702 H734 0.951 . S
C703 C702 1.340 . S
C703 C704 1.439 . S
C703 H735 0.950 . S
C704 N700 1.374 . S
C704 C703 1.439 . S
C704 C729 1.395 . S
N705 Co694 1.995 . S
N705 C706 1.376 . S
N705 C709 1.383 . S
C706 N705 1.376 . S
C706 C707 1.446 . S
C706 C729 1.391 . S
C707 C706 1.446 . S
C707 C708 1.339 . S
C707 H736 0.949 . S
C708 C707 1.339 . S
C708 C709 1.439 . S
C708 H737 0.950 . S
C709 N705 1.383 . S
C709 C708 1.439 . S
C709 C727 1.392 . S
N710 Co694 2.282 . S
N710 C713 1.332 . S
N710 C715 1.332 . S
C711 C712 1.386 . S
C711 C714 1.388 . S
C712 C711 1.386 . S
C712 C713 1.382 . S
C712 H738 0.950 . S
C713 N710 1.332 . S
C713 C712 1.382 . S
C713 H724 0.952 . S
C714 C711 1.388 . S
C714 C715 1.382 . S
C714 H739 0.950 . S
C715 N710 1.332 . S
C715 C714 1.382 . S
C715 H725 0.948 . S
N716 Co694 2.282 . S
N716 C720 1.332 . S
N716 C721 1.332 . S
C717 C718 1.388 . S
C717 C721 1.382 . S
C717 H740 0.950 . S
C718 C717 1.388 . S
C718 C719 1.386 . S
C719 C718 1.386 . S
C719 C720 1.382 . S
C719 H741 0.950 . S
C720 N716 1.332 . S
C720 C719 1.382 . S
C720 H722 0.952 . S
C721 N716 1.332 . S
C721 C717 1.382 . S
C721 H723 0.948 . S
H722 C720 0.952 . S
H723 C721 0.948 . S
H724 C713 0.952 . S
H725 C715 0.948 . S
C726 C692 1.395 . S
C726 C696 1.391 . S
C727 C689 1.389 . S
C727 C709 1.392 . S
C728 C699 1.392 . S
C728 C701 1.389 . S
C729 C704 1.395 . S
C729 C706 1.391 . S
H730 C690 0.951 . S
H731 C691 0.950 . S
H732 C697 0.949 . S
H733 C698 0.950 . S
H734 C702 0.951 . S
H735 C703 0.950 . S
H736 C707 0.949 . S
H737 C708 0.950 . S
H738 C712 0.950 . S
H739 C714 0.950 . S
H740 C717 0.950 . S
H741 C719 0.950 . S
C742 C743 1.443 . S
C742 N746 1.376 . S
C742 C780 1.389 . S
C743 C742 1.443 . S
C743 C744 1.340 . S
C743 H783 0.951 . S
C744 C743 1.340 . S
C744 C745 1.439 . S
C744 H784 0.950 . S
C745 C744 1.439 . S
C745 N746 1.374 . S
C745 C779 1.395 . S
N746 C742 1.376 . S
N746 C745 1.374 . S
N746 Co747 2.008 . S
Co747 N746 2.008 . S
Co747 N748 1.995 . S
Co747 N753 2.008 . S
Co747 N758 1.995 . S
Co747 N763 2.282 . S
Co747 N769 2.282 . S
N748 Co747 1.995 . S
N748 C749 1.376 . S
N748 C752 1.383 . S
C749 N748 1.376 . S
C749 C750 1.446 . S
C749 C779 1.391 . S
C750 C749 1.446 . S
C750 C751 1.339 . S
C750 H785 0.949 . S
C751 C750 1.339 . S
C751 C752 1.439 . S
C751 H786 0.950 . S
C752 N748 1.383 . S
C752 C751 1.439 . S
C752 C781 1.392 . S
N753 Co747 2.008 . S
N753 C754 1.376 . S
N753 C757 1.374 . S
C754 N753 1.376 . S
C754 C755 1.443 . S
C754 C781 1.389 . S
C755 C754 1.443 . S
C755 C756 1.340 . S
C755 H787 0.951 . S
C756 C755 1.340 . S
C756 C757 1.439 . S
C756 H788 0.950 . S
C757 N753 1.374 . S
C757 C756 1.439 . S
C757 C782 1.395 . S
N758 Co747 1.995 . S
N758 C759 1.376 . S
N758 C762 1.383 . S
C759 N758 1.376 . S
C759 C760 1.446 . S
C759 C782 1.391 . S
C760 C759 1.446 . S
C760 C761 1.339 . S
C760 H789 0.949 . S
C761 C760 1.339 . S
C761 C762 1.439 . S
C761 H790 0.950 . S
C762 N758 1.383 . S
C762 C761 1.439 . S
C762 C780 1.392 . S
N763 Co747 2.282 . S
N763 C766 1.332 . S
N763 C768 1.332 . S
C764 C765 1.386 . S
C764 C767 1.388 . S
C765 C764 1.386 . S
C765 C766 1.382 . S
C765 H791 0.950 . S
C766 N763 1.332 . S
C766 C765 1.382 . S
C766 H777 0.952 . S
C767 C764 1.388 . S
C767 C768 1.382 . S
C767 H792 0.950 . S
C768 N763 1.332 . S
C768 C767 1.382 . S
C768 H778 0.948 . S
N769 Co747 2.282 . S
N769 C773 1.332 . S
N769 C774 1.332 . S
C770 C771 1.388 . S
C770 C774 1.382 . S
C770 H793 0.950 . S
C771 C770 1.388 . S
C771 C772 1.386 . S
C772 C771 1.386 . S
C772 C773 1.382 . S
C772 H794 0.950 . S
C773 N769 1.332 . S
C773 C772 1.382 . S
C773 H775 0.952 . S
C774 N769 1.332 . S
C774 C770 1.382 . S
C774 H776 0.948 . S
H775 C773 0.952 . S
H776 C774 0.948 . S
H777 C766 0.952 . S
H778 C768 0.948 . S
C779 C745 1.395 . S
C779 C749 1.391 . S
C780 C742 1.389 . S
C780 C762 1.392 . S
C781 C752 1.392 . S
C781 C754 1.389 . S
C782 C757 1.395 . S
C782 C759 1.391 . S
H783 C743 0.951 . S
H784 C744 0.950 . S
H785 C750 0.949 . S
H786 C751 0.950 . S
H787 C755 0.951 . S
H788 C756 0.950 . S
H789 C760 0.949 . S
H790 C761 0.950 . S
H791 C765 0.950 . S
H792 C767 0.950 . S
H793 C770 0.950 . S
H794 C772 0.950 . S
C795 C796 1.443 . S
C795 N799 1.376 . S
C795 C833 1.389 . S
C796 C795 1.443 . S
C796 C797 1.340 . S
C796 H836 0.951 . S
C797 C796 1.340 . S
C797 C798 1.439 . S
C797 H837 0.950 . S
C798 C797 1.439 . S
C798 N799 1.374 . S
C798 C832 1.395 . S
N799 C795 1.376 . S
N799 C798 1.374 . S
N799 Co800 2.008 . S
Co800 N799 2.008 . S
Co800 N801 1.995 . S
Co800 N806 2.008 . S
Co800 N811 1.995 . S
Co800 N816 2.282 . S
Co800 N822 2.282 . S
N801 Co800 1.995 . S
N801 C802 1.376 . S
N801 C805 1.383 . S
C802 N801 1.376 . S
C802 C803 1.446 . S
C802 C832 1.391 . S
C803 C802 1.446 . S
C803 C804 1.339 . S
C803 H838 0.949 . S
C804 C803 1.339 . S
C804 C805 1.439 . S
C804 H839 0.950 . S
C805 N801 1.383 . S
C805 C804 1.439 . S
C805 C834 1.392 . S
N806 Co800 2.008 . S
N806 C807 1.376 . S
N806 C810 1.374 . S
C807 N806 1.376 . S
C807 C808 1.443 . S
C807 C834 1.389 . S
C808 C807 1.443 . S
C808 C809 1.340 . S
C808 H840 0.951 . S
C809 C808 1.340 . S
C809 C810 1.439 . S
C809 H841 0.950 . S
C810 N806 1.374 . S
C810 C809 1.439 . S
C810 C835 1.395 . S
N811 Co800 1.995 . S
N811 C812 1.376 . S
N811 C815 1.383 . S
C812 N811 1.376 . S
C812 C813 1.446 . S
C812 C835 1.391 . S
C813 C812 1.446 . S
C813 C814 1.339 . S
C813 H842 0.949 . S
C814 C813 1.339 . S
C814 C815 1.439 . S
C814 H843 0.950 . S
C815 N811 1.383 . S
C815 C814 1.439 . S
C815 C833 1.392 . S
N816 Co800 2.282 . S
N816 C819 1.332 . S
N816 C821 1.332 . S
C817 C818 1.386 . S
C817 C820 1.388 . S
C818 C817 1.386 . S
C818 C819 1.382 . S
C818 H844 0.950 . S
C819 N816 1.332 . S
C819 C818 1.382 . S
C819 H830 0.952 . S
C820 C817 1.388 . S
C820 C821 1.382 . S
C820 H845 0.950 . S
C821 N816 1.332 . S
C821 C820 1.382 . S
C821 H831 0.948 . S
N822 Co800 2.282 . S
N822 C826 1.332 . S
N822 C827 1.332 . S
C823 C824 1.388 . S
C823 C827 1.382 . S
C823 H846 0.950 . S
C824 C823 1.388 . S
C824 C825 1.386 . S
C825 C824 1.386 . S
C825 C826 1.382 . S
C825 H847 0.950 . S
C826 N822 1.332 . S
C826 C825 1.382 . S
C826 H828 0.952 . S
C827 N822 1.332 . S
C827 C823 1.382 . S
C827 H829 0.948 . S
H828 C826 0.952 . S
H829 C827 0.948 . S
H830 C819 0.952 . S
H831 C821 0.948 . S
C832 C798 1.395 . S
C832 C802 1.391 . S
C833 C795 1.389 . S
C833 C815 1.392 . S
C834 C805 1.392 . S
C834 C807 1.389 . S
C835 C810 1.395 . S
C835 C812 1.391 . S
H836 C796 0.951 . S
H837 C797 0.950 . S
H838 C803 0.949 . S
H839 C804 0.950 . S
H840 C808 0.951 . S
H841 C809 0.950 . S
H842 C813 0.949 . S
H843 C814 0.950 . S
H844 C818 0.950 . S
H845 C820 0.950 . S
H846 C823 0.950 . S
H847 C825 0.950 . S
C848 C849 1.443 . S
C848 N852 1.376 . S
C848 C886 1.389 1_655 S
C849 C848 1.443 . S
C849 C850 1.340 . S
C849 H889 0.951 . S
C850 C849 1.340 . S
C850 C851 1.439 . S
C850 H890 0.950 . S
C851 C850 1.439 . S
C851 N852 1.374 . S
C851 C885 1.395 . S
N852 C848 1.376 . S
N852 C851 1.374 . S
N852 Co853 2.008 . S
Co853 N852 2.008 . S
Co853 N854 1.995 . S
Co853 N859 2.008 1_645 S
Co853 N864 1.995 1_655 S
Co853 N869 2.282 1_545 S
Co853 N875 2.282 1_655 S
N854 Co853 1.995 . S
N854 C855 1.376 . S
N854 C858 1.383 . S
C855 N854 1.376 . S
C855 C856 1.446 . S
C855 C885 1.391 . S
C856 C855 1.446 . S
C856 C857 1.339 . S
C856 H891 0.949 . S
C857 C856 1.339 . S
C857 C858 1.439 . S
C857 H892 0.950 . S
C858 N854 1.383 . S
C858 C857 1.439 . S
C858 C887 1.392 1_545 S
N859 Co853 2.008 1_465 S
N859 C860 1.376 . S
N859 C863 1.374 . S
C860 N859 1.376 . S
C860 C861 1.443 . S
C860 C887 1.389 1_455 S
C861 C860 1.443 . S
C861 C862 1.340 . S
C861 H893 0.951 . S
C862 C861 1.340 . S
C862 C863 1.439 . S
C862 H894 0.950 . S
C863 N859 1.374 . S
C863 C862 1.439 . S
C863 C888 1.395 . S
N864 Co853 1.995 1_455 S
N864 C865 1.376 1_545 S
N864 C868 1.383 . S
C865 N864 1.376 1_565 S
C865 C866 1.446 . S
C865 C888 1.391 . S
C866 C865 1.446 . S
C866 C867 1.339 . S
C866 H895 0.949 . S
C867 C866 1.339 . S
C867 C868 1.439 1_565 S
C867 H896 0.950 1_565 S
C868 N864 1.383 . S
C868 C867 1.439 1_545 S
C868 C886 1.392 . S
N869 Co853 2.282 1_565 S
N869 C872 1.332 . S
N869 C874 1.332 1_565 S
C870 C871 1.386 . S
C870 C873 1.388 . S
C871 C870 1.386 . S
C871 C872 1.382 . S
C871 H897 0.950 . S
C872 N869 1.332 . S
C872 C871 1.382 . S
C872 H883 0.952 . S
C873 C870 1.388 . S
C873 C874 1.382 1_565 S
C873 H898 0.950 . S
C874 N869 1.332 1_545 S
C874 C873 1.382 1_545 S
C874 H884 0.948 . S
N875 Co853 2.282 1_455 S
N875 C879 1.332 . S
N875 C880 1.332 . S
C876 C877 1.388 . S
C876 C880 1.382 . S
C876 H899 0.950 . S
C877 C876 1.388 . S
C877 C878 1.386 . S
C878 C877 1.386 . S
C878 C879 1.382 . S
C878 H900 0.950 . S
C879 N875 1.332 . S
C879 C878 1.382 . S
C879 H881 0.952 . S
C880 N875 1.332 . S
C880 C876 1.382 . S
C880 H882 0.948 . S
H881 C879 0.952 . S
H882 C880 0.948 . S
H883 C872 0.952 . S
H884 C874 0.948 . S
C885 C851 1.395 . S
C885 C855 1.391 . S
C886 C848 1.389 1_455 S
C886 C868 1.392 . S
C887 C858 1.392 1_565 S
C887 C860 1.389 1_655 S
C888 C863 1.395 . S
C888 C865 1.391 . S
H889 C849 0.951 . S
H890 C850 0.950 . S
H891 C856 0.949 . S
H892 C857 0.950 . S
H893 C861 0.951 . S
H894 C862 0.950 . S
H895 C866 0.949 . S
H896 C867 0.950 1_545 S
H897 C871 0.950 . S
H898 C873 0.950 . S
H899 C876 0.950 . S
H900 C878 0.950 . S
C901 C902 1.443 . S
C901 N905 1.376 . S
C901 C939 1.389 . S
C902 C901 1.443 . S
C902 C903 1.340 . S
C902 H942 0.951 . S
C903 C902 1.340 . S
C903 C904 1.439 . S
C903 H943 0.950 . S
C904 C903 1.439 . S
C904 N905 1.374 . S
C904 C938 1.395 . S
N905 C901 1.376 . S
N905 C904 1.374 . S
N905 Co906 2.008 . S
Co906 N905 2.008 . S
Co906 N907 1.995 . S
Co906 N912 2.008 . S
Co906 N917 1.995 . S
Co906 N922 2.282 . S
Co906 N928 2.282 . S
N907 Co906 1.995 . S
N907 C908 1.376 . S
N907 C911 1.383 . S
C908 N907 1.376 . S
C908 C909 1.446 . S
C908 C938 1.391 . S
C909 C908 1.446 . S
C909 C910 1.339 . S
C909 H944 0.949 . S
C910 C909 1.339 . S
C910 C911 1.439 . S
C910 H945 0.950 . S
C911 N907 1.383 . S
C911 C910 1.439 . S
C911 C940 1.392 . S
N912 Co906 2.008 . S
N912 C913 1.376 . S
N912 C916 1.374 . S
C913 N912 1.376 . S
C913 C914 1.443 . S
C913 C940 1.389 . S
C914 C913 1.443 . S
C914 C915 1.340 . S
C914 H946 0.951 . S
C915 C914 1.340 . S
C915 C916 1.439 . S
C915 H947 0.950 . S
C916 N912 1.374 . S
C916 C915 1.439 . S
C916 C941 1.395 . S
N917 Co906 1.995 . S
N917 C918 1.376 . S
N917 C921 1.383 . S
C918 N917 1.376 . S
C918 C919 1.446 . S
C918 C941 1.391 . S
C919 C918 1.446 . S
C919 C920 1.339 . S
C919 H948 0.949 . S
C920 C919 1.339 . S
C920 C921 1.439 . S
C920 H949 0.950 . S
C921 N917 1.383 . S
C921 C920 1.439 . S
C921 C939 1.392 . S
N922 Co906 2.282 . S
N922 C925 1.332 . S
N922 C927 1.332 . S
C923 C924 1.386 . S
C923 C926 1.388 . S
C924 C923 1.386 . S
C924 C925 1.382 . S
C924 H950 0.950 . S
C925 N922 1.332 . S
C925 C924 1.382 . S
C925 H936 0.952 . S
C926 C923 1.388 . S
C926 C927 1.382 . S
C926 H951 0.950 . S
C927 N922 1.332 . S
C927 C926 1.382 . S
C927 H937 0.948 . S
N928 Co906 2.282 . S
N928 C932 1.332 . S
N928 C933 1.332 . S
C929 C930 1.388 . S
C929 C933 1.382 . S
C929 H952 0.950 . S
C930 C929 1.388 . S
C930 C931 1.386 . S
C931 C930 1.386 . S
C931 C932 1.382 . S
C931 H953 0.950 . S
C932 N928 1.332 . S
C932 C931 1.382 . S
C932 H934 0.952 . S
C933 N928 1.332 . S
C933 C929 1.382 . S
C933 H935 0.948 . S
H934 C932 0.952 . S
H935 C933 0.948 . S
H936 C925 0.952 . S
H937 C927 0.948 . S
C938 C904 1.395 . S
C938 C908 1.391 . S
C939 C901 1.389 . S
C939 C921 1.392 . S
C940 C911 1.392 . S
C940 C913 1.389 . S
C941 C916 1.395 . S
C941 C918 1.391 . S
H942 C902 0.951 . S
H943 C903 0.950 . S
H944 C909 0.949 . S
H945 C910 0.950 . S
H946 C914 0.951 . S
H947 C915 0.950 . S
H948 C919 0.949 . S
H949 C920 0.950 . S
H950 C924 0.950 . S
H951 C926 0.950 . S
H952 C929 0.950 . S
H953 C931 0.950 . S
C954 C955 1.443 . S
C954 N958 1.376 . S
C954 C992 1.389 1_655 S
C955 C954 1.443 . S
C955 C956 1.340 . S
C955 H995 0.951 . S
C956 C955 1.340 . S
C956 C957 1.439 . S
C956 H996 0.950 . S
C957 C956 1.439 . S
C957 N958 1.374 . S
C957 C991 1.395 . S
N958 C954 1.376 . S
N958 C957 1.374 . S
N958 Co959 2.008 . S
Co959 N958 2.008 . S
Co959 N960 1.995 . S
Co959 N965 2.008 1_655 S
Co959 N970 1.995 1_655 S
Co959 N975 2.282 . S
Co959 N981 2.282 1_655 S
N960 Co959 1.995 . S
N960 C961 1.376 . S
N960 C964 1.383 . S
C961 N960 1.376 . S
C961 C962 1.446 . S
C961 C991 1.391 . S
C962 C961 1.446 . S
C962 C963 1.339 . S
C962 H997 0.949 . S
C963 C962 1.339 . S
C963 C964 1.439 . S
C963 H998 0.950 . S
C964 N960 1.383 . S
C964 C963 1.439 . S
C964 C993 1.392 . S
N965 Co959 2.008 1_455 S
N965 C966 1.376 . S
N965 C969 1.374 . S
C966 N965 1.376 . S
C966 C967 1.443 . S
C966 C993 1.389 1_455 S
C967 C966 1.443 . S
C967 C968 1.340 . S
C967 H999 0.951 . S
C968 C967 1.340 . S
C968 C969 1.439 . S
C968 H1000 0.950 . S
C969 N965 1.374 . S
C969 C968 1.439 . S
C969 C994 1.395 . S
N970 Co959 1.995 1_455 S
N970 C971 1.376 . S
N970 C974 1.383 . S
C971 N970 1.376 . S
C971 C972 1.446 . S
C971 C994 1.391 . S
C972 C971 1.446 . S
C972 C973 1.339 . S
C972 H1001 0.949 . S
C973 C972 1.339 . S
C973 C974 1.439 . S
C973 H1002 0.950 . S
C974 N970 1.383 . S
C974 C973 1.439 . S
C974 C992 1.392 . S
N975 Co959 2.282 . S
N975 C978 1.332 . S
N975 C980 1.332 . S
C976 C977 1.386 . S
C976 C979 1.388 . S
C977 C976 1.386 . S
C977 C978 1.382 . S
C977 H1003 0.950 . S
C978 N975 1.332 . S
C978 C977 1.382 . S
C978 H989 0.952 . S
C979 C976 1.388 . S
C979 C980 1.382 . S
C979 H1004 0.950 . S
C980 N975 1.332 . S
C980 C979 1.382 . S
C980 H990 0.948 . S
N981 Co959 2.282 1_455 S
N981 C985 1.332 . S
N981 C986 1.332 . S
C982 C983 1.388 . S
C982 C986 1.382 . S
C982 H1005 0.950 . S
C983 C982 1.388 . S
C983 C984 1.386 . S
C984 C983 1.386 . S
C984 C985 1.382 . S
C984 H1006 0.950 . S
C985 N981 1.332 . S
C985 C984 1.382 . S
C985 H987 0.952 . S
C986 N981 1.332 . S
C986 C982 1.382 . S
C986 H988 0.948 . S
H987 C985 0.952 . S
H988 C986 0.948 . S
H989 C978 0.952 . S
H990 C980 0.948 . S
C991 C957 1.395 . S
C991 C961 1.391 . S
C992 C954 1.389 1_455 S
C992 C974 1.392 . S
C993 C964 1.392 . S
C993 C966 1.389 1_655 S
C994 C969 1.395 . S
C994 C971 1.391 . S
H995 C955 0.951 . S
H996 C956 0.950 . S
H997 C962 0.949 . S
H998 C963 0.950 . S
H999 C967 0.951 . S
H1000 C968 0.950 . S
H1001 C972 0.949 . S
H1002 C973 0.950 . S
H1003 C977 0.950 . S
H1004 C979 0.950 . S
H1005 C982 0.950 . S
H1006 C984 0.950 . S
C1007 C1008 1.443 . S
C1007 N1011 1.376 . S
C1007 C1045 1.389 . S
C1008 C1007 1.443 . S
C1008 C1009 1.340 . S
C1008 H1048 0.951 . S
C1009 C1008 1.340 . S
C1009 C1010 1.439 . S
C1009 H1049 0.950 . S
C1010 C1009 1.439 . S
C1010 N1011 1.374 . S
C1010 C1044 1.395 . S
N1011 C1007 1.376 . S
N1011 C1010 1.374 . S
N1011 Co1012 2.008 . S
Co1012 N1011 2.008 . S
Co1012 N1013 1.995 . S
Co1012 N1018 2.008 1_545 S
Co1012 N1023 1.995 1_545 S
Co1012 N1028 2.282 1_545 S
Co1012 N1034 2.282 . S
N1013 Co1012 1.995 . S
N1013 C1014 1.376 . S
N1013 C1017 1.383 . S
C1014 N1013 1.376 . S
C1014 C1015 1.446 . S
C1014 C1044 1.391 . S
C1015 C1014 1.446 . S
C1015 C1016 1.339 . S
C1015 H1050 0.949 . S
C1016 C1015 1.339 . S
C1016 C1017 1.439 . S
C1016 H1051 0.950 . S
C1017 N1013 1.383 . S
C1017 C1016 1.439 . S
C1017 C1046 1.392 1_545 S
N1018 Co1012 2.008 1_565 S
N1018 C1019 1.376 . S
N1018 C1022 1.374 . S
C1019 N1018 1.376 . S
C1019 C1020 1.443 . S
C1019 C1046 1.389 . S
C1020 C1019 1.443 . S
C1020 C1021 1.340 . S
C1020 H1052 0.951 . S
C1021 C1020 1.340 . S
C1021 C1022 1.439 . S
C1021 H1053 0.950 . S
C1022 N1018 1.374 . S
C1022 C1021 1.439 . S
C1022 C1047 1.395 . S
N1023 Co1012 1.995 1_565 S
N1023 C1024 1.376 . S
N1023 C1027 1.383 1_565 S
C1024 N1023 1.376 . S
C1024 C1025 1.446 . S
C1024 C1047 1.391 . S
C1025 C1024 1.446 . S
C1025 C1026 1.339 . S
C1025 H1054 0.949 . S
C1026 C1025 1.339 . S
C1026 C1027 1.439 1_565 S
C1026 H1055 0.950 . S
C1027 N1023 1.383 1_545 S
C1027 C1026 1.439 1_545 S
C1027 C1045 1.392 . S
N1028 Co1012 2.282 1_565 S
N1028 C1031 1.332 . S
N1028 C1033 1.332 1_565 S
C1029 C1030 1.386 . S
C1029 C1032 1.388 . S
C1030 C1029 1.386 . S
C1030 C1031 1.382 . S
C1030 H1056 0.950 . S
C1031 N1028 1.332 . S
C1031 C1030 1.382 . S
C1031 H1042 0.952 . S
C1032 C1029 1.388 . S
C1032 C1033 1.382 1_565 S
C1032 H1057 0.950 . S
C1033 N1028 1.332 1_545 S
C1033 C1032 1.382 1_545 S
C1033 H1043 0.948 . S
N1034 Co1012 2.282 . S
N1034 C1038 1.332 . S
N1034 C1039 1.332 . S
C1035 C1036 1.388 . S
C1035 C1039 1.382 . S
C1035 H1058 0.950 . S
C1036 C1035 1.388 . S
C1036 C1037 1.386 . S
C1037 C1036 1.386 . S
C1037 C1038 1.382 . S
C1037 H1059 0.950 . S
C1038 N1034 1.332 . S
C1038 C1037 1.382 . S
C1038 H1040 0.952 . S
C1039 N1034 1.332 . S
C1039 C1035 1.382 . S
C1039 H1041 0.948 . S
H1040 C1038 0.952 . S
H1041 C1039 0.948 . S
H1042 C1031 0.952 . S
H1043 C1033 0.948 . S
C1044 C1010 1.395 . S
C1044 C1014 1.391 . S
C1045 C1007 1.389 . S
C1045 C1027 1.392 . S
C1046 C1017 1.392 1_565 S
C1046 C1019 1.389 . S
C1047 C1022 1.395 . S
C1047 C1024 1.391 . S
H1048 C1008 0.951 . S
H1049 C1009 0.950 . S
H1050 C1015 0.949 . S
H1051 C1016 0.950 . S
H1052 C1020 0.951 . S
H1053 C1021 0.950 . S
H1054 C1025 0.949 . S
H1055 C1026 0.950 . S
H1056 C1030 0.950 . S
H1057 C1032 0.950 . S
H1058 C1035 0.950 . S
H1059 C1037 0.950 . S
C1060 C1061 1.443 . S
C1060 N1064 1.376 . S
C1060 C1098 1.389 . S
C1061 C1060 1.443 . S
C1061 C1062 1.340 1_565 S
C1061 H1101 0.951 . S
C1062 C1061 1.340 1_545 S
C1062 C1063 1.439 . S
C1062 H1102 0.950 . S
C1063 C1062 1.439 . S
C1063 N1064 1.374 1_545 S
C1063 C1097 1.395 . S
N1064 C1060 1.376 . S
N1064 C1063 1.374 1_565 S
N1064 Co1065 2.008 1_655 S
Co1065 N1064 2.008 1_455 S
Co1065 N1066 1.995 1_465 S
Co1065 N1071 2.008 . S
Co1065 N1076 1.995 . S
Co1065 N1081 2.282 1_565 S
Co1065 N1087 2.282 1_455 S
N1066 Co1065 1.995 1_645 S
N1066 C1067 1.376 . S
N1066 C1070 1.383 . S
C1067 N1066 1.376 . S
C1067 C1068 1.446 . S
C1067 C1097 1.391 . S
C1068 C1067 1.446 . S
C1068 C1069 1.339 . S
C1068 H1103 0.949 . S
C1069 C1068 1.339 . S
C1069 C1070 1.439 . S
C1069 H1104 0.950 . S
C1070 N1066 1.383 . S
C1070 C1069 1.439 . S
C1070 C1099 1.392 1_655 S
N1071 Co1065 2.008 . S
N1071 C1072 1.376 . S
N1071 C1075 1.374 . S
C1072 N1071 1.376 . S
C1072 C1073 1.443 . S
C1072 C1099 1.389 1_565 S
C1073 C1072 1.443 . S
C1073 C1074 1.340 . S
C1073 H1105 0.951 . S
C1074 C1073 1.340 . S
C1074 C1075 1.439 . S
C1074 H1106 0.950 . S
C1075 N1071 1.374 . S
C1075 C1074 1.439 . S
C1075 C1100 1.395 . S
N1076 Co1065 1.995 . S
N1076 C1077 1.376 . S
N1076 C1080 1.383 . S
C1077 N1076 1.376 . S
C1077 C1078 1.446 . S
C1077 C1100 1.391 . S
C1078 C1077 1.446 . S
C1078 C1079 1.339 . S
C1078 H1107 0.949 . S
C1079 C1078 1.339 . S
C1079 C1080 1.439 . S
C1079 H1108 0.950 . S
C1080 N1076 1.383 . S
C1080 C1079 1.439 . S
C1080 C1098 1.392 1_455 S
N1081 Co1065 2.282 1_545 S
N1081 C1084 1.332 1_545 S
N1081 C1086 1.332 . S
C1082 C1083 1.386 . S
C1082 C1085 1.388 . S
C1083 C1082 1.386 . S
C1083 C1084 1.382 1_545 S
C1083 H1109 0.951 1_545 S
C1084 N1081 1.332 1_565 S
C1084 C1083 1.382 1_565 S
C1084 H1095 0.952 . S
C1085 C1082 1.388 . S
C1085 C1086 1.382 . S
C1085 H1110 0.950 . S
C1086 N1081 1.332 . S
C1086 C1085 1.382 . S
C1086 H1096 0.948 . S
N1087 Co1065 2.282 1_655 S
N1087 C1091 1.332 . S
N1087 C1092 1.332 . S
C1088 C1089 1.388 . S
C1088 C1092 1.382 . S
C1088 H1111 0.950 . S
C1089 C1088 1.388 . S
C1089 C1090 1.386 . S
C1090 C1089 1.386 . S
C1090 C1091 1.382 . S
C1090 H1112 0.950 . S
C1091 N1087 1.332 . S
C1091 C1090 1.382 . S
C1091 H1093 0.952 . S
C1092 N1087 1.332 . S
C1092 C1088 1.382 . S
C1092 H1094 0.948 . S
H1093 C1091 0.952 . S
H1094 C1092 0.948 . S
H1095 C1084 0.952 . S
H1096 C1086 0.948 . S
C1097 C1063 1.395 . S
C1097 C1067 1.391 . S
C1098 C1060 1.389 . S
C1098 C1080 1.392 1_655 S
C1099 C1070 1.392 1_455 S
C1099 C1072 1.389 1_545 S
C1100 C1075 1.395 . S
C1100 C1077 1.391 . S
H1101 C1061 0.951 . S
H1102 C1062 0.950 . S
H1103 C1068 0.949 . S
H1104 C1069 0.950 . S
H1105 C1073 0.951 . S
H1106 C1074 0.950 . S
H1107 C1078 0.949 . S
H1108 C1079 0.950 . S
H1109 C1083 0.951 1_565 S
H1110 C1085 0.950 . S
H1111 C1088 0.950 . S
H1112 C1090 0.950 . S
C1113 C1114 1.443 . S
C1113 N1117 1.376 . S
C1113 C1151 1.389 . S
C1114 C1113 1.443 . S
C1114 C1115 1.340 . S
C1114 H1154 0.951 . S
C1115 C1114 1.340 . S
C1115 C1116 1.439 . S
C1115 H1155 0.950 . S
C1116 C1115 1.439 . S
C1116 N1117 1.374 . S
C1116 C1150 1.395 . S
N1117 C1113 1.376 . S
N1117 C1116 1.374 . S
N1117 Co1118 2.008 . S
Co1118 N1117 2.008 . S
Co1118 N1119 1.995 . S
Co1118 N1124 2.008 . S
Co1118 N1129 1.995 . S
Co1118 N1134 2.282 . S
Co1118 N1140 2.282 . S
N1119 Co1118 1.995 . S
N1119 C1120 1.376 . S
N1119 C1123 1.383 . S
C1120 N1119 1.376 . S
C1120 C1121 1.446 . S
C1120 C1150 1.391 . S
C1121 C1120 1.446 . S
C1121 C1122 1.339 . S
C1121 H1156 0.949 . S
C1122 C1121 1.339 . S
C1122 C1123 1.439 . S
C1122 H1157 0.950 . S
C1123 N1119 1.383 . S
C1123 C1122 1.439 . S
C1123 C1152 1.392 . S
N1124 Co1118 2.008 . S
N1124 C1125 1.376 . S
N1124 C1128 1.374 . S
C1125 N1124 1.376 . S
C1125 C1126 1.443 . S
C1125 C1152 1.389 . S
C1126 C1125 1.443 . S
C1126 C1127 1.340 . S
C1126 H1158 0.951 . S
C1127 C1126 1.340 . S
C1127 C1128 1.439 . S
C1127 H1159 0.950 . S
C1128 N1124 1.374 . S
C1128 C1127 1.439 . S
C1128 C1153 1.395 . S
N1129 Co1118 1.995 . S
N1129 C1130 1.376 . S
N1129 C1133 1.383 . S
C1130 N1129 1.376 . S
C1130 C1131 1.446 . S
C1130 C1153 1.391 . S
C1131 C1130 1.446 . S
C1131 C1132 1.339 . S
C1131 H1160 0.949 . S
C1132 C1131 1.339 . S
C1132 C1133 1.439 . S
C1132 H1161 0.950 . S
C1133 N1129 1.383 . S
C1133 C1132 1.439 . S
C1133 C1151 1.392 . S
N1134 Co1118 2.282 . S
N1134 C1137 1.332 . S
N1134 C1139 1.332 . S
C1135 C1136 1.386 . S
C1135 C1138 1.388 . S
C1136 C1135 1.386 . S
C1136 C1137 1.382 . S
C1136 H1162 0.950 . S
C1137 N1134 1.332 . S
C1137 C1136 1.382 . S
C1137 H1148 0.952 . S
C1138 C1135 1.388 . S
C1138 C1139 1.382 . S
C1138 H1163 0.950 . S
C1139 N1134 1.332 . S
C1139 C1138 1.382 . S
C1139 H1149 0.948 . S
N1140 Co1118 2.282 . S
N1140 C1144 1.332 . S
N1140 C1145 1.332 . S
C1141 C1142 1.388 . S
C1141 C1145 1.382 . S
C1141 H1164 0.950 . S
C1142 C1141 1.388 . S
C1142 C1143 1.386 . S
C1143 C1142 1.386 . S
C1143 C1144 1.382 . S
C1143 H1165 0.950 . S
C1144 N1140 1.332 . S
C1144 C1143 1.382 . S
C1144 H1146 0.952 . S
C1145 N1140 1.332 . S
C1145 C1141 1.382 . S
C1145 H1147 0.948 . S
H1146 C1144 0.952 . S
H1147 C1145 0.948 . S
H1148 C1137 0.952 . S
H1149 C1139 0.948 . S
C1150 C1116 1.395 . S
C1150 C1120 1.391 . S
C1151 C1113 1.389 . S
C1151 C1133 1.392 . S
C1152 C1123 1.392 . S
C1152 C1125 1.389 . S
C1153 C1128 1.395 . S
C1153 C1130 1.391 . S
H1154 C1114 0.951 . S
H1155 C1115 0.950 . S
H1156 C1121 0.949 . S
H1157 C1122 0.950 . S
H1158 C1126 0.951 . S
H1159 C1127 0.950 . S
H1160 C1131 0.949 . S
H1161 C1132 0.950 . S
H1162 C1136 0.950 . S
H1163 C1138 0.950 . S
H1164 C1141 0.950 . S
H1165 C1143 0.950 . S
C1166 C1167 1.443 . S
C1166 N1170 1.376 . S
C1166 C1204 1.389 . S
C1167 C1166 1.443 . S
C1167 C1168 1.340 . S
C1167 H1207 0.951 . S
C1168 C1167 1.340 . S
C1168 C1169 1.439 . S
C1168 H1208 0.950 . S
C1169 C1168 1.439 . S
C1169 N1170 1.374 . S
C1169 C1203 1.395 . S
N1170 C1166 1.376 . S
N1170 C1169 1.374 . S
N1170 Co1171 2.008 1_655 S
Co1171 N1170 2.008 1_455 S
Co1171 N1172 1.995 1_455 S
Co1171 N1177 2.008 . S
Co1171 N1182 1.995 . S
Co1171 N1187 2.282 . S
Co1171 N1193 2.282 1_455 S
N1172 Co1171 1.995 1_655 S
N1172 C1173 1.376 . S
N1172 C1176 1.383 . S
C1173 N1172 1.376 . S
C1173 C1174 1.446 . S
C1173 C1203 1.391 . S
C1174 C1173 1.446 . S
C1174 C1175 1.339 . S
C1174 H1209 0.949 . S
C1175 C1174 1.339 . S
C1175 C1176 1.439 . S
C1175 H1210 0.950 . S
C1176 N1172 1.383 . S
C1176 C1175 1.439 . S
C1176 C1205 1.392 1_655 S
N1177 Co1171 2.008 . S
N1177 C1178 1.376 . S
N1177 C1181 1.374 . S
C1178 N1177 1.376 . S
C1178 C1179 1.443 . S
C1178 C1205 1.389 . S
C1179 C1178 1.443 . S
C1179 C1180 1.340 . S
C1179 H1211 0.951 . S
C1180 C1179 1.340 . S
C1180 C1181 1.439 . S
C1180 H1212 0.950 . S
C1181 N1177 1.374 . S
C1181 C1180 1.439 . S
C1181 C1206 1.395 . S
N1182 Co1171 1.995 . S
N1182 C1183 1.376 . S
N1182 C1186 1.383 . S
C1183 N1182 1.376 . S
C1183 C1184 1.446 . S
C1183 C1206 1.391 . S
C1184 C1183 1.446 . S
C1184 C1185 1.339 . S
C1184 H1213 0.949 . S
C1185 C1184 1.339 . S
C1185 C1186 1.439 . S
C1185 H1214 0.950 . S
C1186 N1182 1.383 . S
C1186 C1185 1.439 . S
C1186 C1204 1.392 1_455 S
N1187 Co1171 2.282 . S
N1187 C1190 1.332 . S
N1187 C1192 1.332 . S
C1188 C1189 1.386 . S
C1188 C1191 1.388 . S
C1189 C1188 1.386 . S
C1189 C1190 1.382 . S
C1189 H1215 0.950 . S
C1190 N1187 1.332 . S
C1190 C1189 1.382 . S
C1190 H1201 0.952 . S
C1191 C1188 1.388 . S
C1191 C1192 1.382 . S
C1191 H1216 0.950 . S
C1192 N1187 1.332 . S
C1192 C1191 1.382 . S
C1192 H1202 0.948 . S
N1193 Co1171 2.282 1_655 S
N1193 C1197 1.332 . S
N1193 C1198 1.332 . S
C1194 C1195 1.388 . S
C1194 C1198 1.382 . S
C1194 H1217 0.950 . S
C1195 C1194 1.388 . S
C1195 C1196 1.386 . S
C1196 C1195 1.386 . S
C1196 C1197 1.382 . S
C1196 H1218 0.950 . S
C1197 N1193 1.332 . S
C1197 C1196 1.382 . S
C1197 H1199 0.952 . S
C1198 N1193 1.332 . S
C1198 C1194 1.382 . S
C1198 H1200 0.948 . S
H1199 C1197 0.952 . S
H1200 C1198 0.948 . S
H1201 C1190 0.952 . S
H1202 C1192 0.948 . S
C1203 C1169 1.395 . S
C1203 C1173 1.391 . S
C1204 C1166 1.389 . S
C1204 C1186 1.392 1_655 S
C1205 C1176 1.392 1_455 S
C1205 C1178 1.389 . S
C1206 C1181 1.395 . S
C1206 C1183 1.391 . S
H1207 C1167 0.951 . S
H1208 C1168 0.950 . S
H1209 C1174 0.949 . S
H1210 C1175 0.950 . S
H1211 C1179 0.951 . S
H1212 C1180 0.950 . S
H1213 C1184 0.949 . S
H1214 C1185 0.950 . S
H1215 C1189 0.950 . S
H1216 C1191 0.950 . S
H1217 C1194 0.950 . S
H1218 C1196 0.950 . S
C1219 C1220 1.443 1_565 S
C1219 N1223 1.375 1_565 S
C1219 C1257 1.389 . S
C1220 C1219 1.443 1_545 S
C1220 C1221 1.340 . S
C1220 H1260 0.951 1_545 S
C1221 C1220 1.340 . S
C1221 C1222 1.439 . S
C1221 H1261 0.950 . S
C1222 C1221 1.439 . S
C1222 N1223 1.376 . S
C1222 C1256 1.395 . S
N1223 C1219 1.375 1_545 S
N1223 C1222 1.376 . S
N1223 Co1224 2.007 1_545 S
Co1224 N1223 2.007 1_565 S
Co1224 N1225 1.995 1_565 S
Co1224 N1230 2.008 . S
Co1224 N1235 1.995 . S
Co1224 N1240 2.282 1_565 S
Co1224 N1246 2.282 . S
N1225 Co1224 1.995 1_545 S
N1225 C1226 1.376 . S
N1225 C1229 1.383 . S
C1226 N1225 1.376 . S
C1226 C1227 1.446 . S
C1226 C1256 1.391 . S
C1227 C1226 1.446 . S
C1227 C1228 1.339 . S
C1227 H1262 0.949 . S
C1228 C1227 1.339 . S
C1228 C1229 1.439 . S
C1228 H1263 0.950 . S
C1229 N1225 1.383 . S
C1229 C1228 1.439 . S
C1229 C1258 1.392 . S
N1230 Co1224 2.008 . S
N1230 C1231 1.376 . S
N1230 C1234 1.374 . S
C1231 N1230 1.376 . S
C1231 C1232 1.443 . S
C1231 C1258 1.389 1_565 S
C1232 C1231 1.443 . S
C1232 C1233 1.340 . S
C1232 H1264 0.951 . S
C1233 C1232 1.340 . S
C1233 C1234 1.439 . S
C1233 H1265 0.950 . S
C1234 N1230 1.374 . S
C1234 C1233 1.439 . S
C1234 C1259 1.395 . S
N1235 Co1224 1.995 . S
N1235 C1236 1.376 . S
N1235 C1239 1.383 . S
C1236 N1235 1.376 . S
C1236 C1237 1.446 . S
C1236 C1259 1.391 . S
C1237 C1236 1.446 . S
C1237 C1238 1.339 . S
C1237 H1266 0.949 . S
C1238 C1237 1.339 . S
C1238 C1239 1.439 . S
C1238 H1267 0.950 . S
C1239 N1235 1.383 . S
C1239 C1238 1.439 . S
C1239 C1257 1.392 . S
N1240 Co1224 2.282 1_545 S
N1240 C1243 1.332 1_545 S
N1240 C1245 1.332 . S
C1241 C1242 1.386 . S
C1241 C1244 1.388 . S
C1242 C1241 1.386 . S
C1242 C1243 1.382 1_545 S
C1242 H1268 0.950 . S
C1243 N1240 1.332 1_565 S
C1243 C1242 1.382 1_565 S
C1243 H1254 0.952 . S
C1244 C1241 1.388 . S
C1244 C1245 1.382 . S
C1244 H1269 0.950 . S
C1245 N1240 1.332 . S
C1245 C1244 1.382 . S
C1245 H1255 0.948 . S
N1246 Co1224 2.282 . S
N1246 C1250 1.332 . S
N1246 C1251 1.332 . S
C1247 C1248 1.388 . S
C1247 C1251 1.382 . S
C1247 H1270 0.950 . S
C1248 C1247 1.388 . S
C1248 C1249 1.386 . S
C1249 C1248 1.386 . S
C1249 C1250 1.382 . S
C1249 H1271 0.950 . S
C1250 N1246 1.332 . S
C1250 C1249 1.382 . S
C1250 H1252 0.952 . S
C1251 N1246 1.332 . S
C1251 C1247 1.382 . S
C1251 H1253 0.948 . S
H1252 C1250 0.952 . S
H1253 C1251 0.948 . S
H1254 C1243 0.952 . S
H1255 C1245 0.948 . S
C1256 C1222 1.395 . S
C1256 C1226 1.391 . S
C1257 C1219 1.389 . S
C1257 C1239 1.392 . S
C1258 C1229 1.392 . S
C1258 C1231 1.389 1_545 S
C1259 C1234 1.395 . S
C1259 C1236 1.391 . S
H1260 C1220 0.951 1_565 S
H1261 C1221 0.950 . S
H1262 C1227 0.949 . S
H1263 C1228 0.950 . S
H1264 C1232 0.951 . S
H1265 C1233 0.950 . S
H1266 C1237 0.949 . S
H1267 C1238 0.950 . S
H1268 C1242 0.950 . S
H1269 C1244 0.950 . S
H1270 C1247 0.950 . S
H1271 C1249 0.950 . S
C1272 C1273 1.443 . S
C1272 N1276 1.376 . S
C1272 C1310 1.389 1_655 S
C1273 C1272 1.443 . S
C1273 C1274 1.340 . S
C1273 H1313 0.951 . S
C1274 C1273 1.340 . S
C1274 C1275 1.439 . S
C1274 H1314 0.950 . S
C1275 C1274 1.439 . S
C1275 N1276 1.374 . S
C1275 C1309 1.395 . S
N1276 C1272 1.376 . S
N1276 C1275 1.374 . S
N1276 Co1277 2.008 . S
Co1277 N1276 2.008 . S
Co1277 N1278 1.995 . S
Co1277 N1283 2.008 1_655 S
Co1277 N1288 1.995 1_655 S
Co1277 N1293 2.282 . S
Co1277 N1299 2.282 1_655 S
N1278 Co1277 1.995 . S
N1278 C1279 1.376 . S
N1278 C1282 1.383 . S
C1279 N1278 1.376 . S
C1279 C1280 1.446 . S
C1279 C1309 1.391 . S
C1280 C1279 1.446 . S
C1280 C1281 1.339 . S
C1280 H1315 0.949 . S
C1281 C1280 1.339 . S
C1281 C1282 1.439 . S
C1281 H1316 0.950 . S
C1282 N1278 1.383 . S
C1282 C1281 1.439 . S
C1282 C1311 1.392 . S
N1283 Co1277 2.008 1_455 S
N1283 C1284 1.376 . S
N1283 C1287 1.374 . S
C1284 N1283 1.376 . S
C1284 C1285 1.443 . S
C1284 C1311 1.389 1_455 S
C1285 C1284 1.443 . S
C1285 C1286 1.340 . S
C1285 H1317 0.951 . S
C1286 C1285 1.340 . S
C1286 C1287 1.439 . S
C1286 H1318 0.950 . S
C1287 N1283 1.374 . S
C1287 C1286 1.439 . S
C1287 C1312 1.395 . S
N1288 Co1277 1.995 1_455 S
N1288 C1289 1.376 . S
N1288 C1292 1.383 . S
C1289 N1288 1.376 . S
C1289 C1290 1.446 . S
C1289 C1312 1.391 . S
C1290 C1289 1.446 . S
C1290 C1291 1.339 . S
C1290 H1319 0.949 . S
C1291 C1290 1.339 . S
C1291 C1292 1.439 . S
C1291 H1320 0.950 . S
C1292 N1288 1.383 . S
C1292 C1291 1.439 . S
C1292 C1310 1.392 . S
N1293 Co1277 2.282 . S
N1293 C1296 1.332 . S
N1293 C1298 1.332 . S
C1294 C1295 1.386 . S
C1294 C1297 1.388 . S
C1295 C1294 1.386 . S
C1295 C1296 1.382 . S
C1295 H1321 0.950 . S
C1296 N1293 1.332 . S
C1296 C1295 1.382 . S
C1296 H1307 0.952 . S
C1297 C1294 1.388 . S
C1297 C1298 1.382 . S
C1297 H1322 0.950 . S
C1298 N1293 1.332 . S
C1298 C1297 1.382 . S
C1298 H1308 0.948 . S
N1299 Co1277 2.282 1_455 S
N1299 C1303 1.332 . S
N1299 C1304 1.332 . S
C1300 C1301 1.388 . S
C1300 C1304 1.382 . S
C1300 H1323 0.950 . S
C1301 C1300 1.388 . S
C1301 C1302 1.386 . S
C1302 C1301 1.386 . S
C1302 C1303 1.382 . S
C1302 H1324 0.950 . S
C1303 N1299 1.332 . S
C1303 C1302 1.382 . S
C1303 H1305 0.952 . S
C1304 N1299 1.332 . S
C1304 C1300 1.382 . S
C1304 H1306 0.948 . S
H1305 C1303 0.952 . S
H1306 C1304 0.948 . S
H1307 C1296 0.952 . S
H1308 C1298 0.948 . S
C1309 C1275 1.395 . S
C1309 C1279 1.391 . S
C1310 C1272 1.389 1_455 S
C1310 C1292 1.392 . S
C1311 C1282 1.392 . S
C1311 C1284 1.389 1_655 S
C1312 C1287 1.395 . S
C1312 C1289 1.391 . S
H1313 C1273 0.951 . S
H1314 C1274 0.950 . S
H1315 C1280 0.949 . S
H1316 C1281 0.950 . S
H1317 C1285 0.951 . S
H1318 C1286 0.950 . S
H1319 C1290 0.949 . S
H1320 C1291 0.950 . S
H1321 C1295 0.950 . S
H1322 C1297 0.950 . S
H1323 C1300 0.950 . S
H1324 C1302 0.950 . S
C1325 C1326 1.443 . S
C1325 N1329 1.376 . S
C1325 C1363 1.389 . S
C1326 C1325 1.443 . S
C1326 C1327 1.340 . S
C1326 H1366 0.951 . S
C1327 C1326 1.340 . S
C1327 C1328 1.439 . S
C1327 H1367 0.950 . S
C1328 C1327 1.439 . S
C1328 N1329 1.374 . S
C1328 C1362 1.395 . S
N1329 C1325 1.376 . S
N1329 C1328 1.374 . S
N1329 Co1330 2.008 . S
Co1330 N1329 2.008 . S
Co1330 N1331 1.995 . S
Co1330 N1336 2.008 . S
Co1330 N1341 1.995 . S
Co1330 N1346 2.282 . S
Co1330 N1352 2.282 . S
N1331 Co1330 1.995 . S
N1331 C1332 1.376 . S
N1331 C1335 1.383 . S
C1332 N1331 1.376 . S
C1332 C1333 1.446 . S
C1332 C1362 1.391 . S
C1333 C1332 1.446 . S
C1333 C1334 1.339 . S
C1333 H1368 0.949 . S
C1334 C1333 1.339 . S
C1334 C1335 1.439 . S
C1334 H1369 0.950 . S
C1335 N1331 1.383 . S
C1335 C1334 1.439 . S
C1335 C1364 1.392 . S
N1336 Co1330 2.008 . S
N1336 C1337 1.376 . S
N1336 C1340 1.374 . S
C1337 N1336 1.376 . S
C1337 C1338 1.443 . S
C1337 C1364 1.389 . S
C1338 C1337 1.443 . S
C1338 C1339 1.340 . S
C1338 H1370 0.951 . S
C1339 C1338 1.340 . S
C1339 C1340 1.439 . S
C1339 H1371 0.950 . S
C1340 N1336 1.374 . S
C1340 C1339 1.439 . S
C1340 C1365 1.395 . S
N1341 Co1330 1.995 . S
N1341 C1342 1.376 . S
N1341 C1345 1.383 . S
C1342 N1341 1.376 . S
C1342 C1343 1.446 . S
C1342 C1365 1.391 . S
C1343 C1342 1.446 . S
C1343 C1344 1.339 . S
C1343 H1372 0.949 . S
C1344 C1343 1.339 . S
C1344 C1345 1.439 . S
C1344 H1373 0.950 . S
C1345 N1341 1.383 . S
C1345 C1344 1.439 . S
C1345 C1363 1.392 . S
N1346 Co1330 2.282 . S
N1346 C1349 1.332 . S
N1346 C1351 1.332 . S
C1347 C1348 1.386 . S
C1347 C1350 1.388 . S
C1348 C1347 1.386 . S
C1348 C1349 1.382 . S
C1348 H1374 0.950 . S
C1349 N1346 1.332 . S
C1349 C1348 1.382 . S
C1349 H1360 0.952 . S
C1350 C1347 1.388 . S
C1350 C1351 1.382 . S
C1350 H1375 0.950 . S
C1351 N1346 1.332 . S
C1351 C1350 1.382 . S
C1351 H1361 0.948 . S
N1352 Co1330 2.282 . S
N1352 C1356 1.332 . S
N1352 C1357 1.332 . S
C1353 C1354 1.388 . S
C1353 C1357 1.382 . S
C1353 H1376 0.950 . S
C1354 C1353 1.388 . S
C1354 C1355 1.386 . S
C1355 C1354 1.386 . S
C1355 C1356 1.382 . S
C1355 H1377 0.950 . S
C1356 N1352 1.332 . S
C1356 C1355 1.382 . S
C1356 H1358 0.952 . S
C1357 N1352 1.332 . S
C1357 C1353 1.382 . S
C1357 H1359 0.948 . S
H1358 C1356 0.952 . S
H1359 C1357 0.948 . S
H1360 C1349 0.952 . S
H1361 C1351 0.948 . S
C1362 C1328 1.395 . S
C1362 C1332 1.391 . S
C1363 C1325 1.389 . S
C1363 C1345 1.392 . S
C1364 C1335 1.392 . S
C1364 C1337 1.389 . S
C1365 C1340 1.395 . S
C1365 C1342 1.391 . S
H1366 C1326 0.951 . S
H1367 C1327 0.950 . S
H1368 C1333 0.949 . S
H1369 C1334 0.950 . S
H1370 C1338 0.951 . S
H1371 C1339 0.950 . S
H1372 C1343 0.949 . S
H1373 C1344 0.950 . S
H1374 C1348 0.950 . S
H1375 C1350 0.950 . S
H1376 C1353 0.950 . S
H1377 C1355 0.950 . S
C1378 C1379 1.443 . S
C1378 N1382 1.376 . S
C1378 C1416 1.389 1_655 S
C1379 C1378 1.443 . S
C1379 C1380 1.340 . S
C1379 H1419 0.951 . S
C1380 C1379 1.340 . S
C1380 C1381 1.439 . S
C1380 H1420 0.950 . S
C1381 C1380 1.439 . S
C1381 N1382 1.374 . S
C1381 C1415 1.395 . S
N1382 C1378 1.376 . S
N1382 C1381 1.374 . S
N1382 Co1383 2.008 . S
Co1383 N1382 2.008 . S
Co1383 N1384 1.995 . S
Co1383 N1389 2.008 1_655 S
Co1383 N1394 1.995 1_655 S
Co1383 N1399 2.282 . S
Co1383 N1405 2.282 1_655 S
N1384 Co1383 1.995 . S
N1384 C1385 1.376 . S
N1384 C1388 1.383 . S
C1385 N1384 1.376 . S
C1385 C1386 1.446 . S
C1385 C1415 1.391 . S
C1386 C1385 1.446 . S
C1386 C1387 1.339 . S
C1386 H1421 0.949 . S
C1387 C1386 1.339 . S
C1387 C1388 1.439 . S
C1387 H1422 0.950 . S
C1388 N1384 1.383 . S
C1388 C1387 1.439 . S
C1388 C1417 1.392 . S
N1389 Co1383 2.008 1_455 S
N1389 C1390 1.376 . S
N1389 C1393 1.374 . S
C1390 N1389 1.376 . S
C1390 C1391 1.443 . S
C1390 C1417 1.389 1_455 S
C1391 C1390 1.443 . S
C1391 C1392 1.340 . S
C1391 H1423 0.951 . S
C1392 C1391 1.340 . S
C1392 C1393 1.439 . S
C1392 H1424 0.950 . S
C1393 N1389 1.374 . S
C1393 C1392 1.439 . S
C1393 C1418 1.395 . S
N1394 Co1383 1.995 1_455 S
N1394 C1395 1.376 . S
N1394 C1398 1.383 . S
C1395 N1394 1.376 . S
C1395 C1396 1.446 . S
C1395 C1418 1.391 . S
C1396 C1395 1.446 . S
C1396 C1397 1.339 . S
C1396 H1425 0.949 . S
C1397 C1396 1.339 . S
C1397 C1398 1.439 . S
C1397 H1426 0.950 . S
C1398 N1394 1.383 . S
C1398 C1397 1.439 . S
C1398 C1416 1.392 . S
N1399 Co1383 2.282 . S
N1399 C1402 1.332 . S
N1399 C1404 1.332 . S
C1400 C1401 1.386 . S
C1400 C1403 1.388 . S
C1401 C1400 1.386 . S
C1401 C1402 1.382 . S
C1401 H1427 0.950 . S
C1402 N1399 1.332 . S
C1402 C1401 1.382 . S
C1402 H1413 0.952 . S
C1403 C1400 1.388 . S
C1403 C1404 1.382 . S
C1403 H1428 0.950 . S
C1404 N1399 1.332 . S
C1404 C1403 1.382 . S
C1404 H1414 0.948 . S
N1405 Co1383 2.282 1_455 S
N1405 C1409 1.332 . S
N1405 C1410 1.332 . S
C1406 C1407 1.388 . S
C1406 C1410 1.382 . S
C1406 H1429 0.950 . S
C1407 C1406 1.388 . S
C1407 C1408 1.386 . S
C1408 C1407 1.386 . S
C1408 C1409 1.382 . S
C1408 H1430 0.950 . S
C1409 N1405 1.332 . S
C1409 C1408 1.382 . S
C1409 H1411 0.952 . S
C1410 N1405 1.332 . S
C1410 C1406 1.382 . S
C1410 H1412 0.948 . S
H1411 C1409 0.952 . S
H1412 C1410 0.948 . S
H1413 C1402 0.952 . S
H1414 C1404 0.948 . S
C1415 C1381 1.395 . S
C1415 C1385 1.391 . S
C1416 C1378 1.389 1_455 S
C1416 C1398 1.392 . S
C1417 C1388 1.392 . S
C1417 C1390 1.389 1_655 S
C1418 C1393 1.395 . S
C1418 C1395 1.391 . S
H1419 C1379 0.951 . S
H1420 C1380 0.950 . S
H1421 C1386 0.949 . S
H1422 C1387 0.950 . S
H1423 C1391 0.951 . S
H1424 C1392 0.950 . S
H1425 C1396 0.949 . S
H1426 C1397 0.950 . S
H1427 C1401 0.950 . S
H1428 C1403 0.950 . S
H1429 C1406 0.950 . S
H1430 C1408 0.950 . S
C1431 C1432 1.443 . S
C1431 N1435 1.376 . S
C1431 C1469 1.389 . S
C1432 C1431 1.443 . S
C1432 C1433 1.340 . S
C1432 H1472 0.951 . S
C1433 C1432 1.340 . S
C1433 C1434 1.439 . S
C1433 H1473 0.950 . S
C1434 C1433 1.439 . S
C1434 N1435 1.374 . S
C1434 C1468 1.395 . S
N1435 C1431 1.376 . S
N1435 C1434 1.374 . S
N1435 Co1436 2.008 . S
Co1436 N1435 2.008 . S
Co1436 N1437 1.995 . S
Co1436 N1442 2.008 . S
Co1436 N1447 1.995 . S
Co1436 N1452 2.282 . S
Co1436 N1458 2.282 . S
N1437 Co1436 1.995 . S
N1437 C1438 1.376 . S
N1437 C1441 1.383 . S
C1438 N1437 1.376 . S
C1438 C1439 1.446 . S
C1438 C1468 1.391 . S
C1439 C1438 1.446 . S
C1439 C1440 1.339 . S
C1439 H1474 0.949 . S
C1440 C1439 1.339 . S
C1440 C1441 1.439 . S
C1440 H1475 0.950 . S
C1441 N1437 1.383 . S
C1441 C1440 1.439 . S
C1441 C1470 1.392 . S
N1442 Co1436 2.008 . S
N1442 C1443 1.376 . S
N1442 C1446 1.374 . S
C1443 N1442 1.376 . S
C1443 C1444 1.443 . S
C1443 C1470 1.389 . S
C1444 C1443 1.443 . S
C1444 C1445 1.340 . S
C1444 H1476 0.951 . S
C1445 C1444 1.340 . S
C1445 C1446 1.439 . S
C1445 H1477 0.950 . S
C1446 N1442 1.374 . S
C1446 C1445 1.439 . S
C1446 C1471 1.395 . S
N1447 Co1436 1.995 . S
N1447 C1448 1.376 . S
N1447 C1451 1.383 . S
C1448 N1447 1.376 . S
C1448 C1449 1.446 . S
C1448 C1471 1.391 . S
C1449 C1448 1.446 . S
C1449 C1450 1.339 . S
C1449 H1478 0.949 . S
C1450 C1449 1.339 . S
C1450 C1451 1.439 . S
C1450 H1479 0.950 . S
C1451 N1447 1.383 . S
C1451 C1450 1.439 . S
C1451 C1469 1.392 . S
N1452 Co1436 2.282 . S
N1452 C1455 1.332 . S
N1452 C1457 1.332 . S
C1453 C1454 1.386 . S
C1453 C1456 1.388 . S
C1454 C1453 1.386 . S
C1454 C1455 1.382 . S
C1454 H1480 0.950 . S
C1455 N1452 1.332 . S
C1455 C1454 1.382 . S
C1455 H1466 0.952 . S
C1456 C1453 1.388 . S
C1456 C1457 1.382 . S
C1456 H1481 0.950 . S
C1457 N1452 1.332 . S
C1457 C1456 1.382 . S
C1457 H1467 0.948 . S
N1458 Co1436 2.282 . S
N1458 C1462 1.332 . S
N1458 C1463 1.332 . S
C1459 C1460 1.388 . S
C1459 C1463 1.382 . S
C1459 H1482 0.950 . S
C1460 C1459 1.388 . S
C1460 C1461 1.386 . S
C1461 C1460 1.386 . S
C1461 C1462 1.382 . S
C1461 H1483 0.950 . S
C1462 N1458 1.332 . S
C1462 C1461 1.382 . S
C1462 H1464 0.952 . S
C1463 N1458 1.332 . S
C1463 C1459 1.382 . S
C1463 H1465 0.948 . S
H1464 C1462 0.952 . S
H1465 C1463 0.948 . S
H1466 C1455 0.952 . S
H1467 C1457 0.948 . S
C1468 C1434 1.395 . S
C1468 C1438 1.391 . S
C1469 C1431 1.389 . S
C1469 C1451 1.392 . S
C1470 C1441 1.392 . S
C1470 C1443 1.389 . S
C1471 C1446 1.395 . S
C1471 C1448 1.391 . S
H1472 C1432 0.951 . S
H1473 C1433 0.950 . S
H1474 C1439 0.949 . S
H1475 C1440 0.950 . S
H1476 C1444 0.951 . S
H1477 C1445 0.950 . S
H1478 C1449 0.949 . S
H1479 C1450 0.950 . S
H1480 C1454 0.950 . S
H1481 C1456 0.950 . S
H1482 C1459 0.950 . S
H1483 C1461 0.950 . S
C1484 C1485 1.443 . S
C1484 N1488 1.376 . S
C1484 C1522 1.389 . S
C1485 C1484 1.443 . S
C1485 C1486 1.340 . S
C1485 H1525 0.951 . S
C1486 C1485 1.340 . S
C1486 C1487 1.439 . S
C1486 H1526 0.950 . S
C1487 C1486 1.439 . S
C1487 N1488 1.374 . S
C1487 C1521 1.395 . S
N1488 C1484 1.376 . S
N1488 C1487 1.374 . S
N1488 Co1489 2.008 1_655 S
Co1489 N1488 2.008 1_455 S
Co1489 N1490 1.995 1_455 S
Co1489 N1495 2.008 . S
Co1489 N1500 1.995 . S
Co1489 N1505 2.282 . S
Co1489 N1511 2.282 1_455 S
N1490 Co1489 1.995 1_655 S
N1490 C1491 1.376 . S
N1490 C1494 1.383 . S
C1491 N1490 1.376 . S
C1491 C1492 1.446 . S
C1491 C1521 1.391 . S
C1492 C1491 1.446 . S
C1492 C1493 1.339 . S
C1492 H1527 0.949 . S
C1493 C1492 1.339 . S
C1493 C1494 1.439 . S
C1493 H1528 0.950 . S
C1494 N1490 1.383 . S
C1494 C1493 1.439 . S
C1494 C1523 1.392 1_655 S
N1495 Co1489 2.008 . S
N1495 C1496 1.376 . S
N1495 C1499 1.374 . S
C1496 N1495 1.376 . S
C1496 C1497 1.443 . S
C1496 C1523 1.389 . S
C1497 C1496 1.443 . S
C1497 C1498 1.340 . S
C1497 H1529 0.951 . S
C1498 C1497 1.340 . S
C1498 C1499 1.439 . S
C1498 H1530 0.950 . S
C1499 N1495 1.374 . S
C1499 C1498 1.439 . S
C1499 C1524 1.395 . S
N1500 Co1489 1.995 . S
N1500 C1501 1.376 . S
N1500 C1504 1.383 . S
C1501 N1500 1.376 . S
C1501 C1502 1.446 . S
C1501 C1524 1.391 . S
C1502 C1501 1.446 . S
C1502 C1503 1.339 . S
C1502 H1531 0.949 . S
C1503 C1502 1.339 . S
C1503 C1504 1.439 . S
C1503 H1532 0.950 . S
C1504 N1500 1.383 . S
C1504 C1503 1.439 . S
C1504 C1522 1.392 1_455 S
N1505 Co1489 2.282 . S
N1505 C1508 1.332 . S
N1505 C1510 1.332 . S
C1506 C1507 1.386 . S
C1506 C1509 1.388 . S
C1507 C1506 1.386 . S
C1507 C1508 1.382 . S
C1507 H1533 0.950 . S
C1508 N1505 1.332 . S
C1508 C1507 1.382 . S
C1508 H1519 0.952 . S
C1509 C1506 1.388 . S
C1509 C1510 1.382 . S
C1509 H1534 0.950 . S
C1510 N1505 1.332 . S
C1510 C1509 1.382 . S
C1510 H1520 0.948 . S
N1511 Co1489 2.282 1_655 S
N1511 C1515 1.332 . S
N1511 C1516 1.332 . S
C1512 C1513 1.388 . S
C1512 C1516 1.382 . S
C1512 H1535 0.950 . S
C1513 C1512 1.388 . S
C1513 C1514 1.386 . S
C1514 C1513 1.386 . S
C1514 C1515 1.382 . S
C1514 H1536 0.950 . S
C1515 N1511 1.332 . S
C1515 C1514 1.382 . S
C1515 H1517 0.952 . S
C1516 N1511 1.332 . S
C1516 C1512 1.382 . S
C1516 H1518 0.948 . S
H1517 C1515 0.952 . S
H1518 C1516 0.948 . S
H1519 C1508 0.952 . S
H1520 C1510 0.948 . S
C1521 C1487 1.395 . S
C1521 C1491 1.391 . S
C1522 C1484 1.389 . S
C1522 C1504 1.392 1_655 S
C1523 C1494 1.392 1_455 S
C1523 C1496 1.389 . S
C1524 C1499 1.395 . S
C1524 C1501 1.391 . S
H1525 C1485 0.951 . S
H1526 C1486 0.950 . S
H1527 C1492 0.949 . S
H1528 C1493 0.950 . S
H1529 C1497 0.951 . S
H1530 C1498 0.950 . S
H1531 C1502 0.949 . S
H1532 C1503 0.950 . S
H1533 C1507 0.950 . S
H1534 C1509 0.950 . S
H1535 C1512 0.950 . S
H1536 C1514 0.950 . S
C1537 C1538 1.443 . S
C1537 N1541 1.376 . S
C1537 C1575 1.389 . S
C1538 C1537 1.443 . S
C1538 C1539 1.340 . S
C1538 H1578 0.951 . S
C1539 C1538 1.340 . S
C1539 C1540 1.439 . S
C1539 H1579 0.950 . S
C1540 C1539 1.439 . S
C1540 N1541 1.374 . S
C1540 C1574 1.395 . S
N1541 C1537 1.376 . S
N1541 C1540 1.374 . S
N1541 Co1542 2.008 . S
Co1542 N1541 2.008 . S
Co1542 N1543 1.995 . S
Co1542 N1548 2.008 . S
Co1542 N1553 1.995 . S
Co1542 N1558 2.282 . S
Co1542 N1564 2.282 . S
N1543 Co1542 1.995 . S
N1543 C1544 1.376 . S
N1543 C1547 1.383 . S
C1544 N1543 1.376 . S
C1544 C1545 1.446 . S
C1544 C1574 1.391 . S
C1545 C1544 1.446 . S
C1545 C1546 1.339 . S
C1545 H1580 0.949 . S
C1546 C1545 1.339 . S
C1546 C1547 1.439 . S
C1546 H1581 0.950 . S
C1547 N1543 1.383 . S
C1547 C1546 1.439 . S
C1547 C1576 1.392 . S
N1548 Co1542 2.008 . S
N1548 C1549 1.376 . S
N1548 C1552 1.374 . S
C1549 N1548 1.376 . S
C1549 C1550 1.443 . S
C1549 C1576 1.389 . S
C1550 C1549 1.443 . S
C1550 C1551 1.340 . S
C1550 H1582 0.951 . S
C1551 C1550 1.340 . S
C1551 C1552 1.439 . S
C1551 H1583 0.950 . S
C1552 N1548 1.374 . S
C1552 C1551 1.439 . S
C1552 C1577 1.395 . S
N1553 Co1542 1.995 . S
N1553 C1554 1.376 . S
N1553 C1557 1.383 . S
C1554 N1553 1.376 . S
C1554 C1555 1.446 . S
C1554 C1577 1.391 . S
C1555 C1554 1.446 . S
C1555 C1556 1.339 . S
C1555 H1584 0.949 . S
C1556 C1555 1.339 . S
C1556 C1557 1.439 . S
C1556 H1585 0.950 . S
C1557 N1553 1.383 . S
C1557 C1556 1.439 . S
C1557 C1575 1.392 . S
N1558 Co1542 2.282 . S
N1558 C1561 1.332 . S
N1558 C1563 1.332 . S
C1559 C1560 1.386 . S
C1559 C1562 1.388 . S
C1560 C1559 1.386 . S
C1560 C1561 1.382 . S
C1560 H1586 0.950 . S
C1561 N1558 1.332 . S
C1561 C1560 1.382 . S
C1561 H1572 0.952 . S
C1562 C1559 1.388 . S
C1562 C1563 1.382 . S
C1562 H1587 0.950 . S
C1563 N1558 1.332 . S
C1563 C1562 1.382 . S
C1563 H1573 0.948 . S
N1564 Co1542 2.282 . S
N1564 C1568 1.332 . S
N1564 C1569 1.332 . S
C1565 C1566 1.388 . S
C1565 C1569 1.382 . S
C1565 H1588 0.950 . S
C1566 C1565 1.388 . S
C1566 C1567 1.386 . S
C1567 C1566 1.386 . S
C1567 C1568 1.382 . S
C1567 H1589 0.950 . S
C1568 N1564 1.332 . S
C1568 C1567 1.382 . S
C1568 H1570 0.952 . S
C1569 N1564 1.332 . S
C1569 C1565 1.382 . S
C1569 H1571 0.948 . S
H1570 C1568 0.952 . S
H1571 C1569 0.948 . S
H1572 C1561 0.952 . S
H1573 C1563 0.948 . S
C1574 C1540 1.395 . S
C1574 C1544 1.391 . S
C1575 C1537 1.389 . S
C1575 C1557 1.392 . S
C1576 C1547 1.392 . S
C1576 C1549 1.389 . S
C1577 C1552 1.395 . S
C1577 C1554 1.391 . S
H1578 C1538 0.951 . S
H1579 C1539 0.950 . S
H1580 C1545 0.949 . S
H1581 C1546 0.950 . S
H1582 C1550 0.951 . S
H1583 C1551 0.950 . S
H1584 C1555 0.949 . S
H1585 C1556 0.950 . S
H1586 C1560 0.950 . S
H1587 C1562 0.950 . S
H1588 C1565 0.950 . S
H1589 C1567 0.950 . S
C1590 C1591 1.443 . S
C1590 N1594 1.376 . S
C1590 C1628 1.389 . S
C1591 C1590 1.443 . S
C1591 C1592 1.340 . S
C1591 H1631 0.951 . S
C1592 C1591 1.340 . S
C1592 C1593 1.439 . S
C1592 H1632 0.950 . S
C1593 C1592 1.439 . S
C1593 N1594 1.374 . S
C1593 C1627 1.395 . S
N1594 C1590 1.376 . S
N1594 C1593 1.374 . S
N1594 Co1595 2.008 1_655 S
Co1595 N1594 2.008 1_455 S
Co1595 N1596 1.995 1_455 S
Co1595 N1601 2.008 . S
Co1595 N1606 1.995 . S
Co1595 N1611 2.282 . S
Co1595 N1617 2.282 1_455 S
N1596 Co1595 1.995 1_655 S
N1596 C1597 1.376 . S
N1596 C1600 1.383 . S
C1597 N1596 1.376 . S
C1597 C1598 1.446 . S
C1597 C1627 1.391 . S
C1598 C1597 1.446 . S
C1598 C1599 1.339 . S
C1598 H1633 0.949 . S
C1599 C1598 1.339 . S
C1599 C1600 1.439 . S
C1599 H1634 0.950 . S
C1600 N1596 1.383 . S
C1600 C1599 1.439 . S
C1600 C1629 1.392 1_655 S
N1601 Co1595 2.008 . S
N1601 C1602 1.376 . S
N1601 C1605 1.374 . S
C1602 N1601 1.376 . S
C1602 C1603 1.443 . S
C1602 C1629 1.389 . S
C1603 C1602 1.443 . S
C1603 C1604 1.340 . S
C1603 H1635 0.951 . S
C1604 C1603 1.340 . S
C1604 C1605 1.439 . S
C1604 H1636 0.950 . S
C1605 N1601 1.374 . S
C1605 C1604 1.439 . S
C1605 C1630 1.395 . S
N1606 Co1595 1.995 . S
N1606 C1607 1.376 . S
N1606 C1610 1.383 . S
C1607 N1606 1.376 . S
C1607 C1608 1.446 . S
C1607 C1630 1.391 . S
C1608 C1607 1.446 . S
C1608 C1609 1.339 . S
C1608 H1637 0.949 . S
C1609 C1608 1.339 . S
C1609 C1610 1.439 . S
C1609 H1638 0.950 . S
C1610 N1606 1.383 . S
C1610 C1609 1.439 . S
C1610 C1628 1.392 1_455 S
N1611 Co1595 2.282 . S
N1611 C1614 1.332 . S
N1611 C1616 1.332 . S
C1612 C1613 1.386 . S
C1612 C1615 1.388 . S
C1613 C1612 1.386 . S
C1613 C1614 1.382 . S
C1613 H1639 0.950 . S
C1614 N1611 1.332 . S
C1614 C1613 1.382 . S
C1614 H1625 0.952 . S
C1615 C1612 1.388 . S
C1615 C1616 1.382 . S
C1615 H1640 0.950 . S
C1616 N1611 1.332 . S
C1616 C1615 1.382 . S
C1616 H1626 0.948 . S
N1617 Co1595 2.282 1_655 S
N1617 C1621 1.332 . S
N1617 C1622 1.332 . S
C1618 C1619 1.388 . S
C1618 C1622 1.382 . S
C1618 H1641 0.950 . S
C1619 C1618 1.388 . S
C1619 C1620 1.386 . S
C1620 C1619 1.386 . S
C1620 C1621 1.382 . S
C1620 H1642 0.950 . S
C1621 N1617 1.332 . S
C1621 C1620 1.382 . S
C1621 H1623 0.952 . S
C1622 N1617 1.332 . S
C1622 C1618 1.382 . S
C1622 H1624 0.948 . S
H1623 C1621 0.952 . S
H1624 C1622 0.948 . S
H1625 C1614 0.952 . S
H1626 C1616 0.948 . S
C1627 C1593 1.395 . S
C1627 C1597 1.391 . S
C1628 C1590 1.389 . S
C1628 C1610 1.392 1_655 S
C1629 C1600 1.392 1_455 S
C1629 C1602 1.389 . S
C1630 C1605 1.395 . S
C1630 C1607 1.391 . S
H1631 C1591 0.951 . S
H1632 C1592 0.950 . S
H1633 C1598 0.949 . S
H1634 C1599 0.950 . S
H1635 C1603 0.951 . S
H1636 C1604 0.950 . S
H1637 C1608 0.949 . S
H1638 C1609 0.950 . S
H1639 C1613 0.950 . S
H1640 C1615 0.950 . S
H1641 C1618 0.950 . S
H1642 C1620 0.950 . S
C1643 C1644 1.443 . S
C1643 N1647 1.376 . S
C1643 C1681 1.389 . S
C1644 C1643 1.443 . S
C1644 C1645 1.340 . S
C1644 H1684 0.951 . S
C1645 C1644 1.340 . S
C1645 C1646 1.439 . S
C1645 H1685 0.950 . S
C1646 C1645 1.439 . S
C1646 N1647 1.374 . S
C1646 C1680 1.395 . S
N1647 C1643 1.376 . S
N1647 C1646 1.374 . S
N1647 Co1648 2.008 . S
Co1648 N1647 2.008 . S
Co1648 N1649 1.995 . S
Co1648 N1654 2.008 . S
Co1648 N1659 1.995 . S
Co1648 N1664 2.282 . S
Co1648 N1670 2.282 . S
N1649 Co1648 1.995 . S
N1649 C1650 1.376 . S
N1649 C1653 1.383 . S
C1650 N1649 1.376 . S
C1650 C1651 1.446 . S
C1650 C1680 1.391 . S
C1651 C1650 1.446 . S
C1651 C1652 1.339 . S
C1651 H1686 0.949 . S
C1652 C1651 1.339 . S
C1652 C1653 1.439 . S
C1652 H1687 0.950 . S
C1653 N1649 1.383 . S
C1653 C1652 1.439 . S
C1653 C1682 1.392 . S
N1654 Co1648 2.008 . S
N1654 C1655 1.376 . S
N1654 C1658 1.374 . S
C1655 N1654 1.376 . S
C1655 C1656 1.443 . S
C1655 C1682 1.389 . S
C1656 C1655 1.443 . S
C1656 C1657 1.340 . S
C1656 H1688 0.951 . S
C1657 C1656 1.340 . S
C1657 C1658 1.439 . S
C1657 H1689 0.950 . S
C1658 N1654 1.374 . S
C1658 C1657 1.439 . S
C1658 C1683 1.395 . S
N1659 Co1648 1.995 . S
N1659 C1660 1.376 . S
N1659 C1663 1.383 . S
C1660 N1659 1.376 . S
C1660 C1661 1.446 . S
C1660 C1683 1.391 . S
C1661 C1660 1.446 . S
C1661 C1662 1.339 . S
C1661 H1690 0.949 . S
C1662 C1661 1.339 . S
C1662 C1663 1.439 . S
C1662 H1691 0.950 . S
C1663 N1659 1.383 . S
C1663 C1662 1.439 . S
C1663 C1681 1.392 . S
N1664 Co1648 2.282 . S
N1664 C1667 1.332 . S
N1664 C1669 1.332 . S
C1665 C1666 1.386 . S
C1665 C1668 1.388 . S
C1666 C1665 1.386 . S
C1666 C1667 1.382 . S
C1666 H1692 0.950 . S
C1667 N1664 1.332 . S
C1667 C1666 1.382 . S
C1667 H1678 0.952 . S
C1668 C1665 1.388 . S
C1668 C1669 1.382 . S
C1668 H1693 0.950 . S
C1669 N1664 1.332 . S
C1669 C1668 1.382 . S
C1669 H1679 0.948 . S
N1670 Co1648 2.282 . S
N1670 C1674 1.332 . S
N1670 C1675 1.332 . S
C1671 C1672 1.388 . S
C1671 C1675 1.382 . S
C1671 H1694 0.950 . S
C1672 C1671 1.388 . S
C1672 C1673 1.386 . S
C1673 C1672 1.386 . S
C1673 C1674 1.382 . S
C1673 H1695 0.950 . S
C1674 N1670 1.332 . S
C1674 C1673 1.382 . S
C1674 H1676 0.952 . S
C1675 N1670 1.332 . S
C1675 C1671 1.382 . S
C1675 H1677 0.948 . S
H1676 C1674 0.952 . S
H1677 C1675 0.948 . S
H1678 C1667 0.952 . S
H1679 C1669 0.948 . S
C1680 C1646 1.395 . S
C1680 C1650 1.391 . S
C1681 C1643 1.389 . S
C1681 C1663 1.392 . S
C1682 C1653 1.392 . S
C1682 C1655 1.389 . S
C1683 C1658 1.395 . S
C1683 C1660 1.391 . S
H1684 C1644 0.951 . S
H1685 C1645 0.950 . S
H1686 C1651 0.949 . S
H1687 C1652 0.950 . S
H1688 C1656 0.951 . S
H1689 C1657 0.950 . S
H1690 C1661 0.949 . S
H1691 C1662 0.950 . S
H1692 C1666 0.950 . S
H1693 C1668 0.950 . S
H1694 C1671 0.950 . S
H1695 C1673 0.950 . S
H1696 C1702 0.930 . S
H1697 C1706 0.930 . S
H1698 C1711 0.929 . S
H1699 C1709 0.929 . S
H1700 C1704 0.929 . S
H1701 C1710 0.929 . S
C1702 H1696 0.930 . S
C1702 C1703 1.367 . S
C1702 C1710 1.378 . S
C1703 C1702 1.367 . S
C1703 C1711 1.433 . S
C1704 H1700 0.929 . S
C1704 C1706 1.378 . S
C1704 C1708 1.350 . S
C1705 C1708 1.463 . S
C1705 C1710 1.350 . S
C1705 N1713 1.427 . S
C1706 H1697 0.930 . S
C1706 C1704 1.378 . S
C1706 C1707 1.367 . S
C1707 C1706 1.367 . S
C1707 C1709 1.433 . S
C1708 C1704 1.350 . S
C1708 C1705 1.463 . S
C1708 N1712 1.427 . S
C1709 H1699 0.929 . S
C1709 C1707 1.433 . S
C1709 N1712 1.384 . S
C1710 H1701 0.929 . S
C1710 C1702 1.378 . S
C1710 C1705 1.350 . S
C1711 H1698 0.929 . S
C1711 C1703 1.433 . S
C1711 N1713 1.384 . S
N1712 C1708 1.427 . S
N1712 C1709 1.384 . S
N1713 C1705 1.427 . S
N1713 C1711 1.384 . S
H1714 C1720 0.930 . S
H1715 C1724 0.930 . S
H1716 C1729 0.929 . S
H1717 C1727 0.929 . S
H1718 C1722 0.929 . S
H1719 C1728 0.929 . S
C1720 H1714 0.930 . S
C1720 C1721 1.367 . S
C1720 C1728 1.378 . S
C1721 C1720 1.367 . S
C1721 C1729 1.433 . S
C1722 H1718 0.929 . S
C1722 C1724 1.378 . S
C1722 C1726 1.350 . S
C1723 C1726 1.463 . S
C1723 C1728 1.350 . S
C1723 N1731 1.427 . S
C1724 H1715 0.930 . S
C1724 C1722 1.378 . S
C1724 C1725 1.367 . S
C1725 C1724 1.367 . S
C1725 C1727 1.433 . S
C1726 C1722 1.350 . S
C1726 C1723 1.463 . S
C1726 N1730 1.427 . S
C1727 H1717 0.929 . S
C1727 C1725 1.433 . S
C1727 N1730 1.384 . S
C1728 H1719 0.929 . S
C1728 C1720 1.378 . S
C1728 C1723 1.350 . S
C1729 H1716 0.929 . S
C1729 C1721 1.433 . S
C1729 N1731 1.384 . S
N1730 C1726 1.427 . S
N1730 C1727 1.384 . S
N1731 C1723 1.427 . S
N1731 C1729 1.384 . S
H1732 C1738 0.930 . S
H1733 C1742 0.930 . S
H1734 C1747 0.929 . S
H1735 C1745 0.929 . S
H1736 C1740 0.929 . S
H1737 C1746 0.929 . S
C1738 H1732 0.930 . S
C1738 C1739 1.367 . S
C1738 C1746 1.378 . S
C1739 C1738 1.367 . S
C1739 C1747 1.433 . S
C1740 H1736 0.929 . S
C1740 C1742 1.378 . S
C1740 C1744 1.350 . S
C1741 C1744 1.463 . S
C1741 C1746 1.350 . S
C1741 N1749 1.427 . S
C1742 H1733 0.930 . S
C1742 C1740 1.378 . S
C1742 C1743 1.367 . S
C1743 C1742 1.367 . S
C1743 C1745 1.433 . S
C1744 C1740 1.350 . S
C1744 C1741 1.463 . S
C1744 N1748 1.427 . S
C1745 H1735 0.929 . S
C1745 C1743 1.433 . S
C1745 N1748 1.384 . S
C1746 H1737 0.929 . S
C1746 C1738 1.378 . S
C1746 C1741 1.350 . S
C1747 H1734 0.929 . S
C1747 C1739 1.433 . S
C1747 N1749 1.384 . S
N1748 C1744 1.427 . S
N1748 C1745 1.384 . S
N1749 C1741 1.427 . S
N1749 C1747 1.384 . S
H1750 C1756 0.930 . S
H1751 C1760 0.930 . S
H1752 C1765 0.929 . S
H1753 C1763 0.929 . S
H1754 C1758 0.929 . S
H1755 C1764 0.929 . S
C1756 H1750 0.930 . S
C1756 C1757 1.367 . S
C1756 C1764 1.378 . S
C1757 C1756 1.367 . S
C1757 C1765 1.433 . S
C1758 H1754 0.929 . S
C1758 C1760 1.378 . S
C1758 C1762 1.350 . S
C1759 C1762 1.463 . S
C1759 C1764 1.350 . S
C1759 N1767 1.427 . S
C1760 H1751 0.930 . S
C1760 C1758 1.378 . S
C1760 C1761 1.367 . S
C1761 C1760 1.367 . S
C1761 C1763 1.433 . S
C1762 C1758 1.350 . S
C1762 C1759 1.463 . S
C1762 N1766 1.427 . S
C1763 H1753 0.929 . S
C1763 C1761 1.433 . S
C1763 N1766 1.384 . S
C1764 H1755 0.929 . S
C1764 C1756 1.378 . S
C1764 C1759 1.350 . S
C1765 H1752 0.929 . S
C1765 C1757 1.433 . S
C1765 N1767 1.384 . S
N1766 C1762 1.427 . S
N1766 C1763 1.384 . S
N1767 C1759 1.427 . S
N1767 C1765 1.384 . S
H1768 C1774 0.930 . S
H1769 C1778 0.930 . S
H1770 C1783 0.929 . S
H1771 C1781 0.929 . S
H1772 C1776 0.929 . S
H1773 C1782 0.929 . S
C1774 H1768 0.930 . S
C1774 C1775 1.367 . S
C1774 C1782 1.378 . S
C1775 C1774 1.367 . S
C1775 C1783 1.433 . S
C1776 H1772 0.929 . S
C1776 C1778 1.378 . S
C1776 C1780 1.350 . S
C1777 C1780 1.463 . S
C1777 C1782 1.350 . S
C1777 N1785 1.427 . S
C1778 H1769 0.930 . S
C1778 C1776 1.378 . S
C1778 C1779 1.367 . S
C1779 C1778 1.367 . S
C1779 C1781 1.433 . S
C1780 C1776 1.350 . S
C1780 C1777 1.463 . S
C1780 N1784 1.427 . S
C1781 H1771 0.929 . S
C1781 C1779 1.433 . S
C1781 N1784 1.384 . S
C1782 H1773 0.929 . S
C1782 C1774 1.378 . S
C1782 C1777 1.350 . S
C1783 H1770 0.929 . S
C1783 C1775 1.433 . S
C1783 N1785 1.384 . S
N1784 C1780 1.427 . S
N1784 C1781 1.384 . S
N1785 C1777 1.427 . S
N1785 C1783 1.384 . S
H1786 C1792 0.930 . S
H1787 C1796 0.930 . S
H1788 C1801 0.929 . S
H1789 C1799 0.929 . S
H1790 C1794 0.929 . S
H1791 C1800 0.929 . S
C1792 H1786 0.930 . S
C1792 C1793 1.367 . S
C1792 C1800 1.378 . S
C1793 C1792 1.367 . S
C1793 C1801 1.433 . S
C1794 H1790 0.929 . S
C1794 C1796 1.378 . S
C1794 C1798 1.350 . S
C1795 C1798 1.463 . S
C1795 C1800 1.350 . S
C1795 N1803 1.427 . S
C1796 H1787 0.930 . S
C1796 C1794 1.378 . S
C1796 C1797 1.367 . S
C1797 C1796 1.367 . S
C1797 C1799 1.433 . S
C1798 C1794 1.350 . S
C1798 C1795 1.463 . S
C1798 N1802 1.427 . S
C1799 H1789 0.929 . S
C1799 C1797 1.433 . S
C1799 N1802 1.384 . S
C1800 H1791 0.929 . S
C1800 C1792 1.378 . S
C1800 C1795 1.350 . S
C1801 H1788 0.929 . S
C1801 C1793 1.433 . S
C1801 N1803 1.384 . S
N1802 C1798 1.427 . S
N1802 C1799 1.384 . S
N1803 C1795 1.427 . S
N1803 C1801 1.384 . S
H1804 C1810 0.930 . S
H1805 C1814 0.930 . S
H1806 C1819 0.929 . S
H1807 C1817 0.929 . S
H1808 C1812 0.929 . S
H1809 C1818 0.929 . S
C1810 H1804 0.930 . S
C1810 C1811 1.367 . S
C1810 C1818 1.378 . S
C1811 C1810 1.367 . S
C1811 C1819 1.433 . S
C1812 H1808 0.929 . S
C1812 C1814 1.378 . S
C1812 C1816 1.350 . S
C1813 C1816 1.463 . S
C1813 C1818 1.350 . S
C1813 N1821 1.427 . S
C1814 H1805 0.930 . S
C1814 C1812 1.378 . S
C1814 C1815 1.367 . S
C1815 C1814 1.367 . S
C1815 C1817 1.433 . S
C1816 C1812 1.350 . S
C1816 C1813 1.463 . S
C1816 N1820 1.427 . S
C1817 H1807 0.929 . S
C1817 C1815 1.433 . S
C1817 N1820 1.384 . S
C1818 H1809 0.929 . S
C1818 C1810 1.378 . S
C1818 C1813 1.350 . S
C1819 H1806 0.929 . S
C1819 C1811 1.433 . S
C1819 N1821 1.384 . S
N1820 C1816 1.427 . S
N1820 C1817 1.384 . S
N1821 C1813 1.427 . S
N1821 C1819 1.384 . S
H1822 C1828 0.930 . S
H1823 C1832 0.930 . S
H1824 C1837 0.929 . S
H1825 C1835 0.929 . S
H1826 C1830 0.929 . S
H1827 C1836 0.929 . S
C1828 H1822 0.930 . S
C1828 C1829 1.367 . S
C1828 C1836 1.378 . S
C1829 C1828 1.367 . S
C1829 C1837 1.433 . S
C1830 H1826 0.929 . S
C1830 C1832 1.378 . S
C1830 C1834 1.350 . S
C1831 C1834 1.463 . S
C1831 C1836 1.350 . S
C1831 N1839 1.427 . S
C1832 H1823 0.930 . S
C1832 C1830 1.378 . S
C1832 C1833 1.367 . S
C1833 C1832 1.367 . S
C1833 C1835 1.433 . S
C1834 C1830 1.350 . S
C1834 C1831 1.463 . S
C1834 N1838 1.427 . S
C1835 H1825 0.929 . S
C1835 C1833 1.433 . S
C1835 N1838 1.384 . S
C1836 H1827 0.929 . S
C1836 C1828 1.378 . S
C1836 C1831 1.350 . S
C1837 H1824 0.929 . S
C1837 C1829 1.433 . S
C1837 N1839 1.384 . S
N1838 C1834 1.427 . S
N1838 C1835 1.384 . S
N1839 C1831 1.427 . S
N1839 C1837 1.384 . S
H1840 C1846 0.930 . S
H1841 C1850 0.930 . S
H1842 C1855 0.929 . S
H1843 C1853 0.929 . S
H1844 C1848 0.929 . S
H1845 C1854 0.929 . S
C1846 H1840 0.930 . S
C1846 C1847 1.367 1_655 S
C1846 C1854 1.378 . S
C1847 C1846 1.367 1_455 S
C1847 C1855 1.433 . S
C1848 H1844 0.929 . S
C1848 C1850 1.378 . S
C1848 C1852 1.350 . S
C1849 C1852 1.463 . S
C1849 C1854 1.350 1_455 S
C1849 N1857 1.427 . S
C1850 H1841 0.930 . S
C1850 C1848 1.378 . S
C1850 C1851 1.367 . S
C1851 C1850 1.367 . S
C1851 C1853 1.433 1_455 S
C1852 C1848 1.350 . S
C1852 C1849 1.463 . S
C1852 N1856 1.427 1_455 S
C1853 H1843 0.929 . S
C1853 C1851 1.433 1_655 S
C1853 N1856 1.384 . S
C1854 H1845 0.929 . S
C1854 C1846 1.378 . S
C1854 C1849 1.350 1_655 S
C1855 H1842 0.929 . S
C1855 C1847 1.433 . S
C1855 N1857 1.384 . S
N1856 C1852 1.427 1_655 S
N1856 C1853 1.384 . S
N1857 C1849 1.427 . S
N1857 C1855 1.384 . S
H1858 C1864 0.930 . S
H1859 C1868 0.930 . S
H1860 C1873 0.929 . S
H1861 C1871 0.929 . S
H1862 C1866 0.929 . S
H1863 C1872 0.929 . S
C1864 H1858 0.930 . S
C1864 C1865 1.367 . S
C1864 C1872 1.378 . S
C1865 C1864 1.367 . S
C1865 C1873 1.433 . S
C1866 H1862 0.929 . S
C1866 C1868 1.378 . S
C1866 C1870 1.350 . S
C1867 C1870 1.463 . S
C1867 C1872 1.350 . S
C1867 N1875 1.427 . S
C1868 H1859 0.930 . S
C1868 C1866 1.378 . S
C1868 C1869 1.367 . S
C1869 C1868 1.367 . S
C1869 C1871 1.433 . S
C1870 C1866 1.350 . S
C1870 C1867 1.463 . S
C1870 N1874 1.427 . S
C1871 H1861 0.929 . S
C1871 C1869 1.433 . S
C1871 N1874 1.384 . S
C1872 H1863 0.929 . S
C1872 C1864 1.378 . S
C1872 C1867 1.350 . S
C1873 H1860 0.929 . S
C1873 C1865 1.433 . S
C1873 N1875 1.384 . S
N1874 C1870 1.427 . S
N1874 C1871 1.384 . S
N1875 C1867 1.427 . S
N1875 C1873 1.384 . S
H1876 C1882 0.930 . S
H1877 C1886 0.930 . S
H1878 C1891 0.929 . S
H1879 C1889 0.929 . S
H1880 C1884 0.929 . S
H1881 C1890 0.929 . S
C1882 H1876 0.930 . S
C1882 C1883 1.367 1_455 S
C1882 C1890 1.378 . S
C1883 C1882 1.367 1_655 S
C1883 C1891 1.433 . S
C1884 H1880 0.929 . S
C1884 C1886 1.378 . S
C1884 C1888 1.350 . S
C1885 C1888 1.463 . S
C1885 C1890 1.350 1_655 S
C1885 N1893 1.427 . S
C1886 H1877 0.930 . S
C1886 C1884 1.378 . S
C1886 C1887 1.367 . S
C1887 C1886 1.367 . S
C1887 C1889 1.433 1_655 S
C1888 C1884 1.350 . S
C1888 C1885 1.463 . S
C1888 N1892 1.427 1_655 S
C1889 H1879 0.929 . S
C1889 C1887 1.433 1_455 S
C1889 N1892 1.384 . S
C1890 H1881 0.929 . S
C1890 C1882 1.378 . S
C1890 C1885 1.350 1_455 S
C1891 H1878 0.929 . S
C1891 C1883 1.433 . S
C1891 N1893 1.384 . S
N1892 C1888 1.427 1_455 S
N1892 C1889 1.384 . S
N1893 C1885 1.427 . S
N1893 C1891 1.384 . S
H1894 C1900 0.930 . S
H1895 C1904 0.930 . S
H1896 C1909 0.929 . S
H1897 C1907 0.929 . S
H1898 C1902 0.929 . S
H1899 C1908 0.929 . S
C1900 H1894 0.930 . S
C1900 C1901 1.367 . S
C1900 C1908 1.378 . S
C1901 C1900 1.367 . S
C1901 C1909 1.433 . S
C1902 H1898 0.929 . S
C1902 C1904 1.378 . S
C1902 C1906 1.350 . S
C1903 C1906 1.463 . S
C1903 C1908 1.350 . S
C1903 N1911 1.427 . S
C1904 H1895 0.930 . S
C1904 C1902 1.378 . S
C1904 C1905 1.367 . S
C1905 C1904 1.367 . S
C1905 C1907 1.433 . S
C1906 C1902 1.350 . S
C1906 C1903 1.463 . S
C1906 N1910 1.427 . S
C1907 H1897 0.929 . S
C1907 C1905 1.433 . S
C1907 N1910 1.384 . S
C1908 H1899 0.929 . S
C1908 C1900 1.378 . S
C1908 C1903 1.350 . S
C1909 H1896 0.929 . S
C1909 C1901 1.433 . S
C1909 N1911 1.384 . S
N1910 C1906 1.427 . S
N1910 C1907 1.384 . S
N1911 C1903 1.427 . S
N1911 C1909 1.384 . S
H1912 C1918 0.930 . S
H1913 C1922 0.930 . S
H1914 C1927 0.929 . S
H1915 C1925 0.929 . S
H1916 C1920 0.929 . S
H1917 C1926 0.929 . S
C1918 H1912 0.930 . S
C1918 C1919 1.367 . S
C1918 C1926 1.378 . S
C1919 C1918 1.367 . S
C1919 C1927 1.433 1_455 S
C1920 H1916 0.929 . S
C1920 C1922 1.378 . S
C1920 C1924 1.350 1_655 S
C1921 C1924 1.463 . S
C1921 C1926 1.350 . S
C1921 N1929 1.427 1_455 S
C1922 H1913 0.930 . S
C1922 C1920 1.378 . S
C1922 C1923 1.367 1_655 S
C1923 C1922 1.367 1_455 S
C1923 C1925 1.433 . S
C1924 C1920 1.350 1_455 S
C1924 C1921 1.463 . S
C1924 N1928 1.427 . S
C1925 H1915 0.929 . S
C1925 C1923 1.433 . S
C1925 N1928 1.384 . S
C1926 H1917 0.929 . S
C1926 C1918 1.378 . S
C1926 C1921 1.350 . S
C1927 H1914 0.929 . S
C1927 C1919 1.433 1_655 S
C1927 N1929 1.384 . S
N1928 C1924 1.427 . S
N1928 C1925 1.384 . S
N1929 C1921 1.427 1_655 S
N1929 C1927 1.384 . S
H1930 C1936 0.930 . S
H1931 C1940 0.930 . S
H1932 C1945 0.929 . S
H1933 C1943 0.929 . S
H1934 C1938 0.929 . S
H1935 C1944 0.929 . S
C1936 H1930 0.930 . S
C1936 C1937 1.367 . S
C1936 C1944 1.378 . S
C1937 C1936 1.367 . S
C1937 C1945 1.433 . S
C1938 H1934 0.929 . S
C1938 C1940 1.378 . S
C1938 C1942 1.350 . S
C1939 C1942 1.463 . S
C1939 C1944 1.350 . S
C1939 N1947 1.427 . S
C1940 H1931 0.930 . S
C1940 C1938 1.378 . S
C1940 C1941 1.367 . S
C1941 C1940 1.367 . S
C1941 C1943 1.433 . S
C1942 C1938 1.350 . S
C1942 C1939 1.463 . S
C1942 N1946 1.427 . S
C1943 H1933 0.929 . S
C1943 C1941 1.433 . S
C1943 N1946 1.384 . S
C1944 H1935 0.929 . S
C1944 C1936 1.378 . S
C1944 C1939 1.350 . S
C1945 H1932 0.929 . S
C1945 C1937 1.433 . S
C1945 N1947 1.384 . S
N1946 C1942 1.427 . S
N1946 C1943 1.384 . S
N1947 C1939 1.427 . S
N1947 C1945 1.384 . S
H1948 C1954 0.930 . S
H1949 C1958 0.930 . S
H1950 C1963 0.929 . S
H1951 C1961 0.929 . S
H1952 C1956 0.929 . S
H1953 C1962 0.929 . S
C1954 H1948 0.930 . S
C1954 C1955 1.367 1_455 S
C1954 C1962 1.378 . S
C1955 C1954 1.367 1_655 S
C1955 C1963 1.433 . S
C1956 H1952 0.929 . S
C1956 C1958 1.378 . S
C1956 C1960 1.350 . S
C1957 C1960 1.463 . S
C1957 C1962 1.350 1_655 S
C1957 N1965 1.427 . S
C1958 H1949 0.930 . S
C1958 C1956 1.378 . S
C1958 C1959 1.367 . S
C1959 C1958 1.367 . S
C1959 C1961 1.433 1_655 S
C1960 C1956 1.350 . S
C1960 C1957 1.463 . S
C1960 N1964 1.427 1_655 S
C1961 H1951 0.929 . S
C1961 C1959 1.433 1_455 S
C1961 N1964 1.384 . S
C1962 H1953 0.929 . S
C1962 C1954 1.378 . S
C1962 C1957 1.350 1_455 S
C1963 H1950 0.929 . S
C1963 C1955 1.433 . S
C1963 N1965 1.384 . S
N1964 C1960 1.427 1_455 S
N1964 C1961 1.384 . S
N1965 C1957 1.427 . S
N1965 C1963 1.384 . S
H1966 C1972 0.930 . S
H1967 C1976 0.930 . S
H1968 C1981 0.929 . S
H1969 C1979 0.929 . S
H1970 C1974 0.929 . S
H1971 C1980 0.929 . S
C1972 H1966 0.930 . S
C1972 C1973 1.367 . S
C1972 C1980 1.378 . S
C1973 C1972 1.367 . S
C1973 C1981 1.433 . S
C1974 H1970 0.929 . S
C1974 C1976 1.378 . S
C1974 C1978 1.350 . S
C1975 C1978 1.463 . S
C1975 C1980 1.350 . S
C1975 N1983 1.427 . S
C1976 H1967 0.930 . S
C1976 C1974 1.378 . S
C1976 C1977 1.367 . S
C1977 C1976 1.367 . S
C1977 C1979 1.433 . S
C1978 C1974 1.350 . S
C1978 C1975 1.463 . S
C1978 N1982 1.427 . S
C1979 H1969 0.929 . S
C1979 C1977 1.433 . S
C1979 N1982 1.384 . S
C1980 H1971 0.929 . S
C1980 C1972 1.378 . S
C1980 C1975 1.350 . S
C1981 H1968 0.929 . S
C1981 C1973 1.433 . S
C1981 N1983 1.384 . S
N1982 C1978 1.427 . S
N1982 C1979 1.384 . S
N1983 C1975 1.427 . S
N1983 C1981 1.384 . S
H1984 C1990 0.930 . S
H1985 C1994 0.930 . S
H1986 C1999 0.929 . S
H1987 C1997 0.929 . S
H1988 C1992 0.929 . S
H1989 C1998 0.929 . S
C1990 H1984 0.930 . S
C1990 C1991 1.367 . S
C1990 C1998 1.378 . S
C1991 C1990 1.367 . S
C1991 C1999 1.433 . S
C1992 H1988 0.929 . S
C1992 C1994 1.378 . S
C1992 C1996 1.350 . S
C1993 C1996 1.463 . S
C1993 C1998 1.350 . S
C1993 N2001 1.427 . S
C1994 H1985 0.930 . S
C1994 C1992 1.378 . S
C1994 C1995 1.367 . S
C1995 C1994 1.367 . S
C1995 C1997 1.433 . S
C1996 C1992 1.350 . S
C1996 C1993 1.463 . S
C1996 N2000 1.427 . S
C1997 H1987 0.929 . S
C1997 C1995 1.433 . S
C1997 N2000 1.384 . S
C1998 H1989 0.929 . S
C1998 C1990 1.378 . S
C1998 C1993 1.350 . S
C1999 H1986 0.929 . S
C1999 C1991 1.433 . S
C1999 N2001 1.384 . S
N2000 C1996 1.427 . S
N2000 C1997 1.384 . S
N2001 C1993 1.427 . S
N2001 C1999 1.384 . S
H2002 C2008 0.930 . S
H2003 C2012 0.930 . S
H2004 C2017 0.929 . S
H2005 C2015 0.929 . S
H2006 C2010 0.929 . S
H2007 C2016 0.929 . S
C2008 H2002 0.930 . S
C2008 C2009 1.367 . S
C2008 C2016 1.378 . S
C2009 C2008 1.367 . S
C2009 C2017 1.433 . S
C2010 H2006 0.929 . S
C2010 C2012 1.378 . S
C2010 C2014 1.350 . S
C2011 C2014 1.463 . S
C2011 C2016 1.350 . S
C2011 N2019 1.427 . S
C2012 H2003 0.930 . S
C2012 C2010 1.378 . S
C2012 C2013 1.367 . S
C2013 C2012 1.367 . S
C2013 C2015 1.433 . S
C2014 C2010 1.350 . S
C2014 C2011 1.463 . S
C2014 N2018 1.427 . S
C2015 H2005 0.929 . S
C2015 C2013 1.433 . S
C2015 N2018 1.384 . S
C2016 H2007 0.929 . S
C2016 C2008 1.378 . S
C2016 C2011 1.350 . S
C2017 H2004 0.929 . S
C2017 C2009 1.433 . S
C2017 N2019 1.384 . S
N2018 C2014 1.427 . S
N2018 C2015 1.384 . S
N2019 C2011 1.427 . S
N2019 C2017 1.384 . S
H2020 C2026 0.930 . S
H2021 C2030 0.930 . S
H2022 C2035 0.929 . S
H2023 C2033 0.929 . S
H2024 C2028 0.929 . S
H2025 C2034 0.929 . S
C2026 H2020 0.930 . S
C2026 C2027 1.367 . S
C2026 C2034 1.378 . S
C2027 C2026 1.367 . S
C2027 C2035 1.433 . S
C2028 H2024 0.929 . S
C2028 C2030 1.378 . S
C2028 C2032 1.350 . S
C2029 C2032 1.463 . S
C2029 C2034 1.350 . S
C2029 N2037 1.427 . S
C2030 H2021 0.930 . S
C2030 C2028 1.378 . S
C2030 C2031 1.367 . S
C2031 C2030 1.367 . S
C2031 C2033 1.433 . S
C2032 C2028 1.350 . S
C2032 C2029 1.463 . S
C2032 N2036 1.427 . S
C2033 H2023 0.929 . S
C2033 C2031 1.433 . S
C2033 N2036 1.384 . S
C2034 H2025 0.929 . S
C2034 C2026 1.378 . S
C2034 C2029 1.350 . S
C2035 H2022 0.929 . S
C2035 C2027 1.433 . S
C2035 N2037 1.384 . S
N2036 C2032 1.427 . S
N2036 C2033 1.384 . S
N2037 C2029 1.427 . S
N2037 C2035 1.384 . S
H2038 C2044 0.930 . S
H2039 C2048 0.930 . S
H2040 C2053 0.929 . S
H2041 C2051 0.929 . S
H2042 C2046 0.929 . S
H2043 C2052 0.929 . S
C2044 H2038 0.930 . S
C2044 C2045 1.367 . S
C2044 C2052 1.378 . S
C2045 C2044 1.367 . S
C2045 C2053 1.433 . S
C2046 H2042 0.929 . S
C2046 C2048 1.378 . S
C2046 C2050 1.350 . S
C2047 C2050 1.463 . S
C2047 C2052 1.350 . S
C2047 N2055 1.427 . S
C2048 H2039 0.930 . S
C2048 C2046 1.378 . S
C2048 C2049 1.367 . S
C2049 C2048 1.367 . S
C2049 C2051 1.433 . S
C2050 C2046 1.350 . S
C2050 C2047 1.463 . S
C2050 N2054 1.427 . S
C2051 H2041 0.929 . S
C2051 C2049 1.433 . S
C2051 N2054 1.384 . S
C2052 H2043 0.929 . S
C2052 C2044 1.378 . S
C2052 C2047 1.350 . S
C2053 H2040 0.929 . S
C2053 C2045 1.433 . S
C2053 N2055 1.384 . S
N2054 C2050 1.427 . S
N2054 C2051 1.384 . S
N2055 C2047 1.427 . S
N2055 C2053 1.384 . S
H2056 C2062 0.930 . S
H2057 C2066 0.930 . S
H2058 C2071 0.929 . S
H2059 C2069 0.929 . S
H2060 C2064 0.929 . S
H2061 C2070 0.929 . S
C2062 H2056 0.930 . S
C2062 C2063 1.367 . S
C2062 C2070 1.378 . S
C2063 C2062 1.367 . S
C2063 C2071 1.433 . S
C2064 H2060 0.929 . S
C2064 C2066 1.378 . S
C2064 C2068 1.350 . S
C2065 C2068 1.463 . S
C2065 C2070 1.350 . S
C2065 N2073 1.427 . S
C2066 H2057 0.930 . S
C2066 C2064 1.378 . S
C2066 C2067 1.367 . S
C2067 C2066 1.367 . S
C2067 C2069 1.433 . S
C2068 C2064 1.350 . S
C2068 C2065 1.463 . S
C2068 N2072 1.427 . S
C2069 H2059 0.929 . S
C2069 C2067 1.433 . S
C2069 N2072 1.384 . S
C2070 H2061 0.929 . S
C2070 C2062 1.378 . S
C2070 C2065 1.350 . S
C2071 H2058 0.929 . S
C2071 C2063 1.433 . S
C2071 N2073 1.384 . S
N2072 C2068 1.427 . S
N2072 C2069 1.384 . S
N2073 C2065 1.427 . S
N2073 C2071 1.384 . S
H2074 C2080 0.930 . S
H2075 C2084 0.930 . S
H2076 C2089 0.929 . S
H2077 C2087 0.929 . S
H2078 C2082 0.929 . S
H2079 C2088 0.929 . S
C2080 H2074 0.930 . S
C2080 C2081 1.367 . S
C2080 C2088 1.378 . S
C2081 C2080 1.367 . S
C2081 C2089 1.433 . S
C2082 H2078 0.929 . S
C2082 C2084 1.378 . S
C2082 C2086 1.350 . S
C2083 C2086 1.463 . S
C2083 C2088 1.350 . S
C2083 N2091 1.427 . S
C2084 H2075 0.930 . S
C2084 C2082 1.378 . S
C2084 C2085 1.367 . S
C2085 C2084 1.367 . S
C2085 C2087 1.433 . S
C2086 C2082 1.350 . S
C2086 C2083 1.463 . S
C2086 N2090 1.427 . S
C2087 H2077 0.929 . S
C2087 C2085 1.433 . S
C2087 N2090 1.384 . S
C2088 H2079 0.929 . S
C2088 C2080 1.378 . S
C2088 C2083 1.350 . S
C2089 H2076 0.929 . S
C2089 C2081 1.433 . S
C2089 N2091 1.384 . S
N2090 C2086 1.427 . S
N2090 C2087 1.384 . S
N2091 C2083 1.427 . S
N2091 C2089 1.384 . S
H2092 C2098 0.930 . S
H2093 C2102 0.930 . S
H2094 C2107 0.929 . S
H2095 C2105 0.929 . S
H2096 C2100 0.929 . S
H2097 C2106 0.929 . S
C2098 H2092 0.930 . S
C2098 C2099 1.367 . S
C2098 C2106 1.378 . S
C2099 C2098 1.367 . S
C2099 C2107 1.433 . S
C2100 H2096 0.929 . S
C2100 C2102 1.378 . S
C2100 C2104 1.350 . S
C2101 C2104 1.463 . S
C2101 C2106 1.350 . S
C2101 N2109 1.427 . S
C2102 H2093 0.930 . S
C2102 C2100 1.378 . S
C2102 C2103 1.367 . S
C2103 C2102 1.367 . S
C2103 C2105 1.433 . S
C2104 C2100 1.350 . S
C2104 C2101 1.463 . S
C2104 N2108 1.427 . S
C2105 H2095 0.929 . S
C2105 C2103 1.433 . S
C2105 N2108 1.384 . S
C2106 H2097 0.929 . S
C2106 C2098 1.378 . S
C2106 C2101 1.350 . S
C2107 H2094 0.929 . S
C2107 C2099 1.433 . S
C2107 N2109 1.384 . S
N2108 C2104 1.427 . S
N2108 C2105 1.384 . S
N2109 C2101 1.427 . S
N2109 C2107 1.384 . S
H2110 C2116 0.930 . S
H2111 C2120 0.930 . S
H2112 C2125 0.929 . S
H2113 C2123 0.929 . S
H2114 C2118 0.929 . S
H2115 C2124 0.929 . S
C2116 H2110 0.930 . S
C2116 C2117 1.367 . S
C2116 C2124 1.378 . S
C2117 C2116 1.367 . S
C2117 C2125 1.433 . S
C2118 H2114 0.929 . S
C2118 C2120 1.378 . S
C2118 C2122 1.350 . S
C2119 C2122 1.463 . S
C2119 C2124 1.350 . S
C2119 N2127 1.427 . S
C2120 H2111 0.930 . S
C2120 C2118 1.378 . S
C2120 C2121 1.367 . S
C2121 C2120 1.367 . S
C2121 C2123 1.433 . S
C2122 C2118 1.350 . S
C2122 C2119 1.463 . S
C2122 N2126 1.427 . S
C2123 H2113 0.929 . S
C2123 C2121 1.433 . S
C2123 N2126 1.384 . S
C2124 H2115 0.929 . S
C2124 C2116 1.378 . S
C2124 C2119 1.350 . S
C2125 H2112 0.929 . S
C2125 C2117 1.433 . S
C2125 N2127 1.384 . S
N2126 C2122 1.427 . S
N2126 C2123 1.384 . S
N2127 C2119 1.427 . S
N2127 C2125 1.384 . S
H2128 C2134 0.930 . S
H2129 C2138 0.930 . S
H2130 C2143 0.929 . S
H2131 C2141 0.929 . S
H2132 C2136 0.929 . S
H2133 C2142 0.929 . S
C2134 H2128 0.930 . S
C2134 C2135 1.367 . S
C2134 C2142 1.378 . S
C2135 C2134 1.367 . S
C2135 C2143 1.433 . S
C2136 H2132 0.929 . S
C2136 C2138 1.378 . S
C2136 C2140 1.350 . S
C2137 C2140 1.463 . S
C2137 C2142 1.350 . S
C2137 N2145 1.427 . S
C2138 H2129 0.930 . S
C2138 C2136 1.378 . S
C2138 C2139 1.367 . S
C2139 C2138 1.367 . S
C2139 C2141 1.433 . S
C2140 C2136 1.350 . S
C2140 C2137 1.463 . S
C2140 N2144 1.427 . S
C2141 H2131 0.929 . S
C2141 C2139 1.433 . S
C2141 N2144 1.384 . S
C2142 H2133 0.929 . S
C2142 C2134 1.378 . S
C2142 C2137 1.350 . S
C2143 H2130 0.929 . S
C2143 C2135 1.433 . S
C2143 N2145 1.384 . S
N2144 C2140 1.427 . S
N2144 C2141 1.384 . S
N2145 C2137 1.427 . S
N2145 C2143 1.384 . S
H2146 C2152 0.930 . S
H2147 C2156 0.930 . S
H2148 C2161 0.929 . S
H2149 C2159 0.929 . S
H2150 C2154 0.929 . S
H2151 C2160 0.929 . S
C2152 H2146 0.930 . S
C2152 C2153 1.367 . S
C2152 C2160 1.378 . S
C2153 C2152 1.367 . S
C2153 C2161 1.433 . S
C2154 H2150 0.929 . S
C2154 C2156 1.378 . S
C2154 C2158 1.350 . S
C2155 C2158 1.463 . S
C2155 C2160 1.350 . S
C2155 N2163 1.427 . S
C2156 H2147 0.930 . S
C2156 C2154 1.378 . S
C2156 C2157 1.367 . S
C2157 C2156 1.367 . S
C2157 C2159 1.433 . S
C2158 C2154 1.350 . S
C2158 C2155 1.463 . S
C2158 N2162 1.427 . S
C2159 H2149 0.929 . S
C2159 C2157 1.433 . S
C2159 N2162 1.384 . S
C2160 H2151 0.929 . S
C2160 C2152 1.378 . S
C2160 C2155 1.350 . S
C2161 H2148 0.929 . S
C2161 C2153 1.433 . S
C2161 N2163 1.384 . S
N2162 C2158 1.427 . S
N2162 C2159 1.384 . S
N2163 C2155 1.427 . S
N2163 C2161 1.384 . S
H2164 C2170 0.930 . S
H2165 C2174 0.930 . S
H2166 C2179 0.929 . S
H2167 C2177 0.929 . S
H2168 C2172 0.929 . S
H2169 C2178 0.929 . S
C2170 H2164 0.930 . S
C2170 C2171 1.367 . S
C2170 C2178 1.378 . S
C2171 C2170 1.367 . S
C2171 C2179 1.433 . S
C2172 H2168 0.929 . S
C2172 C2174 1.378 . S
C2172 C2176 1.350 . S
C2173 C2176 1.463 . S
C2173 C2178 1.350 . S
C2173 N2181 1.427 . S
C2174 H2165 0.930 . S
C2174 C2172 1.378 . S
C2174 C2175 1.367 . S
C2175 C2174 1.367 . S
C2175 C2177 1.433 . S
C2176 C2172 1.350 . S
C2176 C2173 1.463 . S
C2176 N2180 1.427 . S
C2177 H2167 0.929 . S
C2177 C2175 1.433 . S
C2177 N2180 1.384 . S
C2178 H2169 0.929 . S
C2178 C2170 1.378 . S
C2178 C2173 1.350 . S
C2179 H2166 0.929 . S
C2179 C2171 1.433 . S
C2179 N2181 1.384 . S
N2180 C2176 1.427 . S
N2180 C2177 1.384 . S
N2181 C2173 1.427 . S
N2181 C2179 1.384 . S
H2182 C2188 0.930 . S
H2183 C2192 0.930 . S
H2184 C2197 0.929 . S
H2185 C2195 0.929 . S
H2186 C2190 0.929 . S
H2187 C2196 0.929 . S
C2188 H2182 0.930 . S
C2188 C2189 1.367 . S
C2188 C2196 1.378 . S
C2189 C2188 1.367 . S
C2189 C2197 1.433 . S
C2190 H2186 0.929 . S
C2190 C2192 1.378 . S
C2190 C2194 1.350 . S
C2191 C2194 1.463 . S
C2191 C2196 1.350 . S
C2191 N2199 1.427 . S
C2192 H2183 0.930 . S
C2192 C2190 1.378 . S
C2192 C2193 1.367 . S
C2193 C2192 1.367 . S
C2193 C2195 1.433 . S
C2194 C2190 1.350 . S
C2194 C2191 1.463 . S
C2194 N2198 1.427 . S
C2195 H2185 0.929 . S
C2195 C2193 1.433 . S
C2195 N2198 1.384 . S
C2196 H2187 0.929 . S
C2196 C2188 1.378 . S
C2196 C2191 1.350 . S
C2197 H2184 0.929 . S
C2197 C2189 1.433 . S
C2197 N2199 1.384 . S
N2198 C2194 1.427 . S
N2198 C2195 1.384 . S
N2199 C2191 1.427 . S
N2199 C2197 1.384 . S
H2200 C2206 0.930 . S
H2201 C2210 0.930 . S
H2202 C2215 0.929 . S
H2203 C2213 0.929 . S
H2204 C2208 0.929 . S
H2205 C2214 0.929 . S
C2206 H2200 0.930 . S
C2206 C2207 1.367 . S
C2206 C2214 1.378 . S
C2207 C2206 1.367 . S
C2207 C2215 1.433 . S
C2208 H2204 0.929 . S
C2208 C2210 1.378 . S
C2208 C2212 1.350 . S
C2209 C2212 1.463 . S
C2209 C2214 1.350 . S
C2209 N2217 1.427 . S
C2210 H2201 0.930 . S
C2210 C2208 1.378 . S
C2210 C2211 1.367 . S
C2211 C2210 1.367 . S
C2211 C2213 1.433 . S
C2212 C2208 1.350 . S
C2212 C2209 1.463 . S
C2212 N2216 1.427 . S
C2213 H2203 0.929 . S
C2213 C2211 1.433 . S
C2213 N2216 1.384 . S
C2214 H2205 0.929 . S
C2214 C2206 1.378 . S
C2214 C2209 1.350 . S
C2215 H2202 0.929 . S
C2215 C2207 1.433 . S
C2215 N2217 1.384 . S
N2216 C2212 1.427 . S
N2216 C2213 1.384 . S
N2217 C2209 1.427 . S
N2217 C2215 1.384 . S
H2218 C2224 0.930 . S
H2219 C2228 0.930 . S
H2220 C2233 0.929 . S
H2221 C2231 0.929 . S
H2222 C2226 0.929 . S
H2223 C2232 0.929 . S
C2224 H2218 0.930 . S
C2224 C2225 1.367 . S
C2224 C2232 1.378 . S
C2225 C2224 1.367 . S
C2225 C2233 1.433 . S
C2226 H2222 0.929 . S
C2226 C2228 1.378 . S
C2226 C2230 1.350 . S
C2227 C2230 1.463 . S
C2227 C2232 1.350 . S
C2227 N2235 1.427 . S
C2228 H2219 0.930 . S
C2228 C2226 1.378 . S
C2228 C2229 1.367 . S
C2229 C2228 1.367 . S
C2229 C2231 1.433 . S
C2230 C2226 1.350 . S
C2230 C2227 1.463 . S
C2230 N2234 1.427 . S
C2231 H2221 0.929 . S
C2231 C2229 1.433 . S
C2231 N2234 1.384 . S
C2232 H2223 0.929 . S
C2232 C2224 1.378 . S
C2232 C2227 1.350 . S
C2233 H2220 0.929 . S
C2233 C2225 1.433 . S
C2233 N2235 1.384 . S
N2234 C2230 1.427 . S
N2234 C2231 1.384 . S
N2235 C2227 1.427 . S
N2235 C2233 1.384 . S
H2236 C2242 0.930 . S
H2237 C2246 0.930 . S
H2238 C2251 0.929 . S
H2239 C2249 0.929 . S
H2240 C2244 0.929 . S
H2241 C2250 0.929 . S
C2242 H2236 0.930 . S
C2242 C2243 1.367 . S
C2242 C2250 1.378 . S
C2243 C2242 1.367 . S
C2243 C2251 1.433 . S
C2244 H2240 0.929 . S
C2244 C2246 1.378 . S
C2244 C2248 1.350 . S
C2245 C2248 1.463 . S
C2245 C2250 1.350 . S
C2245 N2253 1.427 . S
C2246 H2237 0.930 . S
C2246 C2244 1.378 . S
C2246 C2247 1.367 . S
C2247 C2246 1.367 . S
C2247 C2249 1.433 . S
C2248 C2244 1.350 . S
C2248 C2245 1.463 . S
C2248 N2252 1.427 . S
C2249 H2239 0.929 . S
C2249 C2247 1.433 . S
C2249 N2252 1.384 . S
C2250 H2241 0.929 . S
C2250 C2242 1.378 . S
C2250 C2245 1.350 . S
C2251 H2238 0.929 . S
C2251 C2243 1.433 . S
C2251 N2253 1.384 . S
N2252 C2248 1.427 . S
N2252 C2249 1.384 . S
N2253 C2245 1.427 . S
N2253 C2251 1.384 . S
H2254 C2260 0.930 . S
H2255 C2264 0.930 . S
H2256 C2269 0.929 . S
H2257 C2267 0.929 . S
H2258 C2262 0.929 . S
H2259 C2268 0.929 . S
C2260 H2254 0.930 . S
C2260 C2261 1.367 . S
C2260 C2268 1.378 . S
C2261 C2260 1.367 . S
C2261 C2269 1.433 . S
C2262 H2258 0.929 . S
C2262 C2264 1.378 . S
C2262 C2266 1.350 . S
C2263 C2266 1.463 . S
C2263 C2268 1.350 . S
C2263 N2271 1.427 . S
C2264 H2255 0.930 . S
C2264 C2262 1.378 . S
C2264 C2265 1.367 . S
C2265 C2264 1.367 . S
C2265 C2267 1.433 . S
C2266 C2262 1.350 . S
C2266 C2263 1.463 . S
C2266 N2270 1.427 . S
C2267 H2257 0.929 . S
C2267 C2265 1.433 . S
C2267 N2270 1.384 . S
C2268 H2259 0.929 . S
C2268 C2260 1.378 . S
C2268 C2263 1.350 . S
C2269 H2256 0.929 . S
C2269 C2261 1.433 . S
C2269 N2271 1.384 . S
N2270 C2266 1.427 . S
N2270 C2267 1.384 . S
N2271 C2263 1.427 . S
N2271 C2269 1.384 . S
H2272 C2278 0.930 . S
H2273 C2282 0.930 . S
H2274 C2287 0.929 . S
H2275 C2285 0.929 . S
H2276 C2280 0.929 . S
H2277 C2286 0.929 . S
C2278 H2272 0.930 . S
C2278 C2279 1.367 . S
C2278 C2286 1.378 . S
C2279 C2278 1.367 . S
C2279 C2287 1.433 1_565 S
C2280 H2276 0.929 . S
C2280 C2282 1.378 . S
C2280 C2284 1.350 . S
C2281 C2284 1.463 1_564 S
C2281 C2286 1.350 . S
C2281 N2289 1.427 1_565 S
C2282 H2273 0.930 . S
C2282 C2280 1.378 . S
C2282 C2283 1.367 . S
C2283 C2282 1.367 . S
C2283 C2285 1.433 1_545 S
C2284 C2280 1.350 . S
C2284 C2281 1.463 1_546 S
C2284 N2288 1.427 1_545 S
C2285 H2275 0.929 . S
C2285 C2283 1.433 1_565 S
C2285 N2288 1.384 . S
C2286 H2277 0.929 . S
C2286 C2278 1.378 . S
C2286 C2281 1.350 . S
C2287 H2274 0.929 . S
C2287 C2279 1.433 1_545 S
C2287 N2289 1.384 . S
N2288 C2284 1.427 1_565 S
N2288 C2285 1.384 . S
N2289 C2281 1.427 1_545 S
N2289 C2287 1.384 . S
H2290 C2296 0.930 . S
H2291 C2300 0.930 . S
H2292 C2305 0.929 . S
H2293 C2303 0.929 . S
H2294 C2298 0.929 . S
H2295 C2304 0.929 . S
C2296 H2290 0.930 . S
C2296 C2297 1.367 . S
C2296 C2304 1.378 . S
C2297 C2296 1.367 . S
C2297 C2305 1.433 . S
C2298 H2294 0.929 . S
C2298 C2300 1.378 . S
C2298 C2302 1.350 . S
C2299 C2302 1.463 1_554 S
C2299 C2304 1.350 . S
C2299 N2307 1.427 . S
C2300 H2291 0.930 . S
C2300 C2298 1.378 . S
C2300 C2301 1.367 . S
C2301 C2300 1.367 . S
C2301 C2303 1.433 . S
C2302 C2298 1.350 . S
C2302 C2299 1.463 1_556 S
C2302 N2306 1.427 . S
C2303 H2293 0.929 . S
C2303 C2301 1.433 . S
C2303 N2306 1.384 . S
C2304 H2295 0.929 . S
C2304 C2296 1.378 . S
C2304 C2299 1.350 . S
C2305 H2292 0.929 . S
C2305 C2297 1.433 . S
C2305 N2307 1.384 . S
N2306 C2302 1.427 . S
N2306 C2303 1.384 . S
N2307 C2299 1.427 . S
N2307 C2305 1.384 . S
H2308 C2314 0.930 . S
H2309 C2318 0.930 . S
H2310 C2323 0.929 . S
H2311 C2321 0.929 . S
H2312 C2316 0.929 . S
H2313 C2322 0.929 . S
C2314 H2308 0.930 . S
C2314 C2315 1.367 . S
C2314 C2322 1.378 . S
C2315 C2314 1.367 . S
C2315 C2323 1.433 . S
C2316 H2312 0.929 . S
C2316 C2318 1.378 . S
C2316 C2320 1.350 . S
C2317 C2320 1.463 . S
C2317 C2322 1.350 . S
C2317 N2325 1.427 . S
C2318 H2309 0.930 . S
C2318 C2316 1.378 . S
C2318 C2319 1.367 . S
C2319 C2318 1.367 . S
C2319 C2321 1.433 . S
C2320 C2316 1.350 . S
C2320 C2317 1.463 . S
C2320 N2324 1.427 . S
C2321 H2311 0.929 . S
C2321 C2319 1.433 . S
C2321 N2324 1.384 . S
C2322 H2313 0.929 . S
C2322 C2314 1.378 . S
C2322 C2317 1.350 . S
C2323 H2310 0.929 . S
C2323 C2315 1.433 . S
C2323 N2325 1.384 . S
N2324 C2320 1.427 . S
N2324 C2321 1.384 . S
N2325 C2317 1.427 . S
N2325 C2323 1.384 . S
H2326 C2332 0.930 . S
H2327 C2336 0.930 . S
H2328 C2341 0.929 . S
H2329 C2339 0.929 . S
H2330 C2334 0.929 . S
H2331 C2340 0.929 . S
C2332 H2326 0.930 . S
C2332 C2333 1.367 . S
C2332 C2340 1.378 . S
C2333 C2332 1.367 . S
C2333 C2341 1.433 1_565 S
C2334 H2330 0.929 . S
C2334 C2336 1.378 . S
C2334 C2338 1.350 . S
C2335 C2338 1.463 1_565 S
C2335 C2340 1.350 . S
C2335 N2343 1.427 1_565 S
C2336 H2327 0.930 . S
C2336 C2334 1.378 . S
C2336 C2337 1.367 . S
C2337 C2336 1.367 . S
C2337 C2339 1.433 1_545 S
C2338 C2334 1.350 . S
C2338 C2335 1.463 1_545 S
C2338 N2342 1.427 1_545 S
C2339 H2329 0.929 . S
C2339 C2337 1.433 1_565 S
C2339 N2342 1.384 . S
C2340 H2331 0.929 . S
C2340 C2332 1.378 . S
C2340 C2335 1.350 . S
C2341 H2328 0.929 . S
C2341 C2333 1.433 1_545 S
C2341 N2343 1.384 . S
N2342 C2338 1.427 1_565 S
N2342 C2339 1.384 . S
N2343 C2335 1.427 1_545 S
N2343 C2341 1.384 . S
H2344 C2350 0.930 . S
H2345 C2354 0.930 . S
H2346 C2359 0.929 . S
H2347 C2357 0.929 . S
H2348 C2352 0.929 . S
H2349 C2358 0.929 . S
C2350 H2344 0.930 . S
C2350 C2351 1.367 . S
C2350 C2358 1.378 . S
C2351 C2350 1.367 . S
C2351 C2359 1.433 . S
C2352 H2348 0.929 . S
C2352 C2354 1.378 . S
C2352 C2356 1.350 . S
C2353 C2356 1.463 1_556 S
C2353 C2358 1.350 . S
C2353 N2361 1.427 . S
C2354 H2345 0.930 . S
C2354 C2352 1.378 . S
C2354 C2355 1.367 . S
C2355 C2354 1.367 . S
C2355 C2357 1.433 . S
C2356 C2352 1.350 . S
C2356 C2353 1.463 1_554 S
C2356 N2360 1.427 . S
C2357 H2347 0.929 . S
C2357 C2355 1.433 . S
C2357 N2360 1.384 . S
C2358 H2349 0.929 . S
C2358 C2350 1.378 . S
C2358 C2353 1.350 . S
C2359 H2346 0.929 . S
C2359 C2351 1.433 . S
C2359 N2361 1.384 . S
N2360 C2356 1.427 . S
N2360 C2357 1.384 . S
N2361 C2353 1.427 . S
N2361 C2359 1.384 . S
H2362 C2368 0.930 . S
H2363 C2372 0.930 . S
H2364 C2377 0.929 . S
H2365 C2375 0.929 . S
H2366 C2370 0.929 . S
H2367 C2376 0.929 . S
C2368 H2362 0.930 . S
C2368 C2369 1.367 . S
C2368 C2376 1.378 . S
C2369 C2368 1.367 . S
C2369 C2377 1.433 . S
C2370 H2366 0.929 . S
C2370 C2372 1.378 . S
C2370 C2374 1.350 . S
C2371 C2374 1.463 . S
C2371 C2376 1.350 . S
C2371 N2379 1.427 . S
C2372 H2363 0.930 . S
C2372 C2370 1.378 . S
C2372 C2373 1.367 . S
C2373 C2372 1.367 . S
C2373 C2375 1.433 . S
C2374 C2370 1.350 . S
C2374 C2371 1.463 . S
C2374 N2378 1.427 . S
C2375 H2365 0.929 . S
C2375 C2373 1.433 . S
C2375 N2378 1.384 . S
C2376 H2367 0.929 . S
C2376 C2368 1.378 . S
C2376 C2371 1.350 . S
C2377 H2364 0.929 . S
C2377 C2369 1.433 . S
C2377 N2379 1.384 . S
N2378 C2374 1.427 . S
N2378 C2375 1.384 . S
N2379 C2371 1.427 . S
N2379 C2377 1.384 . S
H2380 C2386 0.930 . S
H2381 C2390 0.930 . S
H2382 C2395 0.929 . S
H2383 C2393 0.929 . S
H2384 C2388 0.929 . S
H2385 C2394 0.929 . S
C2386 H2380 0.930 . S
C2386 C2387 1.367 . S
C2386 C2394 1.378 . S
C2387 C2386 1.367 . S
C2387 C2395 1.433 1_565 S
C2388 H2384 0.929 . S
C2388 C2390 1.378 . S
C2388 C2392 1.350 . S
C2389 C2392 1.463 1_565 S
C2389 C2394 1.350 . S
C2389 N2397 1.427 1_565 S
C2390 H2381 0.930 . S
C2390 C2388 1.378 . S
C2390 C2391 1.367 . S
C2391 C2390 1.367 . S
C2391 C2393 1.433 1_545 S
C2392 C2388 1.350 . S
C2392 C2389 1.463 1_545 S
C2392 N2396 1.427 1_545 S
C2393 H2383 0.929 . S
C2393 C2391 1.433 1_565 S
C2393 N2396 1.384 . S
C2394 H2385 0.929 . S
C2394 C2386 1.378 . S
C2394 C2389 1.350 . S
C2395 H2382 0.929 . S
C2395 C2387 1.433 1_545 S
C2395 N2397 1.384 . S
N2396 C2392 1.427 1_565 S
N2396 C2393 1.384 . S
N2397 C2389 1.427 1_545 S
N2397 C2395 1.384 . S
H2398 C2404 0.930 . S
H2399 C2408 0.930 . S
H2400 C2413 0.929 . S
H2401 C2411 0.929 . S
H2402 C2406 0.929 . S
H2403 C2412 0.929 . S
C2404 H2398 0.930 . S
C2404 C2405 1.367 . S
C2404 C2412 1.378 . S
C2405 C2404 1.367 . S
C2405 C2413 1.433 . S
C2406 H2402 0.929 . S
C2406 C2408 1.378 . S
C2406 C2410 1.350 . S
C2407 C2410 1.463 . S
C2407 C2412 1.350 . S
C2407 N2415 1.427 . S
C2408 H2399 0.930 . S
C2408 C2406 1.378 . S
C2408 C2409 1.367 . S
C2409 C2408 1.367 . S
C2409 C2411 1.433 . S
C2410 C2406 1.350 . S
C2410 C2407 1.463 . S
C2410 N2414 1.427 . S
C2411 H2401 0.929 . S
C2411 C2409 1.433 . S
C2411 N2414 1.384 . S
C2412 H2403 0.929 . S
C2412 C2404 1.378 . S
C2412 C2407 1.350 . S
C2413 H2400 0.929 . S
C2413 C2405 1.433 . S
C2413 N2415 1.384 . S
N2414 C2410 1.427 . S
N2414 C2411 1.384 . S
N2415 C2407 1.427 . S
N2415 C2413 1.384 . S
H2416 C2422 0.930 . S
H2417 C2426 0.930 . S
H2418 C2431 0.929 . S
H2419 C2429 0.929 . S
H2420 C2424 0.929 . S
H2421 C2430 0.929 . S
C2422 H2416 0.930 . S
C2422 C2423 1.367 . S
C2422 C2430 1.378 . S
C2423 C2422 1.367 . S
C2423 C2431 1.433 . S
C2424 H2420 0.929 . S
C2424 C2426 1.378 . S
C2424 C2428 1.350 . S
C2425 C2428 1.463 . S
C2425 C2430 1.350 . S
C2425 N2433 1.427 . S
C2426 H2417 0.930 . S
C2426 C2424 1.378 . S
C2426 C2427 1.367 . S
C2427 C2426 1.367 . S
C2427 C2429 1.433 . S
C2428 C2424 1.350 . S
C2428 C2425 1.463 . S
C2428 N2432 1.427 . S
C2429 H2419 0.929 . S
C2429 C2427 1.433 . S
C2429 N2432 1.384 . S
C2430 H2421 0.929 . S
C2430 C2422 1.378 . S
C2430 C2425 1.350 . S
C2431 H2418 0.929 . S
C2431 C2423 1.433 . S
C2431 N2433 1.384 . S
N2432 C2428 1.427 . S
N2432 C2429 1.384 . S
N2433 C2425 1.427 . S
N2433 C2431 1.384 . S
H2434 C2440 0.930 . S
H2435 C2444 0.930 . S
H2436 C2449 0.929 . S
H2437 C2447 0.929 . S
H2438 C2442 0.929 . S
H2439 C2448 0.929 . S
C2440 H2434 0.930 . S
C2440 C2441 1.367 . S
C2440 C2448 1.378 . S
C2441 C2440 1.367 . S
C2441 C2449 1.433 . S
C2442 H2438 0.929 . S
C2442 C2444 1.378 . S
C2442 C2446 1.350 . S
C2443 C2446 1.463 . S
C2443 C2448 1.350 . S
C2443 N2451 1.427 . S
C2444 H2435 0.930 . S
C2444 C2442 1.378 . S
C2444 C2445 1.367 . S
C2445 C2444 1.367 . S
C2445 C2447 1.433 . S
C2446 C2442 1.350 . S
C2446 C2443 1.463 . S
C2446 N2450 1.427 . S
C2447 H2437 0.929 . S
C2447 C2445 1.433 . S
C2447 N2450 1.384 . S
C2448 H2439 0.929 . S
C2448 C2440 1.378 . S
C2448 C2443 1.350 . S
C2449 H2436 0.929 . S
C2449 C2441 1.433 . S
C2449 N2451 1.384 . S
N2450 C2446 1.427 . S
N2450 C2447 1.384 . S
N2451 C2443 1.427 . S
N2451 C2449 1.384 . S
H2452 C2458 0.930 . S
H2453 C2462 0.930 . S
H2454 C2467 0.929 . S
H2455 C2465 0.929 . S
H2456 C2460 0.929 . S
H2457 C2466 0.929 . S
C2458 H2452 0.930 . S
C2458 C2459 1.367 . S
C2458 C2466 1.378 . S
C2459 C2458 1.367 . S
C2459 C2467 1.433 . S
C2460 H2456 0.929 . S
C2460 C2462 1.378 . S
C2460 C2464 1.350 . S
C2461 C2464 1.463 . S
C2461 C2466 1.350 . S
C2461 N2469 1.427 . S
C2462 H2453 0.930 . S
C2462 C2460 1.378 . S
C2462 C2463 1.367 . S
C2463 C2462 1.367 . S
C2463 C2465 1.433 . S
C2464 C2460 1.350 . S
C2464 C2461 1.463 . S
C2464 N2468 1.427 . S
C2465 H2455 0.929 . S
C2465 C2463 1.433 . S
C2465 N2468 1.384 . S
C2466 H2457 0.929 . S
C2466 C2458 1.378 . S
C2466 C2461 1.350 . S
C2467 H2454 0.929 . S
C2467 C2459 1.433 . S
C2467 N2469 1.384 . S
N2468 C2464 1.427 . S
N2468 C2465 1.384 . S
N2469 C2461 1.427 . S
N2469 C2467 1.384 . S
H2470 C2476 0.930 . S
H2471 C2480 0.930 . S
H2472 C2485 0.929 . S
H2473 C2483 0.929 . S
H2474 C2478 0.929 . S
H2475 C2484 0.929 . S
C2476 H2470 0.930 . S
C2476 C2477 1.367 . S
C2476 C2484 1.378 . S
C2477 C2476 1.367 . S
C2477 C2485 1.433 . S
C2478 H2474 0.929 . S
C2478 C2480 1.378 . S
C2478 C2482 1.350 . S
C2479 C2482 1.463 . S
C2479 C2484 1.350 . S
C2479 N2487 1.427 . S
C2480 H2471 0.930 . S
C2480 C2478 1.378 . S
C2480 C2481 1.367 . S
C2481 C2480 1.367 . S
C2481 C2483 1.433 . S
C2482 C2478 1.350 . S
C2482 C2479 1.463 . S
C2482 N2486 1.427 . S
C2483 H2473 0.929 . S
C2483 C2481 1.433 . S
C2483 N2486 1.384 . S
C2484 H2475 0.929 . S
C2484 C2476 1.378 . S
C2484 C2479 1.350 . S
C2485 H2472 0.929 . S
C2485 C2477 1.433 . S
C2485 N2487 1.384 . S
N2486 C2482 1.427 . S
N2486 C2483 1.384 . S
N2487 C2479 1.427 . S
N2487 C2485 1.384 . S
H2488 C2494 0.930 . S
H2489 C2498 0.930 . S
H2490 C2503 0.929 . S
H2491 C2501 0.929 . S
H2492 C2496 0.929 . S
H2493 C2502 0.929 . S
C2494 H2488 0.930 . S
C2494 C2495 1.367 1_655 S
C2494 C2502 1.378 . S
C2495 C2494 1.367 1_455 S
C2495 C2503 1.433 1_545 S
C2496 H2492 0.929 . S
C2496 C2498 1.378 . S
C2496 C2500 1.347 . S
C2497 C2500 1.462 1_545 S
C2497 C2502 1.347 1_455 S
C2497 N2505 1.430 1_545 S
C2498 H2489 0.930 . S
C2498 C2496 1.378 . S
C2498 C2499 1.367 1_455 S
C2499 C2498 1.367 1_655 S
C2499 C2501 1.433 1_565 S
C2500 C2496 1.347 . S
C2500 C2497 1.462 1_565 S
C2500 N2504 1.430 1_465 S
C2501 H2491 0.929 . S
C2501 C2499 1.433 1_545 S
C2501 N2504 1.384 . S
C2502 H2493 0.929 . S
C2502 C2494 1.378 . S
C2502 C2497 1.347 1_655 S
C2503 H2490 0.929 . S
C2503 C2495 1.433 1_565 S
C2503 N2505 1.384 . S
N2504 C2500 1.430 1_645 S
N2504 C2501 1.384 . S
N2505 C2497 1.430 1_565 S
N2505 C2503 1.384 . S
H2506 C2512 0.930 . S
H2507 C2516 0.930 . S
H2508 C2521 0.929 . S
H2509 C2519 0.929 . S
H2510 C2514 0.929 . S
H2511 C2520 0.929 . S
C2512 H2506 0.930 . S
C2512 C2513 1.367 . S
C2512 C2520 1.378 . S
C2513 C2512 1.367 . S
C2513 C2521 1.433 1_655 S
C2514 H2510 0.929 . S
C2514 C2516 1.378 . S
C2514 C2518 1.378 . S
C2515 C2518 1.459 1_655 S
C2515 C2520 1.350 . S
C2515 N2523 1.427 1_655 S
C2516 H2507 0.930 . S
C2516 C2514 1.378 . S
C2516 C2517 1.367 . S
C2517 C2516 1.367 . S
C2517 C2519 1.433 1_455 S
C2518 C2514 1.378 . S
C2518 C2515 1.459 1_455 S
C2518 N2522 1.402 1_455 S
C2519 H2509 0.929 . S
C2519 C2517 1.433 1_655 S
C2519 N2522 1.384 . S
C2520 H2511 0.929 . S
C2520 C2512 1.378 . S
C2520 C2515 1.350 . S
C2521 H2508 0.929 . S
C2521 C2513 1.433 1_455 S
C2521 N2523 1.384 . S
N2522 C2518 1.402 1_655 S
N2522 C2519 1.384 . S
N2523 C2515 1.427 1_455 S
N2523 C2521 1.384 . S
H2524 C2530 0.930 . S
H2525 C2534 0.930 . S
H2526 C2539 0.929 . S
H2527 C2537 0.929 . S
H2528 C2532 0.927 1_655 S
H2529 C2538 0.927 1_455 S
C2530 H2524 0.930 . S
C2530 C2531 1.367 . S
C2530 C2538 1.379 . S
C2531 C2530 1.367 . S
C2531 C2539 1.433 . S
C2532 H2528 0.927 1_455 S
C2532 C2534 1.378 . S
C2532 C2536 1.350 . S
C2533 C2536 1.461 1_655 S
C2533 C2538 1.350 . S
C2533 N2541 1.430 . S
C2534 H2525 0.930 . S
C2534 C2532 1.378 . S
C2534 C2535 1.367 . S
C2535 C2534 1.367 . S
C2535 C2537 1.433 . S
C2536 C2532 1.350 . S
C2536 C2533 1.461 1_455 S
C2536 N2540 1.429 . S
C2537 H2527 0.929 . S
C2537 C2535 1.433 . S
C2537 N2540 1.384 . S
C2538 H2529 0.927 1_655 S
C2538 C2530 1.379 . S
C2538 C2533 1.350 . S
C2539 H2526 0.929 . S
C2539 C2531 1.433 . S
C2539 N2541 1.384 . S
N2540 C2536 1.429 . S
N2540 C2537 1.384 . S
N2541 C2533 1.430 . S
N2541 C2539 1.384 . S
H2542 C2548 0.930 . S
H2543 C2552 0.930 . S
H2544 C2557 0.929 . S
H2545 C2555 0.929 . S
H2546 C2550 0.929 . S
H2547 C2556 0.929 . S
C2548 H2542 0.930 . S
C2548 C2549 1.367 . S
C2548 C2556 1.378 . S
C2549 C2548 1.367 . S
C2549 C2557 1.433 1_455 S
C2550 H2546 0.929 . S
C2550 C2552 1.378 . S
C2550 C2554 1.369 . S
C2551 C2554 1.458 1_456 S
C2551 C2556 1.375 . S
C2551 N2559 1.406 1_455 S
C2552 H2543 0.930 . S
C2552 C2550 1.378 . S
C2552 C2553 1.367 . S
C2553 C2552 1.367 . S
C2553 C2555 1.433 1_655 S
C2554 C2550 1.369 . S
C2554 C2551 1.458 1_654 S
C2554 N2558 1.411 1_655 S
C2555 H2545 0.929 . S
C2555 C2553 1.433 1_455 S
C2555 N2558 1.384 . S
C2556 H2547 0.929 . S
C2556 C2548 1.378 . S
C2556 C2551 1.375 . S
C2557 H2544 0.929 . S
C2557 C2549 1.433 1_655 S
C2557 N2559 1.384 . S
N2558 C2554 1.411 1_455 S
N2558 C2555 1.384 . S
N2559 C2551 1.406 1_655 S
N2559 C2557 1.384 . S
H2560 C2566 0.930 . S
H2561 C2570 0.930 . S
H2562 C2575 0.929 . S
H2563 C2573 0.929 . S
H2564 C2568 0.929 . S
H2565 C2574 0.929 . S
C2566 H2560 0.930 . S
C2566 C2567 1.367 . S
C2566 C2574 1.378 . S
C2567 C2566 1.367 . S
C2567 C2575 1.433 . S
C2568 H2564 0.929 . S
C2568 C2570 1.378 . S
C2568 C2572 1.350 . S
C2569 C2572 1.463 . S
C2569 C2574 1.350 . S
C2569 N2577 1.427 . S
C2570 H2561 0.930 . S
C2570 C2568 1.378 . S
C2570 C2571 1.367 . S
C2571 C2570 1.367 . S
C2571 C2573 1.433 . S
C2572 C2568 1.350 . S
C2572 C2569 1.463 . S
C2572 N2576 1.427 . S
C2573 H2563 0.929 . S
C2573 C2571 1.433 . S
C2573 N2576 1.384 . S
C2574 H2565 0.929 . S
C2574 C2566 1.378 . S
C2574 C2569 1.350 . S
C2575 H2562 0.929 . S
C2575 C2567 1.433 . S
C2575 N2577 1.384 . S
N2576 C2572 1.427 . S
N2576 C2573 1.384 . S
N2577 C2569 1.427 . S
N2577 C2575 1.384 . S
H2578 C2584 0.930 . S
H2579 C2588 0.930 . S
H2580 C2593 0.929 . S
H2581 C2591 0.929 . S
H2582 C2586 0.929 . S
H2583 C2592 0.929 . S
C2584 H2578 0.930 . S
C2584 C2585 1.367 . S
C2584 C2592 1.378 . S
C2585 C2584 1.367 . S
C2585 C2593 1.433 . S
C2586 H2582 0.929 . S
C2586 C2588 1.378 . S
C2586 C2590 1.350 . S
C2587 C2590 1.463 . S
C2587 C2592 1.350 . S
C2587 N2595 1.427 . S
C2588 H2579 0.930 . S
C2588 C2586 1.378 . S
C2588 C2589 1.367 . S
C2589 C2588 1.367 . S
C2589 C2591 1.433 . S
C2590 C2586 1.350 . S
C2590 C2587 1.463 . S
C2590 N2594 1.427 . S
C2591 H2581 0.929 . S
C2591 C2589 1.433 . S
C2591 N2594 1.384 . S
C2592 H2583 0.929 . S
C2592 C2584 1.378 . S
C2592 C2587 1.350 . S
C2593 H2580 0.929 . S
C2593 C2585 1.433 . S
C2593 N2595 1.384 . S
N2594 C2590 1.427 . S
N2594 C2591 1.384 . S
N2595 C2587 1.427 . S
N2595 C2593 1.384 . S
H2596 C2602 0.930 . S
H2597 C2606 0.930 . S
H2598 C2611 0.929 . S
H2599 C2609 0.929 . S
H2600 C2604 0.929 . S
H2601 C2610 0.929 . S
C2602 H2596 0.930 . S
C2602 C2603 1.367 . S
C2602 C2610 1.378 . S
C2603 C2602 1.367 . S
C2603 C2611 1.433 . S
C2604 H2600 0.929 . S
C2604 C2606 1.378 . S
C2604 C2608 1.350 . S
C2605 C2608 1.463 . S
C2605 C2610 1.350 . S
C2605 N2613 1.427 . S
C2606 H2597 0.930 . S
C2606 C2604 1.378 . S
C2606 C2607 1.367 . S
C2607 C2606 1.367 . S
C2607 C2609 1.433 . S
C2608 C2604 1.350 . S
C2608 C2605 1.463 . S
C2608 N2612 1.427 . S
C2609 H2599 0.929 . S
C2609 C2607 1.433 . S
C2609 N2612 1.384 . S
C2610 H2601 0.929 . S
C2610 C2602 1.378 . S
C2610 C2605 1.350 . S
C2611 H2598 0.929 . S
C2611 C2603 1.433 . S
C2611 N2613 1.384 . S
N2612 C2608 1.427 . S
N2612 C2609 1.384 . S
N2613 C2605 1.427 . S
N2613 C2611 1.384 . S
H2614 C2620 0.930 . S
H2615 C2624 0.930 . S
H2616 C2629 0.929 . S
H2617 C2627 0.929 . S
H2618 C2622 0.929 . S
H2619 C2628 0.929 . S
C2620 H2614 0.930 . S
C2620 C2621 1.367 . S
C2620 C2628 1.378 . S
C2621 C2620 1.367 . S
C2621 C2629 1.433 . S
C2622 H2618 0.929 . S
C2622 C2624 1.378 . S
C2622 C2626 1.350 . S
C2623 C2626 1.463 . S
C2623 C2628 1.350 . S
C2623 N2631 1.427 . S
C2624 H2615 0.930 . S
C2624 C2622 1.378 . S
C2624 C2625 1.367 . S
C2625 C2624 1.367 . S
C2625 C2627 1.433 . S
C2626 C2622 1.350 . S
C2626 C2623 1.463 . S
C2626 N2630 1.427 . S
C2627 H2617 0.929 . S
C2627 C2625 1.433 . S
C2627 N2630 1.384 . S
C2628 H2619 0.929 . S
C2628 C2620 1.378 . S
C2628 C2623 1.350 . S
C2629 H2616 0.929 . S
C2629 C2621 1.433 . S
C2629 N2631 1.384 . S
N2630 C2626 1.427 . S
N2630 C2627 1.384 . S
N2631 C2623 1.427 . S
N2631 C2629 1.384 . S
H2632 C2638 0.930 . S
H2633 C2642 0.930 . S
H2634 C2647 0.929 . S
H2635 C2645 0.929 . S
H2636 C2640 0.929 . S
H2637 C2646 0.929 . S
C2638 H2632 0.930 . S
C2638 C2639 1.367 . S
C2638 C2646 1.378 . S
C2639 C2638 1.367 . S
C2639 C2647 1.433 . S
C2640 H2636 0.929 . S
C2640 C2642 1.378 . S
C2640 C2644 1.350 . S
C2641 C2644 1.463 . S
C2641 C2646 1.350 . S
C2641 N2649 1.427 . S
C2642 H2633 0.930 . S
C2642 C2640 1.378 . S
C2642 C2643 1.367 . S
C2643 C2642 1.367 . S
C2643 C2645 1.433 . S
C2644 C2640 1.350 . S
C2644 C2641 1.463 . S
C2644 N2648 1.427 . S
C2645 H2635 0.929 . S
C2645 C2643 1.433 . S
C2645 N2648 1.384 . S
C2646 H2637 0.929 . S
C2646 C2638 1.378 . S
C2646 C2641 1.350 . S
C2647 H2634 0.929 . S
C2647 C2639 1.433 . S
C2647 N2649 1.384 . S
N2648 C2644 1.427 . S
N2648 C2645 1.384 . S
N2649 C2641 1.427 . S
N2649 C2647 1.384 . S
H2650 C2656 0.930 . S
H2651 C2660 0.930 . S
H2652 C2665 0.929 . S
H2653 C2663 0.929 . S
H2654 C2658 0.929 . S
H2655 C2664 0.929 . S
C2656 H2650 0.930 . S
C2656 C2657 1.367 . S
C2656 C2664 1.378 . S
C2657 C2656 1.367 . S
C2657 C2665 1.433 . S
C2658 H2654 0.929 . S
C2658 C2660 1.378 . S
C2658 C2662 1.350 . S
C2659 C2662 1.463 . S
C2659 C2664 1.350 . S
C2659 N2667 1.427 . S
C2660 H2651 0.930 . S
C2660 C2658 1.378 . S
C2660 C2661 1.367 . S
C2661 C2660 1.367 . S
C2661 C2663 1.433 . S
C2662 C2658 1.350 . S
C2662 C2659 1.463 . S
C2662 N2666 1.427 . S
C2663 H2653 0.929 . S
C2663 C2661 1.433 . S
C2663 N2666 1.384 . S
C2664 H2655 0.929 . S
C2664 C2656 1.378 . S
C2664 C2659 1.350 . S
C2665 H2652 0.929 . S
C2665 C2657 1.433 . S
C2665 N2667 1.384 . S
N2666 C2662 1.427 . S
N2666 C2663 1.384 . S
N2667 C2659 1.427 . S
N2667 C2665 1.384 . S
H2668 C2674 0.930 . S
H2669 C2678 0.930 . S
H2670 C2683 0.929 . S
H2671 C2681 0.929 . S
H2672 C2676 0.929 . S
H2673 C2682 0.929 . S
C2674 H2668 0.930 . S
C2674 C2675 1.367 . S
C2674 C2682 1.378 . S
C2675 C2674 1.367 . S
C2675 C2683 1.433 . S
C2676 H2672 0.929 . S
C2676 C2678 1.378 . S
C2676 C2680 1.350 . S
C2677 C2680 1.463 . S
C2677 C2682 1.350 . S
C2677 N2685 1.427 . S
C2678 H2669 0.930 . S
C2678 C2676 1.378 . S
C2678 C2679 1.367 . S
C2679 C2678 1.367 . S
C2679 C2681 1.433 . S
C2680 C2676 1.350 . S
C2680 C2677 1.463 . S
C2680 N2684 1.427 . S
C2681 H2671 0.929 . S
C2681 C2679 1.433 . S
C2681 N2684 1.384 . S
C2682 H2673 0.929 . S
C2682 C2674 1.378 . S
C2682 C2677 1.350 . S
C2683 H2670 0.929 . S
C2683 C2675 1.433 . S
C2683 N2685 1.384 . S
N2684 C2680 1.427 . S
N2684 C2681 1.384 . S
N2685 C2677 1.427 . S
N2685 C2683 1.384 . S
H2686 C2692 0.930 . S
H2687 C2696 0.930 . S
H2688 C2701 0.929 . S
H2689 C2699 0.929 . S
H2690 C2694 0.929 . S
H2691 C2700 0.929 . S
C2692 H2686 0.930 . S
C2692 C2693 1.367 . S
C2692 C2700 1.378 . S
C2693 C2692 1.367 . S
C2693 C2701 1.433 . S
C2694 H2690 0.929 . S
C2694 C2696 1.378 . S
C2694 C2698 1.350 . S
C2695 C2698 1.463 . S
C2695 C2700 1.350 . S
C2695 N2703 1.427 . S
C2696 H2687 0.930 . S
C2696 C2694 1.378 . S
C2696 C2697 1.367 . S
C2697 C2696 1.367 . S
C2697 C2699 1.433 . S
C2698 C2694 1.350 . S
C2698 C2695 1.463 . S
C2698 N2702 1.427 . S
C2699 H2689 0.929 . S
C2699 C2697 1.433 . S
C2699 N2702 1.384 . S
C2700 H2691 0.929 . S
C2700 C2692 1.378 . S
C2700 C2695 1.350 . S
C2701 H2688 0.929 . S
C2701 C2693 1.433 . S
C2701 N2703 1.384 . S
N2702 C2698 1.427 . S
N2702 C2699 1.384 . S
N2703 C2695 1.427 . S
N2703 C2701 1.384 . S
H2704 C2710 0.930 . S
H2705 C2714 0.930 . S
H2706 C2719 0.929 . S
H2707 C2717 0.929 . S
H2708 C2712 0.929 . S
H2709 C2718 0.929 . S
C2710 H2704 0.930 . S
C2710 C2711 1.367 . S
C2710 C2718 1.378 . S
C2711 C2710 1.367 . S
C2711 C2719 1.433 . S
C2712 H2708 0.929 . S
C2712 C2714 1.378 . S
C2712 C2716 1.350 . S
C2713 C2716 1.463 . S
C2713 C2718 1.350 . S
C2713 N2721 1.427 . S
C2714 H2705 0.930 . S
C2714 C2712 1.378 . S
C2714 C2715 1.367 . S
C2715 C2714 1.367 . S
C2715 C2717 1.433 . S
C2716 C2712 1.350 . S
C2716 C2713 1.463 . S
C2716 N2720 1.427 . S
C2717 H2707 0.929 . S
C2717 C2715 1.433 . S
C2717 N2720 1.384 . S
C2718 H2709 0.929 . S
C2718 C2710 1.378 . S
C2718 C2713 1.350 . S
C2719 H2706 0.929 . S
C2719 C2711 1.433 . S
C2719 N2721 1.384 . S
N2720 C2716 1.427 . S
N2720 C2717 1.384 . S
N2721 C2713 1.427 . S
N2721 C2719 1.384 . S
H2722 C2728 0.930 . S
H2723 C2732 0.930 . S
H2724 C2737 0.929 . S
H2725 C2735 0.929 . S
H2726 C2730 0.929 . S
H2727 C2736 0.929 . S
C2728 H2722 0.930 . S
C2728 C2729 1.367 . S
C2728 C2736 1.378 . S
C2729 C2728 1.367 . S
C2729 C2737 1.433 . S
C2730 H2726 0.929 . S
C2730 C2732 1.378 . S
C2730 C2734 1.350 . S
C2731 C2734 1.463 . S
C2731 C2736 1.350 . S
C2731 N2739 1.427 . S
C2732 H2723 0.930 . S
C2732 C2730 1.378 . S
C2732 C2733 1.367 . S
C2733 C2732 1.367 . S
C2733 C2735 1.433 . S
C2734 C2730 1.350 . S
C2734 C2731 1.463 . S
C2734 N2738 1.427 . S
C2735 H2725 0.929 . S
C2735 C2733 1.433 . S
C2735 N2738 1.384 . S
C2736 H2727 0.929 . S
C2736 C2728 1.378 . S
C2736 C2731 1.350 . S
C2737 H2724 0.929 . S
C2737 C2729 1.433 . S
C2737 N2739 1.384 . S
N2738 C2734 1.427 . S
N2738 C2735 1.384 . S
N2739 C2731 1.427 . S
N2739 C2737 1.384 . S
H2740 C2746 0.930 . S
H2741 C2750 0.930 . S
H2742 C2755 0.929 . S
H2743 C2753 0.929 . S
H2744 C2748 0.929 . S
H2745 C2754 0.929 . S
C2746 H2740 0.930 . S
C2746 C2747 1.367 . S
C2746 C2754 1.378 . S
C2747 C2746 1.367 . S
C2747 C2755 1.433 . S
C2748 H2744 0.929 . S
C2748 C2750 1.378 . S
C2748 C2752 1.350 . S
C2749 C2752 1.463 . S
C2749 C2754 1.350 . S
C2749 N2757 1.427 . S
C2750 H2741 0.930 . S
C2750 C2748 1.378 . S
C2750 C2751 1.367 . S
C2751 C2750 1.367 . S
C2751 C2753 1.433 . S
C2752 C2748 1.350 . S
C2752 C2749 1.463 . S
C2752 N2756 1.427 . S
C2753 H2743 0.929 . S
C2753 C2751 1.433 . S
C2753 N2756 1.384 . S
C2754 H2745 0.929 . S
C2754 C2746 1.378 . S
C2754 C2749 1.350 . S
C2755 H2742 0.929 . S
C2755 C2747 1.433 . S
C2755 N2757 1.384 . S
N2756 C2752 1.427 . S
N2756 C2753 1.384 . S
N2757 C2749 1.427 . S
N2757 C2755 1.384 . S
H2758 C2764 0.930 . S
H2759 C2768 0.930 . S
H2760 C2773 0.929 . S
H2761 C2771 0.929 . S
H2762 C2766 0.929 . S
H2763 C2772 0.929 . S
C2764 H2758 0.930 . S
C2764 C2765 1.367 . S
C2764 C2772 1.378 . S
C2765 C2764 1.367 . S
C2765 C2773 1.433 . S
C2766 H2762 0.929 . S
C2766 C2768 1.378 . S
C2766 C2770 1.350 . S
C2767 C2770 1.463 . S
C2767 C2772 1.350 . S
C2767 N2775 1.427 . S
C2768 H2759 0.930 . S
C2768 C2766 1.378 . S
C2768 C2769 1.367 . S
C2769 C2768 1.367 . S
C2769 C2771 1.433 . S
C2770 C2766 1.350 . S
C2770 C2767 1.463 . S
C2770 N2774 1.427 . S
C2771 H2761 0.929 . S
C2771 C2769 1.433 . S
C2771 N2774 1.384 . S
C2772 H2763 0.929 . S
C2772 C2764 1.378 . S
C2772 C2767 1.350 . S
C2773 H2760 0.929 . S
C2773 C2765 1.433 . S
C2773 N2775 1.384 . S
N2774 C2770 1.427 . S
N2774 C2771 1.384 . S
N2775 C2767 1.427 . S
N2775 C2773 1.384 . S
H2776 C2782 0.930 . S
H2777 C2786 0.930 . S
H2778 C2791 0.929 . S
H2779 C2789 0.929 . S
H2780 C2784 0.929 . S
H2781 C2790 0.929 . S
C2782 H2776 0.930 . S
C2782 C2783 1.367 . S
C2782 C2790 1.378 . S
C2783 C2782 1.367 . S
C2783 C2791 1.433 . S
C2784 H2780 0.929 . S
C2784 C2786 1.378 . S
C2784 C2788 1.350 . S
C2785 C2788 1.463 . S
C2785 C2790 1.350 . S
C2785 N2793 1.427 . S
C2786 H2777 0.930 . S
C2786 C2784 1.378 . S
C2786 C2787 1.367 . S
C2787 C2786 1.367 . S
C2787 C2789 1.433 . S
C2788 C2784 1.350 . S
C2788 C2785 1.463 . S
C2788 N2792 1.427 . S
C2789 H2779 0.929 . S
C2789 C2787 1.433 . S
C2789 N2792 1.384 . S
C2790 H2781 0.929 . S
C2790 C2782 1.378 . S
C2790 C2785 1.350 . S
C2791 H2778 0.929 . S
C2791 C2783 1.433 . S
C2791 N2793 1.384 . S
N2792 C2788 1.427 . S
N2792 C2789 1.384 . S
N2793 C2785 1.427 . S
N2793 C2791 1.384 . S
H2794 C2800 0.930 . S
H2795 C2804 0.930 . S
H2796 C2809 0.929 . S
H2797 C2807 0.929 . S
H2798 C2802 0.929 . S
H2799 C2808 0.929 . S
C2800 H2794 0.930 . S
C2800 C2801 1.367 . S
C2800 C2808 1.378 . S
C2801 C2800 1.367 . S
C2801 C2809 1.433 . S
C2802 H2798 0.929 . S
C2802 C2804 1.378 . S
C2802 C2806 1.350 . S
C2803 C2806 1.463 . S
C2803 C2808 1.350 . S
C2803 N2811 1.427 . S
C2804 H2795 0.930 . S
C2804 C2802 1.378 . S
C2804 C2805 1.367 . S
C2805 C2804 1.367 . S
C2805 C2807 1.433 . S
C2806 C2802 1.350 . S
C2806 C2803 1.463 . S
C2806 N2810 1.427 . S
C2807 H2797 0.929 . S
C2807 C2805 1.433 . S
C2807 N2810 1.384 . S
C2808 H2799 0.929 . S
C2808 C2800 1.378 . S
C2808 C2803 1.350 . S
C2809 H2796 0.929 . S
C2809 C2801 1.433 . S
C2809 N2811 1.384 . S
N2810 C2806 1.427 . S
N2810 C2807 1.384 . S
N2811 C2803 1.427 . S
N2811 C2809 1.384 . S
H2812 C2818 0.930 . S
H2813 C2822 0.930 . S
H2814 C2827 0.929 . S
H2815 C2825 0.929 . S
H2816 C2820 0.929 . S
H2817 C2826 0.929 . S
C2818 H2812 0.930 . S
C2818 C2819 1.367 . S
C2818 C2826 1.378 . S
C2819 C2818 1.367 . S
C2819 C2827 1.433 . S
C2820 H2816 0.929 . S
C2820 C2822 1.378 . S
C2820 C2824 1.350 . S
C2821 C2824 1.463 . S
C2821 C2826 1.350 . S
C2821 N2829 1.427 . S
C2822 H2813 0.930 . S
C2822 C2820 1.378 . S
C2822 C2823 1.367 . S
C2823 C2822 1.367 . S
C2823 C2825 1.433 . S
C2824 C2820 1.350 . S
C2824 C2821 1.463 . S
C2824 N2828 1.427 . S
C2825 H2815 0.929 . S
C2825 C2823 1.433 . S
C2825 N2828 1.384 . S
C2826 H2817 0.929 . S
C2826 C2818 1.378 . S
C2826 C2821 1.350 . S
C2827 H2814 0.929 . S
C2827 C2819 1.433 . S
C2827 N2829 1.384 . S
N2828 C2824 1.427 . S
N2828 C2825 1.384 . S
N2829 C2821 1.427 . S
N2829 C2827 1.384 . S
H2830 C2836 0.930 . S
H2831 C2840 0.930 . S
H2832 C2845 0.929 . S
H2833 C2843 0.929 . S
H2834 C2838 0.929 . S
H2835 C2844 0.929 . S
C2836 H2830 0.930 . S
C2836 C2837 1.367 . S
C2836 C2844 1.378 . S
C2837 C2836 1.367 . S
C2837 C2845 1.433 . S
C2838 H2834 0.929 . S
C2838 C2840 1.378 . S
C2838 C2842 1.350 . S
C2839 C2842 1.463 . S
C2839 C2844 1.350 . S
C2839 N2847 1.427 . S
C2840 H2831 0.930 . S
C2840 C2838 1.378 . S
C2840 C2841 1.367 . S
C2841 C2840 1.367 . S
C2841 C2843 1.433 . S
C2842 C2838 1.350 . S
C2842 C2839 1.463 . S
C2842 N2846 1.427 . S
C2843 H2833 0.929 . S
C2843 C2841 1.433 . S
C2843 N2846 1.384 . S
C2844 H2835 0.929 . S
C2844 C2836 1.378 . S
C2844 C2839 1.350 . S
C2845 H2832 0.929 . S
C2845 C2837 1.433 . S
C2845 N2847 1.384 . S
N2846 C2842 1.427 . S
N2846 C2843 1.384 . S
N2847 C2839 1.427 . S
N2847 C2845 1.384 . S
C1703 C38 1.814 . S
C1707 C144 1.816 . S
C1721 C197 1.800 . S
C1725 C91 1.802 . S
C1739 C356 1.821 . S
C1743 C250 1.821 . S
C1757 C409 1.808 . S
C1761 C303 1.807 . S
C1775 C462 1.814 . S
C1779 C568 1.817 . S
C1793 C621 1.800 . S
C1797 C515 1.802 . S
C1811 C674 1.828 . S
C1815 C780 1.829 . S
C1829 C833 1.815 . S
C1833 C727 1.815 . S
C1847 C886 1.778 . S
C1851 C992 1.779 . S
C1865 C939 1.818 . S
C1869 C1045 1.817 . S
C1883 C1204 1.789 . S
C1887 C1098 1.791 . S
C1901 C1151 1.819 . S
C1905 C1257 1.818 . S
C1919 C1416 1.785 . S
C1923 C1310 1.783 . S
C1937 C1469 1.809 . S
C1941 C1363 1.811 . S
C1955 C1628 1.791 . S
C1959 C1522 1.792 . S
C1973 C1575 1.819 . S
C1977 C1681 1.817 . S
C1991 C1347 2.022 . S
C1995 C22 2.023 . S
C2009 C75 2.015 . S
C2013 C1294 2.010 . S
C2027 C128 2.022 . S
C2031 C1453 2.020 . S
C2045 C181 2.015 . S
C2049 C1400 2.008 . S
C2063 C1559 2.021 . S
C2067 C234 2.020 . S
C2081 C287 2.011 . S
C2085 C1506 2.007 . S
C2099 C340 2.021 . S
C2103 C1665 2.020 . S
C2117 C1612 2.011 . S
C2121 C393 2.007 . S
C2135 C446 2.022 . S
C2139 C923 2.020 . S
C2153 C499 2.014 . S
C2157 C870 2.010 . S
C2171 C552 2.022 . S
C2175 C1029 2.020 . S
C2189 C605 2.015 . S
C2193 C976 2.010 . S
C2207 C658 2.019 . S
C2211 C1135 2.018 . S
C2225 C1082 2.012 . S
C2229 C711 2.006 . S
C2243 C1241 2.018 . S
C2247 C764 2.020 . S
C2261 C817 2.014 . S
C2265 C1188 2.006 . S
C2279 C39 1.859 . S
C2283 C251 1.851 . S
C2297 C92 1.839 . S
C2301 C1576 1.830 . S
C2315 C145 1.858 . S
C2319 C781 1.851 . S
C2333 C198 1.848 . S
C2337 C1258 1.839 . S
C2351 C304 1.838 . S
C2355 C1364 1.845 . S
C2369 C569 1.857 . S
C2373 C357 1.849 . S
C2387 C1046 1.849 . S
C2391 C410 1.843 . S
C2405 C675 1.844 . S
C2409 C463 1.852 . S
C2423 C516 1.839 . S
C2427 C1152 1.830 . S
C2441 C1682 1.840 . S
C2445 C622 1.848 . S
C2459 C728 1.838 . S
C2463 C940 1.845 . S
C2477 C834 1.842 . S
C2481 C1470 1.848 . S
C2495 C1099 1.820 . S
C2499 C887 1.827 . S
C2513 C993 1.830 . S
C2517 C1629 1.823 . S
C2531 C1417 1.820 . S
C2535 C1205 1.812 . S
C2549 C1523 1.813 . S
C2553 C1311 1.821 . S
C2567 C29 1.062 . S
C2571 C82 1.060 . S
C2585 C135 1.054 . S
C2589 C188 1.058 . S
C2603 C241 1.058 . S
C2607 C294 1.062 . S
C2621 C347 1.062 . S
C2625 C400 1.062 . S
C2639 C506 1.053 . S
C2643 C453 1.053 . S
C2657 C559 1.057 . S
C2661 C612 1.053 . S
C2675 C665 1.056 . S
C2679 C718 1.060 . S
C2693 C771 1.062 . S
C2697 C824 1.059 . S
C2711 C877 1.070 . S
C2715 C930 1.074 . S
C2729 C1036 1.069 . S
C2733 C983 1.079 . S
C2747 C1089 1.074 . S
C2751 C1142 1.076 . S
C2765 C1195 1.070 . S
C2769 C1248 1.080 . S
C2783 C1354 1.072 . S
C2787 C1301 1.081 . S
C2801 C1407 1.068 . S
C2805 C1460 1.077 . S
C2819 C1566 1.070 . S
C2823 C1513 1.080 . S
C2837 C1619 1.076 . S
C2841 C1672 1.078 . S
