# Generated by pormake.
# Topology crs, (6)-cn, num edge types: 1
# Building blocks:
#     Node 0, Type 0, BuildingBlock: INOVEN_clean_sbu_0, # of connection points: 6
#     Node 1, Type 0, BuildingBlock: INOVEN_clean_sbu_0, # of connection points: 6
#     Node 2, Type 0, BuildingBlock: INOVEN_clean_sbu_0, # of connection points: 6
#     Node 3, Type 0, BuildingBlock: INOVEN_clean_sbu_0, # of connection points: 6
#     Node 4, Type 0, BuildingBlock: INOVEN_clean_sbu_0, # of connection points: 6
#     Node 5, Type 0, BuildingBlock: INOVEN_clean_sbu_0, # of connection points: 6
#     Node 6, Type 0, BuildingBlock: INOVEN_clean_sbu_0, # of connection points: 6
#     Node 7, Type 0, BuildingBlock: INOVEN_clean_sbu_0, # of connection points: 6
#     Node 8, Type 0, BuildingBlock: INOVEN_clean_sbu_0, # of connection points: 6
#     Node 9, Type 0, BuildingBlock: INOVEN_clean_sbu_0, # of connection points: 6
#     Node 10, Type 0, BuildingBlock: INOVEN_clean_sbu_0, # of connection points: 6
#     Node 11, Type 0, BuildingBlock: INOVEN_clean_sbu_0, # of connection points: 6
#     Node 12, Type 0, BuildingBlock: INOVEN_clean_sbu_0, # of connection points: 6
#     Node 13, Type 0, BuildingBlock: INOVEN_clean_sbu_0, # of connection points: 6
#     Node 14, Type 0, BuildingBlock: INOVEN_clean_sbu_0, # of connection points: 6
#     Node 15, Type 0, BuildingBlock: INOVEN_clean_sbu_0, # of connection points: 6
#     Edge 16, Type (0, 0), BuildingBlock: XIVTED_clean_linker_0, # of connection points: 2
#     Edge 17, Type (0, 0), BuildingBlock: XIVTED_clean_linker_0, # of connection points: 2
#     Edge 18, Type (0, 0), BuildingBlock: XIVTED_clean_linker_0, # of connection points: 2
#     Edge 19, Type (0, 0), BuildingBlock: XIVTED_clean_linker_0, # of connection points: 2
#     Edge 20, Type (0, 0), BuildingBlock: XIVTED_clean_linker_0, # of connection points: 2
#     Edge 21, Type (0, 0), BuildingBlock: XIVTED_clean_linker_0, # of connection points: 2
#     Edge 22, Type (0, 0), BuildingBlock: XIVTED_clean_linker_0, # of connection points: 2
#     Edge 23, Type (0, 0), BuildingBlock: XIVTED_clean_linker_0, # of connection points: 2
#     Edge 24, Type (0, 0), BuildingBlock: XIVTED_clean_linker_0, # of connection points: 2
#     Edge 25, Type (0, 0), BuildingBlock: XIVTED_clean_linker_0, # of connection points: 2
#     Edge 26, Type (0, 0), BuildingBlock: XIVTED_clean_linker_0, # of connection points: 2
#     Edge 27, Type (0, 0), BuildingBlock: XIVTED_clean_linker_0, # of connection points: 2
#     Edge 28, Type (0, 0), BuildingBlock: XIVTED_clean_linker_0, # of connection points: 2
#     Edge 29, Type (0, 0), BuildingBlock: XIVTED_clean_linker_0, # of connection points: 2
#     Edge 30, Type (0, 0), BuildingBlock: XIVTED_clean_linker_0, # of connection points: 2
#     Edge 31, Type (0, 0), BuildingBlock: XIVTED_clean_linker_0, # of connection points: 2
#     Edge 32, Type (0, 0), BuildingBlock: XIVTED_clean_linker_0, # of connection points: 2
#     Edge 33, Type (0, 0), BuildingBlock: XIVTED_clean_linker_0, # of connection points: 2
#     Edge 34, Type (0, 0), BuildingBlock: XIVTED_clean_linker_0, # of connection points: 2
#     Edge 35, Type (0, 0), BuildingBlock: XIVTED_clean_linker_0, # of connection points: 2
#     Edge 36, Type (0, 0), BuildingBlock: XIVTED_clean_linker_0, # of connection points: 2
#     Edge 37, Type (0, 0), BuildingBlock: XIVTED_clean_linker_0, # of connection points: 2
#     Edge 38, Type (0, 0), BuildingBlock: XIVTED_clean_linker_0, # of connection points: 2
#     Edge 39, Type (0, 0), BuildingBlock: XIVTED_clean_linker_0, # of connection points: 2
#     Edge 40, Type (0, 0), BuildingBlock: XIVTED_clean_linker_0, # of connection points: 2
#     Edge 41, Type (0, 0), BuildingBlock: XIVTED_clean_linker_0, # of connection points: 2
#     Edge 42, Type (0, 0), BuildingBlock: XIVTED_clean_linker_0, # of connection points: 2
#     Edge 43, Type (0, 0), BuildingBlock: XIVTED_clean_linker_0, # of connection points: 2
#     Edge 44, Type (0, 0), BuildingBlock: XIVTED_clean_linker_0, # of connection points: 2
#     Edge 45, Type (0, 0), BuildingBlock: XIVTED_clean_linker_0, # of connection points: 2
#     Edge 46, Type (0, 0), BuildingBlock: XIVTED_clean_linker_0, # of connection points: 2
#     Edge 47, Type (0, 0), BuildingBlock: XIVTED_clean_linker_0, # of connection points: 2
#     Edge 48, Type (0, 0), BuildingBlock: XIVTED_clean_linker_0, # of connection points: 2
#     Edge 49, Type (0, 0), BuildingBlock: XIVTED_clean_linker_0, # of connection points: 2
#     Edge 50, Type (0, 0), BuildingBlock: XIVTED_clean_linker_0, # of connection points: 2
#     Edge 51, Type (0, 0), BuildingBlock: XIVTED_clean_linker_0, # of connection points: 2
#     Edge 52, Type (0, 0), BuildingBlock: XIVTED_clean_linker_0, # of connection points: 2
#     Edge 53, Type (0, 0), BuildingBlock: XIVTED_clean_linker_0, # of connection points: 2
#     Edge 54, Type (0, 0), BuildingBlock: XIVTED_clean_linker_0, # of connection points: 2
#     Edge 55, Type (0, 0), BuildingBlock: XIVTED_clean_linker_0, # of connection points: 2
#     Edge 56, Type (0, 0), BuildingBlock: XIVTED_clean_linker_0, # of connection points: 2
#     Edge 57, Type (0, 0), BuildingBlock: XIVTED_clean_linker_0, # of connection points: 2
#     Edge 58, Type (0, 0), BuildingBlock: XIVTED_clean_linker_0, # of connection points: 2
#     Edge 59, Type (0, 0), BuildingBlock: XIVTED_clean_linker_0, # of connection points: 2
#     Edge 60, Type (0, 0), BuildingBlock: XIVTED_clean_linker_0, # of connection points: 2
#     Edge 61, Type (0, 0), BuildingBlock: XIVTED_clean_linker_0, # of connection points: 2
#     Edge 62, Type (0, 0), BuildingBlock: XIVTED_clean_linker_0, # of connection points: 2
#     Edge 63, Type (0, 0), BuildingBlock: XIVTED_clean_linker_0, # of connection points: 2
# Relax obj value: 0.419
# Max RMSD: 0.350
# Mean RMSD: 0.291
data_MOF--net-crs--node1-INOVEN_clean_sbu_0--edge1-XIVTED_clean_linker_0
_symmetry_space_group_name_H-M    P1
_symmetry_Int_Tables_number       1
_symmetry_cell_setting            triclinic
loop_
_symmetry_equiv_pos_as_xyz
'x, y, z'
_cell_length_a     55.018911
_cell_length_b     55.838606
_cell_length_c     44.864027
_cell_angle_alpha  72.43059
_cell_angle_beta   75.235991
_cell_angle_gamma 62.699713
loop_
_atom_site_label
_atom_site_type_symbol
_atom_site_fract_x
_atom_site_fract_y
_atom_site_fract_z
_atom_type_partial_charge
Gd0 Gd 0.95226 0.03388 1.02503 0.0
Gd1 Gd 0.01682 1.00696 1.01138 0.0
C2 C -0.0146 0.97216 1.00867 0.0
C3 C 0.90004 0.05303 1.02275 0.0
C4 C 0.88265 0.04574 1.01038 0.0
C5 C 0.85396 0.0581 1.01813 0.0
C6 C 0.89452 0.02469 0.99346 0.0
C7 C 0.84935 0.02545 0.99653 0.0
C8 C 0.87804 0.01451 0.98667 0.0
C9 C 0.83741 0.04824 1.011 0.0
C10 C 0.979 0.0129 0.07618 0.0
C11 C -0.01671 0.06855 0.02832 0.0
C12 C 0.06894 0.98736 1.01457 0.0
C13 C 0.08577 0.99256 0.03044 0.0
C14 C 0.11442 0.97741 1.02735 0.0
C15 C 0.07358 0.01381 0.04705 0.0
C16 C 0.11898 1.00761 0.05312 0.0
C17 C 0.08998 0.02147 0.05806 0.0
C18 C 0.13089 0.98465 0.0389 0.0
C19 C -0.00978 0.02771 0.96007 0.0
O20 O 0.96215 0.9946 1.01068 0.0
O21 O 0.00935 0.97053 1.01205 0.0
O22 O 0.91205 0.03488 0.0468 0.0
O23 O 0.91644 0.06293 1.00182 0.0
O24 O 0.9551 0.03379 0.07431 0.0
O25 O -0.01399 1.00276 0.0521 0.0
O26 O 0.00645 0.04585 1.02722 0.0
O27 O 0.95968 0.07045 1.02348 0.0
O28 O 0.05677 1.00766 0.99193 0.0
O29 O 0.05283 0.97581 0.03298 0.0
O30 O 0.01447 1.00733 0.96182 0.0
O31 O -0.0169 0.03782 0.9842 0.0
H32 H 0.84444 0.07462 0.03085 0.0
H33 H 0.91662 0.01529 0.98675 0.0
H34 H 0.88806 0.99701 0.97547 0.0
H35 H 0.81532 0.05774 1.01807 0.0
H36 H 0.12414 0.96057 1.01509 0.0
H37 H 0.05143 0.02515 0.05049 0.0
H38 H 0.07987 0.03921 0.06884 0.0
H39 H 0.15304 0.97287 0.03558 0.0
Gd40 Gd -0.00695 0.27928 0.29409 0.0
Gd41 Gd 0.98011 0.24214 0.27159 0.0
C42 C 0.95528 0.24866 0.34138 0.0
C43 C -0.00605 0.31531 0.31875 0.0
C44 C -0.01261 0.32377 0.34914 0.0
C45 C 0.00059 0.30574 0.37542 0.0
C46 C 0.96948 0.35115 0.351 0.0
C47 C 0.97953 0.34297 0.40398 0.0
C48 C 0.9655 0.36064 0.37814 0.0
C49 C -0.00326 0.31527 0.40251 0.0
C50 C 0.03277 0.22714 0.29779 0.0
C51 C 0.01708 0.27386 0.22353 0.0
C52 C 0.9801 0.20444 0.24906 0.0
C53 C 0.98044 0.19737 0.21969 0.0
C54 C 0.00183 0.19582 0.19425 0.0
C55 C 0.9595 0.19026 0.21809 0.0
C56 C 0.98168 0.17912 0.16667 0.0
C57 C 0.96007 0.1813 0.19194 0.0
C58 C 0.00245 0.18675 0.16799 0.0
C59 C 0.93984 0.29409 0.26757 0.0
O60 O 0.96109 0.27044 0.33342 0.0
O61 O 0.96567 0.23064 0.32313 0.0
O62 O 0.01487 0.29179 0.31591 0.0
O63 O 0.9733 0.32002 0.3052 0.0
O64 O 0.0376 0.24904 0.28812 0.0
O65 O 0.00719 0.23352 0.30553 0.0
O66 O 0.01011 0.25284 0.23058 0.0
O67 O 0.00869 0.2906 0.24301 0.0
O68 O 0.95764 0.22433 0.25864 0.0
O69 O 0.00259 0.2044 0.25392 0.0
O70 O 0.93556 0.27199 0.2747 0.0
O71 O 0.96542 0.2881 0.26056 0.0
H72 H 0.01449 0.28446 0.3748 0.0
H73 H 0.95924 0.36552 0.33101 0.0
H74 H 0.95235 0.38217 0.3783 0.0
H75 H 0.00757 0.30105 0.42214 0.0
H76 H 0.01827 0.20119 0.19482 0.0
H77 H 0.94294 0.19101 0.23753 0.0
H78 H 0.944 0.17516 0.1921 0.0
H79 H 0.01927 0.18555 0.14882 0.0
Gd80 Gd 0.72711 0.2532 0.49556 0.0
Gd81 Gd 0.72783 0.29046 0.53502 0.0
C82 C 0.67391 0.27958 0.54561 0.0
C83 C 0.7227 0.21902 0.47184 0.0
C84 C 0.70904 0.20036 0.48017 0.0
C85 C 0.71064 0.18714 0.45736 0.0
C86 C 0.69425 0.19584 0.51023 0.0
C87 C 0.68228 0.16511 0.49424 0.0
C88 C 0.68098 0.1782 0.51728 0.0
C89 C 0.69742 0.16962 0.46432 0.0
C90 C 0.72204 0.30464 0.46402 0.0
C91 C 0.78371 0.25768 0.49127 0.0
C92 C 0.72423 0.33106 0.55428 0.0
C93 C 0.7386 0.33552 0.57426 0.0
C94 C 0.72432 0.34374 0.60272 0.0
C95 C 0.76603 0.33253 0.56494 0.0
C96 C 0.76392 0.34809 0.61106 0.0
C97 C 0.77853 0.33881 0.58313 0.0
C98 C 0.73691 0.34983 0.62106 0.0
C99 C 0.7444 0.23691 0.5684 0.0
O100 O 0.68871 0.2586 0.53142 0.0
O101 O 0.68319 0.29787 0.54456 0.0
O102 O 0.70641 0.24543 0.46703 0.0
O103 O 0.74265 0.21201 0.48797 0.0
O104 O 0.73572 0.28289 0.45215 0.0
O105 O 0.7107 0.2985 0.49172 0.0
O106 O 0.7695 0.27947 0.50439 0.0
O107 O 0.77259 0.24147 0.49 0.0
O108 O 0.70991 0.3165 0.56894 0.0
O109 O 0.73761 0.32543 0.52674 0.0
O110 O 0.74376 0.25664 0.57852 0.0
O111 O 0.7375 0.24697 0.5413 0.0
H112 H 0.7221 0.1904 0.4341 0.0
H113 H 0.69284 0.20603 0.52806 0.0
H114 H 0.66936 0.17518 0.54046 0.0
H115 H 0.69923 0.15941 0.44629 0.0
H116 H 0.70318 0.34605 0.61046 0.0
H117 H 0.77763 0.3261 0.54318 0.0
H118 H 0.7992 0.3377 0.5744 0.0
H119 H 0.72522 0.35662 0.64261 0.0
Gd120 Gd 0.7184 0.02024 0.7528 0.0
Gd121 Gd 0.76011 0.01938 0.78626 0.0
C122 C 0.75006 0.06152 0.72112 0.0
C123 C 0.67899 0.03239 0.7218 0.0
C124 C 0.66331 0.02073 0.71254 0.0
C125 C 0.6721 0.01126 0.68425 0.0
C126 C 0.63768 0.02215 0.72982 0.0
C127 C 0.62908 1.00683 0.68962 0.0
C128 C 0.62083 0.01517 0.71857 0.0
C129 C 0.65522 1.00428 0.67299 0.0
C130 C 0.76774 0.97649 0.74831 0.0
C131 C 0.72959 0.97774 0.81757 0.0
C132 C 0.79885 1.00506 0.8192 0.0
C133 C 0.81452 0.01295 0.8337 0.0
C134 C 0.82213 0.03503 0.81888 0.0
C135 C 0.82341 0.99653 0.86267 0.0
C136 C 0.84909 0.02267 0.86105 0.0
C137 C 0.84054 1.00128 0.87617 0.0
C138 C 0.83922 0.03995 0.83259 0.0
C139 C 0.70974 0.06199 0.79187 0.0
O140 O 0.72789 0.05691 0.72416 0.0
O141 O 0.76854 0.04684 0.74082 0.0
O142 O 0.67478 0.03412 0.75132 0.0
O143 O 0.70476 0.02598 0.70902 0.0
O144 O 0.74415 0.97615 0.74931 0.0
O145 O 0.76453 1.00073 0.7471 0.0
O146 O 0.75223 0.98179 0.81285 0.0
O147 O 0.71003 0.99325 0.7993 0.0
O148 O 0.8031 1.00791 0.78848 0.0
O149 O 0.77321 1.01011 0.83158 0.0
O150 O 0.73282 0.06344 0.79079 0.0
O151 O 0.71426 0.03756 0.79264 0.0
H152 H 0.69156 1.01027 0.67009 0.0
H153 H 0.63015 0.02959 0.75153 0.0
H154 H 0.60097 0.01699 0.73221 0.0
H155 H 0.66209 0.9982 0.65047 0.0
H156 H 0.81543 0.04797 0.79649 0.0
H157 H 0.8177 0.97945 0.87451 0.0
H158 H 0.84755 0.98784 0.89823 0.0
H159 H 0.8456 0.05651 0.82035 0.0
Gd160 Gd 0.48672 0.78051 0.2923 0.0
Gd161 Gd 0.47631 0.74303 0.26057 0.0
C162 C 0.45106 0.74493 0.33285 0.0
C163 C 0.47985 0.82194 0.31307 0.0
C164 C 0.48059 0.82886 0.34199 0.0
C165 C 0.50114 0.8115 0.36155 0.0
C166 C 0.46069 0.85392 0.34956 0.0
C167 C 0.48235 0.84488 0.39523 0.0
C168 C 0.46151 0.86185 0.37588 0.0
C169 C 0.50205 0.81949 0.38788 0.0
C170 C 0.52586 0.72731 0.3038 0.0
C171 C 0.51783 0.77231 0.22244 0.0
C172 C 0.47375 0.71001 0.23318 0.0
C173 C 0.48204 0.69193 0.21095 0.0
C174 C 0.48266 0.6654 0.22295 0.0
C175 C 0.48437 0.70219 0.17811 0.0
C176 C 0.48419 0.66102 0.1701 0.0
C177 C 0.48555 0.68679 0.15783 0.0
C178 C 0.48374 0.65009 0.20276 0.0
C179 C 0.43491 0.79345 0.26428 0.0
O180 O 0.45666 0.76643 0.32931 0.0
O181 O 0.4604 0.72985 0.31124 0.0
O182 O 0.50343 0.8067 0.29859 0.0
O183 O 0.45953 0.81564 0.31351 0.0
O184 O 0.5246 0.74685 0.31496 0.0
O185 O 0.5057 0.73731 0.28892 0.0
O186 O 0.51068 0.75179 0.22626 0.0
O187 O 0.50776 0.78884 0.24262 0.0
O188 O 0.46471 0.73677 0.22221 0.0
O189 O 0.48512 0.7011 0.25909 0.0
O190 O 0.43138 0.77141 0.26747 0.0
O191 O 0.46035 0.78822 0.25764 0.0
H192 H 0.51663 0.79194 0.35632 0.0
H193 H 0.44471 0.86764 0.33475 0.0
H194 H 0.44626 0.88171 0.3805 0.0
H195 H 0.51819 0.80579 0.40247 0.0
H196 H 0.48068 0.65712 0.24819 0.0
H197 H 0.48377 0.72267 0.16819 0.0
H198 H 0.48586 0.69578 0.13278 0.0
H199 H 0.48321 0.63007 0.21286 0.0
Gd200 Gd 0.22616 0.74351 0.49703 0.0
Gd201 Gd 0.23264 0.77668 0.53687 0.0
C202 C 0.17602 0.77041 0.54999 0.0
C203 C 0.2167 0.71171 0.47467 0.0
C204 C 0.20203 0.69384 0.48609 0.0
C205 C 0.19602 0.6846 0.4643 0.0
C206 C 0.19389 0.68597 0.51848 0.0
C207 C 0.17466 0.65887 0.50723 0.0
C208 C 0.1806 0.6682 0.52906 0.0
C209 C 0.18221 0.66735 0.4748 0.0
C210 C 0.2218 0.79496 0.46629 0.0
C211 C 0.28509 0.74488 0.48884 0.0
C212 C 0.23448 0.815 0.55546 0.0
C213 C 0.25413 0.8184 0.56857 0.0
C214 C 0.24434 0.83881 0.58593 0.0
C215 C 0.28266 0.80335 0.56138 0.0
C216 C 0.29134 0.83234 0.58439 0.0
C217 C 0.30119 0.81037 0.56915 0.0
C218 C 0.26284 0.84569 0.59392 0.0
C219 C 0.24802 0.72255 0.56851 0.0
O220 O 0.18871 0.75005 0.53466 0.0
O221 O 0.18747 0.78678 0.54946 0.0
O222 O 0.20114 0.73821 0.47156 0.0
O223 O 0.23896 0.70353 0.48741 0.0
O224 O 0.23239 0.77392 0.45329 0.0
O225 O 0.2122 0.78831 0.49486 0.0
O226 O 0.27315 0.76488 0.5047 0.0
O227 O 0.2721 0.73075 0.48638 0.0
O228 O 0.22327 0.79847 0.5738 0.0
O229 O 0.24182 0.8121 0.52612 0.0
O230 O 0.24933 0.74126 0.57868 0.0
O231 O 0.23986 0.73374 0.54197 0.0
H232 H 0.20202 0.69071 0.43921 0.0
H233 H 0.19775 0.69357 0.5355 0.0
H234 H 0.17462 0.66208 0.55415 0.0
H235 H 0.17777 0.66029 0.45766 0.0
H236 H 0.22235 0.85048 0.59173 0.0
H237 H 0.29053 0.78725 0.54827 0.0
H238 H 0.32308 0.79967 0.56176 0.0
H239 H 0.25467 0.8629 0.60538 0.0
Gd240 Gd 0.2172 0.50583 0.75386 0.0
Gd241 Gd 0.24732 0.51519 0.79021 0.0
C242 C 0.24611 0.54792 0.71888 0.0
C243 C 0.18712 0.50371 0.71986 0.0
C244 C 0.16781 0.51391 0.69682 0.0
C245 C 0.17635 0.50206 0.67038 0.0
C246 C 0.1397 0.53052 0.70428 0.0
C247 C 0.12853 0.51892 0.66287 0.0
C248 C 0.12024 0.53302 0.68743 0.0
C249 C 0.15689 0.50463 0.65345 0.0
C250 C 0.26714 0.46308 0.76275 0.0
C251 C 0.21828 0.47287 0.82474 0.0
C252 C 0.27644 0.51814 0.82483 0.0
C253 C 0.29236 0.50928 0.85098 0.0
C254 C 0.28672 0.52884 0.8682 0.0
C255 C 0.31508 0.48369 0.8563 0.0
C256 C 0.32835 0.49903 0.8928 0.0
C257 C 0.33282 0.47852 0.87728 0.0
C258 C 0.30449 0.52386 0.88877 0.0
C259 C 0.19747 0.55789 0.78074 0.0
O260 O 0.22539 0.54167 0.72008 0.0
O261 O 0.26122 0.53642 0.74218 0.0
O262 O 0.21315 0.49894 0.71039 0.0
O263 O 0.17773 0.51037 0.74743 0.0
O264 O 0.24469 0.46079 0.76363 0.0
O265 O 0.26282 0.48828 0.75598 0.0
O266 O 0.23868 0.47941 0.82418 0.0
O267 O 0.20328 0.48462 0.80143 0.0
O268 O 0.24957 0.52721 0.83077 0.0
O269 O 0.28736 0.50644 0.8005 0.0
O270 O 0.22002 0.56027 0.77914 0.0
O271 O 0.20175 0.53267 0.78806 0.0
H272 H 0.1979 0.48907 0.6642 0.0
H273 H 0.13247 0.53987 0.72459 0.0
H274 H 0.09857 0.54413 0.69542 0.0
H275 H 0.16395 0.49404 0.63419 0.0
H276 H 0.26939 0.5488 0.86427 0.0
H277 H 0.31978 0.46822 0.84334 0.0
H278 H 0.35061 0.45888 0.88035 0.0
H279 H 0.30038 0.54037 0.89979 0.0
Gd280 Gd 0.93994 0.50858 0.57106 0.0
Gd281 Gd 0.00043 0.49289 0.53773 0.0
C282 C 0.97514 0.44974 0.54778 0.0
C283 C 0.88897 0.51717 0.59155 0.0
C284 C 0.87329 0.5004 0.5988 0.0
C285 C 0.85418 0.50117 0.62636 0.0
C286 C 0.8798 0.48107 0.58087 0.0
C287 C 0.84955 0.46215 0.61917 0.0
C288 C 0.86805 0.46204 0.59101 0.0
C289 C 0.84226 0.48224 0.63644 0.0
C290 C 0.97841 0.49231 0.60883 0.0
C291 C 0.9634 0.55338 0.55642 0.0
C292 C 0.05198 0.48378 0.5238 0.0
C293 C 0.06733 0.49611 0.53166 0.0
C294 C 0.0943 0.49181 0.51703 0.0
C295 C 0.05399 0.51416 0.55238 0.0
C296 C 0.09317 0.52562 0.5418 0.0
C297 C 0.06664 0.52893 0.55725 0.0
C298 C 0.10729 0.50638 0.52226 0.0
C299 C 0.96235 0.5103 0.49958 0.0
O300 O 0.95084 0.46873 0.55688 0.0
O301 O -0.00161 0.45269 0.5434 0.0
O302 O 0.90762 0.50826 0.61004 0.0
O303 O 0.89782 0.52481 0.56177 0.0
O304 O 0.95325 0.51037 0.6133 0.0
O305 O 0.98123 0.48213 0.58591 0.0
O306 O -0.01204 0.53337 0.55085 0.0
O307 O 0.94033 0.55026 0.56006 0.0
O308 O 0.03363 0.50079 0.50482 0.0
O309 O 0.04249 0.46864 0.54779 0.0
O310 O -0.01235 0.49246 0.4943 0.0
O311 O 0.95938 0.51986 0.52306 0.0
H312 H 0.8492 0.5158 0.64064 0.0
H313 H 0.89448 0.48023 0.55951 0.0
H314 H 0.87355 0.44716 0.57688 0.0
H315 H 0.82806 0.48274 0.65821 0.0
H316 H 0.10489 0.47796 0.50086 0.0
H317 H 0.03346 0.51739 0.56431 0.0
H318 H 0.05532 0.54357 0.57244 0.0
H319 H 0.1277 0.50373 0.50977 0.0
Gd320 Gd 0.22761 0.24239 1.00172 0.0
Gd321 Gd 0.23453 0.28056 0.0401 0.0
C322 C 0.17857 0.2704 0.05626 0.0
C323 C 0.22845 0.19973 0.98998 0.0
C324 C 0.22071 0.17659 1.00747 0.0
C325 C 0.24134 0.14958 1.01286 0.0
C326 C 0.19294 0.18089 1.01785 0.0
C327 C 0.2065 0.13133 0.03619 0.0
C328 C 0.18592 0.1585 0.03201 0.0
C329 C 0.23434 0.1272 1.0272 0.0
C330 C 0.21606 0.29564 0.96848 0.0
C331 C 0.28345 0.25314 0.98522 0.0
C332 C 0.23404 0.32221 0.05384 0.0
C333 C 0.24285 0.34421 0.03591 0.0
C334 C 0.2618 0.34081 1.00823 0.0
C335 C 0.23279 0.36851 0.0467 0.0
C336 C 0.26242 0.38497 1.00361 0.0
C337 C 0.24261 0.3887 0.0308 0.0
C338 C 0.27113 0.3612 0.99191 0.0
C339 C 0.24637 0.2273 0.073 0.0
O340 O 0.18996 0.25125 0.03904 0.0
O341 O 0.19052 0.28604 0.05734 0.0
O342 O 0.20824 0.22443 0.98411 0.0
O343 O 0.24992 0.1997 0.99781 0.0
O344 O 0.21483 0.2771 0.95765 0.0
O345 O 0.22237 0.28436 0.99587 0.0
O346 O 0.27182 0.27225 1.00249 0.0
O347 O 0.27173 0.23729 0.98406 0.0
O348 O 0.25408 0.29737 0.05908 0.0
O349 O 0.21251 0.32293 0.04538 0.0
O350 O 0.24811 0.24563 0.08363 0.0
O351 O 0.23936 0.23878 0.046 0.0
H352 H 0.26291 0.14569 1.00532 0.0
H353 H 0.17651 0.20146 1.01428 0.0
H354 H 0.16426 0.16248 0.03828 0.0
H355 H 0.25074 0.1066 0.03055 0.0
H356 H 0.26969 0.32219 0.99944 0.0
H357 H 0.21812 0.37142 0.06804 0.0
H358 H 0.23577 0.40646 0.04089 0.0
H359 H 0.28594 0.35785 0.97076 0.0
Gd360 Gd 0.21316 0.01201 0.25204 0.0
Gd361 Gd 0.25428 0.01187 0.29224 0.0
C362 C 0.2441 0.05354 0.22391 0.0
C363 C 0.17471 0.0246 0.21967 0.0
C364 C 0.1579 0.01469 0.20964 0.0
C365 C 0.16485 1.00833 0.17968 0.0
C366 C 0.1328 0.01521 0.22782 0.0
C367 C 0.12105 1.00535 0.18534 0.0
C368 C 0.11464 1.01054 0.21583 0.0
C369 C 0.14672 1.00352 0.16776 0.0
C370 C 0.26386 0.97002 0.25197 0.0
C371 C 0.22038 0.97245 0.3216 0.0
C372 C 0.2986 1.00031 0.31384 0.0
C373 C 0.31143 0.99795 0.34035 0.0
C374 C 0.29923 0.01751 0.35941 0.0
C375 C 0.33815 0.97747 0.34398 0.0
C376 C 0.34143 0.99735 0.38354 0.0
C377 C 0.353 0.97716 0.36524 0.0
C378 C 0.31408 0.01718 0.38086 0.0
C379 C 0.20112 0.04951 0.30414 0.0
O380 O 0.22302 0.04817 0.22406 0.0
O381 O 0.26118 0.03958 0.24542 0.0
O382 O 0.16977 0.02701 0.24914 0.0
O383 O 0.20094 0.01655 0.20781 0.0
O384 O 0.2419 0.9683 0.24882 0.0
O385 O 0.25846 0.99466 0.25187 0.0
O386 O 0.24136 0.97779 0.32263 0.0
O387 O 0.20441 0.98554 0.29879 0.0
O388 O 0.28288 0.02517 0.29984 0.0
O389 O 0.29005 0.98148 0.31541 0.0
O390 O 0.22086 0.04515 0.31877 0.0
O391 O 0.21126 0.03289 0.2863 0.0
H392 H 0.18381 1.00821 0.16484 0.0
H393 H 0.12664 0.0203 0.25084 0.0
H394 H 0.09519 0.0117 0.23015 0.0
H395 H 0.15223 0.99975 0.14413 0.0
H396 H 0.27861 0.03357 0.35701 0.0
H397 H 0.34807 0.96237 0.32927 0.0
H398 H 0.37408 0.96182 0.36613 0.0
H399 H 0.30432 0.03278 0.39487 0.0
Gd400 Gd 0.48753 0.28214 0.78129 0.0
Gd401 Gd 0.48242 0.23796 0.76216 0.0
C402 C 0.45256 0.2489 0.82936 0.0
C403 C 0.48071 0.32454 0.80032 0.0
C404 C 0.4867 0.3304 0.82683 0.0
C405 C 0.48464 0.31489 0.85777 0.0
C406 C 0.49518 0.35174 0.82078 0.0
C407 C 0.49922 0.34241 0.87632 0.0
C408 C 0.50141 0.35768 0.84523 0.0
C409 C 0.49072 0.32096 0.88237 0.0
C410 C 0.53106 0.23246 0.79235 0.0
C411 C 0.51573 0.27196 0.71271 0.0
C412 C 0.48851 0.1957 0.74335 0.0
C413 C 0.48588 0.18813 0.71585 0.0
C414 C 0.50252 0.19078 0.68659 0.0
C415 C 0.46699 0.17672 0.7196 0.0
C416 C 0.48173 0.17002 0.66565 0.0
C417 C 0.46486 0.16786 0.69481 0.0
C418 C 0.5005 0.18174 0.66173 0.0
C419 C 0.43949 0.28856 0.75117 0.0
O420 O 0.45516 0.27254 0.81933 0.0
O421 O 0.46693 0.2289 0.81379 0.0
O422 O 0.50216 0.31217 0.78118 0.0
O423 O 0.46176 0.31514 0.80628 0.0
O424 O 0.53224 0.25606 0.78608 0.0
O425 O 0.50619 0.23588 0.79645 0.0
O426 O 0.51316 0.24834 0.72251 0.0
O427 O 0.50238 0.29142 0.72924 0.0
O428 O 0.46556 0.21092 0.75846 0.0
O429 O 0.50886 0.20242 0.74124 0.0
O430 O 0.43723 0.26538 0.75851 0.0
O431 O 0.46461 0.2839 0.74688 0.0
H432 H 0.47837 0.29812 0.8629 0.0
H433 H 0.49692 0.3639 0.79705 0.0
H434 H 0.50744 0.37463 0.83986 0.0
H435 H 0.489 0.30873 0.90604 0.0
H436 H 0.5173 0.19951 0.68299 0.0
H437 H 0.45413 0.17419 0.74201 0.0
H438 H 0.45057 0.15848 0.69888 0.0
H439 H 0.51366 0.18384 0.63949 0.0
Gd440 Gd -0.01426 0.78558 0.78315 0.0
Gd441 Gd 0.97666 0.74357 0.7635 0.0
C442 C 0.9511 0.75248 0.83287 0.0
C443 C 0.98152 0.82689 0.80241 0.0
C444 C 0.97942 0.83604 0.83097 0.0
C445 C -0.0027 0.81948 0.85377 0.0
C446 C 0.96069 0.86291 0.83399 0.0
C447 C 0.97896 0.85739 0.88093 0.0
C448 C 0.9604 0.87348 0.8587 0.0
C449 C -0.0029 0.83008 0.87848 0.0
C450 C 0.02726 0.73419 0.79146 0.0
C451 C 0.01244 0.77558 0.7141 0.0
C452 C 0.98073 0.70242 0.74417 0.0
C453 C 0.97967 0.69479 0.71593 0.0
C454 C 0.95775 0.71074 0.69794 0.0
C455 C -0.00018 0.66977 0.7085 0.0
C456 C 0.97509 0.67553 0.66708 0.0
C457 C -0.00239 0.66024 0.68429 0.0
C458 C 0.95545 0.70114 0.67378 0.0
C459 C 0.93526 0.79505 0.75445 0.0
O460 O 0.95559 0.77512 0.82393 0.0
O461 O 0.96231 0.73379 0.81538 0.0
O462 O 0.00505 0.80758 0.79369 0.0
O463 O 0.96016 0.82437 0.79835 0.0
O464 O 0.03066 0.75682 0.78408 0.0
O465 O 0.00182 0.73962 0.79695 0.0
O466 O 0.00717 0.75342 0.72298 0.0
O467 O 0.00171 0.79437 0.73148 0.0
O468 O 0.95763 0.71954 0.75705 0.0
O469 O 0.00211 0.70678 0.74432 0.0
O470 O 0.9319 0.77243 0.76158 0.0
O471 O 0.9607 0.78959 0.7493 0.0
H472 H 0.01191 0.7986 0.85207 0.0
H473 H 0.94685 0.87611 0.81657 0.0
H474 H 0.94639 0.89468 0.85959 0.0
H475 H 0.01139 0.81701 0.89543 0.0
H476 H 0.94197 0.73022 0.70307 0.0
H477 H 0.0168 0.65708 0.72217 0.0
H478 H 0.01292 0.64028 0.68005 0.0
H479 H 0.93806 0.71355 0.6607 0.0
Gd480 Gd 0.7198 0.51337 0.24751 0.0
Gd481 Gd 0.75637 0.51993 0.28473 0.0
C482 C 0.74621 0.55823 0.21585 0.0
C483 C 0.68897 0.5127 0.21361 0.0
C484 C 0.67133 0.52171 0.1891 0.0
C485 C 0.67985 0.50523 0.16703 0.0
C486 C 0.64487 0.54335 0.19002 0.0
C487 C 0.6344 0.52921 0.15002 0.0
C488 C 0.62663 0.54724 0.17038 0.0
C489 C 0.66164 0.50883 0.14781 0.0
C490 C 0.77097 0.47217 0.25273 0.0
C491 C 0.72469 0.47975 0.31899 0.0
C492 C 0.79759 0.5131 0.30868 0.0
C493 C 0.80444 0.5151 0.33733 0.0
C494 C 0.81144 0.53667 0.33591 0.0
C495 C 0.80671 0.49444 0.36508 0.0
C496 C 0.82519 0.51568 0.38832 0.0
C497 C 0.81697 0.49476 0.39036 0.0
C498 C 0.82159 0.53704 0.36118 0.0
C499 C 0.70273 0.5568 0.29605 0.0
O500 O 0.72583 0.55142 0.21692 0.0
O501 O 0.76369 0.54505 0.23678 0.0
O502 O 0.71559 0.50543 0.20531 0.0
O503 O 0.67899 0.5215 0.2401 0.0
O504 O 0.74903 0.46868 0.25422 0.0
O505 O 0.76517 0.49764 0.24752 0.0
O506 O 0.746 0.48533 0.31737 0.0
O507 O 0.70817 0.49196 0.29682 0.0
O508 O 0.78314 0.53634 0.29067 0.0
O509 O 0.7908 0.49292 0.31078 0.0
O510 O 0.72271 0.55382 0.30913 0.0
O511 O 0.71245 0.53935 0.27911 0.0
H512 H 0.7001 0.48822 0.1661 0.0
H513 H 0.63784 0.5564 0.20681 0.0
H514 H 0.60605 0.5636 0.17221 0.0
H515 H 0.66848 0.49421 0.13295 0.0
H516 H 0.81017 0.55271 0.3147 0.0
H517 H 0.8015 0.4775 0.36692 0.0
H518 H 0.81933 0.47814 0.4111 0.0
H519 H 0.82813 0.55321 0.35864 0.0
Gd520 Gd 0.72925 0.75652 1.00384 0.0
Gd521 Gd 0.73529 0.79056 0.04442 0.0
C522 C 0.67958 0.78114 0.06018 0.0
C523 C 0.7203 0.72526 0.98014 0.0
C524 C 0.70265 0.71053 0.98818 0.0
C525 C 0.68877 0.70606 1.01884 0.0
C526 C 0.69851 0.70215 0.96423 0.0
C527 C 0.66651 0.68494 1.00131 0.0
C528 C 0.68054 0.68948 0.97071 0.0
C529 C 0.67094 0.69307 1.02546 0.0
C530 C 0.72758 0.80677 0.97298 0.0
C531 C 0.78716 0.75891 0.99575 0.0
C532 C 0.73598 0.83087 0.06032 0.0
C533 C 0.74416 0.85401 0.04565 0.0
C534 C 0.72527 0.88068 0.04922 0.0
C535 C 0.77077 0.84983 0.02938 0.0
C536 C 0.76019 0.89836 1.02314 0.0
C537 C 0.77873 0.8718 1.01831 0.0
C538 C 0.73312 0.90266 0.03795 0.0
C539 C 0.74672 0.73706 0.07645 0.0
O540 O 0.69029 0.76481 0.03962 0.0
O541 O 0.69218 0.79489 0.06445 0.0
O542 O 0.70725 0.75223 0.97377 0.0
O543 O 0.74004 0.71579 0.99754 0.0
O544 O 0.73842 0.78552 0.96031 0.0
O545 O 0.71679 0.80098 1.00111 0.0
O546 O 0.77405 0.78072 1.00887 0.0
O547 O 0.77524 0.74286 0.99618 0.0
O548 O 0.75585 0.8059 0.06419 0.0
O549 O 0.7143 0.83254 0.05127 0.0
O550 O 0.74743 0.75529 0.08823 0.0
O551 O 0.7407 0.74874 0.04915 0.0
H552 H 0.69146 0.71287 0.03746 0.0
H553 H 0.70899 0.70565 0.94043 0.0
H554 H 0.67778 0.683 0.95181 0.0
H555 H 0.66026 0.68982 0.04919 0.0
H556 H 0.70456 0.88442 0.06142 0.0
H557 H 0.78571 0.82948 1.026 0.0
H558 H 0.79978 0.86767 1.00721 0.0
H559 H 0.71812 0.92294 0.04147 0.0
Gd560 Gd 0.45489 1.0087 0.55287 0.0
Gd561 Gd 0.51615 0.99058 0.52375 0.0
C562 C 0.49065 0.94779 0.53466 0.0
C563 C 0.40314 0.01918 0.56592 0.0
C564 C 0.3877 1.00529 0.5617 0.0
C565 C 0.36494 1.00423 0.58382 0.0
C566 C 0.39834 0.98924 0.53883 0.0
C567 C 0.36592 0.96832 0.56291 0.0
C568 C 0.3875 0.97095 0.53936 0.0
C569 C 0.35399 0.98596 0.58434 0.0
C570 C 0.49011 0.994 0.59395 0.0
C571 C 0.48059 0.05149 0.5413 0.0
C572 C 0.56791 0.98019 0.51114 0.0
C573 C 0.58405 0.99257 0.51724 0.0
C574 C 0.60807 0.99216 0.49678 0.0
C575 C 0.57386 1.00769 0.54104 0.0
C576 C 0.60989 0.02433 0.52163 0.0
C577 C 0.58682 0.02331 0.5434 0.0
C578 C 0.62093 1.00795 0.49895 0.0
C579 C 0.48022 1.006 0.48294 0.0
O580 O 0.46625 0.96808 0.54038 0.0
O581 O 0.51399 0.95005 0.5322 0.0
O582 O 0.42053 1.00431 0.58647 0.0
O583 O 0.4136 0.03188 0.54005 0.0
O584 O 0.46479 0.01229 0.59631 0.0
O585 O 0.49471 0.98246 0.57155 0.0
O586 O 0.50494 0.03097 0.53636 0.0
O587 O 0.45721 0.04931 0.54369 0.0
O588 O 0.55033 0.99648 0.49107 0.0
O589 O 0.55753 0.96647 0.53599 0.0
O590 O 0.50537 0.98733 0.48032 0.0
O591 O 0.47639 0.01715 0.50537 0.0
H592 H 0.35658 0.01644 0.6017 0.0
H593 H 0.41613 0.98957 0.52177 0.0
H594 H 0.39727 0.95765 0.52257 0.0
H595 H 0.33688 0.9849 0.60227 0.0
H596 H 0.61611 0.98069 0.47821 0.0
H597 H 0.55507 1.00859 0.55672 0.0
H598 H 0.57772 0.03596 0.56088 0.0
H599 H 0.63887 1.00824 0.48207 0.0
Gd600 Gd 0.46378 0.4947 0.05016 0.0
Gd601 Gd 0.51751 0.49595 1.00752 0.0
C602 C 0.50773 0.44304 1.01649 0.0
C603 C 0.41666 0.49205 0.06993 0.0
C604 C 0.40148 0.48275 0.05692 0.0
C605 C 0.41417 0.47031 0.03094 0.0
C606 C 0.37382 0.48801 0.06866 0.0
C607 C 0.37144 0.46909 1.02762 0.0
C608 C 0.35889 0.48111 0.05421 0.0
C609 C 0.39937 0.46353 1.01644 0.0
C610 C 0.50416 0.4839 0.08219 0.0
C611 C 0.47567 0.54676 0.04315 0.0
C612 C 0.56174 0.50332 0.98275 0.0
C613 C 0.5701 0.5239 0.98575 0.0
C614 C 0.55184 0.55195 0.98085 0.0
C615 C 0.59532 0.51547 0.99619 0.0
C616 C 0.58371 0.56292 0.99702 0.0
C617 C 0.60212 0.53484 1.00174 0.0
C618 C 0.55854 0.57121 0.9865 0.0
C619 C 0.47616 0.50667 0.97688 0.0
O620 O 0.48208 0.45746 0.02824 0.0
O621 O 0.52736 0.45184 1.01091 0.0
O622 O 0.43955 0.47281 0.08048 0.0
O623 O 0.4194 0.51439 0.05251 0.0
O624 O 0.47809 0.49353 0.09329 0.0
O625 O 0.50749 0.4767 0.05675 0.0
O626 O 0.50029 0.53362 0.02815 0.0
O627 O 0.45622 0.53744 0.05107 0.0
O628 O 0.54059 0.51302 0.96754 0.0
O629 O 0.56068 0.48466 1.00844 0.0
O630 O 0.50212 0.49402 0.96685 0.0
O631 O 0.4735 0.51476 1.00141 0.0
H632 H 0.43534 0.46652 1.02116 0.0
H633 H 0.36371 0.4977 0.08871 0.0
H634 H 0.33763 0.48503 0.06406 0.0
H635 H 0.40979 0.45459 0.99593 0.0
H636 H 0.53197 0.55907 0.97336 0.0
H637 H 0.60956 0.49389 1.00041 0.0
H638 H 0.62187 0.52786 1.00943 0.0
H639 H 0.54367 0.59256 0.9832 0.0
H640 H 0.93866 0.11324 0.04708 0.0
H641 H 0.02732 0.14302 0.13573 0.0
H642 H 0.02767 0.07396 0.03798 0.0
H643 H 0.93913 0.18839 0.13709 0.0
H644 H 0.02832 0.12044 0.09623 0.0
H645 H 0.93876 0.14399 0.07587 0.0
C646 C 0.95827 0.11132 0.05063 0.0
C647 C -0.01681 0.09061 0.04042 0.0
C648 C 0.00877 0.13555 0.10492 0.0
C649 C -0.01659 0.12556 0.07394 0.0
C650 C 0.00821 0.14861 0.12738 0.0
C651 C -0.01694 0.1675 0.14007 0.0
C652 C -0.01601 0.14131 0.09506 0.0
C653 C 0.95893 0.17357 0.12852 0.0
C654 C 0.9583 0.12883 0.06728 0.0
C655 C 0.00792 0.0892 0.04587 0.0
N656 N 0.95997 0.16036 0.10693 0.0
N657 N 0.00738 0.10616 0.06255 0.0
H658 H 0.81997 0.21482 0.46251 0.0
H659 H 0.9277 0.28306 0.38305 0.0
H660 H 0.81239 0.28946 0.48153 0.0
H661 H 0.93407 0.2095 0.36255 0.0
H662 H 0.88851 0.28281 0.42357 0.0
H663 H 0.86442 0.20981 0.43034 0.0
C664 C 0.82773 0.23004 0.46024 0.0
C665 C 0.81219 0.25271 0.47472 0.0
C666 C 0.89865 0.26655 0.41046 0.0
C667 C 0.86327 0.24713 0.43751 0.0
C668 C 0.92116 0.2666 0.38733 0.0
C669 C 0.93422 0.24634 0.36913 0.0
C670 C 0.88896 0.24614 0.41548 0.0
C671 C 0.92468 0.22559 0.37587 0.0
C672 C 0.85317 0.22716 0.44177 0.0
C673 C 0.82352 0.27166 0.47085 0.0
N674 N 0.90253 0.22617 0.39826 0.0
N675 N 0.84821 0.26856 0.45246 0.0
H676 H 0.78288 0.08802 0.71657 0.0
H677 H 0.73178 0.19828 0.55757 0.0
H678 H 0.72339 0.08905 0.66886 0.0
H679 H 0.76721 0.21181 0.62294 0.0
H680 H 0.73561 0.15372 0.59285 0.0
H681 H 0.7844 0.12895 0.67718 0.0
C682 C 0.77035 0.09664 0.69767 0.0
C683 C 0.75288 0.08509 0.69619 0.0
C684 C 0.74276 0.16635 0.59931 0.0
C685 C 0.75462 0.13195 0.65088 0.0
C686 C 0.74072 0.19168 0.57911 0.0
C687 C 0.74916 0.20873 0.5874 0.0
C688 C 0.75368 0.15788 0.62778 0.0
C689 C 0.76041 0.1993 0.6157 0.0
C690 C 0.77114 0.1201 0.67526 0.0
C691 C 0.73703 0.09732 0.67113 0.0
N692 N 0.76236 0.17455 0.63484 0.0
N693 N 0.73828 0.12002 0.64952 0.0
H694 H -0.00488 0.98786 0.93339 0.0
H695 H 0.84897 0.06983 0.86904 0.0
H696 H 0.94119 0.07104 0.94411 0.0
H697 H 0.89626 0.9817 0.88266 0.0
H698 H 0.88379 0.0729 0.89121 0.0
H699 H 0.96085 0.98769 0.90846 0.0
C700 C 0.97608 1.00626 0.93022 0.0
C701 C 0.97069 0.02933 0.94144 0.0
C702 C 0.88645 0.05294 0.88932 0.0
C703 C 0.93123 0.02937 0.91255 0.0
C704 C 0.8667 0.05119 0.87657 0.0
C705 C 0.86969 0.02546 0.87411 0.0
C706 C 0.9095 0.02883 0.89912 0.0
C707 C 0.89293 1.00192 0.88442 0.0
C708 C 0.9564 1.00608 0.91613 0.0
C709 C 0.94575 0.05261 0.93648 0.0
N710 N 0.91191 1.0042 0.89634 0.0
N711 N 0.92681 0.05206 0.92243 0.0
H712 H 0.97438 0.04977 0.10764 0.0
H713 H 0.12863 0.96994 0.14885 0.0
H714 H 0.02799 0.96873 0.08959 0.0
H715 H 0.0659 0.03862 0.18849 0.0
H716 H 0.09358 0.97021 0.12394 0.0
H717 H 0.00885 0.0468 0.1352 0.0
C718 C -0.00665 0.03117 0.10977 0.0
C719 C -0.00141 1.00959 0.09588 0.0
C720 C 0.0875 0.98498 0.13842 0.0
C721 C 0.03831 1.00609 0.12735 0.0
C722 C 0.10749 0.98494 0.15248 0.0
C723 C 0.10015 1.00411 0.17108 0.0
C724 C 0.06006 1.00452 0.1427 0.0
C725 C 0.07245 0.02311 0.1749 0.0
C726 C 0.0131 0.02953 0.12542 0.0
C727 C 0.02355 0.98608 0.09927 0.0
N728 N 0.05351 0.0229 0.16075 0.0
N729 N 0.04265 0.98498 0.1145 0.0
H730 H 0.02034 0.40586 0.52825 0.0
H731 H 0.93351 0.37905 0.43453 0.0
H732 H 0.93126 0.44278 0.53934 0.0
H733 H 0.02131 0.3323 0.43543 0.0
H734 H 0.93188 0.40031 0.47577 0.0
H735 H 0.02086 0.37571 0.49819 0.0
C736 C 0.00085 0.40729 0.52498 0.0
C737 C 0.97571 0.42718 0.53619 0.0
C738 C 0.95146 0.38514 0.46725 0.0
C739 C 0.97619 0.393 0.5011 0.0
C740 C 0.95242 0.37311 0.44355 0.0
C741 C 0.97761 0.35396 0.43131 0.0
C742 C 0.97591 0.37822 0.47865 0.0
C743 C 0.00139 0.34679 0.44426 0.0
C744 C 0.00117 0.39011 0.50764 0.0
C745 C 0.95115 0.42792 0.53117 0.0
N746 N 1e-05 0.35913 0.46693 0.0
N747 N 0.95201 0.41144 0.51358 0.0
H748 H 0.63718 0.32031 0.57719 0.0
H749 H 0.54473 0.23732 0.67157 0.0
H750 H 0.64979 0.24305 0.5602 0.0
H751 H 0.53176 0.31485 0.68808 0.0
H752 H 0.58051 0.24114 0.62763 0.0
H753 H 0.5961 0.32067 0.61445 0.0
C754 C 0.6312 0.30352 0.581 0.0
C755 C 0.64718 0.28153 0.56553 0.0
C756 C 0.5697 0.25745 0.64066 0.0
C757 C 0.60001 0.28176 0.60861 0.0
C758 C 0.54917 0.25533 0.6658 0.0
C759 C 0.53521 0.27574 0.68377 0.0
C760 C 0.57653 0.28011 0.63337 0.0
C761 C 0.54194 0.29859 0.67498 0.0
C762 C 0.60769 0.30375 0.60239 0.0
C763 C 0.63823 0.26043 0.57153 0.0
N764 N 0.56223 0.30004 0.65061 0.0
N765 N 0.61541 0.26098 0.59274 0.0
H766 H 0.7726 0.93262 0.8421 0.0
H767 H 0.68677 0.85906 0.97574 0.0
H768 H 0.68369 0.96783 0.84995 0.0
H769 H 0.76792 0.81549 0.92912 0.0
H770 H 0.68575 0.9026 0.939 0.0
H771 H 0.77148 0.89301 0.8832 0.0
C772 C 0.75273 0.93212 0.85256 0.0
C773 C 0.72816 0.95364 0.84241 0.0
C774 C 0.70379 0.88347 0.93713 0.0
C775 C 0.72684 0.90803 0.89002 0.0
C776 C 0.7045 0.85879 0.95821 0.0
C777 C 0.72746 0.83379 0.95528 0.0
C778 C 0.72647 0.88296 0.91372 0.0
C779 C 0.7498 0.83435 0.93203 0.0
C780 C 0.75217 0.90939 0.87604 0.0
C781 C 0.70312 0.95159 0.85689 0.0
N782 N 0.74878 0.85848 0.91227 0.0
N783 N 0.70306 0.92917 0.88014 0.0
H784 H 0.14951 0.23874 0.06734 0.0
H785 H 0.03773 0.31337 0.20177 0.0
H786 H 0.14676 0.30863 0.09295 0.0
H787 H 0.04241 0.24109 0.17986 0.0
H788 H 0.07463 0.31469 0.15828 0.0
H789 H 0.10766 0.24189 0.10474 0.0
C790 C 0.14003 0.25491 0.08056 0.0
C791 C 0.1519 0.27336 0.07698 0.0
C792 C 0.06744 0.29867 0.16279 0.0
C793 C 0.10386 0.27699 0.12008 0.0
C794 C 0.04624 0.29795 0.18761 0.0
C795 C 0.03692 0.27702 0.1947 0.0
C796 C 0.07958 0.27825 0.14483 0.0
C797 C 0.04888 0.25761 0.1754 0.0
C798 C 0.11611 0.25665 0.10201 0.0
C799 C 0.13857 0.29383 0.09492 0.0
N800 N 0.06968 0.25859 0.15155 0.0
N801 N 0.11542 0.29499 0.11572 0.0
H802 H 0.67909 0.4673 0.34174 0.0
H803 H 0.7646 0.31481 0.42629 0.0
H804 H 0.76407 0.43859 0.35394 0.0
H805 H 0.67912 0.35625 0.46311 0.0
H806 H 0.76395 0.35911 0.39417 0.0
H807 H 0.67722 0.4261 0.38108 0.0
C808 C 0.69722 0.45255 0.35283 0.0
C809 C 0.72174 0.45653 0.34451 0.0
C810 C 0.74537 0.3586 0.40945 0.0
C811 C 0.71986 0.40927 0.38884 0.0
C812 C 0.74572 0.33335 0.42773 0.0
C813 C 0.72191 0.33196 0.4474 0.0
C814 C 0.72078 0.38265 0.41 0.0
C815 C 0.69796 0.35658 0.44839 0.0
C816 C 0.69609 0.42914 0.37531 0.0
C817 C 0.74463 0.43663 0.35965 0.0
N818 N 0.69783 0.38096 0.4295 0.0
N819 N 0.74324 0.41378 0.38063 0.0
H820 H 0.48435 0.03389 0.62073 0.0
H821 H 0.63975 0.96688 0.65784 0.0
H822 H 0.54384 0.9553 0.59975 0.0
H823 H 0.57391 0.03872 0.6889 0.0
H824 H 0.60673 0.96269 0.63388 0.0
H825 H 0.51857 0.03637 0.64319 0.0
C826 C 0.50467 0.01696 0.62107 0.0
C827 C 0.51128 0.99431 0.60835 0.0
C828 C 0.59958 0.97923 0.64612 0.0
C829 C 0.55089 0.99699 0.63432 0.0
C830 C 0.61839 0.98172 0.65968 0.0
C831 C 0.60955 1.00304 0.67572 0.0
C832 C 0.57182 0.99835 0.6484 0.0
C833 C 0.58163 0.02161 0.67742 0.0
C834 C 0.52429 0.01844 0.63387 0.0
C835 C 0.53803 0.97318 0.60917 0.0
N836 N 0.56388 0.01885 0.66393 0.0
N837 N 0.55696 0.975 0.62199 0.0
H838 H 0.94005 0.96517 1.00568 0.0
H839 H 0.02508 0.85111 0.90112 0.0
H840 H 0.02902 0.92887 0.98579 0.0
H841 H 0.93611 0.89215 0.91605 0.0
H842 H 0.0271 0.87482 0.93759 0.0
H843 H 0.93851 0.93417 0.97865 0.0
C844 C 0.95933 0.95046 0.99597 0.0
C845 C -0.01529 0.94993 0.99774 0.0
C846 C 0.00713 0.87847 0.93309 0.0
C847 C -0.01693 0.91416 0.9666 0.0
C848 C 0.00594 0.86477 0.91241 0.0
C849 C 0.98037 0.86972 0.9053 0.0
C850 C -0.01742 0.89727 0.94685 0.0
C851 C 0.9563 0.888 0.92038 0.0
C852 C 0.95841 0.93272 0.98048 0.0
C853 C 0.00898 0.93007 0.98504 0.0
N854 N 0.95801 0.90119 0.94026 0.0
N855 N 0.00754 0.91318 0.96974 0.0
H856 H 0.11012 0.03467 0.10015 0.0
H857 H 0.23071 0.08379 1.01402 0.0
H858 H 0.16792 1.00774 1.01886 0.0
H859 H 0.16434 0.12454 0.08179 0.0
H860 H 0.21406 0.04804 1.02555 0.0
H861 H 0.1354 0.06027 0.10268 0.0
C862 C 0.12822 0.03382 0.08305 0.0
C863 C 0.13656 0.01917 0.05898 0.0
C864 C 0.20329 0.06461 0.03821 0.0
C865 C 0.16571 0.04823 0.06206 0.0
C866 C 0.21295 0.08498 0.03184 0.0
C867 C 0.19875 0.10748 0.04668 0.0
C868 C 0.17908 0.06673 0.05941 0.0
C869 C 0.1756 0.10792 0.06926 0.0
C870 C 0.14269 0.04838 0.08462 0.0
C871 C 0.16065 0.01837 0.03806 0.0
N872 N 0.16627 0.08802 0.07467 0.0
N873 N 0.17412 0.03289 0.03992 0.0
H874 H 0.65997 0.57287 0.26235 0.0
H875 H 0.56556 0.7037 0.34181 0.0
H876 H 0.68103 0.59135 0.33642 0.0
H877 H 0.53963 0.68818 0.26929 0.0
H878 H 0.60655 0.66042 0.34184 0.0
H879 H 0.61469 0.61261 0.26589 0.0
C880 C 0.65494 0.58506 0.27957 0.0
C881 C 0.6743 0.57883 0.2991 0.0
C882 C 0.59191 0.66621 0.326 0.0
C883 C 0.62281 0.62426 0.30317 0.0
C884 C 0.5684 0.69099 0.32605 0.0
C885 C 0.54913 0.69957 0.30556 0.0
C886 C 0.59659 0.64975 0.30503 0.0
C887 C 0.55393 0.68223 0.28561 0.0
C888 C 0.62917 0.60777 0.28152 0.0
C889 C 0.66682 0.5954 0.32083 0.0
N890 N 0.57731 0.65822 0.28564 0.0
N891 N 0.64186 0.61727 0.32217 0.0
H892 H 0.2947 0.84998 0.63338 0.0
H893 H 0.36118 0.94846 0.51663 0.0
H894 H 0.32861 0.844 0.53659 0.0
H895 H 0.35254 0.93608 0.61797 0.0
H896 H 0.34942 0.90978 0.52386 0.0
H897 H 0.31692 0.88032 0.62933 0.0
C898 C 0.30734 0.85459 0.61154 0.0
C899 C 0.30969 0.84471 0.58522 0.0
C900 C 0.35024 0.91546 0.54451 0.0
C901 C 0.33452 0.87965 0.58018 0.0
C902 C 0.3569 0.93758 0.5404 0.0
C903 C 0.35759 0.94574 0.56673 0.0
C904 C 0.34392 0.90159 0.57515 0.0
C905 C 0.35156 0.93101 0.59698 0.0
C906 C 0.31995 0.87189 0.6092 0.0
C907 C 0.32638 0.85109 0.55749 0.0
N908 N 0.34478 0.90975 0.60036 0.0
N909 N 0.33777 0.86858 0.55551 0.0
H910 H 0.02641 0.68242 0.8068 0.0
H911 H 0.18978 0.61017 0.753 0.0
H912 H 0.08109 0.72368 0.77159 0.0
H913 H 0.14403 0.56145 0.80432 0.0
H914 H 0.14754 0.65184 0.75424 0.0
H915 H 0.06657 0.63799 0.80222 0.0
C916 C 0.04679 0.68213 0.79818 0.0
C917 C 0.05044 0.70678 0.78971 0.0
C918 C 0.14646 0.63216 0.76527 0.0
C919 C 0.09613 0.6564 0.78408 0.0
C920 C 0.17069 0.60825 0.76448 0.0
C921 C 0.17053 0.58228 0.77891 0.0
C922 C 0.12151 0.63047 0.78082 0.0
C923 C 0.14504 0.58111 0.793 0.0
C924 C 0.06964 0.65683 0.79555 0.0
C925 C 0.07722 0.70528 0.77856 0.0
N926 N 0.12148 0.60496 0.79389 0.0
N927 N 0.09883 0.68069 0.77606 0.0
H928 H 0.73706 0.39399 0.63649 0.0
H929 H 0.87655 0.40672 0.62175 0.0
H930 H 0.81756 0.32791 0.62186 0.0
H931 H 0.79582 0.47055 0.64176 0.0
H932 H 0.85575 0.37403 0.63298 0.0
H933 H 0.75817 0.41783 0.65121 0.0
C934 C 0.75912 0.38407 0.63718 0.0
C935 C 0.77566 0.3592 0.62712 0.0
C936 C 0.8426 0.39507 0.63542 0.0
C937 C 0.80008 0.38694 0.64299 0.0
C938 C 0.85444 0.41375 0.62877 0.0
C939 C 0.83775 0.44147 0.63011 0.0
C940 C 0.81382 0.4043 0.64304 0.0
C941 C 0.80938 0.4494 0.64019 0.0
C942 C 0.77122 0.39787 0.64536 0.0
C943 C 0.80414 0.3475 0.62843 0.0
N944 N 0.79822 0.43099 0.64573 0.0
N945 N 0.81554 0.36176 0.63552 0.0
H946 H 0.31628 0.96758 0.24758 0.0
H947 H 0.38243 0.80199 0.28925 0.0
H948 H 0.27179 0.91667 0.26776 0.0
H949 H 0.43374 0.84633 0.24565 0.0
H950 H 0.34214 0.84546 0.2896 0.0
H951 H 0.35971 0.92522 0.25358 0.0
C952 C 0.31564 0.94756 0.25344 0.0
C953 C 0.29044 0.9456 0.25693 0.0
C954 C 0.36212 0.84591 0.27994 0.0
C955 C 0.33961 0.89744 0.2641 0.0
C956 C 0.38524 0.82099 0.27979 0.0
C957 C 0.41147 0.82049 0.26697 0.0
C958 C 0.36489 0.87092 0.267 0.0
C959 C 0.41381 0.84584 0.25555 0.0
C960 C 0.34036 0.92348 0.25676 0.0
C961 C 0.2907 0.91924 0.26455 0.0
N962 N 0.39071 0.87015 0.25554 0.0
N963 N 0.31474 0.89638 0.26786 0.0
H964 H 0.27486 0.41029 0.78682 0.0
H965 H 0.43916 0.34041 0.7391 0.0
H966 H 0.32062 0.46009 0.7418 0.0
H967 H 0.38549 0.29812 0.767 0.0
H968 H 0.39826 0.38426 0.74362 0.0
H969 H 0.31736 0.36894 0.78492 0.0
C970 C 0.294 0.41252 0.77656 0.0
C971 C 0.29411 0.43871 0.76409 0.0
C972 C 0.39556 0.36534 0.74865 0.0
C973 C 0.34342 0.39093 0.76153 0.0
C974 C 0.41883 0.34038 0.74603 0.0
C975 C 0.41568 0.31561 0.75253 0.0
C976 C 0.36912 0.36534 0.75813 0.0
C977 C 0.38895 0.31666 0.76162 0.0
C978 C 0.31837 0.3888 0.77541 0.0
C979 C 0.31965 0.44025 0.75156 0.0
N980 N 0.36688 0.34096 0.76418 0.0
N981 N 0.34337 0.41661 0.75035 0.0
H982 H 0.14278 0.81137 0.58249 0.0
H983 H 0.03801 0.74135 0.67218 0.0
H984 H 0.14754 0.73783 0.56367 0.0
H985 H 0.03359 0.8148 0.69084 0.0
H986 H 0.07538 0.7421 0.62917 0.0
H987 H 0.10049 0.81511 0.61889 0.0
C988 C 0.13486 0.79608 0.58578 0.0
C989 C 0.14896 0.77414 0.57 0.0
C990 C 0.06609 0.75821 0.64246 0.0
C991 C 0.1003 0.77829 0.61204 0.0
C992 C 0.04463 0.75786 0.66704 0.0
C993 C 0.03261 0.77799 0.68538 0.0
C994 C 0.0758 0.77877 0.6361 0.0
C995 C 0.04217 0.79883 0.67745 0.0
C996 C 0.11063 0.79825 0.60665 0.0
C997 C 0.13748 0.75507 0.57528 0.0
N998 N 0.06331 0.79854 0.65361 0.0
N999 N 0.11398 0.75749 0.59598 0.0
H1000 H 0.198 0.93983 0.31519 0.0
H1001 H 0.20647 0.84286 0.4871 0.0
H1002 H 0.23377 0.95102 0.38229 0.0
H1003 H 0.22829 0.81163 0.40263 0.0
H1004 H 0.20412 0.88797 0.45382 0.0
H1005 H 0.19566 0.89829 0.35227 0.0
C1006 C 0.20491 0.93388 0.33794 0.0
C1007 C 0.21616 0.949 0.34554 0.0
C1008 C 0.20936 0.87113 0.44278 0.0
C1009 C 0.2132 0.90147 0.38831 0.0
C1010 C 0.21078 0.84541 0.46171 0.0
C1011 C 0.21811 0.82322 0.44772 0.0
C1012 C 0.21427 0.87485 0.4097 0.0
C1013 C 0.22283 0.82798 0.41457 0.0
C1014 C 0.20371 0.91006 0.359 0.0
C1015 C 0.22506 0.93995 0.37536 0.0
N1016 N 0.22063 0.8532 0.39679 0.0
N1017 N 0.22332 0.91683 0.39573 0.0
H1018 H 0.92716 0.67622 0.65849 0.0
H1019 H 0.0053 0.56985 0.5443 0.0
H1020 H 0.01421 0.64744 0.62336 0.0
H1021 H 0.91988 0.59265 0.58551 0.0
H1022 H 0.00679 0.60422 0.56582 0.0
H1023 H 0.92214 0.65198 0.62485 0.0
C1024 C 0.94514 0.66522 0.64329 0.0
C1025 C 0.97121 0.66369 0.64398 0.0
C1026 C -0.01242 0.60203 0.56981 0.0
C1027 C 0.96565 0.63554 0.60571 0.0
C1028 C -0.01331 0.58238 0.55748 0.0
C1029 C 0.96253 0.57803 0.56349 0.0
C1030 C 0.96412 0.61755 0.58835 0.0
C1031 C 0.93897 0.59521 0.58035 0.0
C1032 C 0.94228 0.65122 0.62424 0.0
C1033 C -0.00618 0.64881 0.62403 0.0
N1034 N 0.94046 0.61398 0.59254 0.0
N1035 N -0.00945 0.63516 0.60592 0.0
H1036 H 0.31884 0.76884 0.48892 0.0
H1037 H 0.42828 0.70757 0.34524 0.0
H1038 H 0.31527 0.71034 0.44733 0.0
H1039 H 0.42744 0.77054 0.383 0.0
H1040 H 0.39074 0.70374 0.38671 0.0
H1041 H 0.36214 0.76508 0.45474 0.0
C1042 C 0.32725 0.75496 0.47284 0.0
C1043 C 0.31312 0.74005 0.47092 0.0
C1044 C 0.39896 0.71819 0.38611 0.0
C1045 C 0.36293 0.7358 0.43135 0.0
C1046 C 0.42053 0.72033 0.36247 0.0
C1047 C 0.43104 0.73956 0.36038 0.0
C1048 C 0.38774 0.73538 0.40791 0.0
C1049 C 0.42 0.75553 0.38346 0.0
C1050 C 0.35204 0.75287 0.45324 0.0
C1051 C 0.32529 0.72232 0.44964 0.0
N1052 N 0.39889 0.75322 0.40604 0.0
N1053 N 0.34933 0.72087 0.43054 0.0
H1054 H 0.27783 0.07879 0.22056 0.0
H1055 H 0.22822 0.19231 0.06259 0.0
H1056 H 0.21878 0.08169 0.17054 0.0
H1057 H 0.27046 0.19926 0.12618 0.0
H1058 H 0.23016 0.14797 0.09708 0.0
H1059 H 0.28098 0.11911 0.18147 0.0
C1060 C 0.2657 0.0877 0.20125 0.0
C1061 C 0.24789 0.0768 0.19909 0.0
C1062 C 0.2392 0.15911 0.10333 0.0
C1063 C 0.25142 0.12316 0.15405 0.0
C1064 C 0.23827 0.18429 0.08351 0.0
C1065 C 0.24929 0.1994 0.0915 0.0
C1066 C 0.25142 0.14893 0.13119 0.0
C1067 C 0.2617 0.18829 0.11916 0.0
C1068 C 0.26743 0.11083 0.17896 0.0
C1069 C 0.23266 0.08941 0.17342 0.0
N1070 N 0.26242 0.16382 0.13795 0.0
N1071 N 0.23473 0.11187 0.15201 0.0
H1072 H 0.81697 0.78943 0.98581 0.0
H1073 H 0.93188 0.71186 0.85562 0.0
H1074 H 0.82021 0.71861 0.96184 0.0
H1075 H 0.92449 0.78611 0.87543 0.0
H1076 H 0.89472 0.71052 0.89889 0.0
H1077 H 0.85972 0.78503 0.95007 0.0
C1078 C 0.82678 0.77273 0.97333 0.0
C1079 C 0.81475 0.75445 0.97682 0.0
C1080 C 0.90142 0.72695 0.89397 0.0
C1081 C 0.86388 0.74943 0.93546 0.0
C1082 C 0.92275 0.72768 0.86931 0.0
C1083 C 0.93131 0.74923 0.86166 0.0
C1084 C 0.88846 0.74793 0.91118 0.0
C1085 C 0.91857 0.76915 0.88028 0.0
C1086 C 0.85123 0.77029 0.9528 0.0
C1087 C 0.82858 0.73326 0.9599 0.0
N1088 N 0.89772 0.76812 0.90397 0.0
N1089 N 0.85227 0.73146 0.93983 0.0
H1090 H 0.22287 0.57342 0.66368 0.0
H1091 H 0.26788 0.69774 0.62479 0.0
H1092 H 0.27761 0.57535 0.71587 0.0
H1093 H 0.23685 0.68333 0.55601 0.0
H1094 H 0.2702 0.6536 0.65899 0.0
H1095 H 0.22609 0.61394 0.62469 0.0
C1096 C 0.23579 0.58214 0.66684 0.0
C1097 C 0.25 0.57079 0.69325 0.0
C1098 C 0.26301 0.65991 0.63636 0.0
C1099 C 0.25342 0.61761 0.64877 0.0
C1100 C 0.26168 0.68517 0.61676 0.0
C1101 C 0.25189 0.6944 0.58755 0.0
C1102 C 0.25407 0.64371 0.62705 0.0
C1103 C 0.24419 0.67715 0.57846 0.0
C1104 C 0.23761 0.6053 0.64451 0.0
C1105 C 0.26634 0.58317 0.69596 0.0
N1106 N 0.24512 0.65281 0.59826 0.0
N1107 N 0.26736 0.60596 0.67428 0.0
H1108 H 0.38068 0.9543 0.41853 0.0
H1109 H 0.42815 0.04708 0.47554 0.0
H1110 H 0.34186 0.04338 0.39396 0.0
H1111 H 0.48199 0.96508 0.46059 0.0
H1112 H 0.39156 0.04523 0.45516 0.0
H1113 H 0.41288 0.95693 0.44485 0.0
C1114 C 0.37881 0.97444 0.41869 0.0
C1115 C 0.35868 0.99865 0.40342 0.0
C1116 C 0.41141 0.02769 0.45644 0.0
C1117 C 0.39542 1.00173 0.43403 0.0
C1118 C 0.4322 0.02873 0.46805 0.0
C1119 C 0.45805 1.00621 0.46976 0.0
C1120 C 0.41648 1.00375 0.44707 0.0
C1121 C 0.46238 0.98295 0.4596 0.0
C1122 C 0.39719 0.97589 0.43382 0.0
C1123 C 0.35687 0.02412 0.40542 0.0
N1124 N 0.44179 0.98224 0.44895 0.0
N1125 N 0.37511 0.025 0.42023 0.0
H1126 H 0.74676 0.93673 0.05744 0.0
H1127 H 0.85334 0.99937 0.95069 0.0
H1128 H 0.79563 0.91107 0.97154 0.0
H1129 H 0.80754 0.01789 0.04071 0.0
H1130 H 0.829 0.97102 0.95395 0.0
H1131 H 0.76478 0.9712 0.04712 0.0
C1132 C 0.76096 0.9386 0.03608 0.0
C1133 C 0.76965 0.92086 1.01535 0.0
C1134 C 0.82411 0.98165 0.9727 0.0
C1135 C 0.79109 0.96013 1.00376 0.0
C1136 C 0.83805 0.99775 0.97095 0.0
C1137 C 0.83259 0.0111 0.99548 0.0
C1138 C 0.80458 0.97895 0.99912 0.0
C1139 C 0.81225 1.0085 1.02091 0.0
C1140 C 0.77147 0.95821 0.03033 0.0
C1141 C 0.78864 0.92402 0.98842 0.0
N1142 N 0.79919 0.99266 1.0221 0.0
N1143 N 0.79887 0.94316 0.98349 0.0
H1144 H 0.65211 0.16319 0.45613 0.0
H1145 H 0.62177 0.03622 0.57005 0.0
H1146 H 0.67991 0.1254 0.54757 0.0
H1147 H 0.62035 0.06 0.46939 0.0
H1148 H 0.63684 0.07253 0.56574 0.0
H1149 H 0.63298 0.1297 0.46458 0.0
C1150 C 0.65417 0.1478 0.47802 0.0
C1151 C 0.66806 0.14672 0.50094 0.0
C1152 C 0.6333 0.06963 0.54467 0.0
C1153 C 0.64604 0.1084 0.51087 0.0
C1154 C 0.62474 0.04901 0.5471 0.0
C1155 C 0.62023 0.04494 0.51995 0.0
C1156 C 0.63681 0.08646 0.51499 0.0
C1157 C 0.62418 0.06208 0.4908 0.0
C1158 C 0.64321 0.12873 0.48286 0.0
C1159 C 0.6694 0.12688 0.52928 0.0
N1160 N 0.63215 0.08211 0.48912 0.0
N1161 N 0.65869 0.10827 0.5334 0.0
H1162 H 0.82439 0.46932 0.2333 0.0
H1163 H 0.88798 0.30493 0.29695 0.0
H1164 H 0.77853 0.42108 0.28625 0.0
H1165 H 0.93964 0.34627 0.24103 0.0
H1166 H 0.84888 0.34917 0.29701 0.0
H1167 H 0.86774 0.42682 0.23937 0.0
C1168 C 0.82348 0.44994 0.24654 0.0
C1169 C 0.79785 0.44862 0.25898 0.0
C1170 C 0.86866 0.34887 0.28467 0.0
C1171 C 0.84693 0.40028 0.26599 0.0
C1172 C 0.8911 0.32345 0.2846 0.0
C1173 C 0.91707 0.32183 0.26861 0.0
C1174 C 0.87178 0.37329 0.26829 0.0
C1175 C 0.91987 0.34664 0.25348 0.0
C1176 C 0.84814 0.42572 0.24987 0.0
C1177 C 0.79776 0.42305 0.27587 0.0
N1178 N 0.89738 0.37144 0.25338 0.0
N1179 N 0.82174 0.40009 0.27871 0.0
H1180 H 0.14525 0.5132 0.55192 0.0
H1181 H 0.12621 0.66792 0.49189 0.0
H1182 H 0.0665 0.58116 0.5346 0.0
H1183 H 0.19147 0.60792 0.54636 0.0
H1184 H 0.10478 0.63542 0.50601 0.0
H1185 H 0.1639 0.54642 0.54913 0.0
C1186 C 0.13192 0.53506 0.54778 0.0
C1187 C 0.10444 0.54456 0.54325 0.0
C1188 C 0.12361 0.62943 0.51522 0.0
C1189 C 0.12544 0.58231 0.53983 0.0
C1190 C 0.13582 0.6479 0.50706 0.0
C1191 C 0.16052 0.64035 0.51798 0.0
C1192 C 0.13658 0.60306 0.53384 0.0
C1193 C 0.17231 0.61432 0.53763 0.0
C1194 C 0.14245 0.55392 0.5464 0.0
C1195 C 0.0878 0.573 0.53832 0.0
N1196 N 0.1604 0.59631 0.54464 0.0
N1197 N 0.09867 0.59089 0.53633 0.0
H1198 H 0.65788 0.06296 0.7984 0.0
H1199 H 0.58284 0.22584 0.79181 0.0
H1200 H 0.69908 0.11498 0.78917 0.0
H1201 H 0.53662 0.17896 0.799 0.0
H1202 H 0.62508 0.18406 0.79297 0.0
H1203 H 0.61314 0.10351 0.8002 0.0
C1204 C 0.65752 0.08287 0.79672 0.0
C1205 C 0.68226 0.08563 0.79354 0.0
C1206 C 0.60583 0.18264 0.79441 0.0
C1207 C 0.63133 0.1319 0.79579 0.0
C1208 C 0.58154 0.20662 0.79381 0.0
C1209 C 0.55607 0.20597 0.79531 0.0
C1210 C 0.60503 0.15743 0.79637 0.0
C1211 C 0.55583 0.18035 0.79788 0.0
C1212 C 0.632 0.10596 0.79782 0.0
C1213 C 0.6806 0.11183 0.79167 0.0
N1214 N 0.58001 0.15704 0.7982 0.0
N1215 N 0.6557 0.1338 0.79281 0.0
H1216 H 0.7803 0.58251 0.21297 0.0
H1217 H 0.73027 0.70304 0.06136 0.0
H1218 H 0.71755 0.59016 0.16487 0.0
H1219 H 0.76695 0.70811 0.13204 0.0
H1220 H 0.73109 0.65824 0.09318 0.0
H1221 H 0.78177 0.62461 0.17739 0.0
C1222 C 0.76696 0.59284 0.19473 0.0
C1223 C 0.74867 0.58263 0.19213 0.0
C1224 C 0.73907 0.66913 0.10161 0.0
C1225 C 0.75034 0.63132 0.151 0.0
C1226 C 0.73871 0.69459 0.0834 0.0
C1227 C 0.74855 0.70926 0.09408 0.0
C1228 C 0.74984 0.65807 0.13043 0.0
C1229 C 0.75914 0.6975 0.12293 0.0
C1230 C 0.76775 0.61705 0.17447 0.0
C1231 C 0.73193 0.59722 0.1679 0.0
N1232 N 0.75961 0.67262 0.13998 0.0
N1233 N 0.73315 0.62082 0.14827 0.0
H1234 H 0.90926 0.55018 0.49906 0.0
H1235 H 0.86591 0.46965 0.41665 0.0
H1236 H 0.96391 0.47287 0.47161 0.0
H1237 H 0.82033 0.55693 0.41391 0.0
H1238 H 0.89663 0.46763 0.44888 0.0
H1239 H 0.87186 0.55047 0.47806 0.0
C1240 C 0.91329 0.53329 0.48872 0.0
C1241 C 0.9396 0.51157 0.48683 0.0
C1242 C 0.87971 0.48718 0.44153 0.0
C1243 C 0.89729 0.51154 0.4634 0.0
C1244 C 0.86196 0.48829 0.42342 0.0
C1245 C 0.84067 0.51356 0.41232 0.0
C1246 C 0.87621 0.51149 0.44861 0.0
C1247 C 0.8368 0.53712 0.42155 0.0
C1248 C 0.89205 0.53345 0.47682 0.0
C1249 C 0.94395 0.49016 0.47322 0.0
N1250 N 0.8546 0.53558 0.43896 0.0
N1251 N 0.923 0.49065 0.4621 0.0
H1252 H 0.07736 0.55813 0.64856 0.0
H1253 H 0.03218 0.4539 0.61121 0.0
H1254 H 0.13195 0.47244 0.65007 0.0
H1255 H 0.97579 0.53425 0.6297 0.0
H1256 H 0.06999 0.46012 0.62301 0.0
H1257 H 0.04087 0.55035 0.63697 0.0
C1258 C 0.08173 0.53773 0.64625 0.0
C1259 C 0.1077 0.51588 0.65057 0.0
C1260 C 0.04926 0.47625 0.6247 0.0
C1261 C 0.06598 0.50672 0.63753 0.0
C1262 C 0.0278 0.47272 0.61788 0.0
C1263 C 0.00103 0.49371 0.61907 0.0
C1264 C 0.04375 0.5011 0.6323 0.0
C1265 C -0.00381 0.51756 0.62835 0.0
C1266 C 0.06087 0.53324 0.63979 0.0
C1267 C 0.11234 0.48998 0.64667 0.0
N1268 N 0.01738 0.52072 0.63423 0.0
N1269 N 0.09163 0.48607 0.64054 0.0
H1270 H 0.54362 0.74302 0.17538 0.0
H1271 H 0.64893 0.81497 0.10197 0.0
H1272 H 0.54095 0.80962 0.20788 0.0
H1273 H 0.6501 0.75072 0.06628 0.0
H1274 H 0.60795 0.81477 0.13898 0.0
H1275 H 0.58094 0.747 0.13367 0.0
C1276 C 0.55068 0.75863 0.17368 0.0
C1277 C 0.53905 0.77595 0.19541 0.0
C1278 C 0.61703 0.80082 0.12294 0.0
C1279 C 0.5821 0.78049 0.14755 0.0
C1280 C 0.64051 0.80092 0.1017 0.0
C1281 C 0.65321 0.78275 0.0809 0.0
C1282 C 0.60605 0.78232 0.1237 0.0
C1283 C 0.64113 0.76511 0.08178 0.0
C1284 C 0.57207 0.76086 0.14979 0.0
C1285 C 0.5492 0.79577 0.19181 0.0
N1286 N 0.61838 0.76522 0.10293 0.0
N1287 N 0.57017 0.79738 0.16854 0.0
H1288 H 0.64154 0.51575 0.09287 0.0
H1289 H 0.49077 0.52052 0.11821 0.0
H1290 H 0.5796 0.54115 0.17209 0.0
H1291 H 0.56067 0.46503 0.06671 0.0
H1292 H 0.52101 0.53645 0.1299 0.0
H1293 H 0.60961 0.50598 0.07425 0.0
C1294 C 0.62125 0.51951 0.10628 0.0
C1295 C 0.61361 0.52882 0.13457 0.0
C1296 C 0.52977 0.52086 0.11592 0.0
C1297 C 0.57686 0.51822 0.11282 0.0
C1298 C 0.51257 0.51162 0.10935 0.0
C1299 C 0.52323 0.49169 0.09097 0.0
C1300 C 0.55797 0.50999 0.10428 0.0
C1301 C 0.55158 0.481 0.0801 0.0
C1302 C 0.60306 0.51394 0.09553 0.0
C1303 C 0.58659 0.53419 0.15013 0.0
N1304 N 0.56807 0.49033 0.08687 0.0
N1305 N 0.56932 0.52865 0.13916 0.0
H1306 H 0.39077 0.42565 0.99849 0.0
H1307 H 0.24133 0.44136 0.99763 0.0
H1308 H 0.31636 0.49621 1.01999 0.0
H1309 H 0.31718 0.37061 0.98069 0.0
H1310 H 0.26833 0.46778 0.99075 0.0
H1311 H 0.36433 0.41208 0.97661 0.0
C1312 C 0.36894 0.43862 0.99828 0.0
C1313 C 0.35575 0.46183 1.01194 0.0
C1314 C 0.27893 0.44666 0.98779 0.0
C1315 C 0.32502 0.44561 0.98773 0.0
C1316 C 0.26355 0.43152 0.99187 0.0
C1317 C 0.277 0.40342 0.99081 0.0
C1318 C 0.30788 0.4335 0.98275 0.0
C1319 C 0.30576 0.39207 0.98208 0.0
C1320 C 0.35377 0.43071 0.98582 0.0
C1321 C 0.32727 0.47749 1.01101 0.0
N1322 N 0.32023 0.40699 0.97903 0.0
N1323 N 0.31276 0.46881 0.99967 0.0
H1324 H 0.07562 0.21049 0.25184 0.0
H1325 H 0.17064 0.07526 0.35285 0.0
H1326 H 0.03982 0.18013 0.34412 0.0
H1327 H 0.169 0.07688 0.25672 0.0
H1328 H 0.12657 0.11664 0.35165 0.0
H1329 H 0.1143 0.16471 0.2536 0.0
C1330 C 0.07588 0.19407 0.27238 0.0
C1331 C 0.05457 0.19894 0.29784 0.0
C1332 C 0.13574 0.10765 0.33102 0.0
C1333 C 0.09903 0.14701 0.30041 0.0
C1334 C 0.16083 0.08416 0.33165 0.0
C1335 C 0.17332 0.0726 0.30491 0.0
C1336 C 0.12365 0.12018 0.30308 0.0
C1337 C 0.15989 0.08501 0.27793 0.0
C1338 C 0.09784 0.16803 0.27331 0.0
C1339 C 0.05582 0.17705 0.32394 0.0
N1340 N 0.13605 0.10846 0.27747 0.0
N1341 N 0.07801 0.15211 0.32487 0.0
H1342 H 0.22548 0.33372 0.98498 0.0
H1343 H 0.18677 0.44658 0.82476 0.0
H1344 H 0.20133 0.32088 0.90936 0.0
H1345 H 0.24196 0.44439 0.87977 0.0
H1346 H 0.18457 0.40491 0.86104 0.0
H1347 H 0.22482 0.37826 0.95213 0.0
C1348 C 0.22006 0.34034 0.96152 0.0
C1349 C 0.21384 0.32346 0.94988 0.0
C1350 C 0.19703 0.41362 0.86534 0.0
C1351 C 0.21236 0.37449 0.91219 0.0
C1352 C 0.19818 0.43762 0.8447 0.0
C1353 C 0.21462 0.44921 0.84905 0.0
C1354 C 0.21211 0.40103 0.89099 0.0
C1355 C 0.22902 0.43628 0.87539 0.0
C1356 C 0.21966 0.36568 0.94276 0.0
C1357 C 0.20643 0.33313 0.91934 0.0
N1358 N 0.22742 0.41294 0.89535 0.0
N1359 N 0.20582 0.35795 0.90165 0.0
H1360 H 0.3121 0.28464 0.97666 0.0
H1361 H 0.43369 0.20793 0.85004 0.0
H1362 H 0.3165 0.21563 0.94751 0.0
H1363 H 0.42134 0.28413 0.86956 0.0
H1364 H 0.39413 0.20715 0.88996 0.0
H1365 H 0.3549 0.2816 0.94175 0.0
C1366 C 0.32206 0.26871 0.96309 0.0
C1367 C 0.3104 0.25043 0.9651 0.0
C1368 C 0.40022 0.22392 0.88568 0.0
C1369 C 0.35987 0.24684 0.92478 0.0
C1370 C 0.42296 0.2243 0.863 0.0
C1371 C 0.43095 0.24617 0.85629 0.0
C1372 C 0.38533 0.24548 0.90198 0.0
C1373 C 0.416 0.26687 0.87379 0.0
C1374 C 0.3466 0.26703 0.94305 0.0
C1375 C 0.32454 0.23026 0.94677 0.0
N1376 N 0.39394 0.26606 0.89566 0.0
N1377 N 0.34844 0.22905 0.92739 0.0
H1378 H 0.48263 0.47339 0.93967 0.0
H1379 H 0.32132 0.51914 0.94511 0.0
H1380 H 0.4199 0.53569 0.98877 0.0
H1381 H 0.38475 0.47322 0.87896 0.0
H1382 H 0.35694 0.52111 0.96633 0.0
H1383 H 0.44674 0.46925 0.92182 0.0
C1384 C 0.46122 0.48639 0.94651 0.0
C1385 C 0.45415 0.50498 0.96566 0.0
C1386 C 0.36298 0.51053 0.94725 0.0
C1387 C 0.41287 0.50031 0.94529 0.0
C1388 C 0.34267 0.50936 0.93507 0.0
C1389 C 0.34984 0.49628 0.90981 0.0
C1390 C 0.39076 0.49823 0.93441 0.0
C1391 C 0.37802 0.48329 0.89858 0.0
C1392 C 0.44073 0.48396 0.93635 0.0
C1393 C 0.42613 0.52104 0.97412 0.0
N1394 N 0.39736 0.48472 0.91084 0.0
N1395 N 0.40642 0.51836 0.96384 0.0
H1396 H 0.66475 0.64142 0.04913 0.0
H1397 H 0.57338 0.61506 0.96166 0.0
H1398 H 0.62615 0.69718 0.96759 0.0
H1399 H 0.61032 0.5584 0.04396 0.0
H1400 H 0.5868 0.64849 0.96884 0.0
H1401 H 0.63904 0.6142 0.05336 0.0
C1402 C 0.65043 0.64819 0.03254 0.0
C1403 C 0.64786 0.67117 1.00762 0.0
C1404 C 0.59179 0.62885 0.98555 0.0
C1405 C 0.61883 0.64021 1.012 0.0
C1406 C 0.58401 0.60974 0.98154 0.0
C1407 C 0.59088 0.58375 1.00215 0.0
C1408 C 0.60692 0.62188 1.01011 0.0
C1409 C 0.60507 0.57796 1.02718 0.0
C1410 C 0.63591 0.63262 0.03483 0.0
C1411 C 0.62911 0.67919 0.98671 0.0
N1412 N 0.61287 0.5968 0.0303 0.0
N1413 N 0.61555 0.66353 0.98914 0.0
H1414 H 0.88105 0.80621 0.76436 0.0
H1415 H 0.82181 0.97053 0.74279 0.0
H1416 H 0.93588 0.84692 0.7408 0.0
H1417 H 0.77347 0.92465 0.75496 0.0
H1418 H 0.86408 0.92691 0.74375 0.0
H1419 H 0.84179 0.85051 0.7629 0.0
C1420 C 0.88486 0.82458 0.75876 0.0
C1421 C 0.91186 0.82277 0.7526 0.0
C1422 C 0.84416 0.92655 0.74613 0.0
C1423 C 0.86642 0.8743 0.75095 0.0
C1424 C 0.82009 0.95138 0.74561 0.0
C1425 C 0.79406 0.95126 0.74865 0.0
C1426 C 0.842 0.90158 0.74991 0.0
C1427 C 0.793 0.92589 0.75236 0.0
C1428 C 0.8623 0.85004 0.75793 0.0
C1429 C 0.91537 0.84741 0.74564 0.0
N1430 N 0.81644 0.9023 0.7529 0.0
N1431 N 0.89287 0.87224 0.74502 0.0
H1432 H 0.43594 0.17415 0.64694 0.0
H1433 H 0.5242 0.06325 0.53936 0.0
H1434 H 0.52488 0.13965 0.62678 0.0
H1435 H 0.43566 0.09375 0.56424 0.0
H1436 H 0.52408 0.09667 0.564 0.0
H1437 H 0.43482 0.15028 0.6101 0.0
C1438 C 0.45524 0.16169 0.6346 0.0
C1439 C 0.48057 0.15863 0.64029 0.0
C1440 C 0.50461 0.09636 0.56368 0.0
C1441 C 0.47943 0.13129 0.59791 0.0
C1442 C 0.50463 0.07729 0.5495 0.0
C1443 C 0.47992 0.07539 0.55003 0.0
C1444 C 0.47969 0.11373 0.57857 0.0
C1445 C 0.45523 0.09433 0.56335 0.0
C1446 C 0.45458 0.14815 0.61346 0.0
C1447 C 0.50488 0.14269 0.6231 0.0
N1448 N 0.45579 0.11247 0.57743 0.0
N1449 N 0.50372 0.12938 0.60297 0.0
H1450 H 0.46952 0.34643 0.9352 0.0
H1451 H 0.55161 0.41705 0.97489 0.0
H1452 H 0.54167 0.35525 0.87647 0.0
H1453 H 0.47456 0.41593 1.02788 0.0
H1454 H 0.55357 0.38599 0.94502 0.0
H1455 H 0.47618 0.3637 0.97514 0.0
C1456 C 0.48703 0.35157 0.93092 0.0
C1457 C 0.50486 0.34974 0.90227 0.0
C1458 C 0.53647 0.3922 0.96354 0.0
C1459 C 0.51247 0.36978 0.94776 0.0
C1460 C 0.53544 0.40977 0.98081 0.0
C1461 C 0.51269 0.41944 1.00366 0.0
C1462 C 0.51459 0.38425 0.96919 0.0
C1463 C 0.49232 0.40933 1.01018 0.0
C1464 C 0.49075 0.36157 0.95367 0.0
C1465 C 0.52709 0.35688 0.89795 0.0
N1466 N 0.49357 0.3926 0.99276 0.0
N1467 N 0.53013 0.3668 0.9203 0.0
H1468 H 0.43999 0.87168 0.43769 0.0
H1469 H 0.53546 0.90799 0.50773 0.0
H1470 H 0.52862 0.84003 0.41373 0.0
H1471 H 0.44751 0.93543 0.53604 0.0
H1472 H 0.53422 0.87807 0.47868 0.0
H1473 H 0.44292 0.8912 0.47793 0.0
C1474 C 0.4601 0.8687 0.44099 0.0
C1475 C 0.48408 0.85438 0.42201 0.0
C1476 C 0.51523 0.89034 0.49163 0.0
C1477 C 0.48761 0.87656 0.46835 0.0
C1478 C 0.51595 0.90731 0.50849 0.0
C1479 C 0.49144 0.92469 0.524 0.0
C1480 C 0.48981 0.89079 0.49011 0.0
C1481 C 0.46683 0.9228 0.52402 0.0
C1482 C 0.46178 0.87971 0.46414 0.0
C1483 C 0.5096 0.85075 0.42784 0.0
N1484 N 0.46656 0.90656 0.50693 0.0
N1485 N 0.51066 0.862 0.45023 0.0
H1486 H 0.50699 0.5763 1.02591 0.0
H1487 H 0.44866 0.63653 0.18194 0.0
H1488 H 0.43693 0.56881 0.09111 0.0
H1489 H 0.51188 0.6531 0.11098 0.0
H1490 H 0.44326 0.61283 0.14809 0.0
H1491 H 0.50755 0.60654 0.05487 0.0
C1492 C 0.49139 0.58143 0.04597 0.0
C1493 C 0.47203 0.56981 0.05613 0.0
C1494 C 0.45826 0.62171 0.13983 0.0
C1495 C 0.47271 0.60424 0.08985 0.0
C1496 C 0.46157 0.63501 0.15929 0.0
C1497 C 0.48101 0.64654 0.14944 0.0
C1498 C 0.4746 0.61973 0.11026 0.0
C1499 C 0.49665 0.64453 0.1195 0.0
C1500 C 0.49177 0.59866 0.06261 0.0
C1501 C 0.45219 0.57733 0.08229 0.0
N1502 N 0.49325 0.6312 0.10106 0.0
N1503 N 0.45328 0.59378 0.0985 0.0
loop_
_geom_bond_atom_site_label_1
_geom_bond_atom_site_label_2
_geom_bond_distance
_geom_bond_site_symmetry_2
_ccdc_geom_bond_type
Gd0 C3 2.818 . S
Gd0 O20 2.377 1_654 S
Gd0 O22 2.448 . S
Gd0 O23 2.506 . S
Gd0 O24 2.435 1_655 S
Gd0 O25 2.717 1_655 S
Gd0 O27 2.395 1_565 S
Gd0 O31 2.327 1_564 S
Gd1 C12 2.818 . S
Gd1 O21 2.395 1_545 S
Gd1 O25 2.327 1_546 S
Gd1 O26 2.377 1_456 S
Gd1 O28 2.448 . S
Gd1 O29 2.506 . S
Gd1 O30 2.435 1_455 S
Gd1 O31 2.717 1_455 S
C2 O20 1.240 . S
C2 O21 1.240 . S
C3 Gd0 2.818 . S
C3 C4 1.510 . S
C3 O22 1.249 . S
C3 O23 1.252 . S
C4 C3 1.510 . S
C4 C5 1.404 . S
C4 C6 1.352 . S
C5 C4 1.404 . S
C5 C9 1.389 . S
C5 H32 0.930 . S
C6 C4 1.352 . S
C6 C8 1.374 . S
C6 H33 0.904 1_554 S
C7 C8 1.359 . S
C7 C9 1.364 . S
C8 C6 1.374 . S
C8 C7 1.359 . S
C8 H34 0.931 . S
C9 C5 1.389 . S
C9 C7 1.364 . S
C9 H35 0.931 . S
C10 O24 1.256 . S
C10 O25 1.257 . S
C11 O26 1.240 . S
C11 O27 1.240 . S
C12 Gd1 2.818 . S
C12 C13 1.510 . S
C12 O28 1.249 . S
C12 O29 1.252 . S
C13 C12 1.510 . S
C13 C14 1.404 . S
C13 C15 1.352 . S
C14 C13 1.404 . S
C14 C18 1.389 . S
C14 H36 0.930 . S
C15 C13 1.352 . S
C15 C17 1.374 . S
C15 H37 0.931 1_556 S
C16 C17 1.359 . S
C16 C18 1.364 . S
C17 C15 1.374 . S
C17 C16 1.359 . S
C17 H38 0.931 . S
C18 C14 1.389 . S
C18 C16 1.364 . S
C18 H39 0.931 . S
C19 O30 1.256 . S
C19 O31 1.257 . S
O20 Gd0 2.377 1_456 S
O20 C2 1.240 . S
O21 Gd1 2.395 1_565 S
O21 C2 1.240 . S
O22 Gd0 2.448 . S
O22 C3 1.249 . S
O23 Gd0 2.506 . S
O23 C3 1.252 . S
O24 Gd0 2.435 1_455 S
O24 C10 1.256 . S
O25 Gd0 2.717 1_455 S
O25 Gd1 2.327 1_564 S
O25 C10 1.257 . S
O26 Gd1 2.377 1_654 S
O26 C11 1.240 . S
O27 Gd0 2.395 1_545 S
O27 C11 1.240 . S
O28 Gd1 2.448 . S
O28 C12 1.249 . S
O29 Gd1 2.506 . S
O29 C12 1.252 . S
O30 Gd1 2.435 1_655 S
O30 C19 1.256 . S
O31 Gd0 2.327 1_546 S
O31 Gd1 2.717 1_655 S
O31 C19 1.257 . S
H32 C5 0.930 . S
H33 C6 0.904 1_556 S
H34 C8 0.931 . S
H35 C9 0.931 . S
H36 C14 0.930 . S
H37 C15 0.931 1_554 S
H38 C17 0.931 . S
H39 C18 0.931 . S
Gd40 C43 2.818 . S
Gd40 O60 2.377 1_455 S
Gd40 O62 2.448 . S
Gd40 O63 2.506 1_455 S
Gd40 O64 2.435 . S
Gd40 O65 2.717 . S
Gd40 O67 2.395 . S
Gd40 O71 2.327 1_455 S
Gd41 C52 2.818 . S
Gd41 O61 2.395 . S
Gd41 O65 2.327 1_655 S
Gd41 O66 2.377 1_655 S
Gd41 O68 2.448 . S
Gd41 O69 2.506 1_655 S
Gd41 O70 2.435 . S
Gd41 O71 2.717 . S
C42 O60 1.240 . S
C42 O61 1.240 . S
C43 Gd40 2.818 . S
C43 C44 1.510 1_455 S
C43 O62 1.249 . S
C43 O63 1.252 1_455 S
C44 C43 1.510 1_655 S
C44 C45 1.404 1_655 S
C44 C46 1.352 . S
C45 C44 1.404 1_455 S
C45 C49 1.389 . S
C45 H72 0.930 . S
C46 C44 1.352 . S
C46 C48 1.374 . S
C46 H73 0.931 . S
C47 C48 1.359 . S
C47 C49 1.364 1_655 S
C48 C46 1.374 . S
C48 C47 1.359 . S
C48 H74 0.931 . S
C49 C45 1.389 . S
C49 C47 1.364 1_455 S
C49 H75 0.931 . S
C50 O64 1.256 . S
C50 O65 1.257 . S
C51 O66 1.240 . S
C51 O67 1.240 . S
C52 Gd41 2.818 . S
C52 C53 1.510 1_655 S
C52 O68 1.249 . S
C52 O69 1.252 1_655 S
C53 C52 1.510 1_455 S
C53 C54 1.404 1_455 S
C53 C55 1.352 . S
C54 C53 1.404 1_655 S
C54 C58 1.389 . S
C54 H76 0.930 . S
C55 C53 1.352 . S
C55 C57 1.374 . S
C55 H77 0.931 . S
C56 C57 1.359 . S
C56 C58 1.364 1_455 S
C57 C55 1.374 . S
C57 C56 1.359 . S
C57 H78 0.931 . S
C58 C54 1.389 . S
C58 C56 1.364 1_655 S
C58 H79 0.931 . S
C59 O70 1.256 . S
C59 O71 1.257 . S
O60 Gd40 2.377 1_655 S
O60 C42 1.240 . S
O61 Gd41 2.395 . S
O61 C42 1.240 . S
O62 Gd40 2.448 . S
O62 C43 1.249 . S
O63 Gd40 2.506 1_655 S
O63 C43 1.252 1_655 S
O64 Gd40 2.435 . S
O64 C50 1.256 . S
O65 Gd40 2.717 . S
O65 Gd41 2.327 1_455 S
O65 C50 1.257 . S
O66 Gd41 2.377 1_455 S
O66 C51 1.240 . S
O67 Gd40 2.395 . S
O67 C51 1.240 . S
O68 Gd41 2.448 . S
O68 C52 1.249 . S
O69 Gd41 2.506 1_455 S
O69 C52 1.252 1_455 S
O70 Gd41 2.435 . S
O70 C59 1.256 . S
O71 Gd40 2.327 1_655 S
O71 Gd41 2.717 . S
O71 C59 1.257 . S
H72 C45 0.930 . S
H73 C46 0.931 . S
H74 C48 0.931 . S
H75 C49 0.931 . S
H76 C54 0.930 . S
H77 C55 0.931 . S
H78 C57 0.931 . S
H79 C58 0.931 . S
Gd80 C83 2.818 . S
Gd80 O100 2.377 . S
Gd80 O102 2.448 . S
Gd80 O103 2.506 . S
Gd80 O104 2.435 . S
Gd80 O105 2.717 . S
Gd80 O107 2.395 . S
Gd80 O111 2.327 . S
Gd81 C92 2.818 . S
Gd81 O101 2.395 . S
Gd81 O105 2.327 . S
Gd81 O106 2.377 . S
Gd81 O108 2.448 . S
Gd81 O109 2.506 . S
Gd81 O110 2.435 . S
Gd81 O111 2.717 . S
C82 O100 1.240 . S
C82 O101 1.240 . S
C83 Gd80 2.818 . S
C83 C84 1.510 . S
C83 O102 1.249 . S
C83 O103 1.252 . S
C84 C83 1.510 . S
C84 C85 1.404 . S
C84 C86 1.352 . S
C85 C84 1.404 . S
C85 C89 1.389 . S
C85 H112 0.930 . S
C86 C84 1.352 . S
C86 C88 1.374 . S
C86 H113 0.931 . S
C87 C88 1.359 . S
C87 C89 1.364 . S
C88 C86 1.374 . S
C88 C87 1.359 . S
C88 H114 0.931 . S
C89 C85 1.389 . S
C89 C87 1.364 . S
C89 H115 0.931 . S
C90 O104 1.256 . S
C90 O105 1.257 . S
C91 O106 1.240 . S
C91 O107 1.240 . S
C92 Gd81 2.818 . S
C92 C93 1.510 . S
C92 O108 1.249 . S
C92 O109 1.252 . S
C93 C92 1.510 . S
C93 C94 1.404 . S
C93 C95 1.352 . S
C94 C93 1.404 . S
C94 C98 1.389 . S
C94 H116 0.930 . S
C95 C93 1.352 . S
C95 C97 1.374 . S
C95 H117 0.931 . S
C96 C97 1.359 . S
C96 C98 1.364 . S
C97 C95 1.374 . S
C97 C96 1.359 . S
C97 H118 0.931 . S
C98 C94 1.389 . S
C98 C96 1.364 . S
C98 H119 0.931 . S
C99 O110 1.256 . S
C99 O111 1.257 . S
O100 Gd80 2.377 . S
O100 C82 1.240 . S
O101 Gd81 2.395 . S
O101 C82 1.240 . S
O102 Gd80 2.448 . S
O102 C83 1.249 . S
O103 Gd80 2.506 . S
O103 C83 1.252 . S
O104 Gd80 2.435 . S
O104 C90 1.256 . S
O105 Gd80 2.717 . S
O105 Gd81 2.327 . S
O105 C90 1.257 . S
O106 Gd81 2.377 . S
O106 C91 1.240 . S
O107 Gd80 2.395 . S
O107 C91 1.240 . S
O108 Gd81 2.448 . S
O108 C92 1.249 . S
O109 Gd81 2.506 . S
O109 C92 1.252 . S
O110 Gd81 2.435 . S
O110 C99 1.256 . S
O111 Gd80 2.327 . S
O111 Gd81 2.717 . S
O111 C99 1.257 . S
H112 C85 0.930 . S
H113 C86 0.931 . S
H114 C88 0.931 . S
H115 C89 0.931 . S
H116 C94 0.930 . S
H117 C95 0.931 . S
H118 C97 0.931 . S
H119 C98 0.931 . S
Gd120 C123 2.818 . S
Gd120 O140 2.377 1_565 S
Gd120 O142 2.448 . S
Gd120 O143 2.506 1_565 S
Gd120 O144 2.435 . S
Gd120 O145 2.717 . S
Gd120 O147 2.395 . S
Gd120 O151 2.327 1_565 S
Gd121 C132 2.818 . S
Gd121 O141 2.395 . S
Gd121 O145 2.327 1_545 S
Gd121 O146 2.377 1_545 S
Gd121 O148 2.448 . S
Gd121 O149 2.506 1_545 S
Gd121 O150 2.435 . S
Gd121 O151 2.717 . S
C122 O140 1.240 . S
C122 O141 1.240 . S
C123 Gd120 2.818 . S
C123 C124 1.510 1_565 S
C123 O142 1.249 . S
C123 O143 1.252 1_565 S
C124 C123 1.510 1_545 S
C124 C125 1.404 1_545 S
C124 C126 1.352 . S
C125 C124 1.404 1_565 S
C125 C129 1.389 . S
C125 H152 0.930 . S
C126 C124 1.352 . S
C126 C128 1.374 . S
C126 H153 0.931 . S
C127 C128 1.359 . S
C127 C129 1.364 1_545 S
C128 C126 1.374 . S
C128 C127 1.359 . S
C128 H154 0.931 . S
C129 C125 1.389 . S
C129 C127 1.364 1_565 S
C129 H155 0.931 . S
C130 O144 1.256 . S
C130 O145 1.257 . S
C131 O146 1.240 . S
C131 O147 1.240 . S
C132 Gd121 2.818 . S
C132 C133 1.510 1_545 S
C132 O148 1.249 . S
C132 O149 1.252 1_545 S
C133 C132 1.510 1_565 S
C133 C134 1.404 1_565 S
C133 C135 1.352 . S
C134 C133 1.404 1_545 S
C134 C138 1.389 . S
C134 H156 0.930 . S
C135 C133 1.352 . S
C135 C137 1.374 . S
C135 H157 0.931 . S
C136 C137 1.359 . S
C136 C138 1.364 1_565 S
C137 C135 1.374 . S
C137 C136 1.359 . S
C137 H158 0.931 . S
C138 C134 1.389 . S
C138 C136 1.364 1_545 S
C138 H159 0.931 . S
C139 O150 1.256 . S
C139 O151 1.257 . S
O140 Gd120 2.377 1_545 S
O140 C122 1.240 . S
O141 Gd121 2.395 . S
O141 C122 1.240 . S
O142 Gd120 2.448 . S
O142 C123 1.249 . S
O143 Gd120 2.506 1_545 S
O143 C123 1.252 1_545 S
O144 Gd120 2.435 . S
O144 C130 1.256 . S
O145 Gd120 2.717 . S
O145 Gd121 2.327 1_565 S
O145 C130 1.257 . S
O146 Gd121 2.377 1_565 S
O146 C131 1.240 . S
O147 Gd120 2.395 . S
O147 C131 1.240 . S
O148 Gd121 2.448 . S
O148 C132 1.249 . S
O149 Gd121 2.506 1_565 S
O149 C132 1.252 1_565 S
O150 Gd121 2.435 . S
O150 C139 1.256 . S
O151 Gd120 2.327 1_545 S
O151 Gd121 2.717 . S
O151 C139 1.257 . S
H152 C125 0.930 . S
H153 C126 0.931 . S
H154 C128 0.931 . S
H155 C129 0.931 . S
H156 C134 0.930 . S
H157 C135 0.931 . S
H158 C137 0.931 . S
H159 C138 0.931 . S
Gd160 C163 2.818 . S
Gd160 O180 2.377 . S
Gd160 O182 2.448 . S
Gd160 O183 2.506 . S
Gd160 O184 2.435 . S
Gd160 O185 2.717 . S
Gd160 O187 2.395 . S
Gd160 O191 2.327 . S
Gd161 C172 2.818 . S
Gd161 O181 2.395 . S
Gd161 O185 2.327 . S
Gd161 O186 2.377 . S
Gd161 O188 2.448 . S
Gd161 O189 2.506 . S
Gd161 O190 2.435 . S
Gd161 O191 2.717 . S
C162 O180 1.240 . S
C162 O181 1.240 . S
C163 Gd160 2.818 . S
C163 C164 1.510 . S
C163 O182 1.249 . S
C163 O183 1.252 . S
C164 C163 1.510 . S
C164 C165 1.404 . S
C164 C166 1.352 . S
C165 C164 1.404 . S
C165 C169 1.389 . S
C165 H192 0.930 . S
C166 C164 1.352 . S
C166 C168 1.374 . S
C166 H193 0.931 . S
C167 C168 1.359 . S
C167 C169 1.364 . S
C168 C166 1.374 . S
C168 C167 1.359 . S
C168 H194 0.931 . S
C169 C165 1.389 . S
C169 C167 1.364 . S
C169 H195 0.931 . S
C170 O184 1.256 . S
C170 O185 1.257 . S
C171 O186 1.240 . S
C171 O187 1.240 . S
C172 Gd161 2.818 . S
C172 C173 1.510 . S
C172 O188 1.249 . S
C172 O189 1.252 . S
C173 C172 1.510 . S
C173 C174 1.404 . S
C173 C175 1.352 . S
C174 C173 1.404 . S
C174 C178 1.389 . S
C174 H196 0.930 . S
C175 C173 1.352 . S
C175 C177 1.374 . S
C175 H197 0.931 . S
C176 C177 1.359 . S
C176 C178 1.364 . S
C177 C175 1.374 . S
C177 C176 1.359 . S
C177 H198 0.931 . S
C178 C174 1.389 . S
C178 C176 1.364 . S
C178 H199 0.931 . S
C179 O190 1.256 . S
C179 O191 1.257 . S
O180 Gd160 2.377 . S
O180 C162 1.240 . S
O181 Gd161 2.395 . S
O181 C162 1.240 . S
O182 Gd160 2.448 . S
O182 C163 1.249 . S
O183 Gd160 2.506 . S
O183 C163 1.252 . S
O184 Gd160 2.435 . S
O184 C170 1.256 . S
O185 Gd160 2.717 . S
O185 Gd161 2.327 . S
O185 C170 1.257 . S
O186 Gd161 2.377 . S
O186 C171 1.240 . S
O187 Gd160 2.395 . S
O187 C171 1.240 . S
O188 Gd161 2.448 . S
O188 C172 1.249 . S
O189 Gd161 2.506 . S
O189 C172 1.252 . S
O190 Gd161 2.435 . S
O190 C179 1.256 . S
O191 Gd160 2.327 . S
O191 Gd161 2.717 . S
O191 C179 1.257 . S
H192 C165 0.930 . S
H193 C166 0.931 . S
H194 C168 0.931 . S
H195 C169 0.931 . S
H196 C174 0.930 . S
H197 C175 0.931 . S
H198 C177 0.931 . S
H199 C178 0.931 . S
Gd200 C203 2.818 . S
Gd200 O220 2.377 . S
Gd200 O222 2.448 . S
Gd200 O223 2.506 . S
Gd200 O224 2.435 . S
Gd200 O225 2.717 . S
Gd200 O227 2.395 . S
Gd200 O231 2.327 . S
Gd201 C212 2.818 . S
Gd201 O221 2.395 . S
Gd201 O225 2.327 . S
Gd201 O226 2.377 . S
Gd201 O228 2.448 . S
Gd201 O229 2.506 . S
Gd201 O230 2.435 . S
Gd201 O231 2.717 . S
C202 O220 1.240 . S
C202 O221 1.240 . S
C203 Gd200 2.818 . S
C203 C204 1.510 . S
C203 O222 1.249 . S
C203 O223 1.252 . S
C204 C203 1.510 . S
C204 C205 1.404 . S
C204 C206 1.352 . S
C205 C204 1.404 . S
C205 C209 1.389 . S
C205 H232 0.930 . S
C206 C204 1.352 . S
C206 C208 1.374 . S
C206 H233 0.931 . S
C207 C208 1.359 . S
C207 C209 1.364 . S
C208 C206 1.374 . S
C208 C207 1.359 . S
C208 H234 0.931 . S
C209 C205 1.389 . S
C209 C207 1.364 . S
C209 H235 0.931 . S
C210 O224 1.256 . S
C210 O225 1.257 . S
C211 O226 1.240 . S
C211 O227 1.240 . S
C212 Gd201 2.818 . S
C212 C213 1.510 . S
C212 O228 1.249 . S
C212 O229 1.252 . S
C213 C212 1.510 . S
C213 C214 1.404 . S
C213 C215 1.352 . S
C214 C213 1.404 . S
C214 C218 1.389 . S
C214 H236 0.930 . S
C215 C213 1.352 . S
C215 C217 1.374 . S
C215 H237 0.931 . S
C216 C217 1.359 . S
C216 C218 1.364 . S
C217 C215 1.374 . S
C217 C216 1.359 . S
C217 H238 0.931 . S
C218 C214 1.389 . S
C218 C216 1.364 . S
C218 H239 0.931 . S
C219 O230 1.256 . S
C219 O231 1.257 . S
O220 Gd200 2.377 . S
O220 C202 1.240 . S
O221 Gd201 2.395 . S
O221 C202 1.240 . S
O222 Gd200 2.448 . S
O222 C203 1.249 . S
O223 Gd200 2.506 . S
O223 C203 1.252 . S
O224 Gd200 2.435 . S
O224 C210 1.256 . S
O225 Gd200 2.717 . S
O225 Gd201 2.327 . S
O225 C210 1.257 . S
O226 Gd201 2.377 . S
O226 C211 1.240 . S
O227 Gd200 2.395 . S
O227 C211 1.240 . S
O228 Gd201 2.448 . S
O228 C212 1.249 . S
O229 Gd201 2.506 . S
O229 C212 1.252 . S
O230 Gd201 2.435 . S
O230 C219 1.256 . S
O231 Gd200 2.327 . S
O231 Gd201 2.717 . S
O231 C219 1.257 . S
H232 C205 0.930 . S
H233 C206 0.931 . S
H234 C208 0.931 . S
H235 C209 0.931 . S
H236 C214 0.930 . S
H237 C215 0.931 . S
H238 C217 0.931 . S
H239 C218 0.931 . S
Gd240 C243 2.818 . S
Gd240 O260 2.377 . S
Gd240 O262 2.448 . S
Gd240 O263 2.506 . S
Gd240 O264 2.435 . S
Gd240 O265 2.717 . S
Gd240 O267 2.395 . S
Gd240 O271 2.327 . S
Gd241 C252 2.818 . S
Gd241 O261 2.395 . S
Gd241 O265 2.327 . S
Gd241 O266 2.377 . S
Gd241 O268 2.448 . S
Gd241 O269 2.506 . S
Gd241 O270 2.435 . S
Gd241 O271 2.717 . S
C242 O260 1.240 . S
C242 O261 1.240 . S
C243 Gd240 2.818 . S
C243 C244 1.510 . S
C243 O262 1.249 . S
C243 O263 1.252 . S
C244 C243 1.510 . S
C244 C245 1.404 . S
C244 C246 1.352 . S
C245 C244 1.404 . S
C245 C249 1.389 . S
C245 H272 0.930 . S
C246 C244 1.352 . S
C246 C248 1.374 . S
C246 H273 0.931 . S
C247 C248 1.359 . S
C247 C249 1.364 . S
C248 C246 1.374 . S
C248 C247 1.359 . S
C248 H274 0.931 . S
C249 C245 1.389 . S
C249 C247 1.364 . S
C249 H275 0.931 . S
C250 O264 1.256 . S
C250 O265 1.257 . S
C251 O266 1.240 . S
C251 O267 1.240 . S
C252 Gd241 2.818 . S
C252 C253 1.510 . S
C252 O268 1.249 . S
C252 O269 1.252 . S
C253 C252 1.510 . S
C253 C254 1.404 . S
C253 C255 1.352 . S
C254 C253 1.404 . S
C254 C258 1.389 . S
C254 H276 0.930 . S
C255 C253 1.352 . S
C255 C257 1.374 . S
C255 H277 0.931 . S
C256 C257 1.359 . S
C256 C258 1.364 . S
C257 C255 1.374 . S
C257 C256 1.359 . S
C257 H278 0.931 . S
C258 C254 1.389 . S
C258 C256 1.364 . S
C258 H279 0.931 . S
C259 O270 1.256 . S
C259 O271 1.257 . S
O260 Gd240 2.377 . S
O260 C242 1.240 . S
O261 Gd241 2.395 . S
O261 C242 1.240 . S
O262 Gd240 2.448 . S
O262 C243 1.249 . S
O263 Gd240 2.506 . S
O263 C243 1.252 . S
O264 Gd240 2.435 . S
O264 C250 1.256 . S
O265 Gd240 2.717 . S
O265 Gd241 2.327 . S
O265 C250 1.257 . S
O266 Gd241 2.377 . S
O266 C251 1.240 . S
O267 Gd240 2.395 . S
O267 C251 1.240 . S
O268 Gd241 2.448 . S
O268 C252 1.249 . S
O269 Gd241 2.506 . S
O269 C252 1.252 . S
O270 Gd241 2.435 . S
O270 C259 1.256 . S
O271 Gd240 2.327 . S
O271 Gd241 2.717 . S
O271 C259 1.257 . S
H272 C245 0.930 . S
H273 C246 0.931 . S
H274 C248 0.931 . S
H275 C249 0.931 . S
H276 C254 0.930 . S
H277 C255 0.931 . S
H278 C257 0.931 . S
H279 C258 0.931 . S
Gd280 C283 2.818 . S
Gd280 O300 2.377 1_655 S
Gd280 O302 2.448 . S
Gd280 O303 2.506 . S
Gd280 O304 2.435 1_655 S
Gd280 O305 2.717 1_655 S
Gd280 O307 2.395 . S
Gd280 O311 2.327 . S
Gd281 C292 2.818 . S
Gd281 O301 2.395 . S
Gd281 O305 2.327 . S
Gd281 O306 2.377 1_455 S
Gd281 O308 2.448 . S
Gd281 O309 2.506 . S
Gd281 O310 2.435 1_455 S
Gd281 O311 2.717 1_455 S
C282 O300 1.240 . S
C282 O301 1.240 . S
C283 Gd280 2.818 . S
C283 C284 1.510 . S
C283 O302 1.249 . S
C283 O303 1.252 . S
C284 C283 1.510 . S
C284 C285 1.404 . S
C284 C286 1.352 . S
C285 C284 1.404 . S
C285 C289 1.389 . S
C285 H312 0.930 . S
C286 C284 1.352 . S
C286 C288 1.374 . S
C286 H313 0.931 . S
C287 C288 1.359 . S
C287 C289 1.364 . S
C288 C286 1.374 . S
C288 C287 1.359 . S
C288 H314 0.931 . S
C289 C285 1.389 . S
C289 C287 1.364 . S
C289 H315 0.931 . S
C290 O304 1.256 . S
C290 O305 1.257 . S
C291 O306 1.240 . S
C291 O307 1.240 . S
C292 Gd281 2.818 . S
C292 C293 1.510 . S
C292 O308 1.249 . S
C292 O309 1.252 . S
C293 C292 1.510 . S
C293 C294 1.404 . S
C293 C295 1.352 . S
C294 C293 1.404 . S
C294 C298 1.389 . S
C294 H316 0.930 . S
C295 C293 1.352 . S
C295 C297 1.374 . S
C295 H317 0.931 . S
C296 C297 1.359 . S
C296 C298 1.364 . S
C297 C295 1.374 . S
C297 C296 1.359 . S
C297 H318 0.931 . S
C298 C294 1.389 . S
C298 C296 1.364 . S
C298 H319 0.931 . S
C299 O310 1.256 . S
C299 O311 1.257 . S
O300 Gd280 2.377 1_455 S
O300 C282 1.240 . S
O301 Gd281 2.395 . S
O301 C282 1.240 . S
O302 Gd280 2.448 . S
O302 C283 1.249 . S
O303 Gd280 2.506 . S
O303 C283 1.252 . S
O304 Gd280 2.435 1_455 S
O304 C290 1.256 . S
O305 Gd280 2.717 1_455 S
O305 Gd281 2.327 . S
O305 C290 1.257 . S
O306 Gd281 2.377 1_655 S
O306 C291 1.240 . S
O307 Gd280 2.395 . S
O307 C291 1.240 . S
O308 Gd281 2.448 . S
O308 C292 1.249 . S
O309 Gd281 2.506 . S
O309 C292 1.252 . S
O310 Gd281 2.435 1_655 S
O310 C299 1.256 . S
O311 Gd280 2.327 . S
O311 Gd281 2.717 1_655 S
O311 C299 1.257 . S
H312 C285 0.930 . S
H313 C286 0.931 . S
H314 C288 0.931 . S
H315 C289 0.931 . S
H316 C294 0.930 . S
H317 C295 0.931 . S
H318 C297 0.931 . S
H319 C298 0.931 . S
Gd320 C323 2.818 . S
Gd320 O340 2.377 1_556 S
Gd320 O342 2.448 . S
Gd320 O343 2.506 . S
Gd320 O344 2.435 . S
Gd320 O345 2.717 . S
Gd320 O347 2.395 . S
Gd320 O351 2.327 1_556 S
Gd321 C332 2.818 . S
Gd321 O341 2.395 . S
Gd321 O345 2.327 1_554 S
Gd321 O346 2.377 1_554 S
Gd321 O348 2.448 . S
Gd321 O349 2.506 . S
Gd321 O350 2.435 . S
Gd321 O351 2.717 . S
C322 O340 1.240 . S
C322 O341 1.240 . S
C323 Gd320 2.818 . S
C323 C324 1.510 . S
C323 O342 1.249 . S
C323 O343 1.252 . S
C324 C323 1.510 . S
C324 C325 1.404 . S
C324 C326 1.352 1_556 S
C325 C324 1.404 . S
C325 C329 1.389 . S
C325 H352 0.930 . S
C326 C324 1.352 1_554 S
C326 C328 1.374 . S
C326 H353 0.931 . S
C327 C328 1.359 1_556 S
C327 C329 1.364 . S
C328 C326 1.374 . S
C328 C327 1.359 1_554 S
C328 H354 0.931 . S
C329 C325 1.389 . S
C329 C327 1.364 . S
C329 H355 0.931 . S
C330 O344 1.256 . S
C330 O345 1.257 . S
C331 O346 1.240 . S
C331 O347 1.240 . S
C332 Gd321 2.818 . S
C332 C333 1.510 . S
C332 O348 1.249 . S
C332 O349 1.252 . S
C333 C332 1.510 . S
C333 C334 1.404 . S
C333 C335 1.352 1_554 S
C334 C333 1.404 . S
C334 C338 1.389 . S
C334 H356 0.930 . S
C335 C333 1.352 1_556 S
C335 C337 1.374 . S
C335 H357 0.931 . S
C336 C337 1.359 1_554 S
C336 C338 1.364 . S
C337 C335 1.374 . S
C337 C336 1.359 1_556 S
C337 H358 0.931 . S
C338 C334 1.389 . S
C338 C336 1.364 . S
C338 H359 0.931 . S
C339 O350 1.256 . S
C339 O351 1.257 . S
O340 Gd320 2.377 1_554 S
O340 C322 1.240 . S
O341 Gd321 2.395 . S
O341 C322 1.240 . S
O342 Gd320 2.448 . S
O342 C323 1.249 . S
O343 Gd320 2.506 . S
O343 C323 1.252 . S
O344 Gd320 2.435 . S
O344 C330 1.256 . S
O345 Gd320 2.717 . S
O345 Gd321 2.327 1_556 S
O345 C330 1.257 . S
O346 Gd321 2.377 1_556 S
O346 C331 1.240 . S
O347 Gd320 2.395 . S
O347 C331 1.240 . S
O348 Gd321 2.448 . S
O348 C332 1.249 . S
O349 Gd321 2.506 . S
O349 C332 1.252 . S
O350 Gd321 2.435 . S
O350 C339 1.256 . S
O351 Gd320 2.327 1_554 S
O351 Gd321 2.717 . S
O351 C339 1.257 . S
H352 C325 0.930 . S
H353 C326 0.931 . S
H354 C328 0.931 . S
H355 C329 0.931 . S
H356 C334 0.930 . S
H357 C335 0.931 . S
H358 C337 0.931 . S
H359 C338 0.931 . S
Gd360 C363 2.818 . S
Gd360 O380 2.377 1_565 S
Gd360 O382 2.448 . S
Gd360 O383 2.506 1_565 S
Gd360 O384 2.435 . S
Gd360 O385 2.717 . S
Gd360 O387 2.395 . S
Gd360 O391 2.327 1_565 S
Gd361 C372 2.818 . S
Gd361 O381 2.395 . S
Gd361 O385 2.327 1_545 S
Gd361 O386 2.377 1_545 S
Gd361 O388 2.448 . S
Gd361 O389 2.506 1_545 S
Gd361 O390 2.435 . S
Gd361 O391 2.717 . S
C362 O380 1.240 . S
C362 O381 1.240 . S
C363 Gd360 2.818 . S
C363 C364 1.510 1_565 S
C363 O382 1.249 . S
C363 O383 1.252 1_565 S
C364 C363 1.510 1_545 S
C364 C365 1.404 1_545 S
C364 C366 1.352 . S
C365 C364 1.404 1_565 S
C365 C369 1.389 . S
C365 H392 0.930 . S
C366 C364 1.352 . S
C366 C368 1.374 . S
C366 H393 0.931 . S
C367 C368 1.359 . S
C367 C369 1.364 1_545 S
C368 C366 1.374 . S
C368 C367 1.359 . S
C368 H394 0.931 . S
C369 C365 1.389 . S
C369 C367 1.364 1_565 S
C369 H395 0.931 . S
C370 O384 1.256 . S
C370 O385 1.257 . S
C371 O386 1.240 . S
C371 O387 1.240 . S
C372 Gd361 2.818 . S
C372 C373 1.510 1_545 S
C372 O388 1.249 . S
C372 O389 1.252 1_545 S
C373 C372 1.510 1_565 S
C373 C374 1.404 1_565 S
C373 C375 1.352 . S
C374 C373 1.404 1_545 S
C374 C378 1.389 . S
C374 H396 0.930 . S
C375 C373 1.352 . S
C375 C377 1.374 . S
C375 H397 0.931 . S
C376 C377 1.359 . S
C376 C378 1.364 1_565 S
C377 C375 1.374 . S
C377 C376 1.359 . S
C377 H398 0.931 . S
C378 C374 1.389 . S
C378 C376 1.364 1_545 S
C378 H399 0.931 . S
C379 O390 1.256 . S
C379 O391 1.257 . S
O380 Gd360 2.377 1_545 S
O380 C362 1.240 . S
O381 Gd361 2.395 . S
O381 C362 1.240 . S
O382 Gd360 2.448 . S
O382 C363 1.249 . S
O383 Gd360 2.506 1_545 S
O383 C363 1.252 1_545 S
O384 Gd360 2.435 . S
O384 C370 1.256 . S
O385 Gd360 2.717 . S
O385 Gd361 2.327 1_565 S
O385 C370 1.257 . S
O386 Gd361 2.377 1_565 S
O386 C371 1.240 . S
O387 Gd360 2.395 . S
O387 C371 1.240 . S
O388 Gd361 2.448 . S
O388 C372 1.249 . S
O389 Gd361 2.506 1_565 S
O389 C372 1.252 1_565 S
O390 Gd361 2.435 . S
O390 C379 1.256 . S
O391 Gd360 2.327 1_545 S
O391 Gd361 2.717 . S
O391 C379 1.257 . S
H392 C365 0.930 . S
H393 C366 0.931 . S
H394 C368 0.931 . S
H395 C369 0.931 . S
H396 C374 0.930 . S
H397 C375 0.931 . S
H398 C377 0.931 . S
H399 C378 0.931 . S
Gd400 C403 2.818 . S
Gd400 O420 2.377 . S
Gd400 O422 2.448 . S
Gd400 O423 2.506 . S
Gd400 O424 2.435 . S
Gd400 O425 2.717 . S
Gd400 O427 2.395 . S
Gd400 O431 2.327 . S
Gd401 C412 2.818 . S
Gd401 O421 2.395 . S
Gd401 O425 2.327 . S
Gd401 O426 2.377 . S
Gd401 O428 2.448 . S
Gd401 O429 2.506 . S
Gd401 O430 2.435 . S
Gd401 O431 2.717 . S
C402 O420 1.240 . S
C402 O421 1.240 . S
C403 Gd400 2.818 . S
C403 C404 1.510 . S
C403 O422 1.249 . S
C403 O423 1.252 . S
C404 C403 1.510 . S
C404 C405 1.404 . S
C404 C406 1.352 . S
C405 C404 1.404 . S
C405 C409 1.389 . S
C405 H432 0.930 . S
C406 C404 1.352 . S
C406 C408 1.374 . S
C406 H433 0.931 . S
C407 C408 1.359 . S
C407 C409 1.364 . S
C408 C406 1.374 . S
C408 C407 1.359 . S
C408 H434 0.931 . S
C409 C405 1.389 . S
C409 C407 1.364 . S
C409 H435 0.931 . S
C410 O424 1.256 . S
C410 O425 1.257 . S
C411 O426 1.240 . S
C411 O427 1.240 . S
C412 Gd401 2.818 . S
C412 C413 1.510 . S
C412 O428 1.249 . S
C412 O429 1.252 . S
C413 C412 1.510 . S
C413 C414 1.404 . S
C413 C415 1.352 . S
C414 C413 1.404 . S
C414 C418 1.389 . S
C414 H436 0.930 . S
C415 C413 1.352 . S
C415 C417 1.374 . S
C415 H437 0.931 . S
C416 C417 1.359 . S
C416 C418 1.364 . S
C417 C415 1.374 . S
C417 C416 1.359 . S
C417 H438 0.931 . S
C418 C414 1.389 . S
C418 C416 1.364 . S
C418 H439 0.931 . S
C419 O430 1.256 . S
C419 O431 1.257 . S
O420 Gd400 2.377 . S
O420 C402 1.240 . S
O421 Gd401 2.395 . S
O421 C402 1.240 . S
O422 Gd400 2.448 . S
O422 C403 1.249 . S
O423 Gd400 2.506 . S
O423 C403 1.252 . S
O424 Gd400 2.435 . S
O424 C410 1.256 . S
O425 Gd400 2.717 . S
O425 Gd401 2.327 . S
O425 C410 1.257 . S
O426 Gd401 2.377 . S
O426 C411 1.240 . S
O427 Gd400 2.395 . S
O427 C411 1.240 . S
O428 Gd401 2.448 . S
O428 C412 1.249 . S
O429 Gd401 2.506 . S
O429 C412 1.252 . S
O430 Gd401 2.435 . S
O430 C419 1.256 . S
O431 Gd400 2.327 . S
O431 Gd401 2.717 . S
O431 C419 1.257 . S
H432 C405 0.930 . S
H433 C406 0.931 . S
H434 C408 0.931 . S
H435 C409 0.931 . S
H436 C414 0.930 . S
H437 C415 0.931 . S
H438 C417 0.931 . S
H439 C418 0.931 . S
Gd440 C443 2.818 . S
Gd440 O460 2.377 1_455 S
Gd440 O462 2.448 . S
Gd440 O463 2.506 1_455 S
Gd440 O464 2.435 . S
Gd440 O465 2.717 . S
Gd440 O467 2.395 . S
Gd440 O471 2.327 1_455 S
Gd441 C452 2.818 . S
Gd441 O461 2.395 . S
Gd441 O465 2.327 1_655 S
Gd441 O466 2.377 1_655 S
Gd441 O468 2.448 . S
Gd441 O469 2.506 1_655 S
Gd441 O470 2.435 . S
Gd441 O471 2.717 . S
C442 O460 1.240 . S
C442 O461 1.240 . S
C443 Gd440 2.818 . S
C443 C444 1.510 1_455 S
C443 O462 1.249 . S
C443 O463 1.252 1_455 S
C444 C443 1.510 1_655 S
C444 C445 1.404 1_655 S
C444 C446 1.352 . S
C445 C444 1.404 1_455 S
C445 C449 1.389 . S
C445 H472 0.930 . S
C446 C444 1.352 . S
C446 C448 1.374 . S
C446 H473 0.931 . S
C447 C448 1.359 . S
C447 C449 1.364 1_655 S
C448 C446 1.374 . S
C448 C447 1.359 . S
C448 H474 0.931 . S
C449 C445 1.389 . S
C449 C447 1.364 1_455 S
C449 H475 0.931 . S
C450 O464 1.256 . S
C450 O465 1.257 . S
C451 O466 1.240 . S
C451 O467 1.240 . S
C452 Gd441 2.818 . S
C452 C453 1.510 1_655 S
C452 O468 1.249 . S
C452 O469 1.252 1_655 S
C453 C452 1.510 1_455 S
C453 C454 1.404 1_455 S
C453 C455 1.352 . S
C454 C453 1.404 1_655 S
C454 C458 1.389 . S
C454 H476 0.930 . S
C455 C453 1.352 . S
C455 C457 1.374 . S
C455 H477 0.931 . S
C456 C457 1.359 . S
C456 C458 1.364 1_455 S
C457 C455 1.374 . S
C457 C456 1.359 . S
C457 H478 0.931 . S
C458 C454 1.389 . S
C458 C456 1.364 1_655 S
C458 H479 0.931 . S
C459 O470 1.256 . S
C459 O471 1.257 . S
O460 Gd440 2.377 1_655 S
O460 C442 1.240 . S
O461 Gd441 2.395 . S
O461 C442 1.240 . S
O462 Gd440 2.448 . S
O462 C443 1.249 . S
O463 Gd440 2.506 1_655 S
O463 C443 1.252 1_655 S
O464 Gd440 2.435 . S
O464 C450 1.256 . S
O465 Gd440 2.717 . S
O465 Gd441 2.327 1_455 S
O465 C450 1.257 . S
O466 Gd441 2.377 1_455 S
O466 C451 1.240 . S
O467 Gd440 2.395 . S
O467 C451 1.240 . S
O468 Gd441 2.448 . S
O468 C452 1.249 . S
O469 Gd441 2.506 1_455 S
O469 C452 1.252 1_455 S
O470 Gd441 2.435 . S
O470 C459 1.256 . S
O471 Gd440 2.327 1_655 S
O471 Gd441 2.717 . S
O471 C459 1.257 . S
H472 C445 0.930 . S
H473 C446 0.931 . S
H474 C448 0.931 . S
H475 C449 0.931 . S
H476 C454 0.930 . S
H477 C455 0.931 . S
H478 C457 0.931 . S
H479 C458 0.931 . S
Gd480 C483 2.818 . S
Gd480 O500 2.377 . S
Gd480 O502 2.448 . S
Gd480 O503 2.506 . S
Gd480 O504 2.435 . S
Gd480 O505 2.717 . S
Gd480 O507 2.395 . S
Gd480 O511 2.327 . S
Gd481 C492 2.818 . S
Gd481 O501 2.395 . S
Gd481 O505 2.327 . S
Gd481 O506 2.377 . S
Gd481 O508 2.448 . S
Gd481 O509 2.506 . S
Gd481 O510 2.435 . S
Gd481 O511 2.717 . S
C482 O500 1.240 . S
C482 O501 1.240 . S
C483 Gd480 2.818 . S
C483 C484 1.510 . S
C483 O502 1.249 . S
C483 O503 1.252 . S
C484 C483 1.510 . S
C484 C485 1.404 . S
C484 C486 1.352 . S
C485 C484 1.404 . S
C485 C489 1.389 . S
C485 H512 0.930 . S
C486 C484 1.352 . S
C486 C488 1.374 . S
C486 H513 0.931 . S
C487 C488 1.359 . S
C487 C489 1.364 . S
C488 C486 1.374 . S
C488 C487 1.359 . S
C488 H514 0.931 . S
C489 C485 1.389 . S
C489 C487 1.364 . S
C489 H515 0.931 . S
C490 O504 1.256 . S
C490 O505 1.257 . S
C491 O506 1.240 . S
C491 O507 1.240 . S
C492 Gd481 2.818 . S
C492 C493 1.510 . S
C492 O508 1.249 . S
C492 O509 1.252 . S
C493 C492 1.510 . S
C493 C494 1.404 . S
C493 C495 1.352 . S
C494 C493 1.404 . S
C494 C498 1.389 . S
C494 H516 0.930 . S
C495 C493 1.352 . S
C495 C497 1.374 . S
C495 H517 0.931 . S
C496 C497 1.359 . S
C496 C498 1.364 . S
C497 C495 1.374 . S
C497 C496 1.359 . S
C497 H518 0.931 . S
C498 C494 1.389 . S
C498 C496 1.364 . S
C498 H519 0.931 . S
C499 O510 1.256 . S
C499 O511 1.257 . S
O500 Gd480 2.377 . S
O500 C482 1.240 . S
O501 Gd481 2.395 . S
O501 C482 1.240 . S
O502 Gd480 2.448 . S
O502 C483 1.249 . S
O503 Gd480 2.506 . S
O503 C483 1.252 . S
O504 Gd480 2.435 . S
O504 C490 1.256 . S
O505 Gd480 2.717 . S
O505 Gd481 2.327 . S
O505 C490 1.257 . S
O506 Gd481 2.377 . S
O506 C491 1.240 . S
O507 Gd480 2.395 . S
O507 C491 1.240 . S
O508 Gd481 2.448 . S
O508 C492 1.249 . S
O509 Gd481 2.506 . S
O509 C492 1.252 . S
O510 Gd481 2.435 . S
O510 C499 1.256 . S
O511 Gd480 2.327 . S
O511 Gd481 2.717 . S
O511 C499 1.257 . S
H512 C485 0.930 . S
H513 C486 0.931 . S
H514 C488 0.931 . S
H515 C489 0.931 . S
H516 C494 0.930 . S
H517 C495 0.931 . S
H518 C497 0.931 . S
H519 C498 0.931 . S
Gd520 C523 2.818 . S
Gd520 O540 2.377 1_556 S
Gd520 O542 2.448 . S
Gd520 O543 2.506 . S
Gd520 O544 2.435 . S
Gd520 O545 2.717 . S
Gd520 O547 2.395 . S
Gd520 O551 2.327 1_556 S
Gd521 C532 2.818 . S
Gd521 O541 2.395 . S
Gd521 O545 2.327 1_554 S
Gd521 O546 2.377 1_554 S
Gd521 O548 2.448 . S
Gd521 O549 2.506 . S
Gd521 O550 2.435 . S
Gd521 O551 2.717 . S
C522 O540 1.240 . S
C522 O541 1.240 . S
C523 Gd520 2.818 . S
C523 C524 1.510 . S
C523 O542 1.249 . S
C523 O543 1.252 . S
C524 C523 1.510 . S
C524 C525 1.404 . S
C524 C526 1.352 1_556 S
C525 C524 1.404 . S
C525 C529 1.389 . S
C525 H552 0.930 . S
C526 C524 1.352 1_554 S
C526 C528 1.374 . S
C526 H553 0.931 . S
C527 C528 1.359 1_556 S
C527 C529 1.364 . S
C528 C526 1.374 . S
C528 C527 1.359 1_554 S
C528 H554 0.931 . S
C529 C525 1.389 . S
C529 C527 1.364 . S
C529 H555 0.931 . S
C530 O544 1.256 . S
C530 O545 1.257 . S
C531 O546 1.240 . S
C531 O547 1.240 . S
C532 Gd521 2.818 . S
C532 C533 1.510 . S
C532 O548 1.249 . S
C532 O549 1.252 . S
C533 C532 1.510 . S
C533 C534 1.404 . S
C533 C535 1.352 1_554 S
C534 C533 1.404 . S
C534 C538 1.389 . S
C534 H556 0.930 . S
C535 C533 1.352 1_556 S
C535 C537 1.374 . S
C535 H557 0.931 . S
C536 C537 1.359 1_554 S
C536 C538 1.364 . S
C537 C535 1.374 . S
C537 C536 1.359 1_556 S
C537 H558 0.931 . S
C538 C534 1.389 . S
C538 C536 1.364 . S
C538 H559 0.931 . S
C539 O550 1.256 . S
C539 O551 1.257 . S
O540 Gd520 2.377 1_554 S
O540 C522 1.240 . S
O541 Gd521 2.395 . S
O541 C522 1.240 . S
O542 Gd520 2.448 . S
O542 C523 1.249 . S
O543 Gd520 2.506 . S
O543 C523 1.252 . S
O544 Gd520 2.435 . S
O544 C530 1.256 . S
O545 Gd520 2.717 . S
O545 Gd521 2.327 1_556 S
O545 C530 1.257 . S
O546 Gd521 2.377 1_556 S
O546 C531 1.240 . S
O547 Gd520 2.395 . S
O547 C531 1.240 . S
O548 Gd521 2.448 . S
O548 C532 1.249 . S
O549 Gd521 2.506 . S
O549 C532 1.252 . S
O550 Gd521 2.435 . S
O550 C539 1.256 . S
O551 Gd520 2.327 1_554 S
O551 Gd521 2.717 . S
O551 C539 1.257 . S
H552 C525 0.930 . S
H553 C526 0.931 . S
H554 C528 0.931 . S
H555 C529 0.931 . S
H556 C534 0.930 . S
H557 C535 0.931 . S
H558 C537 0.931 . S
H559 C538 0.931 . S
Gd560 C563 2.818 . S
Gd560 O580 2.377 . S
Gd560 O582 2.448 . S
Gd560 O583 2.506 . S
Gd560 O584 2.435 . S
Gd560 O585 2.717 . S
Gd560 O587 2.395 1_565 S
Gd560 O591 2.327 1_565 S
Gd561 C572 2.818 . S
Gd561 O581 2.395 1_545 S
Gd561 O585 2.327 1_545 S
Gd561 O586 2.377 . S
Gd561 O588 2.448 . S
Gd561 O589 2.506 . S
Gd561 O590 2.435 . S
Gd561 O591 2.717 . S
C562 O580 1.240 . S
C562 O581 1.240 . S
C563 Gd560 2.818 . S
C563 C564 1.510 . S
C563 O582 1.249 . S
C563 O583 1.252 . S
C564 C563 1.510 . S
C564 C565 1.404 . S
C564 C566 1.352 . S
C565 C564 1.404 . S
C565 C569 1.389 . S
C565 H592 0.930 . S
C566 C564 1.352 . S
C566 C568 1.374 . S
C566 H593 0.931 . S
C567 C568 1.359 . S
C567 C569 1.364 . S
C568 C566 1.374 . S
C568 C567 1.359 . S
C568 H594 0.931 . S
C569 C565 1.389 . S
C569 C567 1.364 . S
C569 H595 0.931 . S
C570 O584 1.256 . S
C570 O585 1.257 . S
C571 O586 1.240 . S
C571 O587 1.240 . S
C572 Gd561 2.818 . S
C572 C573 1.510 . S
C572 O588 1.249 . S
C572 O589 1.252 . S
C573 C572 1.510 . S
C573 C574 1.404 . S
C573 C575 1.352 . S
C574 C573 1.404 . S
C574 C578 1.389 . S
C574 H596 0.930 . S
C575 C573 1.352 . S
C575 C577 1.374 . S
C575 H597 0.931 . S
C576 C577 1.359 . S
C576 C578 1.364 . S
C577 C575 1.374 . S
C577 C576 1.359 . S
C577 H598 0.931 . S
C578 C574 1.389 . S
C578 C576 1.364 . S
C578 H599 0.931 . S
C579 O590 1.256 . S
C579 O591 1.257 . S
O580 Gd560 2.377 . S
O580 C562 1.240 . S
O581 Gd561 2.395 1_565 S
O581 C562 1.240 . S
O582 Gd560 2.448 . S
O582 C563 1.249 . S
O583 Gd560 2.506 . S
O583 C563 1.252 . S
O584 Gd560 2.435 . S
O584 C570 1.256 . S
O585 Gd560 2.717 . S
O585 Gd561 2.327 1_565 S
O585 C570 1.257 . S
O586 Gd561 2.377 . S
O586 C571 1.240 . S
O587 Gd560 2.395 1_545 S
O587 C571 1.240 . S
O588 Gd561 2.448 . S
O588 C572 1.249 . S
O589 Gd561 2.506 . S
O589 C572 1.252 . S
O590 Gd561 2.435 . S
O590 C579 1.256 . S
O591 Gd560 2.327 1_545 S
O591 Gd561 2.717 . S
O591 C579 1.257 . S
H592 C565 0.930 . S
H593 C566 0.931 . S
H594 C568 0.931 . S
H595 C569 0.931 . S
H596 C574 0.930 . S
H597 C575 0.931 . S
H598 C577 0.931 . S
H599 C578 0.931 . S
Gd600 C603 2.818 . S
Gd600 O620 2.377 1_554 S
Gd600 O622 2.448 . S
Gd600 O623 2.506 . S
Gd600 O624 2.435 . S
Gd600 O625 2.717 . S
Gd600 O627 2.395 . S
Gd600 O631 2.327 1_554 S
Gd601 C612 2.818 . S
Gd601 O621 2.395 . S
Gd601 O625 2.327 1_556 S
Gd601 O626 2.377 1_556 S
Gd601 O628 2.448 . S
Gd601 O629 2.506 . S
Gd601 O630 2.435 . S
Gd601 O631 2.717 . S
C602 O620 1.240 . S
C602 O621 1.240 . S
C603 Gd600 2.818 . S
C603 C604 1.510 . S
C603 O622 1.249 . S
C603 O623 1.252 . S
C604 C603 1.510 . S
C604 C605 1.404 . S
C604 C606 1.352 . S
C605 C604 1.404 . S
C605 C609 1.389 . S
C605 H632 0.930 . S
C606 C604 1.352 . S
C606 C608 1.374 . S
C606 H633 0.906 1_554 S
C607 C608 1.359 . S
C607 C609 1.364 . S
C608 C606 1.374 . S
C608 C607 1.359 . S
C608 H634 0.931 . S
C609 C605 1.389 . S
C609 C607 1.364 . S
C609 H635 0.931 . S
C610 O624 1.256 . S
C610 O625 1.257 . S
C611 O626 1.240 . S
C611 O627 1.240 . S
C612 Gd601 2.818 . S
C612 C613 1.510 . S
C612 O628 1.249 . S
C612 O629 1.252 . S
C613 C612 1.510 . S
C613 C614 1.404 . S
C613 C615 1.352 . S
C614 C613 1.404 . S
C614 C618 1.389 . S
C614 H636 0.930 . S
C615 C613 1.352 . S
C615 C617 1.374 . S
C615 H637 0.931 1_556 S
C616 C617 1.359 . S
C616 C618 1.364 . S
C617 C615 1.374 . S
C617 C616 1.359 . S
C617 H638 0.931 . S
C618 C614 1.389 . S
C618 C616 1.364 . S
C618 H639 0.931 . S
C619 O630 1.256 . S
C619 O631 1.257 . S
O620 Gd600 2.377 1_556 S
O620 C602 1.240 . S
O621 Gd601 2.395 . S
O621 C602 1.240 . S
O622 Gd600 2.448 . S
O622 C603 1.249 . S
O623 Gd600 2.506 . S
O623 C603 1.252 . S
O624 Gd600 2.435 . S
O624 C610 1.256 . S
O625 Gd600 2.717 . S
O625 Gd601 2.327 1_554 S
O625 C610 1.257 . S
O626 Gd601 2.377 1_554 S
O626 C611 1.240 . S
O627 Gd600 2.395 . S
O627 C611 1.240 . S
O628 Gd601 2.448 . S
O628 C612 1.249 . S
O629 Gd601 2.506 . S
O629 C612 1.252 . S
O630 Gd601 2.435 . S
O630 C619 1.256 . S
O631 Gd600 2.327 1_556 S
O631 Gd601 2.717 . S
O631 C619 1.257 . S
H632 C605 0.930 . S
H633 C606 0.906 1_556 S
H634 C608 0.931 . S
H635 C609 0.931 . S
H636 C614 0.930 . S
H637 C615 0.931 1_554 S
H638 C617 0.931 . S
H639 C618 0.931 . S
H640 C646 0.930 . S
H641 C650 0.930 . S
H642 C655 0.929 . S
H643 C653 0.929 . S
H644 C648 0.929 . S
H645 C654 0.929 . S
C646 H640 0.930 . S
C646 C647 1.367 . S
C646 C654 1.378 . S
C647 C646 1.367 . S
C647 C655 1.433 1_655 S
C648 H644 0.929 . S
C648 C650 1.378 . S
C648 C652 1.350 . S
C649 C652 1.463 1_655 S
C649 C654 1.350 . S
C649 N657 1.427 1_655 S
C650 H641 0.930 . S
C650 C648 1.378 . S
C650 C651 1.367 . S
C651 C650 1.367 . S
C651 C653 1.433 1_455 S
C652 C648 1.350 . S
C652 C649 1.463 1_455 S
C652 N656 1.427 1_455 S
C653 H643 0.929 . S
C653 C651 1.433 1_655 S
C653 N656 1.384 . S
C654 H645 0.929 . S
C654 C646 1.378 . S
C654 C649 1.350 . S
C655 H642 0.929 . S
C655 C647 1.433 1_455 S
C655 N657 1.384 . S
N656 C652 1.427 1_655 S
N656 C653 1.384 . S
N657 C649 1.427 1_455 S
N657 C655 1.384 . S
H658 C664 0.930 . S
H659 C668 0.930 . S
H660 C673 0.929 . S
H661 C671 0.929 . S
H662 C666 0.929 . S
H663 C672 0.929 . S
C664 H658 0.930 . S
C664 C665 1.367 . S
C664 C672 1.378 . S
C665 C664 1.367 . S
C665 C673 1.433 . S
C666 H662 0.929 . S
C666 C668 1.378 . S
C666 C670 1.350 . S
C667 C670 1.463 . S
C667 C672 1.350 . S
C667 N675 1.427 . S
C668 H659 0.930 . S
C668 C666 1.378 . S
C668 C669 1.367 . S
C669 C668 1.367 . S
C669 C671 1.433 . S
C670 C666 1.350 . S
C670 C667 1.463 . S
C670 N674 1.427 . S
C671 H661 0.929 . S
C671 C669 1.433 . S
C671 N674 1.384 . S
C672 H663 0.929 . S
C672 C664 1.378 . S
C672 C667 1.350 . S
C673 H660 0.929 . S
C673 C665 1.433 . S
C673 N675 1.384 . S
N674 C670 1.427 . S
N674 C671 1.384 . S
N675 C667 1.427 . S
N675 C673 1.384 . S
H676 C682 0.930 . S
H677 C686 0.930 . S
H678 C691 0.929 . S
H679 C689 0.929 . S
H680 C684 0.929 . S
H681 C690 0.929 . S
C682 H676 0.930 . S
C682 C683 1.367 . S
C682 C690 1.378 . S
C683 C682 1.367 . S
C683 C691 1.433 . S
C684 H680 0.929 . S
C684 C686 1.378 . S
C684 C688 1.350 . S
C685 C688 1.463 . S
C685 C690 1.350 . S
C685 N693 1.427 . S
C686 H677 0.930 . S
C686 C684 1.378 . S
C686 C687 1.367 . S
C687 C686 1.367 . S
C687 C689 1.433 . S
C688 C684 1.350 . S
C688 C685 1.463 . S
C688 N692 1.427 . S
C689 H679 0.929 . S
C689 C687 1.433 . S
C689 N692 1.384 . S
C690 H681 0.929 . S
C690 C682 1.378 . S
C690 C685 1.350 . S
C691 H678 0.929 . S
C691 C683 1.433 . S
C691 N693 1.384 . S
N692 C688 1.427 . S
N692 C689 1.384 . S
N693 C685 1.427 . S
N693 C691 1.384 . S
H694 C700 0.930 . S
H695 C704 0.930 . S
H696 C709 0.929 . S
H697 C707 0.929 . S
H698 C702 0.944 . S
H699 C708 0.929 . S
C700 H694 0.930 . S
C700 C701 1.367 . S
C700 C708 1.378 . S
C701 C700 1.367 . S
C701 C709 1.433 . S
C702 H698 0.944 . S
C702 C704 1.354 1_545 S
C702 C706 1.359 . S
C703 C706 1.463 . S
C703 C708 1.350 . S
C703 N711 1.427 . S
C704 H695 0.930 . S
C704 C702 1.354 1_565 S
C704 C705 1.367 . S
C705 C704 1.367 . S
C705 C707 1.433 . S
C706 C702 1.359 . S
C706 C703 1.463 . S
C706 N710 1.427 1_545 S
C707 H697 0.929 . S
C707 C705 1.433 . S
C707 N710 1.384 . S
C708 H699 0.929 . S
C708 C700 1.378 . S
C708 C703 1.350 . S
C709 H696 0.929 . S
C709 C701 1.433 . S
C709 N711 1.384 . S
N710 C706 1.427 1_565 S
N710 C707 1.384 . S
N711 C703 1.427 . S
N711 C709 1.384 . S
H712 C718 0.930 . S
H713 C722 0.930 . S
H714 C727 0.929 . S
H715 C725 0.929 . S
H716 C720 0.929 . S
H717 C726 0.929 . S
C718 H712 0.930 . S
C718 C719 1.367 1_545 S
C718 C726 1.378 . S
C719 C718 1.367 1_565 S
C719 C727 1.433 . S
C720 H716 0.929 . S
C720 C722 1.378 . S
C720 C724 1.350 . S
C721 C724 1.463 . S
C721 C726 1.350 1_565 S
C721 N729 1.427 . S
C722 H713 0.930 . S
C722 C720 1.378 . S
C722 C723 1.367 1_565 S
C723 C722 1.367 1_545 S
C723 C725 1.433 . S
C724 C720 1.350 . S
C724 C721 1.463 . S
C724 N728 1.427 1_565 S
C725 H715 0.929 . S
C725 C723 1.433 . S
C725 N728 1.384 . S
C726 H717 0.929 . S
C726 C718 1.378 . S
C726 C721 1.350 1_545 S
C727 H714 0.929 . S
C727 C719 1.433 . S
C727 N729 1.384 . S
N728 C724 1.427 1_545 S
N728 C725 1.384 . S
N729 C721 1.427 . S
N729 C727 1.384 . S
H730 C736 0.930 . S
H731 C740 0.930 . S
H732 C745 0.929 . S
H733 C743 0.929 . S
H734 C738 0.929 . S
H735 C744 0.929 . S
C736 H730 0.930 . S
C736 C737 1.367 . S
C736 C744 1.378 . S
C737 C736 1.367 . S
C737 C745 1.433 1_455 S
C738 H734 0.929 . S
C738 C740 1.378 . S
C738 C742 1.350 . S
C739 C742 1.463 1_455 S
C739 C744 1.350 . S
C739 N747 1.427 1_455 S
C740 H731 0.930 . S
C740 C738 1.378 . S
C740 C741 1.367 . S
C741 C740 1.367 . S
C741 C743 1.433 1_655 S
C742 C738 1.350 . S
C742 C739 1.463 1_655 S
C742 N746 1.427 1_655 S
C743 H733 0.929 . S
C743 C741 1.433 1_455 S
C743 N746 1.384 . S
C744 H735 0.929 . S
C744 C736 1.378 . S
C744 C739 1.350 . S
C745 H732 0.929 . S
C745 C737 1.433 1_655 S
C745 N747 1.384 . S
N746 C742 1.427 1_455 S
N746 C743 1.384 . S
N747 C739 1.427 1_655 S
N747 C745 1.384 . S
H748 C754 0.930 . S
H749 C758 0.930 . S
H750 C763 0.929 . S
H751 C761 0.929 . S
H752 C756 0.929 . S
H753 C762 0.929 . S
C754 H748 0.930 . S
C754 C755 1.367 . S
C754 C762 1.378 . S
C755 C754 1.367 . S
C755 C763 1.433 . S
C756 H752 0.929 . S
C756 C758 1.378 . S
C756 C760 1.350 . S
C757 C760 1.463 . S
C757 C762 1.350 . S
C757 N765 1.427 . S
C758 H749 0.930 . S
C758 C756 1.378 . S
C758 C759 1.367 . S
C759 C758 1.367 . S
C759 C761 1.433 . S
C760 C756 1.350 . S
C760 C757 1.463 . S
C760 N764 1.427 . S
C761 H751 0.929 . S
C761 C759 1.433 . S
C761 N764 1.384 . S
C762 H753 0.929 . S
C762 C754 1.378 . S
C762 C757 1.350 . S
C763 H750 0.929 . S
C763 C755 1.433 . S
C763 N765 1.384 . S
N764 C760 1.427 . S
N764 C761 1.384 . S
N765 C757 1.427 . S
N765 C763 1.384 . S
H766 C772 0.930 . S
H767 C776 0.930 . S
H768 C781 0.929 . S
H769 C779 0.929 . S
H770 C774 0.929 . S
H771 C780 0.929 . S
C772 H766 0.930 . S
C772 C773 1.367 . S
C772 C780 1.378 . S
C773 C772 1.367 . S
C773 C781 1.433 . S
C774 H770 0.929 . S
C774 C776 1.378 . S
C774 C778 1.350 . S
C775 C778 1.463 . S
C775 C780 1.350 . S
C775 N783 1.427 . S
C776 H767 0.930 . S
C776 C774 1.378 . S
C776 C777 1.367 . S
C777 C776 1.367 . S
C777 C779 1.433 . S
C778 C774 1.350 . S
C778 C775 1.463 . S
C778 N782 1.427 . S
C779 H769 0.929 . S
C779 C777 1.433 . S
C779 N782 1.384 . S
C780 H771 0.929 . S
C780 C772 1.378 . S
C780 C775 1.350 . S
C781 H768 0.929 . S
C781 C773 1.433 . S
C781 N783 1.384 . S
N782 C778 1.427 . S
N782 C779 1.384 . S
N783 C775 1.427 . S
N783 C781 1.384 . S
H784 C790 0.930 . S
H785 C794 0.930 . S
H786 C799 0.929 . S
H787 C797 0.929 . S
H788 C792 0.929 . S
H789 C798 0.929 . S
C790 H784 0.930 . S
C790 C791 1.367 . S
C790 C798 1.378 . S
C791 C790 1.367 . S
C791 C799 1.433 . S
C792 H788 0.929 . S
C792 C794 1.378 . S
C792 C796 1.350 . S
C793 C796 1.463 . S
C793 C798 1.350 . S
C793 N801 1.427 . S
C794 H785 0.930 . S
C794 C792 1.378 . S
C794 C795 1.367 . S
C795 C794 1.367 . S
C795 C797 1.433 . S
C796 C792 1.350 . S
C796 C793 1.463 . S
C796 N800 1.427 . S
C797 H787 0.929 . S
C797 C795 1.433 . S
C797 N800 1.384 . S
C798 H789 0.929 . S
C798 C790 1.378 . S
C798 C793 1.350 . S
C799 H786 0.929 . S
C799 C791 1.433 . S
C799 N801 1.384 . S
N800 C796 1.427 . S
N800 C797 1.384 . S
N801 C793 1.427 . S
N801 C799 1.384 . S
H802 C808 0.930 . S
H803 C812 0.930 . S
H804 C817 0.929 . S
H805 C815 0.929 . S
H806 C810 0.929 . S
H807 C816 0.929 . S
C808 H802 0.930 . S
C808 C809 1.367 . S
C808 C816 1.378 . S
C809 C808 1.367 . S
C809 C817 1.433 . S
C810 H806 0.929 . S
C810 C812 1.378 . S
C810 C814 1.350 . S
C811 C814 1.463 . S
C811 C816 1.350 . S
C811 N819 1.427 . S
C812 H803 0.930 . S
C812 C810 1.378 . S
C812 C813 1.367 . S
C813 C812 1.367 . S
C813 C815 1.433 . S
C814 C810 1.350 . S
C814 C811 1.463 . S
C814 N818 1.427 . S
C815 H805 0.929 . S
C815 C813 1.433 . S
C815 N818 1.384 . S
C816 H807 0.929 . S
C816 C808 1.378 . S
C816 C811 1.350 . S
C817 H804 0.929 . S
C817 C809 1.433 . S
C817 N819 1.384 . S
N818 C814 1.427 . S
N818 C815 1.384 . S
N819 C811 1.427 . S
N819 C817 1.384 . S
H820 C826 0.930 1_545 S
H821 C830 0.930 . S
H822 C835 0.929 . S
H823 C833 0.929 . S
H824 C828 0.929 . S
H825 C834 0.929 . S
C826 H820 0.930 1_565 S
C826 C827 1.367 . S
C826 C834 1.378 1_565 S
C827 C826 1.367 . S
C827 C835 1.433 . S
C828 H824 0.929 . S
C828 C830 1.378 . S
C828 C832 1.350 . S
C829 C832 1.463 . S
C829 C834 1.350 1_565 S
C829 N837 1.427 . S
C830 H821 0.930 . S
C830 C828 1.378 . S
C830 C831 1.367 1_565 S
C831 C830 1.367 1_545 S
C831 C833 1.433 . S
C832 C828 1.350 . S
C832 C829 1.463 . S
C832 N836 1.427 1_565 S
C833 H823 0.929 . S
C833 C831 1.433 . S
C833 N836 1.384 . S
C834 H825 0.929 . S
C834 C826 1.378 1_545 S
C834 C829 1.350 1_545 S
C835 H822 0.929 . S
C835 C827 1.433 . S
C835 N837 1.384 . S
N836 C832 1.427 1_545 S
N836 C833 1.384 . S
N837 C829 1.427 . S
N837 C835 1.384 . S
H838 C844 0.930 . S
H839 C848 0.930 . S
H840 C853 0.929 . S
H841 C851 0.929 . S
H842 C846 0.929 . S
H843 C852 0.929 . S
C844 H838 0.930 . S
C844 C845 1.367 1_655 S
C844 C852 1.378 . S
C845 C844 1.367 1_455 S
C845 C853 1.433 . S
C846 H842 0.929 . S
C846 C848 1.378 . S
C846 C850 1.348 1_455 S
C847 C850 1.459 1_455 S
C847 C852 1.350 1_455 S
C847 N855 1.427 . S
C848 H839 0.930 . S
C848 C846 1.378 . S
C848 C849 1.367 1_455 S
C849 C848 1.367 1_655 S
C849 C851 1.433 . S
C850 C846 1.348 1_655 S
C850 C847 1.459 1_655 S
C850 N854 1.433 . S
C851 H841 0.929 . S
C851 C849 1.433 . S
C851 N854 1.384 . S
C852 H843 0.929 . S
C852 C844 1.378 . S
C852 C847 1.350 1_655 S
C853 H840 0.929 . S
C853 C845 1.433 . S
C853 N855 1.384 . S
N854 C850 1.433 . S
N854 C851 1.384 . S
N855 C847 1.427 . S
N855 C853 1.384 . S
H856 C862 0.930 . S
H857 C866 0.930 . S
H858 C871 0.929 . S
H859 C869 0.929 . S
H860 C864 0.929 . S
H861 C870 0.929 . S
C862 H856 0.930 . S
C862 C863 1.367 . S
C862 C870 1.378 . S
C863 C862 1.367 . S
C863 C871 1.433 . S
C864 H860 0.929 . S
C864 C866 1.378 . S
C864 C868 1.350 . S
C865 C868 1.463 . S
C865 C870 1.350 . S
C865 N873 1.427 . S
C866 H857 0.930 . S
C866 C864 1.378 . S
C866 C867 1.367 . S
C867 C866 1.367 . S
C867 C869 1.433 1_556 S
C868 C864 1.350 . S
C868 C865 1.463 . S
C868 N872 1.427 . S
C869 H859 0.929 . S
C869 C867 1.433 1_554 S
C869 N872 1.384 1_554 S
C870 H861 0.929 . S
C870 C862 1.378 . S
C870 C865 1.350 . S
C871 H858 0.929 . S
C871 C863 1.433 . S
C871 N873 1.384 . S
N872 C868 1.427 . S
N872 C869 1.384 1_556 S
N873 C865 1.427 . S
N873 C871 1.384 . S
H874 C880 0.930 . S
H875 C884 0.930 . S
H876 C889 0.929 . S
H877 C887 0.929 . S
H878 C882 0.929 . S
H879 C888 0.929 . S
C880 H874 0.930 . S
C880 C881 1.367 . S
C880 C888 1.378 . S
C881 C880 1.367 . S
C881 C889 1.433 . S
C882 H878 0.929 . S
C882 C884 1.378 . S
C882 C886 1.350 . S
C883 C886 1.463 . S
C883 C888 1.350 . S
C883 N891 1.427 . S
C884 H875 0.930 . S
C884 C882 1.378 . S
C884 C885 1.367 . S
C885 C884 1.367 . S
C885 C887 1.433 . S
C886 C882 1.350 . S
C886 C883 1.463 . S
C886 N890 1.427 . S
C887 H877 0.929 . S
C887 C885 1.433 . S
C887 N890 1.384 . S
C888 H879 0.929 . S
C888 C880 1.378 . S
C888 C883 1.350 . S
C889 H876 0.929 . S
C889 C881 1.433 . S
C889 N891 1.384 . S
N890 C886 1.427 . S
N890 C887 1.384 . S
N891 C883 1.427 . S
N891 C889 1.384 . S
H892 C898 0.930 . S
H893 C902 0.930 . S
H894 C907 0.929 . S
H895 C905 0.929 . S
H896 C900 0.929 . S
H897 C906 0.929 . S
C898 H892 0.930 . S
C898 C899 1.367 . S
C898 C906 1.378 . S
C899 C898 1.367 . S
C899 C907 1.433 . S
C900 H896 0.929 . S
C900 C902 1.378 . S
C900 C904 1.350 . S
C901 C904 1.463 . S
C901 C906 1.350 . S
C901 N909 1.427 . S
C902 H893 0.930 . S
C902 C900 1.378 . S
C902 C903 1.367 . S
C903 C902 1.367 . S
C903 C905 1.433 . S
C904 C900 1.350 . S
C904 C901 1.463 . S
C904 N908 1.427 . S
C905 H895 0.929 . S
C905 C903 1.433 . S
C905 N908 1.384 . S
C906 H897 0.929 . S
C906 C898 1.378 . S
C906 C901 1.350 . S
C907 H894 0.929 . S
C907 C899 1.433 . S
C907 N909 1.384 . S
N908 C904 1.427 . S
N908 C905 1.384 . S
N909 C901 1.427 . S
N909 C907 1.384 . S
H910 C916 0.930 . S
H911 C920 0.930 . S
H912 C925 0.929 . S
H913 C923 0.929 . S
H914 C918 0.929 . S
H915 C924 0.929 . S
C916 H910 0.930 . S
C916 C917 1.367 . S
C916 C924 1.378 . S
C917 C916 1.367 . S
C917 C925 1.433 . S
C918 H914 0.929 . S
C918 C920 1.378 . S
C918 C922 1.350 . S
C919 C922 1.463 . S
C919 C924 1.350 . S
C919 N927 1.427 . S
C920 H911 0.930 . S
C920 C918 1.378 . S
C920 C921 1.367 . S
C921 C920 1.367 . S
C921 C923 1.433 . S
C922 C918 1.350 . S
C922 C919 1.463 . S
C922 N926 1.427 . S
C923 H913 0.929 . S
C923 C921 1.433 . S
C923 N926 1.384 . S
C924 H915 0.929 . S
C924 C916 1.378 . S
C924 C919 1.350 . S
C925 H912 0.929 . S
C925 C917 1.433 . S
C925 N927 1.384 . S
N926 C922 1.427 . S
N926 C923 1.384 . S
N927 C919 1.427 . S
N927 C925 1.384 . S
H928 C934 0.930 . S
H929 C938 0.930 . S
H930 C943 0.929 . S
H931 C941 0.929 . S
H932 C936 0.929 . S
H933 C942 0.929 . S
C934 H928 0.930 . S
C934 C935 1.367 . S
C934 C942 1.378 . S
C935 C934 1.367 . S
C935 C943 1.433 . S
C936 H932 0.929 . S
C936 C938 1.378 . S
C936 C940 1.350 . S
C937 C940 1.463 . S
C937 C942 1.350 . S
C937 N945 1.427 . S
C938 H929 0.930 . S
C938 C936 1.378 . S
C938 C939 1.367 . S
C939 C938 1.367 . S
C939 C941 1.433 . S
C940 C936 1.350 . S
C940 C937 1.463 . S
C940 N944 1.427 . S
C941 H931 0.929 . S
C941 C939 1.433 . S
C941 N944 1.384 . S
C942 H933 0.929 . S
C942 C934 1.378 . S
C942 C937 1.350 . S
C943 H930 0.929 . S
C943 C935 1.433 . S
C943 N945 1.384 . S
N944 C940 1.427 . S
N944 C941 1.384 . S
N945 C937 1.427 . S
N945 C943 1.384 . S
H946 C952 0.930 . S
H947 C956 0.930 . S
H948 C961 0.929 . S
H949 C959 0.929 . S
H950 C954 0.929 . S
H951 C960 0.929 . S
C952 H946 0.930 . S
C952 C953 1.367 . S
C952 C960 1.378 . S
C953 C952 1.367 . S
C953 C961 1.433 . S
C954 H950 0.929 . S
C954 C956 1.378 . S
C954 C958 1.350 . S
C955 C958 1.463 . S
C955 C960 1.350 . S
C955 N963 1.427 . S
C956 H947 0.930 . S
C956 C954 1.378 . S
C956 C957 1.367 . S
C957 C956 1.367 . S
C957 C959 1.433 . S
C958 C954 1.350 . S
C958 C955 1.463 . S
C958 N962 1.427 . S
C959 H949 0.929 . S
C959 C957 1.433 . S
C959 N962 1.384 . S
C960 H951 0.929 . S
C960 C952 1.378 . S
C960 C955 1.350 . S
C961 H948 0.929 . S
C961 C953 1.433 . S
C961 N963 1.384 . S
N962 C958 1.427 . S
N962 C959 1.384 . S
N963 C955 1.427 . S
N963 C961 1.384 . S
H964 C970 0.930 . S
H965 C974 0.930 . S
H966 C979 0.929 . S
H967 C977 0.929 . S
H968 C972 0.929 . S
H969 C978 0.929 . S
C970 H964 0.930 . S
C970 C971 1.367 . S
C970 C978 1.378 . S
C971 C970 1.367 . S
C971 C979 1.433 . S
C972 H968 0.929 . S
C972 C974 1.378 . S
C972 C976 1.350 . S
C973 C976 1.463 . S
C973 C978 1.350 . S
C973 N981 1.427 . S
C974 H965 0.930 . S
C974 C972 1.378 . S
C974 C975 1.367 . S
C975 C974 1.367 . S
C975 C977 1.433 . S
C976 C972 1.350 . S
C976 C973 1.463 . S
C976 N980 1.427 . S
C977 H967 0.929 . S
C977 C975 1.433 . S
C977 N980 1.384 . S
C978 H969 0.929 . S
C978 C970 1.378 . S
C978 C973 1.350 . S
C979 H966 0.929 . S
C979 C971 1.433 . S
C979 N981 1.384 . S
N980 C976 1.427 . S
N980 C977 1.384 . S
N981 C973 1.427 . S
N981 C979 1.384 . S
H982 C988 0.930 . S
H983 C992 0.930 . S
H984 C997 0.929 . S
H985 C995 0.929 . S
H986 C990 0.929 . S
H987 C996 0.929 . S
C988 H982 0.930 . S
C988 C989 1.367 . S
C988 C996 1.378 . S
C989 C988 1.367 . S
C989 C997 1.433 . S
C990 H986 0.929 . S
C990 C992 1.378 . S
C990 C994 1.350 . S
C991 C994 1.463 . S
C991 C996 1.350 . S
C991 N999 1.427 . S
C992 H983 0.930 . S
C992 C990 1.378 . S
C992 C993 1.367 . S
C993 C992 1.367 . S
C993 C995 1.433 . S
C994 C990 1.350 . S
C994 C991 1.463 . S
C994 N998 1.427 . S
C995 H985 0.929 . S
C995 C993 1.433 . S
C995 N998 1.384 . S
C996 H987 0.929 . S
C996 C988 1.378 . S
C996 C991 1.350 . S
C997 H984 0.929 . S
C997 C989 1.433 . S
C997 N999 1.384 . S
N998 C994 1.427 . S
N998 C995 1.384 . S
N999 C991 1.427 . S
N999 C997 1.384 . S
H1000 C1006 0.930 . S
H1001 C1010 0.930 . S
H1002 C1015 0.929 . S
H1003 C1013 0.929 . S
H1004 C1008 0.929 . S
H1005 C1014 0.929 . S
C1006 H1000 0.930 . S
C1006 C1007 1.367 . S
C1006 C1014 1.378 . S
C1007 C1006 1.367 . S
C1007 C1015 1.433 . S
C1008 H1004 0.929 . S
C1008 C1010 1.378 . S
C1008 C1012 1.350 . S
C1009 C1012 1.463 . S
C1009 C1014 1.350 . S
C1009 N1017 1.427 . S
C1010 H1001 0.930 . S
C1010 C1008 1.378 . S
C1010 C1011 1.367 . S
C1011 C1010 1.367 . S
C1011 C1013 1.433 . S
C1012 C1008 1.350 . S
C1012 C1009 1.463 . S
C1012 N1016 1.427 . S
C1013 H1003 0.929 . S
C1013 C1011 1.433 . S
C1013 N1016 1.384 . S
C1014 H1005 0.929 . S
C1014 C1006 1.378 . S
C1014 C1009 1.350 . S
C1015 H1002 0.929 . S
C1015 C1007 1.433 . S
C1015 N1017 1.384 . S
N1016 C1012 1.427 . S
N1016 C1013 1.384 . S
N1017 C1009 1.427 . S
N1017 C1015 1.384 . S
H1018 C1024 0.930 . S
H1019 C1028 0.930 . S
H1020 C1033 0.929 . S
H1021 C1031 0.929 . S
H1022 C1026 0.929 . S
H1023 C1032 0.929 . S
C1024 H1018 0.930 . S
C1024 C1025 1.367 1_655 S
C1024 C1032 1.378 . S
C1025 C1024 1.367 1_455 S
C1025 C1033 1.433 . S
C1026 H1022 0.929 . S
C1026 C1028 1.378 . S
C1026 C1030 1.350 1_455 S
C1027 C1030 1.441 1_455 S
C1027 C1032 1.341 1_455 S
C1027 N1035 1.459 . S
C1028 H1019 0.930 . S
C1028 C1026 1.378 . S
C1028 C1029 1.367 1_455 S
C1029 C1028 1.367 1_655 S
C1029 C1031 1.433 . S
C1030 C1026 1.350 1_655 S
C1030 C1027 1.441 1_655 S
C1030 N1034 1.427 . S
C1031 H1021 0.929 . S
C1031 C1029 1.433 . S
C1031 N1034 1.384 . S
C1032 H1023 0.929 . S
C1032 C1024 1.378 . S
C1032 C1027 1.341 1_655 S
C1033 H1020 0.929 . S
C1033 C1025 1.433 . S
C1033 N1035 1.384 . S
N1034 C1030 1.427 . S
N1034 C1031 1.384 . S
N1035 C1027 1.459 . S
N1035 C1033 1.384 . S
H1036 C1042 0.930 . S
H1037 C1046 0.930 . S
H1038 C1051 0.929 . S
H1039 C1049 0.929 . S
H1040 C1044 0.929 . S
H1041 C1050 0.929 . S
C1042 H1036 0.930 . S
C1042 C1043 1.367 . S
C1042 C1050 1.378 . S
C1043 C1042 1.367 . S
C1043 C1051 1.433 . S
C1044 H1040 0.929 . S
C1044 C1046 1.378 . S
C1044 C1048 1.350 . S
C1045 C1048 1.463 . S
C1045 C1050 1.350 . S
C1045 N1053 1.427 . S
C1046 H1037 0.930 . S
C1046 C1044 1.378 . S
C1046 C1047 1.367 . S
C1047 C1046 1.367 . S
C1047 C1049 1.433 . S
C1048 C1044 1.350 . S
C1048 C1045 1.463 . S
C1048 N1052 1.427 . S
C1049 H1039 0.929 . S
C1049 C1047 1.433 . S
C1049 N1052 1.384 . S
C1050 H1041 0.929 . S
C1050 C1042 1.378 . S
C1050 C1045 1.350 . S
C1051 H1038 0.929 . S
C1051 C1043 1.433 . S
C1051 N1053 1.384 . S
N1052 C1048 1.427 . S
N1052 C1049 1.384 . S
N1053 C1045 1.427 . S
N1053 C1051 1.384 . S
H1054 C1060 0.930 . S
H1055 C1064 0.930 . S
H1056 C1069 0.929 . S
H1057 C1067 0.929 . S
H1058 C1062 0.929 . S
H1059 C1068 0.929 . S
C1060 H1054 0.930 . S
C1060 C1061 1.367 . S
C1060 C1068 1.378 . S
C1061 C1060 1.367 . S
C1061 C1069 1.433 . S
C1062 H1058 0.929 . S
C1062 C1064 1.378 . S
C1062 C1066 1.350 . S
C1063 C1066 1.463 . S
C1063 C1068 1.350 . S
C1063 N1071 1.427 . S
C1064 H1055 0.930 . S
C1064 C1062 1.378 . S
C1064 C1065 1.367 . S
C1065 C1064 1.367 . S
C1065 C1067 1.433 . S
C1066 C1062 1.350 . S
C1066 C1063 1.463 . S
C1066 N1070 1.427 . S
C1067 H1057 0.929 . S
C1067 C1065 1.433 . S
C1067 N1070 1.384 . S
C1068 H1059 0.929 . S
C1068 C1060 1.378 . S
C1068 C1063 1.350 . S
C1069 H1056 0.929 . S
C1069 C1061 1.433 . S
C1069 N1071 1.384 . S
N1070 C1066 1.427 . S
N1070 C1067 1.384 . S
N1071 C1063 1.427 . S
N1071 C1069 1.384 . S
H1072 C1078 0.930 . S
H1073 C1082 0.930 . S
H1074 C1087 0.929 . S
H1075 C1085 0.929 . S
H1076 C1080 0.929 . S
H1077 C1086 0.929 . S
C1078 H1072 0.930 . S
C1078 C1079 1.367 . S
C1078 C1086 1.378 . S
C1079 C1078 1.367 . S
C1079 C1087 1.433 . S
C1080 H1076 0.929 . S
C1080 C1082 1.378 . S
C1080 C1084 1.350 . S
C1081 C1084 1.463 . S
C1081 C1086 1.350 . S
C1081 N1089 1.427 . S
C1082 H1073 0.930 . S
C1082 C1080 1.378 . S
C1082 C1083 1.367 . S
C1083 C1082 1.367 . S
C1083 C1085 1.433 . S
C1084 C1080 1.350 . S
C1084 C1081 1.463 . S
C1084 N1088 1.427 . S
C1085 H1075 0.929 . S
C1085 C1083 1.433 . S
C1085 N1088 1.384 . S
C1086 H1077 0.929 . S
C1086 C1078 1.378 . S
C1086 C1081 1.350 . S
C1087 H1074 0.929 . S
C1087 C1079 1.433 . S
C1087 N1089 1.384 . S
N1088 C1084 1.427 . S
N1088 C1085 1.384 . S
N1089 C1081 1.427 . S
N1089 C1087 1.384 . S
H1090 C1096 0.930 . S
H1091 C1100 0.930 . S
H1092 C1105 0.929 . S
H1093 C1103 0.929 . S
H1094 C1098 0.929 . S
H1095 C1104 0.929 . S
C1096 H1090 0.930 . S
C1096 C1097 1.367 . S
C1096 C1104 1.378 . S
C1097 C1096 1.367 . S
C1097 C1105 1.433 . S
C1098 H1094 0.929 . S
C1098 C1100 1.378 . S
C1098 C1102 1.350 . S
C1099 C1102 1.463 . S
C1099 C1104 1.350 . S
C1099 N1107 1.427 . S
C1100 H1091 0.930 . S
C1100 C1098 1.378 . S
C1100 C1101 1.367 . S
C1101 C1100 1.367 . S
C1101 C1103 1.433 . S
C1102 C1098 1.350 . S
C1102 C1099 1.463 . S
C1102 N1106 1.427 . S
C1103 H1093 0.929 . S
C1103 C1101 1.433 . S
C1103 N1106 1.384 . S
C1104 H1095 0.929 . S
C1104 C1096 1.378 . S
C1104 C1099 1.350 . S
C1105 H1092 0.929 . S
C1105 C1097 1.433 . S
C1105 N1107 1.384 . S
N1106 C1102 1.427 . S
N1106 C1103 1.384 . S
N1107 C1099 1.427 . S
N1107 C1105 1.384 . S
H1108 C1114 0.930 . S
H1109 C1118 0.930 . S
H1110 C1123 0.929 . S
H1111 C1121 0.929 . S
H1112 C1116 0.929 . S
H1113 C1122 0.929 . S
C1114 H1108 0.930 . S
C1114 C1115 1.367 . S
C1114 C1122 1.378 . S
C1115 C1114 1.367 . S
C1115 C1123 1.433 1_565 S
C1116 H1112 0.929 . S
C1116 C1118 1.378 . S
C1116 C1120 1.350 . S
C1117 C1120 1.493 . S
C1117 C1122 1.308 1_545 S
C1117 N1125 1.443 . S
C1118 H1109 0.930 . S
C1118 C1116 1.378 . S
C1118 C1119 1.367 . S
C1119 C1118 1.367 . S
C1119 C1121 1.433 1_545 S
C1120 C1116 1.350 . S
C1120 C1117 1.493 . S
C1120 N1124 1.427 1_545 S
C1121 H1111 0.929 . S
C1121 C1119 1.433 1_565 S
C1121 N1124 1.384 . S
C1122 H1113 0.929 . S
C1122 C1114 1.378 . S
C1122 C1117 1.308 1_565 S
C1123 H1110 0.929 . S
C1123 C1115 1.433 1_545 S
C1123 N1125 1.384 . S
N1124 C1120 1.427 1_565 S
N1124 C1121 1.384 . S
N1125 C1117 1.443 . S
N1125 C1123 1.384 . S
H1126 C1132 0.930 . S
H1127 C1136 0.930 . S
H1128 C1141 0.929 1_556 S
H1129 C1139 0.929 . S
H1130 C1134 0.929 . S
H1131 C1140 0.929 . S
C1132 H1126 0.930 . S
C1132 C1133 1.367 . S
C1132 C1140 1.378 . S
C1133 C1132 1.367 . S
C1133 C1141 1.433 . S
C1134 H1130 0.929 . S
C1134 C1136 1.378 . S
C1134 C1138 1.350 . S
C1135 C1138 1.463 . S
C1135 C1140 1.350 . S
C1135 N1143 1.427 . S
C1136 H1127 0.930 . S
C1136 C1134 1.378 . S
C1136 C1137 1.367 . S
C1137 C1136 1.367 . S
C1137 C1139 1.433 . S
C1138 C1134 1.350 . S
C1138 C1135 1.463 . S
C1138 N1142 1.427 . S
C1139 H1129 0.929 . S
C1139 C1137 1.433 . S
C1139 N1142 1.384 . S
C1140 H1131 0.929 . S
C1140 C1132 1.378 . S
C1140 C1135 1.350 . S
C1141 H1128 0.929 1_554 S
C1141 C1133 1.433 . S
C1141 N1143 1.384 . S
N1142 C1138 1.427 . S
N1142 C1139 1.384 . S
N1143 C1135 1.427 . S
N1143 C1141 1.384 . S
H1144 C1150 0.930 . S
H1145 C1154 0.930 . S
H1146 C1159 0.929 . S
H1147 C1157 0.929 . S
H1148 C1152 0.929 . S
H1149 C1158 0.929 . S
C1150 H1144 0.930 . S
C1150 C1151 1.367 . S
C1150 C1158 1.378 . S
C1151 C1150 1.367 . S
C1151 C1159 1.433 . S
C1152 H1148 0.929 . S
C1152 C1154 1.378 . S
C1152 C1156 1.350 . S
C1153 C1156 1.463 . S
C1153 C1158 1.350 . S
C1153 N1161 1.427 . S
C1154 H1145 0.930 . S
C1154 C1152 1.378 . S
C1154 C1155 1.367 . S
C1155 C1154 1.367 . S
C1155 C1157 1.433 . S
C1156 C1152 1.350 . S
C1156 C1153 1.463 . S
C1156 N1160 1.427 . S
C1157 H1147 0.929 . S
C1157 C1155 1.433 . S
C1157 N1160 1.384 . S
C1158 H1149 0.929 . S
C1158 C1150 1.378 . S
C1158 C1153 1.350 . S
C1159 H1146 0.929 . S
C1159 C1151 1.433 . S
C1159 N1161 1.384 . S
N1160 C1156 1.427 . S
N1160 C1157 1.384 . S
N1161 C1153 1.427 . S
N1161 C1159 1.384 . S
H1162 C1168 0.930 . S
H1163 C1172 0.930 . S
H1164 C1177 0.929 . S
H1165 C1175 0.929 . S
H1166 C1170 0.929 . S
H1167 C1176 0.929 . S
C1168 H1162 0.930 . S
C1168 C1169 1.367 . S
C1168 C1176 1.378 . S
C1169 C1168 1.367 . S
C1169 C1177 1.433 . S
C1170 H1166 0.929 . S
C1170 C1172 1.378 . S
C1170 C1174 1.350 . S
C1171 C1174 1.463 . S
C1171 C1176 1.350 . S
C1171 N1179 1.427 . S
C1172 H1163 0.930 . S
C1172 C1170 1.378 . S
C1172 C1173 1.367 . S
C1173 C1172 1.367 . S
C1173 C1175 1.433 . S
C1174 C1170 1.350 . S
C1174 C1171 1.463 . S
C1174 N1178 1.427 . S
C1175 H1165 0.929 . S
C1175 C1173 1.433 . S
C1175 N1178 1.384 . S
C1176 H1167 0.929 . S
C1176 C1168 1.378 . S
C1176 C1171 1.350 . S
C1177 H1164 0.929 . S
C1177 C1169 1.433 . S
C1177 N1179 1.384 . S
N1178 C1174 1.427 . S
N1178 C1175 1.384 . S
N1179 C1171 1.427 . S
N1179 C1177 1.384 . S
H1180 C1186 0.930 . S
H1181 C1190 0.930 . S
H1182 C1195 0.929 . S
H1183 C1193 0.929 . S
H1184 C1188 0.929 . S
H1185 C1194 0.929 . S
C1186 H1180 0.930 . S
C1186 C1187 1.367 . S
C1186 C1194 1.378 . S
C1187 C1186 1.367 . S
C1187 C1195 1.433 . S
C1188 H1184 0.929 . S
C1188 C1190 1.378 . S
C1188 C1192 1.350 . S
C1189 C1192 1.463 . S
C1189 C1194 1.350 . S
C1189 N1197 1.427 . S
C1190 H1181 0.930 . S
C1190 C1188 1.378 . S
C1190 C1191 1.367 . S
C1191 C1190 1.367 . S
C1191 C1193 1.433 . S
C1192 C1188 1.350 . S
C1192 C1189 1.463 . S
C1192 N1196 1.427 . S
C1193 H1183 0.929 . S
C1193 C1191 1.433 . S
C1193 N1196 1.384 . S
C1194 H1185 0.929 . S
C1194 C1186 1.378 . S
C1194 C1189 1.350 . S
C1195 H1182 0.929 . S
C1195 C1187 1.433 . S
C1195 N1197 1.384 . S
N1196 C1192 1.427 . S
N1196 C1193 1.384 . S
N1197 C1189 1.427 . S
N1197 C1195 1.384 . S
H1198 C1204 0.930 . S
H1199 C1208 0.930 . S
H1200 C1213 0.929 . S
H1201 C1211 0.929 . S
H1202 C1206 0.929 . S
H1203 C1212 0.929 . S
C1204 H1198 0.930 . S
C1204 C1205 1.367 . S
C1204 C1212 1.378 . S
C1205 C1204 1.367 . S
C1205 C1213 1.433 . S
C1206 H1202 0.929 . S
C1206 C1208 1.378 . S
C1206 C1210 1.350 . S
C1207 C1210 1.463 . S
C1207 C1212 1.350 . S
C1207 N1215 1.427 . S
C1208 H1199 0.930 . S
C1208 C1206 1.378 . S
C1208 C1209 1.367 . S
C1209 C1208 1.367 . S
C1209 C1211 1.433 . S
C1210 C1206 1.350 . S
C1210 C1207 1.463 . S
C1210 N1214 1.427 . S
C1211 H1201 0.929 . S
C1211 C1209 1.433 . S
C1211 N1214 1.384 . S
C1212 H1203 0.929 . S
C1212 C1204 1.378 . S
C1212 C1207 1.350 . S
C1213 H1200 0.929 . S
C1213 C1205 1.433 . S
C1213 N1215 1.384 . S
N1214 C1210 1.427 . S
N1214 C1211 1.384 . S
N1215 C1207 1.427 . S
N1215 C1213 1.384 . S
H1216 C1222 0.930 . S
H1217 C1226 0.930 . S
H1218 C1231 0.929 . S
H1219 C1229 0.929 . S
H1220 C1224 0.929 . S
H1221 C1230 0.929 . S
C1222 H1216 0.930 . S
C1222 C1223 1.367 . S
C1222 C1230 1.378 . S
C1223 C1222 1.367 . S
C1223 C1231 1.433 . S
C1224 H1220 0.929 . S
C1224 C1226 1.378 . S
C1224 C1228 1.350 . S
C1225 C1228 1.463 . S
C1225 C1230 1.350 . S
C1225 N1233 1.427 . S
C1226 H1217 0.930 . S
C1226 C1224 1.378 . S
C1226 C1227 1.367 . S
C1227 C1226 1.367 . S
C1227 C1229 1.433 . S
C1228 C1224 1.350 . S
C1228 C1225 1.463 . S
C1228 N1232 1.427 . S
C1229 H1219 0.929 . S
C1229 C1227 1.433 . S
C1229 N1232 1.384 . S
C1230 H1221 0.929 . S
C1230 C1222 1.378 . S
C1230 C1225 1.350 . S
C1231 H1218 0.929 . S
C1231 C1223 1.433 . S
C1231 N1233 1.384 . S
N1232 C1228 1.427 . S
N1232 C1229 1.384 . S
N1233 C1225 1.427 . S
N1233 C1231 1.384 . S
H1234 C1240 0.930 . S
H1235 C1244 0.930 . S
H1236 C1249 0.929 . S
H1237 C1247 0.929 . S
H1238 C1242 0.929 . S
H1239 C1248 0.929 . S
C1240 H1234 0.930 . S
C1240 C1241 1.367 . S
C1240 C1248 1.378 . S
C1241 C1240 1.367 . S
C1241 C1249 1.433 . S
C1242 H1238 0.929 . S
C1242 C1244 1.378 . S
C1242 C1246 1.350 . S
C1243 C1246 1.463 . S
C1243 C1248 1.350 . S
C1243 N1251 1.427 . S
C1244 H1235 0.930 . S
C1244 C1242 1.378 . S
C1244 C1245 1.367 . S
C1245 C1244 1.367 . S
C1245 C1247 1.433 . S
C1246 C1242 1.350 . S
C1246 C1243 1.463 . S
C1246 N1250 1.427 . S
C1247 H1237 0.929 . S
C1247 C1245 1.433 . S
C1247 N1250 1.384 . S
C1248 H1239 0.929 . S
C1248 C1240 1.378 . S
C1248 C1243 1.350 . S
C1249 H1236 0.929 . S
C1249 C1241 1.433 . S
C1249 N1251 1.384 . S
N1250 C1246 1.427 . S
N1250 C1247 1.384 . S
N1251 C1243 1.427 . S
N1251 C1249 1.384 . S
H1252 C1258 0.930 . S
H1253 C1262 0.930 . S
H1254 C1267 0.929 . S
H1255 C1265 0.929 . S
H1256 C1260 0.929 . S
H1257 C1266 0.929 . S
C1258 H1252 0.930 . S
C1258 C1259 1.367 . S
C1258 C1266 1.378 . S
C1259 C1258 1.367 . S
C1259 C1267 1.433 . S
C1260 H1256 0.929 . S
C1260 C1262 1.378 . S
C1260 C1264 1.350 . S
C1261 C1264 1.463 . S
C1261 C1266 1.350 . S
C1261 N1269 1.427 . S
C1262 H1253 0.930 . S
C1262 C1260 1.378 . S
C1262 C1263 1.367 . S
C1263 C1262 1.367 . S
C1263 C1265 1.433 . S
C1264 C1260 1.350 . S
C1264 C1261 1.463 . S
C1264 N1268 1.427 . S
C1265 H1255 0.929 . S
C1265 C1263 1.433 . S
C1265 N1268 1.384 . S
C1266 H1257 0.929 . S
C1266 C1258 1.378 . S
C1266 C1261 1.350 . S
C1267 H1254 0.929 . S
C1267 C1259 1.433 . S
C1267 N1269 1.384 . S
N1268 C1264 1.427 . S
N1268 C1265 1.384 . S
N1269 C1261 1.427 . S
N1269 C1267 1.384 . S
H1270 C1276 0.930 . S
H1271 C1280 0.930 . S
H1272 C1285 0.929 . S
H1273 C1283 0.929 . S
H1274 C1278 0.929 . S
H1275 C1284 0.929 . S
C1276 H1270 0.930 . S
C1276 C1277 1.367 . S
C1276 C1284 1.378 . S
C1277 C1276 1.367 . S
C1277 C1285 1.433 . S
C1278 H1274 0.929 . S
C1278 C1280 1.378 . S
C1278 C1282 1.350 . S
C1279 C1282 1.463 . S
C1279 C1284 1.350 . S
C1279 N1287 1.427 . S
C1280 H1271 0.930 . S
C1280 C1278 1.378 . S
C1280 C1281 1.367 . S
C1281 C1280 1.367 . S
C1281 C1283 1.433 . S
C1282 C1278 1.350 . S
C1282 C1279 1.463 . S
C1282 N1286 1.427 . S
C1283 H1273 0.929 . S
C1283 C1281 1.433 . S
C1283 N1286 1.384 . S
C1284 H1275 0.929 . S
C1284 C1276 1.378 . S
C1284 C1279 1.350 . S
C1285 H1272 0.929 . S
C1285 C1277 1.433 . S
C1285 N1287 1.384 . S
N1286 C1282 1.427 . S
N1286 C1283 1.384 . S
N1287 C1279 1.427 . S
N1287 C1285 1.384 . S
H1288 C1294 0.930 . S
H1289 C1298 0.930 . S
H1290 C1303 0.929 . S
H1291 C1301 0.929 . S
H1292 C1296 0.929 . S
H1293 C1302 0.929 . S
C1294 H1288 0.930 . S
C1294 C1295 1.367 . S
C1294 C1302 1.378 . S
C1295 C1294 1.367 . S
C1295 C1303 1.433 . S
C1296 H1292 0.929 . S
C1296 C1298 1.378 . S
C1296 C1300 1.350 . S
C1297 C1300 1.463 . S
C1297 C1302 1.350 . S
C1297 N1305 1.427 . S
C1298 H1289 0.930 . S
C1298 C1296 1.378 . S
C1298 C1299 1.367 . S
C1299 C1298 1.367 . S
C1299 C1301 1.433 . S
C1300 C1296 1.350 . S
C1300 C1297 1.463 . S
C1300 N1304 1.427 . S
C1301 H1291 0.929 . S
C1301 C1299 1.433 . S
C1301 N1304 1.384 . S
C1302 H1293 0.929 . S
C1302 C1294 1.378 . S
C1302 C1297 1.350 . S
C1303 H1290 0.929 . S
C1303 C1295 1.433 . S
C1303 N1305 1.384 . S
N1304 C1300 1.427 . S
N1304 C1301 1.384 . S
N1305 C1297 1.427 . S
N1305 C1303 1.384 . S
H1306 C1312 0.930 . S
H1307 C1316 0.930 . S
H1308 C1321 0.929 . S
H1309 C1319 0.929 . S
H1310 C1314 0.929 . S
H1311 C1320 0.929 . S
C1312 H1306 0.930 . S
C1312 C1313 1.367 . S
C1312 C1320 1.378 . S
C1313 C1312 1.367 . S
C1313 C1321 1.433 . S
C1314 H1310 0.929 . S
C1314 C1316 1.378 . S
C1314 C1318 1.350 1_556 S
C1315 C1318 1.463 . S
C1315 C1320 1.350 . S
C1315 N1323 1.427 . S
C1316 H1307 0.930 . S
C1316 C1314 1.378 . S
C1316 C1317 1.367 1_556 S
C1317 C1316 1.367 1_554 S
C1317 C1319 1.433 . S
C1318 C1314 1.350 1_554 S
C1318 C1315 1.463 . S
C1318 N1322 1.427 . S
C1319 H1309 0.929 . S
C1319 C1317 1.433 . S
C1319 N1322 1.384 . S
C1320 H1311 0.929 . S
C1320 C1312 1.378 . S
C1320 C1315 1.350 . S
C1321 H1308 0.929 . S
C1321 C1313 1.433 . S
C1321 N1323 1.384 . S
N1322 C1318 1.427 . S
N1322 C1319 1.384 . S
N1323 C1315 1.427 . S
N1323 C1321 1.384 . S
H1324 C1330 0.930 . S
H1325 C1334 0.930 . S
H1326 C1339 0.929 . S
H1327 C1337 0.929 . S
H1328 C1332 0.929 . S
H1329 C1338 0.929 . S
C1330 H1324 0.930 . S
C1330 C1331 1.367 . S
C1330 C1338 1.378 . S
C1331 C1330 1.367 . S
C1331 C1339 1.433 . S
C1332 H1328 0.929 . S
C1332 C1334 1.378 . S
C1332 C1336 1.350 . S
C1333 C1336 1.463 . S
C1333 C1338 1.350 . S
C1333 N1341 1.427 . S
C1334 H1325 0.930 . S
C1334 C1332 1.378 . S
C1334 C1335 1.367 . S
C1335 C1334 1.367 . S
C1335 C1337 1.433 . S
C1336 C1332 1.350 . S
C1336 C1333 1.463 . S
C1336 N1340 1.427 . S
C1337 H1327 0.929 . S
C1337 C1335 1.433 . S
C1337 N1340 1.384 . S
C1338 H1329 0.929 . S
C1338 C1330 1.378 . S
C1338 C1333 1.350 . S
C1339 H1326 0.929 . S
C1339 C1331 1.433 . S
C1339 N1341 1.384 . S
N1340 C1336 1.427 . S
N1340 C1337 1.384 . S
N1341 C1333 1.427 . S
N1341 C1339 1.384 . S
H1342 C1348 0.930 . S
H1343 C1352 0.930 . S
H1344 C1357 0.929 . S
H1345 C1355 0.929 . S
H1346 C1350 0.929 . S
H1347 C1356 0.929 . S
C1348 H1342 0.930 . S
C1348 C1349 1.367 . S
C1348 C1356 1.378 . S
C1349 C1348 1.367 . S
C1349 C1357 1.433 . S
C1350 H1346 0.929 . S
C1350 C1352 1.378 . S
C1350 C1354 1.350 . S
C1351 C1354 1.463 . S
C1351 C1356 1.350 . S
C1351 N1359 1.427 . S
C1352 H1343 0.930 . S
C1352 C1350 1.378 . S
C1352 C1353 1.367 . S
C1353 C1352 1.367 . S
C1353 C1355 1.433 . S
C1354 C1350 1.350 . S
C1354 C1351 1.463 . S
C1354 N1358 1.427 . S
C1355 H1345 0.929 . S
C1355 C1353 1.433 . S
C1355 N1358 1.384 . S
C1356 H1347 0.929 . S
C1356 C1348 1.378 . S
C1356 C1351 1.350 . S
C1357 H1344 0.929 . S
C1357 C1349 1.433 . S
C1357 N1359 1.384 . S
N1358 C1354 1.427 . S
N1358 C1355 1.384 . S
N1359 C1351 1.427 . S
N1359 C1357 1.384 . S
H1360 C1366 0.930 . S
H1361 C1370 0.930 . S
H1362 C1375 0.929 . S
H1363 C1373 0.929 . S
H1364 C1368 0.929 . S
H1365 C1374 0.929 . S
C1366 H1360 0.930 . S
C1366 C1367 1.367 . S
C1366 C1374 1.378 . S
C1367 C1366 1.367 . S
C1367 C1375 1.433 . S
C1368 H1364 0.929 . S
C1368 C1370 1.378 . S
C1368 C1372 1.350 . S
C1369 C1372 1.463 . S
C1369 C1374 1.350 . S
C1369 N1377 1.427 . S
C1370 H1361 0.930 . S
C1370 C1368 1.378 . S
C1370 C1371 1.367 . S
C1371 C1370 1.367 . S
C1371 C1373 1.433 . S
C1372 C1368 1.350 . S
C1372 C1369 1.463 . S
C1372 N1376 1.427 . S
C1373 H1363 0.929 . S
C1373 C1371 1.433 . S
C1373 N1376 1.384 . S
C1374 H1365 0.929 . S
C1374 C1366 1.378 . S
C1374 C1369 1.350 . S
C1375 H1362 0.929 . S
C1375 C1367 1.433 . S
C1375 N1377 1.384 . S
N1376 C1372 1.427 . S
N1376 C1373 1.384 . S
N1377 C1369 1.427 . S
N1377 C1375 1.384 . S
H1378 C1384 0.930 . S
H1379 C1388 0.930 . S
H1380 C1393 0.929 . S
H1381 C1391 0.929 . S
H1382 C1386 0.929 . S
H1383 C1392 0.929 . S
C1384 H1378 0.930 . S
C1384 C1385 1.367 . S
C1384 C1392 1.378 . S
C1385 C1384 1.367 . S
C1385 C1393 1.433 . S
C1386 H1382 0.929 . S
C1386 C1388 1.378 . S
C1386 C1390 1.350 . S
C1387 C1390 1.463 . S
C1387 C1392 1.350 . S
C1387 N1395 1.427 . S
C1388 H1379 0.930 . S
C1388 C1386 1.378 . S
C1388 C1389 1.367 . S
C1389 C1388 1.367 . S
C1389 C1391 1.433 . S
C1390 C1386 1.350 . S
C1390 C1387 1.463 . S
C1390 N1394 1.427 . S
C1391 H1381 0.929 . S
C1391 C1389 1.433 . S
C1391 N1394 1.384 . S
C1392 H1383 0.929 . S
C1392 C1384 1.378 . S
C1392 C1387 1.350 . S
C1393 H1380 0.929 . S
C1393 C1385 1.433 . S
C1393 N1395 1.384 . S
N1394 C1390 1.427 . S
N1394 C1391 1.384 . S
N1395 C1387 1.427 . S
N1395 C1393 1.384 . S
H1396 C1402 0.930 . S
H1397 C1406 0.930 . S
H1398 C1411 0.929 . S
H1399 C1409 0.929 . S
H1400 C1404 0.929 . S
H1401 C1410 0.929 . S
C1402 H1396 0.930 . S
C1402 C1403 1.367 1_554 S
C1402 C1410 1.378 . S
C1403 C1402 1.367 1_556 S
C1403 C1411 1.433 . S
C1404 H1400 0.929 . S
C1404 C1406 1.378 . S
C1404 C1408 1.350 . S
C1405 C1408 1.463 . S
C1405 C1410 1.350 1_556 S
C1405 N1413 1.427 . S
C1406 H1397 0.930 . S
C1406 C1404 1.378 . S
C1406 C1407 1.367 . S
C1407 C1406 1.367 . S
C1407 C1409 1.433 . S
C1408 C1404 1.350 . S
C1408 C1405 1.463 . S
C1408 N1412 1.427 . S
C1409 H1399 0.929 . S
C1409 C1407 1.433 . S
C1409 N1412 1.384 . S
C1410 H1401 0.929 . S
C1410 C1402 1.378 . S
C1410 C1405 1.350 1_554 S
C1411 H1398 0.929 . S
C1411 C1403 1.433 . S
C1411 N1413 1.384 . S
N1412 C1408 1.427 . S
N1412 C1409 1.384 . S
N1413 C1405 1.427 . S
N1413 C1411 1.384 . S
H1414 C1420 0.930 . S
H1415 C1424 0.930 . S
H1416 C1429 0.929 . S
H1417 C1427 0.929 . S
H1418 C1422 0.929 . S
H1419 C1428 0.929 . S
C1420 H1414 0.930 . S
C1420 C1421 1.367 . S
C1420 C1428 1.378 . S
C1421 C1420 1.367 . S
C1421 C1429 1.433 . S
C1422 H1418 0.929 . S
C1422 C1424 1.378 . S
C1422 C1426 1.350 . S
C1423 C1426 1.463 . S
C1423 C1428 1.350 . S
C1423 N1431 1.427 . S
C1424 H1415 0.930 . S
C1424 C1422 1.378 . S
C1424 C1425 1.367 . S
C1425 C1424 1.367 . S
C1425 C1427 1.433 . S
C1426 C1422 1.350 . S
C1426 C1423 1.463 . S
C1426 N1430 1.427 . S
C1427 H1417 0.929 . S
C1427 C1425 1.433 . S
C1427 N1430 1.384 . S
C1428 H1419 0.929 . S
C1428 C1420 1.378 . S
C1428 C1423 1.350 . S
C1429 H1416 0.929 . S
C1429 C1421 1.433 . S
C1429 N1431 1.384 . S
N1430 C1426 1.427 . S
N1430 C1427 1.384 . S
N1431 C1423 1.427 . S
N1431 C1429 1.384 . S
H1432 C1438 0.930 . S
H1433 C1442 0.930 . S
H1434 C1447 0.929 . S
H1435 C1445 0.929 . S
H1436 C1440 0.929 . S
H1437 C1446 0.929 . S
C1438 H1432 0.930 . S
C1438 C1439 1.367 . S
C1438 C1446 1.378 . S
C1439 C1438 1.367 . S
C1439 C1447 1.433 . S
C1440 H1436 0.929 . S
C1440 C1442 1.378 . S
C1440 C1444 1.350 . S
C1441 C1444 1.463 . S
C1441 C1446 1.350 . S
C1441 N1449 1.427 . S
C1442 H1433 0.930 . S
C1442 C1440 1.378 . S
C1442 C1443 1.367 . S
C1443 C1442 1.367 . S
C1443 C1445 1.433 . S
C1444 C1440 1.350 . S
C1444 C1441 1.463 . S
C1444 N1448 1.427 . S
C1445 H1435 0.929 . S
C1445 C1443 1.433 . S
C1445 N1448 1.384 . S
C1446 H1437 0.929 . S
C1446 C1438 1.378 . S
C1446 C1441 1.350 . S
C1447 H1434 0.929 . S
C1447 C1439 1.433 . S
C1447 N1449 1.384 . S
N1448 C1444 1.427 . S
N1448 C1445 1.384 . S
N1449 C1441 1.427 . S
N1449 C1447 1.384 . S
H1450 C1456 0.930 . S
H1451 C1460 0.930 . S
H1452 C1465 0.929 . S
H1453 C1463 0.929 . S
H1454 C1458 0.929 . S
H1455 C1464 0.929 . S
C1456 H1450 0.930 . S
C1456 C1457 1.367 . S
C1456 C1464 1.378 . S
C1457 C1456 1.367 . S
C1457 C1465 1.433 . S
C1458 H1454 0.929 . S
C1458 C1460 1.378 . S
C1458 C1462 1.350 . S
C1459 C1462 1.463 . S
C1459 C1464 1.350 . S
C1459 N1467 1.427 . S
C1460 H1451 0.930 . S
C1460 C1458 1.378 . S
C1460 C1461 1.367 . S
C1461 C1460 1.367 . S
C1461 C1463 1.433 . S
C1462 C1458 1.350 . S
C1462 C1459 1.463 . S
C1462 N1466 1.427 . S
C1463 H1453 0.929 . S
C1463 C1461 1.433 . S
C1463 N1466 1.384 . S
C1464 H1455 0.929 . S
C1464 C1456 1.378 . S
C1464 C1459 1.350 . S
C1465 H1452 0.929 . S
C1465 C1457 1.433 . S
C1465 N1467 1.384 . S
N1466 C1462 1.427 . S
N1466 C1463 1.384 . S
N1467 C1459 1.427 . S
N1467 C1465 1.384 . S
H1468 C1474 0.930 . S
H1469 C1478 0.930 . S
H1470 C1483 0.929 . S
H1471 C1481 0.929 . S
H1472 C1476 0.929 . S
H1473 C1482 0.929 . S
C1474 H1468 0.930 . S
C1474 C1475 1.367 . S
C1474 C1482 1.378 . S
C1475 C1474 1.367 . S
C1475 C1483 1.433 . S
C1476 H1472 0.929 . S
C1476 C1478 1.378 . S
C1476 C1480 1.350 . S
C1477 C1480 1.463 . S
C1477 C1482 1.350 . S
C1477 N1485 1.427 . S
C1478 H1469 0.930 . S
C1478 C1476 1.378 . S
C1478 C1479 1.367 . S
C1479 C1478 1.367 . S
C1479 C1481 1.433 . S
C1480 C1476 1.350 . S
C1480 C1477 1.463 . S
C1480 N1484 1.427 . S
C1481 H1471 0.929 . S
C1481 C1479 1.433 . S
C1481 N1484 1.384 . S
C1482 H1473 0.929 . S
C1482 C1474 1.378 . S
C1482 C1477 1.350 . S
C1483 H1470 0.929 . S
C1483 C1475 1.433 . S
C1483 N1485 1.384 . S
N1484 C1480 1.427 . S
N1484 C1481 1.384 . S
N1485 C1477 1.427 . S
N1485 C1483 1.384 . S
H1486 C1492 0.930 . S
H1487 C1496 0.930 . S
H1488 C1501 0.929 . S
H1489 C1499 0.929 . S
H1490 C1494 0.929 . S
H1491 C1500 0.929 . S
C1492 H1486 0.930 . S
C1492 C1493 1.367 . S
C1492 C1500 1.378 . S
C1493 C1492 1.367 . S
C1493 C1501 1.433 . S
C1494 H1490 0.929 . S
C1494 C1496 1.378 . S
C1494 C1498 1.350 . S
C1495 C1498 1.463 . S
C1495 C1500 1.350 . S
C1495 N1503 1.427 . S
C1496 H1487 0.930 . S
C1496 C1494 1.378 . S
C1496 C1497 1.367 . S
C1497 C1496 1.367 . S
C1497 C1499 1.433 . S
C1498 C1494 1.350 . S
C1498 C1495 1.463 . S
C1498 N1502 1.427 . S
C1499 H1489 0.929 . S
C1499 C1497 1.433 . S
C1499 N1502 1.384 . S
C1500 H1491 0.929 . S
C1500 C1492 1.378 . S
C1500 C1495 1.350 . S
C1501 H1488 0.929 . S
C1501 C1493 1.433 . S
C1501 N1503 1.384 . S
N1502 C1498 1.427 . S
N1502 C1499 1.384 . S
N1503 C1495 1.427 . S
N1503 C1501 1.384 . S
C647 C11 1.247 . S
C651 C56 1.207 . S
C665 C91 1.940 . S
C669 C42 1.914 . S
C683 C122 2.216 . S
C687 C99 2.243 . S
C701 C19 1.383 . S
C705 C136 1.347 . S
C719 C10 1.378 . S
C723 C367 1.333 . S
C737 C282 1.247 . S
C741 C47 1.207 . S
C755 C82 1.941 . S
C759 C411 1.912 . S
C773 C131 2.220 . S
C777 C530 2.247 . S
C791 C322 1.940 . S
C795 C51 1.908 . S
C809 C491 2.219 . S
C813 C90 2.241 . S
C827 C570 1.380 . S
C831 C127 1.329 . S
C845 C2 1.236 . S
C849 C447 1.189 . S
C863 C16 0.443 . S
C867 C327 0.364 . S
C881 C499 1.709 . S
C885 C170 1.712 . S
C899 C216 0.363 . S
C903 C567 0.442 . S
C917 C450 1.717 . S
C921 C259 1.704 . S
C935 C96 0.346 . S
C939 C287 0.444 . S
C953 C370 1.710 . S
C957 C179 1.711 . S
C971 C250 1.702 . S
C975 C419 1.718 . S
C989 C202 1.941 . S
C993 C451 1.912 . S
C1007 C371 2.218 . S
C1011 C210 2.247 . S
C1025 C456 1.187 . S
C1029 C291 1.237 . S
C1043 C211 1.941 . S
C1047 C162 1.907 . S
C1061 C362 2.216 . S
C1065 C339 2.246 . S
C1079 C531 1.940 . S
C1083 C442 1.908 . S
C1097 C242 2.223 . S
C1101 C219 2.245 . S
C1115 C376 1.344 . S
C1119 C579 1.392 . S
C1133 C536 0.369 . S
C1137 C7 0.446 . S
C1151 C87 0.370 . S
C1155 C576 0.448 . S
C1169 C490 1.712 . S
C1173 C59 1.709 . S
C1187 C296 0.458 . S
C1191 C207 0.378 . S
C1205 C139 1.708 . S
C1209 C410 1.713 . S
C1223 C482 2.216 . S
C1227 C539 2.246 . S
C1241 C299 1.387 . S
C1245 C496 1.330 . S
C1259 C247 1.343 . S
C1263 C290 1.393 . S
C1277 C171 1.912 . S
C1281 C522 1.939 . S
C1295 C487 1.338 . S
C1299 C610 1.378 . S
C1313 C607 0.480 . S
C1317 C336 0.376 . S
C1331 C50 1.713 . S
C1335 C379 1.708 . S
C1349 C330 2.246 . S
C1353 C251 2.216 . S
C1367 C331 1.941 . S
C1371 C402 1.907 . S
C1385 C619 1.388 . S
C1389 C256 1.349 . S
C1403 C527 0.377 . S
C1407 C616 0.479 . S
C1421 C459 1.711 . S
C1425 C130 1.710 . S
C1439 C416 1.186 . S
C1443 C571 1.237 . S
C1457 C407 1.202 . S
C1461 C602 1.241 . S
C1475 C167 1.200 . S
C1479 C562 1.240 . S
C1493 C611 1.238 . S
C1497 C176 1.197 . S
