# Generated by pormake.
# Topology ukh, (4)-cn, num edge types: 1
# Building blocks:
#     Node 0, Type 0, BuildingBlock: QUQFOY_clean_sbu_1, # of connection points: 4
#     Node 1, Type 0, BuildingBlock: QUQFOY_clean_sbu_1, # of connection points: 4
#     Node 2, Type 0, BuildingBlock: QUQFOY_clean_sbu_1, # of connection points: 4
#     Node 3, Type 0, BuildingBlock: QUQFOY_clean_sbu_1, # of connection points: 4
#     Node 4, Type 0, BuildingBlock: QUQFOY_clean_sbu_1, # of connection points: 4
#     Node 5, Type 0, BuildingBlock: QUQFOY_clean_sbu_1, # of connection points: 4
#     Node 6, Type 0, BuildingBlock: QUQFOY_clean_sbu_1, # of connection points: 4
#     Node 7, Type 0, BuildingBlock: QUQFOY_clean_sbu_1, # of connection points: 4
#     Node 8, Type 0, BuildingBlock: QUQFOY_clean_sbu_1, # of connection points: 4
#     Node 9, Type 0, BuildingBlock: QUQFOY_clean_sbu_1, # of connection points: 4
#     Node 10, Type 0, BuildingBlock: QUQFOY_clean_sbu_1, # of connection points: 4
#     Node 11, Type 0, BuildingBlock: QUQFOY_clean_sbu_1, # of connection points: 4
#     Edge 12, Type (0, 0), BuildingBlock: XUDNAN_clean_linker_2, # of connection points: 2
#     Edge 13, Type (0, 0), BuildingBlock: XUDNAN_clean_linker_2, # of connection points: 2
#     Edge 14, Type (0, 0), BuildingBlock: XUDNAN_clean_linker_2, # of connection points: 2
#     Edge 15, Type (0, 0), BuildingBlock: XUDNAN_clean_linker_2, # of connection points: 2
#     Edge 16, Type (0, 0), BuildingBlock: XUDNAN_clean_linker_2, # of connection points: 2
#     Edge 17, Type (0, 0), BuildingBlock: XUDNAN_clean_linker_2, # of connection points: 2
#     Edge 18, Type (0, 0), BuildingBlock: XUDNAN_clean_linker_2, # of connection points: 2
#     Edge 19, Type (0, 0), BuildingBlock: XUDNAN_clean_linker_2, # of connection points: 2
#     Edge 20, Type (0, 0), BuildingBlock: XUDNAN_clean_linker_2, # of connection points: 2
#     Edge 21, Type (0, 0), BuildingBlock: XUDNAN_clean_linker_2, # of connection points: 2
#     Edge 22, Type (0, 0), BuildingBlock: XUDNAN_clean_linker_2, # of connection points: 2
#     Edge 23, Type (0, 0), BuildingBlock: XUDNAN_clean_linker_2, # of connection points: 2
#     Edge 24, Type (0, 0), BuildingBlock: XUDNAN_clean_linker_2, # of connection points: 2
#     Edge 25, Type (0, 0), BuildingBlock: XUDNAN_clean_linker_2, # of connection points: 2
#     Edge 26, Type (0, 0), BuildingBlock: XUDNAN_clean_linker_2, # of connection points: 2
#     Edge 27, Type (0, 0), BuildingBlock: XUDNAN_clean_linker_2, # of connection points: 2
#     Edge 28, Type (0, 0), BuildingBlock: XUDNAN_clean_linker_2, # of connection points: 2
#     Edge 29, Type (0, 0), BuildingBlock: XUDNAN_clean_linker_2, # of connection points: 2
#     Edge 30, Type (0, 0), BuildingBlock: XUDNAN_clean_linker_2, # of connection points: 2
#     Edge 31, Type (0, 0), BuildingBlock: XUDNAN_clean_linker_2, # of connection points: 2
#     Edge 32, Type (0, 0), BuildingBlock: XUDNAN_clean_linker_2, # of connection points: 2
#     Edge 33, Type (0, 0), BuildingBlock: XUDNAN_clean_linker_2, # of connection points: 2
#     Edge 34, Type (0, 0), BuildingBlock: XUDNAN_clean_linker_2, # of connection points: 2
#     Edge 35, Type (0, 0), BuildingBlock: XUDNAN_clean_linker_2, # of connection points: 2
# Relax obj value: 0.059
# Max RMSD: 0.078
# Mean RMSD: 0.078
data_MOF--net-ukh--node1-QUQFOY_clean_sbu_1--edge1-XUDNAN_clean_linker_2
_symmetry_space_group_name_H-M    P1
_symmetry_Int_Tables_number       1
_symmetry_cell_setting            triclinic
loop_
_symmetry_equiv_pos_as_xyz
'x, y, z'
_cell_length_a     32.980583
_cell_length_b     32.960009
_cell_length_c     66.189996
_cell_angle_alpha  90.033252
_cell_angle_beta   89.92547
_cell_angle_gamma 119.79987
loop_
_atom_site_label
_atom_site_type_symbol
_atom_site_fract_x
_atom_site_fract_y
_atom_site_fract_z
_atom_type_partial_charge
O0 O 0.32124 0.16794 0.05283 0.0
Cd1 Cd 0.32047 0.21839 0.07128 0.0
Cd2 Cd 0.36553 0.27103 0.0376 0.0
O3 O 0.37225 0.2135 0.0299 0.0
O4 O 0.29749 0.18585 0.09781 0.0
O5 O 0.36845 0.24609 0.09364 0.0
C6 C 0.33786 0.21416 0.10534 0.0
C7 C 0.42337 0.34992 0.03301 0.0
C8 C 0.34626 0.17295 0.03736 0.0
C9 C 0.2691 0.25326 0.04637 0.0
O10 O 0.2999 0.26194 0.03298 0.0
O11 O 0.27365 0.24093 0.06404 0.0
O12 O 0.40349 0.32214 0.01799 0.0
O13 O 0.4133 0.33201 0.05093 0.0
O14 O 0.16542 0.31083 0.38552 0.0
Cd15 Cd 0.10778 0.30444 0.40061 0.0
Cd16 Cd 0.11915 0.36912 0.37353 0.0
O17 O 0.18422 0.37488 0.36806 0.0
O18 O 0.10746 0.27646 0.42753 0.0
O19 O 0.12074 0.34872 0.42374 0.0
C20 C 0.11862 0.31643 0.43548 0.0
C21 C 0.10066 0.42703 0.38231 0.0
C22 C 0.1931 0.343 0.37359 0.0
C23 C 0.03644 0.27286 0.36842 0.0
O24 O 0.06459 0.31178 0.3603 0.0
O25 O 0.04375 0.26382 0.38632 0.0
O26 O 0.11295 0.42382 0.36409 0.0
O27 O 0.10276 0.3999 0.39585 0.0
O28 O 0.88115 0.16163 0.72708 0.0
Cd29 Cd 0.82996 0.10599 0.74325 0.0
Cd30 Cd 0.78309 0.10131 0.70709 0.0
O31 O 0.8417 0.16535 0.7008 0.0
O32 O 0.86045 0.1131 0.77018 0.0
O33 O 0.7987 0.12155 0.76593 0.0
C34 C 0.83061 0.12323 0.77776 0.0
C35 C 0.70493 0.08122 0.7013 0.0
C36 C 0.87945 0.18153 0.71089 0.0
C37 C 0.80148 0.02285 0.71621 0.0
O38 O 0.79264 0.04507 0.70292 0.0
O39 O 0.81224 0.03866 0.73414 0.0
O40 O 0.73395 0.08966 0.68669 0.0
O41 O 0.72124 0.08803 0.7195 0.0
O42 O 0.72319 0.87437 0.05283 0.0
Cd43 Cd 0.7351 0.82328 0.06483 0.0
Cd44 Cd 0.66914 0.77304 0.03469 0.0
O45 O 0.66387 0.83318 0.03218 0.0
O46 O 0.77718 0.8564 0.08811 0.0
O47 O 0.7059 0.79685 0.09224 0.0
C48 C 0.74416 0.82914 0.10016 0.0
C49 C 0.60707 0.6953 0.03305 0.0
C50 C 0.69256 0.87188 0.04046 0.0
C51 C 0.76689 0.78964 0.02928 0.0
O52 O 0.72789 0.77914 0.02136 0.0
O53 O 0.77546 0.80354 0.04753 0.0
O54 O 0.61878 0.72329 0.01782 0.0
O55 O 0.62801 0.71257 0.04999 0.0
O56 O 0.87296 0.72744 0.38953 0.0
Cd57 Cd 0.93033 0.73464 0.40515 0.0
Cd58 Cd 0.92024 0.66926 0.37848 0.0
O59 O 0.85516 0.6629 0.37264 0.0
O60 O 0.92907 0.76105 0.43232 0.0
O61 O 0.91685 0.68929 0.42787 0.0
C62 C 0.91803 0.72076 0.4399 0.0
C63 C 0.93869 0.6106 0.38579 0.0
C64 C 0.8458 0.69474 0.37769 0.0
C65 C 1.00268 0.76605 0.37337 0.0
O66 O 0.97489 0.72682 0.36541 0.0
O67 O 0.99487 0.77555 0.39112 0.0
O68 O 0.92657 0.61553 0.36781 0.0
O69 O 0.93636 0.63634 0.39997 0.0
O70 O 0.17969 0.84986 0.71435 0.0
Cd71 Cd 0.23106 0.91033 0.72767 0.0
Cd72 Cd 0.28158 0.89893 0.69792 0.0
O73 O 0.22292 0.83341 0.69405 0.0
O74 O 0.20374 0.91247 0.75436 0.0
O75 O 0.26461 0.90185 0.75132 0.0
C76 C 0.23387 0.90382 0.76279 0.0
C77 C 0.35998 0.91649 0.69669 0.0
C78 C 0.18345 0.82283 0.70173 0.0
C79 C 0.26303 0.97945 0.69431 0.0
O80 O 0.27412 0.95189 0.68575 0.0
O81 O 0.24933 0.97272 0.71262 0.0
O82 O 0.33311 0.90159 0.68109 0.0
O83 O 0.34126 0.91771 0.71368 0.0
O84 O 0.88323 0.71 0.63232 0.0
Cd85 Cd 0.83263 0.71903 0.61807 0.0
Cd86 Cd 0.77872 0.65301 0.64594 0.0
O87 O 0.83765 0.64615 0.64978 0.0
O88 O 0.86065 0.74872 0.59148 0.0
O89 O 0.80037 0.67709 0.59434 0.0
C90 C 0.8311 0.70992 0.58297 0.0
C91 C 0.7009 0.59088 0.64789 0.0
C92 C 0.87828 0.67714 0.64396 0.0
C93 C 0.79614 0.75173 0.65123 0.0
O94 O 0.78462 0.71221 0.65895 0.0
O95 O 0.81174 0.76098 0.63322 0.0
O96 O 0.72875 0.60365 0.66315 0.0
O97 O 0.71823 0.61092 0.63079 0.0
O98 O 0.17821 0.87419 0.95609 0.0
Cd99 Cd 0.1232 0.82387 0.93936 0.0
Cd100 Cd 0.11672 0.77489 0.97365 0.0
O101 O 0.18009 0.83248 0.98186 0.0
O102 O 0.13153 0.85483 0.91244 0.0
O103 O 0.13949 0.79279 0.91687 0.0
C104 C 0.14177 0.82494 0.90499 0.0
C105 C 0.09846 0.69753 0.96802 0.0
C106 C 0.19698 0.87114 0.97236 0.0
C107 C 0.03841 0.79285 0.96588 0.0
O108 O 0.05964 0.78235 0.97903 0.0
O109 O 0.05558 0.80577 0.94824 0.0
O110 O 0.10311 0.71397 0.98614 0.0
O111 O 0.10797 0.72628 0.95311 0.0
O112 O 0.33067 0.17443 0.29843 0.0
Cd113 Cd 0.32583 0.11782 0.28274 0.0
Cd114 Cd 0.3687 0.11388 0.31723 0.0
O115 O 0.37415 0.17785 0.32449 0.0
O116 O 0.30108 0.12298 0.25583 0.0
O117 O 0.37139 0.13164 0.2597 0.0
C118 C 0.34047 0.13225 0.24795 0.0
C119 C 0.42728 0.09573 0.3098 0.0
C120 C 0.35244 0.19427 0.31456 0.0
C121 C 0.27339 0.03481 0.31056 0.0
O122 O 0.30496 0.05697 0.32361 0.0
O123 O 0.2774 0.05091 0.29272 0.0
O124 O 0.4183 0.1016 0.32826 0.0
O125 O 0.40546 0.10392 0.29555 0.0
O126 O 0.17281 0.305 0.62957 0.0
Cd127 Cd 0.22029 0.30126 0.61033 0.0
Cd128 Cd 0.27703 0.34667 0.64373 0.0
O129 O 0.22055 0.35411 0.65253 0.0
O130 O 0.18442 0.27721 0.5846 0.0
O131 O 0.24655 0.34745 0.58725 0.0
C132 C 0.21272 0.31674 0.57635 0.0
C133 C 0.35601 0.40416 0.64837 0.0
C134 C 0.17953 0.32973 0.64531 0.0
C135 C 0.25549 0.24866 0.63444 0.0
O136 O 0.26757 0.28061 0.6476 0.0
O137 O 0.24062 0.25265 0.61725 0.0
O138 O 0.32848 0.38328 0.66336 0.0
O139 O 0.33789 0.39512 0.6305 0.0
O140 O 0.87053 0.17166 0.9699 0.0
Cd141 Cd 0.92816 0.22076 0.95416 0.0
Cd142 Cd 0.91936 0.27682 0.98094 0.0
O143 O 0.85451 0.21886 0.98757 0.0
O144 O 0.92718 0.19029 0.9278 0.0
O145 O 0.91543 0.25057 0.93031 0.0
C146 C 0.91663 0.21894 0.9192 0.0
C147 C 0.93782 0.35285 0.97181 0.0
C148 C 0.84428 0.17766 0.98219 0.0
C149 C 1.00142 0.26171 0.98575 0.0
O150 O 0.97445 0.27424 0.99383 0.0
O151 O 0.99252 0.24355 0.96817 0.0
O152 O 0.92619 0.33804 0.99013 0.0
O153 O 0.93498 0.3231 0.95835 0.0
O154 O 0.71252 0.85616 0.29636 0.0
Cd155 Cd 0.72542 0.91293 0.27839 0.0
Cd156 Cd 0.67487 0.92024 0.3128 0.0
O157 O 0.66827 0.8567 0.32145 0.0
O158 O 0.76762 0.9087 0.25782 0.0
O159 O 0.69922 0.90012 0.24962 0.0
C160 C 0.73702 0.90066 0.24411 0.0
C161 C 0.61593 0.93873 0.30673 0.0
C162 C 0.68928 0.83825 0.31245 0.0
C163 C 0.7715 0.9981 0.3064 0.0
O164 O 0.73848 0.97723 0.31901 0.0
O165 O 0.76992 0.98033 0.28913 0.0
O166 O 0.62686 0.93353 0.32492 0.0
O167 O 0.63599 0.92971 0.29196 0.0
H168 H 0.5766 0.62358 0.06136 0.0
H169 H 0.56483 0.65111 0.99809 0.0
H170 H 0.51929 0.56666 0.99156 0.0
H171 H 0.58905 0.52316 0.0539 0.0
H172 H 0.55372 0.49083 0.07523 0.0
H173 H 0.58446 0.55382 0.07557 0.0
H174 H 0.50693 0.55344 0.08232 0.0
H175 H 0.47604 0.49044 0.08228 0.0
H176 H 0.45814 0.5217 0.06552 0.0
H177 H 0.48004 0.48022 0.99095 0.0
H178 H 0.43985 0.39555 0.99709 0.0
H179 H 0.47223 0.4208 0.06104 0.0
C180 C 0.56381 0.61181 0.04621 0.0
C181 C 0.57448 0.6443 0.03024 0.0
C182 C 0.55722 0.62726 0.01061 0.0
C183 C 0.53142 0.57919 1.0067 0.0
C184 C 0.52255 0.54821 0.02257 0.0
C185 C 0.53738 0.56359 0.04202 0.0
C186 C 0.5223 0.52227 0.05628 0.0
C187 C 0.56493 0.52256 0.0658 0.0
C188 C 0.48886 0.52195 0.07256 0.0
C189 C 0.49715 0.4815 0.0417 0.0
C190 C 0.49828 0.49756 0.02233 0.0
C191 C 0.47852 0.46716 1.00609 0.0
C192 C 0.45593 0.41896 0.00975 0.0
C193 C 0.45268 0.4012 0.02955 0.0
C194 C 0.47411 0.43312 0.04572 0.0
H195 H 0.06986 0.46993 0.35573 0.0
H196 H 0.08347 0.45106 0.41974 0.0
H197 H 0.04228 0.4946 0.4277 0.0
H198 H 0.08462 0.58679 0.35894 0.0
H199 H 0.04187 0.57556 0.3396 0.0
H200 H 0.07465 0.54522 0.33916 0.0
H201 H 0.99722 0.466 0.33869 0.0
H202 H 0.96421 0.49608 0.33941 0.0
H203 H 0.95466 0.453 0.35838 0.0
H204 H 0.99821 0.53961 0.42861 0.0
H205 H 0.95675 0.58365 0.42237 0.0
H206 H 0.96903 0.57001 0.35776 0.0
C207 C 0.06492 0.47561 0.37144 0.0
C208 C 0.0804 0.45742 0.38712 0.0
C209 C 0.07228 0.46489 0.40746 0.0
C210 C 0.04876 0.48948 0.41213 0.0
C211 C 0.03315 0.50613 0.3963 0.0
C212 C 0.04103 0.49961 0.37636 0.0
C213 C 1.01955 0.51985 0.36215 0.0
C214 C 0.05744 0.5592 0.3492 0.0
C215 C 0.98166 0.48143 0.34888 0.0
C216 C 0.9984 0.53884 0.37719 0.0
C217 C 1.00672 0.53071 0.39682 0.0
C218 C 0.9914 0.54599 0.41329 0.0
C219 C 0.9677 0.57086 0.4096 0.0
C220 C 0.95913 0.57995 0.38959 0.0
C221 C 0.97432 0.5631 0.37324 0.0
H222 H 0.42935 0.9553 0.72599 0.0
H223 H 0.40714 0.92352 0.6619 0.0
H224 H 0.49207 0.96434 0.65643 0.0
H225 H 0.52854 0.06953 0.72117 0.0
H226 H 0.55968 0.06462 0.74253 0.0
H227 H 0.49677 0.03166 0.74197 0.0
H228 H 0.49854 0.9547 0.74715 0.0
H229 H 0.56144 0.98749 0.74802 0.0
H230 H 0.53234 0.94039 0.73015 0.0
H231 H 0.57845 1.01229 0.65713 0.0
H232 H 0.66252 0.05648 0.66456 0.0
H233 H 0.63172 0.0558 0.72844 0.0
C234 C 0.44239 0.95635 0.71087 0.0
C235 C 0.41128 0.93607 0.69437 0.0
C236 C 0.42995 0.93854 0.67481 0.0
C237 C 0.47828 0.96192 0.6715 0.0
C238 C 0.50788 0.98246 0.68792 0.0
C239 C 0.49089 0.97932 0.70728 0.0
C240 C 0.5309 1.00424 0.72221 0.0
C241 C 0.52883 0.04493 0.73258 0.0
C242 C 0.53079 0.96963 0.7378 0.0
C243 C 0.57281 0.02206 0.70813 0.0
C244 C 0.55844 1.00936 0.6884 0.0
C245 C 0.5902 0.02214 0.67254 0.0
C246 C 0.63802 0.04753 0.67694 0.0
C247 C 0.65403 0.05974 0.69709 0.0
C248 C 0.62075 0.0472 0.71287 0.0
H249 H 0.62907 0.56 0.61969 0.0
H250 H 0.65718 0.5482 0.68288 0.0
H251 H 0.57288 0.5017 0.68951 0.0
H252 H 0.52799 0.5711 0.6275 0.0
H253 H 0.49584 0.53583 0.60616 0.0
H254 H 0.55878 0.56719 0.60573 0.0
H255 H 0.55933 0.49018 0.59872 0.0
H256 H 0.49637 0.45868 0.59885 0.0
H257 H 0.52812 0.44107 0.61546 0.0
H258 H 0.4865 0.46124 0.69022 0.0
H259 H 0.40184 0.42029 0.6842 0.0
H260 H 0.42653 0.45389 0.6203 0.0
C261 C 0.61747 0.547 0.63484 0.0
C262 C 0.65005 0.55792 0.65076 0.0
C263 C 0.63323 0.54042 0.67039 0.0
C264 C 0.58526 0.51406 0.67437 0.0
C265 C 0.55416 0.50493 0.65854 0.0
C266 C 0.56934 0.52008 0.63909 0.0
C267 C 0.52793 0.50474 0.62491 0.0
C268 C 0.52764 0.54726 0.61552 0.0
C269 C 0.52794 0.47169 0.60852 0.0
C270 C 0.48733 0.47905 0.63952 0.0
C271 C 0.50355 0.48011 0.65885 0.0
C272 C 0.47331 0.4598 0.67511 0.0
C273 C 0.42512 0.43676 0.67152 0.0
C274 C 0.40722 0.43368 0.65177 0.0
C275 C 0.43897 0.45564 0.63558 0.0
H276 H 0.96343 0.42634 0.99808 0.0
H277 H 0.96061 0.39401 0.93436 0.0
H278 H 1.00262 0.4785 0.92643 0.0
H279 H 0.94798 0.52771 0.99205 0.0
H280 H 0.98709 0.55929 0.01251 0.0
H281 H 0.95479 0.49634 0.01287 0.0
H282 H 0.0323 0.49505 0.01675 0.0
H283 H 0.06489 0.55798 0.01612 0.0
H284 H 0.07814 0.52472 0.99836 0.0
H285 H 0.0473 0.5673 0.92561 0.0
H286 H 0.08749 0.65252 0.93181 0.0
H287 H 0.06268 0.62667 0.99616 0.0
C288 C 0.97093 0.43692 0.98241 0.0
C289 C 0.9583 0.40334 0.96682 0.0
C290 C 0.96957 0.41892 0.94656 0.0
C291 C 0.99362 0.46691 0.94192 0.0
C292 C 1.00641 0.49906 0.95769 0.0
C293 C 0.99519 0.48468 0.97753 0.0
C294 C 1.01377 0.52626 0.99173 0.0
C295 C 0.97351 0.52747 1.00294 0.0
C296 C 0.04939 0.52597 1.00662 0.0
C297 C 0.03723 0.56632 0.97681 0.0
C298 C 0.03262 0.54993 0.95725 0.0
C299 C 0.05108 0.58045 0.94088 0.0
C300 C 0.07406 0.62887 0.94457 0.0
C301 C 0.07862 0.64651 0.96448 0.0
C302 C 0.06029 0.61452 0.98077 0.0
H303 H 0.47061 0.06558 0.33661 0.0
H304 H 0.45287 0.07959 0.2725 0.0
H305 H 0.49743 0.03945 0.26473 0.0
H306 H 0.58873 0.08358 0.3334 0.0
H307 H 0.57869 0.0413 0.35284 0.0
H308 H 0.54695 0.0727 0.35321 0.0
H309 H 0.46894 0.99406 0.35385 0.0
H310 H 0.50042 0.96241 0.35322 0.0
H311 H 0.45697 0.95152 0.33427 0.0
H312 H 0.5421 0.99523 0.26394 0.0
H313 H 0.58717 0.95494 0.27022 0.0
H314 H 0.57524 0.96915 0.33483 0.0
C315 C 0.47661 0.06083 0.32092 0.0
C316 C 0.45832 0.07607 0.30517 0.0
C317 C 0.46664 0.06856 0.28486 0.0
C318 C 0.4918 0.04557 0.28028 0.0
C319 C 0.5085 0.03019 0.29616 0.0
C320 C 0.50158 0.03785 0.31608 0.0
C321 C 0.5228 0.01743 0.33034 0.0
C322 C 0.5616 0.05606 0.3432 0.0
C323 C 0.48502 0.97908 0.34371 0.0
C324 C 0.54265 0.99698 0.31535 0.0
C325 C 0.53395 1.00462 0.29571 0.0
C326 C 0.54912 0.98913 0.27928 0.0
C327 C 0.57457 0.96606 0.283 0.0
C328 C 0.58467 0.95855 0.30301 0.0
C329 C 0.56789 0.97391 0.31934 0.0
H330 H 0.27722 0.11741 0.21816 0.0
H331 H 0.42589 0.17844 0.22911 0.0
H332 H 0.44208 0.20744 0.19385 0.0
H333 H 0.27934 0.07963 0.16673 0.0
H334 H 0.23469 0.092 0.15824 0.0
H335 H 0.23547 0.07574 0.18415 0.0
H336 H 0.23727 0.15158 0.19601 0.0
H337 H 0.23702 0.16833 0.17014 0.0
H338 H 0.28284 0.20737 0.18697 0.0
H339 H 0.44161 0.23412 0.1577 0.0
H340 H 0.42424 0.24858 0.12288 0.0
H341 H 0.27583 0.1666 0.13563 0.0
C342 C 0.3132 0.13655 0.21311 0.0
C343 C 0.35033 0.14578 0.22639 0.0
C344 C 0.3969 0.17077 0.21916 0.0
C345 C 0.40642 0.18759 0.1992 0.0
C346 C 0.36896 0.17859 0.18661 0.0
C347 C 0.32325 0.15298 0.19322 0.0
C348 C 0.28916 0.14743 0.1767 0.0
C349 C 0.25783 0.09563 0.17113 0.0
C350 C 0.25986 0.17004 0.18283 0.0
C351 C 0.32275 0.17433 0.15978 0.0
C352 C 0.36866 0.19245 0.16579 0.0
C353 C 0.40576 0.21972 0.15281 0.0
C354 C 0.39559 0.22797 0.13311 0.0
C355 C 0.34873 0.20857 0.12653 0.0
C356 C 0.31203 0.18165 0.14016 0.0
H357 H 0.10394 0.25301 0.46543 0.0
H358 H 0.1663 0.4018 0.45398 0.0
H359 H 0.19802 0.41845 0.48869 0.0
H360 H 0.07135 0.25753 0.51791 0.0
H361 H 0.0836 0.21248 0.52594 0.0
H362 H 0.06478 0.2127 0.50043 0.0
H363 H 0.13849 0.21254 0.48692 0.0
H364 H 0.15785 0.21294 0.51237 0.0
H365 H 0.19549 0.25782 0.49485 0.0
H366 H 0.22824 0.41876 0.52395 0.0
H367 H 0.24637 0.40241 0.55827 0.0
H368 H 0.1609 0.25355 0.54706 0.0
C369 C 0.12377 0.28909 0.4703 0.0
C370 C 0.13267 0.32612 0.45698 0.0
C371 C 0.15878 0.37285 0.46395 0.0
C372 C 0.17718 0.38267 0.48361 0.0
C373 C 0.16864 0.34537 0.49621 0.0
C374 C 0.14183 0.29949 0.48995 0.0
C375 C 0.13748 0.26575 0.50647 0.0
C376 C 0.08626 0.23533 0.51308 0.0
C377 C 0.15859 0.23549 0.49974 0.0
C378 C 0.16654 0.29978 0.52291 0.0
C379 C 0.1846 0.34555 0.51667 0.0
C380 C 0.21386 0.38303 0.52907 0.0
C381 C 0.22422 0.37343 0.54847 0.0
C382 C 0.20491 0.32677 0.55535 0.0
C383 C 0.17592 0.28962 0.54229 0.0
H384 H 0.87894 0.11021 0.80829 0.0
H385 H 0.79387 0.17352 0.79506 0.0
H386 H 0.80882 0.20731 0.82949 0.0
H387 H 0.84048 0.07997 0.8604 0.0
H388 H 0.89706 0.09156 0.86905 0.0
H389 H 0.8791 0.07239 0.84349 0.0
H390 H 0.95368 0.1453 0.83024 0.0
H391 H 0.97155 0.16503 0.85575 0.0
H392 H 0.96556 0.20276 0.83777 0.0
H393 H 0.83737 0.23813 0.86483 0.0
H394 H 0.86856 0.25513 0.89965 0.0
H395 H 0.93156 0.1682 0.89019 0.0
C396 C 0.86312 0.13087 0.81269 0.0
C397 C 0.8353 0.13934 0.79898 0.0
C398 C 0.81507 0.16636 0.80535 0.0
C399 C 0.82363 0.18595 0.82482 0.0
C400 C 0.852 0.17766 0.83782 0.0
C401 C 0.87072 0.15005 0.83213 0.0
C402 C 0.89908 0.14552 0.84908 0.0
C403 C 0.87763 0.09432 0.85591 0.0
C404 C 0.95051 0.16588 0.84283 0.0
C405 C 0.89377 0.17525 0.86518 0.0
C406 C 0.86695 0.19393 0.85832 0.0
C407 C 0.8581 0.22338 0.87039 0.0
C408 C 0.87624 0.23308 0.89011 0.0
C409 C 0.90245 0.21296 0.89766 0.0
C410 C 0.91158 0.18404 0.88488 0.0
H411 H 0.67709 0.8135 0.12881 0.0
H412 H 0.82531 0.86435 0.12108 0.0
H413 H 0.83844 0.88571 0.15715 0.0
H414 H 0.69091 0.90501 0.1614 0.0
H415 H 0.64118 0.86908 0.17717 0.0
H416 H 0.64191 0.85305 0.15121 0.0
H417 H 0.62765 0.77175 0.16248 0.0
H418 H 0.62639 0.78735 0.18848 0.0
H419 H 0.66642 0.76806 0.18062 0.0
H420 H 0.83662 0.90431 0.19329 0.0
H421 H 0.82034 0.92001 0.22782 0.0
H422 H 0.67367 0.86137 0.21264 0.0
C423 C 0.71207 0.82814 0.13488 0.0
C424 C 0.75018 0.83675 0.12224 0.0
C425 C 0.79566 0.85721 0.13054 0.0
C426 C 0.80345 0.86946 0.151 0.0
C427 C 0.76545 0.86154 0.16297 0.0
C428 C 0.72063 0.84141 0.15531 0.0
C429 C 0.68662 0.8395 0.17132 0.0
C430 C 0.66382 0.86839 0.16489 0.0
C431 C 0.64958 0.78864 0.176 0.0
C432 C 0.71946 0.86197 0.18908 0.0
C433 C 0.76466 0.87395 0.18389 0.0
C434 C 0.80137 0.89502 0.19757 0.0
C435 C 0.79171 0.90384 0.21717 0.0
C436 C 0.74576 0.89208 0.22296 0.0
C437 C 0.70919 0.87105 0.20863 0.0
H438 H 0.87922 0.77597 0.5538 0.0
H439 H 0.79366 0.6263 0.56297 0.0
H440 H 0.80837 0.61274 0.52765 0.0
H441 H 0.84096 0.77604 0.50201 0.0
H442 H 0.89772 0.82177 0.49402 0.0
H443 H 0.87952 0.81934 0.51987 0.0
H444 H 0.95379 0.81837 0.53186 0.0
H445 H 0.97188 0.82012 0.50605 0.0
H446 H 0.96549 0.77379 0.52254 0.0
H447 H 0.83719 0.61545 0.49199 0.0
H448 H 0.86912 0.63433 0.45732 0.0
H449 H 0.93246 0.78235 0.4708 0.0
C450 C 0.86314 0.74035 0.54832 0.0
C451 C 0.83529 0.70216 0.56117 0.0
C452 C 0.81484 0.65611 0.55338 0.0
C453 C 0.82326 0.64805 0.53337 0.0
C454 C 0.85171 0.68643 0.52124 0.0
C455 C 0.87061 0.73171 0.5283 0.0
C456 C 0.89926 0.76685 0.51206 0.0
C457 C 0.87809 0.79782 0.50667 0.0
C458 C 0.95065 0.79652 0.51852 0.0
C459 C 0.89397 0.73427 0.49482 0.0
C460 C 0.86685 0.68801 0.5005 0.0
C461 C 0.85811 0.65155 0.48732 0.0
C462 C 0.87668 0.66264 0.46769 0.0
C463 C 0.90322 0.7098 0.46131 0.0
C464 C 0.9122 0.74596 0.47519 0.0
H465 H 0.12977 0.87343 0.8742 0.0
H466 H 0.19224 0.78791 0.88812 0.0
H467 H 0.22625 0.80212 0.85373 0.0
H468 H 0.0991 0.83357 0.82258 0.0
H469 H 0.11085 0.88992 0.81347 0.0
H470 H 0.09218 0.87311 0.83918 0.0
H471 H 0.16562 0.94803 0.85178 0.0
H472 H 0.18485 0.96474 0.8261 0.0
H473 H 0.22276 0.95923 0.84412 0.0
H474 H 0.25648 0.82909 0.81807 0.0
H475 H 0.2717 0.8577 0.78279 0.0
H476 H 0.18601 0.92214 0.79192 0.0
C477 C 0.1504 0.85747 0.86999 0.0
C478 C 0.15849 0.82966 0.88386 0.0
C479 C 0.18541 0.80915 0.87771 0.0
C480 C 0.20513 0.8173 0.85826 0.0
C481 C 0.19714 0.84559 0.84507 0.0
C482 C 0.16971 0.86466 0.85058 0.0
C483 C 0.16504 0.89242 0.8334 0.0
C484 C 0.11375 0.87096 0.82676 0.0
C485 C 0.18582 0.94417 0.83921 0.0
C486 C 0.19427 0.88619 0.81735 0.0
C487 C 0.21304 0.85961 0.82443 0.0
C488 C 0.24174 0.84972 0.81235 0.0
C489 C 0.25047 0.8664 0.79237 0.0
C490 C 0.23006 0.89214 0.78459 0.0
C491 C 0.20211 0.90255 0.79741 0.0
H492 H 0.20674 0.90226 0.0113 0.0
H493 H 0.27114 0.93971 0.95214 0.0
H494 H 0.32618 0.01932 0.96443 0.0
H495 H 0.20407 1.0032 0.01839 0.0
H496 H 0.21523 1.00862 0.04518 0.0
H497 H 0.1886 0.95198 0.03347 0.0
H498 H 0.25413 0.93827 0.04747 0.0
H499 H 0.28087 0.99491 0.05942 0.0
H500 H 0.31438 0.98044 0.04233 0.0
H501 H 0.36608 0.09755 0.98147 0.0
H502 H 0.38542 0.16833 1.00132 0.0
H503 H 0.29271 0.08126 0.04909 0.0
C504 C 0.23392 0.92666 1.00127 0.0
C505 C 0.23566 0.91462 0.98093 0.0
C506 C 0.26998 0.9481 0.96788 0.0
C507 C 0.30137 0.99337 0.97474 0.0
C508 C 0.29774 1.00484 0.99469 0.0
C509 C 0.26492 0.97239 1.00781 0.0
C510 C 0.26376 0.99534 0.02751 0.0
C511 C 0.21504 0.98944 0.03134 0.0
C512 C 0.27922 0.97609 0.04523 0.0
C513 C 0.29968 0.0459 0.02314 0.0
C514 C 0.31963 0.05051 1.00431 0.0
C515 C 0.35127 0.09426 0.99638 0.0
C516 C 0.36206 0.13436 1.00778 0.0
C517 C 0.3408 0.13059 0.02684 0.0
C518 C 0.31005 0.08553 0.0347 0.0
H519 H 0.23026 0.28992 0.38703 0.0
H520 H 0.24306 0.38535 0.33913 0.0
H521 H 0.29705 0.36641 0.32089 0.0
H522 H 0.35357 0.311 0.38361 0.0
H523 H 0.33415 0.25039 0.38881 0.0
H524 H 0.30351 0.27776 0.39964 0.0
H525 H 0.22618 0.21332 0.38398 0.0
H526 H 0.25647 0.18597 0.37306 0.0
H527 H 0.22315 0.20297 0.35712 0.0
H528 H 0.33605 0.3252 0.30494 0.0
H529 H 0.36094 0.26927 0.29373 0.0
H530 H 0.32715 0.20398 0.35273 0.0
C531 C 0.24555 0.30801 0.373 0.0
C532 C 0.23247 0.3393 0.36455 0.0
C533 C 0.25288 0.36172 0.34604 0.0
C534 C 0.28356 0.35106 0.33555 0.0
C535 C 0.29426 0.31865 0.34395 0.0
C536 C 0.27652 0.29812 0.36247 0.0
C537 C 0.29 0.26144 0.36744 0.0
C538 C 0.32223 0.27603 0.38598 0.0
C539 C 0.24636 0.21309 0.37057 0.0
C540 C 0.31614 0.26274 0.34838 0.0
C541 C 0.31857 0.29628 0.33507 0.0
C542 C 0.33575 0.29997 0.31548 0.0
C543 C 0.34983 0.2681 0.30923 0.0
C544 C 0.34729 0.23337 0.32258 0.0
C545 C 0.33134 0.23151 0.34254 0.0
H546 H 0.90989 0.19688 0.67176 0.0
H547 H 0.94997 0.25095 0.73251 0.0
H548 H 0.02989 0.30593 0.72057 0.0
H549 H 1.00784 0.19111 0.66198 0.0
H550 H 1.01334 0.20683 0.63563 0.0
H551 H 0.95701 0.18024 0.6476 0.0
H552 H 0.94663 0.25009 0.63684 0.0
H553 H 1.003 0.27686 0.62466 0.0
H554 H 0.99064 0.30875 0.6435 0.0
H555 H 0.10786 0.34595 0.70334 0.0
H556 H 0.17758 0.36504 0.68274 0.0
H557 H 0.08776 0.28253 0.6334 0.0
C558 C 0.93498 0.22186 0.6823 0.0
C559 C 0.92359 0.22055 0.70295 0.0
C560 C 0.95789 0.25205 0.71656 0.0
C561 C 1.00334 0.28343 0.7099 0.0
C562 C 1.01411 0.2827 0.68957 0.0
C563 C 0.98084 0.25278 0.67594 0.0
C564 C 1.00292 0.25391 0.65568 0.0
C565 C 0.9948 0.20515 0.6499 0.0
C566 C 0.98471 0.27359 0.63919 0.0
C567 C 0.05392 0.2875 0.66031 0.0
C568 C 0.05956 0.30462 0.67978 0.0
C569 C 0.1038 0.33343 0.68795 0.0
C570 C 0.14328 0.34411 0.67612 0.0
C571 C 0.13834 0.32546 0.6564 0.0
C572 C 0.0929 0.2978 0.64832 0.0
H573 H 0.7064 0.90594 1.00226 0.0
H574 H 0.6918 0.93913 0.06413 0.0
H575 H 0.71532 0.0202 0.05399 0.0
H576 H 0.80948 1.00477 0.99449 0.0
H577 H 0.80043 1.01321 0.96833 0.0
H578 H 0.7705 0.95559 0.97908 0.0
H579 H 0.69087 0.94645 0.96833 0.0
H580 H 0.72068 1.00418 0.95738 0.0
H581 H 0.67567 0.98966 0.97605 0.0
H582 H 0.75156 0.10021 0.03812 0.0
H583 H 0.80317 0.17222 0.01898 0.0
H584 H 0.79982 0.0879 0.96801 0.0
C585 C 0.70583 0.92974 0.0134 0.0
C586 C 0.69563 0.91606 0.03381 0.0
C587 C 0.69814 0.94876 0.04831 0.0
C588 C 0.71149 0.99483 0.04267 0.0
C589 C 0.72296 1.00788 0.02249 0.0
C590 C 0.72037 0.9762 0.00808 0.0
C591 C 0.74211 1.00056 0.9883 0.0
C592 C 0.78305 0.9931 0.98221 0.0
C593 C 0.70512 0.98424 0.97152 0.0
C594 C 0.75899 0.051 0.99404 0.0
C595 C 0.74642 0.05444 0.01362 0.0
C596 C 0.76093 0.09783 0.02266 0.0
C597 C 0.79015 0.13863 0.01165 0.0
C598 C 0.80542 0.13577 0.99197 0.0
C599 C 0.78841 0.09128 0.98295 0.0
H600 H 0.71331 0.83243 0.35124 0.0
H601 H 0.67861 0.75983 0.29388 0.0
H602 H 0.7024 0.70461 0.30712 0.0
H603 H 0.8158 0.83347 0.35672 0.0
H604 H 0.81367 0.82647 0.38378 0.0
H605 H 0.78278 0.85218 0.37199 0.0
H606 H 0.70552 0.78991 0.3886 0.0
H607 H 0.73634 0.76411 0.40062 0.0
H608 H 0.68611 0.72871 0.38506 0.0
H609 H 0.74118 0.66518 0.32466 0.0
H610 H 0.79533 0.64842 0.34394 0.0
H611 H 0.80924 0.74986 0.38918 0.0
C612 C 0.70852 0.80339 0.34188 0.0
C613 C 0.69272 0.79932 0.32178 0.0
C614 C 0.68951 0.76268 0.3095 0.0
C615 C 0.70297 0.7312 0.3169 0.0
C616 C 0.72016 0.73715 0.33658 0.0
C617 C 0.72294 0.77238 0.34892 0.0
C618 C 0.74949 0.77608 0.36817 0.0
C619 C 0.793 0.82492 0.37027 0.0
C620 C 0.71744 0.76397 0.38671 0.0
C621 C 0.76284 0.73885 0.36436 0.0
C622 C 0.74458 0.7159 0.34632 0.0
C623 C 0.755 0.68239 0.33897 0.0
C624 C 0.78578 0.673 0.35006 0.0
C625 C 0.80652 0.69766 0.36812 0.0
C626 C 0.79372 0.73006 0.37553 0.0
H627 H 0.14979 0.81026 0.66363 0.0
H628 H 0.11764 0.7493 0.72341 0.0
H629 H 0.03715 0.69292 0.71237 0.0
H630 H 0.04987 0.81377 0.6588 0.0
H631 H 0.04161 0.802 0.63208 0.0
H632 H 0.09927 0.82812 0.64265 0.0
H633 H 0.11022 0.76138 0.62787 0.0
H634 H 0.05246 0.73509 0.61707 0.0
H635 H 0.06797 0.70143 0.63355 0.0
H636 H 0.95743 0.65187 0.69649 0.0
H637 H 0.88503 0.63464 0.67847 0.0
H638 H 0.96795 0.72665 0.62976 0.0
C639 C 0.12639 0.78332 0.674 0.0
C640 C 0.14013 0.78266 0.6941 0.0
C641 C 0.10796 0.74914 0.70776 0.0
C642 C 0.06224 0.71708 0.7016 0.0
C643 C 0.04906 0.71956 0.68181 0.0
C644 C 0.08029 0.75196 0.6682 0.0
C645 C 0.05564 0.75313 0.64907 0.0
C646 C 0.06197 0.80214 0.64546 0.0
C647 C 0.07258 0.73677 0.63081 0.0
C648 C 1.0055 0.71789 0.65436 0.0
C649 C 1.00253 0.69784 0.67303 0.0
C650 C 0.95945 0.66678 0.6817 0.0
C651 C 0.91842 0.65708 0.67133 0.0
C652 C 0.92073 0.67916 0.65267 0.0
C653 C 0.96497 0.70886 0.64391 0.0
H654 H 0.07333 0.24711 0.9733 0.0
H655 H 1.01932 0.28497 0.02556 0.0
H656 H 0.08173 0.28711 0.04656 0.0
H657 H 0.10607 0.17288 0.9993 0.0
H658 H 0.15893 0.19123 0.98501 0.0
H659 H 0.11037 0.19334 0.97371 0.0
H660 H 0.16378 0.28139 0.96583 0.0
H661 H 0.21257 0.27947 0.97701 0.0
H662 H 0.19632 0.32106 0.986 0.0
H663 H 0.14664 0.28028 0.0626 0.0
H664 H 0.21487 0.27193 0.07176 0.0
H665 H 0.22976 0.24302 0.00905 0.0
C666 C 0.07484 0.25617 0.98912 0.0
C667 C 0.04124 0.26576 0.99773 0.0
C668 C 0.04459 0.27755 0.01852 0.0
C669 C 0.07988 0.27875 0.03066 0.0
C670 C 0.11202 0.26857 0.0218 0.0
C671 C 0.1103 0.25809 1.00147 0.0
C672 C 0.14952 0.24887 0.99578 0.0
C673 C 0.13004 0.19859 0.98799 0.0
C674 C 0.1825 0.28486 0.98024 0.0
C675 C 0.17322 0.25558 0.0161 0.0
C676 C 0.15073 0.26644 0.03094 0.0
C677 C 0.16493 0.27229 0.05108 0.0
C678 C 0.20352 0.2673 0.05617 0.0
C679 C 0.22775 0.25728 0.04111 0.0
C680 C 0.21228 0.25138 0.02084 0.0
H681 H 0.8044 0.03039 0.34445 0.0
H682 H 0.83117 0.06762 0.281 0.0
H683 H 0.89951 0.14341 0.29035 0.0
H684 H 0.83929 0.14585 0.36402 0.0
H685 H 0.86689 0.13881 0.38618 0.0
H686 H 0.81855 0.08852 0.37466 0.0
H687 H 0.86915 0.04883 0.37128 0.0
H688 H 0.91758 0.09891 0.38284 0.0
H689 H 0.92456 0.0791 0.35837 0.0
H690 H 0.96386 0.21472 0.30641 0.0
H691 H 0.02502 0.27497 0.32778 0.0
H692 H 0.95984 0.19008 0.38102 0.0
C693 C 0.82443 0.0547 0.33254 0.0
C694 C 0.81233 0.04341 0.31199 0.0
C695 C 0.83986 0.07566 0.29682 0.0
C696 C 0.87856 0.11881 0.30199 0.0
C697 C 0.88954 0.12885 0.32238 0.0
C698 C 0.86367 0.09758 0.33742 0.0
C699 C 0.88459 0.11601 0.35809 0.0
C700 C 0.85028 0.1227 0.37153 0.0
C701 C 0.89988 0.0838 0.36824 0.0
C702 C 0.92633 0.16258 0.35231 0.0
C703 C 0.92804 0.1694 0.33165 0.0
C704 C 0.96299 0.20975 0.3226 0.0
C705 C 0.99753 0.24386 0.33493 0.0
C706 C 0.99736 0.23731 0.35613 0.0
C707 C 0.96101 0.1961 0.3649 0.0
H708 H 0.80353 0.83592 0.63975 0.0
H709 H 0.78393 0.74832 0.69202 0.0
H710 H 0.78341 0.80787 0.7142 0.0
H711 H 0.87921 0.94585 0.66342 0.0
H712 H 0.85412 0.97677 0.65091 0.0
H713 H 0.85278 0.92711 0.63886 0.0
H714 H 0.76277 0.88736 0.6354 0.0
H715 H 0.76388 0.93699 0.64738 0.0
H716 H 0.7277 0.87919 0.65758 0.0
H717 H 0.78862 0.87821 0.73113 0.0
H718 H 0.7933 0.95273 0.74119 0.0
H719 H 0.80574 0.99315 0.67807 0.0
C720 C 0.79897 0.82924 0.65584 0.0
C721 C 0.79384 0.78739 0.66408 0.0
C722 C 0.78776 0.77996 0.68526 0.0
C723 C 0.78756 0.81366 0.69806 0.0
C724 C 0.79301 0.85458 0.6895 0.0
C725 C 0.79808 0.86237 0.66888 0.0
C726 C 0.80257 0.90917 0.66364 0.0
C727 C 0.85 0.94164 0.65362 0.0
C728 C 0.76179 0.90278 0.65021 0.0
C729 C 0.79961 0.92643 0.68453 0.0
C730 C 0.79445 0.89457 0.69925 0.0
C731 C 0.79228 0.90334 0.71974 0.0
C732 C 0.79511 0.94577 0.72532 0.0
C733 C 0.79953 0.97855 0.71044 0.0
C734 C 0.80183 0.96856 0.68981 0.0
H735 H 0.8487 0.79277 0.04126 0.0
H736 H 0.76648 0.78225 0.98826 0.0
H737 H 0.82647 0.78152 0.96641 0.0
H738 H 0.96122 0.86783 0.01953 0.0
H739 H 0.98934 0.83957 0.03181 0.0
H740 H 0.93977 0.83907 0.04351 0.0
H741 H 0.89691 0.74857 0.04524 0.0
H742 H 0.94642 0.74883 0.03358 0.0
H743 H 0.88923 0.71549 0.02246 0.0
H744 H 0.89679 0.78551 0.95001 0.0
H745 H 0.97092 0.78885 0.94047 0.0
H746 H 1.00586 0.79298 1.00394 0.0
C747 C 0.8433 0.7902 0.02507 0.0
C748 C 0.80284 0.78764 0.01652 0.0
C749 C 0.79703 0.78408 0.99524 0.0
C750 C 0.83099 0.78376 0.98264 0.0
C751 C 0.87049 0.78654 0.9915 0.0
C752 C 0.87667 0.78923 0.01223 0.0
C753 C 0.92217 0.79124 0.01782 0.0
C754 C 0.95506 0.83717 0.02881 0.0
C755 C 0.91312 0.74848 0.03052 0.0
C756 C 0.94062 0.78969 0.99701 0.0
C757 C 0.91042 0.78729 0.98203 0.0
C758 C 0.9206 0.78699 0.9616 0.0
C759 C 0.9628 0.78903 0.95632 0.0
C760 C 0.99397 0.7908 0.97143 0.0
C761 C 0.98249 0.79105 0.99202 0.0
H762 H 0.0792 0.84942 0.38564 0.0
H763 H 1.01518 0.76213 0.33292 0.0
H764 H 0.07757 0.82068 0.31144 0.0
H765 H 0.11697 0.95947 0.36147 0.0
H766 H 0.17178 0.9897 0.37478 0.0
H767 H 0.12235 0.9406 0.38639 0.0
H768 H 0.17127 0.89954 0.39137 0.0
H769 H 0.22091 0.94861 0.37982 0.0
H770 H 0.19954 0.89057 0.36987 0.0
H771 H 0.14378 0.89008 0.29513 0.0
H772 H 0.21383 0.96429 0.2855 0.0
H773 H 0.23801 1.00536 0.34862 0.0
C774 C 0.07849 0.84258 0.36961 0.0
C775 C 0.04215 0.8011 0.36103 0.0
C776 C 0.04263 0.79345 0.33995 0.0
C777 C 0.07789 0.82659 0.32754 0.0
C778 C 0.11291 0.86714 0.3364 0.0
C779 C 0.11393 0.87515 0.35695 0.0
C780 C 0.15603 0.92167 0.36251 0.0
C781 C 0.14086 0.95481 0.37183 0.0
C782 C 0.18888 0.91466 0.37673 0.0
C783 C 0.178 0.93857 0.34186 0.0
C784 C 0.15233 0.90667 0.327 0.0
C785 C 0.16452 0.91519 0.30664 0.0
C786 C 0.20422 0.95745 0.3013 0.0
C787 C 0.23153 0.99035 0.3163 0.0
C788 C 0.21817 0.98057 0.33683 0.0
H789 H 0.26014 0.05773 0.70751 0.0
H790 H 0.26743 0.98708 0.65335 0.0
H791 H 0.26657 0.04807 0.63233 0.0
H792 H 0.18368 0.09619 0.68762 0.0
H793 H 0.21272 0.1522 0.70009 0.0
H794 H 0.21385 0.10286 0.71116 0.0
H795 H 0.30436 0.14985 0.71185 0.0
H796 H 0.30348 0.19935 0.70081 0.0
H797 H 0.33605 0.17539 0.68881 0.0
H798 H 0.26152 0.11441 0.6169 0.0
H799 H 0.25776 0.18544 0.60826 0.0
H800 H 0.25778 0.21562 0.67213 0.0
C801 C 0.26163 0.05519 0.69125 0.0
C802 C 0.26382 0.01754 0.68213 0.0
C803 C 0.26596 0.01564 0.66076 0.0
C804 C 0.26535 0.05006 0.64862 0.0
C805 C 0.26306 0.08657 0.65803 0.0
C806 C 0.26169 0.08973 0.67883 0.0
C807 C 0.26009 0.13321 0.685 0.0
C808 C 0.21489 0.12033 0.69665 0.0
C809 C 0.30359 0.16641 0.69734 0.0
C810 C 0.26042 0.15357 0.66442 0.0
C811 C 0.26179 0.12591 0.64907 0.0
C812 C 0.26083 0.13665 0.62877 0.0
C813 C 0.25858 0.17694 0.624 0.0
C814 C 0.25787 0.20621 0.63949 0.0
C815 C 0.2589 0.19425 0.65994 0.0
loop_
_geom_bond_atom_site_label_1
_geom_bond_atom_site_label_2
_geom_bond_distance
_geom_bond_site_symmetry_2
_ccdc_geom_bond_type
O0 Cd1 2.223 . S
O0 C8 1.315 . S
Cd1 O0 2.223 . S
Cd1 O4 2.297 . S
Cd1 O5 2.439 . S
Cd1 O11 2.240 . S
Cd2 O3 2.240 . S
Cd2 O10 2.223 . S
Cd2 O12 2.297 . S
Cd2 O13 2.439 . S
O3 Cd2 2.240 . S
O3 C8 1.279 . S
O4 Cd1 2.297 . S
O4 C6 1.247 . S
O5 Cd1 2.439 . S
O5 C6 1.208 . S
C6 O4 1.247 . S
C6 O5 1.208 . S
C7 O12 1.247 . S
C7 O13 1.208 . S
C8 O0 1.315 . S
C8 O3 1.279 . S
C9 O10 1.315 . S
C9 O11 1.279 . S
O10 Cd2 2.223 . S
O10 C9 1.315 . S
O11 Cd1 2.240 . S
O11 C9 1.279 . S
O12 Cd2 2.297 . S
O12 C7 1.247 . S
O13 Cd2 2.439 . S
O13 C7 1.208 . S
O14 Cd15 2.223 . S
O14 C22 1.315 . S
Cd15 O14 2.223 . S
Cd15 O18 2.297 . S
Cd15 O19 2.439 . S
Cd15 O25 2.240 . S
Cd16 O17 2.240 . S
Cd16 O24 2.223 . S
Cd16 O26 2.297 . S
Cd16 O27 2.439 . S
O17 Cd16 2.240 . S
O17 C22 1.279 . S
O18 Cd15 2.297 . S
O18 C20 1.247 . S
O19 Cd15 2.439 . S
O19 C20 1.208 . S
C20 O18 1.247 . S
C20 O19 1.208 . S
C21 O26 1.247 . S
C21 O27 1.208 . S
C22 O14 1.315 . S
C22 O17 1.279 . S
C23 O24 1.315 . S
C23 O25 1.279 . S
O24 Cd16 2.223 . S
O24 C23 1.315 . S
O25 Cd15 2.240 . S
O25 C23 1.279 . S
O26 Cd16 2.297 . S
O26 C21 1.247 . S
O27 Cd16 2.439 . S
O27 C21 1.208 . S
O28 Cd29 2.223 . S
O28 C36 1.315 . S
Cd29 O28 2.223 . S
Cd29 O32 2.297 . S
Cd29 O33 2.439 . S
Cd29 O39 2.240 . S
Cd30 O31 2.240 . S
Cd30 O38 2.223 . S
Cd30 O40 2.297 . S
Cd30 O41 2.439 . S
O31 Cd30 2.240 . S
O31 C36 1.279 . S
O32 Cd29 2.297 . S
O32 C34 1.247 . S
O33 Cd29 2.439 . S
O33 C34 1.208 . S
C34 O32 1.247 . S
C34 O33 1.208 . S
C35 O40 1.247 . S
C35 O41 1.208 . S
C36 O28 1.315 . S
C36 O31 1.279 . S
C37 O38 1.315 . S
C37 O39 1.279 . S
O38 Cd30 2.223 . S
O38 C37 1.315 . S
O39 Cd29 2.240 . S
O39 C37 1.279 . S
O40 Cd30 2.297 . S
O40 C35 1.247 . S
O41 Cd30 2.439 . S
O41 C35 1.208 . S
O42 Cd43 2.223 . S
O42 C50 1.315 . S
Cd43 O42 2.223 . S
Cd43 O46 2.297 . S
Cd43 O47 2.439 . S
Cd43 O53 2.240 . S
Cd44 O45 2.240 . S
Cd44 O52 2.223 . S
Cd44 O54 2.297 . S
Cd44 O55 2.439 . S
O45 Cd44 2.240 . S
O45 C50 1.279 . S
O46 Cd43 2.297 . S
O46 C48 1.247 . S
O47 Cd43 2.439 . S
O47 C48 1.208 . S
C48 O46 1.247 . S
C48 O47 1.208 . S
C49 O54 1.247 . S
C49 O55 1.208 . S
C50 O42 1.315 . S
C50 O45 1.279 . S
C51 O52 1.315 . S
C51 O53 1.279 . S
O52 Cd44 2.223 . S
O52 C51 1.315 . S
O53 Cd43 2.240 . S
O53 C51 1.279 . S
O54 Cd44 2.297 . S
O54 C49 1.247 . S
O55 Cd44 2.439 . S
O55 C49 1.208 . S
O56 Cd57 2.223 . S
O56 C64 1.315 . S
Cd57 O56 2.223 . S
Cd57 O60 2.297 . S
Cd57 O61 2.439 . S
Cd57 O67 2.240 . S
Cd58 O59 2.240 . S
Cd58 O66 2.223 . S
Cd58 O68 2.297 . S
Cd58 O69 2.439 . S
O59 Cd58 2.240 . S
O59 C64 1.279 . S
O60 Cd57 2.297 . S
O60 C62 1.247 . S
O61 Cd57 2.439 . S
O61 C62 1.208 . S
C62 O60 1.247 . S
C62 O61 1.208 . S
C63 O68 1.247 . S
C63 O69 1.208 . S
C64 O56 1.315 . S
C64 O59 1.279 . S
C65 O66 1.315 . S
C65 O67 1.279 . S
O66 Cd58 2.223 . S
O66 C65 1.315 . S
O67 Cd57 2.240 . S
O67 C65 1.279 . S
O68 Cd58 2.297 . S
O68 C63 1.247 . S
O69 Cd58 2.439 . S
O69 C63 1.208 . S
O70 Cd71 2.223 . S
O70 C78 1.315 . S
Cd71 O70 2.223 . S
Cd71 O74 2.297 . S
Cd71 O75 2.439 . S
Cd71 O81 2.240 . S
Cd72 O73 2.240 . S
Cd72 O80 2.223 . S
Cd72 O82 2.297 . S
Cd72 O83 2.439 . S
O73 Cd72 2.240 . S
O73 C78 1.279 . S
O74 Cd71 2.297 . S
O74 C76 1.247 . S
O75 Cd71 2.439 . S
O75 C76 1.208 . S
C76 O74 1.247 . S
C76 O75 1.208 . S
C77 O82 1.247 . S
C77 O83 1.208 . S
C78 O70 1.315 . S
C78 O73 1.279 . S
C79 O80 1.315 . S
C79 O81 1.279 . S
O80 Cd72 2.223 . S
O80 C79 1.315 . S
O81 Cd71 2.240 . S
O81 C79 1.279 . S
O82 Cd72 2.297 . S
O82 C77 1.247 . S
O83 Cd72 2.439 . S
O83 C77 1.208 . S
O84 Cd85 2.223 . S
O84 C92 1.315 . S
Cd85 O84 2.223 . S
Cd85 O88 2.297 . S
Cd85 O89 2.439 . S
Cd85 O95 2.240 . S
Cd86 O87 2.240 . S
Cd86 O94 2.223 . S
Cd86 O96 2.297 . S
Cd86 O97 2.439 . S
O87 Cd86 2.240 . S
O87 C92 1.279 . S
O88 Cd85 2.297 . S
O88 C90 1.247 . S
O89 Cd85 2.439 . S
O89 C90 1.208 . S
C90 O88 1.247 . S
C90 O89 1.208 . S
C91 O96 1.247 . S
C91 O97 1.208 . S
C92 O84 1.315 . S
C92 O87 1.279 . S
C93 O94 1.315 . S
C93 O95 1.279 . S
O94 Cd86 2.223 . S
O94 C93 1.315 . S
O95 Cd85 2.240 . S
O95 C93 1.279 . S
O96 Cd86 2.297 . S
O96 C91 1.247 . S
O97 Cd86 2.439 . S
O97 C91 1.208 . S
O98 Cd99 2.223 . S
O98 C106 1.315 . S
Cd99 O98 2.223 . S
Cd99 O102 2.297 . S
Cd99 O103 2.439 . S
Cd99 O109 2.240 . S
Cd100 O101 2.240 . S
Cd100 O108 2.223 . S
Cd100 O110 2.297 . S
Cd100 O111 2.439 . S
O101 Cd100 2.240 . S
O101 C106 1.279 . S
O102 Cd99 2.297 . S
O102 C104 1.247 . S
O103 Cd99 2.439 . S
O103 C104 1.208 . S
C104 O102 1.247 . S
C104 O103 1.208 . S
C105 O110 1.247 . S
C105 O111 1.208 . S
C106 O98 1.315 . S
C106 O101 1.279 . S
C107 O108 1.315 . S
C107 O109 1.279 . S
O108 Cd100 2.223 . S
O108 C107 1.315 . S
O109 Cd99 2.240 . S
O109 C107 1.279 . S
O110 Cd100 2.297 . S
O110 C105 1.247 . S
O111 Cd100 2.439 . S
O111 C105 1.208 . S
O112 Cd113 2.223 . S
O112 C120 1.315 . S
Cd113 O112 2.223 . S
Cd113 O116 2.297 . S
Cd113 O117 2.439 . S
Cd113 O123 2.240 . S
Cd114 O115 2.240 . S
Cd114 O122 2.223 . S
Cd114 O124 2.297 . S
Cd114 O125 2.439 . S
O115 Cd114 2.240 . S
O115 C120 1.279 . S
O116 Cd113 2.297 . S
O116 C118 1.247 . S
O117 Cd113 2.439 . S
O117 C118 1.208 . S
C118 O116 1.247 . S
C118 O117 1.208 . S
C119 O124 1.247 . S
C119 O125 1.208 . S
C120 O112 1.315 . S
C120 O115 1.279 . S
C121 O122 1.315 . S
C121 O123 1.279 . S
O122 Cd114 2.223 . S
O122 C121 1.315 . S
O123 Cd113 2.240 . S
O123 C121 1.279 . S
O124 Cd114 2.297 . S
O124 C119 1.247 . S
O125 Cd114 2.439 . S
O125 C119 1.208 . S
O126 Cd127 2.223 . S
O126 C134 1.315 . S
Cd127 O126 2.223 . S
Cd127 O130 2.297 . S
Cd127 O131 2.439 . S
Cd127 O137 2.240 . S
Cd128 O129 2.240 . S
Cd128 O136 2.223 . S
Cd128 O138 2.297 . S
Cd128 O139 2.439 . S
O129 Cd128 2.240 . S
O129 C134 1.279 . S
O130 Cd127 2.297 . S
O130 C132 1.247 . S
O131 Cd127 2.439 . S
O131 C132 1.208 . S
C132 O130 1.247 . S
C132 O131 1.208 . S
C133 O138 1.247 . S
C133 O139 1.208 . S
C134 O126 1.315 . S
C134 O129 1.279 . S
C135 O136 1.315 . S
C135 O137 1.279 . S
O136 Cd128 2.223 . S
O136 C135 1.315 . S
O137 Cd127 2.240 . S
O137 C135 1.279 . S
O138 Cd128 2.297 . S
O138 C133 1.247 . S
O139 Cd128 2.439 . S
O139 C133 1.208 . S
O140 Cd141 2.223 . S
O140 C148 1.315 . S
Cd141 O140 2.223 . S
Cd141 O144 2.297 . S
Cd141 O145 2.439 . S
Cd141 O151 2.240 . S
Cd142 O143 2.240 . S
Cd142 O150 2.223 . S
Cd142 O152 2.297 . S
Cd142 O153 2.439 . S
O143 Cd142 2.240 . S
O143 C148 1.279 . S
O144 Cd141 2.297 . S
O144 C146 1.247 . S
O145 Cd141 2.439 . S
O145 C146 1.208 . S
C146 O144 1.247 . S
C146 O145 1.208 . S
C147 O152 1.247 . S
C147 O153 1.208 . S
C148 O140 1.315 . S
C148 O143 1.279 . S
C149 O150 1.315 . S
C149 O151 1.279 . S
O150 Cd142 2.223 . S
O150 C149 1.315 . S
O151 Cd141 2.240 . S
O151 C149 1.279 . S
O152 Cd142 2.297 . S
O152 C147 1.247 . S
O153 Cd142 2.439 . S
O153 C147 1.208 . S
O154 Cd155 2.223 . S
O154 C162 1.315 . S
Cd155 O154 2.223 . S
Cd155 O158 2.297 . S
Cd155 O159 2.439 . S
Cd155 O165 2.240 . S
Cd156 O157 2.240 . S
Cd156 O164 2.223 . S
Cd156 O166 2.297 . S
Cd156 O167 2.439 . S
O157 Cd156 2.240 . S
O157 C162 1.279 . S
O158 Cd155 2.297 . S
O158 C160 1.247 . S
O159 Cd155 2.439 . S
O159 C160 1.208 . S
C160 O158 1.247 . S
C160 O159 1.208 . S
C161 O166 1.247 . S
C161 O167 1.208 . S
C162 O154 1.315 . S
C162 O157 1.279 . S
C163 O164 1.315 . S
C163 O165 1.279 . S
O164 Cd156 2.223 . S
O164 C163 1.315 . S
O165 Cd155 2.240 . S
O165 C163 1.279 . S
O166 Cd156 2.297 . S
O166 C161 1.247 . S
O167 Cd156 2.439 . S
O167 C161 1.208 . S
H168 C180 0.930 . S
H169 C182 0.930 . S
H170 C183 0.930 . S
H171 C187 0.959 . S
H172 C187 0.959 . S
H173 C187 0.961 . S
H174 C188 0.960 . S
H175 C188 0.961 . S
H176 C188 0.959 . S
H177 C191 0.929 . S
H178 C192 0.931 . S
H179 C194 0.930 . S
C180 H168 0.930 . S
C180 C181 1.399 . S
C180 C185 1.399 . S
C181 C180 1.399 . S
C181 C182 1.376 . S
C182 H169 0.930 . S
C182 C181 1.376 . S
C182 C183 1.388 . S
C183 H170 0.930 . S
C183 C182 1.388 . S
C183 C184 1.390 . S
C184 C183 1.390 . S
C184 C185 1.394 . S
C184 C190 1.465 . S
C185 C180 1.399 . S
C185 C184 1.394 . S
C185 C186 1.516 . S
C186 C185 1.516 . S
C186 C187 1.502 . S
C186 C188 1.561 . S
C186 C189 1.526 . S
C187 H171 0.959 . S
C187 H172 0.959 . S
C187 H173 0.961 . S
C187 C186 1.502 . S
C188 H174 0.960 . S
C188 H175 0.961 . S
C188 H176 0.959 . S
C188 C186 1.561 . S
C189 C186 1.526 . S
C189 C190 1.396 . S
C189 C194 1.390 . S
C190 C184 1.465 . S
C190 C189 1.396 . S
C190 C191 1.399 . S
C191 H177 0.929 . S
C191 C190 1.399 . S
C191 C192 1.385 . S
C192 H178 0.931 . S
C192 C191 1.385 . S
C192 C193 1.389 . S
C193 C192 1.389 . S
C193 C194 1.387 . S
C194 H179 0.930 . S
C194 C189 1.390 . S
C194 C193 1.387 . S
H195 C207 0.930 . S
H196 C209 0.930 . S
H197 C210 0.930 . S
H198 C214 0.959 . S
H199 C214 0.959 . S
H200 C214 0.961 . S
H201 C215 0.960 1_455 S
H202 C215 0.961 . S
H203 C215 0.959 . S
H204 C218 0.929 . S
H205 C219 0.931 . S
H206 C221 0.930 . S
C207 H195 0.930 . S
C207 C208 1.399 . S
C207 C212 1.399 . S
C208 C207 1.399 . S
C208 C209 1.376 . S
C209 H196 0.930 . S
C209 C208 1.376 . S
C209 C210 1.388 1_455 S
C210 H197 0.930 . S
C210 C209 1.388 1_655 S
C210 C211 1.390 . S
C211 C210 1.390 . S
C211 C212 1.394 1_655 S
C211 C217 1.465 . S
C212 C207 1.399 . S
C212 C211 1.394 1_455 S
C212 C213 1.516 . S
C213 C212 1.516 . S
C213 C214 1.502 . S
C213 C215 1.561 1_455 S
C213 C216 1.526 1_455 S
C214 H198 0.959 . S
C214 H199 0.959 . S
C214 H200 0.961 . S
C214 C213 1.502 . S
C215 H201 0.960 1_655 S
C215 H202 0.961 . S
C215 H203 0.959 . S
C215 C213 1.561 1_655 S
C216 C213 1.526 1_655 S
C216 C217 1.396 . S
C216 C221 1.390 . S
C217 C211 1.465 . S
C217 C216 1.396 . S
C217 C218 1.399 . S
C218 H204 0.929 . S
C218 C217 1.399 . S
C218 C219 1.385 . S
C219 H205 0.931 . S
C219 C218 1.385 . S
C219 C220 1.389 . S
C220 C219 1.389 . S
C220 C221 1.387 . S
C221 H206 0.930 . S
C221 C216 1.390 . S
C221 C220 1.387 . S
H222 C234 0.930 1_545 S
H223 C236 0.930 . S
H224 C237 0.930 . S
H225 C241 0.959 . S
H226 C241 0.959 . S
H227 C241 0.961 . S
H228 C242 0.960 . S
H229 C242 0.961 . S
H230 C242 0.959 1_565 S
H231 C245 0.929 . S
H232 C246 0.931 1_565 S
H233 C248 0.930 . S
C234 H222 0.930 1_565 S
C234 C235 1.399 . S
C234 C239 1.399 . S
C235 C234 1.399 . S
C235 C236 1.376 . S
C236 H223 0.930 . S
C236 C235 1.376 . S
C236 C237 1.388 . S
C237 H224 0.930 . S
C237 C236 1.388 . S
C237 C238 1.390 . S
C238 C237 1.390 . S
C238 C239 1.394 . S
C238 C244 1.465 . S
C239 C234 1.399 . S
C239 C238 1.394 . S
C239 C240 1.516 1_565 S
C240 C239 1.516 1_545 S
C240 C241 1.502 . S
C240 C242 1.561 . S
C240 C243 1.526 . S
C241 H225 0.959 . S
C241 H226 0.959 . S
C241 H227 0.961 . S
C241 C240 1.502 . S
C242 H228 0.960 . S
C242 H229 0.961 . S
C242 H230 0.959 1_545 S
C242 C240 1.561 . S
C243 C240 1.526 . S
C243 C244 1.396 1_545 S
C243 C248 1.390 . S
C244 C238 1.465 . S
C244 C243 1.396 1_565 S
C244 C245 1.399 . S
C245 H231 0.929 . S
C245 C244 1.399 . S
C245 C246 1.385 1_565 S
C246 H232 0.931 1_545 S
C246 C245 1.385 1_545 S
C246 C247 1.389 . S
C247 C246 1.389 . S
C247 C248 1.387 . S
C248 H233 0.930 . S
C248 C243 1.390 . S
C248 C247 1.387 . S
H249 C261 0.930 . S
H250 C263 0.930 . S
H251 C264 0.930 . S
H252 C268 0.959 . S
H253 C268 0.959 . S
H254 C268 0.961 . S
H255 C269 0.960 . S
H256 C269 0.961 . S
H257 C269 0.959 . S
H258 C272 0.929 . S
H259 C273 0.931 . S
H260 C275 0.930 . S
C261 H249 0.930 . S
C261 C262 1.399 . S
C261 C266 1.399 . S
C262 C261 1.399 . S
C262 C263 1.376 . S
C263 H250 0.930 . S
C263 C262 1.376 . S
C263 C264 1.388 . S
C264 H251 0.930 . S
C264 C263 1.388 . S
C264 C265 1.390 . S
C265 C264 1.390 . S
C265 C266 1.394 . S
C265 C271 1.465 . S
C266 C261 1.399 . S
C266 C265 1.394 . S
C266 C267 1.516 . S
C267 C266 1.516 . S
C267 C268 1.502 . S
C267 C269 1.561 . S
C267 C270 1.526 . S
C268 H252 0.959 . S
C268 H253 0.959 . S
C268 H254 0.961 . S
C268 C267 1.502 . S
C269 H255 0.960 . S
C269 H256 0.961 . S
C269 H257 0.959 . S
C269 C267 1.561 . S
C270 C267 1.526 . S
C270 C271 1.396 . S
C270 C275 1.390 . S
C271 C265 1.465 . S
C271 C270 1.396 . S
C271 C272 1.399 . S
C272 H258 0.929 . S
C272 C271 1.399 . S
C272 C273 1.385 . S
C273 H259 0.931 . S
C273 C272 1.385 . S
C273 C274 1.389 . S
C274 C273 1.389 . S
C274 C275 1.387 . S
C275 H260 0.930 . S
C275 C270 1.390 . S
C275 C274 1.387 . S
H276 C288 0.930 . S
H277 C290 0.930 . S
H278 C291 0.930 . S
H279 C295 0.959 . S
H280 C295 0.928 1_554 S
H281 C295 0.987 . S
H282 C296 0.960 . S
H283 C296 0.961 . S
H284 C296 0.959 1_556 S
H285 C299 0.929 . S
H286 C300 0.931 . S
H287 C302 0.930 . S
C288 H276 0.930 . S
C288 C289 1.399 . S
C288 C293 1.399 . S
C289 C288 1.399 . S
C289 C290 1.376 . S
C290 H277 0.930 . S
C290 C289 1.376 . S
C290 C291 1.388 1_655 S
C291 H278 0.930 . S
C291 C290 1.388 1_455 S
C291 C292 1.390 . S
C292 C291 1.390 . S
C292 C293 1.394 1_455 S
C292 C298 1.465 . S
C293 C288 1.399 . S
C293 C292 1.394 1_655 S
C293 C294 1.516 . S
C294 C293 1.516 . S
C294 C295 1.502 . S
C294 C296 1.561 1_656 S
C294 C297 1.526 1_655 S
C295 H279 0.959 . S
C295 H280 0.928 1_556 S
C295 H281 0.987 . S
C295 C294 1.502 . S
C296 H282 0.960 . S
C296 H283 0.961 . S
C296 H284 0.959 1_554 S
C296 C294 1.561 1_454 S
C297 C294 1.526 1_455 S
C297 C298 1.396 . S
C297 C302 1.390 . S
C298 C292 1.465 . S
C298 C297 1.396 . S
C298 C299 1.399 . S
C299 H285 0.929 . S
C299 C298 1.399 . S
C299 C300 1.385 . S
C300 H286 0.931 . S
C300 C299 1.385 . S
C300 C301 1.389 . S
C301 C300 1.389 . S
C301 C302 1.387 . S
C302 H287 0.930 . S
C302 C297 1.390 . S
C302 C301 1.387 . S
H303 C315 0.930 . S
H304 C317 0.930 1_565 S
H305 C318 0.930 . S
H306 C322 0.959 . S
H307 C322 0.959 . S
H308 C322 0.961 . S
H309 C323 0.960 . S
H310 C323 0.961 . S
H311 C323 0.959 1_565 S
H312 C326 0.929 . S
H313 C327 0.931 . S
H314 C329 0.928 1_545 S
C315 H303 0.930 . S
C315 C316 1.399 . S
C315 C320 1.399 . S
C316 C315 1.399 . S
C316 C317 1.376 . S
C317 H304 0.930 1_545 S
C317 C316 1.376 . S
C317 C318 1.388 1_545 S
C318 H305 0.930 . S
C318 C317 1.388 1_565 S
C318 C319 1.390 . S
C319 C318 1.390 . S
C319 C320 1.394 1_565 S
C319 C325 1.465 . S
C320 C315 1.399 . S
C320 C319 1.394 1_545 S
C320 C321 1.516 . S
C321 C320 1.516 . S
C321 C322 1.502 . S
C321 C323 1.561 . S
C321 C324 1.526 1_545 S
C322 H306 0.959 . S
C322 H307 0.959 . S
C322 H308 0.961 . S
C322 C321 1.502 . S
C323 H309 0.960 . S
C323 H310 0.961 . S
C323 H311 0.959 1_545 S
C323 C321 1.561 . S
C324 C321 1.526 1_565 S
C324 C325 1.396 . S
C324 C329 1.390 . S
C325 C319 1.465 . S
C325 C324 1.396 . S
C325 C326 1.399 . S
C326 H312 0.929 . S
C326 C325 1.399 . S
C326 C327 1.385 . S
C327 H313 0.931 . S
C327 C326 1.385 . S
C327 C328 1.389 . S
C328 C327 1.389 . S
C328 C329 1.387 . S
C329 H314 0.928 1_565 S
C329 C324 1.390 . S
C329 C328 1.387 . S
H330 C342 0.930 . S
H331 C344 0.930 . S
H332 C345 0.930 . S
H333 C349 0.959 . S
H334 C349 0.959 . S
H335 C349 0.961 . S
H336 C350 0.960 . S
H337 C350 0.961 . S
H338 C350 0.959 . S
H339 C353 0.929 . S
H340 C354 0.931 . S
H341 C356 0.930 . S
C342 H330 0.930 . S
C342 C343 1.399 . S
C342 C347 1.399 . S
C343 C342 1.399 . S
C343 C344 1.376 . S
C344 H331 0.930 . S
C344 C343 1.376 . S
C344 C345 1.388 . S
C345 H332 0.930 . S
C345 C344 1.388 . S
C345 C346 1.390 . S
C346 C345 1.390 . S
C346 C347 1.394 . S
C346 C352 1.465 . S
C347 C342 1.399 . S
C347 C346 1.394 . S
C347 C348 1.516 . S
C348 C347 1.516 . S
C348 C349 1.502 . S
C348 C350 1.561 . S
C348 C351 1.526 . S
C349 H333 0.959 . S
C349 H334 0.959 . S
C349 H335 0.961 . S
C349 C348 1.502 . S
C350 H336 0.960 . S
C350 H337 0.961 . S
C350 H338 0.959 . S
C350 C348 1.561 . S
C351 C348 1.526 . S
C351 C352 1.396 . S
C351 C356 1.390 . S
C352 C346 1.465 . S
C352 C351 1.396 . S
C352 C353 1.399 . S
C353 H339 0.929 . S
C353 C352 1.399 . S
C353 C354 1.385 . S
C354 H340 0.931 . S
C354 C353 1.385 . S
C354 C355 1.389 . S
C355 C354 1.389 . S
C355 C356 1.387 . S
C356 H341 0.930 . S
C356 C351 1.390 . S
C356 C355 1.387 . S
H357 C369 0.930 . S
H358 C371 0.930 . S
H359 C372 0.930 . S
H360 C376 0.959 . S
H361 C376 0.959 . S
H362 C376 0.961 . S
H363 C377 0.960 . S
H364 C377 0.961 . S
H365 C377 0.959 . S
H366 C380 0.929 . S
H367 C381 0.931 . S
H368 C383 0.930 . S
C369 H357 0.930 . S
C369 C370 1.399 . S
C369 C374 1.399 . S
C370 C369 1.399 . S
C370 C371 1.376 . S
C371 H358 0.930 . S
C371 C370 1.376 . S
C371 C372 1.388 . S
C372 H359 0.930 . S
C372 C371 1.388 . S
C372 C373 1.390 . S
C373 C372 1.390 . S
C373 C374 1.394 . S
C373 C379 1.465 . S
C374 C369 1.399 . S
C374 C373 1.394 . S
C374 C375 1.516 . S
C375 C374 1.516 . S
C375 C376 1.502 . S
C375 C377 1.561 . S
C375 C378 1.526 . S
C376 H360 0.959 . S
C376 H361 0.959 . S
C376 H362 0.961 . S
C376 C375 1.502 . S
C377 H363 0.960 . S
C377 H364 0.961 . S
C377 H365 0.959 . S
C377 C375 1.561 . S
C378 C375 1.526 . S
C378 C379 1.396 . S
C378 C383 1.390 . S
C379 C373 1.465 . S
C379 C378 1.396 . S
C379 C380 1.399 . S
C380 H366 0.929 . S
C380 C379 1.399 . S
C380 C381 1.385 . S
C381 H367 0.931 . S
C381 C380 1.385 . S
C381 C382 1.389 . S
C382 C381 1.389 . S
C382 C383 1.387 . S
C383 H368 0.930 . S
C383 C378 1.390 . S
C383 C382 1.387 . S
H384 C396 0.930 . S
H385 C398 0.930 . S
H386 C399 0.930 . S
H387 C403 0.959 . S
H388 C403 0.959 . S
H389 C403 0.961 . S
H390 C404 0.960 . S
H391 C404 0.961 . S
H392 C404 0.959 . S
H393 C407 0.929 . S
H394 C408 0.931 . S
H395 C410 0.930 . S
C396 H384 0.930 . S
C396 C397 1.399 . S
C396 C401 1.399 . S
C397 C396 1.399 . S
C397 C398 1.376 . S
C398 H385 0.930 . S
C398 C397 1.376 . S
C398 C399 1.388 . S
C399 H386 0.930 . S
C399 C398 1.388 . S
C399 C400 1.390 . S
C400 C399 1.390 . S
C400 C401 1.394 . S
C400 C406 1.465 . S
C401 C396 1.399 . S
C401 C400 1.394 . S
C401 C402 1.516 . S
C402 C401 1.516 . S
C402 C403 1.502 . S
C402 C404 1.561 . S
C402 C405 1.526 . S
C403 H387 0.959 . S
C403 H388 0.959 . S
C403 H389 0.961 . S
C403 C402 1.502 . S
C404 H390 0.960 . S
C404 H391 0.961 . S
C404 H392 0.959 . S
C404 C402 1.561 . S
C405 C402 1.526 . S
C405 C406 1.396 . S
C405 C410 1.390 . S
C406 C400 1.465 . S
C406 C405 1.396 . S
C406 C407 1.399 . S
C407 H393 0.929 . S
C407 C406 1.399 . S
C407 C408 1.385 . S
C408 H394 0.931 . S
C408 C407 1.385 . S
C408 C409 1.389 . S
C409 C408 1.389 . S
C409 C410 1.387 . S
C410 H395 0.930 . S
C410 C405 1.390 . S
C410 C409 1.387 . S
H411 C423 0.930 . S
H412 C425 0.930 . S
H413 C426 0.930 . S
H414 C430 0.959 . S
H415 C430 0.959 . S
H416 C430 0.961 . S
H417 C431 0.960 . S
H418 C431 0.961 . S
H419 C431 0.959 . S
H420 C434 0.929 . S
H421 C435 0.931 . S
H422 C437 0.930 . S
C423 H411 0.930 . S
C423 C424 1.399 . S
C423 C428 1.399 . S
C424 C423 1.399 . S
C424 C425 1.376 . S
C425 H412 0.930 . S
C425 C424 1.376 . S
C425 C426 1.388 . S
C426 H413 0.930 . S
C426 C425 1.388 . S
C426 C427 1.390 . S
C427 C426 1.390 . S
C427 C428 1.394 . S
C427 C433 1.465 . S
C428 C423 1.399 . S
C428 C427 1.394 . S
C428 C429 1.516 . S
C429 C428 1.516 . S
C429 C430 1.502 . S
C429 C431 1.561 . S
C429 C432 1.526 . S
C430 H414 0.959 . S
C430 H415 0.959 . S
C430 H416 0.961 . S
C430 C429 1.502 . S
C431 H417 0.960 . S
C431 H418 0.961 . S
C431 H419 0.959 . S
C431 C429 1.561 . S
C432 C429 1.526 . S
C432 C433 1.396 . S
C432 C437 1.390 . S
C433 C427 1.465 . S
C433 C432 1.396 . S
C433 C434 1.399 . S
C434 H420 0.929 . S
C434 C433 1.399 . S
C434 C435 1.385 . S
C435 H421 0.931 . S
C435 C434 1.385 . S
C435 C436 1.389 . S
C436 C435 1.389 . S
C436 C437 1.387 . S
C437 H422 0.930 . S
C437 C432 1.390 . S
C437 C436 1.387 . S
H438 C450 0.930 . S
H439 C452 0.930 . S
H440 C453 0.930 . S
H441 C457 0.959 . S
H442 C457 0.959 . S
H443 C457 0.961 . S
H444 C458 0.960 . S
H445 C458 0.961 . S
H446 C458 0.959 . S
H447 C461 0.929 . S
H448 C462 0.931 . S
H449 C464 0.930 . S
C450 H438 0.930 . S
C450 C451 1.399 . S
C450 C455 1.399 . S
C451 C450 1.399 . S
C451 C452 1.376 . S
C452 H439 0.930 . S
C452 C451 1.376 . S
C452 C453 1.388 . S
C453 H440 0.930 . S
C453 C452 1.388 . S
C453 C454 1.390 . S
C454 C453 1.390 . S
C454 C455 1.394 . S
C454 C460 1.465 . S
C455 C450 1.399 . S
C455 C454 1.394 . S
C455 C456 1.516 . S
C456 C455 1.516 . S
C456 C457 1.502 . S
C456 C458 1.561 . S
C456 C459 1.526 . S
C457 H441 0.959 . S
C457 H442 0.959 . S
C457 H443 0.961 . S
C457 C456 1.502 . S
C458 H444 0.960 . S
C458 H445 0.961 . S
C458 H446 0.959 . S
C458 C456 1.561 . S
C459 C456 1.526 . S
C459 C460 1.396 . S
C459 C464 1.390 . S
C460 C454 1.465 . S
C460 C459 1.396 . S
C460 C461 1.399 . S
C461 H447 0.929 . S
C461 C460 1.399 . S
C461 C462 1.385 . S
C462 H448 0.931 . S
C462 C461 1.385 . S
C462 C463 1.389 . S
C463 C462 1.389 . S
C463 C464 1.387 . S
C464 H449 0.930 . S
C464 C459 1.390 . S
C464 C463 1.387 . S
H465 C477 0.930 . S
H466 C479 0.930 . S
H467 C480 0.930 . S
H468 C484 0.959 . S
H469 C484 0.959 . S
H470 C484 0.961 . S
H471 C485 0.960 . S
H472 C485 0.961 . S
H473 C485 0.959 . S
H474 C488 0.929 . S
H475 C489 0.931 . S
H476 C491 0.930 . S
C477 H465 0.930 . S
C477 C478 1.399 . S
C477 C482 1.399 . S
C478 C477 1.399 . S
C478 C479 1.376 . S
C479 H466 0.930 . S
C479 C478 1.376 . S
C479 C480 1.388 . S
C480 H467 0.930 . S
C480 C479 1.388 . S
C480 C481 1.390 . S
C481 C480 1.390 . S
C481 C482 1.394 . S
C481 C487 1.465 . S
C482 C477 1.399 . S
C482 C481 1.394 . S
C482 C483 1.516 . S
C483 C482 1.516 . S
C483 C484 1.502 . S
C483 C485 1.561 . S
C483 C486 1.526 . S
C484 H468 0.959 . S
C484 H469 0.959 . S
C484 H470 0.961 . S
C484 C483 1.502 . S
C485 H471 0.960 . S
C485 H472 0.961 . S
C485 H473 0.959 . S
C485 C483 1.561 . S
C486 C483 1.526 . S
C486 C487 1.396 . S
C486 C491 1.390 . S
C487 C481 1.465 . S
C487 C486 1.396 . S
C487 C488 1.399 . S
C488 H474 0.929 . S
C488 C487 1.399 . S
C488 C489 1.385 . S
C489 H475 0.931 . S
C489 C488 1.385 . S
C489 C490 1.389 . S
C490 C489 1.389 . S
C490 C491 1.387 . S
C491 H476 0.930 . S
C491 C486 1.390 . S
C491 C490 1.387 . S
H492 C504 0.930 . S
H493 C506 0.930 . S
H494 C507 0.930 . S
H495 C511 0.959 . S
H496 C511 0.959 . S
H497 C511 0.961 . S
H498 C512 0.960 1_565 S
H499 C512 0.961 1_554 S
H500 C512 0.959 . S
H501 C515 0.929 . S
H502 C516 0.931 . S
H503 C518 0.930 . S
C504 H492 0.930 . S
C504 C505 1.399 . S
C504 C509 1.399 . S
C505 C504 1.399 . S
C505 C506 1.376 . S
C506 H493 0.930 . S
C506 C505 1.376 . S
C506 C507 1.388 . S
C507 H494 0.930 . S
C507 C506 1.388 . S
C507 C508 1.390 . S
C508 C507 1.390 . S
C508 C509 1.394 . S
C508 C514 1.465 1_565 S
C509 C504 1.399 . S
C509 C508 1.394 . S
C509 C510 1.516 1_556 S
C510 C509 1.516 1_554 S
C510 C511 1.502 . S
C510 C512 1.561 1_564 S
C510 C513 1.526 1_565 S
C511 H495 0.959 . S
C511 H496 0.959 . S
C511 H497 0.961 . S
C511 C510 1.502 . S
C512 H498 0.960 1_545 S
C512 H499 0.961 1_556 S
C512 H500 0.959 . S
C512 C510 1.561 1_546 S
C513 C510 1.526 1_545 S
C513 C514 1.396 1_554 S
C513 C518 1.390 . S
C514 C508 1.465 1_545 S
C514 C513 1.396 1_556 S
C514 C515 1.399 . S
C515 H501 0.929 . S
C515 C514 1.399 . S
C515 C516 1.385 1_556 S
C516 H502 0.931 . S
C516 C515 1.385 1_554 S
C516 C517 1.389 . S
C517 C516 1.389 . S
C517 C518 1.387 . S
C518 H503 0.930 . S
C518 C513 1.390 . S
C518 C517 1.387 . S
H519 C531 0.930 . S
H520 C533 0.930 . S
H521 C534 0.930 . S
H522 C538 0.959 . S
H523 C538 0.959 . S
H524 C538 0.961 . S
H525 C539 0.960 . S
H526 C539 0.961 . S
H527 C539 0.959 . S
H528 C542 0.929 . S
H529 C543 0.931 . S
H530 C545 0.930 . S
C531 H519 0.930 . S
C531 C532 1.399 . S
C531 C536 1.399 . S
C532 C531 1.399 . S
C532 C533 1.376 . S
C533 H520 0.930 . S
C533 C532 1.376 . S
C533 C534 1.388 . S
C534 H521 0.930 . S
C534 C533 1.388 . S
C534 C535 1.390 . S
C535 C534 1.390 . S
C535 C536 1.394 . S
C535 C541 1.465 . S
C536 C531 1.399 . S
C536 C535 1.394 . S
C536 C537 1.516 . S
C537 C536 1.516 . S
C537 C538 1.502 . S
C537 C539 1.561 . S
C537 C540 1.526 . S
C538 H522 0.959 . S
C538 H523 0.959 . S
C538 H524 0.961 . S
C538 C537 1.502 . S
C539 H525 0.960 . S
C539 H526 0.961 . S
C539 H527 0.959 . S
C539 C537 1.561 . S
C540 C537 1.526 . S
C540 C541 1.396 . S
C540 C545 1.390 . S
C541 C535 1.465 . S
C541 C540 1.396 . S
C541 C542 1.399 . S
C542 H528 0.929 . S
C542 C541 1.399 . S
C542 C543 1.385 . S
C543 H529 0.931 . S
C543 C542 1.385 . S
C543 C544 1.389 . S
C544 C543 1.389 . S
C544 C545 1.387 . S
C545 H530 0.930 . S
C545 C540 1.390 . S
C545 C544 1.387 . S
H546 C558 0.930 . S
H547 C560 0.930 . S
H548 C561 0.930 . S
H549 C565 0.959 . S
H550 C565 0.959 1_455 S
H551 C565 0.961 . S
H552 C566 0.960 . S
H553 C566 0.961 . S
H554 C566 0.959 . S
H555 C569 0.929 . S
H556 C570 0.931 . S
H557 C572 0.930 . S
C558 H546 0.930 . S
C558 C559 1.399 . S
C558 C563 1.399 . S
C559 C558 1.399 . S
C559 C560 1.376 . S
C560 H547 0.930 . S
C560 C559 1.376 . S
C560 C561 1.388 . S
C561 H548 0.930 . S
C561 C560 1.388 . S
C561 C562 1.390 . S
C562 C561 1.390 . S
C562 C563 1.394 . S
C562 C568 1.465 1_655 S
C563 C558 1.399 . S
C563 C562 1.394 . S
C563 C564 1.516 . S
C564 C563 1.516 . S
C564 C565 1.502 . S
C564 C566 1.561 . S
C564 C567 1.526 1_655 S
C565 H549 0.959 . S
C565 H550 0.959 1_655 S
C565 H551 0.961 . S
C565 C564 1.502 . S
C566 H552 0.960 . S
C566 H553 0.961 . S
C566 H554 0.959 . S
C566 C564 1.561 . S
C567 C564 1.526 1_455 S
C567 C568 1.396 . S
C567 C572 1.390 . S
C568 C562 1.465 1_455 S
C568 C567 1.396 . S
C568 C569 1.399 . S
C569 H555 0.929 . S
C569 C568 1.399 . S
C569 C570 1.385 . S
C570 H556 0.931 . S
C570 C569 1.385 . S
C570 C571 1.389 . S
C571 C570 1.389 . S
C571 C572 1.387 . S
C572 H557 0.930 . S
C572 C567 1.390 . S
C572 C571 1.387 . S
H573 C585 0.930 . S
H574 C587 0.930 . S
H575 C588 0.930 . S
H576 C592 0.959 . S
H577 C592 0.959 . S
H578 C592 0.961 . S
H579 C593 0.960 1_565 S
H580 C593 0.961 1_556 S
H581 C593 0.959 . S
H582 C596 0.929 . S
H583 C597 0.931 . S
H584 C599 0.930 . S
C585 H573 0.930 . S
C585 C586 1.399 . S
C585 C590 1.399 . S
C586 C585 1.399 . S
C586 C587 1.376 . S
C587 H574 0.930 . S
C587 C586 1.376 . S
C587 C588 1.388 . S
C588 H575 0.930 . S
C588 C587 1.388 . S
C588 C589 1.390 . S
C589 C588 1.390 . S
C589 C590 1.394 . S
C589 C595 1.465 1_565 S
C590 C585 1.399 . S
C590 C589 1.394 . S
C590 C591 1.516 1_554 S
C591 C590 1.516 1_556 S
C591 C592 1.502 . S
C591 C593 1.561 1_566 S
C591 C594 1.526 1_565 S
C592 H576 0.959 . S
C592 H577 0.959 . S
C592 H578 0.961 . S
C592 C591 1.502 . S
C593 H579 0.960 1_545 S
C593 H580 0.961 1_554 S
C593 H581 0.959 . S
C593 C591 1.561 1_544 S
C594 C591 1.526 1_545 S
C594 C595 1.396 1_556 S
C594 C599 1.390 . S
C595 C589 1.465 1_545 S
C595 C594 1.396 1_554 S
C595 C596 1.399 . S
C596 H582 0.929 . S
C596 C595 1.399 . S
C596 C597 1.385 1_554 S
C597 H583 0.931 . S
C597 C596 1.385 1_556 S
C597 C598 1.389 . S
C598 C597 1.389 . S
C598 C599 1.387 . S
C599 H584 0.930 . S
C599 C594 1.390 . S
C599 C598 1.387 . S
H600 C612 0.930 . S
H601 C614 0.930 . S
H602 C615 0.930 . S
H603 C619 0.959 . S
H604 C619 0.959 . S
H605 C619 0.961 . S
H606 C620 0.960 . S
H607 C620 0.961 . S
H608 C620 0.959 . S
H609 C623 0.929 . S
H610 C624 0.931 . S
H611 C626 0.930 . S
C612 H600 0.930 . S
C612 C613 1.399 . S
C612 C617 1.399 . S
C613 C612 1.399 . S
C613 C614 1.376 . S
C614 H601 0.930 . S
C614 C613 1.376 . S
C614 C615 1.388 . S
C615 H602 0.930 . S
C615 C614 1.388 . S
C615 C616 1.390 . S
C616 C615 1.390 . S
C616 C617 1.394 . S
C616 C622 1.465 . S
C617 C612 1.399 . S
C617 C616 1.394 . S
C617 C618 1.516 . S
C618 C617 1.516 . S
C618 C619 1.502 . S
C618 C620 1.561 . S
C618 C621 1.526 . S
C619 H603 0.959 . S
C619 H604 0.959 . S
C619 H605 0.961 . S
C619 C618 1.502 . S
C620 H606 0.960 . S
C620 H607 0.961 . S
C620 H608 0.959 . S
C620 C618 1.561 . S
C621 C618 1.526 . S
C621 C622 1.396 . S
C621 C626 1.390 . S
C622 C616 1.465 . S
C622 C621 1.396 . S
C622 C623 1.399 . S
C623 H609 0.929 . S
C623 C622 1.399 . S
C623 C624 1.385 . S
C624 H610 0.931 . S
C624 C623 1.385 . S
C624 C625 1.389 . S
C625 C624 1.389 . S
C625 C626 1.387 . S
C626 H611 0.930 . S
C626 C621 1.390 . S
C626 C625 1.387 . S
H627 C639 0.930 . S
H628 C641 0.930 . S
H629 C642 0.930 . S
H630 C646 0.959 . S
H631 C646 0.959 . S
H632 C646 0.961 . S
H633 C647 0.960 . S
H634 C647 0.960 1_655 S
H635 C647 0.959 . S
H636 C650 0.929 . S
H637 C651 0.931 . S
H638 C653 0.930 . S
C639 H627 0.930 . S
C639 C640 1.399 . S
C639 C644 1.399 . S
C640 C639 1.399 . S
C640 C641 1.376 . S
C641 H628 0.930 . S
C641 C640 1.376 . S
C641 C642 1.388 . S
C642 H629 0.930 . S
C642 C641 1.388 . S
C642 C643 1.390 . S
C643 C642 1.390 . S
C643 C644 1.394 . S
C643 C649 1.465 1_455 S
C644 C639 1.399 . S
C644 C643 1.394 . S
C644 C645 1.516 . S
C645 C644 1.516 . S
C645 C646 1.502 . S
C645 C647 1.561 . S
C645 C648 1.526 1_455 S
C646 H630 0.959 . S
C646 H631 0.959 . S
C646 H632 0.961 . S
C646 C645 1.502 . S
C647 H633 0.960 . S
C647 H634 0.960 1_455 S
C647 H635 0.959 . S
C647 C645 1.561 . S
C648 C645 1.526 1_655 S
C648 C649 1.396 . S
C648 C653 1.390 . S
C649 C643 1.465 1_655 S
C649 C648 1.396 . S
C649 C650 1.399 . S
C650 H636 0.929 . S
C650 C649 1.399 . S
C650 C651 1.385 . S
C651 H637 0.931 . S
C651 C650 1.385 . S
C651 C652 1.389 . S
C652 C651 1.389 . S
C652 C653 1.387 . S
C653 H638 0.930 . S
C653 C648 1.390 . S
C653 C652 1.387 . S
H654 C666 0.930 . S
H655 C668 0.930 . S
H656 C669 0.930 . S
H657 C673 0.959 . S
H658 C673 0.959 . S
H659 C673 0.961 . S
H660 C674 0.960 . S
H661 C674 0.961 1_554 S
H662 C674 0.959 . S
H663 C677 0.929 . S
H664 C678 0.931 . S
H665 C680 0.930 . S
C666 H654 0.930 . S
C666 C667 1.399 . S
C666 C671 1.399 . S
C667 C666 1.399 . S
C667 C668 1.376 . S
C668 H655 0.930 . S
C668 C667 1.376 . S
C668 C669 1.388 . S
C669 H656 0.930 . S
C669 C668 1.388 . S
C669 C670 1.390 . S
C670 C669 1.390 . S
C670 C671 1.394 . S
C670 C676 1.465 . S
C671 C666 1.399 . S
C671 C670 1.394 . S
C671 C672 1.516 1_556 S
C672 C671 1.516 1_554 S
C672 C673 1.502 . S
C672 C674 1.561 1_554 S
C672 C675 1.526 . S
C673 H657 0.959 . S
C673 H658 0.959 . S
C673 H659 0.961 . S
C673 C672 1.502 . S
C674 H660 0.960 . S
C674 H661 0.961 1_556 S
C674 H662 0.959 . S
C674 C672 1.561 1_556 S
C675 C672 1.526 . S
C675 C676 1.396 1_554 S
C675 C680 1.390 . S
C676 C670 1.465 . S
C676 C675 1.396 1_556 S
C676 C677 1.399 . S
C677 H663 0.929 . S
C677 C676 1.399 . S
C677 C678 1.385 1_556 S
C678 H664 0.931 . S
C678 C677 1.385 1_554 S
C678 C679 1.389 . S
C679 C678 1.389 . S
C679 C680 1.387 . S
C680 H665 0.930 . S
C680 C675 1.390 . S
C680 C679 1.387 . S
H681 C693 0.930 . S
H682 C695 0.930 . S
H683 C696 0.930 . S
H684 C700 0.959 . S
H685 C700 0.959 . S
H686 C700 0.961 . S
H687 C701 0.960 . S
H688 C701 0.961 . S
H689 C701 0.959 . S
H690 C704 0.929 . S
H691 C705 0.931 1_455 S
H692 C707 0.930 . S
C693 H681 0.930 . S
C693 C694 1.399 . S
C693 C698 1.399 . S
C694 C693 1.399 . S
C694 C695 1.376 . S
C695 H682 0.930 . S
C695 C694 1.376 . S
C695 C696 1.388 . S
C696 H683 0.930 . S
C696 C695 1.388 . S
C696 C697 1.390 . S
C697 C696 1.390 . S
C697 C698 1.394 . S
C697 C703 1.465 . S
C698 C693 1.399 . S
C698 C697 1.394 . S
C698 C699 1.516 . S
C699 C698 1.516 . S
C699 C700 1.502 . S
C699 C701 1.561 . S
C699 C702 1.526 . S
C700 H684 0.959 . S
C700 H685 0.959 . S
C700 H686 0.961 . S
C700 C699 1.502 . S
C701 H687 0.960 . S
C701 H688 0.961 . S
C701 H689 0.959 . S
C701 C699 1.561 . S
C702 C699 1.526 . S
C702 C703 1.396 . S
C702 C707 1.390 . S
C703 C697 1.465 . S
C703 C702 1.396 . S
C703 C704 1.399 . S
C704 H690 0.929 . S
C704 C703 1.399 . S
C704 C705 1.385 . S
C705 H691 0.931 1_655 S
C705 C704 1.385 . S
C705 C706 1.389 . S
C706 C705 1.389 . S
C706 C707 1.387 . S
C707 H692 0.930 . S
C707 C702 1.390 . S
C707 C706 1.387 . S
H708 C720 0.930 . S
H709 C722 0.930 . S
H710 C723 0.930 . S
H711 C727 0.959 . S
H712 C727 0.959 . S
H713 C727 0.961 . S
H714 C728 0.960 . S
H715 C728 0.961 . S
H716 C728 0.959 . S
H717 C731 0.929 . S
H718 C732 0.931 . S
H719 C734 0.930 . S
C720 H708 0.930 . S
C720 C721 1.399 . S
C720 C725 1.399 . S
C721 C720 1.399 . S
C721 C722 1.376 . S
C722 H709 0.930 . S
C722 C721 1.376 . S
C722 C723 1.388 . S
C723 H710 0.930 . S
C723 C722 1.388 . S
C723 C724 1.390 . S
C724 C723 1.390 . S
C724 C725 1.394 . S
C724 C730 1.465 . S
C725 C720 1.399 . S
C725 C724 1.394 . S
C725 C726 1.516 . S
C726 C725 1.516 . S
C726 C727 1.502 . S
C726 C728 1.561 . S
C726 C729 1.526 . S
C727 H711 0.959 . S
C727 H712 0.959 . S
C727 H713 0.961 . S
C727 C726 1.502 . S
C728 H714 0.960 . S
C728 H715 0.961 . S
C728 H716 0.959 . S
C728 C726 1.561 . S
C729 C726 1.526 . S
C729 C730 1.396 . S
C729 C734 1.390 . S
C730 C724 1.465 . S
C730 C729 1.396 . S
C730 C731 1.399 . S
C731 H717 0.929 . S
C731 C730 1.399 . S
C731 C732 1.385 . S
C732 H718 0.931 . S
C732 C731 1.385 . S
C732 C733 1.389 . S
C733 C732 1.389 . S
C733 C734 1.387 . S
C734 H719 0.930 . S
C734 C729 1.390 . S
C734 C733 1.387 . S
H735 C747 0.930 . S
H736 C749 0.930 . S
H737 C750 0.930 1_556 S
H738 C754 0.959 . S
H739 C754 0.959 . S
H740 C754 0.961 . S
H741 C755 0.960 . S
H742 C755 0.961 . S
H743 C755 0.959 . S
H744 C758 0.929 . S
H745 C759 0.931 1_455 S
H746 C761 0.930 . S
C747 H735 0.930 . S
C747 C748 1.399 . S
C747 C752 1.399 . S
C748 C747 1.399 . S
C748 C749 1.376 . S
C749 H736 0.930 . S
C749 C748 1.376 . S
C749 C750 1.388 . S
C750 H737 0.930 1_554 S
C750 C749 1.388 . S
C750 C751 1.391 . S
C751 C750 1.391 . S
C751 C752 1.395 . S
C751 C757 1.463 1_554 S
C752 C747 1.399 . S
C752 C751 1.395 . S
C752 C753 1.530 . S
C753 C752 1.530 . S
C753 C754 1.546 . S
C753 C755 1.518 1_554 S
C753 C756 1.508 1_554 S
C754 H738 0.959 . S
C754 H739 0.959 . S
C754 H740 0.961 . S
C754 C753 1.546 . S
C755 H741 0.960 . S
C755 H742 0.961 . S
C755 H743 0.959 . S
C755 C753 1.518 1_556 S
C756 C753 1.508 1_556 S
C756 C757 1.396 . S
C756 C761 1.390 . S
C757 C751 1.463 1_556 S
C757 C756 1.396 . S
C757 C758 1.399 . S
C758 H744 0.929 . S
C758 C757 1.399 . S
C758 C759 1.385 . S
C759 H745 0.931 1_655 S
C759 C758 1.385 . S
C759 C760 1.389 . S
C760 C759 1.389 . S
C760 C761 1.387 . S
C761 H746 0.930 . S
C761 C756 1.390 . S
C761 C760 1.387 . S
H762 C774 0.930 . S
H763 C776 0.930 . S
H764 C777 0.930 . S
H765 C781 0.959 . S
H766 C781 0.959 . S
H767 C781 0.961 . S
H768 C782 0.960 . S
H769 C782 0.961 . S
H770 C782 0.959 . S
H771 C785 0.929 . S
H772 C786 0.931 . S
H773 C788 0.930 . S
C774 H762 0.930 . S
C774 C775 1.399 . S
C774 C779 1.399 . S
C775 C774 1.399 . S
C775 C776 1.376 . S
C776 H763 0.930 . S
C776 C775 1.376 . S
C776 C777 1.388 . S
C777 H764 0.930 . S
C777 C776 1.388 . S
C777 C778 1.390 . S
C778 C777 1.390 . S
C778 C779 1.394 . S
C778 C784 1.465 . S
C779 C774 1.399 . S
C779 C778 1.394 . S
C779 C780 1.516 . S
C780 C779 1.516 . S
C780 C781 1.502 . S
C780 C782 1.561 . S
C780 C783 1.526 . S
C781 H765 0.959 . S
C781 H766 0.959 . S
C781 H767 0.961 . S
C781 C780 1.502 . S
C782 H768 0.960 . S
C782 H769 0.961 . S
C782 H770 0.959 . S
C782 C780 1.561 . S
C783 C780 1.526 . S
C783 C784 1.396 . S
C783 C788 1.390 . S
C784 C778 1.465 . S
C784 C783 1.396 . S
C784 C785 1.399 . S
C785 H771 0.929 . S
C785 C784 1.399 . S
C785 C786 1.385 . S
C786 H772 0.931 . S
C786 C785 1.385 . S
C786 C787 1.389 . S
C787 C786 1.389 . S
C787 C788 1.387 . S
C788 H773 0.930 . S
C788 C783 1.390 . S
C788 C787 1.387 . S
H789 C801 0.930 . S
H790 C803 0.930 1_565 S
H791 C804 0.930 . S
H792 C808 0.959 . S
H793 C808 0.959 . S
H794 C808 0.961 . S
H795 C809 0.960 . S
H796 C809 0.961 . S
H797 C809 0.959 . S
H798 C812 0.929 . S
H799 C813 0.931 . S
H800 C815 0.930 . S
C801 H789 0.930 . S
C801 C802 1.399 . S
C801 C806 1.399 . S
C802 C801 1.399 . S
C802 C803 1.376 . S
C803 H790 0.930 1_545 S
C803 C802 1.376 . S
C803 C804 1.388 . S
C804 H791 0.930 . S
C804 C803 1.388 . S
C804 C805 1.390 . S
C805 C804 1.390 . S
C805 C806 1.394 . S
C805 C811 1.465 . S
C806 C801 1.399 . S
C806 C805 1.394 . S
C806 C807 1.516 . S
C807 C806 1.516 . S
C807 C808 1.502 . S
C807 C809 1.561 . S
C807 C810 1.526 . S
C808 H792 0.959 . S
C808 H793 0.959 . S
C808 H794 0.961 . S
C808 C807 1.502 . S
C809 H795 0.960 . S
C809 H796 0.961 . S
C809 H797 0.959 . S
C809 C807 1.561 . S
C810 C807 1.526 . S
C810 C811 1.396 . S
C810 C815 1.390 . S
C811 C805 1.465 . S
C811 C810 1.396 . S
C811 C812 1.399 . S
C812 H798 0.929 . S
C812 C811 1.399 . S
C812 C813 1.385 . S
C813 H799 0.931 . S
C813 C812 1.385 . S
C813 C814 1.389 . S
C814 C813 1.389 . S
C814 C815 1.387 . S
C815 H800 0.930 . S
C815 C810 1.390 . S
C815 C814 1.387 . S
C181 C49 1.288 . S
C193 C7 1.286 . S
C208 C21 1.313 . S
C220 C63 1.316 . S
C235 C77 1.292 . S
C247 C35 1.289 . S
C262 C91 1.284 . S
C274 C133 1.283 . S
C289 C147 1.314 . S
C301 C105 1.317 . S
C316 C119 1.311 . S
C328 C161 1.315 . S
C343 C118 1.576 . S
C355 C6 1.596 . S
C370 C20 1.612 . S
C382 C132 1.602 . S
C397 C34 1.609 . S
C409 C146 1.596 . S
C424 C48 1.558 . S
C436 C160 1.548 . S
C451 C90 1.609 . S
C463 C62 1.596 . S
C478 C104 1.606 . S
C490 C76 1.612 . S
C505 C106 1.569 . S
C517 C8 1.603 . S
C532 C22 1.587 . S
C544 C120 1.573 . S
C559 C36 1.614 . S
C571 C134 1.634 . S
C586 C50 1.569 . S
C598 C148 1.600 . S
C613 C162 1.617 . S
C625 C64 1.634 . S
C640 C78 1.575 . S
C652 C92 1.619 . S
C667 C149 1.473 1_455 S
C679 C9 1.462 . S
C694 C163 1.482 1_545 S
C706 C23 1.470 1_655 S
C721 C93 1.462 . S
C733 C37 1.474 1_565 S
C748 C51 1.474 . S
C760 C107 1.481 1_655 S
C775 C65 1.462 1_455 S
C787 C121 1.475 1_565 S
C802 C79 1.472 1_545 S
C814 C135 1.482 . S
