# Generated by pormake.
# Topology sqp, (5)-cn, num edge types: 1
# Building blocks:
#     Node 0, Type 0, BuildingBlock: XOMCOT_clean_sbu_1, # of connection points: 5
#     Node 1, Type 0, BuildingBlock: XOMCOT_clean_sbu_1, # of connection points: 5
#     Node 2, Type 0, BuildingBlock: XOMCOT_clean_sbu_1, # of connection points: 5
#     Node 3, Type 0, BuildingBlock: XOMCOT_clean_sbu_1, # of connection points: 5
#     Edge 4, Type (0, 0), BuildingBlock: MIFKUJ_clean_linker_0, # of connection points: 2
#     Edge 5, Type (0, 0), BuildingBlock: MIFKUJ_clean_linker_0, # of connection points: 2
#     Edge 6, Type (0, 0), BuildingBlock: MIFKUJ_clean_linker_0, # of connection points: 2
#     Edge 7, Type (0, 0), BuildingBlock: MIFKUJ_clean_linker_0, # of connection points: 2
#     Edge 8, Type (0, 0), BuildingBlock: MIFKUJ_clean_linker_0, # of connection points: 2
#     Edge 9, Type (0, 0), BuildingBlock: MIFKUJ_clean_linker_0, # of connection points: 2
#     Edge 10, Type (0, 0), BuildingBlock: MIFKUJ_clean_linker_0, # of connection points: 2
#     Edge 11, Type (0, 0), BuildingBlock: MIFKUJ_clean_linker_0, # of connection points: 2
#     Edge 12, Type (0, 0), BuildingBlock: MIFKUJ_clean_linker_0, # of connection points: 2
#     Edge 13, Type (0, 0), BuildingBlock: MIFKUJ_clean_linker_0, # of connection points: 2
# Relax obj value: 0.083
# Max RMSD: 0.168
# Mean RMSD: 0.168
data_MOF--net-sqp--node1-XOMCOT_clean_sbu_1--edge1-MIFKUJ_clean_linker_0
_symmetry_space_group_name_H-M    P1
_symmetry_Int_Tables_number       1
_symmetry_cell_setting            triclinic
loop_
_symmetry_equiv_pos_as_xyz
'x, y, z'
_cell_length_a     30.08361
_cell_length_b     25.170997
_cell_length_c     59.037373
_cell_angle_alpha  90.220223
_cell_angle_beta   93.999961
_cell_angle_gamma 89.909865
loop_
_atom_site_label
_atom_site_type_symbol
_atom_site_fract_x
_atom_site_fract_y
_atom_site_fract_z
_atom_type_partial_charge
C0 C 0.04455 0.14041 0.30227 0.0
C1 C 0.01757 0.18423 0.29826 0.0
N2 N 0.97927 0.16782 0.28732 0.0
N3 N 0.0234 0.09671 0.29375 0.0
C4 C 0.98375 0.11489 0.28463 0.0
H5 H 0.07746 0.14035 0.31089 0.0
Co6 Co 0.04665 0.02739 0.29374 0.0
C7 C 0.95344 0.97943 0.28971 0.0
O8 O 0.951 0.97434 0.31166 0.0
N9 N 0.07018 0.95737 0.29276 0.0
C10 C 0.07788 0.86964 0.29588 0.0
C11 C 0.04916 0.9117 0.29743 0.0
C12 C 0.11196 0.94167 0.28853 0.0
N13 N 0.1175 0.88849 0.29035 0.0
O14 O 0.06339 0.03958 0.26351 0.0
H15 H 1.01561 0.90876 0.3026 0.0
H16 H 0.13816 0.96862 0.28454 0.0
O17 O 0.98845 0.99856 0.28164 0.0
C18 C 0.10173 0.0613 0.2657 0.0
O19 O 0.12096 0.06764 0.2862 0.0
N20 N 0.03552 1.01965 0.32513 0.0
C21 C 0.03616 0.02295 0.37278 0.0
C22 C 1.00191 0.04748 0.3592 0.0
C23 C 1.00246 0.04585 0.3355 0.0
C24 C 0.06951 0.99688 0.33832 0.0
C25 C 0.06963 0.9964 0.36187 0.0
H26 H 0.97652 0.06673 0.32558 0.0
H27 H 0.09843 0.98094 0.3309 0.0
H28 H 0.95852 0.09013 0.27602 0.0
H29 H 0.0251 0.22475 0.30338 0.0
H30 H 0.07056 0.82854 0.29943 0.0
H31 H 0.97584 0.06973 0.36673 0.0
H32 H 0.09682 0.97658 0.3714 0.0
C33 C 0.04088 0.14507 0.69006 0.0
C34 C 0.07142 0.18487 0.6946 0.0
N35 N 0.10898 0.16342 0.70454 0.0
N36 N 0.0586 0.09839 0.69716 0.0
C37 C 0.10012 0.11073 0.70598 0.0
H38 H 1.00775 0.14977 0.68197 0.0
Co39 Co 0.02751 0.0342 0.6935 0.0
C40 C 0.10091 0.95397 0.69774 0.0
O41 O 0.08779 0.93538 0.67762 0.0
N42 N 0.99432 0.96824 0.68969 0.0
C43 C 0.96398 0.89366 0.67483 0.0
C44 C 0.99408 0.9334 0.67209 0.0
C45 C 0.96356 0.94747 0.70301 0.0
N46 N 0.94431 0.90258 0.69421 0.0
O47 O 1.00689 0.0443 0.72321 0.0
H48 H 1.01379 0.93635 0.65757 0.0
H49 H 0.95427 0.96546 0.71862 0.0
O50 O 0.08047 0.99358 0.70599 0.0
C51 C 0.96997 0.06925 0.72004 0.0
O52 O 0.95303 0.0762 0.69915 0.0
N53 N 0.04336 0.03196 0.66342 0.0
C54 C 0.05263 0.04347 0.61692 0.0
C55 C 0.09038 0.04056 0.63239 0.0
C56 C 0.08501 0.03565 0.6557 0.0
C57 C 1.00669 0.03853 0.64884 0.0
C58 C 1.0104 0.0423 0.6256 0.0
H59 H 0.1141 0.03588 0.66753 0.0
H60 H 0.97398 0.03972 0.65537 0.0
H61 H 0.12365 0.08151 0.7129 0.0
H62 H 0.06592 0.22655 0.69099 0.0
H63 H 0.95708 0.86079 0.66326 0.0
H64 H 0.1237 0.04336 0.62666 0.0
H65 H 0.98008 0.04397 0.61464 0.0
C66 C 0.52404 0.63138 0.82098 0.0
C67 C 0.48994 0.6667 0.81636 0.0
N68 N 0.4605 0.64451 0.80096 0.0
N69 N 0.51626 0.58646 0.80883 0.0
C70 C 0.47731 0.59589 0.79647 0.0
H71 H 0.55289 0.63822 0.83255 0.0
Co72 Co 0.55553 0.52848 0.81175 0.0
C73 C 0.50867 0.43352 0.79012 0.0
O74 O 0.53675 0.40191 0.80147 0.0
N75 N 0.59759 0.47122 0.81542 0.0
C76 C 0.63844 0.40407 0.83024 0.0
C77 C 0.60702 0.44168 0.83432 0.0
C78 C 0.62521 0.45104 0.80022 0.0
N79 N 0.64991 0.40994 0.80885 0.0
O80 O 0.58514 0.55407 0.78605 0.0
H81 H 0.59177 0.44562 0.85022 0.0
H82 H 0.62628 0.46496 0.78295 0.0
O83 O 0.51293 0.48409 0.79234 0.0
C84 C 0.61693 0.5829 0.79472 0.0
O85 O 0.62302 0.58469 0.81697 0.0
N86 N 0.52945 0.50942 0.83851 0.0
C87 C 0.50728 0.4902 0.88268 0.0
C88 C 0.48426 0.46434 0.86436 0.0
C89 C 0.49525 0.47544 0.84215 0.0
C90 C 0.5509 0.53587 0.85625 0.0
C91 C 0.54024 0.52708 0.87842 0.0
H92 H 0.47653 0.45624 0.82827 0.0
H93 H 0.57801 0.56238 0.8532 0.0
H94 H 0.46127 0.56769 0.78471 0.0
H95 H 0.48732 0.70619 0.82349 0.0
H96 H 0.65194 0.37452 0.84211 0.0
H97 H 0.45815 0.43604 0.8672 0.0
H98 H 0.55881 0.54751 0.89222 0.0
C99 C 0.52112 0.6363 0.19128 0.0
C100 C 0.54879 0.67963 0.19413 0.0
N101 N 0.58903 0.66263 0.20257 0.0
N102 N 0.54358 0.59217 0.19813 0.0
C103 C 0.58509 0.60945 0.20475 0.0
H104 H 0.48668 0.63697 0.1847 0.0
Co105 Co 0.5185 0.52443 0.19833 0.0
C106 C 0.5795 0.46604 0.22979 0.0
O107 O 0.54502 0.45471 0.24137 0.0
N108 N 0.49307 0.45554 0.19809 0.0
C109 C 0.48613 0.36852 0.19207 0.0
C110 C 0.51405 0.41135 0.19133 0.0
C111 C 0.45207 0.43819 0.20279 0.0
N112 N 0.447 0.38523 0.19932 0.0
O113 O 0.49654 0.54056 0.22733 0.0
H114 H 0.54767 0.41023 0.18597 0.0
H115 H 0.42638 0.46358 0.20874 0.0
O116 O 0.57413 0.49511 0.21212 0.0
C117 C 0.45751 0.56011 0.22399 0.0
O118 O 0.43922 0.56201 0.20314 0.0
N119 N 0.53544 0.51299 0.16917 0.0
C120 C 0.54404 0.50203 0.12283 0.0
C121 C 0.5808 0.49309 0.13839 0.0
C122 C 0.57594 0.4995 0.16174 0.0
C123 C 0.49969 0.52165 0.15428 0.0
C124 C 0.50319 0.51639 0.13108 0.0
H125 H 0.60437 0.4935 0.17368 0.0
H126 H 0.46807 0.53266 0.16062 0.0
H127 H 0.61176 0.58394 0.21149 0.0
H128 H 0.5401 0.72045 0.19014 0.0
H129 H 0.49402 0.32833 0.18717 0.0
H130 H 0.61292 0.48215 0.13256 0.0
H131 H 0.4739 0.52294 0.11969 0.0
H132 H 0.96731 0.02571 0.4013 0.0
H133 H 0.97291 0.0335 0.4428 0.0
H134 H 0.1161 0.03539 0.4431 0.0
H135 H 0.11125 0.03137 0.40182 0.0
H136 H 0.06201 0.95501 0.47463 0.0
H137 H 0.09243 0.13953 0.45267 0.0
H138 H 0.07231 0.22097 0.4312 0.0
H139 H 0.94736 0.22813 0.4621 0.0
H140 H 0.96653 0.1462 0.48349 0.0
H141 H 0.11682 1.00062 0.59104 0.0
H142 H 0.11869 1.00224 0.54981 0.0
H143 H 0.9968 0.09349 0.54479 0.0
H144 H 0.9975 0.09729 0.58579 0.0
H145 H 0.04116 0.12622 0.51447 0.0
H146 H 1.00434 0.94945 0.53665 0.0
H147 H 1.01425 0.86453 0.55711 0.0
H148 H 0.1365 0.83653 0.52551 0.0
H149 H 0.12757 0.92163 0.50507 0.0
C150 C 1.00002 0.02856 0.4101 0.0
C151 C 0.0388 0.02735 0.39804 0.0
C152 C 1.0031 0.03255 0.43382 0.0
C153 C 0.04492 0.03467 0.44584 0.0
C154 C 0.08358 0.0333 0.43402 0.0
C155 C 0.08059 0.03047 0.41037 0.0
C156 C 0.04857 0.03851 0.47083 0.0
C157 C 0.05795 0.99239 0.48347 0.0
C158 C 0.0419 0.08703 0.48212 0.0
C159 C 0.03067 0.13648 0.46945 0.0
C160 C 0.06048 0.15818 0.4547 0.0
C161 C 0.0493 0.20449 0.44259 0.0
C162 C 1.00852 0.22962 0.44523 0.0
C163 C 0.9789 0.20858 0.46004 0.0
C164 C 0.98992 0.16224 0.47217 0.0
C165 C 0.09099 0.02217 0.58124 0.0
C166 C 0.05641 0.04774 0.59192 0.0
C167 C 0.09165 0.02224 0.55755 0.0
C168 C 0.05702 0.04639 0.54401 0.0
C169 C 0.02369 0.07394 0.5547 0.0
C170 C 0.02374 0.07527 0.5783 0.0
C171 C 0.05462 0.04236 0.51877 0.0
C172 C 0.0454 0.08853 0.50591 0.0
C173 C 0.06011 0.99337 0.5073 0.0
C174 C 0.06552 0.94216 0.51953 0.0
C175 C 0.03348 0.92533 0.53419 0.0
C176 C 0.0389 0.87716 0.54576 0.0
C177 C 0.07605 0.84523 0.54267 0.0
C178 C 0.10778 0.86135 0.52793 0.0
C179 C 0.10255 0.90953 0.51633 0.0
H180 H 0.08019 0.80795 0.55164 0.0
H181 H 0.99991 0.26547 0.43584 0.0
H182 H 0.57852 0.41895 0.09947 0.0
H183 H 0.57129 0.40438 0.05817 0.0
H184 H 0.5078 0.55744 0.04925 0.0
H185 H 0.51482 0.57193 0.09023 0.0
H186 H 0.45928 0.48065 0.02767 0.0
H187 H 0.6133 0.53612 0.03437 0.0
H188 H 0.69208 0.53147 0.04889 0.0
H189 H 0.7018 0.37316 0.02231 0.0
H190 H 0.62283 0.37663 0.00789 0.0
H191 H 0.4758 0.55705 0.91381 0.0
H192 H 0.47835 0.54394 0.95494 0.0
H193 H 0.52752 0.38447 0.94648 0.0
H194 H 0.52439 0.3975 0.90511 0.0
H195 H 0.58104 0.44631 0.97704 0.0
H196 H 0.42849 0.39758 0.96552 0.0
H197 H 0.35033 0.40543 0.95034 0.0
H198 H 0.33806 0.55372 0.98556 0.0
H199 H 0.41637 0.5472 0.00069 0.0
C200 C 0.56396 0.44984 0.08859 0.0
C201 C 0.54691 0.49636 0.09799 0.0
C202 C 0.55965 0.44143 0.06505 0.0
C203 C 0.5386 0.47965 0.05067 0.0
C204 C 0.52361 0.52714 0.06004 0.0
C205 C 0.52778 0.53545 0.08343 0.0
C206 C 0.53006 0.46988 0.02596 0.0
C207 C 0.48594 0.47341 0.01657 0.0
C208 C 0.56463 0.45855 0.01162 0.0
C209 C 0.61202 0.45636 0.02033 0.0
C210 C 0.63212 0.50012 0.03182 0.0
C211 C 0.67682 0.49775 0.03998 0.0
C212 C 0.70188 0.45197 0.03659 0.0
C213 C 0.68231 0.40853 0.02497 0.0
C214 C 0.63759 0.41069 0.01679 0.0
C215 C 0.48573 0.51869 0.92073 0.0
C216 C 0.49938 0.47803 0.90646 0.0
C217 C 0.48731 0.51123 0.94417 0.0
C218 C 0.50305 0.46318 0.95373 0.0
C219 C 0.51513 0.42173 0.9394 0.0
C220 C 0.51295 0.42897 0.91585 0.0
C221 C 0.51045 0.45874 0.97872 0.0
C222 C 0.55429 0.4525 0.98818 0.0
C223 C 0.47566 0.46791 0.99315 0.0
C224 C 0.42845 0.47202 0.98414 0.0
C225 C 0.40925 0.43208 0.96989 0.0
C226 C 0.36488 0.43626 0.96132 0.0
C227 C 0.33926 0.48008 0.96696 0.0
C228 C 0.35794 0.51979 0.98121 0.0
C229 C 0.40231 0.51583 0.98982 0.0
H230 H 0.30492 0.48324 0.9603 0.0
H231 H 0.7365 0.45022 0.04291 0.0
H232 H 0.08201 0.15335 0.2437 0.0
H233 H 0.13639 0.20779 0.22524 0.0
H234 H 0.22919 0.07668 0.22891 0.0
H235 H 0.1752 0.02302 0.24783 0.0
H236 H 0.2623 0.1606 0.25127 0.0
H237 H 0.18844 0.13107 0.17747 0.0
H238 H 0.1246 0.12956 0.14892 0.0
H239 H 0.10667 0.29758 0.15731 0.0
H240 H 0.17005 0.29999 0.18616 0.0
H241 H 0.44526 0.27846 0.20564 0.0
H242 H 0.38075 0.22311 0.21065 0.0
H243 H 0.29576 0.36132 0.20654 0.0
H244 H 0.36037 0.41731 0.20042 0.0
H245 H 0.2563 0.27735 0.18365 0.0
H246 H 0.3267 0.30782 0.25756 0.0
H247 H 0.3889 0.31163 0.28701 0.0
H248 H 0.41051 0.14395 0.27971 0.0
H249 H 0.34881 0.13927 0.24996 0.0
C250 C 0.11306 0.13537 0.23934 0.0
C251 C 0.12427 0.08381 0.24672 0.0
C252 C 0.14432 0.16661 0.22896 0.0
C253 C 0.18708 0.14648 0.22578 0.0
C254 C 0.19651 0.09314 0.23122 0.0
C255 C 0.16547 0.06222 0.24175 0.0
C256 C 0.22401 0.18274 0.22053 0.0
C257 C 0.26125 0.1853 0.23621 0.0
C258 C 0.22183 0.21697 0.2015 0.0
C259 C 0.18375 0.2156 0.18414 0.0
C260 C 0.17065 0.16762 0.17337 0.0
C261 C 0.13459 0.16662 0.1571 0.0
C262 C 0.11152 0.21342 0.15135 0.0
C263 C 0.12454 0.26135 0.16181 0.0
C264 C 0.16056 0.26256 0.1781 0.0
C265 C 0.41295 0.29738 0.20544 0.0
C266 C 0.40835 0.35269 0.20261 0.0
C267 C 0.37598 0.26552 0.20853 0.0
C268 C 0.33341 0.28804 0.20926 0.0
C269 C 0.32832 0.34305 0.20609 0.0
C270 C 0.36543 0.37511 0.20285 0.0
C271 C 0.29487 0.25393 0.2141 0.0
C272 C 0.25729 0.25225 0.19857 0.0
C273 C 0.29634 0.22069 0.23342 0.0
C274 C 0.33337 0.2233 0.25138 0.0
C275 C 0.34492 0.27183 0.26211 0.0
C276 C 0.38006 0.27413 0.27888 0.0
C277 C 0.40371 0.22808 0.28519 0.0
C278 C 0.39219 0.1796 0.27478 0.0
C279 C 0.35711 0.17709 0.25798 0.0
H280 H 0.4309 0.22995 0.29817 0.0
H281 H 0.08362 0.21256 0.13875 0.0
H282 H 0.89348 0.14235 0.29192 0.0
H283 H 0.82774 0.19636 0.28135 0.0
H284 H 0.91214 0.31831 0.25623 0.0
H285 H 0.97811 0.26526 0.26823 0.0
H286 H 0.85145 0.36504 0.27558 0.0
H287 H 0.84599 0.22606 0.22047 0.0
H288 H 0.84696 0.13383 0.20627 0.0
H289 H 0.7288 0.09914 0.24022 0.0
H290 H 0.72744 0.19099 0.2549 0.0
H291 H 0.66129 0.489 0.21416 0.0
H292 H 0.73186 0.44159 0.22282 0.0
H293 H 0.66597 0.33514 0.26663 0.0
H294 H 0.59583 0.38244 0.25841 0.0
H295 H 0.71889 0.28375 0.23452 0.0
H296 H 0.72926 0.42666 0.2902 0.0
H297 H 0.72968 0.52088 0.30183 0.0
H298 H 0.84106 0.55029 0.26195 0.0
H299 H 0.8409 0.45632 0.24983 0.0
C300 C 0.89782 0.18063 0.28407 0.0
C301 C 0.94071 0.19957 0.28071 0.0
C302 C 0.86024 0.21144 0.27787 0.0
C303 C 0.86457 0.2611 0.26737 0.0
C304 C 0.90764 0.28019 0.26419 0.0
C305 C 0.94534 0.24991 0.27099 0.0
C306 C 0.82426 0.29325 0.26008 0.0
C307 C 0.82287 0.34727 0.26624 0.0
C308 C 0.78649 0.27049 0.24798 0.0
C309 C 0.78683 0.21534 0.23894 0.0
C310 C 0.82034 0.19869 0.22501 0.0
C311 C 0.82095 0.14648 0.21687 0.0
C312 C 0.78802 0.11061 0.22239 0.0
C313 C 0.75431 0.12695 0.23599 0.0
C314 C 0.75357 0.17911 0.2442 0.0
C315 C 0.66194 0.45572 0.22576 0.0
C316 C 0.62292 0.43963 0.23565 0.0
C317 C 0.70226 0.42872 0.23069 0.0
C318 C 0.70411 0.38482 0.24537 0.0
C319 C 0.66526 0.36882 0.25524 0.0
C320 C 0.62522 0.39616 0.2506 0.0
C321 C 0.74622 0.35477 0.25031 0.0
C322 C 0.74783 0.30128 0.24366 0.0
C323 C 0.78443 0.37827 0.26147 0.0
C324 C 0.78475 0.43461 0.26891 0.0
C325 C 0.7536 0.45332 0.28376 0.0
C326 C 0.75384 0.50665 0.29047 0.0
C327 C 0.78529 0.54159 0.28257 0.0
C328 C 0.81667 0.5232 0.26802 0.0
C329 C 0.81654 0.46991 0.26124 0.0
H330 H 0.78542 0.58287 0.28778 0.0
H331 H 0.78858 0.07019 0.21609 0.0
H332 H 0.58974 0.76091 0.22096 0.0
H333 H 0.65459 0.81654 0.23095 0.0
H334 H 0.74066 0.69428 0.20692 0.0
H335 H 0.67552 0.63756 0.19785 0.0
H336 H 0.7784 0.73186 0.24292 0.0
H337 H 0.71406 0.81511 0.17666 0.0
H338 H 0.65573 0.8554 0.15077 0.0
H339 H 0.63647 0.9789 0.1995 0.0
H340 H 0.69422 0.93892 0.22586 0.0
H341 H 0.96135 0.9172 0.25215 0.0
H342 H 0.90178 0.86493 0.23193 0.0
H343 H 0.80535 0.93603 0.27352 0.0
H344 H 0.86478 0.98673 0.29419 0.0
H345 H 0.779 0.92352 0.22354 0.0
H346 H 0.84058 0.82828 0.29076 0.0
H347 H 0.90262 0.78771 0.31417 0.0
H348 H 0.93142 0.68547 0.25865 0.0
H349 H 0.86999 0.72619 0.23478 0.0
C350 C 0.62249 0.74609 0.2177 0.0
C351 C 0.62758 0.69508 0.20849 0.0
C352 C 0.65963 0.77805 0.22328 0.0
C353 C 0.70273 0.76042 0.21918 0.0
C354 C 0.70788 0.7091 0.21017 0.0
C355 C 0.6707 0.67664 0.20501 0.0
C356 C 0.74228 0.79491 0.22507 0.0
C357 C 0.7787 0.77346 0.23821 0.0
C358 C 0.74313 0.84949 0.2191 0.0
C359 C 0.70826 0.87371 0.20332 0.0
C360 C 0.69715 0.85063 0.18194 0.0
C361 C 0.66422 0.87345 0.16716 0.0
C362 C 0.64233 0.91961 0.17351 0.0
C363 C 0.65341 0.94311 0.19462 0.0
C364 C 0.68628 0.92041 0.20948 0.0
C365 C 0.92726 0.92251 0.25654 0.0
C366 C 0.91747 0.95593 0.27466 0.0
C367 C 0.89338 0.89252 0.2451 0.0
C368 C 0.84926 0.89656 0.25133 0.0
C369 C 0.83916 0.93247 0.26845 0.0
C370 C 0.87307 0.96132 0.28024 0.0
C371 C 0.81404 0.86038 0.24152 0.0
C372 C 0.7786 0.88162 0.22777 0.0
C373 C 0.81449 0.80547 0.24648 0.0
C374 C 0.85114 0.78079 0.2609 0.0
C375 C 0.86045 0.79756 0.28347 0.0
C376 C 0.89544 0.77447 0.29684 0.0
C377 C 0.92106 0.73418 0.28788 0.0
C378 C 0.91163 0.71678 0.26555 0.0
C379 C 0.87674 0.73986 0.2521 0.0
H380 H 0.94813 0.71632 0.29825 0.0
H381 H 0.61685 0.93723 0.16204 0.0
H382 H 0.20336 0.92124 0.29836 0.0
H383 H 0.27079 0.8676 0.29538 0.0
H384 H 0.18979 0.7327 0.2741 0.0
H385 H 0.12264 0.78583 0.27713 0.0
H386 H 0.25432 0.70297 0.30459 0.0
H387 H 0.24425 0.81055 0.23624 0.0
H388 H 0.24031 0.89543 0.21544 0.0
H389 H 0.36586 0.94279 0.24837 0.0
H390 H 0.37023 0.85841 0.26961 0.0
H391 H 0.37292 0.54087 0.23331 0.0
H392 H 0.32519 0.59878 0.25432 0.0
H393 H 0.43832 0.6977 0.27432 0.0
H394 H 0.48651 0.6388 0.25331 0.0
H395 H 0.36949 0.75358 0.25254 0.0
H396 H 0.38549 0.63607 0.31497 0.0
H397 H 0.38868 0.55006 0.33484 0.0
H398 H 0.25209 0.51992 0.3126 0.0
H399 H 0.24821 0.60539 0.2923 0.0
C400 C 0.19997 0.8803 0.29286 0.0
C401 C 0.15755 0.85784 0.28797 0.0
C402 C 0.23855 0.8496 0.29125 0.0
C403 C 0.23544 0.79606 0.28446 0.0
C404 C 0.19312 0.77372 0.27958 0.0
C405 C 0.15468 0.8042 0.2813 0.0
C406 C 0.27588 0.763 0.2819 0.0
C407 C 0.27947 0.71395 0.29317 0.0
C408 C 0.30966 0.77815 0.26768 0.0
C409 C 0.3073 0.82851 0.25471 0.0
C410 C 0.27087 0.83924 0.23915 0.0
C411 C 0.26857 0.88722 0.22727 0.0
C412 C 0.30273 0.92457 0.23064 0.0
C413 C 0.33937 0.91388 0.24582 0.0
C414 C 0.34178 0.86599 0.25778 0.0
C415 C 0.3879 0.57369 0.24301 0.0
C416 C 0.43335 0.58506 0.24204 0.0
C417 C 0.36062 0.60689 0.25497 0.0
C418 C 0.37814 0.65259 0.26597 0.0
C419 C 0.42417 0.66249 0.26607 0.0
C420 C 0.45174 0.62857 0.25433 0.0
C421 C 0.34703 0.69265 0.27459 0.0
C422 C 0.34506 0.74306 0.26444 0.0
C423 C 0.31463 0.67864 0.28976 0.0
C424 C 0.31664 0.62716 0.30202 0.0
C425 C 0.3562 0.61097 0.31417 0.0
C426 C 0.35812 0.56231 0.32554 0.0
C427 C 0.32063 0.52952 0.32496 0.0
C428 C 0.2811 0.54538 0.31305 0.0
C429 C 0.279 0.59399 0.30164 0.0
H430 H 0.32219 0.49186 0.33377 0.0
H431 H 0.30087 0.96172 0.22145 0.0
H432 H 0.40364 0.70457 0.82332 0.0
H433 H 0.34086 0.75685 0.80685 0.0
H434 H 0.36445 0.69568 0.74041 0.0
H435 H 0.42739 0.64266 0.75704 0.0
H436 H 0.35745 0.80831 0.74264 0.0
H437 H 0.27618 0.6549 0.76413 0.0
H438 H 0.25289 0.58556 0.79018 0.0
H439 H 0.20251 0.70509 0.83375 0.0
H440 H 0.22612 0.77526 0.80812 0.0
H441 H 0.1635 0.89242 0.67967 0.0
H442 H 0.22393 0.8429 0.69925 0.0
H443 H 0.18741 0.90556 0.76346 0.0
H444 H 0.12602 0.95595 0.74372 0.0
H445 H 0.20137 0.79557 0.76429 0.0
H446 H 0.2798 0.9489 0.74289 0.0
H447 H 0.30341 1.01944 0.71752 0.0
H448 H 0.36008 0.90244 0.6749 0.0
H449 H 0.33618 0.83105 0.69983 0.0
C450 C 0.39506 0.70181 0.80524 0.0
C451 C 0.42037 0.66965 0.79143 0.0
C452 C 0.35913 0.73157 0.79586 0.0
C453 C 0.34794 0.73026 0.7724 0.0
C454 C 0.37253 0.69727 0.75857 0.0
C455 C 0.40817 0.66672 0.76806 0.0
C456 C 0.31194 0.76536 0.76233 0.0
C457 C 0.32318 0.80501 0.7471 0.0
C458 C 0.2676 0.76246 0.76887 0.0
C459 C 0.25336 0.72038 0.78432 0.0
C460 C 0.26053 0.66645 0.77938 0.0
C461 C 0.24718 0.62698 0.79404 0.0
C462 C 0.22635 0.64092 0.81364 0.0
C463 C 0.21872 0.69436 0.81858 0.0
C464 C 0.23204 0.734 0.80398 0.0
C465 C 0.16831 0.89617 0.69797 0.0
C466 C 0.13977 0.92815 0.71014 0.0
C467 C 0.20313 0.86786 0.70914 0.0
C468 C 0.21046 0.8706 0.73282 0.0
C469 C 0.18239 0.90289 0.74515 0.0
C470 C 0.14754 0.9319 0.73387 0.0
C471 C 0.24675 0.83815 0.74436 0.0
C472 C 0.23566 0.79905 0.7599 0.0
C473 C 0.29135 0.84177 0.73823 0.0
C474 C 0.30583 0.88455 0.72315 0.0
C475 C 0.29694 0.93814 0.728 0.0
C476 C 0.31045 0.9783 0.71372 0.0
C477 C 0.33314 0.96542 0.69458 0.0
C478 C 0.34246 0.91235 0.68972 0.0
C479 C 0.32898 0.87201 0.70394 0.0
H480 H 0.34359 0.99657 0.68354 0.0
H481 H 0.21602 0.6103 0.82497 0.0
H482 H 0.17598 0.13034 0.73487 0.0
H483 H 0.24319 0.1793 0.74764 0.0
H484 H 0.20135 0.31035 0.70437 0.0
H485 H 0.13545 0.26086 0.69068 0.0
H486 H 0.28648 0.2978 0.70236 0.0
H487 H 0.19037 0.31236 0.76294 0.0
H488 H 0.14112 0.28097 0.79176 0.0
H489 H 0.24936 0.19232 0.82443 0.0
H490 H 0.29914 0.2226 0.79561 0.0
H491 H 0.44115 0.48159 0.76304 0.0
H492 H 0.37204 0.43986 0.74672 0.0
H493 H 0.41452 0.28965 0.77563 0.0
H494 H 0.4831 0.33004 0.79146 0.0
H495 H 0.32631 0.31923 0.78483 0.0
H496 H 0.42087 0.30471 0.72192 0.0
H497 H 0.46845 0.34032 0.6932 0.0
H498 H 0.35971 0.43597 0.66544 0.0
H499 H 0.31164 0.40143 0.69423 0.0
C500 C 0.18115 0.16928 0.72784 0.0
C501 C 0.14959 0.19155 0.71186 0.0
C502 C 0.21953 0.19761 0.73537 0.0
C503 C 0.22713 0.24916 0.72734 0.0
C504 C 0.1963 0.2709 0.71099 0.0
C505 C 0.15814 0.24254 0.70335 0.0
C506 C 0.26695 0.28057 0.73602 0.0
C507 C 0.29472 0.30307 0.72041 0.0
C508 C 0.27814 0.28757 0.75957 0.0
C509 C 0.24838 0.26935 0.77698 0.0
C510 C 0.20359 0.28585 0.77617 0.0
C511 C 0.17559 0.26831 0.79252 0.0
C512 C 0.19207 0.23456 0.80988 0.0
C513 C 0.23663 0.2184 0.81096 0.0
C514 C 0.26476 0.23578 0.79463 0.0
C515 C 0.43588 0.43962 0.76573 0.0
C516 C 0.46786 0.40936 0.7786 0.0
C517 C 0.39639 0.41582 0.75641 0.0
C518 C 0.38805 0.36162 0.76006 0.0
C519 C 0.42007 0.33151 0.77269 0.0
C520 C 0.45953 0.35486 0.78165 0.0
C521 C 0.34588 0.33561 0.7512 0.0
C522 C 0.3177 0.31421 0.7668 0.0
C523 C 0.33402 0.33032 0.7277 0.0
C524 C 0.36285 0.35101 0.71039 0.0
C525 C 0.40724 0.33373 0.70983 0.0
C526 C 0.43426 0.35363 0.69351 0.0
C527 C 0.41716 0.39052 0.67755 0.0
C528 C 0.37294 0.40748 0.67784 0.0
C529 C 0.34579 0.38774 0.69415 0.0
H530 H 0.43813 0.40587 0.66492 0.0
H531 H 0.17034 0.22103 0.82253 0.0
H532 H 0.99007 0.16555 0.73785 0.0
H533 H 0.9379 0.22434 0.75568 0.0
H534 H 0.84512 0.09433 0.75902 0.0
H535 H 0.89678 0.03637 0.74017 0.0
H536 H 0.80445 0.17213 0.73964 0.0
H537 H 0.89881 0.15961 0.80795 0.0
H538 H 0.96926 0.16239 0.83191 0.0
H539 H 0.98582 0.32686 0.81544 0.0
H540 H 0.91572 0.3249 0.79113 0.0
H541 H 0.65221 0.30348 0.80881 0.0
H542 H 0.71021 0.2463 0.79461 0.0
H543 H 0.77803 0.38445 0.77131 0.0
H544 H 0.71893 0.44189 0.78512 0.0
H545 H 0.83201 0.3064 0.80068 0.0
H546 H 0.73496 0.3164 0.73271 0.0
H547 H 0.66304 0.31125 0.7101 0.0
H548 H 0.65043 0.14712 0.72811 0.0
H549 H 0.72198 0.15151 0.75115 0.0
C550 C 0.95947 0.14903 0.74346 0.0
C551 C 0.94785 0.0962 0.73827 0.0
C552 C 0.92942 0.18275 0.75354 0.0
C553 C 0.88735 0.16401 0.75884 0.0
C554 C 0.87722 0.10996 0.7551 0.0
C555 C 0.90702 0.07652 0.74469 0.0
C556 C 0.85219 0.20175 0.76561 0.0
C557 C 0.81045 0.20078 0.75328 0.0
C558 C 0.86008 0.24058 0.78289 0.0
C559 C 0.9022 0.24195 0.79754 0.0
C560 C 0.91764 0.19626 0.80929 0.0
C561 C 0.95748 0.19772 0.82296 0.0
C562 C 0.98206 0.24473 0.82515 0.0
C563 C 0.96677 0.29045 0.81371 0.0
C564 C 0.92696 0.28921 0.80001 0.0
C565 C 0.67919 0.32146 0.80034 0.0
C566 C 0.6812 0.37688 0.79795 0.0
C567 C 0.71227 0.28889 0.7923 0.0
C568 C 0.7485 0.31115 0.78203 0.0
C569 C 0.75035 0.36656 0.77925 0.0
C570 C 0.71655 0.39921 0.78691 0.0
C571 C 0.7847 0.27599 0.77485 0.0
C572 C 0.82641 0.27756 0.78708 0.0
C573 C 0.77671 0.23723 0.75768 0.0
C574 C 0.73362 0.23447 0.74387 0.0
C575 C 0.71663 0.27936 0.73206 0.0
C576 C 0.67598 0.27654 0.71912 0.0
C577 C 0.65211 0.22893 0.71772 0.0
C578 C 0.66891 0.184 0.72923 0.0
C579 C 0.70954 0.18662 0.74222 0.0
H580 H 0.62065 0.22682 0.70768 0.0
H581 H 1.0129 0.24577 0.83574 0.0
H582 H 0.62274 0.58586 0.74798 0.0
H583 H 0.67321 0.64176 0.72708 0.0
H584 H 0.72707 0.70957 0.79035 0.0
H585 H 0.67753 0.65515 0.81098 0.0
H586 H 0.71151 0.78564 0.75929 0.0
H587 H 0.78149 0.61217 0.76368 0.0
H588 H 0.78426 0.51548 0.75695 0.0
H589 H 0.76599 0.54104 0.68502 0.0
H590 H 0.76238 0.63791 0.69137 0.0
H591 H 0.92182 0.89448 0.73797 0.0
H592 H 0.86153 0.84117 0.75195 0.0
H593 H 0.82504 0.78741 0.68375 0.0
H594 H 0.88465 0.84063 0.66967 0.0
H595 H 0.82566 0.70568 0.71288 0.0
H596 H 0.76317 0.88077 0.70874 0.0
H597 H 0.76176 0.97727 0.71603 0.0
H598 H 0.76643 0.94891 0.78782 0.0
H599 H 0.76854 0.8522 0.78098 0.0
C600 C 0.64531 0.61282 0.75733 0.0
C601 C 0.64616 0.61574 0.78115 0.0
C602 C 0.67415 0.64467 0.74542 0.0
C603 C 0.70403 0.67989 0.75718 0.0
C604 C 0.70426 0.68306 0.78086 0.0
C605 C 0.67592 0.65143 0.79266 0.0
C606 C 0.73622 0.71295 0.74539 0.0
C607 C 0.73654 0.76812 0.74918 0.0
C608 C 0.7684 0.69034 0.73185 0.0
C609 C 0.77112 0.63221 0.72801 0.0
C610 C 0.77773 0.59714 0.74644 0.0
C611 C 0.77949 0.54232 0.7427 0.0
C612 C 0.77517 0.52213 0.72058 0.0
C613 C 0.76923 0.55674 0.70215 0.0
C614 C 0.76732 0.61159 0.70581 0.0
C615 C 0.90078 0.8717 0.72592 0.0
C616 C 0.90843 0.87185 0.70269 0.0
C617 C 0.86632 0.84111 0.73393 0.0
C618 C 0.83852 0.81042 0.71886 0.0
C619 C 0.84614 0.81044 0.69572 0.0
C620 C 0.88049 0.8409 0.68771 0.0
C621 C 0.80151 0.77825 0.72719 0.0
C622 C 0.80028 0.72334 0.72271 0.0
C623 C 0.76852 0.80107 0.74017 0.0
C624 C 0.76638 0.85921 0.74434 0.0
C625 C 0.76415 0.8951 0.72609 0.0
C626 C 0.76321 0.94985 0.73014 0.0
C627 C 0.76412 0.96922 0.75238 0.0
C628 C 0.76578 0.93386 0.77061 0.0
C629 C 0.76679 0.87906 0.76665 0.0
H630 H 0.76347 1.01162 0.75548 0.0
H631 H 0.77654 0.47967 0.71771 0.0
loop_
_geom_bond_atom_site_label_1
_geom_bond_atom_site_label_2
_geom_bond_distance
_geom_bond_site_symmetry_2
_ccdc_geom_bond_type
C0 C1 1.351 . S
C0 N3 1.368 . S
C0 H5 0.931 1_655 S
C1 C0 1.351 . S
C1 N2 1.373 . S
C1 H29 0.930 . S
N2 C1 1.373 . S
N2 C4 1.340 . S
N3 C0 1.368 . S
N3 C4 1.321 . S
N3 Co6 2.135 1_655 S
C4 N2 1.340 . S
C4 N3 1.321 . S
C4 H28 0.930 . S
H5 C0 0.931 1_455 S
Co6 N3 2.135 1_455 S
Co6 N9 2.121 1_545 S
Co6 O14 2.055 . S
Co6 O17 2.039 1_445 S
Co6 N20 2.140 . S
C7 O8 1.227 . S
C7 O17 1.265 . S
O8 C7 1.227 . S
N9 Co6 2.121 1_565 S
N9 C11 1.375 . S
N9 C12 1.313 . S
C10 C11 1.338 . S
C10 N13 1.377 . S
C10 H30 0.930 . S
C11 N9 1.375 . S
C11 C10 1.338 . S
C11 H15 0.931 . S
C12 N9 1.313 . S
C12 N13 1.344 . S
C12 H16 0.930 . S
N13 C10 1.377 . S
N13 C12 1.344 . S
O14 Co6 2.055 . S
O14 C18 1.253 . S
H15 C11 0.931 . S
H16 C12 0.930 . S
O17 Co6 2.039 1_665 S
O17 C7 1.265 . S
C18 O14 1.253 . S
C18 O19 1.227 . S
O19 C18 1.227 . S
N20 Co6 2.140 . S
N20 C23 1.346 1_455 S
N20 C24 1.345 1_545 S
C21 C22 1.387 1_465 S
C21 C25 1.391 . S
C22 C21 1.387 1_645 S
C22 C23 1.369 . S
C22 H31 0.929 . S
C23 N20 1.346 1_655 S
C23 C22 1.369 . S
C23 H26 0.928 . S
C24 N20 1.345 1_565 S
C24 C25 1.371 . S
C24 H27 0.931 . S
C25 C21 1.391 . S
C25 C24 1.371 . S
C25 H32 0.930 . S
H26 C23 0.928 . S
H27 C24 0.931 . S
H28 C4 0.930 . S
H29 C1 0.930 . S
H30 C10 0.930 . S
H31 C22 0.929 . S
H32 C25 0.930 . S
C33 C34 1.351 . S
C33 N36 1.368 . S
C33 H38 0.931 . S
C34 C33 1.351 . S
C34 N35 1.373 . S
C34 H62 0.930 . S
N35 C34 1.373 . S
N35 C37 1.340 . S
N36 C33 1.368 . S
N36 C37 1.321 . S
N36 Co39 2.135 . S
C37 N35 1.340 . S
C37 N36 1.321 . S
C37 H61 0.930 . S
H38 C33 0.931 . S
Co39 N36 2.135 . S
Co39 N42 2.121 1_445 S
Co39 O47 2.055 1_455 S
Co39 O50 2.039 1_545 S
Co39 N53 2.140 . S
C40 O41 1.227 . S
C40 O50 1.265 . S
O41 C40 1.227 . S
N42 Co39 2.121 1_665 S
N42 C44 1.375 . S
N42 C45 1.313 . S
C43 C44 1.338 . S
C43 N46 1.377 . S
C43 H63 0.930 . S
C44 N42 1.375 . S
C44 C43 1.338 . S
C44 H48 0.931 1_655 S
C45 N42 1.313 . S
C45 N46 1.344 . S
C45 H49 0.930 . S
N46 C43 1.377 . S
N46 C45 1.344 . S
O47 Co39 2.055 1_655 S
O47 C51 1.253 . S
H48 C44 0.931 1_455 S
H49 C45 0.930 . S
O50 Co39 2.039 1_565 S
O50 C40 1.265 . S
C51 O47 1.253 . S
C51 O52 1.227 . S
O52 C51 1.227 . S
N53 Co39 2.140 . S
N53 C56 1.346 . S
N53 C57 1.345 1_445 S
C54 C55 1.387 1_565 S
C54 C58 1.391 1_455 S
C55 C54 1.387 1_545 S
C55 C56 1.369 . S
C55 H64 0.929 . S
C56 N53 1.346 . S
C56 C55 1.369 . S
C56 H59 0.928 . S
C57 N53 1.345 1_665 S
C57 C58 1.371 . S
C57 H60 0.931 . S
C58 C54 1.391 1_655 S
C58 C57 1.371 . S
C58 H65 0.930 . S
H59 C56 0.928 . S
H60 C57 0.931 . S
H61 C37 0.930 . S
H62 C34 0.930 . S
H63 C43 0.930 . S
H64 C55 0.929 . S
H65 C58 0.930 . S
C66 C67 1.351 . S
C66 N69 1.368 . S
C66 H71 0.931 . S
C67 C66 1.351 . S
C67 N68 1.373 . S
C67 H95 0.930 . S
N68 C67 1.373 . S
N68 C70 1.340 . S
N69 C66 1.368 . S
N69 C70 1.321 . S
N69 Co72 2.135 . S
C70 N68 1.340 . S
C70 N69 1.321 . S
C70 H94 0.930 . S
H71 C66 0.931 . S
Co72 N69 2.135 . S
Co72 N75 2.121 . S
Co72 O80 2.055 . S
Co72 O83 2.039 . S
Co72 N86 2.140 . S
C73 O74 1.227 . S
C73 O83 1.265 . S
O74 C73 1.227 . S
N75 Co72 2.121 . S
N75 C77 1.375 . S
N75 C78 1.313 . S
C76 C77 1.338 . S
C76 N79 1.377 . S
C76 H96 0.930 . S
C77 N75 1.375 . S
C77 C76 1.338 . S
C77 H81 0.931 . S
C78 N75 1.313 . S
C78 N79 1.344 . S
C78 H82 0.930 . S
N79 C76 1.377 . S
N79 C78 1.344 . S
O80 Co72 2.055 . S
O80 C84 1.253 . S
H81 C77 0.931 . S
H82 C78 0.930 . S
O83 Co72 2.039 . S
O83 C73 1.265 . S
C84 O80 1.253 . S
C84 O85 1.227 . S
O85 C84 1.227 . S
N86 Co72 2.140 . S
N86 C89 1.346 . S
N86 C90 1.345 . S
C87 C88 1.387 . S
C87 C91 1.391 . S
C88 C87 1.387 . S
C88 C89 1.369 . S
C88 H97 0.929 . S
C89 N86 1.346 . S
C89 C88 1.369 . S
C89 H92 0.928 . S
C90 N86 1.345 . S
C90 C91 1.371 . S
C90 H93 0.931 . S
C91 C87 1.391 . S
C91 C90 1.371 . S
C91 H98 0.930 . S
H92 C89 0.928 . S
H93 C90 0.931 . S
H94 C70 0.930 . S
H95 C67 0.930 . S
H96 C76 0.930 . S
H97 C88 0.929 . S
H98 C91 0.930 . S
C99 C100 1.351 . S
C99 N102 1.368 . S
C99 H104 0.931 . S
C100 C99 1.351 . S
C100 N101 1.373 . S
C100 H128 0.930 . S
N101 C100 1.373 . S
N101 C103 1.340 . S
N102 C99 1.368 . S
N102 C103 1.321 . S
N102 Co105 2.135 . S
C103 N101 1.340 . S
C103 N102 1.321 . S
C103 H127 0.930 . S
H104 C99 0.931 . S
Co105 N102 2.135 . S
Co105 N108 2.121 . S
Co105 O113 2.055 . S
Co105 O116 2.039 . S
Co105 N119 2.140 . S
C106 O107 1.227 . S
C106 O116 1.265 . S
O107 C106 1.227 . S
N108 Co105 2.121 . S
N108 C110 1.375 . S
N108 C111 1.313 . S
C109 C110 1.338 . S
C109 N112 1.377 . S
C109 H129 0.930 . S
C110 N108 1.375 . S
C110 C109 1.338 . S
C110 H114 0.931 . S
C111 N108 1.313 . S
C111 N112 1.344 . S
C111 H115 0.930 . S
N112 C109 1.377 . S
N112 C111 1.344 . S
O113 Co105 2.055 . S
O113 C117 1.253 . S
H114 C110 0.931 . S
H115 C111 0.930 . S
O116 Co105 2.039 . S
O116 C106 1.265 . S
C117 O113 1.253 . S
C117 O118 1.227 . S
O118 C117 1.227 . S
N119 Co105 2.140 . S
N119 C122 1.346 . S
N119 C123 1.345 . S
C120 C121 1.387 . S
C120 C124 1.391 . S
C121 C120 1.387 . S
C121 C122 1.369 . S
C121 H130 0.929 . S
C122 N119 1.346 . S
C122 C121 1.369 . S
C122 H125 0.928 . S
C123 N119 1.345 . S
C123 C124 1.371 . S
C123 H126 0.931 . S
C124 C120 1.391 . S
C124 C123 1.371 . S
C124 H131 0.930 . S
H125 C122 0.928 . S
H126 C123 0.931 . S
H127 C103 0.930 . S
H128 C100 0.930 . S
H129 C109 0.930 . S
H130 C121 0.929 . S
H131 C124 0.930 . S
H132 C150 0.951 . S
H133 C152 0.951 . S
H134 C154 0.950 . S
H135 C155 0.950 . S
H136 C157 0.950 . S
H137 C160 0.950 . S
H138 C161 0.950 1_455 S
H139 C163 0.950 . S
H140 C164 0.950 . S
H141 C165 0.951 . S
H142 C167 0.951 . S
H143 C169 0.950 . S
H144 C170 0.950 . S
H145 C172 0.950 . S
H146 C175 0.950 . S
H147 C176 0.950 . S
H148 C178 0.950 . S
H149 C179 0.950 . S
C150 H132 0.951 . S
C150 C151 1.366 1_645 S
C150 C152 1.388 . S
C151 C150 1.366 1_465 S
C151 C155 1.385 . S
C152 H133 0.951 . S
C152 C150 1.388 . S
C152 C153 1.366 1_655 S
C153 C152 1.366 1_455 S
C153 C154 1.414 1_545 S
C153 C156 1.499 . S
C154 H134 0.950 . S
C154 C153 1.414 1_565 S
C154 C155 1.374 . S
C155 H135 0.950 . S
C155 C151 1.385 . S
C155 C154 1.374 . S
C156 C153 1.499 . S
C156 C157 1.373 1_545 S
C156 C158 1.391 . S
C157 H136 0.950 . S
C157 C156 1.373 1_565 S
C157 C173 1.377 . S
C158 C156 1.391 . S
C158 C159 1.523 1_455 S
C158 C172 1.376 1_455 S
C159 C158 1.523 1_655 S
C159 C160 1.397 1_655 S
C159 C164 1.363 . S
C160 H137 0.950 . S
C160 C159 1.397 1_455 S
C160 C161 1.334 1_455 S
C161 H138 0.950 1_655 S
C161 C160 1.334 1_655 S
C161 C162 1.287 . S
C162 C161 1.287 . S
C162 C163 1.524 . S
C162 H181 0.913 . S
C163 H139 0.950 . S
C163 C162 1.524 . S
C163 C164 1.415 . S
C164 H140 0.950 . S
C164 C159 1.363 . S
C164 C163 1.415 . S
C165 H141 0.951 . S
C165 C166 1.366 . S
C165 C167 1.388 . S
C166 C165 1.366 . S
C166 C170 1.385 1_465 S
C167 H142 0.951 . S
C167 C165 1.388 . S
C167 C168 1.366 . S
C168 C167 1.366 . S
C168 C169 1.414 1_465 S
C168 C171 1.499 . S
C169 H143 0.950 . S
C169 C168 1.414 1_645 S
C169 C170 1.374 . S
C170 H144 0.950 . S
C170 C166 1.385 1_645 S
C170 C169 1.374 . S
C171 C168 1.499 . S
C171 C172 1.373 1_465 S
C171 C173 1.389 . S
C172 H145 0.950 . S
C172 C158 1.376 1_655 S
C172 C171 1.373 1_645 S
C173 C157 1.377 . S
C173 C171 1.389 . S
C173 C174 1.524 . S
C174 C173 1.524 . S
C174 C175 1.397 . S
C174 C179 1.363 . S
C175 H146 0.950 . S
C175 C174 1.397 . S
C175 C176 1.334 . S
C176 H147 0.950 . S
C176 C175 1.334 . S
C176 C177 1.287 . S
C177 C176 1.287 . S
C177 C178 1.524 . S
C177 H180 0.999 . S
C178 H148 0.950 . S
C178 C177 1.524 . S
C178 C179 1.415 . S
C179 H149 0.950 . S
C179 C174 1.363 . S
C179 C178 1.415 . S
H180 C177 0.999 . S
H181 C162 0.913 . S
H182 C200 0.951 . S
H183 C202 0.951 . S
H184 C204 0.950 . S
H185 C205 0.950 . S
H186 C207 0.950 . S
H187 C210 0.950 . S
H188 C211 0.950 . S
H189 C213 0.950 . S
H190 C214 0.950 . S
H191 C215 0.951 . S
H192 C217 0.951 . S
H193 C219 0.950 . S
H194 C220 0.950 . S
H195 C222 0.950 . S
H196 C225 0.950 . S
H197 C226 0.950 . S
H198 C228 0.950 . S
H199 C229 0.950 . S
C200 H182 0.951 . S
C200 C201 1.366 . S
C200 C202 1.388 . S
C201 C200 1.366 . S
C201 C205 1.385 . S
C202 H183 0.951 . S
C202 C200 1.388 . S
C202 C203 1.366 . S
C203 C202 1.366 . S
C203 C204 1.414 . S
C203 C206 1.499 . S
C204 H184 0.950 . S
C204 C203 1.414 . S
C204 C205 1.374 . S
C205 H185 0.950 . S
C205 C201 1.385 . S
C205 C204 1.374 . S
C206 C203 1.499 . S
C206 C207 1.373 . S
C206 C208 1.389 . S
C207 H186 0.950 . S
C207 C206 1.373 . S
C207 C223 1.377 1_554 S
C208 C206 1.389 . S
C208 C209 1.524 . S
C208 C222 1.377 1_554 S
C209 C208 1.524 . S
C209 C210 1.397 . S
C209 C214 1.363 . S
C210 H187 0.950 . S
C210 C209 1.397 . S
C210 C211 1.334 . S
C211 H188 0.950 . S
C211 C210 1.334 . S
C211 C212 1.287 . S
C212 C211 1.287 . S
C212 C213 1.524 . S
C212 H231 0.913 . S
C213 H189 0.950 . S
C213 C212 1.524 . S
C213 C214 1.415 . S
C214 H190 0.950 . S
C214 C209 1.363 . S
C214 C213 1.415 . S
C215 H191 0.951 . S
C215 C216 1.366 . S
C215 C217 1.388 . S
C216 C215 1.366 . S
C216 C220 1.385 . S
C217 H192 0.951 . S
C217 C215 1.388 . S
C217 C218 1.366 . S
C218 C217 1.366 . S
C218 C219 1.414 . S
C218 C221 1.499 . S
C219 H193 0.950 . S
C219 C218 1.414 . S
C219 C220 1.374 . S
C220 H194 0.950 . S
C220 C216 1.385 . S
C220 C219 1.374 . S
C221 C218 1.499 . S
C221 C222 1.373 . S
C221 C223 1.389 . S
C222 H195 0.950 . S
C222 C208 1.377 1_556 S
C222 C221 1.373 . S
C223 C207 1.377 1_556 S
C223 C221 1.389 . S
C223 C224 1.524 . S
C224 C223 1.524 . S
C224 C225 1.397 . S
C224 C229 1.363 . S
C225 H196 0.950 . S
C225 C224 1.397 . S
C225 C226 1.334 . S
C226 H197 0.950 . S
C226 C225 1.334 . S
C226 C227 1.287 . S
C227 C226 1.287 . S
C227 C228 1.524 . S
C227 H230 0.999 . S
C228 H198 0.950 . S
C228 C227 1.524 . S
C228 C229 1.415 . S
C229 H199 0.950 . S
C229 C224 1.363 . S
C229 C228 1.415 . S
H230 C227 0.999 . S
H231 C212 0.913 . S
H232 C250 0.951 . S
H233 C252 0.951 . S
H234 C254 0.950 . S
H235 C255 0.950 . S
H236 C257 0.950 . S
H237 C260 0.950 . S
H238 C261 0.950 . S
H239 C263 0.950 . S
H240 C264 0.950 . S
H241 C265 0.951 . S
H242 C267 0.951 . S
H243 C269 0.950 . S
H244 C270 0.950 . S
H245 C272 0.950 . S
H246 C275 0.950 . S
H247 C276 0.950 . S
H248 C278 0.950 . S
H249 C279 0.950 . S
C250 H232 0.951 . S
C250 C251 1.366 . S
C250 C252 1.388 . S
C251 C250 1.366 . S
C251 C255 1.385 . S
C252 H233 0.951 . S
C252 C250 1.388 . S
C252 C253 1.366 . S
C253 C252 1.366 . S
C253 C254 1.414 . S
C253 C256 1.499 . S
C254 H234 0.950 . S
C254 C253 1.414 . S
C254 C255 1.374 . S
C255 H235 0.950 . S
C255 C251 1.385 . S
C255 C254 1.374 . S
C256 C253 1.499 . S
C256 C257 1.373 . S
C256 C258 1.389 . S
C257 H236 0.950 . S
C257 C256 1.373 . S
C257 C273 1.377 . S
C258 C256 1.389 . S
C258 C259 1.524 . S
C258 C272 1.377 . S
C259 C258 1.524 . S
C259 C260 1.397 . S
C259 C264 1.363 . S
C260 H237 0.950 . S
C260 C259 1.397 . S
C260 C261 1.334 . S
C261 H238 0.950 . S
C261 C260 1.334 . S
C261 C262 1.287 . S
C262 C261 1.287 . S
C262 C263 1.524 . S
C262 H281 0.913 . S
C263 H239 0.950 . S
C263 C262 1.524 . S
C263 C264 1.415 . S
C264 H240 0.950 . S
C264 C259 1.363 . S
C264 C263 1.415 . S
C265 H241 0.951 . S
C265 C266 1.366 . S
C265 C267 1.388 . S
C266 C265 1.366 . S
C266 C270 1.385 . S
C267 H242 0.951 . S
C267 C265 1.388 . S
C267 C268 1.366 . S
C268 C267 1.366 . S
C268 C269 1.414 . S
C268 C271 1.499 . S
C269 H243 0.950 . S
C269 C268 1.414 . S
C269 C270 1.374 . S
C270 H244 0.950 . S
C270 C266 1.385 . S
C270 C269 1.374 . S
C271 C268 1.499 . S
C271 C272 1.373 . S
C271 C273 1.389 . S
C272 H245 0.950 . S
C272 C258 1.377 . S
C272 C271 1.373 . S
C273 C257 1.377 . S
C273 C271 1.389 . S
C273 C274 1.524 . S
C274 C273 1.524 . S
C274 C275 1.397 . S
C274 C279 1.363 . S
C275 H246 0.950 . S
C275 C274 1.397 . S
C275 C276 1.334 . S
C276 H247 0.950 . S
C276 C275 1.334 . S
C276 C277 1.287 . S
C277 C276 1.287 . S
C277 C278 1.524 . S
C277 H280 0.999 . S
C278 H248 0.950 . S
C278 C277 1.524 . S
C278 C279 1.415 . S
C279 H249 0.950 . S
C279 C274 1.363 . S
C279 C278 1.415 . S
H280 C277 0.999 . S
H281 C262 0.913 . S
H282 C300 0.951 . S
H283 C302 0.951 . S
H284 C304 0.950 . S
H285 C305 0.950 . S
H286 C307 0.950 . S
H287 C310 0.950 . S
H288 C311 0.950 . S
H289 C313 0.950 . S
H290 C314 0.950 . S
H291 C315 0.951 . S
H292 C317 0.951 . S
H293 C319 0.950 . S
H294 C320 0.950 . S
H295 C322 0.950 . S
H296 C325 0.950 . S
H297 C326 0.950 . S
H298 C328 0.950 . S
H299 C329 0.950 . S
C300 H282 0.951 . S
C300 C301 1.366 . S
C300 C302 1.388 . S
C301 C300 1.366 . S
C301 C305 1.385 . S
C302 H283 0.951 . S
C302 C300 1.388 . S
C302 C303 1.366 . S
C303 C302 1.366 . S
C303 C304 1.414 . S
C303 C306 1.499 . S
C304 H284 0.950 . S
C304 C303 1.414 . S
C304 C305 1.374 . S
C305 H285 0.950 . S
C305 C301 1.385 . S
C305 C304 1.374 . S
C306 C303 1.499 . S
C306 C307 1.373 . S
C306 C308 1.389 . S
C307 H286 0.950 . S
C307 C306 1.373 . S
C307 C323 1.377 . S
C308 C306 1.389 . S
C308 C309 1.524 . S
C308 C322 1.377 . S
C309 C308 1.524 . S
C309 C310 1.397 . S
C309 C314 1.363 . S
C310 H287 0.950 . S
C310 C309 1.397 . S
C310 C311 1.334 . S
C311 H288 0.950 . S
C311 C310 1.334 . S
C311 C312 1.287 . S
C312 C311 1.287 . S
C312 C313 1.524 . S
C312 H331 0.913 . S
C313 H289 0.950 . S
C313 C312 1.524 . S
C313 C314 1.415 . S
C314 H290 0.950 . S
C314 C309 1.363 . S
C314 C313 1.415 . S
C315 H291 0.951 . S
C315 C316 1.366 . S
C315 C317 1.388 . S
C316 C315 1.366 . S
C316 C320 1.385 . S
C317 H292 0.951 . S
C317 C315 1.388 . S
C317 C318 1.366 . S
C318 C317 1.366 . S
C318 C319 1.414 . S
C318 C321 1.499 . S
C319 H293 0.950 . S
C319 C318 1.414 . S
C319 C320 1.374 . S
C320 H294 0.950 . S
C320 C316 1.385 . S
C320 C319 1.374 . S
C321 C318 1.499 . S
C321 C322 1.373 . S
C321 C323 1.389 . S
C322 H295 0.950 . S
C322 C308 1.377 . S
C322 C321 1.373 . S
C323 C307 1.377 . S
C323 C321 1.389 . S
C323 C324 1.524 . S
C324 C323 1.524 . S
C324 C325 1.397 . S
C324 C329 1.363 . S
C325 H296 0.950 . S
C325 C324 1.397 . S
C325 C326 1.334 . S
C326 H297 0.950 . S
C326 C325 1.334 . S
C326 C327 1.287 . S
C327 C326 1.287 . S
C327 C328 1.524 . S
C327 H330 0.999 . S
C328 H298 0.950 . S
C328 C327 1.524 . S
C328 C329 1.415 . S
C329 H299 0.950 . S
C329 C324 1.363 . S
C329 C328 1.415 . S
H330 C327 0.999 . S
H331 C312 0.913 . S
H332 C350 0.951 . S
H333 C352 0.951 . S
H334 C354 0.950 . S
H335 C355 0.950 . S
H336 C357 0.950 . S
H337 C360 0.950 . S
H338 C361 0.950 . S
H339 C363 0.950 . S
H340 C364 0.950 . S
H341 C365 0.951 . S
H342 C367 0.951 . S
H343 C369 0.950 . S
H344 C370 0.950 . S
H345 C372 0.950 . S
H346 C375 0.950 . S
H347 C376 0.950 . S
H348 C378 0.950 . S
H349 C379 0.950 . S
C350 H332 0.951 . S
C350 C351 1.366 . S
C350 C352 1.388 . S
C351 C350 1.366 . S
C351 C355 1.385 . S
C352 H333 0.951 . S
C352 C350 1.388 . S
C352 C353 1.366 . S
C353 C352 1.366 . S
C353 C354 1.414 . S
C353 C356 1.499 . S
C354 H334 0.950 . S
C354 C353 1.414 . S
C354 C355 1.374 . S
C355 H335 0.950 . S
C355 C351 1.385 . S
C355 C354 1.374 . S
C356 C353 1.499 . S
C356 C357 1.373 . S
C356 C358 1.389 . S
C357 H336 0.950 . S
C357 C356 1.373 . S
C357 C373 1.377 . S
C358 C356 1.389 . S
C358 C359 1.524 . S
C358 C372 1.377 . S
C359 C358 1.524 . S
C359 C360 1.397 . S
C359 C364 1.363 . S
C360 H337 0.950 . S
C360 C359 1.397 . S
C360 C361 1.334 . S
C361 H338 0.950 . S
C361 C360 1.334 . S
C361 C362 1.287 . S
C362 C361 1.287 . S
C362 C363 1.524 . S
C362 H381 0.913 . S
C363 H339 0.950 . S
C363 C362 1.524 . S
C363 C364 1.415 . S
C364 H340 0.950 . S
C364 C359 1.363 . S
C364 C363 1.415 . S
C365 H341 0.951 . S
C365 C366 1.366 . S
C365 C367 1.388 . S
C366 C365 1.366 . S
C366 C370 1.385 . S
C367 H342 0.951 . S
C367 C365 1.388 . S
C367 C368 1.366 . S
C368 C367 1.366 . S
C368 C369 1.414 . S
C368 C371 1.499 . S
C369 H343 0.950 . S
C369 C368 1.414 . S
C369 C370 1.374 . S
C370 H344 0.950 . S
C370 C366 1.385 . S
C370 C369 1.374 . S
C371 C368 1.499 . S
C371 C372 1.373 . S
C371 C373 1.389 . S
C372 H345 0.950 . S
C372 C358 1.377 . S
C372 C371 1.373 . S
C373 C357 1.377 . S
C373 C371 1.389 . S
C373 C374 1.524 . S
C374 C373 1.524 . S
C374 C375 1.397 . S
C374 C379 1.363 . S
C375 H346 0.950 . S
C375 C374 1.397 . S
C375 C376 1.334 . S
C376 H347 0.950 . S
C376 C375 1.334 . S
C376 C377 1.287 . S
C377 C376 1.287 . S
C377 C378 1.524 . S
C377 H380 0.999 . S
C378 H348 0.950 . S
C378 C377 1.524 . S
C378 C379 1.415 . S
C379 H349 0.950 . S
C379 C374 1.363 . S
C379 C378 1.415 . S
H380 C377 0.999 . S
H381 C362 0.913 . S
H382 C400 0.951 . S
H383 C402 0.951 . S
H384 C404 0.950 . S
H385 C405 0.950 . S
H386 C407 0.950 . S
H387 C410 0.950 . S
H388 C411 0.950 . S
H389 C413 0.950 . S
H390 C414 0.950 . S
H391 C415 0.951 . S
H392 C417 0.951 . S
H393 C419 0.950 . S
H394 C420 0.950 . S
H395 C422 0.950 . S
H396 C425 0.950 . S
H397 C426 0.950 . S
H398 C428 0.950 . S
H399 C429 0.950 . S
C400 H382 0.951 . S
C400 C401 1.366 . S
C400 C402 1.388 . S
C401 C400 1.366 . S
C401 C405 1.385 . S
C402 H383 0.951 . S
C402 C400 1.388 . S
C402 C403 1.366 . S
C403 C402 1.366 . S
C403 C404 1.414 . S
C403 C406 1.499 . S
C404 H384 0.950 . S
C404 C403 1.414 . S
C404 C405 1.374 . S
C405 H385 0.950 . S
C405 C401 1.385 . S
C405 C404 1.374 . S
C406 C403 1.499 . S
C406 C407 1.373 . S
C406 C408 1.389 . S
C407 H386 0.950 . S
C407 C406 1.373 . S
C407 C423 1.377 . S
C408 C406 1.389 . S
C408 C409 1.524 . S
C408 C422 1.377 . S
C409 C408 1.524 . S
C409 C410 1.397 . S
C409 C414 1.363 . S
C410 H387 0.950 . S
C410 C409 1.397 . S
C410 C411 1.334 . S
C411 H388 0.950 . S
C411 C410 1.334 . S
C411 C412 1.287 . S
C412 C411 1.287 . S
C412 C413 1.524 . S
C412 H431 0.913 . S
C413 H389 0.950 . S
C413 C412 1.524 . S
C413 C414 1.415 . S
C414 H390 0.950 . S
C414 C409 1.363 . S
C414 C413 1.415 . S
C415 H391 0.951 . S
C415 C416 1.366 . S
C415 C417 1.388 . S
C416 C415 1.366 . S
C416 C420 1.385 . S
C417 H392 0.951 . S
C417 C415 1.388 . S
C417 C418 1.366 . S
C418 C417 1.366 . S
C418 C419 1.414 . S
C418 C421 1.499 . S
C419 H393 0.950 . S
C419 C418 1.414 . S
C419 C420 1.374 . S
C420 H394 0.950 . S
C420 C416 1.385 . S
C420 C419 1.374 . S
C421 C418 1.499 . S
C421 C422 1.373 . S
C421 C423 1.389 . S
C422 H395 0.950 . S
C422 C408 1.377 . S
C422 C421 1.373 . S
C423 C407 1.377 . S
C423 C421 1.389 . S
C423 C424 1.524 . S
C424 C423 1.524 . S
C424 C425 1.397 . S
C424 C429 1.363 . S
C425 H396 0.950 . S
C425 C424 1.397 . S
C425 C426 1.334 . S
C426 H397 0.950 . S
C426 C425 1.334 . S
C426 C427 1.287 . S
C427 C426 1.287 . S
C427 C428 1.524 . S
C427 H430 0.999 . S
C428 H398 0.950 . S
C428 C427 1.524 . S
C428 C429 1.415 . S
C429 H399 0.950 . S
C429 C424 1.363 . S
C429 C428 1.415 . S
H430 C427 0.999 . S
H431 C412 0.913 . S
H432 C450 0.951 . S
H433 C452 0.951 . S
H434 C454 0.950 . S
H435 C455 0.950 . S
H436 C457 0.950 . S
H437 C460 0.950 . S
H438 C461 0.950 . S
H439 C463 0.950 . S
H440 C464 0.950 . S
H441 C465 0.951 . S
H442 C467 0.951 . S
H443 C469 0.950 . S
H444 C470 0.950 . S
H445 C472 0.950 . S
H446 C475 0.950 . S
H447 C476 0.950 . S
H448 C478 0.950 . S
H449 C479 0.950 . S
C450 H432 0.951 . S
C450 C451 1.366 . S
C450 C452 1.388 . S
C451 C450 1.366 . S
C451 C455 1.385 . S
C452 H433 0.951 . S
C452 C450 1.388 . S
C452 C453 1.366 . S
C453 C452 1.366 . S
C453 C454 1.414 . S
C453 C456 1.499 . S
C454 H434 0.950 . S
C454 C453 1.414 . S
C454 C455 1.374 . S
C455 H435 0.950 . S
C455 C451 1.385 . S
C455 C454 1.374 . S
C456 C453 1.499 . S
C456 C457 1.373 . S
C456 C458 1.389 . S
C457 H436 0.950 . S
C457 C456 1.373 . S
C457 C473 1.377 . S
C458 C456 1.389 . S
C458 C459 1.524 . S
C458 C472 1.377 . S
C459 C458 1.524 . S
C459 C460 1.397 . S
C459 C464 1.363 . S
C460 H437 0.950 . S
C460 C459 1.397 . S
C460 C461 1.334 . S
C461 H438 0.950 . S
C461 C460 1.334 . S
C461 C462 1.287 . S
C462 C461 1.287 . S
C462 C463 1.524 . S
C462 H481 0.913 . S
C463 H439 0.950 . S
C463 C462 1.524 . S
C463 C464 1.415 . S
C464 H440 0.950 . S
C464 C459 1.363 . S
C464 C463 1.415 . S
C465 H441 0.951 . S
C465 C466 1.366 . S
C465 C467 1.388 . S
C466 C465 1.366 . S
C466 C470 1.385 . S
C467 H442 0.951 . S
C467 C465 1.388 . S
C467 C468 1.366 . S
C468 C467 1.366 . S
C468 C469 1.414 . S
C468 C471 1.499 . S
C469 H443 0.950 . S
C469 C468 1.414 . S
C469 C470 1.374 . S
C470 H444 0.950 . S
C470 C466 1.385 . S
C470 C469 1.374 . S
C471 C468 1.499 . S
C471 C472 1.373 . S
C471 C473 1.389 . S
C472 H445 0.950 . S
C472 C458 1.377 . S
C472 C471 1.373 . S
C473 C457 1.377 . S
C473 C471 1.389 . S
C473 C474 1.524 . S
C474 C473 1.524 . S
C474 C475 1.397 . S
C474 C479 1.363 . S
C475 H446 0.950 . S
C475 C474 1.397 . S
C475 C476 1.334 . S
C476 H447 0.950 . S
C476 C475 1.334 . S
C476 C477 1.287 . S
C477 C476 1.287 . S
C477 C478 1.524 . S
C477 H480 0.999 1_565 S
C478 H448 0.950 . S
C478 C477 1.524 . S
C478 C479 1.415 . S
C479 H449 0.950 . S
C479 C474 1.363 . S
C479 C478 1.415 . S
H480 C477 0.999 1_545 S
H481 C462 0.913 . S
H482 C500 0.951 . S
H483 C502 0.951 . S
H484 C504 0.950 . S
H485 C505 0.950 . S
H486 C507 0.950 . S
H487 C510 0.950 . S
H488 C511 0.950 . S
H489 C513 0.950 . S
H490 C514 0.950 . S
H491 C515 0.951 . S
H492 C517 0.951 . S
H493 C519 0.950 . S
H494 C520 0.950 . S
H495 C522 0.950 . S
H496 C525 0.950 . S
H497 C526 0.950 . S
H498 C528 0.950 . S
H499 C529 0.950 . S
C500 H482 0.951 . S
C500 C501 1.366 . S
C500 C502 1.388 . S
C501 C500 1.366 . S
C501 C505 1.385 . S
C502 H483 0.951 . S
C502 C500 1.388 . S
C502 C503 1.366 . S
C503 C502 1.366 . S
C503 C504 1.414 . S
C503 C506 1.499 . S
C504 H484 0.950 . S
C504 C503 1.414 . S
C504 C505 1.374 . S
C505 H485 0.950 . S
C505 C501 1.385 . S
C505 C504 1.374 . S
C506 C503 1.499 . S
C506 C507 1.373 . S
C506 C508 1.389 . S
C507 H486 0.950 . S
C507 C506 1.373 . S
C507 C523 1.377 . S
C508 C506 1.389 . S
C508 C509 1.524 . S
C508 C522 1.377 . S
C509 C508 1.524 . S
C509 C510 1.397 . S
C509 C514 1.363 . S
C510 H487 0.950 . S
C510 C509 1.397 . S
C510 C511 1.334 . S
C511 H488 0.950 . S
C511 C510 1.334 . S
C511 C512 1.287 . S
C512 C511 1.287 . S
C512 C513 1.524 . S
C512 H531 0.913 . S
C513 H489 0.950 . S
C513 C512 1.524 . S
C513 C514 1.415 . S
C514 H490 0.950 . S
C514 C509 1.363 . S
C514 C513 1.415 . S
C515 H491 0.951 . S
C515 C516 1.366 . S
C515 C517 1.388 . S
C516 C515 1.366 . S
C516 C520 1.385 . S
C517 H492 0.951 . S
C517 C515 1.388 . S
C517 C518 1.366 . S
C518 C517 1.366 . S
C518 C519 1.414 . S
C518 C521 1.499 . S
C519 H493 0.950 . S
C519 C518 1.414 . S
C519 C520 1.374 . S
C520 H494 0.950 . S
C520 C516 1.385 . S
C520 C519 1.374 . S
C521 C518 1.499 . S
C521 C522 1.373 . S
C521 C523 1.389 . S
C522 H495 0.950 . S
C522 C508 1.377 . S
C522 C521 1.373 . S
C523 C507 1.377 . S
C523 C521 1.389 . S
C523 C524 1.524 . S
C524 C523 1.524 . S
C524 C525 1.397 . S
C524 C529 1.363 . S
C525 H496 0.950 . S
C525 C524 1.397 . S
C525 C526 1.334 . S
C526 H497 0.950 . S
C526 C525 1.334 . S
C526 C527 1.287 . S
C527 C526 1.287 . S
C527 C528 1.524 . S
C527 H530 0.999 . S
C528 H498 0.950 . S
C528 C527 1.524 . S
C528 C529 1.415 . S
C529 H499 0.950 . S
C529 C524 1.363 . S
C529 C528 1.415 . S
H530 C527 0.999 . S
H531 C512 0.913 . S
H532 C550 0.951 . S
H533 C552 0.951 . S
H534 C554 0.950 . S
H535 C555 0.950 . S
H536 C557 0.950 . S
H537 C560 0.950 . S
H538 C561 0.950 . S
H539 C563 0.950 . S
H540 C564 0.950 . S
H541 C565 0.951 . S
H542 C567 0.951 . S
H543 C569 0.950 . S
H544 C570 0.950 . S
H545 C572 0.950 . S
H546 C575 0.950 . S
H547 C576 0.950 . S
H548 C578 0.950 . S
H549 C579 0.950 . S
C550 H532 0.951 . S
C550 C551 1.366 . S
C550 C552 1.388 . S
C551 C550 1.366 . S
C551 C555 1.385 . S
C552 H533 0.951 . S
C552 C550 1.388 . S
C552 C553 1.366 . S
C553 C552 1.366 . S
C553 C554 1.414 . S
C553 C556 1.499 . S
C554 H534 0.950 . S
C554 C553 1.414 . S
C554 C555 1.374 . S
C555 H535 0.950 . S
C555 C551 1.385 . S
C555 C554 1.374 . S
C556 C553 1.499 . S
C556 C557 1.373 . S
C556 C558 1.389 . S
C557 H536 0.950 . S
C557 C556 1.373 . S
C557 C573 1.377 . S
C558 C556 1.389 . S
C558 C559 1.524 . S
C558 C572 1.377 . S
C559 C558 1.524 . S
C559 C560 1.397 . S
C559 C564 1.363 . S
C560 H537 0.950 . S
C560 C559 1.397 . S
C560 C561 1.334 . S
C561 H538 0.950 . S
C561 C560 1.334 . S
C561 C562 1.287 . S
C562 C561 1.287 . S
C562 C563 1.524 . S
C562 H581 0.913 . S
C563 H539 0.950 . S
C563 C562 1.524 . S
C563 C564 1.415 . S
C564 H540 0.950 . S
C564 C559 1.363 . S
C564 C563 1.415 . S
C565 H541 0.951 . S
C565 C566 1.366 . S
C565 C567 1.388 . S
C566 C565 1.366 . S
C566 C570 1.385 . S
C567 H542 0.951 . S
C567 C565 1.388 . S
C567 C568 1.366 . S
C568 C567 1.366 . S
C568 C569 1.414 . S
C568 C571 1.499 . S
C569 H543 0.950 . S
C569 C568 1.414 . S
C569 C570 1.374 . S
C570 H544 0.950 . S
C570 C566 1.385 . S
C570 C569 1.374 . S
C571 C568 1.499 . S
C571 C572 1.373 . S
C571 C573 1.389 . S
C572 H545 0.950 . S
C572 C558 1.377 . S
C572 C571 1.373 . S
C573 C557 1.377 . S
C573 C571 1.389 . S
C573 C574 1.524 . S
C574 C573 1.524 . S
C574 C575 1.397 . S
C574 C579 1.363 . S
C575 H546 0.950 . S
C575 C574 1.397 . S
C575 C576 1.334 . S
C576 H547 0.950 . S
C576 C575 1.334 . S
C576 C577 1.287 . S
C577 C576 1.287 . S
C577 C578 1.524 . S
C577 H580 0.999 . S
C578 H548 0.950 . S
C578 C577 1.524 . S
C578 C579 1.415 . S
C579 H549 0.950 . S
C579 C574 1.363 . S
C579 C578 1.415 . S
H580 C577 0.999 . S
H581 C562 0.913 . S
H582 C600 0.951 . S
H583 C602 0.951 . S
H584 C604 0.950 . S
H585 C605 0.950 . S
H586 C607 0.950 . S
H587 C610 0.950 . S
H588 C611 0.950 . S
H589 C613 0.950 . S
H590 C614 0.950 . S
H591 C615 0.951 . S
H592 C617 0.951 . S
H593 C619 0.950 . S
H594 C620 0.950 . S
H595 C622 0.950 . S
H596 C625 0.950 . S
H597 C626 0.950 . S
H598 C628 0.950 . S
H599 C629 0.950 . S
C600 H582 0.951 . S
C600 C601 1.366 . S
C600 C602 1.388 . S
C601 C600 1.366 . S
C601 C605 1.385 . S
C602 H583 0.951 . S
C602 C600 1.388 . S
C602 C603 1.366 . S
C603 C602 1.366 . S
C603 C604 1.414 . S
C603 C606 1.499 . S
C604 H584 0.950 . S
C604 C603 1.414 . S
C604 C605 1.374 . S
C605 H585 0.950 . S
C605 C601 1.385 . S
C605 C604 1.374 . S
C606 C603 1.499 . S
C606 C607 1.373 . S
C606 C608 1.389 . S
C607 H586 0.950 . S
C607 C606 1.373 . S
C607 C623 1.377 . S
C608 C606 1.389 . S
C608 C609 1.524 . S
C608 C622 1.377 . S
C609 C608 1.524 . S
C609 C610 1.397 . S
C609 C614 1.363 . S
C610 H587 0.950 . S
C610 C609 1.397 . S
C610 C611 1.334 . S
C611 H588 0.950 . S
C611 C610 1.334 . S
C611 C612 1.287 . S
C612 C611 1.287 . S
C612 C613 1.524 . S
C612 H631 0.913 . S
C613 H589 0.950 . S
C613 C612 1.524 . S
C613 C614 1.415 . S
C614 H590 0.950 . S
C614 C609 1.363 . S
C614 C613 1.415 . S
C615 H591 0.951 . S
C615 C616 1.366 . S
C615 C617 1.388 . S
C616 C615 1.366 . S
C616 C620 1.385 . S
C617 H592 0.951 . S
C617 C615 1.388 . S
C617 C618 1.366 . S
C618 C617 1.366 . S
C618 C619 1.414 . S
C618 C621 1.499 . S
C619 H593 0.950 . S
C619 C618 1.414 . S
C619 C620 1.374 . S
C620 H594 0.950 . S
C620 C616 1.385 . S
C620 C619 1.374 . S
C621 C618 1.499 . S
C621 C622 1.373 . S
C621 C623 1.389 . S
C622 H595 0.950 . S
C622 C608 1.377 . S
C622 C621 1.373 . S
C623 C607 1.377 . S
C623 C621 1.389 . S
C623 C624 1.524 . S
C624 C623 1.524 . S
C624 C625 1.397 . S
C624 C629 1.363 . S
C625 H596 0.950 . S
C625 C624 1.397 . S
C625 C626 1.334 . S
C626 H597 0.950 . S
C626 C625 1.334 . S
C626 C627 1.287 . S
C627 C626 1.287 . S
C627 C628 1.524 . S
C627 H630 0.999 . S
C628 H598 0.950 . S
C628 C627 1.524 . S
C628 C629 1.415 . S
C629 H599 0.950 . S
C629 C624 1.363 . S
C629 C628 1.415 . S
H630 C627 0.999 . S
H631 C612 0.913 . S
C151 C21 1.490 . S
C166 C54 1.490 . S
C201 C120 1.490 . S
C216 C87 1.490 . S
C251 C18 1.523 . S
C266 N112 1.482 . S
C301 N2 1.357 . S
C316 C106 1.399 . S
C351 N101 1.357 . S
C366 C7 1.402 . S
C401 N13 1.483 . S
C416 C117 1.525 . S
C451 N68 1.356 . S
C466 C40 1.402 . S
C501 N35 1.357 . S
C516 C73 1.399 . S
C551 C51 1.523 . S
C566 N79 1.482 . S
C601 C84 1.523 . S
C616 N46 1.484 . S
