# Generated by pormake.
# Topology wlh, (5)-cn, num edge types: 1
# Building blocks:
#     Node 0, Type 0, BuildingBlock: XOMCOT_clean_sbu_0, # of connection points: 5
#     Node 1, Type 0, BuildingBlock: XOMCOT_clean_sbu_0, # of connection points: 5
#     Node 2, Type 0, BuildingBlock: XOMCOT_clean_sbu_0, # of connection points: 5
#     Node 3, Type 0, BuildingBlock: XOMCOT_clean_sbu_0, # of connection points: 5
#     Node 4, Type 0, BuildingBlock: XOMCOT_clean_sbu_0, # of connection points: 5
#     Node 5, Type 0, BuildingBlock: XOMCOT_clean_sbu_0, # of connection points: 5
#     Node 6, Type 0, BuildingBlock: XOMCOT_clean_sbu_0, # of connection points: 5
#     Node 7, Type 0, BuildingBlock: XOMCOT_clean_sbu_0, # of connection points: 5
#     Node 8, Type 0, BuildingBlock: XOMCOT_clean_sbu_0, # of connection points: 5
#     Node 9, Type 0, BuildingBlock: XOMCOT_clean_sbu_0, # of connection points: 5
#     Node 10, Type 0, BuildingBlock: XOMCOT_clean_sbu_0, # of connection points: 5
#     Node 11, Type 0, BuildingBlock: XOMCOT_clean_sbu_0, # of connection points: 5
#     Node 12, Type 0, BuildingBlock: XOMCOT_clean_sbu_0, # of connection points: 5
#     Node 13, Type 0, BuildingBlock: XOMCOT_clean_sbu_0, # of connection points: 5
#     Node 14, Type 0, BuildingBlock: XOMCOT_clean_sbu_0, # of connection points: 5
#     Node 15, Type 0, BuildingBlock: XOMCOT_clean_sbu_0, # of connection points: 5
#     Node 16, Type 0, BuildingBlock: XOMCOT_clean_sbu_0, # of connection points: 5
#     Node 17, Type 0, BuildingBlock: XOMCOT_clean_sbu_0, # of connection points: 5
#     Node 18, Type 0, BuildingBlock: XOMCOT_clean_sbu_0, # of connection points: 5
#     Node 19, Type 0, BuildingBlock: XOMCOT_clean_sbu_0, # of connection points: 5
#     Node 20, Type 0, BuildingBlock: XOMCOT_clean_sbu_0, # of connection points: 5
#     Node 21, Type 0, BuildingBlock: XOMCOT_clean_sbu_0, # of connection points: 5
#     Node 22, Type 0, BuildingBlock: XOMCOT_clean_sbu_0, # of connection points: 5
#     Node 23, Type 0, BuildingBlock: XOMCOT_clean_sbu_0, # of connection points: 5
#     Node 24, Type 0, BuildingBlock: XOMCOT_clean_sbu_0, # of connection points: 5
#     Node 25, Type 0, BuildingBlock: XOMCOT_clean_sbu_0, # of connection points: 5
#     Node 26, Type 0, BuildingBlock: XOMCOT_clean_sbu_0, # of connection points: 5
#     Node 27, Type 0, BuildingBlock: XOMCOT_clean_sbu_0, # of connection points: 5
#     Node 28, Type 0, BuildingBlock: XOMCOT_clean_sbu_0, # of connection points: 5
#     Node 29, Type 0, BuildingBlock: XOMCOT_clean_sbu_0, # of connection points: 5
#     Node 30, Type 0, BuildingBlock: XOMCOT_clean_sbu_0, # of connection points: 5
#     Node 31, Type 0, BuildingBlock: XOMCOT_clean_sbu_0, # of connection points: 5
#     Node 32, Type 0, BuildingBlock: XOMCOT_clean_sbu_0, # of connection points: 5
#     Node 33, Type 0, BuildingBlock: XOMCOT_clean_sbu_0, # of connection points: 5
#     Node 34, Type 0, BuildingBlock: XOMCOT_clean_sbu_0, # of connection points: 5
#     Node 35, Type 0, BuildingBlock: XOMCOT_clean_sbu_0, # of connection points: 5
#     Edge 36, Type (0, 0), BuildingBlock: UVAHIK_clean_linker_0, # of connection points: 2
#     Edge 37, Type (0, 0), BuildingBlock: UVAHIK_clean_linker_0, # of connection points: 2
#     Edge 38, Type (0, 0), BuildingBlock: UVAHIK_clean_linker_0, # of connection points: 2
#     Edge 39, Type (0, 0), BuildingBlock: UVAHIK_clean_linker_0, # of connection points: 2
#     Edge 40, Type (0, 0), BuildingBlock: UVAHIK_clean_linker_0, # of connection points: 2
#     Edge 41, Type (0, 0), BuildingBlock: UVAHIK_clean_linker_0, # of connection points: 2
#     Edge 42, Type (0, 0), BuildingBlock: UVAHIK_clean_linker_0, # of connection points: 2
#     Edge 43, Type (0, 0), BuildingBlock: UVAHIK_clean_linker_0, # of connection points: 2
#     Edge 44, Type (0, 0), BuildingBlock: UVAHIK_clean_linker_0, # of connection points: 2
#     Edge 45, Type (0, 0), BuildingBlock: UVAHIK_clean_linker_0, # of connection points: 2
#     Edge 46, Type (0, 0), BuildingBlock: UVAHIK_clean_linker_0, # of connection points: 2
#     Edge 47, Type (0, 0), BuildingBlock: UVAHIK_clean_linker_0, # of connection points: 2
#     Edge 48, Type (0, 0), BuildingBlock: UVAHIK_clean_linker_0, # of connection points: 2
#     Edge 49, Type (0, 0), BuildingBlock: UVAHIK_clean_linker_0, # of connection points: 2
#     Edge 50, Type (0, 0), BuildingBlock: UVAHIK_clean_linker_0, # of connection points: 2
#     Edge 51, Type (0, 0), BuildingBlock: UVAHIK_clean_linker_0, # of connection points: 2
#     Edge 52, Type (0, 0), BuildingBlock: UVAHIK_clean_linker_0, # of connection points: 2
#     Edge 53, Type (0, 0), BuildingBlock: UVAHIK_clean_linker_0, # of connection points: 2
#     Edge 54, Type (0, 0), BuildingBlock: UVAHIK_clean_linker_0, # of connection points: 2
#     Edge 55, Type (0, 0), BuildingBlock: UVAHIK_clean_linker_0, # of connection points: 2
#     Edge 56, Type (0, 0), BuildingBlock: UVAHIK_clean_linker_0, # of connection points: 2
#     Edge 57, Type (0, 0), BuildingBlock: UVAHIK_clean_linker_0, # of connection points: 2
#     Edge 58, Type (0, 0), BuildingBlock: UVAHIK_clean_linker_0, # of connection points: 2
#     Edge 59, Type (0, 0), BuildingBlock: UVAHIK_clean_linker_0, # of connection points: 2
#     Edge 60, Type (0, 0), BuildingBlock: UVAHIK_clean_linker_0, # of connection points: 2
#     Edge 61, Type (0, 0), BuildingBlock: UVAHIK_clean_linker_0, # of connection points: 2
#     Edge 62, Type (0, 0), BuildingBlock: UVAHIK_clean_linker_0, # of connection points: 2
#     Edge 63, Type (0, 0), BuildingBlock: UVAHIK_clean_linker_0, # of connection points: 2
#     Edge 64, Type (0, 0), BuildingBlock: UVAHIK_clean_linker_0, # of connection points: 2
#     Edge 65, Type (0, 0), BuildingBlock: UVAHIK_clean_linker_0, # of connection points: 2
#     Edge 66, Type (0, 0), BuildingBlock: UVAHIK_clean_linker_0, # of connection points: 2
#     Edge 67, Type (0, 0), BuildingBlock: UVAHIK_clean_linker_0, # of connection points: 2
#     Edge 68, Type (0, 0), BuildingBlock: UVAHIK_clean_linker_0, # of connection points: 2
#     Edge 69, Type (0, 0), BuildingBlock: UVAHIK_clean_linker_0, # of connection points: 2
#     Edge 70, Type (0, 0), BuildingBlock: UVAHIK_clean_linker_0, # of connection points: 2
#     Edge 71, Type (0, 0), BuildingBlock: UVAHIK_clean_linker_0, # of connection points: 2
#     Edge 72, Type (0, 0), BuildingBlock: UVAHIK_clean_linker_0, # of connection points: 2
#     Edge 73, Type (0, 0), BuildingBlock: UVAHIK_clean_linker_0, # of connection points: 2
#     Edge 74, Type (0, 0), BuildingBlock: UVAHIK_clean_linker_0, # of connection points: 2
#     Edge 75, Type (0, 0), BuildingBlock: UVAHIK_clean_linker_0, # of connection points: 2
#     Edge 76, Type (0, 0), BuildingBlock: UVAHIK_clean_linker_0, # of connection points: 2
#     Edge 77, Type (0, 0), BuildingBlock: UVAHIK_clean_linker_0, # of connection points: 2
#     Edge 78, Type (0, 0), BuildingBlock: UVAHIK_clean_linker_0, # of connection points: 2
#     Edge 79, Type (0, 0), BuildingBlock: UVAHIK_clean_linker_0, # of connection points: 2
#     Edge 80, Type (0, 0), BuildingBlock: UVAHIK_clean_linker_0, # of connection points: 2
#     Edge 81, Type (0, 0), BuildingBlock: UVAHIK_clean_linker_0, # of connection points: 2
#     Edge 82, Type (0, 0), BuildingBlock: UVAHIK_clean_linker_0, # of connection points: 2
#     Edge 83, Type (0, 0), BuildingBlock: UVAHIK_clean_linker_0, # of connection points: 2
#     Edge 84, Type (0, 0), BuildingBlock: UVAHIK_clean_linker_0, # of connection points: 2
#     Edge 85, Type (0, 0), BuildingBlock: UVAHIK_clean_linker_0, # of connection points: 2
#     Edge 86, Type (0, 0), BuildingBlock: UVAHIK_clean_linker_0, # of connection points: 2
#     Edge 87, Type (0, 0), BuildingBlock: UVAHIK_clean_linker_0, # of connection points: 2
#     Edge 88, Type (0, 0), BuildingBlock: UVAHIK_clean_linker_0, # of connection points: 2
#     Edge 89, Type (0, 0), BuildingBlock: UVAHIK_clean_linker_0, # of connection points: 2
#     Edge 90, Type (0, 0), BuildingBlock: UVAHIK_clean_linker_0, # of connection points: 2
#     Edge 91, Type (0, 0), BuildingBlock: UVAHIK_clean_linker_0, # of connection points: 2
#     Edge 92, Type (0, 0), BuildingBlock: UVAHIK_clean_linker_0, # of connection points: 2
#     Edge 93, Type (0, 0), BuildingBlock: UVAHIK_clean_linker_0, # of connection points: 2
#     Edge 94, Type (0, 0), BuildingBlock: UVAHIK_clean_linker_0, # of connection points: 2
#     Edge 95, Type (0, 0), BuildingBlock: UVAHIK_clean_linker_0, # of connection points: 2
#     Edge 96, Type (0, 0), BuildingBlock: UVAHIK_clean_linker_0, # of connection points: 2
#     Edge 97, Type (0, 0), BuildingBlock: UVAHIK_clean_linker_0, # of connection points: 2
#     Edge 98, Type (0, 0), BuildingBlock: UVAHIK_clean_linker_0, # of connection points: 2
#     Edge 99, Type (0, 0), BuildingBlock: UVAHIK_clean_linker_0, # of connection points: 2
#     Edge 100, Type (0, 0), BuildingBlock: UVAHIK_clean_linker_0, # of connection points: 2
#     Edge 101, Type (0, 0), BuildingBlock: UVAHIK_clean_linker_0, # of connection points: 2
#     Edge 102, Type (0, 0), BuildingBlock: UVAHIK_clean_linker_0, # of connection points: 2
#     Edge 103, Type (0, 0), BuildingBlock: UVAHIK_clean_linker_0, # of connection points: 2
#     Edge 104, Type (0, 0), BuildingBlock: UVAHIK_clean_linker_0, # of connection points: 2
#     Edge 105, Type (0, 0), BuildingBlock: UVAHIK_clean_linker_0, # of connection points: 2
#     Edge 106, Type (0, 0), BuildingBlock: UVAHIK_clean_linker_0, # of connection points: 2
#     Edge 107, Type (0, 0), BuildingBlock: UVAHIK_clean_linker_0, # of connection points: 2
#     Edge 108, Type (0, 0), BuildingBlock: UVAHIK_clean_linker_0, # of connection points: 2
#     Edge 109, Type (0, 0), BuildingBlock: UVAHIK_clean_linker_0, # of connection points: 2
#     Edge 110, Type (0, 0), BuildingBlock: UVAHIK_clean_linker_0, # of connection points: 2
#     Edge 111, Type (0, 0), BuildingBlock: UVAHIK_clean_linker_0, # of connection points: 2
#     Edge 112, Type (0, 0), BuildingBlock: UVAHIK_clean_linker_0, # of connection points: 2
#     Edge 113, Type (0, 0), BuildingBlock: UVAHIK_clean_linker_0, # of connection points: 2
#     Edge 114, Type (0, 0), BuildingBlock: UVAHIK_clean_linker_0, # of connection points: 2
#     Edge 115, Type (0, 0), BuildingBlock: UVAHIK_clean_linker_0, # of connection points: 2
#     Edge 116, Type (0, 0), BuildingBlock: UVAHIK_clean_linker_0, # of connection points: 2
#     Edge 117, Type (0, 0), BuildingBlock: UVAHIK_clean_linker_0, # of connection points: 2
#     Edge 118, Type (0, 0), BuildingBlock: UVAHIK_clean_linker_0, # of connection points: 2
#     Edge 119, Type (0, 0), BuildingBlock: UVAHIK_clean_linker_0, # of connection points: 2
#     Edge 120, Type (0, 0), BuildingBlock: UVAHIK_clean_linker_0, # of connection points: 2
#     Edge 121, Type (0, 0), BuildingBlock: UVAHIK_clean_linker_0, # of connection points: 2
#     Edge 122, Type (0, 0), BuildingBlock: UVAHIK_clean_linker_0, # of connection points: 2
#     Edge 123, Type (0, 0), BuildingBlock: UVAHIK_clean_linker_0, # of connection points: 2
#     Edge 124, Type (0, 0), BuildingBlock: UVAHIK_clean_linker_0, # of connection points: 2
#     Edge 125, Type (0, 0), BuildingBlock: UVAHIK_clean_linker_0, # of connection points: 2
# Relax obj value: 0.365
# Max RMSD: 0.250
# Mean RMSD: 0.250
data_MOF--net-wlh--node1-XOMCOT_clean_sbu_0--edge1-UVAHIK_clean_linker_0
_symmetry_space_group_name_H-M    P1
_symmetry_Int_Tables_number       1
_symmetry_cell_setting            triclinic
loop_
_symmetry_equiv_pos_as_xyz
'x, y, z'
_cell_length_a     49.757513
_cell_length_b     49.758909
_cell_length_c     188.88728
_cell_angle_alpha  89.995954
_cell_angle_beta   90.00392
_cell_angle_gamma 120.00006
loop_
_atom_site_label
_atom_site_type_symbol
_atom_site_fract_x
_atom_site_fract_y
_atom_site_fract_z
_atom_type_partial_charge
Co0 Co 0.06555 0.26163 0.1932 0.0
C1 C 0.04443 0.30198 0.18683 0.0
C2 C 0.01344 0.25385 0.18446 0.0
C3 C 0.0019 0.27112 0.18141 0.0
N4 N 0.03992 0.27322 0.18788 0.0
N5 N 0.02144 0.30131 0.1829 0.0
H6 H 0.06388 0.32286 0.18895 0.0
H7 H 0.00326 0.22894 0.18416 0.0
C8 C 0.02186 0.20364 0.20078 0.0
O9 O 0.03912 0.21567 0.20645 0.0
N10 N 0.0913 0.24887 0.19833 0.0
C11 C 0.11101 0.26146 0.20385 0.0
C12 C 0.12439 0.24357 0.20528 0.0
C13 C 0.09344 0.22382 0.19646 0.0
N14 N 0.11338 0.22005 0.2006 0.0
C15 C 0.08096 0.30511 0.20468 0.0
C16 C 0.02163 0.27919 0.21013 0.0
C17 C 0.04627 0.30295 0.21391 0.0
C18 C 0.07614 0.31669 0.211 0.0
C19 C 0.02767 0.26799 0.20392 0.0
N20 N 0.05742 0.27923 0.2016 0.0
H21 H 0.1039 0.31642 0.20238 0.0
H22 H 0.00833 0.24991 0.20104 0.0
H23 H 0.11616 0.2822 0.20669 0.0
H24 H 0.08038 0.20847 0.19215 0.0
O25 O 0.1025 0.29795 0.18978 0.0
O26 O 0.07903 0.25201 0.18449 0.0
O27 O 0.02847 0.21932 0.19504 0.0
C28 C 0.10191 0.2805 0.18457 0.0
H29 H 0.98107 0.26225 0.17823 0.0
H30 H 0.14154 0.24803 0.20933 0.0
H31 H 0.99806 0.26854 0.2121 0.0
H32 H 0.09558 0.33595 0.21363 0.0
Co33 Co 0.73168 0.80188 0.19318 0.0
C34 C 0.69257 0.74207 0.18591 0.0
C35 C 0.74033 0.76384 0.18269 0.0
C36 C 0.72387 0.73647 0.17904 0.0
N37 N 0.72073 0.76721 0.187 0.0
N38 N 0.69379 0.72279 0.18104 0.0
H39 H 0.67169 0.73832 0.18856 0.0
H40 H 0.76489 0.7802 0.18222 0.0
C41 C 0.78926 0.81319 0.20058 0.0
O42 O 0.77738 0.81703 0.20645 0.0
N43 N 0.74393 0.83805 0.19918 0.0
C44 C 0.73016 0.84316 0.20478 0.0
C45 C 0.74789 0.87371 0.20685 0.0
C46 C 0.76947 0.86574 0.19789 0.0
N47 N 0.77246 0.88782 0.20247 0.0
C48 C 0.68686 0.76942 0.20419 0.0
C49 C 0.71325 0.73542 0.209 0.0
C50 C 0.68943 0.73536 0.21296 0.0
C51 C 0.67528 0.7516 0.21033 0.0
C52 C 0.72437 0.75396 0.20296 0.0
N53 N 0.71302 0.77286 0.20102 0.0
H54 H 0.67554 0.7815 0.20215 0.0
H55 H 0.74265 0.75361 0.19996 0.0
H56 H 0.70859 0.82671 0.20721 0.0
H57 H 0.78565 0.86959 0.19366 0.0
O58 O 0.69596 0.80428 0.18997 0.0
O59 O 0.74273 0.82871 0.18507 0.0
O60 O 0.77358 0.8059 0.19484 0.0
C61 C 0.71436 0.82341 0.18516 0.0
H62 H 0.73353 0.72726 0.17526 0.0
H63 H 0.74258 0.88491 0.2111 0.0
H64 H 0.72424 0.72246 0.21073 0.0
H65 H 0.65593 0.75108 0.21309 0.0
Co66 Co 0.19353 0.92545 0.19278 0.0
C67 C 0.25795 0.94879 0.18718 0.0
C68 C 0.23507 0.97104 0.18243 0.0
C69 C 0.26394 0.98301 0.17943 0.0
N70 N 0.23164 0.95041 0.1875 0.0
N71 N 0.27821 0.96895 0.18242 0.0
H72 H 0.26214 0.93275 0.19014 0.0
H73 H 0.21746 0.9766 0.18091 0.0
C74 C 0.2056 0.9901 0.19457 0.0
O75 O 0.23457 0.99842 0.19602 0.0
N76 N 0.15502 0.90046 0.19772 0.0
C77 C 0.1488 0.87844 0.20261 0.0
C78 C 0.11794 0.86495 0.20445 0.0
C79 C 0.12812 0.90005 0.1966 0.0
N80 N 0.10499 0.87857 0.20066 0.0
C81 C 0.23545 0.92733 0.20365 0.0
C82 C 0.21796 0.95571 0.21376 0.0
C83 C 0.24072 0.9481 0.21547 0.0
C84 C 0.24943 0.93364 0.21033 0.0
C85 C 0.2049 0.94929 0.20702 0.0
N86 N 0.21466 0.93658 0.20192 0.0
H87 H 0.24023 0.91359 0.20002 0.0
H88 H 0.1861 0.95369 0.206 0.0
H89 H 0.16546 0.87243 0.20464 0.0
H90 H 0.1254 0.91455 0.19272 0.0
O91 O 0.19552 0.88844 0.1908 0.0
O92 O 0.17283 0.90759 0.18395 0.0
O93 O 0.18601 0.96176 0.19315 0.0
C94 C 0.17951 0.88581 0.18512 0.0
H95 H 0.27332 -0.00011 0.17519 0.0
H96 H 0.10603 0.84658 0.20829 0.0
H97 H 0.21003 0.96628 0.21763 0.0
H98 H 0.2659 0.92611 0.21156 0.0
Co99 Co 0.26699 0.06899 0.30623 0.0
C100 C 0.30595 0.04613 0.31251 0.0
C101 C 0.26123 0.02619 0.31752 0.0
C102 C 0.27889 0.0163 0.32107 0.0
N103 N 0.2783 0.04489 0.31218 0.0
N104 N 0.30686 0.02881 0.31789 0.0
H105 H 0.32539 0.06043 0.30909 0.0
H106 H 0.238 0.02102 0.31887 0.0
C107 C 0.20919 0.02301 0.29895 0.0
O108 O 0.22161 0.03847 0.29308 0.0
N109 N 0.25487 0.0937 0.3005 0.0
C110 C 0.27223 0.11881 0.29641 0.0
C111 C 0.25463 0.13193 0.29448 0.0
C112 C 0.22737 0.09271 0.30116 0.0
N113 N 0.2264 0.11545 0.29748 0.0
C114 C 0.30909 0.0805 0.29457 0.0
C115 C 0.28233 0.01939 0.29027 0.0
C116 C 0.30516 0.04255 0.28598 0.0
C117 C 0.31952 0.07336 0.28836 0.0
C118 C 0.27264 0.02764 0.29641 0.0
N119 N 0.28404 0.05811 0.29814 0.0
H120 H 0.32128 0.10398 0.29651 0.0
H121 H 0.25528 0.0094 0.29967 0.0
H122 H 0.2965 0.12861 0.29524 0.0
H123 H 0.20902 0.07664 0.30463 0.0
O124 O 0.30365 0.10653 0.30928 0.0
O125 O 0.25754 0.08516 0.3145 0.0
O126 O 0.22451 0.03149 0.30475 0.0
C127 C 0.28624 0.10758 0.31431 0.0
H128 H 0.27193 0.00144 0.32569 0.0
H129 H 0.26243 0.1526 0.2913 0.0
H130 H 0.27104 0.99516 0.28877 0.0
H131 H 0.33844 0.09181 0.28542 0.0
Co132 Co 0.93162 0.19559 0.30547 0.0
C133 C 0.95511 0.25682 0.31218 0.0
C134 C 0.98154 0.23533 0.31524 0.0
C135 C 0.99361 0.26352 0.31861 0.0
N136 N 0.95754 0.23129 0.3112 0.0
N137 N 0.97693 0.27703 0.31671 0.0
H138 H 0.93737 0.26014 0.30971 0.0
H139 H 0.98963 0.21889 0.31573 0.0
C140 C 0.97463 0.17926 0.2982 0.0
O141 O 0.95842 0.17521 0.29241 0.0
N142 N 0.90536 0.15855 0.29992 0.0
C143 C 0.88571 0.15331 0.29447 0.0
C144 C 0.87182 0.12247 0.29258 0.0
C145 C 0.90244 0.13061 0.30133 0.0
N146 N 0.88234 0.1083 0.29692 0.0
C147 C 0.92083 0.22758 0.29408 0.0
C148 C 0.98106 0.25828 0.28908 0.0
C149 C 0.95788 0.25959 0.28515 0.0
C150 C 0.92761 0.24491 0.28785 0.0
C151 C 0.97308 0.24024 0.29521 0.0
N152 N 0.94279 0.22301 0.29729 0.0
H153 H 0.89765 0.21714 0.29623 0.0
H154 H 0.99133 0.23984 0.29821 0.0
H155 H 0.88091 0.16993 0.29202 0.0
H156 H 0.91524 0.12685 0.30547 0.0
O157 O 0.89523 0.19674 0.30863 0.0
O158 O 0.9153 0.17095 0.31391 0.0
O159 O 0.9677 0.18838 0.30389 0.0
C160 C 0.89369 0.17839 0.31373 0.0
H161 H 0.01336 0.27329 0.32214 0.0
H162 H 0.85476 0.11122 0.28843 0.0
H163 H 0.00494 0.27005 0.28729 0.0
H164 H 0.90931 0.24651 0.28512 0.0
Co165 Co 0.80393 0.73424 0.30432 0.0
C166 C 0.74249 0.69406 0.31066 0.0
C167 C 0.76064 0.74192 0.31348 0.0
C168 C 0.7317 0.72465 0.31648 0.0
N169 N 0.76718 0.72271 0.30981 0.0
N170 N 0.72044 0.69465 0.3147 0.0
H171 H 0.74052 0.67337 0.30827 0.0
H172 H 0.7758 0.76672 0.31396 0.0
C173 C 0.81835 0.79306 0.29709 0.0
O174 O 0.82316 0.78148 0.29129 0.0
N175 N 0.84192 0.74677 0.29902 0.0
C176 C 0.84868 0.73294 0.2937 0.0
C177 C 0.87975 0.75067 0.29208 0.0
C178 C 0.86919 0.7723 0.30062 0.0
N179 N 0.89256 0.7753 0.29646 0.0
C180 C 0.77451 0.69151 0.29277 0.0
C181 C 0.74152 0.71854 0.28769 0.0
C182 C 0.74153 0.69462 0.28379 0.0
C183 C 0.75749 0.68035 0.28651 0.0
C184 C 0.75934 0.72929 0.29384 0.0
N185 N 0.77761 0.71747 0.29598 0.0
H186 H 0.78566 0.67954 0.29496 0.0
H187 H 0.7586 0.74738 0.29683 0.0
H188 H 0.833 0.7113 0.29119 0.0
H189 H 0.87175 0.78846 0.30476 0.0
O190 O 0.80425 0.69743 0.3075 0.0
O191 O 0.82762 0.74307 0.31293 0.0
O192 O 0.80955 0.77688 0.30276 0.0
C193 C 0.82155 0.71444 0.31271 0.0
H194 H 0.72004 0.73339 0.3198 0.0
H195 H 0.89214 0.74532 0.28813 0.0
H196 H 0.72874 0.72959 0.28588 0.0
H197 H 0.75693 0.6609 0.2838 0.0
Co198 Co 0.92981 0.73216 0.8061 0.0
C199 C 0.95435 0.69467 0.81241 0.0
C200 C 0.98264 0.74297 0.81504 0.0
C201 C 0.99595 0.72701 0.81793 0.0
N202 N 0.95679 0.72269 0.81153 0.0
N203 N 0.97807 0.69673 0.81628 0.0
H204 H 0.93602 0.6734 0.81013 0.0
H205 H 0.99134 0.76765 0.81543 0.0
C206 C 0.97405 0.79027 0.79845 0.0
O207 O 0.95877 0.77754 0.79258 0.0
N208 N 0.90214 0.74218 0.80088 0.0
C209 C 0.87302 0.72233 0.79859 0.0
C210 C 0.85832 0.73876 0.79698 0.0
C211 C 0.90409 0.77027 0.80085 0.0
N212 N 0.878 0.76888 0.79839 0.0
C213 C 0.91689 0.69273 0.79379 0.0
C214 C 0.97822 0.71718 0.78982 0.0
C215 C 0.95493 0.69552 0.78537 0.0
C216 C 0.92392 0.68259 0.78752 0.0
C217 C 0.97013 0.72674 0.796 0.0
N218 N 0.93972 0.71599 0.7977 0.0
H219 H 0.89314 0.68164 0.79549 0.0
H220 H 0.98849 0.74354 0.79934 0.0
H221 H 0.86171 0.69736 0.79876 0.0
H222 H 0.923 0.79091 0.80319 0.0
O223 O 0.89419 0.69463 0.80954 0.0
O224 O 0.91505 0.74087 0.8147 0.0
O225 O 0.96565 0.77524 0.80428 0.0
C226 C 0.89345 0.71179 0.81467 0.0
H227 H 0.01693 0.73679 0.82108 0.0
H228 H 0.83444 0.72912 0.79531 0.0
H229 H 0.00251 0.72762 0.78843 0.0
H230 H 0.90527 0.66487 0.78438 0.0
Co231 Co 0.26264 0.19534 0.80741 0.0
C232 C 0.30346 0.25856 0.81357 0.0
C233 C 0.25674 0.23701 0.81738 0.0
C234 C 0.2737 0.26493 0.82077 0.0
N235 N 0.27503 0.23336 0.81266 0.0
N236 N 0.30317 0.27852 0.81839 0.0
H237 H 0.32439 0.26139 0.81119 0.0
H238 H 0.23279 0.22005 0.81846 0.0
C239 C 0.21119 0.20825 0.80469 0.0
O240 O 0.23249 0.23702 0.80326 0.0
N241 N 0.24986 0.15683 0.80252 0.0
C242 C 0.26586 0.15095 0.79761 0.0
C243 C 0.24844 0.12029 0.7956 0.0
C244 C 0.22333 0.12984 0.80354 0.0
N245 N 0.22181 0.10712 0.79936 0.0
C246 C 0.30471 0.23847 0.79683 0.0
C247 C 0.26071 0.2184 0.7862 0.0
C248 C 0.29104 0.24163 0.78469 0.0
C249 C 0.31328 0.25191 0.79008 0.0
C250 C 0.25313 0.206 0.79297 0.0
N251 N 0.27463 0.21668 0.7983 0.0
H252 H 0.3226 0.24446 0.80071 0.0
H253 H 0.22999 0.1868 0.79384 0.0
H254 H 0.28862 0.16773 0.79565 0.0
H255 H 0.2055 0.12697 0.80725 0.0
O256 O 0.30097 0.1968 0.81002 0.0
O257 O 0.25731 0.17431 0.81626 0.0
O258 O 0.21917 0.18839 0.80645 0.0
C259 C 0.28593 0.18072 0.81557 0.0
H260 H 0.26493 0.27418 0.82475 0.0
H261 H 0.25514 0.10843 0.7918 0.0
H262 H 0.24301 0.2094 0.78212 0.0
H263 H 0.33725 0.26904 0.78901 0.0
Co264 Co 0.80035 0.06459 0.80727 0.0
C265 C 0.73873 0.04012 0.81388 0.0
C266 C 0.76059 0.01391 0.81684 0.0
C267 C 0.73233 0.00138 0.82018 0.0
N268 N 0.76447 0.03807 0.81289 0.0
N269 N 0.71861 0.01793 0.81835 0.0
H270 H 0.73523 0.05789 0.81148 0.0
H271 H 0.77724 0.00608 0.81731 0.0
C272 C 0.81873 0.02304 0.80005 0.0
O273 O 0.82446 0.04029 0.79436 0.0
N274 N 0.83759 0.0915 0.80187 0.0
C275 C 0.84288 0.11091 0.79637 0.0
C276 C 0.87409 0.12599 0.79475 0.0
C277 C 0.86573 0.09559 0.80356 0.0
N278 N 0.88834 0.11636 0.79932 0.0
C279 C 0.76825 0.07534 0.79588 0.0
C280 C 0.73856 0.01528 0.79077 0.0
C281 C 0.73607 0.03812 0.78697 0.0
C282 C 0.75041 0.06834 0.78971 0.0
C283 C 0.75689 0.02342 0.79684 0.0
N284 N 0.77342 0.05362 0.79901 0.0
H285 H 0.77848 0.09847 0.79805 0.0
H286 H 0.75779 0.00526 0.79976 0.0
H287 H 0.82601 0.11475 0.79371 0.0
H288 H 0.86947 0.08325 0.80782 0.0
O289 O 0.79885 0.10076 0.81049 0.0
O290 O 0.82438 0.08051 0.81581 0.0
O291 O 0.80799 0.02882 0.80563 0.0
C292 C 0.81712 0.10224 0.8156 0.0
H293 H 0.72267 0.98146 0.82367 0.0
H294 H 0.88552 0.14329 0.79067 0.0
H295 H 0.7273 0.99147 0.78894 0.0
H296 H 0.74804 0.08641 0.78709 0.0
Co297 Co 0.7365 0.93405 0.6938 0.0
C298 C 0.6935 0.95303 0.68743 0.0
C299 C 0.7406 0.98242 0.68418 0.0
C300 C 0.7225 0.99225 0.68085 0.0
N301 N 0.72271 0.95865 0.68856 0.0
N302 N 0.69294 0.97369 0.6829 0.0
H303 H 0.67283 0.9336 0.68957 0.0
H304 H 0.76506 0.99142 0.68324 0.0
C305 C 0.78676 0.99905 0.69671 0.0
O306 O 0.76502 0.00582 0.6982 0.0
N307 N 0.75048 0.90928 0.69868 0.0
C308 C 0.73519 0.88753 0.70367 0.0
C309 C 0.75275 0.87415 0.70543 0.0
C310 C 0.77671 0.9086 0.69738 0.0
N311 N 0.77872 0.88735 0.70144 0.0
C312 C 0.6932 0.9334 0.70422 0.0
C313 C 0.73625 0.95856 0.71503 0.0
C314 C 0.70554 0.95073 0.71638 0.0
C315 C 0.68381 0.93801 0.71089 0.0
C316 C 0.74463 0.95387 0.70831 0.0
N317 N 0.72356 0.9425 0.7029 0.0
H318 H 0.67573 0.92119 0.70027 0.0
H319 H 0.7681 0.95859 0.70754 0.0
H320 H 0.71265 0.88148 0.70579 0.0
H321 H 0.79377 0.92313 0.69348 0.0
O322 O 0.69903 0.89641 0.69114 0.0
O323 O 0.74278 0.91908 0.68494 0.0
O324 O 0.7794 0.97148 0.69485 0.0
C325 C 0.71452 0.89611 0.6856 0.0
H326 H 0.73021 0.01075 0.67699 0.0
H327 H 0.74642 0.85544 0.70917 0.0
H328 H 0.7537 0.96802 0.71915 0.0
H329 H 0.65959 0.93056 0.71181 0.0
Co330 Co 0.07062 0.80419 0.69307 0.0
C331 C 0.04973 0.74157 0.68691 0.0
C332 C 0.01841 0.75803 0.68451 0.0
C333 C 0.00763 0.72969 0.68131 0.0
N334 N 0.0441 0.76496 0.6883 0.0
N335 N 0.02739 0.71947 0.68282 0.0
H336 H 0.07033 0.74117 0.68851 0.0
H337 H 0.00876 0.77307 0.68383 0.0
C338 C 0.0072 0.79183 0.69706 0.0
O339 O -5e-05 0.76345 0.69885 0.0
N340 N 0.09711 0.84376 0.69745 0.0
C341 C 0.12049 0.85132 0.70206 0.0
C342 C 0.13409 0.88257 0.70355 0.0
C343 C 0.09704 0.87026 0.6961 0.0
N344 N 0.11937 0.89434 0.69976 0.0
C345 C 0.07186 0.76175 0.70347 0.0
C346 C 0.05122 0.78276 0.7146 0.0
C347 C 0.05674 0.75817 0.71577 0.0
C348 C 0.06741 0.74776 0.71013 0.0
C349 C 0.05559 0.79575 0.70788 0.0
N350 N 0.0645 0.78441 0.70231 0.0
H351 H 0.0821 0.75495 0.69936 0.0
H352 H 0.05201 0.81527 0.70717 0.0
H353 H 0.12731 0.83533 0.70412 0.0
H354 H 0.081 0.87184 0.69249 0.0
O355 O 0.10721 0.80338 0.6899 0.0
O356 O 0.08308 0.82368 0.68396 0.0
O357 O 0.03415 0.8107 0.69462 0.0
C358 C 0.10616 0.81843 0.68435 0.0
H359 H 0.98766 0.71817 0.67785 0.0
H360 H 0.15376 0.89576 0.70701 0.0
H361 H 0.04331 0.7918 0.71883 0.0
H362 H 0.07301 0.72954 0.7109 0.0
Co363 Co 0.19554 0.268 0.69173 0.0
C364 C 0.2568 0.3044 0.68496 0.0
C365 C 0.23239 0.25733 0.68122 0.0
C366 C 0.26054 0.2728 0.67781 0.0
N367 N 0.23021 0.27715 0.6857 0.0
N368 N 0.27588 0.30245 0.68015 0.0
H369 H 0.26171 0.32521 0.68781 0.0
H370 H 0.21473 0.23333 0.68046 0.0
C371 C 0.17782 0.20741 0.69833 0.0
O372 O 0.17576 0.21972 0.70431 0.0
N373 N 0.15924 0.25769 0.69751 0.0
C374 C 0.1545 0.27211 0.70304 0.0
C375 C 0.12356 0.25581 0.7049 0.0
C376 C 0.13092 0.23343 0.69602 0.0
N377 N 0.10885 0.23162 0.70044 0.0
C378 C 0.22877 0.30548 0.70389 0.0
C379 C 0.25756 0.272 0.70724 0.0
C380 C 0.25826 0.29331 0.71219 0.0
C381 C 0.24517 0.31155 0.71027 0.0
C382 C 0.24044 0.26636 0.70104 0.0
N383 N 0.22362 0.28075 0.69981 0.0
H384 H 0.21949 0.3201 0.70234 0.0
H385 H 0.2398 0.24948 0.69734 0.0
H386 H 0.17143 0.29334 0.70551 0.0
H387 H 0.12662 0.21733 0.69173 0.0
O388 O 0.19901 0.30735 0.68931 0.0
O389 O 0.17082 0.26317 0.68348 0.0
O390 O 0.18595 0.22361 0.69265 0.0
C391 C 0.17999 0.29255 0.68414 0.0
H392 H 0.26906 0.26275 0.67397 0.0
H393 H 0.11254 0.26191 0.70905 0.0
H394 H 0.26911 0.25883 0.70825 0.0
H395 H 0.24622 0.32928 0.71376 0.0
Co396 Co 0.73637 0.59709 0.52589 0.0
C397 C 0.7135 0.63896 0.52042 0.0
C398 C 0.69814 0.59747 0.51432 0.0
C399 C 0.6888 0.61583 0.51093 0.0
N400 N 0.71347 0.61176 0.52031 0.0
N401 N 0.69842 0.64176 0.51479 0.0
H402 H 0.72573 0.65732 0.5242 0.0
H403 H 0.69509 0.57564 0.5124 0.0
C404 C 0.67061 0.54629 0.52671 0.0
O405 O 0.663 0.56773 0.5278 0.0
N406 N 0.75932 0.58192 0.53111 0.0
C407 C 0.77875 0.59561 0.53659 0.0
C408 C 0.79135 0.5775 0.53851 0.0
C409 C 0.76057 0.55606 0.52968 0.0
N410 N 0.77997 0.55276 0.53413 0.0
C411 C 0.73539 0.63748 0.53676 0.0
C412 C 0.70186 0.591 0.54647 0.0
C413 C 0.71157 0.62174 0.54831 0.0
C414 C 0.72855 0.64522 0.54338 0.0
C415 C 0.70878 0.5843 0.53979 0.0
N416 N 0.72417 0.6072 0.53488 0.0
H417 H 0.75097 0.65596 0.53331 0.0
H418 H 0.70284 0.56068 0.5387 0.0
H419 H 0.78378 0.61744 0.53896 0.0
H420 H 0.74768 0.54015 0.52545 0.0
O421 O 0.77459 0.63551 0.52418 0.0
O422 O 0.75509 0.59388 0.51725 0.0
O423 O 0.69907 0.554 0.52589 0.0
C424 C 0.77713 0.62211 0.5185 0.0
H425 H 0.67656 0.61091 0.50594 0.0
H426 H 0.8083 0.58265 0.54264 0.0
H427 H 0.68943 0.57227 0.55021 0.0
H428 H 0.73764 0.66939 0.54475 0.0
Co429 Co 0.3993 0.13614 0.52616 0.0
C430 C 0.35831 0.07306 0.52 0.0
C431 C 0.40363 0.09687 0.51534 0.0
C432 C 0.38585 0.07007 0.51158 0.0
N433 N 0.38661 0.09863 0.5207 0.0
N434 N 0.35748 0.05521 0.51454 0.0
H435 H 0.33792 0.0686 0.52292 0.0
H436 H 0.42692 0.1148 0.514 0.0
C437 C 0.45059 0.12255 0.52821 0.0
O438 O 0.42923 0.09358 0.52944 0.0
N439 N 0.4125 0.17425 0.53123 0.0
C440 C 0.39624 0.18048 0.536 0.0
C441 C 0.41312 0.21155 0.5377 0.0
C442 C 0.43878 0.20128 0.53007 0.0
N443 N 0.43981 0.22454 0.53396 0.0
C444 C 0.35706 0.09344 0.53667 0.0
C445 C 0.40129 0.11006 0.54716 0.0
C446 C 0.37057 0.08768 0.54865 0.0
C447 C 0.34823 0.07924 0.54332 0.0
C448 C 0.40914 0.12322 0.54045 0.0
N449 N 0.38745 0.11407 0.53518 0.0
H450 H 0.33917 0.0891 0.53289 0.0
H451 H 0.4326 0.1418 0.53959 0.0
H452 H 0.37342 0.16382 0.53794 0.0
H453 H 0.45603 0.20409 0.5262 0.0
O454 O 0.36093 0.135 0.52374 0.0
O455 O 0.40434 0.1579 0.51742 0.0
O456 O 0.44267 0.14282 0.52688 0.0
C457 C 0.3757 0.1513 0.51819 0.0
H458 H 0.39282 0.06261 0.50689 0.0
H459 H 0.40605 0.22369 0.54133 0.0
H460 H 0.41904 0.1178 0.55121 0.0
H461 H 0.32399 0.06302 0.5444 0.0
Co462 Co 0.86228 0.26013 0.52595 0.0
C463 C 0.92467 0.28156 0.51965 0.0
C464 C 0.90887 0.31373 0.51769 0.0
C465 C 0.93736 0.32481 0.51451 0.0
N466 N 0.90145 0.28726 0.5212 0.0
N467 N 0.94716 0.30449 0.51576 0.0
H468 H 0.92474 0.26057 0.52103 0.0
H469 H 0.89416 0.32385 0.5172 0.0
C470 C 0.87409 0.32295 0.53039 0.0
O471 O 0.90244 0.33017 0.53219 0.0
N472 N 0.82292 0.23295 0.53035 0.0
C473 C 0.81572 0.20825 0.53449 0.0
C474 C 0.78447 0.19365 0.536 0.0
C475 C 0.79619 0.23303 0.52933 0.0
N476 N 0.77224 0.20924 0.53273 0.0
C477 C 0.90534 0.25846 0.53609 0.0
C478 C 0.88441 0.27763 0.5475 0.0
C479 C 0.90963 0.27291 0.54844 0.0
C480 C 0.91995 0.26287 0.54266 0.0
C481 C 0.87092 0.27349 0.54084 0.0
N482 N 0.88231 0.26544 0.53513 0.0
H483 H 0.91211 0.24867 0.53187 0.0
H484 H 0.85114 0.27675 0.54028 0.0
H485 H 0.83196 0.20109 0.53619 0.0
H486 H 0.79419 0.24945 0.52593 0.0
O487 O 0.86331 0.22402 0.5225 0.0
O488 O 0.84259 0.24844 0.51685 0.0
O489 O 0.85546 0.29625 0.52779 0.0
C490 C 0.84809 0.22549 0.51703 0.0
H491 H 0.94933 0.34548 0.51128 0.0
H492 H 0.77176 0.17302 0.5392 0.0
H493 H 0.87544 0.28498 0.55186 0.0
H494 H 0.93867 0.25789 0.54326 0.0
Co495 Co 0.9325 0.40632 0.63824 0.0
C496 C 0.97433 0.38764 0.64533 0.0
C497 C 0.92688 0.35935 0.64843 0.0
C498 C 0.94454 0.35081 0.65238 0.0
N499 N 0.94532 0.38177 0.64381 0.0
N500 N 0.9744 0.36866 0.65043 0.0
H501 H 0.99526 0.40705 0.64328 0.0
H502 H 0.90238 0.35081 0.64918 0.0
C503 C 0.88188 0.34151 0.63555 0.0
O504 O 0.90348 0.33432 0.63425 0.0
N505 N 0.91916 0.43097 0.63309 0.0
C506 C 0.93451 0.45233 0.62802 0.0
C507 C 0.91686 0.46549 0.62611 0.0
C508 C 0.89286 0.43167 0.63427 0.0
N509 N 0.89083 0.45254 0.63008 0.0
C510 C 0.97541 0.40334 0.62828 0.0
C511 C 0.93319 0.37866 0.61731 0.0
C512 C 0.96322 0.38375 0.6163 0.0
C513 C 0.98458 0.39637 0.62186 0.0
C514 C 0.92487 0.38537 0.62382 0.0
N515 N 0.94546 0.39643 0.62933 0.0
H516 H 0.99271 0.41522 0.63227 0.0
H517 H 0.90179 0.382 0.62441 0.0
H518 H 0.95707 0.4582 0.62596 0.0
H519 H 0.8757 0.41731 0.63817 0.0
O520 O 0.97032 0.44377 0.64078 0.0
O521 O 0.9264 0.42256 0.64694 0.0
O522 O 0.88944 0.36929 0.63725 0.0
C523 C 0.95498 0.44491 0.64626 0.0
H524 H 0.93611 0.33341 0.65651 0.0
H525 H 0.92313 0.4838 0.62226 0.0
H526 H 0.91615 0.36938 0.61309 0.0
H527 H 0.00834 0.40163 0.62117 0.0
Co528 Co 0.59862 0.53396 0.63998 0.0
C529 C 0.62099 0.59535 0.64642 0.0
C530 C 0.65193 0.57796 0.64859 0.0
C531 C 0.66378 0.60678 0.65167 0.0
N532 N 0.62528 0.57103 0.64527 0.0
N533 N 0.64422 0.61753 0.65032 0.0
H534 H 0.60147 0.59691 0.64439 0.0
H535 H 0.662 0.5631 0.64879 0.0
C536 C 0.64279 0.52115 0.63202 0.0
O537 O 0.62632 0.51769 0.62629 0.0
N538 N 0.57128 0.49568 0.63493 0.0
C539 C 0.54188 0.48555 0.63272 0.0
C540 C 0.52768 0.45427 0.63129 0.0
C541 C 0.57393 0.46993 0.63502 0.0
N542 N 0.54797 0.44462 0.63272 0.0
C543 C 0.58316 0.55903 0.62779 0.0
C544 C 0.64367 0.5961 0.6233 0.0
C545 C 0.61951 0.5933 0.61897 0.0
C546 C 0.58893 0.57528 0.62141 0.0
C547 C 0.63683 0.57946 0.62961 0.0
N548 N 0.60681 0.55948 0.63154 0.0
H549 H 0.55971 0.54627 0.6297 0.0
H550 H 0.65584 0.58185 0.63283 0.0
H551 H 0.53005 0.49871 0.63285 0.0
H552 H 0.59331 0.46899 0.63734 0.0
O553 O 0.56268 0.53467 0.64363 0.0
O554 O 0.58536 0.51079 0.64867 0.0
O555 O 0.63513 0.528 0.63792 0.0
C556 C 0.56307 0.51729 0.64875 0.0
H557 H 0.68479 0.61863 0.65479 0.0
H558 H 0.50373 0.43943 0.62973 0.0
H559 H 0.66771 0.60997 0.6217 0.0
H560 H 0.56961 0.57356 0.6184 0.0
Co561 Co 0.47166 0.07044 0.64053 0.0
C562 C 0.41018 0.03224 0.64702 0.0
C563 C 0.43042 0.08019 0.64999 0.0
C564 C 0.40143 0.06385 0.65301 0.0
N565 N 0.43568 0.06036 0.6462 0.0
N566 N 0.3889 0.03379 0.65115 0.0
H567 H 0.40703 0.01123 0.64454 0.0
H568 H 0.44643 0.1048 0.65052 0.0
C569 C 0.49138 0.13218 0.63412 0.0
O570 O 0.49637 0.12144 0.62821 0.0
N571 N 0.50887 0.08117 0.63507 0.0
C572 C 0.51414 0.06673 0.62964 0.0
C573 C 0.54524 0.08297 0.62794 0.0
C574 C 0.53703 0.10539 0.6367 0.0
N575 N 0.55952 0.1072 0.63241 0.0
C576 C 0.43969 0.03239 0.62832 0.0
C577 C 0.41131 0.06577 0.6245 0.0
C578 C 0.40961 0.04307 0.61983 0.0
C579 C 0.4229 0.02524 0.62197 0.0
C580 C 0.42879 0.07247 0.63067 0.0
N581 N 0.44499 0.0577 0.6322 0.0
H582 H 0.4488 0.01784 0.63005 0.0
H583 H 0.42943 0.08987 0.63419 0.0
H584 H 0.49741 0.04554 0.62712 0.0
H585 H 0.54083 0.12156 0.64093 0.0
O586 O 0.46876 0.03136 0.64312 0.0
O587 O 0.49518 0.0757 0.64899 0.0
O588 O 0.4807 0.11469 0.63957 0.0
C589 C 0.48692 0.04654 0.6484 0.0
H590 H 0.39053 0.0732 0.6564 0.0
H591 H 0.5566 0.07687 0.62388 0.0
H592 H 0.39963 0.07871 0.62337 0.0
H593 H 0.42122 0.00658 0.6187 0.0
Co594 Co 0.59616 0.06974 0.13982 0.0
C595 C 0.62237 0.03483 0.1467 0.0
C596 C 0.64978 0.08372 0.14881 0.0
C597 C 0.66344 0.0689 0.15211 0.0
N598 N 0.62424 0.06233 0.14538 0.0
N599 N 0.64611 0.03823 0.15078 0.0
H600 H 0.60423 0.01289 0.14464 0.0
H601 H 0.65784 0.10832 0.14894 0.0
C602 C 0.63896 0.12623 0.13147 0.0
O603 O 0.62286 0.11204 0.12579 0.0
N604 N 0.5674 0.0778 0.13448 0.0
C605 C 0.53803 0.05717 0.13248 0.0
C606 C 0.52287 0.0729 0.13063 0.0
C607 C 0.56902 0.10569 0.13404 0.0
N608 N 0.54253 0.1034 0.13159 0.0
C609 C 0.58273 0.02836 0.12789 0.0
C610 C 0.64372 0.05314 0.12362 0.0
C611 C 0.62011 0.03102 0.1193 0.0
C612 C 0.58932 0.01779 0.12163 0.0
C613 C 0.63606 0.06305 0.12981 0.0
N614 N 0.60576 0.05223 0.13162 0.0
H615 H 0.55913 0.0173 0.1297 0.0
H616 H 0.65462 0.08041 0.13301 0.0
H617 H 0.52699 0.03229 0.133 0.0
H618 H 0.58809 0.12702 0.13609 0.0
O619 O 0.56158 0.0325 0.14366 0.0
O620 O 0.58156 0.07967 0.14831 0.0
O621 O 0.6313 0.1127 0.1375 0.0
C622 C 0.5607 0.05034 0.1486 0.0
H623 H 0.68414 0.07974 0.15535 0.0
H624 H 0.49875 0.06264 0.12909 0.0
H625 H 0.66788 0.06383 0.12209 0.0
H626 H 0.57045 -0.00031 0.11861 0.0
Co627 Co 0.92958 0.52608 0.13869 0.0
C628 C 0.96774 0.58611 0.14589 0.0
C629 C 0.92214 0.55988 0.15042 0.0
C630 C 0.93923 0.586 0.15448 0.0
N631 N 0.94008 0.55999 0.14508 0.0
N632 N 0.96774 0.60236 0.1516 0.0
H633 H 0.98784 0.59223 0.14261 0.0
H634 H 0.89874 0.5414 0.15147 0.0
C635 C 0.87082 0.51337 0.13173 0.0
O636 O 0.88275 0.51051 0.12576 0.0
N637 N 0.91791 0.49057 0.13253 0.0
C638 C 0.93187 0.48622 0.12686 0.0
C639 C 0.91454 0.45575 0.12468 0.0
C640 C 0.89274 0.46255 0.13376 0.0
N641 N 0.89008 0.44096 0.12907 0.0
C642 C 0.97278 0.56056 0.12754 0.0
C643 C 0.94409 0.59323 0.12335 0.0
C644 C 0.96833 0.59508 0.11921 0.0
C645 C 0.98361 0.57946 0.12154 0.0
C646 C 0.93401 0.57396 0.12928 0.0
N647 N 0.94652 0.55576 0.13093 0.0
H648 H 0.98505 0.54907 0.12936 0.0
H649 H 0.91565 0.57327 0.13246 0.0
H650 H 0.95333 0.50316 0.12447 0.0
H651 H 0.87657 0.45815 0.13804 0.0
O652 O 0.96655 0.52523 0.14154 0.0
O653 O 0.92047 0.49887 0.14669 0.0
O654 O 0.88682 0.5206 0.13743 0.0
C655 C 0.94933 0.50574 0.14643 0.0
H656 H 0.93162 0.59217 0.15927 0.0
H657 H 0.92007 0.44508 0.12036 0.0
H658 H 0.93206 0.60549 0.12188 0.0
H659 H 0.00338 0.5814 0.11869 0.0
Co660 Co 0.46745 0.39995 0.1401 0.0
C661 C 0.40522 0.37441 0.14652 0.0
C662 C 0.42704 0.3479 0.14926 0.0
C663 C 0.39871 0.33498 0.15257 0.0
N664 N 0.431 0.37247 0.14546 0.0
N665 N 0.38503 0.35172 0.15089 0.0
H666 H 0.40179 0.39249 0.14429 0.0
H667 H 0.44375 0.34012 0.14967 0.0
C668 C 0.48438 0.35815 0.13243 0.0
O669 O 0.48965 0.37559 0.12679 0.0
N670 N 0.50534 0.42789 0.13501 0.0
C671 C 0.51331 0.45461 0.13155 0.0
C672 C 0.54444 0.46916 0.1299 0.0
C673 C 0.53216 0.4275 0.13567 0.0
N674 N 0.5562 0.45196 0.13249 0.0
C675 C 0.43931 0.41307 0.12818 0.0
C676 C 0.40755 0.3529 0.12315 0.0
C677 C 0.40834 0.37667 0.11903 0.0
C678 C 0.4236 0.40697 0.12172 0.0
C679 C 0.42401 0.36017 0.1295 0.0
N680 N 0.44164 0.39031 0.13167 0.0
H681 H 0.44938 0.43603 0.13038 0.0
H682 H 0.42304 0.34149 0.13261 0.0
H683 H 0.49865 0.46444 0.13066 0.0
H684 H 0.53432 0.41036 0.13876 0.0
O685 O 0.46533 0.43539 0.14359 0.0
O686 O 0.49062 0.41454 0.14878 0.0
O687 O 0.47496 0.36429 0.13818 0.0
C688 C 0.48308 0.4361 0.14874 0.0
H689 H 0.38902 0.31474 0.15596 0.0
H690 H 0.55751 0.49114 0.12718 0.0
H691 H 0.39535 0.32903 0.12135 0.0
H692 H 0.42345 0.42574 0.11885 0.0
Co693 Co 0.40016 0.26454 0.02649 0.0
C694 C 0.35956 0.28439 0.01977 0.0
C695 C 0.40763 0.31588 0.01745 0.0
C696 C 0.39007 0.3268 0.01427 0.0
N697 N 0.38846 0.28947 0.02093 0.0
N698 N 0.35994 0.30693 0.01572 0.0
H699 H 0.33878 0.26491 0.02192 0.0
H700 H 0.43261 0.32647 0.01722 0.0
C701 C 0.45861 0.30961 0.0338 0.0
O702 O 0.44692 0.29356 0.03964 0.0
N703 N 0.41268 0.23928 0.03187 0.0
C704 C 0.39626 0.2151 0.03628 0.0
C705 C 0.41384 0.20168 0.03795 0.0
C706 C 0.43962 0.23951 0.0308 0.0
N707 N 0.4411 0.21704 0.03448 0.0
C708 C 0.35781 0.25103 0.03818 0.0
C709 C 0.38498 0.31112 0.04322 0.0
C710 C 0.36212 0.28708 0.0473 0.0
C711 C 0.34759 0.25683 0.04459 0.0
C712 C 0.39476 0.30412 0.03691 0.0
N713 N 0.38312 0.27402 0.0348 0.0
H714 H 0.34544 0.22801 0.03596 0.0
H715 H 0.41229 0.32298 0.03381 0.0
H716 H 0.37265 0.20624 0.03793 0.0
H717 H 0.45717 0.25497 0.0271 0.0
O718 O 0.36368 0.22715 0.02326 0.0
O719 O 0.40961 0.24984 0.01796 0.0
O720 O 0.44262 0.3018 0.0281 0.0
C721 C 0.38111 0.22702 0.01813 0.0
H722 H 0.39872 0.34747 0.01104 0.0
H723 H 0.40665 0.18161 0.04131 0.0
H724 H 0.39616 0.33497 0.04501 0.0
H725 H 0.32872 0.23784 0.04742 0.0
Co726 Co 0.73695 0.13816 0.02598 0.0
C727 C 0.71572 0.07507 0.01995 0.0
C728 C 0.68755 0.09398 0.01655 0.0
C729 C 0.67672 0.06563 0.01336 0.0
N730 N 0.71116 0.09943 0.02095 0.0
N731 N 0.6945 0.05385 0.0155 0.0
H732 H 0.73486 0.07332 0.0221 0.0
H733 H 0.67941 0.11005 0.01548 0.0
C734 C 0.67325 0.12726 0.02864 0.0
O735 O 0.66542 0.09881 0.0305 0.0
N736 N 0.76286 0.17724 0.03062 0.0
C737 C 0.78559 0.18392 0.03536 0.0
C738 C 0.79986 0.21511 0.03692 0.0
C739 C 0.76363 0.2042 0.02932 0.0
N740 N 0.78603 0.22781 0.03311 0.0
C741 C 0.73322 0.09496 0.03677 0.0
C742 C 0.71077 0.11713 0.04728 0.0
C743 C 0.71557 0.09234 0.04883 0.0
C744 C 0.72707 0.08129 0.04349 0.0
C745 C 0.71695 0.12987 0.0405 0.0
N746 N 0.72685 0.11802 0.03524 0.0
H747 H 0.74426 0.08777 0.03294 0.0
H748 H 0.71417 0.14973 0.03953 0.0
H749 H 0.79162 0.16736 0.03743 0.0
H750 H 0.74882 0.20661 0.02548 0.0
O751 O 0.77349 0.13559 0.02385 0.0
O752 O 0.75379 0.15774 0.01699 0.0
O753 O 0.70093 0.14608 0.02657 0.0
C754 C 0.77558 0.15099 0.0181 0.0
H755 H 0.65818 0.05511 0.00951 0.0
H756 H 0.81901 0.22745 0.04055 0.0
H757 H 0.70229 0.12668 0.05127 0.0
H758 H 0.73224 0.06296 0.04456 0.0
Co759 Co 0.86322 0.60216 0.02599 0.0
C760 C 0.92704 0.64393 0.02017 0.0
C761 C 0.90644 0.59745 0.01623 0.0
C762 C 0.93512 0.61467 0.01316 0.0
N763 N 0.90176 0.61537 0.02086 0.0
N764 N 0.94798 0.64384 0.01564 0.0
H765 H 0.92989 0.66466 0.02266 0.0
H766 H 0.88975 0.57357 0.01499 0.0
C767 C 0.87597 0.55039 0.02856 0.0
O768 O 0.90451 0.57146 0.03025 0.0
N769 N 0.82431 0.58857 0.03077 0.0
C770 C 0.81793 0.60382 0.03578 0.0
C771 C 0.78708 0.58609 0.03762 0.0
C772 C 0.79744 0.56219 0.02953 0.0
N773 N 0.7743 0.56003 0.03365 0.0
C774 C 0.90509 0.6437 0.03673 0.0
C775 C 0.88639 0.59924 0.04723 0.0
C776 C 0.90929 0.62972 0.04879 0.0
C777 C 0.91866 0.65218 0.04345 0.0
C778 C 0.87372 0.59179 0.04046 0.0
N779 N 0.88397 0.61353 0.03518 0.0
H780 H 0.9105 0.66172 0.03291 0.0
H781 H 0.85486 0.56851 0.03953 0.0
H782 H 0.83448 0.62629 0.03791 0.0
H783 H 0.79494 0.54493 0.02569 0.0
O784 O 0.86453 0.64055 0.0236 0.0
O785 O 0.84275 0.5977 0.01707 0.0
O786 O 0.85641 0.55867 0.02674 0.0
C787 C 0.84879 0.62613 0.01796 0.0
H788 H 0.94527 0.60671 0.00919 0.0
H789 H 0.77485 0.59219 0.04145 0.0
H790 H 0.87805 0.58125 0.05123 0.0
H791 H 0.93537 0.67626 0.04454 0.0
Co792 Co 0.40047 0.9324 0.86029 0.0
C793 C 0.37947 0.97289 0.85408 0.0
C794 C 0.34736 0.92486 0.85188 0.0
C795 C 0.33609 0.94257 0.84892 0.0
N796 N 0.37439 0.94394 0.85514 0.0
N797 N 0.35639 0.97268 0.85029 0.0
H798 H 0.39944 0.99361 0.85609 0.0
H799 H 0.33663 0.89988 0.85162 0.0
C800 C 0.35684 0.87419 0.86793 0.0
O801 O 0.37466 0.88549 0.87354 0.0
N802 N 0.42721 0.92043 0.86525 0.0
C803 C 0.45442 0.93862 0.86857 0.0
C804 C 0.4682 0.92132 0.87013 0.0
C805 C 0.42569 0.89267 0.86458 0.0
N806 N 0.4501 0.89232 0.86763 0.0
C807 C 0.41651 0.97457 0.87213 0.0
C808 C 0.35701 0.94882 0.87748 0.0
C809 C 0.3817 0.97165 0.88142 0.0
C810 C 0.41168 0.9853 0.87858 0.0
C811 C 0.36302 0.93845 0.87114 0.0
N812 N 0.39278 0.94964 0.86881 0.0
H813 H 0.43925 0.98658 0.8698 0.0
H814 H 0.34362 0.92102 0.86815 0.0
H815 H 0.46526 0.96328 0.86933 0.0
H816 H 0.40745 0.87343 0.8617 0.0
O817 O 0.437 0.96879 0.85673 0.0
O818 O 0.41334 0.92262 0.85153 0.0
O819 O 0.36336 0.89012 0.86223 0.0
C820 C 0.43613 0.95118 0.85153 0.0
H821 H 0.31496 0.93404 0.84586 0.0
H822 H 0.49083 0.93016 0.87253 0.0
H823 H 0.33337 0.93825 0.8794 0.0
H824 H 0.43116 0.00404 0.88132 0.0
Co825 Co 0.06659 0.47106 0.85946 0.0
C826 C 0.02865 0.40869 0.85276 0.0
C827 C 0.07739 0.42673 0.85142 0.0
C828 C 0.06184 0.39917 0.84781 0.0
N829 N 0.05669 0.43232 0.85477 0.0
N830 N 0.03115 0.38781 0.84866 0.0
H831 H 0.00688 0.40782 0.85378 0.0
H832 H 0.10217 0.44232 0.85128 0.0
C833 C 0.11717 0.46048 0.86475 0.0
O834 O 0.09573 0.43247 0.8667 0.0
N835 N 0.07697 0.51024 0.86377 0.0
C836 C 0.05721 0.51818 0.86669 0.0
C837 C 0.0735 0.54932 0.86836 0.0
C838 C 0.10489 0.53637 0.86371 0.0
N839 N 0.10341 0.56053 0.86651 0.0
C840 C 0.02136 0.42596 0.86927 0.0
C841 C 0.05863 0.44982 0.8811 0.0
C842 C 0.02968 0.4229 0.8818 0.0
C843 C 0.01073 0.41111 0.87581 0.0
C844 C 0.0685 0.46353 0.87448 0.0
N845 N 0.0506 0.45085 0.86858 0.0
H846 H 0.0058 0.41766 0.86484 0.0
H847 H 0.09099 0.48426 0.87408 0.0
H848 H 0.03257 0.50262 0.86738 0.0
H849 H 0.12558 0.538 0.86141 0.0
O850 O 0.02956 0.46882 0.85556 0.0
O851 O 0.07575 0.49088 0.85036 0.0
O852 O 0.10947 0.47874 0.86179 0.0
C853 C 0.04701 0.48451 0.85023 0.0
H854 H 0.07242 0.38872 0.84469 0.0
H855 H 0.06411 0.56275 0.8707 0.0
H856 H 0.07393 0.45983 0.88561 0.0
H857 H 0.98777 0.39088 0.8762 0.0
Co858 Co 0.52784 0.59658 0.85901 0.0
C859 C 0.5907 0.62158 0.85259 0.0
C860 C 0.57222 0.65176 0.85099 0.0
C861 C 0.60004 0.66393 0.84748 0.0
N862 N 0.56674 0.62572 0.85443 0.0
N863 N 0.61166 0.64491 0.84849 0.0
H864 H 0.59174 0.60085 0.85371 0.0
H865 H 0.55639 0.66065 0.85069 0.0
C866 C 0.53685 0.65742 0.86403 0.0
O867 O 0.56487 0.66449 0.86609 0.0
N868 N 0.48855 0.56749 0.86321 0.0
C869 C 0.48145 0.54114 0.86667 0.0
C870 C 0.45036 0.52619 0.86836 0.0
C871 C 0.46194 0.56824 0.86279 0.0
N872 N 0.43805 0.54325 0.86592 0.0
C873 C 0.57229 0.59736 0.86912 0.0
C874 C 0.54689 0.61024 0.88075 0.0
C875 C 0.57353 0.60787 0.88166 0.0
C876 C 0.5862 0.60115 0.87577 0.0
C877 C 0.53409 0.60678 0.87403 0.0
N878 N 0.54743 0.60163 0.86824 0.0
H879 H 0.58113 0.59024 0.86477 0.0
H880 H 0.51335 0.60842 0.87347 0.0
H881 H 0.49762 0.53314 0.86777 0.0
H882 H 0.46027 0.58671 0.86019 0.0
O883 O 0.53124 0.56208 0.85539 0.0
O884 O 0.5089 0.58508 0.84981 0.0
O885 O 0.51911 0.63132 0.86106 0.0
C886 C 0.51599 0.5632 0.8499 0.0
H887 H 0.61044 0.6848 0.8443 0.0
H888 H 0.43779 0.50403 0.87102 0.0
H889 H 0.5362 0.61513 0.88518 0.0
H890 H 0.60621 0.59814 0.87632 0.0
Co891 Co 0.59904 0.73691 0.97205 0.0
C892 C 0.63606 0.7146 0.9795 0.0
C893 C 0.58837 0.68998 0.98282 0.0
C894 C 0.60461 0.6793 0.98668 0.0
N895 N 0.60815 0.71199 0.97832 0.0
N896 N 0.63461 0.69486 0.9846 0.0
H897 H 0.65708 0.73127 0.97682 0.0
H898 H 0.564 0.6826 0.98333 0.0
C899 C 0.54165 0.69057 0.96466 0.0
O900 O 0.55525 0.70441 0.95871 0.0
N901 N 0.5894 0.76287 0.96605 0.0
C902 C 0.60944 0.79153 0.96354 0.0
C903 C 0.59319 0.80597 0.96152 0.0
C904 C 0.56135 0.76101 0.96573 0.0
N905 N 0.56298 0.78663 0.9629 0.0
C906 C 0.63525 0.74376 0.95936 0.0
C907 C 0.61165 0.68083 0.95747 0.0
C908 C 0.62975 0.70119 0.95207 0.0
C909 C 0.64269 0.73319 0.95321 0.0
C910 C 0.60444 0.69233 0.96345 0.0
N911 N 0.61458 0.7233 0.96414 0.0
H912 H 0.64575 0.76831 0.96018 0.0
H913 H 0.58935 0.67599 0.96738 0.0
H914 H 0.63441 0.80288 0.96386 0.0
H915 H 0.54062 0.74277 0.96821 0.0
O916 O 0.63695 0.77331 0.97506 0.0
O917 O 0.59077 0.75513 0.98012 0.0
O918 O 0.5558 0.70063 0.97056 0.0
C919 C 0.62007 0.77609 0.97997 0.0
H920 H 0.595 0.66149 0.99071 0.0
H921 H 0.60304 0.82961 0.95966 0.0
H922 H 0.60221 0.65602 0.95699 0.0
H923 H 0.6574 0.74993 0.94928 0.0
Co924 Co 0.26745 0.86342 0.97315 0.0
C925 C 0.29242 0.92477 0.97991 0.0
C926 C 0.31924 0.90313 0.98248 0.0
C927 C 0.33178 0.9311 0.98595 0.0
N928 N 0.29468 0.89929 0.97869 0.0
N929 N 0.31483 0.94467 0.98437 0.0
H930 H 0.27425 0.92818 0.97772 0.0
H931 H 0.32725 0.88657 0.98278 0.0
C932 C 0.30811 0.84453 0.96567 0.0
O933 O 0.29042 0.83881 0.96007 0.0
N934 N 0.23981 0.82616 0.96782 0.0
C935 C 0.21944 0.82075 0.96253 0.0
C936 C 0.20404 0.78951 0.96094 0.0
C937 C 0.23592 0.79802 0.96944 0.0
N938 N 0.2144 0.77532 0.96533 0.0
C939 C 0.25622 0.89521 0.96177 0.0
C940 C 0.31595 0.92448 0.95645 0.0
C941 C 0.29278 0.92643 0.95268 0.0
C942 C 0.26276 0.91237 0.95552 0.0
C943 C 0.3082 0.90661 0.9626 0.0
N944 N 0.27812 0.89022 0.96487 0.0
H945 H 0.2333 0.88534 0.96404 0.0
H946 H 0.32651 0.90583 0.96549 0.0
H947 H 0.21505 0.83753 0.96 0.0
H948 H 0.2489 0.79435 0.97355 0.0
O949 O 0.23192 0.86567 0.97653 0.0
O950 O 0.25181 0.83952 0.98171 0.0
O951 O 0.30278 0.85528 0.97132 0.0
C952 C 0.23051 0.8474 0.98163 0.0
H953 H 0.35189 0.94062 0.98938 0.0
H954 H 0.18596 0.77802 0.95702 0.0
H955 H 0.33964 0.93572 0.95454 0.0
H956 H 0.24451 0.91441 0.95289 0.0
Co957 Co 0.13775 0.40176 0.97215 0.0
C958 C 0.07529 0.36113 0.97878 0.0
C959 C 0.10083 0.4062 0.98351 0.0
C960 C 0.07457 0.38877 0.98747 0.0
N961 N 0.10125 0.38912 0.978 0.0
N962 N 0.0586 0.3606 0.98446 0.0
H963 H 0.06967 0.34075 0.97572 0.0
H964 H 0.11933 0.42931 0.9848 0.0
C965 C 0.12301 0.4525 0.97041 0.0
O966 O 0.09378 0.43096 0.96963 0.0
N967 N 0.17499 0.41514 0.9667 0.0
C968 C 0.18026 0.3999 0.96149 0.0
C969 C 0.21094 0.41729 0.95946 0.0
C970 C 0.20226 0.44117 0.96785 0.0
N971 N 0.22468 0.4431 0.96351 0.0
C972 C 0.09336 0.35838 0.96205 0.0
C973 C 0.10646 0.40189 0.95155 0.0
C974 C 0.0839 0.37102 0.95029 0.0
C975 C 0.07733 0.349 0.95561 0.0
C976 C 0.1214 0.41029 0.95808 0.0
N977 N 0.1139 0.38896 0.96337 0.0
H978 H 0.09033 0.34082 0.96581 0.0
H979 H 0.13993 0.43391 0.95875 0.0
H980 H 0.16322 0.37748 0.95942 0.0
H981 H 0.20563 0.45814 0.97185 0.0
O982 O 0.13769 0.36387 0.97455 0.0
O983 O 0.1613 0.40783 0.98066 0.0
O984 O 0.14372 0.44484 0.97141 0.0
C985 C 0.15499 0.37927 0.97993 0.0
H986 H 0.0682 0.39579 0.99232 0.0
H987 H 0.22247 0.41093 0.9555 0.0
H988 H 0.11277 0.4194 0.94749 0.0
H989 H 0.06095 0.32467 0.95469 0.0
Co990 Co 0.25918 0.39619 0.47263 0.0
C991 C 0.28091 0.35395 0.47793 0.0
C992 C 0.31399 0.40158 0.48001 0.0
C993 C 0.32492 0.38352 0.48289 0.0
N994 N 0.28695 0.38319 0.47662 0.0
N995 N 0.30403 0.35362 0.48159 0.0
H996 H 0.25948 0.33323 0.47658 0.0
H997 H 0.32441 0.42633 0.48074 0.0
C998 C 0.32109 0.44858 0.46821 0.0
O999 O 0.32743 0.42793 0.46557 0.0
N1000 N 0.23127 0.40919 0.46899 0.0
C1001 C 0.2038 0.39123 0.46577 0.0
C1002 C 0.1897 0.40867 0.46466 0.0
C1003 C 0.23369 0.43721 0.46978 0.0
N1004 N 0.20863 0.4375 0.46716 0.0
C1005 C 0.25923 0.35595 0.46144 0.0
C1006 C 0.27486 0.39935 0.45079 0.0
C1007 C 0.2721 0.37062 0.44914 0.0
C1008 C 0.26371 0.34855 0.45455 0.0
C1009 C 0.27025 0.40573 0.4577 0.0
N1010 N 0.26406 0.38481 0.46302 0.0
H1011 H 0.25144 0.33826 0.46543 0.0
H1012 H 0.27238 0.42801 0.4588 0.0
H1013 H 0.19443 0.367 0.46446 0.0
H1014 H 0.25281 0.45664 0.47243 0.0
O1015 O 0.22367 0.35766 0.47565 0.0
O1016 O 0.24764 0.40073 0.48207 0.0
O1017 O 0.2951 0.43981 0.47129 0.0
C1018 C 0.225 0.37222 0.48149 0.0
H1019 H 0.3457 0.3916 0.48606 0.0
H1020 H 0.16728 0.40083 0.46223 0.0
H1021 H 0.28129 0.4172 0.4468 0.0
H1022 H 0.26029 0.32568 0.45346 0.0
Co1023 Co 0.59582 0.85982 0.47361 0.0
C1024 C 0.63428 0.92212 0.4797 0.0
C1025 C 0.58613 0.90307 0.48237 0.0
C1026 C 0.6026 0.93246 0.48519 0.0
N1027 N 0.60601 0.89682 0.47889 0.0
N1028 N 0.63278 0.94425 0.48351 0.0
H1029 H 0.65537 0.92452 0.47744 0.0
H1030 H 0.5614 0.88746 0.48281 0.0
C1031 C 0.53713 0.84466 0.46621 0.0
O1032 O 0.54966 0.84091 0.46043 0.0
N1033 N 0.585 0.82157 0.46856 0.0
C1034 C 0.60399 0.81268 0.46558 0.0
C1035 C 0.58718 0.78152 0.46403 0.0
C1036 C 0.55726 0.79517 0.46905 0.0
N1037 N 0.5577 0.77045 0.46623 0.0
C1038 C 0.63469 0.88641 0.46124 0.0
C1039 C 0.60846 0.92143 0.45707 0.0
C1040 C 0.63054 0.92033 0.45266 0.0
C1041 C 0.64439 0.90325 0.45492 0.0
C1042 C 0.59939 0.90415 0.4633 0.0
N1043 N 0.61088 0.88518 0.46508 0.0
H1044 H 0.64673 0.87486 0.46307 0.0
H1045 H 0.58251 0.90556 0.46664 0.0
H1046 H 0.62884 0.82664 0.46516 0.0
H1047 H 0.53754 0.79392 0.47175 0.0
O1048 O 0.63386 0.86219 0.47672 0.0
O1049 O 0.58871 0.83731 0.48237 0.0
O1050 O 0.5524 0.85231 0.47202 0.0
C1051 C 0.61785 0.84502 0.48205 0.0
H1052 H 0.59324 0.94413 0.48831 0.0
H1053 H 0.59661 0.76774 0.46192 0.0
H1054 H 0.59743 0.93468 0.45561 0.0
H1055 H 0.66258 0.90293 0.45184 0.0
Co1056 Co 0.13587 0.73804 0.47158 0.0
C1057 C 0.07409 0.71574 0.47789 0.0
C1058 C 0.09831 0.69465 0.48264 0.0
C1059 C 0.07133 0.68547 0.48635 0.0
N1060 N 0.09999 0.71365 0.47737 0.0
N1061 N 0.05625 0.69876 0.48336 0.0
H1062 H 0.06931 0.73073 0.47461 0.0
H1063 H 0.1162 0.68913 0.4839 0.0
C1064 C 0.15373 0.69395 0.46559 0.0
O1065 O 0.15961 0.70927 0.45959 0.0
N1066 N 0.17329 0.763 0.46605 0.0
C1067 C 0.17881 0.78099 0.46026 0.0
C1068 C 0.20986 0.79471 0.45856 0.0
C1069 C 0.20122 0.76676 0.46784 0.0
N1070 N 0.22383 0.78573 0.46335 0.0
C1071 C 0.10425 0.74539 0.45959 0.0
C1072 C 0.07433 0.68394 0.45543 0.0
C1073 C 0.07223 0.7057 0.45111 0.0
C1074 C 0.08665 0.73666 0.45337 0.0
C1075 C 0.09243 0.69379 0.46154 0.0
N1076 N 0.10911 0.72457 0.46326 0.0
H1077 H 0.11447 0.7691 0.46138 0.0
H1078 H 0.09303 0.67649 0.46488 0.0
H1079 H 0.16219 0.78467 0.45743 0.0
H1080 H 0.2047 0.75521 0.47231 0.0
O1081 O 0.13449 0.77516 0.47391 0.0
O1082 O 0.15964 0.75647 0.48004 0.0
O1083 O 0.14305 0.70163 0.47089 0.0
C1084 C 0.15208 0.77782 0.47928 0.0
H1085 H 0.06375 0.67087 0.49102 0.0
H1086 H 0.22134 0.81052 0.4542 0.0
H1087 H 0.06292 0.65963 0.45399 0.0
H1088 H 0.08451 0.75398 0.45034 0.0
Co1089 Co 0.06658 0.59434 0.35826 0.0
C1090 C 0.02827 0.61919 0.35191 0.0
C1091 C 0.07691 0.64879 0.35011 0.0
C1092 C 0.0613 0.66086 0.34656 0.0
N1093 N 0.05641 0.62318 0.35369 0.0
N1094 N 0.03067 0.64219 0.34767 0.0
H1095 H 0.00645 0.59876 0.35317 0.0
H1096 H 0.10154 0.65735 0.34972 0.0
C1097 C 0.11823 0.65567 0.36314 0.0
O1098 O 0.09716 0.66254 0.36522 0.0
N1099 N 0.07727 0.5656 0.36246 0.0
C1100 C 0.05785 0.53793 0.36544 0.0
C1101 C 0.07455 0.52353 0.36714 0.0
C1102 C 0.10536 0.56782 0.3624 0.0
N1103 N 0.10434 0.5425 0.36525 0.0
C1104 C 0.02299 0.59447 0.36853 0.0
C1105 C 0.06231 0.6085 0.38 0.0
C1106 C 0.03301 0.60528 0.38107 0.0
C1107 C 0.01308 0.59794 0.37524 0.0
C1108 C 0.07127 0.60502 0.37324 0.0
N1109 N 0.05228 0.59936 0.36753 0.0
H1110 H 0.00676 0.58708 0.36422 0.0
H1111 H 0.09381 0.60712 0.3726 0.0
H1112 H 0.03322 0.52864 0.36619 0.0
H1113 H 0.1259 0.58701 0.36008 0.0
O1114 O 0.02872 0.55951 0.35469 0.0
O1115 O 0.07392 0.58276 0.34906 0.0
O1116 O 0.10999 0.62948 0.36023 0.0
C1117 C 0.04507 0.56058 0.3492 0.0
H1118 H 0.07178 0.68137 0.34326 0.0
H1119 H 0.06556 0.50089 0.36955 0.0
H1120 H 0.0785 0.61408 0.38433 0.0
H1121 H 0.98985 0.59426 0.37588 0.0
Co1122 Co 0.40514 0.47376 0.35847 0.0
C1123 C 0.3804 0.41261 0.35165 0.0
C1124 C 0.3544 0.43488 0.34884 0.0
C1125 C 0.34188 0.40694 0.34536 0.0
N1126 N 0.3784 0.43828 0.35279 0.0
N1127 N 0.35831 0.39298 0.3471 0.0
H1128 H 0.39809 0.40884 0.35399 0.0
H1129 H 0.34672 0.45168 0.34845 0.0
C1130 C 0.36309 0.49095 0.36595 0.0
O1131 O 0.38018 0.49639 0.37166 0.0
N1132 N 0.43223 0.51063 0.36395 0.0
C1133 C 0.4551 0.51651 0.36862 0.0
C1134 C 0.46962 0.54743 0.37048 0.0
C1135 C 0.43389 0.53826 0.36292 0.0
N1136 N 0.45613 0.561 0.3669 0.0
C1137 C 0.41627 0.44169 0.36982 0.0
C1138 C 0.35643 0.41234 0.37506 0.0
C1139 C 0.3796 0.41079 0.37895 0.0
C1140 C 0.40964 0.42467 0.37611 0.0
C1141 C 0.3642 0.42978 0.36886 0.0
N1142 N 0.39435 0.44644 0.36666 0.0
H1143 H 0.43916 0.45137 0.36756 0.0
H1144 H 0.34588 0.43025 0.3659 0.0
H1145 H 0.46197 0.50034 0.37042 0.0
H1146 H 0.41952 0.54169 0.35915 0.0
O1147 O 0.44097 0.47212 0.35509 0.0
O1148 O 0.42089 0.49837 0.35002 0.0
O1149 O 0.36938 0.48118 0.36028 0.0
C1150 C 0.44227 0.4906 0.35005 0.0
H1151 H 0.3221 0.39767 0.34184 0.0
H1152 H 0.48884 0.55901 0.37413 0.0
H1153 H 0.33272 0.40137 0.37695 0.0
H1154 H 0.42791 0.42279 0.37877 0.0
Co1155 Co 0.52999 0.9339 0.35934 0.0
C1156 C 0.5938 0.97574 0.35361 0.0
C1157 C 0.57582 0.92834 0.35059 0.0
C1158 C 0.60457 0.94574 0.34756 0.0
N1159 N 0.56951 0.94682 0.35466 0.0
N1160 N 0.61579 0.97551 0.34947 0.0
H1161 H 0.59499 0.99675 0.3555 0.0
H1162 H 0.56012 0.90396 0.34962 0.0
C1163 C 0.54195 0.88248 0.36289 0.0
O1164 O 0.56987 0.90387 0.36491 0.0
N1165 N 0.4902 0.92078 0.36364 0.0
C1166 C 0.48236 0.9381 0.36766 0.0
C1167 C 0.45128 0.92074 0.36926 0.0
C1168 C 0.46399 0.8933 0.3628 0.0
N1169 N 0.43964 0.8925 0.3662 0.0
C1170 C 0.57167 0.97507 0.37017 0.0
C1171 C 0.54833 0.93162 0.38093 0.0
C1172 C 0.57308 0.96132 0.38241 0.0
C1173 C 0.58467 0.98331 0.37695 0.0
C1174 C 0.53631 0.92433 0.3741 0.0
N1175 N 0.54882 0.94545 0.36872 0.0
H1176 H 0.57931 0.99284 0.36621 0.0
H1177 H 0.51664 0.90153 0.37315 0.0
H1178 H 0.49805 0.96187 0.36921 0.0
H1179 H 0.46292 0.87453 0.3597 0.0
O1180 O 0.5321 0.97232 0.35667 0.0
O1181 O 0.51146 0.92947 0.35013 0.0
O1182 O 0.52293 0.8904 0.36044 0.0
C1183 C 0.51756 0.95799 0.35092 0.0
H1184 H 0.61574 0.93742 0.34397 0.0
H1185 H 0.43824 0.92884 0.37227 0.0
H1186 H 0.5384 0.91399 0.38501 0.0
H1187 H 0.603 0.00687 0.37795 0.0
C1188 C 0.12283 0.18459 0.19325 0.0
C1189 C 0.12193 0.19648 0.19994 0.0
C1190 C 0.13144 0.16196 0.19258 0.0
C1191 C 0.13539 0.10038 0.20231 0.0
H1192 H 0.1961 0.11061 0.1881 0.0
C1193 C 0.16367 0.00395 0.19523 0.0
C1194 C 0.1954 0.01333 0.1949 0.0
C1195 C 0.15418 0.026 0.19577 0.0
C1196 C 0.17916 0.10749 0.1921 0.0
H1197 H 0.12888 0.19372 0.21117 0.0
H1198 H 0.14375 0.15387 0.21002 0.0
H1199 H 0.18055 0.14987 0.18928 0.0
H1200 H 0.24199 0.05312 0.19478 0.0
H1201 H 0.22535 0.09157 0.19563 0.0
H1202 H 0.13402 0.05798 0.20512 0.0
C1203 C 0.13784 0.16216 0.2053 0.0
C1204 C 0.17011 0.12982 0.19274 0.0
C1205 C 0.1296 0.18511 0.20595 0.0
C1206 C 0.21739 0.04517 0.19503 0.0
C1207 C 0.20788 0.06719 0.19548 0.0
C1208 C 0.14416 0.07785 0.20161 0.0
C1209 C 0.13898 0.15047 0.1986 0.0
C1210 C 0.14825 0.12656 0.19787 0.0
C1211 C 0.1762 0.05783 0.1959 0.0
C1212 C 0.16626 0.08128 0.19652 0.0
H1213 H 0.11736 0.19317 0.18852 0.0
H1214 H 0.13195 0.15322 0.18736 0.0
H1215 H 0.11832 0.0972 0.20628 0.0
H1216 H 0.14617 0.97957 0.19516 0.0
H1217 H 0.1296 0.01817 0.19603 0.0
C1218 C 0.98399 0.15678 0.20761 0.0
C1219 C 0.99461 0.17199 0.20108 0.0
C1220 C 0.95879 0.12655 0.20791 0.0
C1221 C 0.89227 0.06772 0.19732 0.0
H1222 H 0.89491 0.01029 0.2108 0.0
C1223 C 0.80972 0.93517 0.19606 0.0
C1224 C 0.79627 0.92 0.20246 0.0
C1225 C 0.83295 0.96635 0.19603 0.0
C1226 C 0.89372 0.02617 0.20706 0.0
H1227 H 0.9871 0.16745 0.18973 0.0
H1228 H 0.94371 0.11445 0.19022 0.0
H1229 H 0.93739 0.06384 0.21043 0.0
H1230 H 0.79665 0.92548 0.21384 0.0
H1231 H 0.83757 0.98009 0.2138 0.0
H1232 H 0.8489 0.02963 0.19385 0.0
C1233 C 0.95434 0.12606 0.19514 0.0
C1234 C 0.91801 0.0569 0.20685 0.0
C1235 C 0.97936 0.15642 0.19485 0.0
C1236 C 0.8065 0.93667 0.20883 0.0
C1237 C 0.83003 0.96779 0.20881 0.0
C1238 C 0.86814 0.03691 0.19748 0.0
C1239 C 0.9438 0.11068 0.20167 0.0
C1240 C 0.91764 0.07808 0.20197 0.0
C1241 C 0.84346 0.98293 0.2024 0.0
C1242 C 0.86866 0.01581 0.20235 0.0
H1243 H 0.99508 0.16823 0.21252 0.0
H1244 H 0.95098 0.1157 0.21304 0.0
H1245 H 0.89088 0.08348 0.19358 0.0
H1246 H 0.80203 0.92301 0.19106 0.0
H1247 H 0.84304 0.97736 0.19101 0.0
C1248 C 0.83418 0.8141 0.19435 0.0
C1249 C 0.82089 0.81745 0.20062 0.0
C1250 C 0.86451 0.81933 0.19434 0.0
C1251 C 0.93491 0.85173 0.19499 0.0
H1252 H 0.96531 0.82325 0.21052 0.0
C1253 C 0.06496 0.89343 0.19874 0.0
C1254 C 0.07302 0.87114 0.20073 0.0
C1255 C 0.03396 0.88611 0.1987 0.0
C1256 C 0.95711 0.83116 0.20611 0.0
H1257 H 0.82892 0.82853 0.21181 0.0
H1258 H 0.88186 0.83782 0.21177 0.0
H1259 H 0.91124 0.81077 0.21042 0.0
H1260 H 0.05462 0.82353 0.20418 0.0
H1261 H 0.00055 0.81081 0.20414 0.0
H1262 H 0.98066 0.87182 0.19064 0.0
C1263 C 0.86873 0.83086 0.20688 0.0
C1264 C 0.92623 0.82428 0.20609 0.0
C1265 C 0.83843 0.82569 0.20689 0.0
C1266 C 0.04931 0.8414 0.20272 0.0
C1267 C 0.01829 0.83409 0.20269 0.0
C1268 C 0.9658 0.85867 0.19502 0.0
C1269 C 0.8822 0.82796 0.2006 0.0
C1270 C 0.9148 0.83457 0.20054 0.0
C1271 C 0.01026 0.85634 0.20066 0.0
C1272 C 0.97729 0.84856 0.20059 0.0
H1273 H 0.82128 0.80768 0.18943 0.0
H1274 H 0.87408 0.8165 0.18943 0.0
H1275 H 0.92692 0.86026 0.19067 0.0
H1276 H 0.08265 0.9167 0.19729 0.0
H1277 H 0.02858 0.90394 0.19723 0.0
C1278 C 0.01919 0.1783 0.30418 0.0
C1279 C 0.00114 0.1736 0.29809 0.0
C1280 C 0.04387 0.17238 0.30407 0.0
C1281 C 0.0735 0.12829 0.29428 0.0
H1282 H 0.15105 0.18412 0.30368 0.0
C1283 C 0.17049 0.09815 0.29836 0.0
C1284 C 0.20128 0.12204 0.29733 0.0
C1285 C 0.14617 0.10457 0.29838 0.0
C1286 C 0.12962 0.16842 0.30098 0.0
H1287 H 0.99507 0.15921 0.28708 0.0
H1288 H 0.03819 0.14918 0.28688 0.0
H1289 H 0.10873 0.19553 0.30379 0.0
H1290 H 0.23056 0.17147 0.29552 0.0
H1291 H 0.18809 0.18257 0.29545 0.0
H1292 H 0.09453 0.10144 0.29138 0.0
C1293 C 0.03304 0.15706 0.29177 0.0
C1294 C 0.10525 0.17477 0.30112 0.0
C1295 C 0.00843 0.16302 0.29188 0.0
C1296 C 0.20713 0.15247 0.29627 0.0
C1297 C 0.18281 0.1589 0.29631 0.0
C1298 C 0.09784 0.12191 0.29416 0.0
C1299 C 0.051 0.16157 0.29787 0.0
C1300 C 0.07691 0.1548 0.29776 0.0
C1301 C 0.15205 0.13504 0.29739 0.0
C1302 C 0.1262 0.1419 0.2975 0.0
H1303 H 0.01417 0.18638 0.30906 0.0
H1304 H 0.05703 0.17577 0.30889 0.0
H1305 H 0.05187 0.11225 0.29171 0.0
H1306 H 0.16515 0.07442 0.29911 0.0
H1307 H 0.12278 0.08568 0.29929 0.0
C1308 C 0.82669 0.84044 0.29058 0.0
C1309 C 0.82277 0.82474 0.29701 0.0
C1310 C 0.83157 0.87064 0.2905 0.0
C1311 C 0.82459 0.92849 0.30167 0.0
H1312 H 0.88259 0.98688 0.28801 0.0
C1313 C 0.87332 0.06103 0.30323 0.0
C1314 C 0.87397 0.07611 0.29688 0.0
C1315 C 0.86568 0.02992 0.30319 0.0
C1316 C 0.86611 0.97074 0.29181 0.0
H1317 H 0.82086 0.8284 0.30842 0.0
H1318 H 0.83023 0.88135 0.30831 0.0
H1319 H 0.87217 0.93354 0.2881 0.0
H1320 H 0.86727 0.07052 0.28553 0.0
H1321 H 0.85411 0.01611 0.28545 0.0
H1322 H 0.81928 0.96614 0.30548 0.0
C1323 C 0.82883 0.87015 0.3033 0.0
C1324 C 0.86003 0.94012 0.29185 0.0
C1325 C 0.82364 0.83982 0.30337 0.0
C1326 C 0.86673 0.05941 0.2905 0.0
C1327 C 0.85946 0.0284 0.29045 0.0
C1328 C 0.83094 0.95921 0.30167 0.0
C1329 C 0.83297 0.88601 0.29686 0.0
C1330 C 0.83917 0.91856 0.29678 0.0
C1331 C 0.85889 0.01336 0.29679 0.0
C1332 C 0.85176 0.98064 0.29673 0.0
H1333 H 0.8259 0.82938 0.28558 0.0
H1334 H 0.83404 0.88184 0.28544 0.0
H1335 H 0.80799 0.91245 0.30546 0.0
H1336 H 0.87849 0.07324 0.30823 0.0
H1337 H 0.86562 0.01897 0.30815 0.0
C1338 C 0.16103 0.98317 0.30514 0.0
C1339 C 0.17733 0.9961 0.29882 0.0
C1340 C 0.13038 0.95863 0.30496 0.0
C1341 C 0.06233 0.92042 0.29296 0.0
H1342 H 0.03202 0.85429 0.30686 0.0
C1343 C 0.94286 0.80896 0.29062 0.0
C1344 C 0.92461 0.79938 0.29678 0.0
C1345 C 0.97386 0.83263 0.29092 0.0
C1346 C 0.04014 0.87274 0.30298 0.0
H1347 H 0.17458 0.99287 0.28736 0.0
H1348 H 0.1216 0.94966 0.28705 0.0
H1349 H 0.08607 0.89591 0.30728 0.0
H1350 H 0.92467 0.80657 0.3081 0.0
H1351 H 0.97888 0.84795 0.30862 0.0
H1352 H 0.01646 0.89693 0.28861 0.0
C1353 C 0.13208 0.95894 0.29215 0.0
C1354 C 0.07107 0.89664 0.30322 0.0
C1355 C 0.16258 0.98361 0.29233 0.0
C1356 C 0.93808 0.81372 0.30326 0.0
C1357 C 0.96916 0.83717 0.30356 0.0
C1358 C 0.03152 0.8964 0.29268 0.0
C1359 C 0.11545 0.94633 0.29845 0.0
C1360 C 0.08256 0.9208 0.29822 0.0
C1361 C 0.98731 0.84697 0.29739 0.0
C1362 C 0.0201 0.87233 0.29768 0.0
H1363 H 0.17172 0.9924 0.31023 0.0
H1364 H 0.11818 0.94978 0.30992 0.0
H1365 H 0.07014 0.93895 0.28911 0.0
H1366 H 0.93303 0.79846 0.28556 0.0
H1367 H 0.98738 0.83958 0.28608 0.0
C1368 C 0.84658 0.99692 0.79529 0.0
C1369 C 0.82429 0.99658 0.7999 0.0
C1370 C 0.85217 0.97208 0.79514 0.0
C1371 C 0.83776 0.90175 0.80537 0.0
H1372 H 0.86256 0.88072 0.7877 0.0
C1373 C 0.84226 0.78882 0.8006 0.0
C1374 C 0.87126 0.79378 0.79831 0.0
C1375 C 0.83621 0.81338 0.80079 0.0
C1376 C 0.85573 0.88646 0.79266 0.0
H1377 H 0.78997 0.96987 0.80789 0.0
H1378 H 0.7985 0.92575 0.8074 0.0
H1379 H 0.85159 0.92328 0.78799 0.0
H1380 H 0.91641 0.82787 0.79433 0.0
H1381 H 0.90545 0.87083 0.79444 0.0
H1382 H 0.84079 0.86384 0.80992 0.0
C1383 C 0.81258 0.94562 0.80407 0.0
C1384 C 0.84965 0.911 0.79287 0.0
C1385 C 0.80749 0.97082 0.80432 0.0
C1386 C 0.89393 0.8236 0.79612 0.0
C1387 C 0.88763 0.84801 0.79616 0.0
C1388 C 0.8432 0.87679 0.80512 0.0
C1389 C 0.83509 0.94592 0.79949 0.0
C1390 C 0.84083 0.9192 0.79924 0.0
C1391 C 0.85882 0.84313 0.79856 0.0
C1392 C 0.85245 0.86912 0.79878 0.0
H1393 H 0.86014 0.01669 0.79188 0.0
H1394 H 0.87023 0.97368 0.79167 0.0
H1395 H 0.83165 0.9076 0.81041 0.0
H1396 H 0.82456 0.7661 0.80239 0.0
H1397 H 0.8138 0.80911 0.80265 0.0
C1398 C 0.19009 0.0584 0.79276 0.0
C1399 C 0.1973 0.07525 0.79912 0.0
C1400 C 0.16629 0.02743 0.79253 0.0
C1401 C 0.12298 0.95879 0.80367 0.0
H1402 H 0.06029 0.93088 0.78898 0.0
C1403 C 0.01263 0.83848 0.80476 0.0
C1404 C 0.00044 0.82245 0.79838 0.0
C1405 C 0.03708 0.86911 0.80472 0.0
C1406 C 0.07786 0.93811 0.79305 0.0
H1407 H 0.18559 0.07282 0.81024 0.0
H1408 H 0.14412 0.01862 0.80985 0.0
H1409 H 0.10237 0.98471 0.7891 0.0
H1410 H 0.0047 0.8258 0.78695 0.0
H1411 H 0.04799 0.87897 0.78687 0.0
H1412 H 0.09903 0.91226 0.80758 0.0
C1413 C 0.15682 0.02942 0.80504 0.0
C1414 C 0.10189 0.96899 0.79313 0.0
C1415 C 0.18034 0.06048 0.80525 0.0
C1416 C 0.01346 0.8376 0.79195 0.0
C1417 C 0.03816 0.86817 0.79191 0.0
C1418 C 0.09919 0.92784 0.80356 0.0
C1419 C 0.14954 0.01261 0.79868 0.0
C1420 C 0.12453 0.97968 0.79847 0.0
C1421 C 0.05021 0.88438 0.7983 0.0
C1422 C 0.07615 0.91713 0.79828 0.0
H1423 H 0.20264 0.06929 0.78794 0.0
H1424 H 0.16124 0.01494 0.78756 0.0
H1425 H 0.1404 0.96633 0.8078 0.0
H1426 H 0.00297 0.82754 0.8098 0.0
H1427 H 0.04532 0.88097 0.80974 0.0
C1428 C 0.16888 0.22101 0.80314 0.0
C1429 C 0.17798 0.19867 0.80406 0.0
C1430 C 0.13753 0.21204 0.8025 0.0
C1431 C 0.0587 0.1466 0.80622 0.0
H1432 H 0.03364 0.19052 0.79326 0.0
C1433 C 0.93936 0.13526 0.7936 0.0
C1434 C 0.92091 0.12643 0.79973 0.0
C1435 C 0.97079 0.14411 0.79401 0.0
C1436 C 0.04018 0.1778 0.79686 0.0
H1437 H 0.16134 0.14935 0.80497 0.0
H1438 H 0.10669 0.13364 0.80373 0.0
H1439 H 0.08811 0.20503 0.79404 0.0
H1440 H 0.92111 0.12103 0.81111 0.0
H1441 H 0.97589 0.1369 0.81185 0.0
H1442 H 0.01071 0.11877 0.80889 0.0
C1443 C 0.12371 0.15816 0.80364 0.0
C1444 C 0.0715 0.1864 0.79737 0.0
C1445 C 0.15507 0.16715 0.80432 0.0
C1446 C 0.93461 0.12713 0.80628 0.0
C1447 C 0.96601 0.13617 0.80669 0.0
C1448 C 0.02739 0.13789 0.80567 0.0
C1449 C 0.11455 0.1805 0.80273 0.0
C1450 C 0.08116 0.171 0.80208 0.0
C1451 C 0.98446 0.14453 0.80056 0.0
C1452 C 0.01775 0.15349 0.80102 0.0
H1453 H 0.18596 0.2455 0.80296 0.0
H1454 H 0.1313 0.2299 0.80193 0.0
H1455 H 0.06531 0.13444 0.80996 0.0
H1456 H 0.92933 0.13464 0.78848 0.0
H1457 H 0.9842 0.15002 0.78916 0.0
C1458 C 0.99357 0.83381 0.69761 0.0
C1459 C 0.98416 0.80209 0.69785 0.0
C1460 C 0.97184 0.8436 0.69829 0.0
C1461 C 0.92021 0.8575 0.6956 0.0
H1462 H 0.84893 0.81367 0.70792 0.0
C1463 C 0.81764 0.88043 0.69485 0.0
C1464 C 0.80255 0.87904 0.70123 0.0
C1465 C 0.84016 0.87153 0.6946 0.0
C1466 C 0.86887 0.82645 0.70452 0.0
H1467 H 0.94461 0.75573 0.69897 0.0
H1468 H 0.90653 0.77269 0.69993 0.0
H1469 H 0.88783 0.79778 0.70743 0.0
H1470 H 0.79965 0.86798 0.71239 0.0
H1471 H 0.83959 0.8532 0.71202 0.0
H1472 H 0.90189 0.88689 0.69288 0.0
C1473 C 0.93078 0.79012 0.6994 0.0
C1474 C 0.89099 0.81701 0.70415 0.0
C1475 C 0.95259 0.78035 0.6988 0.0
C1476 C 0.81068 0.86891 0.70738 0.0
C1477 C 0.83348 0.86034 0.70716 0.0
C1478 C 0.89828 0.86714 0.69602 0.0
C1479 C 0.94012 0.82188 0.69914 0.0
C1480 C 0.91686 0.8323 0.69965 0.0
C1481 C 0.8484 0.86137 0.70075 0.0
C1482 C 0.8722 0.85161 0.70045 0.0
H1483 H 0.01781 0.85116 0.69695 0.0
H1484 H 0.98001 0.86826 0.6982 0.0
H1485 H 0.93958 0.86962 0.692 0.0
H1486 H 0.81146 0.88766 0.69 0.0
H1487 H 0.85065 0.87205 0.68954 0.0
C1488 C 0.12236 0.9386 0.6932 0.0
C1489 C 0.12639 0.92607 0.69951 0.0
C1490 C 0.12874 0.96929 0.69296 0.0
C1491 C 0.13232 0.03069 0.70413 0.0
H1492 H 0.18224 0.08607 0.68904 0.0
C1493 C 0.17124 0.1606 0.70471 0.0
C1494 C 0.17233 0.17538 0.6983 0.0
C1495 C 0.16608 0.13035 0.70476 0.0
C1496 C 0.16786 0.07081 0.69323 0.0
H1497 H 0.14015 0.93568 0.71051 0.0
H1498 H 0.15102 0.98939 0.71013 0.0
H1499 H 0.1724 0.03285 0.6893 0.0
H1500 H 0.16874 0.17003 0.68689 0.0
H1501 H 0.15874 0.11675 0.68696 0.0
H1502 H 0.12699 0.0681 0.70798 0.0
C1503 C 0.14301 0.97543 0.70537 0.0
C1504 C 0.16237 0.04038 0.69339 0.0
C1505 C 0.13704 0.94485 0.70557 0.0
C1506 C 0.16815 0.15926 0.69191 0.0
C1507 C 0.1626 0.12879 0.69196 0.0
C1508 C 0.13747 0.06095 0.70392 0.0
C1509 C 0.13889 0.98791 0.69906 0.0
C1510 C 0.14469 0.02012 0.69886 0.0
C1511 C 0.16148 0.11394 0.69839 0.0
C1512 C 0.15547 0.08149 0.6985 0.0
H1513 H 0.11451 0.92473 0.68843 0.0
H1514 H 0.12522 0.97831 0.68804 0.0
H1515 H 0.1182 0.01537 0.70834 0.0
H1516 H 0.17472 0.17251 0.70972 0.0
H1517 H 0.16607 0.11997 0.7098 0.0
C1518 C 0.84316 0.01527 0.69736 0.0
C1519 C 0.8198 0.0233 0.69725 0.0
C1520 C 0.87437 0.03825 0.69793 0.0
C1521 C 0.92788 0.12034 0.69434 0.0
H1522 H 0.98211 0.11156 0.70774 0.0
C1523 C 0.06142 0.19683 0.69373 0.0
C1524 C 0.07624 0.20914 0.70023 0.0
C1525 C 0.02985 0.17477 0.69351 0.0
C1526 C 0.96717 0.11436 0.70401 0.0
H1527 H 0.81084 0.0617 0.69759 0.0
H1528 H 0.86541 0.10183 0.69847 0.0
H1529 H 0.92727 0.07149 0.70709 0.0
H1530 H 0.06975 0.20792 0.71159 0.0
H1531 H 0.01442 0.16892 0.71121 0.0
H1532 H 0.96782 0.16302 0.6912 0.0
C1533 C 0.85952 0.07775 0.69814 0.0
C1534 C 0.93592 0.09136 0.70359 0.0
C1535 C 0.82829 0.05477 0.69768 0.0
C1536 C 0.05883 0.19894 0.70651 0.0
C1537 C 0.02731 0.17651 0.7063 0.0
C1538 C 0.95921 0.14312 0.69469 0.0
C1539 C 0.88285 0.06972 0.69829 0.0
C1540 C 0.91597 0.09414 0.69876 0.0
C1541 C 0.01252 0.16425 0.69979 0.0
C1542 C 0.97916 0.14036 0.69952 0.0
H1543 H 0.83735 0.99121 0.69706 0.0
H1544 H 0.89193 0.03144 0.69797 0.0
H1545 H 0.91306 0.12297 0.69054 0.0
H1546 H 0.07419 0.20453 0.68881 0.0
H1547 H 0.01908 0.16557 0.68843 0.0
C1548 C 0.79617 0.51933 0.54027 0.0
C1549 C 0.78811 0.52877 0.534 0.0
C1550 C 0.80451 0.49635 0.54013 0.0
C1551 C 0.80023 0.4331 0.52883 0.0
H1552 H 0.86618 0.44101 0.54113 0.0
C1553 C 0.88534 0.37733 0.53248 0.0
C1554 C 0.86375 0.34595 0.53122 0.0
C1555 C 0.87559 0.39916 0.53306 0.0
C1556 C 0.8479 0.43856 0.53761 0.0
H1557 H 0.78298 0.52192 0.52265 0.0
H1558 H 0.79809 0.48236 0.52235 0.0
H1559 H 0.85063 0.48021 0.5415 0.0
H1560 H 0.81487 0.31267 0.52975 0.0
H1561 H 0.79777 0.35052 0.53093 0.0
H1562 H 0.79836 0.39217 0.52473 0.0
C1563 C 0.79719 0.49202 0.52742 0.0
C1564 C 0.83866 0.46084 0.5379 0.0
C1565 C 0.78857 0.51477 0.52758 0.0
C1566 C 0.83214 0.33675 0.53065 0.0
C1567 C 0.82235 0.35851 0.53129 0.0
C1568 C 0.80964 0.41096 0.52851 0.0
C1569 C 0.80527 0.48249 0.53369 0.0
C1570 C 0.81474 0.45845 0.53349 0.0
C1571 C 0.84397 0.39006 0.53244 0.0
C1572 C 0.83364 0.41342 0.53288 0.0
H1573 H 0.79564 0.52945 0.5453 0.0
H1574 H 0.81004 0.48924 0.54508 0.0
H1575 H 0.78145 0.43022 0.52543 0.0
H1576 H 0.90988 0.38517 0.53291 0.0
H1577 H 0.89297 0.42329 0.53383 0.0
C1578 C 0.45573 0.2801 0.53492 0.0
C1579 C 0.46332 0.25685 0.53365 0.0
C1580 C 0.47821 0.31142 0.53425 0.0
C1581 C 0.56276 0.36507 0.534 0.0
H1582 H 0.5409 0.41962 0.52404 0.0
C1583 C 0.65458 0.48992 0.52619 0.0
C1584 C 0.64661 0.5131 0.52713 0.0
C1585 C 0.63216 0.45861 0.52689 0.0
C1586 C 0.54729 0.40479 0.5269 0.0
H1587 H 0.50067 0.24828 0.5309 0.0
H1588 H 0.53985 0.30293 0.52966 0.0
H1589 H 0.50195 0.36517 0.52569 0.0
H1590 H 0.60876 0.52153 0.52946 0.0
H1591 H 0.56978 0.46697 0.53077 0.0
H1592 H 0.60805 0.40468 0.53524 0.0
C1593 C 0.51653 0.29694 0.53119 0.0
C1594 C 0.52497 0.37359 0.52785 0.0
C1595 C 0.49402 0.26563 0.53183 0.0
C1596 C 0.61567 0.50426 0.52869 0.0
C1597 C 0.59326 0.47296 0.5294 0.0
C1598 C 0.58507 0.39628 0.53306 0.0
C1599 C 0.5088 0.32017 0.53233 0.0
C1600 C 0.53246 0.35339 0.5314 0.0
C1601 C 0.60128 0.44976 0.52856 0.0
C1602 C 0.5776 0.41651 0.5295 0.0
H1603 H 0.43225 0.27413 0.53627 0.0
H1604 H 0.47163 0.3288 0.53524 0.0
H1605 H 0.56912 0.35016 0.53684 0.0
H1606 H 0.67821 0.49593 0.52496 0.0
H1607 H 0.63901 0.44131 0.5261 0.0
C1608 C 0.73181 0.22387 0.53123 0.0
C1609 C 0.74008 0.20111 0.53252 0.0
C1610 C 0.70062 0.21583 0.53082 0.0
C1611 C 0.62267 0.14892 0.52749 0.0
H1612 H 0.59405 0.20081 0.53613 0.0
C1613 C 0.49277 0.10975 0.53003 0.0
C1614 C 0.48382 0.13192 0.52865 0.0
C1615 C 0.52413 0.11856 0.53049 0.0
C1616 C 0.60176 0.18627 0.53362 0.0
H1617 H 0.72188 0.15199 0.5344 0.0
H1618 H 0.66759 0.13808 0.53383 0.0
H1619 H 0.64865 0.21556 0.53703 0.0
H1620 H 0.50083 0.18079 0.52666 0.0
H1621 H 0.55558 0.19608 0.52738 0.0
H1622 H 0.57582 0.11961 0.52408 0.0
C1623 C 0.68524 0.16212 0.53305 0.0
C1624 C 0.63303 0.19471 0.53414 0.0
C1625 C 0.7164 0.17016 0.53346 0.0
C1626 C 0.50693 0.16312 0.52773 0.0
C1627 C 0.53832 0.17193 0.52819 0.0
C1628 C 0.59143 0.14048 0.52697 0.0
C1629 C 0.67698 0.18482 0.53169 0.0
C1630 C 0.64382 0.17607 0.5311 0.0
C1631 C 0.54726 0.14974 0.52957 0.0
C1632 C 0.58059 0.159 0.53005 0.0
H1633 H 0.74945 0.24796 0.53056 0.0
H1634 H 0.69504 0.23384 0.52971 0.0
H1635 H 0.63034 0.13435 0.52498 0.0
H1636 H 0.47556 0.08555 0.53079 0.0
H1637 H 0.53024 0.10097 0.53165 0.0
C1638 C 0.68132 0.51326 0.62513 0.0
C1639 C 0.66946 0.51584 0.63169 0.0
C1640 C 0.70595 0.50733 0.62483 0.0
C1641 C 0.74284 0.47205 0.63497 0.0
H1642 H 0.81386 0.51974 0.62278 0.0
C1643 C 0.85102 0.45875 0.63645 0.0
C1644 C 0.8666 0.46032 0.63013 0.0
C1645 C 0.82735 0.46606 0.63653 0.0
C1646 C 0.794 0.50588 0.62614 0.0
H1647 H 0.67428 0.51442 0.64308 0.0
H1648 H 0.71704 0.5037 0.64254 0.0
H1649 H 0.77175 0.5315 0.62307 0.0
H1650 H 0.86955 0.47059 0.61893 0.0
H1651 H 0.82761 0.48265 0.61899 0.0
H1652 H 0.76447 0.44593 0.63794 0.0
C1653 C 0.70724 0.50627 0.63764 0.0
C1654 C 0.76996 0.51273 0.62632 0.0
C1655 C 0.68288 0.51257 0.63794 0.0
C1656 C 0.8581 0.46948 0.62388 0.0
C1657 C 0.83414 0.47647 0.62394 0.0
C1658 C 0.76666 0.46497 0.63474 0.0
C1659 C 0.71894 0.50347 0.63108 0.0
C1660 C 0.74427 0.49602 0.63078 0.0
C1661 C 0.8184 0.47478 0.63026 0.0
C1662 C 0.79269 0.48194 0.63036 0.0
H1663 H 0.67153 0.51573 0.62022 0.0
H1664 H 0.71441 0.5051 0.6197 0.0
H1665 H 0.72305 0.45847 0.63838 0.0
H1666 H 0.85749 0.45235 0.64137 0.0
H1667 H 0.81632 0.4652 0.64153 0.0
C1668 C 0.48082 0.17281 0.63898 0.0
C1669 C 0.49749 0.16438 0.63436 0.0
C1670 C 0.48607 0.20319 0.639 0.0
C1671 C 0.54401 0.28302 0.63552 0.0
H1672 H 0.47562 0.29708 0.63151 0.0
C1673 C 0.56482 0.4064 0.6307 0.0
C1674 C 0.5419 0.4132 0.63285 0.0
C1675 C 0.55921 0.37594 0.63093 0.0
C1676 C 0.49494 0.2937 0.63277 0.0
H1677 H 0.53319 0.18107 0.62628 0.0
H1678 H 0.54303 0.23442 0.62648 0.0
H1679 H 0.46629 0.24416 0.63222 0.0
H1680 H 0.49551 0.39389 0.6371 0.0
H1681 H 0.486 0.34096 0.63783 0.0
H1682 H 0.5726 0.33221 0.63635 0.0
C1683 C 0.52565 0.21742 0.63 0.0
C1684 C 0.48953 0.26333 0.63314 0.0
C1685 C 0.5199 0.18694 0.62987 0.0
C1686 C 0.51335 0.38909 0.6353 0.0
C1687 C 0.50792 0.35873 0.63568 0.0
C1688 C 0.54934 0.31337 0.63531 0.0
C1689 C 0.5086 0.22573 0.63452 0.0
C1690 C 0.51407 0.25778 0.63445 0.0
C1691 C 0.53074 0.35166 0.63348 0.0
C1692 C 0.52493 0.3192 0.63386 0.0
H1693 H 0.46331 0.15581 0.64248 0.0
H1694 H 0.47273 0.20916 0.64254 0.0
H1695 H 0.56325 0.27922 0.6366 0.0
H1696 H 0.58694 0.42467 0.62875 0.0
H1697 H 0.57714 0.37149 0.62904 0.0
C1698 C 0.60622 0.14398 0.6391 0.0
C1699 C 0.59202 0.13007 0.63265 0.0
C1700 C 0.63761 0.16657 0.63933 0.0
C1701 C 0.71085 0.19821 0.62912 0.0
H1702 H 0.73695 0.2685 0.64171 0.0
C1703 C 0.82553 0.32558 0.63535 0.0
C1704 C 0.84877 0.31742 0.63507 0.0
C1705 C 0.79424 0.30279 0.63491 0.0
C1706 C 0.73005 0.2492 0.63811 0.0
H1707 H 0.5995 0.12901 0.62138 0.0
H1708 H 0.65424 0.16883 0.62174 0.0
H1709 H 0.68238 0.22901 0.64108 0.0
H1710 H 0.85741 0.27894 0.63414 0.0
H1711 H 0.80285 0.23914 0.63354 0.0
H1712 H 0.75842 0.21893 0.62599 0.0
C1713 C 0.64129 0.16186 0.62665 0.0
C1714 C 0.69877 0.2263 0.63782 0.0
C1715 C 0.60992 0.13908 0.62644 0.0
C1716 C 0.84007 0.28601 0.63433 0.0
C1717 C 0.80877 0.26319 0.63395 0.0
C1718 C 0.74212 0.22122 0.62938 0.0
C1719 C 0.65551 0.17595 0.6331 0.0
C1720 C 0.68879 0.20046 0.63334 0.0
C1721 C 0.78545 0.27129 0.63424 0.0
C1722 C 0.75213 0.24697 0.63389 0.0
H1723 H 0.59315 0.13711 0.64399 0.0
H1724 H 0.64791 0.17643 0.64441 0.0
H1725 H 0.70405 0.17848 0.62566 0.0
H1726 H 0.83149 0.34963 0.63586 0.0
H1727 H 0.77695 0.30993 0.63503 0.0
C1728 C 0.558 0.15733 0.12858 0.0
C1729 C 0.53565 0.12815 0.13114 0.0
C1730 C 0.55191 0.18185 0.12838 0.0
C1731 C 0.48739 0.19964 0.12998 0.0
H1732 H 0.55556 0.28304 0.1333 0.0
C1733 C 0.47318 0.30587 0.13661 0.0
C1734 C 0.48969 0.33157 0.13213 0.0
C1735 C 0.47823 0.28067 0.13629 0.0
C1736 C 0.53638 0.25985 0.13234 0.0
H1737 H 0.48961 0.10162 0.13561 0.0
H1738 H 0.47927 0.14458 0.13559 0.0
H1739 H 0.56534 0.23971 0.13321 0.0
H1740 H 0.52474 0.3514 0.12392 0.0
H1741 H 0.53422 0.30764 0.12354 0.0
H1742 H 0.45835 0.22009 0.12944 0.0
C1743 C 0.50113 0.1485 0.13346 0.0
C1744 C 0.54194 0.23498 0.13222 0.0
C1745 C 0.50703 0.12383 0.13351 0.0
C1746 C 0.51155 0.33178 0.12739 0.0
C1747 C 0.51709 0.30689 0.12719 0.0
C1748 C 0.48177 0.22448 0.13025 0.0
C1749 C 0.52352 0.17793 0.13091 0.0
C1750 C 0.51755 0.20449 0.13101 0.0
C1751 C 0.50037 0.28109 0.13162 0.0
C1752 C 0.50624 0.25477 0.13139 0.0
H1753 H 0.58014 0.16105 0.12667 0.0
H1754 H 0.56949 0.20384 0.12622 0.0
H1755 H 0.46807 0.1767 0.12889 0.0
H1756 H 0.45613 0.30511 0.14029 0.0
H1757 H 0.46519 0.26104 0.13978 0.0
C1758 C 0.85288 0.39316 0.13534 0.0
C1759 C 0.86654 0.40865 0.12899 0.0
C1760 C 0.82966 0.362 0.1353 0.0
C1761 C 0.76929 0.3025 0.12408 0.0
H1762 H 0.7702 0.24554 0.13797 0.0
C1763 C 0.67677 0.17198 0.12428 0.0
C1764 C 0.66588 0.15803 0.13093 0.0
C1765 C 0.70224 0.20203 0.12378 0.0
C1766 C 0.76938 0.2612 0.1341 0.0
H1767 H 0.86662 0.40366 0.1176 0.0
H1768 H 0.82578 0.34898 0.1175 0.0
H1769 H 0.813 0.29892 0.13755 0.0
H1770 H 0.67307 0.16479 0.14227 0.0
H1771 H 0.71693 0.21731 0.1414 0.0
H1772 H 0.72535 0.26507 0.12073 0.0
C1773 C 0.83311 0.36108 0.12252 0.0
C1774 C 0.79398 0.29175 0.13386 0.0
C1775 C 0.85661 0.39224 0.12258 0.0
C1776 C 0.68097 0.17478 0.13706 0.0
C1777 C 0.70629 0.20486 0.13656 0.0
C1778 C 0.74455 0.27197 0.12436 0.0
C1779 C 0.81939 0.34566 0.12889 0.0
C1780 C 0.79407 0.31279 0.12888 0.0
C1781 C 0.7173 0.21887 0.12992 0.0
C1782 C 0.74416 0.25101 0.12942 0.0
H1783 H 0.86031 0.40508 0.14037 0.0
H1784 H 0.81935 0.35083 0.14028 0.0
H1785 H 0.76858 0.3183 0.12024 0.0
H1786 H 0.66577 0.15964 0.11945 0.0
H1787 H 0.71033 0.21191 0.11858 0.0
C1788 C 0.59494 0.43475 0.13265 0.0
C1789 C 0.58799 0.45884 0.13229 0.0
C1790 C 0.62569 0.44128 0.13256 0.0
C1791 C 0.70599 0.504 0.13589 0.0
H1792 H 0.72756 0.45136 0.12502 0.0
C1793 C 0.8256 0.51143 0.1381 0.0
C1794 C 0.83899 0.50862 0.13179 0.0
C1795 C 0.79523 0.50615 0.13814 0.0
C1796 C 0.72198 0.46644 0.12804 0.0
H1797 H 0.60802 0.50874 0.13156 0.0
H1798 H 0.66171 0.52011 0.13126 0.0
H1799 H 0.67424 0.44094 0.12497 0.0
H1800 H 0.83107 0.4985 0.12056 0.0
H1801 H 0.77835 0.48962 0.12063 0.0
H1802 H 0.75391 0.5298 0.13886 0.0
C1803 C 0.64333 0.49617 0.1317 0.0
C1804 C 0.69134 0.46024 0.12808 0.0
C1805 C 0.61253 0.48963 0.13179 0.0
C1806 C 0.82146 0.50074 0.12552 0.0
C1807 C 0.79113 0.49546 0.12556 0.0
C1808 C 0.73667 0.51018 0.13586 0.0
C1809 C 0.65026 0.47206 0.13209 0.0
C1810 C 0.68296 0.47892 0.13201 0.0
C1811 C 0.77758 0.49791 0.13188 0.0
C1812 C 0.74502 0.49147 0.13193 0.0
H1813 H 0.57659 0.41077 0.13295 0.0
H1814 H 0.63022 0.42218 0.13293 0.0
H1815 H 0.70024 0.51864 0.13902 0.0
H1816 H 0.83847 0.51743 0.14302 0.0
H1817 H 0.78536 0.50792 0.14311 0.0
C1818 C 0.61954 0.11676 0.0312 0.0
C1819 C 0.65024 0.13772 0.02918 0.0
C1820 C 0.59789 0.12663 0.0319 0.0
C1821 C 0.58174 0.18847 0.02653 0.0
H1822 H 0.52402 0.15738 0.04228 0.0
C1823 C 0.4961 0.2323 0.03253 0.0
C1824 C 0.46555 0.2095 0.03425 0.0
C1825 C 0.51962 0.22477 0.0321 0.0
C1826 C 0.53981 0.16607 0.03782 0.0
H1827 H 0.68229 0.18556 0.02629 0.0
H1828 H 0.64447 0.20284 0.02756 0.0
H1829 H 0.56326 0.14202 0.0411 0.0
H1830 H 0.43587 0.16081 0.03682 0.0
H1831 H 0.47681 0.14777 0.03611 0.0
H1832 H 0.55814 0.21243 0.02324 0.0
C1833 C 0.63708 0.17867 0.02853 0.0
C1834 C 0.56228 0.15725 0.03714 0.0
C1835 C 0.65877 0.16878 0.02782 0.0
C1836 C 0.45917 0.17908 0.0356 0.0
C1837 C 0.48267 0.17158 0.03518 0.0
C1838 C 0.55927 0.19733 0.02722 0.0
C1839 C 0.60642 0.15772 0.03061 0.0
C1840 C 0.58333 0.16811 0.03145 0.0
C1841 C 0.51314 0.1943 0.03341 0.0
C1842 C 0.53788 0.186 0.03283 0.0
H1843 H 0.61214 0.09265 0.03225 0.0
H1844 H 0.57434 0.10979 0.03339 0.0
H1845 H 0.59738 0.19696 0.02205 0.0
H1846 H 0.50193 0.25605 0.03156 0.0
H1847 H 0.54296 0.24289 0.03082 0.0
C1848 C 0.88767 0.50777 0.03089 0.0
C1849 C 0.86628 0.51706 0.02894 0.0
C1850 C 0.87856 0.47633 0.03131 0.0
C1851 C 0.80954 0.39853 0.03326 0.0
H1852 H 0.86455 0.37051 0.02618 0.0
C1853 C 0.77247 0.2686 0.03088 0.0
C1854 C 0.79444 0.26005 0.03283 0.0
C1855 C 0.78082 0.29987 0.03043 0.0
C1856 C 0.84907 0.37801 0.02825 0.0
H1857 H 0.81848 0.50055 0.02589 0.0
H1858 H 0.80267 0.44565 0.02655 0.0
H1859 H 0.87985 0.42518 0.02527 0.0
H1860 H 0.84249 0.2778 0.03583 0.0
H1861 H 0.8569 0.33224 0.03517 0.0
H1862 H 0.77877 0.35131 0.03624 0.0
C1863 C 0.82642 0.46271 0.02784 0.0
C1864 C 0.85784 0.40934 0.02773 0.0
C1865 C 0.83554 0.49419 0.02741 0.0
C1866 C 0.8249 0.28351 0.03438 0.0
C1867 C 0.83327 0.31476 0.03392 0.0
C1868 C 0.80077 0.36717 0.03378 0.0
C1869 C 0.84784 0.45342 0.02979 0.0
C1870 C 0.83823 0.42 0.03025 0.0
C1871 C 0.81137 0.32331 0.03191 0.0
C1872 C 0.82049 0.35657 0.03131 0.0
H1873 H 0.9115 0.52478 0.03213 0.0
H1874 H 0.89552 0.46995 0.03292 0.0
H1875 H 0.7941 0.40606 0.03534 0.0
H1876 H 0.74873 0.25114 0.02973 0.0
H1877 H 0.76346 0.30568 0.02882 0.0
C1878 C 0.7282 0.51927 0.02745 0.0
C1879 C 0.74246 0.5354 0.0337 0.0
C1880 C 0.69721 0.49553 0.02748 0.0
C1881 C 0.63671 0.43845 0.03904 0.0
H1882 H 0.57979 0.4365 0.02476 0.0
C1883 C 0.50589 0.34925 0.04023 0.0
C1884 C 0.49045 0.33659 0.03382 0.0
C1885 C 0.53629 0.37422 0.04026 0.0
C1886 C 0.59543 0.4364 0.02873 0.0
H1887 H 0.73565 0.53907 0.04491 0.0
H1888 H 0.68146 0.49728 0.045 0.0
H1889 H 0.63374 0.47832 0.02467 0.0
H1890 H 0.49476 0.34011 0.02238 0.0
H1891 H 0.54805 0.383 0.02241 0.0
H1892 H 0.59888 0.39621 0.04301 0.0
C1893 C 0.69428 0.50315 0.04006 0.0
C1894 C 0.62631 0.46045 0.02869 0.0
C1895 C 0.72515 0.52718 0.04001 0.0
C1896 C 0.50597 0.3495 0.02742 0.0
C1897 C 0.53651 0.37424 0.02744 0.0
C1898 C 0.60595 0.4142 0.03904 0.0
C1899 C 0.67998 0.48716 0.0338 0.0
C1900 C 0.64722 0.46172 0.03385 0.0
C1901 C 0.55212 0.38688 0.03386 0.0
C1902 C 0.58486 0.41286 0.03389 0.0
H1903 H 0.7409 0.52533 0.02251 0.0
H1904 H 0.6868 0.48344 0.02259 0.0
H1905 H 0.65247 0.43868 0.04303 0.0
H1906 H 0.49447 0.33997 0.04525 0.0
H1907 H 0.54729 0.3837 0.0453 0.0
C1908 C 0.49953 0.67603 0.8614 0.0
C1909 C 0.52629 0.68021 0.86489 0.0
C1910 C 0.49024 0.6982 0.86201 0.0
C1911 C 0.52074 0.78069 0.86686 0.0
H1912 H 0.43357 0.75647 0.86726 0.0
C1913 C 0.47904 0.86783 0.87244 0.0
C1914 C 0.45684 0.86723 0.86772 0.0
C1915 C 0.48657 0.84431 0.87235 0.0
C1916 C 0.45799 0.76353 0.86712 0.0
H1917 H 0.56372 0.71037 0.87195 0.0
H1918 H 0.54707 0.74855 0.87318 0.0
H1919 H 0.44844 0.71658 0.86678 0.0
H1920 H 0.42486 0.84063 0.85926 0.0
H1921 H 0.43764 0.79943 0.85924 0.0
H1922 H 0.53021 0.82762 0.8673 0.0
C1923 C 0.53371 0.72864 0.8698 0.0
C1924 C 0.46654 0.74072 0.86682 0.0
C1925 C 0.54317 0.70665 0.86913 0.0
C1926 C 0.44182 0.84195 0.86303 0.0
C1927 C 0.44915 0.81826 0.863 0.0
C1928 C 0.51218 0.80343 0.86724 0.0
C1929 C 0.50731 0.72488 0.86619 0.0
C1930 C 0.49805 0.74902 0.86666 0.0
C1931 C 0.47185 0.8194 0.8676 0.0
C1932 C 0.48074 0.79509 0.86734 0.0
H1933 H 0.48606 0.65593 0.85808 0.0
H1934 H 0.47005 0.6947 0.85908 0.0
H1935 H 0.5452 0.78802 0.8666 0.0
H1936 H 0.49065 0.88642 0.87623 0.0
H1937 H 0.50384 0.84552 0.87603 0.0
C1938 C 0.30419 0.83406 0.8637 0.0
C1939 C 0.32992 0.84245 0.86812 0.0
C1940 C 0.27901 0.80375 0.86379 0.0
C1941 C 0.25894 0.72454 0.86636 0.0
H1942 H 0.17585 0.70713 0.871 0.0
C1943 C 0.15812 0.59867 0.86897 0.0
C1944 C 0.12829 0.5921 0.86698 0.0
C1945 C 0.18245 0.62934 0.86935 0.0
C1946 C 0.19875 0.71149 0.86956 0.0
H1947 H 0.34972 0.82583 0.87602 0.0
H1948 H 0.30604 0.77248 0.87599 0.0
H1949 H 0.21866 0.76063 0.87098 0.0
H1950 H 0.10041 0.61208 0.86371 0.0
H1951 H 0.14301 0.66557 0.86402 0.0
H1952 H 0.23934 0.67595 0.8646 0.0
C1953 C 0.30524 0.78954 0.87256 0.0
C1954 C 0.22326 0.74216 0.86961 0.0
C1955 C 0.33008 0.82001 0.8726 0.0
C1956 C 0.12318 0.61668 0.86535 0.0
C1957 C 0.14764 0.64734 0.86557 0.0
C1958 C 0.23438 0.69395 0.86615 0.0
C1959 C 0.27952 0.7812 0.86817 0.0
C1960 C 0.25353 0.74887 0.86805 0.0
C1961 C 0.17767 0.65417 0.86759 0.0
C1962 C 0.2039 0.68691 0.86778 0.0
H1963 H 0.30347 0.85097 0.86021 0.0
H1964 H 0.2594 0.79772 0.86034 0.0
H1965 H 0.28214 0.72929 0.86508 0.0
H1966 H 0.16246 0.58002 0.87032 0.0
H1967 H 0.20493 0.63349 0.8711 0.0
C1968 C 0.38522 0.51297 0.87106 0.0
C1969 C 0.40603 0.53583 0.86634 0.0
C1970 C 0.35413 0.50535 0.87136 0.0
C1971 C 0.3018 0.53539 0.86741 0.0
H1972 H 0.2378 0.4487 0.86663 0.0
C1973 C 0.17336 0.49731 0.86229 0.0
C1974 C 0.15037 0.47028 0.86562 0.0
C1975 C 0.20463 0.50581 0.86282 0.0
C1976 C 0.25531 0.47301 0.86698 0.0
H1977 H 0.40975 0.56848 0.8582 0.0
H1978 H 0.3559 0.55561 0.85886 0.0
H1979 H 0.29223 0.46264 0.86683 0.0
H1980 H 0.14224 0.43153 0.87232 0.0
H1981 H 0.19683 0.4468 0.87342 0.0
H1982 H 0.26505 0.54589 0.86764 0.0
C1983 C 0.36385 0.54372 0.86235 0.0
C1984 C 0.28651 0.48096 0.86706 0.0
C1985 C 0.39484 0.55111 0.86199 0.0
C1986 C 0.15938 0.45234 0.86963 0.0
C1987 C 0.19069 0.46101 0.87023 0.0
C1988 C 0.2706 0.52745 0.8674 0.0
C1989 C 0.34314 0.52065 0.86701 0.0
C1990 C 0.31006 0.51223 0.86721 0.0
C1991 C 0.21371 0.48768 0.86677 0.0
C1992 C 0.24693 0.49616 0.86711 0.0
H1993 H 0.39284 0.50098 0.87458 0.0
H1994 H 0.33872 0.48769 0.87505 0.0
H1995 H 0.3195 0.55968 0.86762 0.0
H1996 H 0.16719 0.5116 0.85913 0.0
H1997 H 0.22159 0.52623 0.86 0.0
C1998 C 0.33414 0.81697 0.96069 0.0
C1999 C 0.33471 0.83921 0.96535 0.0
C2000 C 0.35919 0.81173 0.96035 0.0
C2001 C 0.43089 0.8272 0.97013 0.0
H2002 H 0.4503 0.80204 0.9523 0.0
C2003 C 0.54354 0.82297 0.96482 0.0
C2004 C 0.53831 0.79371 0.96268 0.0
C2005 C 0.51906 0.82914 0.96503 0.0
C2006 C 0.44502 0.80899 0.95731 0.0
H2007 H 0.36206 0.87384 0.97322 0.0
H2008 H 0.40648 0.86593 0.9724 0.0
H2009 H 0.40747 0.81256 0.95288 0.0
H2010 H 0.50388 0.74827 0.95892 0.0
H2011 H 0.46104 0.75943 0.95904 0.0
H2012 H 0.46949 0.82471 0.97443 0.0
C2013 C 0.3863 0.8516 0.96918 0.0
C2014 C 0.42033 0.81481 0.95768 0.0
C2015 C 0.36091 0.85633 0.96963 0.0
C2016 C 0.50835 0.77096 0.96059 0.0
C2017 C 0.48401 0.77736 0.96064 0.0
C2018 C 0.45599 0.82204 0.96971 0.0
C2019 C 0.38578 0.82912 0.96455 0.0
C2020 C 0.41269 0.82374 0.96411 0.0
C2021 C 0.48912 0.80638 0.96295 0.0
C2022 C 0.46309 0.81266 0.96332 0.0
H2023 H 0.31405 0.8032 0.95738 0.0
H2024 H 0.35742 0.7937 0.95685 0.0
H2025 H 0.4255 0.83339 0.97521 0.0
H2026 H 0.56637 0.84074 0.96654 0.0
H2027 H 0.52349 0.8517 0.96681 0.0
C2028 C 0.19375 0.72395 0.95965 0.0
C2029 C 0.20421 0.74271 0.96573 0.0
C2030 C 0.1847 0.69247 0.96003 0.0
C2031 C 0.19343 0.63622 0.97125 0.0
H2032 H 0.12296 0.57506 0.96048 0.0
C2033 C 0.10962 0.49463 0.96939 0.0
C2034 C 0.13222 0.48563 0.9698 0.0
C2035 C 0.11834 0.52594 0.96877 0.0
C2036 C 0.14255 0.59181 0.96357 0.0
H2037 H 0.21226 0.74294 0.97701 0.0
H2038 H 0.19616 0.68811 0.97771 0.0
H2039 H 0.13757 0.62961 0.95976 0.0
H2040 H 0.18174 0.50245 0.9698 0.0
H2041 H 0.19693 0.55694 0.96861 0.0
H2042 H 0.19788 0.59842 0.97523 0.0
C2043 C 0.19572 0.69779 0.9726 0.0
C2044 C 0.15117 0.62315 0.96308 0.0
C2045 C 0.20493 0.72924 0.97221 0.0
C2046 C 0.16373 0.50861 0.96955 0.0
C2047 C 0.17245 0.53989 0.9689 0.0
C2048 C 0.18474 0.60492 0.97176 0.0
C2049 C 0.18573 0.67905 0.96651 0.0
C2050 C 0.17667 0.64573 0.96694 0.0
C2051 C 0.14987 0.54896 0.96852 0.0
C2052 C 0.15918 0.58231 0.96793 0.0
H2053 H 0.19324 0.73378 0.95458 0.0
H2054 H 0.17749 0.67881 0.95522 0.0
H2055 H 0.21346 0.65302 0.97422 0.0
H2056 H 0.08514 0.47751 0.96959 0.0
H2057 H 0.10035 0.53212 0.9686 0.0
C2058 C 0.49275 0.65191 0.97079 0.0
C2059 C 0.50964 0.66386 0.9645 0.0
C2060 C 0.46223 0.62716 0.9706 0.0
C2061 C 0.39512 0.58607 0.95847 0.0
H2062 H 0.36502 0.52275 0.97305 0.0
C2063 C 0.27441 0.47483 0.95723 0.0
C2064 C 0.25689 0.46691 0.9635 0.0
C2065 C 0.30559 0.49822 0.95724 0.0
C2066 C 0.37307 0.54038 0.96896 0.0
H2067 H 0.50798 0.6588 0.95307 0.0
H2068 H 0.45509 0.61528 0.95274 0.0
H2069 H 0.41894 0.56458 0.97328 0.0
H2070 H 0.25854 0.47674 0.97473 0.0
H2071 H 0.31286 0.51759 0.97474 0.0
H2072 H 0.34921 0.5616 0.95413 0.0
C2073 C 0.46509 0.62543 0.95782 0.0
C2074 C 0.40393 0.56441 0.9691 0.0
C2075 C 0.49552 0.6503 0.95802 0.0
C2076 C 0.2713 0.4826 0.96979 0.0
C2077 C 0.3025 0.50575 0.96982 0.0
C2078 C 0.36432 0.5619 0.9583 0.0
C2079 C 0.44798 0.61366 0.96411 0.0
C2080 C 0.41531 0.58767 0.96388 0.0
C2081 C 0.31995 0.51389 0.96354 0.0
C2082 C 0.35292 0.53893 0.96357 0.0
H2083 H 0.50294 0.66193 0.97587 0.0
H2084 H 0.44962 0.61901 0.97553 0.0
H2085 H 0.4029 0.60384 0.95442 0.0
H2086 H 0.26386 0.46325 0.9523 0.0
H2087 H 0.31855 0.50388 0.95233 0.0
C2088 C 0.14153 0.64289 0.47081 0.0
C2089 C 0.15913 0.6675 0.46614 0.0
C2090 C 0.14643 0.61759 0.47119 0.0
C2091 C 0.20387 0.59486 0.46941 0.0
H2092 H 0.138 0.51323 0.46386 0.0
C2093 C 0.22687 0.49318 0.46579 0.0
C2094 C 0.20287 0.46302 0.46727 0.0
C2095 C 0.22126 0.51801 0.46582 0.0
C2096 C 0.15651 0.53566 0.46557 0.0
H2097 H 0.19605 0.6855 0.45834 0.0
H2098 H 0.20529 0.64168 0.4592 0.0
H2099 H 0.12855 0.55682 0.46393 0.0
H2100 H 0.15452 0.43503 0.47015 0.0
H2101 H 0.14483 0.47843 0.47058 0.0
H2102 H 0.23164 0.574 0.47132 0.0
C2103 C 0.18744 0.64181 0.46246 0.0
C2104 C 0.15107 0.56062 0.46556 0.0
C2105 C 0.18204 0.6667 0.46195 0.0
C2106 C 0.17325 0.4581 0.46889 0.0
C2107 C 0.16775 0.48301 0.46909 0.0
C2108 C 0.20915 0.56982 0.46958 0.0
C2109 C 0.16952 0.617 0.46704 0.0
C2110 C 0.1748 0.5904 0.4674 0.0
C2111 C 0.19163 0.51334 0.46752 0.0
C2112 C 0.18566 0.53988 0.46758 0.0
H2113 H 0.12367 0.64295 0.47408 0.0
H2114 H 0.13242 0.59863 0.47476 0.0
H2115 H 0.22242 0.61771 0.47089 0.0
H2116 H 0.24982 0.49738 0.46445 0.0
H2117 H 0.24011 0.54078 0.46441 0.0
C2118 C 0.53405 0.71669 0.46163 0.0
C2119 C 0.53285 0.73849 0.46617 0.0
C2120 C 0.51044 0.68562 0.46169 0.0
C2121 C 0.44612 0.62791 0.47287 0.0
H2122 H 0.41985 0.58042 0.45545 0.0
C2123 C 0.33992 0.50408 0.47142 0.0
C2124 C 0.34436 0.48201 0.46776 0.0
C2125 C 0.36226 0.53559 0.4711 0.0
C2126 C 0.4271 0.59337 0.46036 0.0
H2127 H 0.5052 0.74415 0.47432 0.0
H2128 H 0.46379 0.69058 0.47422 0.0
H2129 H 0.4598 0.63511 0.45508 0.0
H2130 H 0.37549 0.47577 0.46079 0.0
H2131 H 0.41435 0.53078 0.4602 0.0
H2132 H 0.41311 0.58615 0.47812 0.0
C2133 C 0.48337 0.69737 0.47071 0.0
C2134 C 0.45006 0.62468 0.46016 0.0
C2135 C 0.50707 0.72838 0.47069 0.0
C2136 C 0.37139 0.49216 0.46369 0.0
C2137 C 0.39358 0.52369 0.46331 0.0
C2138 C 0.42299 0.59669 0.47306 0.0
C2139 C 0.48483 0.67554 0.46625 0.0
C2140 C 0.45997 0.64233 0.46642 0.0
C2141 C 0.38934 0.5457 0.46705 0.0
C2142 C 0.41335 0.57905 0.46681 0.0
H2143 H 0.55321 0.72354 0.458 0.0
H2144 H 0.51255 0.66942 0.45823 0.0
H2145 H 0.45353 0.64058 0.47782 0.0
H2146 H 0.31931 0.49704 0.47459 0.0
H2147 H 0.35824 0.55208 0.47398 0.0
C2148 C 0.27041 0.79578 0.47013 0.0
C2149 C 0.25602 0.7941 0.46361 0.0
C2150 C 0.30133 0.80288 0.47037 0.0
C2151 C 0.36074 0.79911 0.4597 0.0
H2152 H 0.41826 0.85738 0.47344 0.0
C2153 C 0.49053 0.83643 0.45939 0.0
C2154 C 0.50545 0.84018 0.46593 0.0
C2155 C 0.46051 0.83193 0.45909 0.0
C2156 C 0.40241 0.84075 0.46963 0.0
H2157 H 0.26277 0.79864 0.45225 0.0
H2158 H 0.31689 0.81104 0.45267 0.0
H2159 H 0.36512 0.84768 0.47294 0.0
H2160 H 0.50056 0.84217 0.4773 0.0
H2161 H 0.44786 0.83356 0.47679 0.0
H2162 H 0.39762 0.7916 0.45646 0.0
C2163 C 0.30417 0.8068 0.45759 0.0
C2164 C 0.372 0.83529 0.46933 0.0
C2165 C 0.27331 0.79999 0.45734 0.0
C2166 C 0.48974 0.83946 0.47217 0.0
C2167 C 0.45958 0.83471 0.47188 0.0
C2168 C 0.39104 0.80437 0.46003 0.0
C2169 C 0.31845 0.80818 0.4641 0.0
C2170 C 0.35088 0.81443 0.46436 0.0
C2171 C 0.44456 0.83081 0.46533 0.0
C2172 C 0.41229 0.82528 0.46499 0.0
H2173 H 0.25777 0.7917 0.47504 0.0
H2174 H 0.31166 0.80358 0.47547 0.0
H2175 H 0.34482 0.78254 0.45588 0.0
H2176 H 0.50208 0.83713 0.45448 0.0
H2177 H 0.44993 0.8296 0.45395 0.0
C2178 C 0.33603 0.518 0.37065 0.0
C2179 C 0.33611 0.49562 0.36614 0.0
C2180 C 0.31073 0.52292 0.37072 0.0
C2181 C 0.22843 0.48607 0.36815 0.0
H2182 H 0.24125 0.5672 0.36313 0.0
C2183 C 0.12542 0.5072 0.36419 0.0
C2184 C 0.12969 0.53659 0.3658 0.0
C2185 C 0.15049 0.50193 0.36439 0.0
C2186 C 0.23722 0.54455 0.36469 0.0
H2187 H 0.30978 0.4604 0.35827 0.0
H2188 H 0.26497 0.46834 0.35858 0.0
H2189 H 0.28528 0.55851 0.36339 0.0
H2190 H 0.1629 0.58319 0.36913 0.0
H2191 H 0.20644 0.57382 0.36987 0.0
H2192 H 0.18074 0.47217 0.36975 0.0
C2193 C 0.2847 0.4823 0.36197 0.0
C2194 C 0.26247 0.53959 0.36477 0.0
C2195 C 0.31031 0.47789 0.36177 0.0
C2196 C 0.15923 0.56043 0.36778 0.0
C2197 C 0.18417 0.55504 0.36815 0.0
C2198 C 0.20324 0.49116 0.36822 0.0
C2199 C 0.28486 0.505 0.3664 0.0
C2200 C 0.25821 0.51029 0.36646 0.0
C2201 C 0.18028 0.52581 0.36636 0.0
C2202 C 0.20722 0.52045 0.36645 0.0
H2203 H 0.35574 0.53208 0.37403 0.0
H2204 H 0.31124 0.54052 0.37418 0.0
H2205 H 0.22475 0.46332 0.36951 0.0
H2206 H 0.10286 0.48859 0.36256 0.0
H2207 H 0.14655 0.47931 0.36283 0.0
C2208 C 0.50234 0.82596 0.36179 0.0
C2209 C 0.53267 0.84931 0.36348 0.0
C2210 C 0.49373 0.79465 0.36238 0.0
C2211 C 0.52672 0.74281 0.36282 0.0
H2212 H 0.44729 0.68358 0.37098 0.0
C2213 C 0.49461 0.61651 0.36875 0.0
C2214 C 0.46433 0.59319 0.36701 0.0
C2215 C 0.50275 0.64777 0.36858 0.0
C2216 C 0.46942 0.69977 0.36863 0.0
H2217 H 0.57768 0.85807 0.36715 0.0
H2218 H 0.56263 0.80356 0.36819 0.0
H2219 H 0.4617 0.73808 0.37005 0.0
H2220 H 0.4186 0.58448 0.36398 0.0
H2221 H 0.43297 0.63892 0.36353 0.0
H2222 H 0.53441 0.70457 0.36133 0.0
C2223 C 0.54559 0.80943 0.36635 0.0
C2224 C 0.47766 0.73098 0.36809 0.0
C2225 C 0.55416 0.84068 0.36578 0.0
C2226 C 0.44225 0.60185 0.36524 0.0
C2227 C 0.45039 0.63308 0.36506 0.0
C2228 C 0.51847 0.71161 0.36334 0.0
C2229 C 0.51531 0.78605 0.36464 0.0
C2230 C 0.50641 0.75285 0.36519 0.0
C2231 C 0.4808 0.65643 0.36668 0.0
C2232 C 0.48972 0.68971 0.36625 0.0
H2233 H 0.48521 0.83183 0.36001 0.0
H2234 H 0.47031 0.77717 0.36096 0.0
H2235 H 0.54884 0.759 0.36046 0.0
H2236 H 0.51223 0.61071 0.3701 0.0
H2237 H 0.52628 0.66516 0.36995 0.0
C2238 C 0.39726 0.84246 0.36151 0.0
C2239 C 0.40775 0.86742 0.36631 0.0
C2240 C 0.36626 0.81867 0.36152 0.0
C2241 C 0.28843 0.80292 0.36611 0.0
H2242 H 0.26615 0.71632 0.36544 0.0
C2243 C 0.16103 0.70517 0.36818 0.0
C2244 C 0.15155 0.67875 0.36394 0.0
C2245 C 0.19245 0.72742 0.36878 0.0
C2246 C 0.27193 0.74038 0.36553 0.0
H2247 H 0.39334 0.88592 0.37502 0.0
H2248 H 0.33936 0.84494 0.37487 0.0
H2249 H 0.32076 0.75657 0.3658 0.0
H2250 H 0.1676 0.65479 0.35704 0.0
H2251 H 0.22226 0.69402 0.35792 0.0
H2252 H 0.23988 0.78707 0.36564 0.0
C2253 C 0.35527 0.84403 0.37109 0.0
C2254 C 0.30323 0.76341 0.36576 0.0
C2255 C 0.38631 0.86763 0.37115 0.0
C2256 C 0.17417 0.67487 0.36037 0.0
C2257 C 0.20557 0.6973 0.36092 0.0
C2258 C 0.25718 0.77996 0.3658 0.0
C2259 C 0.34491 0.8194 0.36626 0.0
C2260 C 0.31176 0.79489 0.36607 0.0
C2261 C 0.21513 0.72397 0.3651 0.0
C2262 C 0.24848 0.74836 0.36551 0.0
H2263 H 0.41268 0.84137 0.35765 0.0
H2264 H 0.35881 0.80008 0.35769 0.0
H2265 H 0.29439 0.82704 0.36624 0.0
H2266 H 0.14419 0.70867 0.37105 0.0
H2267 H 0.19893 0.74729 0.37217 0.0
C2268 C 0.33882 0.35814 0.14973 0.0
C2269 C 0.35556 0.34675 0.15346 0.0
C2270 C 0.3099 0.35251 0.15219 0.0
C2271 C 0.24488 0.29804 0.16336 0.0
H2272 H 0.22408 0.36326 0.16483 0.0
C2273 C 0.15435 0.32058 0.18017 0.0
C2274 C 0.12753 0.29137 0.1794 0.0
C2275 C 0.1803 0.32894 0.17589 0.0
C2276 C 0.22957 0.34482 0.16443 0.0
H2277 H 0.35533 0.32163 0.16288 0.0
H2278 H 0.30507 0.31151 0.16707 0.0
H2279 H 0.27386 0.3747 0.15964 0.0
H2280 H 0.10609 0.24887 0.17325 0.0
H2281 H 0.15117 0.26358 0.16575 0.0
H2282 H 0.20132 0.26835 0.16832 0.0
C2283 C 0.31404 0.32433 0.16218 0.0
C2284 C 0.25791 0.35131 0.16142 0.0
C2285 C 0.34289 0.33009 0.15976 0.0
C2286 C 0.12651 0.27144 0.17401 0.0
C2287 C 0.15239 0.2798 0.16974 0.0
C2288 C 0.2166 0.29153 0.16632 0.0
C2289 C 0.29709 0.33521 0.1584 0.0
C2290 C 0.26606 0.32808 0.16098 0.0
C2291 C 0.17989 0.30823 0.17076 0.0
C2292 C 0.20877 0.31492 0.16699 0.0
H2293 H 0.34772 0.37086 0.14484 0.0
H2294 H 0.29726 0.36108 0.14916 0.0
H2295 H 0.25039 0.27958 0.16302 0.0
H2296 H 0.15581 0.33645 0.18428 0.0
H2297 H 0.20119 0.35092 0.17685 0.0
C2298 C 0.67402 0.83496 0.18047 0.0
C2299 C 0.70475 0.84087 0.18048 0.0
C2300 C 0.66608 0.85401 0.1766 0.0
C2301 C 0.70092 0.93371 0.17049 0.0
H2302 H 0.62984 0.90473 0.15803 0.0
C2303 C 0.68204 0.01996 0.15419 0.0
C2304 C 0.6516 0.01423 0.15338 0.0
C2305 C 0.68759 0.99729 0.15702 0.0
C2306 C 0.64955 0.9132 0.16156 0.0
H2307 H 0.75099 0.87059 0.17626 0.0
H2308 H 0.73717 0.90382 0.1696 0.0
H2309 H 0.64054 0.86714 0.16387 0.0
H2310 H 0.60304 0.98027 0.15481 0.0
H2311 H 0.61261 0.94082 0.15998 0.0
H2312 H 0.70964 0.97953 0.16845 0.0
C2313 C 0.71927 0.88458 0.17259 0.0
C2314 C 0.65569 0.89166 0.16488 0.0
C2315 C 0.72711 0.86543 0.17637 0.0
C2316 C 0.62673 0.98514 0.15533 0.0
C2317 C 0.63226 0.96255 0.15827 0.0
C2318 C 0.6946 0.95516 0.16727 0.0
C2319 C 0.68885 0.87944 0.17277 0.0
C2320 C 0.68162 0.90179 0.16932 0.0
C2321 C 0.66281 0.96848 0.15923 0.0
C2322 C 0.66902 0.94526 0.16271 0.0
H2323 H 0.65632 0.81618 0.18359 0.0
H2324 H 0.64248 0.84963 0.17684 0.0
H2325 H 0.72074 0.94211 0.174 0.0
H2326 H 0.70158 0.04201 0.1526 0.0
H2327 H 0.71139 0.00244 0.15749 0.0
C2328 C 0.16275 0.82987 0.18351 0.0
C2329 C 0.16619 0.85758 0.18071 0.0
C2330 C 0.14549 0.80192 0.17987 0.0
C2331 C 0.11418 0.76433 0.16305 0.0
H2332 H 0.04112 0.70703 0.1737 0.0
C2333 C 0.01156 0.65559 0.15017 0.0
C2334 C 0.99353 0.62981 0.15448 0.0
C2335 C 0.0353 0.68307 0.15312 0.0
C2336 C 0.06168 0.72224 0.17067 0.0
H2337 H 0.15615 0.87822 0.17173 0.0
H2338 H 0.12666 0.82925 0.16525 0.0
H2339 H 0.07968 0.75525 0.17913 0.0
H2340 H 0.98699 0.61143 0.16509 0.0
H2341 H 0.02941 0.65842 0.17022 0.0
H2342 H 0.09682 0.73108 0.15464 0.0
C2343 C 0.13706 0.82926 0.17029 0.0
C2344 C 0.08366 0.75002 0.1738 0.0
C2345 C 0.15379 0.85717 0.174 0.0
C2346 C 0.00035 0.63133 0.16171 0.0
C2347 C 0.02452 0.6584 0.16463 0.0
C2348 C 0.09249 0.73611 0.15996 0.0
C2349 C 0.13199 0.80132 0.17331 0.0
C2350 C 0.10995 0.77135 0.17 0.0
C2351 C 0.04189 0.68498 0.16042 0.0
C2352 C 0.06579 0.71471 0.16372 0.0
H2353 H 0.17192 0.82947 0.18869 0.0
H2354 H 0.14185 0.78059 0.18228 0.0
H2355 H 0.13438 0.78055 0.16004 0.0
H2356 H 0.00649 0.65477 0.14457 0.0
H2357 H 0.04775 0.70301 0.1497 0.0
C2358 C 0.36452 0.34669 0.34823 0.0
C2359 C 0.35356 0.3637 0.34446 0.0
C2360 C 0.35913 0.31795 0.34571 0.0
C2361 C 0.35851 0.26635 0.33646 0.0
H2362 H 0.27556 0.20979 0.32955 0.0
C2363 C 0.32664 0.1608 0.31821 0.0
C2364 C 0.2975 0.13414 0.31921 0.0
C2365 C 0.33535 0.18738 0.32229 0.0
C2366 C 0.29874 0.2251 0.33154 0.0
H2367 H 0.32944 0.36418 0.33492 0.0
H2368 H 0.31966 0.31412 0.33064 0.0
H2369 H 0.28699 0.25921 0.33469 0.0
H2370 H 0.25553 0.11364 0.32555 0.0
H2371 H 0.27082 0.15983 0.33268 0.0
H2372 H 0.37026 0.23217 0.33321 0.0
C2373 C 0.33202 0.32281 0.33559 0.0
C2374 C 0.30536 0.25356 0.33441 0.0
C2375 C 0.33757 0.35151 0.33807 0.0
C2376 C 0.27801 0.13395 0.3246 0.0
C2377 C 0.2867 0.16043 0.32867 0.0
C2378 C 0.35193 0.23785 0.33353 0.0
C2379 C 0.34248 0.3056 0.33941 0.0
C2380 C 0.33537 0.27464 0.33681 0.0
C2381 C 0.31505 0.18772 0.32742 0.0
C2382 C 0.322 0.21705 0.33099 0.0
H2383 H 0.37669 0.3552 0.3532 0.0
H2384 H 0.36731 0.30505 0.34878 0.0
H2385 H 0.38188 0.28226 0.33826 0.0
H2386 H 0.34216 0.16159 0.31409 0.0
H2387 H 0.35726 0.20812 0.32117 0.0
C2388 C 0.64695 0.02998 0.34548 0.0
C2389 C 0.64476 0.00151 0.34723 0.0
C2390 C 0.67481 0.05446 0.34286 0.0
C2391 C 0.75889 0.08427 0.34196 0.0
H2392 H 0.75526 0.11784 0.3237 0.0
C2393 C 0.86387 0.14109 0.32338 0.0
C2394 C 0.86753 0.16481 0.31877 0.0
C2395 C 0.83776 0.12613 0.32772 0.0
C2396 C 0.75678 0.10933 0.32887 0.0
H2397 H 0.66999 0.97661 0.34792 0.0
H2398 H 0.71872 0.0194 0.34345 0.0
H2399 H 0.70727 0.08287 0.3299 0.0
H2400 H 0.84736 0.19238 0.31529 0.0
H2401 H 0.80199 0.16672 0.323 0.0
H2402 H 0.80827 0.11037 0.34096 0.0
C2403 C 0.69897 0.02281 0.34405 0.0
C2404 C 0.72923 0.08922 0.33241 0.0
C2405 C 0.67108 0.99826 0.34654 0.0
C2406 C 0.84507 0.17404 0.31876 0.0
C2407 C 0.81899 0.15921 0.32316 0.0
C2408 C 0.78642 0.10464 0.33847 0.0
C2409 C 0.70102 0.051 0.3421 0.0
C2410 C 0.73004 0.07583 0.33889 0.0
C2411 C 0.81476 0.1347 0.32761 0.0
C2412 C 0.78572 0.11669 0.33178 0.0
H2413 H 0.6269 0.03294 0.34592 0.0
H2414 H 0.67583 0.076 0.34139 0.0
H2415 H 0.76012 0.07456 0.34701 0.0
H2416 H 0.88069 0.13332 0.32348 0.0
H2417 H 0.83511 0.10702 0.33097 0.0
C2418 C 0.83349 0.67365 0.31681 0.0
C2419 C 0.83606 0.70285 0.31777 0.0
C2420 C 0.85069 0.6646 0.32103 0.0
C2421 C 0.9237 0.70036 0.3309 0.0
H2422 H 0.89658 0.61645 0.33723 0.0
C2423 C 0.97691 0.63306 0.34798 0.0
C2424 C 0.00592 0.64548 0.34461 0.0
C2425 C 0.95369 0.63808 0.34519 0.0
C2426 C 0.90436 0.64002 0.33555 0.0
H2427 H 0.85703 0.7446 0.32418 0.0
H2428 H 0.8867 0.72868 0.33158 0.0
H2429 H 0.85903 0.62871 0.33191 0.0
H2430 H 0.03247 0.67132 0.33542 0.0
H2431 H 0.99238 0.68029 0.33064 0.0
H2432 H 0.96894 0.71173 0.33446 0.0
C2433 C 0.87189 0.71301 0.32749 0.0
C2434 C 0.88296 0.64698 0.33246 0.0
C2435 C 0.85478 0.72207 0.32327 0.0
C2436 C 0.0108 0.66213 0.33827 0.0
C2437 C 0.98776 0.66723 0.33551 0.0
C2438 C 0.94501 0.69338 0.33394 0.0
C2439 C 0.87076 0.68458 0.32629 0.0
C2440 C 0.8925 0.6772 0.33004 0.0
C2441 C 0.95916 0.65573 0.33899 0.0
C2442 C 0.93571 0.66309 0.3362 0.0
H2443 H 0.81921 0.65833 0.31261 0.0
H2444 H 0.84945 0.64264 0.31994 0.0
H2445 H 0.93194 0.72376 0.32902 0.0
H2446 H 0.97247 0.62027 0.35289 0.0
H2447 H 0.93186 0.62901 0.34799 0.0
C2448 C 0.84036 0.67132 0.8186 0.0
C2449 C 0.86737 0.70005 0.81972 0.0
C2450 C 0.81383 0.66269 0.82269 0.0
C2451 C 0.76284 0.64593 0.83377 0.0
H2452 H 0.74465 0.71282 0.83576 0.0
C2453 C 0.65544 0.63455 0.84884 0.0
C2454 C 0.63985 0.64817 0.84552 0.0
C2455 C 0.68356 0.63902 0.84613 0.0
C2456 C 0.74935 0.69387 0.83523 0.0
H2457 H 0.88862 0.74121 0.82633 0.0
H2458 H 0.84258 0.72597 0.83352 0.0
H2459 H 0.79371 0.72336 0.83059 0.0
H2460 H 0.64102 0.67598 0.83655 0.0
H2461 H 0.68998 0.68397 0.83189 0.0
H2462 H 0.71784 0.61632 0.83827 0.0
C2463 C 0.84161 0.7104 0.82939 0.0
C2464 C 0.77764 0.69998 0.83236 0.0
C2465 C 0.86803 0.71905 0.82529 0.0
C2466 C 0.65268 0.66575 0.83934 0.0
C2467 C 0.68075 0.67029 0.83666 0.0
C2468 C 0.73446 0.63983 0.83669 0.0
C2469 C 0.81391 0.68263 0.82798 0.0
C2470 C 0.78463 0.67606 0.83153 0.0
C2471 C 0.6967 0.65733 0.84007 0.0
C2472 C 0.72729 0.6637 0.83735 0.0
H2473 H 0.83917 0.65621 0.81434 0.0
H2474 H 0.79281 0.64121 0.82145 0.0
H2475 H 0.76765 0.62707 0.83324 0.0
H2476 H 0.64635 0.62112 0.85364 0.0
H2477 H 0.69545 0.6289 0.84889 0.0
C2478 C 0.33033 0.17456 0.81983 0.0
C2479 C 0.29944 0.16771 0.82052 0.0
C2480 C 0.34176 0.1594 0.82406 0.0
C2481 C 0.32241 0.10768 0.83991 0.0
H2482 H 0.37136 0.07816 0.8302 0.0
C2483 C 0.32517 0.99735 0.84771 0.0
C2484 C 0.35416 0.99904 0.848 0.0
C2485 C 0.32273 0.02247 0.84523 0.0
C2486 C 0.3581 0.08663 0.83301 0.0
H2487 H 0.25659 0.1404 0.82635 0.0
H2488 H 0.27601 0.1135 0.83354 0.0
H2489 H 0.35982 0.11478 0.82428 0.0
H2490 H 0.40332 0.02818 0.84596 0.0
H2491 H 0.39896 0.07208 0.84143 0.0
H2492 H 0.31925 0.07793 0.84847 0.0
C2493 C 0.29183 0.131 0.82987 0.0
C2494 C 0.35157 0.10774 0.82964 0.0
C2495 C 0.28056 0.14631 0.8257 0.0
C2496 C 0.38076 0.02644 0.84583 0.0
C2497 C 0.37824 0.05141 0.84322 0.0
C2498 C 0.32856 0.08624 0.84323 0.0
C2499 C 0.32242 0.13693 0.82904 0.0
C2500 C 0.333 0.11797 0.83299 0.0
C2501 C 0.34918 0.04957 0.84288 0.0
C2502 C 0.3459 0.07505 0.83975 0.0
H2503 H 0.34547 0.19108 0.8159 0.0
H2504 H 0.36558 0.16493 0.82335 0.0
H2505 H 0.3087 0.11561 0.84273 0.0
H2506 H 0.3044 0.97656 0.84941 0.0
H2507 H 0.30001 0.02038 0.84497 0.0
C2508 C 0.82943 0.15563 0.81925 0.0
C2509 C 0.83202 0.12914 0.82044 0.0
C2510 C 0.84753 0.1828 0.82313 0.0
C2511 C 0.92229 0.22171 0.83236 0.0
H2512 H 0.8967 0.28011 0.83834 0.0
C2513 C 0.97704 0.34388 0.84885 0.0
C2514 C 0.00637 0.35976 0.84559 0.0
C2515 C 0.95368 0.31567 0.8461 0.0
C2516 C 0.90409 0.26391 0.83674 0.0
H2517 H 0.85395 0.10962 0.82695 0.0
H2518 H 0.88509 0.15675 0.83377 0.0
H2519 H 0.85823 0.2297 0.83346 0.0
H2520 H 0.03346 0.35915 0.83666 0.0
H2521 H 0.99298 0.31012 0.8319 0.0
H2522 H 0.968 0.25564 0.83562 0.0
C2523 C 0.86962 0.15681 0.82974 0.0
C2524 C 0.88214 0.23518 0.8339 0.0
C2525 C 0.85163 0.12974 0.82586 0.0
C2526 C 0.01147 0.34724 0.83941 0.0
C2527 C 0.98822 0.31911 0.83667 0.0
C2528 C 0.94415 0.25035 0.83516 0.0
C2529 C 0.86852 0.18394 0.82827 0.0
C2530 C 0.89106 0.21382 0.83165 0.0
C2531 C 0.95923 0.30276 0.84004 0.0
C2532 C 0.93541 0.27191 0.83732 0.0
H2533 H 0.81453 0.15586 0.8151 0.0
H2534 H 0.84625 0.20334 0.82184 0.0
H2535 H 0.93006 0.20602 0.83059 0.0
H2536 H 0.97244 0.35275 0.85365 0.0
H2537 H 0.93163 0.3035 0.84883 0.0
C2538 C 0.6209 0.64787 0.65481 0.0
C2539 C 0.6472 0.6463 0.65273 0.0
C2540 C 0.62407 0.67547 0.65752 0.0
C2541 C 0.67581 0.75971 0.65794 0.0
H2542 H 0.64179 0.75625 0.6766 0.0
C2543 C 0.72165 0.86722 0.67569 0.0
C2544 C 0.70193 0.86961 0.68064 0.0
C2545 C 0.71109 0.84071 0.67151 0.0
C2546 C 0.65087 0.7577 0.67132 0.0
H2547 H 0.69715 0.67244 0.65159 0.0
H2548 H 0.7027 0.72088 0.65621 0.0
H2549 H 0.6302 0.70827 0.67061 0.0
H2550 H 0.6552 0.84678 0.68488 0.0
H2551 H 0.63634 0.80073 0.67741 0.0
H2552 H 0.69645 0.80899 0.6586 0.0
C2553 C 0.6797 0.70073 0.6558 0.0
C2554 C 0.64431 0.73015 0.66791 0.0
C2555 C 0.67659 0.67302 0.65321 0.0
C2556 C 0.67098 0.84549 0.68113 0.0
C2557 C 0.66027 0.81902 0.67688 0.0
C2558 C 0.682 0.78722 0.6613 0.0
C2559 C 0.65352 0.70211 0.65806 0.0
C2560 C 0.65736 0.73097 0.66127 0.0
C2561 C 0.68039 0.81602 0.67211 0.0
C2562 C 0.67033 0.78665 0.66813 0.0
H2563 H 0.59802 0.62751 0.65453 0.0
H2564 H 0.60354 0.67599 0.65922 0.0
H2565 H 0.68581 0.7609 0.65278 0.0
H2566 H 0.7457 0.88533 0.67521 0.0
H2567 H 0.7275 0.83915 0.66801 0.0
C2568 C 0.13231 0.85353 0.67413 0.0
C2569 C 0.132 0.83281 0.67922 0.0
C2570 C 0.15887 0.87169 0.67011 0.0
C2571 C 0.23278 0.88283 0.66371 0.0
H2572 H 0.26143 0.97027 0.66651 0.0
C2573 C 0.35548 0.97994 0.65522 0.0
C2574 C 0.35909 0.00872 0.65323 0.0
C2575 C 0.32693 0.95639 0.65777 0.0
C2576 C 0.2536 0.94603 0.66552 0.0
H2577 H 0.15845 0.81317 0.68375 0.0
H2578 H 0.20496 0.84479 0.67659 0.0
H2579 H 0.21258 0.93165 0.67168 0.0
H2580 H 0.33562 0.03504 0.65189 0.0
H2581 H 0.28544 0.99371 0.65599 0.0
H2582 H 0.27348 0.89716 0.6574 0.0
C2583 C 0.1846 0.84699 0.67578 0.0
C2584 C 0.22564 0.9239 0.66853 0.0
C2585 C 0.15805 0.829 0.67987 0.0
C2586 C 0.33345 0.01318 0.65353 0.0
C2587 C 0.30479 0.9895 0.65592 0.0
C2588 C 0.26063 0.90506 0.66056 0.0
C2589 C 0.18552 0.86924 0.67105 0.0
C2590 C 0.21497 0.89214 0.66766 0.0
C2591 C 0.30128 0.96102 0.65825 0.0
C2592 C 0.27141 0.937 0.66143 0.0
H2593 H 0.11259 0.85695 0.67347 0.0
H2594 H 0.15897 0.88851 0.66645 0.0
H2595 H 0.22493 0.85842 0.66297 0.0
H2596 H 0.37507 0.97612 0.65506 0.0
H2597 H 0.32534 0.93499 0.65958 0.0
C2598 C 0.14616 0.29056 0.67417 0.0
C2599 C 0.16748 0.30766 0.67953 0.0
C2600 C 0.13164 0.30358 0.67029 0.0
C2601 C 0.1113 0.33976 0.66101 0.0
H2602 H 0.07743 0.38059 0.67242 0.0
C2603 C 0.02774 0.37748 0.64938 0.0
C2604 C 0.00097 0.36866 0.65345 0.0
C2605 C 0.05287 0.37585 0.65221 0.0
C2606 C 0.0868 0.36932 0.66916 0.0
H2607 H 0.19147 0.35229 0.68481 0.0
H2608 H 0.16616 0.37516 0.67799 0.0
H2609 H 0.11349 0.36676 0.67773 0.0
H2610 H 0.98014 0.35252 0.66379 0.0
H2611 H 0.02354 0.34916 0.66868 0.0
H2612 H 0.08331 0.34089 0.65254 0.0
C2613 C 0.16042 0.35154 0.67685 0.0
C2614 C 0.10776 0.36172 0.67217 0.0
C2615 C 0.17501 0.3385 0.68073 0.0
C2616 C 0.0002 0.35903 0.66048 0.0
C2617 C 0.0253 0.35753 0.66331 0.0
C2618 C 0.09033 0.34737 0.65799 0.0
C2619 C 0.1381 0.33399 0.67169 0.0
C2620 C 0.1196 0.34611 0.66818 0.0
C2621 C 0.05178 0.36558 0.65919 0.0
C2622 C 0.07721 0.36147 0.66209 0.0
H2623 H 0.13989 0.26673 0.67311 0.0
H2624 H 0.11428 0.28926 0.66642 0.0
H2625 H 0.12034 0.3281 0.65778 0.0
H2626 H 0.02893 0.38483 0.64393 0.0
H2627 H 0.07304 0.3824 0.64892 0.0
C2628 C 0.80229 0.62836 0.50675 0.0
C2629 C 0.80451 0.63729 0.51386 0.0
C2630 C 0.82878 0.6404 0.5025 0.0
C2631 C 0.91379 0.69966 0.50218 0.0
H2632 H 0.91675 0.64067 0.48924 0.0
C2633 C 0.02469 0.69971 0.49325 0.0
C2634 C 0.02857 0.69752 0.48596 0.0
C2635 C 0.9973 0.69719 0.49586 0.0
C2636 C 0.91606 0.65752 0.49276 0.0
H2637 H 0.83579 0.66625 0.52211 0.0
H2638 H 0.8823 0.68605 0.51486 0.0
H2639 H 0.86859 0.62702 0.49535 0.0
H2640 H 0.00742 0.69145 0.47564 0.0
H2641 H 0.95854 0.68572 0.48026 0.0
H2642 H 0.96222 0.72908 0.49991 0.0
C2643 C 0.86013 0.67066 0.51242 0.0
C2644 C 0.8884 0.64984 0.49625 0.0
C2645 C 0.83348 0.65917 0.51662 0.0
C2646 C 0.00482 0.69326 0.48129 0.0
C2647 C 0.97702 0.68996 0.48391 0.0
C2648 C 0.94164 0.70702 0.4988 0.0
C2649 C 0.85824 0.66101 0.50533 0.0
C2650 C 0.88695 0.6706 0.5011 0.0
C2651 C 0.97307 0.69179 0.49123 0.0
C2652 C 0.94304 0.68582 0.49414 0.0
H2653 H 0.78008 0.61176 0.50448 0.0
H2654 H 0.82613 0.63305 0.49703 0.0
H2655 H 0.91352 0.71658 0.50574 0.0
H2656 H 0.04288 0.7033 0.49693 0.0
H2657 H 0.99463 0.69841 0.50153 0.0
C2658 C 0.33385 0.32761 0.4842 0.0
C2659 C 0.30538 0.32705 0.48408 0.0
C2660 C 0.33572 0.3025 0.48689 0.0
C2661 C 0.30107 0.24162 0.49992 0.0
H2662 H 0.34825 0.20937 0.49048 0.0
C2663 C 0.33076 0.15681 0.51406 0.0
C2664 C 0.36161 0.16369 0.51324 0.0
C2665 C 0.31862 0.17092 0.5097 0.0
C2666 C 0.33512 0.2182 0.49321 0.0
H2667 H 0.2565 0.29989 0.48664 0.0
H2668 H 0.25989 0.25597 0.49154 0.0
H2669 H 0.33703 0.24566 0.48427 0.0
H2670 H 0.40366 0.19 0.50708 0.0
H2671 H 0.38297 0.21505 0.49965 0.0
H2672 H 0.30066 0.21576 0.509 0.0
C2673 C 0.28062 0.27576 0.48946 0.0
C2674 C 0.32859 0.23884 0.48963 0.0
C2675 C 0.27866 0.30072 0.48663 0.0
C2676 C 0.37976 0.18413 0.50784 0.0
C2677 C 0.36775 0.19833 0.50353 0.0
C2678 C 0.30795 0.22127 0.50354 0.0
C2679 C 0.30922 0.27652 0.48963 0.0
C2680 C 0.31217 0.25131 0.49302 0.0
C2681 C 0.33717 0.19227 0.50445 0.0
C2682 C 0.32581 0.20999 0.50029 0.0
H2683 H 0.35468 0.34759 0.48221 0.0
H2684 H 0.35811 0.30381 0.48704 0.0
H2685 H 0.28855 0.25111 0.50267 0.0
H2686 H 0.31618 0.14101 0.51816 0.0
H2687 H 0.29485 0.16541 0.5105 0.0
C2688 C 0.65405 0.0001 0.48549 0.0
C2689 C 0.65801 0.97413 0.4855 0.0
C2690 C 0.67783 0.02884 0.48781 0.0
C2691 C 0.76184 0.07236 0.49285 0.0
H2692 H 0.73522 0.12166 0.50346 0.0
C2693 C 0.83741 0.17394 0.51231 0.0
C2694 C 0.83387 0.20019 0.51177 0.0
C2695 C 0.8195 0.14782 0.50809 0.0
C2696 C 0.74301 0.1083 0.50044 0.0
H2697 H 0.68988 0.95766 0.48781 0.0
H2698 H 0.73116 0.00758 0.4922 0.0
H2699 H 0.69664 0.07302 0.49821 0.0
H2700 H 0.81042 0.22046 0.50608 0.0
H2701 H 0.77906 0.17483 0.49881 0.0
H2702 H 0.80843 0.10751 0.49547 0.0
C2703 C 0.71009 0.00615 0.4902 0.0
C2704 C 0.72089 0.08044 0.49739 0.0
C2705 C 0.68644 0.9775 0.48773 0.0
C2706 C 0.81358 0.20055 0.50665 0.0
C2707 C 0.79553 0.17441 0.5025 0.0
C2708 C 0.78404 0.10013 0.49603 0.0
C2709 C 0.70591 0.03213 0.49037 0.0
C2710 C 0.72993 0.0621 0.49352 0.0
C2711 C 0.79763 0.1475 0.50333 0.0
C2712 C 0.77475 0.11839 0.49981 0.0
H2713 H 0.63249 0.99811 0.48367 0.0
H2714 H 0.67401 0.04843 0.48766 0.0
H2715 H 0.76974 0.0591 0.48985 0.0
H2716 H 0.85291 0.17303 0.5162 0.0
H2717 H 0.82146 0.12727 0.50883 0.0
C2718 C 0.9496 0.4739 0.65639 0.0
C2719 C 0.9685 0.47124 0.65125 0.0
C2720 C 0.9613 0.50001 0.66073 0.0
C2721 C 0.02282 0.58215 0.66116 0.0
H2722 H 0.99017 0.57759 0.68004 0.0
C2723 C 0.0522 0.6908 0.67813 0.0
C2724 C 0.02546 0.69133 0.6803 0.0
C2725 C 0.04982 0.66364 0.67534 0.0
C2726 C -0.00038 0.57916 0.67479 0.0
H2727 H 0.01487 0.49316 0.64682 0.0
H2728 H 0.03564 0.53863 0.65454 0.0
H2729 H 0.9787 0.52992 0.67388 0.0
H2730 H 0.97562 0.66398 0.68151 0.0
H2731 H 0.97143 0.61636 0.67675 0.0
H2732 H 0.04351 0.63151 0.66209 0.0
C2733 C 0.01155 0.5208 0.65511 0.0
C2734 C 0.99293 0.5519 0.67124 0.0
C2735 C -0.00029 0.4947 0.65071 0.0
C2736 C 0.99648 0.66413 0.67982 0.0
C2737 C 0.99416 0.6369 0.67716 0.0
C2738 C 0.02985 0.60944 0.66475 0.0
C2739 C 0.99231 0.524 0.6601 0.0
C2740 C 0.00357 0.553 0.66429 0.0
C2741 C 0.02074 0.63649 0.67483 0.0
C2742 C 0.0175 0.6081 0.67151 0.0
H2743 H 0.9254 0.45627 0.65692 0.0
H2744 H 0.94559 0.50184 0.66441 0.0
H2745 H 0.03116 0.58393 0.65579 0.0
H2746 H 0.07477 0.71159 0.67841 0.0
H2747 H 0.07062 0.66384 0.67356 0.0
C2748 C 0.53775 0.4822 0.65905 0.0
C2749 C 0.53741 0.50237 0.65389 0.0
C2750 C 0.51148 0.46404 0.66316 0.0
C2751 C 0.44643 0.41125 0.66579 0.0
H2752 H 0.39008 0.43675 0.6733 0.0
C2753 C 0.31862 0.32431 0.67141 0.0
C2754 C 0.30605 0.32679 0.67788 0.0
C2755 C 0.348 0.3474 0.66925 0.0
C2756 C 0.40576 0.4294 0.67129 0.0
H2757 H 0.51002 0.52083 0.64931 0.0
H2758 H 0.46401 0.48894 0.65648 0.0
H2759 H 0.44058 0.47586 0.66858 0.0
H2760 H 0.31487 0.35597 0.68714 0.0
H2761 H 0.36607 0.39662 0.68327 0.0
H2762 H 0.41157 0.36484 0.66836 0.0
C2763 C 0.48465 0.48729 0.65737 0.0
C2764 C 0.43451 0.4517 0.66855 0.0
C2765 C 0.51096 0.50547 0.65324 0.0
C2766 C 0.32355 0.35333 0.68209 0.0
C2767 C 0.35293 0.37663 0.67989 0.0
C2768 C 0.41769 0.38902 0.66847 0.0
C2769 C 0.48433 0.46567 0.66221 0.0
C2770 C 0.455 0.44279 0.6657 0.0
C2771 C 0.36552 0.3737 0.67348 0.0
C2772 C 0.39688 0.39778 0.67115 0.0
H2773 H 0.55787 0.47946 0.65972 0.0
H2774 H 0.51208 0.44794 0.66694 0.0
H2775 H 0.4615 0.40357 0.66355 0.0
H2776 H 0.30571 0.30468 0.66794 0.0
H2777 H 0.35689 0.34481 0.66422 0.0
C2778 C 0.52209 0.05094 0.65826 0.0
C2779 C 0.49973 0.03236 0.65322 0.0
C2780 C 0.53671 0.03884 0.66241 0.0
C2781 C 0.55639 0.9766 0.66239 0.0
H2782 H 0.58786 0.01004 0.68105 0.0
C2783 C 0.63842 0.94831 0.67885 0.0
C2784 C 0.66638 0.97536 0.68053 0.0
C2785 C 0.61316 0.95036 0.67624 0.0
C2786 C 0.579 0.00033 0.67587 0.0
H2787 H 0.47422 0.98612 0.64876 0.0
H2788 H 0.49937 0.96462 0.65614 0.0
H2789 H 0.55065 0.02131 0.67533 0.0
H2790 H 0.68971 0.02546 0.68103 0.0
H2791 H 0.6454 0.02909 0.67664 0.0
H2792 H 0.5851 0.95579 0.66297 0.0
C2793 C 0.50601 0.98878 0.65679 0.0
C2794 C 0.55786 0.00691 0.67256 0.0
C2795 C 0.49146 0.00102 0.65259 0.0
C2796 C 0.66844 0.00435 0.67973 0.0
C2797 C 0.64307 0.00638 0.67727 0.0
C2798 C 0.57721 0.96962 0.66575 0.0
C2799 C 0.52918 0.00772 0.66168 0.0
C2800 C 0.54718 0.99612 0.66567 0.0
C2801 C 0.61533 0.97945 0.67544 0.0
C2802 C 0.58945 0.9823 0.67242 0.0
H2803 H 0.52912 0.07523 0.65887 0.0
H2804 H 0.55483 0.05438 0.66599 0.0
H2805 H 0.54892 0.96808 0.65706 0.0
H2806 H 0.63644 0.92572 0.67939 0.0
H2807 H 0.59199 0.92931 0.67484 0.0
C2808 C 0.31391 0.94891 0.18017 0.0
C2809 C 0.30845 0.97395 0.18065 0.0
C2810 C 0.3429 0.95381 0.17798 0.0
C2811 C 0.42507 0.01301 0.17634 0.0
H2812 H 0.42524 0.96817 0.15958 0.0
C2813 C 0.53034 0.05923 0.15787 0.0
C2814 C 0.5355 0.03845 0.15388 0.0
C2815 C 0.50442 0.04833 0.16226 0.0
C2816 C 0.42581 0.98043 0.16436 0.0
H2817 H 0.32903 0.02367 0.17955 0.0
H2818 H 0.37986 0.03238 0.17585 0.0
H2819 H 0.37632 0.9542 0.16541 0.0
H2820 H 0.51858 0.98987 0.15164 0.0
H2821 H 0.47379 0.97067 0.15951 0.0
H2822 H 0.47443 0.03936 0.17532 0.0
C2823 C 0.36175 0.009 0.17711 0.0
C2824 C 0.39769 0.97244 0.16768 0.0
C2825 C 0.33268 0.00402 0.17916 0.0
C2826 C 0.51503 0.00644 0.15462 0.0
C2827 C 0.48926 0.99547 0.15909 0.0
C2828 C 0.45324 0.02071 0.17309 0.0
C2829 C 0.36701 0.9839 0.1764 0.0
C2830 C 0.39702 0.98924 0.17358 0.0
C2831 C 0.48322 0.01633 0.16285 0.0
C2832 C 0.4539 0.00516 0.16693 0.0
H2833 H 0.29548 0.9255 0.18126 0.0
H2834 H 0.34643 0.9341 0.17747 0.0
H2835 H 0.42513 0.02607 0.18094 0.0
H2836 H 0.54561 0.08406 0.15738 0.0
H2837 H 0.50037 0.06519 0.16496 0.0
C2838 C 0.99288 0.49954 0.15127 0.0
C2839 C 0.96134 0.49091 0.15127 0.0
C2840 C 0.00361 0.48414 0.15563 0.0
C2841 C 0.98067 0.43013 0.17105 0.0
H2842 H 0.03742 0.40686 0.16275 0.0
C2843 C 0.98896 0.32418 0.17994 0.0
C2844 C 0.01845 0.3272 0.18057 0.0
C2845 C 0.98568 0.34854 0.17728 0.0
C2846 C 0.02197 0.41361 0.16519 0.0
H2847 H 0.91639 0.4597 0.1559 0.0
H2848 H 0.93479 0.43249 0.16333 0.0
H2849 H 0.02496 0.44176 0.15633 0.0
H2850 H 0.0677 0.35812 0.17901 0.0
H2851 H 0.06195 0.40081 0.17421 0.0
H2852 H 0.97658 0.40067 0.17974 0.0
C2853 C 0.95151 0.45155 0.16011 0.0
C2854 C 0.01486 0.43367 0.16152 0.0
C2855 C 0.94087 0.46702 0.1558 0.0
C2856 C 0.04473 0.35532 0.17862 0.0
C2857 C 0.04143 0.37959 0.17584 0.0
C2858 C 0.98754 0.40984 0.17467 0.0
C2859 C 0.98296 0.45972 0.16006 0.0
C2860 C 0.99354 0.44159 0.16433 0.0
C2861 C 0.01183 0.37631 0.1751 0.0
C2862 C 0.00772 0.40086 0.17171 0.0
H2863 H 0.00921 0.51798 0.14785 0.0
H2864 H 0.02804 0.49129 0.15551 0.0
H2865 H 0.96475 0.43631 0.17345 0.0
H2866 H 0.96838 0.30285 0.18147 0.0
H2867 H 0.96257 0.34527 0.17671 0.0
C2868 C 0.4933 0.48806 0.15301 0.0
C2869 C 0.49703 0.46204 0.15385 0.0
C2870 C 0.51054 0.51461 0.15714 0.0
C2871 C 0.58558 0.55429 0.16603 0.0
H2872 H 0.55814 0.60992 0.17302 0.0
C2873 C 0.64149 0.67634 0.18249 0.0
C2874 C 0.66868 0.69368 0.17847 0.0
C2875 C 0.61798 0.64738 0.18009 0.0
C2876 C 0.56601 0.59445 0.17114 0.0
H2877 H 0.51998 0.44258 0.16002 0.0
H2878 H 0.54981 0.48874 0.16725 0.0
H2879 H 0.52007 0.55912 0.16817 0.0
H2880 H 0.69142 0.69467 0.16858 0.0
H2881 H 0.65095 0.64425 0.16452 0.0
H2882 H 0.63144 0.58959 0.16885 0.0
C2883 C 0.534 0.48885 0.16332 0.0
C2884 C 0.54431 0.56553 0.16834 0.0
C2885 C 0.51681 0.46236 0.1592 0.0
C2886 C 0.67132 0.68174 0.17192 0.0
C2887 C 0.64804 0.65283 0.16957 0.0
C2888 C 0.60718 0.58317 0.16876 0.0
C2889 C 0.53183 0.51561 0.16218 0.0
C2890 C 0.55396 0.54527 0.16569 0.0
C2891 C 0.62134 0.63515 0.17367 0.0
C2892 C 0.59773 0.60373 0.17125 0.0
H2893 H 0.4782 0.48848 0.14893 0.0
H2894 H 0.50848 0.53492 0.15612 0.0
H2895 H 0.59385 0.53944 0.16395 0.0
H2896 H 0.63869 0.68467 0.18757 0.0
H2897 H 0.59762 0.63415 0.18336 0.0
C2898 C 0.33576 0.98602 0.99344 0.0
C2899 C 0.31927 0.97371 0.98711 0.0
C2900 C 0.3408 0.01439 0.99604 0.0
C2901 C 0.31202 0.06925 0.99561 0.0
H2902 H 0.3946 0.127 0.00253 0.0
C2903 C 0.39007 0.20163 0.00773 0.0
C2904 C 0.37029 0.20078 0.01314 0.0
C2905 C 0.382 0.17537 0.00362 0.0
C2906 C 0.3715 0.11135 0.00054 0.0
H2907 H 0.29481 0.98174 0.97859 0.0
H2908 H 0.30333 0.03129 0.98322 0.0
H2909 H 0.38436 0.07826 0.99721 0.0
H2910 H 0.32576 0.17232 0.01823 0.0
H2911 H 0.31174 0.12624 0.01106 0.0
H2912 H 0.29918 0.10243 0.99904 0.0
C2913 C 0.31228 0.01873 0.98615 0.0
C2914 C 0.36556 0.08326 0.99757 0.0
C2915 C 0.30738 0.99032 0.98351 0.0
C2916 C 0.34148 0.17366 0.0141 0.0
C2917 C 0.3334 0.14731 0.00997 0.0
C2918 C 0.31793 0.09737 0.99865 0.0
C2919 C 0.32934 0.03118 0.99241 0.0
C2920 C 0.33571 0.06175 0.99515 0.0
C2921 C 0.35401 0.14765 0.00483 0.0
C2922 C 0.34771 0.11862 0.00119 0.0
H2923 H 0.34463 0.97367 0.99646 0.0
H2924 H 0.3535 0.02311 0.00095 0.0
H2925 H 0.28875 0.05302 0.99381 0.0
H2926 H 0.41232 0.22227 0.00682 0.0
H2927 H 0.39811 0.17652 -0.00039 0.0
C2928 C 0.83089 0.16596 0.01618 0.0
C2929 C 0.80339 0.16367 0.01356 0.0
C2930 C 0.85868 0.18269 0.01246 0.0
C2931 C 0.8958 0.21474 0.99564 0.0
H2932 H 0.95507 0.28592 0.00653 0.0
C2933 C 0.00523 0.31725 0.98295 0.0
C2934 C 0.03129 0.33439 0.98725 0.0
C2935 C 0.97771 0.29342 0.98586 0.0
C2936 C 0.93929 0.26586 0.00343 0.0
H2937 H 0.7829 0.17517 0.00478 0.0
H2938 H 0.83162 0.20382 0.99817 0.0
H2939 H 0.90661 0.24784 0.01195 0.0
H2940 H 0.0502 0.33921 0.99777 0.0
H2941 H 0.0031 0.29654 0.0028 0.0
H2942 H 0.92872 0.23216 0.98716 0.0
C2943 C 0.83154 0.19289 0.00314 0.0
C2944 C 0.91138 0.24416 0.00654 0.0
C2945 C 0.80379 0.17664 0.00693 0.0
C2946 C 0.03007 0.3265 0.99441 0.0
C2947 C 0.00295 0.30222 0.99728 0.0
C2948 C 0.92415 0.23614 0.99254 0.0
C2949 C 0.85933 0.19685 0.00599 0.0
C2950 C 0.88936 0.21857 0.00267 0.0
C2951 C 0.97606 0.28585 0.9931 0.0
C2952 C 0.94624 0.26215 0.99639 0.0
H2953 H 0.83132 0.15629 0.02129 0.0
H2954 H 0.87989 0.18546 0.01475 0.0
H2955 H 0.87904 0.19508 0.99256 0.0
H2956 H 0.00585 0.32319 0.97741 0.0
H2957 H 0.95754 0.28173 0.98247 0.0
C2958 C 0.81558 0.62229 0.00767 0.0
C2959 C 0.83524 0.63989 0.01324 0.0
C2960 C 0.79896 0.6332 0.00385 0.0
C2961 C 0.77281 0.66531 0.99488 0.0
H2962 H 0.73363 0.70023 0.00651 0.0
C2963 C 0.68677 0.70049 0.98339 0.0
C2964 C 0.65998 0.69202 0.98745 0.0
C2965 C 0.71137 0.69782 0.98618 0.0
C2966 C 0.74433 0.69045 0.00319 0.0
H2967 H 0.85436 0.68356 0.01889 0.0
H2968 H 0.82567 0.70289 0.01213 0.0
H2969 H 0.7719 0.68943 0.01174 0.0
H2970 H 0.6384 0.67451 0.99767 0.0
H2971 H 0.68078 0.66913 0.00246 0.0
H2972 H 0.74408 0.665 0.98641 0.0
C2973 C 0.82265 0.68036 0.01081 0.0
C2974 C 0.76663 0.68466 0.00616 0.0
C2975 C 0.83925 0.66939 0.01465 0.0
C2976 C 0.65845 0.68091 0.99436 0.0
C2977 C 0.683 0.67824 0.99715 0.0
C2978 C 0.75043 0.67105 0.99191 0.0
C2979 C 0.80167 0.66202 0.00549 0.0
C2980 C 0.78074 0.67149 0.00208 0.0
C2981 C 0.70977 0.68667 0.9931 0.0
C2982 C 0.73549 0.68311 0.99607 0.0
H2983 H 0.81197 0.59944 0.00645 0.0
H2984 H 0.7828 0.6183 -0.00016 0.0
H2985 H 0.7835 0.65549 0.99157 0.0
H2986 H 0.68862 0.70886 0.97803 0.0
H2987 H 0.73174 0.70469 0.98294 0.0
C2988 C 0.67601 0.99662 0.82712 0.0
C2989 C 0.68905 0.01313 0.82082 0.0
C2990 C 0.64716 0.99121 0.82946 0.0
C2991 C 0.59212 0.01945 0.82847 0.0
H2992 H 0.53414 0.93696 0.8354 0.0
C2993 C 0.46015 0.94177 0.84091 0.0
C2994 C 0.46156 0.96183 0.84631 0.0
C2995 C 0.48597 0.94968 0.83665 0.0
C2996 C 0.54982 0.96001 0.83339 0.0
H2997 H 0.68176 0.03717 0.81209 0.0
H2998 H 0.6314 0.02807 0.81628 0.0
H2999 H 0.58312 0.94718 0.83022 0.0
H3000 H 0.49046 0.00672 0.85121 0.0
H3001 H 0.53571 0.02044 0.8438 0.0
H3002 H 0.55882 0.03233 0.83176 0.0
C3003 C 0.64375 0.01937 0.81938 0.0
C3004 C 0.57804 0.96594 0.8305 0.0
C3005 C 0.67264 0.02461 0.81699 0.0
C3006 C 0.48869 0.99078 0.84709 0.0
C3007 C 0.51457 0.99869 0.84282 0.0
C3008 C 0.56386 0.01356 0.83142 0.0
C3009 C 0.63062 0.00232 0.8256 0.0
C3010 C 0.5997 0.9958 0.82811 0.0
C3011 C 0.51378 0.97779 0.8377 0.0
C3012 C 0.54257 0.98384 0.83399 0.0
H3013 H 0.68816 0.98804 0.83031 0.0
H3014 H 0.6379 0.97853 0.83435 0.0
H3015 H 0.60845 0.04272 0.82669 0.0
H3016 H 0.43948 0.9194 0.84014 0.0
H3017 H 0.48447 0.93333 0.83266 0.0
C3018 C 0.01364 0.67669 0.81837 0.0
C3019 C 0.9834 0.67194 0.81828 0.0
C3020 C 0.0192 0.65329 0.82069 0.0
C3021 C 0.9802 0.56907 0.82548 0.0
H3022 H 0.05547 0.59678 0.83642 0.0
C3023 C 0.00606 0.494 0.84506 0.0
C3024 C 0.03625 0.49843 0.84481 0.0
C3025 C 0.99791 0.51168 0.84074 0.0
C3026 C 0.03454 0.58869 0.8333 0.0
H3027 H 0.93515 0.63902 0.82042 0.0
H3028 H 0.94481 0.59838 0.82478 0.0
H3029 H 0.04472 0.63485 0.83114 0.0
H3030 H 0.08087 0.52324 0.83952 0.0
H3031 H 0.06669 0.55419 0.83207 0.0
H3032 H 0.96961 0.52268 0.82802 0.0
C3033 C 0.96426 0.61981 0.82287 0.0
C3034 C 0.02838 0.61051 0.83024 0.0
C3035 C 0.95866 0.64309 0.82041 0.0
C3036 C 0.05747 0.51938 0.83986 0.0
C3037 C 0.04943 0.53721 0.83561 0.0
C3038 C 0.98617 0.54715 0.82866 0.0
C3039 C 0.9947 0.62477 0.82313 0.0
C3040 C 0.0012 0.60108 0.82626 0.0
C3041 C 0.01993 0.53422 0.83617 0.0
C3042 C 0.01348 0.55683 0.83258 0.0
H3043 H 0.03299 0.69858 0.81663 0.0
H3044 H 0.04284 0.65772 0.8206 0.0
H3045 H 0.95921 0.56087 0.82239 0.0
H3046 H 0.98921 0.47798 0.84881 0.0
H3047 H 0.97503 0.50903 0.84128 0.0
C3048 C 0.5065 0.51195 0.84534 0.0
C3049 C 0.50358 0.53844 0.8445 0.0
C3050 C 0.48965 0.48598 0.84102 0.0
C3051 C 0.45571 0.43559 0.82975 0.0
H3052 H 0.36925 0.41402 0.82921 0.0
C3053 C 0.35548 0.32423 0.81641 0.0
C3054 C 0.32893 0.3078 0.82068 0.0
C3055 C 0.37964 0.35336 0.81851 0.0
C3056 C 0.39333 0.4198 0.8293 0.0
H3057 H 0.48293 0.55955 0.83808 0.0
H3058 H 0.45371 0.51432 0.83053 0.0
H3059 H 0.40804 0.4643 0.83384 0.0
H3060 H 0.30796 0.3088 0.8307 0.0
H3061 H 0.3495 0.3596 0.83423 0.0
H3062 H 0.44045 0.39038 0.82536 0.0
C3063 C 0.46858 0.51342 0.8346 0.0
C3064 C 0.41561 0.44871 0.83187 0.0
C3065 C 0.48542 0.53936 0.83891 0.0
C3066 C 0.32753 0.32093 0.82717 0.0
C3067 C 0.35142 0.35006 0.82922 0.0
C3068 C 0.43333 0.40664 0.82709 0.0
C3069 C 0.46958 0.48606 0.83579 0.0
C3070 C 0.44697 0.45675 0.83225 0.0
C3071 C 0.37752 0.36672 0.82488 0.0
C3072 C 0.40186 0.39828 0.827 0.0
H3073 H 0.52039 0.5106 0.84959 0.0
H3074 H 0.49079 0.46518 0.84208 0.0
H3075 H 0.47973 0.44123 0.82996 0.0
H3076 H 0.35731 0.31503 0.81136 0.0
H3077 H 0.39953 0.36583 0.81507 0.0
C3078 C 0.61297 0.80684 0.98943 0.0
C3079 C 0.63291 0.8027 0.98488 0.0
C3080 C 0.62435 0.83302 0.99374 0.0
C3081 C 0.68905 0.91355 0.99498 0.0
H3082 H 0.65035 0.91013 0.01304 0.0
C3083 C 0.7183 0.0229 0.01172 0.0
C3084 C 0.6918 0.02506 0.01323 0.0
C3085 C 0.71528 0.99519 0.0091 0.0
C3086 C 0.66148 0.91137 0.00802 0.0
H3087 H 0.68063 0.82221 0.98144 0.0
H3088 H 0.70075 0.86783 0.9891 0.0
H3089 H 0.63821 0.86202 0.007 0.0
H3090 H 0.64161 1e-05 0.01346 0.0
H3091 H 0.63624 0.95145 0.00902 0.0
H3092 H 0.71208 0.96306 0.99602 0.0
C3093 C 0.67617 0.85106 0.98924 0.0
C3094 C 0.65444 0.88387 0.00454 0.0
C3095 C 0.66469 0.82487 0.98488 0.0
C3096 C 0.66233 0.9989 0.01228 0.0
C3097 C 0.65931 0.97113 0.0098 0.0
C3098 C 0.6964 0.94107 0.99851 0.0
C3099 C 0.65603 0.85564 0.99366 0.0
C3100 C 0.66731 0.88462 0.99786 0.0
C3101 C 0.68572 0.96911 0.00811 0.0
C3102 C 0.68192 0.9402 0.00496 0.0
H3103 H 0.58832 0.79025 0.98954 0.0
H3104 H 0.608 0.83598 0.99696 0.0
H3105 H 0.6992 0.91507 0.98982 0.0
H3106 H 0.74126 0.04287 0.01237 0.0
H3107 H 0.73597 0.99415 0.00783 0.0
C3108 C 0.0029 0.66486 0.01255 0.0
C3109 C 0.97762 0.66952 0.01364 0.0
C3110 C 0.03144 0.68924 0.01031 0.0
C3111 C 0.0651 0.75912 -0.00016 0.0
H3112 H 0.14263 0.77472 0.00829 0.0
C3113 C 0.18268 0.844 0.98691 0.0
C3114 C 0.20442 0.83385 0.9867 0.0
C3115 C 0.15635 0.82892 0.99122 0.0
C3116 C 0.12123 0.77055 0.00583 0.0
H3117 H 0.96224 0.70322 0.01329 0.0
H3118 H 0.01229 0.74602 0.00916 0.0
H3119 H 0.09357 0.73849 0.01394 0.0
H3120 H 0.21605 0.80046 0.99095 0.0
H3121 H 0.17001 0.7737 0.99826 0.0
H3122 H 0.09238 0.78962 0.9915 0.0
C3123 C 0.00997 0.7235 0.01014 0.0
C3124 C 0.09317 0.74994 0.0091 0.0
C3125 C 0.98149 0.69917 0.01253 0.0
C3126 C 0.19983 0.80898 0.99103 0.0
C3127 C 0.17343 0.79373 0.99527 0.0
C3128 C 0.09315 0.77941 0.9965 0.0
C3129 C 0.03516 0.71868 0.00899 0.0
C3130 C 0.06484 0.74355 0.00605 0.0
C3131 C 0.15107 0.80318 0.99536 0.0
C3132 C 0.12157 0.78483 0.99937 0.0
H3133 H 0.00049 0.64225 0.01343 0.0
H3134 H 0.05039 0.68482 0.0094 0.0
H3135 H 0.04353 0.75436 0.99735 0.0
H3136 H 0.18571 0.86323 0.98365 0.0
H3137 H 0.13993 0.83718 0.99123 0.0
C3138 C 0.1613 0.3349 0.98416 0.0
C3139 C 0.16868 0.36599 0.98475 0.0
C3140 C 0.17627 0.32338 0.98844 0.0
C3141 C 0.22727 0.34276 0.00439 0.0
H3142 H 0.25559 0.2917 0.9952 0.0
C3143 C 0.33592 0.33842 0.01283 0.0
C3144 C 0.33378 0.30927 0.01332 0.0
C3145 C 0.31113 0.34104 0.01019 0.0
C3146 C 0.24742 0.30554 0.99787 0.0
H3147 H 0.19703 0.40922 0.99036 0.0
H3148 H 0.22357 0.38961 0.99761 0.0
H3149 H 0.22004 0.30391 0.98898 0.0
H3150 H 0.30417 0.26 0.01151 0.0
H3151 H 0.2608 0.26466 0.0067 0.0
H3152 H 0.25621 0.34578 0.01311 0.0
C3153 C 0.20578 0.37372 0.99401 0.0
C3154 C 0.22696 0.31247 0.99432 0.0
C3155 C 0.19069 0.38509 0.9898 0.0
C3156 C 0.30623 0.28269 0.01121 0.0
C3157 C 0.28158 0.28537 0.00844 0.0
C3158 C 0.24804 0.33618 0.00789 0.0
C3159 C 0.19904 0.34281 0.99335 0.0
C3160 C 0.21724 0.33184 0.99747 0.0
C3161 C 0.28389 0.3146 0.00789 0.0
C3162 C 0.25883 0.3181 0.00459 0.0
H3163 H 0.14431 0.31959 0.98033 0.0
H3164 H 0.17021 0.29935 0.98785 0.0
H3165 H 0.21967 0.35707 0.00706 0.0
H3166 H 0.35684 0.35919 0.01447 0.0
H3167 H 0.3136 0.36388 0.00976 0.0
C3168 C 0.0029 0.33552 0.51304 0.0
C3169 C 0.97551 0.3066 0.51331 0.0
C3170 C 0.03053 0.3378 0.51066 0.0
C3171 C 0.06008 0.30175 0.49882 0.0
H3172 H 0.13758 0.35077 0.5089 0.0
C3173 C 0.17566 0.32775 0.48616 0.0
C3174 C 0.19973 0.35867 0.48676 0.0
C3175 C 0.14928 0.31656 0.49045 0.0
C3176 C 0.1162 0.33715 0.50599 0.0
H3177 H 0.95535 0.25741 0.51127 0.0
H3178 H 0.00372 0.26149 0.50693 0.0
H3179 H 0.08893 0.34102 0.51429 0.0
H3180 H 0.21581 0.40168 0.49254 0.0
H3181 H 0.16975 0.38267 0.49983 0.0
H3182 H 0.08715 0.29931 0.49034 0.0
C3183 C 0.00378 0.28228 0.50865 0.0
C3184 C 0.08837 0.33148 0.5091 0.0
C3185 C 0.97623 0.27994 0.51116 0.0
C3186 C 0.19769 0.37768 0.49197 0.0
C3187 C 0.17124 0.36666 0.49619 0.0
C3188 C 0.08795 0.3078 0.49566 0.0
C3189 C 0.03117 0.31125 0.5084 0.0
C3190 C 0.06015 0.31425 0.50548 0.0
C3191 C 0.1463 0.3362 0.49536 0.0
C3192 C 0.11647 0.32617 0.49913 0.0
H3193 H 0.00296 0.35634 0.51473 0.0
H3194 H 0.05127 0.36045 0.51045 0.0
H3195 H 0.03863 0.28858 0.4959 0.0
H3196 H 0.17671 0.31249 0.48222 0.0
H3197 H 0.13087 0.29278 0.48976 0.0
C3198 C 0.6576 0.83057 0.48517 0.0
C3199 C 0.63132 0.83239 0.48709 0.0
C3200 C 0.66829 0.81519 0.48952 0.0
C3201 C 0.64022 0.75561 0.50371 0.0
H3202 H 0.72552 0.77352 0.50303 0.0
C3203 C 0.68574 0.68222 0.51794 0.0
C3204 C 0.69548 0.6681 0.51291 0.0
C3205 C 0.68072 0.70645 0.51593 0.0
C3206 C 0.70171 0.76852 0.50332 0.0
H3207 H 0.59666 0.82129 0.49522 0.0
H3208 H 0.61617 0.79576 0.50301 0.0
H3209 H 0.71191 0.80991 0.49775 0.0
H3210 H 0.70906 0.66882 0.502 0.0
H3211 H 0.7013 0.71191 0.49854 0.0
H3212 H 0.63038 0.71428 0.50936 0.0
C3213 C 0.62791 0.8051 0.49803 0.0
C3214 C 0.69376 0.78913 0.50024 0.0
C3215 C 0.61684 0.81995 0.4936 0.0
C3216 C 0.70132 0.67929 0.50594 0.0
C3217 C 0.69711 0.70397 0.50398 0.0
C3218 C 0.64835 0.73539 0.50693 0.0
C3219 C 0.6533 0.80177 0.49596 0.0
C3220 C 0.6627 0.78245 0.50018 0.0
C3221 C 0.6863 0.71739 0.50893 0.0
C3222 C 0.67895 0.74126 0.50658 0.0
H3223 H 0.66907 0.83973 0.48015 0.0
H3224 H 0.68748 0.81271 0.48764 0.0
H3225 H 0.616 0.74925 0.50371 0.0
H3226 H 0.68102 0.67377 0.52333 0.0
H3227 H 0.67227 0.71647 0.51982 0.0
C3228 C 0.173 0.80222 0.491 0.0
C3229 C 0.16461 0.80474 0.48405 0.0
C3230 C 0.18778 0.82843 0.49533 0.0
C3231 C 0.21198 0.91306 0.49621 0.0
H3232 H 0.27705 0.91653 0.50816 0.0
C3233 C 0.3247 0.02378 0.50465 0.0
C3234 C 0.33092 0.02766 0.51193 0.0
C3235 C 0.29961 0.99647 0.50206 0.0
C3236 C 0.25866 0.91567 0.50492 0.0
H3237 H 0.16429 0.83618 0.47618 0.0
H3238 H 0.19164 0.88224 0.48353 0.0
H3239 H 0.24191 0.8685 0.50209 0.0
H3240 H 0.31595 0.00662 0.52226 0.0
H3241 H 0.27248 0.95787 0.51769 0.0
H3242 H 0.23082 0.9613 0.49869 0.0
C3243 C 0.1859 0.86004 0.48581 0.0
C3244 C 0.2383 0.88808 0.50146 0.0
C3245 C 0.17037 0.83366 0.48155 0.0
C3246 C 0.31141 0.004 0.51663 0.0
C3247 C 0.28673 0.9763 0.51403 0.0
C3248 C 0.23286 0.94086 0.49955 0.0
C3249 C 0.19534 0.85791 0.49272 0.0
C3250 C 0.21492 0.88647 0.49696 0.0
C3251 C 0.28078 0.97236 0.50672 0.0
C3252 C 0.25654 0.9424 0.50386 0.0
H3253 H 0.16843 0.78002 0.49307 0.0
H3254 H 0.19378 0.82556 0.50067 0.0
H3255 H 0.1939 0.91264 0.49295 0.0
H3256 H 0.33934 0.0419 0.50096 0.0
H3257 H 0.29553 0.99374 0.49641 0.0
C3258 C 0.99821 0.32015 0.32536 0.0
C3259 C 0.98137 0.30654 0.31913 0.0
C3260 C 0.00332 0.349 0.32763 0.0
C3261 C 0.97395 0.40312 0.32665 0.0
H3262 H 0.05704 0.46279 0.33293 0.0
C3263 C 0.05208 0.53661 0.33826 0.0
C3264 C 0.03309 0.53536 0.3439 0.0
C3265 C 0.04358 0.51053 0.33404 0.0
C3266 C 0.0338 0.44662 0.3311 0.0
H3267 H 0.9564 0.31289 0.31045 0.0
H3268 H 0.96492 0.36314 0.31454 0.0
H3269 H 0.04686 0.41341 0.328 0.0
H3270 H 0.98922 0.50652 0.34922 0.0
H3271 H 0.97443 0.46086 0.34187 0.0
H3272 H 0.96085 0.43632 0.32991 0.0
C3273 C 0.97413 0.35124 0.31763 0.0
C3274 C 0.02791 0.41818 0.32835 0.0
C3275 C 0.96922 0.3224 0.31531 0.0
C3276 C 0.00435 0.5082 0.34492 0.0
C3277 C 0.99583 0.48205 0.34069 0.0
C3278 C 0.9798 0.43159 0.32947 0.0
C3279 C 0.99154 0.36496 0.32378 0.0
C3280 C 0.99787 0.39595 0.32619 0.0
C3281 C 0.01591 0.48262 0.33538 0.0
C3282 C 0.00976 0.45352 0.33179 0.0
H3283 H 0.00733 0.3085 0.32855 0.0
H3284 H 0.01632 0.35874 0.33247 0.0
H3285 H 0.95054 0.38634 0.32504 0.0
H3286 H 0.07425 0.55729 0.3373 0.0
H3287 H 0.05926 0.51185 0.3299 0.0
C3288 C 0.49039 0.49472 0.34477 0.0
C3289 C 0.46808 0.50413 0.34492 0.0
C3290 C 0.51631 0.5097 0.34034 0.0
C3291 C 0.54896 0.56566 0.32526 0.0
H3292 H 0.62795 0.58633 0.33376 0.0
C3293 C 0.66503 0.67233 0.31753 0.0
C3294 C 0.69114 0.66876 0.3168 0.0
C3295 C 0.6369 0.64776 0.31993 0.0
C3296 C 0.60604 0.58031 0.33127 0.0
H3297 H 0.45492 0.53599 0.34042 0.0
H3298 H 0.50025 0.56257 0.33287 0.0
H3299 H 0.57992 0.55088 0.33986 0.0
H3300 H 0.70835 0.6367 0.31791 0.0
H3301 H 0.65908 0.59365 0.32226 0.0
H3302 H 0.5754 0.59658 0.31686 0.0
C3303 C 0.49761 0.54322 0.33603 0.0
C3304 C 0.57846 0.55991 0.33475 0.0
C3305 C 0.47164 0.5281 0.3404 0.0
C3306 C 0.68848 0.63994 0.3184 0.0
C3307 C 0.66043 0.61545 0.32091 0.0
C3308 C 0.57654 0.58635 0.32183 0.0
C3309 C 0.52053 0.53455 0.33601 0.0
C3310 C 0.54958 0.5529 0.33187 0.0
C3311 C 0.63445 0.61924 0.32173 0.0
C3312 C 0.60533 0.59436 0.32488 0.0
H3313 H 0.48814 0.47617 0.34817 0.0
H3314 H 0.53324 0.50209 0.34038 0.0
H3315 H 0.52715 0.56024 0.32281 0.0
H3316 H 0.66643 0.69423 0.31628 0.0
H3317 H 0.61732 0.65139 0.32058 0.0
C3318 C 0.3513 0.02166 0.31511 0.0
C3319 C 0.33294 0.02601 0.32011 0.0
C3320 C 0.37603 0.01783 0.31731 0.0
C3321 C 0.43362 0.03707 0.33074 0.0
H3322 H 0.4233 0.95488 0.32883 0.0
C3323 C 0.50029 0.99604 0.34828 0.0
C3324 C 0.50512 0.972 0.34597 0.0
C3325 C 0.48406 0.00616 0.34405 0.0
C3326 C 0.4272 0.97825 0.32926 0.0
H3327 H 0.32646 0.03095 0.33126 0.0
H3328 H 0.37041 0.02525 0.33512 0.0
H3329 H 0.3861 0.96651 0.32328 0.0
H3330 H 0.49877 0.94111 0.33725 0.0
H3331 H 0.4719 0.95987 0.32969 0.0
H3332 H 0.47482 0.04926 0.33662 0.0
C3333 C 0.36532 0.02431 0.32952 0.0
C3334 C 0.40568 0.98475 0.32611 0.0
C3335 C 0.34017 0.02734 0.32733 0.0
C3336 C 0.49511 0.95953 0.33918 0.0
C3337 C 0.47943 0.97012 0.33488 0.0
C3338 C 0.45557 0.03084 0.33376 0.0
C3339 C 0.3832 0.01922 0.32454 0.0
C3340 C 0.40831 0.01392 0.32699 0.0
C3341 C 0.4728 0.9929 0.33735 0.0
C3342 C 0.45216 0.00103 0.33325 0.0
H3343 H 0.34598 0.02046 0.30952 0.0
H3344 H 0.38955 0.01379 0.3134 0.0
H3345 H 0.43608 0.05981 0.33143 0.0
H3346 H 0.50752 0.0059 0.35352 0.0
H3347 H 0.47909 0.02332 0.34623 0.0
C3348 C 0.99115 0.30323 0.27687 0.0
C3349 C 0.96488 0.27401 0.27804 0.0
C3350 C -0.00034 0.31484 0.26999 0.0
C3351 C 0.97259 0.29882 0.25107 0.0
H3352 H 0.06081 0.33973 0.24722 0.0
C3353 C 0.0166 0.31728 0.22237 0.0
C3354 C 0.041 0.31145 0.22107 0.0
C3355 C 0.00918 0.3211 0.2293 0.0
C3356 C 0.03606 0.32814 0.24818 0.0
H3357 H 0.92658 0.23427 0.27298 0.0
H3358 H 0.94187 0.25364 0.26102 0.0
H3359 H 0.04271 0.32941 0.25936 0.0
H3360 H 0.07725 0.3058 0.22593 0.0
H3361 H 0.06368 0.31103 0.23798 0.0
H3362 H 0.96577 0.29502 0.2399 0.0
C3363 C 0.95549 0.26835 0.26536 0.0
C3364 C 0.02563 0.3227 0.25519 0.0
C3365 C 0.94671 0.25707 0.27224 0.0
C3366 C 0.05856 0.31066 0.22679 0.0
C3367 C 0.0508 0.31384 0.23371 0.0
C3368 C 0.98298 0.30366 0.24407 0.0
C3369 C 0.98243 0.29715 0.26412 0.0
C3370 C 0.99368 0.30715 0.25673 0.0
C3371 C 0.02556 0.31845 0.23509 0.0
C3372 C 0.01485 0.31761 0.24251 0.0
H3373 H 0.0054 0.31685 0.28128 0.0
H3374 H 0.02014 0.33738 0.26928 0.0
H3375 H 0.94785 0.28757 0.25203 0.0
H3376 H 0.00287 0.31824 0.21802 0.0
H3377 H 0.9901 0.32537 0.23011 0.0
C3378 C 0.67777 0.69145 0.22128 0.0
C3379 C 0.6817 0.72106 0.22009 0.0
C3380 C 0.67501 0.68012 0.22818 0.0
C3381 C 0.66729 0.6981 0.24717 0.0
H3382 H 0.71348 0.65574 0.25068 0.0
C3383 C 0.6966 0.68106 0.27568 0.0
C3384 C 0.72675 0.68624 0.27673 0.0
C3385 C 0.68435 0.67704 0.26884 0.0
C3386 C 0.70065 0.66774 0.24982 0.0
H3387 H 0.68506 0.76171 0.22513 0.0
H3388 H 0.68147 0.74275 0.23711 0.0
H3389 H 0.7041 0.66527 0.23861 0.0
H3390 H 0.7675 0.6906 0.27153 0.0
H3391 H 0.74695 0.685 0.25963 0.0
H3392 H 0.66624 0.70305 0.25836 0.0
C3393 C 0.6794 0.72757 0.23278 0.0
C3394 C 0.69472 0.67273 0.24285 0.0
C3395 C 0.6816 0.7386 0.22589 0.0
C3396 C 0.74402 0.68626 0.27086 0.0
C3397 C 0.73207 0.68286 0.26402 0.0
C3398 C 0.67377 0.69369 0.25413 0.0
C3399 C 0.67675 0.69844 0.23404 0.0
C3400 C 0.67874 0.6888 0.24142 0.0
C3401 C 0.70228 0.67881 0.26289 0.0
C3402 C 0.69134 0.67924 0.25555 0.0
H3403 H 0.67753 0.67736 0.21688 0.0
H3404 H 0.67228 0.65731 0.22892 0.0
H3405 H 0.65417 0.7098 0.24631 0.0
H3406 H 0.68272 0.68068 0.28014 0.0
H3407 H 0.66107 0.67324 0.26822 0.0
C3408 C 0.28623 0.96846 0.22376 0.0
C3409 C 0.254 0.95401 0.22271 0.0
C3410 C 0.29862 0.97612 0.23061 0.0
C3411 C 0.31583 0.0097 0.24495 0.0
H3412 H 0.27355 0.95527 0.26081 0.0
C3413 C 0.31467 0.0533 0.27301 0.0
C3414 C 0.31197 0.03469 0.27887 0.0
C3415 C 0.31557 0.04338 0.26614 0.0
C3416 C 0.28611 0.97061 0.25646 0.0
H3417 H 0.20943 0.93481 0.22796 0.0
H3418 H 0.23092 0.9482 0.23985 0.0
H3419 H 0.25913 0.93581 0.24878 0.0
H3420 H 0.31091 0.99239 0.28214 0.0
H3421 H 0.31247 0.97505 0.27013 0.0
H3422 H 0.34226 0.04477 0.25265 0.0
C3423 C 0.24669 0.95364 0.23543 0.0
C3424 C 0.27758 0.95953 0.24956 0.0
C3425 C 0.23438 0.94628 0.22861 0.0
C3426 C 0.31235 0.00695 0.27773 0.0
C3427 C 0.31327 0.99704 0.27085 0.0
C3428 C 0.32435 0.02084 0.25187 0.0
C3429 C 0.27895 0.96903 0.2365 0.0
C3430 C 0.29165 0.97922 0.24374 0.0
C3431 C 0.31384 0.01465 0.26497 0.0
C3432 C 0.30892 0.00167 0.25769 0.0
H3433 H 0.30185 0.97472 0.21929 0.0
H3434 H 0.32357 0.98785 0.23129 0.0
H3435 H 0.32704 0.02546 0.24057 0.0
H3436 H 0.3141 0.07462 0.27368 0.0
H3437 H 0.31564 0.05737 0.26174 0.0
C3438 C 0.98945 0.68522 0.77748 0.0
C3439 C 0.96307 0.68834 0.77833 0.0
C3440 C -0.00015 0.68345 0.77071 0.0
C3441 C 0.97904 0.67495 0.75152 0.0
H3442 H 0.06683 0.73321 0.74907 0.0
C3443 C 0.03398 0.71156 0.72374 0.0
C3444 C 0.05143 0.74392 0.72289 0.0
C3445 C 0.02564 0.69853 0.73052 0.0
C3446 C 0.04232 0.71669 0.74967 0.0
H3447 H 0.92602 0.6904 0.77278 0.0
H3448 H 0.94419 0.68758 0.76101 0.0
H3449 H 0.04518 0.71991 0.76094 0.0
H3450 H 0.07556 0.78788 0.72843 0.0
H3451 H 0.06094 0.76535 0.7402 0.0
H3452 H 0.97592 0.67337 0.74022 0.0
C3453 C 0.95668 0.68604 0.76554 0.0
C3454 C 0.02993 0.70877 0.75648 0.0
C3455 C 0.94624 0.68771 0.7723 0.0
C3456 C 0.0618 0.76287 0.72893 0.0
C3457 C 0.05368 0.74991 0.73568 0.0
C3458 C 0.99145 0.68293 0.7447 0.0
C3459 C 0.98413 0.68484 0.76466 0.0
C3460 C 0.99795 0.68861 0.75749 0.0
C3461 C 0.03492 0.71765 0.73655 0.0
C3462 C 0.02303 0.70473 0.7437 0.0
H3463 H 0.00259 0.68507 0.78203 0.0
H3464 H 0.02075 0.68195 0.77021 0.0
H3465 H 0.9544 0.65899 0.75212 0.0
H3466 H 0.02563 0.69644 0.71917 0.0
H3467 H 0.01137 0.67358 0.73103 0.0
C3468 C 0.3108 0.28462 0.77572 0.0
C3469 C 0.299 0.25312 0.77735 0.0
C3470 C 0.31214 0.29396 0.76866 0.0
C3471 C 0.26853 0.26094 0.75255 0.0
H3472 H 0.33557 0.32825 0.74214 0.0
C3473 C 0.26283 0.2657 0.72275 0.0
C3474 C 0.26952 0.29384 0.71952 0.0
C3475 C 0.27016 0.26485 0.72982 0.0
C3476 C 0.31658 0.30966 0.74503 0.0
H3477 H 0.28215 0.20725 0.77296 0.0
H3478 H 0.28472 0.22346 0.76069 0.0
H3479 H 0.34313 0.3196 0.75465 0.0
H3480 H 0.29042 0.34347 0.72119 0.0
H3481 H 0.30283 0.34178 0.73371 0.0
H3482 H 0.24191 0.25069 0.74307 0.0
C3483 C 0.29232 0.24085 0.76483 0.0
C3484 C 0.32092 0.30471 0.75215 0.0
C3485 C 0.29093 0.23159 0.77183 0.0
C3486 C 0.28467 0.32136 0.72353 0.0
C3487 C 0.29202 0.32047 0.73067 0.0
C3488 C 0.26418 0.2659 0.74551 0.0
C3489 C 0.30168 0.27184 0.76319 0.0
C3490 C 0.29714 0.2797 0.7559 0.0
C3491 C 0.2841 0.29203 0.73391 0.0
C3492 C 0.28839 0.2897 0.7416 0.0
H3493 H 0.3171 0.30157 0.77992 0.0
H3494 H 0.3195 0.318 0.76752 0.0
H3495 H 0.24952 0.24202 0.75537 0.0
H3496 H 0.25071 0.24392 0.71991 0.0
H3497 H 0.26421 0.24264 0.73214 0.0
C3498 C 0.6927 0.00255 0.77888 0.0
C3499 C 0.72046 0.03065 0.77997 0.0
C3500 C 0.68098 0.9931 0.77204 0.0
C3501 C 0.69175 0.01848 0.7531 0.0
H3502 H 0.67092 0.93343 0.7496 0.0
C3503 C 0.70685 0.94535 0.72949 0.0
C3504 C 0.69646 0.95479 0.7236 0.0
C3505 C 0.70116 0.95172 0.73633 0.0
C3506 C 0.6765 0.95718 0.75049 0.0
H3507 H 0.75676 0.0717 0.77481 0.0
H3508 H 0.73674 0.0551 0.7629 0.0
H3509 H 0.67684 0.95211 0.7617 0.0
H3510 H 0.67088 0.97722 0.72023 0.0
H3511 H 0.6608 0.98846 0.73228 0.0
H3512 H 0.69343 0.02395 0.74183 0.0
C3513 C 0.7236 0.0405 0.7673 0.0
C3514 C 0.67954 0.96784 0.75744 0.0
C3515 C 0.73517 0.05004 0.77414 0.0
C3516 C 0.6791 0.96967 0.72469 0.0
C3517 C 0.67355 0.97627 0.73157 0.0
C3518 C 0.6888 0.0078 0.74613 0.0
C3519 C 0.69694 0.01144 0.76615 0.0
C3520 C 0.68821 0.99891 0.75883 0.0
C3521 C 0.68493 0.96774 0.73746 0.0
C3522 C 0.68223 0.97734 0.74475 0.0
H3523 H 0.68058 0.98738 0.78329 0.0
H3524 H 0.66003 0.97089 0.77136 0.0
H3525 H 0.69796 0.0424 0.75398 0.0
H3526 H 0.71998 0.93352 0.72881 0.0
H3527 H 0.71061 0.94516 0.74074 0.0
C3528 C 0.60796 0.58996 0.60598 0.0
C3529 C 0.6263 0.60716 0.61176 0.0
C3530 C 0.61717 0.60041 0.59906 0.0
C3531 C 0.68885 0.64525 0.5892 0.0
H3532 H 0.63316 0.62895 0.57335 0.0
C3533 C 0.71257 0.61662 0.56143 0.0
C3534 C 0.70548 0.62905 0.55552 0.0
C3535 C 0.70509 0.62154 0.56823 0.0
C3536 C 0.64911 0.63415 0.57773 0.0
H3537 H 0.66724 0.6502 0.61482 0.0
H3538 H 0.68345 0.66829 0.60272 0.0
H3539 H 0.61391 0.62467 0.58546 0.0
H3540 H 0.68568 0.65694 0.55207 0.0
H3541 H 0.672 0.66522 0.56406 0.0
H3542 H 0.7237 0.65358 0.58149 0.0
C3543 C 0.66221 0.64647 0.60355 0.0
C3544 C 0.63803 0.63145 0.58465 0.0
C3545 C 0.65294 0.63607 0.61048 0.0
C3546 C 0.69142 0.64719 0.55655 0.0
C3547 C 0.68349 0.65177 0.56339 0.0
C3548 C 0.69982 0.64774 0.58229 0.0
C3549 C 0.64496 0.62826 0.59776 0.0
C3550 C 0.65759 0.63615 0.59046 0.0
C3551 C 0.69008 0.63879 0.56928 0.0
C3552 C 0.67984 0.64132 0.5765 0.0
H3553 H 0.58748 0.56746 0.60677 0.0
H3554 H 0.60353 0.58564 0.59472 0.0
H3555 H 0.70446 0.64877 0.59355 0.0
H3556 H 0.72364 0.60275 0.56077 0.0
H3557 H 0.71013 0.61094 0.57266 0.0
C3558 C 0.37891 0.01047 0.60932 0.0
C3559 C 0.39544 0.03953 0.6127 0.0
C3560 C 0.36668 0.00811 0.60251 0.0
C3561 C 0.34497 0.05066 0.58984 0.0
H3562 H 0.36921 0.01269 0.57512 0.0
C3563 C 0.37035 0.09589 0.56163 0.0
C3564 C 0.36198 0.07525 0.55591 0.0
C3565 C 0.36514 0.08488 0.56856 0.0
C3566 C 0.36156 0.02274 0.57918 0.0
H3567 H 0.41276 0.08892 0.6114 0.0
H3568 H 0.39097 0.08462 0.59974 0.0
H3569 H 0.37729 0.00487 0.58756 0.0
H3570 H 0.3408 0.02692 0.55289 0.0
H3571 H 0.33206 0.00743 0.56513 0.0
H3572 H 0.33076 0.06987 0.58149 0.0
C3573 C 0.3869 0.06359 0.60238 0.0
C3574 C 0.3662 0.01827 0.5863 0.0
C3575 C 0.39935 0.066 0.6091 0.0
C3576 C 0.34735 0.04322 0.55723 0.0
C3577 C 0.34251 0.03214 0.56421 0.0
C3578 C 0.34035 0.05512 0.58275 0.0
C3579 C 0.37047 0.0347 0.599 0.0
C3580 C 0.35919 0.03334 0.59167 0.0
C3581 C 0.35168 0.05296 0.56994 0.0
C3582 C 0.34985 0.04233 0.57735 0.0
H3583 H 0.37526 0.98956 0.61195 0.0
H3584 H 0.35417 0.98555 0.6 0.0
H3585 H 0.33882 0.06207 0.59389 0.0
H3586 H 0.38154 0.12069 0.56073 0.0
H3587 H 0.37287 0.10154 0.57285 0.0
C3588 C 0.96556 0.38702 0.60314 0.0
C3589 C 0.97188 0.37616 0.60942 0.0
C3590 C 0.96981 0.37678 0.59659 0.0
C3591 C 0.99012 0.35893 0.58313 0.0
H3592 H 0.94396 0.26917 0.58165 0.0
C3593 C 0.95728 0.29876 0.556 0.0
C3594 C 0.92506 0.27897 0.55542 0.0
C3595 C 0.97107 0.30851 0.56267 0.0
C3596 C 0.95731 0.29425 0.58199 0.0
H3597 H 0.98878 0.34722 0.61383 0.0
H3598 H 0.99576 0.32873 0.6023 0.0
H3599 H 0.95544 0.29361 0.59331 0.0
H3600 H 0.88236 0.25195 0.56127 0.0
H3601 H 0.90631 0.26879 0.57289 0.0
H3602 H 0.99034 0.35963 0.5718 0.0
C3603 C 0.98771 0.34531 0.60247 0.0
C3604 C 0.9641 0.30824 0.58866 0.0
C3605 C 0.98386 0.35595 0.60904 0.0
C3606 C 0.90721 0.26743 0.56159 0.0
C3607 C 0.92101 0.27686 0.56824 0.0
C3608 C 0.98353 0.34494 0.57646 0.0
C3609 C 0.98013 0.35519 0.59619 0.0
C3610 C 0.97943 0.34072 0.58928 0.0
C3611 C 0.95291 0.29825 0.56884 0.0
C3612 C 0.96593 0.31249 0.57582 0.0
H3613 H 0.95644 0.40274 0.60331 0.0
H3614 H 0.9634 0.38452 0.59185 0.0
H3615 H 0.00223 0.38402 0.58346 0.0
H3616 H 0.9715 0.30803 0.55131 0.0
H3617 H 0.99573 0.32489 0.56299 0.0
C3618 C 0.69267 0.04659 0.05707 0.0
C3619 C 0.70936 0.07889 0.05605 0.0
C3620 C 0.68466 0.03421 0.06391 0.0
C3621 C 0.65173 0.01871 0.07828 0.0
H3622 H 0.7072 0.05813 0.09414 0.0
C3623 C 0.60955 0.0225 0.1063 0.0
C3624 C 0.62756 0.02392 0.11217 0.0
C3625 C 0.61921 0.02106 0.09944 0.0
C3626 C 0.69152 0.04634 0.08979 0.0
H3627 H 0.73219 0.12347 0.06136 0.0
H3628 H 0.71808 0.10203 0.07323 0.0
H3629 H 0.72701 0.07164 0.08212 0.0
H3630 H 0.66848 0.02233 0.11548 0.0
H3631 H 0.68533 0.01974 0.10348 0.0
H3632 H 0.61607 0.9939 0.08596 0.0
C3633 C 0.71119 0.08617 0.06879 0.0
C3634 C 0.70282 0.05439 0.08289 0.0
C3635 C 0.71897 0.0985 0.06198 0.0
C3636 C 0.6544 0.02185 0.11105 0.0
C3637 C 0.66405 0.02036 0.10418 0.0
C3638 C 0.6404 0.01065 0.08518 0.0
C3639 C 0.69355 0.05392 0.06984 0.0
C3640 C 0.68284 0.04143 0.07706 0.0
C3641 C 0.64708 0.02096 0.09829 0.0
C3642 C 0.65995 0.02511 0.09102 0.0
H3643 H 0.68491 0.03096 0.05258 0.0
H3644 H 0.67122 0.00926 0.06455 0.0
H3645 H 0.63572 0.00838 0.0739 0.0
H3646 H 0.58895 0.02441 0.10697 0.0
H3647 H 0.60576 0.02197 0.09503 0.0
C3648 C 0.90219 0.6265 0.06192 0.0
C3649 C 0.92217 0.63787 0.05606 0.0
C3650 C 0.91408 0.63162 0.06877 0.0
C3651 C 0.98283 0.64439 0.07851 0.0
H3652 H 0.93845 0.65411 0.09426 0.0
C3653 C 0.97985 0.5965 0.10627 0.0
C3654 C 0.97561 0.61093 0.11222 0.0
C3655 C 0.9813 0.60829 0.09949 0.0
C3656 C 0.95163 0.65203 0.08995 0.0
H3657 H 0.97024 0.66453 0.05278 0.0
H3658 H 0.99123 0.67358 0.06484 0.0
H3659 H 0.92526 0.66044 0.08222 0.0
H3660 H 0.97224 0.65059 0.11577 0.0
H3661 H 0.97498 0.67136 0.1039 0.0
H3662 H 0.0088 0.63537 0.08625 0.0
C3663 C 0.96632 0.66052 0.0641 0.0
C3664 C 0.94377 0.6553 0.08303 0.0
C3665 C 0.95433 0.65554 0.05721 0.0
C3666 C 0.97494 0.63862 0.11127 0.0
C3667 C 0.9765 0.6505 0.10448 0.0
C3668 C 0.99074 0.64116 0.08544 0.0
C3669 C 0.94629 0.64822 0.06995 0.0
C3670 C 0.95852 0.65043 0.07723 0.0
C3671 C 0.97865 0.63488 0.09849 0.0
C3672 C 0.97451 0.64391 0.09123 0.0
H3673 H 0.87727 0.61314 0.06119 0.0
H3674 H 0.898 0.62148 0.07315 0.0
H3675 H 0.9946 0.64042 0.07416 0.0
H3676 H 0.98008 0.57494 0.10681 0.0
H3677 H 0.98255 0.5954 0.09501 0.0
C3678 C 0.35612 0.27564 0.06024 0.0
C3679 C 0.35532 0.29335 0.05455 0.0
C3680 C 0.3543 0.28401 0.06721 0.0
C3681 C 0.36831 0.35294 0.07766 0.0
H3682 H 0.33979 0.29298 0.09293 0.0
C3683 C 0.41329 0.38771 0.10607 0.0
C3684 C 0.39508 0.37006 0.1118 0.0
C3685 C 0.40278 0.3792 0.09913 0.0
C3686 C 0.34735 0.31016 0.08876 0.0
H3687 H 0.35005 0.33254 0.05163 0.0
H3688 H 0.3455 0.34652 0.06379 0.0
H3689 H 0.32911 0.27503 0.08079 0.0
H3690 H 0.35087 0.33076 0.11482 0.0
H3691 H 0.33179 0.31652 0.1027 0.0
H3692 H 0.38571 0.38807 0.08563 0.0
C3693 C 0.34865 0.32677 0.06291 0.0
C3694 C 0.34167 0.29979 0.08175 0.0
C3695 C 0.35102 0.31867 0.05594 0.0
C3696 C 0.36547 0.34459 0.11047 0.0
C3697 C 0.35469 0.33635 0.10353 0.0
C3698 C 0.37349 0.36331 0.08467 0.0
C3699 C 0.35114 0.31007 0.06866 0.0
C3700 C 0.35298 0.32101 0.07609 0.0
C3701 C 0.37354 0.35305 0.09774 0.0
C3702 C 0.364 0.34209 0.09032 0.0
H3703 H 0.35985 0.25626 0.05933 0.0
H3704 H 0.35692 0.27084 0.07144 0.0
H3705 H 0.37761 0.37012 0.07348 0.0
H3706 H 0.43638 0.40722 0.10694 0.0
H3707 H 0.41831 0.39237 0.09486 0.0
C3708 C 0.326 0.97013 0.94443 0.0
C3709 C 0.29957 0.94102 0.94559 0.0
C3710 C 0.33452 0.9818 0.93756 0.0
C3711 C 0.30751 0.96627 0.91864 0.0
H3712 H 0.39573 0.00616 0.91484 0.0
C3713 C 0.35215 0.98576 0.88996 0.0
C3714 C 0.37625 0.97952 0.88863 0.0
C3715 C 0.34461 0.98919 0.89691 0.0
C3716 C 0.37098 0.99486 0.91578 0.0
H3717 H 0.26089 0.90163 0.94054 0.0
H3718 H 0.27619 0.92111 0.92858 0.0
H3719 H 0.37747 0.99578 0.92696 0.0
H3720 H 0.41186 0.97271 0.89345 0.0
H3721 H 0.39809 0.97732 0.90553 0.0
H3722 H 0.30085 0.96286 0.90745 0.0
C3723 C 0.28996 0.93566 0.93292 0.0
C3724 C 0.36046 0.98939 0.92278 0.0
C3725 C 0.28117 0.92432 0.9398 0.0
C3726 C 0.3934 0.97789 0.89433 0.0
C3727 C 0.38553 0.98071 0.90128 0.0
C3728 C 0.31799 0.97117 0.91164 0.0
C3729 C 0.31713 0.96428 0.93168 0.0
C3730 C 0.3285 0.97424 0.9243 0.0
C3731 C 0.3606 0.98578 0.90268 0.0
C3732 C 0.34984 0.98477 0.9101 0.0
H3733 H 0.34042 0.98356 0.94884 0.0
H3734 H 0.35515 0.00423 0.93685 0.0
H3735 H 0.28278 0.9553 0.91958 0.0
H3736 H 0.33877 0.98739 0.88563 0.0
H3737 H 0.32579 0.99382 0.89775 0.0
C3738 C 0.01013 0.37527 0.88933 0.0
C3739 C 0.02017 0.40706 0.88875 0.0
C3740 C 0.0063 0.36155 0.896 0.0
C3741 C 0.00223 0.374 0.9153 0.0
H3742 H 0.05166 0.33398 0.91718 0.0
C3743 C 0.03635 0.34856 0.94266 0.0
C3744 C 0.06868 0.36215 0.94329 0.0
C3745 C 0.02269 0.34462 0.93598 0.0
C3746 C 0.03742 0.34472 0.91673 0.0
H3747 H 0.03175 0.44887 0.89462 0.0
H3748 H 0.02506 0.42504 0.90624 0.0
H3749 H 0.03952 0.34522 0.90542 0.0
H3750 H 0.11191 0.38051 0.93753 0.0
H3751 H 0.0882 0.37329 0.92587 0.0
H3752 H 0.00175 0.37516 0.92663 0.0
C3753 C 0.02012 0.41062 0.90158 0.0
C3754 C 0.03024 0.35093 0.90999 0.0
C3755 C 0.02424 0.42437 0.89493 0.0
C3756 C 0.08692 0.37005 0.93715 0.0
C3757 C 0.0733 0.3657 0.93049 0.0
C3758 C 0.00924 0.36759 0.92204 0.0
C3759 C 0.01208 0.37932 0.90219 0.0
C3760 C 0.01362 0.36676 0.90921 0.0
C3761 C 0.04115 0.35371 0.92983 0.0
C3762 C 0.02797 0.35402 0.92281 0.0
H3763 H 0.00694 0.36146 0.88464 0.0
H3764 H -0.0001 0.33733 0.89631 0.0
H3765 H 0.98911 0.38594 0.91485 0.0
H3766 H 0.0219 0.34244 0.94735 0.0
H3767 H 0.99785 0.33526 0.93561 0.0
C3768 C 0.60719 0.66214 0.9423 0.0
C3769 C 0.63279 0.68881 0.94512 0.0
C3770 C 0.60869 0.6513 0.9356 0.0
C3771 C 0.64674 0.67856 0.91855 0.0
H3772 H 0.60254 0.59051 0.91428 0.0
C3773 C 0.61942 0.63335 0.8898 0.0
C3774 C 0.58767 0.61241 0.88877 0.0
C3775 C 0.63178 0.64058 0.89665 0.0
C3776 C 0.61515 0.61517 0.91539 0.0
H3777 H 0.68044 0.72454 0.94313 0.0
H3778 H 0.68283 0.70576 0.93129 0.0
H3779 H 0.61249 0.60768 0.92658 0.0
H3780 H 0.54435 0.58115 0.89401 0.0
H3781 H 0.56577 0.59359 0.90593 0.0
H3782 H 0.64819 0.686 0.90736 0.0
C3783 C 0.66161 0.69332 0.93432 0.0
C3784 C 0.62082 0.62501 0.92243 0.0
C3785 C 0.66018 0.70412 0.94109 0.0
C3786 C 0.56886 0.59757 0.89466 0.0
C3787 C 0.58122 0.60449 0.90148 0.0
C3788 C 0.64112 0.6687 0.9115 0.0
C3789 C 0.63575 0.66692 0.93149 0.0
C3790 C 0.63557 0.65678 0.92409 0.0
C3791 C 0.61263 0.62661 0.90256 0.0
C3792 C 0.62419 0.6369 0.90987 0.0
H3793 H 0.58541 0.65017 0.94514 0.0
H3794 H 0.58809 0.63136 0.93351 0.0
H3795 H 0.65799 0.70319 0.91966 0.0
H3796 H 0.63437 0.64517 0.88533 0.0
H3797 H 0.6561 0.65759 0.89733 0.0
C3798 C 0.34448 0.37066 0.38777 0.0
C3799 C 0.3729 0.39745 0.38619 0.0
C3800 C 0.33559 0.36193 0.3948 0.0
C3801 C 0.34531 0.40049 0.41151 0.0
H3802 H 0.30132 0.31806 0.41976 0.0
C3803 C 0.27013 0.37591 0.43599 0.0
C3804 C 0.27895 0.36461 0.44184 0.0
C3805 C 0.2809 0.37513 0.42923 0.0
C3806 C 0.31368 0.34116 0.41751 0.0
H3807 H 0.41519 0.43474 0.39074 0.0
H3808 H 0.39968 0.41942 0.40299 0.0
H3809 H 0.32466 0.32543 0.40791 0.0
H3810 H 0.30413 0.34148 0.44508 0.0
H3811 H 0.32245 0.33954 0.43314 0.0
H3812 H 0.3337 0.4162 0.42094 0.0
C3813 C 0.38426 0.40531 0.39878 0.0
C3814 C 0.32693 0.34536 0.41076 0.0
C3815 C 0.39322 0.41392 0.39177 0.0
C3816 C 0.29685 0.3503 0.44068 0.0
C3817 C 0.3074 0.34924 0.43387 0.0
C3818 C 0.33171 0.39623 0.41817 0.0
C3819 C 0.35488 0.37997 0.40037 0.0
C3820 C 0.34278 0.37511 0.4077 0.0
C3821 C 0.30038 0.36266 0.42814 0.0
C3822 C 0.31553 0.36654 0.42119 0.0
H3823 H 0.32852 0.35728 0.38357 0.0
H3824 H 0.31279 0.34231 0.39587 0.0
H3825 H 0.35698 0.4236 0.40925 0.0
H3826 H 0.2557 0.38633 0.43667 0.0
H3827 H 0.27478 0.38516 0.42486 0.0
C3828 C 0.61844 0.98403 0.39075 0.0
C3829 C 0.58621 0.96901 0.38965 0.0
C3830 C 0.63046 0.98802 0.39762 0.0
C3831 C 0.60943 0.98471 0.41661 0.0
H3832 H 0.66833 0.95628 0.41949 0.0
C3833 C 0.63974 0.96448 0.44466 0.0
C3834 C 0.63748 0.93539 0.4456 0.0
C3835 C 0.64152 0.97638 0.43786 0.0
C3836 C 0.652 0.96443 0.41878 0.0
H3837 H 0.54142 0.94814 0.39486 0.0
H3838 H 0.56221 0.95476 0.40678 0.0
H3839 H 0.65492 0.96337 0.40749 0.0
H3840 H 0.63685 0.8967 0.44017 0.0
H3841 H 0.63967 0.91722 0.42834 0.0
H3842 H 0.60498 0.98395 0.42787 0.0
C3843 C 0.57831 0.96358 0.40238 0.0
C3844 C 0.64458 0.96883 0.4119 0.0
C3845 C 0.56634 0.95945 0.39555 0.0
C3846 C 0.63887 0.91932 0.43963 0.0
C3847 C 0.64055 0.93114 0.43283 0.0
C3848 C 0.61681 0.98029 0.42348 0.0
C3849 C 0.61045 0.97734 0.4035 0.0
C3850 C 0.62243 0.97804 0.41074 0.0
C3851 C 0.64098 0.95938 0.43186 0.0
C3852 C 0.63745 0.96915 0.42464 0.0
H3853 H 0.63426 0.99155 0.3863 0.0
H3854 H 0.65534 0.99892 0.39832 0.0
H3855 H 0.59262 0.99227 0.41589 0.0
H3856 H 0.63929 0.97768 0.44917 0.0
H3857 H 0.64241 0.99847 0.4373 0.0
C3858 C 0.07171 0.71408 0.43807 0.0
C3859 C 0.05679 0.69635 0.4441 0.0
C3860 C 0.05978 0.70317 0.43132 0.0
C3861 C 0.01172 0.62902 0.4221 0.0
H3862 H 0.02768 0.68357 0.40605 0.0
C3863 C 0.03158 0.59815 0.3942 0.0
C3864 C 0.02385 0.60983 0.38825 0.0
C3865 C 0.02694 0.60577 0.40102 0.0
C3866 C 0.02241 0.66781 0.41047 0.0
H3867 H 0.01645 0.65438 0.44783 0.0
H3868 H 0.99517 0.63556 0.43605 0.0
H3869 H 0.03456 0.70419 0.41801 0.0
H3870 H 0.0035 0.63726 0.38479 0.0
H3871 H 0.99477 0.65017 0.39676 0.0
H3872 H -0.0004 0.59267 0.41456 0.0
C3873 C 0.01658 0.65752 0.43651 0.0
C3874 C 0.02679 0.67976 0.41734 0.0
C3875 C 0.02869 0.66832 0.44327 0.0
C3876 C 0.00967 0.62788 0.38928 0.0
C3877 C 0.00497 0.63553 0.39613 0.0
C3878 C 0.00708 0.61703 0.41523 0.0
C3879 C 0.03247 0.67436 0.43044 0.0
C3880 C 0.02259 0.66076 0.42323 0.0
C3881 C 0.01426 0.62516 0.40208 0.0
C3882 C 0.01349 0.63651 0.40933 0.0
H3883 H 0.09359 0.7356 0.43854 0.0
H3884 H 0.07298 0.71661 0.42679 0.0
H3885 H 0.00837 0.61363 0.42648 0.0
H3886 H 0.04209 0.58376 0.39359 0.0
H3887 H 0.03472 0.5976 0.40545 0.0
loop_
_geom_bond_atom_site_label_1
_geom_bond_atom_site_label_2
_geom_bond_distance
_geom_bond_site_symmetry_2
_ccdc_geom_bond_type
Co0 N4 2.148 . S
Co0 N10 2.128 . S
Co0 N20 2.194 . S
Co0 O25 2.351 . S
Co0 O26 2.155 . S
Co0 O27 2.096 . S
C1 N4 1.301 . S
C1 N5 1.328 . S
C1 H6 0.930 . S
C2 C3 1.333 . S
C2 N4 1.317 . S
C2 H7 0.930 . S
C3 C2 1.333 . S
C3 N5 1.350 . S
C3 H29 0.931 . S
N4 Co0 2.148 . S
N4 C1 1.301 . S
N4 C2 1.317 . S
N5 C1 1.328 . S
N5 C3 1.350 . S
H6 C1 0.930 . S
H7 C2 0.930 . S
C8 O9 1.224 . S
C8 O27 1.247 . S
O9 C8 1.224 . S
N10 Co0 2.128 . S
N10 C11 1.355 . S
N10 C13 1.311 . S
C11 N10 1.355 . S
C11 C12 1.363 . S
C11 H23 0.929 . S
C12 C11 1.363 . S
C12 N14 1.375 . S
C12 H30 0.931 . S
C13 N10 1.311 . S
C13 N14 1.347 . S
C13 H24 0.929 . S
N14 C12 1.375 . S
N14 C13 1.347 . S
C15 C18 1.365 . S
C15 N20 1.328 . S
C15 H21 0.929 . S
C16 C17 1.362 . S
C16 C19 1.378 . S
C16 H31 0.929 . S
C17 C16 1.362 . S
C17 C18 1.366 . S
C18 C15 1.365 . S
C18 C17 1.366 . S
C18 H32 0.930 . S
C19 C16 1.378 . S
C19 N20 1.315 . S
C19 H22 0.930 . S
N20 Co0 2.194 . S
N20 C15 1.328 . S
N20 C19 1.315 . S
H21 C15 0.929 . S
H22 C19 0.930 . S
H23 C11 0.929 . S
H24 C13 0.929 . S
O25 Co0 2.351 . S
O25 C28 1.244 . S
O26 Co0 2.155 . S
O26 C28 1.240 . S
O27 Co0 2.096 . S
O27 C8 1.247 . S
C28 O25 1.244 . S
C28 O26 1.240 . S
H29 C3 0.931 . S
H30 C12 0.931 . S
H31 C16 0.929 . S
H32 C18 0.930 . S
Co33 N37 2.148 . S
Co33 N43 2.128 . S
Co33 N53 2.194 . S
Co33 O58 2.351 . S
Co33 O59 2.155 . S
Co33 O60 2.096 . S
C34 N37 1.301 . S
C34 N38 1.328 . S
C34 H39 0.930 . S
C35 C36 1.333 . S
C35 N37 1.317 . S
C35 H40 0.930 . S
C36 C35 1.333 . S
C36 N38 1.350 . S
C36 H62 0.931 . S
N37 Co33 2.148 . S
N37 C34 1.301 . S
N37 C35 1.317 . S
N38 C34 1.328 . S
N38 C36 1.350 . S
H39 C34 0.930 . S
H40 C35 0.930 . S
C41 O42 1.224 . S
C41 O60 1.247 . S
O42 C41 1.224 . S
N43 Co33 2.128 . S
N43 C44 1.355 . S
N43 C46 1.311 . S
C44 N43 1.355 . S
C44 C45 1.363 . S
C44 H56 0.929 . S
C45 C44 1.363 . S
C45 N47 1.375 . S
C45 H63 0.931 . S
C46 N43 1.311 . S
C46 N47 1.347 . S
C46 H57 0.929 . S
N47 C45 1.375 . S
N47 C46 1.347 . S
C48 C51 1.365 . S
C48 N53 1.328 . S
C48 H54 0.929 . S
C49 C50 1.362 . S
C49 C52 1.378 . S
C49 H64 0.929 . S
C50 C49 1.362 . S
C50 C51 1.366 . S
C51 C48 1.365 . S
C51 C50 1.366 . S
C51 H65 0.930 . S
C52 C49 1.378 . S
C52 N53 1.315 . S
C52 H55 0.930 . S
N53 Co33 2.194 . S
N53 C48 1.328 . S
N53 C52 1.315 . S
H54 C48 0.929 . S
H55 C52 0.930 . S
H56 C44 0.929 . S
H57 C46 0.929 . S
O58 Co33 2.351 . S
O58 C61 1.244 . S
O59 Co33 2.155 . S
O59 C61 1.240 . S
O60 Co33 2.096 . S
O60 C41 1.247 . S
C61 O58 1.244 . S
C61 O59 1.240 . S
H62 C36 0.931 . S
H63 C45 0.931 . S
H64 C49 0.929 . S
H65 C51 0.930 . S
Co66 N70 2.148 . S
Co66 N76 2.128 . S
Co66 N86 2.194 . S
Co66 O91 2.351 . S
Co66 O92 2.155 . S
Co66 O93 2.096 . S
C67 N70 1.301 . S
C67 N71 1.328 . S
C67 H72 0.930 . S
C68 C69 1.333 . S
C68 N70 1.317 . S
C68 H73 0.930 . S
C69 C68 1.333 . S
C69 N71 1.350 . S
C69 H95 0.931 . S
N70 Co66 2.148 . S
N70 C67 1.301 . S
N70 C68 1.317 . S
N71 C67 1.328 . S
N71 C69 1.350 . S
H72 C67 0.930 . S
H73 C68 0.930 . S
C74 O75 1.224 . S
C74 O93 1.247 . S
O75 C74 1.224 . S
N76 Co66 2.128 . S
N76 C77 1.355 . S
N76 C79 1.311 . S
C77 N76 1.355 . S
C77 C78 1.363 . S
C77 H89 0.929 . S
C78 C77 1.363 . S
C78 N80 1.375 . S
C78 H96 0.931 . S
C79 N76 1.311 . S
C79 N80 1.347 . S
C79 H90 0.929 . S
N80 C78 1.375 . S
N80 C79 1.347 . S
C81 C84 1.365 . S
C81 N86 1.328 . S
C81 H87 0.929 . S
C82 C83 1.362 . S
C82 C85 1.378 . S
C82 H97 0.929 . S
C83 C82 1.362 . S
C83 C84 1.366 . S
C84 C81 1.365 . S
C84 C83 1.366 . S
C84 H98 0.930 . S
C85 C82 1.378 . S
C85 N86 1.315 . S
C85 H88 0.930 . S
N86 Co66 2.194 . S
N86 C81 1.328 . S
N86 C85 1.315 . S
H87 C81 0.929 . S
H88 C85 0.930 . S
H89 C77 0.929 . S
H90 C79 0.929 . S
O91 Co66 2.351 . S
O91 C94 1.244 . S
O92 Co66 2.155 . S
O92 C94 1.240 . S
O93 Co66 2.096 . S
O93 C74 1.247 . S
C94 O91 1.244 . S
C94 O92 1.240 . S
H95 C69 0.931 . S
H96 C78 0.931 . S
H97 C82 0.929 . S
H98 C84 0.930 . S
Co99 N103 2.148 . S
Co99 N109 2.128 . S
Co99 N119 2.194 . S
Co99 O124 2.351 . S
Co99 O125 2.155 . S
Co99 O126 2.096 . S
C100 N103 1.301 . S
C100 N104 1.328 . S
C100 H105 0.930 . S
C101 C102 1.333 . S
C101 N103 1.317 . S
C101 H106 0.930 . S
C102 C101 1.333 . S
C102 N104 1.350 . S
C102 H128 0.931 . S
N103 Co99 2.148 . S
N103 C100 1.301 . S
N103 C101 1.317 . S
N104 C100 1.328 . S
N104 C102 1.350 . S
H105 C100 0.930 . S
H106 C101 0.930 . S
C107 O108 1.224 . S
C107 O126 1.247 . S
O108 C107 1.224 . S
N109 Co99 2.128 . S
N109 C110 1.355 . S
N109 C112 1.311 . S
C110 N109 1.355 . S
C110 C111 1.363 . S
C110 H122 0.929 . S
C111 C110 1.363 . S
C111 N113 1.375 . S
C111 H129 0.931 . S
C112 N109 1.311 . S
C112 N113 1.347 . S
C112 H123 0.929 . S
N113 C111 1.375 . S
N113 C112 1.347 . S
C114 C117 1.365 . S
C114 N119 1.328 . S
C114 H120 0.929 . S
C115 C116 1.362 . S
C115 C118 1.378 . S
C115 H130 0.929 . S
C116 C115 1.362 . S
C116 C117 1.366 . S
C117 C114 1.365 . S
C117 C116 1.366 . S
C117 H131 0.930 . S
C118 C115 1.378 . S
C118 N119 1.315 . S
C118 H121 0.930 . S
N119 Co99 2.194 . S
N119 C114 1.328 . S
N119 C118 1.315 . S
H120 C114 0.929 . S
H121 C118 0.930 . S
H122 C110 0.929 . S
H123 C112 0.929 . S
O124 Co99 2.351 . S
O124 C127 1.244 . S
O125 Co99 2.155 . S
O125 C127 1.240 . S
O126 Co99 2.096 . S
O126 C107 1.247 . S
C127 O124 1.244 . S
C127 O125 1.240 . S
H128 C102 0.931 . S
H129 C111 0.931 . S
H130 C115 0.929 . S
H131 C117 0.930 . S
Co132 N136 2.148 . S
Co132 N142 2.128 . S
Co132 N152 2.194 . S
Co132 O157 2.351 . S
Co132 O158 2.155 . S
Co132 O159 2.096 . S
C133 N136 1.301 . S
C133 N137 1.328 . S
C133 H138 0.930 . S
C134 C135 1.333 . S
C134 N136 1.317 . S
C134 H139 0.930 . S
C135 C134 1.333 . S
C135 N137 1.350 . S
C135 H161 0.931 . S
N136 Co132 2.148 . S
N136 C133 1.301 . S
N136 C134 1.317 . S
N137 C133 1.328 . S
N137 C135 1.350 . S
H138 C133 0.930 . S
H139 C134 0.930 . S
C140 O141 1.224 . S
C140 O159 1.247 . S
O141 C140 1.224 . S
N142 Co132 2.128 . S
N142 C143 1.355 . S
N142 C145 1.311 . S
C143 N142 1.355 . S
C143 C144 1.363 . S
C143 H155 0.929 . S
C144 C143 1.363 . S
C144 N146 1.375 . S
C144 H162 0.931 . S
C145 N142 1.311 . S
C145 N146 1.347 . S
C145 H156 0.929 . S
N146 C144 1.375 . S
N146 C145 1.347 . S
C147 C150 1.365 . S
C147 N152 1.328 . S
C147 H153 0.929 . S
C148 C149 1.362 . S
C148 C151 1.378 . S
C148 H163 0.929 . S
C149 C148 1.362 . S
C149 C150 1.366 . S
C150 C147 1.365 . S
C150 C149 1.366 . S
C150 H164 0.930 . S
C151 C148 1.378 . S
C151 N152 1.315 . S
C151 H154 0.930 . S
N152 Co132 2.194 . S
N152 C147 1.328 . S
N152 C151 1.315 . S
H153 C147 0.929 . S
H154 C151 0.930 . S
H155 C143 0.929 . S
H156 C145 0.929 . S
O157 Co132 2.351 . S
O157 C160 1.244 . S
O158 Co132 2.155 . S
O158 C160 1.240 . S
O159 Co132 2.096 . S
O159 C140 1.247 . S
C160 O157 1.244 . S
C160 O158 1.240 . S
H161 C135 0.931 . S
H162 C144 0.931 . S
H163 C148 0.929 . S
H164 C150 0.930 . S
Co165 N169 2.148 . S
Co165 N175 2.128 . S
Co165 N185 2.194 . S
Co165 O190 2.351 . S
Co165 O191 2.155 . S
Co165 O192 2.096 . S
C166 N169 1.301 . S
C166 N170 1.328 . S
C166 H171 0.930 . S
C167 C168 1.333 . S
C167 N169 1.317 . S
C167 H172 0.930 . S
C168 C167 1.333 . S
C168 N170 1.350 . S
C168 H194 0.931 . S
N169 Co165 2.148 . S
N169 C166 1.301 . S
N169 C167 1.317 . S
N170 C166 1.328 . S
N170 C168 1.350 . S
H171 C166 0.930 . S
H172 C167 0.930 . S
C173 O174 1.224 . S
C173 O192 1.247 . S
O174 C173 1.224 . S
N175 Co165 2.128 . S
N175 C176 1.355 . S
N175 C178 1.311 . S
C176 N175 1.355 . S
C176 C177 1.363 . S
C176 H188 0.929 . S
C177 C176 1.363 . S
C177 N179 1.375 . S
C177 H195 0.931 . S
C178 N175 1.311 . S
C178 N179 1.347 . S
C178 H189 0.929 . S
N179 C177 1.375 . S
N179 C178 1.347 . S
C180 C183 1.365 . S
C180 N185 1.328 . S
C180 H186 0.929 . S
C181 C182 1.362 . S
C181 C184 1.378 . S
C181 H196 0.929 . S
C182 C181 1.362 . S
C182 C183 1.366 . S
C183 C180 1.365 . S
C183 C182 1.366 . S
C183 H197 0.930 . S
C184 C181 1.378 . S
C184 N185 1.315 . S
C184 H187 0.930 . S
N185 Co165 2.194 . S
N185 C180 1.328 . S
N185 C184 1.315 . S
H186 C180 0.929 . S
H187 C184 0.930 . S
H188 C176 0.929 . S
H189 C178 0.929 . S
O190 Co165 2.351 . S
O190 C193 1.244 . S
O191 Co165 2.155 . S
O191 C193 1.240 . S
O192 Co165 2.096 . S
O192 C173 1.247 . S
C193 O190 1.244 . S
C193 O191 1.240 . S
H194 C168 0.931 . S
H195 C177 0.931 . S
H196 C181 0.929 . S
H197 C183 0.930 . S
Co198 N202 2.148 . S
Co198 N208 2.128 . S
Co198 N218 2.194 . S
Co198 O223 2.351 . S
Co198 O224 2.155 . S
Co198 O225 2.096 . S
C199 N202 1.301 . S
C199 N203 1.328 . S
C199 H204 0.930 . S
C200 C201 1.333 . S
C200 N202 1.317 . S
C200 H205 0.930 . S
C201 C200 1.333 . S
C201 N203 1.350 . S
C201 H227 0.931 . S
N202 Co198 2.148 . S
N202 C199 1.301 . S
N202 C200 1.317 . S
N203 C199 1.328 . S
N203 C201 1.350 . S
H204 C199 0.930 . S
H205 C200 0.930 . S
C206 O207 1.224 . S
C206 O225 1.247 . S
O207 C206 1.224 . S
N208 Co198 2.128 . S
N208 C209 1.355 . S
N208 C211 1.311 . S
C209 N208 1.355 . S
C209 C210 1.363 . S
C209 H221 0.929 . S
C210 C209 1.363 . S
C210 N212 1.375 . S
C210 H228 0.931 . S
C211 N208 1.311 . S
C211 N212 1.347 . S
C211 H222 0.929 . S
N212 C210 1.375 . S
N212 C211 1.347 . S
C213 C216 1.365 . S
C213 N218 1.328 . S
C213 H219 0.929 . S
C214 C215 1.362 . S
C214 C217 1.378 . S
C214 H229 0.929 . S
C215 C214 1.362 . S
C215 C216 1.366 . S
C216 C213 1.365 . S
C216 C215 1.366 . S
C216 H230 0.930 . S
C217 C214 1.378 . S
C217 N218 1.315 . S
C217 H220 0.930 . S
N218 Co198 2.194 . S
N218 C213 1.328 . S
N218 C217 1.315 . S
H219 C213 0.929 . S
H220 C217 0.930 . S
H221 C209 0.929 . S
H222 C211 0.929 . S
O223 Co198 2.351 . S
O223 C226 1.244 . S
O224 Co198 2.155 . S
O224 C226 1.240 . S
O225 Co198 2.096 . S
O225 C206 1.247 . S
C226 O223 1.244 . S
C226 O224 1.240 . S
H227 C201 0.931 . S
H228 C210 0.931 . S
H229 C214 0.929 . S
H230 C216 0.930 . S
Co231 N235 2.148 . S
Co231 N241 2.128 . S
Co231 N251 2.194 . S
Co231 O256 2.351 . S
Co231 O257 2.155 . S
Co231 O258 2.096 . S
C232 N235 1.301 . S
C232 N236 1.328 . S
C232 H237 0.930 . S
C233 C234 1.333 . S
C233 N235 1.317 . S
C233 H238 0.930 . S
C234 C233 1.333 . S
C234 N236 1.350 . S
C234 H260 0.931 . S
N235 Co231 2.148 . S
N235 C232 1.301 . S
N235 C233 1.317 . S
N236 C232 1.328 . S
N236 C234 1.350 . S
H237 C232 0.930 . S
H238 C233 0.930 . S
C239 O240 1.224 . S
C239 O258 1.247 . S
O240 C239 1.224 . S
N241 Co231 2.128 . S
N241 C242 1.355 . S
N241 C244 1.311 . S
C242 N241 1.355 . S
C242 C243 1.363 . S
C242 H254 0.929 . S
C243 C242 1.363 . S
C243 N245 1.375 . S
C243 H261 0.931 . S
C244 N241 1.311 . S
C244 N245 1.347 . S
C244 H255 0.929 . S
N245 C243 1.375 . S
N245 C244 1.347 . S
C246 C249 1.365 . S
C246 N251 1.328 . S
C246 H252 0.929 . S
C247 C248 1.362 . S
C247 C250 1.378 . S
C247 H262 0.929 . S
C248 C247 1.362 . S
C248 C249 1.366 . S
C249 C246 1.365 . S
C249 C248 1.366 . S
C249 H263 0.930 . S
C250 C247 1.378 . S
C250 N251 1.315 . S
C250 H253 0.930 . S
N251 Co231 2.194 . S
N251 C246 1.328 . S
N251 C250 1.315 . S
H252 C246 0.929 . S
H253 C250 0.930 . S
H254 C242 0.929 . S
H255 C244 0.929 . S
O256 Co231 2.351 . S
O256 C259 1.244 . S
O257 Co231 2.155 . S
O257 C259 1.240 . S
O258 Co231 2.096 . S
O258 C239 1.247 . S
C259 O256 1.244 . S
C259 O257 1.240 . S
H260 C234 0.931 . S
H261 C243 0.931 . S
H262 C247 0.929 . S
H263 C249 0.930 . S
Co264 N268 2.148 . S
Co264 N274 2.128 . S
Co264 N284 2.194 . S
Co264 O289 2.351 . S
Co264 O290 2.155 . S
Co264 O291 2.096 . S
C265 N268 1.301 . S
C265 N269 1.328 . S
C265 H270 0.930 . S
C266 C267 1.333 . S
C266 N268 1.317 . S
C266 H271 0.930 . S
C267 C266 1.333 . S
C267 N269 1.350 . S
C267 H293 0.931 . S
N268 Co264 2.148 . S
N268 C265 1.301 . S
N268 C266 1.317 . S
N269 C265 1.328 . S
N269 C267 1.350 . S
H270 C265 0.930 . S
H271 C266 0.930 . S
C272 O273 1.224 . S
C272 O291 1.247 . S
O273 C272 1.224 . S
N274 Co264 2.128 . S
N274 C275 1.355 . S
N274 C277 1.311 . S
C275 N274 1.355 . S
C275 C276 1.363 . S
C275 H287 0.929 . S
C276 C275 1.363 . S
C276 N278 1.375 . S
C276 H294 0.931 . S
C277 N274 1.311 . S
C277 N278 1.347 . S
C277 H288 0.929 . S
N278 C276 1.375 . S
N278 C277 1.347 . S
C279 C282 1.365 . S
C279 N284 1.328 . S
C279 H285 0.929 . S
C280 C281 1.362 . S
C280 C283 1.378 . S
C280 H295 0.929 . S
C281 C280 1.362 . S
C281 C282 1.366 . S
C282 C279 1.365 . S
C282 C281 1.366 . S
C282 H296 0.930 . S
C283 C280 1.378 . S
C283 N284 1.315 . S
C283 H286 0.930 . S
N284 Co264 2.194 . S
N284 C279 1.328 . S
N284 C283 1.315 . S
H285 C279 0.929 . S
H286 C283 0.930 . S
H287 C275 0.929 . S
H288 C277 0.929 . S
O289 Co264 2.351 . S
O289 C292 1.244 . S
O290 Co264 2.155 . S
O290 C292 1.240 . S
O291 Co264 2.096 . S
O291 C272 1.247 . S
C292 O289 1.244 . S
C292 O290 1.240 . S
H293 C267 0.931 . S
H294 C276 0.931 . S
H295 C280 0.929 . S
H296 C282 0.930 . S
Co297 N301 2.148 . S
Co297 N307 2.128 . S
Co297 N317 2.194 . S
Co297 O322 2.351 . S
Co297 O323 2.155 . S
Co297 O324 2.096 . S
C298 N301 1.301 . S
C298 N302 1.328 . S
C298 H303 0.930 . S
C299 C300 1.333 . S
C299 N301 1.317 . S
C299 H304 0.930 . S
C300 C299 1.333 . S
C300 N302 1.350 . S
C300 H326 0.931 . S
N301 Co297 2.148 . S
N301 C298 1.301 . S
N301 C299 1.317 . S
N302 C298 1.328 . S
N302 C300 1.350 . S
H303 C298 0.930 . S
H304 C299 0.930 . S
C305 O306 1.224 . S
C305 O324 1.247 . S
O306 C305 1.224 . S
N307 Co297 2.128 . S
N307 C308 1.355 . S
N307 C310 1.311 . S
C308 N307 1.355 . S
C308 C309 1.363 . S
C308 H320 0.929 . S
C309 C308 1.363 . S
C309 N311 1.375 . S
C309 H327 0.931 . S
C310 N307 1.311 . S
C310 N311 1.347 . S
C310 H321 0.929 . S
N311 C309 1.375 . S
N311 C310 1.347 . S
C312 C315 1.365 . S
C312 N317 1.328 . S
C312 H318 0.929 . S
C313 C314 1.362 . S
C313 C316 1.378 . S
C313 H328 0.929 . S
C314 C313 1.362 . S
C314 C315 1.366 . S
C315 C312 1.365 . S
C315 C314 1.366 . S
C315 H329 0.930 . S
C316 C313 1.378 . S
C316 N317 1.315 . S
C316 H319 0.930 . S
N317 Co297 2.194 . S
N317 C312 1.328 . S
N317 C316 1.315 . S
H318 C312 0.929 . S
H319 C316 0.930 . S
H320 C308 0.929 . S
H321 C310 0.929 . S
O322 Co297 2.351 . S
O322 C325 1.244 . S
O323 Co297 2.155 . S
O323 C325 1.240 . S
O324 Co297 2.096 . S
O324 C305 1.247 . S
C325 O322 1.244 . S
C325 O323 1.240 . S
H326 C300 0.931 . S
H327 C309 0.931 . S
H328 C313 0.929 . S
H329 C315 0.930 . S
Co330 N334 2.148 . S
Co330 N340 2.128 . S
Co330 N350 2.194 . S
Co330 O355 2.351 . S
Co330 O356 2.155 . S
Co330 O357 2.096 . S
C331 N334 1.301 . S
C331 N335 1.328 . S
C331 H336 0.930 . S
C332 C333 1.333 . S
C332 N334 1.317 . S
C332 H337 0.930 . S
C333 C332 1.333 . S
C333 N335 1.350 . S
C333 H359 0.931 . S
N334 Co330 2.148 . S
N334 C331 1.301 . S
N334 C332 1.317 . S
N335 C331 1.328 . S
N335 C333 1.350 . S
H336 C331 0.930 . S
H337 C332 0.930 . S
C338 O339 1.224 . S
C338 O357 1.247 . S
O339 C338 1.224 . S
N340 Co330 2.128 . S
N340 C341 1.355 . S
N340 C343 1.311 . S
C341 N340 1.355 . S
C341 C342 1.363 . S
C341 H353 0.929 . S
C342 C341 1.363 . S
C342 N344 1.375 . S
C342 H360 0.931 . S
C343 N340 1.311 . S
C343 N344 1.347 . S
C343 H354 0.929 . S
N344 C342 1.375 . S
N344 C343 1.347 . S
C345 C348 1.365 . S
C345 N350 1.328 . S
C345 H351 0.929 . S
C346 C347 1.362 . S
C346 C349 1.378 . S
C346 H361 0.929 . S
C347 C346 1.362 . S
C347 C348 1.366 . S
C348 C345 1.365 . S
C348 C347 1.366 . S
C348 H362 0.930 . S
C349 C346 1.378 . S
C349 N350 1.315 . S
C349 H352 0.930 . S
N350 Co330 2.194 . S
N350 C345 1.328 . S
N350 C349 1.315 . S
H351 C345 0.929 . S
H352 C349 0.930 . S
H353 C341 0.929 . S
H354 C343 0.929 . S
O355 Co330 2.351 . S
O355 C358 1.244 . S
O356 Co330 2.155 . S
O356 C358 1.240 . S
O357 Co330 2.096 . S
O357 C338 1.247 . S
C358 O355 1.244 . S
C358 O356 1.240 . S
H359 C333 0.931 . S
H360 C342 0.931 . S
H361 C346 0.929 . S
H362 C348 0.930 . S
Co363 N367 2.148 . S
Co363 N373 2.128 . S
Co363 N383 2.194 . S
Co363 O388 2.351 . S
Co363 O389 2.155 . S
Co363 O390 2.096 . S
C364 N367 1.301 . S
C364 N368 1.328 . S
C364 H369 0.930 . S
C365 C366 1.333 . S
C365 N367 1.317 . S
C365 H370 0.930 . S
C366 C365 1.333 . S
C366 N368 1.350 . S
C366 H392 0.931 . S
N367 Co363 2.148 . S
N367 C364 1.301 . S
N367 C365 1.317 . S
N368 C364 1.328 . S
N368 C366 1.350 . S
H369 C364 0.930 . S
H370 C365 0.930 . S
C371 O372 1.224 . S
C371 O390 1.247 . S
O372 C371 1.224 . S
N373 Co363 2.128 . S
N373 C374 1.355 . S
N373 C376 1.311 . S
C374 N373 1.355 . S
C374 C375 1.363 . S
C374 H386 0.929 . S
C375 C374 1.363 . S
C375 N377 1.375 . S
C375 H393 0.931 . S
C376 N373 1.311 . S
C376 N377 1.347 . S
C376 H387 0.929 . S
N377 C375 1.375 . S
N377 C376 1.347 . S
C378 C381 1.365 . S
C378 N383 1.328 . S
C378 H384 0.929 . S
C379 C380 1.362 . S
C379 C382 1.378 . S
C379 H394 0.929 . S
C380 C379 1.362 . S
C380 C381 1.366 . S
C381 C378 1.365 . S
C381 C380 1.366 . S
C381 H395 0.930 . S
C382 C379 1.378 . S
C382 N383 1.315 . S
C382 H385 0.930 . S
N383 Co363 2.194 . S
N383 C378 1.328 . S
N383 C382 1.315 . S
H384 C378 0.929 . S
H385 C382 0.930 . S
H386 C374 0.929 . S
H387 C376 0.929 . S
O388 Co363 2.351 . S
O388 C391 1.244 . S
O389 Co363 2.155 . S
O389 C391 1.240 . S
O390 Co363 2.096 . S
O390 C371 1.247 . S
C391 O388 1.244 . S
C391 O389 1.240 . S
H392 C366 0.931 . S
H393 C375 0.931 . S
H394 C379 0.929 . S
H395 C381 0.930 . S
Co396 N400 2.148 . S
Co396 N406 2.128 . S
Co396 N416 2.194 . S
Co396 O421 2.351 . S
Co396 O422 2.155 . S
Co396 O423 2.096 . S
C397 N400 1.301 . S
C397 N401 1.328 . S
C397 H402 0.930 . S
C398 C399 1.333 . S
C398 N400 1.317 . S
C398 H403 0.930 . S
C399 C398 1.333 . S
C399 N401 1.350 . S
C399 H425 0.931 . S
N400 Co396 2.148 . S
N400 C397 1.301 . S
N400 C398 1.317 . S
N401 C397 1.328 . S
N401 C399 1.350 . S
H402 C397 0.930 . S
H403 C398 0.930 . S
C404 O405 1.224 . S
C404 O423 1.247 . S
O405 C404 1.224 . S
N406 Co396 2.128 . S
N406 C407 1.355 . S
N406 C409 1.311 . S
C407 N406 1.355 . S
C407 C408 1.363 . S
C407 H419 0.929 . S
C408 C407 1.363 . S
C408 N410 1.375 . S
C408 H426 0.931 . S
C409 N406 1.311 . S
C409 N410 1.347 . S
C409 H420 0.929 . S
N410 C408 1.375 . S
N410 C409 1.347 . S
C411 C414 1.365 . S
C411 N416 1.328 . S
C411 H417 0.929 . S
C412 C413 1.362 . S
C412 C415 1.378 . S
C412 H427 0.929 . S
C413 C412 1.362 . S
C413 C414 1.366 . S
C414 C411 1.365 . S
C414 C413 1.366 . S
C414 H428 0.930 . S
C415 C412 1.378 . S
C415 N416 1.315 . S
C415 H418 0.930 . S
N416 Co396 2.194 . S
N416 C411 1.328 . S
N416 C415 1.315 . S
H417 C411 0.929 . S
H418 C415 0.930 . S
H419 C407 0.929 . S
H420 C409 0.929 . S
O421 Co396 2.351 . S
O421 C424 1.244 . S
O422 Co396 2.155 . S
O422 C424 1.240 . S
O423 Co396 2.096 . S
O423 C404 1.247 . S
C424 O421 1.244 . S
C424 O422 1.240 . S
H425 C399 0.931 . S
H426 C408 0.931 . S
H427 C412 0.929 . S
H428 C414 0.930 . S
Co429 N433 2.148 . S
Co429 N439 2.128 . S
Co429 N449 2.194 . S
Co429 O454 2.351 . S
Co429 O455 2.155 . S
Co429 O456 2.096 . S
C430 N433 1.301 . S
C430 N434 1.328 . S
C430 H435 0.930 . S
C431 C432 1.333 . S
C431 N433 1.317 . S
C431 H436 0.930 . S
C432 C431 1.333 . S
C432 N434 1.350 . S
C432 H458 0.931 . S
N433 Co429 2.148 . S
N433 C430 1.301 . S
N433 C431 1.317 . S
N434 C430 1.328 . S
N434 C432 1.350 . S
H435 C430 0.930 . S
H436 C431 0.930 . S
C437 O438 1.224 . S
C437 O456 1.247 . S
O438 C437 1.224 . S
N439 Co429 2.128 . S
N439 C440 1.355 . S
N439 C442 1.311 . S
C440 N439 1.355 . S
C440 C441 1.363 . S
C440 H452 0.929 . S
C441 C440 1.363 . S
C441 N443 1.375 . S
C441 H459 0.931 . S
C442 N439 1.311 . S
C442 N443 1.347 . S
C442 H453 0.929 . S
N443 C441 1.375 . S
N443 C442 1.347 . S
C444 C447 1.365 . S
C444 N449 1.328 . S
C444 H450 0.929 . S
C445 C446 1.362 . S
C445 C448 1.378 . S
C445 H460 0.929 . S
C446 C445 1.362 . S
C446 C447 1.366 . S
C447 C444 1.365 . S
C447 C446 1.366 . S
C447 H461 0.930 . S
C448 C445 1.378 . S
C448 N449 1.315 . S
C448 H451 0.930 . S
N449 Co429 2.194 . S
N449 C444 1.328 . S
N449 C448 1.315 . S
H450 C444 0.929 . S
H451 C448 0.930 . S
H452 C440 0.929 . S
H453 C442 0.929 . S
O454 Co429 2.351 . S
O454 C457 1.244 . S
O455 Co429 2.155 . S
O455 C457 1.240 . S
O456 Co429 2.096 . S
O456 C437 1.247 . S
C457 O454 1.244 . S
C457 O455 1.240 . S
H458 C432 0.931 . S
H459 C441 0.931 . S
H460 C445 0.929 . S
H461 C447 0.930 . S
Co462 N466 2.148 . S
Co462 N472 2.128 . S
Co462 N482 2.194 . S
Co462 O487 2.351 . S
Co462 O488 2.155 . S
Co462 O489 2.096 . S
C463 N466 1.301 . S
C463 N467 1.328 . S
C463 H468 0.930 . S
C464 C465 1.333 . S
C464 N466 1.317 . S
C464 H469 0.930 . S
C465 C464 1.333 . S
C465 N467 1.350 . S
C465 H491 0.931 . S
N466 Co462 2.148 . S
N466 C463 1.301 . S
N466 C464 1.317 . S
N467 C463 1.328 . S
N467 C465 1.350 . S
H468 C463 0.930 . S
H469 C464 0.930 . S
C470 O471 1.224 . S
C470 O489 1.247 . S
O471 C470 1.224 . S
N472 Co462 2.128 . S
N472 C473 1.355 . S
N472 C475 1.311 . S
C473 N472 1.355 . S
C473 C474 1.363 . S
C473 H485 0.929 . S
C474 C473 1.363 . S
C474 N476 1.375 . S
C474 H492 0.931 . S
C475 N472 1.311 . S
C475 N476 1.347 . S
C475 H486 0.929 . S
N476 C474 1.375 . S
N476 C475 1.347 . S
C477 C480 1.365 . S
C477 N482 1.328 . S
C477 H483 0.929 . S
C478 C479 1.362 . S
C478 C481 1.378 . S
C478 H493 0.929 . S
C479 C478 1.362 . S
C479 C480 1.366 . S
C480 C477 1.365 . S
C480 C479 1.366 . S
C480 H494 0.930 . S
C481 C478 1.378 . S
C481 N482 1.315 . S
C481 H484 0.930 . S
N482 Co462 2.194 . S
N482 C477 1.328 . S
N482 C481 1.315 . S
H483 C477 0.929 . S
H484 C481 0.930 . S
H485 C473 0.929 . S
H486 C475 0.929 . S
O487 Co462 2.351 . S
O487 C490 1.244 . S
O488 Co462 2.155 . S
O488 C490 1.240 . S
O489 Co462 2.096 . S
O489 C470 1.247 . S
C490 O487 1.244 . S
C490 O488 1.240 . S
H491 C465 0.931 . S
H492 C474 0.931 . S
H493 C478 0.929 . S
H494 C480 0.930 . S
Co495 N499 2.148 . S
Co495 N505 2.128 . S
Co495 N515 2.194 . S
Co495 O520 2.351 . S
Co495 O521 2.155 . S
Co495 O522 2.096 . S
C496 N499 1.301 . S
C496 N500 1.328 . S
C496 H501 0.930 . S
C497 C498 1.333 . S
C497 N499 1.317 . S
C497 H502 0.930 . S
C498 C497 1.333 . S
C498 N500 1.350 . S
C498 H524 0.931 . S
N499 Co495 2.148 . S
N499 C496 1.301 . S
N499 C497 1.317 . S
N500 C496 1.328 . S
N500 C498 1.350 . S
H501 C496 0.930 . S
H502 C497 0.930 . S
C503 O504 1.224 . S
C503 O522 1.247 . S
O504 C503 1.224 . S
N505 Co495 2.128 . S
N505 C506 1.355 . S
N505 C508 1.311 . S
C506 N505 1.355 . S
C506 C507 1.363 . S
C506 H518 0.929 . S
C507 C506 1.363 . S
C507 N509 1.375 . S
C507 H525 0.931 . S
C508 N505 1.311 . S
C508 N509 1.347 . S
C508 H519 0.929 . S
N509 C507 1.375 . S
N509 C508 1.347 . S
C510 C513 1.365 . S
C510 N515 1.328 . S
C510 H516 0.929 . S
C511 C512 1.362 . S
C511 C514 1.378 . S
C511 H526 0.929 . S
C512 C511 1.362 . S
C512 C513 1.366 . S
C513 C510 1.365 . S
C513 C512 1.366 . S
C513 H527 0.930 . S
C514 C511 1.378 . S
C514 N515 1.315 . S
C514 H517 0.930 . S
N515 Co495 2.194 . S
N515 C510 1.328 . S
N515 C514 1.315 . S
H516 C510 0.929 . S
H517 C514 0.930 . S
H518 C506 0.929 . S
H519 C508 0.929 . S
O520 Co495 2.351 . S
O520 C523 1.244 . S
O521 Co495 2.155 . S
O521 C523 1.240 . S
O522 Co495 2.096 . S
O522 C503 1.247 . S
C523 O520 1.244 . S
C523 O521 1.240 . S
H524 C498 0.931 . S
H525 C507 0.931 . S
H526 C511 0.929 . S
H527 C513 0.930 . S
Co528 N532 2.148 . S
Co528 N538 2.128 . S
Co528 N548 2.194 . S
Co528 O553 2.351 . S
Co528 O554 2.155 . S
Co528 O555 2.096 . S
C529 N532 1.301 . S
C529 N533 1.328 . S
C529 H534 0.930 . S
C530 C531 1.333 . S
C530 N532 1.317 . S
C530 H535 0.930 . S
C531 C530 1.333 . S
C531 N533 1.350 . S
C531 H557 0.931 . S
N532 Co528 2.148 . S
N532 C529 1.301 . S
N532 C530 1.317 . S
N533 C529 1.328 . S
N533 C531 1.350 . S
H534 C529 0.930 . S
H535 C530 0.930 . S
C536 O537 1.224 . S
C536 O555 1.247 . S
O537 C536 1.224 . S
N538 Co528 2.128 . S
N538 C539 1.355 . S
N538 C541 1.311 . S
C539 N538 1.355 . S
C539 C540 1.363 . S
C539 H551 0.929 . S
C540 C539 1.363 . S
C540 N542 1.375 . S
C540 H558 0.931 . S
C541 N538 1.311 . S
C541 N542 1.347 . S
C541 H552 0.929 . S
N542 C540 1.375 . S
N542 C541 1.347 . S
C543 C546 1.365 . S
C543 N548 1.328 . S
C543 H549 0.929 . S
C544 C545 1.362 . S
C544 C547 1.378 . S
C544 H559 0.929 . S
C545 C544 1.362 . S
C545 C546 1.366 . S
C546 C543 1.365 . S
C546 C545 1.366 . S
C546 H560 0.930 . S
C547 C544 1.378 . S
C547 N548 1.315 . S
C547 H550 0.930 . S
N548 Co528 2.194 . S
N548 C543 1.328 . S
N548 C547 1.315 . S
H549 C543 0.929 . S
H550 C547 0.930 . S
H551 C539 0.929 . S
H552 C541 0.929 . S
O553 Co528 2.351 . S
O553 C556 1.244 . S
O554 Co528 2.155 . S
O554 C556 1.240 . S
O555 Co528 2.096 . S
O555 C536 1.247 . S
C556 O553 1.244 . S
C556 O554 1.240 . S
H557 C531 0.931 . S
H558 C540 0.931 . S
H559 C544 0.929 . S
H560 C546 0.930 . S
Co561 N565 2.148 . S
Co561 N571 2.128 . S
Co561 N581 2.194 . S
Co561 O586 2.351 . S
Co561 O587 2.155 . S
Co561 O588 2.096 . S
C562 N565 1.301 . S
C562 N566 1.328 . S
C562 H567 0.930 . S
C563 C564 1.333 . S
C563 N565 1.317 . S
C563 H568 0.930 . S
C564 C563 1.333 . S
C564 N566 1.350 . S
C564 H590 0.931 . S
N565 Co561 2.148 . S
N565 C562 1.301 . S
N565 C563 1.317 . S
N566 C562 1.328 . S
N566 C564 1.350 . S
H567 C562 0.930 . S
H568 C563 0.930 . S
C569 O570 1.224 . S
C569 O588 1.247 . S
O570 C569 1.224 . S
N571 Co561 2.128 . S
N571 C572 1.355 . S
N571 C574 1.311 . S
C572 N571 1.355 . S
C572 C573 1.363 . S
C572 H584 0.929 . S
C573 C572 1.363 . S
C573 N575 1.375 . S
C573 H591 0.931 . S
C574 N571 1.311 . S
C574 N575 1.347 . S
C574 H585 0.929 . S
N575 C573 1.375 . S
N575 C574 1.347 . S
C576 C579 1.365 . S
C576 N581 1.328 . S
C576 H582 0.929 . S
C577 C578 1.362 . S
C577 C580 1.378 . S
C577 H592 0.929 . S
C578 C577 1.362 . S
C578 C579 1.366 . S
C579 C576 1.365 . S
C579 C578 1.366 . S
C579 H593 0.930 . S
C580 C577 1.378 . S
C580 N581 1.315 . S
C580 H583 0.930 . S
N581 Co561 2.194 . S
N581 C576 1.328 . S
N581 C580 1.315 . S
H582 C576 0.929 . S
H583 C580 0.930 . S
H584 C572 0.929 . S
H585 C574 0.929 . S
O586 Co561 2.351 . S
O586 C589 1.244 . S
O587 Co561 2.155 . S
O587 C589 1.240 . S
O588 Co561 2.096 . S
O588 C569 1.247 . S
C589 O586 1.244 . S
C589 O587 1.240 . S
H590 C564 0.931 . S
H591 C573 0.931 . S
H592 C577 0.929 . S
H593 C579 0.930 . S
Co594 N598 2.148 . S
Co594 N604 2.128 . S
Co594 N614 2.194 . S
Co594 O619 2.351 . S
Co594 O620 2.155 . S
Co594 O621 2.096 . S
C595 N598 1.301 . S
C595 N599 1.328 . S
C595 H600 0.930 . S
C596 C597 1.333 . S
C596 N598 1.317 . S
C596 H601 0.930 . S
C597 C596 1.333 . S
C597 N599 1.350 . S
C597 H623 0.931 . S
N598 Co594 2.148 . S
N598 C595 1.301 . S
N598 C596 1.317 . S
N599 C595 1.328 . S
N599 C597 1.350 . S
H600 C595 0.930 . S
H601 C596 0.930 . S
C602 O603 1.224 . S
C602 O621 1.247 . S
O603 C602 1.224 . S
N604 Co594 2.128 . S
N604 C605 1.355 . S
N604 C607 1.311 . S
C605 N604 1.355 . S
C605 C606 1.363 . S
C605 H617 0.929 . S
C606 C605 1.363 . S
C606 N608 1.375 . S
C606 H624 0.931 . S
C607 N604 1.311 . S
C607 N608 1.347 . S
C607 H618 0.929 . S
N608 C606 1.375 . S
N608 C607 1.347 . S
C609 C612 1.365 . S
C609 N614 1.328 . S
C609 H615 0.929 . S
C610 C611 1.362 . S
C610 C613 1.378 . S
C610 H625 0.929 . S
C611 C610 1.362 . S
C611 C612 1.366 . S
C612 C609 1.365 . S
C612 C611 1.366 . S
C612 H626 0.930 . S
C613 C610 1.378 . S
C613 N614 1.315 . S
C613 H616 0.930 . S
N614 Co594 2.194 . S
N614 C609 1.328 . S
N614 C613 1.315 . S
H615 C609 0.929 . S
H616 C613 0.930 . S
H617 C605 0.929 . S
H618 C607 0.929 . S
O619 Co594 2.351 . S
O619 C622 1.244 . S
O620 Co594 2.155 . S
O620 C622 1.240 . S
O621 Co594 2.096 . S
O621 C602 1.247 . S
C622 O619 1.244 . S
C622 O620 1.240 . S
H623 C597 0.931 . S
H624 C606 0.931 . S
H625 C610 0.929 . S
H626 C612 0.930 . S
Co627 N631 2.148 . S
Co627 N637 2.128 . S
Co627 N647 2.194 . S
Co627 O652 2.351 . S
Co627 O653 2.155 . S
Co627 O654 2.096 . S
C628 N631 1.301 . S
C628 N632 1.328 . S
C628 H633 0.930 . S
C629 C630 1.333 . S
C629 N631 1.317 . S
C629 H634 0.930 . S
C630 C629 1.333 . S
C630 N632 1.350 . S
C630 H656 0.931 . S
N631 Co627 2.148 . S
N631 C628 1.301 . S
N631 C629 1.317 . S
N632 C628 1.328 . S
N632 C630 1.350 . S
H633 C628 0.930 . S
H634 C629 0.930 . S
C635 O636 1.224 . S
C635 O654 1.247 . S
O636 C635 1.224 . S
N637 Co627 2.128 . S
N637 C638 1.355 . S
N637 C640 1.311 . S
C638 N637 1.355 . S
C638 C639 1.363 . S
C638 H650 0.929 . S
C639 C638 1.363 . S
C639 N641 1.375 . S
C639 H657 0.931 . S
C640 N637 1.311 . S
C640 N641 1.347 . S
C640 H651 0.929 . S
N641 C639 1.375 . S
N641 C640 1.347 . S
C642 C645 1.365 . S
C642 N647 1.328 . S
C642 H648 0.929 . S
C643 C644 1.362 . S
C643 C646 1.378 . S
C643 H658 0.929 . S
C644 C643 1.362 . S
C644 C645 1.366 . S
C645 C642 1.365 . S
C645 C644 1.366 . S
C645 H659 0.930 . S
C646 C643 1.378 . S
C646 N647 1.315 . S
C646 H649 0.930 . S
N647 Co627 2.194 . S
N647 C642 1.328 . S
N647 C646 1.315 . S
H648 C642 0.929 . S
H649 C646 0.930 . S
H650 C638 0.929 . S
H651 C640 0.929 . S
O652 Co627 2.351 . S
O652 C655 1.244 . S
O653 Co627 2.155 . S
O653 C655 1.240 . S
O654 Co627 2.096 . S
O654 C635 1.247 . S
C655 O652 1.244 . S
C655 O653 1.240 . S
H656 C630 0.931 . S
H657 C639 0.931 . S
H658 C643 0.929 . S
H659 C645 0.930 . S
Co660 N664 2.148 . S
Co660 N670 2.128 . S
Co660 N680 2.194 . S
Co660 O685 2.351 . S
Co660 O686 2.155 . S
Co660 O687 2.096 . S
C661 N664 1.301 . S
C661 N665 1.328 . S
C661 H666 0.930 . S
C662 C663 1.333 . S
C662 N664 1.317 . S
C662 H667 0.930 . S
C663 C662 1.333 . S
C663 N665 1.350 . S
C663 H689 0.931 . S
N664 Co660 2.148 . S
N664 C661 1.301 . S
N664 C662 1.317 . S
N665 C661 1.328 . S
N665 C663 1.350 . S
H666 C661 0.930 . S
H667 C662 0.930 . S
C668 O669 1.224 . S
C668 O687 1.247 . S
O669 C668 1.224 . S
N670 Co660 2.128 . S
N670 C671 1.355 . S
N670 C673 1.311 . S
C671 N670 1.355 . S
C671 C672 1.363 . S
C671 H683 0.929 . S
C672 C671 1.363 . S
C672 N674 1.375 . S
C672 H690 0.931 . S
C673 N670 1.311 . S
C673 N674 1.347 . S
C673 H684 0.929 . S
N674 C672 1.375 . S
N674 C673 1.347 . S
C675 C678 1.365 . S
C675 N680 1.328 . S
C675 H681 0.929 . S
C676 C677 1.362 . S
C676 C679 1.378 . S
C676 H691 0.929 . S
C677 C676 1.362 . S
C677 C678 1.366 . S
C678 C675 1.365 . S
C678 C677 1.366 . S
C678 H692 0.930 . S
C679 C676 1.378 . S
C679 N680 1.315 . S
C679 H682 0.930 . S
N680 Co660 2.194 . S
N680 C675 1.328 . S
N680 C679 1.315 . S
H681 C675 0.929 . S
H682 C679 0.930 . S
H683 C671 0.929 . S
H684 C673 0.929 . S
O685 Co660 2.351 . S
O685 C688 1.244 . S
O686 Co660 2.155 . S
O686 C688 1.240 . S
O687 Co660 2.096 . S
O687 C668 1.247 . S
C688 O685 1.244 . S
C688 O686 1.240 . S
H689 C663 0.931 . S
H690 C672 0.931 . S
H691 C676 0.929 . S
H692 C678 0.930 . S
Co693 N697 2.148 . S
Co693 N703 2.128 . S
Co693 N713 2.194 . S
Co693 O718 2.351 . S
Co693 O719 2.155 . S
Co693 O720 2.096 . S
C694 N697 1.301 . S
C694 N698 1.328 . S
C694 H699 0.930 . S
C695 C696 1.333 . S
C695 N697 1.317 . S
C695 H700 0.930 . S
C696 C695 1.333 . S
C696 N698 1.350 . S
C696 H722 0.931 . S
N697 Co693 2.148 . S
N697 C694 1.301 . S
N697 C695 1.317 . S
N698 C694 1.328 . S
N698 C696 1.350 . S
H699 C694 0.930 . S
H700 C695 0.930 . S
C701 O702 1.224 . S
C701 O720 1.247 . S
O702 C701 1.224 . S
N703 Co693 2.128 . S
N703 C704 1.355 . S
N703 C706 1.311 . S
C704 N703 1.355 . S
C704 C705 1.363 . S
C704 H716 0.929 . S
C705 C704 1.363 . S
C705 N707 1.375 . S
C705 H723 0.931 . S
C706 N703 1.311 . S
C706 N707 1.347 . S
C706 H717 0.929 . S
N707 C705 1.375 . S
N707 C706 1.347 . S
C708 C711 1.365 . S
C708 N713 1.328 . S
C708 H714 0.929 . S
C709 C710 1.362 . S
C709 C712 1.378 . S
C709 H724 0.929 . S
C710 C709 1.362 . S
C710 C711 1.366 . S
C711 C708 1.365 . S
C711 C710 1.366 . S
C711 H725 0.930 . S
C712 C709 1.378 . S
C712 N713 1.315 . S
C712 H715 0.930 . S
N713 Co693 2.194 . S
N713 C708 1.328 . S
N713 C712 1.315 . S
H714 C708 0.929 . S
H715 C712 0.930 . S
H716 C704 0.929 . S
H717 C706 0.929 . S
O718 Co693 2.351 . S
O718 C721 1.244 . S
O719 Co693 2.155 . S
O719 C721 1.240 . S
O720 Co693 2.096 . S
O720 C701 1.247 . S
C721 O718 1.244 . S
C721 O719 1.240 . S
H722 C696 0.931 . S
H723 C705 0.931 . S
H724 C709 0.929 . S
H725 C711 0.930 . S
Co726 N730 2.148 . S
Co726 N736 2.128 . S
Co726 N746 2.194 . S
Co726 O751 2.351 . S
Co726 O752 2.155 . S
Co726 O753 2.096 . S
C727 N730 1.301 . S
C727 N731 1.328 . S
C727 H732 0.930 . S
C728 C729 1.333 . S
C728 N730 1.317 . S
C728 H733 0.930 . S
C729 C728 1.333 . S
C729 N731 1.350 . S
C729 H755 0.931 . S
N730 Co726 2.148 . S
N730 C727 1.301 . S
N730 C728 1.317 . S
N731 C727 1.328 . S
N731 C729 1.350 . S
H732 C727 0.930 . S
H733 C728 0.930 . S
C734 O735 1.224 . S
C734 O753 1.247 . S
O735 C734 1.224 . S
N736 Co726 2.128 . S
N736 C737 1.355 . S
N736 C739 1.311 . S
C737 N736 1.355 . S
C737 C738 1.363 . S
C737 H749 0.929 . S
C738 C737 1.363 . S
C738 N740 1.375 . S
C738 H756 0.931 . S
C739 N736 1.311 . S
C739 N740 1.347 . S
C739 H750 0.929 . S
N740 C738 1.375 . S
N740 C739 1.347 . S
C741 C744 1.365 . S
C741 N746 1.328 . S
C741 H747 0.929 . S
C742 C743 1.362 . S
C742 C745 1.378 . S
C742 H757 0.929 . S
C743 C742 1.362 . S
C743 C744 1.366 . S
C744 C741 1.365 . S
C744 C743 1.366 . S
C744 H758 0.930 . S
C745 C742 1.378 . S
C745 N746 1.315 . S
C745 H748 0.930 . S
N746 Co726 2.194 . S
N746 C741 1.328 . S
N746 C745 1.315 . S
H747 C741 0.929 . S
H748 C745 0.930 . S
H749 C737 0.929 . S
H750 C739 0.929 . S
O751 Co726 2.351 . S
O751 C754 1.244 . S
O752 Co726 2.155 . S
O752 C754 1.240 . S
O753 Co726 2.096 . S
O753 C734 1.247 . S
C754 O751 1.244 . S
C754 O752 1.240 . S
H755 C729 0.931 . S
H756 C738 0.931 . S
H757 C742 0.929 . S
H758 C744 0.930 . S
Co759 N763 2.148 . S
Co759 N769 2.128 . S
Co759 N779 2.194 . S
Co759 O784 2.351 . S
Co759 O785 2.155 . S
Co759 O786 2.096 . S
C760 N763 1.301 . S
C760 N764 1.328 . S
C760 H765 0.930 . S
C761 C762 1.333 . S
C761 N763 1.317 . S
C761 H766 0.930 . S
C762 C761 1.333 . S
C762 N764 1.350 . S
C762 H788 0.931 . S
N763 Co759 2.148 . S
N763 C760 1.301 . S
N763 C761 1.317 . S
N764 C760 1.328 . S
N764 C762 1.350 . S
H765 C760 0.930 . S
H766 C761 0.930 . S
C767 O768 1.224 . S
C767 O786 1.247 . S
O768 C767 1.224 . S
N769 Co759 2.128 . S
N769 C770 1.355 . S
N769 C772 1.311 . S
C770 N769 1.355 . S
C770 C771 1.363 . S
C770 H782 0.929 . S
C771 C770 1.363 . S
C771 N773 1.375 . S
C771 H789 0.931 . S
C772 N769 1.311 . S
C772 N773 1.347 . S
C772 H783 0.929 . S
N773 C771 1.375 . S
N773 C772 1.347 . S
C774 C777 1.365 . S
C774 N779 1.328 . S
C774 H780 0.929 . S
C775 C776 1.362 . S
C775 C778 1.378 . S
C775 H790 0.929 . S
C776 C775 1.362 . S
C776 C777 1.366 . S
C777 C774 1.365 . S
C777 C776 1.366 . S
C777 H791 0.930 . S
C778 C775 1.378 . S
C778 N779 1.315 . S
C778 H781 0.930 . S
N779 Co759 2.194 . S
N779 C774 1.328 . S
N779 C778 1.315 . S
H780 C774 0.929 . S
H781 C778 0.930 . S
H782 C770 0.929 . S
H783 C772 0.929 . S
O784 Co759 2.351 . S
O784 C787 1.244 . S
O785 Co759 2.155 . S
O785 C787 1.240 . S
O786 Co759 2.096 . S
O786 C767 1.247 . S
C787 O784 1.244 . S
C787 O785 1.240 . S
H788 C762 0.931 . S
H789 C771 0.931 . S
H790 C775 0.929 . S
H791 C777 0.930 . S
Co792 N796 2.148 . S
Co792 N802 2.128 . S
Co792 N812 2.194 . S
Co792 O817 2.351 . S
Co792 O818 2.155 . S
Co792 O819 2.096 . S
C793 N796 1.301 . S
C793 N797 1.328 . S
C793 H798 0.930 . S
C794 C795 1.333 . S
C794 N796 1.317 . S
C794 H799 0.930 . S
C795 C794 1.333 . S
C795 N797 1.350 . S
C795 H821 0.931 . S
N796 Co792 2.148 . S
N796 C793 1.301 . S
N796 C794 1.317 . S
N797 C793 1.328 . S
N797 C795 1.350 . S
H798 C793 0.930 . S
H799 C794 0.930 . S
C800 O801 1.224 . S
C800 O819 1.247 . S
O801 C800 1.224 . S
N802 Co792 2.128 . S
N802 C803 1.355 . S
N802 C805 1.311 . S
C803 N802 1.355 . S
C803 C804 1.363 . S
C803 H815 0.929 . S
C804 C803 1.363 . S
C804 N806 1.375 . S
C804 H822 0.931 . S
C805 N802 1.311 . S
C805 N806 1.347 . S
C805 H816 0.929 . S
N806 C804 1.375 . S
N806 C805 1.347 . S
C807 C810 1.365 . S
C807 N812 1.328 . S
C807 H813 0.929 . S
C808 C809 1.362 . S
C808 C811 1.378 . S
C808 H823 0.929 . S
C809 C808 1.362 . S
C809 C810 1.366 . S
C810 C807 1.365 . S
C810 C809 1.366 . S
C810 H824 0.930 . S
C811 C808 1.378 . S
C811 N812 1.315 . S
C811 H814 0.930 . S
N812 Co792 2.194 . S
N812 C807 1.328 . S
N812 C811 1.315 . S
H813 C807 0.929 . S
H814 C811 0.930 . S
H815 C803 0.929 . S
H816 C805 0.929 . S
O817 Co792 2.351 . S
O817 C820 1.244 . S
O818 Co792 2.155 . S
O818 C820 1.240 . S
O819 Co792 2.096 . S
O819 C800 1.247 . S
C820 O817 1.244 . S
C820 O818 1.240 . S
H821 C795 0.931 . S
H822 C804 0.931 . S
H823 C808 0.929 . S
H824 C810 0.930 . S
Co825 N829 2.148 . S
Co825 N835 2.128 . S
Co825 N845 2.194 . S
Co825 O850 2.351 . S
Co825 O851 2.155 . S
Co825 O852 2.096 . S
C826 N829 1.301 . S
C826 N830 1.328 . S
C826 H831 0.930 . S
C827 C828 1.333 . S
C827 N829 1.317 . S
C827 H832 0.930 . S
C828 C827 1.333 . S
C828 N830 1.350 . S
C828 H854 0.931 . S
N829 Co825 2.148 . S
N829 C826 1.301 . S
N829 C827 1.317 . S
N830 C826 1.328 . S
N830 C828 1.350 . S
H831 C826 0.930 . S
H832 C827 0.930 . S
C833 O834 1.224 . S
C833 O852 1.247 . S
O834 C833 1.224 . S
N835 Co825 2.128 . S
N835 C836 1.355 . S
N835 C838 1.311 . S
C836 N835 1.355 . S
C836 C837 1.363 . S
C836 H848 0.929 . S
C837 C836 1.363 . S
C837 N839 1.375 . S
C837 H855 0.931 . S
C838 N835 1.311 . S
C838 N839 1.347 . S
C838 H849 0.929 . S
N839 C837 1.375 . S
N839 C838 1.347 . S
C840 C843 1.365 . S
C840 N845 1.328 . S
C840 H846 0.929 . S
C841 C842 1.362 . S
C841 C844 1.378 . S
C841 H856 0.929 . S
C842 C841 1.362 . S
C842 C843 1.366 . S
C843 C840 1.365 . S
C843 C842 1.366 . S
C843 H857 0.930 . S
C844 C841 1.378 . S
C844 N845 1.315 . S
C844 H847 0.930 . S
N845 Co825 2.194 . S
N845 C840 1.328 . S
N845 C844 1.315 . S
H846 C840 0.929 . S
H847 C844 0.930 . S
H848 C836 0.929 . S
H849 C838 0.929 . S
O850 Co825 2.351 . S
O850 C853 1.244 . S
O851 Co825 2.155 . S
O851 C853 1.240 . S
O852 Co825 2.096 . S
O852 C833 1.247 . S
C853 O850 1.244 . S
C853 O851 1.240 . S
H854 C828 0.931 . S
H855 C837 0.931 . S
H856 C841 0.929 . S
H857 C843 0.930 . S
Co858 N862 2.148 . S
Co858 N868 2.128 . S
Co858 N878 2.194 . S
Co858 O883 2.351 . S
Co858 O884 2.155 . S
Co858 O885 2.096 . S
C859 N862 1.301 . S
C859 N863 1.328 . S
C859 H864 0.930 . S
C860 C861 1.333 . S
C860 N862 1.317 . S
C860 H865 0.930 . S
C861 C860 1.333 . S
C861 N863 1.350 . S
C861 H887 0.931 . S
N862 Co858 2.148 . S
N862 C859 1.301 . S
N862 C860 1.317 . S
N863 C859 1.328 . S
N863 C861 1.350 . S
H864 C859 0.930 . S
H865 C860 0.930 . S
C866 O867 1.224 . S
C866 O885 1.247 . S
O867 C866 1.224 . S
N868 Co858 2.128 . S
N868 C869 1.355 . S
N868 C871 1.311 . S
C869 N868 1.355 . S
C869 C870 1.363 . S
C869 H881 0.929 . S
C870 C869 1.363 . S
C870 N872 1.375 . S
C870 H888 0.931 . S
C871 N868 1.311 . S
C871 N872 1.347 . S
C871 H882 0.929 . S
N872 C870 1.375 . S
N872 C871 1.347 . S
C873 C876 1.365 . S
C873 N878 1.328 . S
C873 H879 0.929 . S
C874 C875 1.362 . S
C874 C877 1.378 . S
C874 H889 0.929 . S
C875 C874 1.362 . S
C875 C876 1.366 . S
C876 C873 1.365 . S
C876 C875 1.366 . S
C876 H890 0.930 . S
C877 C874 1.378 . S
C877 N878 1.315 . S
C877 H880 0.930 . S
N878 Co858 2.194 . S
N878 C873 1.328 . S
N878 C877 1.315 . S
H879 C873 0.929 . S
H880 C877 0.930 . S
H881 C869 0.929 . S
H882 C871 0.929 . S
O883 Co858 2.351 . S
O883 C886 1.244 . S
O884 Co858 2.155 . S
O884 C886 1.240 . S
O885 Co858 2.096 . S
O885 C866 1.247 . S
C886 O883 1.244 . S
C886 O884 1.240 . S
H887 C861 0.931 . S
H888 C870 0.931 . S
H889 C874 0.929 . S
H890 C876 0.930 . S
Co891 N895 2.148 . S
Co891 N901 2.128 . S
Co891 N911 2.194 . S
Co891 O916 2.351 . S
Co891 O917 2.155 . S
Co891 O918 2.096 . S
C892 N895 1.301 . S
C892 N896 1.328 . S
C892 H897 0.930 . S
C893 C894 1.333 . S
C893 N895 1.317 . S
C893 H898 0.930 . S
C894 C893 1.333 . S
C894 N896 1.350 . S
C894 H920 0.931 . S
N895 Co891 2.148 . S
N895 C892 1.301 . S
N895 C893 1.317 . S
N896 C892 1.328 . S
N896 C894 1.350 . S
H897 C892 0.930 . S
H898 C893 0.930 . S
C899 O900 1.224 . S
C899 O918 1.247 . S
O900 C899 1.224 . S
N901 Co891 2.128 . S
N901 C902 1.355 . S
N901 C904 1.311 . S
C902 N901 1.355 . S
C902 C903 1.363 . S
C902 H914 0.929 . S
C903 C902 1.363 . S
C903 N905 1.375 . S
C903 H921 0.931 . S
C904 N901 1.311 . S
C904 N905 1.347 . S
C904 H915 0.929 . S
N905 C903 1.375 . S
N905 C904 1.347 . S
C906 C909 1.365 . S
C906 N911 1.328 . S
C906 H912 0.929 . S
C907 C908 1.362 . S
C907 C910 1.378 . S
C907 H922 0.929 . S
C908 C907 1.362 . S
C908 C909 1.366 . S
C909 C906 1.365 . S
C909 C908 1.366 . S
C909 H923 0.930 . S
C910 C907 1.378 . S
C910 N911 1.315 . S
C910 H913 0.930 . S
N911 Co891 2.194 . S
N911 C906 1.328 . S
N911 C910 1.315 . S
H912 C906 0.929 . S
H913 C910 0.930 . S
H914 C902 0.929 . S
H915 C904 0.929 . S
O916 Co891 2.351 . S
O916 C919 1.244 . S
O917 Co891 2.155 . S
O917 C919 1.240 . S
O918 Co891 2.096 . S
O918 C899 1.247 . S
C919 O916 1.244 . S
C919 O917 1.240 . S
H920 C894 0.931 . S
H921 C903 0.931 . S
H922 C907 0.929 . S
H923 C909 0.930 . S
Co924 N928 2.148 . S
Co924 N934 2.128 . S
Co924 N944 2.194 . S
Co924 O949 2.351 . S
Co924 O950 2.155 . S
Co924 O951 2.096 . S
C925 N928 1.301 . S
C925 N929 1.328 . S
C925 H930 0.930 . S
C926 C927 1.333 . S
C926 N928 1.317 . S
C926 H931 0.930 . S
C927 C926 1.333 . S
C927 N929 1.350 . S
C927 H953 0.931 . S
N928 Co924 2.148 . S
N928 C925 1.301 . S
N928 C926 1.317 . S
N929 C925 1.328 . S
N929 C927 1.350 . S
H930 C925 0.930 . S
H931 C926 0.930 . S
C932 O933 1.224 . S
C932 O951 1.247 . S
O933 C932 1.224 . S
N934 Co924 2.128 . S
N934 C935 1.355 . S
N934 C937 1.311 . S
C935 N934 1.355 . S
C935 C936 1.363 . S
C935 H947 0.929 . S
C936 C935 1.363 . S
C936 N938 1.375 . S
C936 H954 0.931 . S
C937 N934 1.311 . S
C937 N938 1.347 . S
C937 H948 0.929 . S
N938 C936 1.375 . S
N938 C937 1.347 . S
C939 C942 1.365 . S
C939 N944 1.328 . S
C939 H945 0.929 . S
C940 C941 1.362 . S
C940 C943 1.378 . S
C940 H955 0.929 . S
C941 C940 1.362 . S
C941 C942 1.366 . S
C942 C939 1.365 . S
C942 C941 1.366 . S
C942 H956 0.930 . S
C943 C940 1.378 . S
C943 N944 1.315 . S
C943 H946 0.930 . S
N944 Co924 2.194 . S
N944 C939 1.328 . S
N944 C943 1.315 . S
H945 C939 0.929 . S
H946 C943 0.930 . S
H947 C935 0.929 . S
H948 C937 0.929 . S
O949 Co924 2.351 . S
O949 C952 1.244 . S
O950 Co924 2.155 . S
O950 C952 1.240 . S
O951 Co924 2.096 . S
O951 C932 1.247 . S
C952 O949 1.244 . S
C952 O950 1.240 . S
H953 C927 0.931 . S
H954 C936 0.931 . S
H955 C940 0.929 . S
H956 C942 0.930 . S
Co957 N961 2.148 . S
Co957 N967 2.128 . S
Co957 N977 2.194 . S
Co957 O982 2.351 . S
Co957 O983 2.155 . S
Co957 O984 2.096 . S
C958 N961 1.301 . S
C958 N962 1.328 . S
C958 H963 0.930 . S
C959 C960 1.333 . S
C959 N961 1.317 . S
C959 H964 0.930 . S
C960 C959 1.333 . S
C960 N962 1.350 . S
C960 H986 0.931 . S
N961 Co957 2.148 . S
N961 C958 1.301 . S
N961 C959 1.317 . S
N962 C958 1.328 . S
N962 C960 1.350 . S
H963 C958 0.930 . S
H964 C959 0.930 . S
C965 O966 1.224 . S
C965 O984 1.247 . S
O966 C965 1.224 . S
N967 Co957 2.128 . S
N967 C968 1.355 . S
N967 C970 1.311 . S
C968 N967 1.355 . S
C968 C969 1.363 . S
C968 H980 0.929 . S
C969 C968 1.363 . S
C969 N971 1.375 . S
C969 H987 0.931 . S
C970 N967 1.311 . S
C970 N971 1.347 . S
C970 H981 0.929 . S
N971 C969 1.375 . S
N971 C970 1.347 . S
C972 C975 1.365 . S
C972 N977 1.328 . S
C972 H978 0.929 . S
C973 C974 1.362 . S
C973 C976 1.378 . S
C973 H988 0.929 . S
C974 C973 1.362 . S
C974 C975 1.366 . S
C975 C972 1.365 . S
C975 C974 1.366 . S
C975 H989 0.930 . S
C976 C973 1.378 . S
C976 N977 1.315 . S
C976 H979 0.930 . S
N977 Co957 2.194 . S
N977 C972 1.328 . S
N977 C976 1.315 . S
H978 C972 0.929 . S
H979 C976 0.930 . S
H980 C968 0.929 . S
H981 C970 0.929 . S
O982 Co957 2.351 . S
O982 C985 1.244 . S
O983 Co957 2.155 . S
O983 C985 1.240 . S
O984 Co957 2.096 . S
O984 C965 1.247 . S
C985 O982 1.244 . S
C985 O983 1.240 . S
H986 C960 0.931 . S
H987 C969 0.931 . S
H988 C973 0.929 . S
H989 C975 0.930 . S
Co990 N994 2.148 . S
Co990 N1000 2.128 . S
Co990 N1010 2.194 . S
Co990 O1015 2.351 . S
Co990 O1016 2.155 . S
Co990 O1017 2.096 . S
C991 N994 1.301 . S
C991 N995 1.328 . S
C991 H996 0.930 . S
C992 C993 1.333 . S
C992 N994 1.317 . S
C992 H997 0.930 . S
C993 C992 1.333 . S
C993 N995 1.350 . S
C993 H1019 0.931 . S
N994 Co990 2.148 . S
N994 C991 1.301 . S
N994 C992 1.317 . S
N995 C991 1.328 . S
N995 C993 1.350 . S
H996 C991 0.930 . S
H997 C992 0.930 . S
C998 O999 1.224 . S
C998 O1017 1.247 . S
O999 C998 1.224 . S
N1000 Co990 2.128 . S
N1000 C1001 1.355 . S
N1000 C1003 1.311 . S
C1001 N1000 1.355 . S
C1001 C1002 1.363 . S
C1001 H1013 0.929 . S
C1002 C1001 1.363 . S
C1002 N1004 1.375 . S
C1002 H1020 0.931 . S
C1003 N1000 1.311 . S
C1003 N1004 1.347 . S
C1003 H1014 0.929 . S
N1004 C1002 1.375 . S
N1004 C1003 1.347 . S
C1005 C1008 1.365 . S
C1005 N1010 1.328 . S
C1005 H1011 0.929 . S
C1006 C1007 1.362 . S
C1006 C1009 1.378 . S
C1006 H1021 0.929 . S
C1007 C1006 1.362 . S
C1007 C1008 1.366 . S
C1008 C1005 1.365 . S
C1008 C1007 1.366 . S
C1008 H1022 0.930 . S
C1009 C1006 1.378 . S
C1009 N1010 1.315 . S
C1009 H1012 0.930 . S
N1010 Co990 2.194 . S
N1010 C1005 1.328 . S
N1010 C1009 1.315 . S
H1011 C1005 0.929 . S
H1012 C1009 0.930 . S
H1013 C1001 0.929 . S
H1014 C1003 0.929 . S
O1015 Co990 2.351 . S
O1015 C1018 1.244 . S
O1016 Co990 2.155 . S
O1016 C1018 1.240 . S
O1017 Co990 2.096 . S
O1017 C998 1.247 . S
C1018 O1015 1.244 . S
C1018 O1016 1.240 . S
H1019 C993 0.931 . S
H1020 C1002 0.931 . S
H1021 C1006 0.929 . S
H1022 C1008 0.930 . S
Co1023 N1027 2.148 . S
Co1023 N1033 2.128 . S
Co1023 N1043 2.194 . S
Co1023 O1048 2.351 . S
Co1023 O1049 2.155 . S
Co1023 O1050 2.096 . S
C1024 N1027 1.301 . S
C1024 N1028 1.328 . S
C1024 H1029 0.930 . S
C1025 C1026 1.333 . S
C1025 N1027 1.317 . S
C1025 H1030 0.930 . S
C1026 C1025 1.333 . S
C1026 N1028 1.350 . S
C1026 H1052 0.931 . S
N1027 Co1023 2.148 . S
N1027 C1024 1.301 . S
N1027 C1025 1.317 . S
N1028 C1024 1.328 . S
N1028 C1026 1.350 . S
H1029 C1024 0.930 . S
H1030 C1025 0.930 . S
C1031 O1032 1.224 . S
C1031 O1050 1.247 . S
O1032 C1031 1.224 . S
N1033 Co1023 2.128 . S
N1033 C1034 1.355 . S
N1033 C1036 1.311 . S
C1034 N1033 1.355 . S
C1034 C1035 1.363 . S
C1034 H1046 0.929 . S
C1035 C1034 1.363 . S
C1035 N1037 1.375 . S
C1035 H1053 0.931 . S
C1036 N1033 1.311 . S
C1036 N1037 1.347 . S
C1036 H1047 0.929 . S
N1037 C1035 1.375 . S
N1037 C1036 1.347 . S
C1038 C1041 1.365 . S
C1038 N1043 1.328 . S
C1038 H1044 0.929 . S
C1039 C1040 1.362 . S
C1039 C1042 1.378 . S
C1039 H1054 0.929 . S
C1040 C1039 1.362 . S
C1040 C1041 1.366 . S
C1041 C1038 1.365 . S
C1041 C1040 1.366 . S
C1041 H1055 0.930 . S
C1042 C1039 1.378 . S
C1042 N1043 1.315 . S
C1042 H1045 0.930 . S
N1043 Co1023 2.194 . S
N1043 C1038 1.328 . S
N1043 C1042 1.315 . S
H1044 C1038 0.929 . S
H1045 C1042 0.930 . S
H1046 C1034 0.929 . S
H1047 C1036 0.929 . S
O1048 Co1023 2.351 . S
O1048 C1051 1.244 . S
O1049 Co1023 2.155 . S
O1049 C1051 1.240 . S
O1050 Co1023 2.096 . S
O1050 C1031 1.247 . S
C1051 O1048 1.244 . S
C1051 O1049 1.240 . S
H1052 C1026 0.931 . S
H1053 C1035 0.931 . S
H1054 C1039 0.929 . S
H1055 C1041 0.930 . S
Co1056 N1060 2.148 . S
Co1056 N1066 2.128 . S
Co1056 N1076 2.194 . S
Co1056 O1081 2.351 . S
Co1056 O1082 2.155 . S
Co1056 O1083 2.096 . S
C1057 N1060 1.301 . S
C1057 N1061 1.328 . S
C1057 H1062 0.930 . S
C1058 C1059 1.333 . S
C1058 N1060 1.317 . S
C1058 H1063 0.930 . S
C1059 C1058 1.333 . S
C1059 N1061 1.350 . S
C1059 H1085 0.931 . S
N1060 Co1056 2.148 . S
N1060 C1057 1.301 . S
N1060 C1058 1.317 . S
N1061 C1057 1.328 . S
N1061 C1059 1.350 . S
H1062 C1057 0.930 . S
H1063 C1058 0.930 . S
C1064 O1065 1.224 . S
C1064 O1083 1.247 . S
O1065 C1064 1.224 . S
N1066 Co1056 2.128 . S
N1066 C1067 1.355 . S
N1066 C1069 1.311 . S
C1067 N1066 1.355 . S
C1067 C1068 1.363 . S
C1067 H1079 0.929 . S
C1068 C1067 1.363 . S
C1068 N1070 1.375 . S
C1068 H1086 0.931 . S
C1069 N1066 1.311 . S
C1069 N1070 1.347 . S
C1069 H1080 0.929 . S
N1070 C1068 1.375 . S
N1070 C1069 1.347 . S
C1071 C1074 1.365 . S
C1071 N1076 1.328 . S
C1071 H1077 0.929 . S
C1072 C1073 1.362 . S
C1072 C1075 1.378 . S
C1072 H1087 0.929 . S
C1073 C1072 1.362 . S
C1073 C1074 1.366 . S
C1074 C1071 1.365 . S
C1074 C1073 1.366 . S
C1074 H1088 0.930 . S
C1075 C1072 1.378 . S
C1075 N1076 1.315 . S
C1075 H1078 0.930 . S
N1076 Co1056 2.194 . S
N1076 C1071 1.328 . S
N1076 C1075 1.315 . S
H1077 C1071 0.929 . S
H1078 C1075 0.930 . S
H1079 C1067 0.929 . S
H1080 C1069 0.929 . S
O1081 Co1056 2.351 . S
O1081 C1084 1.244 . S
O1082 Co1056 2.155 . S
O1082 C1084 1.240 . S
O1083 Co1056 2.096 . S
O1083 C1064 1.247 . S
C1084 O1081 1.244 . S
C1084 O1082 1.240 . S
H1085 C1059 0.931 . S
H1086 C1068 0.931 . S
H1087 C1072 0.929 . S
H1088 C1074 0.930 . S
Co1089 N1093 2.148 . S
Co1089 N1099 2.128 . S
Co1089 N1109 2.194 . S
Co1089 O1114 2.351 . S
Co1089 O1115 2.155 . S
Co1089 O1116 2.096 . S
C1090 N1093 1.301 . S
C1090 N1094 1.328 . S
C1090 H1095 0.930 . S
C1091 C1092 1.333 . S
C1091 N1093 1.317 . S
C1091 H1096 0.930 . S
C1092 C1091 1.333 . S
C1092 N1094 1.350 . S
C1092 H1118 0.931 . S
N1093 Co1089 2.148 . S
N1093 C1090 1.301 . S
N1093 C1091 1.317 . S
N1094 C1090 1.328 . S
N1094 C1092 1.350 . S
H1095 C1090 0.930 . S
H1096 C1091 0.930 . S
C1097 O1098 1.224 . S
C1097 O1116 1.247 . S
O1098 C1097 1.224 . S
N1099 Co1089 2.128 . S
N1099 C1100 1.355 . S
N1099 C1102 1.311 . S
C1100 N1099 1.355 . S
C1100 C1101 1.363 . S
C1100 H1112 0.929 . S
C1101 C1100 1.363 . S
C1101 N1103 1.375 . S
C1101 H1119 0.931 . S
C1102 N1099 1.311 . S
C1102 N1103 1.347 . S
C1102 H1113 0.929 . S
N1103 C1101 1.375 . S
N1103 C1102 1.347 . S
C1104 C1107 1.365 . S
C1104 N1109 1.328 . S
C1104 H1110 0.929 . S
C1105 C1106 1.362 . S
C1105 C1108 1.378 . S
C1105 H1120 0.929 . S
C1106 C1105 1.362 . S
C1106 C1107 1.366 . S
C1107 C1104 1.365 . S
C1107 C1106 1.366 . S
C1107 H1121 0.930 . S
C1108 C1105 1.378 . S
C1108 N1109 1.315 . S
C1108 H1111 0.930 . S
N1109 Co1089 2.194 . S
N1109 C1104 1.328 . S
N1109 C1108 1.315 . S
H1110 C1104 0.929 . S
H1111 C1108 0.930 . S
H1112 C1100 0.929 . S
H1113 C1102 0.929 . S
O1114 Co1089 2.351 . S
O1114 C1117 1.244 . S
O1115 Co1089 2.155 . S
O1115 C1117 1.240 . S
O1116 Co1089 2.096 . S
O1116 C1097 1.247 . S
C1117 O1114 1.244 . S
C1117 O1115 1.240 . S
H1118 C1092 0.931 . S
H1119 C1101 0.931 . S
H1120 C1105 0.929 . S
H1121 C1107 0.930 . S
Co1122 N1126 2.148 . S
Co1122 N1132 2.128 . S
Co1122 N1142 2.194 . S
Co1122 O1147 2.351 . S
Co1122 O1148 2.155 . S
Co1122 O1149 2.096 . S
C1123 N1126 1.301 . S
C1123 N1127 1.328 . S
C1123 H1128 0.930 . S
C1124 C1125 1.333 . S
C1124 N1126 1.317 . S
C1124 H1129 0.930 . S
C1125 C1124 1.333 . S
C1125 N1127 1.350 . S
C1125 H1151 0.931 . S
N1126 Co1122 2.148 . S
N1126 C1123 1.301 . S
N1126 C1124 1.317 . S
N1127 C1123 1.328 . S
N1127 C1125 1.350 . S
H1128 C1123 0.930 . S
H1129 C1124 0.930 . S
C1130 O1131 1.224 . S
C1130 O1149 1.247 . S
O1131 C1130 1.224 . S
N1132 Co1122 2.128 . S
N1132 C1133 1.355 . S
N1132 C1135 1.311 . S
C1133 N1132 1.355 . S
C1133 C1134 1.363 . S
C1133 H1145 0.929 . S
C1134 C1133 1.363 . S
C1134 N1136 1.375 . S
C1134 H1152 0.931 . S
C1135 N1132 1.311 . S
C1135 N1136 1.347 . S
C1135 H1146 0.929 . S
N1136 C1134 1.375 . S
N1136 C1135 1.347 . S
C1137 C1140 1.365 . S
C1137 N1142 1.328 . S
C1137 H1143 0.929 . S
C1138 C1139 1.362 . S
C1138 C1141 1.378 . S
C1138 H1153 0.929 . S
C1139 C1138 1.362 . S
C1139 C1140 1.366 . S
C1140 C1137 1.365 . S
C1140 C1139 1.366 . S
C1140 H1154 0.930 . S
C1141 C1138 1.378 . S
C1141 N1142 1.315 . S
C1141 H1144 0.930 . S
N1142 Co1122 2.194 . S
N1142 C1137 1.328 . S
N1142 C1141 1.315 . S
H1143 C1137 0.929 . S
H1144 C1141 0.930 . S
H1145 C1133 0.929 . S
H1146 C1135 0.929 . S
O1147 Co1122 2.351 . S
O1147 C1150 1.244 . S
O1148 Co1122 2.155 . S
O1148 C1150 1.240 . S
O1149 Co1122 2.096 . S
O1149 C1130 1.247 . S
C1150 O1147 1.244 . S
C1150 O1148 1.240 . S
H1151 C1125 0.931 . S
H1152 C1134 0.931 . S
H1153 C1138 0.929 . S
H1154 C1140 0.930 . S
Co1155 N1159 2.148 . S
Co1155 N1165 2.128 . S
Co1155 N1175 2.194 . S
Co1155 O1180 2.351 . S
Co1155 O1181 2.155 . S
Co1155 O1182 2.096 . S
C1156 N1159 1.301 . S
C1156 N1160 1.328 . S
C1156 H1161 0.930 . S
C1157 C1158 1.333 . S
C1157 N1159 1.317 . S
C1157 H1162 0.930 . S
C1158 C1157 1.333 . S
C1158 N1160 1.350 . S
C1158 H1184 0.931 . S
N1159 Co1155 2.148 . S
N1159 C1156 1.301 . S
N1159 C1157 1.317 . S
N1160 C1156 1.328 . S
N1160 C1158 1.350 . S
H1161 C1156 0.930 . S
H1162 C1157 0.930 . S
C1163 O1164 1.224 . S
C1163 O1182 1.247 . S
O1164 C1163 1.224 . S
N1165 Co1155 2.128 . S
N1165 C1166 1.355 . S
N1165 C1168 1.311 . S
C1166 N1165 1.355 . S
C1166 C1167 1.363 . S
C1166 H1178 0.929 . S
C1167 C1166 1.363 . S
C1167 N1169 1.375 . S
C1167 H1185 0.931 . S
C1168 N1165 1.311 . S
C1168 N1169 1.347 . S
C1168 H1179 0.929 . S
N1169 C1167 1.375 . S
N1169 C1168 1.347 . S
C1170 C1173 1.365 . S
C1170 N1175 1.328 . S
C1170 H1176 0.929 . S
C1171 C1172 1.362 . S
C1171 C1174 1.378 . S
C1171 H1186 0.929 . S
C1172 C1171 1.362 . S
C1172 C1173 1.366 . S
C1173 C1170 1.365 . S
C1173 C1172 1.366 . S
C1173 H1187 0.930 . S
C1174 C1171 1.378 . S
C1174 N1175 1.315 . S
C1174 H1177 0.930 . S
N1175 Co1155 2.194 . S
N1175 C1170 1.328 . S
N1175 C1174 1.315 . S
H1176 C1170 0.929 . S
H1177 C1174 0.930 . S
H1178 C1166 0.929 . S
H1179 C1168 0.929 . S
O1180 Co1155 2.351 . S
O1180 C1183 1.244 . S
O1181 Co1155 2.155 . S
O1181 C1183 1.240 . S
O1182 Co1155 2.096 . S
O1182 C1163 1.247 . S
C1183 O1180 1.244 . S
C1183 O1181 1.240 . S
H1184 C1158 0.931 . S
H1185 C1167 0.931 . S
H1186 C1171 0.929 . S
H1187 C1173 0.930 . S
C1188 C1189 1.349 . S
C1188 C1190 1.327 . S
C1188 H1213 0.950 . S
C1189 C1188 1.349 . S
C1189 C1205 1.349 . S
C1190 C1188 1.327 . S
C1190 C1209 1.429 . S
C1190 H1214 0.950 . S
C1191 C1208 1.574 . S
C1191 C1210 1.368 . S
C1191 H1215 0.949 . S
H1192 C1196 0.949 . S
C1193 C1194 1.349 . S
C1193 C1195 1.327 1_565 S
C1193 H1216 0.950 . S
C1194 C1193 1.349 . S
C1194 C1206 1.349 1_565 S
C1195 C1193 1.327 1_545 S
C1195 C1211 1.429 . S
C1195 H1217 0.950 . S
C1196 H1192 0.949 . S
C1196 C1204 1.574 . S
C1196 C1212 1.368 . S
H1197 C1205 0.950 . S
H1198 C1203 0.950 . S
H1199 C1204 0.949 . S
H1200 C1206 0.950 . S
H1201 C1207 0.950 . S
H1202 C1208 0.949 . S
C1203 H1198 0.950 . S
C1203 C1205 1.327 . S
C1203 C1209 1.429 . S
C1204 C1196 1.574 . S
C1204 H1199 0.949 . S
C1204 C1210 1.368 . S
C1205 C1189 1.349 . S
C1205 H1197 0.950 . S
C1205 C1203 1.327 . S
C1206 C1194 1.349 1_545 S
C1206 H1200 0.950 . S
C1206 C1207 1.327 . S
C1207 H1201 0.950 . S
C1207 C1206 1.327 . S
C1207 C1211 1.429 . S
C1208 C1191 1.574 . S
C1208 H1202 0.949 . S
C1208 C1212 1.368 . S
C1209 C1190 1.429 . S
C1209 C1203 1.429 . S
C1209 C1210 1.523 . S
C1210 C1191 1.368 . S
C1210 C1204 1.368 . S
C1210 C1209 1.523 . S
C1211 C1195 1.429 . S
C1211 C1207 1.429 . S
C1211 C1212 1.523 . S
C1212 C1196 1.368 . S
C1212 C1208 1.368 . S
C1212 C1211 1.523 . S
H1213 C1188 0.950 . S
H1214 C1190 0.950 . S
H1215 C1191 0.949 . S
H1216 C1193 0.950 . S
H1217 C1195 0.950 . S
C1218 C1219 1.349 1_655 S
C1218 C1220 1.327 . S
C1218 H1243 0.950 . S
C1219 C1218 1.349 1_455 S
C1219 C1235 1.349 . S
C1220 C1218 1.327 . S
C1220 C1239 1.429 . S
C1220 H1244 0.950 . S
C1221 C1238 1.574 . S
C1221 C1240 1.368 . S
C1221 H1245 0.949 . S
H1222 C1226 0.949 . S
C1223 C1224 1.349 . S
C1223 C1225 1.327 . S
C1223 H1246 0.950 . S
C1224 C1223 1.349 . S
C1224 C1236 1.349 . S
C1225 C1223 1.327 . S
C1225 C1241 1.429 . S
C1225 H1247 0.950 . S
C1226 H1222 0.949 . S
C1226 C1234 1.574 . S
C1226 C1242 1.368 . S
H1227 C1235 0.950 . S
H1228 C1233 0.950 . S
H1229 C1234 0.949 . S
H1230 C1236 0.950 . S
H1231 C1237 0.973 . S
H1232 C1238 0.949 . S
C1233 H1228 0.950 . S
C1233 C1235 1.327 1_655 S
C1233 C1239 1.429 . S
C1234 C1226 1.574 . S
C1234 H1229 0.949 . S
C1234 C1240 1.368 . S
C1235 C1219 1.349 . S
C1235 H1227 0.950 . S
C1235 C1233 1.327 1_455 S
C1236 C1224 1.349 . S
C1236 H1230 0.950 . S
C1236 C1237 1.327 . S
C1237 H1231 0.973 . S
C1237 C1236 1.327 . S
C1237 C1241 1.429 . S
C1238 C1221 1.574 . S
C1238 H1232 0.949 . S
C1238 C1242 1.368 . S
C1239 C1220 1.429 . S
C1239 C1233 1.429 . S
C1239 C1240 1.523 . S
C1240 C1221 1.368 . S
C1240 C1234 1.368 . S
C1240 C1239 1.523 . S
C1241 C1225 1.429 . S
C1241 C1237 1.429 . S
C1241 C1242 1.523 1_565 S
C1242 C1226 1.368 . S
C1242 C1238 1.368 . S
C1242 C1241 1.523 1_545 S
H1243 C1218 0.950 . S
H1244 C1220 0.950 . S
H1245 C1221 0.949 . S
H1246 C1223 0.950 . S
H1247 C1225 0.950 . S
C1248 C1249 1.349 . S
C1248 C1250 1.327 . S
C1248 H1273 0.950 . S
C1249 C1248 1.349 . S
C1249 C1265 1.349 . S
C1250 C1248 1.327 . S
C1250 C1269 1.429 . S
C1250 H1274 0.950 . S
C1251 C1268 1.574 . S
C1251 C1270 1.368 . S
C1251 H1275 0.949 . S
H1252 C1256 0.949 . S
C1253 C1254 1.349 . S
C1253 C1255 1.327 . S
C1253 H1276 0.950 . S
C1254 C1253 1.349 . S
C1254 C1266 1.349 . S
C1255 C1253 1.327 . S
C1255 C1271 1.429 . S
C1255 H1277 0.950 . S
C1256 H1252 0.949 . S
C1256 C1264 1.574 . S
C1256 C1272 1.368 . S
H1257 C1265 0.950 . S
H1258 C1263 0.950 . S
H1259 C1264 0.949 . S
H1260 C1266 0.950 . S
H1261 C1267 0.949 1_655 S
H1262 C1268 0.949 . S
C1263 H1258 0.950 . S
C1263 C1265 1.327 . S
C1263 C1269 1.429 . S
C1264 C1256 1.574 . S
C1264 H1259 0.949 . S
C1264 C1270 1.368 . S
C1265 C1249 1.349 . S
C1265 H1257 0.950 . S
C1265 C1263 1.327 . S
C1266 C1254 1.349 . S
C1266 H1260 0.950 . S
C1266 C1267 1.327 . S
C1267 H1261 0.949 1_455 S
C1267 C1266 1.327 . S
C1267 C1271 1.429 . S
C1268 C1251 1.574 . S
C1268 H1262 0.949 . S
C1268 C1272 1.368 . S
C1269 C1250 1.429 . S
C1269 C1263 1.429 . S
C1269 C1270 1.523 . S
C1270 C1251 1.368 . S
C1270 C1264 1.368 . S
C1270 C1269 1.523 . S
C1271 C1255 1.429 . S
C1271 C1267 1.429 . S
C1271 C1272 1.523 1_455 S
C1272 C1256 1.368 . S
C1272 C1268 1.368 . S
C1272 C1271 1.523 1_655 S
H1273 C1248 0.950 . S
H1274 C1250 0.950 . S
H1275 C1251 0.949 . S
H1276 C1253 0.950 . S
H1277 C1255 0.950 . S
C1278 C1279 1.349 1_455 S
C1278 C1280 1.327 . S
C1278 H1303 0.950 . S
C1279 C1278 1.349 1_655 S
C1279 C1295 1.349 . S
C1280 C1278 1.327 . S
C1280 C1299 1.429 . S
C1280 H1304 0.950 . S
C1281 C1298 1.574 . S
C1281 C1300 1.368 . S
C1281 H1305 0.949 . S
H1282 C1286 0.949 . S
C1283 C1284 1.349 . S
C1283 C1285 1.327 . S
C1283 H1306 0.950 . S
C1284 C1283 1.349 . S
C1284 C1296 1.349 . S
C1285 C1283 1.327 . S
C1285 C1301 1.429 . S
C1285 H1307 0.950 . S
C1286 H1282 0.949 . S
C1286 C1294 1.574 . S
C1286 C1302 1.368 . S
H1287 C1295 0.950 . S
H1288 C1293 0.950 . S
H1289 C1294 0.949 . S
H1290 C1296 0.950 . S
H1291 C1297 0.950 . S
H1292 C1298 0.949 . S
C1293 H1288 0.950 . S
C1293 C1295 1.327 1_455 S
C1293 C1299 1.429 . S
C1294 C1286 1.574 . S
C1294 H1289 0.949 . S
C1294 C1300 1.368 . S
C1295 C1279 1.349 . S
C1295 H1287 0.950 . S
C1295 C1293 1.327 1_655 S
C1296 C1284 1.349 . S
C1296 H1290 0.950 . S
C1296 C1297 1.327 . S
C1297 H1291 0.950 . S
C1297 C1296 1.327 . S
C1297 C1301 1.429 . S
C1298 C1281 1.574 . S
C1298 H1292 0.949 . S
C1298 C1302 1.368 . S
C1299 C1280 1.429 . S
C1299 C1293 1.429 . S
C1299 C1300 1.523 . S
C1300 C1281 1.368 . S
C1300 C1294 1.368 . S
C1300 C1299 1.523 . S
C1301 C1285 1.429 . S
C1301 C1297 1.429 . S
C1301 C1302 1.523 . S
C1302 C1286 1.368 . S
C1302 C1298 1.368 . S
C1302 C1301 1.523 . S
H1303 C1278 0.950 . S
H1304 C1280 0.950 . S
H1305 C1281 0.949 . S
H1306 C1283 0.950 . S
H1307 C1285 0.950 . S
C1308 C1309 1.349 . S
C1308 C1310 1.327 . S
C1308 H1333 0.950 . S
C1309 C1308 1.349 . S
C1309 C1325 1.349 . S
C1310 C1308 1.327 . S
C1310 C1329 1.429 . S
C1310 H1334 0.950 . S
C1311 C1328 1.574 . S
C1311 C1330 1.368 . S
C1311 H1335 0.949 . S
H1312 C1316 0.949 . S
C1313 C1314 1.349 . S
C1313 C1315 1.327 . S
C1313 H1336 0.950 . S
C1314 C1313 1.349 . S
C1314 C1326 1.349 . S
C1315 C1313 1.327 . S
C1315 C1331 1.429 . S
C1315 H1337 0.950 . S
C1316 H1312 0.949 . S
C1316 C1324 1.574 . S
C1316 C1332 1.368 . S
H1317 C1325 0.950 . S
H1318 C1323 0.950 . S
H1319 C1324 0.949 . S
H1320 C1326 0.950 . S
H1321 C1327 0.963 . S
H1322 C1328 0.949 . S
C1323 H1318 0.950 . S
C1323 C1325 1.327 . S
C1323 C1329 1.429 . S
C1324 C1316 1.574 . S
C1324 H1319 0.949 . S
C1324 C1330 1.368 . S
C1325 C1309 1.349 . S
C1325 H1317 0.950 . S
C1325 C1323 1.327 . S
C1326 C1314 1.349 . S
C1326 H1320 0.950 . S
C1326 C1327 1.327 . S
C1327 H1321 0.963 . S
C1327 C1326 1.327 . S
C1327 C1331 1.429 . S
C1328 C1311 1.574 . S
C1328 H1322 0.949 . S
C1328 C1332 1.368 . S
C1329 C1310 1.429 . S
C1329 C1323 1.429 . S
C1329 C1330 1.523 . S
C1330 C1311 1.368 . S
C1330 C1324 1.368 . S
C1330 C1329 1.523 . S
C1331 C1315 1.429 . S
C1331 C1327 1.429 . S
C1331 C1332 1.523 1_545 S
C1332 C1316 1.368 . S
C1332 C1328 1.368 . S
C1332 C1331 1.523 1_565 S
H1333 C1308 0.950 . S
H1334 C1310 0.950 . S
H1335 C1311 0.949 . S
H1336 C1313 0.950 . S
H1337 C1315 0.950 . S
C1338 C1339 1.350 1_565 S
C1338 C1340 1.328 . S
C1338 H1363 0.948 1_565 S
C1339 C1338 1.350 1_545 S
C1339 C1355 1.349 1_545 S
C1340 C1338 1.328 . S
C1340 C1359 1.429 . S
C1340 H1364 0.950 . S
C1341 C1358 1.574 . S
C1341 C1360 1.368 . S
C1341 H1365 0.949 . S
H1342 C1346 0.949 . S
C1343 C1344 1.349 . S
C1343 C1345 1.327 . S
C1343 H1366 0.950 . S
C1344 C1343 1.349 . S
C1344 C1356 1.349 . S
C1345 C1343 1.327 . S
C1345 C1361 1.429 . S
C1345 H1367 0.950 . S
C1346 H1342 0.949 . S
C1346 C1354 1.574 . S
C1346 C1362 1.368 . S
H1347 C1355 0.950 . S
H1348 C1353 0.950 . S
H1349 C1354 0.949 . S
H1350 C1356 0.950 . S
H1351 C1357 0.950 . S
H1352 C1358 0.949 . S
C1353 H1348 0.950 . S
C1353 C1355 1.327 . S
C1353 C1359 1.429 . S
C1354 C1346 1.574 . S
C1354 H1349 0.949 . S
C1354 C1360 1.368 . S
C1355 C1339 1.349 1_565 S
C1355 H1347 0.950 . S
C1355 C1353 1.327 . S
C1356 C1344 1.349 . S
C1356 H1350 0.950 . S
C1356 C1357 1.327 . S
C1357 H1351 0.950 . S
C1357 C1356 1.327 . S
C1357 C1361 1.429 . S
C1358 C1341 1.574 . S
C1358 H1352 0.949 . S
C1358 C1362 1.368 . S
C1359 C1340 1.429 . S
C1359 C1353 1.429 . S
C1359 C1360 1.523 . S
C1360 C1341 1.368 . S
C1360 C1354 1.368 . S
C1360 C1359 1.523 . S
C1361 C1345 1.429 . S
C1361 C1357 1.429 . S
C1361 C1362 1.523 1_655 S
C1362 C1346 1.368 . S
C1362 C1358 1.368 . S
C1362 C1361 1.523 1_455 S
H1363 C1338 0.948 1_545 S
H1364 C1340 0.950 . S
H1365 C1341 0.949 . S
H1366 C1343 0.950 . S
H1367 C1345 0.950 . S
C1368 C1369 1.349 . S
C1368 C1370 1.327 1_545 S
C1368 H1393 0.950 . S
C1369 C1368 1.349 . S
C1369 C1385 1.349 1_545 S
C1370 C1368 1.327 1_565 S
C1370 C1389 1.429 . S
C1370 H1394 0.959 1_565 S
C1371 C1388 1.574 . S
C1371 C1390 1.368 . S
C1371 H1395 0.949 . S
H1372 C1376 0.949 . S
C1373 C1374 1.349 . S
C1373 C1375 1.327 . S
C1373 H1396 0.950 . S
C1374 C1373 1.349 . S
C1374 C1386 1.349 . S
C1375 C1373 1.327 . S
C1375 C1391 1.429 . S
C1375 H1397 0.950 . S
C1376 H1372 0.949 . S
C1376 C1384 1.574 . S
C1376 C1392 1.368 . S
H1377 C1385 0.950 . S
H1378 C1383 0.950 . S
H1379 C1384 0.949 . S
H1380 C1386 0.950 . S
H1381 C1387 0.950 . S
H1382 C1388 0.949 . S
C1383 H1378 0.950 . S
C1383 C1385 1.327 . S
C1383 C1389 1.429 . S
C1384 C1376 1.574 . S
C1384 H1379 0.949 . S
C1384 C1390 1.368 . S
C1385 C1369 1.349 1_565 S
C1385 H1377 0.950 . S
C1385 C1383 1.327 . S
C1386 C1374 1.349 . S
C1386 H1380 0.950 . S
C1386 C1387 1.327 . S
C1387 H1381 0.950 . S
C1387 C1386 1.327 . S
C1387 C1391 1.429 . S
C1388 C1371 1.574 . S
C1388 H1382 0.949 . S
C1388 C1392 1.368 . S
C1389 C1370 1.429 . S
C1389 C1383 1.429 . S
C1389 C1390 1.523 . S
C1390 C1371 1.368 . S
C1390 C1384 1.368 . S
C1390 C1389 1.523 . S
C1391 C1375 1.429 . S
C1391 C1387 1.429 . S
C1391 C1392 1.523 . S
C1392 C1376 1.368 . S
C1392 C1388 1.368 . S
C1392 C1391 1.523 . S
H1393 C1368 0.950 . S
H1394 C1370 0.959 1_545 S
H1395 C1371 0.949 . S
H1396 C1373 0.950 . S
H1397 C1375 0.950 . S
C1398 C1399 1.349 . S
C1398 C1400 1.327 . S
C1398 H1423 0.950 . S
C1399 C1398 1.349 . S
C1399 C1415 1.349 . S
C1400 C1398 1.327 . S
C1400 C1419 1.429 . S
C1400 H1424 0.958 . S
C1401 C1418 1.574 . S
C1401 C1420 1.368 . S
C1401 H1425 0.949 . S
H1402 C1406 0.949 . S
C1403 C1404 1.349 . S
C1403 C1405 1.327 1_655 S
C1403 H1426 0.950 . S
C1404 C1403 1.349 . S
C1404 C1416 1.349 1_655 S
C1405 C1403 1.327 1_455 S
C1405 C1421 1.429 . S
C1405 H1427 0.950 . S
C1406 H1402 0.949 . S
C1406 C1414 1.574 . S
C1406 C1422 1.368 . S
H1407 C1415 0.950 . S
H1408 C1413 0.950 . S
H1409 C1414 0.949 . S
H1410 C1416 0.950 . S
H1411 C1417 0.950 . S
H1412 C1418 0.949 . S
C1413 H1408 0.950 . S
C1413 C1415 1.327 . S
C1413 C1419 1.429 . S
C1414 C1406 1.574 . S
C1414 H1409 0.949 . S
C1414 C1420 1.368 . S
C1415 C1399 1.349 . S
C1415 H1407 0.950 . S
C1415 C1413 1.327 . S
C1416 C1404 1.349 1_455 S
C1416 H1410 0.950 . S
C1416 C1417 1.327 . S
C1417 H1411 0.950 . S
C1417 C1416 1.327 . S
C1417 C1421 1.429 . S
C1418 C1401 1.574 . S
C1418 H1412 0.949 . S
C1418 C1422 1.368 . S
C1419 C1400 1.429 . S
C1419 C1413 1.429 . S
C1419 C1420 1.523 1_545 S
C1420 C1401 1.368 . S
C1420 C1414 1.368 . S
C1420 C1419 1.523 1_565 S
C1421 C1405 1.429 . S
C1421 C1417 1.429 . S
C1421 C1422 1.523 . S
C1422 C1406 1.368 . S
C1422 C1418 1.368 . S
C1422 C1421 1.523 . S
H1423 C1398 0.950 . S
H1424 C1400 0.958 . S
H1425 C1401 0.949 . S
H1426 C1403 0.950 . S
H1427 C1405 0.950 . S
C1428 C1429 1.349 . S
C1428 C1430 1.327 . S
C1428 H1453 0.950 . S
C1429 C1428 1.349 . S
C1429 C1445 1.349 . S
C1430 C1428 1.327 . S
C1430 C1449 1.429 . S
C1430 H1454 0.950 . S
C1431 C1448 1.574 . S
C1431 C1450 1.368 . S
C1431 H1455 0.949 . S
H1432 C1436 0.949 . S
C1433 C1434 1.349 . S
C1433 C1435 1.327 . S
C1433 H1456 0.950 . S
C1434 C1433 1.349 . S
C1434 C1446 1.349 . S
C1435 C1433 1.327 . S
C1435 C1451 1.429 . S
C1435 H1457 0.950 . S
C1436 H1432 0.949 . S
C1436 C1444 1.574 . S
C1436 C1452 1.368 . S
H1437 C1445 0.950 . S
H1438 C1443 0.950 . S
H1439 C1444 0.949 . S
H1440 C1446 0.950 . S
H1441 C1447 0.950 . S
H1442 C1448 0.949 . S
C1443 H1438 0.950 . S
C1443 C1445 1.327 . S
C1443 C1449 1.429 . S
C1444 C1436 1.574 . S
C1444 H1439 0.949 . S
C1444 C1450 1.368 . S
C1445 C1429 1.349 . S
C1445 H1437 0.950 . S
C1445 C1443 1.327 . S
C1446 C1434 1.349 . S
C1446 H1440 0.950 . S
C1446 C1447 1.327 . S
C1447 H1441 0.950 . S
C1447 C1446 1.327 . S
C1447 C1451 1.429 . S
C1448 C1431 1.574 . S
C1448 H1442 0.949 . S
C1448 C1452 1.368 . S
C1449 C1430 1.429 . S
C1449 C1443 1.429 . S
C1449 C1450 1.523 . S
C1450 C1431 1.368 . S
C1450 C1444 1.368 . S
C1450 C1449 1.523 . S
C1451 C1435 1.429 . S
C1451 C1447 1.429 . S
C1451 C1452 1.523 1_655 S
C1452 C1436 1.368 . S
C1452 C1448 1.368 . S
C1452 C1451 1.523 1_455 S
H1453 C1428 0.950 . S
H1454 C1430 0.950 . S
H1455 C1431 0.949 . S
H1456 C1433 0.950 . S
H1457 C1435 0.950 . S
C1458 C1459 1.349 . S
C1458 C1460 1.327 1_455 S
C1458 H1483 0.950 . S
C1459 C1458 1.349 . S
C1459 C1475 1.349 1_455 S
C1460 C1458 1.327 1_655 S
C1460 C1479 1.429 . S
C1460 H1484 0.950 . S
C1461 C1478 1.574 . S
C1461 C1480 1.368 . S
C1461 H1485 0.949 . S
H1462 C1466 0.949 . S
C1463 C1464 1.349 . S
C1463 C1465 1.327 . S
C1463 H1486 0.950 . S
C1464 C1463 1.349 . S
C1464 C1476 1.349 . S
C1465 C1463 1.327 . S
C1465 C1481 1.429 . S
C1465 H1487 0.950 . S
C1466 H1462 0.949 . S
C1466 C1474 1.574 . S
C1466 C1482 1.368 . S
H1467 C1475 0.950 . S
H1468 C1473 0.950 . S
H1469 C1474 0.949 . S
H1470 C1476 0.950 . S
H1471 C1477 0.950 . S
H1472 C1478 0.949 . S
C1473 H1468 0.950 . S
C1473 C1475 1.327 . S
C1473 C1479 1.429 . S
C1474 C1466 1.574 . S
C1474 H1469 0.949 . S
C1474 C1480 1.368 . S
C1475 C1459 1.349 1_655 S
C1475 H1467 0.950 . S
C1475 C1473 1.327 . S
C1476 C1464 1.349 . S
C1476 H1470 0.950 . S
C1476 C1477 1.327 . S
C1477 H1471 0.950 . S
C1477 C1476 1.327 . S
C1477 C1481 1.429 . S
C1478 C1461 1.574 . S
C1478 H1472 0.949 . S
C1478 C1482 1.368 . S
C1479 C1460 1.429 . S
C1479 C1473 1.429 . S
C1479 C1480 1.523 . S
C1480 C1461 1.368 . S
C1480 C1474 1.368 . S
C1480 C1479 1.523 . S
C1481 C1465 1.429 . S
C1481 C1477 1.429 . S
C1481 C1482 1.523 . S
C1482 C1466 1.368 . S
C1482 C1478 1.368 . S
C1482 C1481 1.523 . S
H1483 C1458 0.950 . S
H1484 C1460 0.950 . S
H1485 C1461 0.949 . S
H1486 C1463 0.950 . S
H1487 C1465 0.950 . S
C1488 C1489 1.349 . S
C1488 C1490 1.327 . S
C1488 H1513 0.950 . S
C1489 C1488 1.349 . S
C1489 C1505 1.349 . S
C1490 C1488 1.327 . S
C1490 C1509 1.429 . S
C1490 H1514 0.950 . S
C1491 C1508 1.574 . S
C1491 C1510 1.368 . S
C1491 H1515 0.949 . S
H1492 C1496 0.949 . S
C1493 C1494 1.349 . S
C1493 C1495 1.327 . S
C1493 H1516 0.950 . S
C1494 C1493 1.349 . S
C1494 C1506 1.349 . S
C1495 C1493 1.327 . S
C1495 C1511 1.429 . S
C1495 H1517 0.950 . S
C1496 H1492 0.949 . S
C1496 C1504 1.574 . S
C1496 C1512 1.368 . S
H1497 C1505 0.950 . S
H1498 C1503 0.963 . S
H1499 C1504 0.949 . S
H1500 C1506 0.950 . S
H1501 C1507 0.950 . S
H1502 C1508 0.949 . S
C1503 H1498 0.963 . S
C1503 C1505 1.327 . S
C1503 C1509 1.429 . S
C1504 C1496 1.574 . S
C1504 H1499 0.949 . S
C1504 C1510 1.368 . S
C1505 C1489 1.349 . S
C1505 H1497 0.950 . S
C1505 C1503 1.327 . S
C1506 C1494 1.349 . S
C1506 H1500 0.950 . S
C1506 C1507 1.327 . S
C1507 H1501 0.950 . S
C1507 C1506 1.327 . S
C1507 C1511 1.429 . S
C1508 C1491 1.574 . S
C1508 H1502 0.949 . S
C1508 C1512 1.368 . S
C1509 C1490 1.429 . S
C1509 C1503 1.429 . S
C1509 C1510 1.523 1_565 S
C1510 C1491 1.368 . S
C1510 C1504 1.368 . S
C1510 C1509 1.523 1_545 S
C1511 C1495 1.429 . S
C1511 C1507 1.429 . S
C1511 C1512 1.523 . S
C1512 C1496 1.368 . S
C1512 C1508 1.368 . S
C1512 C1511 1.523 . S
H1513 C1488 0.950 . S
H1514 C1490 0.950 . S
H1515 C1491 0.949 . S
H1516 C1493 0.950 . S
H1517 C1495 0.950 . S
C1518 C1519 1.349 . S
C1518 C1520 1.327 1_565 S
C1518 H1543 0.950 . S
C1519 C1518 1.349 . S
C1519 C1535 1.349 1_565 S
C1520 C1518 1.327 1_545 S
C1520 C1539 1.429 . S
C1520 H1544 0.950 . S
C1521 C1538 1.574 . S
C1521 C1540 1.368 . S
C1521 H1545 0.949 . S
H1522 C1526 0.949 . S
C1523 C1524 1.349 . S
C1523 C1525 1.327 . S
C1523 H1546 0.950 . S
C1524 C1523 1.349 . S
C1524 C1536 1.349 . S
C1525 C1523 1.327 . S
C1525 C1541 1.429 . S
C1525 H1547 0.950 . S
C1526 H1522 0.949 . S
C1526 C1534 1.574 . S
C1526 C1542 1.368 . S
H1527 C1535 0.950 . S
H1528 C1533 0.950 . S
H1529 C1534 0.949 . S
H1530 C1536 0.950 . S
H1531 C1537 0.950 . S
H1532 C1538 0.949 . S
C1533 H1528 0.950 . S
C1533 C1535 1.327 . S
C1533 C1539 1.429 . S
C1534 C1526 1.574 . S
C1534 H1529 0.949 . S
C1534 C1540 1.368 . S
C1535 C1519 1.349 1_545 S
C1535 H1527 0.950 . S
C1535 C1533 1.327 . S
C1536 C1524 1.349 . S
C1536 H1530 0.950 . S
C1536 C1537 1.327 . S
C1537 H1531 0.950 . S
C1537 C1536 1.327 . S
C1537 C1541 1.429 . S
C1538 C1521 1.574 . S
C1538 H1532 0.949 . S
C1538 C1542 1.368 . S
C1539 C1520 1.429 . S
C1539 C1533 1.429 . S
C1539 C1540 1.523 . S
C1540 C1521 1.368 . S
C1540 C1534 1.368 . S
C1540 C1539 1.523 . S
C1541 C1525 1.429 . S
C1541 C1537 1.429 . S
C1541 C1542 1.523 1_455 S
C1542 C1526 1.368 . S
C1542 C1538 1.368 . S
C1542 C1541 1.523 1_655 S
H1543 C1518 0.950 . S
H1544 C1520 0.950 . S
H1545 C1521 0.949 . S
H1546 C1523 0.950 . S
H1547 C1525 0.950 . S
C1548 C1549 1.349 . S
C1548 C1550 1.327 . S
C1548 H1573 0.950 . S
C1549 C1548 1.349 . S
C1549 C1565 1.349 . S
C1550 C1548 1.327 . S
C1550 C1569 1.429 . S
C1550 H1574 0.950 . S
C1551 C1568 1.574 . S
C1551 C1570 1.368 . S
C1551 H1575 0.949 . S
H1552 C1556 0.949 . S
C1553 C1554 1.349 . S
C1553 C1555 1.327 . S
C1553 H1576 0.950 . S
C1554 C1553 1.349 . S
C1554 C1566 1.349 . S
C1555 C1553 1.327 . S
C1555 C1571 1.429 . S
C1555 H1577 0.950 . S
C1556 H1552 0.949 . S
C1556 C1564 1.574 . S
C1556 C1572 1.368 . S
H1557 C1565 0.950 . S
H1558 C1563 0.950 . S
H1559 C1564 0.949 . S
H1560 C1566 0.950 . S
H1561 C1567 0.950 . S
H1562 C1568 0.949 . S
C1563 H1558 0.950 . S
C1563 C1565 1.327 . S
C1563 C1569 1.429 . S
C1564 C1556 1.574 . S
C1564 H1559 0.949 . S
C1564 C1570 1.368 . S
C1565 C1549 1.349 . S
C1565 H1557 0.950 . S
C1565 C1563 1.327 . S
C1566 C1554 1.349 . S
C1566 H1560 0.950 . S
C1566 C1567 1.327 . S
C1567 H1561 0.950 . S
C1567 C1566 1.327 . S
C1567 C1571 1.429 . S
C1568 C1551 1.574 . S
C1568 H1562 0.949 . S
C1568 C1572 1.368 . S
C1569 C1550 1.429 . S
C1569 C1563 1.429 . S
C1569 C1570 1.523 . S
C1570 C1551 1.368 . S
C1570 C1564 1.368 . S
C1570 C1569 1.523 . S
C1571 C1555 1.429 . S
C1571 C1567 1.429 . S
C1571 C1572 1.523 . S
C1572 C1556 1.368 . S
C1572 C1568 1.368 . S
C1572 C1571 1.523 . S
H1573 C1548 0.950 . S
H1574 C1550 0.950 . S
H1575 C1551 0.949 . S
H1576 C1553 0.950 . S
H1577 C1555 0.950 . S
C1578 C1579 1.349 . S
C1578 C1580 1.327 . S
C1578 H1603 0.950 . S
C1579 C1578 1.349 . S
C1579 C1595 1.349 . S
C1580 C1578 1.327 . S
C1580 C1599 1.429 . S
C1580 H1604 0.950 . S
C1581 C1598 1.574 . S
C1581 C1600 1.368 . S
C1581 H1605 0.949 . S
H1582 C1586 0.949 . S
C1583 C1584 1.349 . S
C1583 C1585 1.327 . S
C1583 H1606 0.950 . S
C1584 C1583 1.349 . S
C1584 C1596 1.349 . S
C1585 C1583 1.327 . S
C1585 C1601 1.429 . S
C1585 H1607 0.950 . S
C1586 H1582 0.949 . S
C1586 C1594 1.574 . S
C1586 C1602 1.368 . S
H1587 C1595 0.950 . S
H1588 C1593 0.950 . S
H1589 C1594 0.949 . S
H1590 C1596 0.950 . S
H1591 C1597 0.950 . S
H1592 C1598 0.949 . S
C1593 H1588 0.950 . S
C1593 C1595 1.327 . S
C1593 C1599 1.429 . S
C1594 C1586 1.574 . S
C1594 H1589 0.949 . S
C1594 C1600 1.368 . S
C1595 C1579 1.349 . S
C1595 H1587 0.950 . S
C1595 C1593 1.327 . S
C1596 C1584 1.349 . S
C1596 H1590 0.950 . S
C1596 C1597 1.327 . S
C1597 H1591 0.950 . S
C1597 C1596 1.327 . S
C1597 C1601 1.429 . S
C1598 C1581 1.574 . S
C1598 H1592 0.949 . S
C1598 C1602 1.368 . S
C1599 C1580 1.429 . S
C1599 C1593 1.429 . S
C1599 C1600 1.523 . S
C1600 C1581 1.368 . S
C1600 C1594 1.368 . S
C1600 C1599 1.523 . S
C1601 C1585 1.429 . S
C1601 C1597 1.429 . S
C1601 C1602 1.523 . S
C1602 C1586 1.368 . S
C1602 C1598 1.368 . S
C1602 C1601 1.523 . S
H1603 C1578 0.950 . S
H1604 C1580 0.950 . S
H1605 C1581 0.949 . S
H1606 C1583 0.950 . S
H1607 C1585 0.950 . S
C1608 C1609 1.349 . S
C1608 C1610 1.327 . S
C1608 H1633 0.950 . S
C1609 C1608 1.349 . S
C1609 C1625 1.349 . S
C1610 C1608 1.327 . S
C1610 C1629 1.429 . S
C1610 H1634 0.950 . S
C1611 C1628 1.574 . S
C1611 C1630 1.368 . S
C1611 H1635 0.949 . S
H1612 C1616 0.949 . S
C1613 C1614 1.349 . S
C1613 C1615 1.327 . S
C1613 H1636 0.950 . S
C1614 C1613 1.349 . S
C1614 C1626 1.349 . S
C1615 C1613 1.327 . S
C1615 C1631 1.429 . S
C1615 H1637 0.950 . S
C1616 H1612 0.949 . S
C1616 C1624 1.574 . S
C1616 C1632 1.368 . S
H1617 C1625 0.950 . S
H1618 C1623 0.950 . S
H1619 C1624 0.949 . S
H1620 C1626 0.950 . S
H1621 C1627 0.950 . S
H1622 C1628 0.949 . S
C1623 H1618 0.950 . S
C1623 C1625 1.327 . S
C1623 C1629 1.429 . S
C1624 C1616 1.574 . S
C1624 H1619 0.949 . S
C1624 C1630 1.368 . S
C1625 C1609 1.349 . S
C1625 H1617 0.950 . S
C1625 C1623 1.327 . S
C1626 C1614 1.349 . S
C1626 H1620 0.950 . S
C1626 C1627 1.327 . S
C1627 H1621 0.950 . S
C1627 C1626 1.327 . S
C1627 C1631 1.429 . S
C1628 C1611 1.574 . S
C1628 H1622 0.949 . S
C1628 C1632 1.368 . S
C1629 C1610 1.429 . S
C1629 C1623 1.429 . S
C1629 C1630 1.523 . S
C1630 C1611 1.368 . S
C1630 C1624 1.368 . S
C1630 C1629 1.523 . S
C1631 C1615 1.429 . S
C1631 C1627 1.429 . S
C1631 C1632 1.523 . S
C1632 C1616 1.368 . S
C1632 C1628 1.368 . S
C1632 C1631 1.523 . S
H1633 C1608 0.950 . S
H1634 C1610 0.950 . S
H1635 C1611 0.949 . S
H1636 C1613 0.950 . S
H1637 C1615 0.950 . S
C1638 C1639 1.349 . S
C1638 C1640 1.327 . S
C1638 H1663 0.950 . S
C1639 C1638 1.349 . S
C1639 C1655 1.349 . S
C1640 C1638 1.327 . S
C1640 C1659 1.429 . S
C1640 H1664 0.950 . S
C1641 C1658 1.574 . S
C1641 C1660 1.368 . S
C1641 H1665 0.949 . S
H1642 C1646 0.949 . S
C1643 C1644 1.349 . S
C1643 C1645 1.327 . S
C1643 H1666 0.950 . S
C1644 C1643 1.349 . S
C1644 C1656 1.349 . S
C1645 C1643 1.327 . S
C1645 C1661 1.429 . S
C1645 H1667 0.950 . S
C1646 H1642 0.949 . S
C1646 C1654 1.574 . S
C1646 C1662 1.368 . S
H1647 C1655 0.950 . S
H1648 C1653 0.950 . S
H1649 C1654 0.949 . S
H1650 C1656 0.950 . S
H1651 C1657 0.950 . S
H1652 C1658 0.949 . S
C1653 H1648 0.950 . S
C1653 C1655 1.327 . S
C1653 C1659 1.429 . S
C1654 C1646 1.574 . S
C1654 H1649 0.949 . S
C1654 C1660 1.368 . S
C1655 C1639 1.349 . S
C1655 H1647 0.950 . S
C1655 C1653 1.327 . S
C1656 C1644 1.349 . S
C1656 H1650 0.950 . S
C1656 C1657 1.327 . S
C1657 H1651 0.950 . S
C1657 C1656 1.327 . S
C1657 C1661 1.429 . S
C1658 C1641 1.574 . S
C1658 H1652 0.949 . S
C1658 C1662 1.368 . S
C1659 C1640 1.429 . S
C1659 C1653 1.429 . S
C1659 C1660 1.523 . S
C1660 C1641 1.368 . S
C1660 C1654 1.368 . S
C1660 C1659 1.523 . S
C1661 C1645 1.429 . S
C1661 C1657 1.429 . S
C1661 C1662 1.523 . S
C1662 C1646 1.368 . S
C1662 C1658 1.368 . S
C1662 C1661 1.523 . S
H1663 C1638 0.950 . S
H1664 C1640 0.950 . S
H1665 C1641 0.949 . S
H1666 C1643 0.950 . S
H1667 C1645 0.950 . S
C1668 C1669 1.349 . S
C1668 C1670 1.327 . S
C1668 H1693 0.950 . S
C1669 C1668 1.349 . S
C1669 C1685 1.349 . S
C1670 C1668 1.327 . S
C1670 C1689 1.429 . S
C1670 H1694 0.950 . S
C1671 C1688 1.574 . S
C1671 C1690 1.368 . S
C1671 H1695 0.949 . S
H1672 C1676 0.949 . S
C1673 C1674 1.349 . S
C1673 C1675 1.327 . S
C1673 H1696 0.950 . S
C1674 C1673 1.349 . S
C1674 C1686 1.349 . S
C1675 C1673 1.327 . S
C1675 C1691 1.429 . S
C1675 H1697 0.950 . S
C1676 H1672 0.949 . S
C1676 C1684 1.574 . S
C1676 C1692 1.368 . S
H1677 C1685 0.950 . S
H1678 C1683 0.950 . S
H1679 C1684 0.949 . S
H1680 C1686 0.950 . S
H1681 C1687 0.950 . S
H1682 C1688 0.949 . S
C1683 H1678 0.950 . S
C1683 C1685 1.327 . S
C1683 C1689 1.429 . S
C1684 C1676 1.574 . S
C1684 H1679 0.949 . S
C1684 C1690 1.368 . S
C1685 C1669 1.349 . S
C1685 H1677 0.950 . S
C1685 C1683 1.327 . S
C1686 C1674 1.349 . S
C1686 H1680 0.950 . S
C1686 C1687 1.327 . S
C1687 H1681 0.950 . S
C1687 C1686 1.327 . S
C1687 C1691 1.429 . S
C1688 C1671 1.574 . S
C1688 H1682 0.949 . S
C1688 C1692 1.368 . S
C1689 C1670 1.429 . S
C1689 C1683 1.429 . S
C1689 C1690 1.523 . S
C1690 C1671 1.368 . S
C1690 C1684 1.368 . S
C1690 C1689 1.523 . S
C1691 C1675 1.429 . S
C1691 C1687 1.429 . S
C1691 C1692 1.523 . S
C1692 C1676 1.368 . S
C1692 C1688 1.368 . S
C1692 C1691 1.523 . S
H1693 C1668 0.950 . S
H1694 C1670 0.950 . S
H1695 C1671 0.949 . S
H1696 C1673 0.950 . S
H1697 C1675 0.950 . S
C1698 C1699 1.349 . S
C1698 C1700 1.327 . S
C1698 H1723 0.950 . S
C1699 C1698 1.349 . S
C1699 C1715 1.349 . S
C1700 C1698 1.327 . S
C1700 C1719 1.429 . S
C1700 H1724 0.950 . S
C1701 C1718 1.574 . S
C1701 C1720 1.368 . S
C1701 H1725 0.949 . S
H1702 C1706 0.949 . S
C1703 C1704 1.349 . S
C1703 C1705 1.327 . S
C1703 H1726 0.950 . S
C1704 C1703 1.349 . S
C1704 C1716 1.349 . S
C1705 C1703 1.327 . S
C1705 C1721 1.429 . S
C1705 H1727 0.950 . S
C1706 H1702 0.949 . S
C1706 C1714 1.574 . S
C1706 C1722 1.368 . S
H1707 C1715 0.950 . S
H1708 C1713 0.950 . S
H1709 C1714 0.949 . S
H1710 C1716 0.950 . S
H1711 C1717 0.950 . S
H1712 C1718 0.949 . S
C1713 H1708 0.950 . S
C1713 C1715 1.327 . S
C1713 C1719 1.429 . S
C1714 C1706 1.574 . S
C1714 H1709 0.949 . S
C1714 C1720 1.368 . S
C1715 C1699 1.349 . S
C1715 H1707 0.950 . S
C1715 C1713 1.327 . S
C1716 C1704 1.349 . S
C1716 H1710 0.950 . S
C1716 C1717 1.327 . S
C1717 H1711 0.950 . S
C1717 C1716 1.327 . S
C1717 C1721 1.429 . S
C1718 C1701 1.574 . S
C1718 H1712 0.949 . S
C1718 C1722 1.368 . S
C1719 C1700 1.429 . S
C1719 C1713 1.429 . S
C1719 C1720 1.523 . S
C1720 C1701 1.368 . S
C1720 C1714 1.368 . S
C1720 C1719 1.523 . S
C1721 C1705 1.429 . S
C1721 C1717 1.429 . S
C1721 C1722 1.523 . S
C1722 C1706 1.368 . S
C1722 C1718 1.368 . S
C1722 C1721 1.523 . S
H1723 C1698 0.950 . S
H1724 C1700 0.950 . S
H1725 C1701 0.949 . S
H1726 C1703 0.950 . S
H1727 C1705 0.950 . S
C1728 C1729 1.349 . S
C1728 C1730 1.327 . S
C1728 H1753 0.950 . S
C1729 C1728 1.349 . S
C1729 C1745 1.349 . S
C1730 C1728 1.327 . S
C1730 C1749 1.429 . S
C1730 H1754 0.950 . S
C1731 C1748 1.574 . S
C1731 C1750 1.368 . S
C1731 H1755 0.949 . S
H1732 C1736 0.949 . S
C1733 C1734 1.349 . S
C1733 C1735 1.327 . S
C1733 H1756 0.950 . S
C1734 C1733 1.349 . S
C1734 C1746 1.349 . S
C1735 C1733 1.327 . S
C1735 C1751 1.429 . S
C1735 H1757 0.950 . S
C1736 H1732 0.949 . S
C1736 C1744 1.574 . S
C1736 C1752 1.368 . S
H1737 C1745 0.950 . S
H1738 C1743 0.950 . S
H1739 C1744 0.949 . S
H1740 C1746 0.950 . S
H1741 C1747 0.950 . S
H1742 C1748 0.949 . S
C1743 H1738 0.950 . S
C1743 C1745 1.327 . S
C1743 C1749 1.429 . S
C1744 C1736 1.574 . S
C1744 H1739 0.949 . S
C1744 C1750 1.368 . S
C1745 C1729 1.349 . S
C1745 H1737 0.950 . S
C1745 C1743 1.327 . S
C1746 C1734 1.349 . S
C1746 H1740 0.950 . S
C1746 C1747 1.327 . S
C1747 H1741 0.950 . S
C1747 C1746 1.327 . S
C1747 C1751 1.429 . S
C1748 C1731 1.574 . S
C1748 H1742 0.949 . S
C1748 C1752 1.368 . S
C1749 C1730 1.429 . S
C1749 C1743 1.429 . S
C1749 C1750 1.523 . S
C1750 C1731 1.368 . S
C1750 C1744 1.368 . S
C1750 C1749 1.523 . S
C1751 C1735 1.429 . S
C1751 C1747 1.429 . S
C1751 C1752 1.523 . S
C1752 C1736 1.368 . S
C1752 C1748 1.368 . S
C1752 C1751 1.523 . S
H1753 C1728 0.950 . S
H1754 C1730 0.950 . S
H1755 C1731 0.949 . S
H1756 C1733 0.950 . S
H1757 C1735 0.950 . S
C1758 C1759 1.349 . S
C1758 C1760 1.327 . S
C1758 H1783 0.950 . S
C1759 C1758 1.349 . S
C1759 C1775 1.349 . S
C1760 C1758 1.327 . S
C1760 C1779 1.429 . S
C1760 H1784 0.950 . S
C1761 C1778 1.574 . S
C1761 C1780 1.368 . S
C1761 H1785 0.949 . S
H1762 C1766 0.949 . S
C1763 C1764 1.349 . S
C1763 C1765 1.327 . S
C1763 H1786 0.950 . S
C1764 C1763 1.349 . S
C1764 C1776 1.349 . S
C1765 C1763 1.327 . S
C1765 C1781 1.429 . S
C1765 H1787 0.950 . S
C1766 H1762 0.949 . S
C1766 C1774 1.574 . S
C1766 C1782 1.368 . S
H1767 C1775 0.950 . S
H1768 C1773 0.950 . S
H1769 C1774 0.949 . S
H1770 C1776 0.950 . S
H1771 C1777 0.950 . S
H1772 C1778 0.949 . S
C1773 H1768 0.950 . S
C1773 C1775 1.327 . S
C1773 C1779 1.429 . S
C1774 C1766 1.574 . S
C1774 H1769 0.949 . S
C1774 C1780 1.368 . S
C1775 C1759 1.349 . S
C1775 H1767 0.950 . S
C1775 C1773 1.327 . S
C1776 C1764 1.349 . S
C1776 H1770 0.950 . S
C1776 C1777 1.327 . S
C1777 H1771 0.950 . S
C1777 C1776 1.327 . S
C1777 C1781 1.429 . S
C1778 C1761 1.574 . S
C1778 H1772 0.949 . S
C1778 C1782 1.368 . S
C1779 C1760 1.429 . S
C1779 C1773 1.429 . S
C1779 C1780 1.523 . S
C1780 C1761 1.368 . S
C1780 C1774 1.368 . S
C1780 C1779 1.523 . S
C1781 C1765 1.429 . S
C1781 C1777 1.429 . S
C1781 C1782 1.523 . S
C1782 C1766 1.368 . S
C1782 C1778 1.368 . S
C1782 C1781 1.523 . S
H1783 C1758 0.950 . S
H1784 C1760 0.950 . S
H1785 C1761 0.949 . S
H1786 C1763 0.950 . S
H1787 C1765 0.950 . S
C1788 C1789 1.349 . S
C1788 C1790 1.327 . S
C1788 H1813 0.950 . S
C1789 C1788 1.349 . S
C1789 C1805 1.349 . S
C1790 C1788 1.327 . S
C1790 C1809 1.429 . S
C1790 H1814 0.950 . S
C1791 C1808 1.574 . S
C1791 C1810 1.368 . S
C1791 H1815 0.949 . S
H1792 C1796 0.949 . S
C1793 C1794 1.349 . S
C1793 C1795 1.327 . S
C1793 H1816 0.950 . S
C1794 C1793 1.349 . S
C1794 C1806 1.349 . S
C1795 C1793 1.327 . S
C1795 C1811 1.429 . S
C1795 H1817 0.950 . S
C1796 H1792 0.949 . S
C1796 C1804 1.574 . S
C1796 C1812 1.368 . S
H1797 C1805 0.950 . S
H1798 C1803 0.950 . S
H1799 C1804 0.949 . S
H1800 C1806 0.950 . S
H1801 C1807 0.950 . S
H1802 C1808 0.949 . S
C1803 H1798 0.950 . S
C1803 C1805 1.327 . S
C1803 C1809 1.429 . S
C1804 C1796 1.574 . S
C1804 H1799 0.949 . S
C1804 C1810 1.368 . S
C1805 C1789 1.349 . S
C1805 H1797 0.950 . S
C1805 C1803 1.327 . S
C1806 C1794 1.349 . S
C1806 H1800 0.950 . S
C1806 C1807 1.327 . S
C1807 H1801 0.950 . S
C1807 C1806 1.327 . S
C1807 C1811 1.429 . S
C1808 C1791 1.574 . S
C1808 H1802 0.949 . S
C1808 C1812 1.368 . S
C1809 C1790 1.429 . S
C1809 C1803 1.429 . S
C1809 C1810 1.523 . S
C1810 C1791 1.368 . S
C1810 C1804 1.368 . S
C1810 C1809 1.523 . S
C1811 C1795 1.429 . S
C1811 C1807 1.429 . S
C1811 C1812 1.523 . S
C1812 C1796 1.368 . S
C1812 C1808 1.368 . S
C1812 C1811 1.523 . S
H1813 C1788 0.950 . S
H1814 C1790 0.950 . S
H1815 C1791 0.949 . S
H1816 C1793 0.950 . S
H1817 C1795 0.950 . S
C1818 C1819 1.349 . S
C1818 C1820 1.327 . S
C1818 H1843 0.950 . S
C1819 C1818 1.349 . S
C1819 C1835 1.349 . S
C1820 C1818 1.327 . S
C1820 C1839 1.429 . S
C1820 H1844 0.950 . S
C1821 C1838 1.574 . S
C1821 C1840 1.368 . S
C1821 H1845 0.949 . S
H1822 C1826 0.949 . S
C1823 C1824 1.349 . S
C1823 C1825 1.327 . S
C1823 H1846 0.950 . S
C1824 C1823 1.349 . S
C1824 C1836 1.349 . S
C1825 C1823 1.327 . S
C1825 C1841 1.429 . S
C1825 H1847 0.950 . S
C1826 H1822 0.949 . S
C1826 C1834 1.574 . S
C1826 C1842 1.368 . S
H1827 C1835 0.950 . S
H1828 C1833 0.950 . S
H1829 C1834 0.949 . S
H1830 C1836 0.950 . S
H1831 C1837 0.950 . S
H1832 C1838 0.949 . S
C1833 H1828 0.950 . S
C1833 C1835 1.327 . S
C1833 C1839 1.429 . S
C1834 C1826 1.574 . S
C1834 H1829 0.949 . S
C1834 C1840 1.368 . S
C1835 C1819 1.349 . S
C1835 H1827 0.950 . S
C1835 C1833 1.327 . S
C1836 C1824 1.349 . S
C1836 H1830 0.950 . S
C1836 C1837 1.327 . S
C1837 H1831 0.950 . S
C1837 C1836 1.327 . S
C1837 C1841 1.429 . S
C1838 C1821 1.574 . S
C1838 H1832 0.949 . S
C1838 C1842 1.368 . S
C1839 C1820 1.429 . S
C1839 C1833 1.429 . S
C1839 C1840 1.523 . S
C1840 C1821 1.368 . S
C1840 C1834 1.368 . S
C1840 C1839 1.523 . S
C1841 C1825 1.429 . S
C1841 C1837 1.429 . S
C1841 C1842 1.523 . S
C1842 C1826 1.368 . S
C1842 C1838 1.368 . S
C1842 C1841 1.523 . S
H1843 C1818 0.950 . S
H1844 C1820 0.950 . S
H1845 C1821 0.949 . S
H1846 C1823 0.950 . S
H1847 C1825 0.950 . S
C1848 C1849 1.349 . S
C1848 C1850 1.327 . S
C1848 H1873 0.950 . S
C1849 C1848 1.349 . S
C1849 C1865 1.349 . S
C1850 C1848 1.327 . S
C1850 C1869 1.429 . S
C1850 H1874 0.950 . S
C1851 C1868 1.574 . S
C1851 C1870 1.368 . S
C1851 H1875 0.949 . S
H1852 C1856 0.949 . S
C1853 C1854 1.349 . S
C1853 C1855 1.327 . S
C1853 H1876 0.950 . S
C1854 C1853 1.349 . S
C1854 C1866 1.349 . S
C1855 C1853 1.327 . S
C1855 C1871 1.429 . S
C1855 H1877 0.950 . S
C1856 H1852 0.949 . S
C1856 C1864 1.574 . S
C1856 C1872 1.368 . S
H1857 C1865 0.950 . S
H1858 C1863 0.950 . S
H1859 C1864 0.949 . S
H1860 C1866 0.950 . S
H1861 C1867 0.950 . S
H1862 C1868 0.949 . S
C1863 H1858 0.950 . S
C1863 C1865 1.327 . S
C1863 C1869 1.429 . S
C1864 C1856 1.574 . S
C1864 H1859 0.949 . S
C1864 C1870 1.368 . S
C1865 C1849 1.349 . S
C1865 H1857 0.950 . S
C1865 C1863 1.327 . S
C1866 C1854 1.349 . S
C1866 H1860 0.950 . S
C1866 C1867 1.327 . S
C1867 H1861 0.950 . S
C1867 C1866 1.327 . S
C1867 C1871 1.429 . S
C1868 C1851 1.574 . S
C1868 H1862 0.949 . S
C1868 C1872 1.368 . S
C1869 C1850 1.429 . S
C1869 C1863 1.429 . S
C1869 C1870 1.523 . S
C1870 C1851 1.368 . S
C1870 C1864 1.368 . S
C1870 C1869 1.523 . S
C1871 C1855 1.429 . S
C1871 C1867 1.429 . S
C1871 C1872 1.523 . S
C1872 C1856 1.368 . S
C1872 C1868 1.368 . S
C1872 C1871 1.523 . S
H1873 C1848 0.950 . S
H1874 C1850 0.950 . S
H1875 C1851 0.949 . S
H1876 C1853 0.950 . S
H1877 C1855 0.950 . S
C1878 C1879 1.349 . S
C1878 C1880 1.327 . S
C1878 H1903 0.950 . S
C1879 C1878 1.349 . S
C1879 C1895 1.349 . S
C1880 C1878 1.327 . S
C1880 C1899 1.429 . S
C1880 H1904 0.950 . S
C1881 C1898 1.574 . S
C1881 C1900 1.368 . S
C1881 H1905 0.949 . S
H1882 C1886 0.949 . S
C1883 C1884 1.349 . S
C1883 C1885 1.327 . S
C1883 H1906 0.950 . S
C1884 C1883 1.349 . S
C1884 C1896 1.349 . S
C1885 C1883 1.327 . S
C1885 C1901 1.429 . S
C1885 H1907 0.950 . S
C1886 H1882 0.949 . S
C1886 C1894 1.574 . S
C1886 C1902 1.368 . S
H1887 C1895 0.950 . S
H1888 C1893 0.950 . S
H1889 C1894 0.949 . S
H1890 C1896 0.950 . S
H1891 C1897 0.950 . S
H1892 C1898 0.949 . S
C1893 H1888 0.950 . S
C1893 C1895 1.327 . S
C1893 C1899 1.429 . S
C1894 C1886 1.574 . S
C1894 H1889 0.949 . S
C1894 C1900 1.368 . S
C1895 C1879 1.349 . S
C1895 H1887 0.950 . S
C1895 C1893 1.327 . S
C1896 C1884 1.349 . S
C1896 H1890 0.950 . S
C1896 C1897 1.327 . S
C1897 H1891 0.950 . S
C1897 C1896 1.327 . S
C1897 C1901 1.429 . S
C1898 C1881 1.574 . S
C1898 H1892 0.949 . S
C1898 C1902 1.368 . S
C1899 C1880 1.429 . S
C1899 C1893 1.429 . S
C1899 C1900 1.523 . S
C1900 C1881 1.368 . S
C1900 C1894 1.368 . S
C1900 C1899 1.523 . S
C1901 C1885 1.429 . S
C1901 C1897 1.429 . S
C1901 C1902 1.523 . S
C1902 C1886 1.368 . S
C1902 C1898 1.368 . S
C1902 C1901 1.523 . S
H1903 C1878 0.950 . S
H1904 C1880 0.950 . S
H1905 C1881 0.949 . S
H1906 C1883 0.950 . S
H1907 C1885 0.950 . S
C1908 C1909 1.349 . S
C1908 C1910 1.327 . S
C1908 H1933 0.950 . S
C1909 C1908 1.349 . S
C1909 C1925 1.349 . S
C1910 C1908 1.327 . S
C1910 C1929 1.429 . S
C1910 H1934 0.950 . S
C1911 C1928 1.574 . S
C1911 C1930 1.368 . S
C1911 H1935 0.949 . S
H1912 C1916 0.949 . S
C1913 C1914 1.349 . S
C1913 C1915 1.327 . S
C1913 H1936 0.950 . S
C1914 C1913 1.349 . S
C1914 C1926 1.349 . S
C1915 C1913 1.327 . S
C1915 C1931 1.429 . S
C1915 H1937 0.950 . S
C1916 H1912 0.949 . S
C1916 C1924 1.574 . S
C1916 C1932 1.368 . S
H1917 C1925 0.950 . S
H1918 C1923 0.950 . S
H1919 C1924 0.949 . S
H1920 C1926 0.950 . S
H1921 C1927 0.950 . S
H1922 C1928 0.949 . S
C1923 H1918 0.950 . S
C1923 C1925 1.327 . S
C1923 C1929 1.429 . S
C1924 C1916 1.574 . S
C1924 H1919 0.949 . S
C1924 C1930 1.368 . S
C1925 C1909 1.349 . S
C1925 H1917 0.950 . S
C1925 C1923 1.327 . S
C1926 C1914 1.349 . S
C1926 H1920 0.950 . S
C1926 C1927 1.327 . S
C1927 H1921 0.950 . S
C1927 C1926 1.327 . S
C1927 C1931 1.429 . S
C1928 C1911 1.574 . S
C1928 H1922 0.949 . S
C1928 C1932 1.368 . S
C1929 C1910 1.429 . S
C1929 C1923 1.429 . S
C1929 C1930 1.523 . S
C1930 C1911 1.368 . S
C1930 C1924 1.368 . S
C1930 C1929 1.523 . S
C1931 C1915 1.429 . S
C1931 C1927 1.429 . S
C1931 C1932 1.523 . S
C1932 C1916 1.368 . S
C1932 C1928 1.368 . S
C1932 C1931 1.523 . S
H1933 C1908 0.950 . S
H1934 C1910 0.950 . S
H1935 C1911 0.949 . S
H1936 C1913 0.950 . S
H1937 C1915 0.950 . S
C1938 C1939 1.349 . S
C1938 C1940 1.327 . S
C1938 H1963 0.950 . S
C1939 C1938 1.349 . S
C1939 C1955 1.349 . S
C1940 C1938 1.327 . S
C1940 C1959 1.429 . S
C1940 H1964 0.950 . S
C1941 C1958 1.574 . S
C1941 C1960 1.368 . S
C1941 H1965 0.949 . S
H1942 C1946 0.949 . S
C1943 C1944 1.349 . S
C1943 C1945 1.327 . S
C1943 H1966 0.950 . S
C1944 C1943 1.349 . S
C1944 C1956 1.349 . S
C1945 C1943 1.327 . S
C1945 C1961 1.429 . S
C1945 H1967 0.950 . S
C1946 H1942 0.949 . S
C1946 C1954 1.574 . S
C1946 C1962 1.368 . S
H1947 C1955 0.950 . S
H1948 C1953 0.950 . S
H1949 C1954 0.949 . S
H1950 C1956 0.950 . S
H1951 C1957 0.950 . S
H1952 C1958 0.949 . S
C1953 H1948 0.950 . S
C1953 C1955 1.327 . S
C1953 C1959 1.429 . S
C1954 C1946 1.574 . S
C1954 H1949 0.949 . S
C1954 C1960 1.368 . S
C1955 C1939 1.349 . S
C1955 H1947 0.950 . S
C1955 C1953 1.327 . S
C1956 C1944 1.349 . S
C1956 H1950 0.950 . S
C1956 C1957 1.327 . S
C1957 H1951 0.950 . S
C1957 C1956 1.327 . S
C1957 C1961 1.429 . S
C1958 C1941 1.574 . S
C1958 H1952 0.949 . S
C1958 C1962 1.368 . S
C1959 C1940 1.429 . S
C1959 C1953 1.429 . S
C1959 C1960 1.523 . S
C1960 C1941 1.368 . S
C1960 C1954 1.368 . S
C1960 C1959 1.523 . S
C1961 C1945 1.429 . S
C1961 C1957 1.429 . S
C1961 C1962 1.523 . S
C1962 C1946 1.368 . S
C1962 C1958 1.368 . S
C1962 C1961 1.523 . S
H1963 C1938 0.950 . S
H1964 C1940 0.950 . S
H1965 C1941 0.949 . S
H1966 C1943 0.950 . S
H1967 C1945 0.950 . S
C1968 C1969 1.349 . S
C1968 C1970 1.327 . S
C1968 H1993 0.950 . S
C1969 C1968 1.349 . S
C1969 C1985 1.349 . S
C1970 C1968 1.327 . S
C1970 C1989 1.429 . S
C1970 H1994 0.950 . S
C1971 C1988 1.574 . S
C1971 C1990 1.368 . S
C1971 H1995 0.949 . S
H1972 C1976 0.949 . S
C1973 C1974 1.349 . S
C1973 C1975 1.327 . S
C1973 H1996 0.950 . S
C1974 C1973 1.349 . S
C1974 C1986 1.349 . S
C1975 C1973 1.327 . S
C1975 C1991 1.429 . S
C1975 H1997 0.950 . S
C1976 H1972 0.949 . S
C1976 C1984 1.574 . S
C1976 C1992 1.368 . S
H1977 C1985 0.950 . S
H1978 C1983 0.950 . S
H1979 C1984 0.949 . S
H1980 C1986 0.950 . S
H1981 C1987 0.950 . S
H1982 C1988 0.949 . S
C1983 H1978 0.950 . S
C1983 C1985 1.327 . S
C1983 C1989 1.429 . S
C1984 C1976 1.574 . S
C1984 H1979 0.949 . S
C1984 C1990 1.368 . S
C1985 C1969 1.349 . S
C1985 H1977 0.950 . S
C1985 C1983 1.327 . S
C1986 C1974 1.349 . S
C1986 H1980 0.950 . S
C1986 C1987 1.327 . S
C1987 H1981 0.950 . S
C1987 C1986 1.327 . S
C1987 C1991 1.429 . S
C1988 C1971 1.574 . S
C1988 H1982 0.949 . S
C1988 C1992 1.368 . S
C1989 C1970 1.429 . S
C1989 C1983 1.429 . S
C1989 C1990 1.523 . S
C1990 C1971 1.368 . S
C1990 C1984 1.368 . S
C1990 C1989 1.523 . S
C1991 C1975 1.429 . S
C1991 C1987 1.429 . S
C1991 C1992 1.523 . S
C1992 C1976 1.368 . S
C1992 C1988 1.368 . S
C1992 C1991 1.523 . S
H1993 C1968 0.950 . S
H1994 C1970 0.950 . S
H1995 C1971 0.949 . S
H1996 C1973 0.950 . S
H1997 C1975 0.950 . S
C1998 C1999 1.349 . S
C1998 C2000 1.327 . S
C1998 H2023 0.950 . S
C1999 C1998 1.349 . S
C1999 C2015 1.349 . S
C2000 C1998 1.327 . S
C2000 C2019 1.429 . S
C2000 H2024 0.950 . S
C2001 C2018 1.574 . S
C2001 C2020 1.368 . S
C2001 H2025 0.949 . S
H2002 C2006 0.949 . S
C2003 C2004 1.349 . S
C2003 C2005 1.327 . S
C2003 H2026 0.950 . S
C2004 C2003 1.349 . S
C2004 C2016 1.349 . S
C2005 C2003 1.327 . S
C2005 C2021 1.429 . S
C2005 H2027 0.950 . S
C2006 H2002 0.949 . S
C2006 C2014 1.574 . S
C2006 C2022 1.368 . S
H2007 C2015 0.950 . S
H2008 C2013 0.950 . S
H2009 C2014 0.949 . S
H2010 C2016 0.950 . S
H2011 C2017 0.950 . S
H2012 C2018 0.949 . S
C2013 H2008 0.950 . S
C2013 C2015 1.327 . S
C2013 C2019 1.429 . S
C2014 C2006 1.574 . S
C2014 H2009 0.949 . S
C2014 C2020 1.368 . S
C2015 C1999 1.349 . S
C2015 H2007 0.950 . S
C2015 C2013 1.327 . S
C2016 C2004 1.349 . S
C2016 H2010 0.950 . S
C2016 C2017 1.327 . S
C2017 H2011 0.950 . S
C2017 C2016 1.327 . S
C2017 C2021 1.429 . S
C2018 C2001 1.574 . S
C2018 H2012 0.949 . S
C2018 C2022 1.368 . S
C2019 C2000 1.429 . S
C2019 C2013 1.429 . S
C2019 C2020 1.523 . S
C2020 C2001 1.368 . S
C2020 C2014 1.368 . S
C2020 C2019 1.523 . S
C2021 C2005 1.429 . S
C2021 C2017 1.429 . S
C2021 C2022 1.523 . S
C2022 C2006 1.368 . S
C2022 C2018 1.368 . S
C2022 C2021 1.523 . S
H2023 C1998 0.950 . S
H2024 C2000 0.950 . S
H2025 C2001 0.949 . S
H2026 C2003 0.950 . S
H2027 C2005 0.950 . S
C2028 C2029 1.349 . S
C2028 C2030 1.327 . S
C2028 H2053 0.950 . S
C2029 C2028 1.349 . S
C2029 C2045 1.349 . S
C2030 C2028 1.327 . S
C2030 C2049 1.429 . S
C2030 H2054 0.950 . S
C2031 C2048 1.574 . S
C2031 C2050 1.368 . S
C2031 H2055 0.949 . S
H2032 C2036 0.949 . S
C2033 C2034 1.349 . S
C2033 C2035 1.327 . S
C2033 H2056 0.950 . S
C2034 C2033 1.349 . S
C2034 C2046 1.349 . S
C2035 C2033 1.327 . S
C2035 C2051 1.429 . S
C2035 H2057 0.950 . S
C2036 H2032 0.949 . S
C2036 C2044 1.574 . S
C2036 C2052 1.368 . S
H2037 C2045 0.950 . S
H2038 C2043 0.950 . S
H2039 C2044 0.949 . S
H2040 C2046 0.950 . S
H2041 C2047 0.950 . S
H2042 C2048 0.949 . S
C2043 H2038 0.950 . S
C2043 C2045 1.327 . S
C2043 C2049 1.429 . S
C2044 C2036 1.574 . S
C2044 H2039 0.949 . S
C2044 C2050 1.368 . S
C2045 C2029 1.349 . S
C2045 H2037 0.950 . S
C2045 C2043 1.327 . S
C2046 C2034 1.349 . S
C2046 H2040 0.950 . S
C2046 C2047 1.327 . S
C2047 H2041 0.950 . S
C2047 C2046 1.327 . S
C2047 C2051 1.429 . S
C2048 C2031 1.574 . S
C2048 H2042 0.949 . S
C2048 C2052 1.368 . S
C2049 C2030 1.429 . S
C2049 C2043 1.429 . S
C2049 C2050 1.523 . S
C2050 C2031 1.368 . S
C2050 C2044 1.368 . S
C2050 C2049 1.523 . S
C2051 C2035 1.429 . S
C2051 C2047 1.429 . S
C2051 C2052 1.523 . S
C2052 C2036 1.368 . S
C2052 C2048 1.368 . S
C2052 C2051 1.523 . S
H2053 C2028 0.950 . S
H2054 C2030 0.950 . S
H2055 C2031 0.949 . S
H2056 C2033 0.950 . S
H2057 C2035 0.950 . S
C2058 C2059 1.349 . S
C2058 C2060 1.327 . S
C2058 H2083 0.950 . S
C2059 C2058 1.349 . S
C2059 C2075 1.349 . S
C2060 C2058 1.327 . S
C2060 C2079 1.429 . S
C2060 H2084 0.950 . S
C2061 C2078 1.574 . S
C2061 C2080 1.368 . S
C2061 H2085 0.949 . S
H2062 C2066 0.949 . S
C2063 C2064 1.349 . S
C2063 C2065 1.327 . S
C2063 H2086 0.950 . S
C2064 C2063 1.349 . S
C2064 C2076 1.349 . S
C2065 C2063 1.327 . S
C2065 C2081 1.429 . S
C2065 H2087 0.950 . S
C2066 H2062 0.949 . S
C2066 C2074 1.574 . S
C2066 C2082 1.368 . S
H2067 C2075 0.950 . S
H2068 C2073 0.950 . S
H2069 C2074 0.949 . S
H2070 C2076 0.950 . S
H2071 C2077 0.950 . S
H2072 C2078 0.949 . S
C2073 H2068 0.950 . S
C2073 C2075 1.327 . S
C2073 C2079 1.429 . S
C2074 C2066 1.574 . S
C2074 H2069 0.949 . S
C2074 C2080 1.368 . S
C2075 C2059 1.349 . S
C2075 H2067 0.950 . S
C2075 C2073 1.327 . S
C2076 C2064 1.349 . S
C2076 H2070 0.950 . S
C2076 C2077 1.327 . S
C2077 H2071 0.950 . S
C2077 C2076 1.327 . S
C2077 C2081 1.429 . S
C2078 C2061 1.574 . S
C2078 H2072 0.949 . S
C2078 C2082 1.368 . S
C2079 C2060 1.429 . S
C2079 C2073 1.429 . S
C2079 C2080 1.523 . S
C2080 C2061 1.368 . S
C2080 C2074 1.368 . S
C2080 C2079 1.523 . S
C2081 C2065 1.429 . S
C2081 C2077 1.429 . S
C2081 C2082 1.523 . S
C2082 C2066 1.368 . S
C2082 C2078 1.368 . S
C2082 C2081 1.523 . S
H2083 C2058 0.950 . S
H2084 C2060 0.950 . S
H2085 C2061 0.949 . S
H2086 C2063 0.950 . S
H2087 C2065 0.950 . S
C2088 C2089 1.349 . S
C2088 C2090 1.327 . S
C2088 H2113 0.950 . S
C2089 C2088 1.349 . S
C2089 C2105 1.349 . S
C2090 C2088 1.327 . S
C2090 C2109 1.429 . S
C2090 H2114 0.950 . S
C2091 C2108 1.574 . S
C2091 C2110 1.368 . S
C2091 H2115 0.949 . S
H2092 C2096 0.949 . S
C2093 C2094 1.349 . S
C2093 C2095 1.327 . S
C2093 H2116 0.950 . S
C2094 C2093 1.349 . S
C2094 C2106 1.349 . S
C2095 C2093 1.327 . S
C2095 C2111 1.429 . S
C2095 H2117 0.950 . S
C2096 H2092 0.949 . S
C2096 C2104 1.574 . S
C2096 C2112 1.368 . S
H2097 C2105 0.950 . S
H2098 C2103 0.950 . S
H2099 C2104 0.949 . S
H2100 C2106 0.950 . S
H2101 C2107 0.950 . S
H2102 C2108 0.949 . S
C2103 H2098 0.950 . S
C2103 C2105 1.327 . S
C2103 C2109 1.429 . S
C2104 C2096 1.574 . S
C2104 H2099 0.949 . S
C2104 C2110 1.368 . S
C2105 C2089 1.349 . S
C2105 H2097 0.950 . S
C2105 C2103 1.327 . S
C2106 C2094 1.349 . S
C2106 H2100 0.950 . S
C2106 C2107 1.327 . S
C2107 H2101 0.950 . S
C2107 C2106 1.327 . S
C2107 C2111 1.429 . S
C2108 C2091 1.574 . S
C2108 H2102 0.949 . S
C2108 C2112 1.368 . S
C2109 C2090 1.429 . S
C2109 C2103 1.429 . S
C2109 C2110 1.523 . S
C2110 C2091 1.368 . S
C2110 C2104 1.368 . S
C2110 C2109 1.523 . S
C2111 C2095 1.429 . S
C2111 C2107 1.429 . S
C2111 C2112 1.523 . S
C2112 C2096 1.368 . S
C2112 C2108 1.368 . S
C2112 C2111 1.523 . S
H2113 C2088 0.950 . S
H2114 C2090 0.950 . S
H2115 C2091 0.949 . S
H2116 C2093 0.950 . S
H2117 C2095 0.950 . S
C2118 C2119 1.349 . S
C2118 C2120 1.327 . S
C2118 H2143 0.950 . S
C2119 C2118 1.349 . S
C2119 C2135 1.349 . S
C2120 C2118 1.327 . S
C2120 C2139 1.429 . S
C2120 H2144 0.950 . S
C2121 C2138 1.574 . S
C2121 C2140 1.368 . S
C2121 H2145 0.949 . S
H2122 C2126 0.949 . S
C2123 C2124 1.349 . S
C2123 C2125 1.327 . S
C2123 H2146 0.950 . S
C2124 C2123 1.349 . S
C2124 C2136 1.349 . S
C2125 C2123 1.327 . S
C2125 C2141 1.429 . S
C2125 H2147 0.950 . S
C2126 H2122 0.949 . S
C2126 C2134 1.574 . S
C2126 C2142 1.368 . S
H2127 C2135 0.950 . S
H2128 C2133 0.950 . S
H2129 C2134 0.949 . S
H2130 C2136 0.950 . S
H2131 C2137 0.950 . S
H2132 C2138 0.949 . S
C2133 H2128 0.950 . S
C2133 C2135 1.327 . S
C2133 C2139 1.429 . S
C2134 C2126 1.574 . S
C2134 H2129 0.949 . S
C2134 C2140 1.368 . S
C2135 C2119 1.349 . S
C2135 H2127 0.950 . S
C2135 C2133 1.327 . S
C2136 C2124 1.349 . S
C2136 H2130 0.950 . S
C2136 C2137 1.327 . S
C2137 H2131 0.950 . S
C2137 C2136 1.327 . S
C2137 C2141 1.429 . S
C2138 C2121 1.574 . S
C2138 H2132 0.949 . S
C2138 C2142 1.368 . S
C2139 C2120 1.429 . S
C2139 C2133 1.429 . S
C2139 C2140 1.523 . S
C2140 C2121 1.368 . S
C2140 C2134 1.368 . S
C2140 C2139 1.523 . S
C2141 C2125 1.429 . S
C2141 C2137 1.429 . S
C2141 C2142 1.523 . S
C2142 C2126 1.368 . S
C2142 C2138 1.368 . S
C2142 C2141 1.523 . S
H2143 C2118 0.950 . S
H2144 C2120 0.950 . S
H2145 C2121 0.949 . S
H2146 C2123 0.950 . S
H2147 C2125 0.950 . S
C2148 C2149 1.349 . S
C2148 C2150 1.327 . S
C2148 H2173 0.950 . S
C2149 C2148 1.349 . S
C2149 C2165 1.349 . S
C2150 C2148 1.327 . S
C2150 C2169 1.429 . S
C2150 H2174 0.950 . S
C2151 C2168 1.574 . S
C2151 C2170 1.368 . S
C2151 H2175 0.949 . S
H2152 C2156 0.949 . S
C2153 C2154 1.349 . S
C2153 C2155 1.327 . S
C2153 H2176 0.950 . S
C2154 C2153 1.349 . S
C2154 C2166 1.349 . S
C2155 C2153 1.327 . S
C2155 C2171 1.429 . S
C2155 H2177 0.950 . S
C2156 H2152 0.949 . S
C2156 C2164 1.574 . S
C2156 C2172 1.368 . S
H2157 C2165 0.950 . S
H2158 C2163 0.950 . S
H2159 C2164 0.949 . S
H2160 C2166 0.950 . S
H2161 C2167 0.950 . S
H2162 C2168 0.949 . S
C2163 H2158 0.950 . S
C2163 C2165 1.327 . S
C2163 C2169 1.429 . S
C2164 C2156 1.574 . S
C2164 H2159 0.949 . S
C2164 C2170 1.368 . S
C2165 C2149 1.349 . S
C2165 H2157 0.950 . S
C2165 C2163 1.327 . S
C2166 C2154 1.349 . S
C2166 H2160 0.950 . S
C2166 C2167 1.327 . S
C2167 H2161 0.950 . S
C2167 C2166 1.327 . S
C2167 C2171 1.429 . S
C2168 C2151 1.574 . S
C2168 H2162 0.949 . S
C2168 C2172 1.368 . S
C2169 C2150 1.429 . S
C2169 C2163 1.429 . S
C2169 C2170 1.523 . S
C2170 C2151 1.368 . S
C2170 C2164 1.368 . S
C2170 C2169 1.523 . S
C2171 C2155 1.429 . S
C2171 C2167 1.429 . S
C2171 C2172 1.523 . S
C2172 C2156 1.368 . S
C2172 C2168 1.368 . S
C2172 C2171 1.523 . S
H2173 C2148 0.950 . S
H2174 C2150 0.950 . S
H2175 C2151 0.949 . S
H2176 C2153 0.950 . S
H2177 C2155 0.950 . S
C2178 C2179 1.349 . S
C2178 C2180 1.327 . S
C2178 H2203 0.950 . S
C2179 C2178 1.349 . S
C2179 C2195 1.349 . S
C2180 C2178 1.327 . S
C2180 C2199 1.429 . S
C2180 H2204 0.950 . S
C2181 C2198 1.574 . S
C2181 C2200 1.368 . S
C2181 H2205 0.949 . S
H2182 C2186 0.949 . S
C2183 C2184 1.349 . S
C2183 C2185 1.327 . S
C2183 H2206 0.950 . S
C2184 C2183 1.349 . S
C2184 C2196 1.349 . S
C2185 C2183 1.327 . S
C2185 C2201 1.429 . S
C2185 H2207 0.950 . S
C2186 H2182 0.949 . S
C2186 C2194 1.574 . S
C2186 C2202 1.368 . S
H2187 C2195 0.950 . S
H2188 C2193 0.950 . S
H2189 C2194 0.949 . S
H2190 C2196 0.950 . S
H2191 C2197 0.950 . S
H2192 C2198 0.949 . S
C2193 H2188 0.950 . S
C2193 C2195 1.327 . S
C2193 C2199 1.429 . S
C2194 C2186 1.574 . S
C2194 H2189 0.949 . S
C2194 C2200 1.368 . S
C2195 C2179 1.349 . S
C2195 H2187 0.950 . S
C2195 C2193 1.327 . S
C2196 C2184 1.349 . S
C2196 H2190 0.950 . S
C2196 C2197 1.327 . S
C2197 H2191 0.950 . S
C2197 C2196 1.327 . S
C2197 C2201 1.429 . S
C2198 C2181 1.574 . S
C2198 H2192 0.949 . S
C2198 C2202 1.368 . S
C2199 C2180 1.429 . S
C2199 C2193 1.429 . S
C2199 C2200 1.523 . S
C2200 C2181 1.368 . S
C2200 C2194 1.368 . S
C2200 C2199 1.523 . S
C2201 C2185 1.429 . S
C2201 C2197 1.429 . S
C2201 C2202 1.523 . S
C2202 C2186 1.368 . S
C2202 C2198 1.368 . S
C2202 C2201 1.523 . S
H2203 C2178 0.950 . S
H2204 C2180 0.950 . S
H2205 C2181 0.949 . S
H2206 C2183 0.950 . S
H2207 C2185 0.950 . S
C2208 C2209 1.349 . S
C2208 C2210 1.327 . S
C2208 H2233 0.950 . S
C2209 C2208 1.349 . S
C2209 C2225 1.349 . S
C2210 C2208 1.327 . S
C2210 C2229 1.429 . S
C2210 H2234 0.950 . S
C2211 C2228 1.574 . S
C2211 C2230 1.368 . S
C2211 H2235 0.949 . S
H2212 C2216 0.949 . S
C2213 C2214 1.349 . S
C2213 C2215 1.327 . S
C2213 H2236 0.950 . S
C2214 C2213 1.349 . S
C2214 C2226 1.349 . S
C2215 C2213 1.327 . S
C2215 C2231 1.429 . S
C2215 H2237 0.950 . S
C2216 H2212 0.949 . S
C2216 C2224 1.574 . S
C2216 C2232 1.368 . S
H2217 C2225 0.950 . S
H2218 C2223 0.950 . S
H2219 C2224 0.949 . S
H2220 C2226 0.950 . S
H2221 C2227 0.950 . S
H2222 C2228 0.949 . S
C2223 H2218 0.950 . S
C2223 C2225 1.327 . S
C2223 C2229 1.429 . S
C2224 C2216 1.574 . S
C2224 H2219 0.949 . S
C2224 C2230 1.368 . S
C2225 C2209 1.349 . S
C2225 H2217 0.950 . S
C2225 C2223 1.327 . S
C2226 C2214 1.349 . S
C2226 H2220 0.950 . S
C2226 C2227 1.327 . S
C2227 H2221 0.950 . S
C2227 C2226 1.327 . S
C2227 C2231 1.429 . S
C2228 C2211 1.574 . S
C2228 H2222 0.949 . S
C2228 C2232 1.368 . S
C2229 C2210 1.429 . S
C2229 C2223 1.429 . S
C2229 C2230 1.523 . S
C2230 C2211 1.368 . S
C2230 C2224 1.368 . S
C2230 C2229 1.523 . S
C2231 C2215 1.429 . S
C2231 C2227 1.429 . S
C2231 C2232 1.523 . S
C2232 C2216 1.368 . S
C2232 C2228 1.368 . S
C2232 C2231 1.523 . S
H2233 C2208 0.950 . S
H2234 C2210 0.950 . S
H2235 C2211 0.949 . S
H2236 C2213 0.950 . S
H2237 C2215 0.950 . S
C2238 C2239 1.349 . S
C2238 C2240 1.327 . S
C2238 H2263 0.950 . S
C2239 C2238 1.349 . S
C2239 C2255 1.349 . S
C2240 C2238 1.327 . S
C2240 C2259 1.429 . S
C2240 H2264 0.950 . S
C2241 C2258 1.574 . S
C2241 C2260 1.368 . S
C2241 H2265 0.949 . S
H2242 C2246 0.949 . S
C2243 C2244 1.349 . S
C2243 C2245 1.327 . S
C2243 H2266 0.950 . S
C2244 C2243 1.349 . S
C2244 C2256 1.349 . S
C2245 C2243 1.327 . S
C2245 C2261 1.429 . S
C2245 H2267 0.950 . S
C2246 H2242 0.949 . S
C2246 C2254 1.574 . S
C2246 C2262 1.368 . S
H2247 C2255 0.950 . S
H2248 C2253 0.950 . S
H2249 C2254 0.949 . S
H2250 C2256 0.950 . S
H2251 C2257 0.950 . S
H2252 C2258 0.949 . S
C2253 H2248 0.950 . S
C2253 C2255 1.327 . S
C2253 C2259 1.429 . S
C2254 C2246 1.574 . S
C2254 H2249 0.949 . S
C2254 C2260 1.368 . S
C2255 C2239 1.349 . S
C2255 H2247 0.950 . S
C2255 C2253 1.327 . S
C2256 C2244 1.349 . S
C2256 H2250 0.950 . S
C2256 C2257 1.327 . S
C2257 H2251 0.950 . S
C2257 C2256 1.327 . S
C2257 C2261 1.429 . S
C2258 C2241 1.574 . S
C2258 H2252 0.949 . S
C2258 C2262 1.368 . S
C2259 C2240 1.429 . S
C2259 C2253 1.429 . S
C2259 C2260 1.523 . S
C2260 C2241 1.368 . S
C2260 C2254 1.368 . S
C2260 C2259 1.523 . S
C2261 C2245 1.429 . S
C2261 C2257 1.429 . S
C2261 C2262 1.523 . S
C2262 C2246 1.368 . S
C2262 C2258 1.368 . S
C2262 C2261 1.523 . S
H2263 C2238 0.950 . S
H2264 C2240 0.950 . S
H2265 C2241 0.949 . S
H2266 C2243 0.950 . S
H2267 C2245 0.950 . S
C2268 C2269 1.349 . S
C2268 C2270 1.327 . S
C2268 H2293 0.950 . S
C2269 C2268 1.349 . S
C2269 C2285 1.349 . S
C2270 C2268 1.327 . S
C2270 C2289 1.429 . S
C2270 H2294 0.950 . S
C2271 C2288 1.574 . S
C2271 C2290 1.368 . S
C2271 H2295 0.949 . S
H2272 C2276 0.949 . S
C2273 C2274 1.349 . S
C2273 C2275 1.327 . S
C2273 H2296 0.950 . S
C2274 C2273 1.349 . S
C2274 C2286 1.349 . S
C2275 C2273 1.327 . S
C2275 C2291 1.429 . S
C2275 H2297 0.950 . S
C2276 H2272 0.949 . S
C2276 C2284 1.574 . S
C2276 C2292 1.368 . S
H2277 C2285 0.950 . S
H2278 C2283 0.950 . S
H2279 C2284 0.949 . S
H2280 C2286 0.950 . S
H2281 C2287 0.950 . S
H2282 C2288 0.949 . S
C2283 H2278 0.950 . S
C2283 C2285 1.327 . S
C2283 C2289 1.429 . S
C2284 C2276 1.574 . S
C2284 H2279 0.949 . S
C2284 C2290 1.368 . S
C2285 C2269 1.349 . S
C2285 H2277 0.950 . S
C2285 C2283 1.327 . S
C2286 C2274 1.349 . S
C2286 H2280 0.950 . S
C2286 C2287 1.327 . S
C2287 H2281 0.950 . S
C2287 C2286 1.327 . S
C2287 C2291 1.429 . S
C2288 C2271 1.574 . S
C2288 H2282 0.949 . S
C2288 C2292 1.368 . S
C2289 C2270 1.429 . S
C2289 C2283 1.429 . S
C2289 C2290 1.523 . S
C2290 C2271 1.368 . S
C2290 C2284 1.368 . S
C2290 C2289 1.523 . S
C2291 C2275 1.429 . S
C2291 C2287 1.429 . S
C2291 C2292 1.523 . S
C2292 C2276 1.368 . S
C2292 C2288 1.368 . S
C2292 C2291 1.523 . S
H2293 C2268 0.950 . S
H2294 C2270 0.950 . S
H2295 C2271 0.949 . S
H2296 C2273 0.950 . S
H2297 C2275 0.950 . S
C2298 C2299 1.349 . S
C2298 C2300 1.327 . S
C2298 H2323 0.950 . S
C2299 C2298 1.349 . S
C2299 C2315 1.349 . S
C2300 C2298 1.327 . S
C2300 C2319 1.429 . S
C2300 H2324 0.950 . S
C2301 C2318 1.574 . S
C2301 C2320 1.368 . S
C2301 H2325 0.949 . S
H2302 C2306 0.949 . S
C2303 C2304 1.349 1_545 S
C2303 C2305 1.327 1_545 S
C2303 H2326 0.950 . S
C2304 C2303 1.349 1_565 S
C2304 C2316 1.349 . S
C2305 C2303 1.327 1_565 S
C2305 C2321 1.429 . S
C2305 H2327 0.950 . S
C2306 H2302 0.949 . S
C2306 C2314 1.574 . S
C2306 C2322 1.368 . S
H2307 C2315 0.950 . S
H2308 C2313 0.950 . S
H2309 C2314 0.949 . S
H2310 C2316 0.950 . S
H2311 C2317 0.950 . S
H2312 C2318 0.949 . S
C2313 H2308 0.950 . S
C2313 C2315 1.327 . S
C2313 C2319 1.429 . S
C2314 C2306 1.574 . S
C2314 H2309 0.949 . S
C2314 C2320 1.368 . S
C2315 C2299 1.349 . S
C2315 H2307 0.950 . S
C2315 C2313 1.327 . S
C2316 C2304 1.349 . S
C2316 H2310 0.950 . S
C2316 C2317 1.327 . S
C2317 H2311 0.950 . S
C2317 C2316 1.327 . S
C2317 C2321 1.429 . S
C2318 C2301 1.574 . S
C2318 H2312 0.949 . S
C2318 C2322 1.368 . S
C2319 C2300 1.429 . S
C2319 C2313 1.429 . S
C2319 C2320 1.523 . S
C2320 C2301 1.368 . S
C2320 C2314 1.368 . S
C2320 C2319 1.523 . S
C2321 C2305 1.429 . S
C2321 C2317 1.429 . S
C2321 C2322 1.523 . S
C2322 C2306 1.368 . S
C2322 C2318 1.368 . S
C2322 C2321 1.523 . S
H2323 C2298 0.950 . S
H2324 C2300 0.950 . S
H2325 C2301 0.949 . S
H2326 C2303 0.950 . S
H2327 C2305 0.950 . S
C2328 C2329 1.349 . S
C2328 C2330 1.327 . S
C2328 H2353 0.950 . S
C2329 C2328 1.349 . S
C2329 C2345 1.349 . S
C2330 C2328 1.327 . S
C2330 C2349 1.429 . S
C2330 H2354 0.950 . S
C2331 C2348 1.574 . S
C2331 C2350 1.368 . S
C2331 H2355 0.949 . S
H2332 C2336 0.949 . S
C2333 C2334 1.349 . S
C2333 C2335 1.327 . S
C2333 H2356 0.950 . S
C2334 C2333 1.349 . S
C2334 C2346 1.349 1_455 S
C2335 C2333 1.327 . S
C2335 C2351 1.429 . S
C2335 H2357 0.950 . S
C2336 H2332 0.949 . S
C2336 C2344 1.574 . S
C2336 C2352 1.368 . S
H2337 C2345 0.950 . S
H2338 C2343 0.950 . S
H2339 C2344 0.949 . S
H2340 C2346 0.950 . S
H2341 C2347 0.950 . S
H2342 C2348 0.949 . S
C2343 H2338 0.950 . S
C2343 C2345 1.327 . S
C2343 C2349 1.429 . S
C2344 C2336 1.574 . S
C2344 H2339 0.949 . S
C2344 C2350 1.368 . S
C2345 C2329 1.349 . S
C2345 H2337 0.950 . S
C2345 C2343 1.327 . S
C2346 C2334 1.349 1_655 S
C2346 H2340 0.950 . S
C2346 C2347 1.327 1_655 S
C2347 H2341 0.950 . S
C2347 C2346 1.327 1_455 S
C2347 C2351 1.429 . S
C2348 C2331 1.574 . S
C2348 H2342 0.949 . S
C2348 C2352 1.368 . S
C2349 C2330 1.429 . S
C2349 C2343 1.429 . S
C2349 C2350 1.523 . S
C2350 C2331 1.368 . S
C2350 C2344 1.368 . S
C2350 C2349 1.523 . S
C2351 C2335 1.429 . S
C2351 C2347 1.429 . S
C2351 C2352 1.523 . S
C2352 C2336 1.368 . S
C2352 C2348 1.368 . S
C2352 C2351 1.523 . S
H2353 C2328 0.950 . S
H2354 C2330 0.950 . S
H2355 C2331 0.949 . S
H2356 C2333 0.950 . S
H2357 C2335 0.950 . S
C2358 C2359 1.349 . S
C2358 C2360 1.327 . S
C2358 H2383 0.950 . S
C2359 C2358 1.349 . S
C2359 C2375 1.349 . S
C2360 C2358 1.327 . S
C2360 C2379 1.429 . S
C2360 H2384 0.950 . S
C2361 C2378 1.574 . S
C2361 C2380 1.368 . S
C2361 H2385 0.949 . S
H2362 C2366 0.949 . S
C2363 C2364 1.349 . S
C2363 C2365 1.327 . S
C2363 H2386 0.950 . S
C2364 C2363 1.349 . S
C2364 C2376 1.349 . S
C2365 C2363 1.327 . S
C2365 C2381 1.429 . S
C2365 H2387 0.950 . S
C2366 H2362 0.949 . S
C2366 C2374 1.574 . S
C2366 C2382 1.368 . S
H2367 C2375 0.950 . S
H2368 C2373 0.950 . S
H2369 C2374 0.949 . S
H2370 C2376 0.950 . S
H2371 C2377 0.950 . S
H2372 C2378 0.949 . S
C2373 H2368 0.950 . S
C2373 C2375 1.327 . S
C2373 C2379 1.429 . S
C2374 C2366 1.574 . S
C2374 H2369 0.949 . S
C2374 C2380 1.368 . S
C2375 C2359 1.349 . S
C2375 H2367 0.950 . S
C2375 C2373 1.327 . S
C2376 C2364 1.349 . S
C2376 H2370 0.950 . S
C2376 C2377 1.327 . S
C2377 H2371 0.950 . S
C2377 C2376 1.327 . S
C2377 C2381 1.429 . S
C2378 C2361 1.574 . S
C2378 H2372 0.949 . S
C2378 C2382 1.368 . S
C2379 C2360 1.429 . S
C2379 C2373 1.429 . S
C2379 C2380 1.523 . S
C2380 C2361 1.368 . S
C2380 C2374 1.368 . S
C2380 C2379 1.523 . S
C2381 C2365 1.429 . S
C2381 C2377 1.429 . S
C2381 C2382 1.523 . S
C2382 C2366 1.368 . S
C2382 C2378 1.368 . S
C2382 C2381 1.523 . S
H2383 C2358 0.950 . S
H2384 C2360 0.950 . S
H2385 C2361 0.949 . S
H2386 C2363 0.950 . S
H2387 C2365 0.950 . S
C2388 C2389 1.349 . S
C2388 C2390 1.327 . S
C2388 H2413 0.950 . S
C2389 C2388 1.349 . S
C2389 C2405 1.349 . S
C2390 C2388 1.327 . S
C2390 C2409 1.429 . S
C2390 H2414 0.950 . S
C2391 C2408 1.574 . S
C2391 C2410 1.368 . S
C2391 H2415 0.949 . S
H2392 C2396 0.949 . S
C2393 C2394 1.349 . S
C2393 C2395 1.327 . S
C2393 H2416 0.950 . S
C2394 C2393 1.349 . S
C2394 C2406 1.349 . S
C2395 C2393 1.327 . S
C2395 C2411 1.429 . S
C2395 H2417 0.950 . S
C2396 H2392 0.949 . S
C2396 C2404 1.574 . S
C2396 C2412 1.368 . S
H2397 C2405 0.950 . S
H2398 C2403 0.950 . S
H2399 C2404 0.949 . S
H2400 C2406 0.950 . S
H2401 C2407 0.950 . S
H2402 C2408 0.949 . S
C2403 H2398 0.950 . S
C2403 C2405 1.327 . S
C2403 C2409 1.429 . S
C2404 C2396 1.574 . S
C2404 H2399 0.949 . S
C2404 C2410 1.368 . S
C2405 C2389 1.349 . S
C2405 H2397 0.950 . S
C2405 C2403 1.327 . S
C2406 C2394 1.349 . S
C2406 H2400 0.950 . S
C2406 C2407 1.327 . S
C2407 H2401 0.950 . S
C2407 C2406 1.327 . S
C2407 C2411 1.429 . S
C2408 C2391 1.574 . S
C2408 H2402 0.949 . S
C2408 C2412 1.368 . S
C2409 C2390 1.429 . S
C2409 C2403 1.429 . S
C2409 C2410 1.523 . S
C2410 C2391 1.368 . S
C2410 C2404 1.368 . S
C2410 C2409 1.523 . S
C2411 C2395 1.429 . S
C2411 C2407 1.429 . S
C2411 C2412 1.523 . S
C2412 C2396 1.368 . S
C2412 C2408 1.368 . S
C2412 C2411 1.523 . S
H2413 C2388 0.950 . S
H2414 C2390 0.950 . S
H2415 C2391 0.949 . S
H2416 C2393 0.950 . S
H2417 C2395 0.950 . S
C2418 C2419 1.349 . S
C2418 C2420 1.327 . S
C2418 H2443 0.950 . S
C2419 C2418 1.349 . S
C2419 C2435 1.349 . S
C2420 C2418 1.327 . S
C2420 C2439 1.429 . S
C2420 H2444 0.950 . S
C2421 C2438 1.574 . S
C2421 C2440 1.368 . S
C2421 H2445 0.949 . S
H2422 C2426 0.949 . S
C2423 C2424 1.349 . S
C2423 C2425 1.327 . S
C2423 H2446 0.950 1_655 S
C2424 C2423 1.349 . S
C2424 C2436 1.349 . S
C2425 C2423 1.327 . S
C2425 C2441 1.429 . S
C2425 H2447 0.950 . S
C2426 H2422 0.949 . S
C2426 C2434 1.574 . S
C2426 C2442 1.368 . S
H2427 C2435 0.950 . S
H2428 C2433 0.950 . S
H2429 C2434 0.949 . S
H2430 C2436 0.950 . S
H2431 C2437 0.950 . S
H2432 C2438 0.949 . S
C2433 H2428 0.950 . S
C2433 C2435 1.327 . S
C2433 C2439 1.429 . S
C2434 C2426 1.574 . S
C2434 H2429 0.949 . S
C2434 C2440 1.368 . S
C2435 C2419 1.349 . S
C2435 H2427 0.950 . S
C2435 C2433 1.327 . S
C2436 C2424 1.349 . S
C2436 H2430 0.950 . S
C2436 C2437 1.327 . S
C2437 H2431 0.950 . S
C2437 C2436 1.327 . S
C2437 C2441 1.429 . S
C2438 C2421 1.574 . S
C2438 H2432 0.949 . S
C2438 C2442 1.368 . S
C2439 C2420 1.429 . S
C2439 C2433 1.429 . S
C2439 C2440 1.523 . S
C2440 C2421 1.368 . S
C2440 C2434 1.368 . S
C2440 C2439 1.523 . S
C2441 C2425 1.429 . S
C2441 C2437 1.429 . S
C2441 C2442 1.523 . S
C2442 C2426 1.368 . S
C2442 C2438 1.368 . S
C2442 C2441 1.523 . S
H2443 C2418 0.950 . S
H2444 C2420 0.950 . S
H2445 C2421 0.949 . S
H2446 C2423 0.950 1_455 S
H2447 C2425 0.950 . S
C2448 C2449 1.349 . S
C2448 C2450 1.327 . S
C2448 H2473 0.950 . S
C2449 C2448 1.349 . S
C2449 C2465 1.349 . S
C2450 C2448 1.327 . S
C2450 C2469 1.429 . S
C2450 H2474 0.950 . S
C2451 C2468 1.574 . S
C2451 C2470 1.368 . S
C2451 H2475 0.949 . S
H2452 C2456 0.949 . S
C2453 C2454 1.349 . S
C2453 C2455 1.327 . S
C2453 H2476 0.950 . S
C2454 C2453 1.349 . S
C2454 C2466 1.349 . S
C2455 C2453 1.327 . S
C2455 C2471 1.429 . S
C2455 H2477 0.950 . S
C2456 H2452 0.949 . S
C2456 C2464 1.574 . S
C2456 C2472 1.368 . S
H2457 C2465 0.950 . S
H2458 C2463 0.950 . S
H2459 C2464 0.949 . S
H2460 C2466 0.950 . S
H2461 C2467 0.950 . S
H2462 C2468 0.949 . S
C2463 H2458 0.950 . S
C2463 C2465 1.327 . S
C2463 C2469 1.429 . S
C2464 C2456 1.574 . S
C2464 H2459 0.949 . S
C2464 C2470 1.368 . S
C2465 C2449 1.349 . S
C2465 H2457 0.950 . S
C2465 C2463 1.327 . S
C2466 C2454 1.349 . S
C2466 H2460 0.950 . S
C2466 C2467 1.327 . S
C2467 H2461 0.950 . S
C2467 C2466 1.327 . S
C2467 C2471 1.429 . S
C2468 C2451 1.574 . S
C2468 H2462 0.949 . S
C2468 C2472 1.368 . S
C2469 C2450 1.429 . S
C2469 C2463 1.429 . S
C2469 C2470 1.523 . S
C2470 C2451 1.368 . S
C2470 C2464 1.368 . S
C2470 C2469 1.523 . S
C2471 C2455 1.429 . S
C2471 C2467 1.429 . S
C2471 C2472 1.523 . S
C2472 C2456 1.368 . S
C2472 C2468 1.368 . S
C2472 C2471 1.523 . S
H2473 C2448 0.950 . S
H2474 C2450 0.950 . S
H2475 C2451 0.949 . S
H2476 C2453 0.950 . S
H2477 C2455 0.950 . S
C2478 C2479 1.349 . S
C2478 C2480 1.327 . S
C2478 H2503 0.950 . S
C2479 C2478 1.349 . S
C2479 C2495 1.349 . S
C2480 C2478 1.327 . S
C2480 C2499 1.429 . S
C2480 H2504 0.950 . S
C2481 C2498 1.574 . S
C2481 C2500 1.368 . S
C2481 H2505 0.949 . S
H2482 C2486 0.949 . S
C2483 C2484 1.349 . S
C2483 C2485 1.327 . S
C2483 H2506 0.950 . S
C2484 C2483 1.349 . S
C2484 C2496 1.348 . S
C2485 C2483 1.327 . S
C2485 C2501 1.429 . S
C2485 H2507 0.950 . S
C2486 H2482 0.949 . S
C2486 C2494 1.574 . S
C2486 C2502 1.368 . S
H2487 C2495 0.950 . S
H2488 C2493 0.950 . S
H2489 C2494 0.949 . S
H2490 C2496 0.954 1_565 S
H2491 C2497 0.950 . S
H2492 C2498 0.949 . S
C2493 H2488 0.950 . S
C2493 C2495 1.327 . S
C2493 C2499 1.429 . S
C2494 C2486 1.574 . S
C2494 H2489 0.949 . S
C2494 C2500 1.368 . S
C2495 C2479 1.349 . S
C2495 H2487 0.950 . S
C2495 C2493 1.327 . S
C2496 C2484 1.348 . S
C2496 H2490 0.954 1_545 S
C2496 C2497 1.323 . S
C2497 H2491 0.950 . S
C2497 C2496 1.323 . S
C2497 C2501 1.429 . S
C2498 C2481 1.574 . S
C2498 H2492 0.949 . S
C2498 C2502 1.368 . S
C2499 C2480 1.429 . S
C2499 C2493 1.429 . S
C2499 C2500 1.523 . S
C2500 C2481 1.368 . S
C2500 C2494 1.368 . S
C2500 C2499 1.523 . S
C2501 C2485 1.429 . S
C2501 C2497 1.429 . S
C2501 C2502 1.523 . S
C2502 C2486 1.368 . S
C2502 C2498 1.368 . S
C2502 C2501 1.523 . S
H2503 C2478 0.950 . S
H2504 C2480 0.950 . S
H2505 C2481 0.949 . S
H2506 C2483 0.950 . S
H2507 C2485 0.950 . S
C2508 C2509 1.349 . S
C2508 C2510 1.327 . S
C2508 H2533 0.950 . S
C2509 C2508 1.349 . S
C2509 C2525 1.349 . S
C2510 C2508 1.327 . S
C2510 C2529 1.429 . S
C2510 H2534 0.950 . S
C2511 C2528 1.574 . S
C2511 C2530 1.368 . S
C2511 H2535 0.949 . S
H2512 C2516 0.949 . S
C2513 C2514 1.349 . S
C2513 C2515 1.327 . S
C2513 H2536 0.950 . S
C2514 C2513 1.349 . S
C2514 C2526 1.349 . S
C2515 C2513 1.327 . S
C2515 C2531 1.429 . S
C2515 H2537 0.950 . S
C2516 H2512 0.949 . S
C2516 C2524 1.574 . S
C2516 C2532 1.368 . S
H2517 C2525 0.950 . S
H2518 C2523 0.950 . S
H2519 C2524 0.949 . S
H2520 C2526 0.950 . S
H2521 C2527 0.950 . S
H2522 C2528 0.949 . S
C2523 H2518 0.950 . S
C2523 C2525 1.327 . S
C2523 C2529 1.429 . S
C2524 C2516 1.574 . S
C2524 H2519 0.949 . S
C2524 C2530 1.368 . S
C2525 C2509 1.349 . S
C2525 H2517 0.950 . S
C2525 C2523 1.327 . S
C2526 C2514 1.349 . S
C2526 H2520 0.950 . S
C2526 C2527 1.327 . S
C2527 H2521 0.950 . S
C2527 C2526 1.327 . S
C2527 C2531 1.429 . S
C2528 C2511 1.574 . S
C2528 H2522 0.949 . S
C2528 C2532 1.368 . S
C2529 C2510 1.429 . S
C2529 C2523 1.429 . S
C2529 C2530 1.523 . S
C2530 C2511 1.368 . S
C2530 C2524 1.368 . S
C2530 C2529 1.523 . S
C2531 C2515 1.429 . S
C2531 C2527 1.429 . S
C2531 C2532 1.523 . S
C2532 C2516 1.368 . S
C2532 C2528 1.368 . S
C2532 C2531 1.523 . S
H2533 C2508 0.950 . S
H2534 C2510 0.950 . S
H2535 C2511 0.949 . S
H2536 C2513 0.950 . S
H2537 C2515 0.950 . S
C2538 C2539 1.349 . S
C2538 C2540 1.327 . S
C2538 H2563 0.950 . S
C2539 C2538 1.349 . S
C2539 C2555 1.349 . S
C2540 C2538 1.327 . S
C2540 C2559 1.429 . S
C2540 H2564 0.950 . S
C2541 C2558 1.574 . S
C2541 C2560 1.368 . S
C2541 H2565 0.949 . S
H2542 C2546 0.949 . S
C2543 C2544 1.349 . S
C2543 C2545 1.327 . S
C2543 H2566 0.950 . S
C2544 C2543 1.349 . S
C2544 C2556 1.349 . S
C2545 C2543 1.327 . S
C2545 C2561 1.429 . S
C2545 H2567 0.950 . S
C2546 H2542 0.949 . S
C2546 C2554 1.574 . S
C2546 C2562 1.368 . S
H2547 C2555 0.950 . S
H2548 C2553 0.950 . S
H2549 C2554 0.949 . S
H2550 C2556 0.950 . S
H2551 C2557 0.950 . S
H2552 C2558 0.949 . S
C2553 H2548 0.950 . S
C2553 C2555 1.327 . S
C2553 C2559 1.429 . S
C2554 C2546 1.574 . S
C2554 H2549 0.949 . S
C2554 C2560 1.368 . S
C2555 C2539 1.349 . S
C2555 H2547 0.950 . S
C2555 C2553 1.327 . S
C2556 C2544 1.349 . S
C2556 H2550 0.950 . S
C2556 C2557 1.327 . S
C2557 H2551 0.950 . S
C2557 C2556 1.327 . S
C2557 C2561 1.429 . S
C2558 C2541 1.574 . S
C2558 H2552 0.949 . S
C2558 C2562 1.368 . S
C2559 C2540 1.429 . S
C2559 C2553 1.429 . S
C2559 C2560 1.523 . S
C2560 C2541 1.368 . S
C2560 C2554 1.368 . S
C2560 C2559 1.523 . S
C2561 C2545 1.429 . S
C2561 C2557 1.429 . S
C2561 C2562 1.523 . S
C2562 C2546 1.368 . S
C2562 C2558 1.368 . S
C2562 C2561 1.523 . S
H2563 C2538 0.950 . S
H2564 C2540 0.950 . S
H2565 C2541 0.949 . S
H2566 C2543 0.950 . S
H2567 C2545 0.950 . S
C2568 C2569 1.349 . S
C2568 C2570 1.327 . S
C2568 H2593 0.950 . S
C2569 C2568 1.349 . S
C2569 C2585 1.349 . S
C2570 C2568 1.327 . S
C2570 C2589 1.429 . S
C2570 H2594 0.950 . S
C2571 C2588 1.574 . S
C2571 C2590 1.368 . S
C2571 H2595 0.949 . S
H2572 C2576 0.949 . S
C2573 C2574 1.349 . S
C2573 C2575 1.327 . S
C2573 H2596 0.950 . S
C2574 C2573 1.349 . S
C2574 C2586 1.349 . S
C2575 C2573 1.327 . S
C2575 C2591 1.429 . S
C2575 H2597 0.950 . S
C2576 H2572 0.949 . S
C2576 C2584 1.574 . S
C2576 C2592 1.368 . S
H2577 C2585 0.950 . S
H2578 C2583 0.950 . S
H2579 C2584 0.949 . S
H2580 C2586 0.950 1_545 S
H2581 C2587 0.950 . S
H2582 C2588 0.949 . S
C2583 H2578 0.950 . S
C2583 C2585 1.327 . S
C2583 C2589 1.429 . S
C2584 C2576 1.574 . S
C2584 H2579 0.949 . S
C2584 C2590 1.368 . S
C2585 C2569 1.349 . S
C2585 H2577 0.950 . S
C2585 C2583 1.327 . S
C2586 C2574 1.349 . S
C2586 H2580 0.950 1_565 S
C2586 C2587 1.327 . S
C2587 H2581 0.950 . S
C2587 C2586 1.327 . S
C2587 C2591 1.429 . S
C2588 C2571 1.574 . S
C2588 H2582 0.949 . S
C2588 C2592 1.368 . S
C2589 C2570 1.429 . S
C2589 C2583 1.429 . S
C2589 C2590 1.523 . S
C2590 C2571 1.368 . S
C2590 C2584 1.368 . S
C2590 C2589 1.523 . S
C2591 C2575 1.429 . S
C2591 C2587 1.429 . S
C2591 C2592 1.523 . S
C2592 C2576 1.368 . S
C2592 C2588 1.368 . S
C2592 C2591 1.523 . S
H2593 C2568 0.950 . S
H2594 C2570 0.950 . S
H2595 C2571 0.949 . S
H2596 C2573 0.950 . S
H2597 C2575 0.950 . S
C2598 C2599 1.349 . S
C2598 C2600 1.327 . S
C2598 H2623 0.950 . S
C2599 C2598 1.349 . S
C2599 C2615 1.349 . S
C2600 C2598 1.327 . S
C2600 C2619 1.429 . S
C2600 H2624 0.950 . S
C2601 C2618 1.574 . S
C2601 C2620 1.368 . S
C2601 H2625 0.949 . S
H2602 C2606 0.949 . S
C2603 C2604 1.349 . S
C2603 C2605 1.327 . S
C2603 H2626 0.950 . S
C2604 C2603 1.349 . S
C2604 C2616 1.349 1_455 S
C2605 C2603 1.327 . S
C2605 C2621 1.429 . S
C2605 H2627 0.950 . S
C2606 H2602 0.949 . S
C2606 C2614 1.574 . S
C2606 C2622 1.368 . S
H2607 C2615 0.950 . S
H2608 C2613 0.950 . S
H2609 C2614 0.949 . S
H2610 C2616 0.950 . S
H2611 C2617 0.950 . S
H2612 C2618 0.949 . S
C2613 H2608 0.950 . S
C2613 C2615 1.327 . S
C2613 C2619 1.429 . S
C2614 C2606 1.574 . S
C2614 H2609 0.949 . S
C2614 C2620 1.368 . S
C2615 C2599 1.349 . S
C2615 H2607 0.950 . S
C2615 C2613 1.327 . S
C2616 C2604 1.349 1_655 S
C2616 H2610 0.950 . S
C2616 C2617 1.327 1_655 S
C2617 H2611 0.950 . S
C2617 C2616 1.327 1_455 S
C2617 C2621 1.429 . S
C2618 C2601 1.574 . S
C2618 H2612 0.949 . S
C2618 C2622 1.368 . S
C2619 C2600 1.429 . S
C2619 C2613 1.429 . S
C2619 C2620 1.523 . S
C2620 C2601 1.368 . S
C2620 C2614 1.368 . S
C2620 C2619 1.523 . S
C2621 C2605 1.429 . S
C2621 C2617 1.429 . S
C2621 C2622 1.523 . S
C2622 C2606 1.368 . S
C2622 C2618 1.368 . S
C2622 C2621 1.523 . S
H2623 C2598 0.950 . S
H2624 C2600 0.950 . S
H2625 C2601 0.949 . S
H2626 C2603 0.950 . S
H2627 C2605 0.950 . S
C2628 C2629 1.349 . S
C2628 C2630 1.327 . S
C2628 H2653 0.950 . S
C2629 C2628 1.349 . S
C2629 C2645 1.349 . S
C2630 C2628 1.327 . S
C2630 C2649 1.429 . S
C2630 H2654 0.950 . S
C2631 C2648 1.574 . S
C2631 C2650 1.368 . S
C2631 H2655 0.949 . S
H2632 C2636 0.949 . S
C2633 C2634 1.349 . S
C2633 C2635 1.327 . S
C2633 H2656 0.950 . S
C2634 C2633 1.349 . S
C2634 C2646 1.349 . S
C2635 C2633 1.327 . S
C2635 C2651 1.429 1_455 S
C2635 H2657 0.950 . S
C2636 H2632 0.949 . S
C2636 C2644 1.574 . S
C2636 C2652 1.368 . S
H2637 C2645 0.950 . S
H2638 C2643 0.950 . S
H2639 C2644 0.949 . S
H2640 C2646 0.950 . S
H2641 C2647 0.950 . S
H2642 C2648 0.949 . S
C2643 H2638 0.950 . S
C2643 C2645 1.327 . S
C2643 C2649 1.429 . S
C2644 C2636 1.574 . S
C2644 H2639 0.949 . S
C2644 C2650 1.368 . S
C2645 C2629 1.349 . S
C2645 H2637 0.950 . S
C2645 C2643 1.327 . S
C2646 C2634 1.349 . S
C2646 H2640 0.950 . S
C2646 C2647 1.327 1_455 S
C2647 H2641 0.950 . S
C2647 C2646 1.327 1_655 S
C2647 C2651 1.429 . S
C2648 C2631 1.574 . S
C2648 H2642 0.949 . S
C2648 C2652 1.368 . S
C2649 C2630 1.429 . S
C2649 C2643 1.429 . S
C2649 C2650 1.523 . S
C2650 C2631 1.368 . S
C2650 C2644 1.368 . S
C2650 C2649 1.523 . S
C2651 C2635 1.429 1_655 S
C2651 C2647 1.429 . S
C2651 C2652 1.523 . S
C2652 C2636 1.368 . S
C2652 C2648 1.368 . S
C2652 C2651 1.523 . S
H2653 C2628 0.950 . S
H2654 C2630 0.950 . S
H2655 C2631 0.949 . S
H2656 C2633 0.950 . S
H2657 C2635 0.950 . S
C2658 C2659 1.349 . S
C2658 C2660 1.327 . S
C2658 H2683 0.950 . S
C2659 C2658 1.349 . S
C2659 C2675 1.349 . S
C2660 C2658 1.327 . S
C2660 C2679 1.429 . S
C2660 H2684 0.950 . S
C2661 C2678 1.574 . S
C2661 C2680 1.368 . S
C2661 H2685 0.949 . S
H2662 C2666 0.949 . S
C2663 C2664 1.349 . S
C2663 C2665 1.327 . S
C2663 H2686 0.950 . S
C2664 C2663 1.349 . S
C2664 C2676 1.349 . S
C2665 C2663 1.327 . S
C2665 C2681 1.429 . S
C2665 H2687 0.950 . S
C2666 H2662 0.949 . S
C2666 C2674 1.574 . S
C2666 C2682 1.368 . S
H2667 C2675 0.950 . S
H2668 C2673 0.950 . S
H2669 C2674 0.949 . S
H2670 C2676 0.950 . S
H2671 C2677 0.950 . S
H2672 C2678 0.949 . S
C2673 H2668 0.950 . S
C2673 C2675 1.327 . S
C2673 C2679 1.429 . S
C2674 C2666 1.574 . S
C2674 H2669 0.949 . S
C2674 C2680 1.368 . S
C2675 C2659 1.349 . S
C2675 H2667 0.950 . S
C2675 C2673 1.327 . S
C2676 C2664 1.349 . S
C2676 H2670 0.950 . S
C2676 C2677 1.327 . S
C2677 H2671 0.950 . S
C2677 C2676 1.327 . S
C2677 C2681 1.429 . S
C2678 C2661 1.574 . S
C2678 H2672 0.949 . S
C2678 C2682 1.368 . S
C2679 C2660 1.429 . S
C2679 C2673 1.429 . S
C2679 C2680 1.523 . S
C2680 C2661 1.368 . S
C2680 C2674 1.368 . S
C2680 C2679 1.523 . S
C2681 C2665 1.429 . S
C2681 C2677 1.429 . S
C2681 C2682 1.523 . S
C2682 C2666 1.368 . S
C2682 C2678 1.368 . S
C2682 C2681 1.523 . S
H2683 C2658 0.950 . S
H2684 C2660 0.950 . S
H2685 C2661 0.949 . S
H2686 C2663 0.950 . S
H2687 C2665 0.950 . S
C2688 C2689 1.349 . S
C2688 C2690 1.327 1_565 S
C2688 H2713 0.950 . S
C2689 C2688 1.349 . S
C2689 C2705 1.349 . S
C2690 C2688 1.327 1_545 S
C2690 C2709 1.429 . S
C2690 H2714 0.950 . S
C2691 C2708 1.574 . S
C2691 C2710 1.368 . S
C2691 H2715 0.949 . S
H2692 C2696 0.949 . S
C2693 C2694 1.349 . S
C2693 C2695 1.327 . S
C2693 H2716 0.950 . S
C2694 C2693 1.349 . S
C2694 C2706 1.349 . S
C2695 C2693 1.327 . S
C2695 C2711 1.429 . S
C2695 H2717 0.950 . S
C2696 H2692 0.949 . S
C2696 C2704 1.574 . S
C2696 C2712 1.368 . S
H2697 C2705 0.950 . S
H2698 C2703 0.950 . S
H2699 C2704 0.949 . S
H2700 C2706 0.950 . S
H2701 C2707 0.950 . S
H2702 C2708 0.949 . S
C2703 H2698 0.950 . S
C2703 C2705 1.327 . S
C2703 C2709 1.429 1_565 S
C2704 C2696 1.574 . S
C2704 H2699 0.949 . S
C2704 C2710 1.368 . S
C2705 C2689 1.349 . S
C2705 H2697 0.950 . S
C2705 C2703 1.327 . S
C2706 C2694 1.349 . S
C2706 H2700 0.950 . S
C2706 C2707 1.327 . S
C2707 H2701 0.950 . S
C2707 C2706 1.327 . S
C2707 C2711 1.429 . S
C2708 C2691 1.574 . S
C2708 H2702 0.949 . S
C2708 C2712 1.368 . S
C2709 C2690 1.429 . S
C2709 C2703 1.429 1_545 S
C2709 C2710 1.523 . S
C2710 C2691 1.368 . S
C2710 C2704 1.368 . S
C2710 C2709 1.523 . S
C2711 C2695 1.429 . S
C2711 C2707 1.429 . S
C2711 C2712 1.523 . S
C2712 C2696 1.368 . S
C2712 C2708 1.368 . S
C2712 C2711 1.523 . S
H2713 C2688 0.950 . S
H2714 C2690 0.950 . S
H2715 C2691 0.949 . S
H2716 C2693 0.950 . S
H2717 C2695 0.950 . S
C2718 C2719 1.349 . S
C2718 C2720 1.327 . S
C2718 H2743 0.950 . S
C2719 C2718 1.349 . S
C2719 C2735 1.349 . S
C2720 C2718 1.327 . S
C2720 C2739 1.429 . S
C2720 H2744 0.950 . S
C2721 C2738 1.574 . S
C2721 C2740 1.353 . S
C2721 H2745 0.949 1_455 S
H2722 C2726 0.949 . S
C2723 C2724 1.349 . S
C2723 C2725 1.327 . S
C2723 H2746 0.950 . S
C2724 C2723 1.349 . S
C2724 C2736 1.349 . S
C2725 C2723 1.327 . S
C2725 C2741 1.429 . S
C2725 H2747 0.950 . S
C2726 H2722 0.949 . S
C2726 C2734 1.574 . S
C2726 C2742 1.368 . S
H2727 C2735 0.950 . S
H2728 C2733 0.950 . S
H2729 C2734 0.949 . S
H2730 C2736 0.950 . S
H2731 C2737 0.950 . S
H2732 C2738 0.949 . S
C2733 H2728 0.950 . S
C2733 C2735 1.327 . S
C2733 C2739 1.429 . S
C2734 C2726 1.574 . S
C2734 H2729 0.949 . S
C2734 C2740 1.379 . S
C2735 C2719 1.349 . S
C2735 H2727 0.950 . S
C2735 C2733 1.327 . S
C2736 C2724 1.349 . S
C2736 H2730 0.950 . S
C2736 C2737 1.327 . S
C2737 H2731 0.950 . S
C2737 C2736 1.327 . S
C2737 C2741 1.429 . S
C2738 C2721 1.574 . S
C2738 H2732 0.949 . S
C2738 C2742 1.368 . S
C2739 C2720 1.429 . S
C2739 C2733 1.429 . S
C2739 C2740 1.532 1_655 S
C2740 C2721 1.353 . S
C2740 C2734 1.379 . S
C2740 C2739 1.532 1_455 S
C2741 C2725 1.429 . S
C2741 C2737 1.429 . S
C2741 C2742 1.523 . S
C2742 C2726 1.368 . S
C2742 C2738 1.368 . S
C2742 C2741 1.523 . S
H2743 C2718 0.950 . S
H2744 C2720 0.950 . S
H2745 C2721 0.949 1_655 S
H2746 C2723 0.950 . S
H2747 C2725 0.950 . S
C2748 C2749 1.349 . S
C2748 C2750 1.327 . S
C2748 H2773 0.950 . S
C2749 C2748 1.349 . S
C2749 C2765 1.349 . S
C2750 C2748 1.327 . S
C2750 C2769 1.429 . S
C2750 H2774 0.950 . S
C2751 C2768 1.574 . S
C2751 C2770 1.368 . S
C2751 H2775 0.949 . S
H2752 C2756 0.949 . S
C2753 C2754 1.349 . S
C2753 C2755 1.327 . S
C2753 H2776 0.950 . S
C2754 C2753 1.349 . S
C2754 C2766 1.349 . S
C2755 C2753 1.327 . S
C2755 C2771 1.429 . S
C2755 H2777 0.950 . S
C2756 H2752 0.949 . S
C2756 C2764 1.574 . S
C2756 C2772 1.368 . S
H2757 C2765 0.950 . S
H2758 C2763 0.950 . S
H2759 C2764 0.949 . S
H2760 C2766 0.950 . S
H2761 C2767 0.950 . S
H2762 C2768 0.949 . S
C2763 H2758 0.950 . S
C2763 C2765 1.327 . S
C2763 C2769 1.429 . S
C2764 C2756 1.574 . S
C2764 H2759 0.949 . S
C2764 C2770 1.368 . S
C2765 C2749 1.349 . S
C2765 H2757 0.950 . S
C2765 C2763 1.327 . S
C2766 C2754 1.349 . S
C2766 H2760 0.950 . S
C2766 C2767 1.327 . S
C2767 H2761 0.950 . S
C2767 C2766 1.327 . S
C2767 C2771 1.429 . S
C2768 C2751 1.574 . S
C2768 H2762 0.949 . S
C2768 C2772 1.368 . S
C2769 C2750 1.429 . S
C2769 C2763 1.429 . S
C2769 C2770 1.523 . S
C2770 C2751 1.368 . S
C2770 C2764 1.368 . S
C2770 C2769 1.523 . S
C2771 C2755 1.429 . S
C2771 C2767 1.429 . S
C2771 C2772 1.523 . S
C2772 C2756 1.368 . S
C2772 C2768 1.368 . S
C2772 C2771 1.523 . S
H2773 C2748 0.950 . S
H2774 C2750 0.950 . S
H2775 C2751 0.949 . S
H2776 C2753 0.950 . S
H2777 C2755 0.950 . S
C2778 C2779 1.349 . S
C2778 C2780 1.327 . S
C2778 H2803 0.950 . S
C2779 C2778 1.349 . S
C2779 C2795 1.349 . S
C2780 C2778 1.327 . S
C2780 C2799 1.429 . S
C2780 H2804 0.950 . S
C2781 C2798 1.574 . S
C2781 C2800 1.394 . S
C2781 H2805 0.949 . S
H2782 C2786 0.949 . S
C2783 C2784 1.349 . S
C2783 C2785 1.327 . S
C2783 H2806 0.950 . S
C2784 C2783 1.349 . S
C2784 C2796 1.349 . S
C2785 C2783 1.327 . S
C2785 C2801 1.429 . S
C2785 H2807 0.950 . S
C2786 H2782 0.949 . S
C2786 C2794 1.556 1_565 S
C2786 C2802 1.368 . S
H2787 C2795 0.950 . S
H2788 C2793 0.950 . S
H2789 C2794 0.968 . S
H2790 C2796 0.950 . S
H2791 C2797 0.950 . S
H2792 C2798 0.949 . S
C2793 H2788 0.950 . S
C2793 C2795 1.327 . S
C2793 C2799 1.429 . S
C2794 C2786 1.556 1_545 S
C2794 H2789 0.968 . S
C2794 C2800 1.362 1_545 S
C2795 C2779 1.349 . S
C2795 H2787 0.950 . S
C2795 C2793 1.327 . S
C2796 C2784 1.349 . S
C2796 H2790 0.950 . S
C2796 C2797 1.327 . S
C2797 H2791 0.950 . S
C2797 C2796 1.327 . S
C2797 C2801 1.429 . S
C2798 C2781 1.574 . S
C2798 H2792 0.949 . S
C2798 C2802 1.368 . S
C2799 C2780 1.429 . S
C2799 C2793 1.429 . S
C2799 C2800 1.497 1_545 S
C2800 C2781 1.394 . S
C2800 C2794 1.362 1_565 S
C2800 C2799 1.497 1_565 S
C2801 C2785 1.429 . S
C2801 C2797 1.429 . S
C2801 C2802 1.523 . S
C2802 C2786 1.368 . S
C2802 C2798 1.368 . S
C2802 C2801 1.523 . S
H2803 C2778 0.950 . S
H2804 C2780 0.950 . S
H2805 C2781 0.949 . S
H2806 C2783 0.950 . S
H2807 C2785 0.950 . S
C2808 C2809 1.349 . S
C2808 C2810 1.327 . S
C2808 H2833 0.950 . S
C2809 C2808 1.349 . S
C2809 C2825 1.349 . S
C2810 C2808 1.327 . S
C2810 C2829 1.429 . S
C2810 H2834 0.950 . S
C2811 C2828 1.574 . S
C2811 C2830 1.368 . S
C2811 H2835 0.949 . S
H2812 C2816 0.949 . S
C2813 C2814 1.349 . S
C2813 C2815 1.327 . S
C2813 H2836 0.950 . S
C2814 C2813 1.349 . S
C2814 C2826 1.349 . S
C2815 C2813 1.327 . S
C2815 C2831 1.429 . S
C2815 H2837 0.950 . S
C2816 H2812 0.949 . S
C2816 C2824 1.574 . S
C2816 C2832 1.356 . S
H2817 C2825 0.950 . S
H2818 C2823 0.950 . S
H2819 C2824 0.949 . S
H2820 C2826 0.950 . S
H2821 C2827 0.950 . S
H2822 C2828 0.954 1_545 S
C2823 H2818 0.950 . S
C2823 C2825 1.327 . S
C2823 C2829 1.429 . S
C2824 C2816 1.574 . S
C2824 H2819 0.949 . S
C2824 C2830 1.368 . S
C2825 C2809 1.349 . S
C2825 H2817 0.950 . S
C2825 C2823 1.327 . S
C2826 C2814 1.349 . S
C2826 H2820 0.950 . S
C2826 C2827 1.327 . S
C2827 H2821 0.950 . S
C2827 C2826 1.327 . S
C2827 C2831 1.429 . S
C2828 C2811 1.574 . S
C2828 H2822 0.954 1_565 S
C2828 C2832 1.375 . S
C2829 C2810 1.429 . S
C2829 C2823 1.429 . S
C2829 C2830 1.523 . S
C2830 C2811 1.368 . S
C2830 C2824 1.368 . S
C2830 C2829 1.523 . S
C2831 C2815 1.429 . S
C2831 C2827 1.429 . S
C2831 C2832 1.532 1_545 S
C2832 C2816 1.356 . S
C2832 C2828 1.375 . S
C2832 C2831 1.532 1_565 S
H2833 C2808 0.950 . S
H2834 C2810 0.950 . S
H2835 C2811 0.949 . S
H2836 C2813 0.950 . S
H2837 C2815 0.950 . S
C2838 C2839 1.349 . S
C2838 C2840 1.327 . S
C2838 H2863 0.950 . S
C2839 C2838 1.349 . S
C2839 C2855 1.349 . S
C2840 C2838 1.327 . S
C2840 C2859 1.429 . S
C2840 H2864 0.950 . S
C2841 C2858 1.574 . S
C2841 C2860 1.367 . S
C2841 H2865 0.949 1_455 S
H2842 C2846 0.949 . S
C2843 C2844 1.349 . S
C2843 C2845 1.327 . S
C2843 H2866 0.950 . S
C2844 C2843 1.349 . S
C2844 C2856 1.349 . S
C2845 C2843 1.327 . S
C2845 C2861 1.429 . S
C2845 H2867 0.950 . S
C2846 H2842 0.949 . S
C2846 C2854 1.574 . S
C2846 C2862 1.368 . S
H2847 C2855 0.950 . S
H2848 C2853 0.950 . S
H2849 C2854 0.949 . S
H2850 C2856 0.950 . S
H2851 C2857 0.950 . S
H2852 C2858 0.949 . S
C2853 H2848 0.950 . S
C2853 C2855 1.327 . S
C2853 C2859 1.429 . S
C2854 C2846 1.574 . S
C2854 H2849 0.949 . S
C2854 C2860 1.392 . S
C2855 C2839 1.349 . S
C2855 H2847 0.950 . S
C2855 C2853 1.327 . S
C2856 C2844 1.349 . S
C2856 H2850 0.950 . S
C2856 C2857 1.327 . S
C2857 H2851 0.950 . S
C2857 C2856 1.327 . S
C2857 C2861 1.429 . S
C2858 C2841 1.574 . S
C2858 H2852 0.949 . S
C2858 C2862 1.368 . S
C2859 C2840 1.429 . S
C2859 C2853 1.429 . S
C2859 C2860 1.497 1_655 S
C2860 C2841 1.367 . S
C2860 C2854 1.392 . S
C2860 C2859 1.497 1_455 S
C2861 C2845 1.429 . S
C2861 C2857 1.429 . S
C2861 C2862 1.523 . S
C2862 C2846 1.368 . S
C2862 C2858 1.368 . S
C2862 C2861 1.523 . S
H2863 C2838 0.950 . S
H2864 C2840 0.950 . S
H2865 C2841 0.949 1_655 S
H2866 C2843 0.950 . S
H2867 C2845 0.950 . S
C2868 C2869 1.349 . S
C2868 C2870 1.327 . S
C2868 H2893 0.950 . S
C2869 C2868 1.349 . S
C2869 C2885 1.349 . S
C2870 C2868 1.327 . S
C2870 C2889 1.429 . S
C2870 H2894 0.950 . S
C2871 C2888 1.574 . S
C2871 C2890 1.368 . S
C2871 H2895 0.949 . S
H2872 C2876 0.949 . S
C2873 C2874 1.349 . S
C2873 C2875 1.327 . S
C2873 H2896 0.950 . S
C2874 C2873 1.349 . S
C2874 C2886 1.349 . S
C2875 C2873 1.327 . S
C2875 C2891 1.429 . S
C2875 H2897 0.950 . S
C2876 H2872 0.949 . S
C2876 C2884 1.574 . S
C2876 C2892 1.368 . S
H2877 C2885 0.950 . S
H2878 C2883 0.950 . S
H2879 C2884 0.949 . S
H2880 C2886 0.950 . S
H2881 C2887 0.950 . S
H2882 C2888 0.949 . S
C2883 H2878 0.950 . S
C2883 C2885 1.327 . S
C2883 C2889 1.429 . S
C2884 C2876 1.574 . S
C2884 H2879 0.949 . S
C2884 C2890 1.368 . S
C2885 C2869 1.349 . S
C2885 H2877 0.950 . S
C2885 C2883 1.327 . S
C2886 C2874 1.349 . S
C2886 H2880 0.950 . S
C2886 C2887 1.327 . S
C2887 H2881 0.950 . S
C2887 C2886 1.327 . S
C2887 C2891 1.429 . S
C2888 C2871 1.574 . S
C2888 H2882 0.949 . S
C2888 C2892 1.368 . S
C2889 C2870 1.429 . S
C2889 C2883 1.429 . S
C2889 C2890 1.523 . S
C2890 C2871 1.368 . S
C2890 C2884 1.368 . S
C2890 C2889 1.523 . S
C2891 C2875 1.429 . S
C2891 C2887 1.429 . S
C2891 C2892 1.523 . S
C2892 C2876 1.368 . S
C2892 C2888 1.368 . S
C2892 C2891 1.523 . S
H2893 C2868 0.950 . S
H2894 C2870 0.950 . S
H2895 C2871 0.949 . S
H2896 C2873 0.950 . S
H2897 C2875 0.950 . S
C2898 C2899 1.349 . S
C2898 C2900 1.327 . S
C2898 H2923 0.950 . S
C2899 C2898 1.349 . S
C2899 C2915 1.349 . S
C2900 C2898 1.327 . S
C2900 C2919 1.429 1_565 S
C2900 H2924 0.950 . S
C2901 C2918 1.574 . S
C2901 C2920 1.368 . S
C2901 H2925 0.949 . S
H2902 C2906 0.949 . S
C2903 C2904 1.349 . S
C2903 C2905 1.327 . S
C2903 H2926 0.950 . S
C2904 C2903 1.349 . S
C2904 C2916 1.349 . S
C2905 C2903 1.327 . S
C2905 C2921 1.429 . S
C2905 H2927 0.953 1_554 S
C2906 H2902 0.949 . S
C2906 C2914 1.574 . S
C2906 C2922 1.368 . S
H2907 C2915 0.950 . S
H2908 C2913 0.950 . S
H2909 C2914 0.949 . S
H2910 C2916 0.950 . S
H2911 C2917 0.950 . S
H2912 C2918 0.949 . S
C2913 H2908 0.950 . S
C2913 C2915 1.327 1_545 S
C2913 C2919 1.429 . S
C2914 C2906 1.574 . S
C2914 H2909 0.949 . S
C2914 C2920 1.368 1_554 S
C2915 C2899 1.349 . S
C2915 H2907 0.950 . S
C2915 C2913 1.327 1_565 S
C2916 C2904 1.349 . S
C2916 H2910 0.950 . S
C2916 C2917 1.327 . S
C2917 H2911 0.950 . S
C2917 C2916 1.327 . S
C2917 C2921 1.429 . S
C2918 C2901 1.574 . S
C2918 H2912 0.949 . S
C2918 C2922 1.368 1_556 S
C2919 C2900 1.429 1_545 S
C2919 C2913 1.429 . S
C2919 C2920 1.523 . S
C2920 C2901 1.368 . S
C2920 C2914 1.368 1_556 S
C2920 C2919 1.523 . S
C2921 C2905 1.429 . S
C2921 C2917 1.429 . S
C2921 C2922 1.523 . S
C2922 C2906 1.368 . S
C2922 C2918 1.368 1_554 S
C2922 C2921 1.523 . S
H2923 C2898 0.950 . S
H2924 C2900 0.950 . S
H2925 C2901 0.949 . S
H2926 C2903 0.950 . S
H2927 C2905 0.953 1_556 S
C2928 C2929 1.349 . S
C2928 C2930 1.327 . S
C2928 H2953 0.950 . S
C2929 C2928 1.349 . S
C2929 C2945 1.349 . S
C2930 C2928 1.327 . S
C2930 C2949 1.429 . S
C2930 H2954 0.950 . S
C2931 C2948 1.574 . S
C2931 C2950 1.368 1_556 S
C2931 H2955 0.949 . S
H2932 C2936 0.949 . S
C2933 C2934 1.349 . S
C2933 C2935 1.327 1_455 S
C2933 H2956 0.950 . S
C2934 C2933 1.349 . S
C2934 C2946 1.349 . S
C2935 C2933 1.327 1_655 S
C2935 C2951 1.429 . S
C2935 H2957 0.950 . S
C2936 H2932 0.949 . S
C2936 C2944 1.574 . S
C2936 C2952 1.368 1_554 S
H2937 C2945 0.950 . S
H2938 C2943 0.923 1_556 S
H2939 C2944 0.949 . S
H2940 C2946 0.950 . S
H2941 C2947 0.950 . S
H2942 C2948 0.949 . S
C2943 H2938 0.923 1_554 S
C2943 C2945 1.327 . S
C2943 C2949 1.429 . S
C2944 C2936 1.574 . S
C2944 H2939 0.949 . S
C2944 C2950 1.368 . S
C2945 C2929 1.349 . S
C2945 H2937 0.950 . S
C2945 C2943 1.327 . S
C2946 C2934 1.349 . S
C2946 H2940 0.950 . S
C2946 C2947 1.327 . S
C2947 H2941 0.950 . S
C2947 C2946 1.327 . S
C2947 C2951 1.429 1_455 S
C2948 C2931 1.574 . S
C2948 H2942 0.949 . S
C2948 C2952 1.368 . S
C2949 C2930 1.429 . S
C2949 C2943 1.429 . S
C2949 C2950 1.523 . S
C2950 C2931 1.368 1_554 S
C2950 C2944 1.368 . S
C2950 C2949 1.523 . S
C2951 C2935 1.429 . S
C2951 C2947 1.429 1_655 S
C2951 C2952 1.523 . S
C2952 C2936 1.368 1_556 S
C2952 C2948 1.368 . S
C2952 C2951 1.523 . S
H2953 C2928 0.950 . S
H2954 C2930 0.950 . S
H2955 C2931 0.949 . S
H2956 C2933 0.950 . S
H2957 C2935 0.950 . S
C2958 C2959 1.349 . S
C2958 C2960 1.327 . S
C2958 H2983 0.950 . S
C2959 C2958 1.349 . S
C2959 C2975 1.349 . S
C2960 C2958 1.327 . S
C2960 C2979 1.429 . S
C2960 H2984 0.950 . S
C2961 C2978 1.551 1_554 S
C2961 C2980 1.385 . S
C2961 H2985 0.956 . S
H2962 C2966 0.949 . S
C2963 C2964 1.349 . S
C2963 C2965 1.327 . S
C2963 H2986 0.950 . S
C2964 C2963 1.349 . S
C2964 C2976 1.349 . S
C2965 C2963 1.327 . S
C2965 C2981 1.429 . S
C2965 H2987 0.950 . S
C2966 H2962 0.949 . S
C2966 C2974 1.574 1_556 S
C2966 C2982 1.368 . S
H2967 C2975 0.950 . S
H2968 C2973 0.950 . S
H2969 C2974 0.949 . S
H2970 C2976 0.950 . S
H2971 C2977 0.950 . S
H2972 C2978 0.949 . S
C2973 H2968 0.950 . S
C2973 C2975 1.327 . S
C2973 C2979 1.429 . S
C2974 C2966 1.574 1_554 S
C2974 H2969 0.949 . S
C2974 C2980 1.368 . S
C2975 C2959 1.349 . S
C2975 H2967 0.950 . S
C2975 C2973 1.327 . S
C2976 C2964 1.349 . S
C2976 H2970 0.950 . S
C2976 C2977 1.327 . S
C2977 H2971 0.950 . S
C2977 C2976 1.327 . S
C2977 C2981 1.429 . S
C2978 C2961 1.551 1_556 S
C2978 H2972 0.949 . S
C2978 C2982 1.368 . S
C2979 C2960 1.429 . S
C2979 C2973 1.429 . S
C2979 C2980 1.523 . S
C2980 C2961 1.385 . S
C2980 C2974 1.368 . S
C2980 C2979 1.523 . S
C2981 C2965 1.429 . S
C2981 C2977 1.429 . S
C2981 C2982 1.523 . S
C2982 C2966 1.368 . S
C2982 C2978 1.368 . S
C2982 C2981 1.523 . S
H2983 C2958 0.950 . S
H2984 C2960 0.950 . S
H2985 C2961 0.956 . S
H2986 C2963 0.950 . S
H2987 C2965 0.950 . S
C2988 C2989 1.349 . S
C2988 C2990 1.327 . S
C2988 H3013 0.950 . S
C2989 C2988 1.349 . S
C2989 C3005 1.349 . S
C2990 C2988 1.327 . S
C2990 C3009 1.429 . S
C2990 H3014 0.950 1_545 S
C2991 C3008 1.574 . S
C2991 C3010 1.368 . S
C2991 H3015 0.949 . S
H2992 C2996 0.949 . S
C2993 C2994 1.349 1_545 S
C2993 C2995 1.327 . S
C2993 H3016 0.950 . S
C2994 C2993 1.349 1_565 S
C2994 C3006 1.349 . S
C2995 C2993 1.327 . S
C2995 C3011 1.429 1_545 S
C2995 H3017 0.950 . S
C2996 H2992 0.949 . S
C2996 C3004 1.574 . S
C2996 C3012 1.329 1_565 S
H2997 C3005 0.950 . S
H2998 C3003 0.950 . S
H2999 C3004 0.949 . S
H3000 C3006 0.950 . S
H3001 C3007 0.950 . S
H3002 C3008 0.949 . S
C3003 H2998 0.950 . S
C3003 C3005 1.327 . S
C3003 C3009 1.429 . S
C3004 C2996 1.574 . S
C3004 H2999 0.949 . S
C3004 C3010 1.368 1_565 S
C3005 C2989 1.349 . S
C3005 H2997 0.950 . S
C3005 C3003 1.327 . S
C3006 C2994 1.349 . S
C3006 H3000 0.950 . S
C3006 C3007 1.327 . S
C3007 H3001 0.950 . S
C3007 C3006 1.327 . S
C3007 C3011 1.429 . S
C3008 C2991 1.574 . S
C3008 H3002 0.949 . S
C3008 C3012 1.402 . S
C3009 C2990 1.429 . S
C3009 C3003 1.429 . S
C3009 C3010 1.523 . S
C3010 C2991 1.368 . S
C3010 C3004 1.368 1_545 S
C3010 C3009 1.523 . S
C3011 C2995 1.429 1_565 S
C3011 C3007 1.429 . S
C3011 C3012 1.532 1_565 S
C3012 C2996 1.329 1_545 S
C3012 C3008 1.402 . S
C3012 C3011 1.532 1_545 S
H3013 C2988 0.950 . S
H3014 C2990 0.950 1_565 S
H3015 C2991 0.949 . S
H3016 C2993 0.950 . S
H3017 C2995 0.950 . S
C3018 C3019 1.349 . S
C3018 C3020 1.327 . S
C3018 H3043 0.950 . S
C3019 C3018 1.349 . S
C3019 C3035 1.349 . S
C3020 C3018 1.327 . S
C3020 C3039 1.429 . S
C3020 H3044 0.950 1_655 S
C3021 C3038 1.574 . S
C3021 C3040 1.368 . S
C3021 H3045 0.949 . S
H3022 C3026 0.949 . S
C3023 C3024 1.349 1_655 S
C3023 C3025 1.327 . S
C3023 H3046 0.950 . S
C3024 C3023 1.349 1_455 S
C3024 C3036 1.349 . S
C3025 C3023 1.327 . S
C3025 C3041 1.429 1_655 S
C3025 H3047 0.950 . S
C3026 H3022 0.949 . S
C3026 C3034 1.574 . S
C3026 C3042 1.349 1_455 S
H3027 C3035 0.950 . S
H3028 C3033 0.950 . S
H3029 C3034 0.949 . S
H3030 C3036 0.950 . S
H3031 C3037 0.950 . S
H3032 C3038 0.949 . S
C3033 H3028 0.950 . S
C3033 C3035 1.327 . S
C3033 C3039 1.429 . S
C3034 C3026 1.574 . S
C3034 H3029 0.949 . S
C3034 C3040 1.368 1_455 S
C3035 C3019 1.349 . S
C3035 H3027 0.950 . S
C3035 C3033 1.327 . S
C3036 C3024 1.349 . S
C3036 H3030 0.950 . S
C3036 C3037 1.327 . S
C3037 H3031 0.950 . S
C3037 C3036 1.327 . S
C3037 C3041 1.429 . S
C3038 C3021 1.574 . S
C3038 H3032 0.949 . S
C3038 C3042 1.408 . S
C3039 C3020 1.429 . S
C3039 C3033 1.429 . S
C3039 C3040 1.523 . S
C3040 C3021 1.368 . S
C3040 C3034 1.368 1_655 S
C3040 C3039 1.523 . S
C3041 C3025 1.429 1_455 S
C3041 C3037 1.429 . S
C3041 C3042 1.497 1_455 S
C3042 C3026 1.349 1_655 S
C3042 C3038 1.408 . S
C3042 C3041 1.497 1_655 S
H3043 C3018 0.950 . S
H3044 C3020 0.950 1_455 S
H3045 C3021 0.949 . S
H3046 C3023 0.950 . S
H3047 C3025 0.950 . S
C3048 C3049 1.349 . S
C3048 C3050 1.327 . S
C3048 H3073 0.950 . S
C3049 C3048 1.349 . S
C3049 C3065 1.349 . S
C3050 C3048 1.327 . S
C3050 C3069 1.429 . S
C3050 H3074 0.950 . S
C3051 C3068 1.574 . S
C3051 C3070 1.368 . S
C3051 H3075 0.949 . S
H3052 C3056 0.949 . S
C3053 C3054 1.349 . S
C3053 C3055 1.327 . S
C3053 H3076 0.950 . S
C3054 C3053 1.349 . S
C3054 C3066 1.349 . S
C3055 C3053 1.327 . S
C3055 C3071 1.429 . S
C3055 H3077 0.950 . S
C3056 H3052 0.949 . S
C3056 C3064 1.574 . S
C3056 C3072 1.368 . S
H3057 C3065 0.950 . S
H3058 C3063 0.950 . S
H3059 C3064 0.949 . S
H3060 C3066 0.950 . S
H3061 C3067 0.950 . S
H3062 C3068 0.949 . S
C3063 H3058 0.950 . S
C3063 C3065 1.327 . S
C3063 C3069 1.429 . S
C3064 C3056 1.574 . S
C3064 H3059 0.949 . S
C3064 C3070 1.368 . S
C3065 C3049 1.349 . S
C3065 H3057 0.950 . S
C3065 C3063 1.327 . S
C3066 C3054 1.349 . S
C3066 H3060 0.950 . S
C3066 C3067 1.327 . S
C3067 H3061 0.950 . S
C3067 C3066 1.327 . S
C3067 C3071 1.429 . S
C3068 C3051 1.574 . S
C3068 H3062 0.949 . S
C3068 C3072 1.368 . S
C3069 C3050 1.429 . S
C3069 C3063 1.429 . S
C3069 C3070 1.523 . S
C3070 C3051 1.368 . S
C3070 C3064 1.368 . S
C3070 C3069 1.523 . S
C3071 C3055 1.429 . S
C3071 C3067 1.429 . S
C3071 C3072 1.523 . S
C3072 C3056 1.368 . S
C3072 C3068 1.368 . S
C3072 C3071 1.523 . S
H3073 C3048 0.950 . S
H3074 C3050 0.950 . S
H3075 C3051 0.949 . S
H3076 C3053 0.950 . S
H3077 C3055 0.950 . S
C3078 C3079 1.349 . S
C3078 C3080 1.327 . S
C3078 H3103 0.950 . S
C3079 C3078 1.349 . S
C3079 C3095 1.349 . S
C3080 C3078 1.327 . S
C3080 C3099 1.429 . S
C3080 H3104 0.950 1_556 S
C3081 C3098 1.574 . S
C3081 C3100 1.368 . S
C3081 H3105 0.949 . S
H3082 C3086 0.949 . S
C3083 C3084 1.349 . S
C3083 C3085 1.327 . S
C3083 H3106 0.950 . S
C3084 C3083 1.349 . S
C3084 C3096 1.349 . S
C3085 C3083 1.327 . S
C3085 C3101 1.429 1_545 S
C3085 H3107 0.983 . S
C3086 H3082 0.949 . S
C3086 C3094 1.574 . S
C3086 C3102 1.368 . S
H3087 C3095 0.950 . S
H3088 C3093 0.950 . S
H3089 C3094 0.949 . S
H3090 C3096 0.950 . S
H3091 C3097 0.950 . S
H3092 C3098 0.949 . S
C3093 H3088 0.950 . S
C3093 C3095 1.327 . S
C3093 C3099 1.429 . S
C3094 C3086 1.574 . S
C3094 H3089 0.949 . S
C3094 C3100 1.368 1_554 S
C3095 C3079 1.349 . S
C3095 H3087 0.950 . S
C3095 C3093 1.327 . S
C3096 C3084 1.349 . S
C3096 H3090 0.950 . S
C3096 C3097 1.327 1_545 S
C3097 H3091 0.950 . S
C3097 C3096 1.327 1_565 S
C3097 C3101 1.429 . S
C3098 C3081 1.574 . S
C3098 H3092 0.949 . S
C3098 C3102 1.368 1_556 S
C3099 C3080 1.429 . S
C3099 C3093 1.429 . S
C3099 C3100 1.523 . S
C3100 C3081 1.368 . S
C3100 C3094 1.368 1_556 S
C3100 C3099 1.523 . S
C3101 C3085 1.429 1_565 S
C3101 C3097 1.429 . S
C3101 C3102 1.523 . S
C3102 C3086 1.368 . S
C3102 C3098 1.368 1_554 S
C3102 C3101 1.523 . S
H3103 C3078 0.950 . S
H3104 C3080 0.950 1_554 S
H3105 C3081 0.949 . S
H3106 C3083 0.950 . S
H3107 C3085 0.983 . S
C3108 C3109 1.349 . S
C3108 C3110 1.327 1_655 S
C3108 H3133 0.950 . S
C3109 C3108 1.349 . S
C3109 C3125 1.349 . S
C3110 C3108 1.327 1_455 S
C3110 C3129 1.429 . S
C3110 H3134 0.950 . S
C3111 C3128 1.574 . S
C3111 C3130 1.368 1_556 S
C3111 H3135 0.949 . S
H3112 C3116 0.949 . S
C3113 C3114 1.349 . S
C3113 C3115 1.327 . S
C3113 H3136 0.950 . S
C3114 C3113 1.349 . S
C3114 C3126 1.349 . S
C3115 C3113 1.327 . S
C3115 C3131 1.429 . S
C3115 H3137 0.950 . S
C3116 H3112 0.949 . S
C3116 C3124 1.574 . S
C3116 C3132 1.368 1_554 S
H3117 C3125 0.950 . S
H3118 C3123 0.989 . S
H3119 C3124 0.949 . S
H3120 C3126 0.950 . S
H3121 C3127 0.782 1_554 S
H3122 C3128 0.949 . S
C3123 H3118 0.989 . S
C3123 C3125 1.327 . S
C3123 C3129 1.429 1_655 S
C3124 C3116 1.574 . S
C3124 H3119 0.949 . S
C3124 C3130 1.368 . S
C3125 C3109 1.349 . S
C3125 H3117 0.950 . S
C3125 C3123 1.327 . S
C3126 C3114 1.349 . S
C3126 H3120 0.950 . S
C3126 C3127 1.327 . S
C3127 H3121 0.782 1_556 S
C3127 C3126 1.327 . S
C3127 C3131 1.429 . S
C3128 C3111 1.574 . S
C3128 H3122 0.949 . S
C3128 C3132 1.368 . S
C3129 C3110 1.429 . S
C3129 C3123 1.429 1_455 S
C3129 C3130 1.523 . S
C3130 C3111 1.368 1_554 S
C3130 C3124 1.368 . S
C3130 C3129 1.523 . S
C3131 C3115 1.429 . S
C3131 C3127 1.429 . S
C3131 C3132 1.523 . S
C3132 C3116 1.368 1_556 S
C3132 C3128 1.368 . S
C3132 C3131 1.523 . S
H3133 C3108 0.950 . S
H3134 C3110 0.950 . S
H3135 C3111 0.949 . S
H3136 C3113 0.950 . S
H3137 C3115 0.950 . S
C3138 C3139 1.349 . S
C3138 C3140 1.327 . S
C3138 H3163 0.950 . S
C3139 C3138 1.349 . S
C3139 C3155 1.349 . S
C3140 C3138 1.327 . S
C3140 C3159 1.429 . S
C3140 H3164 0.950 . S
C3141 C3158 1.574 . S
C3141 C3160 1.368 1_554 S
C3141 H3165 0.949 . S
H3142 C3146 0.949 . S
C3143 C3144 1.349 . S
C3143 C3145 1.327 . S
C3143 H3166 0.950 . S
C3144 C3143 1.349 . S
C3144 C3156 1.349 . S
C3145 C3143 1.327 . S
C3145 C3161 1.429 . S
C3145 H3167 0.950 . S
C3146 H3142 0.949 . S
C3146 C3154 1.574 . S
C3146 C3162 1.368 1_556 S
H3147 C3155 0.950 . S
H3148 C3153 0.787 1_554 S
H3149 C3154 0.949 . S
H3150 C3156 0.950 . S
H3151 C3157 0.994 . S
H3152 C3158 0.949 . S
C3153 H3148 0.787 1_556 S
C3153 C3155 1.327 . S
C3153 C3159 1.429 . S
C3154 C3146 1.574 . S
C3154 H3149 0.949 . S
C3154 C3160 1.368 . S
C3155 C3139 1.349 . S
C3155 H3147 0.950 . S
C3155 C3153 1.327 . S
C3156 C3144 1.349 . S
C3156 H3150 0.950 . S
C3156 C3157 1.327 . S
C3157 H3151 0.994 . S
C3157 C3156 1.327 . S
C3157 C3161 1.429 . S
C3158 C3141 1.574 . S
C3158 H3152 0.949 . S
C3158 C3162 1.368 . S
C3159 C3140 1.429 . S
C3159 C3153 1.429 . S
C3159 C3160 1.523 . S
C3160 C3141 1.368 1_556 S
C3160 C3154 1.368 . S
C3160 C3159 1.523 . S
C3161 C3145 1.429 . S
C3161 C3157 1.429 . S
C3161 C3162 1.523 . S
C3162 C3146 1.368 1_554 S
C3162 C3158 1.368 . S
C3162 C3161 1.523 . S
H3163 C3138 0.950 . S
H3164 C3140 0.950 . S
H3165 C3141 0.949 . S
H3166 C3143 0.950 . S
H3167 C3145 0.950 . S
C3168 C3169 1.349 . S
C3168 C3170 1.327 1_655 S
C3168 H3193 0.950 . S
C3169 C3168 1.349 . S
C3169 C3185 1.349 . S
C3170 C3168 1.327 1_455 S
C3170 C3189 1.429 . S
C3170 H3194 0.950 . S
C3171 C3188 1.574 . S
C3171 C3190 1.368 . S
C3171 H3195 0.949 . S
H3172 C3176 0.949 . S
C3173 C3174 1.349 . S
C3173 C3175 1.327 . S
C3173 H3196 0.950 . S
C3174 C3173 1.349 . S
C3174 C3186 1.349 . S
C3175 C3173 1.327 . S
C3175 C3191 1.429 . S
C3175 H3197 0.950 . S
C3176 H3172 0.949 . S
C3176 C3184 1.574 . S
C3176 C3192 1.368 . S
H3177 C3185 0.950 . S
H3178 C3183 0.950 . S
H3179 C3184 0.949 . S
H3180 C3186 0.950 . S
H3181 C3187 0.950 . S
H3182 C3188 0.949 . S
C3183 H3178 0.950 . S
C3183 C3185 1.327 . S
C3183 C3189 1.429 1_655 S
C3184 C3176 1.574 . S
C3184 H3179 0.949 . S
C3184 C3190 1.368 . S
C3185 C3169 1.349 . S
C3185 H3177 0.950 . S
C3185 C3183 1.327 . S
C3186 C3174 1.349 . S
C3186 H3180 0.950 . S
C3186 C3187 1.327 . S
C3187 H3181 0.950 . S
C3187 C3186 1.327 . S
C3187 C3191 1.429 . S
C3188 C3171 1.574 . S
C3188 H3182 0.949 . S
C3188 C3192 1.368 . S
C3189 C3170 1.429 . S
C3189 C3183 1.429 1_455 S
C3189 C3190 1.523 . S
C3190 C3171 1.368 . S
C3190 C3184 1.368 . S
C3190 C3189 1.523 . S
C3191 C3175 1.429 . S
C3191 C3187 1.429 . S
C3191 C3192 1.523 . S
C3192 C3176 1.368 . S
C3192 C3188 1.368 . S
C3192 C3191 1.523 . S
H3193 C3168 0.950 . S
H3194 C3170 0.950 . S
H3195 C3171 0.949 . S
H3196 C3173 0.950 . S
H3197 C3175 0.950 . S
C3198 C3199 1.349 . S
C3198 C3200 1.327 . S
C3198 H3223 0.950 . S
C3199 C3198 1.349 . S
C3199 C3215 1.349 . S
C3200 C3198 1.327 . S
C3200 C3219 1.429 . S
C3200 H3224 0.950 . S
C3201 C3218 1.574 . S
C3201 C3220 1.368 . S
C3201 H3225 0.949 . S
H3202 C3206 0.949 . S
C3203 C3204 1.349 . S
C3203 C3205 1.327 . S
C3203 H3226 0.950 . S
C3204 C3203 1.349 . S
C3204 C3216 1.349 . S
C3205 C3203 1.327 . S
C3205 C3221 1.429 . S
C3205 H3227 0.950 . S
C3206 H3202 0.949 . S
C3206 C3214 1.574 . S
C3206 C3222 1.368 . S
H3207 C3215 0.950 . S
H3208 C3213 0.950 . S
H3209 C3214 0.949 . S
H3210 C3216 0.950 . S
H3211 C3217 0.950 . S
H3212 C3218 0.949 . S
C3213 H3208 0.950 . S
C3213 C3215 1.327 . S
C3213 C3219 1.429 . S
C3214 C3206 1.574 . S
C3214 H3209 0.949 . S
C3214 C3220 1.368 . S
C3215 C3199 1.349 . S
C3215 H3207 0.950 . S
C3215 C3213 1.327 . S
C3216 C3204 1.349 . S
C3216 H3210 0.950 . S
C3216 C3217 1.327 . S
C3217 H3211 0.950 . S
C3217 C3216 1.327 . S
C3217 C3221 1.429 . S
C3218 C3201 1.574 . S
C3218 H3212 0.949 . S
C3218 C3222 1.368 . S
C3219 C3200 1.429 . S
C3219 C3213 1.429 . S
C3219 C3220 1.523 . S
C3220 C3201 1.368 . S
C3220 C3214 1.368 . S
C3220 C3219 1.523 . S
C3221 C3205 1.429 . S
C3221 C3217 1.429 . S
C3221 C3222 1.523 . S
C3222 C3206 1.368 . S
C3222 C3218 1.368 . S
C3222 C3221 1.523 . S
H3223 C3198 0.950 . S
H3224 C3200 0.950 . S
H3225 C3201 0.949 . S
H3226 C3203 0.950 . S
H3227 C3205 0.950 . S
C3228 C3229 1.349 . S
C3228 C3230 1.327 . S
C3228 H3253 0.950 . S
C3229 C3228 1.349 . S
C3229 C3245 1.349 . S
C3230 C3228 1.327 . S
C3230 C3249 1.429 . S
C3230 H3254 0.950 . S
C3231 C3248 1.574 . S
C3231 C3250 1.368 . S
C3231 H3255 0.949 . S
H3232 C3236 0.949 . S
C3233 C3234 1.349 . S
C3233 C3235 1.327 . S
C3233 H3256 0.950 . S
C3234 C3233 1.349 . S
C3234 C3246 1.349 . S
C3235 C3233 1.327 . S
C3235 C3251 1.429 1_545 S
C3235 H3257 0.950 . S
C3236 H3232 0.949 . S
C3236 C3244 1.574 . S
C3236 C3252 1.368 . S
H3237 C3245 0.950 . S
H3238 C3243 0.950 . S
H3239 C3244 0.949 . S
H3240 C3246 0.950 . S
H3241 C3247 0.950 . S
H3242 C3248 0.949 . S
C3243 H3238 0.950 . S
C3243 C3245 1.327 . S
C3243 C3249 1.429 . S
C3244 C3236 1.574 . S
C3244 H3239 0.949 . S
C3244 C3250 1.368 . S
C3245 C3229 1.349 . S
C3245 H3237 0.950 . S
C3245 C3243 1.327 . S
C3246 C3234 1.349 . S
C3246 H3240 0.950 . S
C3246 C3247 1.327 1_545 S
C3247 H3241 0.950 . S
C3247 C3246 1.327 1_565 S
C3247 C3251 1.429 . S
C3248 C3231 1.574 . S
C3248 H3242 0.949 . S
C3248 C3252 1.368 . S
C3249 C3230 1.429 . S
C3249 C3243 1.429 . S
C3249 C3250 1.523 . S
C3250 C3231 1.368 . S
C3250 C3244 1.368 . S
C3250 C3249 1.523 . S
C3251 C3235 1.429 1_565 S
C3251 C3247 1.429 . S
C3251 C3252 1.523 . S
C3252 C3236 1.368 . S
C3252 C3248 1.368 . S
C3252 C3251 1.523 . S
H3253 C3228 0.950 . S
H3254 C3230 0.950 . S
H3255 C3231 0.949 . S
H3256 C3233 0.950 . S
H3257 C3235 0.950 . S
C3258 C3259 1.349 . S
C3258 C3260 1.327 . S
C3258 H3283 0.950 . S
C3259 C3258 1.349 . S
C3259 C3275 1.349 . S
C3260 C3258 1.327 . S
C3260 C3279 1.429 . S
C3260 H3284 0.950 . S
C3261 C3278 1.574 . S
C3261 C3280 1.368 . S
C3261 H3285 0.949 . S
H3262 C3266 0.949 . S
C3263 C3264 1.349 . S
C3263 C3265 1.327 . S
C3263 H3286 0.950 . S
C3264 C3263 1.349 . S
C3264 C3276 1.349 . S
C3265 C3263 1.327 . S
C3265 C3281 1.429 . S
C3265 H3287 0.950 1_455 S
C3266 H3262 0.949 . S
C3266 C3274 1.574 1_455 S
C3266 C3282 1.343 1_455 S
H3267 C3275 0.950 . S
H3268 C3273 0.950 . S
H3269 C3274 0.942 1_455 S
H3270 C3276 0.950 . S
H3271 C3277 0.950 . S
H3272 C3278 0.949 . S
C3273 H3268 0.950 . S
C3273 C3275 1.327 . S
C3273 C3279 1.429 . S
C3274 C3266 1.574 1_655 S
C3274 H3269 0.942 1_655 S
C3274 C3280 1.368 . S
C3275 C3259 1.349 . S
C3275 H3267 0.950 . S
C3275 C3273 1.327 . S
C3276 C3264 1.349 . S
C3276 H3270 0.950 . S
C3276 C3277 1.327 . S
C3277 H3271 0.950 . S
C3277 C3276 1.327 . S
C3277 C3281 1.429 . S
C3278 C3261 1.574 . S
C3278 H3272 0.949 . S
C3278 C3282 1.389 . S
C3279 C3260 1.429 . S
C3279 C3273 1.429 . S
C3279 C3280 1.523 . S
C3280 C3261 1.368 . S
C3280 C3274 1.368 . S
C3280 C3279 1.523 . S
C3281 C3265 1.429 . S
C3281 C3277 1.429 . S
C3281 C3282 1.532 1_455 S
C3282 C3266 1.343 1_655 S
C3282 C3278 1.389 . S
C3282 C3281 1.532 1_655 S
H3283 C3258 0.950 . S
H3284 C3260 0.950 . S
H3285 C3261 0.949 . S
H3286 C3263 0.950 . S
H3287 C3265 0.950 1_655 S
C3288 C3289 1.349 . S
C3288 C3290 1.327 . S
C3288 H3313 0.950 . S
C3289 C3288 1.349 . S
C3289 C3305 1.349 . S
C3290 C3288 1.327 . S
C3290 C3309 1.429 . S
C3290 H3314 0.950 . S
C3291 C3308 1.574 . S
C3291 C3310 1.368 . S
C3291 H3315 0.949 . S
H3292 C3296 0.949 . S
C3293 C3294 1.349 . S
C3293 C3295 1.327 . S
C3293 H3316 0.950 . S
C3294 C3293 1.349 . S
C3294 C3306 1.349 . S
C3295 C3293 1.327 . S
C3295 C3311 1.429 . S
C3295 H3317 0.950 . S
C3296 H3292 0.949 . S
C3296 C3304 1.574 . S
C3296 C3312 1.368 . S
H3297 C3305 0.950 . S
H3298 C3303 0.950 . S
H3299 C3304 0.949 . S
H3300 C3306 0.950 . S
H3301 C3307 0.950 . S
H3302 C3308 0.949 . S
C3303 H3298 0.950 . S
C3303 C3305 1.327 . S
C3303 C3309 1.429 . S
C3304 C3296 1.574 . S
C3304 H3299 0.949 . S
C3304 C3310 1.368 . S
C3305 C3289 1.349 . S
C3305 H3297 0.950 . S
C3305 C3303 1.327 . S
C3306 C3294 1.349 . S
C3306 H3300 0.950 . S
C3306 C3307 1.327 . S
C3307 H3301 0.950 . S
C3307 C3306 1.327 . S
C3307 C3311 1.429 . S
C3308 C3291 1.574 . S
C3308 H3302 0.949 . S
C3308 C3312 1.368 . S
C3309 C3290 1.429 . S
C3309 C3303 1.429 . S
C3309 C3310 1.523 . S
C3310 C3291 1.368 . S
C3310 C3304 1.368 . S
C3310 C3309 1.523 . S
C3311 C3295 1.429 . S
C3311 C3307 1.429 . S
C3311 C3312 1.523 . S
C3312 C3296 1.368 . S
C3312 C3308 1.368 . S
C3312 C3311 1.523 . S
H3313 C3288 0.950 . S
H3314 C3290 0.950 . S
H3315 C3291 0.949 . S
H3316 C3293 0.950 . S
H3317 C3295 0.950 . S
C3318 C3319 1.349 . S
C3318 C3320 1.327 . S
C3318 H3343 0.950 . S
C3319 C3318 1.349 . S
C3319 C3335 1.349 . S
C3320 C3318 1.327 . S
C3320 C3339 1.429 . S
C3320 H3344 0.950 1_545 S
C3321 C3338 1.574 . S
C3321 C3340 1.368 . S
C3321 H3345 0.949 . S
H3322 C3326 0.949 . S
C3323 C3324 1.307 1_545 S
C3323 C3325 1.356 . S
C3323 H3346 0.965 . S
C3324 C3323 1.307 1_565 S
C3324 C3336 1.349 . S
C3325 C3323 1.356 . S
C3325 C3341 1.429 1_545 S
C3325 H3347 0.950 . S
C3326 H3322 0.949 . S
C3326 C3334 1.574 . S
C3326 C3342 1.350 1_565 S
H3327 C3335 0.950 . S
H3328 C3333 0.950 . S
H3329 C3334 0.949 . S
H3330 C3336 0.950 . S
H3331 C3337 0.950 . S
H3332 C3338 0.949 . S
C3333 H3328 0.950 . S
C3333 C3335 1.327 . S
C3333 C3339 1.429 . S
C3334 C3326 1.574 . S
C3334 H3329 0.949 . S
C3334 C3340 1.368 1_565 S
C3335 C3319 1.349 . S
C3335 H3327 0.950 . S
C3335 C3333 1.327 . S
C3336 C3324 1.349 . S
C3336 H3330 0.950 . S
C3336 C3337 1.327 . S
C3337 H3331 0.950 . S
C3337 C3336 1.327 . S
C3337 C3341 1.429 . S
C3338 C3321 1.574 . S
C3338 H3332 0.949 . S
C3338 C3342 1.408 . S
C3339 C3320 1.429 . S
C3339 C3333 1.429 . S
C3339 C3340 1.523 . S
C3340 C3321 1.368 . S
C3340 C3334 1.368 1_545 S
C3340 C3339 1.523 . S
C3341 C3325 1.429 1_565 S
C3341 C3337 1.429 . S
C3341 C3342 1.497 1_565 S
C3342 C3326 1.350 1_545 S
C3342 C3338 1.408 . S
C3342 C3341 1.497 1_545 S
H3343 C3318 0.950 . S
H3344 C3320 0.950 1_565 S
H3345 C3321 0.949 . S
H3346 C3323 0.965 . S
H3347 C3325 0.950 . S
C3348 C3349 1.349 . S
C3348 C3350 1.327 . S
C3348 H3373 0.950 . S
C3349 C3348 1.349 . S
C3349 C3365 1.349 . S
C3350 C3348 1.327 . S
C3350 C3369 1.429 . S
C3350 H3374 0.950 1_655 S
C3351 C3368 1.574 . S
C3351 C3370 1.368 . S
C3351 H3375 0.949 . S
H3352 C3356 0.949 . S
C3353 C3354 1.349 . S
C3353 C3355 1.327 . S
C3353 H3376 0.950 . S
C3354 C3353 1.349 . S
C3354 C3366 1.349 . S
C3355 C3353 1.327 . S
C3355 C3371 1.429 . S
C3355 H3377 0.950 1_455 S
C3356 H3352 0.949 . S
C3356 C3364 1.574 . S
C3356 C3372 1.368 . S
H3357 C3365 0.950 . S
H3358 C3363 0.950 . S
H3359 C3364 0.949 . S
H3360 C3366 0.950 . S
H3361 C3367 0.950 . S
H3362 C3368 0.949 . S
C3363 H3358 0.950 . S
C3363 C3365 1.327 . S
C3363 C3369 1.429 . S
C3364 C3356 1.574 . S
C3364 H3359 0.949 . S
C3364 C3370 1.368 1_455 S
C3365 C3349 1.349 . S
C3365 H3357 0.950 . S
C3365 C3363 1.327 . S
C3366 C3354 1.349 . S
C3366 H3360 0.950 . S
C3366 C3367 1.327 . S
C3367 H3361 0.950 . S
C3367 C3366 1.327 . S
C3367 C3371 1.429 . S
C3368 C3351 1.574 . S
C3368 H3362 0.949 . S
C3368 C3372 1.368 1_655 S
C3369 C3350 1.429 . S
C3369 C3363 1.429 . S
C3369 C3370 1.523 . S
C3370 C3351 1.368 . S
C3370 C3364 1.368 1_655 S
C3370 C3369 1.523 . S
C3371 C3355 1.429 . S
C3371 C3367 1.429 . S
C3371 C3372 1.523 . S
C3372 C3356 1.368 . S
C3372 C3368 1.368 1_455 S
C3372 C3371 1.523 . S
H3373 C3348 0.950 . S
H3374 C3350 0.950 1_455 S
H3375 C3351 0.949 . S
H3376 C3353 0.950 . S
H3377 C3355 0.950 1_655 S
C3378 C3379 1.349 . S
C3378 C3380 1.327 . S
C3378 H3403 0.950 . S
C3379 C3378 1.349 . S
C3379 C3395 1.349 . S
C3380 C3378 1.327 . S
C3380 C3399 1.429 . S
C3380 H3404 0.950 . S
C3381 C3398 1.574 . S
C3381 C3400 1.368 . S
C3381 H3405 0.949 . S
H3382 C3386 0.949 . S
C3383 C3384 1.349 . S
C3383 C3385 1.327 . S
C3383 H3406 0.950 . S
C3384 C3383 1.349 . S
C3384 C3396 1.349 . S
C3385 C3383 1.327 . S
C3385 C3401 1.429 . S
C3385 H3407 0.950 . S
C3386 H3382 0.949 . S
C3386 C3394 1.574 . S
C3386 C3402 1.368 . S
H3387 C3395 0.950 . S
H3388 C3393 0.950 . S
H3389 C3394 0.949 . S
H3390 C3396 0.950 . S
H3391 C3397 0.950 . S
H3392 C3398 0.949 . S
C3393 H3388 0.950 . S
C3393 C3395 1.327 . S
C3393 C3399 1.429 . S
C3394 C3386 1.574 . S
C3394 H3389 0.949 . S
C3394 C3400 1.368 . S
C3395 C3379 1.349 . S
C3395 H3387 0.950 . S
C3395 C3393 1.327 . S
C3396 C3384 1.349 . S
C3396 H3390 0.950 . S
C3396 C3397 1.327 . S
C3397 H3391 0.950 . S
C3397 C3396 1.327 . S
C3397 C3401 1.429 . S
C3398 C3381 1.574 . S
C3398 H3392 0.949 . S
C3398 C3402 1.368 . S
C3399 C3380 1.429 . S
C3399 C3393 1.429 . S
C3399 C3400 1.523 . S
C3400 C3381 1.368 . S
C3400 C3394 1.368 . S
C3400 C3399 1.523 . S
C3401 C3385 1.429 . S
C3401 C3397 1.429 . S
C3401 C3402 1.523 . S
C3402 C3386 1.368 . S
C3402 C3398 1.368 . S
C3402 C3401 1.523 . S
H3403 C3378 0.950 . S
H3404 C3380 0.950 . S
H3405 C3381 0.949 . S
H3406 C3383 0.950 . S
H3407 C3385 0.950 . S
C3408 C3409 1.349 . S
C3408 C3410 1.327 . S
C3408 H3433 0.950 . S
C3409 C3408 1.349 . S
C3409 C3425 1.349 . S
C3410 C3408 1.327 . S
C3410 C3429 1.429 . S
C3410 H3434 0.950 . S
C3411 C3428 1.574 . S
C3411 C3430 1.368 1_545 S
C3411 H3435 0.949 . S
H3412 C3416 0.949 . S
C3413 C3414 1.349 . S
C3413 C3415 1.327 . S
C3413 H3436 0.950 . S
C3414 C3413 1.349 . S
C3414 C3426 1.349 . S
C3415 C3413 1.327 . S
C3415 C3431 1.429 . S
C3415 H3437 0.950 . S
C3416 H3412 0.949 . S
C3416 C3424 1.574 . S
C3416 C3432 1.368 1_565 S
H3417 C3425 0.950 . S
H3418 C3423 0.981 . S
H3419 C3424 0.949 . S
H3420 C3426 0.950 . S
H3421 C3427 0.979 . S
H3422 C3428 0.949 . S
C3423 H3418 0.981 . S
C3423 C3425 1.327 . S
C3423 C3429 1.429 . S
C3424 C3416 1.574 . S
C3424 H3419 0.949 . S
C3424 C3430 1.368 . S
C3425 C3409 1.349 . S
C3425 H3417 0.950 . S
C3425 C3423 1.327 . S
C3426 C3414 1.349 . S
C3426 H3420 0.950 . S
C3426 C3427 1.327 . S
C3427 H3421 0.979 . S
C3427 C3426 1.327 . S
C3427 C3431 1.429 . S
C3428 C3411 1.574 . S
C3428 H3422 0.949 . S
C3428 C3432 1.368 . S
C3429 C3410 1.429 . S
C3429 C3423 1.429 . S
C3429 C3430 1.523 . S
C3430 C3411 1.368 1_565 S
C3430 C3424 1.368 . S
C3430 C3429 1.523 . S
C3431 C3415 1.429 . S
C3431 C3427 1.429 . S
C3431 C3432 1.523 . S
C3432 C3416 1.368 1_545 S
C3432 C3428 1.368 . S
C3432 C3431 1.523 . S
H3433 C3408 0.950 . S
H3434 C3410 0.950 . S
H3435 C3411 0.949 . S
H3436 C3413 0.950 . S
H3437 C3415 0.950 . S
C3438 C3439 1.349 . S
C3438 C3440 1.327 . S
C3438 H3463 0.950 . S
C3439 C3438 1.349 . S
C3439 C3455 1.349 . S
C3440 C3438 1.327 . S
C3440 C3459 1.429 . S
C3440 H3464 0.950 1_655 S
C3441 C3458 1.574 . S
C3441 C3460 1.368 . S
C3441 H3465 0.949 . S
H3442 C3446 0.949 . S
C3443 C3444 1.349 . S
C3443 C3445 1.327 . S
C3443 H3466 0.950 . S
C3444 C3443 1.349 . S
C3444 C3456 1.349 . S
C3445 C3443 1.327 . S
C3445 C3461 1.429 . S
C3445 H3467 0.950 1_455 S
C3446 H3442 0.949 . S
C3446 C3454 1.574 . S
C3446 C3462 1.368 . S
H3447 C3455 0.950 . S
H3448 C3453 0.950 . S
H3449 C3454 0.949 . S
H3450 C3456 0.950 . S
H3451 C3457 0.950 . S
H3452 C3458 0.949 . S
C3453 H3448 0.950 . S
C3453 C3455 1.327 . S
C3453 C3459 1.429 . S
C3454 C3446 1.574 . S
C3454 H3449 0.949 . S
C3454 C3460 1.368 1_455 S
C3455 C3439 1.349 . S
C3455 H3447 0.950 . S
C3455 C3453 1.327 . S
C3456 C3444 1.349 . S
C3456 H3450 0.950 . S
C3456 C3457 1.327 . S
C3457 H3451 0.950 . S
C3457 C3456 1.327 . S
C3457 C3461 1.429 . S
C3458 C3441 1.574 . S
C3458 H3452 0.949 . S
C3458 C3462 1.368 1_655 S
C3459 C3440 1.429 . S
C3459 C3453 1.429 . S
C3459 C3460 1.523 . S
C3460 C3441 1.368 . S
C3460 C3454 1.368 1_655 S
C3460 C3459 1.523 . S
C3461 C3445 1.429 . S
C3461 C3457 1.429 . S
C3461 C3462 1.523 . S
C3462 C3446 1.368 . S
C3462 C3458 1.368 1_455 S
C3462 C3461 1.523 . S
H3463 C3438 0.950 . S
H3464 C3440 0.950 1_455 S
H3465 C3441 0.949 . S
H3466 C3443 0.950 . S
H3467 C3445 0.950 1_655 S
C3468 C3469 1.349 . S
C3468 C3470 1.327 . S
C3468 H3493 0.950 . S
C3469 C3468 1.349 . S
C3469 C3485 1.349 . S
C3470 C3468 1.327 . S
C3470 C3489 1.429 . S
C3470 H3494 0.950 . S
C3471 C3488 1.574 . S
C3471 C3490 1.368 . S
C3471 H3495 0.949 . S
H3472 C3476 0.949 . S
C3473 C3474 1.349 . S
C3473 C3475 1.327 . S
C3473 H3496 0.950 . S
C3474 C3473 1.349 . S
C3474 C3486 1.349 . S
C3475 C3473 1.327 . S
C3475 C3491 1.429 . S
C3475 H3497 0.950 . S
C3476 H3472 0.949 . S
C3476 C3484 1.574 . S
C3476 C3492 1.368 . S
H3477 C3485 0.950 . S
H3478 C3483 0.950 . S
H3479 C3484 0.949 . S
H3480 C3486 0.950 . S
H3481 C3487 0.950 . S
H3482 C3488 0.949 . S
C3483 H3478 0.950 . S
C3483 C3485 1.327 . S
C3483 C3489 1.429 . S
C3484 C3476 1.574 . S
C3484 H3479 0.949 . S
C3484 C3490 1.368 . S
C3485 C3469 1.349 . S
C3485 H3477 0.950 . S
C3485 C3483 1.327 . S
C3486 C3474 1.349 . S
C3486 H3480 0.950 . S
C3486 C3487 1.327 . S
C3487 H3481 0.950 . S
C3487 C3486 1.327 . S
C3487 C3491 1.429 . S
C3488 C3471 1.574 . S
C3488 H3482 0.949 . S
C3488 C3492 1.368 . S
C3489 C3470 1.429 . S
C3489 C3483 1.429 . S
C3489 C3490 1.523 . S
C3490 C3471 1.368 . S
C3490 C3484 1.368 . S
C3490 C3489 1.523 . S
C3491 C3475 1.429 . S
C3491 C3487 1.429 . S
C3491 C3492 1.523 . S
C3492 C3476 1.368 . S
C3492 C3488 1.368 . S
C3492 C3491 1.523 . S
H3493 C3468 0.950 . S
H3494 C3470 0.950 . S
H3495 C3471 0.949 . S
H3496 C3473 0.950 . S
H3497 C3475 0.950 . S
C3498 C3499 1.349 . S
C3498 C3500 1.327 . S
C3498 H3523 0.950 . S
C3499 C3498 1.349 . S
C3499 C3515 1.349 . S
C3500 C3498 1.327 . S
C3500 C3519 1.429 . S
C3500 H3524 0.950 . S
C3501 C3518 1.574 . S
C3501 C3520 1.368 . S
C3501 H3525 0.949 . S
H3502 C3506 0.949 . S
C3503 C3504 1.349 . S
C3503 C3505 1.327 . S
C3503 H3526 0.950 . S
C3504 C3503 1.349 . S
C3504 C3516 1.349 . S
C3505 C3503 1.327 . S
C3505 C3521 1.429 . S
C3505 H3527 0.950 . S
C3506 H3502 0.949 . S
C3506 C3514 1.574 . S
C3506 C3522 1.368 . S
H3507 C3515 0.950 . S
H3508 C3513 0.950 . S
H3509 C3514 0.949 . S
H3510 C3516 0.950 . S
H3511 C3517 0.950 . S
H3512 C3518 0.949 . S
C3513 H3508 0.950 . S
C3513 C3515 1.327 . S
C3513 C3519 1.429 . S
C3514 C3506 1.574 . S
C3514 H3509 0.949 . S
C3514 C3520 1.368 1_565 S
C3515 C3499 1.349 . S
C3515 H3507 0.950 . S
C3515 C3513 1.327 . S
C3516 C3504 1.349 . S
C3516 H3510 0.950 . S
C3516 C3517 1.327 . S
C3517 H3511 0.950 . S
C3517 C3516 1.327 . S
C3517 C3521 1.429 . S
C3518 C3501 1.574 . S
C3518 H3512 0.949 . S
C3518 C3522 1.368 1_545 S
C3519 C3500 1.429 . S
C3519 C3513 1.429 . S
C3519 C3520 1.523 . S
C3520 C3501 1.368 . S
C3520 C3514 1.368 1_545 S
C3520 C3519 1.523 . S
C3521 C3505 1.429 . S
C3521 C3517 1.429 . S
C3521 C3522 1.523 . S
C3522 C3506 1.368 . S
C3522 C3518 1.368 1_565 S
C3522 C3521 1.523 . S
H3523 C3498 0.950 . S
H3524 C3500 0.950 . S
H3525 C3501 0.949 . S
H3526 C3503 0.950 . S
H3527 C3505 0.950 . S
C3528 C3529 1.349 . S
C3528 C3530 1.327 . S
C3528 H3553 0.950 . S
C3529 C3528 1.349 . S
C3529 C3545 1.349 . S
C3530 C3528 1.327 . S
C3530 C3549 1.429 . S
C3530 H3554 0.950 . S
C3531 C3548 1.574 . S
C3531 C3550 1.368 . S
C3531 H3555 0.949 . S
H3532 C3536 0.949 . S
C3533 C3534 1.349 . S
C3533 C3535 1.327 . S
C3533 H3556 0.950 . S
C3534 C3533 1.349 . S
C3534 C3546 1.349 . S
C3535 C3533 1.327 . S
C3535 C3551 1.429 . S
C3535 H3557 0.950 . S
C3536 H3532 0.949 . S
C3536 C3544 1.574 . S
C3536 C3552 1.368 . S
H3537 C3545 0.950 . S
H3538 C3543 0.950 . S
H3539 C3544 0.949 . S
H3540 C3546 0.950 . S
H3541 C3547 0.950 . S
H3542 C3548 0.949 . S
C3543 H3538 0.950 . S
C3543 C3545 1.327 . S
C3543 C3549 1.429 . S
C3544 C3536 1.574 . S
C3544 H3539 0.949 . S
C3544 C3550 1.368 . S
C3545 C3529 1.349 . S
C3545 H3537 0.950 . S
C3545 C3543 1.327 . S
C3546 C3534 1.349 . S
C3546 H3540 0.950 . S
C3546 C3547 1.327 . S
C3547 H3541 0.950 . S
C3547 C3546 1.327 . S
C3547 C3551 1.429 . S
C3548 C3531 1.574 . S
C3548 H3542 0.949 . S
C3548 C3552 1.368 . S
C3549 C3530 1.429 . S
C3549 C3543 1.429 . S
C3549 C3550 1.523 . S
C3550 C3531 1.368 . S
C3550 C3544 1.368 . S
C3550 C3549 1.523 . S
C3551 C3535 1.429 . S
C3551 C3547 1.429 . S
C3551 C3552 1.523 . S
C3552 C3536 1.368 . S
C3552 C3548 1.368 . S
C3552 C3551 1.523 . S
H3553 C3528 0.950 . S
H3554 C3530 0.950 . S
H3555 C3531 0.949 . S
H3556 C3533 0.950 . S
H3557 C3535 0.950 . S
C3558 C3559 1.349 . S
C3558 C3560 1.327 . S
C3558 H3583 0.950 . S
C3559 C3558 1.349 . S
C3559 C3575 1.349 . S
C3560 C3558 1.327 . S
C3560 C3579 1.429 . S
C3560 H3584 0.950 . S
C3561 C3578 1.574 . S
C3561 C3580 1.368 . S
C3561 H3585 0.949 . S
H3562 C3566 0.949 . S
C3563 C3564 1.349 . S
C3563 C3565 1.327 . S
C3563 H3586 0.950 . S
C3564 C3563 1.349 . S
C3564 C3576 1.349 . S
C3565 C3563 1.327 . S
C3565 C3581 1.429 . S
C3565 H3587 0.950 . S
C3566 H3562 0.949 . S
C3566 C3574 1.574 . S
C3566 C3582 1.368 . S
H3567 C3575 0.950 . S
H3568 C3573 0.950 . S
H3569 C3574 0.949 . S
H3570 C3576 0.950 . S
H3571 C3577 0.950 . S
H3572 C3578 0.949 . S
C3573 H3568 0.950 . S
C3573 C3575 1.327 . S
C3573 C3579 1.429 . S
C3574 C3566 1.574 . S
C3574 H3569 0.949 . S
C3574 C3580 1.368 . S
C3575 C3559 1.349 . S
C3575 H3567 0.950 . S
C3575 C3573 1.327 . S
C3576 C3564 1.349 . S
C3576 H3570 0.950 . S
C3576 C3577 1.327 . S
C3577 H3571 0.950 . S
C3577 C3576 1.327 . S
C3577 C3581 1.429 . S
C3578 C3561 1.574 . S
C3578 H3572 0.949 . S
C3578 C3582 1.368 . S
C3579 C3560 1.429 . S
C3579 C3573 1.429 . S
C3579 C3580 1.523 . S
C3580 C3561 1.368 . S
C3580 C3574 1.368 . S
C3580 C3579 1.523 . S
C3581 C3565 1.429 . S
C3581 C3577 1.429 . S
C3581 C3582 1.523 . S
C3582 C3566 1.368 . S
C3582 C3578 1.368 . S
C3582 C3581 1.523 . S
H3583 C3558 0.950 . S
H3584 C3560 0.950 . S
H3585 C3561 0.949 . S
H3586 C3563 0.950 . S
H3587 C3565 0.950 . S
C3588 C3589 1.349 . S
C3588 C3590 1.327 . S
C3588 H3613 0.950 . S
C3589 C3588 1.349 . S
C3589 C3605 1.349 . S
C3590 C3588 1.327 . S
C3590 C3609 1.429 . S
C3590 H3614 0.950 . S
C3591 C3608 1.574 . S
C3591 C3610 1.368 . S
C3591 H3615 0.949 . S
H3592 C3596 0.949 . S
C3593 C3594 1.349 . S
C3593 C3595 1.327 . S
C3593 H3616 0.950 . S
C3594 C3593 1.349 . S
C3594 C3606 1.349 . S
C3595 C3593 1.327 . S
C3595 C3611 1.429 . S
C3595 H3617 0.950 . S
C3596 H3592 0.949 . S
C3596 C3604 1.574 . S
C3596 C3612 1.368 . S
H3597 C3605 0.950 . S
H3598 C3603 0.950 . S
H3599 C3604 0.949 . S
H3600 C3606 0.950 . S
H3601 C3607 0.950 . S
H3602 C3608 0.949 . S
C3603 H3598 0.950 . S
C3603 C3605 1.327 . S
C3603 C3609 1.429 . S
C3604 C3596 1.574 . S
C3604 H3599 0.949 . S
C3604 C3610 1.368 . S
C3605 C3589 1.349 . S
C3605 H3597 0.950 . S
C3605 C3603 1.327 . S
C3606 C3594 1.349 . S
C3606 H3600 0.950 . S
C3606 C3607 1.327 . S
C3607 H3601 0.950 . S
C3607 C3606 1.327 . S
C3607 C3611 1.429 . S
C3608 C3591 1.574 . S
C3608 H3602 0.949 . S
C3608 C3612 1.368 . S
C3609 C3590 1.429 . S
C3609 C3603 1.429 . S
C3609 C3610 1.523 . S
C3610 C3591 1.368 . S
C3610 C3604 1.368 . S
C3610 C3609 1.523 . S
C3611 C3595 1.429 . S
C3611 C3607 1.429 . S
C3611 C3612 1.523 . S
C3612 C3596 1.368 . S
C3612 C3608 1.368 . S
C3612 C3611 1.523 . S
H3613 C3588 0.950 . S
H3614 C3590 0.950 . S
H3615 C3591 0.949 . S
H3616 C3593 0.950 . S
H3617 C3595 0.950 . S
C3618 C3619 1.349 . S
C3618 C3620 1.327 . S
C3618 H3643 0.950 . S
C3619 C3618 1.349 . S
C3619 C3635 1.349 . S
C3620 C3618 1.327 . S
C3620 C3639 1.429 . S
C3620 H3644 0.950 . S
C3621 C3638 1.574 . S
C3621 C3640 1.368 . S
C3621 H3645 0.949 . S
H3622 C3626 0.949 . S
C3623 C3624 1.349 . S
C3623 C3625 1.327 . S
C3623 H3646 0.950 . S
C3624 C3623 1.349 . S
C3624 C3636 1.349 . S
C3625 C3623 1.327 . S
C3625 C3641 1.429 . S
C3625 H3647 0.950 . S
C3626 H3622 0.949 . S
C3626 C3634 1.574 . S
C3626 C3642 1.368 . S
H3627 C3635 0.950 . S
H3628 C3633 0.950 . S
H3629 C3634 0.949 . S
H3630 C3636 0.950 . S
H3631 C3637 0.950 . S
H3632 C3638 0.949 . S
C3633 H3628 0.950 . S
C3633 C3635 1.327 . S
C3633 C3639 1.429 . S
C3634 C3626 1.574 . S
C3634 H3629 0.949 . S
C3634 C3640 1.368 . S
C3635 C3619 1.349 . S
C3635 H3627 0.950 . S
C3635 C3633 1.327 . S
C3636 C3624 1.349 . S
C3636 H3630 0.950 . S
C3636 C3637 1.327 . S
C3637 H3631 0.950 . S
C3637 C3636 1.327 . S
C3637 C3641 1.429 . S
C3638 C3621 1.574 . S
C3638 H3632 0.949 . S
C3638 C3642 1.368 . S
C3639 C3620 1.429 . S
C3639 C3633 1.429 . S
C3639 C3640 1.523 . S
C3640 C3621 1.368 . S
C3640 C3634 1.368 . S
C3640 C3639 1.523 . S
C3641 C3625 1.429 . S
C3641 C3637 1.429 . S
C3641 C3642 1.523 . S
C3642 C3626 1.368 . S
C3642 C3638 1.368 . S
C3642 C3641 1.523 . S
H3643 C3618 0.950 . S
H3644 C3620 0.950 . S
H3645 C3621 0.949 . S
H3646 C3623 0.950 . S
H3647 C3625 0.950 . S
C3648 C3649 1.349 . S
C3648 C3650 1.327 . S
C3648 H3673 0.950 . S
C3649 C3648 1.349 . S
C3649 C3665 1.349 . S
C3650 C3648 1.327 . S
C3650 C3669 1.429 . S
C3650 H3674 0.950 . S
C3651 C3668 1.574 . S
C3651 C3670 1.368 . S
C3651 H3675 0.949 . S
H3652 C3656 0.949 . S
C3653 C3654 1.349 . S
C3653 C3655 1.327 . S
C3653 H3676 0.950 . S
C3654 C3653 1.349 . S
C3654 C3666 1.349 . S
C3655 C3653 1.327 . S
C3655 C3671 1.429 . S
C3655 H3677 0.950 . S
C3656 H3652 0.949 . S
C3656 C3664 1.574 . S
C3656 C3672 1.368 . S
H3657 C3665 0.950 . S
H3658 C3663 0.950 . S
H3659 C3664 0.949 . S
H3660 C3666 0.950 . S
H3661 C3667 0.950 . S
H3662 C3668 0.949 . S
C3663 H3658 0.950 . S
C3663 C3665 1.327 . S
C3663 C3669 1.429 . S
C3664 C3656 1.574 . S
C3664 H3659 0.949 . S
C3664 C3670 1.368 . S
C3665 C3649 1.349 . S
C3665 H3657 0.950 . S
C3665 C3663 1.327 . S
C3666 C3654 1.349 . S
C3666 H3660 0.950 . S
C3666 C3667 1.327 . S
C3667 H3661 0.950 . S
C3667 C3666 1.327 . S
C3667 C3671 1.429 . S
C3668 C3651 1.574 . S
C3668 H3662 0.949 . S
C3668 C3672 1.368 . S
C3669 C3650 1.429 . S
C3669 C3663 1.429 . S
C3669 C3670 1.523 . S
C3670 C3651 1.368 . S
C3670 C3664 1.368 . S
C3670 C3669 1.523 . S
C3671 C3655 1.429 . S
C3671 C3667 1.429 . S
C3671 C3672 1.523 . S
C3672 C3656 1.368 . S
C3672 C3668 1.368 . S
C3672 C3671 1.523 . S
H3673 C3648 0.950 . S
H3674 C3650 0.950 . S
H3675 C3651 0.949 . S
H3676 C3653 0.950 . S
H3677 C3655 0.950 . S
C3678 C3679 1.349 . S
C3678 C3680 1.327 . S
C3678 H3703 0.950 . S
C3679 C3678 1.349 . S
C3679 C3695 1.349 . S
C3680 C3678 1.327 . S
C3680 C3699 1.429 . S
C3680 H3704 0.950 . S
C3681 C3698 1.574 . S
C3681 C3700 1.368 . S
C3681 H3705 0.949 . S
H3682 C3686 0.949 . S
C3683 C3684 1.349 . S
C3683 C3685 1.327 . S
C3683 H3706 0.950 . S
C3684 C3683 1.349 . S
C3684 C3696 1.349 . S
C3685 C3683 1.327 . S
C3685 C3701 1.429 . S
C3685 H3707 0.950 . S
C3686 H3682 0.949 . S
C3686 C3694 1.574 . S
C3686 C3702 1.368 . S
H3687 C3695 0.950 . S
H3688 C3693 0.950 . S
H3689 C3694 0.949 . S
H3690 C3696 0.950 . S
H3691 C3697 0.950 . S
H3692 C3698 0.949 . S
C3693 H3688 0.950 . S
C3693 C3695 1.327 . S
C3693 C3699 1.429 . S
C3694 C3686 1.574 . S
C3694 H3689 0.949 . S
C3694 C3700 1.368 . S
C3695 C3679 1.349 . S
C3695 H3687 0.950 . S
C3695 C3693 1.327 . S
C3696 C3684 1.349 . S
C3696 H3690 0.950 . S
C3696 C3697 1.327 . S
C3697 H3691 0.950 . S
C3697 C3696 1.327 . S
C3697 C3701 1.429 . S
C3698 C3681 1.574 . S
C3698 H3692 0.949 . S
C3698 C3702 1.368 . S
C3699 C3680 1.429 . S
C3699 C3693 1.429 . S
C3699 C3700 1.523 . S
C3700 C3681 1.368 . S
C3700 C3694 1.368 . S
C3700 C3699 1.523 . S
C3701 C3685 1.429 . S
C3701 C3697 1.429 . S
C3701 C3702 1.523 . S
C3702 C3686 1.368 . S
C3702 C3698 1.368 . S
C3702 C3701 1.523 . S
H3703 C3678 0.950 . S
H3704 C3680 0.950 . S
H3705 C3681 0.949 . S
H3706 C3683 0.950 . S
H3707 C3685 0.950 . S
C3708 C3709 1.349 . S
C3708 C3710 1.327 . S
C3708 H3733 0.950 . S
C3709 C3708 1.349 . S
C3709 C3725 1.349 . S
C3710 C3708 1.327 . S
C3710 C3729 1.429 . S
C3710 H3734 0.950 . S
C3711 C3728 1.574 . S
C3711 C3730 1.368 . S
C3711 H3735 0.949 . S
H3712 C3716 0.949 . S
C3713 C3714 1.349 . S
C3713 C3715 1.327 . S
C3713 H3736 0.950 . S
C3714 C3713 1.349 . S
C3714 C3726 1.349 . S
C3715 C3713 1.327 . S
C3715 C3731 1.429 . S
C3715 H3737 0.950 . S
C3716 H3712 0.949 . S
C3716 C3724 1.574 . S
C3716 C3732 1.368 . S
H3717 C3725 0.950 . S
H3718 C3723 0.950 . S
H3719 C3724 0.949 . S
H3720 C3726 0.950 . S
H3721 C3727 0.950 . S
H3722 C3728 0.949 . S
C3723 H3718 0.950 . S
C3723 C3725 1.327 . S
C3723 C3729 1.429 . S
C3724 C3716 1.574 . S
C3724 H3719 0.949 . S
C3724 C3730 1.368 . S
C3725 C3709 1.349 . S
C3725 H3717 0.950 . S
C3725 C3723 1.327 . S
C3726 C3714 1.349 . S
C3726 H3720 0.950 . S
C3726 C3727 1.327 . S
C3727 H3721 0.950 . S
C3727 C3726 1.327 . S
C3727 C3731 1.429 . S
C3728 C3711 1.574 . S
C3728 H3722 0.949 . S
C3728 C3732 1.368 . S
C3729 C3710 1.429 . S
C3729 C3723 1.429 . S
C3729 C3730 1.523 . S
C3730 C3711 1.368 . S
C3730 C3724 1.368 . S
C3730 C3729 1.523 . S
C3731 C3715 1.429 . S
C3731 C3727 1.429 . S
C3731 C3732 1.523 . S
C3732 C3716 1.368 . S
C3732 C3728 1.368 . S
C3732 C3731 1.523 . S
H3733 C3708 0.950 . S
H3734 C3710 0.950 . S
H3735 C3711 0.949 . S
H3736 C3713 0.950 . S
H3737 C3715 0.950 . S
C3738 C3739 1.349 . S
C3738 C3740 1.327 . S
C3738 H3763 0.950 . S
C3739 C3738 1.349 . S
C3739 C3755 1.349 . S
C3740 C3738 1.327 . S
C3740 C3759 1.429 . S
C3740 H3764 0.950 . S
C3741 C3758 1.574 . S
C3741 C3760 1.368 . S
C3741 H3765 0.949 . S
H3742 C3746 0.949 . S
C3743 C3744 1.349 . S
C3743 C3745 1.327 . S
C3743 H3766 0.950 . S
C3744 C3743 1.349 . S
C3744 C3756 1.349 . S
C3745 C3743 1.327 . S
C3745 C3761 1.429 . S
C3745 H3767 0.950 . S
C3746 H3742 0.949 . S
C3746 C3754 1.574 . S
C3746 C3762 1.368 . S
H3747 C3755 0.950 . S
H3748 C3753 0.950 . S
H3749 C3754 0.949 . S
H3750 C3756 0.950 . S
H3751 C3757 0.950 . S
H3752 C3758 0.949 . S
C3753 H3748 0.950 . S
C3753 C3755 1.327 . S
C3753 C3759 1.429 . S
C3754 C3746 1.574 . S
C3754 H3749 0.949 . S
C3754 C3760 1.368 . S
C3755 C3739 1.349 . S
C3755 H3747 0.950 . S
C3755 C3753 1.327 . S
C3756 C3744 1.349 . S
C3756 H3750 0.950 . S
C3756 C3757 1.327 . S
C3757 H3751 0.950 . S
C3757 C3756 1.327 . S
C3757 C3761 1.429 . S
C3758 C3741 1.574 . S
C3758 H3752 0.949 . S
C3758 C3762 1.368 . S
C3759 C3740 1.429 . S
C3759 C3753 1.429 . S
C3759 C3760 1.523 . S
C3760 C3741 1.368 . S
C3760 C3754 1.368 . S
C3760 C3759 1.523 . S
C3761 C3745 1.429 . S
C3761 C3757 1.429 . S
C3761 C3762 1.523 . S
C3762 C3746 1.368 . S
C3762 C3758 1.368 . S
C3762 C3761 1.523 . S
H3763 C3738 0.950 . S
H3764 C3740 0.950 . S
H3765 C3741 0.949 . S
H3766 C3743 0.950 . S
H3767 C3745 0.950 . S
C3768 C3769 1.349 . S
C3768 C3770 1.327 . S
C3768 H3793 0.950 . S
C3769 C3768 1.349 . S
C3769 C3785 1.349 . S
C3770 C3768 1.327 . S
C3770 C3789 1.429 . S
C3770 H3794 0.950 . S
C3771 C3788 1.574 . S
C3771 C3790 1.368 . S
C3771 H3795 0.949 . S
H3772 C3776 0.949 . S
C3773 C3774 1.349 . S
C3773 C3775 1.327 . S
C3773 H3796 0.950 . S
C3774 C3773 1.349 . S
C3774 C3786 1.349 . S
C3775 C3773 1.327 . S
C3775 C3791 1.429 . S
C3775 H3797 0.950 . S
C3776 H3772 0.949 . S
C3776 C3784 1.574 . S
C3776 C3792 1.368 . S
H3777 C3785 0.950 . S
H3778 C3783 0.950 . S
H3779 C3784 0.949 . S
H3780 C3786 0.950 . S
H3781 C3787 0.950 . S
H3782 C3788 0.949 . S
C3783 H3778 0.950 . S
C3783 C3785 1.327 . S
C3783 C3789 1.429 . S
C3784 C3776 1.574 . S
C3784 H3779 0.949 . S
C3784 C3790 1.368 . S
C3785 C3769 1.349 . S
C3785 H3777 0.950 . S
C3785 C3783 1.327 . S
C3786 C3774 1.349 . S
C3786 H3780 0.950 . S
C3786 C3787 1.327 . S
C3787 H3781 0.950 . S
C3787 C3786 1.327 . S
C3787 C3791 1.429 . S
C3788 C3771 1.574 . S
C3788 H3782 0.949 . S
C3788 C3792 1.368 . S
C3789 C3770 1.429 . S
C3789 C3783 1.429 . S
C3789 C3790 1.523 . S
C3790 C3771 1.368 . S
C3790 C3784 1.368 . S
C3790 C3789 1.523 . S
C3791 C3775 1.429 . S
C3791 C3787 1.429 . S
C3791 C3792 1.523 . S
C3792 C3776 1.368 . S
C3792 C3788 1.368 . S
C3792 C3791 1.523 . S
H3793 C3768 0.950 . S
H3794 C3770 0.950 . S
H3795 C3771 0.949 . S
H3796 C3773 0.950 . S
H3797 C3775 0.950 . S
C3798 C3799 1.349 . S
C3798 C3800 1.327 . S
C3798 H3823 0.950 . S
C3799 C3798 1.349 . S
C3799 C3815 1.349 . S
C3800 C3798 1.327 . S
C3800 C3819 1.429 . S
C3800 H3824 0.950 . S
C3801 C3818 1.574 . S
C3801 C3820 1.368 . S
C3801 H3825 0.949 . S
H3802 C3806 0.949 . S
C3803 C3804 1.349 . S
C3803 C3805 1.327 . S
C3803 H3826 0.950 . S
C3804 C3803 1.349 . S
C3804 C3816 1.349 . S
C3805 C3803 1.327 . S
C3805 C3821 1.429 . S
C3805 H3827 0.950 . S
C3806 H3802 0.949 . S
C3806 C3814 1.574 . S
C3806 C3822 1.368 . S
H3807 C3815 0.950 . S
H3808 C3813 0.950 . S
H3809 C3814 0.949 . S
H3810 C3816 0.950 . S
H3811 C3817 0.950 . S
H3812 C3818 0.949 . S
C3813 H3808 0.950 . S
C3813 C3815 1.327 . S
C3813 C3819 1.429 . S
C3814 C3806 1.574 . S
C3814 H3809 0.949 . S
C3814 C3820 1.368 . S
C3815 C3799 1.349 . S
C3815 H3807 0.950 . S
C3815 C3813 1.327 . S
C3816 C3804 1.349 . S
C3816 H3810 0.950 . S
C3816 C3817 1.327 . S
C3817 H3811 0.950 . S
C3817 C3816 1.327 . S
C3817 C3821 1.429 . S
C3818 C3801 1.574 . S
C3818 H3812 0.949 . S
C3818 C3822 1.368 . S
C3819 C3800 1.429 . S
C3819 C3813 1.429 . S
C3819 C3820 1.523 . S
C3820 C3801 1.368 . S
C3820 C3814 1.368 . S
C3820 C3819 1.523 . S
C3821 C3805 1.429 . S
C3821 C3817 1.429 . S
C3821 C3822 1.523 . S
C3822 C3806 1.368 . S
C3822 C3818 1.368 . S
C3822 C3821 1.523 . S
H3823 C3798 0.950 . S
H3824 C3800 0.950 . S
H3825 C3801 0.949 . S
H3826 C3803 0.950 . S
H3827 C3805 0.950 . S
C3828 C3829 1.349 . S
C3828 C3830 1.327 . S
C3828 H3853 0.950 . S
C3829 C3828 1.349 . S
C3829 C3845 1.349 . S
C3830 C3828 1.327 . S
C3830 C3849 1.429 . S
C3830 H3854 0.950 . S
C3831 C3848 1.574 . S
C3831 C3850 1.368 . S
C3831 H3855 0.949 . S
H3832 C3836 0.949 . S
C3833 C3834 1.349 . S
C3833 C3835 1.327 . S
C3833 H3856 0.950 . S
C3834 C3833 1.349 . S
C3834 C3846 1.349 . S
C3835 C3833 1.327 . S
C3835 C3851 1.429 . S
C3835 H3857 0.950 . S
C3836 H3832 0.949 . S
C3836 C3844 1.574 . S
C3836 C3852 1.368 . S
H3837 C3845 0.950 . S
H3838 C3843 0.950 . S
H3839 C3844 0.949 . S
H3840 C3846 0.950 . S
H3841 C3847 0.950 . S
H3842 C3848 0.949 . S
C3843 H3838 0.950 . S
C3843 C3845 1.327 . S
C3843 C3849 1.429 . S
C3844 C3836 1.574 . S
C3844 H3839 0.949 . S
C3844 C3850 1.368 . S
C3845 C3829 1.349 . S
C3845 H3837 0.950 . S
C3845 C3843 1.327 . S
C3846 C3834 1.349 . S
C3846 H3840 0.950 . S
C3846 C3847 1.327 . S
C3847 H3841 0.950 . S
C3847 C3846 1.327 . S
C3847 C3851 1.429 . S
C3848 C3831 1.574 . S
C3848 H3842 0.949 . S
C3848 C3852 1.368 . S
C3849 C3830 1.429 . S
C3849 C3843 1.429 . S
C3849 C3850 1.523 . S
C3850 C3831 1.368 . S
C3850 C3844 1.368 . S
C3850 C3849 1.523 . S
C3851 C3835 1.429 . S
C3851 C3847 1.429 . S
C3851 C3852 1.523 . S
C3852 C3836 1.368 . S
C3852 C3848 1.368 . S
C3852 C3851 1.523 . S
H3853 C3828 0.950 . S
H3854 C3830 0.950 . S
H3855 C3831 0.949 . S
H3856 C3833 0.950 . S
H3857 C3835 0.950 . S
C3858 C3859 1.349 . S
C3858 C3860 1.327 . S
C3858 H3883 0.950 . S
C3859 C3858 1.349 . S
C3859 C3875 1.349 . S
C3860 C3858 1.327 . S
C3860 C3879 1.429 . S
C3860 H3884 0.950 . S
C3861 C3878 1.574 . S
C3861 C3880 1.368 . S
C3861 H3885 0.949 . S
H3862 C3866 0.949 . S
C3863 C3864 1.349 . S
C3863 C3865 1.327 . S
C3863 H3886 0.950 . S
C3864 C3863 1.349 . S
C3864 C3876 1.349 . S
C3865 C3863 1.327 . S
C3865 C3881 1.429 . S
C3865 H3887 0.950 . S
C3866 H3862 0.949 . S
C3866 C3874 1.574 . S
C3866 C3882 1.368 . S
H3867 C3875 0.950 . S
H3868 C3873 0.950 . S
H3869 C3874 0.949 . S
H3870 C3876 0.950 . S
H3871 C3877 0.950 . S
H3872 C3878 0.949 . S
C3873 H3868 0.950 . S
C3873 C3875 1.327 . S
C3873 C3879 1.429 . S
C3874 C3866 1.574 . S
C3874 H3869 0.949 . S
C3874 C3880 1.368 . S
C3875 C3859 1.349 . S
C3875 H3867 0.950 . S
C3875 C3873 1.327 . S
C3876 C3864 1.349 . S
C3876 H3870 0.950 . S
C3876 C3877 1.327 . S
C3877 H3871 0.950 . S
C3877 C3876 1.327 . S
C3877 C3881 1.429 . S
C3878 C3861 1.574 . S
C3878 H3872 0.949 . S
C3878 C3882 1.368 . S
C3879 C3860 1.429 . S
C3879 C3873 1.429 . S
C3879 C3880 1.523 . S
C3880 C3861 1.368 . S
C3880 C3874 1.368 . S
C3880 C3879 1.523 . S
C3881 C3865 1.429 . S
C3881 C3877 1.429 . S
C3881 C3882 1.523 . S
C3882 C3866 1.368 . S
C3882 C3878 1.368 . S
C3882 C3881 1.523 . S
H3883 C3858 0.950 . S
H3884 C3860 0.950 . S
H3885 C3861 0.949 . S
H3886 C3863 0.950 . S
H3887 C3865 0.950 . S
C1189 N14 1.013 . S
C1194 C74 0.995 . S
C1219 C8 0.995 . S
C1224 N47 1.013 . S
C1249 C41 0.995 . S
C1254 N80 1.012 . S
C1279 C140 0.995 . S
C1284 N113 1.013 . S
C1309 C173 0.995 . S
C1314 N146 1.013 . S
C1339 C107 0.995 . S
C1344 N179 1.012 . S
C1369 C272 0.995 . S
C1374 N212 1.013 . S
C1399 N245 1.013 . S
C1404 C206 0.995 . S
C1429 C239 0.995 . S
C1434 N278 1.012 . S
C1459 C338 0.995 . S
C1464 N311 1.013 . S
C1489 N344 1.013 . S
C1494 C371 0.995 . S
C1519 C305 0.995 . S
C1524 N377 1.012 . S
C1549 N410 1.013 . S
C1554 C470 0.995 . S
C1579 N443 1.013 . S
C1584 C404 0.995 . S
C1609 N476 1.012 . S
C1614 C437 0.995 . S
C1639 C536 0.995 . S
C1644 N509 1.013 . S
C1669 C569 0.995 . S
C1674 N542 1.013 . S
C1699 N575 1.012 . S
C1704 C503 0.995 . S
C1729 N608 1.012 . S
C1734 C668 0.995 . S
C1759 N641 1.013 . S
C1764 C602 0.995 . S
C1789 N674 1.012 . S
C1794 C635 0.995 . S
C1819 C734 0.995 . S
C1824 N707 1.013 . S
C1849 C767 0.995 . S
C1854 N740 1.013 . S
C1879 N773 1.012 . S
C1884 C701 0.995 . S
C1909 C866 0.995 . S
C1914 N806 1.012 . S
C1939 C800 0.995 . S
C1944 N839 1.013 . S
C1969 N872 1.012 . S
C1974 C833 0.995 . S
C1999 C932 0.995 . S
C2004 N905 1.013 . S
C2029 N938 1.013 . S
C2034 C965 0.995 . S
C2059 C899 0.995 . S
C2064 N971 1.012 . S
C2089 C1064 0.995 . S
C2094 N1004 1.013 . S
C2119 N1037 1.013 . S
C2124 C998 0.995 . S
C2149 N1070 1.012 . S
C2154 C1031 0.995 . S
C2179 C1130 0.995 . S
C2184 N1103 1.013 . S
C2209 C1163 0.995 . S
C2214 N1136 1.013 . S
C2239 N1169 1.012 . S
C2244 C1097 0.995 . S
C2269 N665 1.271 . S
C2274 C28 1.279 . S
C2299 C61 1.279 . S
C2304 N599 1.271 1_565 S
C2329 C94 1.279 . S
C2334 N632 1.272 1_455 S
C2359 N1127 1.272 . S
C2364 C127 1.279 . S
C2389 N1160 1.271 1_545 S
C2394 C160 1.279 . S
C2419 C193 1.279 . S
C2424 N1094 1.271 1_655 S
C2449 C226 1.279 . S
C2454 N863 1.271 . S
C2479 C259 1.279 . S
C2484 N797 1.271 1_545 S
C2509 C292 1.279 . S
C2514 N830 1.272 1_655 S
C2539 N533 1.272 . S
C2544 C325 1.279 . S
C2569 C358 1.279 . S
C2574 N566 1.271 1_565 S
C2599 C391 1.279 . S
C2604 N500 1.271 1_455 S
C2629 C424 1.279 . S
C2634 N1061 1.271 . S
C2659 N995 1.271 . S
C2664 C457 1.278 . S
C2689 N1028 1.272 . S
C2694 C490 1.279 . S
C2719 C523 1.279 . S
C2724 N335 1.272 . S
C2749 C556 1.279 . S
C2754 N368 1.271 . S
C2779 C589 1.278 . S
C2784 N302 1.271 . S
C2809 N71 1.271 . S
C2814 C622 1.279 . S
C2839 C655 1.279 . S
C2844 N5 1.271 . S
C2869 C688 1.279 . S
C2874 N38 1.272 . S
C2899 N929 1.272 . S
C2904 C721 1.279 . S
C2929 C754 1.279 . S
C2934 N962 1.271 . S
C2959 C787 1.278 . S
C2964 N896 1.271 . S
C2989 N269 1.271 . S
C2994 C820 1.279 . S
C3019 N203 1.271 . S
C3024 C853 1.278 . S
C3049 C886 1.279 . S
C3054 N236 1.272 . S
C3079 C919 1.279 . S
C3084 N731 1.272 . S
C3109 N764 1.271 . S
C3114 C952 1.279 . S
C3139 C985 1.278 . S
C3144 N698 1.271 . S
C3169 N467 1.271 . S
C3174 C1018 1.279 . S
C3199 C1051 1.278 . S
C3204 N401 1.271 . S
C3229 C1084 1.279 . S
C3234 N434 1.272 . S
C3259 N137 1.272 . S
C3264 C1117 1.279 . S
C3289 C1150 1.279 . S
C3294 N170 1.271 . S
C3319 N104 1.271 . S
C3324 C1183 1.278 . S
C3349 C149 1.402 . S
C3354 C17 1.402 . S
C3379 C50 1.401 . S
C3384 C182 1.401 . S
C3409 C83 1.402 . S
C3414 C116 1.402 . S
C3439 C215 1.402 . S
C3444 C347 1.402 . S
C3469 C248 1.401 . S
C3474 C380 1.401 . S
C3499 C281 1.402 . S
C3504 C314 1.402 . S
C3529 C545 1.402 . S
C3534 C413 1.402 . S
C3559 C578 1.401 . S
C3564 C446 1.401 . S
C3589 C512 1.402 . S
C3594 C479 1.402 . S
C3619 C743 1.402 . S
C3624 C611 1.402 . S
C3649 C776 1.401 . S
C3654 C644 1.401 . S
C3679 C710 1.402 . S
C3684 C677 1.402 . S
C3709 C941 1.402 . S
C3714 C809 1.402 . S
C3739 C842 1.402 . S
C3744 C974 1.401 . S
C3769 C908 1.402 . S
C3774 C875 1.402 . S
C3799 C1139 1.402 . S
C3804 C1007 1.402 . S
C3829 C1172 1.401 . S
C3834 C1040 1.401 . S
C3859 C1073 1.402 . S
C3864 C1106 1.402 . S
